# generated using pymatgen
data_Ba2YMo3O8
_symmetry_space_group_name_H-M   'P 1'
_cell_length_a   4.19711800
_cell_length_b   4.19711800
_cell_length_c   11.81016200
_cell_angle_alpha   90.00000000
_cell_angle_beta   90.00000000
_cell_angle_gamma   90.00000000
_symmetry_Int_Tables_number   1
_chemical_formula_structural   Ba2YMo3O8
_chemical_formula_sum   'Ba2 Y1 Mo3 O8'
_cell_volume   208.04544592
_cell_formula_units_Z   1
loop_
 _symmetry_equiv_pos_site_id
 _symmetry_equiv_pos_as_xyz
  1  'x, y, z'
loop_
 _atom_site_type_symbol
 _atom_site_label
 _atom_site_symmetry_multiplicity
 _atom_site_fract_x
 _atom_site_fract_y
 _atom_site_fract_z
 _atom_site_occupancy
  Ba  Ba0  1  0.00000000  0.00000000  0.16957100  1
  Ba  Ba1  1  0.00000000  0.00000000  0.83042900  1
  Y  Y0  1  0.00000000  0.00000000  0.50000000  1
  Mo  Mo0  1  0.50000000  0.50000000  0.35775900  1
  Mo  Mo1  1  0.50000000  0.50000000  0.00000000  1
  Mo  Mo2  1  0.50000000  0.50000000  0.64224100  1
  O  O0  1  0.50000000  0.00000000  0.38121600  1
  O  O1  1  0.00000000  0.50000000  0.38121600  1
  O  O2  1  0.00000000  0.50000000  0.00000000  1
  O  O3  1  0.50000000  0.50000000  0.17316400  1
  O  O4  1  0.50000000  0.00000000  0.61878400  1
  O  O5  1  0.00000000  0.50000000  0.61878400  1
  O  O6  1  0.50000000  0.50000000  0.82683600  1
  O  O7  1  0.50000000  0.00000000  0.00000000  1
loop_
_geom_bond_atom_site_label_1
_geom_bond_atom_site_label_2
_geom_bond_distance
_geom_bond_site_symmetry_2
Ba0 O7 2.900793 1_555
Ba0 O2 2.900793 1_555
Ba0 O7 2.900793 1_455
Ba0 O2 2.900793 1_545
Ba0 O3 2.968114 1_555
Ba0 O3 2.968114 1_445
Ba0 O3 2.968114 1_545
Ba0 O3 2.968114 1_455
Ba0 O0 3.263703 1_455
Ba0 O1 3.263703 1_545
Ba0 O1 3.263703 1_555
Ba0 O0 3.263703 1_555
Ba1 O7 2.900793 1_556
Ba1 O2 2.900793 1_556
Ba1 O7 2.900793 1_456
Ba1 O2 2.900793 1_546
Ba1 O6 2.968114 1_445
Ba1 O6 2.968114 1_545
Ba1 O6 2.968114 1_455
Ba1 O6 2.968114 1_555
Ba1 O5 3.263703 1_555
Ba1 O5 3.263703 1_545
Ba1 O4 3.263703 1_455
Ba1 O4 3.263703 1_555
Mo0 O1 2.116765 1_655
Mo0 O1 2.116765 1_555
Mo0 O0 2.116765 1_555
Mo0 O0 2.116765 1_565
Mo0 O3 2.180097 1_555
Mo1 O6 2.045095 1_554
Mo1 O3 2.045095 1_555
Mo1 O7 2.098559 1_565
Mo1 O7 2.098559 1_555
Mo1 O2 2.098559 1_555
Mo1 O2 2.098559 1_655
Mo2 O4 2.116765 1_555
Mo2 O5 2.116765 1_555
Mo2 O5 2.116765 1_655
Mo2 O4 2.116765 1_565
Mo2 O6 2.180097 1_555
O0 Y0 2.524274 1_655
O0 Y0 2.524274 1_555
O1 Y0 2.524274 1_565
O1 Y0 2.524274 1_555
O4 Y0 2.524274 1_655
O4 Y0 2.524274 1_555
O5 Y0 2.524274 1_565
O5 Y0 2.524274 1_555
