# generated using pymatgen
data_K4CO4
_symmetry_space_group_name_H-M   'P 1'
_cell_length_a   11.31661302
_cell_length_b   4.02300253
_cell_length_c   7.37774868
_cell_angle_alpha   87.96078699
_cell_angle_beta   136.09383045
_cell_angle_gamma   86.81058054
_symmetry_Int_Tables_number   1
_chemical_formula_structural   K4CO4
_chemical_formula_sum   'K4 C1 O4'
_cell_volume   231.17559807
_cell_formula_units_Z   1
loop_
 _symmetry_equiv_pos_site_id
 _symmetry_equiv_pos_as_xyz
  1  'x, y, z'
loop_
 _atom_site_type_symbol
 _atom_site_label
 _atom_site_symmetry_multiplicity
 _atom_site_fract_x
 _atom_site_fract_y
 _atom_site_fract_z
 _atom_site_occupancy
  K  K0  1  0.16340200  0.60137400  0.44009200  1
  K  K1  1  0.39778100  0.53567600  0.11093100  1
  K  K2  1  0.90721500  0.88822200  0.47314800  1
  K  K3  1  0.54097900  0.98120300  0.81546200  1
  C  C0  1  0.97588100  0.39437400  0.85435600  1
  O  O0  1  0.20516300  0.09187300  0.71931800  1
  O  O1  1  0.95089900  0.17403000  0.92266300  1
  O  O2  1  0.40552400  0.51137700  0.47864200  1
  O  O3  1  0.69873600  0.44466000  0.18538900  1
loop_
_geom_bond_atom_site_label_1
_geom_bond_atom_site_label_2
_geom_bond_distance
_geom_bond_site_symmetry_2
K0 O2 2.545377 1_555
K0 O0 2.618662 1_555
K0 O0 2.711313 1_565
K1 O2 2.648506 1_555
K1 O0 2.830550 1_554
K1 O0 2.833385 1_564
K1 O3 3.030887 1_555
K2 O3 2.603517 1_555
K2 O0 2.632072 1_665
K2 O3 2.634611 1_565
K3 O2 2.616142 1_565
K3 O2 2.695396 1_555
K3 O3 2.725086 1_556
K3 O3 2.797108 1_566
K3 O0 3.323942 1_565
C0 O1 1.149377 1_555
C0 K2 2.956743 1_555
