# generated using pymatgen
data_Zr3Sb4Pt3
_symmetry_space_group_name_H-M   'P 1'
_cell_length_a   8.17903731
_cell_length_b   8.17903731
_cell_length_c   8.17903731
_cell_angle_alpha   109.47122063
_cell_angle_beta   109.47122063
_cell_angle_gamma   109.47122063
_symmetry_Int_Tables_number   1
_chemical_formula_structural   Zr3Sb4Pt3
_chemical_formula_sum   'Zr6 Sb8 Pt6'
_cell_volume   421.19642506
_cell_formula_units_Z   2
loop_
 _symmetry_equiv_pos_site_id
 _symmetry_equiv_pos_as_xyz
  1  'x, y, z'
loop_
 _atom_site_type_symbol
 _atom_site_label
 _atom_site_symmetry_multiplicity
 _atom_site_fract_x
 _atom_site_fract_y
 _atom_site_fract_z
 _atom_site_occupancy
  Zr  Zr0  1  0.62500000  0.37500000  0.25000000  1
  Zr  Zr1  1  0.87500000  0.12500000  0.75000000  1
  Zr  Zr2  1  0.37500000  0.25000000  0.62500000  1
  Zr  Zr3  1  0.12500000  0.75000000  0.87500000  1
  Zr  Zr4  1  0.25000000  0.62500000  0.37500000  1
  Zr  Zr5  1  0.75000000  0.87500000  0.12500000  1
  Sb  Sb0  1  0.18008861  0.18008861  0.18008861  1
  Sb  Sb1  1  0.31991139  0.50000000  0.00000000  1
  Sb  Sb2  1  -0.00000000  0.31991139  0.50000000  1
  Sb  Sb3  1  0.68008861  0.68008861  0.68008861  1
  Sb  Sb4  1  0.50000000  0.00000000  0.31991139  1
  Sb  Sb5  1  0.81991139  0.50000000  0.00000000  1
  Sb  Sb6  1  0.50000000  -0.00000000  0.81991139  1
  Sb  Sb7  1  0.00000000  0.81991139  0.50000000  1
  Pt  Pt0  1  0.12500000  0.87500000  0.25000000  1
  Pt  Pt1  1  0.37500000  0.62500000  0.75000000  1
  Pt  Pt2  1  0.87500000  0.25000000  0.12500000  1
  Pt  Pt3  1  0.62500000  0.75000000  0.37500000  1
  Pt  Pt4  1  0.25000000  0.12500000  0.87500000  1
  Pt  Pt5  1  0.75000000  0.37500000  0.62500000  1
loop_
_geom_bond_atom_site_label_1
_geom_bond_atom_site_label_2
_geom_bond_distance
_geom_bond_site_symmetry_2
Sb0 Zr4 3.201248 1_555
Sb0 Zr2 3.201248 1_555
Sb0 Zr0 3.201248 1_555
Sb0 Zr5 3.338544 1_445
Sb0 Zr1 3.338544 1_454
Sb0 Zr3 3.338544 1_544
Sb1 Zr1 3.201248 1_454
Sb1 Zr4 3.201248 1_555
Sb1 Zr3 3.201248 1_554
Sb1 Zr5 3.338544 1_555
Sb1 Zr0 3.338544 1_555
Sb1 Zr2 3.338544 1_554
Sb2 Zr1 3.201248 1_455
Sb2 Zr2 3.201248 1_555
Sb2 Zr5 3.201248 1_445
Sb2 Zr0 3.338544 1_455
Sb2 Zr4 3.338544 1_555
Sb2 Zr3 3.338544 1_555
Sb3 Zr1 3.201248 1_565
Sb3 Zr5 3.201248 1_556
Sb3 Zr3 3.201248 1_655
Sb3 Zr2 3.338544 1_555
Sb3 Zr4 3.338544 1_555
Sb3 Zr0 3.338544 1_555
Sb4 Zr5 3.201248 1_545
Sb4 Zr0 3.201248 1_555
Sb4 Zr3 3.201248 1_544
Sb4 Zr1 3.338544 1_555
Sb4 Zr4 3.338544 1_545
Sb4 Zr2 3.338544 1_555
Sb5 Zr0 3.201248 1_555
Sb5 Zr5 3.201248 1_555
Sb5 Zr2 3.201248 1_554
Sb5 Zr1 3.338544 1_554
Sb5 Zr3 3.338544 1_654
Sb5 Zr4 3.338544 1_655
Sb6 Zr2 3.201248 1_555
Sb6 Zr4 3.201248 1_545
Sb6 Zr1 3.201248 1_555
Sb6 Zr3 3.338544 1_545
Sb6 Zr5 3.338544 1_546
Sb6 Zr0 3.338544 1_556
Sb7 Zr4 3.201248 1_555
Sb7 Zr3 3.201248 1_555
Sb7 Zr0 3.201248 1_455
Sb7 Zr5 3.338544 1_455
Sb7 Zr2 3.338544 1_565
Sb7 Zr1 3.338544 1_465
Pt0 Sb7 2.670225 1_555
Pt0 Sb4 2.670225 1_565
Pt0 Sb5 2.670225 1_455
Pt0 Sb0 2.670225 1_565
Pt0 Zr3 2.891726 1_554
Pt0 Zr4 2.891726 1_555
Pt0 Zr5 2.891726 1_455
Pt0 Zr2 2.891726 1_565
Pt1 Sb3 2.670225 1_555
Pt1 Sb1 2.670225 1_556
Pt1 Sb6 2.670225 1_565
Pt1 Sb2 2.670225 1_555
Pt1 Zr2 2.891726 1_555
Pt1 Zr3 2.891726 1_555
Pt1 Zr4 2.891726 1_555
Pt1 Zr5 2.891726 1_556
Pt2 Sb2 2.670225 1_655
Pt2 Sb5 2.670225 1_555
Pt2 Sb6 2.670225 1_554
Pt2 Sb0 2.670225 1_655
Pt2 Zr5 2.891726 1_545
Pt2 Zr0 2.891726 1_555
Pt2 Zr1 2.891726 1_554
Pt2 Zr4 2.891726 1_655
Pt3 Sb1 2.670225 1_555
Pt3 Sb4 2.670225 1_565
Pt3 Sb7 2.670225 1_655
Pt3 Sb3 2.670225 1_555
Pt3 Zr5 2.891726 1_555
Pt3 Zr0 2.891726 1_555
Pt3 Zr4 2.891726 1_555
Pt3 Zr1 2.891726 1_565
Pt4 Sb7 2.670225 1_545
Pt4 Sb6 2.670225 1_555
Pt4 Sb1 2.670225 1_556
Pt4 Sb0 2.670225 1_556
Pt4 Zr2 2.891726 1_555
Pt4 Zr1 2.891726 1_455
Pt4 Zr3 2.891726 1_545
Pt4 Zr0 2.891726 1_556
Pt5 Sb5 2.670225 1_556
Pt5 Sb3 2.670225 1_555
Pt5 Sb4 2.670225 1_555
Pt5 Sb2 2.670225 1_655
Pt5 Zr2 2.891726 1_555
Pt5 Zr0 2.891726 1_555
Pt5 Zr1 2.891726 1_555
Pt5 Zr3 2.891726 1_655
