# generated using pymatgen
data_Ta6Al8O27F
_symmetry_space_group_name_H-M   'P 1'
_cell_length_a   7.43601100
_cell_length_b   8.73841337
_cell_length_c   8.74111990
_cell_angle_alpha   63.37061087
_cell_angle_beta   64.82724843
_cell_angle_gamma   64.83860618
_symmetry_Int_Tables_number   1
_chemical_formula_structural   Ta6Al8O27F
_chemical_formula_sum   'Ta6 Al8 O27 F1'
_cell_volume   439.78843393
_cell_formula_units_Z   1
loop_
 _symmetry_equiv_pos_site_id
 _symmetry_equiv_pos_as_xyz
  1  'x, y, z'
loop_
 _atom_site_type_symbol
 _atom_site_label
 _atom_site_symmetry_multiplicity
 _atom_site_fract_x
 _atom_site_fract_y
 _atom_site_fract_z
 _atom_site_occupancy
  Ta  Ta0  1  0.78980400  0.81899100  0.07164700  1
  Ta  Ta1  1  0.28650800  0.32225500  0.56988800  1
  Ta  Ta2  1  0.70920600  0.56969200  0.81995400  1
  Ta  Ta3  1  0.21274100  0.07189200  0.32073700  1
  Ta  Ta4  1  0.37321500  0.73541400  0.98245100  1
  Ta  Ta5  1  0.87690300  0.23253900  0.48487400  1
  Al  Al0  1  0.87178300  0.12864300  0.87230200  1
  Al  Al1  1  0.37193400  0.62749300  0.37155000  1
  Al  Al2  1  0.28508700  0.41241000  0.16107600  1
  Al  Al3  1  0.77668900  0.92198800  0.65890100  1
  Al  Al4  1  0.60048300  0.27600700  0.02684800  1
  Al  Al5  1  0.09870600  0.78283000  0.51810900  1
  Al  Al6  1  0.23974400  0.18696600  0.93579600  1
  Al  Al7  1  0.72847500  0.69077800  0.42809100  1
  O  O0  1  0.71691000  0.61580300  0.05013900  1
  O  O1  1  0.21877000  0.11517200  0.55207600  1
  O  O2  1  0.40043800  0.50373100  0.02229200  1
  O  O3  1  0.89948800  0.99942900  0.52652100  1
  O  O4  1  0.33332100  0.28901200  0.80712800  1
  O  O5  1  0.84019900  0.78658200  0.31420000  1
  O  O6  1  0.04318500  0.43040800  0.94766800  1
  O  O7  1  0.55168600  0.92302200  0.45047000  1
  O  O8  1  0.12083300  0.64134000  0.16866700  1
  O  O9  1  0.61894700  0.14671700  0.66748300  1
  O  O10  1  0.69152900  0.35526200  0.88166400  1
  O  O11  1  0.19299900  0.85657000  0.37848300  1
  O  O12  1  0.47136600  0.71493600  0.23640800  1
  O  O13  1  0.97682500  0.21268000  0.73948800  1
  O  O14  1  0.54808100  0.39323700  0.37056200  1
  O  O15  1  0.04388000  0.89314900  0.86717400  1
  O  O16  1  0.78170600  0.04061200  0.01795700  1
  O  O17  1  0.27941600  0.54422500  0.51885400  1
  O  O18  1  0.13649700  0.10040000  0.07648800  1
  O  O19  1  0.63798700  0.60113100  0.57625000  1
  O  O20  1  0.73642900  0.79553600  0.81838300  1
  O  O21  1  0.23479500  0.29547300  0.31979500  1
  O  O22  1  0.35736000  0.72418000  0.74415500  1
  O  O23  1  0.86441300  0.22133100  0.24845600  1
  O  O24  1  0.44111400  0.94461000  0.96998200  1
  O  O25  1  0.93714000  0.44808300  0.46995100  1
  O  O26  1  0.46256100  0.20374300  0.12959000  1
  F  F0  1  0.97284800  0.69372700  0.63949200  1
loop_
_geom_bond_atom_site_label_1
_geom_bond_atom_site_label_2
_geom_bond_distance
_geom_bond_site_symmetry_2
Al0 O13 1.203850 1_555
Al0 O16 1.223153 1_556
Al0 O10 1.876094 1_555
Al0 O15 1.915454 1_645
Al1 O12 1.205918 1_555
Al1 O17 1.221838 1_555
Al1 O11 1.885853 1_555
Al1 O14 1.905857 1_555
Al2 O2 1.293539 1_555
Al2 O21 1.312080 1_555
Al2 O26 1.799131 1_555
Al2 O8 1.862926 1_555
Al3 O3 1.247142 1_555
Al3 O20 1.341413 1_555
Al3 O9 1.826579 1_565
Al3 F0 1.937475 1_555
Al4 O10 1.195178 1_554
Al4 O26 1.231227 1_555
Al4 O16 1.936567 1_555
Al5 O11 1.160876 1_555
Al5 F0 1.281491 1_455
Al5 O17 1.940591 1_555
Al6 O4 1.227650 1_555
Al6 O18 1.237240 1_556
Al6 O24 1.983264 1_545
Al6 O6 2.024202 1_555
Al7 O5 1.234041 1_555
Al7 O19 1.241409 1_555
Al7 O7 1.937415 1_555
Al7 O25 2.007061 1_555
O0 Ta0 2.164719 1_555
O0 Ta2 2.249121 1_554
O1 O21 1.924888 1_555
O1 O13 2.021627 1_455
O1 Ta1 2.155662 1_555
O1 Ta3 2.238593 1_555
O1 Ta5 2.524401 1_455
O2 Ta4 1.827695 1_554
O3 Ta5 1.845670 1_565
O4 Ta1 2.119921 1_555
O5 Ta0 2.182477 1_555
O8 Ta4 2.088305 1_554
O9 Ta5 2.082098 1_555
O9 Ta1 2.566733 1_555
O10 Ta2 1.749956 1_555
O11 Ta3 1.771187 1_565
O13 Ta1 2.473017 1_655
O14 Ta1 2.092333 1_555
O14 Ta5 2.617228 1_555
O15 Ta0 2.077046 1_456
O15 Ta4 2.626096 1_555
O16 Ta0 1.756272 1_545
O17 Ta1 1.766763 1_555
O21 Ta1 2.496383 1_555
O22 Ta4 2.182745 1_555
O23 Ta5 2.154375 1_555
O24 Ta4 2.041556 1_555
O25 Ta5 2.052492 1_555
O25 Ta1 2.713258 1_655
