# generated using pymatgen
data_Al2Si3H8(NO5)2
_symmetry_space_group_name_H-M   'P 1'
_cell_length_a   12.86677989
_cell_length_b   9.69798558
_cell_length_c   9.68580447
_cell_angle_alpha   83.17921300
_cell_angle_beta   48.45096247
_cell_angle_gamma   48.36982453
_symmetry_Int_Tables_number   1
_chemical_formula_structural   Al2Si3H8(NO5)2
_chemical_formula_sum   'Al4 Si6 H16 N4 O20'
_cell_volume   552.95617142
_cell_formula_units_Z   2
loop_
 _symmetry_equiv_pos_site_id
 _symmetry_equiv_pos_as_xyz
  1  'x, y, z'
loop_
 _atom_site_type_symbol
 _atom_site_label
 _atom_site_symmetry_multiplicity
 _atom_site_fract_x
 _atom_site_fract_y
 _atom_site_fract_z
 _atom_site_occupancy
  Al  Al0  1  0.74835000  0.44814100  0.31653400  1
  Al  Al1  1  0.48697400  0.31653400  0.44814100  1
  Al  Al2  1  0.93346600  0.76302600  0.50165000  1
  Al  Al3  1  0.80185900  0.50165000  0.76302600  1
  Si  Si0  1  0.23094200  0.76905800  0.76905800  1
  Si  Si1  1  0.48094200  0.01905800  0.01905800  1
  Si  Si2  1  0.97331900  0.45779500  0.32667600  1
  Si  Si3  1  0.24221000  0.32667600  0.45779500  1
  Si  Si4  1  0.92332400  0.00779000  0.27668100  1
  Si  Si5  1  0.79220500  0.27668100  0.00779000  1
  H  H0  1  0.30623200  0.10021200  0.86191400  1
  H  H1  1  0.73164200  0.86191400  0.10021200  1
  H  H2  1  0.42124900  0.89609800  0.66855500  1
  H  H3  1  0.01409700  0.66855500  0.89609800  1
  H  H4  1  0.37749400  0.10231800  0.63722200  1
  H  H5  1  0.88296700  0.63722200  0.10231800  1
  H  H6  1  0.57756300  0.90320100  0.60035700  1
  H  H7  1  0.91887800  0.60035700  0.90320100  1
  H  H8  1  0.34679900  0.67243700  0.33112200  1
  H  H9  1  0.64964300  0.33112200  0.67243700  1
  H  H10  1  0.35390200  0.82875100  0.23590300  1
  H  H11  1  0.58144500  0.23590300  0.82875100  1
  H  H12  1  0.14768200  0.87250600  0.36703300  1
  H  H13  1  0.61277800  0.36703300  0.87250600  1
  H  H14  1  0.14978800  0.94376800  0.51835800  1
  H  H15  1  0.38808600  0.51835800  0.94376800  1
  N  N0  1  0.41834400  0.00115700  0.69382600  1
  N  N1  1  0.88667300  0.69382600  0.00115700  1
  N  N2  1  0.24884300  0.83165600  0.36332700  1
  N  N3  1  0.55617400  0.36332700  0.83165600  1
  O  O0  1  0.26864200  0.58740700  0.68643600  1
  O  O1  1  0.45751600  0.68643600  0.58740700  1
  O  O2  1  0.66259300  0.98135800  0.79248400  1
  O  O3  1  0.56356400  0.79248400  0.98135800  1
  O  O4  1  0.87906300  0.50160700  0.24788400  1
  O  O5  1  0.37144700  0.24788400  0.50160700  1
  O  O6  1  0.00211600  0.87855300  0.37093700  1
  O  O7  1  0.74839300  0.37093700  0.87855300  1
  O  O8  1  0.87162100  0.21186900  0.32514300  1
  O  O9  1  0.59136700  0.32514300  0.21186900  1
  O  O10  1  0.03813100  0.37837900  0.65863300  1
  O  O11  1  0.92485700  0.65863300  0.37837900  1
  O  O12  1  0.84798700  0.45858000  0.54939300  1
  O  O13  1  0.14404100  0.54939300  0.45858000  1
  O  O14  1  0.70060700  0.10595900  0.40201300  1
  O  O15  1  0.79142000  0.40201300  0.10595900  1
  O  O16  1  0.24803600  0.20837900  0.10930000  1
  O  O17  1  0.43428600  0.10930000  0.20837900  1
  O  O18  1  0.04162100  0.00196400  0.81571400  1
  O  O19  1  0.14070000  0.81571400  0.00196400  1
loop_
_geom_bond_atom_site_label_1
_geom_bond_atom_site_label_2
_geom_bond_distance
_geom_bond_site_symmetry_2
Al0 O15 1.747897 1_555
Al0 O8 1.753383 1_555
Al0 O4 1.770005 1_555
Al0 O1 1.775931 1_555
Al1 O14 1.747897 1_555
Al1 O9 1.753382 1_555
Al1 O5 1.769982 1_555
Al1 O0 1.775938 1_555
Al2 O13 1.747897 1_655
Al2 O11 1.753389 1_555
Al2 O6 1.769988 1_655
Al2 O2 1.775930 1_555
Al3 O12 1.747897 1_555
Al3 O10 1.753378 1_655
Al3 O7 1.769999 1_555
Al3 O3 1.775927 1_555
H0 N0 1.034055 1_555
H1 N1 1.034055 1_555
H2 N0 1.046847 1_565
H3 N1 1.046837 1_456
H4 N0 1.052952 1_555
H5 N1 1.052955 1_555
H6 N0 1.037905 1_565
H7 N1 1.037916 1_556
H8 N2 1.037909 1_555
H9 N3 1.037908 1_555
H10 N2 1.046844 1_555
H11 N3 1.046837 1_555
H12 N2 1.052959 1_555
H13 N3 1.052947 1_555
H14 N2 1.034055 1_555
H15 N3 1.034055 1_555
O0 Si0 1.632077 1_555
O1 Si0 1.632086 1_555
O2 Si1 1.632081 1_566
O3 Si1 1.632086 1_566
O4 Si2 1.643124 1_555
O5 Si3 1.643136 1_555
O6 Si4 1.643127 1_465
O7 Si5 1.643133 1_556
O8 Si4 1.623899 1_555
O9 Si5 1.623899 1_555
O10 Si3 1.623899 1_555
O11 Si2 1.623899 1_555
O12 Si2 1.620820 1_555
O13 Si3 1.620822 1_555
O14 Si4 1.620825 1_555
O15 Si5 1.620814 1_555
O16 Si1 1.646731 1_555
O16 Si2 1.660015 1_455
O17 Si1 1.646740 1_555
O17 Si3 1.660011 1_555
O18 Si0 1.646736 1_545
O18 Si5 1.660015 1_456
O19 Si0 1.646731 1_554
O19 Si4 1.660016 1_465
