# generated using pymatgen
data_Sm2(Ga3Co)3
_symmetry_space_group_name_H-M   'P 1'
_cell_length_a   7.40643641
_cell_length_b   7.40643641
_cell_length_c   9.50859900
_cell_angle_alpha   90.00000000
_cell_angle_beta   90.00000000
_cell_angle_gamma   119.63084641
_symmetry_Int_Tables_number   1
_chemical_formula_structural   Sm2(Ga3Co)3
_chemical_formula_sum   'Sm4 Ga18 Co6'
_cell_volume   453.38722177
_cell_formula_units_Z   2
loop_
 _symmetry_equiv_pos_site_id
 _symmetry_equiv_pos_as_xyz
  1  'x, y, z'
loop_
 _atom_site_type_symbol
 _atom_site_label
 _atom_site_symmetry_multiplicity
 _atom_site_fract_x
 _atom_site_fract_y
 _atom_site_fract_z
 _atom_site_occupancy
  Sm  Sm0  1  0.50300500  0.83125200  0.25000000  1
  Sm  Sm1  1  0.49699500  0.16874800  0.75000000  1
  Sm  Sm2  1  0.16874800  0.49699500  0.75000000  1
  Sm  Sm3  1  0.83125200  0.50300500  0.25000000  1
  Ga  Ga0  1  0.16313700  0.95124200  0.25000000  1
  Ga  Ga1  1  0.83686300  0.04875800  0.75000000  1
  Ga  Ga2  1  0.04875800  0.83686300  0.75000000  1
  Ga  Ga3  1  0.95124200  0.16313700  0.25000000  1
  Ga  Ga4  1  0.62339300  0.62339300  0.75000000  1
  Ga  Ga5  1  0.37660700  0.37660700  0.25000000  1
  Ga  Ga6  1  0.16537200  0.16537200  0.55526400  1
  Ga  Ga7  1  0.83462800  0.83462800  0.05526400  1
  Ga  Ga8  1  0.83462800  0.83462800  0.44473600  1
  Ga  Ga9  1  0.16537200  0.16537200  0.94473600  1
  Ga  Ga10  1  0.50186800  0.83441400  0.57119500  1
  Ga  Ga11  1  0.49813200  0.16558600  0.07119500  1
  Ga  Ga12  1  0.16558600  0.49813200  0.42880500  1
  Ga  Ga13  1  0.83441400  0.50186800  0.92880500  1
  Ga  Ga14  1  0.49813200  0.16558600  0.42880500  1
  Ga  Ga15  1  0.50186800  0.83441400  0.92880500  1
  Ga  Ga16  1  0.83441400  0.50186800  0.57119500  1
  Ga  Ga17  1  0.16558600  0.49813200  0.07119500  1
  Co  Co0  1  0.50000000  0.50000000  0.50000000  1
  Co  Co1  1  0.50000000  0.50000000  0.00000000  1
  Co  Co2  1  0.17073500  0.82926500  0.50000000  1
  Co  Co3  1  0.82926500  0.17073500  0.00000000  1
  Co  Co4  1  0.82926500  0.17073500  0.50000000  1
  Co  Co5  1  0.17073500  0.82926500  0.00000000  1
loop_
_geom_bond_atom_site_label_1
_geom_bond_atom_site_label_2
_geom_bond_distance
_geom_bond_site_symmetry_2
Ga0 Ga3 2.713188 1_465
Ga0 Ga5 2.738553 1_565
Ga0 Ga14 2.769840 1_565
Ga0 Ga11 2.769840 1_565
Ga0 Ga8 2.831356 1_455
Ga0 Ga7 2.831356 1_455
Ga0 Sm3 2.999050 1_455
Ga0 Sm0 3.055841 1_555
Ga1 Ga2 2.713188 1_645
Ga1 Ga4 2.738553 1_545
Ga1 Ga15 2.769840 1_545
Ga1 Ga10 2.769840 1_545
Ga1 Ga9 2.831356 1_655
Ga1 Ga6 2.831356 1_655
Ga1 Sm2 2.999050 1_655
Ga1 Sm1 3.055841 1_555
Ga2 Ga4 2.738553 1_455
Ga2 Ga9 2.831356 1_565
Ga2 Ga6 2.831356 1_565
Ga2 Sm1 2.999050 1_565
Ga2 Sm2 3.055841 1_555
Ga3 Ga5 2.738553 1_655
Ga3 Ga8 2.831356 1_545
Ga3 Ga7 2.831356 1_545
Ga3 Sm0 2.999050 1_545
Ga3 Sm3 3.055841 1_555
Ga4 Sm2 3.016292 1_555
Ga4 Sm1 3.016292 1_555
Ga5 Sm0 3.016292 1_555
Ga5 Sm3 3.016292 1_555
Ga6 Ga8 2.678120 1_445
Ga6 Sm1 3.066140 1_555
Ga6 Sm2 3.066140 1_555
Ga7 Ga9 2.678120 1_664
Ga7 Sm3 3.066140 1_555
Ga7 Sm0 3.066140 1_555
Ga8 Sm0 3.066140 1_555
Ga8 Sm3 3.066140 1_555
Ga9 Sm1 3.066140 1_555
Ga9 Sm2 3.066140 1_555
Ga10 Ga8 2.741552 1_555
Ga10 Ga4 2.744895 1_555
Ga10 Ga14 2.813761 1_565
Ga10 Ga12 2.847073 1_555
Ga10 Sm1 3.018607 1_565
Ga10 Sm2 3.020988 1_555
Ga10 Sm0 3.054248 1_555
Ga11 Ga9 2.741552 1_554
Ga11 Ga5 2.744895 1_555
Ga11 Ga15 2.813761 1_544
Ga11 Ga13 2.847073 1_554
Ga11 Sm0 3.018607 1_545
Ga11 Sm3 3.020988 1_555
Ga11 Sm1 3.054248 1_554
Ga12 Ga6 2.741552 1_555
Ga12 Ga5 2.744895 1_555
Ga12 Ga3 2.769840 1_455
Ga12 Ga16 2.813761 1_455
Ga12 Sm3 3.018607 1_455
Ga12 Sm0 3.020988 1_555
Ga12 Sm2 3.054248 1_555
Ga13 Ga7 2.741552 1_556
Ga13 Ga4 2.744895 1_555
Ga13 Ga2 2.769840 1_655
Ga13 Ga17 2.813761 1_656
Ga13 Sm2 3.018607 1_655
Ga13 Sm1 3.020988 1_555
Ga13 Sm3 3.054248 1_556
Ga14 Ga6 2.741552 1_555
Ga14 Ga5 2.744895 1_555
Ga14 Ga16 2.847073 1_555
Ga14 Sm0 3.018607 1_545
Ga14 Sm3 3.020988 1_555
Ga14 Sm1 3.054248 1_555
Ga15 Ga7 2.741552 1_556
Ga15 Ga4 2.744895 1_555
Ga15 Ga17 2.847073 1_556
Ga15 Sm1 3.018607 1_565
Ga15 Sm2 3.020988 1_555
Ga15 Sm0 3.054248 1_556
Ga16 Ga8 2.741552 1_555
Ga16 Ga4 2.744895 1_555
Ga16 Ga2 2.769840 1_655
Ga16 Sm2 3.018607 1_655
Ga16 Sm1 3.020988 1_555
Ga16 Sm3 3.054248 1_555
Ga17 Ga9 2.741552 1_554
Ga17 Ga5 2.744895 1_555
Ga17 Ga3 2.769840 1_455
Ga17 Sm3 3.018607 1_455
Ga17 Sm0 3.020988 1_555
Ga17 Sm2 3.054248 1_554
Co0 Ga8 2.547014 1_555
Co0 Ga6 2.547014 1_555
Co0 Ga4 2.548607 1_555
Co0 Ga5 2.548607 1_555
Co0 Ga16 2.561095 1_555
Co0 Ga10 2.561095 1_555
Co0 Ga12 2.561095 1_555
Co0 Ga14 2.561095 1_555
Co1 Ga7 2.547014 1_555
Co1 Ga9 2.547014 1_554
Co1 Ga4 2.548607 1_554
Co1 Ga5 2.548607 1_555
Co1 Ga13 2.561095 1_554
Co1 Ga15 2.561095 1_554
Co1 Ga17 2.561095 1_555
Co1 Ga11 2.561095 1_555
Co2 Ga12 2.526279 1_555
Co2 Ga10 2.526279 1_555
Co2 Ga0 2.553515 1_555
Co2 Ga2 2.553515 1_555
Co2 Ga14 2.563264 1_565
Co2 Ga16 2.563264 1_455
Co2 Ga6 2.563664 1_565
Co2 Ga8 2.563664 1_455
Co3 Ga13 2.526279 1_554
Co3 Ga11 2.526279 1_555
Co3 Ga3 2.553515 1_555
Co3 Ga1 2.553515 1_554
Co3 Ga17 2.563264 1_655
Co3 Ga15 2.563264 1_544
Co3 Ga7 2.563664 1_545
Co3 Ga9 2.563664 1_654
Co4 Ga16 2.526279 1_555
Co4 Ga14 2.526279 1_555
Co4 Ga3 2.553515 1_555
Co4 Ga1 2.553515 1_555
Co4 Ga12 2.563264 1_655
Co4 Ga10 2.563264 1_545
Co4 Ga6 2.563664 1_655
Co4 Ga8 2.563664 1_545
Co5 Ga17 2.526279 1_555
Co5 Ga15 2.526279 1_554
Co5 Ga0 2.553515 1_555
Co5 Ga2 2.553515 1_554
Co5 Ga11 2.563264 1_565
Co5 Ga13 2.563264 1_454
Co5 Ga7 2.563664 1_455
Co5 Ga9 2.563664 1_564
