# generated using pymatgen
data_Cr2FeTe4
_symmetry_space_group_name_H-M   'P 1'
_cell_length_a   7.05068551
_cell_length_b   7.05068551
_cell_length_c   6.94393901
_cell_angle_alpha   60.59250324
_cell_angle_beta   60.59250324
_cell_angle_gamma   33.55750345
_symmetry_Int_Tables_number   1
_chemical_formula_structural   Cr2FeTe4
_chemical_formula_sum   'Cr2 Fe1 Te4'
_cell_volume   163.81162040
_cell_formula_units_Z   1
loop_
 _symmetry_equiv_pos_site_id
 _symmetry_equiv_pos_as_xyz
  1  'x, y, z'
loop_
 _atom_site_type_symbol
 _atom_site_label
 _atom_site_symmetry_multiplicity
 _atom_site_fract_x
 _atom_site_fract_y
 _atom_site_fract_z
 _atom_site_occupancy
  Cr  Cr0  1  0.74817000  0.74817000  0.26474200  1
  Cr  Cr1  1  0.25183000  0.25183000  0.73525800  1
  Fe  Fe0  1  0.00000000  0.00000000  0.00000000  1
  Te  Te0  1  0.87936900  0.87936900  0.45724600  1
  Te  Te1  1  0.12063100  0.12063100  0.54275400  1
  Te  Te2  1  0.62623600  0.62623600  0.03806300  1
  Te  Te3  1  0.37376400  0.37376400  0.96193700  1
loop_
_geom_bond_atom_site_label_1
_geom_bond_atom_site_label_2
_geom_bond_distance
_geom_bond_site_symmetry_2
Cr0 Te0 2.711658 1_555
Cr0 Te1 2.724874 1_655
Cr0 Te1 2.724874 1_565
Cr0 Te3 2.789644 1_564
Cr0 Te3 2.789644 1_654
Cr0 Te2 2.800992 1_555
Cr0 Fe0 2.920327 1_665
Cr1 Te1 2.711658 1_555
Cr1 Te0 2.724874 1_455
Cr1 Te0 2.724874 1_545
Cr1 Te2 2.789644 1_546
Cr1 Te2 2.789644 1_456
Cr1 Te3 2.800992 1_555
Cr1 Fe0 2.920327 1_556
Fe0 Te0 2.725741 1_445
Fe0 Te1 2.725741 1_554
Fe0 Te2 2.753056 1_455
Fe0 Te2 2.753056 1_545
Fe0 Te3 2.753056 1_544
Fe0 Te3 2.753056 1_454
