# generated using pymatgen
data_Mg6VGa
_symmetry_space_group_name_H-M   'P 1'
_cell_length_a   4.93660900
_cell_length_b   6.20573600
_cell_length_c   10.68512400
_cell_angle_alpha   90.00000000
_cell_angle_beta   90.00000000
_cell_angle_gamma   90.00000000
_symmetry_Int_Tables_number   1
_chemical_formula_structural   Mg6VGa
_chemical_formula_sum   'Mg12 V2 Ga2'
_cell_volume   327.34189582
_cell_formula_units_Z   2
loop_
 _symmetry_equiv_pos_site_id
 _symmetry_equiv_pos_as_xyz
  1  'x, y, z'
loop_
 _atom_site_type_symbol
 _atom_site_label
 _atom_site_symmetry_multiplicity
 _atom_site_fract_x
 _atom_site_fract_y
 _atom_site_fract_z
 _atom_site_occupancy
  Mg  Mg0  1  0.00000000  0.25510000  0.08395700  1
  Mg  Mg1  1  0.00000000  0.74490000  0.08395700  1
  Mg  Mg2  1  0.00000000  0.50000000  0.83417200  1
  Mg  Mg3  1  0.50000000  0.24168900  0.91311400  1
  Mg  Mg4  1  0.50000000  0.75831100  0.91311400  1
  Mg  Mg5  1  0.50000000  0.50000000  0.66706300  1
  Mg  Mg6  1  0.00000000  0.75510000  0.58395700  1
  Mg  Mg7  1  0.00000000  0.24490000  0.58395700  1
  Mg  Mg8  1  0.00000000  0.00000000  0.33417200  1
  Mg  Mg9  1  0.50000000  0.74168900  0.41311400  1
  Mg  Mg10  1  0.50000000  0.25831100  0.41311400  1
  Mg  Mg11  1  0.50000000  0.00000000  0.16706300  1
  V  V0  1  0.00000000  0.50000000  0.32900700  1
  V  V1  1  0.00000000  0.00000000  0.82900700  1
  Ga  Ga0  1  0.50000000  0.50000000  0.17561600  1
  Ga  Ga1  1  0.50000000  0.00000000  0.67561600  1
loop_
_geom_bond_atom_site_label_1
_geom_bond_atom_site_label_2
_geom_bond_distance
_geom_bond_site_symmetry_2
Mg0 V0 3.027492 1_555
Mg0 Mg1 3.039569 1_555
Mg0 Mg11 3.063857 1_455
Mg0 Mg11 3.063857 1_555
Mg0 Mg3 3.071128 1_554
Mg0 Mg3 3.071128 1_454
Mg0 Mg2 3.071355 1_554
Mg0 Mg8 3.107117 1_555
Mg0 V1 3.150757 1_554
Mg0 Mg1 3.166167 1_545
Mg1 V0 3.027492 1_555
Mg1 Mg11 3.063857 1_565
Mg1 Mg11 3.063857 1_465
Mg1 Mg4 3.071128 1_454
Mg1 Mg4 3.071128 1_554
Mg1 Mg2 3.071355 1_554
Mg1 Mg8 3.107117 1_565
Mg1 V1 3.150757 1_564
Mg2 Mg5 3.046445 1_555
Mg2 Mg5 3.046445 1_455
Mg2 Mg4 3.061645 1_455
Mg2 Mg3 3.061645 1_555
Mg2 Mg4 3.061645 1_555
Mg2 Mg3 3.061645 1_455
Mg2 V1 3.103359 1_565
Mg2 V1 3.103359 1_555
Mg2 Mg7 3.107117 1_555
Mg2 Mg6 3.107117 1_555
Mg3 Mg4 2.999716 1_545
Mg3 V1 3.024856 1_555
Mg3 V1 3.024856 1_655
Mg3 Mg5 3.079242 1_555
Mg3 Mg4 3.206020 1_555
Mg4 V1 3.024856 1_665
Mg4 V1 3.024856 1_565
Mg4 Mg5 3.079242 1_555
Mg5 Mg7 3.063857 1_655
Mg5 Mg6 3.063857 1_555
Mg5 Mg6 3.063857 1_655
Mg5 Mg7 3.063857 1_555
Mg5 Mg9 3.100408 1_555
Mg6 V1 3.027492 1_565
Mg6 Mg7 3.039569 1_565
Mg6 Mg9 3.071128 1_555
Mg6 Mg9 3.071128 1_455
Mg6 Mg8 3.071355 1_565
Mg6 V0 3.150757 1_555
Mg6 Mg7 3.166167 1_555
Mg7 V1 3.027492 1_555
Mg7 Mg8 3.071355 1_555
Mg7 V0 3.150757 1_555
Mg8 Mg9 3.061645 1_545
Mg8 Mg9 3.061645 1_445
Mg8 V0 3.103359 1_545
Mg8 V0 3.103359 1_555
Mg9 V0 3.024856 1_555
Mg9 V0 3.024856 1_655
Mg10 Mg9 2.999716 1_555
Mg10 V0 3.024856 1_555
Mg10 V0 3.024856 1_655
Mg10 Mg8 3.061645 1_655
Mg10 Mg8 3.061645 1_555
Mg10 Mg7 3.071128 1_555
Mg10 Mg7 3.071128 1_655
Mg10 Mg11 3.079242 1_555
Mg10 Mg5 3.100408 1_555
Mg10 Mg9 3.206020 1_545
Mg11 Mg8 3.046445 1_555
Mg11 Mg8 3.046445 1_655
Mg11 Mg9 3.079242 1_545
Mg11 Mg4 3.100408 1_544
Mg11 Mg3 3.100408 1_554
Ga0 Mg9 2.947791 1_555
Ga0 Mg10 2.947791 1_555
Ga0 V0 2.962913 1_655
Ga0 V0 2.962913 1_555
Ga0 Mg0 3.059652 1_555
Ga0 Mg0 3.059652 1_655
Ga0 Mg1 3.059652 1_655
Ga0 Mg1 3.059652 1_555
Ga0 Mg11 3.104214 1_555
Ga0 Mg11 3.104214 1_565
Ga0 Mg3 3.230622 1_554
Ga0 Mg4 3.230622 1_554
Ga1 Mg3 2.947791 1_555
Ga1 Mg4 2.947791 1_545
Ga1 V1 2.962913 1_655
Ga1 V1 2.962913 1_555
Ga1 Mg6 3.059652 1_545
Ga1 Mg7 3.059652 1_555
Ga1 Mg7 3.059652 1_655
Ga1 Mg6 3.059652 1_645
Ga1 Mg5 3.104214 1_545
Ga1 Mg5 3.104214 1_555
Ga1 Mg10 3.230622 1_555
Ga1 Mg9 3.230622 1_545
