# generated using pymatgen
data_Y2Mn(GeO3)4
_symmetry_space_group_name_H-M   'P 1'
_cell_length_a   10.03577961
_cell_length_b   10.03577961
_cell_length_c   5.03094000
_cell_angle_alpha   90.00000000
_cell_angle_beta   90.00000000
_cell_angle_gamma   90.60472615
_symmetry_Int_Tables_number   1
_chemical_formula_structural   Y2Mn(GeO3)4
_chemical_formula_sum   'Y4 Mn2 Ge8 O24'
_cell_volume   506.67231939
_cell_formula_units_Z   2
loop_
 _symmetry_equiv_pos_site_id
 _symmetry_equiv_pos_as_xyz
  1  'x, y, z'
loop_
 _atom_site_type_symbol
 _atom_site_label
 _atom_site_symmetry_multiplicity
 _atom_site_fract_x
 _atom_site_fract_y
 _atom_site_fract_z
 _atom_site_occupancy
  Y  Y0  1  0.00000000  0.50000000  0.50000000  1
  Y  Y1  1  0.50000000  0.00000000  0.50000000  1
  Y  Y2  1  0.75000000  0.75000000  0.50000000  1
  Y  Y3  1  0.25000000  0.25000000  0.50000000  1
  Mn  Mn0  1  0.50000000  0.50000000  0.50000000  1
  Mn  Mn1  1  0.00000000  0.00000000  0.50000000  1
  Ge  Ge0  1  0.74634300  0.47803600  0.99560300  1
  Ge  Ge1  1  0.25365700  0.52196400  0.00439700  1
  Ge  Ge2  1  0.24634300  0.97803600  0.00439700  1
  Ge  Ge3  1  0.75365700  0.02196400  0.99560300  1
  Ge  Ge4  1  0.47803600  0.74634300  0.00439700  1
  Ge  Ge5  1  0.52196400  0.25365700  0.99560300  1
  Ge  Ge6  1  0.97803600  0.24634300  0.99560300  1
  Ge  Ge7  1  0.02196400  0.75365700  0.00439700  1
  O  O0  1  0.56296200  0.66825500  0.26050400  1
  O  O1  1  0.06300500  0.32945100  0.25196700  1
  O  O2  1  0.43699500  0.17054900  0.25196700  1
  O  O3  1  0.93703800  0.83174500  0.26050400  1
  O  O4  1  0.43703800  0.33174500  0.73949600  1
  O  O5  1  0.93699500  0.67054900  0.74803300  1
  O  O6  1  0.56300500  0.82945100  0.74803300  1
  O  O7  1  0.06296200  0.16825500  0.73949600  1
  O  O8  1  0.66825500  0.56296200  0.73949600  1
  O  O9  1  0.32945100  0.06300500  0.74803300  1
  O  O10  1  0.17054900  0.43699500  0.74803300  1
  O  O11  1  0.83174500  0.93703800  0.73949600  1
  O  O12  1  0.33174500  0.43703800  0.26050400  1
  O  O13  1  0.67054900  0.93699500  0.25196700  1
  O  O14  1  0.82945100  0.56300500  0.25196700  1
  O  O15  1  0.16825500  0.06296200  0.26050400  1
  O  O16  1  0.36929000  0.63071000  0.83055300  1
  O  O17  1  0.87193600  0.37193600  0.83201400  1
  O  O18  1  0.62806400  0.12806400  0.83201400  1
  O  O19  1  0.13071000  0.86929000  0.83055300  1
  O  O20  1  0.63071000  0.36929000  0.16944700  1
  O  O21  1  0.12806400  0.62806400  0.16798600  1
  O  O22  1  0.37193600  0.87193600  0.16798600  1
  O  O23  1  0.86929000  0.13071000  0.16944700  1
loop_
_geom_bond_atom_site_label_1
_geom_bond_atom_site_label_2
_geom_bond_distance
_geom_bond_site_symmetry_2
Mn0 O8 2.163278 1_555
Mn0 O0 2.163278 1_555
Mn0 O4 2.163278 1_555
Mn0 O12 2.163278 1_555
Mn0 O16 2.498676 1_555
Mn0 O20 2.498676 1_555
Mn1 O7 2.163278 1_555
Mn1 O15 2.163278 1_555
Mn1 O11 2.163278 1_445
Mn1 O3 2.163278 1_445
Mn1 O23 2.498676 1_455
Mn1 O19 2.498676 1_545
Ge0 O8 1.736313 1_555
Ge0 O14 1.752496 1_556
Ge0 O20 1.809950 1_556
Ge0 O17 1.851520 1_555
Ge1 O12 1.736313 1_555
Ge1 O10 1.752496 1_554
Ge1 O16 1.809950 1_554
Ge1 O21 1.851520 1_555
Ge2 O15 1.736313 1_565
Ge2 O9 1.752496 1_564
Ge2 O19 1.809950 1_554
Ge2 O22 1.851520 1_555
Ge3 O11 1.736313 1_545
Ge3 O13 1.752496 1_546
Ge3 O23 1.809950 1_556
Ge3 O18 1.851520 1_555
Ge4 O0 1.736313 1_555
Ge4 O6 1.752496 1_554
Ge4 O16 1.809950 1_554
Ge4 O22 1.851520 1_555
Ge5 O4 1.736313 1_555
Ge5 O2 1.752496 1_556
Ge5 O20 1.809950 1_556
Ge5 O18 1.851520 1_555
Ge6 O7 1.736313 1_655
Ge6 O1 1.752496 1_656
Ge6 O23 1.809950 1_556
Ge6 O17 1.851520 1_555
Ge7 O3 1.736313 1_455
Ge7 O5 1.752496 1_454
Ge7 O19 1.809950 1_554
Ge7 O21 1.851520 1_555
O0 Y2 2.369740 1_555
O1 Y0 2.215695 1_555
O1 Y3 2.397132 1_555
O2 Y1 2.215695 1_555
O2 Y3 2.397132 1_555
O3 Y2 2.369740 1_555
O4 Y3 2.369740 1_555
O5 Y0 2.215695 1_655
O5 Y2 2.397132 1_555
O6 Y1 2.215695 1_565
O6 Y2 2.397132 1_555
O7 Y3 2.369740 1_555
O8 Y2 2.369740 1_555
O9 Y1 2.215695 1_555
O9 Y3 2.397132 1_555
O10 Y0 2.215695 1_555
O10 Y3 2.397132 1_555
O11 Y2 2.369740 1_555
O12 Y3 2.369740 1_555
O13 Y1 2.215695 1_565
O13 Y2 2.397132 1_555
O14 Y0 2.215695 1_655
O14 Y2 2.397132 1_555
O15 Y3 2.369740 1_555
O17 Y0 2.461457 1_655
O18 Y1 2.461457 1_555
O21 Y0 2.461457 1_555
O22 Y1 2.461457 1_565
