# generated using pymatgen
data_Li3Mn(CoO3)2
_symmetry_space_group_name_H-M   'P 1'
_cell_length_a   5.09225792
_cell_length_b   6.42793147
_cell_length_c   6.91015155
_cell_angle_alpha   84.36885106
_cell_angle_beta   79.81228072
_cell_angle_gamma   84.57493054
_symmetry_Int_Tables_number   1
_chemical_formula_structural   Li3Mn(CoO3)2
_chemical_formula_sum   'Li6 Mn2 Co4 O12'
_cell_volume   220.85830274
_cell_formula_units_Z   2
loop_
 _symmetry_equiv_pos_site_id
 _symmetry_equiv_pos_as_xyz
  1  'x, y, z'
loop_
 _atom_site_type_symbol
 _atom_site_label
 _atom_site_symmetry_multiplicity
 _atom_site_fract_x
 _atom_site_fract_y
 _atom_site_fract_z
 _atom_site_occupancy
  Li  Li0  1  0.74999800  0.41668800  0.08326100  1
  Li  Li1  1  0.25000100  0.91667500  0.58332900  1
  Li  Li2  1  0.25078800  0.58452500  0.91540500  1
  Li  Li3  1  0.75128100  0.08745500  0.41157800  1
  Li  Li4  1  0.74875700  0.74589300  0.75509800  1
  Li  Li5  1  0.24932400  0.24879500  0.25131500  1
  Mn  Mn0  1  0.99381700  0.66698100  0.33191200  1
  Mn  Mn1  1  0.50613900  0.16635300  0.83476300  1
  Co  Co0  1  0.49594000  0.50046000  0.49948900  1
  Co  Co1  1  0.49814300  0.83796300  0.16761000  1
  Co  Co2  1  0.00183600  0.99536200  0.99904300  1
  Co  Co3  1  0.00402700  0.33288000  0.66716700  1
  O  O0  1  0.14141200  0.60274900  0.62219900  1
  O  O1  1  0.62269300  0.10805000  0.12811400  1
  O  O2  1  0.87727100  0.72528000  0.03856200  1
  O  O3  1  0.35859900  0.23058900  0.54446600  1
  O  O4  1  0.64602900  0.43982200  0.78478600  1
  O  O5  1  0.11643100  0.94561600  0.28664200  1
  O  O6  1  0.85399600  0.39350600  0.38188000  1
  O  O7  1  0.38354100  0.88770400  0.88003000  1
  O  O8  1  0.13876700  0.27169500  0.95692900  1
  O  O9  1  0.62589800  0.77412900  0.45031300  1
  O  O10  1  0.36122500  0.56162500  0.20974600  1
  O  O11  1  0.87408300  0.05920400  0.71636700  1
loop_
_geom_bond_atom_site_label_1
_geom_bond_atom_site_label_2
_geom_bond_distance
_geom_bond_site_symmetry_2
Li0 O2 2.121835 1_555
Li0 O1 2.122176 1_555
Li0 O8 2.179312 1_654
Li0 O10 2.179489 1_555
Li0 O4 2.206254 1_554
Li0 O6 2.207265 1_555
Li1 O3 2.121708 1_565
Li1 O0 2.121767 1_555
Li1 O9 2.135343 1_555
Li1 O11 2.135432 1_465
Li1 O5 2.257184 1_555
Li1 O7 2.257200 1_555
Li2 O7 2.100425 1_555
Li2 O2 2.100886 1_456
Li2 O8 2.120616 1_555
Li2 O0 2.183871 1_555
Li2 O10 2.192046 1_556
Li2 O4 2.213329 1_555
Li3 O6 2.064760 1_555
Li3 O5 2.073676 1_645
Li3 O9 2.147686 1_545
Li3 O1 2.160914 1_555
Li3 O3 2.203781 1_555
Li3 O11 2.286748 1_555
Li4 O4 2.064909 1_555
Li4 O7 2.073860 1_555
Li4 O11 2.147489 1_565
Li4 O2 2.160735 1_556
Li4 O0 2.203718 1_655
Li4 O9 2.286850 1_555
Li5 O1 2.100351 1_555
Li5 O5 2.100713 1_545
Li5 O10 2.120410 1_555
Li5 O3 2.183297 1_555
Li5 O8 2.192600 1_554
Li5 O6 2.213594 1_455
Mn0 O5 1.930795 1_655
Mn0 O6 1.935689 1_555
Mn0 O9 1.994555 1_555
Mn0 O10 1.996391 1_655
Mn0 O2 2.199137 1_555
Mn0 O0 2.251936 1_655
Mn1 O7 1.930848 1_545
Mn1 O4 1.935803 1_555
Mn1 O11 1.994654 1_555
Mn1 O8 1.996213 1_555
Mn1 O1 2.199162 1_556
Mn1 O3 2.251869 1_555
Co0 O3 1.908312 1_555
Co0 O9 1.916041 1_555
Co0 O0 1.937534 1_555
Co0 O6 1.950906 1_555
Co0 O10 2.216809 1_555
Co0 O4 2.224533 1_555
Co1 O1 1.882759 1_565
Co1 O10 1.946006 1_555
Co1 O5 2.055591 1_555
Co1 O2 2.073752 1_555
Co1 O7 2.154557 1_554
Co1 O9 2.156299 1_555
Co2 O2 1.882758 1_456
Co2 O8 1.946004 1_565
Co2 O7 2.055535 1_555
Co2 O1 2.073872 1_466
Co2 O5 2.154669 1_556
Co2 O11 2.156123 1_465
Co3 O0 1.908394 1_555
Co3 O11 1.916059 1_455
Co3 O3 1.937703 1_555
Co3 O4 1.950658 1_455
Co3 O8 2.216998 1_555
Co3 O6 2.224321 1_455
