# generated using pymatgen
data_Li9Mn7O16
_symmetry_space_group_name_H-M   'P 1'
_cell_length_a   5.10653000
_cell_length_b   7.68815166
_cell_length_c   8.12708216
_cell_angle_alpha   100.13855823
_cell_angle_beta   99.55081576
_cell_angle_gamma   103.26076985
_symmetry_Int_Tables_number   1
_chemical_formula_structural   Li9Mn7O16
_chemical_formula_sum   'Li9 Mn7 O16'
_cell_volume   298.53997757
_cell_formula_units_Z   1
loop_
 _symmetry_equiv_pos_site_id
 _symmetry_equiv_pos_as_xyz
  1  'x, y, z'
loop_
 _atom_site_type_symbol
 _atom_site_label
 _atom_site_symmetry_multiplicity
 _atom_site_fract_x
 _atom_site_fract_y
 _atom_site_fract_z
 _atom_site_occupancy
  Li  Li0  1  0.51065000  0.75675700  0.75895200  1
  Li  Li1  1  0.49996900  0.62532700  0.37080900  1
  Li  Li2  1  0.50000000  0.00000000  0.50000000  1
  Li  Li3  1  0.50421700  0.88424300  0.11465200  1
  Li  Li4  1  0.48935000  0.24324300  0.24104800  1
  Li  Li5  1  0.49578300  0.11575700  0.88534800  1
  Li  Li6  1  0.50000000  0.50000000  0.00000000  1
  Li  Li7  1  0.50003100  0.37467300  0.62919100  1
  Li  Li8  1  0.00000000  0.00000000  0.00000000  1
  Mn  Mn0  1  0.00986100  0.62960200  0.87855700  1
  Mn  Mn1  1  0.99013900  0.37039800  0.12144300  1
  Mn  Mn2  1  0.00000000  0.50000000  0.50000000  1
  Mn  Mn3  1  0.00255100  0.24955200  0.75562700  1
  Mn  Mn4  1  0.99754100  0.12255100  0.36799400  1
  Mn  Mn5  1  0.00245900  0.87744900  0.63200600  1
  Mn  Mn6  1  0.99744900  0.75044800  0.24437300  1
  O  O0  1  0.78969800  0.74329900  0.02026300  1
  O  O1  1  0.76503100  0.63143400  0.61434800  1
  O  O2  1  0.76541900  0.00707000  0.73873700  1
  O  O3  1  0.77018300  0.87949300  0.36089700  1
  O  O4  1  0.79243800  0.25456000  0.51897300  1
  O  O5  1  0.75465500  0.14175000  0.12755900  1
  O  O6  1  0.76637200  0.50803400  0.24348900  1
  O  O7  1  0.76930600  0.37955600  0.85977300  1
  O  O8  1  0.20756200  0.74544000  0.48102700  1
  O  O9  1  0.23069400  0.62044400  0.14022700  1
  O  O10  1  0.23458100  0.99293000  0.26126300  1
  O  O11  1  0.24534500  0.85825000  0.87244100  1
  O  O12  1  0.21030200  0.25670100  0.97973700  1
  O  O13  1  0.22981700  0.12050700  0.63910300  1
  O  O14  1  0.23362800  0.49196600  0.75651100  1
  O  O15  1  0.23496900  0.36856600  0.38565200  1
loop_
_geom_bond_atom_site_label_1
_geom_bond_atom_site_label_2
_geom_bond_distance
_geom_bond_site_symmetry_2
Li0 O11 1.985264 1_555
Li0 O2 2.111084 1_565
Li0 O1 2.163101 1_555
Li0 O14 2.191151 1_555
Li0 O0 2.385811 1_556
Li0 O8 2.492747 1_555
Li1 O6 2.106172 1_555
Li1 O9 2.121409 1_555
Li1 O3 2.141071 1_555
Li1 O15 2.157552 1_555
Li1 O8 2.161005 1_555
Li1 O1 2.191091 1_555
Li2 O4 2.135561 1_555
Li2 O8 2.135561 1_545
Li2 O10 2.158913 1_545
Li2 O2 2.158913 1_555
Li2 O3 2.185231 1_545
Li2 O13 2.185231 1_555
Li3 O5 2.070453 1_565
Li3 O11 2.130520 1_554
Li3 O0 2.165881 1_555
Li3 O10 2.176132 1_555
Li3 O3 2.235504 1_555
Li3 O9 2.247794 1_555
Li4 O5 1.985264 1_555
Li4 O10 2.111084 1_545
Li4 O15 2.163101 1_555
Li4 O6 2.191151 1_555
Li4 O12 2.385811 1_554
Li4 O4 2.492747 1_555
Li5 O11 2.070453 1_545
Li5 O5 2.130520 1_556
Li5 O12 2.165881 1_555
Li5 O2 2.176132 1_555
Li5 O13 2.235504 1_555
Li5 O7 2.247794 1_555
Li6 O12 2.062929 1_554
Li6 O0 2.062929 1_555
Li6 O7 2.186374 1_554
Li6 O9 2.186374 1_555
Li6 O14 2.189777 1_554
Li6 O6 2.189777 1_555
Li7 O14 2.106172 1_555
Li7 O7 2.121409 1_555
Li7 O13 2.141071 1_555
Li7 O1 2.157552 1_555
Li7 O4 2.161005 1_555
Li7 O15 2.191091 1_555
Li8 O0 2.067878 1_445
Li8 O12 2.067878 1_554
Li8 O5 2.119356 1_455
Li8 O11 2.119356 1_544
Li8 O10 2.274377 1_545
Li8 O2 2.274377 1_454
Mn0 O11 1.902488 1_555
Mn0 O0 1.969893 1_456
Mn0 O14 1.992624 1_555
Mn0 O7 1.994731 1_455
Mn0 O9 2.256646 1_556
Mn0 O1 2.302569 1_455
Mn1 O5 1.902488 1_555
Mn1 O12 1.969893 1_654
Mn1 O6 1.992624 1_555
Mn1 O9 1.994731 1_655
Mn1 O7 2.256646 1_554
Mn1 O15 2.302569 1_655
Mn2 O1 1.979916 1_455
Mn2 O15 1.979916 1_555
Mn2 O8 1.986710 1_555
Mn2 O4 1.986710 1_455
Mn2 O6 2.242066 1_455
Mn2 O14 2.242066 1_555
Mn3 O7 1.927924 1_455
Mn3 O12 1.934594 1_555
Mn3 O2 1.944137 1_455
Mn3 O13 1.946823 1_555
Mn3 O14 1.962002 1_555
Mn3 O4 2.052324 1_455
Mn4 O3 1.946203 1_545
Mn4 O10 1.951460 1_645
Mn4 O15 1.965361 1_655
Mn4 O4 2.026890 1_555
Mn4 O5 2.181666 1_555
Mn4 O13 2.327074 1_655
Mn5 O13 1.946203 1_565
Mn5 O2 1.951460 1_465
Mn5 O1 1.965361 1_455
Mn5 O8 2.026890 1_555
Mn5 O11 2.181666 1_555
Mn5 O3 2.327074 1_455
Mn6 O9 1.927924 1_655
Mn6 O0 1.934594 1_555
Mn6 O10 1.944137 1_655
Mn6 O3 1.946823 1_555
Mn6 O6 1.962002 1_555
Mn6 O8 2.052324 1_655
