# generated using pymatgen
data_Mg30AlNiO32
_symmetry_space_group_name_H-M   'P 1'
_cell_length_a   8.47327300
_cell_length_b   8.47327300
_cell_length_c   8.55635800
_cell_angle_alpha   90.00000000
_cell_angle_beta   90.00000000
_cell_angle_gamma   90.00000000
_symmetry_Int_Tables_number   1
_chemical_formula_structural   Mg30AlNiO32
_chemical_formula_sum   'Mg30 Al1 Ni1 O32'
_cell_volume   614.31531932
_cell_formula_units_Z   1
loop_
 _symmetry_equiv_pos_site_id
 _symmetry_equiv_pos_as_xyz
  1  'x, y, z'
loop_
 _atom_site_type_symbol
 _atom_site_label
 _atom_site_symmetry_multiplicity
 _atom_site_fract_x
 _atom_site_fract_y
 _atom_site_fract_z
 _atom_site_occupancy
  Mg  Mg0  1  0.00000000  0.50000000  0.00000000  1
  Mg  Mg1  1  0.00000000  0.50000000  0.50000000  1
  Mg  Mg2  1  0.50000000  0.00000000  0.00000000  1
  Mg  Mg3  1  0.50000000  0.00000000  0.50000000  1
  Mg  Mg4  1  0.50000000  0.50000000  0.00000000  1
  Mg  Mg5  1  0.50000000  0.50000000  0.50000000  1
  Mg  Mg6  1  0.00000000  0.24754200  0.25300300  1
  Mg  Mg7  1  0.00000000  0.24754200  0.74699700  1
  Mg  Mg8  1  0.00000000  0.75245800  0.25300300  1
  Mg  Mg9  1  0.00000000  0.75245800  0.74699700  1
  Mg  Mg10  1  0.50000000  0.24935600  0.25109500  1
  Mg  Mg11  1  0.50000000  0.24935600  0.74890500  1
  Mg  Mg12  1  0.50000000  0.75064400  0.25109500  1
  Mg  Mg13  1  0.50000000  0.75064400  0.74890500  1
  Mg  Mg14  1  0.24754200  0.00000000  0.25300300  1
  Mg  Mg15  1  0.24754200  0.00000000  0.74699700  1
  Mg  Mg16  1  0.24935600  0.50000000  0.25109500  1
  Mg  Mg17  1  0.24935600  0.50000000  0.74890500  1
  Mg  Mg18  1  0.75245800  0.00000000  0.25300300  1
  Mg  Mg19  1  0.75245800  0.00000000  0.74699700  1
  Mg  Mg20  1  0.75064400  0.50000000  0.25109500  1
  Mg  Mg21  1  0.75064400  0.50000000  0.74890500  1
  Mg  Mg22  1  0.25009900  0.25009900  0.00000000  1
  Mg  Mg23  1  0.24792800  0.24792800  0.50000000  1
  Mg  Mg24  1  0.25009900  0.74990100  0.00000000  1
  Mg  Mg25  1  0.24792800  0.75207200  0.50000000  1
  Mg  Mg26  1  0.74990100  0.25009900  0.00000000  1
  Mg  Mg27  1  0.75207200  0.24792800  0.50000000  1
  Mg  Mg28  1  0.74990100  0.74990100  0.00000000  1
  Mg  Mg29  1  0.75207200  0.75207200  0.50000000  1
  Al  Al0  1  0.00000000  0.00000000  0.00000000  1
  Ni  Ni0  1  0.00000000  0.00000000  0.50000000  1
  O  O0  1  0.24076200  0.00000000  0.00000000  1
  O  O1  1  0.25612300  0.00000000  0.50000000  1
  O  O2  1  0.24862200  0.50000000  0.00000000  1
  O  O3  1  0.25037400  0.50000000  0.50000000  1
  O  O4  1  0.75923800  0.00000000  0.00000000  1
  O  O5  1  0.74387700  0.00000000  0.50000000  1
  O  O6  1  0.75137800  0.50000000  0.00000000  1
  O  O7  1  0.74962600  0.50000000  0.50000000  1
  O  O8  1  0.24927600  0.24927600  0.24976700  1
  O  O9  1  0.24927600  0.24927600  0.75023300  1
  O  O10  1  0.24927600  0.75072400  0.24976700  1
  O  O11  1  0.24927600  0.75072400  0.75023300  1
  O  O12  1  0.75072400  0.24927600  0.24976700  1
  O  O13  1  0.75072400  0.24927600  0.75023300  1
  O  O14  1  0.75072400  0.75072400  0.24976700  1
  O  O15  1  0.75072400  0.75072400  0.75023300  1
  O  O16  1  0.00000000  0.00000000  0.21579100  1
  O  O17  1  0.00000000  0.00000000  0.78420900  1
  O  O18  1  0.00000000  0.50000000  0.24725300  1
  O  O19  1  0.00000000  0.50000000  0.75274700  1
  O  O20  1  0.50000000  0.00000000  0.24725300  1
  O  O21  1  0.50000000  0.00000000  0.75274700  1
  O  O22  1  0.50000000  0.50000000  0.24897200  1
  O  O23  1  0.50000000  0.50000000  0.75102800  1
  O  O24  1  0.00000000  0.24076200  0.00000000  1
  O  O25  1  0.00000000  0.25612300  0.50000000  1
  O  O26  1  0.00000000  0.75923800  0.00000000  1
  O  O27  1  0.00000000  0.74387700  0.50000000  1
  O  O28  1  0.50000000  0.24862200  0.00000000  1
  O  O29  1  0.50000000  0.25037400  0.50000000  1
  O  O30  1  0.50000000  0.75137800  0.00000000  1
  O  O31  1  0.50000000  0.74962600  0.50000000  1
loop_
_geom_bond_atom_site_label_1
_geom_bond_atom_site_label_2
_geom_bond_distance
_geom_bond_site_symmetry_2
Mg0 O2 2.106642 1_555
Mg0 O6 2.106642 1_455
Mg0 O19 2.115585 1_554
Mg0 O18 2.115585 1_555
Mg0 O24 2.196594 1_555
Mg0 O26 2.196594 1_555
Mg1 O27 2.066436 1_555
Mg1 O25 2.066436 1_555
Mg1 O3 2.121487 1_555
Mg1 O7 2.121487 1_455
Mg1 O18 2.162594 1_555
Mg1 O19 2.162594 1_555
Mg2 O28 2.106642 1_555
Mg2 O30 2.106642 1_545
Mg2 O21 2.115585 1_554
Mg2 O20 2.115585 1_555
Mg2 O0 2.196594 1_555
Mg2 O4 2.196594 1_555
Mg3 O5 2.066436 1_555
Mg3 O1 2.066436 1_555
Mg3 O31 2.121487 1_545
Mg3 O29 2.121487 1_555
Mg3 O20 2.162594 1_555
Mg3 O21 2.162594 1_555
Mg4 O30 2.129994 1_555
Mg4 O2 2.129994 1_555
Mg4 O28 2.129994 1_555
Mg4 O6 2.129994 1_555
Mg4 O22 2.130294 1_555
Mg4 O23 2.130294 1_554
Mg5 O29 2.115149 1_555
Mg5 O7 2.115149 1_555
Mg5 O31 2.115149 1_555
Mg5 O3 2.115149 1_555
Mg5 O22 2.147885 1_555
Mg5 O23 2.147885 1_555
Mg6 O8 2.112416 1_555
Mg6 O12 2.112416 1_455
Mg6 O25 2.114645 1_555
Mg6 O16 2.121520 1_555
Mg6 O18 2.139711 1_555
Mg6 O24 2.165546 1_555
Mg7 O9 2.112416 1_555
Mg7 O13 2.112416 1_455
Mg7 O25 2.114645 1_555
Mg7 O17 2.121520 1_555
Mg7 O19 2.139711 1_555
Mg7 O24 2.165546 1_556
Mg8 O10 2.112416 1_555
Mg8 O14 2.112416 1_455
Mg8 O27 2.114645 1_555
Mg8 O16 2.121520 1_565
Mg8 O18 2.139711 1_555
Mg8 O26 2.165546 1_555
Mg9 O11 2.112416 1_555
Mg9 O15 2.112416 1_455
Mg9 O27 2.114645 1_555
Mg9 O17 2.121520 1_565
Mg9 O19 2.139711 1_555
Mg9 O26 2.165546 1_556
Mg10 O20 2.113117 1_555
Mg10 O22 2.123853 1_555
Mg10 O12 2.124483 1_555
Mg10 O8 2.124483 1_555
Mg10 O29 2.129738 1_555
Mg10 O28 2.148468 1_555
Mg11 O21 2.113117 1_555
Mg11 O23 2.123853 1_555
Mg11 O13 2.124483 1_555
Mg11 O9 2.124483 1_555
Mg11 O29 2.129738 1_555
Mg11 O28 2.148468 1_556
Mg12 O20 2.113117 1_565
Mg12 O22 2.123853 1_555
Mg12 O14 2.124483 1_555
Mg12 O10 2.124483 1_555
Mg12 O31 2.129738 1_555
Mg12 O30 2.148468 1_555
Mg13 O21 2.113117 1_565
Mg13 O23 2.123853 1_555
Mg13 O15 2.124483 1_555
Mg13 O11 2.124483 1_555
Mg13 O31 2.129738 1_555
Mg13 O30 2.148468 1_556
Mg14 O8 2.112416 1_555
Mg14 O10 2.112416 1_545
Mg14 O1 2.114645 1_555
Mg14 O16 2.121520 1_555
Mg14 O20 2.139711 1_555
Mg14 O0 2.165546 1_555
Mg15 O9 2.112416 1_555
Mg15 O11 2.112416 1_545
Mg15 O1 2.114645 1_555
Mg15 O17 2.121520 1_555
Mg15 O21 2.139711 1_555
Mg15 O0 2.165546 1_556
Mg16 O18 2.113117 1_555
Mg16 O22 2.123853 1_555
Mg16 O10 2.124483 1_555
Mg16 O8 2.124483 1_555
Mg16 O3 2.129738 1_555
Mg16 O2 2.148468 1_555
Mg17 O19 2.113117 1_555
Mg17 O23 2.123853 1_555
Mg17 O11 2.124483 1_555
Mg17 O9 2.124483 1_555
Mg17 O3 2.129738 1_555
Mg17 O2 2.148468 1_556
Mg18 O12 2.112416 1_555
Mg18 O14 2.112416 1_545
Mg18 O5 2.114645 1_555
Mg18 O16 2.121520 1_655
Mg18 O20 2.139711 1_555
Mg18 O4 2.165546 1_555
Mg19 O13 2.112416 1_555
Mg19 O15 2.112416 1_545
Mg19 O5 2.114645 1_555
Mg19 O17 2.121520 1_655
Mg19 O21 2.139711 1_555
Mg19 O4 2.165546 1_556
Mg20 O18 2.113117 1_655
Mg20 O22 2.123853 1_555
Mg20 O14 2.124483 1_555
Mg20 O12 2.124483 1_555
Mg20 O7 2.129738 1_555
Mg20 O6 2.148468 1_555
Mg21 O19 2.113117 1_655
Mg21 O23 2.123853 1_555
Mg21 O15 2.124483 1_555
Mg21 O13 2.124483 1_555
Mg21 O7 2.129738 1_555
Mg21 O6 2.148468 1_556
Mg22 O2 2.117516 1_555
Mg22 O28 2.117516 1_555
Mg22 O0 2.120633 1_555
Mg22 O24 2.120633 1_555
Mg22 O8 2.137119 1_555
Mg22 O9 2.137119 1_554
Mg23 O1 2.101909 1_555
Mg23 O25 2.101909 1_555
Mg23 O29 2.135975 1_555
Mg23 O3 2.135975 1_555
Mg23 O9 2.141144 1_555
Mg23 O8 2.141144 1_555
Mg24 O30 2.117516 1_555
Mg24 O2 2.117516 1_555
Mg24 O0 2.120633 1_565
Mg24 O26 2.120633 1_555
Mg24 O11 2.137119 1_554
Mg24 O10 2.137119 1_555
Mg25 O27 2.101909 1_555
Mg25 O1 2.101909 1_565
Mg25 O31 2.135975 1_555
Mg25 O3 2.135975 1_555
Mg25 O11 2.141144 1_555
Mg25 O10 2.141144 1_555
Mg26 O6 2.117516 1_555
Mg26 O28 2.117516 1_555
Mg26 O24 2.120633 1_655
Mg26 O4 2.120633 1_555
Mg26 O13 2.137119 1_554
Mg26 O12 2.137119 1_555
Mg27 O5 2.101909 1_555
Mg27 O25 2.101909 1_655
Mg27 O7 2.135975 1_555
Mg27 O29 2.135975 1_555
Mg27 O13 2.141144 1_555
Mg27 O12 2.141144 1_555
Mg28 O6 2.117516 1_555
Mg28 O30 2.117516 1_555
Mg28 O26 2.120633 1_655
Mg28 O4 2.120633 1_565
Mg28 O15 2.137119 1_554
Mg28 O14 2.137119 1_555
Mg29 O27 2.101909 1_655
Mg29 O5 2.101909 1_565
Mg29 O7 2.135975 1_555
Mg29 O31 2.135975 1_555
Mg29 O15 2.141144 1_555
Mg29 O14 2.141144 1_555
Al0 O17 1.846385 1_554
Al0 O16 1.846385 1_555
Al0 O0 2.040042 1_555
Al0 O24 2.040042 1_555
Al0 O26 2.040042 1_545
Al0 O4 2.040042 1_455
Ni0 O5 2.170200 1_455
Ni0 O25 2.170200 1_555
Ni0 O27 2.170200 1_545
Ni0 O1 2.170200 1_555
Ni0 O16 2.431794 1_555
Ni0 O17 2.431794 1_555
