# generated using pymatgen
data_Th2Te2As
_symmetry_space_group_name_H-M   'P 1'
_cell_length_a   3.25550000
_cell_length_b   3.25550000
_cell_length_c   16.33479000
_cell_angle_alpha   90.00000000
_cell_angle_beta   90.00000000
_cell_angle_gamma   90.00000000
_symmetry_Int_Tables_number   1
_chemical_formula_structural   Th2Te2As
_chemical_formula_sum   'Th2 Te2 As1'
_cell_volume   173.12068224
_cell_formula_units_Z   1
loop_
 _symmetry_equiv_pos_site_id
 _symmetry_equiv_pos_as_xyz
  1  'x, y, z'
loop_
 _atom_site_type_symbol
 _atom_site_label
 _atom_site_symmetry_multiplicity
 _atom_site_fract_x
 _atom_site_fract_y
 _atom_site_fract_z
 _atom_site_occupancy
  Th  Th0  1  0.50000000  0.50000000  0.17496300  1
  Th  Th1  1  0.50000000  0.50000000  0.82503700  1
  Te  Te0  1  0.50000000  0.50000000  0.63732700  1
  Te  Te1  1  0.50000000  0.50000000  0.36267300  1
  As  As0  1  0.50000000  0.50000000  0.00000000  1
loop_
_geom_bond_atom_site_label_1
_geom_bond_atom_site_label_2
_geom_bond_distance
_geom_bond_site_symmetry_2
Te0 Th1 3.066203 1_555
Te1 Th0 3.066203 1_555
As0 Th1 2.857984 1_554
As0 Th0 2.857984 1_555
