# generated using pymatgen
data_UAsP
_symmetry_space_group_name_H-M   'P 1'
_cell_length_a   3.88778744
_cell_length_b   3.88778744
_cell_length_c   8.09919305
_cell_angle_alpha   90.00000000
_cell_angle_beta   90.00000000
_cell_angle_gamma   90.00000000
_symmetry_Int_Tables_number   1
_chemical_formula_structural   UAsP
_chemical_formula_sum   'U2 As2 P2'
_cell_volume   122.41842159
_cell_formula_units_Z   2
loop_
 _symmetry_equiv_pos_site_id
 _symmetry_equiv_pos_as_xyz
  1  'x, y, z'
loop_
 _atom_site_type_symbol
 _atom_site_label
 _atom_site_symmetry_multiplicity
 _atom_site_fract_x
 _atom_site_fract_y
 _atom_site_fract_z
 _atom_site_occupancy
  U  U0  1  -0.00000000  0.50000000  0.70762415  1
  U  U1  1  0.50000000  -0.00000000  0.29237585  1
  As  As0  1  0.00000000  0.00000000  0.00000000  1
  As  As1  1  0.50000000  0.50000000  0.00000000  1
  P  P0  1  -0.00000000  0.50000000  0.36088096  1
  P  P1  1  0.50000000  -0.00000000  0.63911904  1
loop_
_geom_bond_atom_site_label_1
_geom_bond_atom_site_label_2
_geom_bond_distance
_geom_bond_site_symmetry_2
As0 As1 2.749081 1_445
As0 As1 2.749081 1_455
As0 As1 2.749081 1_555
As0 As1 2.749081 1_545
As0 U0 3.063688 1_554
As0 U1 3.063688 1_455
As0 U1 3.063688 1_555
As0 U0 3.063688 1_544
As1 U0 3.063688 1_554
As1 U1 3.063688 1_565
As1 U1 3.063688 1_555
As1 U0 3.063688 1_654
P0 U1 2.804512 1_465
P0 U1 2.804512 1_455
P0 U1 2.804512 1_555
P0 U1 2.804512 1_565
P0 U0 2.808340 1_555
P1 U0 2.804512 1_545
P1 U0 2.804512 1_655
P1 U0 2.804512 1_555
P1 U0 2.804512 1_645
P1 U1 2.808340 1_555
