# generated using pymatgen
data_H2SO5
_symmetry_space_group_name_H-M   'P 1'
_cell_length_a   6.45555700
_cell_length_b   8.32149100
_cell_length_c   14.03038100
_cell_angle_alpha   90.00000000
_cell_angle_beta   90.00000000
_cell_angle_gamma   90.00000000
_symmetry_Int_Tables_number   1
_chemical_formula_structural   H2SO5
_chemical_formula_sum   'H16 S8 O40'
_cell_volume   753.71009571
_cell_formula_units_Z   8
loop_
 _symmetry_equiv_pos_site_id
 _symmetry_equiv_pos_as_xyz
  1  'x, y, z'
loop_
 _atom_site_type_symbol
 _atom_site_label
 _atom_site_symmetry_multiplicity
 _atom_site_fract_x
 _atom_site_fract_y
 _atom_site_fract_z
 _atom_site_occupancy
  H  H0  1  0.29294800  0.37580600  0.76525400  1
  H  H1  1  0.79294800  0.62419400  0.73474600  1
  H  H2  1  0.70705200  0.12419400  0.26525400  1
  H  H3  1  0.20705200  0.87580600  0.23474600  1
  H  H4  1  0.70705200  0.62419400  0.23474600  1
  H  H5  1  0.20705200  0.37580600  0.26525400  1
  H  H6  1  0.29294800  0.87580600  0.73474600  1
  H  H7  1  0.79294800  0.12419400  0.76525400  1
  H  H8  1  0.84443000  0.58426100  0.57771600  1
  H  H9  1  0.34443000  0.41573900  0.92228400  1
  H  H10  1  0.15557000  0.91573900  0.07771600  1
  H  H11  1  0.65557000  0.08426100  0.42228400  1
  H  H12  1  0.15557000  0.41573900  0.42228400  1
  H  H13  1  0.65557000  0.58426100  0.07771600  1
  H  H14  1  0.84443000  0.08426100  0.92228400  1
  H  H15  1  0.34443000  0.91573900  0.57771600  1
  S  S0  1  0.26439600  0.44416000  0.61824300  1
  S  S1  1  0.76439600  0.55584000  0.88175700  1
  S  S2  1  0.73560400  0.05584000  0.11824300  1
  S  S3  1  0.23560400  0.94416000  0.38175700  1
  S  S4  1  0.73560400  0.55584000  0.38175700  1
  S  S5  1  0.23560400  0.44416000  0.11824300  1
  S  S6  1  0.26439600  0.94416000  0.88175700  1
  S  S7  1  0.76439600  0.05584000  0.61824300  1
  O  O0  1  0.22498300  0.33222100  0.70393200  1
  O  O1  1  0.72498300  0.66777900  0.79606800  1
  O  O2  1  0.77501700  0.16777900  0.20393200  1
  O  O3  1  0.27501700  0.83222100  0.29606800  1
  O  O4  1  0.77501700  0.66777900  0.29606800  1
  O  O5  1  0.27501700  0.33222100  0.20393200  1
  O  O6  1  0.22498300  0.83222100  0.79606800  1
  O  O7  1  0.72498300  0.16777900  0.70393200  1
  O  O8  1  0.19385200  0.35824100  0.53546600  1
  O  O9  1  0.69385200  0.64175900  0.96453400  1
  O  O10  1  0.80614800  0.14175900  0.03546600  1
  O  O11  1  0.30614800  0.85824100  0.46453400  1
  O  O12  1  0.80614800  0.64175900  0.46453400  1
  O  O13  1  0.30614800  0.35824100  0.03546600  1
  O  O14  1  0.19385200  0.85824100  0.96453400  1
  O  O15  1  0.69385200  0.14175900  0.53546600  1
  O  O16  1  0.46291300  0.52080100  0.62149800  1
  O  O17  1  0.96291300  0.47919900  0.87850200  1
  O  O18  1  0.53708700  0.97919900  0.12149800  1
  O  O19  1  0.03708700  0.02080100  0.37850200  1
  O  O20  1  0.53708700  0.47919900  0.37850200  1
  O  O21  1  0.03708700  0.52080100  0.12149800  1
  O  O22  1  0.46291300  0.02080100  0.87850200  1
  O  O23  1  0.96291300  0.97919900  0.62149800  1
  O  O24  1  0.11326400  0.60085300  0.63744100  1
  O  O25  1  0.61326400  0.39914700  0.86255900  1
  O  O26  1  0.88673600  0.89914700  0.13744100  1
  O  O27  1  0.38673600  0.10085300  0.36255900  1
  O  O28  1  0.88673600  0.39914700  0.36255900  1
  O  O29  1  0.38673600  0.60085300  0.13744100  1
  O  O30  1  0.11326400  0.10085300  0.86255900  1
  O  O31  1  0.61326400  0.89914700  0.63744100  1
  O  O32  1  0.89556100  0.54911600  0.64236200  1
  O  O33  1  0.39556100  0.45088400  0.85763800  1
  O  O34  1  0.10443900  0.95088400  0.14236200  1
  O  O35  1  0.60443900  0.04911600  0.35763800  1
  O  O36  1  0.10443900  0.45088400  0.35763800  1
  O  O37  1  0.60443900  0.54911600  0.14236200  1
  O  O38  1  0.89556100  0.04911600  0.85763800  1
  O  O39  1  0.39556100  0.95088400  0.64236200  1
loop_
_geom_bond_atom_site_label_1
_geom_bond_atom_site_label_2
_geom_bond_distance
_geom_bond_site_symmetry_2
H0 O0 1.031643 1_555
H0 O33 1.584052 1_555
H1 O1 1.031643 1_555
H1 O32 1.584052 1_555
H2 O2 1.031643 1_555
H2 O35 1.584052 1_555
H3 O3 1.031643 1_555
H3 O34 1.584052 1_555
H4 O4 1.031643 1_555
H4 O37 1.584052 1_555
H5 O5 1.031643 1_555
H5 O36 1.584052 1_555
H6 O6 1.031643 1_555
H6 O39 1.584052 1_555
H7 O7 1.031643 1_555
H7 O38 1.584052 1_555
H8 O32 1.008537 1_555
H8 O12 1.676815 1_555
H9 O33 1.008537 1_555
H9 O13 1.676815 1_556
H10 O34 1.008537 1_555
H10 O14 1.676815 1_554
H11 O35 1.008537 1_555
H11 O15 1.676815 1_555
H12 O36 1.008537 1_555
H12 O8 1.676815 1_555
H13 O37 1.008537 1_555
H13 O9 1.676815 1_554
H14 O38 1.008537 1_555
H14 O10 1.676815 1_556
H15 O39 1.008537 1_555
H15 O11 1.676815 1_555
O0 S0 1.542022 1_555
O1 S1 1.542022 1_555
O2 S2 1.542022 1_555
O3 S3 1.542022 1_555
O4 S4 1.542022 1_555
O5 S5 1.542022 1_555
O6 S6 1.542022 1_555
O7 S7 1.542022 1_555
O8 S0 1.437850 1_555
O9 S1 1.437850 1_555
O10 S2 1.437850 1_555
O11 S3 1.437850 1_555
O12 S4 1.437850 1_555
O13 S5 1.437850 1_555
O14 S6 1.437850 1_555
O15 S7 1.437850 1_555
O16 S0 1.432191 1_555
O17 S1 1.432191 1_555
O18 S2 1.432191 1_565
O19 S3 1.432191 1_545
O20 S4 1.432191 1_555
O21 S5 1.432191 1_555
O22 S6 1.432191 1_545
O23 S7 1.432191 1_565
O24 O32 1.471480 1_455
O24 S0 1.650646 1_555
O25 O33 1.471480 1_555
O25 S1 1.650646 1_555
O26 O34 1.471480 1_655
O26 S2 1.650646 1_565
O27 O35 1.471480 1_555
O27 S3 1.650646 1_545
O28 O36 1.471480 1_655
O28 S4 1.650646 1_555
O29 O37 1.471480 1_555
O29 S5 1.650646 1_555
O30 O38 1.471480 1_455
O30 S6 1.650646 1_545
O31 O39 1.471480 1_555
O31 S7 1.650646 1_565
