# generated using pymatgen
data_CsFeAgF6
_symmetry_space_group_name_H-M   'P 1'
_cell_length_a   7.58640300
_cell_length_b   7.72137600
_cell_length_c   10.86819600
_cell_angle_alpha   90.00000000
_cell_angle_beta   90.00000000
_cell_angle_gamma   90.00000000
_symmetry_Int_Tables_number   1
_chemical_formula_structural   CsFeAgF6
_chemical_formula_sum   'Cs4 Fe4 Ag4 F24'
_cell_volume   636.63142569
_cell_formula_units_Z   4
loop_
 _symmetry_equiv_pos_site_id
 _symmetry_equiv_pos_as_xyz
  1  'x, y, z'
loop_
 _atom_site_type_symbol
 _atom_site_label
 _atom_site_symmetry_multiplicity
 _atom_site_fract_x
 _atom_site_fract_y
 _atom_site_fract_z
 _atom_site_occupancy
  Cs  Cs0  1  0.98350700  0.25000000  0.37454500  1
  Cs  Cs1  1  0.48350700  0.25000000  0.12545500  1
  Cs  Cs2  1  0.01649300  0.75000000  0.62545500  1
  Cs  Cs3  1  0.51649300  0.75000000  0.87454500  1
  Fe  Fe0  1  0.50000000  0.00000000  0.50000000  1
  Fe  Fe1  1  0.00000000  0.50000000  0.00000000  1
  Fe  Fe2  1  0.50000000  0.50000000  0.50000000  1
  Fe  Fe3  1  0.00000000  0.00000000  0.00000000  1
  Ag  Ag0  1  0.79648000  0.25000000  0.74317800  1
  Ag  Ag1  1  0.29648000  0.25000000  0.75682200  1
  Ag  Ag2  1  0.20352000  0.75000000  0.25682200  1
  Ag  Ag3  1  0.70352000  0.75000000  0.24317800  1
  F  F0  1  0.55166500  0.25000000  0.82415600  1
  F  F1  1  0.05166500  0.25000000  0.67584400  1
  F  F2  1  0.44833500  0.75000000  0.17584400  1
  F  F3  1  0.94833500  0.75000000  0.32415600  1
  F  F4  1  0.94201000  0.25000000  0.01671100  1
  F  F5  1  0.44201000  0.25000000  0.48328900  1
  F  F6  1  0.05799000  0.75000000  0.98328900  1
  F  F7  1  0.55799000  0.75000000  0.51671100  1
  F  F8  1  0.62981600  0.00672600  0.34461900  1
  F  F9  1  0.12981600  0.49327400  0.15538100  1
  F  F10  1  0.37018400  0.50672600  0.65538100  1
  F  F11  1  0.87018400  0.99327400  0.84461900  1
  F  F12  1  0.37018400  0.99327400  0.65538100  1
  F  F13  1  0.87018400  0.50672600  0.84461900  1
  F  F14  1  0.62981600  0.49327400  0.34461900  1
  F  F15  1  0.12981600  0.00672600  0.15538100  1
  F  F16  1  0.71929700  0.05060300  0.58554300  1
  F  F17  1  0.21929700  0.44939700  0.91445700  1
  F  F18  1  0.28070300  0.55060300  0.41445700  1
  F  F19  1  0.78070300  0.94939700  0.08554300  1
  F  F20  1  0.28070300  0.94939700  0.41445700  1
  F  F21  1  0.78070300  0.55060300  0.08554300  1
  F  F22  1  0.71929700  0.44939700  0.58554300  1
  F  F23  1  0.21929700  0.05060300  0.91445700  1
loop_
_geom_bond_atom_site_label_1
_geom_bond_atom_site_label_2
_geom_bond_distance
_geom_bond_site_symmetry_2
Cs0 F9 3.230165 1_655
Cs0 F15 3.230165 1_655
Cs0 F18 3.264806 1_655
Cs0 F20 3.264806 1_645
Cs0 F14 3.291504 1_555
Cs0 F8 3.291504 1_555
Cs0 F1 3.315150 1_655
Cs0 F22 3.412723 1_555
Cs0 F16 3.412723 1_555
Cs1 F14 3.230165 1_555
Cs1 F8 3.230165 1_555
Cs1 F21 3.264806 1_555
Cs1 F19 3.264806 1_545
Cs1 F9 3.291504 1_555
Cs1 F15 3.291504 1_555
Cs1 F0 3.315150 1_554
Cs1 F17 3.412723 1_554
Cs1 F23 3.412723 1_554
Cs2 F13 3.230165 1_455
Cs2 F11 3.230165 1_455
Cs2 F16 3.264806 1_465
Cs2 F22 3.264806 1_455
Cs2 F12 3.291504 1_555
Cs2 F10 3.291504 1_555
Cs2 F3 3.315150 1_455
Cs2 F20 3.412723 1_555
Cs2 F18 3.412723 1_555
Cs3 F10 3.230165 1_555
Cs3 F12 3.230165 1_555
Cs3 F23 3.264806 1_565
Cs3 F17 3.264806 1_555
Cs3 F11 3.291504 1_555
Cs3 F13 3.291504 1_555
Cs3 F2 3.315150 1_556
Cs3 F19 3.412723 1_556
Cs3 F21 3.412723 1_556
Ag0 F0 2.055233 1_555
Ag0 F1 2.069633 1_655
Ag0 F13 2.336137 1_555
Ag0 F11 2.336137 1_545
Ag0 F22 2.376630 1_555
Ag0 F16 2.376630 1_555
Ag1 F1 2.055233 1_555
Ag1 F0 2.069633 1_555
Ag1 F12 2.336137 1_545
Ag1 F10 2.336137 1_555
Ag1 F17 2.376630 1_555
Ag1 F23 2.376630 1_555
Ag2 F2 2.055233 1_555
Ag2 F3 2.069633 1_455
Ag2 F15 2.336137 1_565
Ag2 F9 2.336137 1_555
Ag2 F20 2.376630 1_555
Ag2 F18 2.376630 1_555
Ag3 F3 2.055233 1_555
Ag3 F2 2.069633 1_555
Ag3 F8 2.336137 1_565
Ag3 F14 2.336137 1_555
Ag3 F19 2.376630 1_555
Ag3 F21 2.376630 1_555
F4 Fe3 1.988154 1_655
F4 Fe1 1.988154 1_655
F5 Fe0 1.988154 1_555
F5 Fe2 1.988154 1_555
F6 Fe1 1.988154 1_556
F6 Fe3 1.988154 1_566
F7 Fe2 1.988154 1_555
F7 Fe0 1.988154 1_565
F8 Fe0 1.955593 1_555
F9 Fe1 1.955593 1_555
F10 Fe2 1.955593 1_555
F11 Fe3 1.955593 1_666
F12 Fe0 1.955593 1_565
F13 Fe1 1.955593 1_656
F14 Fe2 1.955593 1_555
F15 Fe3 1.955593 1_555
F16 Fe0 1.945461 1_555
F17 Fe1 1.945461 1_556
F18 Fe2 1.945461 1_555
F19 Fe3 1.945461 1_665
F20 Fe0 1.945461 1_565
F21 Fe1 1.945461 1_655
F22 Fe2 1.945461 1_555
F23 Fe3 1.945461 1_556
