# generated using pymatgen
data_KB6H4(OF3)2
_symmetry_space_group_name_H-M   'P 1'
_cell_length_a   8.60572900
_cell_length_b   8.82115124
_cell_length_c   13.13928469
_cell_angle_alpha   97.68567182
_cell_angle_beta   102.70909276
_cell_angle_gamma   104.99954315
_symmetry_Int_Tables_number   1
_chemical_formula_structural   KB6H4(OF3)2
_chemical_formula_sum   'K4 B24 H16 O8 F24'
_cell_volume   920.40105867
_cell_formula_units_Z   4
loop_
 _symmetry_equiv_pos_site_id
 _symmetry_equiv_pos_as_xyz
  1  'x, y, z'
loop_
 _atom_site_type_symbol
 _atom_site_label
 _atom_site_symmetry_multiplicity
 _atom_site_fract_x
 _atom_site_fract_y
 _atom_site_fract_z
 _atom_site_occupancy
  K  K0  1  0.56805700  0.34198900  0.88597500  1
  K  K1  1  0.43194300  0.65801100  0.11402500  1
  K  K2  1  0.96749600  0.18174000  0.61018300  1
  K  K3  1  0.03250400  0.81826000  0.38981700  1
  B  B0  1  0.40055200  0.38476400  0.57267900  1
  B  B1  1  0.59944800  0.61523600  0.42732100  1
  B  B2  1  0.60083300  0.52882400  0.63185100  1
  B  B3  1  0.39916700  0.47117600  0.36814900  1
  B  B4  1  0.41940500  0.59415700  0.58948000  1
  B  B5  1  0.58059500  0.40584300  0.41052000  1
  B  B6  1  0.28763100  0.45571500  0.46832500  1
  B  B7  1  0.71236900  0.54428500  0.53167500  1
  B  B8  1  0.38722100  0.30590800  0.43638400  1
  B  B9  1  0.61277900  0.69409200  0.56361600  1
  B  B10  1  0.58075500  0.35316900  0.53726700  1
  B  B11  1  0.41924500  0.64683100  0.46273300  1
  B  B12  1  0.80516700  0.90848500  0.91565800  1
  B  B13  1  0.19483300  0.09151500  0.08434200  1
  B  B14  1  0.92961600  0.79478200  0.97857300  1
  B  B15  1  0.07038400  0.20521800  0.02142700  1
  B  B16  1  0.99075800  0.89627600  0.87727800  1
  B  B17  1  0.00924200  0.10372400  0.12272200  1
  B  B18  1  0.94405200  0.08371700  0.89368100  1
  B  B19  1  0.05594800  0.91628300  0.10631900  1
  B  B20  1  0.85570900  0.09802700  0.00430200  1
  B  B21  1  0.14429100  0.90197300  0.99569800  1
  B  B22  1  0.84681900  0.92020300  0.05701600  1
  B  B23  1  0.15318100  0.07979700  0.94298400  1
  H  H0  1  0.50352600  0.96261900  0.74908200  1
  H  H1  1  0.49647400  0.03738100  0.25091800  1
  H  H2  1  0.54083100  0.07307500  0.66993800  1
  H  H3  1  0.45916900  0.92692500  0.33006200  1
  H  H4  1  0.24960100  0.98774100  0.64465000  1
  H  H5  1  0.75039900  0.01225900  0.35535000  1
  H  H6  1  0.08059200  0.87210500  0.64694600  1
  H  H7  1  0.91940800  0.12789500  0.35305400  1
  H  H8  1  0.98842500  0.47259200  0.80880400  1
  H  H9  1  0.01157500  0.52740800  0.19119600  1
  H  H10  1  0.05233200  0.56419800  0.72703000  1
  H  H11  1  0.94766800  0.43580200  0.27297000  1
  H  H12  1  0.27833100  0.52919200  0.84817000  1
  H  H13  1  0.72166900  0.47080800  0.15183000  1
  H  H14  1  0.45395700  0.64987300  0.86710400  1
  H  H15  1  0.54604300  0.35012700  0.13289600  1
  O  O0  1  0.47615500  0.05305700  0.72158700  1
  O  O1  1  0.52384500  0.94694300  0.27841300  1
  O  O2  1  0.39478300  0.55809600  0.89206000  1
  O  O3  1  0.60521700  0.44190400  0.10794000  1
  O  O4  1  0.12984200  0.94701200  0.60611100  1
  O  O5  1  0.87015800  0.05298800  0.39388900  1
  O  O6  1  0.06299800  0.47546600  0.76242200  1
  O  O7  1  0.93700200  0.52453400  0.23757800  1
  F  F0  1  0.31840600  0.29203800  0.63441500  1
  F  F1  1  0.68159400  0.70796200  0.36558500  1
  F  F2  1  0.67866000  0.53896700  0.73868700  1
  F  F3  1  0.32134000  0.46103300  0.26131300  1
  F  F4  1  0.34988800  0.66638200  0.66130100  1
  F  F5  1  0.65011200  0.33361800  0.33869900  1
  F  F6  1  0.11382200  0.41868300  0.44496100  1
  F  F7  1  0.88617800  0.58131700  0.55503900  1
  F  F8  1  0.29752700  0.14654500  0.38966100  1
  F  F9  1  0.70247300  0.85345500  0.61033900  1
  F  F10  1  0.64704100  0.23236200  0.57078700  1
  F  F11  1  0.35295900  0.76763800  0.42921300  1
  F  F12  1  0.64239700  0.84050500  0.84996700  1
  F  F13  1  0.35760300  0.15949500  0.15003300  1
  F  F14  1  0.87647000  0.62770800  0.96430700  1
  F  F15  1  0.12353000  0.37229200  0.03569300  1
  F  F16  1  0.99180500  0.81389200  0.77907800  1
  F  F17  1  0.00819500  0.18610800  0.22092200  1
  F  F18  1  0.89771800  0.15606100  0.80787000  1
  F  F19  1  0.10228200  0.84393900  0.19213000  1
  F  F20  1  0.73588700  0.17801900  0.00641800  1
  F  F21  1  0.26411300  0.82198100  0.99358200  1
  F  F22  1  0.72170100  0.85588200  0.10453500  1
  F  F23  1  0.27829900  0.14411800  0.89546500  1
loop_
_geom_bond_atom_site_label_1
_geom_bond_atom_site_label_2
_geom_bond_distance
_geom_bond_site_symmetry_2
K0 O2 2.710540 1_555
K0 O3 2.853246 1_556
K0 O0 2.918779 1_555
K1 O3 2.710540 1_555
K1 O2 2.853246 1_554
K1 O1 2.918779 1_555
K2 O5 2.768574 1_555
K2 O4 2.782566 1_645
K2 O6 2.859739 1_655
K3 O4 2.768574 1_555
K3 O5 2.782566 1_465
K3 O7 2.859739 1_455
B0 F0 1.399019 1_555
B1 F1 1.399019 1_555
B2 F2 1.395995 1_555
B3 F3 1.395995 1_555
B4 F4 1.392554 1_555
B5 F5 1.392554 1_555
B6 F6 1.398732 1_555
B7 F7 1.398732 1_555
B8 F8 1.395657 1_555
B9 F9 1.395657 1_555
B10 F10 1.408778 1_555
B11 F11 1.408778 1_555
B12 F12 1.400533 1_555
B13 F13 1.400533 1_555
B14 F14 1.398513 1_555
B15 F15 1.398513 1_555
B16 F16 1.396682 1_555
B17 F17 1.396682 1_555
B18 F18 1.401369 1_555
B19 F19 1.401369 1_555
B20 F20 1.394973 1_555
B21 F21 1.394973 1_555
B22 F22 1.394790 1_555
B23 F23 1.394790 1_555
H0 O0 0.979460 1_565
H1 O1 0.979460 1_545
H2 O0 0.974106 1_555
H3 O1 0.974106 1_555
H4 O4 0.988791 1_555
H5 O5 0.988791 1_555
H6 O4 0.976754 1_555
H7 O5 0.976754 1_555
H8 O6 0.975546 1_655
H9 O7 0.975546 1_455
H10 O6 0.976262 1_555
H11 O7 0.976262 1_555
H12 O2 0.987931 1_555
H13 O3 0.987931 1_555
H14 O2 0.976390 1_555
H15 O3 0.976390 1_555
F0 K2 2.853182 1_455
F1 K3 2.853182 1_655
F2 K0 2.919623 1_555
F3 K1 2.919623 1_555
F8 K3 3.189447 1_545
F9 K2 3.189447 1_565
F10 K2 2.853713 1_555
F11 K3 2.853713 1_555
F14 K0 3.016217 1_555
F15 K1 3.016217 1_555
F18 K2 2.816379 1_555
F19 K3 2.816379 1_555
F20 K0 2.714847 1_554
F21 K1 2.714847 1_556
F22 K1 2.687414 1_555
F23 K0 2.687414 1_555
