# generated using pymatgen
data_SrYbAl3SiN4O3
_symmetry_space_group_name_H-M   'P 1'
_cell_length_a   6.13986469
_cell_length_b   6.13986469
_cell_length_c   10.17434900
_cell_angle_alpha   90.00000000
_cell_angle_beta   90.00000000
_cell_angle_gamma   120.00000747
_symmetry_Int_Tables_number   1
_chemical_formula_structural   SrYbAl3SiN4O3
_chemical_formula_sum   'Sr2 Yb2 Al6 Si2 N8 O6'
_cell_volume   332.16573540
_cell_formula_units_Z   2
loop_
 _symmetry_equiv_pos_site_id
 _symmetry_equiv_pos_as_xyz
  1  'x, y, z'
loop_
 _atom_site_type_symbol
 _atom_site_label
 _atom_site_symmetry_multiplicity
 _atom_site_fract_x
 _atom_site_fract_y
 _atom_site_fract_z
 _atom_site_occupancy
  Sr  Sr0  1  0.66666700  0.33333300  0.55738200  1
  Sr  Sr1  1  0.33333300  0.66666700  0.05738200  1
  Yb  Yb0  1  0.66666700  0.33333300  0.92535500  1
  Yb  Yb1  1  0.33333300  0.66666700  0.42535500  1
  Al  Al0  1  0.16541000  0.33082000  0.74074100  1
  Al  Al1  1  0.16541000  0.83459000  0.74074100  1
  Al  Al2  1  0.83459000  0.66918000  0.24074100  1
  Al  Al3  1  0.66918000  0.83459000  0.74074100  1
  Al  Al4  1  0.83459000  0.16541000  0.24074100  1
  Al  Al5  1  0.33082000  0.16541000  0.24074100  1
  Si  Si0  1  0.00000000  0.00000000  0.00053700  1
  Si  Si1  1  0.00000000  0.00000000  0.50053700  1
  N  N0  1  0.15098300  0.30196500  0.55971700  1
  N  N1  1  0.15098300  0.84901700  0.55971700  1
  N  N2  1  0.84901700  0.69803500  0.05971700  1
  N  N3  1  0.69803500  0.84901700  0.55971700  1
  N  N4  1  0.84901700  0.15098300  0.05971700  1
  N  N5  1  0.30196500  0.15098300  0.05971700  1
  N  N6  1  0.00000000  0.00000000  0.82163900  1
  N  N7  1  0.00000000  0.00000000  0.32163900  1
  O  O0  1  0.48877000  0.97754000  0.79105100  1
  O  O1  1  0.48877000  0.51123000  0.79105100  1
  O  O2  1  0.51123000  0.02246000  0.29105100  1
  O  O3  1  0.02246000  0.51123000  0.79105100  1
  O  O4  1  0.51123000  0.48877000  0.29105100  1
  O  O5  1  0.97754000  0.48877000  0.29105100  1
loop_
_geom_bond_atom_site_label_1
_geom_bond_atom_site_label_2
_geom_bond_distance
_geom_bond_site_symmetry_2
Al0 O1 1.797653 1_555
Al0 O3 1.797653 1_555
Al0 N0 1.848181 1_555
Al0 N6 1.942104 1_555
Al1 O0 1.797653 1_555
Al1 O3 1.797653 1_555
Al1 N1 1.848181 1_555
Al1 N6 1.942104 1_565
Al2 O4 1.797653 1_555
Al2 O5 1.797653 1_555
Al2 N2 1.848181 1_555
Al2 N7 1.942104 1_665
Al3 O1 1.797653 1_555
Al3 O0 1.797653 1_555
Al3 N3 1.848181 1_555
Al3 N6 1.942104 1_665
Al4 O5 1.797653 1_555
Al4 O2 1.797653 1_555
Al4 N4 1.848181 1_555
Al4 N7 1.942104 1_655
Al5 O4 1.797653 1_555
Al5 O2 1.797653 1_555
Al5 N5 1.848181 1_555
Al5 N7 1.942104 1_555
N0 Si1 1.714818 1_555
N0 Yb1 2.372635 1_555
N0 Sr0 3.074552 1_555
N0 Sr0 3.074552 1_455
N1 Si1 1.714823 1_565
N1 Yb1 2.372626 1_555
N1 Sr0 3.074551 1_455
N1 Sr0 3.074551 1_565
N2 Si0 1.714818 1_665
N2 Yb0 2.372635 1_554
N2 Sr1 3.074552 1_555
N2 Sr1 3.074552 1_655
N3 Si1 1.714818 1_665
N3 Yb1 2.372635 1_555
N3 Sr0 3.074552 1_555
N3 Sr0 3.074552 1_565
N4 Si0 1.714823 1_655
N4 Yb0 2.372626 1_554
N4 Sr1 3.074551 1_545
N4 Sr1 3.074551 1_655
N5 Si0 1.714818 1_555
N5 Yb0 2.372635 1_554
N5 Sr1 3.074552 1_555
N5 Sr1 3.074552 1_545
N6 Si0 1.820171 1_556
N7 Si1 1.820171 1_555
O0 Yb0 2.333731 1_565
O0 Sr0 3.038301 1_565
O0 Sr1 3.174133 1_556
O1 Yb0 2.333735 1_555
O1 Sr0 3.038304 1_555
O1 Sr1 3.174136 1_556
O2 Yb1 2.333731 1_545
O2 Sr1 3.038301 1_545
O2 Sr0 3.174133 1_555
O3 Yb0 2.333731 1_455
O3 Sr0 3.038301 1_455
O3 Sr1 3.174133 1_556
O4 Yb1 2.333735 1_555
O4 Sr1 3.038304 1_555
O4 Sr0 3.174136 1_555
O5 Yb1 2.333731 1_655
O5 Sr1 3.038301 1_655
O5 Sr0 3.174133 1_555
