# generated using pymatgen
data_Fe3Rh
_symmetry_space_group_name_H-M   'P 1'
_cell_length_a   4.14408186
_cell_length_b   4.14408186
_cell_length_c   4.14408186
_cell_angle_alpha   60.00429718
_cell_angle_beta   60.00429718
_cell_angle_gamma   60.00429718
_symmetry_Int_Tables_number   1
_chemical_formula_structural   Fe3Rh
_chemical_formula_sum   'Fe3 Rh1'
_cell_volume   50.32830306
_cell_formula_units_Z   1
loop_
 _symmetry_equiv_pos_site_id
 _symmetry_equiv_pos_as_xyz
  1  'x, y, z'
loop_
 _atom_site_type_symbol
 _atom_site_label
 _atom_site_symmetry_multiplicity
 _atom_site_fract_x
 _atom_site_fract_y
 _atom_site_fract_z
 _atom_site_occupancy
  Fe  Fe0  1  0.00000759  0.00000759  0.00000759  1
  Fe  Fe1  1  0.49999398  0.49999398  0.49999398  1
  Fe  Fe2  1  0.25000153  0.25000153  0.25000153  1
  Rh  Rh0  1  0.74999789  0.74999789  0.74999789  1
loop_
_geom_bond_atom_site_label_1
_geom_bond_atom_site_label_2
_geom_bond_distance
_geom_bond_site_symmetry_2
Fe0 Fe2 2.537578 1_555
Fe0 Rh0 2.537738 1_444
Fe0 Rh0 2.537826 1_445
Fe0 Rh0 2.537826 1_454
Fe0 Rh0 2.537826 1_544
Fe0 Fe2 2.537879 1_545
Fe0 Fe2 2.537879 1_455
Fe0 Fe2 2.537879 1_554
Fe1 Fe2 2.537562 1_555
Fe1 Rh0 2.537679 1_555
Fe1 Rh0 2.537846 1_455
Fe1 Rh0 2.537846 1_554
Fe1 Rh0 2.537846 1_545
Fe1 Fe2 2.537884 1_655
Fe1 Fe2 2.537884 1_556
Fe1 Fe2 2.537884 1_565
Fe2 Rh0 2.930382 1_455
Fe2 Rh0 2.930382 1_554
Fe2 Rh0 2.930382 1_545
Fe2 Rh0 2.930425 1_544
Fe2 Rh0 2.930425 1_454
Fe2 Rh0 2.930425 1_445
