# generated using pymatgen
data_AlPO6
_symmetry_space_group_name_H-M   'P 1'
_cell_length_a   8.52307200
_cell_length_b   9.62316700
_cell_length_c   9.81839000
_cell_angle_alpha   90.00000000
_cell_angle_beta   90.00000000
_cell_angle_gamma   90.00000000
_symmetry_Int_Tables_number   1
_chemical_formula_structural   AlPO6
_chemical_formula_sum   'Al8 P8 O48'
_cell_volume   805.29399145
_cell_formula_units_Z   8
loop_
 _symmetry_equiv_pos_site_id
 _symmetry_equiv_pos_as_xyz
  1  'x, y, z'
loop_
 _atom_site_type_symbol
 _atom_site_label
 _atom_site_symmetry_multiplicity
 _atom_site_fract_x
 _atom_site_fract_y
 _atom_site_fract_z
 _atom_site_occupancy
  Al  Al0  1  0.35919300  0.18387200  0.12600400  1
  Al  Al1  1  0.64080700  0.81612800  0.87399600  1
  Al  Al2  1  0.14080700  0.81612800  0.62600400  1
  Al  Al3  1  0.64080700  0.68387200  0.37399600  1
  Al  Al4  1  0.85919300  0.18387200  0.37399600  1
  Al  Al5  1  0.35919300  0.31612800  0.62600400  1
  Al  Al6  1  0.85919300  0.31612800  0.87399600  1
  Al  Al7  1  0.14080700  0.68387200  0.12600400  1
  P  P0  1  0.03993800  0.36151600  0.16040500  1
  P  P1  1  0.96006200  0.63848400  0.83959500  1
  P  P2  1  0.46006200  0.63848400  0.66040500  1
  P  P3  1  0.96006200  0.86151600  0.33959500  1
  P  P4  1  0.53993800  0.36151600  0.33959500  1
  P  P5  1  0.03993800  0.13848400  0.66040500  1
  P  P6  1  0.53993800  0.13848400  0.83959500  1
  P  P7  1  0.46006200  0.86151600  0.16040500  1
  O  O0  1  0.47397200  0.02189100  0.17123900  1
  O  O1  1  0.52602800  0.97810900  0.82876100  1
  O  O2  1  0.02602800  0.97810900  0.67123900  1
  O  O3  1  0.52602800  0.52189100  0.32876100  1
  O  O4  1  0.97397200  0.02189100  0.32876100  1
  O  O5  1  0.47397200  0.47810900  0.67123900  1
  O  O6  1  0.97397200  0.47810900  0.82876100  1
  O  O7  1  0.02602800  0.52189100  0.17123900  1
  O  O8  1  0.20722300  0.32453200  0.10978800  1
  O  O9  1  0.79277700  0.67546800  0.89021200  1
  O  O10  1  0.29277700  0.67546800  0.60978800  1
  O  O11  1  0.79277700  0.82453200  0.39021200  1
  O  O12  1  0.70722300  0.32453200  0.39021200  1
  O  O13  1  0.20722300  0.17546800  0.60978800  1
  O  O14  1  0.70722300  0.17546800  0.89021200  1
  O  O15  1  0.29277700  0.82453200  0.10978800  1
  O  O16  1  0.41764500  0.30933600  0.44566900  1
  O  O17  1  0.58235500  0.69066400  0.55433100  1
  O  O18  1  0.08235500  0.69066400  0.94566900  1
  O  O19  1  0.58235500  0.80933600  0.05433100  1
  O  O20  1  0.91764500  0.30933600  0.05433100  1
  O  O21  1  0.41764500  0.19066400  0.94566900  1
  O  O22  1  0.91764500  0.19066400  0.55433100  1
  O  O23  1  0.08235500  0.80933600  0.44566900  1
  O  O24  1  0.19301000  0.06461900  0.05582700  1
  O  O25  1  0.80699000  0.93538100  0.94417300  1
  O  O26  1  0.30699000  0.93538100  0.55582700  1
  O  O27  1  0.80699000  0.56461900  0.44417300  1
  O  O28  1  0.69301000  0.06461900  0.44417300  1
  O  O29  1  0.19301000  0.43538100  0.55582700  1
  O  O30  1  0.69301000  0.43538100  0.94417300  1
  O  O31  1  0.30699000  0.56461900  0.05582700  1
  O  O32  1  0.26816700  0.12570200  0.29912900  1
  O  O33  1  0.73183300  0.87429800  0.70087100  1
  O  O34  1  0.23183300  0.87429800  0.79912900  1
  O  O35  1  0.73183300  0.62570200  0.20087100  1
  O  O36  1  0.76816700  0.12570200  0.20087100  1
  O  O37  1  0.26816700  0.37429800  0.79912900  1
  O  O38  1  0.76816700  0.37429800  0.70087100  1
  O  O39  1  0.23183300  0.62570200  0.29912900  1
  O  O40  1  0.00755100  0.29500600  0.29839500  1
  O  O41  1  0.99244900  0.70499400  0.70160500  1
  O  O42  1  0.49244900  0.70499400  0.79839500  1
  O  O43  1  0.99244900  0.79500600  0.20160500  1
  O  O44  1  0.50755100  0.29500600  0.20160500  1
  O  O45  1  0.00755100  0.20499400  0.79839500  1
  O  O46  1  0.50755100  0.20499400  0.70160500  1
  O  O47  1  0.49244900  0.79500600  0.29839500  1
loop_
_geom_bond_atom_site_label_1
_geom_bond_atom_site_label_2
_geom_bond_distance
_geom_bond_site_symmetry_2
Al0 O44 1.814828 1_555
Al0 O21 1.840513 1_554
Al0 O8 1.880224 1_555
Al0 O0 1.893154 1_555
Al0 O24 1.948815 1_555
Al0 O32 1.950539 1_555
Al1 O42 1.814828 1_555
Al1 O19 1.840513 1_556
Al1 O9 1.880224 1_555
Al1 O1 1.893154 1_555
Al1 O25 1.948815 1_555
Al1 O33 1.950539 1_555
Al2 O41 1.814828 1_455
Al2 O23 1.840513 1_555
Al2 O10 1.880224 1_555
Al2 O2 1.893154 1_555
Al2 O26 1.948815 1_555
Al2 O34 1.950539 1_555
Al3 O47 1.814828 1_555
Al3 O17 1.840513 1_555
Al3 O11 1.880224 1_555
Al3 O3 1.893154 1_555
Al3 O27 1.948815 1_555
Al3 O35 1.950539 1_555
Al4 O40 1.814828 1_655
Al4 O22 1.840513 1_555
Al4 O12 1.880224 1_555
Al4 O4 1.893154 1_555
Al4 O28 1.948815 1_555
Al4 O36 1.950539 1_555
Al5 O46 1.814828 1_555
Al5 O16 1.840513 1_555
Al5 O13 1.880224 1_555
Al5 O5 1.893154 1_555
Al5 O29 1.948815 1_555
Al5 O37 1.950539 1_555
Al6 O45 1.814828 1_655
Al6 O20 1.840513 1_556
Al6 O14 1.880224 1_555
Al6 O6 1.893154 1_555
Al6 O30 1.948815 1_555
Al6 O38 1.950539 1_555
Al7 O43 1.814828 1_455
Al7 O18 1.840513 1_554
Al7 O15 1.880224 1_555
Al7 O7 1.893154 1_555
Al7 O31 1.948815 1_555
Al7 O39 1.950539 1_555
O0 P7 1.551513 1_545
O1 P6 1.551513 1_565
O2 P5 1.551513 1_565
O3 P4 1.551513 1_555
O4 P3 1.551513 1_545
O5 P2 1.551513 1_555
O6 P1 1.551513 1_555
O7 P0 1.551513 1_555
O8 P0 1.551292 1_555
O9 P1 1.551292 1_555
O10 P2 1.551292 1_555
O11 P3 1.551292 1_555
O12 P4 1.551292 1_555
O13 P5 1.551292 1_555
O14 P6 1.551292 1_555
O15 P7 1.551292 1_555
O16 P4 1.556672 1_555
O17 P2 1.556672 1_555
O18 P1 1.556672 1_455
O19 P7 1.556672 1_555
O20 P0 1.556672 1_655
O21 P6 1.556672 1_555
O22 P5 1.556672 1_655
O23 P3 1.556672 1_455
O40 P0 1.523625 1_555
O41 P1 1.523625 1_555
O42 P2 1.523625 1_555
O43 P3 1.523625 1_555
O44 P4 1.523625 1_555
O45 P5 1.523625 1_555
O46 P6 1.523625 1_555
O47 P7 1.523625 1_555
