# generated using pymatgen
data_K2Zn3SiAs4
_symmetry_space_group_name_H-M   'P 1'
_cell_length_a   7.81224617
_cell_length_b   7.81224617
_cell_length_c   5.77648300
_cell_angle_alpha   90.00000000
_cell_angle_beta   90.00000000
_cell_angle_gamma   136.55545656
_symmetry_Int_Tables_number   1
_chemical_formula_structural   K2Zn3SiAs4
_chemical_formula_sum   'K2 Zn3 Si1 As4'
_cell_volume   242.42876713
_cell_formula_units_Z   1
loop_
 _symmetry_equiv_pos_site_id
 _symmetry_equiv_pos_as_xyz
  1  'x, y, z'
loop_
 _atom_site_type_symbol
 _atom_site_label
 _atom_site_symmetry_multiplicity
 _atom_site_fract_x
 _atom_site_fract_y
 _atom_site_fract_z
 _atom_site_occupancy
  K  K0  1  0.50000000  0.00000000  0.24853100  1
  K  K1  1  0.00000000  0.50000000  0.75146900  1
  Zn  Zn0  1  0.50000000  0.50000000  0.50000000  1
  Zn  Zn1  1  0.50000000  0.50000000  0.00000000  1
  Zn  Zn2  1  0.00000000  0.00000000  0.50000000  1
  Si  Si0  1  0.00000000  0.00000000  0.00000000  1
  As  As0  1  0.66153100  0.87282700  0.76689600  1
  As  As1  1  0.12717300  0.33846900  0.23310400  1
  As  As2  1  0.87282700  0.66153100  0.23310400  1
  As  As3  1  0.33846900  0.12717300  0.76689600  1
loop_
_geom_bond_atom_site_label_1
_geom_bond_atom_site_label_2
_geom_bond_distance
_geom_bond_site_symmetry_2
Si0 Zn2 2.888241 1_555
Si0 Zn2 2.888241 1_554
Si0 Zn1 2.891374 1_445
Si0 Zn1 2.891374 1_555
As0 Si0 2.444856 1_666
As0 Zn2 2.557558 1_665
As0 Zn1 2.559646 1_556
As0 Zn0 2.667503 1_555
As0 K0 3.484308 1_566
As0 K1 3.491923 1_665
As0 K1 3.652734 1_555
As0 K0 3.655954 1_565
As1 Si0 2.444856 1_555
As1 Zn2 2.557558 1_555
As1 Zn1 2.559646 1_555
As1 Zn0 2.667503 1_555
As1 K1 3.484308 1_554
As1 K0 3.491923 1_455
As1 K0 3.652734 1_565
As1 K1 3.655954 1_555
As2 Si0 2.444856 1_665
As2 Zn2 2.557558 1_665
As2 Zn1 2.559646 1_555
As2 Zn0 2.667503 1_555
As2 K1 3.484308 1_654
As2 K0 3.491923 1_665
As2 K0 3.652734 1_555
As2 K1 3.655954 1_655
As3 Si0 2.444856 1_556
As3 Zn2 2.557558 1_555
As3 Zn1 2.559646 1_556
As3 Zn0 2.667503 1_555
As3 K0 3.484308 1_556
As3 K1 3.491923 1_545
As3 K1 3.652734 1_655
As3 K0 3.655954 1_555
