# generated using pymatgen
data_ZnSi3GeH35C13ClO
_symmetry_space_group_name_H-M   'P 1'
_cell_length_a   10.17556315
_cell_length_b   13.43999779
_cell_length_c   21.62400900
_cell_angle_alpha   90.00000000
_cell_angle_beta   90.00000000
_cell_angle_gamma   104.98704335
_symmetry_Int_Tables_number   1
_chemical_formula_structural   ZnSi3GeH35C13ClO
_chemical_formula_sum   'Zn4 Si12 Ge4 H140 C52 Cl4 O4'
_cell_volume   2856.69546954
_cell_formula_units_Z   4
loop_
 _symmetry_equiv_pos_site_id
 _symmetry_equiv_pos_as_xyz
  1  'x, y, z'
loop_
 _atom_site_type_symbol
 _atom_site_label
 _atom_site_symmetry_multiplicity
 _atom_site_fract_x
 _atom_site_fract_y
 _atom_site_fract_z
 _atom_site_occupancy
  Zn  Zn0  1  0.07701411  0.57365904  0.43802141  1
  Zn  Zn1  1  0.57701411  0.07365904  0.06197859  1
  Zn  Zn2  1  0.92298589  0.42634096  0.56197859  1
  Zn  Zn3  1  0.42298589  0.92634096  0.93802141  1
  Si  Si0  1  0.88448750  0.75356759  0.35832605  1
  Si  Si1  1  0.38448750  0.25356759  0.14167395  1
  Si  Si2  1  0.11551250  0.24643241  0.64167395  1
  Si  Si3  1  0.61551250  0.74643241  0.85832605  1
  Si  Si4  1  0.24290720  0.87227241  0.43689943  1
  Si  Si5  1  0.74290720  0.37227241  0.06310057  1
  Si  Si6  1  0.75709280  0.12772759  0.56310057  1
  Si  Si7  1  0.25709280  0.62772759  0.93689943  1
  Si  Si8  1  0.21263452  0.72022104  0.27757262  1
  Si  Si9  1  0.71263452  0.22022104  0.22242738  1
  Si  Si10  1  0.78736548  0.27977896  0.72242738  1
  Si  Si11  1  0.28736548  0.77977896  0.77757262  1
  Ge  Ge0  1  0.10855308  0.72999110  0.37728674  1
  Ge  Ge1  1  0.60855308  0.22999110  0.12271326  1
  Ge  Ge2  1  0.89144692  0.27000890  0.62271326  1
  Ge  Ge3  1  0.39144692  0.77000890  0.87728674  1
  H  H0  1  0.94162107  0.90430043  0.28446852  1
  H  H1  1  0.44162107  0.40430043  0.21553148  1
  H  H2  1  0.05837893  0.09569957  0.71553148  1
  H  H3  1  0.55837893  0.59569957  0.78446852  1
  H  H4  1  0.92919062  0.94677831  0.36150787  1
  H  H5  1  0.42919062  0.44677831  0.13849213  1
  H  H6  1  0.07080938  0.05322169  0.63849213  1
  H  H7  1  0.57080938  0.55322169  0.86150787  1
  H  H8  1  0.77900317  0.88816827  0.31944559  1
  H  H9  1  0.27900317  0.38816827  0.18055441  1
  H  H10  1  0.22099683  0.11183173  0.68055441  1
  H  H11  1  0.72099683  0.61183173  0.81944559  1
  H  H12  1  0.83942405  0.66324655  0.25508124  1
  H  H13  1  0.33942405  0.16324655  0.24491876  1
  H  H14  1  0.16057595  0.33675345  0.74491876  1
  H  H15  1  0.66057595  0.83675345  0.75508124  1
  H  H16  1  0.68649242  0.66729221  0.29359189  1
  H  H17  1  0.18649242  0.16729221  0.20640811  1
  H  H18  1  0.31350758  0.33270779  0.70640811  1
  H  H19  1  0.81350758  0.83270779  0.79359189  1
  H  H20  1  0.77764330  0.57698864  0.31716375  1
  H  H21  1  0.27764330  0.07698864  0.18283625  1
  H  H22  1  0.22235670  0.42301136  0.68283625  1
  H  H23  1  0.72235670  0.92301136  0.81716375  1
  H  H24  1  0.82419398  0.78864128  0.46765808  1
  H  H25  1  0.32419398  0.28864128  0.03234192  1
  H  H26  1  0.17580602  0.21135872  0.53234192  1
  H  H27  1  0.67580602  0.71135872  0.96765808  1
  H  H28  1  0.76758680  0.65484850  0.44960958  1
  H  H29  1  0.26758680  0.15484850  0.05039042  1
  H  H30  1  0.23241320  0.34515150  0.55039042  1
  H  H31  1  0.73241320  0.84515150  0.94960958  1
  H  H32  1  0.67702330  0.74254313  0.42100581  1
  H  H33  1  0.17702330  0.24254313  0.07899419  1
  H  H34  1  0.32297670  0.25745687  0.57899419  1
  H  H35  1  0.82297670  0.75745687  0.92100581  1
  H  H36  1  0.05868845  0.90817219  0.50444032  1
  H  H37  1  0.55868845  0.40817219  0.99555968  1
  H  H38  1  0.94131155  0.09182781  0.49555968  1
  H  H39  1  0.44131155  0.59182781  0.00444032  1
  H  H40  1  0.22311880  0.95285342  0.53797816  1
  H  H41  1  0.72311880  0.45285342  0.96202184  1
  H  H42  1  0.77688120  0.04714658  0.46202184  1
  H  H43  1  0.27688120  0.54714658  0.03797816  1
  H  H44  1  0.13741036  0.81921717  0.54064517  1
  H  H45  1  0.63741036  0.31921717  0.95935483  1
  H  H46  1  0.86258964  0.18078283  0.45935483  1
  H  H47  1  0.36258964  0.68078283  0.04064517  1
  H  H48  1  0.18626584  0.02300841  0.38413815  1
  H  H49  1  0.68626584  0.52300841  0.11586185  1
  H  H50  1  0.81373416  0.97699159  0.61586185  1
  H  H51  1  0.31373416  0.47699159  0.88413815  1
  H  H52  1  0.33876296  0.00214990  0.35309974  1
  H  H53  1  0.83876296  0.50214990  0.14690026  1
  H  H54  1  0.66123704  0.99785010  0.64690026  1
  H  H55  1  0.16123704  0.49785010  0.85309974  1
  H  H56  1  0.34064927  0.06042713  0.42691807  1
  H  H57  1  0.84064927  0.56042713  0.07308193  1
  H  H58  1  0.65935073  0.93957287  0.57308193  1
  H  H59  1  0.15935073  0.43957287  0.92691807  1
  H  H60  1  0.39721143  0.77495559  0.48393319  1
  H  H61  1  0.89721143  0.27495559  0.01606681  1
  H  H62  1  0.60278857  0.22504441  0.51606681  1
  H  H63  1  0.10278857  0.72504441  0.98393319  1
  H  H64  1  0.46846342  0.91044904  0.48821816  1
  H  H65  1  0.96846342  0.41044904  0.01178184  1
  H  H66  1  0.53153658  0.08955096  0.51178184  1
  H  H67  1  0.03153658  0.58955096  0.98821816  1
  H  H68  1  0.47516255  0.84437403  0.41755956  1
  H  H69  1  0.97516255  0.34437403  0.08244044  1
  H  H70  1  0.52483745  0.15562597  0.58244044  1
  H  H71  1  0.02483745  0.65562597  0.91755956  1
  H  H72  1  0.03110067  0.57157337  0.23551674  1
  H  H73  1  0.53110067  0.07157337  0.26448326  1
  H  H74  1  0.96889933  0.42842663  0.76448326  1
  H  H75  1  0.46889933  0.92842663  0.73551674  1
  H  H76  1  0.16405569  0.52826624  0.27103330  1
  H  H77  1  0.66405569  0.02826624  0.22896670  1
  H  H78  1  0.83594431  0.47173376  0.72896670  1
  H  H79  1  0.33594431  0.97173376  0.77103330  1
  H  H80  1  0.18932171  0.58652902  0.19646103  1
  H  H81  1  0.68932171  0.08652902  0.30353897  1
  H  H82  1  0.81067829  0.41347098  0.80353897  1
  H  H83  1  0.31067829  0.91347098  0.69646103  1
  H  H84  1  0.07345543  0.80966194  0.21195213  1
  H  H85  1  0.57345543  0.30966194  0.28804787  1
  H  H86  1  0.92654457  0.19033806  0.78804787  1
  H  H87  1  0.42654457  0.69033806  0.71195213  1
  H  H88  1  0.22957134  0.80794694  0.17579991  1
  H  H89  1  0.72957134  0.30794694  0.32420009  1
  H  H90  1  0.77042866  0.19205306  0.82420009  1
  H  H91  1  0.27042866  0.69205306  0.67579991  1
  H  H92  1  0.22771241  0.89777696  0.23577486  1
  H  H93  1  0.72771241  0.39777696  0.26422514  1
  H  H94  1  0.77228759  0.10222304  0.76422514  1
  H  H95  1  0.27228759  0.60222304  0.73577486  1
  H  H96  1  0.43268045  0.68578518  0.31310218  1
  H  H97  1  0.93268045  0.18578518  0.18689782  1
  H  H98  1  0.56731955  0.31421482  0.68689782  1
  H  H99  1  0.06731955  0.81421482  0.81310218  1
  H  H100  1  0.45522837  0.81954736  0.29805685  1
  H  H101  1  0.95522837  0.31954736  0.20194315  1
  H  H102  1  0.54477163  0.18045264  0.70194315  1
  H  H103  1  0.04477163  0.68045264  0.79805685  1
  H  H104  1  0.44194740  0.73120507  0.23568317  1
  H  H105  1  0.94194740  0.23120507  0.26431683  1
  H  H106  1  0.55805260  0.26879493  0.76431683  1
  H  H107  1  0.05805260  0.76879493  0.73568317  1
  H  H108  1  0.37063953  0.50564719  0.47464496  1
  H  H109  1  0.87063953  0.00564719  0.02535504  1
  H  H110  1  0.62936047  0.49435281  0.52535504  1
  H  H111  1  0.12936047  0.99435281  0.97464496  1
  H  H112  1  0.40168111  0.58177748  0.40560308  1
  H  H113  1  0.90168111  0.08177748  0.09439692  1
  H  H114  1  0.59831889  0.41822252  0.59439692  1
  H  H115  1  0.09831889  0.91822252  0.90560308  1
  H  H116  1  0.49890292  0.40384843  0.42655699  1
  H  H117  1  0.99890292  0.90384843  0.07344301  1
  H  H118  1  0.50109708  0.59615157  0.57344301  1
  H  H119  1  0.00109708  0.09615157  0.92655699  1
  H  H120  1  0.48598660  0.45794110  0.35322346  1
  H  H121  1  0.98598660  0.95794110  0.14677654  1
  H  H122  1  0.51401340  0.54205890  0.64677654  1
  H  H123  1  0.01401340  0.04205890  0.85322346  1
  H  H124  1  0.30843748  0.26565130  0.40733053  1
  H  H125  1  0.80843748  0.76565130  0.09266947  1
  H  H126  1  0.69156252  0.73434870  0.59266947  1
  H  H127  1  0.19156252  0.23434870  0.90733053  1
  H  H128  1  0.31885812  0.30796683  0.32971464  1
  H  H129  1  0.81885812  0.80796683  0.17028536  1
  H  H130  1  0.68114188  0.69203317  0.67028536  1
  H  H131  1  0.18114188  0.19203317  0.82971464  1
  H  H132  1  0.12277574  0.36709546  0.34272893  1
  H  H133  1  0.62277574  0.86709546  0.15727107  1
  H  H134  1  0.87722426  0.63290454  0.65727107  1
  H  H135  1  0.37722426  0.13290454  0.84272893  1
  H  H136  1  0.10946751  0.31963027  0.42032070  1
  H  H137  1  0.60946751  0.81963027  0.07967930  1
  H  H138  1  0.89053249  0.68036973  0.57967930  1
  H  H139  1  0.39053249  0.18036973  0.92032070  1
  C  C0  1  0.88498218  0.88588005  0.32801216  1
  C  C1  1  0.38498218  0.38588005  0.17198784  1
  C  C2  1  0.11501782  0.11411995  0.67198784  1
  C  C3  1  0.61501782  0.61411995  0.82801216  1
  C  C4  1  0.78890119  0.65591325  0.30038237  1
  C  C5  1  0.28890119  0.15591325  0.19961763  1
  C  C6  1  0.21109881  0.34408675  0.69961763  1
  C  C7  1  0.71109881  0.84408675  0.80038237  1
  C  C8  1  0.77890880  0.73297000  0.43141686  1
  C  C9  1  0.27890880  0.23297000  0.06858314  1
  C  C10  1  0.22109120  0.26703000  0.56858314  1
  C  C11  1  0.72109120  0.76703000  0.93141686  1
  C  C12  1  0.15617557  0.88908205  0.51203954  1
  C  C13  1  0.65617557  0.38908205  0.98796046  1
  C  C14  1  0.84382443  0.11091795  0.48796046  1
  C  C15  1  0.34382443  0.61091795  0.01203954  1
  C  C16  1  0.28002447  0.00107518  0.39583900  1
  C  C17  1  0.78002447  0.50107518  0.10416100  1
  C  C18  1  0.71997553  0.99892482  0.60416100  1
  C  C19  1  0.21997553  0.49892482  0.89583900  1
  C  C20  1  0.41193373  0.84760268  0.45831428  1
  C  C21  1  0.91193373  0.34760268  0.04168572  1
  C  C22  1  0.58806627  0.15239732  0.54168572  1
  C  C23  1  0.08806627  0.65239732  0.95831428  1
  C  C24  1  0.14180648  0.58891968  0.24197477  1
  C  C25  1  0.64180648  0.08891968  0.25802523  1
  C  C26  1  0.85819352  0.41108032  0.75802523  1
  C  C27  1  0.35819352  0.91108032  0.74197477  1
  C  C28  1  0.18234725  0.81843486  0.22033359  1
  C  C29  1  0.68234725  0.31843486  0.27966641  1
  C  C30  1  0.81765275  0.18156514  0.77966641  1
  C  C31  1  0.31765275  0.68156514  0.72033359  1
  C  C32  1  0.40370867  0.74144330  0.28220342  1
  C  C33  1  0.90370867  0.24144330  0.21779658  1
  C  C34  1  0.59629133  0.25855670  0.71779658  1
  C  C35  1  0.09629133  0.75855670  0.78220342  1
  C  C36  1  0.36097604  0.50384466  0.42390762  1
  C  C37  1  0.86097604  0.00384466  0.07609238  1
  C  C38  1  0.63902396  0.49615534  0.57609238  1
  C  C39  1  0.13902396  0.99615534  0.92390762  1
  C  C40  1  0.42793163  0.42552542  0.39440016  1
  C  C41  1  0.92793163  0.92552542  0.10559984  1
  C  C42  1  0.57206837  0.57447458  0.60559984  1
  C  C43  1  0.07206837  0.07447458  0.89440016  1
  C  C44  1  0.30929738  0.33172998  0.37747178  1
  C  C45  1  0.80929738  0.83172998  0.12252822  1
  C  C46  1  0.69070262  0.66827002  0.62252822  1
  C  C47  1  0.19070262  0.16827002  0.87747178  1
  C  C48  1  0.17818791  0.36698543  0.38626709  1
  C  C49  1  0.67818791  0.86698543  0.11373291  1
  C  C50  1  0.82181209  0.63301457  0.61373291  1
  C  C51  1  0.32181209  0.13301457  0.88626709  1
  Cl  Cl0  1  0.87709112  0.43554195  0.45223927  1
  Cl  Cl1  1  0.37709112  0.93554195  0.04776073  1
  Cl  Cl2  1  0.12290888  0.56445805  0.54776073  1
  Cl  Cl3  1  0.62290888  0.06445805  0.95223927  1
  O  O0  1  0.21786168  0.47332074  0.40760928  1
  O  O1  1  0.71786168  0.97332074  0.09239072  1
  O  O2  1  0.78213832  0.52667926  0.59239072  1
  O  O3  1  0.28213832  0.02667926  0.90760928  1
loop_
_geom_bond_atom_site_label_1
_geom_bond_atom_site_label_2
_geom_bond_distance
_geom_bond_site_symmetry_2
Ge0 Si4 2.415647 1_555
Ge0 Si0 2.416720 1_455
Ge0 Si8 2.420767 1_555
Ge0 Zn0 2.427695 1_555
Ge1 Si5 2.415647 1_555
Ge1 Si1 2.416720 1_555
Ge1 Si9 2.420767 1_555
Ge1 Zn1 2.427695 1_555
Ge2 Si6 2.415647 1_555
Ge2 Si2 2.416720 1_655
Ge2 Si10 2.420767 1_555
Ge2 Zn2 2.427695 1_555
Ge3 Si7 2.415647 1_555
Ge3 Si3 2.416720 1_555
Ge3 Si11 2.420767 1_555
Ge3 Zn3 2.427695 1_555
C0 H0 1.098291 1_555
C0 H4 1.098389 1_555
C0 H8 1.102430 1_555
C0 Si0 1.894034 1_555
C1 H1 1.098291 1_555
C1 H5 1.098389 1_555
C1 H9 1.102430 1_555
C1 Si1 1.894034 1_555
C2 H2 1.098291 1_555
C2 H6 1.098389 1_555
C2 H10 1.102430 1_555
C2 Si2 1.894034 1_555
C3 H3 1.098291 1_555
C3 H7 1.098389 1_555
C3 H11 1.102430 1_555
C3 Si3 1.894034 1_555
C4 H20 1.098700 1_555
C4 H12 1.098820 1_555
C4 H16 1.101489 1_555
C4 Si0 1.891647 1_555
C5 H21 1.098700 1_555
C5 H13 1.098820 1_555
C5 H17 1.101489 1_555
C5 Si1 1.891647 1_555
C6 H22 1.098700 1_555
C6 H14 1.098820 1_555
C6 H18 1.101489 1_555
C6 Si2 1.891647 1_555
C7 H23 1.098700 1_555
C7 H15 1.098820 1_555
C7 H19 1.101489 1_555
C7 Si3 1.891647 1_555
C8 H28 1.099034 1_555
C8 H24 1.099094 1_555
C8 H32 1.100482 1_555
C8 Si0 1.890772 1_555
C9 H29 1.099034 1_555
C9 H25 1.099094 1_555
C9 H33 1.100482 1_555
C9 Si1 1.890772 1_555
C10 H30 1.099034 1_555
C10 H26 1.099094 1_555
C10 H34 1.100482 1_555
C10 Si2 1.890772 1_555
C11 H31 1.099034 1_555
C11 H27 1.099094 1_555
C11 H35 1.100482 1_555
C11 Si3 1.890772 1_555
C12 H44 1.099112 1_555
C12 H36 1.099320 1_555
C12 H40 1.100571 1_555
C12 Si4 1.890270 1_555
C13 H45 1.099112 1_555
C13 H37 1.099320 1_555
C13 H41 1.100571 1_555
C13 Si5 1.890270 1_556
C14 H46 1.099112 1_555
C14 H38 1.099320 1_555
C14 H42 1.100571 1_555
C14 Si6 1.890270 1_555
C15 H47 1.099112 1_555
C15 H39 1.099320 1_555
C15 H43 1.100571 1_555
C15 Si7 1.890270 1_554
C16 H48 1.098443 1_555
C16 H52 1.098690 1_555
C16 H56 1.101822 1_555
C16 Si4 1.894619 1_545
C17 H49 1.098443 1_555
C17 H53 1.098690 1_555
C17 H57 1.101822 1_555
C17 Si5 1.894619 1_555
C18 H50 1.098443 1_555
C18 H54 1.098690 1_555
C18 H58 1.101822 1_555
C18 Si6 1.894619 1_565
C19 H51 1.098443 1_555
C19 H55 1.098690 1_555
C19 H59 1.101822 1_555
C19 Si7 1.894619 1_555
C20 H68 1.098602 1_555
C20 H60 1.098636 1_555
C20 H64 1.100535 1_555
C20 Si4 1.891430 1_555
C21 H69 1.098602 1_555
C21 H61 1.098636 1_555
C21 H65 1.100535 1_555
C21 Si5 1.891430 1_555
C22 H70 1.098602 1_555
C22 H62 1.098636 1_555
C22 H66 1.100535 1_555
C22 Si6 1.891430 1_555
C23 H71 1.098602 1_555
C23 H63 1.098636 1_555
C23 H67 1.100535 1_555
C23 Si7 1.891430 1_555
C24 H76 1.098212 1_555
C24 H72 1.098641 1_555
C24 H80 1.100665 1_555
C24 Si8 1.888996 1_555
C25 H77 1.098212 1_555
C25 H73 1.098641 1_555
C25 H81 1.100665 1_555
C25 Si9 1.888996 1_555
C26 H78 1.098212 1_555
C26 H74 1.098641 1_555
C26 H82 1.100665 1_555
C26 Si10 1.888996 1_555
C27 H79 1.098212 1_555
C27 H75 1.098641 1_555
C27 H83 1.100665 1_555
C27 Si11 1.888996 1_555
C28 H84 1.098600 1_555
C28 H92 1.098684 1_555
C28 H88 1.101442 1_555
C28 Si8 1.892025 1_555
C29 H85 1.098600 1_555
C29 H93 1.098684 1_555
C29 H89 1.101442 1_555
C29 Si9 1.892025 1_555
C30 H86 1.098600 1_555
C30 H94 1.098684 1_555
C30 H90 1.101442 1_555
C30 Si10 1.892025 1_555
C31 H87 1.098600 1_555
C31 H95 1.098684 1_555
C31 H91 1.101442 1_555
C31 Si11 1.892025 1_555
C32 H96 1.098621 1_555
C32 H100 1.099837 1_555
C32 H104 1.099986 1_555
C32 Si8 1.893360 1_555
C33 H97 1.098621 1_555
C33 H101 1.099837 1_555
C33 H105 1.099986 1_555
C33 Si9 1.893360 1_555
C34 H98 1.098621 1_555
C34 H102 1.099837 1_555
C34 H106 1.099986 1_555
C34 Si10 1.893360 1_555
C35 H99 1.098621 1_555
C35 H103 1.099837 1_555
C35 H107 1.099986 1_555
C35 Si11 1.893360 1_555
C36 H112 1.095870 1_555
C36 H108 1.101249 1_555
C36 O0 1.450600 1_555
C37 H113 1.095870 1_555
C37 H109 1.101249 1_555
C37 O1 1.450600 1_545
C38 H114 1.095870 1_555
C38 H110 1.101249 1_555
C38 O2 1.450600 1_555
C39 H115 1.095870 1_555
C39 H111 1.101249 1_555
C39 O3 1.450600 1_565
C40 H120 1.094757 1_555
C40 H116 1.094876 1_555
C41 H121 1.094757 1_555
C41 H117 1.094876 1_555
C42 H122 1.094757 1_555
C42 H118 1.094876 1_555
C43 H123 1.094757 1_555
C43 H119 1.094876 1_555
C44 H128 1.092706 1_555
C44 H124 1.096202 1_555
C45 H129 1.092706 1_555
C45 H125 1.096202 1_555
C46 H130 1.092706 1_555
C46 H126 1.096202 1_555
C47 H131 1.092706 1_555
C47 H127 1.096202 1_555
C48 H132 1.097600 1_555
C48 H136 1.098234 1_555
C48 O0 1.456029 1_555
C49 H133 1.097600 1_555
C49 H137 1.098234 1_555
C49 O1 1.456029 1_555
C50 H134 1.097600 1_555
C50 H138 1.098234 1_555
C50 O2 1.456029 1_555
C51 H135 1.097600 1_555
C51 H139 1.098234 1_555
C51 O3 1.456029 1_555
Cl0 Zn0 2.392850 1_655
Cl0 Zn2 2.427839 1_555
Cl1 Zn1 2.392850 1_565
Cl1 Zn3 2.427839 1_554
Cl2 Zn2 2.392850 1_455
Cl2 Zn0 2.427839 1_555
Cl3 Zn3 2.392850 1_545
Cl3 Zn1 2.427839 1_556
O0 Zn0 2.303203 1_555
O1 Zn1 2.303203 1_565
O2 Zn2 2.303203 1_555
O3 Zn3 2.303203 1_545
