# generated using pymatgen
data_Mg2Zn
_symmetry_space_group_name_H-M   'P 1'
_cell_length_a   6.17640060
_cell_length_b   6.17640060
_cell_length_c   29.05310200
_cell_angle_alpha   90.00000000
_cell_angle_beta   90.00000000
_cell_angle_gamma   120.00000646
_symmetry_Int_Tables_number   1
_chemical_formula_structural   Mg2Zn
_chemical_formula_sum   'Mg32 Zn16'
_cell_volume   959.82934962
_cell_formula_units_Z   16
loop_
 _symmetry_equiv_pos_site_id
 _symmetry_equiv_pos_as_xyz
  1  'x, y, z'
loop_
 _atom_site_type_symbol
 _atom_site_label
 _atom_site_symmetry_multiplicity
 _atom_site_fract_x
 _atom_site_fract_y
 _atom_site_fract_z
 _atom_site_occupancy
  Mg  Mg0_0  1  0.33333350  0.16666650  0.45408850  1
  Mg  Mg0_1  1  0.33333350  0.16666650  0.95408850  1
  Mg  Mg0_2  1  0.33333350  0.66666650  0.45408850  1
  Mg  Mg0_3  1  0.33333350  0.66666650  0.95408850  1
  Mg  Mg0_4  1  0.83333350  0.16666650  0.45408850  1
  Mg  Mg0_5  1  0.83333350  0.16666650  0.95408850  1
  Mg  Mg0_6  1  0.83333350  0.66666650  0.45408850  1
  Mg  Mg0_7  1  0.83333350  0.66666650  0.95408850  1
  Mg  Mg1_0  1  0.33333350  0.16666650  0.29591150  1
  Mg  Mg1_1  1  0.33333350  0.16666650  0.79591150  1
  Mg  Mg1_2  1  0.33333350  0.66666650  0.29591150  1
  Mg  Mg1_3  1  0.33333350  0.66666650  0.79591150  1
  Mg  Mg1_4  1  0.83333350  0.16666650  0.29591150  1
  Mg  Mg1_5  1  0.83333350  0.16666650  0.79591150  1
  Mg  Mg1_6  1  0.83333350  0.66666650  0.29591150  1
  Mg  Mg1_7  1  0.83333350  0.66666650  0.79591150  1
  Mg  Mg2_0  1  0.16666650  0.33333350  0.20408850  1
  Mg  Mg2_1  1  0.16666650  0.33333350  0.70408850  1
  Mg  Mg2_2  1  0.16666650  0.83333350  0.20408850  1
  Mg  Mg2_3  1  0.16666650  0.83333350  0.70408850  1
  Mg  Mg2_4  1  0.66666650  0.33333350  0.20408850  1
  Mg  Mg2_5  1  0.66666650  0.33333350  0.70408850  1
  Mg  Mg2_6  1  0.66666650  0.83333350  0.20408850  1
  Mg  Mg2_7  1  0.66666650  0.83333350  0.70408850  1
  Mg  Mg3_0  1  0.16666650  0.33333350  0.04591150  1
  Mg  Mg3_1  1  0.16666650  0.33333350  0.54591150  1
  Mg  Mg3_2  1  0.16666650  0.83333350  0.04591150  1
  Mg  Mg3_3  1  0.16666650  0.83333350  0.54591150  1
  Mg  Mg3_4  1  0.66666650  0.33333350  0.04591150  1
  Mg  Mg3_5  1  0.66666650  0.33333350  0.54591150  1
  Mg  Mg3_6  1  0.66666650  0.83333350  0.04591150  1
  Mg  Mg3_7  1  0.66666650  0.83333350  0.54591150  1
  Zn  Zn0_0  1  0.16666650  0.33333350  0.37500000  1
  Zn  Zn0_1  1  0.16666650  0.33333350  0.87500000  1
  Zn  Zn0_2  1  0.16666650  0.83333350  0.37500000  1
  Zn  Zn0_3  1  0.16666650  0.83333350  0.87500000  1
  Zn  Zn0_4  1  0.66666650  0.33333350  0.37500000  1
  Zn  Zn0_5  1  0.66666650  0.33333350  0.87500000  1
  Zn  Zn0_6  1  0.66666650  0.83333350  0.37500000  1
  Zn  Zn0_7  1  0.66666650  0.83333350  0.87500000  1
  Zn  Zn1_0  1  0.33333350  0.16666650  0.12500000  1
  Zn  Zn1_1  1  0.33333350  0.16666650  0.62500000  1
  Zn  Zn1_2  1  0.33333350  0.66666650  0.12500000  1
  Zn  Zn1_3  1  0.33333350  0.66666650  0.62500000  1
  Zn  Zn1_4  1  0.83333350  0.16666650  0.12500000  1
  Zn  Zn1_5  1  0.83333350  0.16666650  0.62500000  1
  Zn  Zn1_6  1  0.83333350  0.66666650  0.12500000  1
  Zn  Zn1_7  1  0.83333350  0.66666650  0.62500000  1
loop_
_geom_bond_atom_site_label_1
_geom_bond_atom_site_label_2
_geom_bond_distance
_geom_bond_site_symmetry_2
Mg0_0 Zn0_4 2.908387 1_555
Mg0_0 Zn0_2 2.908387 1_545
Mg0_0 Zn0_0 2.908391 1_555
Mg0_0 Mg0_6 3.088200 1_445
Mg0_0 Mg0_6 3.088200 1_555
Mg0_0 Mg0_4 3.088200 1_455
Mg0_0 Mg0_2 3.088200 1_555
Mg0_0 Mg0_2 3.088200 1_545
Mg0_0 Mg0_4 3.088200 1_555
Mg0_0 Mg3_3 3.208713 1_545
Mg0_0 Mg3_5 3.208713 1_555
Mg0_0 Mg3_1 3.208716 1_555
Mg0_1 Zn0_5 2.908387 1_555
Mg0_1 Zn0_3 2.908387 1_545
Mg0_1 Zn0_1 2.908391 1_555
Mg0_1 Mg0_7 3.088200 1_445
Mg0_1 Mg0_7 3.088200 1_555
Mg0_1 Mg0_3 3.088200 1_555
Mg0_1 Mg0_5 3.088200 1_455
Mg0_1 Mg0_5 3.088200 1_555
Mg0_1 Mg0_3 3.088200 1_545
Mg0_1 Mg3_2 3.208713 1_546
Mg0_1 Mg3_4 3.208713 1_556
Mg0_1 Mg3_0 3.208716 1_556
Mg0_2 Zn0_0 2.908387 1_555
Mg0_2 Zn0_6 2.908387 1_555
Mg0_2 Zn0_2 2.908391 1_555
Mg0_2 Mg0_4 3.088200 1_455
Mg0_2 Mg0_4 3.088200 1_565
Mg0_2 Mg0_6 3.088200 1_455
Mg0_2 Mg0_6 3.088200 1_555
Mg0_2 Mg3_1 3.208713 1_555
Mg0_2 Mg3_7 3.208713 1_555
Mg0_2 Mg3_3 3.208716 1_555
Mg0_3 Zn0_1 2.908387 1_555
Mg0_3 Zn0_7 2.908387 1_555
Mg0_3 Zn0_3 2.908391 1_555
Mg0_3 Mg0_5 3.088200 1_455
Mg0_3 Mg0_5 3.088200 1_565
Mg0_3 Mg0_7 3.088200 1_455
Mg0_3 Mg0_7 3.088200 1_555
Mg0_3 Mg3_0 3.208713 1_556
Mg0_3 Mg3_6 3.208713 1_556
Mg0_3 Mg3_2 3.208716 1_556
Mg0_4 Zn0_0 2.908387 1_655
Mg0_4 Zn0_6 2.908387 1_545
Mg0_4 Zn0_4 2.908391 1_555
Mg0_4 Mg0_6 3.088200 1_555
Mg0_4 Mg0_6 3.088200 1_545
Mg0_4 Mg3_1 3.208713 1_655
Mg0_4 Mg3_7 3.208713 1_545
Mg0_4 Mg3_5 3.208716 1_555
Mg0_5 Zn0_1 2.908387 1_655
Mg0_5 Zn0_7 2.908387 1_545
Mg0_5 Zn0_5 2.908391 1_555
Mg0_5 Mg0_7 3.088200 1_545
Mg0_5 Mg0_7 3.088200 1_555
Mg0_5 Mg3_6 3.208713 1_546
Mg0_5 Mg3_0 3.208713 1_656
Mg0_5 Mg3_4 3.208716 1_556
Mg0_6 Zn0_4 2.908387 1_555
Mg0_6 Zn0_2 2.908387 1_655
Mg0_6 Zn0_6 2.908391 1_555
Mg0_6 Mg3_5 3.208713 1_555
Mg0_6 Mg3_3 3.208713 1_655
Mg0_6 Mg3_7 3.208716 1_555
Mg0_7 Zn0_5 2.908387 1_555
Mg0_7 Zn0_3 2.908387 1_655
Mg0_7 Zn0_7 2.908391 1_555
Mg0_7 Mg3_4 3.208713 1_556
Mg0_7 Mg3_2 3.208713 1_656
Mg0_7 Mg3_6 3.208716 1_556
Mg1_0 Zn0_4 2.908387 1_555
Mg1_0 Zn0_2 2.908387 1_545
Mg1_0 Zn0_0 2.908391 1_555
Mg1_0 Mg1_6 3.088200 1_445
Mg1_0 Mg1_6 3.088200 1_555
Mg1_0 Mg1_2 3.088200 1_555
Mg1_0 Mg1_4 3.088200 1_455
Mg1_0 Mg1_4 3.088200 1_555
Mg1_0 Mg1_2 3.088200 1_545
Mg1_0 Mg2_4 3.208713 1_555
Mg1_0 Mg2_2 3.208713 1_545
Mg1_0 Mg2_0 3.208716 1_555
Mg1_1 Zn0_5 2.908387 1_555
Mg1_1 Zn0_3 2.908387 1_545
Mg1_1 Zn0_1 2.908391 1_555
Mg1_1 Mg1_7 3.088200 1_445
Mg1_1 Mg1_7 3.088200 1_555
Mg1_1 Mg1_5 3.088200 1_455
Mg1_1 Mg1_3 3.088200 1_555
Mg1_1 Mg1_5 3.088200 1_555
Mg1_1 Mg1_3 3.088200 1_545
Mg1_1 Mg2_3 3.208713 1_545
Mg1_1 Mg2_5 3.208713 1_555
Mg1_1 Mg2_1 3.208716 1_555
Mg1_2 Zn0_0 2.908387 1_555
Mg1_2 Zn0_6 2.908387 1_555
Mg1_2 Zn0_2 2.908391 1_555
Mg1_2 Mg1_4 3.088200 1_455
Mg1_2 Mg1_4 3.088200 1_565
Mg1_2 Mg1_6 3.088200 1_455
Mg1_2 Mg1_6 3.088200 1_555
Mg1_2 Mg2_0 3.208713 1_555
Mg1_2 Mg2_6 3.208713 1_555
Mg1_2 Mg2_2 3.208716 1_555
Mg1_3 Zn0_1 2.908387 1_555
Mg1_3 Zn0_7 2.908387 1_555
Mg1_3 Zn0_3 2.908391 1_555
Mg1_3 Mg1_5 3.088200 1_455
Mg1_3 Mg1_5 3.088200 1_565
Mg1_3 Mg1_7 3.088200 1_455
Mg1_3 Mg1_7 3.088200 1_555
Mg1_3 Mg2_1 3.208713 1_555
Mg1_3 Mg2_7 3.208713 1_555
Mg1_3 Mg2_3 3.208716 1_555
Mg1_4 Zn0_6 2.908387 1_545
Mg1_4 Zn0_0 2.908387 1_655
Mg1_4 Zn0_4 2.908391 1_555
Mg1_4 Mg1_6 3.088200 1_555
Mg1_4 Mg1_6 3.088200 1_545
Mg1_4 Mg2_6 3.208713 1_545
Mg1_4 Mg2_0 3.208713 1_655
Mg1_4 Mg2_4 3.208716 1_555
Mg1_5 Zn0_1 2.908387 1_655
Mg1_5 Zn0_7 2.908387 1_545
Mg1_5 Zn0_5 2.908391 1_555
Mg1_5 Mg1_7 3.088200 1_545
Mg1_5 Mg1_7 3.088200 1_555
Mg1_5 Mg2_1 3.208713 1_655
Mg1_5 Mg2_7 3.208713 1_545
Mg1_5 Mg2_5 3.208716 1_555
Mg1_6 Zn0_4 2.908387 1_555
Mg1_6 Zn0_2 2.908387 1_655
Mg1_6 Zn0_6 2.908391 1_555
Mg1_6 Mg2_4 3.208713 1_555
Mg1_6 Mg2_2 3.208713 1_655
Mg1_6 Mg2_6 3.208716 1_555
Mg1_7 Zn0_5 2.908387 1_555
Mg1_7 Zn0_3 2.908387 1_655
Mg1_7 Zn0_7 2.908391 1_555
Mg1_7 Mg2_5 3.208713 1_555
Mg1_7 Mg2_3 3.208713 1_655
Mg1_7 Mg2_7 3.208716 1_555
Mg2_0 Zn1_4 2.908387 1_455
Mg2_0 Zn1_2 2.908387 1_555
Mg2_0 Zn1_0 2.908391 1_555
Mg2_0 Mg2_6 3.088200 1_445
Mg2_0 Mg2_6 3.088200 1_555
Mg2_0 Mg2_4 3.088200 1_455
Mg2_0 Mg2_2 3.088200 1_555
Mg2_0 Mg2_4 3.088200 1_555
Mg2_0 Mg2_2 3.088200 1_545
Mg2_1 Zn1_5 2.908387 1_455
Mg2_1 Zn1_3 2.908387 1_555
Mg2_1 Zn1_1 2.908391 1_555
Mg2_1 Mg2_7 3.088200 1_445
Mg2_1 Mg2_7 3.088200 1_555
Mg2_1 Mg2_5 3.088200 1_455
Mg2_1 Mg2_3 3.088200 1_555
Mg2_1 Mg2_5 3.088200 1_555
Mg2_1 Mg2_3 3.088200 1_545
Mg2_2 Zn1_6 2.908387 1_455
Mg2_2 Zn1_0 2.908387 1_565
Mg2_2 Zn1_2 2.908391 1_555
Mg2_2 Mg2_4 3.088200 1_455
Mg2_2 Mg2_4 3.088200 1_565
Mg2_2 Mg2_6 3.088200 1_555
Mg2_2 Mg2_6 3.088200 1_455
Mg2_3 Zn1_7 2.908387 1_455
Mg2_3 Zn1_1 2.908387 1_565
Mg2_3 Zn1_3 2.908391 1_555
Mg2_3 Mg2_5 3.088200 1_455
Mg2_3 Mg2_5 3.088200 1_565
Mg2_3 Mg2_7 3.088200 1_555
Mg2_3 Mg2_7 3.088200 1_455
Mg2_4 Zn1_6 2.908387 1_555
Mg2_4 Zn1_0 2.908387 1_555
Mg2_4 Zn1_4 2.908391 1_555
Mg2_4 Mg2_6 3.088200 1_555
Mg2_4 Mg2_6 3.088200 1_545
Mg2_5 Zn1_7 2.908387 1_555
Mg2_5 Zn1_1 2.908387 1_555
Mg2_5 Zn1_5 2.908391 1_555
Mg2_5 Mg2_7 3.088200 1_555
Mg2_5 Mg2_7 3.088200 1_545
Mg2_6 Zn1_2 2.908387 1_555
Mg2_6 Zn1_4 2.908387 1_565
Mg2_6 Zn1_6 2.908391 1_555
Mg2_7 Zn1_3 2.908387 1_555
Mg2_7 Zn1_5 2.908387 1_565
Mg2_7 Zn1_7 2.908391 1_555
Mg3_0 Zn1_2 2.908387 1_555
Mg3_0 Zn1_4 2.908387 1_455
Mg3_0 Zn1_0 2.908391 1_555
Mg3_0 Mg3_6 3.088200 1_445
Mg3_0 Mg3_6 3.088200 1_555
Mg3_0 Mg3_4 3.088200 1_455
Mg3_0 Mg3_2 3.088200 1_555
Mg3_0 Mg3_2 3.088200 1_545
Mg3_0 Mg3_4 3.088200 1_555
Mg3_1 Zn1_5 2.908387 1_455
Mg3_1 Zn1_3 2.908387 1_555
Mg3_1 Zn1_1 2.908391 1_555
Mg3_1 Mg3_7 3.088200 1_445
Mg3_1 Mg3_7 3.088200 1_555
Mg3_1 Mg3_5 3.088200 1_455
Mg3_1 Mg3_3 3.088200 1_555
Mg3_1 Mg3_5 3.088200 1_555
Mg3_1 Mg3_3 3.088200 1_545
Mg3_2 Zn1_0 2.908387 1_565
Mg3_2 Zn1_6 2.908387 1_455
Mg3_2 Zn1_2 2.908391 1_555
Mg3_2 Mg3_4 3.088200 1_455
Mg3_2 Mg3_4 3.088200 1_565
Mg3_2 Mg3_6 3.088200 1_455
Mg3_2 Mg3_6 3.088200 1_555
Mg3_3 Zn1_1 2.908387 1_565
Mg3_3 Zn1_7 2.908387 1_455
Mg3_3 Zn1_3 2.908391 1_555
Mg3_3 Mg3_5 3.088200 1_455
Mg3_3 Mg3_5 3.088200 1_565
Mg3_3 Mg3_7 3.088200 1_555
Mg3_3 Mg3_7 3.088200 1_455
Mg3_4 Zn1_6 2.908387 1_555
Mg3_4 Zn1_0 2.908387 1_555
Mg3_4 Zn1_4 2.908391 1_555
Mg3_4 Mg3_6 3.088200 1_555
Mg3_4 Mg3_6 3.088200 1_545
Mg3_5 Zn1_7 2.908387 1_555
Mg3_5 Zn1_1 2.908387 1_555
Mg3_5 Zn1_5 2.908391 1_555
Mg3_5 Mg3_7 3.088200 1_555
Mg3_5 Mg3_7 3.088200 1_545
Mg3_6 Zn1_2 2.908387 1_555
Mg3_6 Zn1_4 2.908387 1_565
Mg3_6 Zn1_6 2.908391 1_555
Mg3_7 Zn1_3 2.908387 1_555
Mg3_7 Zn1_5 2.908387 1_565
Mg3_7 Zn1_7 2.908391 1_555
Zn0_0 Zn0_6 3.088200 1_445
Zn0_0 Zn0_6 3.088200 1_555
Zn0_0 Zn0_4 3.088200 1_455
Zn0_0 Zn0_2 3.088200 1_555
Zn0_0 Zn0_2 3.088200 1_545
Zn0_0 Zn0_4 3.088200 1_555
Zn0_1 Zn0_7 3.088200 1_445
Zn0_1 Zn0_7 3.088200 1_555
Zn0_1 Zn0_3 3.088200 1_555
Zn0_1 Zn0_5 3.088200 1_455
Zn0_1 Zn0_3 3.088200 1_545
Zn0_1 Zn0_5 3.088200 1_555
Zn0_2 Zn0_4 3.088200 1_455
Zn0_2 Zn0_4 3.088200 1_565
Zn0_2 Zn0_6 3.088200 1_555
Zn0_2 Zn0_6 3.088200 1_455
Zn0_3 Zn0_5 3.088200 1_565
Zn0_3 Zn0_5 3.088200 1_455
Zn0_3 Zn0_7 3.088200 1_455
Zn0_3 Zn0_7 3.088200 1_555
Zn0_4 Zn0_6 3.088200 1_555
Zn0_4 Zn0_6 3.088200 1_545
Zn0_5 Zn0_7 3.088200 1_555
Zn0_5 Zn0_7 3.088200 1_545
Zn1_0 Zn1_6 3.088200 1_445
Zn1_0 Zn1_6 3.088200 1_555
Zn1_0 Zn1_4 3.088200 1_455
Zn1_0 Zn1_2 3.088200 1_555
Zn1_0 Zn1_2 3.088200 1_545
Zn1_0 Zn1_4 3.088200 1_555
Zn1_1 Zn1_7 3.088200 1_445
Zn1_1 Zn1_7 3.088200 1_555
Zn1_1 Zn1_5 3.088200 1_455
Zn1_1 Zn1_3 3.088200 1_555
Zn1_1 Zn1_5 3.088200 1_555
Zn1_1 Zn1_3 3.088200 1_545
Zn1_2 Zn1_4 3.088200 1_455
Zn1_2 Zn1_4 3.088200 1_565
Zn1_2 Zn1_6 3.088200 1_455
Zn1_2 Zn1_6 3.088200 1_555
Zn1_3 Zn1_5 3.088200 1_455
Zn1_3 Zn1_5 3.088200 1_565
Zn1_3 Zn1_7 3.088200 1_455
Zn1_3 Zn1_7 3.088200 1_555
Zn1_4 Zn1_6 3.088200 1_555
Zn1_4 Zn1_6 3.088200 1_545
Zn1_5 Zn1_7 3.088200 1_545
Zn1_5 Zn1_7 3.088200 1_555
