# generated using pymatgen
data_NdCrB4
_symmetry_space_group_name_H-M   'P 1'
_cell_length_a   3.54911300
_cell_length_b   6.03580600
_cell_length_c   11.67399300
_cell_angle_alpha   90.00000000
_cell_angle_beta   90.00000000
_cell_angle_gamma   90.00000000
_symmetry_Int_Tables_number   1
_chemical_formula_structural   NdCrB4
_chemical_formula_sum   'Nd4 Cr4 B16'
_cell_volume   250.07744757
_cell_formula_units_Z   4
loop_
 _symmetry_equiv_pos_site_id
 _symmetry_equiv_pos_as_xyz
  1  'x, y, z'
loop_
 _atom_site_type_symbol
 _atom_site_label
 _atom_site_symmetry_multiplicity
 _atom_site_fract_x
 _atom_site_fract_y
 _atom_site_fract_z
 _atom_site_occupancy
  Nd  Nd0  1  0.00000000  0.62375100  0.34856300  1
  Nd  Nd1  1  0.00000000  0.37624900  0.65143700  1
  Nd  Nd2  1  0.00000000  0.12375100  0.15143700  1
  Nd  Nd3  1  0.00000000  0.87624900  0.84856300  1
  Cr  Cr0  1  0.00000000  0.61995400  0.07768500  1
  Cr  Cr1  1  0.00000000  0.38004600  0.92231500  1
  Cr  Cr2  1  0.00000000  0.11995400  0.42231500  1
  Cr  Cr3  1  0.00000000  0.88004600  0.57768500  1
  B  B0  1  0.50000000  0.77670100  0.18148800  1
  B  B1  1  0.50000000  0.22329900  0.81851200  1
  B  B2  1  0.50000000  0.27670100  0.31851200  1
  B  B3  1  0.50000000  0.72329900  0.68148800  1
  B  B4  1  0.50000000  0.85921000  0.03272000  1
  B  B5  1  0.50000000  0.14079000  0.96728000  1
  B  B6  1  0.50000000  0.35921000  0.46728000  1
  B  B7  1  0.50000000  0.64079000  0.53272000  1
  B  B8  1  0.50000000  0.88883900  0.45442400  1
  B  B9  1  0.50000000  0.11116100  0.54557600  1
  B  B10  1  0.50000000  0.38883900  0.04557600  1
  B  B11  1  0.50000000  0.61116100  0.95442400  1
  B  B12  1  0.50000000  0.97712500  0.31120300  1
  B  B13  1  0.50000000  0.02287500  0.68879700  1
  B  B14  1  0.50000000  0.47712500  0.18879700  1
  B  B15  1  0.50000000  0.52287500  0.81120300  1
loop_
_geom_bond_atom_site_label_1
_geom_bond_atom_site_label_2
_geom_bond_distance
_geom_bond_site_symmetry_2
Cr0 Cr1 2.320914 1_554
Cr2 Cr3 2.320914 1_545
B0 B4 1.806709 1_555
B0 B14 1.810195 1_555
B0 B12 1.938170 1_555
B0 Cr0 2.347891 1_655
B0 Cr0 2.347891 1_555
B0 Nd2 2.767671 1_565
B0 Nd2 2.767671 1_665
B0 Nd0 2.793831 1_655
B0 Nd0 2.793831 1_555
B1 B5 1.806709 1_555
B1 B15 1.810195 1_555
B1 B13 1.938170 1_555
B1 Cr1 2.347891 1_555
B1 Cr1 2.347891 1_655
B1 Nd3 2.767671 1_645
B1 Nd3 2.767671 1_545
B1 Nd1 2.793831 1_555
B1 Nd1 2.793831 1_655
B2 B6 1.806709 1_555
B2 Cr2 2.347891 1_555
B2 Cr2 2.347891 1_655
B2 Nd0 2.767671 1_555
B2 Nd0 2.767671 1_655
B2 Nd2 2.793831 1_555
B2 Nd2 2.793831 1_655
B3 B7 1.806709 1_555
B3 Cr3 2.347891 1_655
B3 Cr3 2.347891 1_555
B3 Nd1 2.767671 1_655
B3 Nd1 2.767671 1_555
B3 Nd3 2.793831 1_655
B3 Nd3 2.793831 1_555
B4 B5 1.863364 1_564
B4 Cr0 2.347344 1_555
B4 Cr0 2.347344 1_655
B4 Nd2 2.760305 1_565
B4 Nd2 2.760305 1_665
B4 Nd3 2.789529 1_654
B4 Nd3 2.789529 1_554
B5 Cr1 2.347344 1_555
B5 Cr1 2.347344 1_655
B5 Nd3 2.760305 1_645
B5 Nd3 2.760305 1_545
B5 Nd2 2.789529 1_656
B5 Nd2 2.789529 1_556
B6 B9 1.754132 1_555
B6 B7 1.863364 1_555
B6 Cr2 2.347344 1_555
B6 Cr2 2.347344 1_655
B6 Nd0 2.760305 1_655
B6 Nd0 2.760305 1_555
B6 Nd1 2.789529 1_655
B6 Nd1 2.789529 1_555
B7 B8 1.754132 1_555
B7 Cr3 2.347344 1_655
B7 Cr3 2.347344 1_555
B7 Nd1 2.760305 1_655
B7 Nd1 2.760305 1_555
B7 Nd0 2.789529 1_555
B7 Nd0 2.789529 1_655
B8 B9 1.712601 1_565
B8 Cr3 2.285266 1_555
B8 Cr3 2.285266 1_655
B8 Cr2 2.288118 1_665
B8 Cr2 2.288118 1_565
B8 Nd0 2.690050 1_655
B8 Nd0 2.690050 1_555
B9 Cr2 2.285266 1_655
B9 Cr2 2.285266 1_555
B9 Cr3 2.288118 1_545
B9 Cr3 2.288118 1_645
B9 Nd1 2.690050 1_655
B9 Nd1 2.690050 1_555
B10 B11 1.712601 1_554
B10 B5 1.754132 1_554
B10 B14 1.754825 1_555
B10 Cr1 2.285266 1_654
B10 Cr1 2.285266 1_554
B10 Cr0 2.288118 1_555
B10 Cr0 2.288118 1_655
B10 Nd2 2.690050 1_555
B10 Nd2 2.690050 1_655
B11 B4 1.754132 1_556
B11 B15 1.754825 1_555
B11 Cr0 2.285266 1_556
B11 Cr0 2.285266 1_656
B11 Cr1 2.288118 1_555
B11 Cr1 2.288118 1_655
B11 Nd3 2.690050 1_555
B11 Nd3 2.690050 1_655
B12 B8 1.754825 1_555
B12 B2 1.810195 1_565
B12 Cr2 2.361095 1_565
B12 Cr2 2.361095 1_665
B12 Nd2 2.722299 1_665
B12 Nd2 2.722299 1_565
B12 Nd0 2.808651 1_655
B12 Nd0 2.808651 1_555
B13 B9 1.754825 1_555
B13 B3 1.810195 1_545
B13 Cr3 2.361095 1_645
B13 Cr3 2.361095 1_545
B13 Nd3 2.722299 1_545
B13 Nd3 2.722299 1_645
B13 Nd1 2.808651 1_655
B13 Nd1 2.808651 1_555
B14 B2 1.938170 1_555
B14 Cr0 2.361095 1_555
B14 Cr0 2.361095 1_655
B14 Nd0 2.722299 1_555
B14 Nd0 2.722299 1_655
B14 Nd2 2.808651 1_555
B14 Nd2 2.808651 1_655
B15 B3 1.938170 1_555
B15 Cr1 2.361095 1_655
B15 Cr1 2.361095 1_555
B15 Nd1 2.722299 1_555
B15 Nd1 2.722299 1_655
B15 Nd3 2.808651 1_655
B15 Nd3 2.808651 1_555
