# generated using pymatgen
data_Ca2Ta2O6F
_symmetry_space_group_name_H-M   'P 1'
_cell_length_a   7.35679552
_cell_length_b   7.35679552
_cell_length_c   7.35679552
_cell_angle_alpha   60.00000000
_cell_angle_beta   60.00000000
_cell_angle_gamma   60.00000000
_symmetry_Int_Tables_number   1
_chemical_formula_structural   Ca2Ta2O6F
_chemical_formula_sum   'Ca4 Ta4 O12 F2'
_cell_volume   281.54709946
_cell_formula_units_Z   2
loop_
 _symmetry_equiv_pos_site_id
 _symmetry_equiv_pos_as_xyz
  1  'x, y, z'
loop_
 _atom_site_type_symbol
 _atom_site_label
 _atom_site_symmetry_multiplicity
 _atom_site_fract_x
 _atom_site_fract_y
 _atom_site_fract_z
 _atom_site_occupancy
  Ca  Ca0  1  0.12500000  0.12500000  0.62500000  1
  Ca  Ca1  1  0.12500000  0.62500000  0.12500000  1
  Ca  Ca2  1  0.62500000  0.12500000  0.12500000  1
  Ca  Ca3  1  0.12500000  0.12500000  0.12500000  1
  Ta  Ta0  1  0.62500000  0.62500000  0.12500000  1
  Ta  Ta1  1  0.62500000  0.12500000  0.62500000  1
  Ta  Ta2  1  0.12500000  0.62500000  0.62500000  1
  Ta  Ta3  1  0.62500000  0.62500000  0.62500000  1
  O  O0  1  0.29015200  0.29015200  0.70984800  1
  O  O1  1  0.70984800  0.70984800  0.29015200  1
  O  O2  1  0.95984800  0.54015200  0.54015200  1
  O  O3  1  0.70984800  0.29015200  0.29015200  1
  O  O4  1  0.54015200  0.95984800  0.54015200  1
  O  O5  1  0.54015200  0.54015200  0.95984800  1
  O  O6  1  0.29015200  0.70984800  0.70984800  1
  O  O7  1  0.95984800  0.54015200  0.95984800  1
  O  O8  1  0.54015200  0.95984800  0.95984800  1
  O  O9  1  0.70984800  0.29015200  0.70984800  1
  O  O10  1  0.29015200  0.70984800  0.29015200  1
  O  O11  1  0.95984800  0.95984800  0.54015200  1
  F  F0  1  0.25000000  0.25000000  0.25000000  1
  F  F1  1  0.00000000  0.00000000  0.00000000  1
loop_
_geom_bond_atom_site_label_1
_geom_bond_atom_site_label_2
_geom_bond_distance
_geom_bond_site_symmetry_2
Ca0 F0 2.252549 1_555
Ca0 F1 2.252549 1_556
Ca0 O6 2.516953 1_545
Ca0 O2 2.516953 1_455
Ca0 O9 2.516953 1_455
Ca0 O4 2.516953 1_545
Ca0 O11 2.516953 1_445
Ca0 O0 2.516953 1_555
Ca1 F1 2.252549 1_565
Ca1 F0 2.252549 1_555
Ca1 O6 2.516953 1_554
Ca1 O1 2.516953 1_455
Ca1 O2 2.516953 1_455
Ca1 O10 2.516953 1_555
Ca1 O5 2.516953 1_554
Ca1 O7 2.516953 1_454
Ca2 F1 2.252549 1_655
Ca2 F0 2.252549 1_555
Ca2 O9 2.516953 1_554
Ca2 O4 2.516953 1_545
Ca2 O5 2.516953 1_554
Ca2 O1 2.516953 1_545
Ca2 O3 2.516953 1_555
Ca2 O8 2.516953 1_544
Ca3 F0 2.252549 1_555
Ca3 F1 2.252549 1_555
Ca3 O8 2.516953 1_544
Ca3 O3 2.516953 1_455
Ca3 O10 2.516953 1_545
Ca3 O11 2.516953 1_445
Ca3 O7 2.516953 1_454
Ca3 O0 2.516953 1_554
O0 Ta2 2.040080 1_555
O0 Ta1 2.040080 1_555
O1 Ta3 2.040080 1_555
O1 Ta0 2.040080 1_555
O2 Ta2 2.040080 1_655
O2 Ta3 2.040080 1_555
O3 Ta1 2.040080 1_555
O3 Ta0 2.040080 1_555
O4 Ta1 2.040080 1_565
O4 Ta3 2.040080 1_555
O5 Ta0 2.040080 1_556
O5 Ta3 2.040080 1_555
O6 Ta3 2.040080 1_555
O6 Ta2 2.040080 1_555
O7 Ta2 2.040080 1_655
O7 Ta0 2.040080 1_556
O8 Ta0 2.040080 1_556
O8 Ta1 2.040080 1_565
O9 Ta3 2.040080 1_555
O9 Ta1 2.040080 1_555
O10 Ta0 2.040080 1_555
O10 Ta2 2.040080 1_555
O11 Ta2 2.040080 1_655
O11 Ta1 2.040080 1_565
