# generated using pymatgen
data_Ca(VN2)2
_symmetry_space_group_name_H-M   'P 1'
_cell_length_a   10.18191008
_cell_length_b   10.18191008
_cell_length_c   10.18191008
_cell_angle_alpha   90.00000000
_cell_angle_beta   90.00000000
_cell_angle_gamma   90.00000000
_symmetry_Int_Tables_number   1
_chemical_formula_structural   Ca(VN2)2
_chemical_formula_sum   'Ca12 V24 N48'
_cell_volume   1055.57178195
_cell_formula_units_Z   12
loop_
 _symmetry_equiv_pos_site_id
 _symmetry_equiv_pos_as_xyz
  1  'x, y, z'
loop_
 _atom_site_type_symbol
 _atom_site_label
 _atom_site_symmetry_multiplicity
 _atom_site_fract_x
 _atom_site_fract_y
 _atom_site_fract_z
 _atom_site_occupancy
  Ca  Ca0  1  0.50000000  0.50000000  -0.00000000  1
  Ca  Ca1  1  0.50000000  0.00000000  0.50000000  1
  Ca  Ca2  1  -0.00000000  0.50000000  0.50000000  1
  Ca  Ca3  1  0.00000000  0.00000000  -0.00000000  1
  Ca  Ca4  1  0.12095325  0.87904675  0.37904675  1
  Ca  Ca5  1  0.87904675  0.37904675  0.12095325  1
  Ca  Ca6  1  0.37904675  0.12095325  0.87904675  1
  Ca  Ca7  1  0.62095325  0.62095325  0.62095325  1
  Ca  Ca8  1  0.87904675  0.12095325  0.62095325  1
  Ca  Ca9  1  0.12095325  0.62095325  0.87904675  1
  Ca  Ca10  1  0.62095325  0.87904675  0.12095325  1
  Ca  Ca11  1  0.37904675  0.37904675  0.37904675  1
  V  V0  1  0.38757843  0.71257583  0.35973641  1
  V  V1  1  0.61242157  0.21257583  0.14026359  1
  V  V2  1  0.11242157  0.28742417  0.85973641  1
  V  V3  1  0.88757843  0.78742417  0.64026359  1
  V  V4  1  0.35973641  0.38757843  0.71257583  1
  V  V5  1  0.14026359  0.61242157  0.21257583  1
  V  V6  1  0.85973641  0.11242157  0.28742417  1
  V  V7  1  0.64026359  0.88757843  0.78742417  1
  V  V8  1  0.71257583  0.35973641  0.38757843  1
  V  V9  1  0.21257583  0.14026359  0.61242157  1
  V  V10  1  0.28742417  0.85973641  0.11242157  1
  V  V11  1  0.78742417  0.64026359  0.88757843  1
  V  V12  1  0.61242157  0.28742417  0.64026359  1
  V  V13  1  0.38757843  0.78742417  0.85973641  1
  V  V14  1  0.88757843  0.71257583  0.14026359  1
  V  V15  1  0.11242157  0.21257583  0.35973641  1
  V  V16  1  0.64026359  0.61242157  0.28742417  1
  V  V17  1  0.85973641  0.38757843  0.78742417  1
  V  V18  1  0.14026359  0.88757843  0.71257583  1
  V  V19  1  0.35973641  0.11242157  0.21257583  1
  V  V20  1  0.28742417  0.64026359  0.61242157  1
  V  V21  1  0.78742417  0.85973641  0.38757843  1
  V  V22  1  0.71257583  0.14026359  0.88757843  1
  V  V23  1  0.21257583  0.35973641  0.11242157  1
  N  N0  1  0.34798215  0.87339844  0.27938745  1
  N  N1  1  0.65201785  0.37339844  0.22061255  1
  N  N2  1  0.15201785  0.12660156  0.77938745  1
  N  N3  1  0.84798215  0.62660156  0.72061255  1
  N  N4  1  0.27938745  0.34798215  0.87339844  1
  N  N5  1  0.22061255  0.65201785  0.37339844  1
  N  N6  1  0.77938745  0.15201785  0.12660156  1
  N  N7  1  0.72061255  0.84798215  0.62660156  1
  N  N8  1  0.87339844  0.27938745  0.34798215  1
  N  N9  1  0.37339844  0.22061255  0.65201785  1
  N  N10  1  0.12660156  0.77938745  0.15201785  1
  N  N11  1  0.62660156  0.72061255  0.84798215  1
  N  N12  1  0.65201785  0.12660156  0.72061255  1
  N  N13  1  0.34798215  0.62660156  0.77938745  1
  N  N14  1  0.84798215  0.87339844  0.22061255  1
  N  N15  1  0.15201785  0.37339844  0.27938745  1
  N  N16  1  0.72061255  0.65201785  0.12660156  1
  N  N17  1  0.77938745  0.34798215  0.62660156  1
  N  N18  1  0.22061255  0.84798215  0.87339844  1
  N  N19  1  0.27938745  0.15201785  0.37339844  1
  N  N20  1  0.12660156  0.72061255  0.65201785  1
  N  N21  1  0.62660156  0.77938745  0.34798215  1
  N  N22  1  0.87339844  0.22061255  0.84798215  1
  N  N23  1  0.37339844  0.27938745  0.15201785  1
  N  N24  1  0.42571903  0.72811998  0.53005891  1
  N  N25  1  0.57428097  0.22811998  0.96994109  1
  N  N26  1  0.07428097  0.27188002  0.03005891  1
  N  N27  1  0.92571903  0.77188002  0.46994109  1
  N  N28  1  0.53005891  0.42571903  0.72811998  1
  N  N29  1  0.96994109  0.57428097  0.22811998  1
  N  N30  1  0.03005891  0.07428097  0.27188002  1
  N  N31  1  0.46994109  0.92571903  0.77188002  1
  N  N32  1  0.72811998  0.53005891  0.42571903  1
  N  N33  1  0.22811998  0.96994109  0.57428097  1
  N  N34  1  0.27188002  0.03005891  0.07428097  1
  N  N35  1  0.77188002  0.46994109  0.92571903  1
  N  N36  1  0.57428097  0.27188002  0.46994109  1
  N  N37  1  0.42571903  0.77188002  0.03005891  1
  N  N38  1  0.92571903  0.72811998  0.96994109  1
  N  N39  1  0.07428097  0.22811998  0.53005891  1
  N  N40  1  0.46994109  0.57428097  0.27188002  1
  N  N41  1  0.03005891  0.42571903  0.77188002  1
  N  N42  1  0.96994109  0.92571903  0.72811998  1
  N  N43  1  0.53005891  0.07428097  0.22811998  1
  N  N44  1  0.27188002  0.46994109  0.57428097  1
  N  N45  1  0.77188002  0.03005891  0.42571903  1
  N  N46  1  0.72811998  0.96994109  0.92571903  1
  N  N47  1  0.22811998  0.53005891  0.07428097  1
loop_
_geom_bond_atom_site_label_1
_geom_bond_atom_site_label_2
_geom_bond_distance
_geom_bond_site_symmetry_2
Ca0 N47 2.885991 1_555
Ca0 N35 2.885991 1_554
Ca0 N40 2.885991 1_555
Ca0 N25 2.885991 1_554
Ca0 N28 2.885991 1_554
Ca0 N37 2.885991 1_555
Ca0 N1 3.017133 1_555
Ca0 N13 3.017133 1_554
Ca0 N4 3.017133 1_554
Ca0 N16 3.017133 1_555
Ca0 N11 3.017133 1_554
Ca0 N23 3.017133 1_555
Ca1 N31 2.885991 1_545
Ca1 N45 2.885991 1_555
Ca1 N33 2.885991 1_545
Ca1 N24 2.885991 1_545
Ca1 N36 2.885991 1_555
Ca1 N43 2.885991 1_555
Ca1 N12 3.017133 1_555
Ca1 N0 3.017133 1_545
Ca1 N21 3.017133 1_545
Ca1 N19 3.017133 1_555
Ca1 N7 3.017133 1_545
Ca1 N9 3.017133 1_555
Ca2 N32 2.885991 1_455
Ca2 N44 2.885991 1_555
Ca2 N41 2.885991 1_555
Ca2 N29 2.885991 1_455
Ca2 N27 2.885991 1_455
Ca2 N39 2.885991 1_555
Ca2 N3 3.017133 1_455
Ca2 N15 3.017133 1_555
Ca2 N20 3.017133 1_555
Ca2 N17 3.017133 1_455
Ca2 N8 3.017133 1_455
Ca2 N5 3.017133 1_555
Ca3 N42 2.885991 1_444
Ca3 N34 2.885991 1_555
Ca3 N46 2.885991 1_444
Ca3 N30 2.885991 1_555
Ca3 N38 2.885991 1_444
Ca3 N26 2.885991 1_555
Ca3 N2 3.017133 1_554
Ca3 N14 3.017133 1_445
Ca3 N22 3.017133 1_454
Ca3 N18 3.017133 1_544
Ca3 N10 3.017133 1_545
Ca3 N6 3.017133 1_455
Ca4 N30 2.449229 1_565
Ca4 N27 2.449229 1_455
Ca4 N33 2.449229 1_555
Ca4 N5 2.525155 1_555
Ca4 N10 2.525155 1_555
Ca4 N0 2.525155 1_555
Ca5 N26 2.449229 1_655
Ca5 N35 2.449229 1_554
Ca5 N29 2.449229 1_555
Ca5 N6 2.525155 1_555
Ca5 N8 2.525155 1_555
Ca5 N1 2.525155 1_555
Ca6 N34 2.449229 1_556
Ca6 N25 2.449229 1_555
Ca6 N31 2.449229 1_545
Ca6 N9 2.525155 1_555
Ca6 N4 2.525155 1_555
Ca6 N2 2.525155 1_555
Ca7 N28 2.449229 1_555
Ca7 N32 2.449229 1_555
Ca7 N24 2.449229 1_555
Ca7 N7 2.525155 1_555
Ca7 N3 2.525155 1_555
Ca7 N11 2.525155 1_555
Ca8 N45 2.449229 1_555
Ca8 N39 2.449229 1_655
Ca8 N42 2.449229 1_545
Ca8 N17 2.525155 1_555
Ca8 N12 2.525155 1_555
Ca8 N22 2.525155 1_555
Ca9 N47 2.449229 1_556
Ca9 N41 2.449229 1_555
Ca9 N38 2.449229 1_455
Ca9 N18 2.525155 1_555
Ca9 N20 2.525155 1_555
Ca9 N13 2.525155 1_555
Ca10 N37 2.449229 1_555
Ca10 N43 2.449229 1_565
Ca10 N46 2.449229 1_554
Ca10 N14 2.525155 1_555
Ca10 N16 2.525155 1_555
Ca10 N21 2.525155 1_555
Ca11 N36 2.449229 1_555
Ca11 N44 2.449229 1_555
Ca11 N40 2.449229 1_555
Ca11 N15 2.525155 1_555
Ca11 N23 2.525155 1_555
Ca11 N19 2.525155 1_555
N0 V10 1.813739 1_555
N0 V0 1.874349 1_555
N1 V8 1.813739 1_555
N1 V1 1.874349 1_555
N2 V9 1.813739 1_555
N2 V2 1.874349 1_555
N3 V11 1.813739 1_555
N3 V3 1.874349 1_555
N4 V2 1.813739 1_555
N4 V4 1.874349 1_555
N5 V0 1.813739 1_555
N5 V5 1.874349 1_555
N6 V1 1.813739 1_555
N6 V6 1.874349 1_555
N7 V3 1.813739 1_555
N7 V7 1.874349 1_555
N8 V6 1.813739 1_555
N8 V8 1.874349 1_555
N9 V4 1.813739 1_555
N9 V9 1.874349 1_555
N10 V5 1.813739 1_555
N10 V10 1.874349 1_555
N11 V7 1.813739 1_555
N11 V11 1.874349 1_555
N12 V22 1.813739 1_555
N12 V12 1.874349 1_555
N13 V20 1.813739 1_555
N13 V13 1.874349 1_555
N14 V21 1.813739 1_555
N14 V14 1.874349 1_555
N15 V23 1.813739 1_555
N15 V15 1.874349 1_555
N16 V14 1.813739 1_555
N16 V16 1.874349 1_555
N17 V12 1.813739 1_555
N17 V17 1.874349 1_555
N18 V13 1.813739 1_555
N18 V18 1.874349 1_555
N19 V15 1.813739 1_555
N19 V19 1.874349 1_555
N20 V18 1.813739 1_555
N20 V20 1.874349 1_555
N21 V16 1.813739 1_555
N21 V21 1.874349 1_555
N22 V17 1.813739 1_555
N22 V22 1.874349 1_555
N23 V19 1.813739 1_555
N23 V23 1.874349 1_555
N24 V0 1.784191 1_555
N24 V20 1.867147 1_555
N25 V1 1.784191 1_556
N25 V22 1.867147 1_555
N26 V2 1.784191 1_554
N26 V23 1.867147 1_555
N27 V3 1.784191 1_555
N27 V21 1.867147 1_555
N28 V4 1.784191 1_555
N28 V12 1.867147 1_555
N29 V5 1.784191 1_655
N29 V14 1.867147 1_555
N30 V6 1.784191 1_455
N30 V15 1.867147 1_555
N31 V7 1.784191 1_555
N31 V13 1.867147 1_555
N32 V8 1.784191 1_555
N32 V16 1.867147 1_555
N33 V9 1.784191 1_565
N33 V18 1.867147 1_555
N34 V10 1.784191 1_545
N34 V19 1.867147 1_555
N35 V11 1.784191 1_555
N35 V17 1.867147 1_555
N36 V12 1.784191 1_555
N36 V8 1.867147 1_555
N37 V13 1.784191 1_554
N37 V10 1.867147 1_555
N38 V14 1.784191 1_556
N38 V11 1.867147 1_555
N39 V15 1.784191 1_555
N39 V9 1.867147 1_555
N40 V16 1.784191 1_555
N40 V0 1.867147 1_555
N41 V17 1.784191 1_455
N41 V2 1.867147 1_555
N42 V18 1.784191 1_655
N42 V3 1.867147 1_555
N43 V19 1.784191 1_555
N43 V1 1.867147 1_555
N44 V20 1.784191 1_555
N44 V4 1.867147 1_555
N45 V21 1.784191 1_545
N45 V6 1.867147 1_555
N46 V22 1.784191 1_565
N46 V7 1.867147 1_555
N47 V23 1.784191 1_555
N47 V5 1.867147 1_555
