# generated using pymatgen
data_Mg3Si4
_symmetry_space_group_name_H-M   'P 1'
_cell_length_a   8.83507552
_cell_length_b   8.83507552
_cell_length_c   8.22570175
_cell_angle_alpha   72.08500252
_cell_angle_beta   72.08500252
_cell_angle_gamma   27.36382444
_symmetry_Int_Tables_number   1
_chemical_formula_structural   Mg3Si4
_chemical_formula_sum   'Mg6 Si8'
_cell_volume   279.94747004
_cell_formula_units_Z   2
loop_
 _symmetry_equiv_pos_site_id
 _symmetry_equiv_pos_as_xyz
  1  'x, y, z'
loop_
 _atom_site_type_symbol
 _atom_site_label
 _atom_site_symmetry_multiplicity
 _atom_site_fract_x
 _atom_site_fract_y
 _atom_site_fract_z
 _atom_site_occupancy
  Mg  Mg0  1  0.28584200  0.28584200  0.67648200  1
  Mg  Mg1  1  0.62081100  0.62081100  0.86580500  1
  Mg  Mg2  1  0.47581300  0.47581300  0.67299500  1
  Mg  Mg3  1  0.91744700  0.91744700  0.40860500  1
  Mg  Mg4  1  0.72100200  0.72100200  0.44308400  1
  Mg  Mg5  1  0.97265100  0.97265100  0.94665800  1
  Si  Si0  1  0.11273100  0.11273100  0.37179000  1
  Si  Si1  1  0.54702000  0.54702000  0.34015300  1
  Si  Si2  1  0.86933500  0.86933500  0.76107200  1
  Si  Si3  1  0.33411100  0.33411100  0.31523700  1
  Si  Si4  1  0.12437900  0.12437900  0.65592700  1
  Si  Si5  1  0.24341100  0.24341100  0.15240000  1
  Si  Si6  1  0.74395400  0.74395400  0.99397000  1
  Si  Si7  1  0.47481800  0.47481800  0.14222200  1
loop_
_geom_bond_atom_site_label_1
_geom_bond_atom_site_label_2
_geom_bond_distance
_geom_bond_site_symmetry_2
Mg0 Si2 2.745485 1_455
Mg0 Si2 2.745485 1_545
Mg0 Si3 2.820873 1_555
Mg0 Si4 2.830193 1_555
Mg1 Si6 2.644355 1_555
Mg1 Si4 2.698959 1_565
Mg1 Si4 2.698959 1_655
Mg1 Si7 2.800692 1_556
Mg2 Si1 2.621285 1_555
Mg2 Si2 2.719441 1_455
Mg2 Si2 2.719441 1_545
Mg3 Si2 2.751691 1_555
Mg3 Si3 2.774868 1_565
Mg3 Si3 2.774868 1_655
Mg3 Si7 2.961768 1_565
Mg3 Si7 2.961768 1_655
Mg3 Si1 2.973204 1_655
Mg3 Si1 2.973204 1_565
Mg4 Si3 2.819774 1_655
Mg4 Si3 2.819774 1_565
Mg4 Si4 2.888831 1_565
Mg4 Si4 2.888831 1_655
Mg4 Si0 2.976026 1_565
Mg4 Si0 2.976026 1_655
Mg4 Si5 3.106438 1_565
Mg4 Si5 3.106438 1_655
Mg5 Si7 2.644653 1_566
Mg5 Si7 2.644653 1_656
Mg5 Si2 2.681673 1_555
Mg5 Si4 2.925833 1_665
Si0 Si5 2.393079 1_555
Si0 Si4 2.408022 1_555
Si0 Si1 2.427663 1_545
Si0 Si1 2.427663 1_455
Si1 Si7 2.337807 1_555
Si2 Si6 2.385950 1_555
Si3 Si5 2.353655 1_555
Si3 Si7 2.384203 1_555
Si5 Si6 2.461274 1_544
Si5 Si6 2.461274 1_454
