# generated using pymatgen
data_Ca(MoO2)2
_symmetry_space_group_name_H-M   'P 1'
_cell_length_a   6.66434917
_cell_length_b   6.66434917
_cell_length_c   6.66434927
_cell_angle_alpha   59.21924720
_cell_angle_beta   59.21924720
_cell_angle_gamma   59.21924115
_symmetry_Int_Tables_number   1
_chemical_formula_structural   Ca(MoO2)2
_chemical_formula_sum   'Ca2 Mo4 O8'
_cell_volume   205.57210261
_cell_formula_units_Z   2
loop_
 _symmetry_equiv_pos_site_id
 _symmetry_equiv_pos_as_xyz
  1  'x, y, z'
loop_
 _atom_site_type_symbol
 _atom_site_label
 _atom_site_symmetry_multiplicity
 _atom_site_fract_x
 _atom_site_fract_y
 _atom_site_fract_z
 _atom_site_occupancy
  Ca  Ca0  1  0.99784500  0.99784500  0.99784500  1
  Ca  Ca1  1  0.37145900  0.37145900  0.37145900  1
  Mo  Mo0  1  0.77859000  0.77859000  0.77859000  1
  Mo  Mo1  1  0.37503900  0.37503900  0.87756500  1
  Mo  Mo2  1  0.37503900  0.87756500  0.37503900  1
  Mo  Mo3  1  0.87756500  0.37503900  0.37503900  1
  O  O0  1  0.14812200  0.62341700  0.62341700  1
  O  O1  1  0.62341700  0.14812200  0.62341700  1
  O  O2  1  0.62341700  0.62341700  0.14812200  1
  O  O3  1  0.60643100  0.60643100  0.60643100  1
  O  O4  1  0.13920800  0.13920800  0.13920800  1
  O  O5  1  0.12554000  0.12554000  0.58279100  1
  O  O6  1  0.12554000  0.58279100  0.12554000  1
  O  O7  1  0.58279100  0.12554000  0.12554000  1
loop_
_geom_bond_atom_site_label_1
_geom_bond_atom_site_label_2
_geom_bond_distance
_geom_bond_site_symmetry_2
Ca0 O6 2.241032 1_656
Ca0 O7 2.241032 1_566
Ca0 O5 2.241032 1_665
Ca0 O4 2.321168 1_666
Ca1 O6 2.319411 1_555
Ca1 O7 2.319411 1_555
Ca1 O5 2.319412 1_555
Ca1 O1 2.371530 1_555
Ca1 O0 2.371530 1_555
Ca1 O2 2.371530 1_555
Mo0 O0 2.021146 1_655
Mo0 O1 2.021146 1_565
Mo0 O2 2.021146 1_556
Mo0 O3 2.826836 1_555
Mo1 O6 2.141468 1_556
Mo1 O7 2.141468 1_556
Mo1 O3 2.179689 1_555
Mo1 O4 2.213378 1_556
Mo1 O1 2.255127 1_555
Mo1 O0 2.255127 1_555
Mo2 O5 2.141468 1_565
Mo2 O7 2.141468 1_565
Mo2 O3 2.179689 1_555
Mo2 O4 2.213378 1_565
Mo2 O2 2.255127 1_555
Mo2 O0 2.255127 1_555
Mo3 O5 2.141468 1_655
Mo3 O6 2.141468 1_655
Mo3 O3 2.179689 1_555
Mo3 O4 2.213378 1_655
Mo3 O2 2.255127 1_555
Mo3 O1 2.255127 1_555
