# generated using pymatgen
data_Na5LiCo2P2(CO7)2
_symmetry_space_group_name_H-M   'P 1'
_cell_length_a   8.51619124
_cell_length_b   8.51973342
_cell_length_c   8.83550849
_cell_angle_alpha   91.54024284
_cell_angle_beta   88.45111966
_cell_angle_gamma   75.28510546
_symmetry_Int_Tables_number   1
_chemical_formula_structural   Na5LiCo2P2(CO7)2
_chemical_formula_sum   'Na10 Li2 Co4 P4 C4 O28'
_cell_volume   619.43629612
_cell_formula_units_Z   2
loop_
 _symmetry_equiv_pos_site_id
 _symmetry_equiv_pos_as_xyz
  1  'x, y, z'
loop_
 _atom_site_type_symbol
 _atom_site_label
 _atom_site_symmetry_multiplicity
 _atom_site_fract_x
 _atom_site_fract_y
 _atom_site_fract_z
 _atom_site_occupancy
  Na  Na0  1  0.48775100  0.26198700  0.91437100  1
  Na  Na1  1  0.98653700  0.76383200  0.91570000  1
  Na  Na2  1  0.13284300  0.87466500  0.26483300  1
  Na  Na3  1  0.63384200  0.37467500  0.26545800  1
  Na  Na4  1  0.37546300  0.11543600  0.26613700  1
  Na  Na5  1  0.87554500  0.61598100  0.26470400  1
  Na  Na6  1  0.86191600  0.13027800  0.72833800  1
  Na  Na7  1  0.36661100  0.62611000  0.73013700  1
  Na  Na8  1  0.61973800  0.88792500  0.72838500  1
  Na  Na9  1  0.12371300  0.38333900  0.73055300  1
  Li  Li0  1  0.51293300  0.73769500  0.10599900  1
  Li  Li1  1  0.01304500  0.23620600  0.10547800  1
  Co  Co0  1  0.26359300  0.48635700  0.34317500  1
  Co  Co1  1  0.76304100  0.98765300  0.34430200  1
  Co  Co2  1  0.22957800  0.01312100  0.64642200  1
  Co  Co3  1  0.73698000  0.52020400  0.64605600  1
  P  P0  1  0.48488700  0.76445000  0.41053500  1
  P  P1  1  0.98564300  0.26510000  0.41047500  1
  P  P2  1  0.51189000  0.23814800  0.58250900  1
  P  P3  1  0.01293600  0.73680100  0.58330000  1
  C  C0  1  0.73154900  0.01884600  0.05940900  1
  C  C1  1  0.23066300  0.51940100  0.05894000  1
  C  C2  1  0.27318400  0.97680100  0.94886300  1
  C  C3  1  0.77284200  0.47714500  0.94950600  1
  O  O0  1  0.32062900  0.92882500  0.08194600  1
  O  O1  1  0.82156400  0.42838300  0.08207500  1
  O  O2  1  0.84584800  0.90717900  0.11733100  1
  O  O3  1  0.34419200  0.40586200  0.11515800  1
  O  O4  1  0.63051300  0.11787500  0.15398600  1
  O  O5  1  0.13148000  0.61877100  0.15478700  1
  O  O6  1  0.44541700  0.30436100  0.42927000  1
  O  O7  1  0.94525700  0.80428600  0.43119900  1
  O  O8  1  0.33695800  0.91337700  0.44451900  1
  O  O9  1  0.83613700  0.41262300  0.44388000  1
  O  O10  1  0.66209700  0.08907000  0.55043000  1
  O  O11  1  0.16209200  0.58785700  0.55145600  1
  O  O12  1  0.55264500  0.69642200  0.56314100  1
  O  O13  1  0.05351000  0.19802200  0.56332900  1
  O  O14  1  0.35374600  0.89937300  0.82872800  1
  O  O15  1  0.84918000  0.39680200  0.82875700  1
  O  O16  1  0.14889000  0.09903700  0.93109300  1
  O  O17  1  0.65119600  0.60218100  0.93296800  1
  O  O18  1  0.71833400  0.03155700  0.91498900  1
  O  O19  1  0.21596100  0.53388100  0.91481000  1
  O  O20  1  0.43107000  0.63596500  0.30911500  1
  O  O21  1  0.93288900  0.13531500  0.30985100  1
  O  O22  1  0.61408000  0.81809300  0.30973800  1
  O  O23  1  0.11398200  0.31916700  0.30900200  1
  O  O24  1  0.38122600  0.18329300  0.68014900  1
  O  O25  1  0.88206800  0.68307600  0.68238000  1
  O  O26  1  0.56596100  0.36919600  0.68021900  1
  O  O27  1  0.06635600  0.86799100  0.68210600  1
loop_
_geom_bond_atom_site_label_1
_geom_bond_atom_site_label_2
_geom_bond_distance
_geom_bond_site_symmetry_2
Na0 O3 2.269145 1_556
Na0 O18 2.398531 1_555
Na0 O24 2.427158 1_555
Na0 O26 2.427800 1_555
Na0 O4 2.643552 1_556
Na0 O19 2.828187 1_555
Na1 O2 2.263873 1_556
Na1 O19 2.389433 1_655
Na1 O27 2.416277 1_655
Na1 O25 2.418378 1_555
Na1 O5 2.649497 1_656
Na1 O18 2.788292 1_565
Na2 O7 2.340801 1_455
Na2 O5 2.366027 1_555
Na2 O0 2.378407 1_555
Na2 O21 2.446245 1_465
Na2 O8 2.462362 1_555
Na2 O2 2.756176 1_455
Na2 O20 2.865624 1_555
Na3 O6 2.331969 1_555
Na3 O1 2.379477 1_555
Na3 O4 2.382184 1_555
Na3 O9 2.441328 1_555
Na3 O20 2.459943 1_555
Na3 O3 2.789604 1_555
Na3 O21 2.873501 1_555
Na4 O6 2.330677 1_555
Na4 O4 2.368088 1_555
Na4 O0 2.381897 1_545
Na4 O8 2.441276 1_545
Na4 O23 2.463826 1_555
Na4 O3 2.799057 1_555
Na4 O22 2.859186 1_545
Na5 O7 2.344036 1_555
Na5 O5 2.368014 1_655
Na5 O1 2.375783 1_555
Na5 O9 2.456571 1_555
Na5 O22 2.459461 1_555
Na5 O2 2.790554 1_555
Na5 O23 2.856343 1_655
Na6 O18 2.326009 1_555
Na6 O13 2.348624 1_655
Na6 O15 2.390919 1_555
Na6 O10 2.430714 1_555
Na6 O27 2.475402 1_645
Na7 O19 2.322434 1_555
Na7 O12 2.334358 1_555
Na7 O26 2.426430 1_555
Na7 O14 2.438696 1_555
Na7 O11 2.457963 1_555
Na8 O18 2.325770 1_565
Na8 O12 2.347492 1_555
Na8 O14 2.387758 1_555
Na8 O10 2.442816 1_565
Na8 O25 2.476722 1_555
Na9 O19 2.319772 1_555
Na9 O13 2.331336 1_555
Na9 O24 2.433121 1_555
Na9 O15 2.445589 1_455
Na9 O11 2.461003 1_555
Li0 O0 2.015309 1_555
Li0 O17 2.043005 1_554
Li0 O22 2.183792 1_555
Li0 O20 2.186522 1_555
Li1 O1 2.015615 1_455
Li1 O16 2.048930 1_554
Li1 O21 2.186415 1_455
Li1 O23 2.189986 1_555
Co0 O6 2.070731 1_555
Co0 O11 2.080935 1_555
Co0 O3 2.147577 1_555
Co0 O23 2.159434 1_555
Co0 O20 2.161116 1_555
Co0 O5 2.206010 1_555
Co1 O10 2.062993 1_565
Co1 O7 2.082170 1_555
Co1 O2 2.143136 1_555
Co1 O21 2.165361 1_565
Co1 O22 2.172019 1_555
Co1 O4 2.213378 1_565
Co2 O8 2.043596 1_545
Co2 O13 2.047095 1_555
Co2 O14 2.075403 1_545
Co2 O27 2.104960 1_545
Co2 O24 2.192589 1_555
Co3 O12 2.044271 1_555
Co3 O9 2.044840 1_555
Co3 O15 2.070857 1_555
Co3 O25 2.103266 1_555
Co3 O26 2.194659 1_555
C0 O18 1.289043 1_554
C0 O2 1.302751 1_545
C0 O4 1.305722 1_555
C1 O19 1.289115 1_554
C1 O3 1.301491 1_555
C1 O5 1.306472 1_555
C2 O0 1.296374 1_556
C2 O16 1.299003 1_565
C2 O14 1.313628 1_555
C3 O1 1.296763 1_556
C3 O17 1.298185 1_555
C3 O15 1.313998 1_555
O6 P2 1.546648 1_555
O7 P3 1.543979 1_655
O8 P0 1.560181 1_555
O9 P1 1.560345 1_555
O10 P2 1.570190 1_555
O11 P3 1.563828 1_555
O12 P0 1.549552 1_555
O13 P1 1.549355 1_455
O20 P0 1.560661 1_555
O21 P1 1.560779 1_555
O22 P0 1.561056 1_555
O23 P1 1.560631 1_455
O24 P2 1.560408 1_555
O25 P3 1.563947 1_655
O26 P2 1.560376 1_555
O27 P3 1.563871 1_555
