# generated using pymatgen
data_Tl2CoSe2
_symmetry_space_group_name_H-M   'P 1'
_cell_length_a   5.03450000
_cell_length_b   5.03450000
_cell_length_c   7.08704035
_cell_angle_alpha   110.80512527
_cell_angle_beta   110.80512527
_cell_angle_gamma   90.00000000
_symmetry_Int_Tables_number   1
_chemical_formula_structural   Tl2CoSe2
_chemical_formula_sum   'Tl2 Co1 Se2'
_cell_volume   155.32282255
_cell_formula_units_Z   1
loop_
 _symmetry_equiv_pos_site_id
 _symmetry_equiv_pos_as_xyz
  1  'x, y, z'
loop_
 _atom_site_type_symbol
 _atom_site_label
 _atom_site_symmetry_multiplicity
 _atom_site_fract_x
 _atom_site_fract_y
 _atom_site_fract_z
 _atom_site_occupancy
  Tl  Tl0  1  0.25000000  0.75000000  0.50000000  1
  Tl  Tl1  1  0.75000000  0.25000000  0.50000000  1
  Co  Co0  1  0.00000000  0.00000000  0.00000000  1
  Se  Se0  1  0.40190300  0.40190300  0.80380700  1
  Se  Se1  1  0.59809700  0.59809700  0.19619300  1
loop_
_geom_bond_atom_site_label_1
_geom_bond_atom_site_label_2
_geom_bond_distance
_geom_bond_site_symmetry_2
Se0 Se1 2.404563 1_556
Se0 Tl0 3.130916 1_545
Se0 Tl1 3.130916 1_455
Se0 Tl1 3.130920 1_555
Se0 Tl0 3.130920 1_555
Se1 Tl0 3.130916 1_655
Se1 Tl1 3.130916 1_565
Se1 Tl0 3.130920 1_555
Se1 Tl1 3.130920 1_555
