# generated using pymatgen
data_Ti3WC4
_symmetry_space_group_name_H-M   'P 1'
_cell_length_a   10.21273003
_cell_length_b   10.21273003
_cell_length_c   10.21272989
_cell_angle_alpha   17.28443533
_cell_angle_beta   17.28443533
_cell_angle_gamma   17.28443320
_symmetry_Int_Tables_number   1
_chemical_formula_structural   Ti3WC4
_chemical_formula_sum   'Ti3 W1 C4'
_cell_volume   82.05166720
_cell_formula_units_Z   1
loop_
 _symmetry_equiv_pos_site_id
 _symmetry_equiv_pos_as_xyz
  1  'x, y, z'
loop_
 _atom_site_type_symbol
 _atom_site_label
 _atom_site_symmetry_multiplicity
 _atom_site_fract_x
 _atom_site_fract_y
 _atom_site_fract_z
 _atom_site_occupancy
  Ti  Ti0  1  0.24940800  0.24940800  0.24940800  1
  Ti  Ti1  1  0.50000000  0.50000000  0.50000000  1
  Ti  Ti2  1  0.75059200  0.75059200  0.75059200  1
  W  W0  1  0.00000000  0.00000000  0.00000000  1
  C  C0  1  0.12512800  0.12512800  0.12512800  1
  C  C1  1  0.37517200  0.37517200  0.37517200  1
  C  C2  1  0.62482800  0.62482800  0.62482800  1
  C  C3  1  0.87487200  0.87487200  0.87487200  1
loop_
_geom_bond_atom_site_label_1
_geom_bond_atom_site_label_2
_geom_bond_distance
_geom_bond_site_symmetry_2
C0 Ti2 2.164631 1_454
C0 Ti2 2.164631 1_544
C0 Ti2 2.164631 1_445
C0 Ti1 2.170470 1_545
C0 Ti1 2.170470 1_455
C0 Ti1 2.170470 1_554
C1 W0 2.175709 1_655
C1 W0 2.175709 1_565
C1 W0 2.175710 1_556
C1 Ti2 2.180060 1_545
C1 Ti2 2.180060 1_455
C1 Ti2 2.180060 1_554
C2 W0 2.175709 1_566
C2 W0 2.175709 1_656
C2 W0 2.175710 1_665
C2 Ti0 2.180060 1_565
C2 Ti0 2.180060 1_655
C2 Ti0 2.180060 1_556
C3 Ti0 2.164631 1_656
C3 Ti0 2.164631 1_566
C3 Ti0 2.164631 1_665
C3 Ti1 2.170470 1_565
C3 Ti1 2.170470 1_655
C3 Ti1 2.170470 1_556
