# generated using pymatgen
data_In3NO3
_symmetry_space_group_name_H-M   'P 1'
_cell_length_a   6.56267471
_cell_length_b   6.56267471
_cell_length_c   6.56267471
_cell_angle_alpha   119.99379710
_cell_angle_beta   119.65331474
_cell_angle_gamma   90.30613433
_symmetry_Int_Tables_number   1
_chemical_formula_structural   In3NO3
_chemical_formula_sum   'In6 N2 O6'
_cell_volume   200.38853165
_cell_formula_units_Z   2
loop_
 _symmetry_equiv_pos_site_id
 _symmetry_equiv_pos_as_xyz
  1  'x, y, z'
loop_
 _atom_site_type_symbol
 _atom_site_label
 _atom_site_symmetry_multiplicity
 _atom_site_fract_x
 _atom_site_fract_y
 _atom_site_fract_z
 _atom_site_occupancy
  In  In0  1  0.99130600  0.00000000  0.99130600  1
  In  In1  1  0.39599700  0.63395400  0.26204200  1
  In  In2  1  0.99130600  0.50000000  0.49130600  1
  In  In3  1  0.62808800  0.36604600  0.76204200  1
  In  In4  1  0.50173400  0.00287400  0.99886000  1
  In  In5  1  0.99598600  0.99712600  0.49886000  1
  N  N0  1  0.78758100  0.76393300  0.52364800  1
  N  N1  1  0.75971400  0.23606700  0.02364800  1
  O  O0  1  0.24577500  0.76172700  0.98404800  1
  O  O1  1  0.24654400  0.75782000  0.51305900  1
  O  O2  1  0.75523900  0.76651400  0.01305900  1
  O  O3  1  0.75523900  0.24218000  0.48872500  1
  O  O4  1  0.22232100  0.23827300  0.48404800  1
  O  O5  1  0.24654400  0.23348600  0.98872500  1
loop_
_geom_bond_atom_site_label_1
_geom_bond_atom_site_label_2
_geom_bond_distance
_geom_bond_site_symmetry_2
In0 N0 2.184200 1_545
In0 N1 2.184205 1_556
In0 O5 2.276088 1_655
In0 O2 2.276093 1_546
In0 O0 2.295319 1_645
In0 O4 2.295319 1_656
In1 N0 2.103787 1_555
In1 O5 2.145905 1_554
In1 O1 2.145915 1_555
In1 O0 2.182220 1_554
In2 N1 2.184200 1_555
In2 N0 2.184200 1_555
In2 O1 2.276088 1_655
In2 O3 2.276093 1_555
In2 O0 2.295319 1_655
In2 O4 2.295319 1_655
In3 N1 2.103793 1_556
In3 O3 2.145904 1_555
In3 O2 2.145904 1_556
In3 O4 2.182219 1_555
In4 N1 2.164661 1_556
In4 O0 2.234242 1_545
In4 O1 2.262101 1_545
In4 O5 2.262106 1_555
In4 O2 2.280626 1_546
In4 O3 2.280626 1_556
In5 N0 2.164666 1_555
In5 O4 2.234242 1_665
In5 O2 2.262101 1_555
In5 O3 2.262101 1_565
In5 O1 2.280621 1_655
In5 O5 2.280626 1_665
