# generated using pymatgen
data_Sr3(SnAs2)2
_symmetry_space_group_name_H-M   'P 1'
_cell_length_a   19.32223218
_cell_length_b   7.76475028
_cell_length_c   7.76350853
_cell_angle_alpha   68.01667872
_cell_angle_beta   90.00000000
_cell_angle_gamma   90.00000000
_symmetry_Int_Tables_number   1
_chemical_formula_structural   Sr3(SnAs2)2
_chemical_formula_sum   'Sr12 Sn8 As16'
_cell_volume   1080.08949245
_cell_formula_units_Z   4
loop_
 _symmetry_equiv_pos_site_id
 _symmetry_equiv_pos_as_xyz
  1  'x, y, z'
loop_
 _atom_site_type_symbol
 _atom_site_label
 _atom_site_symmetry_multiplicity
 _atom_site_fract_x
 _atom_site_fract_y
 _atom_site_fract_z
 _atom_site_occupancy
  Sr  Sr0  1  0.81767813  0.78859324  0.00964264  1
  Sr  Sr1  1  0.31767813  0.21140676  0.49035736  1
  Sr  Sr2  1  0.18232187  0.21140676  0.99035736  1
  Sr  Sr3  1  0.68232187  0.78859324  0.50964264  1
  Sr  Sr4  1  0.56009245  0.74140285  0.01095337  1
  Sr  Sr5  1  0.06009245  0.25859715  0.48904663  1
  Sr  Sr6  1  0.43990755  0.25859715  0.98904663  1
  Sr  Sr7  1  0.93990755  0.74140285  0.51095337  1
  Sr  Sr8  1  0.06155113  0.73684810  0.00499556  1
  Sr  Sr9  1  0.56155113  0.26315190  0.49500444  1
  Sr  Sr10  1  0.93844887  0.26315190  0.99500444  1
  Sr  Sr11  1  0.43844887  0.73684810  0.50499556  1
  Sn  Sn0  1  0.37735277  0.79228683  0.02828849  1
  Sn  Sn1  1  0.87735277  0.20771317  0.47171151  1
  Sn  Sn2  1  0.62264723  0.20771317  0.97171151  1
  Sn  Sn3  1  0.12264723  0.79228683  0.52828849  1
  Sn  Sn4  1  0.24357685  0.67864362  0.41011564  1
  Sn  Sn5  1  0.74357685  0.32135638  0.08988436  1
  Sn  Sn6  1  0.75642315  0.32135638  0.58988436  1
  Sn  Sn7  1  0.25642315  0.67864362  0.91011564  1
  As  As0  1  0.55477634  0.99620703  0.25816998  1
  As  As1  1  0.05477634  0.00379297  0.24183002  1
  As  As2  1  0.44522366  0.00379297  0.74183002  1
  As  As3  1  0.94522366  0.99620703  0.75816998  1
  As  As4  1  0.31725389  0.97505022  0.22199376  1
  As  As5  1  0.81725389  0.02494978  0.27800624  1
  As  As6  1  0.68274611  0.02494978  0.77800624  1
  As  As7  1  0.18274611  0.97505022  0.72199376  1
  As  As8  1  0.43648456  0.49194913  0.25239649  1
  As  As9  1  0.93648456  0.50805087  0.24760351  1
  As  As10  1  0.56351544  0.50805087  0.74760351  1
  As  As11  1  0.06351544  0.49194913  0.75239649  1
  As  As12  1  0.19509065  0.47485643  0.22732174  1
  As  As13  1  0.69509065  0.52514357  0.27267826  1
  As  As14  1  0.80490935  0.52514357  0.77267826  1
  As  As15  1  0.30490935  0.47485643  0.72732174  1
loop_
_geom_bond_atom_site_label_1
_geom_bond_atom_site_label_2
_geom_bond_distance
_geom_bond_site_symmetry_2
As0 Sn2 2.574562 1_564
As0 Sr11 3.144934 1_555
As0 Sr3 3.182389 1_555
As0 Sr6 3.202442 1_564
As0 Sr4 3.232874 1_555
As0 Sr9 3.247683 1_565
As1 Sn3 2.574562 1_545
As1 Sr10 3.144934 1_454
As1 Sr2 3.182389 1_554
As1 Sr7 3.202442 1_445
As1 Sr5 3.232874 1_555
As1 Sr8 3.247683 1_545
As2 Sn0 2.574562 1_546
As2 Sr9 3.144934 1_555
As2 Sr1 3.182389 1_555
As2 Sr4 3.202442 1_546
As2 Sr6 3.232874 1_555
As2 Sr11 3.247683 1_545
As3 Sn1 2.574562 1_565
As3 Sr8 3.144934 1_656
As3 Sr0 3.182389 1_556
As3 Sr5 3.202442 1_665
As3 Sr7 3.232874 1_555
As3 Sr10 3.247683 1_565
As4 Sn4 2.634413 1_555
As4 Sn0 2.687309 1_555
As4 Sr1 3.251400 1_565
As4 Sr11 3.269494 1_555
As4 Sr6 3.279271 1_564
As4 Sr2 3.305845 1_564
As5 Sn5 2.634413 1_555
As5 Sn1 2.687309 1_555
As5 Sr0 3.251400 1_545
As5 Sr10 3.269494 1_554
As5 Sr7 3.279271 1_545
As5 Sr3 3.305845 1_545
As6 Sn6 2.634413 1_555
As6 Sn2 2.687309 1_555
As6 Sr3 3.251400 1_545
As6 Sr9 3.269494 1_555
As6 Sr4 3.279271 1_546
As6 Sr0 3.305845 1_546
As7 Sn7 2.634413 1_555
As7 Sn3 2.687309 1_555
As7 Sr2 3.251400 1_565
As7 Sr8 3.269494 1_556
As7 Sr5 3.279271 1_565
As7 Sr1 3.305845 1_565
As8 Sn0 2.594862 1_555
As8 Sr9 3.168329 1_555
As8 Sr6 3.200148 1_554
As8 Sr4 3.201790 1_555
As8 Sr11 3.202352 1_555
As8 Sr1 3.227232 1_555
As9 Sn1 2.594862 1_555
As9 Sr8 3.168329 1_655
As9 Sr7 3.200148 1_555
As9 Sr5 3.201790 1_655
As9 Sr10 3.202352 1_554
As9 Sr0 3.227232 1_555
As10 Sn2 2.594862 1_555
As10 Sr11 3.168329 1_555
As10 Sr4 3.200148 1_556
As10 Sr6 3.201790 1_555
As10 Sr9 3.202352 1_555
As10 Sr3 3.227232 1_555
As11 Sn3 2.594862 1_555
As11 Sr10 3.168329 1_455
As11 Sr5 3.200148 1_555
As11 Sr7 3.201790 1_455
As11 Sr8 3.202352 1_556
As11 Sr2 3.227232 1_555
As12 Sn7 2.656205 1_554
As12 Sn4 2.660199 1_555
As12 Sr2 3.232229 1_554
As12 Sr1 3.292077 1_555
As12 Sr8 3.338656 1_555
As12 Sr5 3.346339 1_555
As13 Sn6 2.656205 1_555
As13 Sn5 2.660199 1_555
As13 Sr3 3.232229 1_555
As13 Sr0 3.292077 1_555
As13 Sr9 3.338656 1_555
As13 Sr4 3.346339 1_555
As14 Sn5 2.656205 1_556
As14 Sn6 2.660199 1_555
As14 Sr0 3.232229 1_556
As14 Sr3 3.292077 1_555
As14 Sr10 3.338656 1_555
As14 Sr7 3.346339 1_555
As15 Sn4 2.656205 1_555
As15 Sn7 2.660199 1_555
As15 Sr1 3.232229 1_555
As15 Sr2 3.292077 1_555
As15 Sr11 3.338656 1_555
As15 Sr6 3.346339 1_555
