# generated using pymatgen
data_RbMg6Nb
_symmetry_space_group_name_H-M   'P 1'
_cell_length_a   6.57943637
_cell_length_b   6.57943637
_cell_length_c   5.15858600
_cell_angle_alpha   90.00000000
_cell_angle_beta   90.00000000
_cell_angle_gamma   118.64926779
_symmetry_Int_Tables_number   1
_chemical_formula_structural   RbMg6Nb
_chemical_formula_sum   'Rb1 Mg6 Nb1'
_cell_volume   195.97033553
_cell_formula_units_Z   1
loop_
 _symmetry_equiv_pos_site_id
 _symmetry_equiv_pos_as_xyz
  1  'x, y, z'
loop_
 _atom_site_type_symbol
 _atom_site_label
 _atom_site_symmetry_multiplicity
 _atom_site_fract_x
 _atom_site_fract_y
 _atom_site_fract_z
 _atom_site_occupancy
  Rb  Rb0  1  0.91312600  0.08687400  0.00000000  1
  Mg  Mg0  1  0.88140700  0.57165500  0.00000000  1
  Mg  Mg1  1  0.42834500  0.11859300  0.00000000  1
  Mg  Mg2  1  0.42551100  0.57448900  0.00000000  1
  Mg  Mg3  1  0.56721900  0.89682600  0.50000000  1
  Mg  Mg4  1  0.10317400  0.43278100  0.50000000  1
  Mg  Mg5  1  0.09854100  0.90145900  0.50000000  1
  Nb  Nb0  1  0.58267700  0.41732300  0.50000000  1
loop_
_geom_bond_atom_site_label_1
_geom_bond_atom_site_label_2
_geom_bond_distance
_geom_bond_site_symmetry_2
Mg0 Mg2 3.008523 1_555
Mg0 Mg1 3.041543 1_555
Mg0 Nb0 3.103736 1_555
Mg0 Nb0 3.103736 1_554
Mg0 Mg5 3.229507 1_654
Mg0 Mg5 3.229507 1_655
Mg0 Rb0 3.294737 1_555
Mg0 Rb0 3.294887 1_565
Mg0 Mg4 3.300757 1_655
Mg0 Mg4 3.300757 1_654
Mg1 Mg2 3.008523 1_555
Mg1 Nb0 3.103736 1_555
Mg1 Nb0 3.103736 1_554
Mg1 Mg5 3.229507 1_545
Mg1 Mg5 3.229507 1_544
Mg1 Rb0 3.294737 1_555
Mg1 Rb0 3.294887 1_455
Mg1 Mg3 3.300757 1_544
Mg1 Mg3 3.300757 1_545
Mg2 Nb0 3.133155 1_555
Mg2 Nb0 3.133155 1_554
Mg2 Mg3 3.181786 1_555
Mg2 Mg4 3.181786 1_555
Mg2 Mg3 3.181786 1_554
Mg2 Mg4 3.181786 1_554
Mg2 Rb0 3.359577 1_565
Mg2 Rb0 3.359577 1_455
Mg3 Mg5 3.098367 1_555
Mg3 Mg4 3.115275 1_555
Mg3 Nb0 3.204865 1_555
Mg3 Rb0 3.266050 1_566
Mg3 Rb0 3.266050 1_565
Mg3 Nb0 3.376994 1_565
Mg3 Mg5 3.481287 1_655
Mg4 Mg5 3.098367 1_555
Mg4 Nb0 3.204865 1_555
Mg4 Rb0 3.266050 1_456
Mg4 Rb0 3.266050 1_455
Mg4 Nb0 3.376994 1_455
Mg4 Mg5 3.481287 1_545
Mg5 Rb0 3.325092 1_466
Mg5 Rb0 3.325092 1_465
Mg5 Nb0 3.361450 1_455
Mg5 Nb0 3.361450 1_565
