# generated using pymatgen
data_Yb2Be2GeO7
_symmetry_space_group_name_H-M   'P 1'
_cell_length_a   7.41620300
_cell_length_b   7.41620300
_cell_length_c   4.96191300
_cell_angle_alpha   90.00000000
_cell_angle_beta   90.00000000
_cell_angle_gamma   90.00000000
_symmetry_Int_Tables_number   1
_chemical_formula_structural   Yb2Be2GeO7
_chemical_formula_sum   'Yb4 Be4 Ge2 O14'
_cell_volume   272.90554714
_cell_formula_units_Z   2
loop_
 _symmetry_equiv_pos_site_id
 _symmetry_equiv_pos_as_xyz
  1  'x, y, z'
loop_
 _atom_site_type_symbol
 _atom_site_label
 _atom_site_symmetry_multiplicity
 _atom_site_fract_x
 _atom_site_fract_y
 _atom_site_fract_z
 _atom_site_occupancy
  Yb  Yb0  1  0.16255600  0.33744400  0.50844900  1
  Yb  Yb1  1  0.83744400  0.66255600  0.50844900  1
  Yb  Yb2  1  0.66255600  0.16255600  0.49155100  1
  Yb  Yb3  1  0.33744400  0.83744400  0.49155100  1
  Be  Be0  1  0.63577400  0.86422600  0.93916300  1
  Be  Be1  1  0.36422600  0.13577400  0.93916300  1
  Be  Be2  1  0.13577400  0.63577400  0.06083700  1
  Be  Be3  1  0.86422600  0.36422600  0.06083700  1
  Ge  Ge0  1  0.00000000  0.00000000  0.00000000  1
  Ge  Ge1  1  0.50000000  0.50000000  0.00000000  1
  O  O0  1  0.00000000  0.50000000  0.19391400  1
  O  O1  1  0.50000000  0.00000000  0.80608600  1
  O  O2  1  0.62720100  0.87279900  0.26415400  1
  O  O3  1  0.37279900  0.12720100  0.26415400  1
  O  O4  1  0.12720100  0.62720100  0.73584600  1
  O  O5  1  0.87279900  0.37279900  0.73584600  1
  O  O6  1  0.07794200  0.82573300  0.21270400  1
  O  O7  1  0.92205800  0.17426700  0.21270400  1
  O  O8  1  0.17426700  0.07794200  0.78729600  1
  O  O9  1  0.42205800  0.32573300  0.78729600  1
  O  O10  1  0.82573300  0.92205800  0.78729600  1
  O  O11  1  0.57794200  0.67426700  0.78729600  1
  O  O12  1  0.32573300  0.57794200  0.21270400  1
  O  O13  1  0.67426700  0.42205800  0.21270400  1
loop_
_geom_bond_atom_site_label_1
_geom_bond_atom_site_label_2
_geom_bond_distance
_geom_bond_site_symmetry_2
Be0 O1 1.569657 1_565
Be0 O2 1.615082 1_556
Be0 O11 1.654217 1_555
Be0 O10 1.654217 1_555
Be1 O1 1.569657 1_555
Be1 O3 1.615082 1_556
Be1 O8 1.654217 1_555
Be1 O9 1.654217 1_555
Be2 O0 1.569657 1_555
Be2 O4 1.615082 1_554
Be2 O12 1.654217 1_555
Be2 O6 1.654217 1_555
Be3 O0 1.569657 1_655
Be3 O5 1.615082 1_554
Be3 O7 1.654217 1_555
Be3 O13 1.654217 1_555
Ge0 O6 1.765879 1_545
Ge0 O10 1.765879 1_444
Ge0 O8 1.765879 1_554
Ge0 O7 1.765879 1_455
Ge1 O11 1.765879 1_554
Ge1 O13 1.765879 1_555
Ge1 O12 1.765879 1_555
Ge1 O9 1.765879 1_554
O0 Yb1 2.311377 1_455
O0 Yb0 2.311377 1_555
O1 Yb3 2.311377 1_545
O1 Yb2 2.311377 1_555
O2 Yb2 2.441234 1_565
O2 Yb3 2.441234 1_555
O2 Yb1 2.516266 1_555
O3 Yb3 2.441234 1_545
O3 Yb2 2.441234 1_555
O3 Yb0 2.516266 1_555
O4 Yb0 2.441234 1_555
O4 Yb1 2.441234 1_455
O4 Yb3 2.516266 1_555
O5 Yb0 2.441234 1_655
O5 Yb1 2.441234 1_555
O5 Yb2 2.516266 1_555
O6 Yb3 2.371857 1_555
O6 Yb1 2.607504 1_455
O7 Yb2 2.371857 1_555
O7 Yb0 2.607504 1_655
O8 Yb0 2.371857 1_555
O8 Yb3 2.607504 1_545
O9 Yb0 2.371857 1_555
O9 Yb2 2.607504 1_555
O10 Yb1 2.371857 1_555
O10 Yb2 2.607504 1_565
O11 Yb1 2.371857 1_555
O11 Yb3 2.607504 1_555
O12 Yb3 2.371857 1_555
O12 Yb0 2.607504 1_555
O13 Yb2 2.371857 1_555
O13 Yb1 2.607504 1_555
