# generated using pymatgen
data_TiCrCuS4
_symmetry_space_group_name_H-M   'P 1'
_cell_length_a   11.35567762
_cell_length_b   3.44337000
_cell_length_c   12.12204339
_cell_angle_alpha   90.00000000
_cell_angle_beta   91.19662707
_cell_angle_gamma   90.00000000
_symmetry_Int_Tables_number   1
_chemical_formula_structural   TiCrCuS4
_chemical_formula_sum   'Ti4 Cr4 Cu4 S16'
_cell_volume   473.89034096
_cell_formula_units_Z   4
loop_
 _symmetry_equiv_pos_site_id
 _symmetry_equiv_pos_as_xyz
  1  'x, y, z'
loop_
 _atom_site_type_symbol
 _atom_site_label
 _atom_site_symmetry_multiplicity
 _atom_site_fract_x
 _atom_site_fract_y
 _atom_site_fract_z
 _atom_site_occupancy
  Ti  Ti0  1  0.88736200  0.75000000  0.92536500  1
  Ti  Ti1  1  0.15560500  0.25000000  0.69428200  1
  Ti  Ti2  1  0.85029500  0.75000000  0.29519800  1
  Ti  Ti3  1  0.35123800  0.75000000  0.20532700  1
  Cr  Cr0  1  0.11135600  0.25000000  0.06774300  1
  Cr  Cr1  1  0.39060300  0.75000000  0.57204800  1
  Cr  Cr2  1  0.61613300  0.25000000  0.43392100  1
  Cr  Cr3  1  0.64717600  0.25000000  0.80147500  1
  Cu  Cu0  1  0.11498700  0.75000000  0.43266500  1
  Cu  Cu1  1  0.88211900  0.25000000  0.57029700  1
  Cu  Cu2  1  0.38772600  0.25000000  0.92786300  1
  Cu  Cu3  1  0.60901600  0.75000000  0.07116500  1
  S  S0  1  0.02625900  0.75000000  0.61803400  1
  S  S1  1  0.97146900  0.25000000  0.38442500  1
  S  S2  1  0.46638600  0.25000000  0.11582400  1
  S  S3  1  0.53150400  0.75000000  0.88678300  1
  S  S4  1  0.03253900  0.25000000  0.87646300  1
  S  S5  1  0.97203800  0.75000000  0.12217800  1
  S  S6  1  0.47320300  0.75000000  0.38535000  1
  S  S7  1  0.53095700  0.25000000  0.61897800  1
  S  S8  1  0.20866700  0.25000000  0.24766000  1
  S  S9  1  0.78286600  0.75000000  0.75149300  1
  S  S10  1  0.29316700  0.75000000  0.74933800  1
  S  S11  1  0.70788200  0.25000000  0.25005500  1
  S  S12  1  0.24555800  0.75000000  0.02163100  1
  S  S13  1  0.74946200  0.25000000  0.97878300  1
  S  S14  1  0.25140400  0.25000000  0.51696500  1
  S  S15  1  0.75302200  0.75000000  0.47869100  1
loop_
_geom_bond_atom_site_label_1
_geom_bond_atom_site_label_2
_geom_bond_distance
_geom_bond_site_symmetry_2
Cr0 S12 2.373745 1_555
Cr0 S12 2.373745 1_545
Cr0 S8 2.424259 1_555
Cr0 S5 2.438464 1_455
Cr0 S5 2.438464 1_445
Cr0 S4 2.467949 1_554
Cr1 S7 2.406285 1_555
Cr1 S7 2.406285 1_565
Cr1 S14 2.421688 1_555
Cr1 S14 2.421688 1_565
Cr1 S10 2.437675 1_555
Cr1 S6 2.467867 1_555
Cr2 S15 2.374839 1_545
Cr2 S15 2.374839 1_555
Cr2 S6 2.430081 1_545
Cr2 S6 2.430081 1_555
Cr2 S7 2.461385 1_555
Cr2 S11 2.479955 1_555
Cr3 S9 2.396771 1_555
Cr3 S9 2.396771 1_545
Cr3 S3 2.411573 1_555
Cr3 S3 2.411573 1_545
Cr3 S13 2.421676 1_555
Cr3 S7 2.552210 1_555
Cu0 S1 2.433601 1_465
Cu0 S1 2.433601 1_455
Cu0 S0 2.481732 1_555
Cu0 S14 2.518347 1_555
Cu0 S14 2.518347 1_565
Cu1 S0 2.436932 1_645
Cu1 S0 2.436932 1_655
Cu1 S1 2.490308 1_555
Cu1 S15 2.505677 1_555
Cu1 S15 2.505677 1_545
Cu2 S2 2.429877 1_556
Cu2 S3 2.431426 1_545
Cu2 S3 2.431426 1_555
Cu2 S12 2.634231 1_556
Cu2 S12 2.634231 1_546
Cu2 S10 2.950157 1_545
Cu2 S10 2.950157 1_555
Cu3 S3 2.384994 1_554
Cu3 S2 2.432527 1_555
Cu3 S2 2.432527 1_565
Cu3 S13 2.614662 1_564
Cu3 S13 2.614662 1_554
Cu3 S11 2.970756 1_565
Cu3 S11 2.970756 1_555
S0 Ti1 2.432941 1_565
S0 Ti1 2.432941 1_555
S1 Ti2 2.442404 1_545
S1 Ti2 2.442404 1_555
S2 Ti3 2.431124 1_555
S2 Ti3 2.431124 1_545
S4 Ti0 2.464599 1_445
S4 Ti0 2.464599 1_455
S4 Ti1 2.637984 1_555
S5 Ti2 2.535989 1_555
S5 Ti0 2.553565 1_554
S6 Ti3 2.560112 1_555
S8 Ti3 2.425565 1_545
S8 Ti3 2.425565 1_555
S9 Ti0 2.397070 1_555
S10 Ti1 2.409617 1_555
S10 Ti1 2.409617 1_565
S11 Ti2 2.417026 1_555
S11 Ti2 2.417026 1_545
S12 Ti3 2.507401 1_555
S13 Ti0 2.424468 1_555
S13 Ti0 2.424468 1_545
S14 Ti1 2.429243 1_555
S15 Ti2 2.504061 1_555
