# generated using pymatgen
data_CaNd2Ti2Mn2O12
_symmetry_space_group_name_H-M   'P 1'
_cell_length_a   5.37214000
_cell_length_b   5.43897452
_cell_length_c   7.67297569
_cell_angle_alpha   89.74537270
_cell_angle_beta   89.92686605
_cell_angle_gamma   89.55979895
_symmetry_Int_Tables_number   1
_chemical_formula_structural   CaNd2Ti2Mn2O12
_chemical_formula_sum   'Ca1 Nd2 Ti2 Mn2 O12'
_cell_volume   224.18715585
_cell_formula_units_Z   1
loop_
 _symmetry_equiv_pos_site_id
 _symmetry_equiv_pos_as_xyz
  1  'x, y, z'
loop_
 _atom_site_type_symbol
 _atom_site_label
 _atom_site_symmetry_multiplicity
 _atom_site_fract_x
 _atom_site_fract_y
 _atom_site_fract_z
 _atom_site_occupancy
  Ca  Ca0  1  0.99626500  0.96307100  0.24962300  1
  Nd  Nd0  1  0.01012100  0.04271200  0.74984600  1
  Nd  Nd1  1  0.51079500  0.45515400  0.25036900  1
  Ti  Ti0  1  0.00662300  0.50870000  0.98389600  1
  Ti  Ti1  1  0.50081200  0.98204700  0.51334600  1
  Mn  Mn0  1  0.00379800  0.49807900  0.49936800  1
  Mn  Mn1  1  0.50243300  0.99457000  0.00111600  1
  O  O0  1  0.94126800  0.49328100  0.74666700  1
  O  O1  1  0.77935500  0.21066400  0.03647500  1
  O  O2  1  0.78843900  0.21646300  0.46383300  1
  O  O3  1  0.71914000  0.72279600  0.04659100  1
  O  O4  1  0.72280800  0.71786500  0.45466600  1
  O  O5  1  0.56579700  0.98478100  0.75269500  1
  O  O6  1  0.43494800  0.01242600  0.24627300  1
  O  O7  1  0.27387200  0.27580200  0.52939500  1
  O  O8  1  0.27503200  0.27373400  0.97167700  1
  O  O9  1  0.20130700  0.79119100  0.52509800  1
  O  O10  1  0.20719300  0.79717600  0.97512900  1
  O  O11  1  0.07043400  0.50910600  0.25423100  1
loop_
_geom_bond_atom_site_label_1
_geom_bond_atom_site_label_2
_geom_bond_distance
_geom_bond_site_symmetry_2
Ca0 O6 2.374048 1_665
Ca0 O1 2.409834 1_565
Ca0 O2 2.416452 1_565
Ca0 O11 2.498125 1_655
Ca0 O3 2.530827 1_555
Ca0 O4 2.533293 1_555
Ca0 O9 2.554921 1_655
Ca0 O10 2.555239 1_654
Nd0 O5 2.410134 1_445
Nd0 O10 2.419662 1_545
Nd0 O9 2.427976 1_545
Nd0 O0 2.475597 1_455
Nd0 O7 2.545293 1_555
Nd0 O8 2.560079 1_555
Nd0 O2 2.664286 1_455
Nd0 O1 2.683605 1_456
Nd1 O11 2.381736 1_555
Nd1 O3 2.411831 1_555
Nd1 O4 2.417781 1_555
Nd1 O6 2.445647 1_555
Nd1 O1 2.554844 1_555
Nd1 O2 2.559380 1_555
Nd1 O7 2.673729 1_555
Nd1 O8 2.682428 1_554
Mn0 O7 1.895027 1_555
Mn0 O11 1.915007 1_555
Mn0 O0 1.926699 1_455
Mn0 O9 1.932792 1_555
Mn0 O2 1.946974 1_455
Mn0 O4 1.948139 1_455
Mn1 O3 1.905799 1_555
Mn1 O6 1.917990 1_565
Mn1 O1 1.923248 1_565
Mn1 O10 1.933111 1_554
Mn1 O5 1.936750 1_554
Mn1 O8 1.953969 1_564
O0 Ti0 1.856626 1_655
O1 Ti0 2.074707 1_654
O2 Ti1 2.044979 1_545
O3 Ti0 1.986959 1_654
O4 Ti1 1.915117 1_555
O5 Ti1 1.869989 1_555
O6 Ti1 2.085628 1_545
O7 Ti1 2.006405 1_545
O8 Ti0 1.921868 1_555
O9 Ti1 1.923276 1_555
O10 Ti0 1.911065 1_555
O11 Ti0 2.102855 1_554
