# generated using pymatgen
data_Rb3P11
_symmetry_space_group_name_H-M   'P 1'
_cell_length_a   10.81329469
_cell_length_b   10.88100239
_cell_length_c   14.43985579
_cell_angle_alpha   90.00000000
_cell_angle_beta   90.00000000
_cell_angle_gamma   90.00000000
_symmetry_Int_Tables_number   1
_chemical_formula_structural   Rb3P11
_chemical_formula_sum   'Rb12 P44'
_cell_volume   1698.98600101
_cell_formula_units_Z   4
loop_
 _symmetry_equiv_pos_site_id
 _symmetry_equiv_pos_as_xyz
  1  'x, y, z'
loop_
 _atom_site_type_symbol
 _atom_site_label
 _atom_site_symmetry_multiplicity
 _atom_site_fract_x
 _atom_site_fract_y
 _atom_site_fract_z
 _atom_site_occupancy
  Rb  Rb0  1  0.75000000  0.00000000  0.29233916  1
  Rb  Rb1  1  0.25000000  0.50000000  0.20766084  1
  Rb  Rb2  1  0.25000000  0.00000000  0.70766084  1
  Rb  Rb3  1  0.75000000  0.50000000  0.79233916  1
  Rb  Rb4  1  0.42894827  0.22803043  0.98999297  1
  Rb  Rb5  1  0.92894827  0.27196957  0.51000703  1
  Rb  Rb6  1  0.57105173  0.72803043  0.51000703  1
  Rb  Rb7  1  0.07105173  0.77196957  0.98999297  1
  Rb  Rb8  1  0.57105173  0.77196957  0.01000703  1
  Rb  Rb9  1  0.07105173  0.72803043  0.48999297  1
  Rb  Rb10  1  0.42894827  0.27196957  0.48999297  1
  Rb  Rb11  1  0.92894827  0.22803043  0.01000703  1
  P  P0  1  0.75000000  0.00000000  0.53313296  1
  P  P1  1  0.25000000  0.50000000  0.96686704  1
  P  P2  1  0.25000000  0.00000000  0.46686704  1
  P  P3  1  0.75000000  0.50000000  0.03313296  1
  P  P4  1  0.01374601  0.50728049  0.65925414  1
  P  P5  1  0.51374601  0.99271951  0.84074586  1
  P  P6  1  0.98625399  0.00728049  0.84074586  1
  P  P7  1  0.48625399  0.49271951  0.65925414  1
  P  P8  1  0.98625399  0.49271951  0.34074586  1
  P  P9  1  0.48625399  0.00728049  0.15925414  1
  P  P10  1  0.01374601  0.99271951  0.15925414  1
  P  P11  1  0.51374601  0.50728049  0.34074586  1
  P  P12  1  0.24587467  0.32603097  0.76296137  1
  P  P13  1  0.74587467  0.17396903  0.73703863  1
  P  P14  1  0.75412533  0.82603097  0.73703863  1
  P  P15  1  0.25412533  0.67396903  0.76296137  1
  P  P16  1  0.75412533  0.67396903  0.23703863  1
  P  P17  1  0.25412533  0.82603097  0.26296137  1
  P  P18  1  0.24587467  0.17396903  0.26296137  1
  P  P19  1  0.74587467  0.32603097  0.23703863  1
  P  P20  1  0.43095495  0.41388191  0.78942510  1
  P  P21  1  0.93095495  0.08611809  0.71057490  1
  P  P22  1  0.56904505  0.91388191  0.71057490  1
  P  P23  1  0.06904505  0.58611809  0.78942510  1
  P  P24  1  0.56904505  0.58611809  0.21057490  1
  P  P25  1  0.06904505  0.91388191  0.28942510  1
  P  P26  1  0.43095495  0.08611809  0.28942510  1
  P  P27  1  0.93095495  0.41388191  0.21057490  1
  P  P28  1  0.12399029  0.42007392  0.86750388  1
  P  P29  1  0.62399029  0.07992608  0.63249612  1
  P  P30  1  0.87600971  0.92007392  0.63249612  1
  P  P31  1  0.37600971  0.57992608  0.86750388  1
  P  P32  1  0.87600971  0.57992608  0.13249612  1
  P  P33  1  0.37600971  0.92007392  0.36750388  1
  P  P34  1  0.12399029  0.07992608  0.36750388  1
  P  P35  1  0.62399029  0.42007392  0.13249612  1
  P  P36  1  0.18776784  0.41928757  0.63039722  1
  P  P37  1  0.68776784  0.08071243  0.86960278  1
  P  P38  1  0.81223216  0.91928757  0.86960278  1
  P  P39  1  0.31223216  0.58071243  0.63039722  1
  P  P40  1  0.81223216  0.58071243  0.36960278  1
  P  P41  1  0.31223216  0.91928757  0.13039722  1
  P  P42  1  0.18776784  0.08071243  0.13039722  1
  P  P43  1  0.68776784  0.41928757  0.36960278  1
loop_
_geom_bond_atom_site_label_1
_geom_bond_atom_site_label_2
_geom_bond_distance
_geom_bond_site_symmetry_2
P0 P29 2.161384 1_555
P0 P30 2.161384 1_545
P0 Rb0 3.477028 1_555
P0 Rb6 3.551518 1_545
P0 Rb5 3.551518 1_555
P1 P31 2.161384 1_555
P1 P28 2.161384 1_555
P1 Rb1 3.477028 1_556
P1 Rb7 3.551518 1_555
P1 Rb4 3.551518 1_555
P2 P33 2.161384 1_545
P2 P34 2.161384 1_555
P2 Rb2 3.477028 1_555
P2 Rb9 3.551518 1_545
P2 Rb10 3.551518 1_555
P3 P35 2.161384 1_555
P3 P32 2.161384 1_555
P3 Rb3 3.477028 1_554
P3 Rb8 3.551518 1_555
P3 Rb11 3.551518 1_555
P4 Rb3 3.439914 1_455
P4 Rb5 3.470016 1_455
P4 Rb9 3.482406 1_555
P5 Rb2 3.439914 1_565
P5 Rb4 3.470016 1_565
P5 Rb8 3.482406 1_556
P6 Rb2 3.439914 1_655
P6 Rb7 3.470016 1_645
P6 Rb11 3.482406 1_556
P7 Rb3 3.439914 1_555
P7 Rb6 3.470016 1_555
P7 Rb10 3.482406 1_555
P8 Rb1 3.439914 1_655
P8 Rb9 3.470016 1_655
P8 Rb5 3.482406 1_555
P9 Rb0 3.439914 1_555
P9 Rb8 3.470016 1_545
P9 Rb4 3.482406 1_554
P10 P25 2.150935 1_555
P10 P42 2.152051 1_565
P10 Rb0 3.439914 1_465
P10 Rb11 3.470016 1_465
P10 Rb7 3.482406 1_554
P11 P24 2.150935 1_555
P11 P43 2.152051 1_555
P11 Rb1 3.439914 1_555
P11 Rb10 3.470016 1_555
P11 Rb6 3.482406 1_555
P12 P28 2.250107 1_555
P12 P20 2.250576 1_555
P12 P36 2.255804 1_555
P12 Rb2 3.636579 1_555
P13 P29 2.250107 1_555
P13 P21 2.250576 1_555
P13 P37 2.255804 1_555
P13 Rb3 3.636579 1_555
P14 P30 2.250107 1_555
P14 P22 2.250576 1_555
P14 P38 2.255804 1_555
P14 Rb3 3.636579 1_555
P15 P31 2.250107 1_555
P15 P23 2.250576 1_555
P15 P39 2.255804 1_555
P15 Rb2 3.636579 1_565
P16 P32 2.250107 1_555
P16 P24 2.250576 1_555
P16 P40 2.255804 1_555
P16 Rb0 3.636579 1_565
P17 P33 2.250107 1_555
P17 P25 2.250576 1_555
P17 P41 2.255804 1_555
P17 Rb1 3.636579 1_555
P18 P34 2.250107 1_555
P18 P26 2.250576 1_555
P18 P42 2.255804 1_555
P18 Rb1 3.636579 1_555
P19 P35 2.250107 1_555
P19 P27 2.250576 1_555
P19 P43 2.255804 1_555
P19 Rb0 3.636579 1_555
P20 P7 2.150935 1_555
P20 P31 2.210972 1_555
P20 Rb4 3.532389 1_555
P20 Rb3 3.575170 1_555
P21 P6 2.150935 1_555
P21 P30 2.210972 1_545
P21 Rb5 3.532389 1_555
P21 Rb2 3.575170 1_655
P22 P5 2.150935 1_555
P22 P29 2.210972 1_565
P22 Rb6 3.532389 1_555
P22 Rb2 3.575170 1_565
P23 P4 2.150935 1_555
P23 P28 2.210972 1_555
P23 Rb7 3.532389 1_555
P23 Rb3 3.575170 1_455
P24 P35 2.210972 1_555
P24 Rb8 3.532389 1_555
P24 Rb1 3.575170 1_555
P25 P34 2.210972 1_565
P25 Rb9 3.532389 1_555
P25 Rb0 3.575170 1_465
P26 P9 2.150935 1_555
P26 P33 2.210972 1_545
P26 Rb10 3.532389 1_555
P26 Rb0 3.575170 1_555
P27 P8 2.150935 1_555
P27 P32 2.210972 1_555
P27 Rb11 3.532389 1_555
P27 Rb1 3.575170 1_655
P28 Rb11 3.612319 1_456
P29 Rb10 3.612319 1_555
P30 Rb9 3.612319 1_655
P31 Rb8 3.612319 1_556
P32 Rb7 3.612319 1_654
P33 Rb6 3.612319 1_555
P34 Rb5 3.612319 1_455
P35 Rb4 3.612319 1_554
P36 P4 2.152051 1_555
P36 P39 2.212811 1_555
P36 Rb5 3.663916 1_455
P36 Rb10 3.671696 1_555
P37 P5 2.152051 1_545
P37 P38 2.212811 1_545
P37 Rb4 3.663916 1_555
P37 Rb11 3.671696 1_556
P38 P6 2.152051 1_565
P38 Rb7 3.663916 1_655
P38 Rb8 3.671696 1_556
P39 P7 2.152051 1_555
P39 Rb6 3.663916 1_555
P39 Rb9 3.671696 1_555
P40 P8 2.152051 1_555
P40 P43 2.212811 1_555
P40 Rb9 3.663916 1_655
P40 Rb6 3.671696 1_555
P41 P9 2.152051 1_565
P41 P42 2.212811 1_565
P41 Rb8 3.663916 1_555
P41 Rb7 3.671696 1_554
P42 Rb11 3.663916 1_455
P42 Rb4 3.671696 1_554
P43 Rb10 3.663916 1_555
P43 Rb5 3.671696 1_555
