# generated using pymatgen
data_Cu2AgH(SO5)2
_symmetry_space_group_name_H-M   'P 1'
_cell_length_a   5.32762167
_cell_length_b   5.32762167
_cell_length_c   8.06640392
_cell_angle_alpha   65.82633760
_cell_angle_beta   65.82633760
_cell_angle_gamma   70.17280704
_symmetry_Int_Tables_number   1
_chemical_formula_structural   Cu2AgH(SO5)2
_chemical_formula_sum   'Cu2 Ag1 H1 S2 O10'
_cell_volume   186.47043500
_cell_formula_units_Z   1
loop_
 _symmetry_equiv_pos_site_id
 _symmetry_equiv_pos_as_xyz
  1  'x, y, z'
loop_
 _atom_site_type_symbol
 _atom_site_label
 _atom_site_symmetry_multiplicity
 _atom_site_fract_x
 _atom_site_fract_y
 _atom_site_fract_z
 _atom_site_occupancy
  Cu  Cu0  1  0.50000000  0.00000000  0.50000000  1
  Cu  Cu1  1  0.00000000  0.50000000  0.50000000  1
  Ag  Ag0  1  0.00000000  0.00000000  0.00000000  1
  H  H0  1  0.00000000  0.00000000  0.50000000  1
  S  S0  1  0.58345400  0.58345400  0.20594900  1
  S  S1  1  0.41654600  0.41654600  0.79405100  1
  O  O0  1  0.84394000  0.84394000  0.54735600  1
  O  O1  1  0.15606000  0.15606000  0.45264400  1
  O  O2  1  0.67084500  0.26374300  0.26081700  1
  O  O3  1  0.32915500  0.73625700  0.73918300  1
  O  O4  1  0.73625700  0.32915500  0.73918300  1
  O  O5  1  0.26374300  0.67084500  0.26081700  1
  O  O6  1  0.30216100  0.30216100  0.00061200  1
  O  O7  1  0.69783900  0.69783900  0.99938800  1
  O  O8  1  0.68460900  0.68460900  0.30794700  1
  O  O9  1  0.31539100  0.31539100  0.69205300  1
loop_
_geom_bond_atom_site_label_1
_geom_bond_atom_site_label_2
_geom_bond_distance
_geom_bond_site_symmetry_2
Cu0 O0 1.863995 1_545
Cu0 O1 1.863995 1_555
Cu0 O3 1.932421 1_545
Cu0 O2 1.932421 1_555
Cu0 O9 2.439998 1_555
Cu0 O8 2.439998 1_545
Cu1 O0 1.863995 1_455
Cu1 O1 1.863995 1_555
Cu1 O4 1.932421 1_455
Cu1 O5 1.932421 1_555
Cu1 O9 2.439998 1_555
Cu1 O8 2.439998 1_455
Ag0 O8 2.625930 1_445
Ag0 O9 2.625930 1_554
Ag0 O6 2.637027 1_555
Ag0 O7 2.637027 1_444
Ag0 O2 2.683977 1_455
Ag0 O5 2.683977 1_545
Ag0 O4 2.683977 1_454
Ag0 O3 2.683977 1_544
H0 O0 1.215389 1_445
H0 O1 1.215389 1_555
O2 S0 1.525537 1_555
O3 S1 1.525537 1_555
O4 S1 1.525537 1_555
O5 S0 1.525537 1_555
O6 S1 1.451786 1_554
O7 S0 1.451786 1_556
O8 S0 1.476854 1_555
O9 S1 1.476854 1_555
