# generated using pymatgen
data_Mg2Si3
_symmetry_space_group_name_H-M   'P 1'
_cell_length_a   4.53922900
_cell_length_b   5.47151356
_cell_length_c   15.46430706
_cell_angle_alpha   91.59394767
_cell_angle_beta   97.48558618
_cell_angle_gamma   113.58930253
_symmetry_Int_Tables_number   1
_chemical_formula_structural   Mg2Si3
_chemical_formula_sum   'Mg8 Si12'
_cell_volume   347.63065491
_cell_formula_units_Z   4
loop_
 _symmetry_equiv_pos_site_id
 _symmetry_equiv_pos_as_xyz
  1  'x, y, z'
loop_
 _atom_site_type_symbol
 _atom_site_label
 _atom_site_symmetry_multiplicity
 _atom_site_fract_x
 _atom_site_fract_y
 _atom_site_fract_z
 _atom_site_occupancy
  Mg  Mg0  1  0.72419700  0.60897400  0.73810400  1
  Mg  Mg1  1  0.85542400  0.37899500  0.23473900  1
  Mg  Mg2  1  0.98292200  0.93722400  0.93181800  1
  Mg  Mg3  1  0.58074500  0.99165600  0.06329400  1
  Mg  Mg4  1  0.56843600  0.78562600  0.25428800  1
  Mg  Mg5  1  0.04678400  0.23348700  0.76449900  1
  Mg  Mg6  1  0.86762000  0.21967800  0.42624400  1
  Mg  Mg7  1  0.79364700  0.90611700  0.57384000  1
  Si  Si0  1  0.28523600  0.52371100  0.94207900  1
  Si  Si1  1  0.30503200  0.39107900  0.10547700  1
  Si  Si2  1  0.66981300  0.32024900  0.89784900  1
  Si  Si3  1  0.86759700  0.56329000  0.05742500  1
  Si  Si4  1  0.26702000  0.10966200  0.32689200  1
  Si  Si5  1  0.39045700  0.00006900  0.67520200  1
  Si  Si6  1  0.53409900  0.55969800  0.41108200  1
  Si  Si7  1  0.49394000  0.32186700  0.55643300  1
  Si  Si8  1  0.15381600  0.79037300  0.44019000  1
  Si  Si9  1  0.10872700  0.53245200  0.60298100  1
  Si  Si10  1  0.38988100  0.86106500  0.82975700  1
  Si  Si11  1  0.11445500  0.96479500  0.16790500  1
loop_
_geom_bond_atom_site_label_1
_geom_bond_atom_site_label_2
_geom_bond_distance
_geom_bond_site_symmetry_2
Mg0 Si10 2.888124 1_555
Mg0 Si10 2.912316 1_655
Mg0 Si2 2.953485 1_555
Mg0 Mg5 2.971592 1_655
Mg0 Si9 3.012455 1_655
Mg0 Si7 3.021306 1_555
Mg0 Mg5 3.026588 1_555
Mg0 Mg7 3.037045 1_555
Mg0 Si5 3.120449 1_555
Mg0 Mg5 3.122328 1_665
Mg0 Si9 3.137010 1_555
Mg0 Si5 3.185388 1_565
Mg0 Si5 3.220935 1_665
Mg0 Mg2 3.267222 1_555
Mg1 Si3 2.947431 1_555
Mg1 Si1 3.013350 1_555
Mg1 Mg4 3.016821 1_545
Mg1 Mg4 3.020509 1_555
Mg1 Si1 3.021198 1_655
Mg1 Si4 3.048706 1_555
Mg1 Si4 3.052849 1_655
Mg1 Mg4 3.075869 1_655
Mg1 Mg6 3.110127 1_555
Mg1 Mg3 3.128358 1_545
Mg1 Si11 3.147362 1_645
Mg1 Si11 3.195112 1_655
Mg1 Si11 3.221828 1_545
Mg2 Si10 2.723287 1_655
Mg2 Si3 2.803912 1_556
Mg2 Si10 2.805329 1_555
Mg2 Si0 2.931947 1_665
Mg2 Mg3 2.987279 1_556
Mg2 Si2 2.989764 1_565
Mg2 Mg5 3.075612 1_665
Mg2 Mg3 3.077071 1_656
Mg2 Si0 3.078248 1_655
Mg2 Si2 3.091711 1_555
Mg2 Si0 3.096764 1_555
Mg2 Si2 3.106096 1_665
Mg3 Si11 2.788381 1_555
Mg3 Si11 2.790136 1_655
Mg3 Si0 2.863153 1_554
Mg3 Si3 2.876334 1_565
Mg3 Si1 3.015050 1_565
Mg3 Si1 3.101929 1_665
Mg3 Si3 3.107834 1_555
Mg3 Si3 3.133670 1_455
Mg3 Si1 3.135364 1_555
Mg3 Si2 3.144111 1_564
Mg3 Mg4 3.189895 1_555
Mg4 Si6 2.746386 1_555
Mg4 Si11 2.807027 1_655
Mg4 Si11 2.822159 1_555
Mg4 Si1 2.885575 1_555
Mg4 Si4 2.916672 1_565
Mg4 Si4 2.986865 1_665
Mg4 Mg6 3.268358 1_565
Mg5 Si5 2.833630 1_555
Mg5 Si5 2.863295 1_455
Mg5 Si0 2.973521 1_555
Mg5 Si2 2.986811 1_455
Mg5 Si9 3.005972 1_555
Mg5 Si2 3.134863 1_555
Mg5 Si10 3.137040 1_545
Mg5 Si10 3.177644 1_445
Mg5 Si10 3.217527 1_555
Mg5 Mg7 3.224601 1_445
Mg6 Si4 2.749093 1_655
Mg6 Si4 2.774731 1_555
Mg6 Si6 2.827393 1_555
Mg6 Si8 2.850870 1_655
Mg6 Mg7 2.867465 1_545
Mg6 Si6 2.893616 1_655
Mg6 Si7 2.971415 1_555
Mg6 Si9 3.009618 1_655
Mg6 Si7 3.102001 1_655
Mg6 Si8 3.106325 1_645
Mg6 Si8 3.190813 1_545
Mg6 Si6 3.297247 1_545
Mg7 Si5 2.743438 1_565
Mg7 Si5 2.791853 1_665
Mg7 Si6 2.913827 1_555
Mg7 Si7 2.918620 1_555
Mg7 Si9 2.941478 1_655
Mg7 Si8 2.996976 1_655
Mg7 Si9 3.062347 1_555
Mg7 Si7 3.084380 1_565
Mg7 Si9 3.133091 1_665
Mg7 Si7 3.133912 1_665
Mg7 Si8 3.162118 1_555
Si0 Si10 2.518225 1_555
Si0 Si2 2.545940 1_455
Si0 Si2 2.564897 1_555
Si0 Si1 2.648520 1_556
Si0 Si3 2.830320 1_456
Si0 Si3 2.916905 1_556
Si1 Si11 2.418371 1_545
Si1 Si3 2.556295 1_455
Si1 Si3 2.562918 1_555
Si2 Si3 2.636049 1_556
Si4 Si8 2.464180 1_545
Si4 Si6 2.499852 1_555
Si5 Si9 2.505832 1_545
Si5 Si7 2.537112 1_555
Si6 Si8 2.550617 1_655
Si6 Si8 2.586492 1_555
Si6 Si7 2.618897 1_555
Si7 Si9 2.547645 1_655
Si7 Si9 2.607217 1_555
Si8 Si9 2.910619 1_555
Si10 Si2 2.446385 1_565
Si10 Si5 2.528268 1_565
Si11 Si4 2.482200 1_565
Si11 Si3 2.514531 1_455
