# generated using pymatgen
data_UTeP
_symmetry_space_group_name_H-M   'P 1'
_cell_length_a   11.04781857
_cell_length_b   11.04781857
_cell_length_c   4.15639284
_cell_angle_alpha   86.71698453
_cell_angle_beta   86.71698453
_cell_angle_gamma   158.32659493
_symmetry_Int_Tables_number   1
_chemical_formula_structural   UTeP
_chemical_formula_sum   'U2 Te2 P2'
_cell_volume   178.45268712
_cell_formula_units_Z   2
loop_
 _symmetry_equiv_pos_site_id
 _symmetry_equiv_pos_as_xyz
  1  'x, y, z'
loop_
 _atom_site_type_symbol
 _atom_site_label
 _atom_site_symmetry_multiplicity
 _atom_site_fract_x
 _atom_site_fract_y
 _atom_site_fract_z
 _atom_site_occupancy
  U  U0  1  0.94895400  0.11478200  0.84762200  1
  U  U1  1  0.11478200  0.94895400  0.84762200  1
  Te  Te0  1  0.58318100  0.25554100  0.23118000  1
  Te  Te1  1  0.25554100  0.58318100  0.23118000  1
  P  P0  1  0.99713400  0.99713400  0.36422500  1
  P  P1  1  0.53254800  0.53254800  0.85285100  1
loop_
_geom_bond_atom_site_label_1
_geom_bond_atom_site_label_2
_geom_bond_distance
_geom_bond_site_symmetry_2
Te0 U1 3.102826 1_654
Te0 U1 3.118681 1_545
Te0 U1 3.127126 1_544
Te1 U0 3.102826 1_564
Te1 U0 3.118681 1_455
Te1 U0 3.127126 1_454
P0 P1 2.337016 1_555
P0 P1 2.566084 1_664
P0 U0 2.733494 1_565
P0 U1 2.733494 1_655
P0 U0 2.771333 1_564
P0 U1 2.771333 1_654
P1 U0 2.741053 1_565
P1 U1 2.741053 1_655
P1 U0 2.755330 1_455
P1 U1 2.755330 1_545
