# generated using pymatgen
data_TlWO3
_symmetry_space_group_name_H-M   'P 1'
_cell_length_a   4.07720200
_cell_length_b   4.07720200
_cell_length_c   4.07720200
_cell_angle_alpha   90.00000000
_cell_angle_beta   90.00000000
_cell_angle_gamma   90.00000000
_symmetry_Int_Tables_number   1
_chemical_formula_structural   TlWO3
_chemical_formula_sum   'Tl1 W1 O3'
_cell_volume   67.77767792
_cell_formula_units_Z   1
loop_
 _symmetry_equiv_pos_site_id
 _symmetry_equiv_pos_as_xyz
  1  'x, y, z'
loop_
 _atom_site_type_symbol
 _atom_site_label
 _atom_site_symmetry_multiplicity
 _atom_site_fract_x
 _atom_site_fract_y
 _atom_site_fract_z
 _atom_site_occupancy
  Tl  Tl0  1  0.00000000  0.00000000  0.00000000  1
  W  W0  1  0.50000000  0.50000000  0.50000000  1
  O  O0  1  0.50000000  0.50000000  0.00000000  1
  O  O1  1  0.50000000  0.00000000  0.50000000  1
  O  O2  1  0.00000000  0.50000000  0.50000000  1
loop_
_geom_bond_atom_site_label_1
_geom_bond_atom_site_label_2
_geom_bond_distance
_geom_bond_site_symmetry_2
O0 W0 2.038601 1_554
O0 W0 2.038601 1_555
O0 Tl0 2.883017 1_565
O0 Tl0 2.883017 1_665
O0 Tl0 2.883017 1_655
O0 Tl0 2.883017 1_555
O1 W0 2.038601 1_555
O1 W0 2.038601 1_545
O1 Tl0 2.883017 1_556
O1 Tl0 2.883017 1_655
O1 Tl0 2.883017 1_656
O1 Tl0 2.883017 1_555
O2 W0 2.038601 1_455
O2 W0 2.038601 1_555
O2 Tl0 2.883017 1_556
O2 Tl0 2.883017 1_565
O2 Tl0 2.883017 1_566
O2 Tl0 2.883017 1_555
