# generated using pymatgen
data_YbCdPb
_symmetry_space_group_name_H-M   'P 1'
_cell_length_a   4.41202079
_cell_length_b   7.79239472
_cell_length_c   7.79239472
_cell_angle_alpha   120.00000458
_cell_angle_beta   90.00000000
_cell_angle_gamma   90.00000000
_symmetry_Int_Tables_number   1
_chemical_formula_structural   YbCdPb
_chemical_formula_sum   'Yb3 Cd3 Pb3'
_cell_volume   232.01178677
_cell_formula_units_Z   3
loop_
 _symmetry_equiv_pos_site_id
 _symmetry_equiv_pos_as_xyz
  1  'x, y, z'
loop_
 _atom_site_type_symbol
 _atom_site_label
 _atom_site_symmetry_multiplicity
 _atom_site_fract_x
 _atom_site_fract_y
 _atom_site_fract_z
 _atom_site_occupancy
  Yb  Yb0  1  0.50000000  0.60077445  0.60077445  1
  Yb  Yb1  1  0.50000000  1.00000000  0.39922555  1
  Yb  Yb2  1  0.50000000  0.39922555  1.00000000  1
  Cd  Cd0  1  0.00000000  0.25709275  0.25709275  1
  Cd  Cd1  1  0.00000000  0.00000000  0.74290725  1
  Cd  Cd2  1  0.00000000  0.74290725  0.00000000  1
  Pb  Pb0  1  0.00000000  0.66666700  0.33333300  1
  Pb  Pb1  1  0.00000000  0.33333300  0.66666700  1
  Pb  Pb2  1  0.50000000  0.00000000  0.00000000  1
loop_
_geom_bond_atom_site_label_1
_geom_bond_atom_site_label_2
_geom_bond_distance
_geom_bond_site_symmetry_2
Cd0 Pb1 2.939888 1_555
Cd0 Pb0 2.939888 1_555
Cd0 Pb2 2.979927 1_555
Cd0 Pb2 2.979927 1_455
Cd0 Yb0 3.469686 1_455
Cd0 Yb0 3.469686 1_555
Cd0 Yb1 3.510767 1_445
Cd0 Yb2 3.510767 1_554
Cd0 Yb1 3.510767 1_545
Cd0 Yb2 3.510767 1_454
Cd1 Pb1 2.939880 1_555
Cd1 Pb0 2.939885 1_545
Cd1 Pb2 2.979927 1_456
Cd1 Pb2 2.979927 1_556
Cd1 Yb1 3.469686 1_545
Cd1 Yb1 3.469686 1_445
Cd1 Yb2 3.510767 1_555
Cd1 Yb2 3.510767 1_455
Cd1 Yb0 3.510767 1_545
Cd1 Yb0 3.510767 1_445
Cd2 Pb0 2.939880 1_555
Cd2 Pb1 2.939885 1_554
Cd2 Pb2 2.979927 1_565
Cd2 Pb2 2.979927 1_465
Cd2 Yb2 3.469686 1_554
Cd2 Yb2 3.469686 1_454
Cd2 Yb1 3.510767 1_455
Cd2 Yb1 3.510767 1_555
Cd2 Yb0 3.510767 1_454
Cd2 Yb0 3.510767 1_554
Pb0 Yb1 3.247035 1_555
Pb0 Yb1 3.247035 1_455
Pb0 Yb2 3.247037 1_454
Pb0 Yb2 3.247037 1_554
Pb0 Yb0 3.247041 1_455
Pb0 Yb0 3.247041 1_555
Pb1 Yb2 3.247035 1_455
Pb1 Yb2 3.247035 1_555
Pb1 Yb1 3.247037 1_445
Pb1 Yb1 3.247037 1_545
Pb1 Yb0 3.247041 1_455
Pb1 Yb0 3.247041 1_555
Pb2 Yb0 3.110923 1_544
Pb2 Yb2 3.110923 1_554
Pb2 Yb1 3.110923 1_545
