# generated using pymatgen
data_CeSe2
_symmetry_space_group_name_H-M   'P 1'
_cell_length_a   13.11115441
_cell_length_b   13.11115441
_cell_length_c   25.29445719
_cell_angle_alpha   105.02084845
_cell_angle_beta   105.02084845
_cell_angle_gamma   90.00000000
_symmetry_Int_Tables_number   1
_chemical_formula_structural   CeSe2
_chemical_formula_sum   'Ce16 Se32'
_cell_volume   4045.58405852
_cell_formula_units_Z   16
loop_
 _symmetry_equiv_pos_site_id
 _symmetry_equiv_pos_as_xyz
  1  'x, y, z'
loop_
 _atom_site_type_symbol
 _atom_site_label
 _atom_site_symmetry_multiplicity
 _atom_site_fract_x
 _atom_site_fract_y
 _atom_site_fract_z
 _atom_site_occupancy
  Ce  Ce0  1  0.43384112  0.18384112  0.25000000  1
  Ce  Ce1  1  0.43384112  0.56615888  0.25000000  1
  Ce  Ce2  1  0.18384112  0.43384112  0.75000000  1
  Ce  Ce3  1  0.18384112  0.81615888  0.75000000  1
  Ce  Ce4  1  0.81615888  0.18384112  0.25000000  1
  Ce  Ce5  1  0.81615888  0.56615888  0.25000000  1
  Ce  Ce6  1  0.56615888  0.43384112  0.75000000  1
  Ce  Ce7  1  0.56615888  0.81615888  0.75000000  1
  Ce  Ce8  1  0.98646452  0.94338508  0.38677015  1
  Ce  Ce9  1  0.94338508  0.98646452  0.88677015  1
  Ce  Ce10  1  0.94338508  0.40030563  0.88677015  1
  Ce  Ce11  1  0.40030563  0.94338508  0.38677015  1
  Ce  Ce12  1  0.01353548  0.05661492  0.61322985  1
  Ce  Ce13  1  0.05661492  0.01353548  0.11322985  1
  Ce  Ce14  1  0.05661492  0.59969437  0.11322985  1
  Ce  Ce15  1  0.59969437  0.05661492  0.61322985  1
  Se  Se0  1  0.43730325  0.09561352  0.33673571  1
  Se  Se1  1  0.43730325  0.74112219  0.33673571  1
  Se  Se2  1  0.09561352  0.43730325  0.83673571  1
  Se  Se3  1  0.09561352  0.89943246  0.83673571  1
  Se  Se4  1  0.89943246  0.09561352  0.33673571  1
  Se  Se5  1  0.89943246  0.74112219  0.33673571  1
  Se  Se6  1  0.74112219  0.43730325  0.83673571  1
  Se  Se7  1  0.74112219  0.89943246  0.83673571  1
  Se  Se8  1  0.56269675  0.90438648  0.66326429  1
  Se  Se9  1  0.56269675  0.25887781  0.66326429  1
  Se  Se10  1  0.90438648  0.56269675  0.16326429  1
  Se  Se11  1  0.90438648  0.10056754  0.16326429  1
  Se  Se12  1  0.10056754  0.90438648  0.66326429  1
  Se  Se13  1  0.10056754  0.25887781  0.66326429  1
  Se  Se14  1  0.25887781  0.56269675  0.16326429  1
  Se  Se15  1  0.25887781  0.10056754  0.16326429  1
  Se  Se16  1  0.13222862  0.60438251  0.70876501  1
  Se  Se17  1  0.60438251  0.13222862  0.20876501  1
  Se  Se18  1  0.60438251  0.57653639  0.20876501  1
  Se  Se19  1  0.57653639  0.60438251  0.70876501  1
  Se  Se20  1  0.86777138  0.39561749  0.29123499  1
  Se  Se21  1  0.39561749  0.86777138  0.79123499  1
  Se  Se22  1  0.39561749  0.42346361  0.79123499  1
  Se  Se23  1  0.42346361  0.39561749  0.29123499  1
  Se  Se24  1  0.19038634  0.94038634  0.38077268  1
  Se  Se25  1  0.94038634  0.19038634  0.88077268  1
  Se  Se26  1  0.80961366  0.05961366  0.61922732  1
  Se  Se27  1  0.05961366  0.80961366  0.11922732  1
  Se  Se28  1  0.00000000  0.00000000  0.50000000  1
  Se  Se29  1  0.00000000  0.00000000  0.00000000  1
  Se  Se30  1  0.00000000  0.50000000  0.00000000  1
  Se  Se31  1  0.50000000  0.00000000  0.50000000  1
loop_
_geom_bond_atom_site_label_1
_geom_bond_atom_site_label_2
_geom_bond_distance
_geom_bond_site_symmetry_2
Ce0 Se23 2.718178 1_555
Ce0 Se17 2.718178 1_555
Ce0 Se15 2.723484 1_555
Ce0 Se0 2.723484 1_555
Ce1 Se18 2.718178 1_555
Ce1 Se23 2.718178 1_555
Ce1 Se14 2.723484 1_555
Ce1 Se1 2.723484 1_555
Ce2 Se22 2.718178 1_555
Ce2 Se16 2.718178 1_555
Ce2 Se13 2.723484 1_555
Ce2 Se2 2.723484 1_555
Ce3 Se21 2.718178 1_555
Ce3 Se16 2.718178 1_555
Ce3 Se12 2.723484 1_555
Ce3 Se3 2.723484 1_555
Ce4 Se20 2.718178 1_555
Ce4 Se17 2.718178 1_555
Ce4 Se11 2.723484 1_555
Ce4 Se4 2.723484 1_555
Ce5 Se18 2.718178 1_555
Ce5 Se20 2.718178 1_555
Ce5 Se10 2.723484 1_555
Ce5 Se5 2.723484 1_555
Ce6 Se19 2.718178 1_555
Ce6 Se22 2.718178 1_555
Ce6 Se9 2.723484 1_555
Ce6 Se6 2.723484 1_555
Ce7 Se19 2.718178 1_555
Ce7 Se21 2.718178 1_555
Ce7 Se8 2.723484 1_555
Ce7 Se7 2.723484 1_555
Ce8 Se24 2.716637 1_655
Ce8 Se28 2.723975 1_665
Ce8 Se4 2.729130 1_565
Ce8 Se5 2.729130 1_555
Ce9 Se25 2.716637 1_565
Ce9 Se29 2.723975 1_666
Ce9 Se3 2.729130 1_655
Ce9 Se7 2.729130 1_555
Ce10 Se25 2.716637 1_555
Ce10 Se30 2.723975 1_656
Ce10 Se2 2.729130 1_655
Ce10 Se6 2.729130 1_555
Ce11 Se24 2.716637 1_555
Ce11 Se31 2.723975 1_565
Ce11 Se0 2.729130 1_565
Ce11 Se1 2.729130 1_555
Ce12 Se26 2.716637 1_455
Ce12 Se28 2.723975 1_555
Ce12 Se12 2.729130 1_545
Ce12 Se13 2.729130 1_555
Ce13 Se27 2.716637 1_545
Ce13 Se29 2.723975 1_555
Ce13 Se11 2.729130 1_455
Ce13 Se15 2.729130 1_555
Ce14 Se27 2.716637 1_555
Ce14 Se30 2.723975 1_555
Ce14 Se10 2.729130 1_455
Ce14 Se14 2.729130 1_555
Ce15 Se26 2.716637 1_555
Ce15 Se31 2.723975 1_555
Ce15 Se8 2.729130 1_545
Ce15 Se9 2.729130 1_555
