# generated using pymatgen
data_Ca3Fe4(MoO4)6
_symmetry_space_group_name_H-M   'P 1'
_cell_length_a   7.24934600
_cell_length_b   8.73702909
_cell_length_c   10.60895104
_cell_angle_alpha   105.34826635
_cell_angle_beta   106.34195073
_cell_angle_gamma   104.24045012
_symmetry_Int_Tables_number   1
_chemical_formula_structural   Ca3Fe4(MoO4)6
_chemical_formula_sum   'Ca3 Fe4 Mo6 O24'
_cell_volume   583.32619222
_cell_formula_units_Z   1
loop_
 _symmetry_equiv_pos_site_id
 _symmetry_equiv_pos_as_xyz
  1  'x, y, z'
loop_
 _atom_site_type_symbol
 _atom_site_label
 _atom_site_symmetry_multiplicity
 _atom_site_fract_x
 _atom_site_fract_y
 _atom_site_fract_z
 _atom_site_occupancy
  Ca  Ca0  1  0.00000000  0.50000000  0.50000000  1
  Ca  Ca1  1  0.29283400  0.30114600  0.79590800  1
  Ca  Ca2  1  0.70716600  0.69885400  0.20409200  1
  Fe  Fe0  1  0.37284100  0.96059500  0.59967400  1
  Fe  Fe1  1  0.62715900  0.03940500  0.40032600  1
  Fe  Fe2  1  0.04325800  0.20653600  0.01332800  1
  Fe  Fe3  1  0.95674200  0.79346400  0.98667200  1
  Mo  Mo0  1  0.78795900  0.33962200  0.73280800  1
  Mo  Mo1  1  0.21204100  0.66037800  0.26719200  1
  Mo  Mo2  1  0.88493000  0.90372400  0.67003000  1
  Mo  Mo3  1  0.39211200  0.74630500  0.86764700  1
  Mo  Mo4  1  0.11507000  0.09627600  0.32997000  1
  Mo  Mo5  1  0.60788800  0.25369500  0.13235300  1
  O  O0  1  0.84178800  0.68849900  0.58186200  1
  O  O1  1  0.15821200  0.31150100  0.41813800  1
  O  O2  1  0.24085600  0.53303200  0.73938700  1
  O  O3  1  0.75914400  0.46696800  0.26061300  1
  O  O4  1  0.79394500  0.28324700  0.54921800  1
  O  O5  1  0.20605500  0.71675300  0.45078200  1
  O  O6  1  0.67001100  0.95841100  0.58358000  1
  O  O7  1  0.32998900  0.04158900  0.41642000  1
  O  O8  1  0.62648500  0.74371600  0.98890100  1
  O  O9  1  0.37351500  0.25628400  0.01109900  1
  O  O10  1  0.47830400  0.78133300  0.28370900  1
  O  O11  1  0.52169600  0.21866700  0.71629100  1
  O  O12  1  0.11521400  0.01982200  0.65300400  1
  O  O13  1  0.07970300  0.05968900  0.14696800  1
  O  O14  1  0.92029700  0.94031100  0.85303200  1
  O  O15  1  0.56466400  0.12545000  0.23253900  1
  O  O16  1  0.43533600  0.87455000  0.76746100  1
  O  O17  1  0.17368600  0.44562400  0.16473700  1
  O  O18  1  0.82631400  0.55437600  0.83526300  1
  O  O19  1  0.99399300  0.27347400  0.83650500  1
  O  O20  1  0.00600700  0.72652600  0.16349500  1
  O  O21  1  0.24492900  0.81292400  0.96383200  1
  O  O22  1  0.75507100  0.18707600  0.03616800  1
  O  O23  1  0.88478600  0.98017800  0.34699600  1
loop_
_geom_bond_atom_site_label_1
_geom_bond_atom_site_label_2
_geom_bond_distance
_geom_bond_site_symmetry_2
Ca0 O1 2.348346 1_555
Ca0 O0 2.348346 1_455
Ca0 O4 2.379285 1_455
Ca0 O5 2.379285 1_555
Ca0 O2 2.539779 1_555
Ca0 O3 2.539779 1_455
Ca1 O11 2.244981 1_555
Ca1 O19 2.293413 1_455
Ca1 O12 2.317244 1_555
Ca1 O2 2.344724 1_555
Ca1 O9 2.354287 1_556
Ca2 O10 2.244981 1_555
Ca2 O20 2.293413 1_655
Ca2 O23 2.317244 1_555
Ca2 O3 2.344724 1_555
Ca2 O8 2.354287 1_554
Fe0 O11 2.086638 1_565
Fe0 O16 2.088332 1_555
Fe0 O5 2.091007 1_555
Fe0 O7 2.207600 1_565
Fe0 O6 2.212682 1_555
Fe0 O12 2.234058 1_565
Fe1 O10 2.086638 1_545
Fe1 O15 2.088332 1_555
Fe1 O4 2.091007 1_555
Fe1 O6 2.207600 1_545
Fe1 O7 2.212682 1_555
Fe1 O23 2.234058 1_545
Fe2 O17 2.057936 1_555
Fe2 O19 2.072470 1_454
Fe2 O22 2.141067 1_455
Fe2 O13 2.155209 1_555
Fe2 O14 2.264907 1_444
Fe2 O9 2.333829 1_555
Fe3 O18 2.057936 1_555
Fe3 O20 2.072470 1_656
Fe3 O21 2.141067 1_655
Fe3 O14 2.155209 1_555
Fe3 O13 2.264907 1_666
Fe3 O8 2.333829 1_555
Mo0 O18 1.809125 1_555
Mo0 O11 1.892450 1_555
Mo0 O4 1.894267 1_555
Mo0 O19 1.900458 1_555
Mo1 O17 1.809125 1_555
Mo1 O10 1.892450 1_555
Mo1 O5 1.894267 1_555
Mo1 O20 1.900458 1_555
Mo2 O0 1.767390 1_555
Mo2 O12 1.811638 1_665
Mo2 O14 1.813344 1_555
Mo2 O6 1.814108 1_555
Mo3 O21 1.767007 1_555
Mo3 O16 1.768749 1_555
Mo3 O2 1.827277 1_555
Mo3 O8 1.829325 1_555
Mo4 O1 1.767390 1_555
Mo4 O23 1.811638 1_445
Mo4 O13 1.813344 1_555
Mo4 O7 1.814108 1_555
Mo5 O22 1.767007 1_555
Mo5 O15 1.768749 1_555
Mo5 O3 1.827277 1_555
Mo5 O9 1.829325 1_555
