# generated using pymatgen
data_Li7Mn4CoO12
_symmetry_space_group_name_H-M   'P 1'
_cell_length_a   2.86907700
_cell_length_b   11.07090024
_cell_length_c   14.70985753
_cell_angle_alpha   72.69774359
_cell_angle_beta   95.59650479
_cell_angle_gamma   82.55458946
_symmetry_Int_Tables_number   1
_chemical_formula_structural   Li7Mn4CoO12
_chemical_formula_sum   'Li14 Mn8 Co2 O24'
_cell_volume   437.73708699
_cell_formula_units_Z   2
loop_
 _symmetry_equiv_pos_site_id
 _symmetry_equiv_pos_as_xyz
  1  'x, y, z'
loop_
 _atom_site_type_symbol
 _atom_site_label
 _atom_site_symmetry_multiplicity
 _atom_site_fract_x
 _atom_site_fract_y
 _atom_site_fract_z
 _atom_site_occupancy
  Li  Li0  1  0.66650700  0.75024500  0.08326200  1
  Li  Li1  1  0.66678200  0.24978200  0.58336700  1
  Li  Li2  1  0.50781700  0.61022400  0.62571100  1
  Li  Li3  1  0.50835900  0.10976700  0.12621700  1
  Li  Li4  1  0.82563100  0.38975700  0.04096500  1
  Li  Li5  1  0.82505300  0.89023900  0.54048100  1
  Li  Li6  1  0.50305200  0.87551100  0.88172700  1
  Li  Li7  1  0.50328200  0.37531900  0.38202500  1
  Li  Li8  1  0.82996800  0.62465400  0.28462400  1
  Li  Li9  1  0.83018500  0.12450200  0.78493500  1
  Li  Li10  1  0.17472800  0.35749100  0.70698400  1
  Li  Li11  1  0.17409600  0.85860300  0.20682600  1
  Li  Li12  1  0.15844800  0.64251200  0.95968700  1
  Li  Li13  1  0.15908000  0.14138300  0.45985900  1
  Mn  Mn0  1  0.00920100  0.98317600  0.00154800  1
  Mn  Mn1  1  0.00939400  0.48283000  0.50160700  1
  Mn  Mn2  1  0.32396800  0.51714500  0.16504700  1
  Mn  Mn3  1  0.32413200  0.01684800  0.66514700  1
  Mn  Mn4  1  0.99684300  0.25575600  0.24938100  1
  Mn  Mn5  1  0.99694400  0.75530800  0.74906800  1
  Mn  Mn6  1  0.33643300  0.24471700  0.91759200  1
  Mn  Mn7  1  0.33648600  0.74428300  0.41725900  1
  Co  Co0  1  0.66666400  0.99998900  0.33333900  1
  Co  Co1  1  0.66667800  0.50000200  0.83333100  1
  O  O0  1  0.57787100  0.43999100  0.59574900  1
  O  O1  1  0.57779500  0.94003500  0.09566400  1
  O  O2  1  0.75547800  0.55997600  0.07092400  1
  O  O3  1  0.75553200  0.05996700  0.57103400  1
  O  O4  1  0.57318100  0.69784500  0.84419500  1
  O  O5  1  0.57315500  0.19772600  0.34407400  1
  O  O6  1  0.76016900  0.30219100  0.82246600  1
  O  O7  1  0.76019700  0.80228100  0.32258300  1
  O  O8  1  0.91821400  0.17667600  0.01311000  1
  O  O9  1  0.91807900  0.67666500  0.51287100  1
  O  O10  1  0.41530900  0.32332300  0.15377600  1
  O  O11  1  0.41517900  0.82334100  0.65354800  1
  O  O12  1  0.90231900  0.45270700  0.25732500  1
  O  O13  1  0.90261000  0.95222000  0.75739800  1
  O  O14  1  0.43107100  0.54726400  0.40933200  1
  O  O15  1  0.43078100  0.04779000  0.90929300  1
  O  O16  1  0.25697700  0.67216600  0.18610000  1
  O  O17  1  0.25716500  0.17196100  0.68627000  1
  O  O18  1  0.07613900  0.82805700  0.98039500  1
  O  O19  1  0.07634900  0.32779600  0.48054000  1
  O  O20  1  0.24089000  0.44463600  0.92635800  1
  O  O21  1  0.24024300  0.94593900  0.42634100  1
  O  O22  1  0.09247200  0.55537400  0.74031600  1
  O  O23  1  0.09309400  0.05403300  0.24034700  1
loop_
_geom_bond_atom_site_label_1
_geom_bond_atom_site_label_2
_geom_bond_distance
_geom_bond_site_symmetry_2
Li0 O18 2.060796 1_654
Li0 O18 2.060905 1_554
Li0 O16 2.061119 1_555
Li0 O16 2.061160 1_655
Li0 O1 2.147404 1_555
Li0 O2 2.152281 1_555
Li1 O19 2.060887 1_655
Li1 O19 2.060933 1_555
Li1 O17 2.061145 1_555
Li1 O17 2.061224 1_655
Li1 O3 2.147284 1_555
Li1 O0 2.151875 1_555
Li2 O0 2.049310 1_555
Li2 O9 2.135628 1_555
Li2 O9 2.136000 1_455
Li2 O22 2.144766 1_655
Li2 O22 2.145048 1_555
Li2 O11 2.497689 1_555
Li3 O1 2.048274 1_545
Li3 O8 2.138667 1_555
Li3 O8 2.139190 1_455
Li3 O23 2.140078 1_655
Li3 O23 2.140839 1_555
Li3 O10 2.500592 1_555
Li4 O2 2.049138 1_555
Li4 O10 2.135419 1_555
Li4 O10 2.135629 1_655
Li4 O20 2.144933 1_554
Li4 O20 2.144944 1_654
Li4 O8 2.497419 1_555
Li5 O3 2.048231 1_565
Li5 O11 2.138252 1_555
Li5 O11 2.138801 1_655
Li5 O21 2.140331 1_555
Li5 O21 2.140758 1_655
Li5 O9 2.501128 1_555
Li6 O18 1.985633 1_555
Li6 O18 1.985738 1_655
Li6 O15 2.054041 1_565
Li6 O4 2.186116 1_555
Li6 O13 2.261897 1_455
Li6 O13 2.262181 1_555
Li7 O19 1.984169 1_555
Li7 O19 1.984365 1_655
Li7 O14 2.048599 1_555
Li7 O5 2.188606 1_555
Li7 O12 2.266524 1_455
Li7 O12 2.266822 1_555
Li8 O16 1.984291 1_555
Li8 O16 1.984406 1_655
Li8 O12 2.048564 1_555
Li8 O7 2.189031 1_555
Li8 O14 2.266660 1_555
Li8 O14 2.266852 1_655
Li9 O17 1.985570 1_555
Li9 O17 1.985747 1_655
Li9 O13 2.053867 1_545
Li9 O6 2.186354 1_555
Li9 O15 2.262226 1_555
Li9 O15 2.262444 1_655
Li10 O0 2.145493 1_455
Li10 O0 2.145538 1_555
Li10 O17 2.151292 1_555
Li10 O6 2.153912 1_455
Li10 O6 2.154100 1_555
Li10 O22 2.371278 1_555
Li11 O1 2.142716 1_555
Li11 O1 2.142727 1_455
Li11 O7 2.157113 1_455
Li11 O7 2.157344 1_555
Li11 O16 2.161237 1_555
Li11 O23 2.346247 1_565
Li12 O2 2.145333 1_456
Li12 O2 2.145879 1_556
Li12 O18 2.151417 1_555
Li12 O4 2.153841 1_455
Li12 O4 2.154400 1_555
Li12 O20 2.371181 1_555
Li13 O3 2.142512 1_455
Li13 O3 2.143108 1_555
Li13 O5 2.157256 1_455
Li13 O5 2.157789 1_555
Li13 O19 2.160687 1_555
Li13 O21 2.346376 1_545
Mn0 O18 1.823972 1_554
Mn0 O1 1.941725 1_555
Mn0 O1 1.941874 1_455
Mn0 O15 1.944997 1_464
Mn0 O15 1.945063 1_564
Mn0 O8 2.183260 1_465
Mn1 O19 1.822468 1_555
Mn1 O0 1.941944 1_555
Mn1 O0 1.942004 1_455
Mn1 O14 1.944843 1_455
Mn1 O14 1.944980 1_555
Mn1 O9 2.185260 1_455
Mn2 O16 1.822232 1_555
Mn2 O2 1.941770 1_555
Mn2 O2 1.941823 1_455
Mn2 O12 1.944927 1_555
Mn2 O12 1.944960 1_455
Mn2 O10 2.185156 1_555
Mn3 O17 1.823703 1_555
Mn3 O3 1.941732 1_455
Mn3 O3 1.941802 1_555
Mn3 O13 1.944939 1_445
Mn3 O13 1.945098 1_545
Mn3 O11 2.183544 1_545
Mn4 O5 1.957078 1_655
Mn4 O5 1.957290 1_555
Mn4 O10 1.978447 1_555
Mn4 O10 1.978668 1_655
Mn4 O12 2.201351 1_555
Mn4 O23 2.259470 1_655
Mn5 O4 1.960294 1_655
Mn5 O4 1.960541 1_555
Mn5 O11 1.978587 1_555
Mn5 O11 1.978639 1_655
Mn5 O13 2.202972 1_555
Mn5 O22 2.238350 1_655
Mn6 O6 1.960343 1_455
Mn6 O6 1.960498 1_555
Mn6 O8 1.978608 1_456
Mn6 O8 1.978610 1_556
Mn6 O15 2.202971 1_555
Mn6 O20 2.238261 1_555
Mn7 O7 1.956894 1_455
Mn7 O7 1.957100 1_555
Mn7 O9 1.978656 1_555
Mn7 O9 1.978752 1_455
Mn7 O14 2.202006 1_555
Mn7 O21 2.258993 1_555
Co0 O23 1.937857 1_665
Co0 O21 1.937950 1_555
Co0 O23 1.938075 1_565
Co0 O21 1.938171 1_655
Co0 O7 2.224852 1_555
Co0 O5 2.225054 1_565
Co1 O22 1.939444 1_655
Co1 O22 1.939494 1_555
Co1 O20 1.939538 1_555
Co1 O20 1.939600 1_655
Co1 O6 2.226583 1_555
Co1 O4 2.226928 1_555
