# generated using pymatgen
data_SrMg6Cu
_symmetry_space_group_name_H-M   'P 1'
_cell_length_a   4.98560900
_cell_length_b   6.10642200
_cell_length_c   13.20072900
_cell_angle_alpha   90.00000000
_cell_angle_beta   90.00000000
_cell_angle_gamma   90.00000000
_symmetry_Int_Tables_number   1
_chemical_formula_structural   SrMg6Cu
_chemical_formula_sum   'Sr2 Mg12 Cu2'
_cell_volume   401.88606259
_cell_formula_units_Z   2
loop_
 _symmetry_equiv_pos_site_id
 _symmetry_equiv_pos_as_xyz
  1  'x, y, z'
loop_
 _atom_site_type_symbol
 _atom_site_label
 _atom_site_symmetry_multiplicity
 _atom_site_fract_x
 _atom_site_fract_y
 _atom_site_fract_z
 _atom_site_occupancy
  Sr  Sr0  1  0.50000000  0.00000000  0.69965400  1
  Sr  Sr1  1  0.50000000  0.50000000  0.19965400  1
  Mg  Mg0  1  0.50000000  0.74263800  0.93903100  1
  Mg  Mg1  1  0.50000000  0.25736200  0.93903100  1
  Mg  Mg2  1  0.00000000  0.25754200  0.57580000  1
  Mg  Mg3  1  0.00000000  0.74245800  0.57580000  1
  Mg  Mg4  1  0.00000000  0.50000000  0.79915300  1
  Mg  Mg5  1  0.00000000  0.00000000  0.86681500  1
  Mg  Mg6  1  0.50000000  0.24263800  0.43903100  1
  Mg  Mg7  1  0.50000000  0.75736200  0.43903100  1
  Mg  Mg8  1  0.00000000  0.75754200  0.07580000  1
  Mg  Mg9  1  0.00000000  0.24245800  0.07580000  1
  Mg  Mg10  1  0.00000000  0.00000000  0.29915300  1
  Mg  Mg11  1  0.00000000  0.50000000  0.36681500  1
  Cu  Cu0  1  0.50000000  0.50000000  0.60471200  1
  Cu  Cu1  1  0.50000000  0.00000000  0.10471200  1
loop_
_geom_bond_atom_site_label_1
_geom_bond_atom_site_label_2
_geom_bond_distance
_geom_bond_site_symmetry_2
Mg0 Mg1 2.963300 1_555
Mg0 Mg8 3.079287 1_656
Mg0 Mg8 3.079287 1_556
Mg0 Mg5 3.097203 1_665
Mg0 Mg5 3.097203 1_565
Mg0 Mg1 3.143122 1_565
Mg0 Mg4 3.437862 1_555
Mg0 Mg4 3.437862 1_655
Mg0 Sr0 3.529177 1_565
Mg0 Sr1 3.745895 1_556
Mg1 Mg9 3.079287 1_556
Mg1 Mg9 3.079287 1_656
Mg1 Mg5 3.097203 1_655
Mg1 Mg5 3.097203 1_555
Mg1 Mg4 3.437862 1_555
Mg1 Mg4 3.437862 1_655
Mg1 Sr0 3.529177 1_555
Mg1 Sr1 3.745895 1_556
Mg2 Mg3 2.961102 1_555
Mg2 Mg6 3.079287 1_455
Mg2 Mg6 3.079287 1_555
Mg2 Mg3 3.145320 1_545
Mg2 Mg4 3.299277 1_555
Mg2 Sr0 3.370525 1_555
Mg2 Sr0 3.370525 1_455
Mg3 Mg7 3.079287 1_555
Mg3 Mg7 3.079287 1_455
Mg3 Mg4 3.299277 1_555
Mg3 Sr0 3.370525 1_465
Mg3 Sr0 3.370525 1_565
Mg4 Mg5 3.181176 1_565
Mg4 Mg5 3.181176 1_555
Mg5 Mg9 3.130935 1_556
Mg5 Mg8 3.130935 1_546
Mg5 Sr0 3.329169 1_555
Mg5 Sr0 3.329169 1_455
Mg6 Mg7 2.963300 1_545
Mg6 Mg7 3.143122 1_555
Mg6 Sr1 3.529177 1_555
Mg6 Sr0 3.745895 1_555
Mg7 Sr1 3.529177 1_555
Mg7 Sr0 3.745895 1_565
Mg8 Mg9 2.961102 1_565
Mg8 Mg9 3.145320 1_555
Mg8 Sr1 3.370525 1_455
Mg8 Sr1 3.370525 1_555
Mg9 Sr1 3.370525 1_455
Mg9 Sr1 3.370525 1_555
Mg10 Mg11 3.181176 1_555
Mg10 Mg11 3.181176 1_545
Mg10 Mg9 3.299277 1_555
Mg10 Mg8 3.299277 1_545
Mg10 Mg7 3.437862 1_545
Mg10 Mg7 3.437862 1_445
Mg10 Mg6 3.437862 1_555
Mg10 Mg6 3.437862 1_455
Mg11 Mg6 3.097203 1_555
Mg11 Mg7 3.097203 1_455
Mg11 Mg7 3.097203 1_555
Mg11 Mg6 3.097203 1_455
Mg11 Mg3 3.130935 1_555
Mg11 Mg2 3.130935 1_555
Mg11 Sr1 3.329169 1_455
Mg11 Sr1 3.329169 1_555
Cu0 Mg6 2.693187 1_555
Cu0 Mg7 2.693187 1_555
Cu0 Mg3 2.924341 1_655
Cu0 Mg2 2.924341 1_655
Cu0 Mg3 2.924341 1_555
Cu0 Mg2 2.924341 1_555
Cu0 Sr0 3.300434 1_555
Cu0 Sr0 3.300434 1_565
Cu1 Mg1 2.693187 1_554
Cu1 Mg0 2.693187 1_544
Cu1 Mg9 2.924341 1_555
Cu1 Mg9 2.924341 1_655
Cu1 Mg8 2.924341 1_645
Cu1 Mg8 2.924341 1_545
Cu1 Sr1 3.300434 1_555
Cu1 Sr1 3.300434 1_545
