# generated using pymatgen
data_MgCd4(TcO3)4
_symmetry_space_group_name_H-M   'P 1'
_cell_length_a   5.70541713
_cell_length_b   5.53399620
_cell_length_c   7.99099100
_cell_angle_alpha   89.99954414
_cell_angle_beta   90.00191038
_cell_angle_gamma   86.82918964
_symmetry_Int_Tables_number   1
_chemical_formula_structural   MgCd4(TcO3)4
_chemical_formula_sum   'Mg1 Cd4 Tc4 O12'
_cell_volume   251.91934399
_cell_formula_units_Z   1
loop_
 _symmetry_equiv_pos_site_id
 _symmetry_equiv_pos_as_xyz
  1  'x, y, z'
loop_
 _atom_site_type_symbol
 _atom_site_label
 _atom_site_symmetry_multiplicity
 _atom_site_fract_x
 _atom_site_fract_y
 _atom_site_fract_z
 _atom_site_occupancy
  Mg  Mg0  1  0.72113100  0.63952800  0.25001900  1
  Cd  Cd0  1  0.41957300  0.31721500  0.24998300  1
  Cd  Cd1  1  0.97530700  0.07544000  0.25000600  1
  Cd  Cd2  1  0.52718000  0.47321000  0.74993300  1
  Cd  Cd3  1  0.00766500  0.98553700  0.74998300  1
  Tc  Tc0  1  0.02595900  0.51708500  0.98536300  1
  Tc  Tc1  1  0.50257900  0.99113200  0.50865100  1
  Tc  Tc2  1  0.02594400  0.51720000  0.51462600  1
  Tc  Tc3  1  0.50259200  0.99108400  0.99134300  1
  O  O0  1  0.82453800  0.82595000  0.04692900  1
  O  O1  1  0.71965100  0.33898200  0.44533200  1
  O  O2  1  0.20571700  0.20305100  0.55191800  1
  O  O3  1  0.31206900  0.70751600  0.93557100  1
  O  O4  1  0.20574300  0.20293500  0.94813400  1
  O  O5  1  0.31208500  0.70757000  0.56437100  1
  O  O6  1  0.82461300  0.82606000  0.45312900  1
  O  O7  1  0.71967900  0.33887600  0.05472500  1
  O  O8  1  0.42994300  0.88004600  0.24997800  1
  O  O9  1  0.07190300  0.48748200  0.25001600  1
  O  O10  1  0.61044100  0.06535400  0.75001200  1
  O  O11  1  0.91283200  0.56351300  0.74997900  1
loop_
_geom_bond_atom_site_label_1
_geom_bond_atom_site_label_2
_geom_bond_distance
_geom_bond_site_symmetry_2
Mg0 O0 2.028186 1_555
Mg0 O6 2.028752 1_555
Mg0 O8 2.070527 1_555
Mg0 O9 2.127653 1_655
Mg0 O1 2.281186 1_555
Mg0 O7 2.281521 1_555
Cd0 O9 2.148432 1_555
Cd0 O7 2.324550 1_555
Cd0 O1 2.324899 1_555
Cd0 O8 2.416741 1_545
Cd1 O6 2.325886 1_545
Cd1 O0 2.326151 1_545
Cd1 O9 2.375341 1_655
Cd1 O7 2.540114 1_555
Cd1 O1 2.540813 1_555
Cd1 O8 2.754488 1_645
Cd2 O10 2.280665 1_555
Cd2 O5 2.282685 1_555
Cd2 O3 2.283031 1_555
Cd2 O11 2.283139 1_555
Cd2 O1 2.755412 1_555
Cd2 O7 2.756892 1_556
Cd3 O10 2.284865 1_465
Cd3 O2 2.319782 1_565
Cd3 O4 2.319938 1_565
Cd3 O11 2.426314 1_455
Cd3 O3 2.699457 1_555
Cd3 O5 2.699536 1_555
Cd3 O6 2.756555 1_455
Cd3 O0 2.757613 1_456
O0 Tc3 2.054419 1_554
O0 Tc0 2.065670 1_654
O1 Tc2 2.126920 1_655
O1 Tc1 2.399846 1_545
O2 Tc2 1.991460 1_555
O2 Tc1 2.035658 1_545
O3 Tc3 2.007859 1_555
O3 Tc0 2.030739 1_555
O4 Tc0 1.991433 1_555
O4 Tc3 2.035298 1_545
O5 Tc1 2.007654 1_555
O5 Tc2 2.030604 1_555
O6 Tc1 2.054639 1_555
O6 Tc2 2.065230 1_655
O7 Tc0 2.126999 1_654
O7 Tc3 2.399723 1_544
O8 Tc3 2.202059 1_554
O8 Tc1 2.202389 1_555
O9 Tc2 2.135924 1_555
O9 Tc0 2.136189 1_554
O10 Tc3 2.072344 1_545
O10 Tc1 2.072500 1_545
O11 Tc2 2.000251 1_655
O11 Tc0 2.000537 1_655
