# generated using pymatgen
data_CrReO4
_symmetry_space_group_name_H-M   'P 1'
_cell_length_a   5.56046252
_cell_length_b   5.56037724
_cell_length_c   5.57175648
_cell_angle_alpha   76.58370315
_cell_angle_beta   62.19120020
_cell_angle_gamma   107.46001684
_symmetry_Int_Tables_number   1
_chemical_formula_structural   CrReO4
_chemical_formula_sum   'Cr2 Re2 O8'
_cell_volume   130.46373635
_cell_formula_units_Z   2
loop_
 _symmetry_equiv_pos_site_id
 _symmetry_equiv_pos_as_xyz
  1  'x, y, z'
loop_
 _atom_site_type_symbol
 _atom_site_label
 _atom_site_symmetry_multiplicity
 _atom_site_fract_x
 _atom_site_fract_y
 _atom_site_fract_z
 _atom_site_occupancy
  Cr  Cr0  1  0.25061300  0.49994600  0.24974200  1
  Cr  Cr1  1  0.75066100  0.50038600  0.74881900  1
  Re  Re0  1  0.02182200  0.99943000  0.97870500  1
  Re  Re1  1  0.47378700  0.00005400  0.52608100  1
  O  O0  1  0.74974500  0.18503600  0.06517700  1
  O  O1  1  0.25119100  0.21818300  0.53066700  1
  O  O2  1  0.74956900  0.81452000  0.43586600  1
  O  O3  1  0.24847800  0.78138900  0.97014200  1
  O  O4  1  0.30142900  0.29373500  0.98972500  1
  O  O5  1  0.78552100  0.29168200  0.50766500  1
  O  O6  1  0.71651200  0.70883000  0.98974900  1
  O  O7  1  0.20067200  0.70680900  0.50766400  1
loop_
_geom_bond_atom_site_label_1
_geom_bond_atom_site_label_2
_geom_bond_distance
_geom_bond_site_symmetry_2
Cr0 O3 1.942462 1_554
Cr0 O1 1.942760 1_555
Cr0 O7 2.012894 1_555
Cr0 O5 2.014264 1_455
Cr0 O6 2.017642 1_554
Cr0 O4 2.019099 1_554
Cr1 O4 1.948123 1_555
Cr1 O6 1.948765 1_555
Cr1 O5 1.950697 1_555
Cr1 O7 1.951399 1_655
Cr1 O2 2.166650 1_555
Cr1 O0 2.175698 1_556
O0 Re0 2.018316 1_644
O0 Re1 2.039069 1_555
O1 Re1 1.972169 1_555
O1 Re0 2.006812 1_545
O2 Re0 2.022333 1_654
O2 Re1 2.034514 1_565
O3 Re0 1.987010 1_555
O3 Re1 1.991805 1_565
O4 Re0 1.925590 1_545
O5 Re1 1.927369 1_555
O6 Re0 1.925378 1_655
O7 Re1 1.926817 1_565
