# generated using pymatgen
data_Na(SeO3)2
_symmetry_space_group_name_H-M   'P 1'
_cell_length_a   5.52540400
_cell_length_b   5.85755700
_cell_length_c   11.63477605
_cell_angle_alpha   75.71569872
_cell_angle_beta   90.00000000
_cell_angle_gamma   90.00000000
_symmetry_Int_Tables_number   1
_chemical_formula_structural   Na(SeO3)2
_chemical_formula_sum   'Na2 Se4 O12'
_cell_volume   364.92173494
_cell_formula_units_Z   2
loop_
 _symmetry_equiv_pos_site_id
 _symmetry_equiv_pos_as_xyz
  1  'x, y, z'
loop_
 _atom_site_type_symbol
 _atom_site_label
 _atom_site_symmetry_multiplicity
 _atom_site_fract_x
 _atom_site_fract_y
 _atom_site_fract_z
 _atom_site_occupancy
  Na  Na0  1  0.01664200  0.00413000  0.50542600  1
  Na  Na1  1  0.98335800  0.00413000  0.00542600  1
  Se  Se0  1  0.31267600  0.33836600  0.71455600  1
  Se  Se1  1  0.68732400  0.33836600  0.21455600  1
  Se  Se2  1  0.86528000  0.66518300  0.77872800  1
  Se  Se3  1  0.13472000  0.66518300  0.27872800  1
  O  O0  1  0.24031200  0.24723700  0.59529900  1
  O  O1  1  0.75968800  0.24723700  0.09529900  1
  O  O2  1  0.13092100  0.62414600  0.69357700  1
  O  O3  1  0.86907900  0.62414600  0.19357700  1
  O  O4  1  0.21971300  0.16106900  0.83934400  1
  O  O5  1  0.78028700  0.16106900  0.33934400  1
  O  O6  1  0.74489900  0.89030400  0.68185600  1
  O  O7  1  0.25510100  0.89030400  0.18185600  1
  O  O8  1  0.70520300  0.41371500  0.80221700  1
  O  O9  1  0.29479700  0.41371500  0.30221700  1
  O  O10  1  0.95500400  0.70685100  0.90599600  1
  O  O11  1  0.04499600  0.70685100  0.40599600  1
loop_
_geom_bond_atom_site_label_1
_geom_bond_atom_site_label_2
_geom_bond_distance
_geom_bond_site_symmetry_2
Na0 O0 2.320205 1_555
Na0 O11 2.321449 1_545
Na0 O5 2.325493 1_455
Na0 O6 2.497461 1_445
Na0 O2 2.782184 1_545
Na1 O1 2.320205 1_555
Na1 O10 2.321449 1_544
Na1 O4 2.325493 1_654
Na1 O7 2.497461 1_645
Na1 O3 2.782184 1_545
O0 Se0 1.653944 1_555
O1 Se1 1.653944 1_555
O2 Se2 1.819662 1_455
O2 Se0 1.915383 1_555
O3 Se3 1.819662 1_655
O3 Se1 1.915383 1_555
O4 Se0 1.645078 1_555
O5 Se1 1.645078 1_555
O6 Se2 1.648696 1_555
O7 Se3 1.648696 1_555
O8 Se2 1.681683 1_555
O8 Se0 2.482169 1_555
O9 Se3 1.681683 1_555
O9 Se1 2.482169 1_555
O10 Se2 1.635930 1_555
O11 Se3 1.635930 1_555
