# generated using pymatgen
data_MgAg5
_symmetry_space_group_name_H-M   'P 1'
_cell_length_a   4.77181935
_cell_length_b   5.03106053
_cell_length_c   5.03106162
_cell_angle_alpha   60.00002016
_cell_angle_beta   90.00000000
_cell_angle_gamma   90.00000000
_symmetry_Int_Tables_number   1
_chemical_formula_structural   MgAg5
_chemical_formula_sum   'Mg1 Ag5'
_cell_volume   104.60053195
_cell_formula_units_Z   1
loop_
 _symmetry_equiv_pos_site_id
 _symmetry_equiv_pos_as_xyz
  1  'x, y, z'
loop_
 _atom_site_type_symbol
 _atom_site_label
 _atom_site_symmetry_multiplicity
 _atom_site_fract_x
 _atom_site_fract_y
 _atom_site_fract_z
 _atom_site_occupancy
  Mg  Mg0  1  0.50000100  0.66666600  0.33333300  1
  Ag  Ag0  1  0.50000100  0.33333300  0.00000000  1
  Ag  Ag1  1  -0.00000000  0.00002884  0.99997116  1
  Ag  Ag2  1  0.00000000  0.33330416  0.33333400  1
  Ag  Ag3  1  -0.00000000  0.66666600  0.66669584  1
  Ag  Ag4  1  0.50000100  0.99999900  0.66666600  1
loop_
_geom_bond_atom_site_label_1
_geom_bond_atom_site_label_2
_geom_bond_distance
_geom_bond_site_symmetry_2
Ag0 Mg0 2.904681 1_555
Ag0 Ag4 2.904682 1_554
Ag0 Ag4 2.904682 1_545
Ag0 Mg0 2.904686 1_545
Ag0 Mg0 2.904687 1_554
Ag0 Ag4 2.904690 1_544
Ag0 Ag1 2.916280 1_654
Ag0 Ag3 2.916281 1_654
Ag0 Ag2 2.916283 1_655
Ag0 Ag1 2.916288 1_554
Ag0 Ag3 2.916288 1_554
Ag0 Ag2 2.916291 1_555
Ag1 Ag3 2.904556 1_555
Ag1 Ag2 2.904557 1_555
Ag1 Ag3 2.904560 1_545
Ag1 Ag2 2.904560 1_556
Ag1 Ag2 2.904938 1_546
Ag1 Ag3 2.904938 1_546
Ag1 Ag4 2.916285 1_445
Ag1 Ag4 2.916293 1_545
Ag1 Mg0 2.916407 1_446
Ag1 Mg0 2.916415 1_546
Ag2 Ag3 2.904561 1_545
Ag2 Ag3 2.904561 1_554
Ag2 Ag3 2.904933 1_555
Ag2 Ag4 2.916281 1_445
Ag2 Ag4 2.916288 1_545
Ag2 Mg0 2.916404 1_455
Ag2 Mg0 2.916412 1_555
Ag3 Ag4 2.916279 1_455
Ag3 Ag4 2.916287 1_555
Ag3 Mg0 2.916408 1_455
Ag3 Mg0 2.916416 1_555
Ag4 Mg0 2.904681 1_555
Ag4 Mg0 2.904686 1_565
Ag4 Mg0 2.904687 1_556
