# generated using pymatgen
data_RbP(HO2)2
_symmetry_space_group_name_H-M   'P 1'
_cell_length_a   15.31113193
_cell_length_b   6.17920452
_cell_length_c   9.41792361
_cell_angle_alpha   90.00000000
_cell_angle_beta   108.95057163
_cell_angle_gamma   90.00000000
_symmetry_Int_Tables_number   1
_chemical_formula_structural   RbP(HO2)2
_chemical_formula_sum   'Rb8 P8 H16 O32'
_cell_volume   842.74061121
_cell_formula_units_Z   8
loop_
 _symmetry_equiv_pos_site_id
 _symmetry_equiv_pos_as_xyz
  1  'x, y, z'
loop_
 _atom_site_type_symbol
 _atom_site_label
 _atom_site_symmetry_multiplicity
 _atom_site_fract_x
 _atom_site_fract_y
 _atom_site_fract_z
 _atom_site_occupancy
  Rb  Rb0  1  0.86651369  0.75498969  0.96273889  1
  Rb  Rb1  1  0.13348631  0.25498969  0.03726111  1
  Rb  Rb2  1  0.63347725  0.23156310  0.53697966  1
  Rb  Rb3  1  0.36652275  0.73156310  0.46302034  1
  Rb  Rb4  1  0.36402043  0.76276566  0.95227343  1
  Rb  Rb5  1  0.63597957  0.26276566  0.04772657  1
  Rb  Rb6  1  0.13597796  0.22401215  0.54795846  1
  Rb  Rb7  1  0.86402204  0.72401215  0.45204154  1
  P  P0  1  0.87990858  0.22515650  0.73400935  1
  P  P1  1  0.12009142  0.72515650  0.26599065  1
  P  P2  1  0.62016466  0.76165326  0.76579546  1
  P  P3  1  0.37983534  0.26165326  0.23420454  1
  P  P4  1  0.37945106  0.24959126  0.73058544  1
  P  P5  1  0.62054894  0.74959126  0.26941456  1
  P  P6  1  0.12060428  0.73705184  0.76957984  1
  P  P7  1  0.87939572  0.23705184  0.23042016  1
  H  H0  1  0.81853833  0.26727559  0.91786402  1
  H  H1  1  0.18146167  0.76727559  0.08213598  1
  H  H2  1  0.68148443  0.71967019  0.58188196  1
  H  H3  1  0.31851557  0.21967019  0.41811804  1
  H  H4  1  0.32219222  0.27442281  0.92298626  1
  H  H5  1  0.67780778  0.77442281  0.07701374  1
  H  H6  1  0.17785450  0.71241778  0.57722431  1
  H  H7  1  0.82214550  0.21241778  0.42277569  1
  H  H8  1  0.98518541  0.47980419  0.74639324  1
  H  H9  1  0.01481459  0.97980419  0.25360676  1
  H  H10  1  0.51498476  0.50680492  0.75351605  1
  H  H11  1  0.48501524  0.00680492  0.24648395  1
  H  H12  1  0.49338578  0.01487326  0.75740265  1
  H  H13  1  0.50661422  0.51487326  0.24259735  1
  H  H14  1  0.00661474  0.97163432  0.74267871  1
  H  H15  1  0.99338526  0.47163432  0.25732129  1
  O  O0  1  0.80070869  0.24028480  0.80445451  1
  O  O1  1  0.19929131  0.74028480  0.19554549  1
  O  O2  1  0.83572663  0.14588848  0.57590201  1
  O  O3  1  0.16427337  0.64588848  0.42409799  1
  O  O4  1  0.95756044  0.08367690  0.82907817  1
  O  O5  1  0.04243956  0.58367690  0.17092183  1
  O  O6  1  0.91605872  0.46475260  0.73606733  1
  O  O7  1  0.08394128  0.96475260  0.26393267  1
  O  O8  1  0.69934083  0.74680303  0.69529917  1
  O  O9  1  0.30065917  0.24680303  0.30470083  1
  O  O10  1  0.66438478  0.84075261  0.92396350  1
  O  O11  1  0.33561522  0.34075261  0.07603650  1
  O  O12  1  0.54246821  0.90313831  0.67091773  1
  O  O13  1  0.45753179  0.40313831  0.32908227  1
  O  O14  1  0.58407883  0.52198376  0.76367233  1
  O  O15  1  0.41592117  0.02198376  0.23632767  1
  O  O16  1  0.30513008  0.23325207  0.81153740  1
  O  O17  1  0.69486992  0.73325207  0.18846260  1
  O  O18  1  0.33416801  0.16348896  0.57464872  1
  O  O19  1  0.66583199  0.66348896  0.42535128  1
  O  O20  1  0.45868330  0.09170195  0.82165571  1
  O  O21  1  0.54131670  0.59170195  0.17834429  1
  O  O22  1  0.41714905  0.47743994  0.74104833  1
  O  O23  1  0.58285095  0.97743994  0.25895167  1
  O  O24  1  0.19493959  0.75366977  0.68866569  1
  O  O25  1  0.80506041  0.25366977  0.31133431  1
  O  O26  1  0.16581477  0.82328401  0.92552068  1
  O  O27  1  0.83418523  0.32328401  0.07447932  1
  O  O28  1  0.04126699  0.89462779  0.67842076  1
  O  O29  1  0.95873301  0.39462779  0.32157924  1
  O  O30  1  0.08307497  0.50906751  0.75919872  1
  O  O31  1  0.91692503  0.00906751  0.24080128  1
loop_
_geom_bond_atom_site_label_1
_geom_bond_atom_site_label_2
_geom_bond_distance
_geom_bond_site_symmetry_2
H0 O0 1.026528 1_555
H0 O27 1.457140 1_556
H1 O1 1.026528 1_555
H1 O26 1.457140 1_554
H2 O8 1.026710 1_555
H2 O19 1.456616 1_555
H3 O9 1.026710 1_555
H3 O18 1.456616 1_555
H4 O16 1.027894 1_555
H4 O11 1.447583 1_556
H5 O17 1.027894 1_555
H5 O10 1.447583 1_554
H6 O24 1.027926 1_555
H6 O3 1.448176 1_555
H7 O25 1.027926 1_555
H7 O2 1.448176 1_555
H8 O6 1.035124 1_555
H8 O30 1.475209 1_655
H9 O7 1.035124 1_555
H9 O31 1.475209 1_465
H10 O14 1.035081 1_555
H10 O22 1.475263 1_555
H11 O15 1.035081 1_555
H11 O23 1.475263 1_545
H12 O20 1.040534 1_555
H12 O12 1.449984 1_545
H13 O21 1.040534 1_555
H13 O13 1.449984 1_555
H14 O28 1.040532 1_555
H14 O4 1.450001 1_465
H15 O29 1.040532 1_555
H15 O5 1.450001 1_655
O0 P0 1.562670 1_555
O0 Rb2 2.952184 1_555
O1 P1 1.562670 1_555
O1 Rb3 2.952184 1_555
O2 P0 1.503509 1_555
O2 Rb7 2.944893 1_545
O2 Rb2 3.044126 1_555
O3 P1 1.503509 1_555
O3 Rb6 2.944893 1_555
O3 Rb3 3.044126 1_555
O4 P0 1.512646 1_555
O4 Rb1 2.964818 1_656
O4 Rb0 2.965254 1_545
O5 P1 1.512646 1_555
O5 Rb0 2.964818 1_454
O5 Rb1 2.965254 1_555
O6 P0 1.578509 1_555
O6 Rb7 2.995377 1_555
O6 Rb0 3.066097 1_555
O7 P1 1.578509 1_555
O7 Rb6 2.995377 1_565
O7 Rb1 3.066097 1_565
O8 P2 1.562562 1_555
O8 Rb0 2.951407 1_555
O9 P3 1.562562 1_555
O9 Rb1 2.951407 1_555
O10 P2 1.503727 1_555
O10 Rb5 2.945698 1_566
O10 Rb0 3.042708 1_555
O11 P3 1.503727 1_555
O11 Rb4 2.945698 1_554
O11 Rb1 3.042708 1_555
O12 P2 1.512467 1_555
O12 Rb3 2.964622 1_555
O12 Rb2 2.965302 1_565
O13 P3 1.512467 1_555
O13 Rb2 2.964622 1_555
O13 Rb3 2.965302 1_555
O14 P2 1.578531 1_555
O14 Rb5 2.995507 1_556
O14 Rb2 3.065853 1_555
O15 P3 1.578531 1_555
O15 Rb4 2.995507 1_544
O15 Rb3 3.065853 1_545
O16 P4 1.565195 1_555
O16 Rb6 2.949119 1_555
O17 P5 1.565195 1_555
O17 Rb7 2.949119 1_555
O18 P4 1.503071 1_555
O18 Rb3 2.968545 1_545
O18 Rb6 2.985950 1_555
O19 P5 1.503071 1_555
O19 Rb2 2.968545 1_555
O19 Rb7 2.985950 1_555
O20 P4 1.575875 1_555
O20 Rb4 2.983853 1_545
O20 Rb5 3.043946 1_556
O21 P5 1.575875 1_555
O21 Rb5 2.983853 1_555
O21 Rb4 3.043946 1_554
O22 P4 1.512672 1_555
O22 Rb3 2.933360 1_555
O22 Rb4 2.962862 1_555
O23 P5 1.512672 1_555
O23 Rb2 2.933360 1_565
O23 Rb5 2.962862 1_565
O24 P6 1.565244 1_555
O24 Rb4 2.948593 1_555
O25 P7 1.565244 1_555
O25 Rb5 2.948593 1_555
O26 P6 1.503228 1_555
O26 Rb1 2.967640 1_566
O26 Rb4 2.986038 1_555
O27 P7 1.503228 1_555
O27 Rb0 2.967640 1_554
O27 Rb5 2.986038 1_555
O28 P6 1.575878 1_555
O28 Rb6 2.985362 1_565
O28 Rb7 3.043656 1_455
O29 P7 1.575878 1_555
O29 Rb7 2.985362 1_555
O29 Rb6 3.043656 1_655
O30 P6 1.512569 1_555
O30 Rb1 2.933558 1_556
O30 Rb6 2.960276 1_555
O31 P7 1.512569 1_555
O31 Rb0 2.933558 1_544
O31 Rb7 2.960276 1_545
