# generated using pymatgen
data_TiCdO3
_symmetry_space_group_name_H-M   'P 1'
_cell_length_a   3.85238200
_cell_length_b   7.06765700
_cell_length_c   9.41505000
_cell_angle_alpha   90.00000000
_cell_angle_beta   90.00000000
_cell_angle_gamma   90.00000000
_symmetry_Int_Tables_number   1
_chemical_formula_structural   TiCdO3
_chemical_formula_sum   'Ti4 Cd4 O12'
_cell_volume   256.34652841
_cell_formula_units_Z   4
loop_
 _symmetry_equiv_pos_site_id
 _symmetry_equiv_pos_as_xyz
  1  'x, y, z'
loop_
 _atom_site_type_symbol
 _atom_site_label
 _atom_site_symmetry_multiplicity
 _atom_site_fract_x
 _atom_site_fract_y
 _atom_site_fract_z
 _atom_site_occupancy
  Ti  Ti0  1  0.96537500  0.75052400  0.29038400  1
  Ti  Ti1  1  0.03462500  0.25052400  0.70961600  1
  Ti  Ti2  1  0.03462500  0.25052400  0.29038400  1
  Ti  Ti3  1  0.96537500  0.75052400  0.70961600  1
  Cd  Cd0  1  0.68185900  0.03808500  0.00000000  1
  Cd  Cd1  1  0.49336000  0.99013500  0.50000000  1
  Cd  Cd2  1  0.31814100  0.53808500  0.00000000  1
  Cd  Cd3  1  0.50664000  0.49013500  0.50000000  1
  O  O0  1  0.77810100  0.72546400  0.00000000  1
  O  O1  1  0.99290900  0.98944300  0.22489000  1
  O  O2  1  0.48882900  0.71922000  0.67367100  1
  O  O3  1  0.51117100  0.21922000  0.67367100  1
  O  O4  1  0.48882900  0.71922000  0.32632900  1
  O  O5  1  0.00829500  0.31804400  0.50000000  1
  O  O6  1  0.00709100  0.48944300  0.22489000  1
  O  O7  1  0.22189900  0.22546400  0.00000000  1
  O  O8  1  0.99290900  0.98944300  0.77511000  1
  O  O9  1  0.00709100  0.48944300  0.77511000  1
  O  O10  1  0.51117100  0.21922000  0.32632900  1
  O  O11  1  0.99170500  0.81804400  0.50000000  1
loop_
_geom_bond_atom_site_label_1
_geom_bond_atom_site_label_2
_geom_bond_distance
_geom_bond_site_symmetry_2
Cd0 O7 2.212155 1_555
Cd0 O0 2.240389 1_545
Cd0 O8 2.457081 1_544
Cd0 O1 2.457081 1_545
Cd0 O7 2.466188 1_655
Cd1 O11 2.272670 1_555
Cd1 O11 2.283452 1_455
Cd1 O3 2.302128 1_565
Cd1 O10 2.302128 1_565
Cd1 O4 2.517962 1_555
Cd1 O2 2.517962 1_555
Cd2 O0 2.212155 1_555
Cd2 O7 2.240389 1_555
Cd2 O9 2.457081 1_554
Cd2 O6 2.457081 1_555
Cd2 O0 2.466188 1_455
Cd3 O5 2.272670 1_555
Cd3 O5 2.283452 1_655
Cd3 O4 2.302128 1_555
Cd3 O2 2.302128 1_555
Cd3 O10 2.517962 1_555
Cd3 O3 2.517962 1_555
O0 Ti0 2.833109 1_555
O0 Ti3 2.833109 1_554
O1 Ti0 1.800790 1_555
O1 Ti2 1.952162 1_665
O2 Ti3 1.879835 1_555
O2 Ti3 2.056680 1_455
O3 Ti1 1.879835 1_555
O3 Ti1 2.056680 1_655
O4 Ti0 1.879835 1_555
O4 Ti0 2.056680 1_455
O5 Ti1 2.032953 1_555
O5 Ti2 2.032953 1_555
O6 Ti2 1.800790 1_555
O6 Ti0 1.952162 1_455
O7 Ti2 2.833109 1_555
O7 Ti1 2.833109 1_554
O8 Ti3 1.800790 1_555
O8 Ti1 1.952162 1_665
O9 Ti1 1.800790 1_555
O9 Ti3 1.952162 1_455
O10 Ti2 1.879835 1_555
O10 Ti2 2.056680 1_655
O11 Ti3 2.032953 1_555
O11 Ti0 2.032953 1_555
