# generated using pymatgen
data_NaNbO3
_symmetry_space_group_name_H-M   'P 1'
_cell_length_a   5.69195100
_cell_length_b   5.70324300
_cell_length_c   15.99121800
_cell_angle_alpha   90.00000000
_cell_angle_beta   90.00000000
_cell_angle_gamma   90.00000000
_symmetry_Int_Tables_number   1
_chemical_formula_structural   NaNbO3
_chemical_formula_sum   'Na8 Nb8 O24'
_cell_volume   519.11618878
_cell_formula_units_Z   8
loop_
 _symmetry_equiv_pos_site_id
 _symmetry_equiv_pos_as_xyz
  1  'x, y, z'
loop_
 _atom_site_type_symbol
 _atom_site_label
 _atom_site_symmetry_multiplicity
 _atom_site_fract_x
 _atom_site_fract_y
 _atom_site_fract_z
 _atom_site_occupancy
  Na  Na0  1  0.51224800  0.00000000  0.50000000  1
  Na  Na1  1  0.48775200  0.00000000  0.00000000  1
  Na  Na2  1  0.99329100  0.50000000  0.50000000  1
  Na  Na3  1  0.00670900  0.50000000  0.00000000  1
  Na  Na4  1  0.00000000  0.52064400  0.25000000  1
  Na  Na5  1  0.00000000  0.47935600  0.75000000  1
  Na  Na6  1  0.50000000  0.00240000  0.25000000  1
  Na  Na7  1  0.50000000  0.99760000  0.75000000  1
  Nb  Nb0  1  0.00319700  0.02354200  0.37509800  1
  Nb  Nb1  1  0.99680300  0.02354200  0.12490200  1
  Nb  Nb2  1  0.99680300  0.97645800  0.87509800  1
  Nb  Nb3  1  0.00319700  0.97645800  0.62490200  1
  Nb  Nb4  1  0.50102000  0.52043700  0.37479600  1
  Nb  Nb5  1  0.49898000  0.52043700  0.12520400  1
  Nb  Nb6  1  0.49898000  0.47956300  0.87479600  1
  Nb  Nb7  1  0.50102000  0.47956300  0.62520400  1
  O  O0  1  0.25211100  0.24638700  0.37493600  1
  O  O1  1  0.74788900  0.24638700  0.12506400  1
  O  O2  1  0.74788900  0.75361300  0.87493600  1
  O  O3  1  0.25211100  0.75361300  0.62506400  1
  O  O4  1  0.24861200  0.74573400  0.37131100  1
  O  O5  1  0.75138800  0.74573400  0.12868900  1
  O  O6  1  0.75138800  0.25426600  0.87131100  1
  O  O7  1  0.24861200  0.25426600  0.62868900  1
  O  O8  1  0.74907900  0.24522200  0.37866200  1
  O  O9  1  0.25092100  0.24522200  0.12133800  1
  O  O10  1  0.25092100  0.75477800  0.87866200  1
  O  O11  1  0.74907900  0.75477800  0.62133800  1
  O  O12  1  0.75176500  0.74604200  0.37503700  1
  O  O13  1  0.24823500  0.74604200  0.12496300  1
  O  O14  1  0.24823500  0.25395800  0.87503700  1
  O  O15  1  0.75176500  0.25395800  0.62496300  1
  O  O16  1  0.00920600  0.00000000  0.50000000  1
  O  O17  1  0.99079400  0.00000000  0.00000000  1
  O  O18  1  0.49083200  0.50000000  0.50000000  1
  O  O19  1  0.50916800  0.50000000  0.00000000  1
  O  O20  1  0.00000000  0.00213200  0.25000000  1
  O  O21  1  0.00000000  0.99786800  0.75000000  1
  O  O22  1  0.50000000  0.48491000  0.25000000  1
  O  O23  1  0.50000000  0.51509000  0.75000000  1
loop_
_geom_bond_atom_site_label_1
_geom_bond_atom_site_label_2
_geom_bond_distance
_geom_bond_site_symmetry_2
Na0 O11 2.745558 1_545
Na0 O8 2.745558 1_555
Na0 O15 2.819521 1_555
Na0 O12 2.819521 1_545
Na0 O16 2.828661 1_655
Na0 O18 2.854226 1_545
Na0 O18 2.854226 1_555
Na0 O0 2.857750 1_555
Na0 O3 2.857750 1_545
Na0 O16 2.863290 1_555
Na0 O7 2.930810 1_555
Na0 O4 2.930810 1_545
Na1 O9 2.745558 1_555
Na1 O10 2.745558 1_544
Na1 O13 2.819521 1_545
Na1 O14 2.819521 1_554
Na1 O17 2.828661 1_455
Na1 O19 2.854226 1_545
Na1 O19 2.854226 1_555
Na1 O1 2.857750 1_555
Na1 O2 2.857750 1_544
Na1 O17 2.863290 1_555
Na1 O5 2.930810 1_545
Na1 O6 2.930810 1_554
Na2 O11 2.794375 1_555
Na2 O8 2.794375 1_555
Na2 O15 2.802190 1_555
Na2 O12 2.802190 1_555
Na2 O18 2.831979 1_655
Na2 O16 2.853060 1_655
Na2 O16 2.853060 1_665
Na2 O18 2.859972 1_555
Na2 O3 2.874389 1_655
Na2 O0 2.874389 1_655
Na2 O7 2.882895 1_655
Na2 O4 2.882895 1_655
Na3 O9 2.794375 1_555
Na3 O10 2.794375 1_554
Na3 O13 2.802190 1_555
Na3 O14 2.802190 1_554
Na3 O19 2.831979 1_455
Na3 O17 2.853060 1_465
Na3 O17 2.853060 1_455
Na3 O19 2.859972 1_555
Na3 O1 2.874389 1_455
Na3 O2 2.874389 1_454
Na3 O5 2.882895 1_455
Na3 O6 2.882895 1_454
Na4 O5 2.722815 1_455
Na4 O4 2.722815 1_555
Na4 O20 2.746043 1_565
Na4 O12 2.765301 1_455
Na4 O13 2.765301 1_555
Na4 O22 2.853263 1_455
Na4 O22 2.853263 1_555
Na4 O0 2.915019 1_555
Na4 O1 2.915019 1_455
Na4 O9 2.956417 1_555
Na4 O8 2.956417 1_455
Na4 O20 2.957200 1_555
Na5 O6 2.722815 1_455
Na5 O7 2.722815 1_555
Na5 O21 2.746043 1_545
Na5 O14 2.765301 1_555
Na5 O15 2.765301 1_455
Na5 O23 2.853263 1_455
Na5 O23 2.853263 1_555
Na5 O2 2.915019 1_455
Na5 O3 2.915019 1_555
Na5 O10 2.956417 1_555
Na5 O11 2.956417 1_455
Na5 O21 2.957200 1_555
Na6 O22 2.751872 1_555
Na6 O0 2.814015 1_555
Na6 O1 2.814015 1_555
Na6 O4 2.820193 1_545
Na6 O5 2.820193 1_545
Na6 O20 2.845976 1_555
Na6 O20 2.845976 1_655
Na6 O8 2.856751 1_555
Na6 O9 2.856751 1_555
Na6 O12 2.861681 1_545
Na6 O13 2.861681 1_545
Na6 O22 2.951371 1_545
Na7 O23 2.751872 1_555
Na7 O2 2.814015 1_555
Na7 O3 2.814015 1_555
Na7 O6 2.820193 1_565
Na7 O7 2.820193 1_565
Na7 O21 2.845976 1_555
Na7 O21 2.845976 1_655
Na7 O10 2.856751 1_555
Na7 O11 2.856751 1_555
Na7 O14 2.861681 1_565
Na7 O15 2.861681 1_565
Na7 O23 2.951371 1_565
Nb0 O0 1.903322 1_555
Nb0 O8 1.921937 1_455
Nb0 O16 2.002135 1_555
Nb0 O20 2.004275 1_555
Nb0 O4 2.113129 1_545
Nb0 O12 2.133762 1_445
Nb1 O1 1.903322 1_555
Nb1 O9 1.921937 1_655
Nb1 O17 2.002135 1_555
Nb1 O20 2.004275 1_655
Nb1 O5 2.113129 1_545
Nb1 O13 2.133762 1_645
Nb2 O2 1.903322 1_555
Nb2 O10 1.921937 1_655
Nb2 O17 2.002135 1_566
Nb2 O21 2.004275 1_655
Nb2 O6 2.113129 1_565
Nb2 O14 2.133762 1_665
Nb3 O3 1.903322 1_555
Nb3 O11 1.921937 1_455
Nb3 O16 2.002135 1_565
Nb3 O21 2.004275 1_555
Nb3 O7 2.113129 1_565
Nb3 O15 2.133762 1_465
Nb4 O12 1.921599 1_555
Nb4 O4 1.928270 1_555
Nb4 O22 2.005908 1_555
Nb4 O18 2.006393 1_555
Nb4 O0 2.109538 1_555
Nb4 O8 2.112131 1_555
Nb5 O13 1.921599 1_555
Nb5 O5 1.928270 1_555
Nb5 O22 2.005908 1_555
Nb5 O19 2.006393 1_555
Nb5 O1 2.109538 1_555
Nb5 O9 2.112131 1_555
Nb6 O14 1.921599 1_555
Nb6 O6 1.928270 1_555
Nb6 O23 2.005908 1_555
Nb6 O19 2.006393 1_556
Nb6 O2 2.109538 1_555
Nb6 O10 2.112131 1_555
Nb7 O15 1.921599 1_555
Nb7 O7 1.928270 1_555
Nb7 O23 2.005908 1_555
Nb7 O18 2.006393 1_555
Nb7 O3 2.109538 1_555
Nb7 O11 2.112131 1_555
