# generated using pymatgen
data_Ca43Al16Pb13
_symmetry_space_group_name_H-M   'P 1'
_cell_length_a   20.13131902
_cell_length_b   20.13131902
_cell_length_c   20.13131874
_cell_angle_alpha   33.55813129
_cell_angle_beta   33.55813129
_cell_angle_gamma   33.55812887
_symmetry_Int_Tables_number   1
_chemical_formula_structural   Ca43Al16Pb13
_chemical_formula_sum   'Ca43 Al16 Pb13'
_cell_volume   2220.59391655
_cell_formula_units_Z   1
loop_
 _symmetry_equiv_pos_site_id
 _symmetry_equiv_pos_as_xyz
  1  'x, y, z'
loop_
 _atom_site_type_symbol
 _atom_site_label
 _atom_site_symmetry_multiplicity
 _atom_site_fract_x
 _atom_site_fract_y
 _atom_site_fract_z
 _atom_site_occupancy
  Ca  Ca0  1  0.16543800  0.83456200  0.50000000  1
  Ca  Ca1  1  0.68238700  0.31761300  0.00000000  1
  Ca  Ca2  1  0.33177200  0.66747600  0.33177200  1
  Ca  Ca3  1  0.84202100  0.15857900  0.84202100  1
  Ca  Ca4  1  0.50000000  0.83456200  0.16543800  1
  Ca  Ca5  1  0.00000000  0.31761300  0.68238700  1
  Ca  Ca6  1  0.33177200  0.33177200  0.66747600  1
  Ca  Ca7  1  0.84202100  0.84202100  0.15857900  1
  Ca  Ca8  1  0.16543800  0.50000000  0.83456200  1
  Ca  Ca9  1  0.68238700  0.00000000  0.31761300  1
  Ca  Ca10  1  0.50000000  0.16543800  0.83456200  1
  Ca  Ca11  1  0.00000000  0.68238700  0.31761300  1
  Ca  Ca12  1  0.66822800  0.66822800  0.33252400  1
  Ca  Ca13  1  0.15797900  0.15797900  0.84142100  1
  Ca  Ca14  1  0.66822800  0.33252400  0.66822800  1
  Ca  Ca15  1  0.15797900  0.84142100  0.15797900  1
  Ca  Ca16  1  0.33252400  0.66822800  0.66822800  1
  Ca  Ca17  1  0.84142100  0.15797900  0.15797900  1
  Ca  Ca18  1  0.83456200  0.16543800  0.50000000  1
  Ca  Ca19  1  0.31761300  0.68238700  0.00000000  1
  Ca  Ca20  1  0.83456200  0.50000000  0.16543800  1
  Ca  Ca21  1  0.31761300  0.00000000  0.68238700  1
  Ca  Ca22  1  0.66747600  0.33177200  0.33177200  1
  Ca  Ca23  1  0.15857900  0.84202100  0.84202100  1
  Ca  Ca24  1  0.05553400  0.57560000  0.05553400  1
  Ca  Ca25  1  0.55567400  0.07217700  0.55567400  1
  Ca  Ca26  1  0.05553400  0.05553400  0.57560000  1
  Ca  Ca27  1  0.55567400  0.55567400  0.07217700  1
  Ca  Ca28  1  0.81491000  0.81491000  0.81491000  1
  Ca  Ca29  1  0.31458400  0.31458400  0.31458400  1
  Ca  Ca30  1  0.57560000  0.05553400  0.05553400  1
  Ca  Ca31  1  0.07217700  0.55567400  0.55567400  1
  Ca  Ca32  1  0.94446600  0.42440000  0.94446600  1
  Ca  Ca33  1  0.44432600  0.92782300  0.44432600  1
  Ca  Ca34  1  0.94446600  0.94446600  0.42440000  1
  Ca  Ca35  1  0.44432600  0.44432600  0.92782300  1
  Ca  Ca36  1  0.18509000  0.18509000  0.18509000  1
  Ca  Ca37  1  0.68541600  0.68541600  0.68541600  1
  Ca  Ca38  1  0.42440000  0.94446600  0.94446600  1
  Ca  Ca39  1  0.92782300  0.44432600  0.44432600  1
  Ca  Ca40  1  0.25081600  0.25081600  0.25081600  1
  Ca  Ca41  1  0.74918400  0.74918400  0.74918400  1
  Ca  Ca42  1  0.50000000  0.50000000  0.50000000  1
  Al  Al0  1  0.78781100  0.01990900  0.78781100  1
  Al  Al1  1  0.28741300  0.52100500  0.28741300  1
  Al  Al2  1  0.78781100  0.78781100  0.01990900  1
  Al  Al3  1  0.28741300  0.28741300  0.52100500  1
  Al  Al4  1  0.90429900  0.90429900  0.90429900  1
  Al  Al5  1  0.40390000  0.40390000  0.40390000  1
  Al  Al6  1  0.01990900  0.78781100  0.78781100  1
  Al  Al7  1  0.52100500  0.28741300  0.28741300  1
  Al  Al8  1  0.21218900  0.98009100  0.21218900  1
  Al  Al9  1  0.71258700  0.47899500  0.71258700  1
  Al  Al10  1  0.21218900  0.21218900  0.98009100  1
  Al  Al11  1  0.71258700  0.71258700  0.47899500  1
  Al  Al12  1  0.09570100  0.09570100  0.09570100  1
  Al  Al13  1  0.59610000  0.59610000  0.59610000  1
  Al  Al14  1  0.98009100  0.21218900  0.21218900  1
  Al  Al15  1  0.47899500  0.71258700  0.71258700  1
  Pb  Pb0  1  0.35936100  0.35936100  0.92117600  1
  Pb  Pb1  1  0.85627100  0.85627100  0.43314800  1
  Pb  Pb2  1  0.64063900  0.07882400  0.64063900  1
  Pb  Pb3  1  0.14372900  0.56685200  0.14372900  1
  Pb  Pb4  1  0.92117600  0.35936100  0.35936100  1
  Pb  Pb5  1  0.43314800  0.85627100  0.85627100  1
  Pb  Pb6  1  0.64063900  0.64063900  0.07882400  1
  Pb  Pb7  1  0.14372900  0.14372900  0.56685200  1
  Pb  Pb8  1  0.35936100  0.92117600  0.35936100  1
  Pb  Pb9  1  0.85627100  0.43314800  0.85627100  1
  Pb  Pb10  1  0.07882400  0.64063900  0.64063900  1
  Pb  Pb11  1  0.56685200  0.14372900  0.14372900  1
  Pb  Pb12  1  0.00000000  0.00000000  0.00000000  1
loop_
_geom_bond_atom_site_label_1
_geom_bond_atom_site_label_2
_geom_bond_distance
_geom_bond_site_symmetry_2
Ca0 Pb10 3.315530 1_555
Ca0 Pb8 3.315530 1_555
Ca0 Ca18 3.845804 1_465
Ca0 Ca42 3.888647 1_555
Ca0 Ca8 3.888647 1_555
Ca0 Ca4 3.888647 1_555
Ca0 Ca16 3.912761 1_555
Ca0 Ca2 3.912761 1_555
Ca0 Ca28 4.006998 1_455
Ca0 Ca36 4.006998 1_565
Ca0 Ca26 4.033380 1_565
Ca0 Ca34 4.033380 1_455
Ca1 Pb11 3.392311 1_555
Ca1 Pb9 3.392311 1_554
Ca1 Ca17 3.671555 1_555
Ca1 Ca3 3.671555 1_554
Ca1 Pb12 3.691647 1_655
Ca1 Ca9 3.691647 1_555
Ca1 Ca5 3.691647 1_654
Ca1 Ca27 4.079163 1_555
Ca1 Ca35 4.079163 1_554
Ca1 Ca37 4.109958 1_554
Ca1 Ca29 4.109958 1_555
Ca1 Ca19 4.239804 1_555
Ca2 Pb6 3.331699 1_555
Ca2 Pb10 3.331699 1_555
Ca2 Ca22 3.901920 1_555
Ca2 Ca6 3.901921 1_555
Ca2 Ca4 3.912761 1_555
Ca2 Ca42 3.919351 1_555
Ca2 Ca34 4.000048 1_455
Ca2 Ca38 4.000048 1_554
Ca2 Ca27 4.016189 1_555
Ca2 Ca31 4.016189 1_555
Ca3 Pb7 3.365177 1_655
Ca3 Pb11 3.365177 1_556
Ca3 Pb12 3.665385 1_656
Ca3 Ca5 3.671555 1_655
Ca3 Ca7 3.679385 1_546
Ca4 Pb6 3.315529 1_555
Ca4 Pb8 3.315529 1_555
Ca4 Ca42 3.888647 1_555
Ca5 Pb7 3.392311 1_555
Ca5 Pb9 3.392311 1_455
Ca5 Pb12 3.691647 1_556
Ca6 Pb10 3.331699 1_555
Ca6 Pb2 3.331699 1_555
Ca6 Ca8 3.912761 1_555
Ca7 Pb11 3.365176 1_565
Ca7 Pb3 3.365176 1_655
Ca7 Pb12 3.665385 1_665
Ca7 Ca9 3.671555 1_565
Ca8 Pb0 3.315529 1_555
Ca8 Pb10 3.315529 1_555
Ca9 Pb1 3.392311 1_545
Ca9 Pb11 3.392311 1_555
Ca9 Pb12 3.691647 1_655
Ca10 Pb0 3.315529 1_555
Ca10 Pb2 3.315529 1_555
Ca10 Ca4 3.845804 1_546
Ca10 Ca8 3.888647 1_555
Ca10 Ca18 3.888647 1_555
Ca10 Ca42 3.888647 1_555
Ca10 Ca6 3.912761 1_555
Ca10 Ca14 3.912761 1_555
Ca10 Ca28 4.006998 1_545
Ca10 Ca36 4.006998 1_556
Ca10 Ca30 4.033380 1_556
Ca10 Ca38 4.033380 1_545
Ca11 Pb1 3.392311 1_455
Ca11 Pb3 3.392311 1_555
Ca11 Ca7 3.671555 1_455
Ca11 Ca15 3.671555 1_555
Ca11 Ca9 3.691647 1_465
Ca11 Ca19 3.691647 1_555
Ca11 Pb12 3.691647 1_565
Ca11 Ca31 4.079163 1_555
Ca11 Ca39 4.079163 1_455
Ca11 Ca29 4.109958 1_555
Ca11 Ca37 4.109958 1_455
Ca11 Ca5 4.239804 1_555
Ca12 Pb4 3.331699 1_555
Ca12 Pb8 3.331699 1_555
Ca12 Ca14 3.901921 1_555
Ca12 Ca16 3.901921 1_555
Ca12 Ca20 3.912761 1_555
Ca12 Ca4 3.912761 1_555
Ca12 Ca42 3.919351 1_555
Ca12 Ca24 4.000048 1_655
Ca12 Ca30 4.000048 1_565
Ca12 Ca33 4.016189 1_555
Ca12 Ca39 4.016189 1_555
Ca12 Ca7 4.038189 1_555
Ca13 Pb9 3.365176 1_455
Ca13 Pb5 3.365176 1_545
Ca13 Pb12 3.665385 1_556
Ca13 Ca5 3.671555 1_555
Ca13 Ca21 3.671555 1_555
Ca13 Ca15 3.679385 1_546
Ca13 Ca17 3.679385 1_456
Ca13 Ca6 4.038189 1_555
Ca14 Pb0 3.331699 1_555
Ca14 Pb4 3.331699 1_555
Ca14 Ca16 3.901920 1_555
Ca14 Ca18 3.912761 1_555
Ca14 Ca42 3.919351 1_555
Ca14 Ca26 4.000048 1_655
Ca14 Ca30 4.000048 1_556
Ca14 Ca35 4.016189 1_555
Ca14 Ca39 4.016189 1_555
Ca14 Ca3 4.038188 1_555
Ca15 Pb1 3.365177 1_455
Ca15 Pb5 3.365177 1_554
Ca15 Pb12 3.665385 1_565
Ca15 Ca19 3.671555 1_555
Ca15 Ca17 3.679385 1_465
Ca15 Ca2 4.038188 1_555
Ca16 Pb0 3.331699 1_555
Ca16 Pb8 3.331699 1_555
Ca16 Ca8 3.912761 1_555
Ca16 Ca42 3.919351 1_555
Ca16 Ca26 4.000048 1_565
Ca16 Ca24 4.000048 1_556
Ca16 Ca35 4.016189 1_555
Ca16 Ca33 4.016189 1_555
Ca16 Ca23 4.038188 1_555
Ca17 Pb1 3.365177 1_545
Ca17 Pb9 3.365177 1_554
Ca17 Pb12 3.665385 1_655
Ca17 Ca9 3.671555 1_555
Ca17 Ca22 4.038188 1_555
Ca18 Pb2 3.315530 1_555
Ca18 Pb4 3.315530 1_555
Ca18 Ca42 3.888647 1_555
Ca18 Ca20 3.888647 1_555
Ca18 Ca22 3.912761 1_555
Ca18 Ca28 4.006998 1_545
Ca18 Ca36 4.006998 1_655
Ca18 Ca26 4.033380 1_655
Ca18 Ca34 4.033380 1_545
Ca19 Pb3 3.392311 1_555
Ca19 Pb5 3.392311 1_554
Ca19 Ca23 3.671555 1_554
Ca19 Pb12 3.691647 1_565
Ca19 Ca21 3.691647 1_564
Ca19 Ca27 4.079163 1_555
Ca19 Ca35 4.079163 1_554
Ca19 Ca37 4.109958 1_554
Ca19 Ca29 4.109958 1_555
Ca20 Pb6 3.315529 1_555
Ca20 Pb4 3.315529 1_555
Ca20 Ca8 3.845804 1_654
Ca20 Ca4 3.888647 1_555
Ca20 Ca42 3.888647 1_555
Ca20 Ca22 3.912761 1_555
Ca20 Ca36 4.006998 1_655
Ca20 Ca28 4.006998 1_554
Ca20 Ca32 4.033380 1_554
Ca20 Ca24 4.033380 1_655
Ca21 Pb7 3.392311 1_555
Ca21 Pb5 3.392311 1_545
Ca21 Ca23 3.671555 1_545
Ca21 Ca5 3.691647 1_555
Ca21 Pb12 3.691647 1_556
Ca21 Ca33 4.079163 1_545
Ca21 Ca25 4.079163 1_555
Ca21 Ca37 4.109958 1_545
Ca21 Ca29 4.109958 1_555
Ca21 Ca9 4.239804 1_555
Ca22 Pb6 3.331699 1_555
Ca22 Pb2 3.331699 1_555
Ca22 Ca6 3.901921 1_555
Ca22 Ca42 3.919351 1_555
Ca22 Ca34 4.000048 1_545
Ca22 Ca32 4.000048 1_554
Ca22 Ca27 4.016189 1_555
Ca22 Ca25 4.016189 1_555
Ca23 Pb7 3.365177 1_565
Ca23 Pb3 3.365177 1_556
Ca23 Pb12 3.665385 1_566
Ca23 Ca3 3.679385 1_465
Ca23 Ca7 3.679385 1_456
Ca24 Pb3 3.247657 1_555
Ca24 Pb0 3.369283 1_554
Ca24 Pb4 3.369283 1_455
Ca24 Ca40 3.706553 1_555
Ca24 Ca8 4.033380 1_554
Ca25 Pb1 3.278699 1_545
Ca25 Pb5 3.278699 1_545
Ca25 Pb2 3.392378 1_555
Ca25 Ca41 3.672907 1_545
Ca25 Ca6 4.016189 1_555
Ca25 Ca9 4.079163 1_555
Ca26 Pb7 3.247657 1_555
Ca26 Pb8 3.369283 1_545
Ca26 Pb4 3.369283 1_455
Ca26 Ca40 3.706553 1_555
Ca27 Pb5 3.278699 1_554
Ca27 Pb9 3.278699 1_554
Ca27 Pb6 3.392378 1_555
Ca27 Ca41 3.672907 1_554
Ca28 Pb2 3.350587 1_565
Ca28 Pb10 3.350587 1_655
Ca28 Pb6 3.350587 1_556
Ca28 Ca41 3.742425 1_555
Ca28 Ca8 4.006998 1_655
Ca28 Ca4 4.006998 1_556
Ca29 Pb11 3.308187 1_555
Ca29 Pb3 3.308187 1_555
Ca29 Pb7 3.308187 1_555
Ca29 Ca40 3.630937 1_555
Ca29 Ca9 4.109958 1_555
Ca29 Ca5 4.109958 1_555
Ca30 Pb11 3.247657 1_555
Ca30 Pb0 3.369283 1_554
Ca30 Pb8 3.369283 1_545
Ca30 Ca40 3.706553 1_555
Ca30 Ca4 4.033380 1_545
Ca31 Pb1 3.278699 1_455
Ca31 Pb9 3.278699 1_455
Ca31 Pb10 3.392378 1_555
Ca31 Ca41 3.672907 1_455
Ca31 Ca6 4.016189 1_555
Ca31 Ca5 4.079163 1_555
Ca32 Pb9 3.247657 1_555
Ca32 Pb6 3.369283 1_556
Ca32 Pb10 3.369283 1_655
Ca32 Ca41 3.706553 1_555
Ca32 Ca6 4.000048 1_655
Ca32 Ca8 4.033380 1_655
Ca33 Pb7 3.278699 1_565
Ca33 Pb11 3.278699 1_565
Ca33 Pb8 3.392378 1_555
Ca33 Ca40 3.672907 1_565
Ca33 Ca9 4.079163 1_565
Ca34 Pb1 3.247657 1_555
Ca34 Pb2 3.369283 1_565
Ca34 Pb10 3.369283 1_655
Ca34 Ca41 3.706553 1_555
Ca35 Pb11 3.278699 1_556
Ca35 Pb3 3.278699 1_556
Ca35 Pb0 3.392378 1_555
Ca35 Ca40 3.672907 1_556
Ca36 Pb8 3.350587 1_545
Ca36 Pb4 3.350587 1_455
Ca36 Pb0 3.350587 1_554
Ca36 Ca40 3.742425 1_555
Ca36 Ca4 4.006998 1_545
Ca36 Ca8 4.006998 1_554
Ca37 Pb9 3.308187 1_555
Ca37 Pb5 3.308187 1_555
Ca37 Pb1 3.308187 1_555
Ca37 Ca41 3.630937 1_555
Ca37 Ca5 4.109958 1_655
Ca37 Ca9 4.109958 1_565
Ca38 Pb5 3.247657 1_555
Ca38 Pb6 3.369283 1_556
Ca38 Pb2 3.369283 1_565
Ca38 Ca41 3.706553 1_555
Ca38 Ca6 4.000048 1_565
Ca38 Ca4 4.033380 1_556
Ca39 Pb7 3.278699 1_655
Ca39 Pb3 3.278699 1_655
Ca39 Pb4 3.392378 1_555
Ca39 Ca40 3.672907 1_655
Ca39 Ca5 4.079163 1_655
Ca40 Pb3 3.435116 1_555
Ca40 Pb11 3.435116 1_555
Ca40 Pb7 3.435116 1_555
Ca40 Pb8 3.634523 1_545
Ca40 Pb4 3.634523 1_455
Ca40 Pb0 3.634523 1_554
Ca41 Pb5 3.435116 1_555
Ca41 Pb9 3.435116 1_555
Ca41 Pb1 3.435116 1_555
Ca41 Pb2 3.634523 1_565
Ca41 Pb10 3.634523 1_655
Ca41 Pb6 3.634523 1_556
Ca42 Ca8 3.888647 1_555
Ca42 Ca6 3.919351 1_555
Al0 Al6 2.697698 1_645
Al0 Al2 2.697698 1_546
Al0 Al4 2.718098 1_545
Al0 Ca10 3.202451 1_555
Al0 Ca18 3.202451 1_555
Al0 Ca14 3.217946 1_555
Al0 Ca28 3.258528 1_545
Al0 Ca30 3.282426 1_556
Al0 Ca26 3.282426 1_655
Al1 Al5 2.700668 1_555
Al1 Al7 2.715063 1_555
Al1 Al3 2.715063 1_555
Al1 Ca15 3.236907 1_555
Al1 Ca11 3.240716 1_555
Al1 Ca19 3.240716 1_555
Al1 Ca31 3.266292 1_555
Al1 Ca27 3.266292 1_555
Al1 Ca29 3.284628 1_555
Al2 Al6 2.697698 1_654
Al2 Al4 2.718098 1_554
Al2 Ca4 3.202451 1_555
Al2 Ca20 3.202451 1_555
Al2 Ca12 3.217946 1_555
Al2 Ca28 3.258528 1_554
Al2 Ca24 3.282426 1_655
Al2 Ca30 3.282426 1_565
Al3 Al5 2.700668 1_555
Al3 Al7 2.715063 1_555
Al3 Ca13 3.236907 1_555
Al3 Ca5 3.240716 1_555
Al3 Ca21 3.240716 1_555
Al3 Ca31 3.266292 1_555
Al3 Ca25 3.266292 1_555
Al3 Ca29 3.284627 1_555
Al4 Al6 2.718098 1_655
Al4 Ca7 3.251895 1_556
Al4 Ca3 3.251895 1_565
Al4 Ca23 3.251895 1_655
Al4 Ca24 3.258893 1_656
Al4 Ca30 3.258893 1_566
Al4 Ca26 3.258893 1_665
Al5 Al7 2.700668 1_555
Al5 Ca6 3.194338 1_555
Al5 Ca2 3.194338 1_555
Al5 Ca22 3.194338 1_555
Al5 Ca31 3.288328 1_555
Al5 Ca25 3.288328 1_555
Al5 Ca27 3.288328 1_555
Al6 Ca8 3.202451 1_555
Al6 Ca0 3.202451 1_555
Al6 Ca16 3.217946 1_555
Al6 Ca28 3.258528 1_455
Al6 Ca24 3.282426 1_556
Al6 Ca26 3.282426 1_565
Al7 Ca17 3.236907 1_555
Al7 Ca9 3.240716 1_555
Al7 Ca1 3.240716 1_555
Al7 Ca25 3.266292 1_555
Al7 Ca27 3.266292 1_555
Al7 Ca29 3.284628 1_555
Al8 Ca4 3.202451 1_555
Al8 Ca0 3.202451 1_555
Al8 Ca2 3.217946 1_555
Al8 Ca36 3.258528 1_565
Al8 Ca38 3.282426 1_554
Al8 Ca34 3.282426 1_455
Al9 Ca3 3.236907 1_555
Al9 Ca5 3.240716 1_655
Al9 Ca1 3.240716 1_556
Al9 Ca39 3.266292 1_555
Al9 Ca35 3.266292 1_555
Al9 Ca37 3.284628 1_555
Al10 Al8 2.697698 1_546
Al10 Al14 2.697698 1_456
Al10 Al12 2.718098 1_556
Al10 Ca8 3.202451 1_555
Al10 Ca10 3.202451 1_555
Al10 Ca6 3.217946 1_555
Al10 Ca36 3.258528 1_556
Al10 Ca32 3.282426 1_455
Al10 Ca38 3.282426 1_545
Al11 Al13 2.700668 1_555
Al11 Al9 2.715063 1_555
Al11 Al15 2.715063 1_555
Al11 Ca7 3.236907 1_555
Al11 Ca11 3.240716 1_655
Al11 Ca9 3.240716 1_565
Al11 Ca33 3.266292 1_555
Al11 Ca39 3.266292 1_555
Al11 Ca37 3.284627 1_555
Al12 Al8 2.718098 1_545
Al12 Al14 2.718098 1_455
Al12 Ca13 3.251895 1_554
Al12 Ca17 3.251895 1_455
Al12 Ca15 3.251895 1_545
Al12 Ca38 3.258893 1_544
Al12 Ca32 3.258893 1_454
Al12 Ca34 3.258893 1_445
Al13 Al9 2.700668 1_555
Al13 Al15 2.700668 1_555
Al13 Ca12 3.194338 1_555
Al13 Ca14 3.194338 1_555
Al13 Ca16 3.194338 1_555
Al13 Ca39 3.288328 1_555
Al13 Ca33 3.288328 1_555
Al13 Ca35 3.288328 1_555
Al14 Al8 2.697698 1_645
Al14 Ca20 3.202451 1_555
Al14 Ca18 3.202451 1_555
Al14 Ca22 3.217946 1_555
Al14 Ca36 3.258528 1_655
Al14 Ca32 3.282426 1_554
Al14 Ca34 3.282426 1_545
Al15 Al9 2.715063 1_555
Al15 Ca23 3.236907 1_555
Al15 Ca21 3.240716 1_565
Al15 Ca19 3.240716 1_556
Al15 Ca33 3.266292 1_555
Al15 Ca35 3.266292 1_555
Al15 Ca37 3.284628 1_555
