# generated using pymatgen
data_Na2(CoO2)3
_symmetry_space_group_name_H-M   'P 1'
_cell_length_a   6.84762109
_cell_length_b   6.84762109
_cell_length_c   8.11147800
_cell_angle_alpha   90.00000000
_cell_angle_beta   90.00000000
_cell_angle_gamma   102.02845514
_symmetry_Int_Tables_number   1
_chemical_formula_structural   Na2(CoO2)3
_chemical_formula_sum   'Na4 Co6 O12'
_cell_volume   371.99570772
_cell_formula_units_Z   2
loop_
 _symmetry_equiv_pos_site_id
 _symmetry_equiv_pos_as_xyz
  1  'x, y, z'
loop_
 _atom_site_type_symbol
 _atom_site_label
 _atom_site_symmetry_multiplicity
 _atom_site_fract_x
 _atom_site_fract_y
 _atom_site_fract_z
 _atom_site_occupancy
  Na  Na0  1  0.50220600  0.49779400  0.00000000  1
  Na  Na1  1  0.90113500  0.09886500  0.50000000  1
  Na  Na2  1  0.01229300  0.54859600  0.00000000  1
  Na  Na3  1  0.45140400  0.98770700  0.00000000  1
  Co  Co0  1  0.82760400  0.81950600  0.78763800  1
  Co  Co1  1  0.71789200  0.28210800  0.22995900  1
  Co  Co2  1  0.71789200  0.28210800  0.77004100  1
  Co  Co3  1  0.18049400  0.17239600  0.78763800  1
  Co  Co4  1  0.18049400  0.17239600  0.21236200  1
  Co  Co5  1  0.82760400  0.81950600  0.21236200  1
  O  O0  1  0.68311500  0.00724200  0.25007500  1
  O  O1  1  0.44537100  0.24907000  0.19320100  1
  O  O2  1  0.33951400  0.66048600  0.57619500  1
  O  O3  1  0.33951400  0.66048600  0.42380500  1
  O  O4  1  0.09713700  0.90286300  0.80944300  1
  O  O5  1  0.09713700  0.90286300  0.19055700  1
  O  O6  1  0.99275800  0.31688500  0.74992500  1
  O  O7  1  0.99275800  0.31688500  0.25007500  1
  O  O8  1  0.75093000  0.55462900  0.80679900  1
  O  O9  1  0.75093000  0.55462900  0.19320100  1
  O  O10  1  0.68311500  0.00724200  0.74992500  1
  O  O11  1  0.44537100  0.24907000  0.80679900  1
loop_
_geom_bond_atom_site_label_1
_geom_bond_atom_site_label_2
_geom_bond_distance
_geom_bond_site_symmetry_2
Na0 O1 2.287339 1_555
Na0 O9 2.287339 1_555
Na0 O11 2.287339 1_554
Na0 O8 2.287339 1_554
Na1 O6 2.518299 1_555
Na1 O7 2.518299 1_555
Na1 O10 2.518299 1_555
Na1 O0 2.518299 1_555
Na2 O9 2.385696 1_455
Na2 O8 2.385696 1_454
Na2 O7 2.561576 1_455
Na2 O6 2.561576 1_454
Na2 O5 2.832705 1_555
Na2 O4 2.832705 1_554
Na3 O1 2.385696 1_565
Na3 O11 2.385696 1_564
Na3 O10 2.561576 1_564
Na3 O0 2.561576 1_565
Na3 O5 2.832705 1_555
Na3 O4 2.832705 1_554
Co0 O8 1.786811 1_555
Co0 O10 1.804234 1_565
Co0 O4 1.823310 1_655
Co1 O7 1.854485 1_555
Co1 O0 1.854485 1_555
Co1 O9 1.856482 1_555
Co1 O1 1.856482 1_555
Co2 O6 1.854485 1_555
Co2 O10 1.854485 1_555
Co2 O8 1.856482 1_555
Co2 O11 1.856482 1_555
Co3 O11 1.786811 1_555
Co3 O6 1.804234 1_455
Co3 O4 1.823310 1_545
Co4 O1 1.786811 1_555
Co4 O7 1.804234 1_455
Co4 O5 1.823310 1_545
Co5 O9 1.786811 1_555
Co5 O0 1.804234 1_565
Co5 O5 1.823310 1_655
O2 O3 1.236108 1_555
