# generated using pymatgen
data_Ce4Ni3Bi8
_symmetry_space_group_name_H-M   'P 1'
_cell_length_a   4.56331001
_cell_length_b   4.56331001
_cell_length_c   19.39959367
_cell_angle_alpha   90.00000000
_cell_angle_beta   90.00000000
_cell_angle_gamma   90.00000000
_symmetry_Int_Tables_number   1
_chemical_formula_structural   Ce4Ni3Bi8
_chemical_formula_sum   'Ce4 Ni3 Bi8'
_cell_volume   403.97322466
_cell_formula_units_Z   1
loop_
 _symmetry_equiv_pos_site_id
 _symmetry_equiv_pos_as_xyz
  1  'x, y, z'
loop_
 _atom_site_type_symbol
 _atom_site_label
 _atom_site_symmetry_multiplicity
 _atom_site_fract_x
 _atom_site_fract_y
 _atom_site_fract_z
 _atom_site_occupancy
  Ce  Ce0  1  0.50000000  0.00000000  0.11212925  1
  Ce  Ce1  1  0.50000000  0.00000000  0.61630712  1
  Ce  Ce2  1  -0.00000000  0.50000000  0.88787075  1
  Ce  Ce3  1  0.00000000  0.50000000  0.38369288  1
  Ni  Ni0  1  0.50000000  0.50000000  0.50000000  1
  Ni  Ni1  1  -0.00000000  0.00000000  0.00000000  1
  Ni  Ni2  1  -0.00000000  0.00000000  0.50000000  1
  Bi  Bi0  1  0.50000000  0.50000000  0.75125817  1
  Bi  Bi1  1  0.50000000  0.50000000  0.24874183  1
  Bi  Bi2  1  -0.00000000  -0.00000000  0.75158339  1
  Bi  Bi3  1  0.00000000  0.00000000  0.24841661  1
  Bi  Bi4  1  0.50000000  0.00000000  0.93306180  1
  Bi  Bi5  1  0.50000000  0.00000000  0.43082352  1
  Bi  Bi6  1  0.00000000  0.50000000  0.06693820  1
  Bi  Bi7  1  0.00000000  0.50000000  0.56917648  1
loop_
_geom_bond_atom_site_label_1
_geom_bond_atom_site_label_2
_geom_bond_distance
_geom_bond_site_symmetry_2
Ce0 Ni1 3.152414 1_655
Ce0 Ni1 3.152414 1_555
Ce1 Ni0 3.208876 1_555
Ce1 Ni0 3.208876 1_545
Ce1 Ni2 3.208876 1_655
Ce1 Ni2 3.208876 1_555
Ce2 Ni1 3.152414 1_566
Ce2 Ni1 3.152414 1_556
Ce3 Ni0 3.208876 1_555
Ce3 Ni0 3.208876 1_455
Ce3 Ni2 3.208876 1_555
Ce3 Ni2 3.208876 1_565
Bi0 Bi2 3.226754 1_665
Bi0 Bi2 3.226754 1_555
Bi0 Bi2 3.226754 1_565
Bi0 Bi2 3.226754 1_655
Bi0 Ce1 3.472730 1_555
Bi0 Ce1 3.472730 1_565
Bi0 Ce2 3.497093 1_555
Bi0 Ce2 3.497093 1_655
Bi1 Bi3 3.226754 1_665
Bi1 Bi3 3.226754 1_565
Bi1 Bi3 3.226754 1_655
Bi1 Bi3 3.226754 1_555
Bi1 Ce3 3.472730 1_655
Bi1 Ce3 3.472730 1_555
Bi1 Ce0 3.497093 1_565
Bi1 Ce0 3.497093 1_555
Bi2 Ce1 3.477488 1_455
Bi2 Ce1 3.477488 1_555
Bi2 Ce2 3.492314 1_545
Bi2 Ce2 3.492314 1_555
Bi3 Ce3 3.477488 1_545
Bi3 Ce3 3.477488 1_555
Bi3 Ce0 3.492314 1_555
Bi3 Ce0 3.492314 1_455
Bi4 Ni1 2.625308 1_656
Bi4 Ni1 2.625308 1_556
Bi4 Ce2 3.343723 1_555
Bi4 Ce2 3.343723 1_655
Bi4 Ce2 3.343723 1_645
Bi4 Ce2 3.343723 1_545
Bi4 Ce0 3.473836 1_556
Bi5 Ni0 2.647055 1_555
Bi5 Ni0 2.647055 1_545
Bi5 Ni2 2.647055 1_655
Bi5 Ni2 2.647055 1_555
Bi5 Ce3 3.353785 1_655
Bi5 Ce3 3.353785 1_645
Bi5 Ce3 3.353785 1_545
Bi5 Ce3 3.353785 1_555
Bi6 Ni1 2.625308 1_565
Bi6 Ni1 2.625308 1_555
Bi6 Ce0 3.343723 1_455
Bi6 Ce0 3.343723 1_565
Bi6 Ce0 3.343723 1_465
Bi6 Ce0 3.343723 1_555
Bi6 Ce2 3.473836 1_554
Bi7 Ni0 2.647055 1_555
Bi7 Ni2 2.647055 1_565
Bi7 Ni2 2.647055 1_555
Bi7 Ni0 2.647055 1_455
Bi7 Ce1 3.353785 1_455
Bi7 Ce1 3.353785 1_555
Bi7 Ce1 3.353785 1_465
Bi7 Ce1 3.353785 1_565
