# generated using pymatgen
data_CrPO4
_symmetry_space_group_name_H-M   'P 1'
_cell_length_a   8.88295103
_cell_length_b   8.88299023
_cell_length_c   8.88293965
_cell_angle_alpha   138.41236414
_cell_angle_beta   108.23168615
_cell_angle_gamma   86.51407077
_symmetry_Int_Tables_number   1
_chemical_formula_structural   CrPO4
_chemical_formula_sum   'Cr6 P6 O24'
_cell_volume   424.89240263
_cell_formula_units_Z   6
loop_
 _symmetry_equiv_pos_site_id
 _symmetry_equiv_pos_as_xyz
  1  'x, y, z'
loop_
 _atom_site_type_symbol
 _atom_site_label
 _atom_site_symmetry_multiplicity
 _atom_site_fract_x
 _atom_site_fract_y
 _atom_site_fract_z
 _atom_site_occupancy
  Cr  Cr0  1  0.88379751  0.88380023  0.50000208  1
  Cr  Cr1  1  0.61620037  0.11620118  -0.00000130  1
  Cr  Cr2  1  0.11620182  0.11620227  0.50000185  1
  Cr  Cr3  1  0.38379835  0.88380179  0.00000417  1
  Cr  Cr4  1  0.50000016  0.00000075  0.50000073  1
  Cr  Cr5  1  0.00000007  0.50000024  0.50000014  1
  P  P0  1  0.67654706  0.67654804  0.50000203  1
  P  P1  1  0.82345397  0.32345125  -0.00000206  1
  P  P2  1  0.32345316  0.32345191  0.49999755  1
  P  P3  1  0.17654559  0.67654831  0.00000130  1
  P  P4  1  0.74999894  0.16771027  0.41771138  1
  P  P5  1  0.25000127  0.83228963  0.58228825  1
  O  O0  1  0.65067851  0.19391167  0.54323449  1
  O  O1  1  0.84932042  0.39255348  0.54323275  1
  O  O2  1  0.34932197  0.80608804  0.45676552  1
  O  O3  1  0.15068009  0.60744641  0.45676704  1
  O  O4  1  0.91198654  0.19170928  0.83159189  1
  O  O5  1  0.58801509  0.41960936  0.27972523  1
  O  O6  1  0.63988262  0.80828889  0.72027543  1
  O  O7  1  0.86011641  0.58038905  0.16840371  1
  O  O8  1  0.08801344  0.80828893  0.16840651  1
  O  O9  1  0.41198444  0.58038988  0.72027357  1
  O  O10  1  0.36011707  0.19170997  0.27972332  1
  O  O11  1  0.13988433  0.41960995  0.83159486  1
  O  O12  1  0.37274269  0.97658701  0.84932670  1
  O  O13  1  0.12726007  0.97658617  0.60384478  1
  O  O14  1  0.87274064  0.02341443  0.39615606  1
  O  O15  1  0.62725697  0.02341343  0.15067334  1
  O  O16  1  0.14781767  0.72442836  0.85392230  1
  O  O17  1  0.35218074  0.20610010  0.57660522  1
  O  O18  1  0.12949367  0.27557109  0.42338886  1
  O  O19  1  0.37050472  0.79390049  0.14608101  1
  O  O20  1  0.85218234  0.27557106  0.14607655  1
  O  O21  1  0.64781979  0.79389971  0.42339524  1
  O  O22  1  0.87050635  0.72442837  0.57661099  1
  O  O23  1  0.62949516  0.20610002  0.85391850  1
loop_
_geom_bond_atom_site_label_1
_geom_bond_atom_site_label_2
_geom_bond_distance
_geom_bond_site_symmetry_2
Cr0 O4 1.946814 1_565
Cr0 O7 1.946870 1_555
Cr0 O21 1.998219 1_555
Cr0 O22 1.998242 1_555
Cr0 O14 2.009595 1_565
Cr0 O13 2.009615 1_655
Cr1 O6 1.946841 1_544
Cr1 O5 1.946844 1_555
Cr1 O23 1.998234 1_554
Cr1 O20 1.998251 1_555
Cr1 O12 2.009573 1_544
Cr1 O15 2.009612 1_555
Cr2 O11 1.946837 1_555
Cr2 O8 1.946847 1_545
Cr2 O17 1.998233 1_555
Cr2 O18 1.998250 1_555
Cr2 O13 2.009585 1_545
Cr2 O14 2.009600 1_455
Cr3 O10 1.946812 1_565
Cr3 O9 1.946871 1_554
Cr3 O19 1.998221 1_555
Cr3 O16 1.998243 1_554
Cr3 O15 2.009580 1_565
Cr3 O12 2.009618 1_554
Cr4 O0 1.968553 1_555
Cr4 O2 1.968555 1_545
Cr4 O23 1.985471 1_555
Cr4 O19 1.985482 1_545
Cr4 O17 1.985483 1_555
Cr4 O21 1.985492 1_545
Cr5 O1 1.968570 1_455
Cr5 O3 1.968573 1_555
Cr5 O16 1.985488 1_555
Cr5 O22 1.985492 1_455
Cr5 O20 1.985495 1_455
Cr5 O18 1.985496 1_555
O0 P4 1.509361 1_555
O1 P4 1.509377 1_555
O2 P5 1.509360 1_555
O3 P5 1.509376 1_555
O4 P1 1.493747 1_556
O5 P0 1.493757 1_555
O6 P0 1.493742 1_555
O7 P1 1.493754 1_555
O8 P3 1.493740 1_555
O9 P2 1.493752 1_555
O10 P2 1.493743 1_555
O11 P3 1.493756 1_556
O12 P5 1.569057 1_555
O13 P5 1.569055 1_555
O14 P4 1.569057 1_555
O15 P4 1.569057 1_555
O16 P3 1.592164 1_556
O17 P2 1.592172 1_555
O18 P2 1.592169 1_555
O19 P3 1.592169 1_555
O20 P1 1.592162 1_555
O21 P0 1.592164 1_555
O22 P0 1.592167 1_555
O23 P1 1.592165 1_556
