# generated using pymatgen
data_Ca2Al4Si8(W3O8)3
_symmetry_space_group_name_H-M   'P 1'
_cell_length_a   7.89696894
_cell_length_b   10.26257280
_cell_length_c   10.26257280
_cell_angle_alpha   83.97185231
_cell_angle_beta   73.82294679
_cell_angle_gamma   73.82294679
_symmetry_Int_Tables_number   1
_chemical_formula_structural   Ca2Al4Si8(W3O8)3
_chemical_formula_sum   'Ca2 Al4 Si8 W9 O24'
_cell_volume   766.81469733
_cell_formula_units_Z   1
loop_
 _symmetry_equiv_pos_site_id
 _symmetry_equiv_pos_as_xyz
  1  'x, y, z'
loop_
 _atom_site_type_symbol
 _atom_site_label
 _atom_site_symmetry_multiplicity
 _atom_site_fract_x
 _atom_site_fract_y
 _atom_site_fract_z
 _atom_site_occupancy
  Ca  Ca0  1  0.71430700  0.75068400  0.75068400  1
  Ca  Ca1  1  0.28569300  0.24931600  0.24931600  1
  Al  Al0  1  0.23847400  0.17305900  0.57011900  1
  Al  Al1  1  0.76152600  0.82694100  0.42988100  1
  Al  Al2  1  0.76152600  0.42988100  0.82694100  1
  Al  Al3  1  0.23847400  0.57011900  0.17305900  1
  Si  Si0  1  0.16017200  0.68821700  0.46336800  1
  Si  Si1  1  0.83982800  0.31178300  0.53663200  1
  Si  Si2  1  0.83982800  0.53663200  0.31178300  1
  Si  Si3  1  0.16017200  0.46336800  0.68821700  1
  Si  Si4  1  0.34683900  0.84538800  0.61413000  1
  Si  Si5  1  0.65316100  0.15461200  0.38587000  1
  Si  Si6  1  0.65316100  0.38587000  0.15461200  1
  Si  Si7  1  0.34683900  0.61413000  0.84538800  1
  W  W0  1  0.29560500  0.04664600  0.04664600  1
  W  W1  1  0.70439500  0.95335400  0.95335400  1
  W  W2  1  0.00000000  0.00000000  0.00000000  1
  W  W3  1  0.50000000  0.16382600  0.83617400  1
  W  W4  1  0.50000000  0.83617400  0.16382600  1
  W  W5  1  0.08222500  0.98918900  0.28518400  1
  W  W6  1  0.91777500  0.01081100  0.71481600  1
  W  W7  1  0.91777500  0.71481600  0.01081100  1
  W  W8  1  0.08222500  0.28518400  0.98918900  1
  O  O0  1  0.43602900  0.16285700  0.43332600  1
  O  O1  1  0.56397100  0.83714300  0.56667400  1
  O  O2  1  0.56397100  0.56667400  0.83714300  1
  O  O3  1  0.43602900  0.43332600  0.16285700  1
  O  O4  1  0.20395000  0.53697300  0.53697300  1
  O  O5  1  0.79605000  0.46302700  0.46302700  1
  O  O6  1  0.22823100  0.29871700  0.67747400  1
  O  O7  1  0.77176900  0.70128300  0.32252600  1
  O  O8  1  0.77176900  0.32252600  0.70128300  1
  O  O9  1  0.22823100  0.67747400  0.29871700  1
  O  O10  1  0.06096900  0.23984100  0.48478600  1
  O  O11  1  0.93903100  0.76015900  0.51521400  1
  O  O12  1  0.93903100  0.51521400  0.76015900  1
  O  O13  1  0.06096900  0.48478600  0.23984100  1
  O  O14  1  0.22504600  0.00489200  0.63254400  1
  O  O15  1  0.77495400  0.99510800  0.36745600  1
  O  O16  1  0.77495400  0.36745600  0.99510800  1
  O  O17  1  0.22504600  0.63254400  0.00489200  1
  O  O18  1  0.27928400  0.77729900  0.50706600  1
  O  O19  1  0.72071600  0.22270100  0.49293400  1
  O  O20  1  0.72071600  0.49293400  0.22270100  1
  O  O21  1  0.27928400  0.50706600  0.77729900  1
  O  O22  1  0.31831800  0.76019600  0.76019600  1
  O  O23  1  0.68168200  0.23980400  0.23980400  1
loop_
_geom_bond_atom_site_label_1
_geom_bond_atom_site_label_2
_geom_bond_distance
_geom_bond_site_symmetry_2
Ca0 O2 2.464382 1_555
Ca0 O1 2.464382 1_555
Ca0 O11 2.579848 1_555
Ca0 O12 2.579848 1_555
Ca0 W1 3.063561 1_555
Ca1 O3 2.464382 1_555
Ca1 O0 2.464382 1_555
Ca1 O13 2.579848 1_555
Ca1 O10 2.579848 1_555
Ca1 W0 3.063561 1_555
Al0 O6 1.753283 1_555
Al0 O0 1.770624 1_555
Al0 O10 1.795598 1_555
Al0 O14 1.797788 1_555
Al1 O7 1.753283 1_555
Al1 O1 1.770624 1_555
Al1 O11 1.795598 1_555
Al1 O15 1.797788 1_555
Al2 O8 1.753283 1_555
Al2 O2 1.770624 1_555
Al2 O12 1.795598 1_555
Al2 O16 1.797788 1_555
Al3 O9 1.753283 1_555
Al3 O3 1.770624 1_555
Al3 O13 1.795598 1_555
Al3 O17 1.797788 1_555
W0 W2 2.683497 1_555
W1 W2 2.683497 1_666
W2 W6 3.154397 1_454
W2 W5 3.154397 1_545
W2 W8 3.154397 1_554
W2 W7 3.154397 1_445
O0 Si5 1.626955 1_555
O1 Si4 1.626955 1_555
O2 Si7 1.626955 1_555
O3 Si6 1.626955 1_555
O4 Si0 1.643029 1_555
O4 Si3 1.643029 1_555
O5 Si1 1.643029 1_555
O5 Si2 1.643029 1_555
O6 Si3 1.629821 1_555
O7 Si2 1.629821 1_555
O8 Si1 1.629821 1_555
O9 Si0 1.629821 1_555
O10 Si1 1.650526 1_455
O11 Si0 1.650526 1_655
O12 Si3 1.650526 1_655
O13 Si2 1.650526 1_455
O14 Si4 1.651273 1_545
O14 W6 2.321975 1_455
O15 Si5 1.651273 1_565
O15 W5 2.321975 1_655
O16 Si6 1.651273 1_556
O16 W8 2.321975 1_655
O17 Si7 1.651273 1_554
O17 W7 2.321975 1_455
O18 Si4 1.635765 1_555
O18 Si0 1.649844 1_555
O19 Si5 1.635765 1_555
O19 Si1 1.649844 1_555
O20 Si6 1.635765 1_555
O20 Si2 1.649844 1_555
O21 Si7 1.635765 1_555
O21 Si3 1.649844 1_555
O22 Si4 1.645747 1_555
O22 Si7 1.645747 1_555
O23 Si6 1.645747 1_555
O23 Si5 1.645747 1_555
