# generated using pymatgen
data_MgMnF6
_symmetry_space_group_name_H-M   'P 1'
_cell_length_a   5.23554519
_cell_length_b   5.23530689
_cell_length_c   5.23563207
_cell_angle_alpha   56.17755798
_cell_angle_beta   56.17353935
_cell_angle_gamma   56.17493416
_symmetry_Int_Tables_number   1
_chemical_formula_structural   MgMnF6
_chemical_formula_sum   'Mg1 Mn1 F6'
_cell_volume   92.49068941
_cell_formula_units_Z   1
loop_
 _symmetry_equiv_pos_site_id
 _symmetry_equiv_pos_as_xyz
  1  'x, y, z'
loop_
 _atom_site_type_symbol
 _atom_site_label
 _atom_site_symmetry_multiplicity
 _atom_site_fract_x
 _atom_site_fract_y
 _atom_site_fract_z
 _atom_site_occupancy
  Mg  Mg0  1  0.50000000  0.50000000  0.50000000  1
  Mn  Mn0  1  -0.00000000  -0.00000000  -0.00000000  1
  F  F0  1  0.64049973  0.88528369  0.23561299  1
  F  F1  1  0.88528217  0.23563969  0.64044579  1
  F  F2  1  0.76441917  0.35947850  0.11467780  1
  F  F3  1  0.11471783  0.76436031  0.35955421  1
  F  F4  1  0.35950027  0.11471631  0.76438701  1
  F  F5  1  0.23558083  0.64052150  0.88532220  1
loop_
_geom_bond_atom_site_label_1
_geom_bond_atom_site_label_2
_geom_bond_distance
_geom_bond_site_symmetry_2
F0 Mn0 1.809343 1_665
F0 Mg0 1.983870 1_555
F1 Mn0 1.809694 1_656
F1 Mg0 1.983800 1_555
F2 Mn0 1.809081 1_655
F2 Mg0 1.984076 1_555
F3 Mn0 1.809694 1_565
F3 Mg0 1.983800 1_555
F4 Mn0 1.809343 1_556
F4 Mg0 1.983870 1_555
F5 Mn0 1.809081 1_566
F5 Mg0 1.984076 1_555
