# generated using pymatgen
data_Rb2Co2(MoO4)3
_symmetry_space_group_name_H-M   'P 1'
_cell_length_a   10.92088600
_cell_length_b   10.92088600
_cell_length_c   10.92088600
_cell_angle_alpha   90.00000000
_cell_angle_beta   90.00000000
_cell_angle_gamma   90.00000000
_symmetry_Int_Tables_number   1
_chemical_formula_structural   Rb2Co2(MoO4)3
_chemical_formula_sum   'Rb8 Co8 Mo12 O48'
_cell_volume   1302.48767065
_cell_formula_units_Z   4
loop_
 _symmetry_equiv_pos_site_id
 _symmetry_equiv_pos_as_xyz
  1  'x, y, z'
loop_
 _atom_site_type_symbol
 _atom_site_label
 _atom_site_symmetry_multiplicity
 _atom_site_fract_x
 _atom_site_fract_y
 _atom_site_fract_z
 _atom_site_occupancy
  Rb  Rb0  1  0.05122500  0.05122500  0.05122500  1
  Rb  Rb1  1  0.44877500  0.94877500  0.55122500  1
  Rb  Rb2  1  0.94877500  0.55122500  0.44877500  1
  Rb  Rb3  1  0.55122500  0.44877500  0.94877500  1
  Rb  Rb4  1  0.81816600  0.81816600  0.81816600  1
  Rb  Rb5  1  0.68183400  0.18183400  0.31816600  1
  Rb  Rb6  1  0.18183400  0.31816600  0.68183400  1
  Rb  Rb7  1  0.31816600  0.68183400  0.18183400  1
  Co  Co0  1  0.33694900  0.33694900  0.33694900  1
  Co  Co1  1  0.16305100  0.66305100  0.83694900  1
  Co  Co2  1  0.66305100  0.83694900  0.16305100  1
  Co  Co3  1  0.83694900  0.16305100  0.66305100  1
  Co  Co4  1  0.60356000  0.60356000  0.60356000  1
  Co  Co5  1  0.89644000  0.39644000  0.10356000  1
  Co  Co6  1  0.39644000  0.10356000  0.89644000  1
  Co  Co7  1  0.10356000  0.89644000  0.39644000  1
  Mo  Mo0  1  0.02158900  0.21259400  0.37620100  1
  Mo  Mo1  1  0.47841100  0.78740600  0.87620100  1
  Mo  Mo2  1  0.97841100  0.71259400  0.12379900  1
  Mo  Mo3  1  0.37620100  0.02158900  0.21259400  1
  Mo  Mo4  1  0.52158900  0.28740600  0.62379900  1
  Mo  Mo5  1  0.87620100  0.47841100  0.78740600  1
  Mo  Mo6  1  0.12379900  0.97841100  0.71259400  1
  Mo  Mo7  1  0.62379900  0.52158900  0.28740600  1
  Mo  Mo8  1  0.21259400  0.37620100  0.02158900  1
  Mo  Mo9  1  0.71259400  0.12379900  0.97841100  1
  Mo  Mo10  1  0.28740600  0.62379900  0.52158900  1
  Mo  Mo11  1  0.78740600  0.87620100  0.47841100  1
  O  O0  1  0.01585800  0.05494900  0.32779800  1
  O  O1  1  0.48414200  0.94505100  0.82779800  1
  O  O2  1  0.98414200  0.55494900  0.17220200  1
  O  O3  1  0.32779800  0.01585800  0.05494900  1
  O  O4  1  0.51585800  0.44505100  0.67220200  1
  O  O5  1  0.82779800  0.48414200  0.94505100  1
  O  O6  1  0.17220200  0.98414200  0.55494900  1
  O  O7  1  0.67220200  0.51585800  0.44505100  1
  O  O8  1  0.05494900  0.32779800  0.01585800  1
  O  O9  1  0.55494900  0.17220200  0.98414200  1
  O  O10  1  0.44505100  0.67220200  0.51585800  1
  O  O11  1  0.94505100  0.82779800  0.48414200  1
  O  O12  1  0.26882500  0.48536400  0.43418900  1
  O  O13  1  0.23117500  0.51463600  0.93418900  1
  O  O14  1  0.73117500  0.98536400  0.06581100  1
  O  O15  1  0.43418900  0.26882500  0.48536400  1
  O  O16  1  0.76882500  0.01463600  0.56581100  1
  O  O17  1  0.93418900  0.23117500  0.51463600  1
  O  O18  1  0.06581100  0.73117500  0.98536400  1
  O  O19  1  0.56581100  0.76882500  0.01463600  1
  O  O20  1  0.48536400  0.43418900  0.26882500  1
  O  O21  1  0.98536400  0.06581100  0.73117500  1
  O  O22  1  0.01463600  0.56581100  0.76882500  1
  O  O23  1  0.51463600  0.93418900  0.23117500  1
  O  O24  1  0.04929500  0.80858000  0.23750400  1
  O  O25  1  0.45070500  0.19142000  0.73750400  1
  O  O26  1  0.95070500  0.30858000  0.26249600  1
  O  O27  1  0.23750400  0.04929500  0.80858000  1
  O  O28  1  0.54929500  0.69142000  0.76249600  1
  O  O29  1  0.73750400  0.45070500  0.19142000  1
  O  O30  1  0.26249600  0.95070500  0.30858000  1
  O  O31  1  0.76249600  0.54929500  0.69142000  1
  O  O32  1  0.80858000  0.23750400  0.04929500  1
  O  O33  1  0.30858000  0.26249600  0.95070500  1
  O  O34  1  0.69142000  0.76249600  0.54929500  1
  O  O35  1  0.19142000  0.73750400  0.45070500  1
  O  O36  1  0.17655000  0.25964600  0.40189600  1
  O  O37  1  0.32345000  0.74035400  0.90189600  1
  O  O38  1  0.82345000  0.75964600  0.09810400  1
  O  O39  1  0.40189600  0.17655000  0.25964600  1
  O  O40  1  0.67655000  0.24035400  0.59810400  1
  O  O41  1  0.90189600  0.32345000  0.74035400  1
  O  O42  1  0.09810400  0.82345000  0.75964600  1
  O  O43  1  0.59810400  0.67655000  0.24035400  1
  O  O44  1  0.25964600  0.40189600  0.17655000  1
  O  O45  1  0.75964600  0.09810400  0.82345000  1
  O  O46  1  0.24035400  0.59810400  0.67655000  1
  O  O47  1  0.74035400  0.90189600  0.32345000  1
loop_
_geom_bond_atom_site_label_1
_geom_bond_atom_site_label_2
_geom_bond_distance
_geom_bond_site_symmetry_2
Co0 O39 2.069838 1_555
Co0 O44 2.069838 1_555
Co0 O36 2.069838 1_555
Co0 O12 2.075644 1_555
Co0 O20 2.075644 1_555
Co0 O15 2.075644 1_555
Co1 O37 2.069838 1_555
Co1 O46 2.069838 1_555
Co1 O42 2.069838 1_555
Co1 O13 2.075644 1_555
Co1 O22 2.075644 1_555
Co1 O18 2.075644 1_555
Co2 O47 2.069838 1_555
Co2 O38 2.069838 1_555
Co2 O43 2.069838 1_555
Co2 O23 2.075644 1_555
Co2 O19 2.075644 1_555
Co2 O14 2.075644 1_555
Co3 O41 2.069838 1_555
Co3 O40 2.069838 1_555
Co3 O45 2.069838 1_555
Co3 O17 2.075644 1_555
Co3 O16 2.075644 1_555
Co3 O21 2.075644 1_555
Co4 O31 2.069925 1_555
Co4 O28 2.069925 1_555
Co4 O34 2.069925 1_555
Co4 O7 2.115623 1_555
Co4 O4 2.115623 1_555
Co4 O10 2.115623 1_555
Co5 O29 2.069925 1_555
Co5 O26 2.069925 1_555
Co5 O32 2.069925 1_555
Co5 O8 2.115623 1_655
Co5 O2 2.115623 1_555
Co5 O5 2.115623 1_554
Co6 O25 2.069925 1_555
Co6 O27 2.069925 1_555
Co6 O33 2.069925 1_555
Co6 O3 2.115623 1_556
Co6 O9 2.115623 1_555
Co6 O1 2.115623 1_545
Co7 O35 2.069925 1_555
Co7 O30 2.069925 1_555
Co7 O24 2.069925 1_555
Co7 O0 2.115623 1_565
Co7 O6 2.115623 1_555
Co7 O11 2.115623 1_455
Mo0 O36 1.790727 1_555
Mo0 O17 1.799405 1_455
Mo0 O26 1.800015 1_455
Mo0 O0 1.802034 1_555
Mo1 O37 1.790727 1_555
Mo1 O19 1.799405 1_556
Mo1 O28 1.800015 1_555
Mo1 O1 1.802034 1_555
Mo2 O38 1.790727 1_555
Mo2 O18 1.799405 1_654
Mo2 O24 1.800015 1_655
Mo2 O2 1.802034 1_555
Mo3 O39 1.790727 1_555
Mo3 O23 1.799405 1_545
Mo3 O30 1.800015 1_545
Mo3 O3 1.802034 1_555
Mo4 O40 1.790727 1_555
Mo4 O15 1.799405 1_555
Mo4 O25 1.800015 1_555
Mo4 O4 1.802034 1_555
Mo5 O41 1.790727 1_555
Mo5 O22 1.799405 1_655
Mo5 O31 1.800015 1_555
Mo5 O5 1.802034 1_555
Mo6 O42 1.790727 1_555
Mo6 O21 1.799405 1_465
Mo6 O27 1.800015 1_565
Mo6 O6 1.802034 1_555
Mo7 O43 1.790727 1_555
Mo7 O20 1.799405 1_555
Mo7 O29 1.800015 1_555
Mo7 O7 1.802034 1_555
Mo8 O44 1.790727 1_555
Mo8 O13 1.799405 1_554
Mo8 O33 1.800015 1_554
Mo8 O8 1.802034 1_555
Mo9 O45 1.790727 1_555
Mo9 O14 1.799405 1_546
Mo9 O32 1.800015 1_556
Mo9 O9 1.802034 1_555
Mo10 O46 1.790727 1_555
Mo10 O12 1.799405 1_555
Mo10 O35 1.800015 1_555
Mo10 O10 1.802034 1_555
Mo11 O47 1.790727 1_555
Mo11 O16 1.799405 1_565
Mo11 O34 1.800015 1_555
Mo11 O11 1.802034 1_555
O0 Rb0 3.045289 1_555
O1 Rb1 3.045289 1_555
O2 Rb2 3.045289 1_555
O3 Rb0 3.045289 1_555
O4 Rb3 3.045289 1_555
O5 Rb3 3.045289 1_555
O6 Rb1 3.045289 1_555
O7 Rb2 3.045289 1_555
O8 Rb0 3.045289 1_555
O9 Rb3 3.045289 1_555
O10 Rb1 3.045289 1_555
O11 Rb2 3.045289 1_555
O12 Rb6 3.398671 1_555
O12 Rb7 3.534017 1_555
O12 Rb2 3.572022 1_455
O13 Rb7 3.398671 1_556
O13 Rb6 3.534017 1_555
O13 Rb3 3.572022 1_555
O14 Rb4 3.398671 1_554
O14 Rb5 3.534017 1_565
O14 Rb0 3.572022 1_665
O15 Rb5 3.398671 1_555
O15 Rb6 3.534017 1_555
O15 Rb1 3.572022 1_545
O16 Rb5 3.398671 1_555
O16 Rb4 3.534017 1_545
O16 Rb1 3.572022 1_545
O17 Rb6 3.398671 1_655
O17 Rb5 3.534017 1_555
O17 Rb2 3.572022 1_555
O18 Rb4 3.398671 1_455
O18 Rb7 3.534017 1_556
O18 Rb0 3.572022 1_566
O19 Rb7 3.398671 1_555
O19 Rb4 3.534017 1_554
O19 Rb3 3.572022 1_554
O20 Rb7 3.398671 1_555
O20 Rb5 3.534017 1_555
O20 Rb3 3.572022 1_554
O21 Rb4 3.398671 1_545
O21 Rb6 3.534017 1_655
O21 Rb0 3.572022 1_656
O22 Rb6 3.398671 1_555
O22 Rb4 3.534017 1_455
O22 Rb2 3.572022 1_455
O23 Rb5 3.398671 1_565
O23 Rb7 3.534017 1_555
O23 Rb1 3.572022 1_555
O24 Rb7 3.302648 1_555
O24 Rb0 3.340795 1_565
O25 Rb6 3.302648 1_555
O25 Rb1 3.340795 1_545
O26 Rb5 3.302648 1_555
O26 Rb2 3.340795 1_555
O27 Rb6 3.302648 1_555
O27 Rb0 3.340795 1_556
O28 Rb4 3.302648 1_555
O28 Rb3 3.340795 1_555
O29 Rb5 3.302648 1_555
O29 Rb3 3.340795 1_554
O30 Rb7 3.302648 1_555
O30 Rb1 3.340795 1_555
O31 Rb4 3.302648 1_555
O31 Rb2 3.340795 1_555
O32 Rb5 3.302648 1_555
O32 Rb0 3.340795 1_655
O33 Rb6 3.302648 1_555
O33 Rb3 3.340795 1_555
O34 Rb4 3.302648 1_555
O34 Rb1 3.340795 1_555
O35 Rb7 3.302648 1_555
O35 Rb2 3.340795 1_455
O36 Rb6 3.123789 1_555
O37 Rb7 3.123789 1_556
O38 Rb4 3.123789 1_554
O39 Rb5 3.123789 1_555
O40 Rb5 3.123789 1_555
O41 Rb6 3.123789 1_655
O42 Rb4 3.123789 1_455
O43 Rb7 3.123789 1_555
O44 Rb7 3.123789 1_555
O45 Rb4 3.123789 1_545
O46 Rb6 3.123789 1_555
O47 Rb5 3.123789 1_565
