# generated using pymatgen
data_Mg14SiMo
_symmetry_space_group_name_H-M   'P 1'
_cell_length_a   6.19897535
_cell_length_b   6.19897488
_cell_length_c   10.00896731
_cell_angle_alpha   90.00000000
_cell_angle_beta   90.00000000
_cell_angle_gamma   120.00000254
_symmetry_Int_Tables_number   1
_chemical_formula_structural   Mg14SiMo
_chemical_formula_sum   'Mg14 Si1 Mo1'
_cell_volume   333.08852976
_cell_formula_units_Z   1
loop_
 _symmetry_equiv_pos_site_id
 _symmetry_equiv_pos_as_xyz
  1  'x, y, z'
loop_
 _atom_site_type_symbol
 _atom_site_label
 _atom_site_symmetry_multiplicity
 _atom_site_fract_x
 _atom_site_fract_y
 _atom_site_fract_z
 _atom_site_occupancy
  Mg  Mg0  1  0.16550434  0.83275167  0.12500000  1
  Mg  Mg1  1  0.16777366  0.83388633  0.62500000  1
  Mg  Mg2  1  0.66724833  0.33449566  0.12500000  1
  Mg  Mg3  1  0.66611367  0.33222634  0.62500000  1
  Mg  Mg4  1  0.66724833  0.83275167  0.12500000  1
  Mg  Mg5  1  0.66611367  0.83388633  0.62500000  1
  Mg  Mg6  1  0.32702096  0.17297904  0.37786703  1
  Mg  Mg7  1  0.32702096  0.17297904  0.87213297  1
  Mg  Mg8  1  0.32702096  0.65404293  0.37786703  1
  Mg  Mg9  1  0.32702096  0.65404293  0.87213297  1
  Mg  Mg10  1  0.84595707  0.17297904  0.37786703  1
  Mg  Mg11  1  0.84595707  0.17297904  0.87213297  1
  Mg  Mg12  1  0.83333300  0.66666700  0.37747030  1
  Mg  Mg13  1  0.83333300  0.66666700  0.87252970  1
  Si  Si0  1  0.16666700  0.33333300  0.12500000  1
  Mo  Mo0  1  0.16666700  0.33333300  0.62500000  1
loop_
_geom_bond_atom_site_label_1
_geom_bond_atom_site_label_2
_geom_bond_distance
_geom_bond_site_symmetry_2
Mg0 Mg2 3.088676 1_455
Mg0 Mg4 3.088677 1_455
Mg0 Mg12 3.092822 1_455
Mg0 Mg13 3.092822 1_454
Mg0 Si0 3.099494 1_565
Mg0 Si0 3.099494 1_555
Mg0 Mg2 3.110298 1_565
Mg0 Mg4 3.110299 1_555
Mg0 Mg8 3.121626 1_555
Mg0 Mg9 3.121626 1_554
Mg0 Mg6 3.121633 1_565
Mg0 Mg7 3.121633 1_564
Mg1 Mg13 3.059685 1_455
Mg1 Mg12 3.059685 1_455
Mg1 Mg9 3.071865 1_555
Mg1 Mg8 3.071865 1_555
Mg1 Mg6 3.071871 1_565
Mg1 Mg7 3.071871 1_565
Mg1 Mg3 3.089197 1_565
Mg1 Mg5 3.089197 1_555
Mg1 Mo0 3.099493 1_555
Mg1 Mo0 3.099493 1_565
Mg1 Mg3 3.109778 1_455
Mg1 Mg5 3.109778 1_455
Mg2 Mg4 3.088676 1_555
Mg2 Si0 3.099494 1_555
Mg2 Si0 3.099494 1_655
Mg2 Mg4 3.110298 1_545
Mg2 Mg6 3.121633 1_555
Mg2 Mg7 3.121633 1_554
Mg3 Mg6 3.071871 1_555
Mg3 Mg7 3.071871 1_555
Mg3 Mg5 3.089197 1_545
Mg3 Mo0 3.099493 1_655
Mg3 Mo0 3.099493 1_555
Mg3 Mg5 3.109778 1_555
Mg4 Si0 3.099494 1_665
Mg4 Si0 3.099494 1_555
Mg4 Mg8 3.121632 1_555
Mg4 Mg9 3.121632 1_554
Mg5 Mg8 3.071871 1_555
Mg5 Mg9 3.071871 1_555
Mg5 Mo0 3.099493 1_555
Mg5 Mo0 3.099493 1_665
Mg6 Mo0 3.013755 1_555
Mg6 Si0 3.061035 1_555
Mg7 Mo0 3.013755 1_555
Mg7 Si0 3.061035 1_556
Mg8 Mo0 3.013761 1_555
Mg8 Si0 3.061041 1_555
Mg9 Mo0 3.013761 1_555
Mg9 Si0 3.061041 1_556
Mg10 Mo0 3.013761 1_655
Mg10 Si0 3.061041 1_655
Mg10 Mg3 3.071865 1_555
Mg10 Mg5 3.071871 1_545
Mg10 Mg12 3.100231 1_555
Mg10 Mg12 3.100231 1_545
Mg10 Mg2 3.121626 1_555
Mg10 Mg4 3.121632 1_545
Mg11 Mo0 3.013761 1_655
Mg11 Si0 3.061041 1_656
Mg11 Mg3 3.071865 1_555
Mg11 Mg5 3.071871 1_545
Mg11 Mg13 3.100231 1_555
Mg11 Mg13 3.100231 1_545
Mg11 Mg2 3.121626 1_556
Mg11 Mg4 3.121632 1_546
Mg12 Mg5 3.059679 1_555
Mg12 Mg3 3.059685 1_555
Mg12 Mg4 3.092816 1_555
Mg12 Mg2 3.092822 1_555
Mg12 Mg6 3.100231 1_665
Mg12 Mg6 3.100231 1_555
Mg12 Mg8 3.100231 1_655
Mg12 Mg8 3.100231 1_555
Mg13 Mg5 3.059679 1_555
Mg13 Mg3 3.059685 1_555
Mg13 Mg4 3.092816 1_556
Mg13 Mg2 3.092822 1_556
Mg13 Mg7 3.100231 1_665
Mg13 Mg7 3.100231 1_555
Mg13 Mg9 3.100231 1_655
Mg13 Mg9 3.100231 1_555
