# generated using pymatgen
data_PuB4Ru
_symmetry_space_group_name_H-M   'P 1'
_cell_length_a   5.98231200
_cell_length_b   11.58771800
_cell_length_c   3.52594700
_cell_angle_alpha   90.00000000
_cell_angle_beta   90.00000000
_cell_angle_gamma   90.00000000
_symmetry_Int_Tables_number   1
_chemical_formula_structural   PuB4Ru
_chemical_formula_sum   'Pu4 B16 Ru4'
_cell_volume   244.42338648
_cell_formula_units_Z   4
loop_
 _symmetry_equiv_pos_site_id
 _symmetry_equiv_pos_as_xyz
  1  'x, y, z'
loop_
 _atom_site_type_symbol
 _atom_site_label
 _atom_site_symmetry_multiplicity
 _atom_site_fract_x
 _atom_site_fract_y
 _atom_site_fract_z
 _atom_site_occupancy
  Pu  Pu0  1  0.62655800  0.35001700  0.00000000  1
  Pu  Pu1  1  0.37344200  0.64998300  0.00000000  1
  Pu  Pu2  1  0.12655800  0.14998300  0.00000000  1
  Pu  Pu3  1  0.87344200  0.85001700  0.00000000  1
  B  B0  1  0.78539600  0.18684000  0.50000000  1
  B  B1  1  0.21460400  0.81316000  0.50000000  1
  B  B2  1  0.28539600  0.31316000  0.50000000  1
  B  B3  1  0.71460400  0.68684000  0.50000000  1
  B  B4  1  0.86522300  0.03226100  0.50000000  1
  B  B5  1  0.13477700  0.96773900  0.50000000  1
  B  B6  1  0.36522300  0.46773900  0.50000000  1
  B  B7  1  0.63477700  0.53226100  0.50000000  1
  B  B8  1  0.88540000  0.45386200  0.50000000  1
  B  B9  1  0.11460000  0.54613800  0.50000000  1
  B  B10  1  0.38540000  0.04613800  0.50000000  1
  B  B11  1  0.61460000  0.95386200  0.50000000  1
  B  B12  1  0.97166000  0.30888800  0.50000000  1
  B  B13  1  0.02834000  0.69111200  0.50000000  1
  B  B14  1  0.47166000  0.19111200  0.50000000  1
  B  B15  1  0.52834000  0.80888800  0.50000000  1
  Ru  Ru0  1  0.63725900  0.09172600  0.00000000  1
  Ru  Ru1  1  0.36274100  0.90827400  0.00000000  1
  Ru  Ru2  1  0.13725900  0.40827400  0.00000000  1
  Ru  Ru3  1  0.86274100  0.59172600  0.00000000  1
loop_
_geom_bond_atom_site_label_1
_geom_bond_atom_site_label_2
_geom_bond_distance
_geom_bond_site_symmetry_2
Pu0 Ru0 2.993688 1_555
Pu0 Ru2 3.003974 1_555
Pu0 Ru2 3.128865 1_655
Pu0 Ru3 3.137059 1_555
Pu1 Ru1 2.993688 1_555
Pu1 Ru3 3.003974 1_555
Pu1 Ru3 3.128865 1_455
Pu1 Ru2 3.137059 1_555
Pu2 Ru2 2.993688 1_555
Pu2 Ru0 3.003974 1_455
Pu2 Ru0 3.128865 1_555
Pu2 Ru1 3.137059 1_545
Pu3 Ru3 2.993688 1_555
Pu3 Ru1 3.003974 1_655
Pu3 Ru1 3.128865 1_555
Pu3 Ru0 3.137059 1_565
B0 B12 1.800490 1_555
B0 B4 1.853784 1_555
B0 B14 1.877519 1_555
B0 Ru0 2.260127 1_556
B0 Ru0 2.260127 1_555
B0 Pu2 2.730551 1_656
B0 Pu2 2.730551 1_655
B0 Pu0 2.754324 1_556
B0 Pu0 2.754324 1_555
B1 B13 1.800490 1_555
B1 B5 1.853784 1_555
B1 B15 1.877519 1_555
B1 Ru1 2.260127 1_556
B1 Ru1 2.260127 1_555
B1 Pu3 2.730551 1_455
B1 Pu3 2.730551 1_456
B1 Pu1 2.754324 1_556
B1 Pu1 2.754324 1_555
B2 B6 1.853784 1_555
B2 Ru2 2.260127 1_555
B2 Ru2 2.260127 1_556
B2 Pu0 2.730551 1_555
B2 Pu0 2.730551 1_556
B2 Pu2 2.754324 1_555
B2 Pu2 2.754324 1_556
B3 B7 1.853784 1_555
B3 Ru3 2.260127 1_555
B3 Ru3 2.260127 1_556
B3 Pu1 2.730551 1_556
B3 Pu1 2.730551 1_555
B3 Pu3 2.754324 1_556
B3 Pu3 2.754324 1_555
B4 B5 1.777452 1_645
B4 Ru0 2.332960 1_556
B4 Ru0 2.332960 1_555
B4 Pu2 2.722702 1_656
B4 Pu2 2.722702 1_655
B4 Pu3 2.751392 1_546
B4 Pu3 2.751392 1_545
B5 Ru1 2.332960 1_556
B5 Ru1 2.332960 1_555
B5 Pu3 2.722702 1_456
B5 Pu3 2.722702 1_455
B5 Pu2 2.751392 1_565
B5 Pu2 2.751392 1_566
B6 B9 1.753062 1_555
B6 B7 1.777452 1_555
B6 Ru2 2.332960 1_555
B6 Ru2 2.332960 1_556
B6 Pu0 2.722702 1_555
B6 Pu0 2.722702 1_556
B6 Pu1 2.751392 1_556
B6 Pu1 2.751392 1_555
B7 B8 1.753062 1_555
B7 Ru3 2.332960 1_555
B7 Ru3 2.332960 1_556
B7 Pu1 2.722702 1_555
B7 Pu1 2.722702 1_556
B7 Pu0 2.751392 1_556
B7 Pu0 2.751392 1_555
B8 B9 1.738786 1_655
B8 Ru2 2.378503 1_656
B8 Ru2 2.378503 1_655
B8 Ru3 2.382971 1_556
B8 Ru3 2.382971 1_555
B8 Pu0 2.637014 1_555
B8 Pu0 2.637014 1_556
B9 Ru3 2.378503 1_455
B9 Ru3 2.378503 1_456
B9 Ru2 2.382971 1_556
B9 Ru2 2.382971 1_555
B9 Pu1 2.637014 1_556
B9 Pu1 2.637014 1_555
B10 B11 1.738786 1_545
B10 B5 1.753062 1_545
B10 B14 1.757389 1_555
B10 Ru0 2.378503 1_556
B10 Ru0 2.378503 1_555
B10 Ru1 2.382971 1_545
B10 Ru1 2.382971 1_546
B10 Pu2 2.637014 1_555
B10 Pu2 2.637014 1_556
B11 B4 1.753062 1_565
B11 B15 1.757389 1_555
B11 Ru1 2.378503 1_556
B11 Ru1 2.378503 1_555
B11 Ru0 2.382971 1_565
B11 Ru0 2.382971 1_566
B11 Pu3 2.637014 1_555
B11 Pu3 2.637014 1_556
B12 B8 1.757389 1_555
B12 B2 1.877519 1_655
B12 Ru2 2.327188 1_655
B12 Ru2 2.327188 1_656
B12 Pu2 2.712436 1_656
B12 Pu2 2.712436 1_655
B12 Pu0 2.756339 1_556
B12 Pu0 2.756339 1_555
B13 B9 1.757389 1_555
B13 B3 1.877519 1_455
B13 Ru3 2.327188 1_456
B13 Ru3 2.327188 1_455
B13 Pu3 2.712436 1_456
B13 Pu3 2.712436 1_455
B13 Pu1 2.756339 1_555
B13 Pu1 2.756339 1_556
B14 B2 1.800490 1_555
B14 Ru0 2.327188 1_556
B14 Ru0 2.327188 1_555
B14 Pu0 2.712436 1_556
B14 Pu0 2.712436 1_555
B14 Pu2 2.756339 1_555
B14 Pu2 2.756339 1_556
B15 B3 1.800490 1_555
B15 Ru1 2.327188 1_555
B15 Ru1 2.327188 1_556
B15 Pu1 2.712436 1_556
B15 Pu1 2.712436 1_555
B15 Pu3 2.756339 1_555
B15 Pu3 2.756339 1_556
