# generated using pymatgen
data_Pr(BrO2)3
_symmetry_space_group_name_H-M   'P 1'
_cell_length_a   6.41471500
_cell_length_b   6.18766426
_cell_length_c   11.14313386
_cell_angle_alpha   76.17385121
_cell_angle_beta   90.00000000
_cell_angle_gamma   90.00000000
_symmetry_Int_Tables_number   1
_chemical_formula_structural   Pr(BrO2)3
_chemical_formula_sum   'Pr2 Br6 O12'
_cell_volume   429.47907331
_cell_formula_units_Z   2
loop_
 _symmetry_equiv_pos_site_id
 _symmetry_equiv_pos_as_xyz
  1  'x, y, z'
loop_
 _atom_site_type_symbol
 _atom_site_label
 _atom_site_symmetry_multiplicity
 _atom_site_fract_x
 _atom_site_fract_y
 _atom_site_fract_z
 _atom_site_occupancy
  Pr  Pr0  1  0.68438400  0.75000000  0.75000000  1
  Pr  Pr1  1  0.31561600  0.25000000  0.25000000  1
  Br  Br0  1  0.07779000  0.25000000  0.75000000  1
  Br  Br1  1  0.92221000  0.75000000  0.25000000  1
  Br  Br2  1  0.19721300  0.76701900  0.55232400  1
  Br  Br3  1  0.80278700  0.23298100  0.44767600  1
  Br  Br4  1  0.19721300  0.73298100  0.94767600  1
  Br  Br5  1  0.80278700  0.26701900  0.05232400  1
  O  O0  1  0.91725600  0.48189200  0.69534300  1
  O  O1  1  0.08274400  0.51810800  0.30465700  1
  O  O2  1  0.91725600  0.01810800  0.80465700  1
  O  O3  1  0.08274400  0.98189200  0.19534300  1
  O  O4  1  0.72813700  0.98528100  0.55005900  1
  O  O5  1  0.27186300  0.01471900  0.44994100  1
  O  O6  1  0.72813700  0.51471900  0.94994100  1
  O  O7  1  0.27186300  0.48528100  0.05005900  1
  O  O8  1  0.41319300  0.63113000  0.63589100  1
  O  O9  1  0.58680700  0.36887000  0.36410900  1
  O  O10  1  0.41319300  0.86887000  0.86410900  1
  O  O11  1  0.58680700  0.13113000  0.13589100  1
loop_
_geom_bond_atom_site_label_1
_geom_bond_atom_site_label_2
_geom_bond_distance
_geom_bond_site_symmetry_2
Br0 O2 1.752870 1_455
Br0 O0 1.752870 1_455
Br1 O3 1.752870 1_655
Br1 O1 1.752870 1_655
Br2 O5 1.744781 1_565
Br2 O8 1.766176 1_555
Br3 O4 1.744781 1_545
Br3 O9 1.766176 1_555
Br4 O7 1.744781 1_556
Br4 O10 1.766176 1_555
Br5 O6 1.744781 1_554
Br5 O11 1.766176 1_555
O0 Pr0 2.416088 1_555
O1 Pr1 2.416088 1_555
O2 Pr0 2.416088 1_545
O3 Pr1 2.416088 1_565
O4 Pr0 2.368927 1_555
O5 Pr1 2.368927 1_555
O6 Pr0 2.368927 1_555
O7 Pr1 2.368927 1_555
O8 Pr0 2.372984 1_555
O9 Pr1 2.372984 1_555
O10 Pr0 2.372984 1_555
O11 Pr1 2.372984 1_555
