# generated using pymatgen
data_CrFeSi2
_symmetry_space_group_name_H-M   'P 1'
_cell_length_a   4.50016600
_cell_length_b   4.53263900
_cell_length_c   4.54243257
_cell_angle_alpha   89.12180410
_cell_angle_beta   90.00000000
_cell_angle_gamma   90.00000000
_symmetry_Int_Tables_number   1
_chemical_formula_structural   CrFeSi2
_chemical_formula_sum   'Cr2 Fe2 Si4'
_cell_volume   92.64396584
_cell_formula_units_Z   2
loop_
 _symmetry_equiv_pos_site_id
 _symmetry_equiv_pos_as_xyz
  1  'x, y, z'
loop_
 _atom_site_type_symbol
 _atom_site_label
 _atom_site_symmetry_multiplicity
 _atom_site_fract_x
 _atom_site_fract_y
 _atom_site_fract_z
 _atom_site_occupancy
  Cr  Cr0  1  0.63748700  0.63007600  0.89438100  1
  Cr  Cr1  1  0.13748700  0.36992400  0.10561900  1
  Fe  Fe0  1  0.36213900  0.85878500  0.38575100  1
  Fe  Fe1  1  0.86213900  0.14121500  0.61424900  1
  Si  Si0  1  0.34562500  0.33607800  0.59099000  1
  Si  Si1  1  0.84562500  0.66392200  0.40901000  1
  Si  Si2  1  0.65474900  0.14500500  0.09820600  1
  Si  Si3  1  0.15474900  0.85499500  0.90179400  1
loop_
_geom_bond_atom_site_label_1
_geom_bond_atom_site_label_2
_geom_bond_distance
_geom_bond_site_symmetry_2
Cr0 Si0 2.335899 1_555
Cr0 Si2 2.373799 1_556
Cr0 Si1 2.398224 1_555
Cr0 Si3 2.400176 1_555
Cr0 Si1 2.525181 1_556
Cr0 Si2 2.525271 1_566
Cr0 Si3 2.541655 1_655
Cr1 Si1 2.335899 1_455
Cr1 Si3 2.373799 1_554
Cr1 Si0 2.398224 1_555
Cr1 Si2 2.400176 1_455
Cr1 Si0 2.525181 1_554
Cr1 Si3 2.525271 1_544
Cr1 Si2 2.541655 1_555
Fe0 Si2 2.251913 1_565
Fe0 Si1 2.349975 1_555
Fe0 Si0 2.369976 1_565
Fe0 Si3 2.388554 1_554
Fe0 Si1 2.488222 1_455
Fe0 Si3 2.522865 1_555
Fe0 Si0 2.533827 1_555
Fe1 Si3 2.251913 1_645
Fe1 Si0 2.349975 1_655
Fe1 Si1 2.369976 1_545
Fe1 Si2 2.388554 1_556
Fe1 Si0 2.488222 1_555
Fe1 Si2 2.522865 1_555
Fe1 Si1 2.533827 1_555
