# generated using pymatgen
data_Ba2LiTmCu3O7
_symmetry_space_group_name_H-M   'P 1'
_cell_length_a   3.75249000
_cell_length_b   3.99066900
_cell_length_c   14.05691000
_cell_angle_alpha   90.00000000
_cell_angle_beta   90.00000000
_cell_angle_gamma   90.00000000
_symmetry_Int_Tables_number   1
_chemical_formula_structural   Ba2LiTmCu3O7
_chemical_formula_sum   'Ba2 Li1 Tm1 Cu3 O7'
_cell_volume   210.50146137
_cell_formula_units_Z   1
loop_
 _symmetry_equiv_pos_site_id
 _symmetry_equiv_pos_as_xyz
  1  'x, y, z'
loop_
 _atom_site_type_symbol
 _atom_site_label
 _atom_site_symmetry_multiplicity
 _atom_site_fract_x
 _atom_site_fract_y
 _atom_site_fract_z
 _atom_site_occupancy
  Ba  Ba0  1  0.50000000  0.50000000  0.18743300  1
  Ba  Ba1  1  0.50000000  0.50000000  0.89560500  1
  Li  Li0  1  0.50000000  0.50000000  0.63884800  1
  Tm  Tm0  1  0.50000000  0.50000000  0.45123200  1
  Cu  Cu0  1  0.00000000  0.00000000  0.58510100  1
  Cu  Cu1  1  0.00000000  0.00000000  0.34379400  1
  Cu  Cu2  1  0.00000000  0.00000000  0.03617500  1
  O  O0  1  0.50000000  0.00000000  0.38015100  1
  O  O1  1  0.00000000  0.00000000  0.89946000  1
  O  O2  1  0.50000000  0.00000000  0.60193700  1
  O  O3  1  0.00000000  0.50000000  0.35862900  1
  O  O4  1  0.00000000  0.50000000  0.56517700  1
  O  O5  1  0.00000000  0.00000000  0.17174700  1
  O  O6  1  0.00000000  0.50000000  0.03470900  1
loop_
_geom_bond_atom_site_label_1
_geom_bond_atom_site_label_2
_geom_bond_distance
_geom_bond_site_symmetry_2
Ba0 O5 2.747776 1_665
Ba0 O5 2.747776 1_555
Ba0 O5 2.747776 1_565
Ba0 O5 2.747776 1_655
Ba0 O6 2.851169 1_655
Ba0 O6 2.851169 1_555
Ba0 O3 3.051471 1_655
Ba0 O3 3.051471 1_555
Ba1 O6 2.709940 1_656
Ba1 O6 2.709940 1_556
Ba1 O1 2.739451 1_655
Ba1 O1 2.739451 1_565
Ba1 O1 2.739451 1_665
Ba1 O1 2.739451 1_555
Li0 O2 2.061691 1_565
Li0 O2 2.061691 1_555
Li0 O4 2.143067 1_555
Li0 O4 2.143067 1_655
Cu0 O2 1.891112 1_555
Cu0 O2 1.891112 1_455
Cu0 O4 2.014894 1_555
Cu0 O4 2.014894 1_545
Cu1 O0 1.944604 1_555
Cu1 O0 1.944604 1_455
Cu1 O3 2.006202 1_555
Cu1 O3 2.006202 1_545
Cu1 O5 2.418449 1_555
Cu2 O5 1.905723 1_555
Cu2 O1 1.921790 1_554
Cu2 O6 1.995441 1_545
Cu2 O6 1.995441 1_555
O0 Tm0 2.231528 1_545
O0 Tm0 2.231528 1_555
O3 Tm0 2.283583 1_455
O3 Tm0 2.283583 1_555
O4 Tm0 2.466938 1_455
O4 Tm0 2.466938 1_555
