# generated using pymatgen
data_LiTm(WO4)2
_symmetry_space_group_name_H-M   'P 1'
_cell_length_a   5.86375000
_cell_length_b   5.10820600
_cell_length_c   10.94934620
_cell_angle_alpha   65.39120299
_cell_angle_beta   90.00000000
_cell_angle_gamma   90.00000000
_symmetry_Int_Tables_number   1
_chemical_formula_structural   LiTm(WO4)2
_chemical_formula_sum   'Li2 Tm2 W4 O16'
_cell_volume   298.17977083
_cell_formula_units_Z   2
loop_
 _symmetry_equiv_pos_site_id
 _symmetry_equiv_pos_as_xyz
  1  'x, y, z'
loop_
 _atom_site_type_symbol
 _atom_site_label
 _atom_site_symmetry_multiplicity
 _atom_site_fract_x
 _atom_site_fract_y
 _atom_site_fract_z
 _atom_site_occupancy
  Li  Li0  1  0.69830600  0.00000000  0.75000000  1
  Li  Li1  1  0.30169400  0.00000000  0.25000000  1
  Tm  Tm0  1  0.31895800  0.50000000  0.75000000  1
  Tm  Tm1  1  0.68104200  0.50000000  0.25000000  1
  W  W0  1  0.82505500  0.73685100  0.51097000  1
  W  W1  1  0.17494500  0.26314900  0.48903000  1
  W  W2  1  0.82505500  0.26314900  0.98903000  1
  W  W3  1  0.17494500  0.73685100  0.01097000  1
  O  O0  1  0.88998600  0.84372400  0.09793500  1
  O  O1  1  0.11001400  0.15627600  0.90206500  1
  O  O2  1  0.88998600  0.15627600  0.40206500  1
  O  O3  1  0.11001400  0.84372400  0.59793500  1
  O  O4  1  0.37179900  0.72122000  0.88391700  1
  O  O5  1  0.62820100  0.27878000  0.11608300  1
  O  O6  1  0.37179900  0.27878000  0.61608300  1
  O  O7  1  0.62820100  0.72122000  0.38391700  1
  O  O8  1  0.90873700  0.65582600  0.88878000  1
  O  O9  1  0.09126300  0.34417400  0.11122000  1
  O  O10  1  0.90873700  0.34417400  0.61122000  1
  O  O11  1  0.09126300  0.65582600  0.38878000  1
  O  O12  1  0.62614200  0.76562000  0.63329500  1
  O  O13  1  0.37385800  0.23438000  0.36670500  1
  O  O14  1  0.62614200  0.23438000  0.86670500  1
  O  O15  1  0.37385800  0.76562000  0.13329500  1
loop_
_geom_bond_atom_site_label_1
_geom_bond_atom_site_label_2
_geom_bond_distance
_geom_bond_site_symmetry_2
Li0 O14 2.125923 1_555
Li0 O12 2.125923 1_545
Li0 O10 2.167388 1_555
Li0 O8 2.167388 1_545
Li0 O4 2.470722 1_545
Li0 O6 2.470722 1_555
Li1 O13 2.125923 1_555
Li1 O15 2.125923 1_545
Li1 O9 2.167388 1_555
Li1 O11 2.167388 1_545
Li1 O5 2.470722 1_555
Li1 O7 2.470722 1_545
O0 W2 2.007353 1_564
O0 W3 2.104682 1_655
O0 Tm1 2.218441 1_555
O1 W3 2.007353 1_546
O1 W2 2.104682 1_455
O1 Tm0 2.218441 1_555
O2 W0 2.007353 1_545
O2 W1 2.104682 1_655
O2 Tm1 2.218441 1_555
O3 W1 2.007353 1_565
O3 W0 2.104682 1_455
O3 Tm0 2.218441 1_555
O4 W3 1.834827 1_556
O4 Tm0 2.214280 1_555
O5 W2 1.834827 1_554
O5 Tm1 2.214280 1_555
O6 W1 1.834827 1_555
O6 Tm0 2.214280 1_555
O7 W0 1.834827 1_555
O7 Tm1 2.214280 1_555
O8 W2 1.906686 1_555
O8 W3 2.204341 1_656
O9 W3 1.906686 1_555
O9 W2 2.204341 1_454
O10 W0 1.906686 1_555
O10 W1 2.204341 1_655
O11 W1 1.906686 1_555
O11 W0 2.204341 1_455
O12 W0 1.827538 1_555
O12 Tm0 2.296606 1_555
O13 W1 1.827538 1_555
O13 Tm1 2.296606 1_555
O14 W2 1.827538 1_555
O14 Tm0 2.296606 1_555
O15 W3 1.827538 1_555
O15 Tm1 2.296606 1_555
