# generated using pymatgen
data_Ba3SrY8(CuO5)4
_symmetry_space_group_name_H-M   'P 1'
_cell_length_a   5.69627600
_cell_length_b   7.23582000
_cell_length_c   12.22070755
_cell_angle_alpha   89.88516182
_cell_angle_beta   90.00000000
_cell_angle_gamma   90.00000000
_symmetry_Int_Tables_number   1
_chemical_formula_structural   Ba3SrY8(CuO5)4
_chemical_formula_sum   'Ba3 Sr1 Y8 Cu4 O20'
_cell_volume   503.70267516
_cell_formula_units_Z   1
loop_
 _symmetry_equiv_pos_site_id
 _symmetry_equiv_pos_as_xyz
  1  'x, y, z'
loop_
 _atom_site_type_symbol
 _atom_site_label
 _atom_site_symmetry_multiplicity
 _atom_site_fract_x
 _atom_site_fract_y
 _atom_site_fract_z
 _atom_site_occupancy
  Ba  Ba0  1  0.00000000  0.06983800  0.09498800  1
  Ba  Ba1  1  0.50000000  0.56860300  0.40610900  1
  Ba  Ba2  1  0.50000000  0.93089400  0.90493300  1
  Sr  Sr0  1  0.00000000  0.42573100  0.59178000  1
  Y  Y0  1  0.00000000  0.89455900  0.42741100  1
  Y  Y1  1  0.00000000  0.60324600  0.92541500  1
  Y  Y2  1  0.50000000  0.10583600  0.57416400  1
  Y  Y3  1  0.50000000  0.39613200  0.07390700  1
  Y  Y4  1  0.00000000  0.61264900  0.21409700  1
  Y  Y5  1  0.00000000  0.88612900  0.71184200  1
  Y  Y6  1  0.50000000  0.38779800  0.78574200  1
  Y  Y7  1  0.50000000  0.11316500  0.28792500  1
  Cu  Cu0  1  0.00000000  0.22099000  0.83705200  1
  Cu  Cu1  1  0.00000000  0.28194800  0.34017700  1
  Cu  Cu2  1  0.50000000  0.78146600  0.16158000  1
  Cu  Cu3  1  0.50000000  0.71812100  0.66032000  1
  O  O0  1  0.00000000  0.57811100  0.40714100  1
  O  O1  1  0.00000000  0.91604800  0.89944200  1
  O  O2  1  0.50000000  0.41882900  0.59843400  1
  O  O3  1  0.50000000  0.08293200  0.10020200  1
  O  O4  1  0.74658400  0.85363500  0.27320900  1
  O  O5  1  0.25221900  0.64343700  0.77037900  1
  O  O6  1  0.24283200  0.15013500  0.72519900  1
  O  O7  1  0.75427600  0.35476400  0.22830200  1
  O  O8  1  0.75716800  0.15013500  0.72519900  1
  O  O9  1  0.24572400  0.35476400  0.22830200  1
  O  O10  1  0.25341600  0.85363500  0.27320900  1
  O  O11  1  0.74778100  0.64343700  0.77037900  1
  O  O12  1  0.25606900  0.66270400  0.06813300  1
  O  O13  1  0.74272400  0.83841300  0.56794400  1
  O  O14  1  0.75637000  0.33677100  0.93211900  1
  O  O15  1  0.24256100  0.16362800  0.43338300  1
  O  O16  1  0.24363000  0.33677100  0.93211900  1
  O  O17  1  0.75743900  0.16362800  0.43338300  1
  O  O18  1  0.74393100  0.66270400  0.06813300  1
  O  O19  1  0.25727600  0.83841300  0.56794400  1
loop_
_geom_bond_atom_site_label_1
_geom_bond_atom_site_label_2
_geom_bond_distance
_geom_bond_site_symmetry_2
Ba0 O1 2.638123 1_544
Ba0 O3 2.850430 1_455
Ba0 O3 2.850430 1_555
Ba0 O9 2.979500 1_555
Ba0 O7 2.979500 1_455
Ba0 O10 3.043206 1_545
Ba0 O4 3.043206 1_445
Ba0 O16 3.098828 1_554
Ba0 O14 3.098828 1_454
Ba0 O18 3.304213 1_445
Ba0 O12 3.304213 1_545
Ba1 O2 2.586196 1_555
Ba1 O0 2.848997 1_555
Ba1 O0 2.848997 1_655
Ba1 O4 2.975058 1_555
Ba1 O10 2.975058 1_555
Ba1 O7 3.037625 1_555
Ba1 O9 3.037625 1_555
Ba1 O13 3.106450 1_555
Ba1 O19 3.106450 1_555
Ba1 O15 3.293091 1_555
Ba1 O17 3.293091 1_555
Ba2 O3 2.629703 1_566
Ba2 O1 2.850958 1_655
Ba2 O1 2.850958 1_555
Ba2 O11 3.006004 1_555
Ba2 O5 3.006004 1_555
Ba2 O8 3.077840 1_565
Ba2 O6 3.077840 1_565
Ba2 O18 3.107850 1_556
Ba2 O12 3.107850 1_556
Ba2 O16 3.297276 1_565
Ba2 O14 3.297276 1_565
Cu0 O14 1.995357 1_455
Cu0 O16 1.995357 1_555
Cu0 O6 2.011837 1_555
Cu0 O8 2.011837 1_455
Cu0 O1 2.333078 1_545
Cu1 O15 1.983827 1_555
Cu1 O17 1.983827 1_455
Cu1 O9 2.025617 1_555
Cu1 O7 2.025617 1_455
Cu1 O0 2.295451 1_555
Cu2 O18 1.994303 1_555
Cu2 O12 1.994303 1_555
Cu2 O4 2.027186 1_555
Cu2 O10 2.027186 1_555
Cu2 O3 2.305292 1_565
Cu3 O13 1.984877 1_555
Cu3 O19 1.984877 1_555
Cu3 O11 2.022442 1_555
Cu3 O5 2.022442 1_555
Cu3 O2 2.295314 1_555
O0 Y0 2.303615 1_555
O0 Y4 2.371836 1_555
O0 Sr0 2.509416 1_555
O1 Y1 2.284897 1_555
O1 Y5 2.303235 1_555
O2 Y2 2.284689 1_555
O2 Y6 2.299574 1_555
O2 Sr0 2.849733 1_555
O2 Sr0 2.849733 1_655
O3 Y3 2.288290 1_555
O3 Y7 2.304951 1_555
O4 Y7 2.352272 1_565
O4 Y4 2.377240 1_655
O4 Y0 2.392671 1_655
O5 Y6 2.334008 1_555
O5 Y5 2.377949 1_555
O5 Y1 2.395035 1_555
O5 Sr0 3.053391 1_555
O6 Y5 2.364421 1_545
O6 Y6 2.378187 1_555
O6 Y2 2.378625 1_555
O6 Sr0 2.921549 1_555
O7 Y4 2.338808 1_655
O7 Y7 2.383239 1_555
O7 Y3 2.396946 1_555
O8 Y5 2.364421 1_645
O8 Y6 2.378187 1_555
O8 Y2 2.378625 1_555
O8 Sr0 2.921549 1_655
O9 Y4 2.338808 1_555
O9 Y7 2.383239 1_555
O9 Y3 2.396946 1_555
O10 Y7 2.352272 1_565
O10 Y4 2.377240 1_555
O10 Y0 2.392671 1_555
O11 Y6 2.334008 1_555
O11 Y5 2.377949 1_655
O11 Y1 2.395035 1_655
O11 Sr0 3.053391 1_655
O12 Y1 2.314664 1_554
O12 Y4 2.331974 1_555
O12 Y3 2.378165 1_555
O13 Y0 2.293358 1_655
O13 Y5 2.315561 1_655
O13 Y2 2.379566 1_565
O14 Y3 2.307061 1_556
O14 Y6 2.337996 1_555
O14 Y1 2.376940 1_655
O15 Y2 2.298340 1_555
O15 Y7 2.333720 1_555
O15 Y0 2.388625 1_545
O15 Sr0 3.044281 1_555
O16 Y3 2.307061 1_556
O16 Y6 2.337996 1_555
O16 Y1 2.376940 1_555
O17 Y2 2.298340 1_555
O17 Y7 2.333720 1_555
O17 Y0 2.388625 1_645
O17 Sr0 3.044281 1_655
O18 Y1 2.314664 1_654
O18 Y4 2.331974 1_655
O18 Y3 2.378165 1_555
O19 Y0 2.293358 1_555
O19 Y5 2.315561 1_555
O19 Y2 2.379566 1_565
