# generated using pymatgen
data_Sr4Ca(SO4)4
_symmetry_space_group_name_H-M   'P 1'
_cell_length_a   5.16631000
_cell_length_b   4.79435181
_cell_length_c   16.62094299
_cell_angle_alpha   80.40795954
_cell_angle_beta   90.00000000
_cell_angle_gamma   90.00000000
_symmetry_Int_Tables_number   1
_chemical_formula_structural   Sr4Ca(SO4)4
_chemical_formula_sum   'Sr4 Ca1 S4 O16'
_cell_volume   405.93022656
_cell_formula_units_Z   1
loop_
 _symmetry_equiv_pos_site_id
 _symmetry_equiv_pos_as_xyz
  1  'x, y, z'
loop_
 _atom_site_type_symbol
 _atom_site_label
 _atom_site_symmetry_multiplicity
 _atom_site_fract_x
 _atom_site_fract_y
 _atom_site_fract_z
 _atom_site_occupancy
  Sr  Sr0  1  0.25000000  0.24660100  0.58585200  1
  Sr  Sr1  1  0.25000000  0.34644800  0.16309200  1
  Sr  Sr2  1  0.75000000  0.76040600  0.41324100  1
  Sr  Sr3  1  0.75000000  0.60342300  0.85058000  1
  Ca  Ca0  1  0.25000000  0.96521400  0.99755800  1
  S  S0  1  0.25000000  0.18971500  0.81524000  1
  S  S1  1  0.25000000  0.22404600  0.38844600  1
  S  S2  1  0.75000000  0.79751600  0.17575300  1
  S  S3  1  0.75000000  0.78640400  0.61427700  1
  O  O0  1  0.75000000  0.48468800  0.18157600  1
  O  O1  1  0.75000000  0.09790600  0.61356500  1
  O  O2  1  0.25000000  0.50146700  0.80976200  1
  O  O3  1  0.25000000  0.91572700  0.38422400  1
  O  O4  1  0.75000000  0.62719700  0.69760000  1
  O  O5  1  0.75000000  0.88191100  0.25731200  1
  O  O6  1  0.25000000  0.39789400  0.30705500  1
  O  O7  1  0.25000000  0.10164700  0.73519500  1
  O  O8  1  0.01614800  0.07330900  0.86491600  1
  O  O9  1  0.48498100  0.28594400  0.43581600  1
  O  O10  1  0.51044500  0.91088900  0.12995100  1
  O  O11  1  0.98414100  0.71714200  0.56721000  1
  O  O12  1  0.98955500  0.91088900  0.12995100  1
  O  O13  1  0.51585900  0.71714200  0.56721000  1
  O  O14  1  0.48385200  0.07330900  0.86491600  1
  O  O15  1  0.01501900  0.28594400  0.43581600  1
loop_
_geom_bond_atom_site_label_1
_geom_bond_atom_site_label_2
_geom_bond_distance
_geom_bond_site_symmetry_2
Ca0 O8 2.491557 1_565
Ca0 O14 2.491557 1_565
Ca0 O10 2.555288 1_556
Ca0 O12 2.555288 1_456
O0 S2 1.486746 1_555
O0 Sr1 2.697072 1_655
O0 Sr1 2.697072 1_555
O1 S3 1.491524 1_545
O1 Sr0 2.698823 1_655
O1 Sr0 2.698823 1_555
O2 S0 1.482198 1_555
O2 Sr3 2.735401 1_555
O2 Sr3 2.735401 1_455
O3 S1 1.491489 1_565
O3 Sr2 2.709267 1_455
O3 Sr2 2.709267 1_555
O4 S3 1.465706 1_555
O4 Sr3 2.526180 1_555
O5 S2 1.477880 1_555
O5 Sr2 2.559892 1_555
O6 S1 1.465943 1_555
O6 Sr1 2.446021 1_555
O7 S0 1.461339 1_555
O7 Sr0 2.463635 1_555
O8 S0 1.516327 1_555
O8 Sr3 2.683543 1_445
O8 Sr3 2.864451 1_455
O9 S1 1.503193 1_555
O9 Sr2 2.627813 1_555
O9 Sr0 2.751602 1_555
O9 Sr2 2.946004 1_545
O10 S2 1.506245 1_555
O10 Sr1 2.618762 1_565
O10 Sr1 2.990026 1_555
O11 S3 1.507340 1_555
O11 Sr0 2.615119 1_655
O11 Sr2 2.806850 1_555
O11 Sr0 2.947574 1_665
O12 S2 1.506245 1_555
O12 Sr1 2.618762 1_665
O12 Sr1 2.990026 1_655
O13 S3 1.507340 1_555
O13 Sr0 2.615119 1_555
O13 Sr2 2.806850 1_555
O13 Sr0 2.947574 1_565
O14 S0 1.516327 1_555
O14 Sr3 2.683543 1_545
O14 Sr3 2.864451 1_555
O15 S1 1.503193 1_555
O15 Sr2 2.627813 1_455
O15 Sr0 2.751602 1_555
O15 Sr2 2.946004 1_445
