# generated using pymatgen
data_SrEuNbBiO6
_symmetry_space_group_name_H-M   'P 1'
_cell_length_a   5.89306403
_cell_length_b   6.09199837
_cell_length_c   8.44556752
_cell_angle_alpha   89.87627688
_cell_angle_beta   90.31253940
_cell_angle_gamma   89.92342629
_symmetry_Int_Tables_number   1
_chemical_formula_structural   SrEuNbBiO6
_chemical_formula_sum   'Sr2 Eu2 Nb2 Bi2 O12'
_cell_volume   303.19491114
_cell_formula_units_Z   2
loop_
 _symmetry_equiv_pos_site_id
 _symmetry_equiv_pos_as_xyz
  1  'x, y, z'
loop_
 _atom_site_type_symbol
 _atom_site_label
 _atom_site_symmetry_multiplicity
 _atom_site_fract_x
 _atom_site_fract_y
 _atom_site_fract_z
 _atom_site_occupancy
  Sr  Sr0  1  0.98770231  0.05223205  0.25034421  1
  Sr  Sr1  1  0.01229769  0.94776795  0.74965579  1
  Eu  Eu0  1  0.51678015  0.55431715  0.24841523  1
  Eu  Eu1  1  0.48321985  0.44568285  0.75158477  1
  Nb  Nb0  1  0.50000000  0.00000000  -0.00000000  1
  Nb  Nb1  1  -0.00000000  0.50000000  0.50000000  1
  Bi  Bi0  1  -0.00000000  0.50000000  -0.00000000  1
  Bi  Bi1  1  0.50000000  0.00000000  0.50000000  1
  O  O0  1  0.21945006  0.18319020  0.94867825  1
  O  O1  1  0.27956366  0.68302673  0.55706289  1
  O  O2  1  0.78054994  0.81680980  0.05132175  1
  O  O3  1  0.72043634  0.31697327  0.44293711  1
  O  O4  1  0.32647191  0.71846588  0.94037167  1
  O  O5  1  0.17584085  0.22117421  0.55802049  1
  O  O6  1  0.67352809  0.28153412  0.05962833  1
  O  O7  1  0.82415915  0.77882579  0.44197951  1
  O  O8  1  0.39681276  0.95754490  0.22874442  1
  O  O9  1  0.11189895  0.46538091  0.27187447  1
  O  O10  1  0.60318724  0.04245510  0.77125558  1
  O  O11  1  0.88810105  0.53461909  0.72812553  1
loop_
_geom_bond_atom_site_label_1
_geom_bond_atom_site_label_2
_geom_bond_distance
_geom_bond_site_symmetry_2
Eu0 O9 2.456400 1_555
Eu0 O6 2.486038 1_555
Eu0 O3 2.488683 1_555
Eu0 O8 2.560066 1_555
Eu0 O2 2.787022 1_555
Eu0 O7 2.794319 1_555
Eu0 O4 2.996668 1_554
Eu0 O1 3.067505 1_555
Eu1 O11 2.456400 1_555
Eu1 O4 2.486038 1_555
Eu1 O1 2.488683 1_555
Eu1 O10 2.560066 1_555
Eu1 O0 2.787022 1_555
Eu1 O5 2.794319 1_555
Eu1 O6 2.996668 1_556
Eu1 O3 3.067505 1_555
Nb0 O0 2.037615 1_554
Nb0 O2 2.037615 1_545
Nb0 O10 2.044478 1_554
Nb0 O8 2.044478 1_545
Nb0 O4 2.060032 1_544
Nb0 O6 2.060032 1_555
Nb1 O5 2.045809 1_555
Nb1 O7 2.045809 1_455
Nb1 O3 2.046523 1_455
Nb1 O1 2.046523 1_555
Nb1 O9 2.050986 1_555
Nb1 O11 2.050986 1_455
Bi0 O2 2.363958 1_455
Bi0 O0 2.363958 1_554
Bi0 O11 2.394279 1_454
Bi0 O9 2.394279 1_555
Bi0 O4 2.396012 1_554
Bi0 O6 2.396012 1_455
Bi1 O1 2.378666 1_545
Bi1 O3 2.378666 1_555
Bi1 O10 2.381744 1_555
Bi1 O8 2.381744 1_545
Bi1 O5 2.389765 1_555
Bi1 O7 2.389765 1_545
O0 Sr1 2.522926 1_545
O0 Sr0 3.004114 1_456
O1 Sr1 2.785674 1_555
O2 Sr0 2.522926 1_565
O2 Sr1 3.004114 1_654
O3 Sr0 2.785674 1_555
O4 Sr1 2.815034 1_555
O5 Sr1 2.516377 1_545
O5 Sr0 3.003974 1_455
O6 Sr0 2.815034 1_555
O7 Sr0 2.516377 1_565
O7 Sr1 3.003974 1_655
O8 Sr0 2.485972 1_465
O9 Sr0 2.628495 1_455
O10 Sr1 2.485972 1_645
O11 Sr1 2.628495 1_655
