# generated using pymatgen
data_Bi2Te4Pb
_symmetry_space_group_name_H-M   'P 1'
_cell_length_a   14.42857345
_cell_length_b   14.42857345
_cell_length_c   14.42857363
_cell_angle_alpha   17.88386133
_cell_angle_beta   17.88386133
_cell_angle_gamma   17.88386394
_symmetry_Int_Tables_number   1
_chemical_formula_structural   Bi2Te4Pb
_chemical_formula_sum   'Bi2 Te4 Pb1'
_cell_volume   247.30864118
_cell_formula_units_Z   1
loop_
 _symmetry_equiv_pos_site_id
 _symmetry_equiv_pos_as_xyz
  1  'x, y, z'
loop_
 _atom_site_type_symbol
 _atom_site_label
 _atom_site_symmetry_multiplicity
 _atom_site_fract_x
 _atom_site_fract_y
 _atom_site_fract_z
 _atom_site_occupancy
  Bi  Bi0  1  0.42873100  0.42873100  0.42873100  1
  Bi  Bi1  1  0.99969600  0.99969600  0.99969600  1
  Te  Te0  1  0.86356600  0.86356600  0.86356600  1
  Te  Te1  1  0.13503100  0.13503100  0.13503100  1
  Te  Te2  1  0.71175700  0.71175700  0.71175700  1
  Te  Te3  1  0.29199700  0.29199700  0.29199700  1
  Pb  Pb0  1  0.56922100  0.56922100  0.56922100  1
loop_
_geom_bond_atom_site_label_1
_geom_bond_atom_site_label_2
_geom_bond_distance
_geom_bond_site_symmetry_2
Bi0 Te1 3.091034 1_556
Bi0 Te1 3.091034 1_565
Bi0 Te1 3.091034 1_655
Bi0 Te2 3.360849 1_554
Bi0 Te2 3.360849 1_455
Bi0 Te2 3.360849 1_545
Bi1 Te3 3.123960 1_665
Bi1 Te3 3.123960 1_566
Bi1 Te3 3.123960 1_656
Bi1 Te2 3.231521 1_556
Bi1 Te2 3.231521 1_565
Bi1 Te2 3.231521 1_655
Pb0 Te0 3.076124 1_554
Pb0 Te0 3.076124 1_455
Pb0 Te0 3.076124 1_545
Pb0 Te3 3.523477 1_556
Pb0 Te3 3.523477 1_655
Pb0 Te3 3.523477 1_565
