# generated using pymatgen
data_Dy(ZnP)3
_symmetry_space_group_name_H-M   'P 1'
_cell_length_a   3.96784277
_cell_length_b   3.96784277
_cell_length_c   19.77425271
_cell_angle_alpha   90.00000000
_cell_angle_beta   90.00000000
_cell_angle_gamma   119.99998476
_symmetry_Int_Tables_number   1
_chemical_formula_structural   Dy(ZnP)3
_chemical_formula_sum   'Dy2 Zn6 P6'
_cell_volume   269.61229079
_cell_formula_units_Z   2
loop_
 _symmetry_equiv_pos_site_id
 _symmetry_equiv_pos_as_xyz
  1  'x, y, z'
loop_
 _atom_site_type_symbol
 _atom_site_label
 _atom_site_symmetry_multiplicity
 _atom_site_fract_x
 _atom_site_fract_y
 _atom_site_fract_z
 _atom_site_occupancy
  Dy  Dy0  1  0.00000000  -0.00000000  0.00000000  1
  Dy  Dy1  1  0.00000000  -0.00000000  0.50000000  1
  Zn  Zn0  1  0.33333300  0.66666700  0.75000000  1
  Zn  Zn1  1  0.66666700  0.33333300  0.25000000  1
  Zn  Zn2  1  0.33333300  0.66666700  0.12875704  1
  Zn  Zn3  1  0.66666700  0.33333300  0.87124296  1
  Zn  Zn4  1  0.66666700  0.33333300  0.62875704  1
  Zn  Zn5  1  0.33333300  0.66666700  0.37124296  1
  P  P0  1  0.33333300  0.66666700  0.58426591  1
  P  P1  1  0.66666700  0.33333300  0.41573409  1
  P  P2  1  0.66666700  0.33333300  0.08426591  1
  P  P3  1  0.33333300  0.66666700  0.91573409  1
  P  P4  1  0.33333300  0.66666700  0.25000000  1
  P  P5  1  0.66666700  0.33333300  0.75000000  1
loop_
_geom_bond_atom_site_label_1
_geom_bond_atom_site_label_2
_geom_bond_distance
_geom_bond_site_symmetry_2
Dy0 P2 2.832747 1_455
Dy0 P3 2.832747 1_544
Dy0 P2 2.832750 1_555
Dy0 P2 2.832750 1_445
Dy0 P3 2.832750 1_554
Dy0 P3 2.832750 1_444
Dy1 P1 2.832747 1_455
Dy1 P0 2.832747 1_545
Dy1 P1 2.832750 1_445
Dy1 P1 2.832750 1_555
Dy1 P0 2.832750 1_555
Dy1 P0 2.832750 1_445
P0 Zn4 2.453962 1_455
P0 Zn4 2.453962 1_565
P0 Zn4 2.453967 1_555
P1 Zn5 2.453962 1_545
P1 Zn5 2.453962 1_655
P1 Zn5 2.453967 1_555
P2 Zn2 2.453962 1_545
P2 Zn2 2.453962 1_655
P2 Zn2 2.453967 1_555
P3 Zn3 2.453962 1_455
P3 Zn3 2.453962 1_565
P3 Zn3 2.453967 1_555
P4 Zn1 2.290833 1_455
P4 Zn1 2.290833 1_565
P4 Zn1 2.290839 1_555
P4 Zn5 2.397489 1_555
P4 Zn2 2.397489 1_555
P5 Zn0 2.290833 1_545
P5 Zn0 2.290833 1_655
P5 Zn0 2.290839 1_555
P5 Zn3 2.397489 1_555
P5 Zn4 2.397489 1_555
