# generated using pymatgen
data_Ni(N4O3)2
_symmetry_space_group_name_H-M   'P 1'
_cell_length_a   5.54916189
_cell_length_b   5.54916189
_cell_length_c   5.54916189
_cell_angle_alpha   60.00000000
_cell_angle_beta   60.00000000
_cell_angle_gamma   60.00000000
_symmetry_Int_Tables_number   1
_chemical_formula_structural   Ni(N4O3)2
_chemical_formula_sum   'Ni1 N8 O6'
_cell_volume   120.82788858
_cell_formula_units_Z   1
loop_
 _symmetry_equiv_pos_site_id
 _symmetry_equiv_pos_as_xyz
  1  'x, y, z'
loop_
 _atom_site_type_symbol
 _atom_site_label
 _atom_site_symmetry_multiplicity
 _atom_site_fract_x
 _atom_site_fract_y
 _atom_site_fract_z
 _atom_site_occupancy
  Ni  Ni0  1  0.00000000  0.00000000  0.00000000  1
  N  N0  1  0.23882500  0.76117500  0.23882500  1
  N  N1  1  0.76117500  0.23882500  0.76117500  1
  N  N2  1  0.23882500  0.23882500  0.76117500  1
  N  N3  1  0.76117500  0.76117500  0.23882500  1
  N  N4  1  0.76117500  0.23882500  0.23882500  1
  N  N5  1  0.23882500  0.76117500  0.76117500  1
  N  N6  1  0.75000000  0.75000000  0.75000000  1
  N  N7  1  0.25000000  0.25000000  0.25000000  1
  O  O0  1  0.50000000  0.00000000  0.00000000  1
  O  O1  1  0.00000000  0.50000000  0.50000000  1
  O  O2  1  0.00000000  0.50000000  0.00000000  1
  O  O3  1  0.50000000  0.00000000  0.50000000  1
  O  O4  1  0.00000000  0.00000000  0.50000000  1
  O  O5  1  0.50000000  0.50000000  0.00000000  1
loop_
_geom_bond_atom_site_label_1
_geom_bond_atom_site_label_2
_geom_bond_distance
_geom_bond_site_symmetry_2
N0 Ni0 1.874227 1_565
N0 O0 1.963884 1_565
N0 O4 1.963884 1_565
N0 O5 1.963884 1_555
N0 O1 1.963884 1_555
N1 Ni0 1.874227 1_656
N1 O5 1.963884 1_556
N1 O1 1.963884 1_655
N1 O4 1.963884 1_655
N1 O0 1.963884 1_556
N2 Ni0 1.874227 1_556
N2 O0 1.963884 1_556
N2 O2 1.963884 1_556
N2 O1 1.963884 1_555
N2 O3 1.963884 1_555
N3 Ni0 1.874227 1_665
N3 O3 1.963884 1_565
N3 O1 1.963884 1_655
N3 O2 1.963884 1_655
N3 O0 1.963884 1_565
N4 Ni0 1.874227 1_655
N4 O4 1.963884 1_655
N4 O2 1.963884 1_655
N4 O5 1.963884 1_555
N4 O3 1.963884 1_555
N5 Ni0 1.874227 1_566
N5 O3 1.963884 1_565
N5 O5 1.963884 1_556
N5 O2 1.963884 1_556
N5 O4 1.963884 1_565
N6 O1 1.961925 1_655
N6 O0 1.961925 1_566
N6 O2 1.961925 1_656
N6 O3 1.961925 1_565
N6 O5 1.961925 1_556
N6 O4 1.961925 1_665
N7 O0 1.961925 1_555
N7 O3 1.961925 1_555
N7 O4 1.961925 1_555
N7 O1 1.961925 1_555
N7 O2 1.961925 1_555
N7 O5 1.961925 1_555
