# generated using pymatgen
data_Ba3VN3
_symmetry_space_group_name_H-M   'P 1'
_cell_length_a   8.47228100
_cell_length_b   8.47279362
_cell_length_c   5.52869500
_cell_angle_alpha   90.00000000
_cell_angle_beta   90.00000000
_cell_angle_gamma   120.00000706
_symmetry_Int_Tables_number   1
_chemical_formula_structural   Ba3VN3
_chemical_formula_sum   'Ba6 V2 N6'
_cell_volume   343.70053852
_cell_formula_units_Z   2
loop_
 _symmetry_equiv_pos_site_id
 _symmetry_equiv_pos_as_xyz
  1  'x, y, z'
loop_
 _atom_site_type_symbol
 _atom_site_label
 _atom_site_symmetry_multiplicity
 _atom_site_fract_x
 _atom_site_fract_y
 _atom_site_fract_z
 _atom_site_occupancy
  Ba  Ba0  1  0.92222600  0.63652000  0.25000000  1
  Ba  Ba1  1  0.71428900  0.07776000  0.25000000  1
  Ba  Ba2  1  0.36347500  0.28570600  0.25000000  1
  Ba  Ba3  1  0.07777400  0.36348000  0.75000000  1
  Ba  Ba4  1  0.28571100  0.92224000  0.75000000  1
  Ba  Ba5  1  0.63652500  0.71429400  0.75000000  1
  V  V0  1  0.66667100  0.33333600  0.75000000  1
  V  V1  1  0.33332900  0.66666400  0.25000000  1
  N  N0  1  0.86680700  0.55638200  0.75000000  1
  N  N1  1  0.68957700  0.13319000  0.75000000  1
  N  N2  1  0.44360400  0.31042800  0.75000000  1
  N  N3  1  0.13319300  0.44361800  0.25000000  1
  N  N4  1  0.31042300  0.86681000  0.25000000  1
  N  N5  1  0.55639600  0.68957200  0.25000000  1
loop_
_geom_bond_atom_site_label_1
_geom_bond_atom_site_label_2
_geom_bond_distance
_geom_bond_site_symmetry_2
Ba0 N0 2.829187 1_555
Ba0 N0 2.829187 1_554
Ba0 N4 2.864752 1_655
Ba0 N3 2.964344 1_655
Ba0 N5 3.346880 1_555
Ba1 N1 2.829196 1_554
Ba1 N1 2.829196 1_555
Ba1 N5 2.864865 1_545
Ba1 N4 2.964237 1_545
Ba1 N3 3.347142 1_655
Ba2 N2 2.829163 1_555
Ba2 N2 2.829163 1_554
Ba2 N3 2.864778 1_555
Ba2 N5 2.964415 1_555
Ba2 N4 3.347194 1_545
Ba3 N3 2.829187 1_556
Ba3 N3 2.829187 1_555
Ba3 N1 2.864752 1_455
Ba3 N0 2.964344 1_455
Ba3 N2 3.346880 1_555
Ba4 N4 2.829196 1_555
Ba4 N4 2.829196 1_556
Ba4 N2 2.864865 1_565
Ba4 N1 2.964237 1_565
Ba4 N0 3.347142 1_455
Ba5 N5 2.829163 1_556
Ba5 N5 2.829163 1_555
Ba5 N0 2.864778 1_555
Ba5 N2 2.964415 1_555
Ba5 N1 3.347194 1_565
N0 V0 1.800588 1_555
N1 V0 1.800689 1_555
N2 V0 1.800702 1_555
N3 V1 1.800588 1_555
N4 V1 1.800689 1_555
N5 V1 1.800702 1_555
