# generated using pymatgen
data_BeSnP2
_symmetry_space_group_name_H-M   'P 1'
_cell_length_a   6.66257567
_cell_length_b   6.66257567
_cell_length_c   6.66257567
_cell_angle_alpha   131.78804643
_cell_angle_beta   131.78804643
_cell_angle_gamma   70.56399119
_symmetry_Int_Tables_number   1
_chemical_formula_structural   BeSnP2
_chemical_formula_sum   'Be2 Sn2 P4'
_cell_volume   161.09145833
_cell_formula_units_Z   2
loop_
 _symmetry_equiv_pos_site_id
 _symmetry_equiv_pos_as_xyz
  1  'x, y, z'
loop_
 _atom_site_type_symbol
 _atom_site_label
 _atom_site_symmetry_multiplicity
 _atom_site_fract_x
 _atom_site_fract_y
 _atom_site_fract_z
 _atom_site_occupancy
  Be  Be0  1  0.25000000  0.75000000  0.50000000  1
  Be  Be1  1  0.50000000  0.50000000  0.00000000  1
  Sn  Sn0  1  0.75000000  0.25000000  0.50000000  1
  Sn  Sn1  1  0.00000000  0.00000000  0.00000000  1
  P  P0  1  0.57075700  0.62500000  0.44575700  1
  P  P1  1  0.87500000  0.42924300  0.05424300  1
  P  P2  1  0.37500000  0.82075700  0.94575700  1
  P  P3  1  0.17924300  0.12500000  0.55424300  1
loop_
_geom_bond_atom_site_label_1
_geom_bond_atom_site_label_2
_geom_bond_distance
_geom_bond_site_symmetry_2
Be0 P0 2.198860 1_555
Be0 P2 2.198860 1_555
Be0 P3 2.198860 1_565
Be0 P1 2.198860 1_455
Be1 P2 2.198860 1_554
Be1 P3 2.198860 1_554
Be1 P0 2.198860 1_555
Be1 P1 2.198860 1_555
P0 Sn1 2.538033 1_666
P0 Sn0 2.538033 1_555
P1 Sn1 2.538033 1_655
P1 Sn0 2.538033 1_554
P2 Sn1 2.538033 1_566
P2 Sn0 2.538033 1_566
P3 Sn0 2.538033 1_455
P3 Sn1 2.538033 1_555
