# generated using pymatgen
data_UAl7Fe3Cu2
_symmetry_space_group_name_H-M   'P 1'
_cell_length_a   5.01784500
_cell_length_b   6.69671824
_cell_length_c   6.59523554
_cell_angle_alpha   97.85039192
_cell_angle_beta   112.35935794
_cell_angle_gamma   67.99734060
_symmetry_Int_Tables_number   1
_chemical_formula_structural   UAl7Fe3Cu2
_chemical_formula_sum   'U1 Al7 Fe3 Cu2'
_cell_volume   190.02567140
_cell_formula_units_Z   1
loop_
 _symmetry_equiv_pos_site_id
 _symmetry_equiv_pos_as_xyz
  1  'x, y, z'
loop_
 _atom_site_type_symbol
 _atom_site_label
 _atom_site_symmetry_multiplicity
 _atom_site_fract_x
 _atom_site_fract_y
 _atom_site_fract_z
 _atom_site_occupancy
  U  U0  1  0.00802700  0.99307000  0.00912400  1
  Al  Al0  1  0.65643000  0.33401400  0.64687400  1
  Al  Al1  1  0.34606800  0.66053200  0.35266700  1
  Al  Al2  1  0.99572400  0.35207800  0.34352700  1
  Al  Al3  1  0.98458600  0.66905000  0.63822200  1
  Al  Al4  1  0.27747400  0.21929300  0.77424200  1
  Al  Al5  1  0.50315400  0.78854800  0.79485600  1
  Al  Al6  1  0.50696700  0.20152500  0.21545900  1
  Fe  Fe0  1  0.72587300  0.78187000  0.23361700  1
  Fe  Fe1  1  0.49424900  0.00070200  0.49702500  1
  Fe  Fe2  1  0.00207400  0.00070200  0.49702500  1
  Cu  Cu0  1  0.49833900  0.49930700  0.99868100  1
  Cu  Cu1  1  0.00103400  0.49930700  0.99868100  1
loop_
_geom_bond_atom_site_label_1
_geom_bond_atom_site_label_2
_geom_bond_distance
_geom_bond_site_symmetry_2
Al0 Fe2 2.601500 1_655
Al0 Fe1 2.601501 1_555
Al0 Cu1 2.697950 1_655
Al0 Cu0 2.697952 1_555
Al0 Al1 2.698131 1_555
Al0 Al4 2.719910 1_655
Al0 Al4 2.719915 1_555
Al0 Al6 2.762381 1_555
Al0 Al5 2.968956 1_555
Al0 U0 3.049337 1_646
Al1 Fe1 2.605150 1_565
Al1 Fe2 2.605152 1_565
Al1 Cu0 2.692664 1_554
Al1 Cu1 2.692669 1_554
Al1 Fe0 2.716974 1_555
Al1 Fe0 2.716983 1_455
Al1 Al5 2.817037 1_555
Al1 U0 2.931530 1_555
Al1 Al6 2.975849 1_555
Al1 Al3 3.054881 1_555
Al1 Al3 3.054886 1_455
Al1 Al2 3.157083 1_555
Al1 Al2 3.157092 1_455
Al2 Cu0 2.612238 1_554
Al2 Cu1 2.612238 1_654
Al2 Fe2 2.670733 1_655
Al2 Fe1 2.670735 1_655
Al2 Al3 2.674533 1_555
Al2 Fe0 2.746979 1_555
Al2 Al4 2.747976 1_655
Al2 Al6 2.790837 1_555
Al2 Al6 2.790842 1_655
Al2 U0 3.031810 1_645
Al3 Fe0 2.560663 1_555
Al3 Fe1 2.565313 1_565
Al3 Fe2 2.565313 1_665
Al3 Cu0 2.732979 1_655
Al3 Cu1 2.732982 1_655
Al3 Al5 2.787067 1_655
Al3 Al5 2.787067 1_555
Al3 Al4 2.907652 1_655
Al3 U0 3.037820 1_656
Al4 Fe2 2.501521 1_555
Al4 Fe1 2.501523 1_555
Al4 Cu1 2.546846 1_555
Al4 Cu0 2.546846 1_555
Al4 Al5 2.676568 1_545
Al4 Al6 2.692647 1_556
Al4 U0 3.208146 1_546
Al4 U0 3.208150 1_646
Al5 Cu1 2.516058 1_655
Al5 Cu0 2.516061 1_555
Al5 Fe2 2.554765 1_565
Al5 Fe1 2.554765 1_565
Al5 Fe0 2.676204 1_556
Al5 U0 3.104550 1_656
Al5 U0 3.104550 1_556
Al6 Fe2 2.469378 1_655
Al6 Fe1 2.469378 1_555
Al6 Cu0 2.586437 1_554
Al6 Cu1 2.586439 1_554
Al6 Fe0 2.607213 1_545
Al6 U0 3.094559 1_645
Al6 U0 3.094559 1_545
Fe0 Fe1 2.465948 1_565
Fe0 Fe2 2.465951 1_665
Fe0 U0 3.140751 1_555
Fe0 U0 3.140755 1_655
Fe1 Fe2 2.469658 1_555
Fe1 Fe2 2.548187 1_655
Fe1 U0 3.222568 1_545
Fe1 U0 3.373378 1_646
Fe2 U0 3.222568 1_545
Fe2 U0 3.373378 1_546
Cu0 Cu1 2.495399 1_555
Cu0 Cu1 2.522446 1_655
Cu0 Fe0 2.599400 1_556
Cu0 U0 3.310951 1_556
Cu0 U0 3.386998 1_646
Cu1 Fe0 2.599400 1_456
Cu1 U0 3.310953 1_556
Cu1 U0 3.386996 1_546
