# generated using pymatgen
data_K3Nb3(BO6)2
_symmetry_space_group_name_H-M   'P 1'
_cell_length_a   8.94319247
_cell_length_b   8.94319247
_cell_length_c   3.96600900
_cell_angle_alpha   90.00000000
_cell_angle_beta   90.00000000
_cell_angle_gamma   120.00000344
_symmetry_Int_Tables_number   1
_chemical_formula_structural   K3Nb3(BO6)2
_chemical_formula_sum   'K3 Nb3 B2 O12'
_cell_volume   274.70683580
_cell_formula_units_Z   1
loop_
 _symmetry_equiv_pos_site_id
 _symmetry_equiv_pos_as_xyz
  1  'x, y, z'
loop_
 _atom_site_type_symbol
 _atom_site_label
 _atom_site_symmetry_multiplicity
 _atom_site_fract_x
 _atom_site_fract_y
 _atom_site_fract_z
 _atom_site_occupancy
  K  K0  1  0.40414500  0.00000000  0.50000000  1
  K  K1  1  0.59585500  0.59585500  0.50000000  1
  K  K2  1  0.00000000  0.40414500  0.50000000  1
  Nb  Nb0  1  0.75298700  0.00000000  0.00000000  1
  Nb  Nb1  1  0.24701300  0.24701300  0.00000000  1
  Nb  Nb2  1  0.00000000  0.75298700  0.00000000  1
  B  B0  1  0.66666700  0.33333300  0.00000000  1
  B  B1  1  0.33333300  0.66666700  0.00000000  1
  O  O0  1  0.18963300  0.68550900  0.00000000  1
  O  O1  1  0.68550900  0.18963300  0.00000000  1
  O  O2  1  0.81036700  0.49587600  0.00000000  1
  O  O3  1  0.50412400  0.31449100  0.00000000  1
  O  O4  1  0.31449100  0.50412400  0.00000000  1
  O  O5  1  0.49587600  0.81036700  0.00000000  1
  O  O6  1  0.73563600  0.00000000  0.50000000  1
  O  O7  1  0.26436400  0.26436400  0.50000000  1
  O  O8  1  0.00000000  0.73563600  0.50000000  1
  O  O9  1  0.17793300  0.00000000  0.00000000  1
  O  O10  1  0.82206700  0.82206700  0.00000000  1
  O  O11  1  0.00000000  0.17793300  0.00000000  1
loop_
_geom_bond_atom_site_label_1
_geom_bond_atom_site_label_2
_geom_bond_distance
_geom_bond_site_symmetry_2
K0 O9 2.832855 1_556
K0 O9 2.832855 1_555
K0 O6 2.964588 1_555
K0 O1 2.978716 1_555
K0 O1 2.978716 1_556
K0 O5 2.978717 1_546
K0 O5 2.978717 1_545
K0 O8 3.179303 1_545
K0 O7 3.179303 1_555
K0 O0 3.182364 1_546
K0 O0 3.182364 1_545
K0 O3 3.182364 1_555
K0 O3 3.182364 1_556
K1 O10 2.832855 1_556
K1 O10 2.832855 1_555
K1 O7 2.964588 1_555
K1 O3 2.978717 1_555
K1 O3 2.978717 1_556
K1 O4 2.978717 1_555
K1 O4 2.978717 1_556
K1 O6 3.179303 1_565
K1 O8 3.179303 1_655
K1 O5 3.182364 1_556
K1 O2 3.182364 1_556
K1 O2 3.182364 1_555
K1 O5 3.182364 1_555
K2 O11 2.832855 1_556
K2 O11 2.832855 1_555
K2 O8 2.964588 1_555
K2 O0 2.978716 1_555
K2 O0 2.978716 1_556
K2 O2 2.978717 1_455
K2 O2 2.978717 1_456
K2 O6 3.179303 1_455
K2 O7 3.179303 1_555
K2 O1 3.182364 1_456
K2 O1 3.182364 1_455
K2 O4 3.182364 1_555
K2 O4 3.182364 1_556
Nb0 O11 1.974073 1_655
Nb0 O10 1.974073 1_545
Nb0 O6 1.989067 1_555
Nb0 O6 1.989067 1_554
Nb0 O5 2.064890 1_545
Nb0 O1 2.064890 1_555
Nb1 O9 1.974073 1_555
Nb1 O11 1.974073 1_555
Nb1 O7 1.989067 1_554
Nb1 O7 1.989067 1_555
Nb1 O4 2.064890 1_555
Nb1 O3 2.064890 1_555
Nb2 O9 1.974073 1_565
Nb2 O10 1.974073 1_455
Nb2 O8 1.989067 1_554
Nb2 O8 1.989067 1_555
Nb2 O2 2.064890 1_455
Nb2 O0 2.064890 1_555
B0 O1 1.377144 1_555
B0 O2 1.377150 1_555
B0 O3 1.377153 1_555
B1 O0 1.377144 1_555
B1 O5 1.377150 1_555
B1 O4 1.377153 1_555
