# generated using pymatgen
data_ThS2
_symmetry_space_group_name_H-M   'P 1'
_cell_length_a   4.30612083
_cell_length_b   7.28851418
_cell_length_c   8.64238571
_cell_angle_alpha   89.99998771
_cell_angle_beta   89.99998122
_cell_angle_gamma   89.99999963
_symmetry_Int_Tables_number   1
_chemical_formula_structural   ThS2
_chemical_formula_sum   'Th4 S8'
_cell_volume   271.24320043
_cell_formula_units_Z   4
loop_
 _symmetry_equiv_pos_site_id
 _symmetry_equiv_pos_as_xyz
  1  'x, y, z'
loop_
 _atom_site_type_symbol
 _atom_site_label
 _atom_site_symmetry_multiplicity
 _atom_site_fract_x
 _atom_site_fract_y
 _atom_site_fract_z
 _atom_site_occupancy
  Th  Th0  1  0.75000022  0.75058931  0.88269252  1
  Th  Th1  1  0.24999976  0.24941039  0.11730774  1
  Th  Th2  1  0.74999982  0.25058931  0.61730715  1
  Th  Th3  1  0.25000023  0.74940982  0.38269292  1
  S  S0  1  0.74999995  0.13952923  0.92935357  1
  S  S1  1  0.25000001  0.86046613  0.07064958  1
  S  S2  1  0.75000001  0.63952936  0.57064625  1
  S  S3  1  0.25000000  0.36046561  0.42935102  1
  S  S4  1  0.75000008  0.02795910  0.33522123  1
  S  S5  1  0.24999994  0.97204604  0.66477954  1
  S  S6  1  0.74999993  0.52795995  0.16477891  1
  S  S7  1  0.25000006  0.47204575  0.83522057  1
loop_
_geom_bond_atom_site_label_1
_geom_bond_atom_site_label_2
_geom_bond_distance
_geom_bond_site_symmetry_2
S0 Th1 2.813476 1_656
S0 Th1 2.813477 1_556
S0 Th2 2.815688 1_555
S0 Th0 2.863334 1_545
S1 Th0 2.813481 1_454
S1 Th0 2.813482 1_554
S1 Th3 2.815654 1_555
S1 Th1 2.863361 1_565
S2 Th3 2.813470 1_555
S2 Th3 2.813471 1_655
S2 Th0 2.815687 1_555
S2 Th2 2.863334 1_555
S3 Th2 2.813476 1_555
S3 Th2 2.813476 1_455
S3 Th1 2.815652 1_555
S3 Th3 2.863361 1_555
S4 Th2 2.928533 1_555
S4 Th3 2.987598 1_545
S4 Th3 2.987599 1_645
S4 Th1 3.284450 1_655
S4 Th1 3.284452 1_555
S5 Th3 2.928563 1_555
S5 Th2 2.987569 1_565
S5 Th2 2.987570 1_465
S5 Th0 3.284467 1_455
S5 Th0 3.284469 1_555
S6 Th0 2.928533 1_554
S6 Th1 2.987599 1_655
S6 Th1 2.987600 1_555
S6 Th3 3.284448 1_555
S6 Th3 3.284450 1_655
S7 Th1 2.928562 1_556
S7 Th0 2.987570 1_455
S7 Th0 2.987571 1_555
S7 Th2 3.284468 1_555
S7 Th2 3.284471 1_455
