# generated using pymatgen
data_Te6Mo3WSe2
_symmetry_space_group_name_H-M   'P 1'
_cell_length_a   3.49853595
_cell_length_b   3.49853595
_cell_length_c   39.58097400
_cell_angle_alpha   90.00000000
_cell_angle_beta   90.00000000
_cell_angle_gamma   119.99999915
_symmetry_Int_Tables_number   1
_chemical_formula_structural   Te6Mo3WSe2
_chemical_formula_sum   'Te6 Mo3 W1 Se2'
_cell_volume   419.55586413
_cell_formula_units_Z   1
loop_
 _symmetry_equiv_pos_site_id
 _symmetry_equiv_pos_as_xyz
  1  'x, y, z'
loop_
 _atom_site_type_symbol
 _atom_site_label
 _atom_site_symmetry_multiplicity
 _atom_site_fract_x
 _atom_site_fract_y
 _atom_site_fract_z
 _atom_site_occupancy
  Te  Te0  1  0.33333300  0.66666700  0.32833200  1
  Te  Te1  1  0.33333300  0.66666700  0.70382900  1
  Te  Te2  1  0.66666700  0.33333300  0.42336800  1
  Te  Te3  1  0.66666700  0.33333300  0.51594000  1
  Te  Te4  1  0.33333300  0.66666700  0.23522000  1
  Te  Te5  1  0.33333300  0.66666700  0.61124300  1
  Mo  Mo0  1  0.33333300  0.66666700  0.09392700  1
  Mo  Mo1  1  0.33333300  0.66666700  0.46968100  1
  Mo  Mo2  1  0.66666700  0.33333300  0.65756100  1
  W  W0  1  0.66666700  0.33333300  0.28178800  1
  Se  Se0  1  0.66666700  0.33333300  0.05304300  1
  Se  Se1  1  0.66666700  0.33333300  0.13481600  1
loop_
_geom_bond_atom_site_label_1
_geom_bond_atom_site_label_2
_geom_bond_distance
_geom_bond_site_symmetry_2
Te0 W0 2.733829 1_455
Te0 W0 2.733829 1_565
Te0 W0 2.733833 1_555
Te4 W0 2.734469 1_455
Te4 W0 2.734469 1_565
Te4 W0 2.734474 1_555
Mo0 Se0 2.588160 1_455
Mo0 Se0 2.588160 1_565
Mo0 Se0 2.588165 1_555
Mo0 Se1 2.588284 1_455
Mo0 Se1 2.588284 1_565
Mo0 Se1 2.588289 1_555
Mo1 Te3 2.726240 1_455
Mo1 Te3 2.726240 1_565
Mo1 Te3 2.726244 1_555
Mo1 Te2 2.727676 1_455
Mo1 Te2 2.727676 1_565
Mo1 Te2 2.727680 1_555
Mo2 Te1 2.726479 1_655
Mo2 Te1 2.726479 1_545
Mo2 Te1 2.726484 1_555
Mo2 Te5 2.727809 1_655
Mo2 Te5 2.727809 1_545
Mo2 Te5 2.727813 1_555
