# generated using pymatgen
data_Yb3(Co2Sn)4
_symmetry_space_group_name_H-M   'P 1'
_cell_length_a   7.52873300
_cell_length_b   8.86550118
_cell_length_c   8.86550118
_cell_angle_alpha   119.99999386
_cell_angle_beta   90.00000000
_cell_angle_gamma   90.00000000
_symmetry_Int_Tables_number   1
_chemical_formula_structural   Yb3(Co2Sn)4
_chemical_formula_sum   'Yb6 Co16 Sn8'
_cell_volume   512.45901532
_cell_formula_units_Z   2
loop_
 _symmetry_equiv_pos_site_id
 _symmetry_equiv_pos_as_xyz
  1  'x, y, z'
loop_
 _atom_site_type_symbol
 _atom_site_label
 _atom_site_symmetry_multiplicity
 _atom_site_fract_x
 _atom_site_fract_y
 _atom_site_fract_z
 _atom_site_occupancy
  Yb  Yb0  1  0.78222300  0.47461500  0.94923000  1
  Yb  Yb1  1  0.78222300  0.47461500  0.52538500  1
  Yb  Yb2  1  0.28222300  0.52538500  0.05077000  1
  Yb  Yb3  1  0.78222300  0.05077000  0.52538500  1
  Yb  Yb4  1  0.28222300  0.52538500  0.47461500  1
  Yb  Yb5  1  0.28222300  0.94923000  0.47461500  1
  Co  Co0  1  0.94530300  0.84178100  0.68356200  1
  Co  Co1  1  0.94530300  0.84178100  0.15821900  1
  Co  Co2  1  0.44530300  0.15821900  0.31643800  1
  Co  Co3  1  0.94530300  0.31643800  0.15821900  1
  Co  Co4  1  0.44530300  0.15821900  0.84178100  1
  Co  Co5  1  0.44530300  0.68356200  0.84178100  1
  Co  Co6  1  0.74926500  0.09645200  0.19290300  1
  Co  Co7  1  0.74926500  0.09645200  0.90354800  1
  Co  Co8  1  0.24926500  0.90354800  0.80709700  1
  Co  Co9  1  0.74926500  0.80709700  0.90354800  1
  Co  Co10  1  0.24926500  0.90354800  0.09645200  1
  Co  Co11  1  0.24926500  0.19290300  0.09645200  1
  Co  Co12  1  0.62576700  0.66666700  0.33333300  1
  Co  Co13  1  0.12576700  0.33333300  0.66666700  1
  Co  Co14  1  0.99617300  0.00000000  0.00000000  1
  Co  Co15  1  0.49617300  0.00000000  0.00000000  1
  Sn  Sn0  1  0.57040500  0.82750900  0.65501900  1
  Sn  Sn1  1  0.57040500  0.82750900  0.17249100  1
  Sn  Sn2  1  0.07040500  0.17249100  0.34498100  1
  Sn  Sn3  1  0.57040500  0.34498100  0.17249100  1
  Sn  Sn4  1  0.07040500  0.17249100  0.82750900  1
  Sn  Sn5  1  0.07040500  0.65501900  0.82750900  1
  Sn  Sn6  1  0.96587100  0.66666700  0.33333300  1
  Sn  Sn7  1  0.46587100  0.33333300  0.66666700  1
loop_
_geom_bond_atom_site_label_1
_geom_bond_atom_site_label_2
_geom_bond_distance
_geom_bond_site_symmetry_2
Co0 Co14 2.459533 1_566
Co0 Co8 2.477215 1_655
Co0 Co9 2.583833 1_555
Co0 Co7 2.583838 1_565
Co0 Sn6 2.693426 1_555
Co0 Sn5 2.714802 1_655
Co0 Sn4 2.714810 1_665
Co0 Sn0 2.831002 1_555
Co0 Yb3 3.083018 1_565
Co0 Yb1 3.083018 1_555
Co0 Yb5 3.540865 1_655
Co0 Yb4 3.540865 1_655
Co1 Co14 2.459533 1_565
Co1 Co10 2.477212 1_655
Co1 Co6 2.583841 1_565
Co1 Co9 2.583841 1_554
Co1 Sn6 2.693418 1_555
Co1 Sn2 2.714809 1_665
Co1 Sn5 2.714809 1_654
Co1 Sn1 2.831002 1_555
Co1 Yb3 3.083018 1_565
Co1 Yb0 3.083018 1_554
Co1 Yb5 3.540865 1_655
Co1 Yb2 3.540865 1_655
Co2 Co6 2.477215 1_555
Co2 Sn7 2.693426 1_555
Co2 Sn3 2.714802 1_555
Co2 Sn1 2.714810 1_545
Co2 Sn2 2.831002 1_555
Co2 Yb5 3.083018 1_545
Co2 Yb4 3.083018 1_555
Co2 Yb3 3.540865 1_555
Co2 Yb1 3.540865 1_555
Co3 Co6 2.583833 1_555
Co3 Co7 2.583838 1_554
Co3 Sn6 2.693426 1_555
Co3 Sn2 2.714802 1_655
Co3 Sn4 2.714810 1_654
Co3 Sn3 2.831002 1_555
Co3 Yb0 3.083018 1_554
Co3 Yb1 3.083018 1_555
Co3 Yb2 3.540865 1_655
Co3 Yb4 3.540865 1_655
Co4 Co7 2.477212 1_555
Co4 Co8 2.583841 1_545
Co4 Sn7 2.693418 1_555
Co4 Sn0 2.714809 1_545
Co4 Sn3 2.714809 1_556
Co4 Sn4 2.831002 1_555
Co4 Yb5 3.083018 1_545
Co4 Yb2 3.083018 1_556
Co4 Yb0 3.540865 1_555
Co4 Yb3 3.540865 1_555
Co5 Co9 2.477215 1_555
Co5 Co8 2.583833 1_555
Co5 Sn7 2.693426 1_555
Co5 Sn0 2.714802 1_555
Co5 Sn1 2.714810 1_556
Co5 Sn5 2.831002 1_555
Co5 Yb2 3.083018 1_556
Co5 Yb4 3.083018 1_555
Co5 Yb0 3.540865 1_555
Co5 Yb1 3.540865 1_555
Co6 Co7 2.565277 1_554
Co6 Co9 2.565277 1_544
Co6 Sn3 2.664480 1_555
Co6 Sn1 2.664495 1_545
Co6 Sn2 2.684954 1_655
Co6 Yb1 3.179275 1_555
Co6 Yb3 3.179279 1_555
Co7 Co9 2.565277 1_545
Co7 Sn0 2.664488 1_545
Co7 Sn3 2.664488 1_556
Co7 Sn4 2.684954 1_655
Co7 Yb3 3.179271 1_555
Co7 Yb0 3.179271 1_555
Co8 Sn5 2.664480 1_555
Co8 Sn4 2.664495 1_565
Co8 Sn0 2.684954 1_555
Co8 Yb4 3.179275 1_555
Co8 Yb5 3.179279 1_555
Co9 Sn0 2.664480 1_555
Co9 Sn1 2.664495 1_556
Co9 Sn5 2.684954 1_655
Co9 Yb1 3.179275 1_555
Co9 Yb0 3.179279 1_555
Co10 Co15 2.376781 1_565
Co10 Co14 2.413369 1_465
Co10 Co8 2.565277 1_554
Co10 Co11 2.565277 1_565
Co10 Co2 2.583838 1_565
Co10 Co5 2.583838 1_554
Co10 Sn5 2.664488 1_554
Co10 Sn2 2.664488 1_565
Co10 Sn1 2.684954 1_555
Co10 Yb2 3.179271 1_555
Co10 Yb5 3.179271 1_555
Co11 Co15 2.376777 1_555
Co11 Co14 2.413364 1_455
Co11 Co3 2.477215 1_455
Co11 Co8 2.565277 1_544
Co11 Co2 2.583833 1_555
Co11 Co4 2.583841 1_554
Co11 Sn2 2.664480 1_555
Co11 Sn4 2.664495 1_554
Co11 Sn3 2.684954 1_555
Co11 Yb4 3.179275 1_555
Co11 Yb2 3.179279 1_555
Co12 Sn1 2.504732 1_555
Co12 Sn3 2.504748 1_555
Co12 Sn0 2.504748 1_555
Co12 Sn6 2.560552 1_555
Co12 Yb3 3.175588 1_565
Co12 Yb0 3.175588 1_554
Co12 Yb1 3.175595 1_555
Co12 Yb5 3.375831 1_555
Co12 Yb2 3.375831 1_555
Co12 Yb4 3.375836 1_555
Co13 Sn4 2.504732 1_555
Co13 Sn5 2.504748 1_555
Co13 Sn2 2.504748 1_555
Co13 Sn7 2.560552 1_555
Co13 Yb5 3.175588 1_545
Co13 Yb2 3.175588 1_556
Co13 Yb4 3.175595 1_555
Co13 Yb3 3.375831 1_455
Co13 Yb0 3.375831 1_455
Co13 Yb1 3.375836 1_455
Co14 Co6 2.376777 1_555
Co14 Co9 2.376777 1_544
Co14 Co7 2.376781 1_554
Co14 Co8 2.413364 1_644
Co14 Co3 2.459533 1_555
Co14 Sn5 2.706997 1_644
Co14 Sn2 2.706997 1_655
Co14 Sn4 2.707004 1_654
Co15 Co8 2.376777 1_544
Co15 Co9 2.413364 1_544
Co15 Co6 2.413364 1_555
Co15 Co7 2.413369 1_554
Co15 Co4 2.459533 1_554
Co15 Co5 2.459533 1_544
Co15 Co2 2.459533 1_555
Co15 Sn0 2.706997 1_544
Co15 Sn3 2.706997 1_555
Co15 Sn1 2.707004 1_545
Sn0 Yb1 3.171182 1_555
Sn0 Yb3 3.171189 1_565
Sn0 Yb4 3.186805 1_555
Sn0 Yb5 3.186810 1_555
Sn1 Yb3 3.171184 1_565
Sn1 Yb0 3.171184 1_554
Sn1 Yb5 3.186804 1_555
Sn1 Yb2 3.186804 1_555
Sn2 Yb4 3.171182 1_555
Sn2 Yb5 3.171189 1_545
Sn2 Yb1 3.186805 1_455
Sn2 Yb3 3.186810 1_455
Sn3 Yb1 3.171182 1_555
Sn3 Yb0 3.171189 1_554
Sn3 Yb4 3.186805 1_555
Sn3 Yb2 3.186810 1_555
Sn4 Yb2 3.171184 1_556
Sn4 Yb5 3.171184 1_545
Sn4 Yb3 3.186804 1_455
Sn4 Yb0 3.186804 1_455
Sn5 Yb4 3.171182 1_555
Sn5 Yb2 3.171189 1_556
Sn5 Yb1 3.186805 1_455
Sn5 Yb0 3.186810 1_455
Sn6 Yb5 3.221667 1_655
Sn6 Yb2 3.221667 1_655
Sn6 Yb4 3.221672 1_655
Sn6 Yb3 3.257079 1_565
Sn6 Yb0 3.257079 1_554
Sn6 Yb1 3.257085 1_555
Sn7 Yb3 3.221667 1_555
Sn7 Yb0 3.221667 1_555
Sn7 Yb1 3.221672 1_555
Sn7 Yb5 3.257079 1_545
Sn7 Yb2 3.257079 1_556
Sn7 Yb4 3.257085 1_555
