# generated using pymatgen
data_Nb4VSe8
_symmetry_space_group_name_H-M   'P 1'
_cell_length_a   6.99518383
_cell_length_b   6.99515007
_cell_length_c   12.82978722
_cell_angle_alpha   90.00149389
_cell_angle_beta   89.99872249
_cell_angle_gamma   120.00015257
_symmetry_Int_Tables_number   1
_chemical_formula_structural   Nb4VSe8
_chemical_formula_sum   'Nb8 V2 Se16'
_cell_volume   543.68279002
_cell_formula_units_Z   2
loop_
 _symmetry_equiv_pos_site_id
 _symmetry_equiv_pos_as_xyz
  1  'x, y, z'
loop_
 _atom_site_type_symbol
 _atom_site_label
 _atom_site_symmetry_multiplicity
 _atom_site_fract_x
 _atom_site_fract_y
 _atom_site_fract_z
 _atom_site_occupancy
  Nb  Nb0  1  0.00000003  0.00000131  0.24999249  1
  Nb  Nb1  1  0.99999489  0.00000182  0.74998991  1
  Nb  Nb2  1  0.50785034  0.01570255  0.25000852  1
  Nb  Nb3  1  0.49216765  0.98431977  0.74999090  1
  Nb  Nb4  1  0.98429545  0.49215240  0.25000617  1
  Nb  Nb5  1  0.01568046  0.50783194  0.74999146  1
  Nb  Nb6  1  0.50785740  0.49214798  0.25000382  1
  Nb  Nb7  1  0.49216476  0.50783450  0.74999083  1
  V  V0  1  0.00000020  -0.00000105  -0.00002079  1
  V  V1  1  0.00000448  -0.00000573  0.50000623  1
  Se  Se0  1  0.33333540  0.66666256  0.61613641  1
  Se  Se1  1  0.66666477  0.33333264  0.38385795  1
  Se  Se2  1  0.66665164  0.33334795  0.11618475  1
  Se  Se3  1  0.33334036  0.66666075  0.88384096  1
  Se  Se4  1  0.16760787  0.33521639  0.12133751  1
  Se  Se5  1  0.83241538  0.66482847  0.87869191  1
  Se  Se6  1  0.66478185  0.83239243  0.12133974  1
  Se  Se7  1  0.83241057  0.66481303  0.62129176  1
  Se  Se8  1  0.33516522  0.16757990  0.87869026  1
  Se  Se9  1  0.16760472  0.33521122  0.37868494  1
  Se  Se10  1  0.16760557  0.83239684  0.12133644  1
  Se  Se11  1  0.33518251  0.16758850  0.62129094  1
  Se  Se12  1  0.83241779  0.16758351  0.87868247  1
  Se  Se13  1  0.66480191  0.83240284  0.37869315  1
  Se  Se14  1  0.83240217  0.16759353  0.62129100  1
  Se  Se15  1  0.16759659  0.83240195  0.37868925  1
loop_
_geom_bond_atom_site_label_1
_geom_bond_atom_site_label_2
_geom_bond_distance
_geom_bond_site_symmetry_2
Nb0 Se10 2.616895 1_545
Nb0 Se6 2.616956 1_445
Nb0 Se4 2.616960 1_555
Nb0 Se9 2.617195 1_555
Nb0 Se13 2.617222 1_445
Nb0 Se15 2.617230 1_545
Nb1 Se12 2.616950 1_555
Nb1 Se8 2.617117 1_655
Nb1 Se7 2.617142 1_545
Nb1 Se5 2.617145 1_545
Nb1 Se11 2.617159 1_655
Nb1 Se14 2.617193 1_555
Nb2 Se2 2.578922 1_555
Nb2 Se1 2.579028 1_555
Nb2 Se6 2.642331 1_545
Nb2 Se10 2.642419 1_545
Nb2 Se15 2.642504 1_545
Nb2 Se13 2.642572 1_545
Nb3 Se0 2.579194 1_555
Nb3 Se3 2.579208 1_555
Nb3 Se14 2.642563 1_565
Nb3 Se12 2.642590 1_565
Nb3 Se8 2.642660 1_565
Nb3 Se11 2.642699 1_565
Nb4 Se2 2.578894 1_555
Nb4 Se1 2.579066 1_555
Nb4 Se4 2.642363 1_655
Nb4 Se10 2.642401 1_655
Nb4 Se15 2.642488 1_655
Nb4 Se9 2.642524 1_655
Nb5 Se0 2.579204 1_555
Nb5 Se3 2.579206 1_555
Nb5 Se14 2.642570 1_455
Nb5 Se12 2.642578 1_455
Nb5 Se5 2.642667 1_455
Nb5 Se7 2.642684 1_455
Nb6 Se2 2.578600 1_555
Nb6 Se1 2.579100 1_555
Nb6 Se6 2.642361 1_555
Nb6 Se4 2.642401 1_555
Nb6 Se9 2.642504 1_555
Nb6 Se13 2.642562 1_555
Nb7 Se3 2.579120 1_555
Nb7 Se0 2.579259 1_555
Nb7 Se11 2.642594 1_555
Nb7 Se7 2.642604 1_555
Nb7 Se5 2.642670 1_555
Nb7 Se8 2.642675 1_555
Se4 V0 2.558913 1_555
Se5 V0 2.558133 1_666
Se6 V0 2.558950 1_665
Se7 V1 2.558213 1_665
Se8 V0 2.558135 1_556
Se9 V1 2.558664 1_555
Se10 V0 2.558920 1_565
Se11 V1 2.558191 1_555
Se12 V0 2.558253 1_656
Se13 V1 2.558531 1_665
Se14 V1 2.558257 1_655
Se15 V1 2.558426 1_565
