# generated using pymatgen
data_Sr4TiP4
_symmetry_space_group_name_H-M   'P 1'
_cell_length_a   12.62971237
_cell_length_b   12.62971237
_cell_length_c   12.62971237
_cell_angle_alpha   90.00000000
_cell_angle_beta   90.00000000
_cell_angle_gamma   90.00000000
_symmetry_Int_Tables_number   1
_chemical_formula_structural   Sr4TiP4
_chemical_formula_sum   'Sr32 Ti8 P32'
_cell_volume   2014.56080460
_cell_formula_units_Z   8
loop_
 _symmetry_equiv_pos_site_id
 _symmetry_equiv_pos_as_xyz
  1  'x, y, z'
loop_
 _atom_site_type_symbol
 _atom_site_label
 _atom_site_symmetry_multiplicity
 _atom_site_fract_x
 _atom_site_fract_y
 _atom_site_fract_z
 _atom_site_occupancy
  Sr  Sr0  1  0.14824703  0.14824703  0.14824703  1
  Sr  Sr1  1  0.35175297  0.64824703  0.35175297  1
  Sr  Sr2  1  0.64824703  0.35175297  0.35175297  1
  Sr  Sr3  1  0.35175297  0.35175297  0.64824703  1
  Sr  Sr4  1  0.14824703  0.85175297  0.85175297  1
  Sr  Sr5  1  0.85175297  0.85175297  0.14824703  1
  Sr  Sr6  1  0.85175297  0.14824703  0.85175297  1
  Sr  Sr7  1  0.64824703  0.64824703  0.64824703  1
  Sr  Sr8  1  0.90614496  0.86264301  0.64797182  1
  Sr  Sr9  1  0.90614496  0.13735699  0.35202818  1
  Sr  Sr10  1  0.86264301  0.64797182  0.90614496  1
  Sr  Sr11  1  0.13735699  0.64797182  0.09385504  1
  Sr  Sr12  1  0.64797182  0.90614496  0.86264301  1
  Sr  Sr13  1  0.35202818  0.09385504  0.86264301  1
  Sr  Sr14  1  0.59385504  0.85202818  0.36264301  1
  Sr  Sr15  1  0.59385504  0.14797182  0.63735699  1
  Sr  Sr16  1  0.40614496  0.85202818  0.63735699  1
  Sr  Sr17  1  0.14797182  0.63735699  0.59385504  1
  Sr  Sr18  1  0.63735699  0.40614496  0.85202818  1
  Sr  Sr19  1  0.63735699  0.59385504  0.14797182  1
  Sr  Sr20  1  0.85202818  0.36264301  0.59385504  1
  Sr  Sr21  1  0.36264301  0.59385504  0.85202818  1
  Sr  Sr22  1  0.85202818  0.63735699  0.40614496  1
  Sr  Sr23  1  0.14797182  0.36264301  0.40614496  1
  Sr  Sr24  1  0.36264301  0.40614496  0.14797182  1
  Sr  Sr25  1  0.35202818  0.90614496  0.13735699  1
  Sr  Sr26  1  0.64797182  0.09385504  0.13735699  1
  Sr  Sr27  1  0.86264301  0.35202818  0.09385504  1
  Sr  Sr28  1  0.13735699  0.35202818  0.90614496  1
  Sr  Sr29  1  0.09385504  0.13735699  0.64797182  1
  Sr  Sr30  1  0.09385504  0.86264301  0.35202818  1
  Sr  Sr31  1  0.40614496  0.14797182  0.36264301  1
  Ti  Ti0  1  0.50000000  0.50000000  0.50000000  1
  Ti  Ti1  1  0.00000000  -0.00000000  0.00000000  1
  Ti  Ti2  1  0.75000000  -0.00000000  0.50000000  1
  Ti  Ti3  1  0.50000000  0.75000000  0.00000000  1
  Ti  Ti4  1  0.50000000  0.25000000  0.00000000  1
  Ti  Ti5  1  0.00000000  0.50000000  0.25000000  1
  Ti  Ti6  1  0.00000000  0.50000000  0.75000000  1
  Ti  Ti7  1  0.25000000  -0.00000000  0.50000000  1
  P  P0  1  0.89147099  0.89147099  0.89147099  1
  P  P1  1  0.60852901  0.39147099  0.60852901  1
  P  P2  1  0.39147099  0.60852901  0.60852901  1
  P  P3  1  0.60852901  0.60852901  0.39147099  1
  P  P4  1  0.89147099  0.10852901  0.10852901  1
  P  P5  1  0.10852901  0.10852901  0.89147099  1
  P  P6  1  0.10852901  0.89147099  0.10852901  1
  P  P7  1  0.39147099  0.39147099  0.39147099  1
  P  P8  1  0.64594946  0.89267846  0.61461602  1
  P  P9  1  0.64594946  0.10732154  0.38538398  1
  P  P10  1  0.89267846  0.61461602  0.64594946  1
  P  P11  1  0.10732154  0.61461602  0.35405054  1
  P  P12  1  0.61461602  0.64594946  0.89267846  1
  P  P13  1  0.38538398  0.35405054  0.89267846  1
  P  P14  1  0.85405054  0.88538398  0.39267846  1
  P  P15  1  0.85405054  0.11461602  0.60732154  1
  P  P16  1  0.14594946  0.88538398  0.60732154  1
  P  P17  1  0.11461602  0.60732154  0.85405054  1
  P  P18  1  0.60732154  0.14594946  0.88538398  1
  P  P19  1  0.60732154  0.85405054  0.11461602  1
  P  P20  1  0.88538398  0.39267846  0.85405054  1
  P  P21  1  0.39267846  0.85405054  0.88538398  1
  P  P22  1  0.88538398  0.60732154  0.14594946  1
  P  P23  1  0.11461602  0.39267846  0.14594946  1
  P  P24  1  0.39267846  0.14594946  0.11461602  1
  P  P25  1  0.38538398  0.64594946  0.10732154  1
  P  P26  1  0.61461602  0.35405054  0.10732154  1
  P  P27  1  0.89267846  0.38538398  0.35405054  1
  P  P28  1  0.10732154  0.38538398  0.64594946  1
  P  P29  1  0.35405054  0.10732154  0.61461602  1
  P  P30  1  0.35405054  0.89267846  0.38538398  1
  P  P31  1  0.14594946  0.11461602  0.39267846  1
loop_
_geom_bond_atom_site_label_1
_geom_bond_atom_site_label_2
_geom_bond_distance
_geom_bond_site_symmetry_2
Sr0 Ti1 3.242949 1_555
Sr1 Ti0 3.242949 1_555
Sr2 Ti0 3.242949 1_555
Sr3 Ti0 3.242949 1_555
Sr4 Ti1 3.242949 1_566
Sr5 Ti1 3.242949 1_665
Sr6 Ti1 3.242949 1_656
Sr7 Ti0 3.242949 1_555
Sr8 Ti2 3.223519 1_565
Sr9 Ti2 3.223519 1_555
Sr10 Ti6 3.223519 1_655
Sr11 Ti5 3.223519 1_555
Sr12 Ti3 3.223519 1_556
Sr13 Ti4 3.223519 1_556
Sr14 Ti2 3.223519 1_565
Sr15 Ti2 3.223519 1_555
Sr16 Ti7 3.223519 1_565
Sr17 Ti6 3.223519 1_555
Sr18 Ti4 3.223519 1_556
Sr19 Ti3 3.223519 1_555
Sr20 Ti6 3.223519 1_655
Sr21 Ti3 3.223519 1_556
Sr22 Ti5 3.223519 1_655
Sr23 Ti5 3.223519 1_555
Sr24 Ti4 3.223519 1_555
Sr25 Ti3 3.223519 1_555
Sr26 Ti4 3.223519 1_555
Sr27 Ti5 3.223519 1_655
Sr28 Ti6 3.223519 1_555
Sr29 Ti7 3.223519 1_555
Sr30 Ti7 3.223519 1_565
Sr31 Ti7 3.223519 1_555
P0 Ti1 2.374105 1_666
P0 Sr8 3.102342 1_555
P0 Sr12 3.102342 1_555
P0 Sr10 3.102342 1_555
P0 Sr5 3.319692 1_556
P0 Sr4 3.319692 1_655
P0 Sr6 3.319692 1_565
P1 Ti0 2.374105 1_555
P1 Sr18 3.102342 1_555
P1 Sr15 3.102342 1_555
P1 Sr20 3.102342 1_555
P1 Sr7 3.319692 1_555
P1 Sr3 3.319692 1_555
P1 Sr2 3.319692 1_555
P2 Ti0 2.374105 1_555
P2 Sr21 3.102342 1_555
P2 Sr16 3.102342 1_555
P2 Sr17 3.102342 1_555
P2 Sr7 3.319692 1_555
P2 Sr3 3.319692 1_555
P2 Sr1 3.319692 1_555
P3 Ti0 2.374105 1_555
P3 Sr22 3.102342 1_555
P3 Sr19 3.102342 1_555
P3 Sr14 3.102342 1_555
P3 Sr7 3.319692 1_555
P3 Sr1 3.319692 1_555
P3 Sr2 3.319692 1_555
P4 Ti1 2.374105 1_655
P4 Sr26 3.102342 1_555
P4 Sr9 3.102342 1_555
P4 Sr27 3.102342 1_555
P4 Sr5 3.319692 1_545
P4 Sr6 3.319692 1_554
P4 Sr0 3.319692 1_655
P5 Ti1 2.374105 1_556
P5 Sr29 3.102342 1_555
P5 Sr13 3.102342 1_555
P5 Sr28 3.102342 1_555
P5 Sr6 3.319692 1_455
P5 Sr4 3.319692 1_545
P5 Sr0 3.319692 1_556
P6 Ti1 2.374105 1_565
P6 Sr11 3.102342 1_555
P6 Sr30 3.102342 1_555
P6 Sr25 3.102342 1_555
P6 Sr4 3.319692 1_554
P6 Sr5 3.319692 1_455
P6 Sr0 3.319692 1_565
P7 Ti0 2.374105 1_555
P7 Sr24 3.102342 1_555
P7 Sr31 3.102342 1_555
P7 Sr23 3.102342 1_555
P7 Sr1 3.319692 1_555
P7 Sr2 3.319692 1_555
P7 Sr3 3.319692 1_555
P8 Ti2 2.378992 1_565
P8 Sr16 3.085266 1_555
P8 Sr7 3.116317 1_555
P8 Sr12 3.137227 1_555
P8 Sr14 3.289953 1_555
P8 Sr15 3.303236 1_565
P8 Sr8 3.334733 1_555
P9 Ti2 2.378992 1_555
P9 Sr31 3.085266 1_555
P9 Sr2 3.116317 1_555
P9 Sr26 3.137227 1_555
P9 Sr15 3.289953 1_555
P9 Sr14 3.303236 1_545
P9 Sr9 3.334733 1_555
P10 Ti6 2.378992 1_655
P10 Sr22 3.085266 1_555
P10 Sr7 3.116317 1_555
P10 Sr8 3.137227 1_555
P10 Sr20 3.289953 1_555
P10 Sr17 3.303236 1_655
P10 Sr10 3.334733 1_555
P11 Ti5 2.378992 1_555
P11 Sr17 3.085266 1_555
P11 Sr1 3.116317 1_555
P11 Sr30 3.137227 1_555
P11 Sr23 3.289953 1_555
P11 Sr22 3.303236 1_455
P11 Sr11 3.334733 1_555
P12 Ti3 2.378992 1_556
P12 Sr18 3.085266 1_555
P12 Sr7 3.116317 1_555
P12 Sr10 3.137227 1_555
P12 Sr21 3.289953 1_555
P12 Sr19 3.303236 1_556
P12 Sr12 3.334733 1_555
P13 Ti4 2.378992 1_556
P13 Sr21 3.085266 1_555
P13 Sr3 3.116317 1_555
P13 Sr28 3.137227 1_555
P13 Sr18 3.289953 1_555
P13 Sr24 3.303236 1_556
P13 Sr13 3.334733 1_555
P14 Ti2 2.378992 1_565
P14 Sr30 3.085266 1_655
P14 Sr5 3.116317 1_555
P14 Sr22 3.137227 1_555
P14 Sr9 3.289953 1_565
P14 Sr8 3.303236 1_555
P14 Sr14 3.334733 1_555
P15 Ti2 2.378992 1_555
P15 Sr29 3.085266 1_655
P15 Sr6 3.116317 1_555
P15 Sr20 3.137227 1_555
P15 Sr8 3.289953 1_545
P15 Sr9 3.303236 1_555
P15 Sr15 3.334733 1_555
P16 Ti7 2.378992 1_565
P16 Sr8 3.085266 1_455
P16 Sr4 3.116317 1_555
P16 Sr17 3.137227 1_555
P16 Sr29 3.289953 1_565
P16 Sr30 3.303236 1_555
P16 Sr16 3.334733 1_555
P17 Ti6 2.378992 1_555
P17 Sr11 3.085266 1_556
P17 Sr4 3.116317 1_555
P17 Sr21 3.137227 1_555
P17 Sr10 3.289953 1_455
P17 Sr28 3.303236 1_555
P17 Sr17 3.334733 1_555
P18 Ti4 2.378992 1_556
P18 Sr12 3.085266 1_545
P18 Sr6 3.116317 1_555
P18 Sr15 3.137227 1_555
P18 Sr26 3.289953 1_556
P18 Sr13 3.303236 1_555
P18 Sr18 3.334733 1_555
P19 Ti3 2.378992 1_555
P19 Sr26 3.085266 1_565
P19 Sr5 3.116317 1_555
P19 Sr14 3.137227 1_555
P19 Sr12 3.289953 1_554
P19 Sr25 3.303236 1_555
P19 Sr19 3.334733 1_555
P20 Ti6 2.378992 1_655
P20 Sr27 3.085266 1_556
P20 Sr6 3.116317 1_555
P20 Sr18 3.137227 1_555
P20 Sr28 3.289953 1_655
P20 Sr10 3.303236 1_555
P20 Sr20 3.334733 1_555
P21 Ti3 2.378992 1_556
P21 Sr13 3.085266 1_565
P21 Sr4 3.116317 1_555
P21 Sr16 3.137227 1_555
P21 Sr25 3.289953 1_556
P21 Sr12 3.303236 1_555
P21 Sr21 3.334733 1_555
P22 Ti5 2.378992 1_655
P22 Sr10 3.085266 1_554
P22 Sr5 3.116317 1_555
P22 Sr19 3.137227 1_555
P22 Sr11 3.289953 1_655
P22 Sr27 3.303236 1_555
P22 Sr22 3.334733 1_555
P23 Ti5 2.378992 1_555
P23 Sr28 3.085266 1_554
P23 Sr0 3.116317 1_555
P23 Sr24 3.137227 1_555
P23 Sr27 3.289953 1_455
P23 Sr11 3.303236 1_555
P23 Sr23 3.334733 1_555
P24 Ti4 2.378992 1_555
P24 Sr25 3.085266 1_545
P24 Sr0 3.116317 1_555
P24 Sr31 3.137227 1_555
P24 Sr13 3.289953 1_554
P24 Sr26 3.303236 1_555
P24 Sr24 3.334733 1_555
P25 Ti3 2.378992 1_555
P25 Sr24 3.085266 1_555
P25 Sr1 3.116317 1_555
P25 Sr11 3.137227 1_555
P25 Sr19 3.289953 1_555
P25 Sr21 3.303236 1_554
P25 Sr25 3.334733 1_555
P26 Ti4 2.378992 1_555
P26 Sr19 3.085266 1_555
P26 Sr2 3.116317 1_555
P26 Sr27 3.137227 1_555
P26 Sr24 3.289953 1_555
P26 Sr18 3.303236 1_554
P26 Sr26 3.334733 1_555
P27 Ti5 2.378992 1_655
P27 Sr20 3.085266 1_555
P27 Sr2 3.116317 1_555
P27 Sr9 3.137227 1_555
P27 Sr22 3.289953 1_555
P27 Sr23 3.303236 1_655
P27 Sr27 3.334733 1_555
P28 Ti6 2.378992 1_555
P28 Sr23 3.085266 1_555
P28 Sr3 3.116317 1_555
P28 Sr29 3.137227 1_555
P28 Sr17 3.289953 1_555
P28 Sr20 3.303236 1_455
P28 Sr28 3.334733 1_555
P29 Ti7 2.378992 1_555
P29 Sr15 3.085266 1_555
P29 Sr3 3.116317 1_555
P29 Sr13 3.137227 1_555
P29 Sr31 3.289953 1_555
P29 Sr16 3.303236 1_545
P29 Sr29 3.334733 1_555
P30 Ti7 2.378992 1_565
P30 Sr14 3.085266 1_555
P30 Sr1 3.116317 1_555
P30 Sr25 3.137227 1_555
P30 Sr16 3.289953 1_555
P30 Sr31 3.303236 1_565
P30 Sr30 3.334733 1_555
P31 Ti7 2.378992 1_555
P31 Sr9 3.085266 1_455
P31 Sr0 3.116317 1_555
P31 Sr23 3.137227 1_555
P31 Sr30 3.289953 1_545
P31 Sr29 3.303236 1_555
P31 Sr31 3.334733 1_555
