# generated using pymatgen
data_Ca5V3O13
_symmetry_space_group_name_H-M   'P 1'
_cell_length_a   10.01547271
_cell_length_b   10.01547271
_cell_length_c   6.95641100
_cell_angle_alpha   90.00000000
_cell_angle_beta   90.00000000
_cell_angle_gamma   120.00000467
_symmetry_Int_Tables_number   1
_chemical_formula_structural   Ca5V3O13
_chemical_formula_sum   'Ca10 V6 O26'
_cell_volume   604.30856279
_cell_formula_units_Z   2
loop_
 _symmetry_equiv_pos_site_id
 _symmetry_equiv_pos_as_xyz
  1  'x, y, z'
loop_
 _atom_site_type_symbol
 _atom_site_label
 _atom_site_symmetry_multiplicity
 _atom_site_fract_x
 _atom_site_fract_y
 _atom_site_fract_z
 _atom_site_occupancy
  Ca  Ca0  1  0.66666700  0.33333300  0.20636700  1
  Ca  Ca1  1  0.33333300  0.66666700  0.70636700  1
  Ca  Ca2  1  0.66666700  0.33333300  0.71181500  1
  Ca  Ca3  1  0.33333300  0.66666700  0.21181500  1
  Ca  Ca4  1  0.74804900  0.98560000  0.95917700  1
  Ca  Ca5  1  0.23755000  0.25195100  0.95917700  1
  Ca  Ca6  1  0.25195100  0.01440000  0.45917700  1
  Ca  Ca7  1  0.01440000  0.76245000  0.95917700  1
  Ca  Ca8  1  0.76245000  0.74804900  0.45917700  1
  Ca  Ca9  1  0.98560000  0.23755000  0.45917700  1
  V  V0  1  0.59827400  0.62732000  0.95825800  1
  V  V1  1  0.02904700  0.40172600  0.95825800  1
  V  V2  1  0.40172600  0.37268000  0.45825800  1
  V  V3  1  0.37268000  0.97095300  0.95825800  1
  V  V4  1  0.97095300  0.59827400  0.45825800  1
  V  V5  1  0.62732000  0.02904700  0.45825800  1
  O  O0  1  0.65705500  0.74831000  0.75988400  1
  O  O1  1  0.09125500  0.34294500  0.75988400  1
  O  O2  1  0.34294500  0.25169000  0.25988400  1
  O  O3  1  0.25169000  0.90874500  0.75988400  1
  O  O4  1  0.90874500  0.65705500  0.25988400  1
  O  O5  1  0.74831000  0.09125500  0.25988400  1
  O  O6  1  0.75279500  0.08387900  0.65235600  1
  O  O7  1  0.33108500  0.24720500  0.65235600  1
  O  O8  1  0.24720500  0.91612100  0.15235600  1
  O  O9  1  0.91612100  0.66891500  0.65235600  1
  O  O10  1  0.66891500  0.75279500  0.15235600  1
  O  O11  1  0.08387900  0.33108500  0.15235600  1
  O  O12  1  0.83245700  0.33277500  0.95622800  1
  O  O13  1  0.50031800  0.16754300  0.95622800  1
  O  O14  1  0.16754300  0.66722500  0.45622800  1
  O  O15  1  0.66722500  0.49968200  0.95622800  1
  O  O16  1  0.49968200  0.83245700  0.45622800  1
  O  O17  1  0.33277500  0.50031800  0.45622800  1
  O  O18  1  0.39533900  0.53151600  0.96401200  1
  O  O19  1  0.13617800  0.60466100  0.96401200  1
  O  O20  1  0.60466100  0.46848400  0.46401200  1
  O  O21  1  0.46848400  0.86382200  0.96401200  1
  O  O22  1  0.86382200  0.39533900  0.46401200  1
  O  O23  1  0.53151600  0.13617800  0.46401200  1
  O  O24  1  0.00000000  0.00000000  0.95827200  1
  O  O25  1  0.00000000  0.00000000  0.45827200  1
loop_
_geom_bond_atom_site_label_1
_geom_bond_atom_site_label_2
_geom_bond_distance
_geom_bond_site_symmetry_2
Ca0 O12 2.407135 1_554
Ca0 O13 2.407138 1_554
Ca0 O15 2.407142 1_554
Ca0 O22 2.504143 1_555
Ca0 O23 2.504146 1_555
Ca0 O20 2.504156 1_555
Ca0 O5 2.944157 1_555
Ca0 O4 2.944164 1_555
Ca0 O2 2.944167 1_555
Ca1 O14 2.407135 1_555
Ca1 O16 2.407138 1_555
Ca1 O17 2.407142 1_555
Ca1 O19 2.504143 1_555
Ca1 O21 2.504146 1_555
Ca1 O18 2.504156 1_555
Ca1 O3 2.944157 1_555
Ca1 O1 2.944164 1_555
Ca1 O0 2.944167 1_555
Ca2 O12 2.378500 1_555
Ca2 O13 2.378503 1_555
Ca2 O15 2.378507 1_555
Ca2 O22 2.455606 1_555
Ca2 O23 2.455609 1_555
Ca2 O20 2.455620 1_555
Ca3 O14 2.378500 1_555
Ca3 O16 2.378503 1_555
Ca3 O17 2.378507 1_555
Ca3 O19 2.455606 1_554
Ca3 O21 2.455609 1_554
Ca3 O18 2.455620 1_554
Ca4 O6 2.340916 1_565
Ca4 O5 2.343672 1_566
Ca4 O21 2.431778 1_555
Ca4 O10 2.454111 1_556
Ca4 O24 2.454485 1_665
Ca4 O0 2.496952 1_555
Ca5 O7 2.340924 1_555
Ca5 O2 2.343676 1_556
Ca5 O18 2.431780 1_555
Ca5 O11 2.454111 1_556
Ca5 O24 2.454480 1_555
Ca5 O1 2.496944 1_555
Ca6 O8 2.340916 1_545
Ca6 O3 2.343672 1_545
Ca6 O23 2.431778 1_555
Ca6 O7 2.454111 1_555
Ca6 O25 2.454485 1_555
Ca6 O2 2.496952 1_555
Ca7 O9 2.340920 1_455
Ca7 O4 2.343674 1_456
Ca7 O19 2.431796 1_555
Ca7 O8 2.454111 1_556
Ca7 O24 2.454475 1_565
Ca7 O3 2.496951 1_555
Ca8 O10 2.340924 1_555
Ca8 O0 2.343676 1_555
Ca8 O20 2.431780 1_555
Ca8 O9 2.454111 1_555
Ca8 O25 2.454480 1_665
Ca8 O4 2.496944 1_555
Ca9 O11 2.340920 1_655
Ca9 O1 2.343674 1_655
Ca9 O22 2.431796 1_555
Ca9 O6 2.454111 1_555
Ca9 O25 2.454475 1_655
Ca9 O5 2.496951 1_555
O0 V0 1.733756 1_555
O1 V1 1.733750 1_555
O2 V2 1.733756 1_555
O3 V3 1.733755 1_555
O4 V4 1.733750 1_555
O5 V5 1.733755 1_555
O6 V5 1.736039 1_555
O7 V2 1.736038 1_555
O8 V3 1.736039 1_554
O9 V4 1.736028 1_555
O10 V0 1.736038 1_554
O11 V1 1.736028 1_554
O12 V1 1.730353 1_655
O13 V3 1.730351 1_545
O14 V4 1.730353 1_455
O15 V0 1.730344 1_555
O16 V5 1.730351 1_565
O17 V2 1.730344 1_555
O18 V0 1.761556 1_555
O19 V1 1.761556 1_555
O20 V2 1.761556 1_555
O21 V3 1.761557 1_555
O22 V4 1.761556 1_555
O23 V5 1.761557 1_555
