# generated using pymatgen
data_ZrMnSi2
_symmetry_space_group_name_H-M   'P 1'
_cell_length_a   9.86774595
_cell_length_b   9.86774595
_cell_length_c   9.86774595
_cell_angle_alpha   149.66741001
_cell_angle_beta   132.85387280
_cell_angle_gamma   57.09557224
_symmetry_Int_Tables_number   1
_chemical_formula_structural   ZrMnSi2
_chemical_formula_sum   'Zr6 Mn6 Si12'
_cell_volume   353.23197536
_cell_formula_units_Z   6
loop_
 _symmetry_equiv_pos_site_id
 _symmetry_equiv_pos_as_xyz
  1  'x, y, z'
loop_
 _atom_site_type_symbol
 _atom_site_label
 _atom_site_symmetry_multiplicity
 _atom_site_fract_x
 _atom_site_fract_y
 _atom_site_fract_z
 _atom_site_occupancy
  Zr  Zr0  1  0.35365700  0.09470000  0.25895700  1
  Zr  Zr1  1  0.64634300  0.90530000  0.74104300  1
  Zr  Zr2  1  0.16425800  0.90530000  0.25895700  1
  Zr  Zr3  1  0.83574200  0.09470000  0.74104300  1
  Zr  Zr4  1  0.64110400  0.64110400  0.00000000  1
  Zr  Zr5  1  0.35889600  0.35889600  0.00000000  1
  Mn  Mn0  1  0.50000000  0.00000000  0.00000000  1
  Mn  Mn1  1  0.50000000  0.50000000  0.50000000  1
  Mn  Mn2  1  0.00000000  0.00000000  0.50000000  1
  Mn  Mn3  1  0.00000000  0.50000000  0.00000000  1
  Mn  Mn4  1  0.24783800  0.50000000  0.74783800  1
  Mn  Mn5  1  0.75216200  0.50000000  0.25216200  1
  Si  Si0  1  0.00000000  0.75540800  0.75540800  1
  Si  Si1  1  0.00000000  0.24459200  0.24459200  1
  Si  Si2  1  0.50000000  0.24545600  0.74545600  1
  Si  Si3  1  0.50000000  0.75454400  0.25454400  1
  Si  Si4  1  0.20197500  0.20197500  0.00000000  1
  Si  Si5  1  0.79802500  0.79802500  0.00000000  1
  Si  Si6  1  0.28836600  0.78836600  0.50000000  1
  Si  Si7  1  0.71163400  0.21163400  0.50000000  1
  Si  Si8  1  0.71353800  0.36309200  0.35044500  1
  Si  Si9  1  0.28646200  0.63690800  0.64955500  1
  Si  Si10  1  0.98735300  0.63690800  0.35044500  1
  Si  Si11  1  0.01264700  0.36309200  0.64955500  1
loop_
_geom_bond_atom_site_label_1
_geom_bond_atom_site_label_2
_geom_bond_distance
_geom_bond_site_symmetry_2
Mn0 Si7 2.449870 1_555
Mn0 Si6 2.449870 1_544
Mn0 Si8 2.477604 1_555
Mn0 Si9 2.477604 1_544
Mn0 Si5 2.500529 1_545
Mn0 Si4 2.500529 1_555
Mn1 Si6 2.449870 1_555
Mn1 Si7 2.449870 1_555
Mn1 Si9 2.477606 1_555
Mn1 Si8 2.477606 1_555
Mn1 Si5 2.500529 1_556
Mn1 Si4 2.500529 1_555
Mn2 Si6 2.449870 1_545
Mn2 Si7 2.449870 1_455
Mn2 Si10 2.477597 1_445
Mn2 Si11 2.477597 1_555
Mn2 Si4 2.500529 1_556
Mn2 Si5 2.500529 1_445
Mn3 Si6 2.449870 1_555
Mn3 Si7 2.449870 1_454
Mn3 Si10 2.477597 1_455
Mn3 Si11 2.477597 1_554
Mn3 Si5 2.500529 1_455
Mn3 Si4 2.500529 1_555
Mn4 Si0 2.359090 1_555
Mn4 Si1 2.359090 1_555
Mn4 Si2 2.385002 1_555
Mn4 Si3 2.385002 1_556
Mn4 Si9 2.496980 1_555
Mn4 Si11 2.496987 1_555
Mn5 Si1 2.359090 1_655
Mn5 Si0 2.359090 1_655
Mn5 Si2 2.385002 1_554
Mn5 Si3 2.385002 1_555
Mn5 Si8 2.496980 1_555
Mn5 Si10 2.496987 1_555
Si0 Zr2 2.909878 1_556
Si0 Zr3 2.909880 1_465
Si0 Zr0 2.909881 1_566
Si0 Zr1 2.909881 1_455
Si1 Zr3 2.909878 1_454
Si1 Zr2 2.909880 1_545
Si1 Zr1 2.909881 1_444
Si1 Zr0 2.909881 1_555
Si2 Si3 2.534691 1_545
Si2 Si3 2.628537 1_556
Si2 Zr4 2.776889 1_556
Si2 Zr5 2.776889 1_556
Si2 Zr3 2.814372 1_555
Si2 Zr2 2.814374 1_545
Si2 Zr0 2.814380 1_555
Si2 Zr1 2.814380 1_545
Si3 Zr5 2.776889 1_555
Si3 Zr4 2.776889 1_555
Si3 Zr2 2.814372 1_555
Si3 Zr3 2.814374 1_565
Si3 Zr1 2.814380 1_555
Si3 Zr0 2.814380 1_565
Si4 Zr5 2.720387 1_555
Si4 Zr0 2.763304 1_555
Si4 Zr3 2.763312 1_454
Si5 Zr4 2.720387 1_555
Si5 Zr1 2.763304 1_554
Si5 Zr2 2.763312 1_655
Si6 Zr1 2.780062 1_555
Si6 Zr2 2.780066 1_555
Si6 Zr5 2.856528 1_555
Si6 Zr5 2.856528 1_566
Si7 Zr0 2.780062 1_555
Si7 Zr3 2.780066 1_555
Si7 Zr4 2.856528 1_556
Si7 Zr4 2.856528 1_545
Si8 Zr5 2.766876 1_555
Si8 Zr1 2.818811 1_544
Si8 Zr1 2.818816 1_555
Si9 Zr4 2.766876 1_556
Si9 Zr0 2.818811 1_566
Si9 Zr0 2.818816 1_555
Si10 Si9 2.360746 1_655
Si10 Zr4 2.766872 1_555
Si10 Zr3 2.818815 1_554
Si10 Zr3 2.818820 1_565
Si11 Si8 2.360746 1_455
Si11 Zr5 2.766872 1_556
Si11 Zr2 2.818815 1_556
Si11 Zr2 2.818820 1_545
