# generated using pymatgen
data_SbTe3O8
_symmetry_space_group_name_H-M   'P 1'
_cell_length_a   9.92468230
_cell_length_b   9.92468230
_cell_length_c   9.92468230
_cell_angle_alpha   109.47122063
_cell_angle_beta   109.47122063
_cell_angle_gamma   109.47122063
_symmetry_Int_Tables_number   1
_chemical_formula_structural   SbTe3O8
_chemical_formula_sum   'Sb4 Te12 O32'
_cell_volume   752.53715993
_cell_formula_units_Z   4
loop_
 _symmetry_equiv_pos_site_id
 _symmetry_equiv_pos_as_xyz
  1  'x, y, z'
loop_
 _atom_site_type_symbol
 _atom_site_label
 _atom_site_symmetry_multiplicity
 _atom_site_fract_x
 _atom_site_fract_y
 _atom_site_fract_z
 _atom_site_occupancy
  Sb  Sb0  1  0.50000000  0.50000000  0.50000000  1
  Sb  Sb1  1  0.00000000  0.50000000  0.00000000  1
  Sb  Sb2  1  0.00000000  0.00000000  0.50000000  1
  Sb  Sb3  1  0.50000000  0.00000000  0.00000000  1
  Te  Te0  1  0.29521200  0.04521200  0.25000000  1
  Te  Te1  1  0.70478800  0.95478800  0.75000000  1
  Te  Te2  1  0.20478800  0.45478800  0.75000000  1
  Te  Te3  1  0.04521200  0.25000000  0.29521200  1
  Te  Te4  1  0.79521200  0.54521200  0.25000000  1
  Te  Te5  1  0.95478800  0.75000000  0.70478800  1
  Te  Te6  1  0.45478800  0.75000000  0.20478800  1
  Te  Te7  1  0.54521200  0.25000000  0.79521200  1
  Te  Te8  1  0.25000000  0.29521200  0.04521200  1
  Te  Te9  1  0.75000000  0.70478800  0.95478800  1
  Te  Te10  1  0.75000000  0.20478800  0.45478800  1
  Te  Te11  1  0.25000000  0.79521200  0.54521200  1
  O  O0  1  0.17152800  0.17152800  0.17152800  1
  O  O1  1  0.82847200  0.82847200  0.82847200  1
  O  O2  1  0.32847200  0.50000000  0.00000000  1
  O  O3  1  0.00000000  0.32847200  0.50000000  1
  O  O4  1  0.67152900  0.50000000  0.00000000  1
  O  O5  1  0.00000000  0.67152900  0.50000000  1
  O  O6  1  0.50000000  0.00000000  0.32847200  1
  O  O7  1  0.50000000  0.00000000  0.67152800  1
  O  O8  1  0.06569200  0.32522100  0.03311900  1
  O  O9  1  0.93430800  0.67477900  0.96688100  1
  O  O10  1  0.43430800  0.46742700  0.25952900  1
  O  O11  1  0.70789700  0.17477900  0.24047100  1
  O  O12  1  0.32522100  0.03311900  0.06569200  1
  O  O13  1  0.56569200  0.53257300  0.74047100  1
  O  O14  1  0.29210300  0.82522100  0.75952900  1
  O  O15  1  0.67477900  0.96688100  0.93430800  1
  O  O16  1  0.79210300  0.03257300  0.46688100  1
  O  O17  1  0.46742700  0.25952900  0.43430800  1
  O  O18  1  0.20789700  0.96742700  0.53311900  1
  O  O19  1  0.53257300  0.74047100  0.56569200  1
  O  O20  1  0.17477900  0.24047100  0.70789700  1
  O  O21  1  0.82522100  0.75952900  0.29210300  1
  O  O22  1  0.03257300  0.46688100  0.79210300  1
  O  O23  1  0.96742700  0.53311900  0.20789700  1
  O  O24  1  0.03311900  0.06569200  0.32522100  1
  O  O25  1  0.96688100  0.93430800  0.67477900  1
  O  O26  1  0.24047100  0.70789700  0.17477900  1
  O  O27  1  0.75952900  0.29210300  0.82522100  1
  O  O28  1  0.46688100  0.79210300  0.03257300  1
  O  O29  1  0.53311900  0.20789700  0.96742700  1
  O  O30  1  0.25952900  0.43430800  0.46742700  1
  O  O31  1  0.74047100  0.56569200  0.53257300  1
loop_
_geom_bond_atom_site_label_1
_geom_bond_atom_site_label_2
_geom_bond_distance
_geom_bond_site_symmetry_2
O0 Te8 2.173585 1_555
O0 Te3 2.173585 1_555
O0 Te0 2.173585 1_555
O1 Te5 2.173585 1_555
O1 Te1 2.173585 1_555
O1 Te9 2.173585 1_555
O2 Te6 2.173585 1_555
O2 Te8 2.173585 1_555
O2 Te2 2.173585 1_554
O3 Te2 2.173585 1_555
O3 Te10 2.173585 1_455
O3 Te3 2.173585 1_555
O4 Te7 2.173584 1_554
O4 Te9 2.173584 1_554
O4 Te4 2.173584 1_555
O5 Te4 2.173584 1_455
O5 Te5 2.173584 1_455
O5 Te11 2.173584 1_555
O6 Te10 2.173585 1_555
O6 Te6 2.173585 1_545
O6 Te0 2.173585 1_555
O7 Te7 2.173585 1_555
O7 Te1 2.173585 1_545
O7 Te11 2.173585 1_545
O8 Te8 1.920869 1_555
O8 Sb1 2.129138 1_555
O9 Te9 1.920869 1_555
O9 Sb1 2.129138 1_656
O10 Te8 1.920869 1_555
O10 Sb0 2.129138 1_555
O11 Te10 1.920867 1_555
O11 Sb3 2.129135 1_555
O12 Te0 1.920869 1_555
O12 Sb3 2.129138 1_555
O13 Te9 1.920869 1_555
O13 Sb0 2.129138 1_555
O14 Te11 1.920867 1_555
O14 Sb3 2.129135 1_566
O15 Te1 1.920869 1_555
O15 Sb3 2.129138 1_566
O16 Te10 1.920874 1_555
O16 Sb2 2.129129 1_655
O17 Te0 1.920869 1_555
O17 Sb0 2.129138 1_555
O18 Te11 1.920874 1_555
O18 Sb2 2.129129 1_565
O19 Te1 1.920869 1_555
O19 Sb0 2.129138 1_555
O20 Te2 1.920867 1_555
O20 Sb2 2.129135 1_555
O21 Te4 1.920867 1_555
O21 Sb2 2.129135 1_665
O22 Te2 1.920874 1_555
O22 Sb1 2.129129 1_556
O23 Te4 1.920874 1_555
O23 Sb1 2.129129 1_655
O24 Te3 1.920869 1_555
O24 Sb2 2.129138 1_555
O25 Te5 1.920869 1_555
O25 Sb2 2.129138 1_665
O26 Te6 1.920867 1_555
O26 Sb1 2.129135 1_555
O27 Te7 1.920867 1_555
O27 Sb1 2.129135 1_656
O28 Te6 1.920874 1_555
O28 Sb3 2.129129 1_565
O29 Te7 1.920874 1_555
O29 Sb3 2.129129 1_556
O30 Te3 1.920869 1_555
O30 Sb0 2.129138 1_555
O31 Te5 1.920869 1_555
O31 Sb0 2.129138 1_555
