# generated using pymatgen
data_Al4InAgSe8
_symmetry_space_group_name_H-M   'P 1'
_cell_length_a   6.76878359
_cell_length_b   6.76878359
_cell_length_c   8.17870753
_cell_angle_alpha   89.77426854
_cell_angle_beta   89.77426854
_cell_angle_gamma   105.80370579
_symmetry_Int_Tables_number   1
_chemical_formula_structural   Al4InAgSe8
_chemical_formula_sum   'Al4 In1 Ag1 Se8'
_cell_volume   360.54725849
_cell_formula_units_Z   1
loop_
 _symmetry_equiv_pos_site_id
 _symmetry_equiv_pos_as_xyz
  1  'x, y, z'
loop_
 _atom_site_type_symbol
 _atom_site_label
 _atom_site_symmetry_multiplicity
 _atom_site_fract_x
 _atom_site_fract_y
 _atom_site_fract_z
 _atom_site_occupancy
  Al  Al0  1  0.98635457  0.01364543  0.50000000  1
  Al  Al1  1  0.51306027  0.48693973  0.00000000  1
  Al  Al2  1  0.99043480  0.48908701  0.75640695  1
  Al  Al3  1  0.51091299  0.00956520  0.24359305  1
  In  In0  1  0.50440525  0.49559475  0.50000000  1
  Ag  Ag0  1  0.99614189  0.00385811  0.00000000  1
  Se  Se0  1  0.40007928  0.12574115  0.99735515  1
  Se  Se1  1  0.90563269  0.63750645  0.50053699  1
  Se  Se2  1  0.87425885  0.59992072  0.00264485  1
  Se  Se3  1  0.36249355  0.09436731  0.49946301  1
  Se  Se4  1  0.86808514  0.14741745  0.26639833  1
  Se  Se5  1  0.36483828  0.62927911  0.76674806  1
  Se  Se6  1  0.85258255  0.13191486  0.73360167  1
  Se  Se7  1  0.37072089  0.63516172  0.23325194  1
loop_
_geom_bond_atom_site_label_1
_geom_bond_atom_site_label_2
_geom_bond_distance
_geom_bond_site_symmetry_2
Al0 Se4 2.346110 1_555
Al0 Se6 2.346110 1_555
Al0 Se3 2.454154 1_655
Al0 Se1 2.454154 1_545
Al1 Se0 2.354753 1_554
Al1 Se2 2.354753 1_555
Al1 Se7 2.470073 1_555
Al1 Se5 2.470073 1_554
Al2 Se6 2.350857 1_555
Al2 Se2 2.357493 1_556
Al2 Se5 2.454083 1_655
Al2 Se1 2.454602 1_555
Al3 Se4 2.350857 1_555
Al3 Se0 2.357493 1_554
Al3 Se7 2.454083 1_545
Al3 Se3 2.454602 1_555
In0 Se1 2.622516 1_555
In0 Se3 2.622516 1_555
In0 Se5 2.633593 1_555
In0 Se7 2.633593 1_555
Ag0 Se6 2.627411 1_554
Ag0 Se4 2.627411 1_555
Ag0 Se0 2.632015 1_654
Ag0 Se2 2.632015 1_545
