# generated using pymatgen
data_La3SiCl3
_symmetry_space_group_name_H-M   'P 1'
_cell_length_a   10.35621287
_cell_length_b   10.35599967
_cell_length_c   10.35626590
_cell_angle_alpha   109.47089363
_cell_angle_beta   109.47162030
_cell_angle_gamma   109.47183377
_symmetry_Int_Tables_number   1
_chemical_formula_structural   La3SiCl3
_chemical_formula_sum   'La12 Si4 Cl12'
_cell_volume   855.00887472
_cell_formula_units_Z   4
loop_
 _symmetry_equiv_pos_site_id
 _symmetry_equiv_pos_as_xyz
  1  'x, y, z'
loop_
 _atom_site_type_symbol
 _atom_site_label
 _atom_site_symmetry_multiplicity
 _atom_site_fract_x
 _atom_site_fract_y
 _atom_site_fract_z
 _atom_site_occupancy
  La  La0  1  0.48891999  0.49446738  0.24445650  1
  La  La1  1  0.75001195  0.24449042  0.25552547  1
  La  La2  1  0.75001307  0.00551950  0.49447893  1
  La  La3  1  0.24444224  0.48889203  0.49445998  1
  La  La4  1  0.25558054  0.75000697  0.24447963  1
  La  La5  1  0.01108760  0.25555221  0.00554399  1
  La  La6  1  0.00552041  0.01104575  0.25553496  1
  La  La7  1  0.49442682  0.74999929  0.00556840  1
  La  La8  1  0.49442356  0.24441699  0.48885433  1
  La  La9  1  0.00553418  0.49446970  0.74999458  1
  La  La10  1  0.25555622  0.00554827  0.01109931  1
  La  La11  1  0.24444687  0.25556541  0.74999533  1
  Si  Si0  1  0.24999803  0.25000106  0.25000555  1
  Si  Si1  1  0.50002548  0.00001144  0.25001381  1
  Si  Si2  1  -0.00000754  0.24998239  0.49998474  1
  Si  Si3  1  0.24999910  0.49999304  -0.00000760  1
  Cl  Cl0  1  0.24999364  0.75159671  0.74840162  1
  Cl  Cl1  1  0.50318534  0.50159919  0.75160028  1
  Cl  Cl2  1  0.99680489  0.74840986  0.99839998  1
  Cl  Cl3  1  0.74841140  0.24998588  0.75158819  1
  Cl  Cl4  1  0.99839797  0.99679846  0.74838961  1
  Cl  Cl5  1  0.24998723  0.99841082  0.50160046  1
  Cl  Cl6  1  0.75161400  0.50320592  0.50159720  1
  Cl  Cl7  1  0.50160513  0.25000573  0.99840613  1
  Cl  Cl8  1  0.75160656  0.74841844  0.25001254  1
  Cl  Cl9  1  0.74840661  0.99840394  0.99680946  1
  Cl  Cl10  1  0.99839009  0.50159596  0.25000467  1
  Cl  Cl11  1  0.50161762  0.75160626  0.50320199  1
loop_
_geom_bond_atom_site_label_1
_geom_bond_atom_site_label_2
_geom_bond_distance
_geom_bond_site_symmetry_2
La0 Si3 2.924018 1_555
La0 Si0 2.924136 1_555
La1 Si1 2.924224 1_555
La1 Si2 2.924233 1_655
La2 Si2 2.924121 1_655
La2 Si1 2.924216 1_555
La3 Si2 2.923816 1_555
La3 Si0 2.923967 1_555
La4 Si1 2.924002 1_565
La4 Si3 2.924072 1_555
La5 Si3 2.923934 1_555
La5 Si0 2.924097 1_555
La6 Si2 2.924035 1_555
La6 Si0 2.924282 1_555
La7 Si3 2.923668 1_555
La7 Si1 2.923716 1_565
La8 Si1 2.923653 1_555
La8 Si0 2.923718 1_555
La9 Si3 2.924189 1_556
La9 Si2 2.924282 1_555
La10 Si0 2.924058 1_555
La10 Si1 2.924080 1_555
La11 Si3 2.923794 1_556
La11 Si2 2.923857 1_555
Cl0 La9 3.010472 1_555
Cl0 La7 3.010649 1_556
Cl0 La10 3.057117 1_566
Cl0 La3 3.057164 1_555
Cl1 La11 3.010415 1_555
Cl1 La3 3.010514 1_555
Cl1 La7 3.057361 1_556
Cl1 La8 3.057595 1_555
Cl2 La10 3.010548 1_666
Cl2 La4 3.010999 1_656
Cl2 La6 3.056911 1_666
Cl2 La9 3.057038 1_655
Cl3 La2 3.010500 1_555
Cl3 La9 3.010592 1_655
Cl3 La5 3.056989 1_656
Cl3 La8 3.057516 1_555
Cl4 La11 3.010671 1_665
Cl4 La5 3.010755 1_666
Cl4 La2 3.056691 1_565
Cl4 La10 3.057307 1_666
Cl5 La6 3.010438 1_565
Cl5 La8 3.010554 1_565
Cl5 La11 3.057133 1_565
Cl5 La4 3.057304 1_555
Cl6 La1 3.010541 1_555
Cl6 La8 3.010835 1_555
Cl6 La9 3.056915 1_655
Cl6 La0 3.057174 1_555
Cl7 La10 3.010605 1_556
Cl7 La0 3.010630 1_556
Cl7 La1 3.056837 1_556
Cl7 La11 3.057370 1_555
Cl8 La2 3.010394 1_565
Cl8 La7 3.010691 1_555
Cl8 La6 3.056652 1_665
Cl8 La0 3.057039 1_555
Cl9 La1 3.010614 1_566
Cl9 La6 3.010622 1_666
Cl9 La5 3.057113 1_666
Cl9 La7 3.057418 1_556
Cl10 La5 3.010661 1_655
Cl10 La3 3.010722 1_655
Cl10 La1 3.056571 1_555
Cl10 La4 3.057315 1_655
Cl11 La4 3.010412 1_555
Cl11 La0 3.010568 1_555
Cl11 La2 3.056734 1_565
Cl11 La3 3.057430 1_555
