# generated using pymatgen
data_La2MnPbO9
_symmetry_space_group_name_H-M   'P 1'
_cell_length_a   5.29380559
_cell_length_b   5.29380559
_cell_length_c   6.80111500
_cell_angle_alpha   90.00000000
_cell_angle_beta   90.00000000
_cell_angle_gamma   119.99999482
_symmetry_Int_Tables_number   1
_chemical_formula_structural   La2MnPbO9
_chemical_formula_sum   'La2 Mn1 Pb1 O9'
_cell_volume   165.06186523
_cell_formula_units_Z   1
loop_
 _symmetry_equiv_pos_site_id
 _symmetry_equiv_pos_as_xyz
  1  'x, y, z'
loop_
 _atom_site_type_symbol
 _atom_site_label
 _atom_site_symmetry_multiplicity
 _atom_site_fract_x
 _atom_site_fract_y
 _atom_site_fract_z
 _atom_site_occupancy
  La  La0  1  0.00000000  0.00000000  0.50173400  1
  La  La1  1  0.33333300  0.66666700  0.16381700  1
  Mn  Mn0  1  0.33333300  0.66666700  0.67021600  1
  Pb  Pb0  1  0.66666700  0.33333300  0.89366100  1
  O  O0  1  0.01554300  0.50777100  0.48684500  1
  O  O1  1  0.32957100  0.16478500  0.16533600  1
  O  O2  1  0.66307800  0.83153900  0.82689800  1
  O  O3  1  0.83521500  0.16478500  0.16533600  1
  O  O4  1  0.16846100  0.83153900  0.82689800  1
  O  O5  1  0.49222900  0.50777100  0.48684500  1
  O  O6  1  0.83521500  0.67042900  0.16533600  1
  O  O7  1  0.16846100  0.33692200  0.82689800  1
  O  O8  1  0.49222900  0.98445700  0.48684500  1
loop_
_geom_bond_atom_site_label_1
_geom_bond_atom_site_label_2
_geom_bond_distance
_geom_bond_site_symmetry_2
La0 O0 2.649795 1_555
La0 O8 2.649795 1_445
La0 O5 2.649797 1_555
La0 O5 2.649797 1_445
La0 O8 2.649800 1_545
La0 O0 2.649800 1_545
La0 O4 2.697509 1_545
La0 O7 2.697509 1_555
La0 O2 2.697509 1_445
La0 O3 2.741775 1_455
La0 O1 2.741778 1_555
La0 O6 2.741778 1_445
La1 O8 2.636141 1_555
La1 O0 2.636141 1_555
La1 O5 2.636146 1_555
La1 O1 2.646974 1_565
La1 O6 2.646974 1_455
La1 O3 2.646979 1_565
La1 O3 2.646979 1_455
La1 O6 2.646984 1_555
La1 O1 2.646984 1_555
La1 O4 2.745172 1_554
La1 O7 2.745175 1_554
La1 O2 2.745175 1_554
Mn0 O4 1.849560 1_555
Mn0 O2 1.849563 1_555
Mn0 O7 1.849563 1_555
Mn0 O8 1.917804 1_555
Mn0 O0 1.917804 1_555
Mn0 O5 1.917811 1_555
O1 Pb0 2.408808 1_554
O2 Pb0 2.685614 1_565
O2 Pb0 2.685620 1_555
O3 Pb0 2.408808 1_554
O4 Pb0 2.685617 1_455
O4 Pb0 2.685617 1_565
O6 Pb0 2.408808 1_554
O7 Pb0 2.685614 1_455
O7 Pb0 2.685620 1_555
