# generated using pymatgen
data_Li7Mn2(CoO4)3
_symmetry_space_group_name_H-M   'P 1'
_cell_length_a   3.02564700
_cell_length_b   8.04439676
_cell_length_c   9.83601865
_cell_angle_alpha   113.63759663
_cell_angle_beta   93.63108798
_cell_angle_gamma   89.42028713
_symmetry_Int_Tables_number   1
_chemical_formula_structural   Li7Mn2(CoO4)3
_chemical_formula_sum   'Li7 Mn2 Co3 O12'
_cell_volume   218.84697281
_cell_formula_units_Z   1
loop_
 _symmetry_equiv_pos_site_id
 _symmetry_equiv_pos_as_xyz
  1  'x, y, z'
loop_
 _atom_site_type_symbol
 _atom_site_label
 _atom_site_symmetry_multiplicity
 _atom_site_fract_x
 _atom_site_fract_y
 _atom_site_fract_z
 _atom_site_occupancy
  Li  Li0  1  0.00018000  0.82307200  0.66004400  1
  Li  Li1  1  0.49585100  0.33877600  0.16908900  1
  Li  Li2  1  0.49952800  0.99984400  0.49900100  1
  Li  Li3  1  0.00025500  0.50194300  0.00064800  1
  Li  Li4  1  0.99985300  0.17419900  0.33920100  1
  Li  Li5  1  0.50446000  0.66118800  0.83141800  1
  Li  Li6  1  0.49970900  0.50007700  0.49921000  1
  Mn  Mn0  1  0.99640800  0.99908500  0.00078000  1
  Mn  Mn1  1  0.50219800  0.16816300  0.83035300  1
  Co  Co0  1  0.99969800  0.66231100  0.34226200  1
  Co  Co1  1  0.00513100  0.34029000  0.65724300  1
  Co  Co2  1  0.49595600  0.82974900  0.17007600  1
  O  O0  1  0.52831400  0.92702300  0.83608800  1
  O  O1  1  0.00374700  0.43980800  0.33022800  1
  O  O2  1  0.02228100  0.10625900  0.67103500  1
  O  O3  1  0.52731700  0.59696600  0.17563700  1
  O  O4  1  0.52392300  0.25662000  0.51214600  1
  O  O5  1  0.99222500  0.76143300  0.00792900  1
  O  O6  1  0.48016100  0.74438700  0.48762800  1
  O  O7  1  0.97258300  0.23800000  0.99383200  1
  O  O8  1  0.00911000  0.89360700  0.32788200  1
  O  O9  1  0.47600500  0.40484100  0.82367400  1
  O  O10  1  0.47073400  0.07150800  0.16581300  1
  O  O11  1  0.99437400  0.56084900  0.66878200  1
loop_
_geom_bond_atom_site_label_1
_geom_bond_atom_site_label_2
_geom_bond_distance
_geom_bond_site_symmetry_2
Li0 O6 2.138605 1_455
Li0 O11 2.145623 1_455
Li0 O0 2.183226 1_555
Li0 O6 2.195058 1_555
Li0 O0 2.205397 1_455
Li0 O2 2.238400 1_565
Li1 O1 2.053762 1_655
Li1 O3 2.055000 1_555
Li1 O10 2.139345 1_555
Li1 O1 2.151984 1_555
Li1 O7 2.166804 1_454
Li1 O7 2.209079 1_554
Li2 O6 2.014007 1_555
Li2 O4 2.019062 1_565
Li2 O8 2.078675 1_555
Li2 O2 2.150487 1_665
Li2 O2 2.191824 1_565
Li2 O8 2.255892 1_655
Li3 O5 2.059719 1_455
Li3 O7 2.099639 1_454
Li3 O3 2.170681 1_555
Li3 O9 2.177442 1_454
Li3 O3 2.197545 1_455
Li3 O9 2.217329 1_554
Li4 O4 2.150065 1_655
Li4 O10 2.169128 1_555
Li4 O1 2.173735 1_655
Li4 O10 2.185175 1_655
Li4 O4 2.189387 1_555
Li4 O8 2.214881 1_645
Li5 O9 2.035316 1_555
Li5 O11 2.066275 1_455
Li5 O5 2.102236 1_556
Li5 O0 2.122347 1_555
Li5 O11 2.156032 1_555
Li5 O5 2.293339 1_456
Li6 O4 2.013178 1_555
Li6 O6 2.013782 1_555
Li6 O1 2.074147 1_555
Li6 O11 2.075025 1_555
Li6 O1 2.232335 1_655
Li6 O11 2.238904 1_455
Mn0 O5 1.941227 1_555
Mn0 O7 1.950787 1_564
Mn0 O0 1.984696 1_554
Mn0 O10 1.999381 1_665
Mn0 O10 2.248116 1_565
Mn0 O0 2.260202 1_654
Mn1 O9 1.931875 1_555
Mn1 O0 1.963780 1_545
Mn1 O2 1.978070 1_555
Mn1 O7 1.982089 1_555
Mn1 O2 2.202393 1_655
Mn1 O7 2.247832 1_455
Co0 O1 1.745783 1_655
Co0 O6 1.895447 1_655
Co0 O8 1.922344 1_655
Co0 O3 2.008189 1_555
Co0 O6 2.111389 1_555
Co0 O3 2.265926 1_655
Co1 O11 1.731985 1_455
Co1 O4 1.896320 1_455
Co1 O2 1.940968 1_555
Co1 O9 2.004279 1_555
Co1 O4 2.108515 1_555
Co1 O9 2.268476 1_455
Co2 O3 1.896446 1_555
Co2 O10 1.962609 1_565
Co2 O8 2.038451 1_655
Co2 O5 2.043229 1_455
Co2 O8 2.116094 1_555
Co2 O5 2.164266 1_555
