# generated using pymatgen
data_Cs2Mn(Cl2O)2
_symmetry_space_group_name_H-M   'P 1'
_cell_length_a   6.15948700
_cell_length_b   7.09617210
_cell_length_c   7.12880392
_cell_angle_alpha   118.69063901
_cell_angle_beta   92.95220432
_cell_angle_gamma   92.80779791
_symmetry_Int_Tables_number   1
_chemical_formula_structural   Cs2Mn(Cl2O)2
_chemical_formula_sum   'Cs2 Mn1 Cl4 O2'
_cell_volume   272.00485240
_cell_formula_units_Z   1
loop_
 _symmetry_equiv_pos_site_id
 _symmetry_equiv_pos_as_xyz
  1  'x, y, z'
loop_
 _atom_site_type_symbol
 _atom_site_label
 _atom_site_symmetry_multiplicity
 _atom_site_fract_x
 _atom_site_fract_y
 _atom_site_fract_z
 _atom_site_occupancy
  Cs  Cs0  1  0.25527800  0.68761600  0.82778700  1
  Cs  Cs1  1  0.74472200  0.31238400  0.17221300  1
  Mn  Mn0  1  0.00000000  0.00000000  0.50000000  1
  Cl  Cl0  1  0.79846100  0.80445100  0.16177300  1
  Cl  Cl1  1  0.20153900  0.19554900  0.83822700  1
  Cl  Cl2  1  0.23591800  0.16029800  0.35626300  1
  Cl  Cl3  1  0.76408200  0.83970200  0.64373700  1
  O  O0  1  0.83882000  0.21082000  0.56821700  1
  O  O1  1  0.16118000  0.78918000  0.43178300  1
loop_
_geom_bond_atom_site_label_1
_geom_bond_atom_site_label_2
_geom_bond_distance
_geom_bond_site_symmetry_2
Cs0 O1 3.263559 1_555
Cs0 O0 3.755150 1_455
Cs1 O0 3.263559 1_555
Cs1 O1 3.755150 1_655
Mn0 O1 1.719559 1_545
Mn0 O0 1.719559 1_455
Cl0 Mn0 2.364452 1_665
Cl0 Cs1 3.527965 1_555
Cl0 Cs1 3.601182 1_565
Cl0 Cs0 3.646462 1_654
Cl0 Cs0 3.816075 1_554
Cl1 Mn0 2.364452 1_555
Cl1 Cs0 3.527965 1_555
Cl1 Cs0 3.601182 1_545
Cl1 Cs1 3.646462 1_456
Cl1 Cs1 3.816075 1_556
Cl2 Mn0 2.359243 1_555
Cl2 Cs0 3.626747 1_555
Cl2 Cs1 3.648365 1_455
Cl2 Cs0 3.662046 1_544
Cl2 Cs1 3.762949 1_555
Cl3 Mn0 2.359243 1_665
Cl3 Cs1 3.626747 1_555
Cl3 Cs0 3.648365 1_655
Cl3 Cs1 3.662046 1_566
Cl3 Cs0 3.762949 1_555
