# generated using pymatgen
data_MgCr3(P2O7)2
_symmetry_space_group_name_H-M   'P 1'
_cell_length_a   7.92250400
_cell_length_b   7.32733900
_cell_length_c   9.58247837
_cell_angle_alpha   71.62968996
_cell_angle_beta   90.00000000
_cell_angle_gamma   90.00000000
_symmetry_Int_Tables_number   1
_chemical_formula_structural   MgCr3(P2O7)2
_chemical_formula_sum   'Mg2 Cr6 P8 O28'
_cell_volume   527.92334248
_cell_formula_units_Z   2
loop_
 _symmetry_equiv_pos_site_id
 _symmetry_equiv_pos_as_xyz
  1  'x, y, z'
loop_
 _atom_site_type_symbol
 _atom_site_label
 _atom_site_symmetry_multiplicity
 _atom_site_fract_x
 _atom_site_fract_y
 _atom_site_fract_z
 _atom_site_occupancy
  Mg  Mg0  1  0.00000000  0.50000000  0.00000000  1
  Mg  Mg1  1  0.50000000  0.50000000  0.50000000  1
  Cr  Cr0  1  0.13723400  0.82202000  0.50408500  1
  Cr  Cr1  1  0.63723400  0.17798000  0.99591500  1
  Cr  Cr2  1  0.86276600  0.17798000  0.49591500  1
  Cr  Cr3  1  0.36276600  0.82202000  0.00408500  1
  Cr  Cr4  1  0.00000000  0.00000000  0.00000000  1
  Cr  Cr5  1  0.50000000  0.00000000  0.50000000  1
  P  P0  1  0.94687600  0.42742200  0.70133100  1
  P  P1  1  0.44687600  0.57257800  0.79866900  1
  P  P2  1  0.05312400  0.57257800  0.29866900  1
  P  P3  1  0.55312400  0.42742200  0.20133100  1
  P  P4  1  0.21030700  0.12809800  0.69153700  1
  P  P5  1  0.71030700  0.87190200  0.80846300  1
  P  P6  1  0.78969300  0.87190200  0.30846300  1
  P  P7  1  0.28969300  0.12809800  0.19153700  1
  O  O0  1  0.38323500  0.17912700  0.61568100  1
  O  O1  1  0.88323500  0.82087300  0.88431900  1
  O  O2  1  0.61676500  0.82087300  0.38431900  1
  O  O3  1  0.11676500  0.17912700  0.11568100  1
  O  O4  1  0.41825900  0.64846900  0.62974600  1
  O  O5  1  0.91825900  0.35153100  0.87025400  1
  O  O6  1  0.58174100  0.35153100  0.37025400  1
  O  O7  1  0.08174100  0.64846900  0.12974600  1
  O  O8  1  0.80688800  0.36349600  0.61681200  1
  O  O9  1  0.30688800  0.63650400  0.88318800  1
  O  O10  1  0.19311200  0.63650400  0.38318800  1
  O  O11  1  0.69311200  0.36349600  0.11681200  1
  O  O12  1  0.12285200  0.33147700  0.67074000  1
  O  O13  1  0.62285200  0.66852300  0.82926000  1
  O  O14  1  0.87714800  0.66852300  0.32926000  1
  O  O15  1  0.37714800  0.33147700  0.17074000  1
  O  O16  1  0.51540600  0.63948800  0.15315600  1
  O  O17  1  0.01540600  0.36051200  0.34684400  1
  O  O18  1  0.48459400  0.36051200  0.84684400  1
  O  O19  1  0.98459400  0.63948800  0.65315600  1
  O  O20  1  0.78911500  0.96994000  0.13899100  1
  O  O21  1  0.28911500  0.03006000  0.36100900  1
  O  O22  1  0.21088500  0.03006000  0.86100900  1
  O  O23  1  0.71088500  0.96994000  0.63899100  1
  O  O24  1  0.39929800  0.01559400  0.11787800  1
  O  O25  1  0.89929800  0.98440600  0.38212200  1
  O  O26  1  0.60070200  0.98440600  0.88212200  1
  O  O27  1  0.10070200  0.01559400  0.61787800  1
loop_
_geom_bond_atom_site_label_1
_geom_bond_atom_site_label_2
_geom_bond_distance
_geom_bond_site_symmetry_2
Mg0 O7 2.000291 1_555
Mg0 O5 2.000291 1_454
Mg0 O1 2.443290 1_454
Mg0 O3 2.443290 1_555
Mg0 O9 2.731116 1_554
Mg0 O11 2.731116 1_455
Mg1 O4 2.000291 1_555
Mg1 O6 2.000291 1_555
Mg1 O2 2.443290 1_555
Mg1 O0 2.443290 1_555
Mg1 O8 2.731116 1_555
Mg1 O10 2.731116 1_555
Cr0 O19 2.021758 1_455
Cr0 O27 2.063844 1_565
Cr0 O21 2.081822 1_565
Cr0 O10 2.092485 1_555
Cr0 O25 2.336351 1_455
Cr0 O4 2.656854 1_555
Cr1 O18 2.021758 1_555
Cr1 O26 2.063844 1_545
Cr1 O20 2.081822 1_546
Cr1 O11 2.092485 1_556
Cr1 O24 2.336351 1_556
Cr1 O5 2.656854 1_555
Cr2 O17 2.021758 1_655
Cr2 O25 2.063844 1_545
Cr2 O23 2.081822 1_545
Cr2 O8 2.092485 1_555
Cr2 O27 2.336351 1_655
Cr2 O6 2.656854 1_555
Cr3 O16 2.021758 1_555
Cr3 O24 2.063844 1_565
Cr3 O22 2.081822 1_564
Cr3 O9 2.092485 1_554
Cr3 O26 2.336351 1_554
Cr3 O7 2.656854 1_555
Cr4 O20 2.104488 1_445
Cr4 O22 2.104488 1_554
Cr4 O3 2.173556 1_555
Cr4 O1 2.173556 1_444
Cr4 O7 2.565399 1_545
Cr4 O5 2.565399 1_454
Cr5 O23 2.104488 1_545
Cr5 O21 2.104488 1_555
Cr5 O0 2.173556 1_555
Cr5 O2 2.173556 1_545
Cr5 O4 2.565399 1_545
Cr5 O6 2.565399 1_555
O0 P4 1.540722 1_555
O1 P5 1.540722 1_555
O2 P6 1.540722 1_555
O3 P7 1.540722 1_555
O4 P1 1.553530 1_555
O5 P0 1.553530 1_555
O6 P3 1.553530 1_555
O7 P2 1.553530 1_555
O8 P0 1.531166 1_555
O9 P1 1.531166 1_555
O10 P2 1.531166 1_555
O11 P3 1.531166 1_555
O12 P4 1.597923 1_555
O12 P0 1.629042 1_455
O13 P5 1.597923 1_555
O13 P1 1.629042 1_555
O14 P6 1.597923 1_555
O14 P2 1.629042 1_655
O15 P7 1.597923 1_555
O15 P3 1.629042 1_555
O16 P3 1.504926 1_555
O17 P2 1.504926 1_555
O18 P1 1.504926 1_555
O19 P0 1.504926 1_555
O20 P6 1.554990 1_555
O21 P7 1.554990 1_555
O22 P4 1.554990 1_555
O23 P5 1.554990 1_555
O24 P7 1.516095 1_555
O25 P6 1.516095 1_555
O26 P5 1.516095 1_555
O27 P4 1.516095 1_555
