# generated using pymatgen
data_Al2O3
_symmetry_space_group_name_H-M   'P 1'
_cell_length_a   10.70168287
_cell_length_b   10.21016107
_cell_length_c   10.26513476
_cell_angle_alpha   94.11714713
_cell_angle_beta   87.62744720
_cell_angle_gamma   99.61043362
_symmetry_Int_Tables_number   1
_chemical_formula_structural   Al2O3
_chemical_formula_sum   'Al40 O60'
_cell_volume   1102.54060342
_cell_formula_units_Z   20
loop_
 _symmetry_equiv_pos_site_id
 _symmetry_equiv_pos_as_xyz
  1  'x, y, z'
loop_
 _atom_site_type_symbol
 _atom_site_label
 _atom_site_symmetry_multiplicity
 _atom_site_fract_x
 _atom_site_fract_y
 _atom_site_fract_z
 _atom_site_occupancy
  Al  Al0  1  0.71881600  0.02304600  0.83392200  1
  Al  Al1  1  0.75397200  0.03172400  0.40290500  1
  Al  Al2  1  0.26812000  0.38284100  0.20860400  1
  Al  Al3  1  0.98572600  0.42338900  0.50623800  1
  Al  Al4  1  0.82121500  0.98279700  0.13582100  1
  Al  Al5  1  0.31618400  0.86209500  0.12205600  1
  Al  Al6  1  0.18543900  0.94699400  0.51392200  1
  Al  Al7  1  0.17179300  0.25550300  0.61401400  1
  Al  Al8  1  0.23509900  0.24680400  0.90056300  1
  Al  Al9  1  0.49067400  0.32533200  0.05422200  1
  Al  Al10  1  0.44614900  0.47801300  0.64026100  1
  Al  Al11  1  0.32526000  0.96549200  0.83994900  1
  Al  Al12  1  0.53887500  0.96931700  0.61904900  1
  Al  Al13  1  0.94842500  0.00979300  0.65432400  1
  Al  Al14  1  0.52759300  0.06228500  0.32803800  1
  Al  Al15  1  0.63504700  0.72686500  0.74870300  1
  Al  Al16  1  0.01385700  0.25431600  0.09487400  1
  Al  Al17  1  0.71558800  0.73783800  0.27645100  1
  Al  Al18  1  0.22416300  0.08817100  0.24689800  1
  Al  Al19  1  0.57582100  0.86524600  0.03114600  1
  Al  Al20  1  0.93458500  0.19260800  0.84083700  1
  Al  Al21  1  0.41671100  0.60076200  0.93288300  1
  Al  Al22  1  0.81623800  0.71505600  0.96711200  1
  Al  Al23  1  0.18222800  0.65277100  0.34289100  1
  Al  Al24  1  0.07312600  0.97027500  0.99497100  1
  Al  Al25  1  0.41430700  0.20668800  0.62742500  1
  Al  Al26  1  0.12952700  0.51754500  0.80468600  1
  Al  Al27  1  0.55128200  0.59674000  0.14110200  1
  Al  Al28  1  0.88478400  0.47269300  0.02166800  1
  Al  Al29  1  0.06205100  0.77975400  0.74967800  1
  Al  Al30  1  0.64030300  0.28638600  0.77736300  1
  Al  Al31  1  0.47157300  0.30545500  0.34272000  1
  Al  Al32  1  0.44708300  0.56568400  0.38669400  1
  Al  Al33  1  0.30716600  0.73233400  0.60695200  1
  Al  Al34  1  0.71544900  0.49974000  0.51570100  1
  Al  Al35  1  0.88079400  0.51729700  0.29331800  1
  Al  Al36  1  0.12435100  0.58249000  0.07134900  1
  Al  Al37  1  0.83997300  0.54382000  0.74402700  1
  Al  Al38  1  0.00525500  0.11191100  0.37912400  1
  Al  Al39  1  0.70357400  0.21979100  0.12054100  1
  O  O0  1  0.91820000  0.87734000  0.03877100  1
  O  O1  1  0.07366100  0.16913400  0.22377600  1
  O  O2  1  0.61993700  0.27687900  0.96121000  1
  O  O3  1  0.06296600  0.27809700  0.47954300  1
  O  O4  1  0.53788700  0.22878100  0.19079400  1
  O  O5  1  0.95597900  0.33254500  0.95357600  1
  O  O6  1  0.40473100  0.90276800  0.96712900  1
  O  O7  1  0.12852500  0.00988000  0.37868200  1
  O  O8  1  0.50544600  0.49233800  0.99848300  1
  O  O9  1  0.04921300  0.88710800  0.61675100  1
  O  O10  1  0.25759600  0.10212800  0.58684200  1
  O  O11  1  0.03939400  0.55589000  0.39601700  1
  O  O12  1  0.87822200  0.97967400  0.29778100  1
  O  O13  1  0.65574500  0.02514600  0.99575300  1
  O  O14  1  0.67579000  0.87885300  0.18227900  1
  O  O15  1  0.03845600  0.16576400  0.70246500  1
  O  O16  1  0.15459000  0.89631600  0.85999000  1
  O  O17  1  0.72455500  0.63749800  0.64101100  1
  O  O18  1  0.46323600  0.71998900  0.07487700  1
  O  O19  1  0.38099700  0.89052800  0.67792700  1
  O  O20  1  0.19631800  0.97209300  0.10730200  1
  O  O21  1  0.98879900  0.48033100  0.67715800  1
  O  O22  1  0.46922200  0.44734100  0.23178900  1
  O  O23  1  0.85711500  0.14856100  0.09095200  1
  O  O24  1  0.90709400  0.72212300  0.79961200  1
  O  O25  1  0.30553100  0.24979000  0.29926800  1
  O  O26  1  0.32704600  0.13489500  0.82710700  1
  O  O27  1  0.03076700  0.57763200  0.92963100  1
  O  O28  1  0.54605900  0.45461300  0.46813500  1
  O  O29  1  0.17874800  0.67085000  0.70889800  1
  O  O30  1  0.55111900  0.68574100  0.30759100  1
  O  O31  1  0.23843400  0.78800500  0.46626400  1
  O  O32  1  0.78121300  0.63087000  0.37517000  1
  O  O33  1  0.28632300  0.53266200  0.32724200  1
  O  O34  1  0.87473500  0.06192800  0.52001800  1
  O  O35  1  0.88112500  0.00002900  0.81471900  1
  O  O36  1  0.19308800  0.36072300  0.78521500  1
  O  O37  1  0.49395400  0.35243900  0.73107800  1
  O  O38  1  0.40498500  0.62049800  0.54904400  1
  O  O39  1  0.96513700  0.58829900  0.15372500  1
  O  O40  1  0.69348200  0.12710700  0.29027100  1
  O  O41  1  0.73313600  0.40425400  0.66751700  1
  O  O42  1  0.20919600  0.71711300  0.18171600  1
  O  O43  1  0.80131100  0.38566900  0.16267700  1
  O  O44  1  0.31887000  0.29896200  0.04836500  1
  O  O45  1  0.54547500  0.12828100  0.68941600  1
  O  O46  1  0.83362000  0.40996300  0.43326700  1
  O  O47  1  0.38596400  0.97764100  0.25193800  1
  O  O48  1  0.72263800  0.64982100  0.12099100  1
  O  O49  1  0.64080300  0.89814500  0.71225700  1
  O  O50  1  0.78686700  0.53315700  0.91183000  1
  O  O51  1  0.77245500  0.18936500  0.79021000  1
  O  O52  1  0.48226500  0.18006300  0.45158800  1
  O  O53  1  0.48145800  0.62362600  0.77152500  1
  O  O54  1  0.32542300  0.34856000  0.57181400  1
  O  O55  1  0.12583800  0.41312700  0.13622800  1
  O  O56  1  0.67568900  0.77552100  0.91351700  1
  O  O57  1  0.08414300  0.14713200  0.96106400  1
  O  O58  1  0.25414400  0.57703100  0.94124600  1
  O  O59  1  0.59494800  0.95882900  0.45360500  1
loop_
_geom_bond_atom_site_label_1
_geom_bond_atom_site_label_2
_geom_bond_distance
_geom_bond_site_symmetry_2
Al0 O13 1.767078 1_555
Al0 O51 1.782457 1_555
Al0 O35 1.792339 1_555
Al0 O49 1.839893 1_545
Al1 O40 1.771566 1_555
Al1 O34 1.775635 1_555
Al1 O12 1.802712 1_545
Al1 O59 1.811180 1_545
Al2 O55 1.802759 1_555
Al2 O25 1.807177 1_555
Al2 O33 1.874483 1_555
Al2 O44 1.900815 1_555
Al2 O22 2.160711 1_555
Al3 O46 1.800356 1_555
Al3 O21 1.808133 1_555
Al3 O3 1.814194 1_655
Al3 O11 1.829421 1_655
Al4 O23 1.761929 1_565
Al4 O12 1.798702 1_555
Al4 O14 1.798761 1_555
Al4 O0 1.833734 1_555
Al4 O13 2.438395 1_564
Al5 O47 1.813681 1_555
Al5 O42 1.839413 1_555
Al5 O6 1.854258 1_554
Al5 O20 1.857774 1_555
Al5 O18 2.326944 1_555
Al6 O7 1.743293 1_565
Al6 O10 1.770504 1_565
Al6 O9 1.811357 1_555
Al6 O31 1.834797 1_555
Al7 O54 1.808870 1_555
Al7 O15 1.809885 1_555
Al7 O3 1.893019 1_555
Al7 O10 1.941510 1_555
Al7 O36 1.993703 1_555
Al8 O26 1.741441 1_555
Al8 O44 1.796218 1_556
Al8 O36 1.836694 1_555
Al8 O57 1.868124 1_555
Al9 O2 1.766714 1_554
Al9 O44 1.816058 1_555
Al9 O8 1.817287 1_554
Al9 O4 1.901552 1_555
Al9 O22 2.159111 1_555
Al10 O37 1.790197 1_555
Al10 O54 1.811485 1_555
Al10 O38 1.905515 1_555
Al10 O53 1.932790 1_555
Al10 O28 2.047064 1_555
Al11 O26 1.740937 1_565
Al11 O6 1.797685 1_555
Al11 O16 1.853683 1_555
Al11 O19 1.896124 1_555
Al12 O45 1.720068 1_565
Al12 O49 1.756210 1_555
Al12 O59 1.779540 1_555
Al12 O19 1.843499 1_555
Al13 O15 1.767099 1_655
Al13 O35 1.772275 1_555
Al13 O34 1.772438 1_555
Al13 O9 1.796813 1_645
Al14 O52 1.792961 1_555
Al14 O47 1.793907 1_545
Al14 O40 1.824154 1_555
Al14 O59 1.955358 1_545
Al14 O4 2.270524 1_555
Al15 O17 1.741122 1_555
Al15 O56 1.779431 1_555
Al15 O49 1.805027 1_555
Al15 O53 1.814576 1_555
Al16 O1 1.827043 1_555
Al16 O23 1.837337 1_455
Al16 O5 1.879182 1_454
Al16 O55 1.881492 1_555
Al16 O57 1.903572 1_554
Al17 O30 1.774340 1_555
Al17 O48 1.779515 1_555
Al17 O32 1.785187 1_555
Al17 O14 1.904615 1_555
Al18 O25 1.789373 1_555
Al18 O20 1.794551 1_545
Al18 O7 1.812179 1_555
Al18 O1 1.959124 1_555
Al18 O47 2.223232 1_545
Al19 O13 1.766963 1_564
Al19 O18 1.818497 1_555
Al19 O56 1.871022 1_554
Al19 O14 1.904609 1_555
Al19 O6 2.073877 1_554
Al20 O5 1.763069 1_555
Al20 O15 1.800950 1_655
Al20 O51 1.826096 1_555
Al20 O35 1.956215 1_555
Al20 O57 2.189598 1_655
Al21 O58 1.715415 1_555
Al21 O8 1.758331 1_555
Al21 O53 1.784554 1_555
Al21 O18 1.859374 1_556
Al22 O56 1.836705 1_555
Al22 O50 1.881117 1_555
Al22 O48 1.933753 1_556
Al22 O24 1.939830 1_555
Al22 O0 1.940350 1_556
Al23 O11 1.765207 1_555
Al23 O33 1.784297 1_555
Al23 O42 1.818079 1_555
Al23 O31 1.845763 1_555
Al24 O20 1.784002 1_556
Al24 O16 1.794354 1_555
Al24 O0 1.823634 1_456
Al24 O57 1.847025 1_565
Al25 O37 1.870133 1_555
Al25 O10 1.876701 1_555
Al25 O45 1.881106 1_555
Al25 O52 1.935891 1_555
Al25 O54 1.988136 1_555
Al25 O26 2.332297 1_555
Al26 O27 1.769096 1_555
Al26 O36 1.836533 1_555
Al26 O29 1.896624 1_555
Al26 O58 1.968386 1_555
Al26 O21 2.006726 1_455
Al27 O8 1.783529 1_554
Al27 O48 1.830857 1_555
Al27 O18 1.872240 1_555
Al27 O30 1.877188 1_555
Al27 O22 1.911426 1_555
Al28 O50 1.778817 1_554
Al28 O5 1.814649 1_554
Al28 O43 1.869561 1_555
Al28 O39 1.870332 1_555
Al28 O27 1.986329 1_654
Al29 O24 1.733800 1_455
Al29 O16 1.784707 1_555
Al29 O29 1.823402 1_555
Al29 O9 1.833788 1_555
Al30 O41 1.846517 1_555
Al30 O51 1.871030 1_555
Al30 O37 1.895730 1_555
Al30 O2 1.898338 1_555
Al30 O45 1.941746 1_555
Al31 O52 1.779338 1_555
Al31 O25 1.836154 1_555
Al31 O4 1.862047 1_555
Al31 O22 1.909819 1_555
Al31 O28 2.002553 1_555
Al32 O30 1.736057 1_555
Al32 O38 1.783719 1_555
Al32 O33 1.819234 1_555
Al32 O28 1.928063 1_555
Al32 O22 1.957834 1_555
Al33 O38 1.732970 1_555
Al33 O29 1.750741 1_555
Al33 O19 1.793458 1_555
Al33 O31 1.815269 1_555
Al34 O46 1.828287 1_555
Al34 O17 1.829556 1_555
Al34 O28 1.870532 1_555
Al34 O41 1.928512 1_555
Al34 O32 2.060951 1_555
Al35 O39 1.793646 1_555
Al35 O32 1.839811 1_555
Al35 O46 1.871083 1_555
Al35 O43 1.944753 1_555
Al35 O11 2.003151 1_655
Al36 O27 1.793172 1_554
Al36 O42 1.855297 1_555
Al36 O39 1.878548 1_455
Al36 O58 1.891465 1_554
Al36 O55 1.899854 1_555
Al37 O50 1.796424 1_555
Al37 O41 1.823264 1_555
Al37 O24 1.898397 1_555
Al37 O21 1.902197 1_555
Al37 O17 2.050989 1_555
Al38 O7 1.811972 1_555
Al38 O1 1.820591 1_555
Al38 O12 1.920297 1_445
Al38 O3 1.942871 1_555
Al38 O34 2.000983 1_455
Al39 O43 1.868234 1_555
Al39 O4 1.900382 1_555
Al39 O23 1.909733 1_555
Al39 O40 2.032201 1_555
Al39 O2 2.061116 1_554
Al39 O13 2.280688 1_554
