# generated using pymatgen
data_NdGaSi
_symmetry_space_group_name_H-M   'P 1'
_cell_length_a   7.71784144
_cell_length_b   7.71784144
_cell_length_c   7.71784144
_cell_angle_alpha   148.29244747
_cell_angle_beta   148.29244747
_cell_angle_gamma   45.45383922
_symmetry_Int_Tables_number   1
_chemical_formula_structural   NdGaSi
_chemical_formula_sum   'Nd2 Ga2 Si2'
_cell_volume   126.57692502
_cell_formula_units_Z   2
loop_
 _symmetry_equiv_pos_site_id
 _symmetry_equiv_pos_as_xyz
  1  'x, y, z'
loop_
 _atom_site_type_symbol
 _atom_site_label
 _atom_site_symmetry_multiplicity
 _atom_site_fract_x
 _atom_site_fract_y
 _atom_site_fract_z
 _atom_site_occupancy
  Nd  Nd0  1  0.62500556  0.12500556  0.50000000  1
  Nd  Nd1  1  0.87500556  0.87500556  0.00000000  1
  Ga  Ga0  1  0.29162813  0.29162813  -0.00000000  1
  Ga  Ga1  1  0.04162813  0.54162813  0.50000000  1
  Si  Si0  1  0.20836631  0.70836631  0.50000000  1
  Si  Si1  1  0.45836631  0.45836631  0.00000000  1
loop_
_geom_bond_atom_site_label_1
_geom_bond_atom_site_label_2
_geom_bond_distance
_geom_bond_site_symmetry_2
Nd0 Si1 3.173946 1_556
Nd0 Si1 3.173946 1_545
Nd0 Si0 3.209225 1_645
Nd0 Si0 3.209225 1_544
Nd0 Si0 3.209225 1_656
Nd0 Si0 3.209225 1_555
Nd1 Si0 3.173946 1_655
Nd1 Si0 3.173946 1_554
Nd1 Si1 3.209225 1_666
Nd1 Si1 3.209225 1_655
Nd1 Si1 3.209225 1_554
Nd1 Si1 3.209225 1_565
Ga0 Si1 2.373886 1_555
Ga0 Si0 2.418780 1_544
Ga0 Si0 2.418780 1_555
Ga0 Nd0 3.173769 1_454
Ga0 Nd0 3.173769 1_555
Ga0 Nd1 3.209313 1_455
Ga0 Nd1 3.209313 1_545
Ga0 Nd1 3.209313 1_556
Ga0 Nd1 3.209313 1_444
Ga1 Si0 2.373886 1_555
Ga1 Si1 2.418780 1_556
Ga1 Si1 2.418780 1_455
Ga1 Nd1 3.173769 1_456
Ga1 Nd1 3.173769 1_445
Ga1 Nd0 3.209313 1_555
Ga1 Nd0 3.209313 1_465
Ga1 Nd0 3.209313 1_566
Ga1 Nd0 3.209313 1_454
