# generated using pymatgen
data_TeMoWSe2S
_symmetry_space_group_name_H-M   'P 1'
_cell_length_a   3.34289612
_cell_length_b   3.34289612
_cell_length_c   38.59158200
_cell_angle_alpha   90.00000000
_cell_angle_beta   90.00000000
_cell_angle_gamma   120.00000243
_symmetry_Int_Tables_number   1
_chemical_formula_structural   TeMoWSe2S
_chemical_formula_sum   'Te2 Mo2 W2 Se4 S2'
_cell_volume   373.48138982
_cell_formula_units_Z   2
loop_
 _symmetry_equiv_pos_site_id
 _symmetry_equiv_pos_as_xyz
  1  'x, y, z'
loop_
 _atom_site_type_symbol
 _atom_site_label
 _atom_site_symmetry_multiplicity
 _atom_site_fract_x
 _atom_site_fract_y
 _atom_site_fract_z
 _atom_site_occupancy
  Te  Te0  1  0.66666700  0.33333300  0.42051500  1
  Te  Te1  1  0.66666700  0.33333300  0.51873000  1
  Mo  Mo0  1  0.33333300  0.66666700  0.46961500  1
  Mo  Mo1  1  0.66666700  0.33333300  0.28083200  1
  W  W0  1  0.33333300  0.66666700  0.09372100  1
  W  W1  1  0.66666700  0.33333300  0.65873900  1
  Se  Se0  1  0.33333300  0.66666700  0.32404700  1
  Se  Se1  1  0.33333300  0.66666700  0.70212300  1
  Se  Se2  1  0.33333300  0.66666700  0.23766700  1
  Se  Se3  1  0.33333300  0.66666700  0.61532400  1
  S  S0  1  0.66666700  0.33333300  0.05428200  1
  S  S1  1  0.66666700  0.33333300  0.13315300  1
loop_
_geom_bond_atom_site_label_1
_geom_bond_atom_site_label_2
_geom_bond_distance
_geom_bond_site_symmetry_2
Mo0 Te0 2.704704 1_565
Mo0 Te0 2.704704 1_455
Mo0 Te0 2.704708 1_555
Mo0 Te1 2.705109 1_455
Mo0 Te1 2.705109 1_565
Mo0 Te1 2.705113 1_555
Mo1 Se2 2.549487 1_655
Mo1 Se2 2.549487 1_545
Mo1 Se2 2.549492 1_555
Mo1 Se0 2.550749 1_655
Mo1 Se0 2.550749 1_545
Mo1 Se0 2.550753 1_555
Se1 W1 2.555017 1_565
Se1 W1 2.555017 1_455
Se1 W1 2.555022 1_555
Se3 W1 2.555802 1_455
Se3 W1 2.555802 1_565
Se3 W1 2.555806 1_555
S0 W0 2.457947 1_545
S0 W0 2.457947 1_655
S0 W0 2.457951 1_555
S1 W0 2.457779 1_655
S1 W0 2.457779 1_545
S1 W0 2.457784 1_555
