# generated using pymatgen
data_Sr5Ca3FeCo7O24
_symmetry_space_group_name_H-M   'P 1'
_cell_length_a   7.73118283
_cell_length_b   7.73118283
_cell_length_c   7.64759302
_cell_angle_alpha   89.97906296
_cell_angle_beta   89.97906296
_cell_angle_gamma   89.93789117
_symmetry_Int_Tables_number   1
_chemical_formula_structural   Sr5Ca3FeCo7O24
_chemical_formula_sum   'Sr5 Ca3 Fe1 Co7 O24'
_cell_volume   457.10538979
_cell_formula_units_Z   1
loop_
 _symmetry_equiv_pos_site_id
 _symmetry_equiv_pos_as_xyz
  1  'x, y, z'
loop_
 _atom_site_type_symbol
 _atom_site_label
 _atom_site_symmetry_multiplicity
 _atom_site_fract_x
 _atom_site_fract_y
 _atom_site_fract_z
 _atom_site_occupancy
  Sr  Sr0  1  0.75270200  0.24766300  0.25244500  1
  Sr  Sr1  1  0.24755100  0.24755100  0.25306700  1
  Sr  Sr2  1  0.75209800  0.75209800  0.25278400  1
  Sr  Sr3  1  0.24766300  0.75270200  0.25244500  1
  Sr  Sr4  1  0.75219000  0.75219000  0.74786800  1
  Ca  Ca0  1  0.75706300  0.24385500  0.74218100  1
  Ca  Ca1  1  0.24473800  0.24473800  0.74247400  1
  Ca  Ca2  1  0.24385500  0.75706300  0.74218100  1
  Fe  Fe0  1  0.00067900  0.00067900  0.99751800  1
  Co  Co0  1  0.49932600  0.00105400  0.99584600  1
  Co  Co1  1  0.00020000  0.00020000  0.50133000  1
  Co  Co2  1  0.49935500  0.00040900  0.50169500  1
  Co  Co3  1  0.00105400  0.49932600  0.99584600  1
  Co  Co4  1  0.49886200  0.49886200  0.99749700  1
  Co  Co5  1  0.00040900  0.49935500  0.50169500  1
  Co  Co6  1  0.49892900  0.49892900  0.50415800  1
  O  O0  1  0.00073300  0.25096700  0.99222500  1
  O  O1  1  0.49866700  0.23526500  0.99586100  1
  O  O2  1  0.00043400  0.24472100  0.50791300  1
  O  O3  1  0.49690700  0.25730300  0.50842000  1
  O  O4  1  0.00328400  0.74942800  0.99418500  1
  O  O5  1  0.49849200  0.76527800  0.99725100  1
  O  O6  1  0.00638600  0.75602000  0.50658400  1
  O  O7  1  0.49760300  0.74169500  0.50503100  1
  O  O8  1  0.00049900  0.00049900  0.25360300  1
  O  O9  1  0.50002900  0.00039200  0.26565700  1
  O  O10  1  0.00332300  0.00332300  0.74559100  1
  O  O11  1  0.49747600  0.00135800  0.73620800  1
  O  O12  1  0.00039200  0.50002900  0.26565700  1
  O  O13  1  0.49905900  0.49905900  0.23386600  1
  O  O14  1  0.00135800  0.49747600  0.73620800  1
  O  O15  1  0.49800600  0.49800600  0.76723700  1
  O  O16  1  0.74942800  0.00328400  0.99418500  1
  O  O17  1  0.25096700  0.00073300  0.99222500  1
  O  O18  1  0.75602000  0.00638600  0.50658400  1
  O  O19  1  0.24472100  0.00043400  0.50791300  1
  O  O20  1  0.76527800  0.49849200  0.99725100  1
  O  O21  1  0.23526500  0.49866700  0.99586100  1
  O  O22  1  0.74169500  0.49760300  0.50503100  1
  O  O23  1  0.25730300  0.49690700  0.50842000  1
loop_
_geom_bond_atom_site_label_1
_geom_bond_atom_site_label_2
_geom_bond_distance
_geom_bond_site_symmetry_2
Ca0 O18 2.572823 1_555
Ca0 O2 2.597613 1_655
Ca0 O10 2.660051 1_655
Ca0 O22 2.673754 1_555
Ca0 O16 2.678513 1_555
Ca0 O0 2.685427 1_655
Ca0 O3 2.693350 1_555
Ca0 O14 2.724304 1_655
Ca0 O11 2.748256 1_555
Ca0 O20 2.772704 1_555
Ca0 O1 2.785025 1_555
Ca0 O15 2.810737 1_555
Ca1 O2 2.605322 1_555
Ca1 O19 2.605322 1_555
Ca1 O10 2.641047 1_555
Ca1 O3 2.647998 1_555
Ca1 O23 2.647998 1_555
Ca1 O0 2.684458 1_555
Ca1 O17 2.684458 1_555
Ca1 O11 2.711600 1_555
Ca1 O14 2.711600 1_555
Ca1 O21 2.759863 1_555
Ca1 O1 2.759863 1_555
Ca1 O15 2.777179 1_555
Ca2 O6 2.572823 1_555
Ca2 O19 2.597613 1_565
Ca2 O10 2.660051 1_565
Ca2 O7 2.673754 1_555
Ca2 O4 2.678513 1_555
Ca2 O17 2.685427 1_565
Ca2 O23 2.693350 1_555
Ca2 O11 2.724304 1_565
Ca2 O14 2.748256 1_555
Ca2 O5 2.772704 1_555
Ca2 O21 2.785025 1_555
Ca2 O15 2.810737 1_555
Fe0 O10 1.926837 1_555
Fe0 O0 1.935431 1_555
Fe0 O17 1.935431 1_555
Fe0 O16 1.942726 1_455
Fe0 O4 1.942726 1_545
Fe0 O8 1.958434 1_556
Co0 O1 1.810730 1_555
Co0 O5 1.822873 1_545
Co0 O17 1.920323 1_555
Co0 O16 1.933717 1_555
Co0 O11 1.985663 1_555
Co0 O9 2.063418 1_556
Co1 O10 1.868339 1_555
Co1 O6 1.888767 1_545
Co1 O18 1.888767 1_455
Co1 O19 1.891128 1_555
Co1 O2 1.891128 1_555
Co1 O8 1.894516 1_555
Co2 O11 1.793531 1_555
Co2 O9 1.805128 1_555
Co2 O19 1.969179 1_555
Co2 O18 1.985278 1_555
Co2 O3 1.986849 1_555
Co2 O7 2.000379 1_545
Co3 O21 1.810730 1_555
Co3 O20 1.822873 1_455
Co3 O0 1.920323 1_555
Co3 O4 1.933717 1_555
Co3 O14 1.985663 1_555
Co3 O12 2.063418 1_556
Co4 O15 1.760965 1_555
Co4 O13 1.807656 1_556
Co4 O1 2.037962 1_555
Co4 O21 2.037962 1_555
Co4 O5 2.059710 1_555
Co4 O20 2.059710 1_555
Co5 O14 1.793531 1_555
Co5 O12 1.805128 1_555
Co5 O2 1.969179 1_555
Co5 O6 1.985278 1_555
Co5 O23 1.986849 1_555
Co5 O22 2.000379 1_455
Co6 O3 1.868409 1_555
Co6 O23 1.868409 1_555
Co6 O22 1.876900 1_555
Co6 O7 1.876900 1_555
Co6 O15 2.011941 1_555
Co6 O13 2.067083 1_555
O0 Sr1 2.761127 1_556
O0 Sr0 2.763213 1_456
O1 Sr1 2.764816 1_556
O1 Sr0 2.778531 1_556
O2 Sr1 2.728789 1_555
O2 Sr0 2.736486 1_455
O3 Sr1 2.745706 1_555
O3 Sr0 2.783087 1_555
O4 Sr4 2.705535 1_455
O4 Sr3 2.733862 1_556
O4 Sr2 2.771268 1_456
O5 Sr4 2.737076 1_555
O5 Sr3 2.752507 1_556
O5 Sr2 2.770522 1_556
O6 Sr3 2.693490 1_555
O6 Sr4 2.695437 1_455
O6 Sr2 2.763359 1_455
O7 Sr4 2.707885 1_555
O7 Sr3 2.734002 1_555
O7 Sr2 2.756180 1_555
O8 Sr1 2.702618 1_555
O8 Sr0 2.704389 1_455
O8 Sr3 2.704389 1_545
O8 Sr2 2.717385 1_445
O9 Sr1 2.731774 1_555
O9 Sr2 2.735737 1_545
O9 Sr0 2.736534 1_555
O9 Sr3 2.737210 1_545
O10 Sr4 2.747308 1_445
O11 Sr4 2.754726 1_545
O12 Sr1 2.731774 1_555
O12 Sr2 2.735737 1_455
O12 Sr3 2.736534 1_555
O12 Sr0 2.737210 1_455
O13 Sr1 2.755204 1_555
O13 Sr3 2.763119 1_555
O13 Sr0 2.763119 1_555
O13 Sr2 2.771965 1_555
O14 Sr4 2.754726 1_455
O15 Sr4 2.784504 1_555
O16 Sr4 2.705535 1_545
O16 Sr0 2.733862 1_556
O16 Sr2 2.771268 1_546
O17 Sr1 2.761127 1_556
O17 Sr3 2.763213 1_546
O18 Sr0 2.693490 1_555
O18 Sr4 2.695437 1_545
O18 Sr2 2.763359 1_545
O19 Sr1 2.728789 1_555
O19 Sr3 2.736486 1_545
O20 Sr4 2.737076 1_555
O20 Sr0 2.752507 1_556
O20 Sr2 2.770522 1_556
O21 Sr1 2.764816 1_556
O21 Sr3 2.778531 1_556
O22 Sr4 2.707885 1_555
O22 Sr0 2.734002 1_555
O22 Sr2 2.756180 1_555
O23 Sr1 2.745706 1_555
O23 Sr3 2.783087 1_555
