# generated using pymatgen
data_Ba2YTlCo2O7
_symmetry_space_group_name_H-M   'P 1'
_cell_length_a   3.95198453
_cell_length_b   25.38555385
_cell_length_c   3.93510837
_cell_angle_alpha   89.87880617
_cell_angle_beta   89.56749018
_cell_angle_gamma   89.90923998
_symmetry_Int_Tables_number   1
_chemical_formula_structural   Ba2YTlCo2O7
_chemical_formula_sum   'Ba4 Y2 Tl2 Co4 O14'
_cell_volume   394.77050472
_cell_formula_units_Z   2
loop_
 _symmetry_equiv_pos_site_id
 _symmetry_equiv_pos_as_xyz
  1  'x, y, z'
loop_
 _atom_site_type_symbol
 _atom_site_label
 _atom_site_symmetry_multiplicity
 _atom_site_fract_x
 _atom_site_fract_y
 _atom_site_fract_z
 _atom_site_occupancy
  Ba  Ba0  1  0.50724700  0.10327600  0.50088500  1
  Ba  Ba1  1  0.50592800  0.60417900  0.50793100  1
  Ba  Ba2  1  0.50268700  0.39529500  0.50140200  1
  Ba  Ba3  1  0.50632600  0.89637400  0.49917900  1
  Y  Y0  1  0.50318500  0.24980000  0.50250600  1
  Y  Y1  1  0.50467600  0.75047200  0.50369300  1
  Tl  Tl0  1  0.07589300  0.99957300  0.99920500  1
  Tl  Tl1  1  0.02011300  0.49964300  0.01401100  1
  Co  Co0  1  0.00484700  0.68045400  0.00520000  1
  Co  Co1  1  0.00399200  0.82047100  0.00139100  1
  Co  Co2  1  0.00433100  0.18092900  0.00225900  1
  Co  Co3  1  0.00277200  0.31964700  0.00205300  1
  O  O0  1  0.39689700  0.99971500  0.49527100  1
  O  O1  1  0.43420000  0.49976900  0.44121700  1
  O  O2  1  0.99124700  0.08391200  0.99823100  1
  O  O3  1  0.00378500  0.60007300  0.00469600  1
  O  O4  1  0.00091900  0.40000200  0.99987200  1
  O  O5  1  0.99258500  0.91493300  0.99836100  1
  O  O6  1  0.50382700  0.18915500  0.00259900  1
  O  O7  1  0.50418000  0.69831200  0.00448600  1
  O  O8  1  0.00560500  0.18931900  0.50161900  1
  O  O9  1  0.00573700  0.69814400  0.50242100  1
  O  O10  1  0.00376800  0.30200100  0.50270400  1
  O  O11  1  0.00586500  0.81096900  0.50368600  1
  O  O12  1  0.50332300  0.30225100  0.00291700  1
  O  O13  1  0.50606300  0.81133500  0.00219800  1
loop_
_geom_bond_atom_site_label_1
_geom_bond_atom_site_label_2
_geom_bond_distance
_geom_bond_site_symmetry_2
Ba0 O0 2.665725 1_545
Ba0 O2 2.785100 1_554
Ba0 O2 2.789272 1_555
Ba0 O2 2.858182 1_455
Ba0 O2 2.894950 1_454
Ba0 O6 2.929156 1_555
Ba0 O8 2.943406 1_655
Ba0 O6 2.944236 1_556
Ba0 O8 2.947441 1_555
Ba1 O1 2.679721 1_555
Ba1 O3 2.776962 1_556
Ba1 O3 2.782973 1_655
Ba1 O3 2.785660 1_656
Ba1 O3 2.816263 1_555
Ba1 O7 3.089972 1_556
Ba1 O9 3.095707 1_555
Ba1 O9 3.099356 1_655
Ba1 O7 3.100847 1_555
Ba2 O1 2.675664 1_555
Ba2 O4 2.779809 1_654
Ba2 O4 2.781297 1_555
Ba2 O4 2.792655 1_655
Ba2 O4 2.810484 1_554
Ba2 O12 3.073480 1_555
Ba2 O12 3.074740 1_556
Ba2 O10 3.084029 1_555
Ba2 O10 3.084746 1_655
Ba3 O0 2.658130 1_555
Ba3 O5 2.782186 1_554
Ba3 O5 2.799506 1_555
Ba3 O5 2.853656 1_455
Ba3 O5 2.877753 1_454
Ba3 O13 2.915959 1_555
Ba3 O13 2.925801 1_556
Ba3 O11 2.930004 1_655
Ba3 O11 2.936905 1_555
Co0 O9 2.008447 1_555
Co0 O7 2.025438 1_555
Co0 O9 2.027866 1_554
Co0 O7 2.029218 1_455
Co0 O3 2.040532 1_555
Co1 O11 1.973785 1_554
Co1 O13 1.981770 1_455
Co1 O11 1.990810 1_555
Co1 O13 1.997346 1_555
Co1 O5 2.398329 1_454
Co2 O8 1.977037 1_555
Co2 O8 1.981074 1_554
Co2 O6 1.985355 1_555
Co2 O6 1.988638 1_455
Co2 O2 2.463542 1_454
Co3 O10 2.016302 1_554
Co3 O10 2.019508 1_555
Co3 O12 2.023271 1_455
Co3 O12 2.026206 1_555
Co3 O4 2.039858 1_554
O0 Tl0 2.336105 1_554
O0 Tl0 2.346017 1_555
O1 Tl1 2.354932 1_555
O1 Tl1 2.775405 1_556
O1 Tl1 2.851136 1_655
O2 Tl0 2.166444 1_645
O3 Tl1 2.550378 1_555
O4 Tl1 2.531441 1_556
O5 Tl0 2.174240 1_655
O6 Y0 2.496006 1_554
O6 Y0 2.500528 1_555
O7 Y1 2.371359 1_555
O7 Y1 2.371865 1_554
O8 Y0 2.496763 1_555
O8 Y0 2.507984 1_455
O9 Y1 2.379301 1_555
O9 Y1 2.382705 1_455
O10 Y0 2.375535 1_555
O10 Y0 2.382859 1_455
O11 Y1 2.496985 1_555
O11 Y1 2.508247 1_455
O12 Y0 2.372068 1_555
O12 Y0 2.379419 1_554
O13 Y1 2.499669 1_554
O13 Y1 2.503717 1_555
