# generated using pymatgen
data_Li6Mn3CoO10
_symmetry_space_group_name_H-M   'P 1'
_cell_length_a   2.94497700
_cell_length_b   7.77563025
_cell_length_c   8.17089181
_cell_angle_alpha   104.79719822
_cell_angle_beta   90.80595768
_cell_angle_gamma   97.47674218
_symmetry_Int_Tables_number   1
_chemical_formula_structural   Li6Mn3CoO10
_chemical_formula_sum   'Li6 Mn3 Co1 O10'
_cell_volume   179.14395471
_cell_formula_units_Z   1
loop_
 _symmetry_equiv_pos_site_id
 _symmetry_equiv_pos_as_xyz
  1  'x, y, z'
loop_
 _atom_site_type_symbol
 _atom_site_label
 _atom_site_symmetry_multiplicity
 _atom_site_fract_x
 _atom_site_fract_y
 _atom_site_fract_z
 _atom_site_occupancy
  Li  Li0  1  0.77320200  0.58226600  0.89532400  1
  Li  Li1  1  0.99625700  0.00191500  0.51810600  1
  Li  Li2  1  0.20209000  0.39961200  0.08615000  1
  Li  Li3  1  0.42545300  0.81663200  0.70187400  1
  Li  Li4  1  0.60313800  0.19923900  0.29925600  1
  Li  Li5  1  0.60022400  0.20129100  0.79977900  1
  Mn  Mn0  1  0.01228800  0.00599300  0.99214900  1
  Mn  Mn1  1  0.18976200  0.39514500  0.60557100  1
  Mn  Mn2  1  0.40891100  0.80087700  0.20404000  1
  Co  Co0  1  0.78421800  0.59579400  0.39894200  1
  O  O0  1  0.44258000  0.82490500  0.96388900  1
  O  O1  1  0.62394900  0.22427200  0.55507400  1
  O  O2  1  0.77290200  0.60486200  0.16209200  1
  O  O3  1  0.99566500  0.99514700  0.76597500  1
  O  O4  1  0.16346800  0.41169700  0.36322000  1
  O  O5  1  0.20605200  0.40740900  0.83261200  1
  O  O6  1  0.42040800  0.78825600  0.44253700  1
  O  O7  1  0.57835100  0.17664700  0.04333200  1
  O  O8  1  0.76037700  0.57481300  0.63219500  1
  O  O9  1  0.04070600  0.99322800  0.23788100  1
loop_
_geom_bond_atom_site_label_1
_geom_bond_atom_site_label_2
_geom_bond_distance
_geom_bond_site_symmetry_2
Li0 O5 1.962052 1_655
Li0 O5 1.982402 1_555
Li0 O8 2.135599 1_555
Li0 O2 2.141629 1_556
Li0 O0 2.185166 1_555
Li0 O0 2.494102 1_655
Li1 O3 2.039405 1_545
Li1 O1 2.125710 1_555
Li1 O6 2.174990 1_545
Li1 O6 2.177007 1_645
Li1 O9 2.279496 1_645
Li1 O1 2.320219 1_655
Li2 O5 2.088090 1_554
Li2 O2 2.127099 1_555
Li2 O7 2.134707 1_555
Li2 O2 2.137953 1_455
Li2 O4 2.246867 1_555
Li2 O7 2.312054 1_455
Li3 O3 1.976768 1_455
Li3 O3 2.004559 1_555
Li3 O6 2.073299 1_555
Li3 O0 2.125062 1_555
Li3 O8 2.187274 1_555
Li3 O8 2.481787 1_455
Li4 O1 2.048488 1_555
Li4 O7 2.052738 1_555
Li4 O9 2.106361 1_545
Li4 O4 2.133198 1_655
Li4 O9 2.150134 1_645
Li4 O4 2.193966 1_555
Li5 O7 2.048494 1_556
Li5 O1 2.053735 1_555
Li5 O5 2.064327 1_555
Li5 O3 2.066516 1_545
Li5 O3 2.198355 1_445
Li5 O5 2.201487 1_655
Mn0 O3 1.827989 1_445
Mn0 O7 1.934342 1_456
Mn0 O7 1.958557 1_556
Mn0 O0 1.987033 1_545
Mn0 O0 2.014728 1_445
Mn0 O9 2.036553 1_546
Mn1 O5 1.832713 1_555
Mn1 O1 1.935845 1_555
Mn1 O1 1.958720 1_455
Mn1 O8 1.977450 1_455
Mn1 O8 2.011576 1_555
Mn1 O4 2.017996 1_555
Mn2 O9 1.925751 1_555
Mn2 O2 1.938617 1_555
Mn2 O6 1.976115 1_555
Mn2 O0 2.020661 1_554
Mn2 O9 2.196678 1_655
Mn2 O2 2.218307 1_455
Co0 O4 1.895668 1_655
Co0 O6 1.915746 1_555
Co0 O2 1.954449 1_555
Co0 O8 1.955389 1_555
Co0 O4 2.137000 1_555
Co0 O6 2.203618 1_655
