# generated using pymatgen
data_PrTlCd
_symmetry_space_group_name_H-M   'P 1'
_cell_length_a   4.96382841
_cell_length_b   4.96469751
_cell_length_c   7.71113464
_cell_angle_alpha   90.00000000
_cell_angle_beta   90.00000000
_cell_angle_gamma   119.99420267
_symmetry_Int_Tables_number   1
_chemical_formula_structural   PrTlCd
_chemical_formula_sum   'Pr2 Tl2 Cd2'
_cell_volume   164.58256946
_cell_formula_units_Z   2
loop_
 _symmetry_equiv_pos_site_id
 _symmetry_equiv_pos_as_xyz
  1  'x, y, z'
loop_
 _atom_site_type_symbol
 _atom_site_label
 _atom_site_symmetry_multiplicity
 _atom_site_fract_x
 _atom_site_fract_y
 _atom_site_fract_z
 _atom_site_occupancy
  Pr  Pr0  1  -0.00000000  -0.00000000  0.50000000  1
  Pr  Pr1  1  -0.00000000  -0.00000000  0.00000000  1
  Tl  Tl0  1  0.33331636  0.66663372  0.74999800  1
  Tl  Tl1  1  0.66668364  0.33336628  0.25000200  1
  Cd  Cd0  1  0.33327375  0.66654551  0.25000100  1
  Cd  Cd1  1  0.66672625  0.33345449  0.74999900  1
loop_
_geom_bond_atom_site_label_1
_geom_bond_atom_site_label_2
_geom_bond_distance
_geom_bond_site_symmetry_2
Pr0 Tl0 3.454105 1_545
Pr0 Tl1 3.454105 1_455
Pr0 Tl0 3.454109 1_445
Pr0 Tl1 3.454109 1_555
Pr0 Tl0 3.454347 1_555
Pr0 Tl1 3.454347 1_445
Pr0 Pr1 3.855567 1_556
Pr0 Pr1 3.855567 1_555
Pr1 Tl1 3.454122 1_455
Pr1 Tl0 3.454122 1_544
Pr1 Tl1 3.454126 1_555
Pr1 Tl0 3.454126 1_444
Pr1 Tl1 3.454364 1_445
Pr1 Tl0 3.454364 1_554
Cd0 Tl1 2.865701 1_555
Cd0 Tl1 2.865706 1_455
Cd0 Tl1 2.867199 1_565
Cd0 Pr0 3.454036 1_555
Cd0 Pr1 3.454045 1_555
Cd0 Pr0 3.454265 1_665
Cd0 Pr0 3.454272 1_565
Cd0 Pr1 3.454274 1_665
Cd0 Pr1 3.454280 1_565
Cd1 Tl0 2.865701 1_555
Cd1 Tl0 2.865706 1_655
Cd1 Tl0 2.867199 1_545
Cd1 Pr0 3.454036 1_665
Cd1 Pr1 3.454045 1_666
Cd1 Pr0 3.454265 1_555
Cd1 Pr0 3.454272 1_655
Cd1 Pr1 3.454274 1_556
Cd1 Pr1 3.454280 1_656
