# generated using pymatgen
data_EuAs3
_symmetry_space_group_name_H-M   'P 1'
_cell_length_a   5.76270308
_cell_length_b   6.05388517
_cell_length_c   6.05388517
_cell_angle_alpha   78.24646976
_cell_angle_beta   73.02340363
_cell_angle_gamma   73.02340363
_symmetry_Int_Tables_number   1
_chemical_formula_structural   EuAs3
_chemical_formula_sum   'Eu2 As6'
_cell_volume   191.56836512
_cell_formula_units_Z   2
loop_
 _symmetry_equiv_pos_site_id
 _symmetry_equiv_pos_as_xyz
  1  'x, y, z'
loop_
 _atom_site_type_symbol
 _atom_site_label
 _atom_site_symmetry_multiplicity
 _atom_site_fract_x
 _atom_site_fract_y
 _atom_site_fract_z
 _atom_site_occupancy
  Eu  Eu0  1  0.66853574  0.16508626  0.16508626  1
  Eu  Eu1  1  0.33146426  0.83491374  0.83491374  1
  As  As0  1  0.22036460  0.49202152  0.49202152  1
  As  As1  1  0.77963540  0.50797848  0.50797848  1
  As  As2  1  0.19876830  0.36565743  0.91026565  1
  As  As3  1  0.19876830  0.91026565  0.36565743  1
  As  As4  1  0.80123170  0.63434257  0.08973435  1
  As  As5  1  0.80123170  0.08973435  0.63434257  1
loop_
_geom_bond_atom_site_label_1
_geom_bond_atom_site_label_2
_geom_bond_distance
_geom_bond_site_symmetry_2
As0 As2 2.468642 1_555
As0 As3 2.468642 1_555
As0 As1 2.487259 1_455
As0 Eu0 3.182887 1_555
As1 As4 2.468642 1_555
As1 As5 2.468642 1_555
As1 Eu1 3.182887 1_555
As2 As4 2.482914 1_456
As2 Eu1 3.065946 1_555
As2 Eu1 3.174153 1_545
As2 Eu0 3.307380 1_556
As2 Eu0 3.441153 1_456
As3 As5 2.482914 1_465
As3 Eu1 3.065946 1_555
As3 Eu1 3.174153 1_554
As3 Eu0 3.307380 1_565
As3 Eu0 3.441153 1_465
As4 Eu0 3.065946 1_555
As4 Eu0 3.174153 1_565
As4 Eu1 3.307380 1_554
As4 Eu1 3.441153 1_654
As5 Eu0 3.065946 1_555
As5 Eu0 3.174153 1_556
As5 Eu1 3.307380 1_545
As5 Eu1 3.441153 1_645
