# generated using pymatgen
data_Ag2H6PdS2(NO3)2
_symmetry_space_group_name_H-M   'P 1'
_cell_length_a   5.92228600
_cell_length_b   7.29610085
_cell_length_c   10.76924709
_cell_angle_alpha   108.38823453
_cell_angle_beta   90.00000000
_cell_angle_gamma   90.00000000
_symmetry_Int_Tables_number   1
_chemical_formula_structural   Ag2H6PdS2(NO3)2
_chemical_formula_sum   'Ag4 H12 Pd2 S4 N4 O12'
_cell_volume   441.57519547
_cell_formula_units_Z   2
loop_
 _symmetry_equiv_pos_site_id
 _symmetry_equiv_pos_as_xyz
  1  'x, y, z'
loop_
 _atom_site_type_symbol
 _atom_site_label
 _atom_site_symmetry_multiplicity
 _atom_site_fract_x
 _atom_site_fract_y
 _atom_site_fract_z
 _atom_site_occupancy
  Ag  Ag0  1  0.26205600  0.55806300  0.35120100  1
  Ag  Ag1  1  0.76205600  0.44193700  0.14879900  1
  Ag  Ag2  1  0.73794400  0.44193700  0.64879900  1
  Ag  Ag3  1  0.23794400  0.55806300  0.85120100  1
  H  H0  1  0.80669400  0.15054900  0.38766700  1
  H  H1  1  0.30669400  0.84945100  0.11233300  1
  H  H2  1  0.19330600  0.84945100  0.61233300  1
  H  H3  1  0.69330600  0.15054900  0.88766700  1
  H  H4  1  0.67297300  0.97638100  0.27221200  1
  H  H5  1  0.17297300  0.02361900  0.22778800  1
  H  H6  1  0.32702700  0.02361900  0.72778800  1
  H  H7  1  0.82702700  0.97638100  0.77221200  1
  H  H8  1  0.55540700  0.19341500  0.33146500  1
  H  H9  1  0.05540700  0.80658500  0.16853500  1
  H  H10  1  0.44459300  0.80658500  0.66853500  1
  H  H11  1  0.94459300  0.19341500  0.83146500  1
  Pd  Pd0  1  0.50000000  0.00000000  0.50000000  1
  Pd  Pd1  1  0.00000000  0.00000000  0.00000000  1
  S  S0  1  0.76503500  0.75334000  0.46302000  1
  S  S1  1  0.26503500  0.24666000  0.03698000  1
  S  S2  1  0.23496500  0.24666000  0.53698000  1
  S  S3  1  0.73496500  0.75334000  0.96302000  1
  N  N0  1  0.65102300  0.09206100  0.35537700  1
  N  N1  1  0.15102300  0.90793900  0.14462300  1
  N  N2  1  0.34897700  0.90793900  0.64462300  1
  N  N3  1  0.84897700  0.09206100  0.85537700  1
  O  O0  1  0.65256900  0.56343900  0.38548300  1
  O  O1  1  0.15256900  0.43656100  0.11451700  1
  O  O2  1  0.34743100  0.43656100  0.61451700  1
  O  O3  1  0.84743100  0.56343900  0.88548300  1
  O  O4  1  0.96687200  0.78295500  0.38625500  1
  O  O5  1  0.46687200  0.21704500  0.11374500  1
  O  O6  1  0.03312800  0.21704500  0.61374500  1
  O  O7  1  0.53312800  0.78295500  0.88625500  1
  O  O8  1  0.84049500  0.73800400  0.59344900  1
  O  O9  1  0.34049500  0.26199600  0.90655100  1
  O  O10  1  0.15950500  0.26199600  0.40655100  1
  O  O11  1  0.65950500  0.73800400  0.09344900  1
loop_
_geom_bond_atom_site_label_1
_geom_bond_atom_site_label_2
_geom_bond_distance
_geom_bond_site_symmetry_2
Ag0 O0 2.340390 1_555
Ag0 O4 2.345235 1_455
Ag0 O10 2.490524 1_555
Ag0 O1 2.505524 1_555
Ag1 O1 2.340390 1_655
Ag1 O5 2.345235 1_555
Ag1 O11 2.490524 1_555
Ag1 O0 2.505524 1_555
Ag2 O2 2.340390 1_555
Ag2 O6 2.345235 1_655
Ag2 O8 2.490524 1_555
Ag2 O3 2.505524 1_555
Ag3 O3 2.340390 1_455
Ag3 O7 2.345235 1_555
Ag3 O9 2.490524 1_555
Ag3 O2 2.505524 1_555
H0 N0 1.029249 1_555
H1 N1 1.029249 1_555
H2 N2 1.029249 1_555
H3 N3 1.029249 1_555
H4 N0 1.026881 1_565
H5 N1 1.026881 1_545
H6 N2 1.026881 1_545
H7 N3 1.026881 1_565
H8 N0 1.026624 1_555
H9 N1 1.026624 1_555
H10 N2 1.026624 1_555
H11 N3 1.026624 1_555
Pd0 S0 2.325698 1_545
Pd0 S2 2.325698 1_555
Pd1 S1 2.325698 1_555
Pd1 S3 2.325698 1_444
N0 Pd0 2.082518 1_555
N1 Pd1 2.082518 1_565
N2 Pd0 2.082518 1_565
N3 Pd1 2.082518 1_656
O0 S0 1.526652 1_555
O1 S1 1.526652 1_555
O2 S2 1.526652 1_555
O3 S3 1.526652 1_555
O4 S0 1.507200 1_555
O5 S1 1.507200 1_555
O6 S2 1.507200 1_555
O7 S3 1.507200 1_555
O8 S0 1.511409 1_555
O9 S1 1.511409 1_556
O10 S2 1.511409 1_555
O11 S3 1.511409 1_554
