# generated using pymatgen
data_LaMg6V
_symmetry_space_group_name_H-M   'P 1'
_cell_length_a   5.12493500
_cell_length_b   6.65712600
_cell_length_c   11.44580500
_cell_angle_alpha   90.00000000
_cell_angle_beta   90.00000000
_cell_angle_gamma   90.00000000
_symmetry_Int_Tables_number   1
_chemical_formula_structural   LaMg6V
_chemical_formula_sum   'La2 Mg12 V2'
_cell_volume   390.50039829
_cell_formula_units_Z   2
loop_
 _symmetry_equiv_pos_site_id
 _symmetry_equiv_pos_as_xyz
  1  'x, y, z'
loop_
 _atom_site_type_symbol
 _atom_site_label
 _atom_site_symmetry_multiplicity
 _atom_site_fract_x
 _atom_site_fract_y
 _atom_site_fract_z
 _atom_site_occupancy
  La  La0  1  0.50000000  0.50000000  0.17476900  1
  La  La1  1  0.50000000  0.00000000  0.67476900  1
  Mg  Mg0  1  0.00000000  0.23983200  0.07867900  1
  Mg  Mg1  1  0.00000000  0.76016800  0.07867900  1
  Mg  Mg2  1  0.00000000  0.50000000  0.83380700  1
  Mg  Mg3  1  0.50000000  0.24095600  0.91906100  1
  Mg  Mg4  1  0.50000000  0.75904400  0.91906100  1
  Mg  Mg5  1  0.50000000  0.50000000  0.66161000  1
  Mg  Mg6  1  0.00000000  0.73983200  0.57867900  1
  Mg  Mg7  1  0.00000000  0.26016800  0.57867900  1
  Mg  Mg8  1  0.00000000  0.00000000  0.33380700  1
  Mg  Mg9  1  0.50000000  0.74095600  0.41906100  1
  Mg  Mg10  1  0.50000000  0.25904400  0.41906100  1
  Mg  Mg11  1  0.50000000  0.00000000  0.16161000  1
  V  V0  1  0.00000000  0.50000000  0.33433500  1
  V  V1  1  0.00000000  0.00000000  0.83433500  1
loop_
_geom_bond_atom_site_label_1
_geom_bond_atom_site_label_2
_geom_bond_distance
_geom_bond_site_symmetry_2
La0 V0 3.146718 1_655
La0 V0 3.146718 1_555
La0 Mg9 3.223559 1_555
La0 Mg10 3.223559 1_555
La0 Mg1 3.282618 1_555
La0 Mg1 3.282618 1_655
La0 Mg0 3.282618 1_555
La0 Mg0 3.282618 1_655
La0 Mg11 3.331969 1_555
La0 Mg11 3.331969 1_565
La0 Mg4 3.397046 1_554
La0 Mg3 3.397046 1_554
La1 V1 3.146718 1_555
La1 V1 3.146718 1_655
La1 Mg3 3.223559 1_555
La1 Mg4 3.223559 1_545
La1 Mg7 3.282618 1_655
La1 Mg7 3.282618 1_555
La1 Mg6 3.282618 1_645
La1 Mg6 3.282618 1_545
La1 Mg5 3.331969 1_545
La1 Mg5 3.331969 1_555
La1 Mg9 3.397046 1_545
La1 Mg10 3.397046 1_555
Mg0 Mg3 3.147073 1_454
Mg0 Mg3 3.147073 1_554
Mg0 Mg11 3.164862 1_455
Mg0 Mg11 3.164862 1_555
Mg0 Mg1 3.193184 1_545
Mg0 V1 3.220359 1_554
Mg0 Mg2 3.294719 1_554
Mg0 Mg8 3.328116 1_555
Mg0 V0 3.400339 1_555
Mg0 Mg1 3.463942 1_555
Mg1 Mg4 3.147073 1_554
Mg1 Mg4 3.147073 1_454
Mg1 Mg11 3.164862 1_465
Mg1 Mg11 3.164862 1_565
Mg1 V1 3.220359 1_564
Mg1 Mg2 3.294719 1_554
Mg1 Mg8 3.328116 1_565
Mg1 V0 3.400339 1_555
Mg2 Mg5 3.232772 1_455
Mg2 Mg5 3.232772 1_555
Mg2 Mg4 3.239180 1_455
Mg2 Mg4 3.239180 1_555
Mg2 Mg3 3.239180 1_555
Mg2 Mg3 3.239180 1_455
Mg2 Mg6 3.328116 1_555
Mg2 Mg7 3.328116 1_555
Mg2 V1 3.328568 1_555
Mg2 V1 3.328568 1_565
Mg3 V1 3.174858 1_555
Mg3 V1 3.174858 1_655
Mg3 Mg4 3.208149 1_545
Mg3 Mg5 3.414250 1_555
Mg3 Mg4 3.448977 1_555
Mg4 V1 3.174858 1_565
Mg4 V1 3.174858 1_665
Mg4 Mg5 3.414250 1_555
Mg5 Mg6 3.164862 1_655
Mg5 Mg6 3.164862 1_555
Mg5 Mg7 3.164862 1_655
Mg5 Mg7 3.164862 1_555
Mg5 Mg9 3.206270 1_555
Mg6 Mg9 3.147073 1_455
Mg6 Mg9 3.147073 1_555
Mg6 Mg7 3.193184 1_555
Mg6 V0 3.220359 1_555
Mg6 Mg8 3.294719 1_565
Mg6 V1 3.400339 1_565
Mg6 Mg7 3.463942 1_565
Mg7 V0 3.220359 1_555
Mg7 Mg8 3.294719 1_555
Mg7 V1 3.400339 1_555
Mg8 Mg9 3.239180 1_445
Mg8 Mg9 3.239180 1_545
Mg8 V0 3.328568 1_555
Mg8 V0 3.328568 1_545
Mg9 V0 3.174858 1_655
Mg9 V0 3.174858 1_555
Mg10 Mg7 3.147073 1_655
Mg10 Mg7 3.147073 1_555
Mg10 V0 3.174858 1_655
Mg10 V0 3.174858 1_555
Mg10 Mg5 3.206270 1_555
Mg10 Mg9 3.208149 1_555
Mg10 Mg8 3.239180 1_555
Mg10 Mg8 3.239180 1_655
Mg10 Mg11 3.414250 1_555
Mg10 Mg9 3.448977 1_545
Mg11 Mg3 3.206270 1_554
Mg11 Mg4 3.206270 1_544
Mg11 Mg8 3.232772 1_555
Mg11 Mg8 3.232772 1_655
Mg11 Mg9 3.414250 1_545
