# generated using pymatgen
data_KSrTbSbO6
_symmetry_space_group_name_H-M   'P 1'
_cell_length_a   5.92412477
_cell_length_b   5.92408411
_cell_length_c   5.92411142
_cell_angle_alpha   60.00019229
_cell_angle_beta   59.99989971
_cell_angle_gamma   59.99989568
_symmetry_Int_Tables_number   1
_chemical_formula_structural   KSrTbSbO6
_chemical_formula_sum   'K1 Sr1 Tb1 Sb1 O6'
_cell_volume   147.01227336
_cell_formula_units_Z   1
loop_
 _symmetry_equiv_pos_site_id
 _symmetry_equiv_pos_as_xyz
  1  'x, y, z'
loop_
 _atom_site_type_symbol
 _atom_site_label
 _atom_site_symmetry_multiplicity
 _atom_site_fract_x
 _atom_site_fract_y
 _atom_site_fract_z
 _atom_site_occupancy
  K  K0  1  0.24999951  0.25000095  0.24999900  1
  Sr  Sr0  1  0.74999917  0.75000138  0.74999893  1
  Tb  Tb0  1  0.49999654  0.50001411  0.49998417  1
  Sb  Sb0  1  0.00000246  0.99999362  0.00000838  1
  O  O0  1  0.76488037  0.23511857  0.23512092  1
  O  O1  1  0.23511981  0.76487926  0.76488138  1
  O  O2  1  0.76488215  0.23511667  0.76488329  1
  O  O3  1  0.23512026  0.76487888  0.23512106  1
  O  O4  1  0.76488074  0.76487946  0.23512039  1
  O  O5  1  0.23511899  0.23511710  0.76488248  1
loop_
_geom_bond_atom_site_label_1
_geom_bond_atom_site_label_2
_geom_bond_distance
_geom_bond_site_symmetry_2
K0 O3 2.964659 1_555
K0 O4 2.964661 1_455
K0 O1 2.964667 1_554
K0 O3 2.964668 1_545
K0 O5 2.964671 1_554
K0 O2 2.964673 1_554
K0 O4 2.964678 1_545
K0 O0 2.964681 1_455
K0 O2 2.964683 1_455
K0 O5 2.964687 1_555
K0 O0 2.964688 1_555
K0 O1 2.964692 1_545
O0 Sb0 1.969805 1_645
O0 Tb0 2.219137 1_555
O0 Sr0 2.964666 1_545
O0 Sr0 2.964693 1_554
O1 Sb0 1.969821 1_556
O1 Tb0 2.219152 1_555
O1 Sr0 2.964680 1_555
O1 Sr0 2.964689 1_455
O2 Sb0 1.969853 1_646
O2 Tb0 2.219263 1_555
O2 Sr0 2.964660 1_545
O2 Sr0 2.964671 1_555
O3 Sb0 1.969791 1_555
O3 Tb0 2.219073 1_555
O3 Sr0 2.964673 1_455
O3 Sr0 2.964679 1_554
O4 Sb0 1.969809 1_655
O4 Tb0 2.219111 1_555
O4 Sr0 2.964670 1_555
O4 Sr0 2.964685 1_554
O5 Sb0 1.969826 1_546
O5 Tb0 2.219215 1_555
O5 Sr0 2.964659 1_545
O5 Sr0 2.964682 1_455
