# generated using pymatgen
data_NdNO6
_symmetry_space_group_name_H-M   'P 1'
_cell_length_a   9.88328842
_cell_length_b   9.88328842
_cell_length_c   5.11269643
_cell_angle_alpha   85.07403473
_cell_angle_beta   85.07403473
_cell_angle_gamma   26.67642372
_symmetry_Int_Tables_number   1
_chemical_formula_structural   NdNO6
_chemical_formula_sum   'Nd2 N2 O12'
_cell_volume   223.33382074
_cell_formula_units_Z   2
loop_
 _symmetry_equiv_pos_site_id
 _symmetry_equiv_pos_as_xyz
  1  'x, y, z'
loop_
 _atom_site_type_symbol
 _atom_site_label
 _atom_site_symmetry_multiplicity
 _atom_site_fract_x
 _atom_site_fract_y
 _atom_site_fract_z
 _atom_site_occupancy
  Nd  Nd0  1  0.20005900  0.20005900  0.77556800  1
  Nd  Nd1  1  0.79994100  0.79994100  0.22443200  1
  N  N0  1  0.58332800  0.58332800  0.15286000  1
  N  N1  1  0.41667200  0.41667200  0.84714000  1
  O  O0  1  0.64506600  0.64506600  0.02530200  1
  O  O1  1  0.35493400  0.35493400  0.97469800  1
  O  O2  1  0.08660200  0.08660200  0.66034800  1
  O  O3  1  0.91339800  0.91339800  0.33965200  1
  O  O4  1  0.71271700  0.71271700  0.58412200  1
  O  O5  1  0.28728300  0.28728300  0.41587800  1
  O  O6  1  0.76996800  0.76996800  0.75726000  1
  O  O7  1  0.23003200  0.23003200  0.24274000  1
  O  O8  1  0.31742700  0.79093900  0.21228100  1
  O  O9  1  0.79093900  0.31742700  0.21228100  1
  O  O10  1  0.68257300  0.20906100  0.78771900  1
  O  O11  1  0.20906100  0.68257300  0.78771900  1
loop_
_geom_bond_atom_site_label_1
_geom_bond_atom_site_label_2
_geom_bond_distance
_geom_bond_site_symmetry_2
Nd0 O2 2.309921 1_555
Nd0 O5 2.377338 1_555
Nd0 O4 2.484744 1_545
Nd0 O4 2.484744 1_455
Nd0 O7 2.506059 1_556
Nd0 O6 2.644455 1_545
Nd0 O6 2.644455 1_455
Nd0 O7 2.734292 1_555
Nd0 O0 2.776565 1_456
Nd0 O0 2.776565 1_546
Nd0 O1 3.231847 1_555
Nd1 O3 2.309921 1_555
Nd1 O4 2.377338 1_555
Nd1 O5 2.484744 1_655
Nd1 O5 2.484744 1_565
Nd1 O6 2.506059 1_554
Nd1 O7 2.644455 1_565
Nd1 O7 2.644455 1_655
Nd1 O6 2.734292 1_555
Nd1 O1 2.776565 1_564
Nd1 O1 2.776565 1_654
Nd1 O0 3.231847 1_555
N0 O8 1.241804 1_555
N0 O9 1.241804 1_555
N0 O0 1.303315 1_555
N1 O11 1.241804 1_555
N1 O10 1.241804 1_555
N1 O1 1.303315 1_555
O4 O6 1.472449 1_555
O5 O7 1.472449 1_555
