# generated using pymatgen
data_Yb7(MnS6)2
_symmetry_space_group_name_H-M   'P 1'
_cell_length_a   6.76907660
_cell_length_b   11.78619782
_cell_length_c   11.94695200
_cell_angle_alpha   90.00000000
_cell_angle_beta   90.00000000
_cell_angle_gamma   104.97709417
_symmetry_Int_Tables_number   1
_chemical_formula_structural   Yb7(MnS6)2
_chemical_formula_sum   'Yb14 Mn4 S24'
_cell_volume   920.76867692
_cell_formula_units_Z   2
loop_
 _symmetry_equiv_pos_site_id
 _symmetry_equiv_pos_as_xyz
  1  'x, y, z'
loop_
 _atom_site_type_symbol
 _atom_site_label
 _atom_site_symmetry_multiplicity
 _atom_site_fract_x
 _atom_site_fract_y
 _atom_site_fract_z
 _atom_site_occupancy
  Yb  Yb0  1  0.23488600  0.53063900  0.79698400  1
  Yb  Yb1  1  0.20260100  0.21193500  0.76759000  1
  Yb  Yb2  1  0.22814400  0.85386900  0.77977100  1
  Yb  Yb3  1  0.77185600  0.81279800  0.27977100  1
  Yb  Yb4  1  0.79739900  0.45473200  0.26759000  1
  Yb  Yb5  1  0.76511400  0.13602700  0.29698400  1
  Yb  Yb6  1  0.70949400  0.30335200  0.58513700  1
  Yb  Yb7  1  0.72889100  0.61235100  0.57651000  1
  Yb  Yb8  1  0.27110900  0.05431600  0.07651000  1
  Yb  Yb9  1  0.29050600  0.36331500  0.08513700  1
  Yb  Yb10  1  0.75747400  0.95117900  0.94387200  1
  Yb  Yb11  1  0.77372100  0.61820100  0.95828200  1
  Yb  Yb12  1  0.22627900  0.04846600  0.45828200  1
  Yb  Yb13  1  0.24252600  0.71548700  0.44387200  1
  Mn  Mn0  1  0.71067800  0.91433600  0.59606400  1
  Mn  Mn1  1  0.28932200  0.75233000  0.09606400  1
  Mn  Mn2  1  0.77246600  0.30170000  0.94759000  1
  Mn  Mn3  1  0.22753400  0.36496700  0.44759000  1
  S  S0  1  0.47371600  0.74975300  0.64227400  1
  S  S1  1  0.40510900  0.42010400  0.61860400  1
  S  S2  1  0.50975400  0.05481500  0.66569000  1
  S  S3  1  0.49024600  0.61185200  0.16569000  1
  S  S4  1  0.59489100  0.24656200  0.11860400  1
  S  S5  1  0.52628400  0.91691400  0.14227400  1
  S  S6  1  0.95356700  0.64993600  0.75901800  1
  S  S7  1  0.92416200  0.33510400  0.77831600  1
  S  S8  1  0.94398500  0.98397700  0.73176800  1
  S  S9  1  0.05601500  0.68269000  0.23176800  1
  S  S10  1  0.07583800  0.33156300  0.27831600  1
  S  S11  1  0.04643300  0.01673000  0.25901800  1
  S  S12  1  0.45623600  0.72932600  0.93041400  1
  S  S13  1  0.51655300  0.39769600  0.89122600  1
  S  S14  1  0.50202500  0.08459100  0.84363700  1
  S  S15  1  0.49797500  0.58207600  0.34363700  1
  S  S16  1  0.48344700  0.26897000  0.39122600  1
  S  S17  1  0.54376400  0.93734100  0.43041400  1
  S  S18  1  0.98213900  0.46302000  0.02418300  1
  S  S19  1  0.00438600  0.17598600  0.98728000  1
  S  S20  1  0.06141100  0.83515600  0.00068900  1
  S  S21  1  0.93858900  0.83151000  0.50068900  1
  S  S22  1  0.99561400  0.49068100  0.48728000  1
  S  S23  1  0.01786100  0.20364700  0.52418300  1
loop_
_geom_bond_atom_site_label_1
_geom_bond_atom_site_label_2
_geom_bond_distance
_geom_bond_site_symmetry_2
Mn0 S0 2.243274 1_555
Mn0 S8 2.264127 1_555
Mn0 S21 2.325894 1_555
Mn0 S17 2.329146 1_555
Mn0 S2 2.539099 1_565
Mn1 S5 2.243282 1_555
Mn1 S9 2.264125 1_555
Mn1 S20 2.325894 1_555
Mn1 S12 2.329143 1_554
Mn1 S3 2.539089 1_555
Mn2 S18 2.252120 1_556
Mn2 S7 2.256144 1_555
Mn2 S4 2.374377 1_556
Mn2 S13 2.397384 1_555
Mn2 S19 2.467196 1_655
Mn2 S14 3.003383 1_555
Mn3 S23 2.252120 1_555
Mn3 S10 2.256144 1_555
Mn3 S1 2.374376 1_555
Mn3 S16 2.397392 1_555
Mn3 S22 2.467196 1_455
Mn3 S15 3.003383 1_555
S0 Yb7 2.769346 1_555
S0 Yb13 2.811370 1_555
S0 Yb2 2.832274 1_555
S0 Yb0 3.246740 1_555
S1 Yb7 2.761122 1_555
S1 Yb6 2.786417 1_555
S1 Yb0 2.888322 1_555
S1 Yb1 3.054280 1_555
S2 Yb2 2.960923 1_545
S2 Yb6 3.047612 1_555
S2 Yb12 3.123040 1_555
S2 Yb1 3.350266 1_555
S3 Yb3 2.960923 1_555
S3 Yb9 3.047612 1_555
S3 Yb11 3.123040 1_554
S3 Yb4 3.350266 1_555
S4 Yb8 2.761115 1_555
S4 Yb9 2.786425 1_555
S4 Yb5 2.888322 1_555
S4 Yb4 3.054288 1_555
S5 Yb8 2.769346 1_565
S5 Yb10 2.811370 1_554
S5 Yb3 2.832274 1_555
S5 Yb5 3.246732 1_565
S6 Yb7 2.629678 1_555
S6 Yb2 2.642765 1_655
S6 Yb11 2.655906 1_555
S6 Yb0 2.681957 1_655
S7 Yb1 2.662784 1_655
S7 Yb0 2.698055 1_655
S7 Yb6 2.701276 1_555
S8 Yb2 2.811555 1_655
S8 Yb10 2.812871 1_555
S8 Yb1 2.834671 1_665
S9 Yb3 2.811555 1_455
S9 Yb13 2.812871 1_555
S9 Yb4 2.834671 1_455
S10 Yb4 2.662784 1_455
S10 Yb5 2.698063 1_455
S10 Yb9 2.701276 1_555
S11 Yb8 2.629678 1_555
S11 Yb3 2.642757 1_445
S11 Yb12 2.655906 1_555
S11 Yb5 2.681957 1_455
S12 Yb11 2.810633 1_555
S12 Yb10 2.874915 1_555
S12 Yb0 2.907991 1_555
S12 Yb2 2.991483 1_555
S13 Yb9 2.748066 1_556
S13 Yb11 2.843960 1_555
S13 Yb0 2.983649 1_555
S13 Yb1 3.014416 1_555
S14 S2 2.157532 1_555
S14 Yb10 2.881289 1_545
S14 Yb1 2.959474 1_555
S14 Yb2 2.967868 1_545
S14 Yb8 3.165832 1_556
S15 S3 2.157532 1_555
S15 Yb13 2.881281 1_555
S15 Yb4 2.959474 1_555
S15 Yb3 2.967868 1_555
S15 Yb7 3.165832 1_555
S16 Yb6 2.748066 1_555
S16 Yb12 2.843951 1_555
S16 Yb5 2.983649 1_555
S16 Yb4 3.014423 1_555
S17 Yb12 2.810633 1_565
S17 Yb13 2.874924 1_555
S17 Yb5 2.907983 1_565
S17 Yb3 2.991483 1_555
S18 Yb11 2.699838 1_554
S18 Yb9 2.745209 1_655
S18 Yb4 3.156977 1_555
S18 Yb0 3.197669 1_654
S19 Yb9 2.789703 1_556
S19 Yb8 2.791196 1_556
S19 Yb10 2.791766 1_445
S19 Yb1 2.928241 1_555
S20 Yb8 2.759075 1_565
S20 Yb11 2.830875 1_454
S20 Yb10 2.831547 1_454
S20 Yb2 2.856514 1_554
S21 Yb7 2.759066 1_555
S21 Yb12 2.830884 1_665
S21 Yb13 2.831547 1_655
S21 Yb3 2.856514 1_555
S22 Yb6 2.789703 1_555
S22 Yb7 2.791196 1_555
S22 Yb13 2.791757 1_655
S22 Yb4 2.928241 1_555
S23 Yb12 2.699838 1_555
S23 Yb6 2.745209 1_455
S23 Yb1 3.156977 1_555
S23 Yb5 3.197670 1_455
