# generated using pymatgen
data_Li8CoO5F
_symmetry_space_group_name_H-M   'P 1'
_cell_length_a   5.29848206
_cell_length_b   10.55721191
_cell_length_c   5.43920368
_cell_angle_alpha   104.69546631
_cell_angle_beta   65.38784396
_cell_angle_gamma   92.99284474
_symmetry_Int_Tables_number   1
_chemical_formula_structural   Li8CoO5F
_chemical_formula_sum   'Li16 Co2 O10 F2'
_cell_volume   267.06861773
_cell_formula_units_Z   2
loop_
 _symmetry_equiv_pos_site_id
 _symmetry_equiv_pos_as_xyz
  1  'x, y, z'
loop_
 _atom_site_type_symbol
 _atom_site_label
 _atom_site_symmetry_multiplicity
 _atom_site_fract_x
 _atom_site_fract_y
 _atom_site_fract_z
 _atom_site_occupancy
  Li  Li0  1  0.92083300  0.18413000  0.47032900  1
  Li  Li1  1  0.43343900  0.67657000  0.47883000  1
  Li  Li2  1  0.19747200  0.33190400  0.22813100  1
  Li  Li3  1  0.70325000  0.82991800  0.23532100  1
  Li  Li4  1  0.91184200  0.32443700  0.88310700  1
  Li  Li5  1  0.41860800  0.82072500  0.90178300  1
  Li  Li6  1  0.26272100  0.01644600  0.37643500  1
  Li  Li7  1  0.78250000  0.51028800  0.37473500  1
  Li  Li8  1  0.18631000  0.48281900  0.66633800  1
  Li  Li9  1  0.70519300  0.98086500  0.66186800  1
  Li  Li10  1  0.59951000  0.17056900  0.08325800  1
  Li  Li11  1  0.09788100  0.66903800  0.09574700  1
  Li  Li12  1  0.27942200  0.18376500  0.78976000  1
  Li  Li13  1  0.78735600  0.67847300  0.79813800  1
  Li  Li14  1  0.56768000  0.32954200  0.51580700  1
  Li  Li15  1  0.07785300  0.82178900  0.51681500  1
  Co  Co0  1  0.05797800  0.98126700  0.95175100  1
  Co  Co1  1  0.53721300  0.48666700  0.96677200  1
  O  O0  1  0.88352000  0.38395000  0.58223100  1
  O  O1  1  0.38366600  0.88072700  0.60370900  1
  O  O2  1  0.23118000  0.11982300  0.10625700  1
  O  O3  1  0.73745900  0.61947700  0.11344100  1
  O  O4  1  0.94892800  0.11923900  0.75374500  1
  O  O5  1  0.45448700  0.61216500  0.77258100  1
  O  O6  1  0.55683000  0.38200200  0.20752600  1
  O  O7  1  0.06562900  0.87194700  0.21949100  1
  O  O8  1  0.26599900  0.37839300  0.88773800  1
  O  O9  1  0.77293900  0.87785500  0.89282000  1
  F  F0  1  0.58135700  0.13950800  0.42601700  1
  F  F1  1  0.09094300  0.63570000  0.43951800  1
loop_
_geom_bond_atom_site_label_1
_geom_bond_atom_site_label_2
_geom_bond_distance
_geom_bond_site_symmetry_2
Li0 O4 1.898810 1_555
Li0 O2 1.951526 1_655
Li0 O0 2.037545 1_555
Li1 O3 1.932606 1_555
Li1 O5 1.932655 1_555
Li1 O1 2.084163 1_555
Li2 O6 1.914386 1_555
Li2 O0 1.915320 1_455
Li2 O8 1.919146 1_554
Li2 O2 2.162056 1_555
Li3 O7 1.919279 1_655
Li3 O9 1.936191 1_554
Li3 O1 1.973162 1_555
Li3 O3 2.145428 1_555
Li4 O8 1.940828 1_655
Li4 O0 1.957439 1_555
Li4 O6 1.957518 1_556
Li4 O4 2.093457 1_555
Li5 O9 1.926468 1_555
Li5 O7 1.927686 1_556
Li5 O1 1.961489 1_555
Li5 O5 2.127287 1_555
Li6 O7 2.015415 1_545
Li6 O4 2.090478 1_455
Li6 O2 2.101415 1_555
Li6 O1 2.376165 1_545
Li7 O6 2.050095 1_555
Li7 O3 2.132626 1_555
Li7 O0 2.163491 1_555
Li7 O5 2.177561 1_555
Li8 O8 1.997392 1_555
Li8 O0 2.016639 1_455
Li8 O5 2.073317 1_555
Li8 O6 2.450418 1_555
Li9 O9 1.999747 1_555
Li9 O4 2.005430 1_565
Li9 O1 2.052100 1_555
Li9 O7 2.399385 1_655
Li10 O4 1.944652 1_554
Li10 O2 1.957763 1_555
Li10 O6 2.156473 1_555
Li11 O3 1.923035 1_455
Li11 O5 1.958805 1_554
Li11 O7 2.069285 1_555
Li12 O4 1.913712 1_455
Li12 O2 1.920839 1_556
Li12 O8 1.984716 1_555
Li13 O3 1.883113 1_556
Li13 O5 1.909429 1_555
Li13 O9 2.033658 1_555
Li14 O0 1.886511 1_555
Li14 O6 1.917418 1_555
Li14 O8 1.943409 1_555
Li15 O7 1.850746 1_555
Li15 O1 1.902490 1_555
Li15 O9 1.968925 1_455
Co0 O2 1.888557 1_566
Co0 O9 1.905014 1_455
Co0 O1 2.034441 1_555
Co0 O7 2.088351 1_556
Co0 O4 2.239999 1_465
Co1 O8 1.910539 1_555
Co1 O3 1.926192 1_556
Co1 O6 1.950919 1_556
Co1 O5 2.054131 1_555
Co1 O0 2.185826 1_555
F0 Li12 1.914327 1_555
F0 Li0 1.931419 1_555
F0 Li10 1.936504 1_555
F0 Li14 1.938378 1_555
F0 Li6 2.140884 1_555
F1 Li13 1.900439 1_455
F1 Li15 1.900532 1_555
F1 Li1 1.928652 1_555
F1 Li11 1.974036 1_555
F1 Li7 2.136593 1_455
F1 Li8 2.448892 1_555
