# generated using pymatgen
data_Zn2CuC2NCl6
_symmetry_space_group_name_H-M   'P 1'
_cell_length_a   10.07444384
_cell_length_b   10.07444384
_cell_length_c   10.07444384
_cell_angle_alpha   136.23571439
_cell_angle_beta   117.04459727
_cell_angle_gamma   79.81218563
_symmetry_Int_Tables_number   1
_chemical_formula_structural   Zn2CuC2NCl6
_chemical_formula_sum   'Zn4 Cu2 C4 N2 Cl12'
_cell_volume   610.57693225
_cell_formula_units_Z   2
loop_
 _symmetry_equiv_pos_site_id
 _symmetry_equiv_pos_as_xyz
  1  'x, y, z'
loop_
 _atom_site_type_symbol
 _atom_site_label
 _atom_site_symmetry_multiplicity
 _atom_site_fract_x
 _atom_site_fract_y
 _atom_site_fract_z
 _atom_site_occupancy
  Zn  Zn0  1  0.02166600  0.36554500  0.02315400  1
  Zn  Zn1  1  0.84239100  0.99851200  0.47684600  1
  Zn  Zn2  1  0.47833400  0.50148800  0.34387900  1
  Zn  Zn3  1  0.65760900  0.13445500  0.15612100  1
  Cu  Cu0  1  0.78514000  0.53514000  0.25000000  1
  Cu  Cu1  1  0.71486000  0.96486000  0.75000000  1
  C  C0  1  0.24899500  0.16422500  0.41359100  1
  C  C1  1  0.25063300  0.83540300  0.08640900  1
  C  C2  1  0.25100500  0.66459700  0.91523000  1
  C  C3  1  0.24936700  0.33577500  0.58477000  1
  N  N0  1  0.24893300  0.99893300  0.25000000  1
  N  N1  1  0.25106700  0.50106700  0.75000000  1
  Cl  Cl0  1  0.79803900  0.47606500  0.99345700  1
  Cl  Cl1  1  0.98260800  0.80458200  0.50654300  1
  Cl  Cl2  1  0.70196100  0.69541800  0.67802500  1
  Cl  Cl3  1  0.51739200  0.02393500  0.82197500  1
  Cl  Cl4  1  0.25000000  0.58719600  0.33719600  1
  Cl  Cl5  1  0.75000000  0.91280400  0.16280400  1
  Cl  Cl6  1  0.03449100  0.28449100  0.75000000  1
  Cl  Cl7  1  0.46550900  0.21550900  0.25000000  1
  Cl  Cl8  1  0.85695500  0.38987300  0.36509200  1
  Cl  Cl9  1  0.52478200  0.49186400  0.13490800  1
  Cl  Cl10  1  0.64304500  0.00813600  0.53291800  1
  Cl  Cl11  1  0.97521800  0.11012700  0.96708200  1
loop_
_geom_bond_atom_site_label_1
_geom_bond_atom_site_label_2
_geom_bond_distance
_geom_bond_site_symmetry_2
C0 N0 1.234740 1_545
C0 C3 1.285471 1_555
C1 N0 1.234740 1_555
C1 C2 1.285471 1_554
C2 N1 1.234743 1_555
C3 N1 1.234743 1_555
Cl0 Cu0 2.259916 1_556
Cl0 Zn0 2.320712 1_656
Cl1 Cu0 2.259916 1_555
Cl1 Zn1 2.320712 1_555
Cl2 Cu1 2.259910 1_555
Cl2 Zn2 2.320708 1_555
Cl3 Cu1 2.259921 1_545
Cl3 Zn3 2.320704 1_556
Cl4 Zn2 2.298291 1_555
Cl4 Zn0 2.298291 1_555
Cl5 Zn1 2.298291 1_555
Cl5 Zn3 2.298291 1_565
Cl6 Zn0 2.301439 1_556
Cl6 Zn1 2.301439 1_445
Cl7 Zn2 2.301439 1_555
Cl7 Zn3 2.301439 1_555
Cl8 Zn3 2.290290 1_555
Cl8 Cu0 2.307204 1_555
Cl9 Zn2 2.290303 1_555
Cl9 Cu0 2.307195 1_555
Cl10 Zn1 2.290293 1_545
Cl10 Cu1 2.307196 1_545
Cl11 Zn0 2.290293 1_656
Cl11 Cu1 2.307196 1_545
