# generated using pymatgen
data_NaCaP2NO10
_symmetry_space_group_name_H-M   'P 1'
_cell_length_a   9.62280007
_cell_length_b   9.62280007
_cell_length_c   5.86939459
_cell_angle_alpha   82.57091666
_cell_angle_beta   82.57091666
_cell_angle_gamma   116.38202601
_symmetry_Int_Tables_number   1
_chemical_formula_structural   NaCaP2NO10
_chemical_formula_sum   'Na2 Ca2 P4 N2 O20'
_cell_volume   472.01458962
_cell_formula_units_Z   2
loop_
 _symmetry_equiv_pos_site_id
 _symmetry_equiv_pos_as_xyz
  1  'x, y, z'
loop_
 _atom_site_type_symbol
 _atom_site_label
 _atom_site_symmetry_multiplicity
 _atom_site_fract_x
 _atom_site_fract_y
 _atom_site_fract_z
 _atom_site_occupancy
  Na  Na0  1  0.66981700  0.54611900  0.65873900  1
  Na  Na1  1  0.54611900  0.66981700  0.15873900  1
  Ca  Ca0  1  0.89697800  0.34393900  0.87439200  1
  Ca  Ca1  1  0.34393900  0.89697800  0.37439200  1
  P  P0  1  0.31363500  0.56634500  0.75141000  1
  P  P1  1  0.56634500  0.31363500  0.25141000  1
  P  P2  1  0.13545900  0.72332800  0.94732000  1
  P  P3  1  0.72332800  0.13545900  0.44732000  1
  N  N0  1  0.02909800  0.16104700  0.37503900  1
  N  N1  1  0.16104700  0.02909800  0.87503900  1
  O  O0  1  0.65304200  0.34746200  0.99628300  1
  O  O1  1  0.34746200  0.65304200  0.49628300  1
  O  O2  1  0.57039300  0.98046300  0.53644200  1
  O  O3  1  0.98046300  0.57039300  0.03644200  1
  O  O4  1  0.04224300  0.02631200  0.92033700  1
  O  O5  1  0.02631200  0.04224300  0.42033700  1
  O  O6  1  0.28110900  0.68280900  0.91808300  1
  O  O7  1  0.68280900  0.28110900  0.41808300  1
  O  O8  1  0.16236100  0.40755900  0.80907200  1
  O  O9  1  0.40755900  0.16236100  0.30907200  1
  O  O10  1  0.14207100  0.81630500  0.70371800  1
  O  O11  1  0.81630500  0.14207100  0.20371800  1
  O  O12  1  0.94070200  0.59594500  0.64612800  1
  O  O13  1  0.59594500  0.94070200  0.14612800  1
  O  O14  1  0.84008900  0.17280100  0.61462000  1
  O  O15  1  0.17280100  0.84008900  0.11462000  1
  O  O16  1  0.45416200  0.55996300  0.83205500  1
  O  O17  1  0.55996300  0.45416200  0.33205500  1
  O  O18  1  0.81336500  0.80268000  0.85336100  1
  O  O19  1  0.80268000  0.81336500  0.35336100  1
loop_
_geom_bond_atom_site_label_1
_geom_bond_atom_site_label_2
_geom_bond_distance
_geom_bond_site_symmetry_2
Na0 O16 2.256960 1_555
Na0 O17 2.389282 1_555
Na0 O12 2.420809 1_555
Na0 O0 2.503828 1_555
Na0 O19 2.598863 1_555
Na0 O18 2.722995 1_555
Na1 O17 2.256960 1_555
Na1 O16 2.389282 1_554
Na1 O13 2.420809 1_555
Na1 O1 2.503828 1_555
Na1 O18 2.598863 1_554
Na1 O19 2.722995 1_555
Ca0 O8 2.310848 1_655
Ca0 O14 2.323879 1_555
Ca0 O11 2.326622 1_556
Ca0 O3 2.340172 1_556
Ca0 O0 2.380281 1_555
Ca0 O12 2.441301 1_555
Ca1 O9 2.310848 1_565
Ca1 O15 2.323879 1_555
Ca1 O10 2.326622 1_555
Ca1 O2 2.340172 1_555
Ca1 O1 2.380281 1_555
Ca1 O13 2.441301 1_555
N0 O5 1.127250 1_555
N1 O4 1.127250 1_555
O0 P1 1.534224 1_556
O1 P0 1.534224 1_555
O2 P3 1.520675 1_565
O3 P2 1.520675 1_654
O6 P2 1.608295 1_555
O6 P0 1.681379 1_555
O7 P3 1.608295 1_555
O7 P1 1.681379 1_555
O8 P0 1.526567 1_555
O9 P1 1.526567 1_555
O10 P2 1.563307 1_555
O11 P3 1.563307 1_555
O14 P3 1.540617 1_555
O15 P2 1.540617 1_554
O16 P0 1.512695 1_555
O17 P1 1.512695 1_555
