# generated using pymatgen
data_La5Sm3Cr6(FeO12)2
_symmetry_space_group_name_H-M   'P 1'
_cell_length_a   7.84106968
_cell_length_b   7.84106968
_cell_length_c   7.83911000
_cell_angle_alpha   90.00000000
_cell_angle_beta   90.00000000
_cell_angle_gamma   90.01402304
_symmetry_Int_Tables_number   1
_chemical_formula_structural   La5Sm3Cr6(FeO12)2
_chemical_formula_sum   'La5 Sm3 Cr6 Fe2 O24'
_cell_volume   481.96707610
_cell_formula_units_Z   1
loop_
 _symmetry_equiv_pos_site_id
 _symmetry_equiv_pos_as_xyz
  1  'x, y, z'
loop_
 _atom_site_type_symbol
 _atom_site_label
 _atom_site_symmetry_multiplicity
 _atom_site_fract_x
 _atom_site_fract_y
 _atom_site_fract_z
 _atom_site_occupancy
  La  La0  1  0.25051300  0.25053800  0.50000000  1
  La  La1  1  0.74945800  0.25054200  0.50000000  1
  La  La2  1  0.25054200  0.74945800  0.50000000  1
  La  La3  1  0.74946200  0.74948700  0.50000000  1
  La  La4  1  0.25056300  0.74943700  0.00000000  1
  Sm  Sm0  1  0.25071200  0.25067400  0.00000000  1
  Sm  Sm1  1  0.74927300  0.25072700  0.00000000  1
  Sm  Sm2  1  0.74932600  0.74928800  0.00000000  1
  Cr  Cr0  1  0.50029700  0.00033000  0.75096700  1
  Cr  Cr1  1  0.99967000  0.49970300  0.75096700  1
  Cr  Cr2  1  0.50028700  0.49971300  0.75093200  1
  Cr  Cr3  1  0.50029700  0.00033000  0.24903300  1
  Cr  Cr4  1  0.99967000  0.49970300  0.24903300  1
  Cr  Cr5  1  0.50028700  0.49971300  0.24906800  1
  Fe  Fe0  1  0.99962600  0.00037400  0.75115800  1
  Fe  Fe1  1  0.99962600  0.00037400  0.24884200  1
  O  O0  1  0.99990300  0.00009700  0.50000000  1
  O  O1  1  0.50007900  0.00008900  0.50000000  1
  O  O2  1  0.99991100  0.49992100  0.50000000  1
  O  O3  1  0.50008900  0.49991100  0.50000000  1
  O  O4  1  0.99854500  0.00145500  0.00000000  1
  O  O5  1  0.50172300  0.00169200  0.00000000  1
  O  O6  1  0.99830800  0.49827700  0.00000000  1
  O  O7  1  0.50171200  0.49828800  0.00000000  1
  O  O8  1  0.99987600  0.25076800  0.75330600  1
  O  O9  1  0.50010200  0.25030600  0.75360800  1
  O  O10  1  0.99836900  0.74929900  0.75182800  1
  O  O11  1  0.50180100  0.74971300  0.75198500  1
  O  O12  1  0.99987600  0.25076800  0.24669400  1
  O  O13  1  0.50010200  0.25030600  0.24639200  1
  O  O14  1  0.99836900  0.74929900  0.24817200  1
  O  O15  1  0.50180100  0.74971300  0.24801500  1
  O  O16  1  0.25070100  0.00163100  0.75182800  1
  O  O17  1  0.74923200  0.00012400  0.75330600  1
  O  O18  1  0.25028700  0.49819900  0.75198500  1
  O  O19  1  0.74969400  0.49989800  0.75360800  1
  O  O20  1  0.25070100  0.00163100  0.24817200  1
  O  O21  1  0.74923200  0.00012400  0.24669400  1
  O  O22  1  0.25028700  0.49819900  0.24801500  1
  O  O23  1  0.74969400  0.49989800  0.24639200  1
loop_
_geom_bond_atom_site_label_1
_geom_bond_atom_site_label_2
_geom_bond_distance
_geom_bond_site_symmetry_2
La0 O3 2.766071 1_555
La0 O22 2.770026 1_555
La0 O18 2.770026 1_555
La0 O2 2.772501 1_455
La0 O1 2.772663 1_555
La0 O20 2.776009 1_555
La0 O16 2.776009 1_555
La0 O0 2.777724 1_455
La0 O9 2.789698 1_555
La0 O13 2.789698 1_555
La0 O8 2.793786 1_455
La0 O12 2.793786 1_455
La1 O3 2.765578 1_555
La1 O1 2.770973 1_555
La1 O2 2.770973 1_555
La1 O0 2.777511 1_555
La1 O9 2.788416 1_555
La1 O13 2.788416 1_555
La1 O19 2.788416 1_555
La1 O23 2.788416 1_555
La1 O17 2.792578 1_555
La1 O21 2.792578 1_555
La1 O12 2.792578 1_555
La1 O8 2.792578 1_555
La2 O3 2.767552 1_555
La2 O2 2.772835 1_455
La2 O1 2.772835 1_565
La2 O0 2.779663 1_465
La2 O18 2.789877 1_555
La2 O22 2.789877 1_555
La2 O11 2.789877 1_555
La2 O15 2.789877 1_555
La2 O14 2.794072 1_455
La2 O16 2.794072 1_565
La2 O20 2.794072 1_565
La2 O10 2.794072 1_455
La3 O3 2.766071 1_555
La3 O11 2.770026 1_555
La3 O15 2.770026 1_555
La3 O1 2.772501 1_565
La3 O2 2.772663 1_555
La3 O10 2.776009 1_555
La3 O14 2.776009 1_555
La3 O0 2.777724 1_565
La3 O19 2.789698 1_555
La3 O23 2.789698 1_555
La3 O17 2.793786 1_565
La3 O21 2.793786 1_565
La4 O18 2.767812 1_554
La4 O22 2.767812 1_555
La4 O11 2.767812 1_554
La4 O15 2.767812 1_555
La4 O16 2.774015 1_564
La4 O20 2.774015 1_565
La4 O10 2.774015 1_454
La4 O14 2.774015 1_455
La4 O7 2.785319 1_555
La4 O6 2.790836 1_455
La4 O5 2.790836 1_565
La4 O4 2.794956 1_465
Cr0 O17 1.952004 1_555
Cr0 O5 1.952258 1_556
Cr0 O16 1.957140 1_555
Cr0 O9 1.960190 1_555
Cr0 O11 1.965160 1_545
Cr0 O1 1.967360 1_555
Cr1 O8 1.952004 1_555
Cr1 O6 1.952258 1_556
Cr1 O10 1.957140 1_555
Cr1 O19 1.960190 1_555
Cr1 O18 1.965160 1_655
Cr1 O2 1.967360 1_555
Cr2 O7 1.952535 1_556
Cr2 O19 1.955730 1_555
Cr2 O9 1.955730 1_555
Cr2 O11 1.960318 1_555
Cr2 O18 1.960318 1_555
Cr2 O3 1.967085 1_555
Cr3 O21 1.952004 1_555
Cr3 O5 1.952258 1_555
Cr3 O20 1.957140 1_555
Cr3 O13 1.960190 1_555
Cr3 O15 1.965160 1_545
Cr3 O1 1.967360 1_555
Cr4 O12 1.952004 1_555
Cr4 O6 1.952258 1_555
Cr4 O14 1.957140 1_555
Cr4 O23 1.960190 1_555
Cr4 O22 1.965160 1_655
Cr4 O2 1.967360 1_555
Cr5 O7 1.952535 1_555
Cr5 O23 1.955730 1_555
Cr5 O13 1.955730 1_555
Cr5 O15 1.960318 1_555
Cr5 O22 1.960318 1_555
Cr5 O3 1.967085 1_555
Fe0 O4 1.950737 1_556
Fe0 O8 1.963430 1_555
Fe0 O17 1.963430 1_555
Fe0 O10 1.968726 1_545
Fe0 O16 1.968726 1_655
Fe0 O0 1.968858 1_555
Fe1 O4 1.950737 1_555
Fe1 O12 1.963430 1_555
Fe1 O21 1.963430 1_555
Fe1 O14 1.968726 1_545
Fe1 O20 1.968726 1_655
Fe1 O0 1.968858 1_555
O4 Sm1 2.764502 1_555
O4 Sm0 2.779629 1_655
O4 Sm2 2.779629 1_545
O5 Sm1 2.752978 1_555
O5 Sm0 2.772560 1_555
O5 Sm2 2.772743 1_545
O6 Sm1 2.752978 1_555
O6 Sm2 2.772560 1_555
O6 Sm0 2.772743 1_655
O7 Sm1 2.745527 1_555
O7 Sm2 2.764278 1_555
O7 Sm0 2.764278 1_555
O8 Sm1 2.756996 1_556
O8 Sm0 2.758299 1_656
O9 Sm1 2.747341 1_556
O9 Sm0 2.748563 1_556
O10 Sm2 2.756456 1_556
O11 Sm2 2.747168 1_556
O12 Sm1 2.756996 1_555
O12 Sm0 2.758299 1_655
O13 Sm1 2.747341 1_555
O13 Sm0 2.748563 1_555
O14 Sm2 2.756456 1_555
O15 Sm2 2.747168 1_555
O16 Sm0 2.756456 1_556
O17 Sm1 2.756996 1_556
O17 Sm2 2.758299 1_546
O18 Sm0 2.747168 1_556
O19 Sm1 2.747341 1_556
O19 Sm2 2.748563 1_556
O20 Sm0 2.756456 1_555
O21 Sm1 2.756996 1_555
O21 Sm2 2.758299 1_545
O22 Sm0 2.747168 1_555
O23 Sm1 2.747341 1_555
O23 Sm2 2.748563 1_555
