# generated using pymatgen
data_Na2MnCdFe(PO4)3
_symmetry_space_group_name_H-M   'P 1'
_cell_length_a   6.64197700
_cell_length_b   8.85624693
_cell_length_c   8.90900907
_cell_angle_alpha   92.35593665
_cell_angle_beta   106.80620816
_cell_angle_gamma   106.20303758
_symmetry_Int_Tables_number   1
_chemical_formula_structural   Na2MnCdFe(PO4)3
_chemical_formula_sum   'Na4 Mn2 Cd2 Fe2 P6 O24'
_cell_volume   477.49773380
_cell_formula_units_Z   2
loop_
 _symmetry_equiv_pos_site_id
 _symmetry_equiv_pos_as_xyz
  1  'x, y, z'
loop_
 _atom_site_type_symbol
 _atom_site_label
 _atom_site_symmetry_multiplicity
 _atom_site_fract_x
 _atom_site_fract_y
 _atom_site_fract_z
 _atom_site_occupancy
  Na  Na0  1  0.75093900  0.02200900  0.97754800  1
  Na  Na1  1  0.24905200  0.97848100  0.02262900  1
  Na  Na2  1  0.74531400  0.73232100  0.26681700  1
  Na  Na3  1  0.50353200  0.50386100  0.49480700  1
  Mn  Mn0  1  0.35742200  0.93148000  0.61987500  1
  Mn  Mn1  1  0.14486200  0.37819800  0.07119000  1
  Cd  Cd0  1  0.25198500  0.26762900  0.73222900  1
  Cd  Cd1  1  0.99371500  0.50707400  0.49509700  1
  Fe  Fe0  1  0.63985400  0.06107100  0.38309200  1
  Fe  Fe1  1  0.86027800  0.61847600  0.93650400  1
  P  P0  1  0.36524100  0.65616700  0.86550700  1
  P  P1  1  0.12771600  0.13431200  0.34554800  1
  P  P2  1  0.63520700  0.34007200  0.13576400  1
  P  P3  1  0.87314500  0.86363800  0.65906200  1
  P  P4  1  0.75278700  0.28539800  0.71787700  1
  P  P5  1  0.24767100  0.72059600  0.27578600  1
  O  O0  1  0.39789400  0.83141800  0.83844400  1
  O  O1  1  0.09897300  0.15961900  0.17050000  1
  O  O2  1  0.62590300  0.16838800  0.18016700  1
  O  O3  1  0.87617800  0.82100000  0.83003800  1
  O  O4  1  0.58801600  0.64406600  0.97693400  1
  O  O5  1  0.90640800  0.01592500  0.35206800  1
  O  O6  1  0.40797800  0.32308400  0.01190100  1
  O  O7  1  0.09776300  0.99222100  0.68137000  1
  O  O8  1  0.54553900  0.17140300  0.74393000  1
  O  O9  1  0.95999600  0.25487800  0.82974000  1
  O  O10  1  0.45373300  0.85066900  0.26137700  1
  O  O11  1  0.03981100  0.73915500  0.14878800  1
  O  O12  1  0.30058800  0.54211600  0.70737300  1
  O  O13  1  0.18063700  0.29066600  0.45709900  1
  O  O14  1  0.68254800  0.45426500  0.28630300  1
  O  O15  1  0.83575000  0.71462200  0.54805200  1
  O  O16  1  0.75969300  0.26192700  0.54319000  1
  O  O17  1  0.74571300  0.45895000  0.74159100  1
  O  O18  1  0.20868000  0.73774600  0.43860800  1
  O  O19  1  0.28735200  0.55917100  0.26045600  1
  O  O20  1  0.17757000  0.60081700  0.94080200  1
  O  O21  1  0.32240100  0.06280000  0.40474300  1
  O  O22  1  0.81880300  0.40482000  0.05708400  1
  O  O23  1  0.68335400  0.93949400  0.59011000  1
loop_
_geom_bond_atom_site_label_1
_geom_bond_atom_site_label_2
_geom_bond_distance
_geom_bond_site_symmetry_2
Na0 O1 2.396150 1_656
Na0 O0 2.412918 1_545
Na0 O3 2.618068 1_545
Na0 O2 2.627575 1_556
Na0 O8 2.745056 1_555
Na0 O9 2.756415 1_555
Na1 O3 2.537922 1_454
Na1 O2 2.547299 1_565
Na1 O1 2.603976 1_565
Na1 O0 2.616711 1_554
Na1 O10 2.652969 1_555
Na1 O11 2.672518 1_555
Na1 O7 2.932551 1_554
Na1 O6 2.953279 1_565
Na2 O14 2.402513 1_555
Na2 O15 2.424370 1_555
Na2 O5 2.429731 1_565
Na2 O10 2.436051 1_555
Na2 O11 2.462524 1_655
Na2 O4 2.488002 1_554
Na3 O19 2.324594 1_555
Na3 O13 2.355572 1_555
Na3 O15 2.366724 1_555
Na3 O17 2.442000 1_555
Na3 O14 2.561023 1_555
Na3 O12 2.682593 1_555
Mn0 O18 2.105088 1_555
Mn0 O7 2.145662 1_555
Mn0 O0 2.149745 1_555
Mn0 O8 2.196414 1_565
Mn0 O23 2.238218 1_555
Mn0 O21 2.270796 1_565
Mn1 O19 2.077528 1_555
Mn1 O6 2.135427 1_555
Mn1 O1 2.142531 1_555
Mn1 O9 2.204247 1_454
Mn1 O22 2.211684 1_455
Mn1 O20 2.319234 1_554
Cd0 O8 2.314268 1_555
Cd0 O9 2.321370 1_455
Cd0 O7 2.334544 1_545
Cd0 O6 2.375996 1_556
Cd0 O13 2.386971 1_555
Cd0 O12 2.389620 1_555
Cd1 O14 2.261918 1_555
Cd1 O12 2.279684 1_655
Cd1 O18 2.310296 1_655
Cd1 O16 2.427240 1_555
Cd1 O15 2.448105 1_555
Cd1 O13 2.616650 1_655
Fe0 O10 1.987300 1_545
Fe0 O5 2.009892 1_555
Fe0 O16 2.043743 1_555
Fe0 O2 2.067316 1_555
Fe0 O23 2.161727 1_545
Fe0 O21 2.176291 1_555
Fe1 O11 1.989833 1_656
Fe1 O17 2.006149 1_555
Fe1 O4 2.012443 1_555
Fe1 O3 2.054242 1_555
Fe1 O20 2.145931 1_655
Fe1 O22 2.204001 1_556
O0 P0 1.545064 1_555
O1 P1 1.548929 1_555
O2 P2 1.575850 1_555
O3 P3 1.580192 1_555
O4 P0 1.560192 1_555
O5 P1 1.567676 1_655
O6 P2 1.553937 1_555
O7 P3 1.556874 1_455
O8 P4 1.548032 1_555
O9 P4 1.548222 1_555
O10 P5 1.565431 1_555
O11 P5 1.565836 1_555
O12 P0 1.574960 1_555
O13 P1 1.562643 1_555
O14 P2 1.545151 1_555
O15 P3 1.532701 1_555
O16 P4 1.577133 1_555
O17 P4 1.558402 1_555
O18 P5 1.554157 1_555
O19 P5 1.531983 1_555
O20 P0 1.553577 1_555
O21 P1 1.562521 1_555
O22 P2 1.563423 1_555
O23 P3 1.573691 1_555
