# generated using pymatgen
data_SmAlCu
_symmetry_space_group_name_H-M   'P 1'
_cell_length_a   5.45359874
_cell_length_b   5.45359874
_cell_length_c   5.45359874
_cell_angle_alpha   119.29420982
_cell_angle_beta   119.08839494
_cell_angle_gamma   91.40659736
_symmetry_Int_Tables_number   1
_chemical_formula_structural   SmAlCu
_chemical_formula_sum   'Sm2 Al2 Cu2'
_cell_volume   116.05600794
_cell_formula_units_Z   2
loop_
 _symmetry_equiv_pos_site_id
 _symmetry_equiv_pos_as_xyz
  1  'x, y, z'
loop_
 _atom_site_type_symbol
 _atom_site_label
 _atom_site_symmetry_multiplicity
 _atom_site_fract_x
 _atom_site_fract_y
 _atom_site_fract_z
 _atom_site_occupancy
  Sm  Sm0  1  0.12400900  0.87400900  0.25000000  1
  Sm  Sm1  1  0.87599100  0.12599100  0.75000000  1
  Al  Al0  1  0.50000000  0.50000000  0.50000000  1
  Al  Al1  1  0.50000000  0.00000000  0.00000000  1
  Cu  Cu0  1  0.50000000  0.50000000  0.00000000  1
  Cu  Cu1  1  0.00000000  0.50000000  0.50000000  1
loop_
_geom_bond_atom_site_label_1
_geom_bond_atom_site_label_2
_geom_bond_distance
_geom_bond_site_symmetry_2
Al0 Cu0 2.726799 1_556
Al0 Cu0 2.726799 1_555
Al0 Cu1 2.726799 1_655
Al0 Cu1 2.726799 1_555
Al0 Al1 2.755837 1_555
Al0 Al1 2.755837 1_566
Al0 Sm1 3.178266 1_565
Al0 Sm0 3.178266 1_545
Al0 Sm0 3.229896 1_555
Al0 Sm1 3.229896 1_555
Al0 Sm0 3.229896 1_656
Al0 Sm1 3.229896 1_454
Al1 Cu0 2.726799 1_555
Al1 Cu1 2.726799 1_655
Al1 Cu0 2.726799 1_545
Al1 Cu1 2.726799 1_544
Al1 Sm1 3.178266 1_554
Al1 Sm0 3.178266 1_545
Al1 Sm0 3.229896 1_544
Al1 Sm1 3.229896 1_555
Al1 Sm1 3.229896 1_454
Al1 Sm0 3.229896 1_645
Cu0 Cu1 2.764285 1_554
Cu0 Cu1 2.764285 1_655
Cu0 Sm0 3.166509 1_655
Cu0 Sm1 3.166509 1_454
Cu0 Sm0 3.228932 1_555
Cu0 Sm1 3.228932 1_554
Cu0 Sm1 3.228932 1_565
Cu0 Sm0 3.228932 1_544
Cu1 Sm0 3.166509 1_555
Cu1 Sm1 3.166509 1_455
Cu1 Sm1 3.228932 1_465
Cu1 Sm0 3.228932 1_556
Cu1 Sm1 3.228932 1_454
Cu1 Sm0 3.228932 1_545
