# generated using pymatgen
data_Fe2H3F2
_symmetry_space_group_name_H-M   'P 1'
_cell_length_a   17.16781300
_cell_length_b   17.16781300
_cell_length_c   8.71558800
_cell_angle_alpha   90.00000000
_cell_angle_beta   90.00000000
_cell_angle_gamma   90.00000000
_symmetry_Int_Tables_number   1
_chemical_formula_structural   Fe2H3F2
_chemical_formula_sum   'Fe8 H12 F8'
_cell_volume   2568.77839839
_cell_formula_units_Z   4
loop_
 _symmetry_equiv_pos_site_id
 _symmetry_equiv_pos_as_xyz
  1  'x, y, z'
loop_
 _atom_site_type_symbol
 _atom_site_label
 _atom_site_symmetry_multiplicity
 _atom_site_fract_x
 _atom_site_fract_y
 _atom_site_fract_z
 _atom_site_occupancy
  Fe  Fe0  1  0.24987300  0.24994500  0.63674800  1
  Fe  Fe1  1  0.75012700  0.75005500  0.63674800  1
  Fe  Fe2  1  0.74994500  0.25012700  0.63674800  1
  Fe  Fe3  1  0.25012700  0.25005500  0.36325200  1
  Fe  Fe4  1  0.25005500  0.74987300  0.63674800  1
  Fe  Fe5  1  0.74987300  0.74994500  0.36325200  1
  Fe  Fe6  1  0.75005500  0.24987300  0.36325200  1
  Fe  Fe7  1  0.24994500  0.75012700  0.36325200  1
  H  H0  1  0.14758400  0.02552000  0.36072600  1
  H  H1  1  0.85241600  0.97448000  0.36072600  1
  H  H2  1  0.52552000  0.35241600  0.36072600  1
  H  H3  1  0.35241600  0.47448000  0.63927400  1
  H  H4  1  0.47448000  0.64758400  0.36072600  1
  H  H5  1  0.64758400  0.52552000  0.63927400  1
  H  H6  1  0.97448000  0.14758400  0.63927400  1
  H  H7  1  0.02552000  0.85241600  0.63927400  1
  H  H8  1  0.75000000  0.25000000  0.00000000  1
  H  H9  1  0.25000000  0.75000000  0.00000000  1
  H  H10  1  0.75000000  0.75000000  0.00000000  1
  H  H11  1  0.25000000  0.25000000  0.00000000  1
  F  F0  1  0.25003200  0.24995300  0.13091500  1
  F  F1  1  0.74996800  0.75004700  0.13091500  1
  F  F2  1  0.74995300  0.24996800  0.13091500  1
  F  F3  1  0.24996800  0.25004700  0.86908500  1
  F  F4  1  0.25004700  0.75003200  0.13091500  1
  F  F5  1  0.75003200  0.74995300  0.86908500  1
  F  F6  1  0.75004700  0.25003200  0.86908500  1
  F  F7  1  0.24995300  0.74996800  0.86908500  1
loop_
_geom_bond_atom_site_label_1
_geom_bond_atom_site_label_2
_geom_bond_distance
_geom_bond_site_symmetry_2
F0 H11 1.141002 1_555
F0 Fe3 2.024955 1_555
F1 H10 1.141002 1_555
F1 Fe5 2.024955 1_555
F2 H8 1.141002 1_555
F2 Fe6 2.024955 1_555
F3 H11 1.141002 1_556
F3 Fe0 2.024955 1_555
F4 H9 1.141002 1_555
F4 Fe7 2.024955 1_555
F5 H10 1.141002 1_556
F5 Fe1 2.024955 1_555
F6 H8 1.141002 1_556
F6 Fe2 2.024955 1_555
F7 H9 1.141002 1_556
F7 Fe4 2.024955 1_555
