# generated using pymatgen
data_Os3W3C2
_symmetry_space_group_name_H-M   'P 1'
_cell_length_a   5.69893037
_cell_length_b   5.69893037
_cell_length_c   29.74372800
_cell_angle_alpha   90.00000000
_cell_angle_beta   90.00000000
_cell_angle_gamma   119.99998103
_symmetry_Int_Tables_number   1
_chemical_formula_structural   Os3W3C2
_chemical_formula_sum   'Os24 W24 C16'
_cell_volume   836.59028421
_cell_formula_units_Z   8
loop_
 _symmetry_equiv_pos_site_id
 _symmetry_equiv_pos_as_xyz
  1  'x, y, z'
loop_
 _atom_site_type_symbol
 _atom_site_label
 _atom_site_symmetry_multiplicity
 _atom_site_fract_x
 _atom_site_fract_y
 _atom_site_fract_z
 _atom_site_occupancy
  Os  Os0_0  1  0.33333350  0.16666650  0.09481100  1
  Os  Os0_1  1  0.33333350  0.16666650  0.59481100  1
  Os  Os0_2  1  0.33333350  0.66666650  0.09481100  1
  Os  Os0_3  1  0.33333350  0.66666650  0.59481100  1
  Os  Os0_4  1  0.83333350  0.16666650  0.09481100  1
  Os  Os0_5  1  0.83333350  0.16666650  0.59481100  1
  Os  Os0_6  1  0.83333350  0.66666650  0.09481100  1
  Os  Os0_7  1  0.83333350  0.66666650  0.59481100  1
  Os  Os1_0  1  0.00000000  0.00000000  0.00000000  1
  Os  Os1_1  1  0.00000000  0.00000000  0.50000000  1
  Os  Os1_2  1  0.00000000  0.50000000  0.00000000  1
  Os  Os1_3  1  0.00000000  0.50000000  0.50000000  1
  Os  Os1_4  1  0.50000000  0.00000000  0.00000000  1
  Os  Os1_5  1  0.50000000  0.00000000  0.50000000  1
  Os  Os1_6  1  0.50000000  0.50000000  0.00000000  1
  Os  Os1_7  1  0.50000000  0.50000000  0.50000000  1
  Os  Os2_0  1  0.16666650  0.33333350  0.40518900  1
  Os  Os2_1  1  0.16666650  0.33333350  0.90518900  1
  Os  Os2_2  1  0.16666650  0.83333350  0.40518900  1
  Os  Os2_3  1  0.16666650  0.83333350  0.90518900  1
  Os  Os2_4  1  0.66666650  0.33333350  0.40518900  1
  Os  Os2_5  1  0.66666650  0.33333350  0.90518900  1
  Os  Os2_6  1  0.66666650  0.83333350  0.40518900  1
  Os  Os2_7  1  0.66666650  0.83333350  0.90518900  1
  W  W0_0  1  0.33333350  0.16666650  0.33100100  1
  W  W0_1  1  0.33333350  0.16666650  0.83100100  1
  W  W0_2  1  0.33333350  0.66666650  0.33100100  1
  W  W0_3  1  0.33333350  0.66666650  0.83100100  1
  W  W0_4  1  0.83333350  0.16666650  0.33100100  1
  W  W0_5  1  0.83333350  0.16666650  0.83100100  1
  W  W0_6  1  0.83333350  0.66666650  0.33100100  1
  W  W0_7  1  0.83333350  0.66666650  0.83100100  1
  W  W1_0  1  0.00000000  0.00000000  0.25000000  1
  W  W1_1  1  0.00000000  0.00000000  0.75000000  1
  W  W1_2  1  0.00000000  0.50000000  0.25000000  1
  W  W1_3  1  0.00000000  0.50000000  0.75000000  1
  W  W1_4  1  0.50000000  0.00000000  0.25000000  1
  W  W1_5  1  0.50000000  0.00000000  0.75000000  1
  W  W1_6  1  0.50000000  0.50000000  0.25000000  1
  W  W1_7  1  0.50000000  0.50000000  0.75000000  1
  W  W2_0  1  0.16666650  0.33333350  0.16899900  1
  W  W2_1  1  0.16666650  0.33333350  0.66899900  1
  W  W2_2  1  0.16666650  0.83333350  0.16899900  1
  W  W2_3  1  0.16666650  0.83333350  0.66899900  1
  W  W2_4  1  0.66666650  0.33333350  0.16899900  1
  W  W2_5  1  0.66666650  0.33333350  0.66899900  1
  W  W2_6  1  0.66666650  0.83333350  0.16899900  1
  W  W2_7  1  0.66666650  0.83333350  0.66899900  1
  C  C0_0  1  0.16666650  0.33333350  0.04997250  1
  C  C0_1  1  0.16666650  0.33333350  0.54997250  1
  C  C0_2  1  0.16666650  0.83333350  0.04997250  1
  C  C0_3  1  0.16666650  0.83333350  0.54997250  1
  C  C0_4  1  0.66666650  0.33333350  0.04997250  1
  C  C0_5  1  0.66666650  0.33333350  0.54997250  1
  C  C0_6  1  0.66666650  0.83333350  0.04997250  1
  C  C0_7  1  0.66666650  0.83333350  0.54997250  1
  C  C1_0  1  0.33333350  0.16666650  0.45002750  1
  C  C1_1  1  0.33333350  0.16666650  0.95002750  1
  C  C1_2  1  0.33333350  0.66666650  0.45002750  1
  C  C1_3  1  0.33333350  0.66666650  0.95002750  1
  C  C1_4  1  0.83333350  0.16666650  0.45002750  1
  C  C1_5  1  0.83333350  0.16666650  0.95002750  1
  C  C1_6  1  0.83333350  0.66666650  0.45002750  1
  C  C1_7  1  0.83333350  0.66666650  0.95002750  1
loop_
_geom_bond_atom_site_label_1
_geom_bond_atom_site_label_2
_geom_bond_distance
_geom_bond_site_symmetry_2
Os0_0 W2_2 2.752396 1_545
Os0_0 W2_4 2.752396 1_555
Os0_0 W2_0 2.752399 1_555
Os0_1 W2_3 2.752396 1_545
Os0_1 W2_5 2.752396 1_555
Os0_1 W2_1 2.752399 1_555
Os0_2 W2_6 2.752396 1_555
Os0_2 W2_0 2.752396 1_555
Os0_2 W2_2 2.752399 1_555
Os0_3 W2_7 2.752396 1_555
Os0_3 W2_1 2.752396 1_555
Os0_3 W2_3 2.752399 1_555
Os0_4 W2_6 2.752396 1_545
Os0_4 W2_0 2.752396 1_655
Os0_4 W2_4 2.752399 1_555
Os0_5 W2_1 2.752396 1_655
Os0_5 W2_7 2.752396 1_545
Os0_5 W2_5 2.752399 1_555
Os0_6 W2_4 2.752396 1_555
Os0_6 W2_2 2.752396 1_655
Os0_6 W2_6 2.752399 1_555
Os0_7 W2_3 2.752396 1_655
Os0_7 W2_5 2.752396 1_555
Os0_7 W2_7 2.752399 1_555
Os2_0 W0_4 2.752396 1_455
Os2_0 W0_2 2.752396 1_555
Os2_0 W0_0 2.752399 1_555
Os2_1 W0_5 2.752396 1_455
Os2_1 W0_3 2.752396 1_555
Os2_1 W0_1 2.752399 1_555
Os2_2 W0_6 2.752396 1_455
Os2_2 W0_0 2.752396 1_565
Os2_2 W0_2 2.752399 1_555
Os2_3 W0_7 2.752396 1_455
Os2_3 W0_1 2.752396 1_565
Os2_3 W0_3 2.752399 1_555
Os2_4 W0_6 2.752396 1_555
Os2_4 W0_0 2.752396 1_555
Os2_4 W0_4 2.752399 1_555
Os2_5 W0_7 2.752396 1_555
Os2_5 W0_1 2.752396 1_555
Os2_5 W0_5 2.752399 1_555
Os2_6 W0_4 2.752396 1_565
Os2_6 W0_2 2.752396 1_555
Os2_6 W0_6 2.752399 1_555
Os2_7 W0_3 2.752396 1_555
Os2_7 W0_5 2.752396 1_565
Os2_7 W0_7 2.752399 1_555
W0_0 W0_2 2.849465 1_545
W0_0 W0_4 2.849465 1_455
W0_0 W0_4 2.849465 1_555
W0_0 W0_2 2.849465 1_555
W0_0 W0_6 2.849466 1_445
W0_0 W0_6 2.849466 1_555
W0_0 W1_4 2.917374 1_555
W0_0 W1_0 2.917375 1_555
W0_0 W1_6 2.917375 1_555
W0_1 W0_5 2.849465 1_555
W0_1 W0_3 2.849465 1_555
W0_1 W0_3 2.849465 1_545
W0_1 W0_5 2.849465 1_455
W0_1 W0_7 2.849466 1_445
W0_1 W0_7 2.849466 1_555
W0_1 W1_5 2.917374 1_555
W0_1 W1_1 2.917375 1_555
W0_1 W1_7 2.917375 1_555
W0_2 W0_6 2.849465 1_455
W0_2 W0_6 2.849465 1_555
W0_2 W0_4 2.849466 1_565
W0_2 W0_4 2.849466 1_455
W0_2 W1_6 2.917374 1_555
W0_2 W1_4 2.917375 1_565
W0_2 W1_2 2.917375 1_555
W0_3 W0_7 2.849465 1_455
W0_3 W0_7 2.849465 1_555
W0_3 W0_5 2.849466 1_565
W0_3 W0_5 2.849466 1_455
W0_3 W1_7 2.917374 1_555
W0_3 W1_3 2.917375 1_555
W0_3 W1_5 2.917375 1_565
W0_4 W0_6 2.849465 1_545
W0_4 W0_6 2.849465 1_555
W0_4 W1_0 2.917374 1_655
W0_4 W1_4 2.917375 1_555
W0_4 W1_2 2.917375 1_655
W0_5 W0_7 2.849465 1_555
W0_5 W0_7 2.849465 1_545
W0_5 W1_1 2.917374 1_655
W0_5 W1_5 2.917375 1_555
W0_5 W1_3 2.917375 1_655
W0_6 W1_2 2.917374 1_655
W0_6 W1_6 2.917375 1_555
W0_6 W1_0 2.917375 1_665
W0_7 W1_3 2.917374 1_655
W0_7 W1_1 2.917375 1_665
W0_7 W1_7 2.917375 1_555
W1_0 W1_4 2.849465 1_555
W1_0 W1_2 2.849465 1_555
W1_0 W1_2 2.849465 1_545
W1_0 W1_4 2.849465 1_455
W1_0 W1_6 2.849466 1_555
W1_0 W1_6 2.849466 1_445
W1_0 W2_2 2.917374 1_545
W1_0 W2_6 2.917375 1_445
W1_0 W2_0 2.917375 1_555
W1_1 W1_5 2.849465 1_455
W1_1 W1_5 2.849465 1_555
W1_1 W1_3 2.849465 1_545
W1_1 W1_3 2.849465 1_555
W1_1 W1_7 2.849466 1_445
W1_1 W1_7 2.849466 1_555
W1_1 W2_3 2.917374 1_545
W1_1 W2_1 2.917375 1_555
W1_1 W2_7 2.917375 1_445
W1_2 W1_6 2.849465 1_455
W1_2 W1_6 2.849465 1_555
W1_2 W1_4 2.849466 1_455
W1_2 W1_4 2.849466 1_565
W1_2 W2_0 2.917374 1_555
W1_2 W2_4 2.917375 1_455
W1_2 W2_2 2.917375 1_555
W1_3 W1_7 2.849465 1_455
W1_3 W1_7 2.849465 1_555
W1_3 W1_5 2.849466 1_455
W1_3 W1_5 2.849466 1_565
W1_3 W2_1 2.917374 1_555
W1_3 W2_5 2.917375 1_455
W1_3 W2_3 2.917375 1_555
W1_4 W1_6 2.849465 1_545
W1_4 W1_6 2.849465 1_555
W1_4 W2_6 2.917374 1_545
W1_4 W2_4 2.917375 1_555
W1_4 W2_2 2.917375 1_545
W1_5 W1_7 2.849465 1_555
W1_5 W1_7 2.849465 1_545
W1_5 W2_7 2.917374 1_545
W1_5 W2_5 2.917375 1_555
W1_5 W2_3 2.917375 1_545
W1_6 W2_4 2.917374 1_555
W1_6 W2_0 2.917375 1_555
W1_6 W2_6 2.917375 1_555
W1_7 W2_5 2.917374 1_555
W1_7 W2_1 2.917375 1_555
W1_7 W2_7 2.917375 1_555
W2_0 W2_2 2.849465 1_545
W2_0 W2_4 2.849465 1_455
W2_0 W2_4 2.849465 1_555
W2_0 W2_2 2.849465 1_555
W2_0 W2_6 2.849466 1_555
W2_0 W2_6 2.849466 1_445
W2_1 W2_3 2.849465 1_545
W2_1 W2_5 2.849465 1_455
W2_1 W2_3 2.849465 1_555
W2_1 W2_5 2.849465 1_555
W2_1 W2_7 2.849466 1_555
W2_1 W2_7 2.849466 1_445
W2_2 W2_6 2.849465 1_555
W2_2 W2_6 2.849465 1_455
W2_2 W2_4 2.849466 1_455
W2_2 W2_4 2.849466 1_565
W2_3 W2_7 2.849465 1_455
W2_3 W2_7 2.849465 1_555
W2_3 W2_5 2.849466 1_455
W2_3 W2_5 2.849466 1_565
W2_4 W2_6 2.849465 1_545
W2_4 W2_6 2.849465 1_555
W2_5 W2_7 2.849465 1_545
W2_5 W2_7 2.849465 1_555
C0_0 Os0_4 2.117815 1_455
C0_0 Os0_2 2.117815 1_555
C0_0 Os0_0 2.117818 1_555
C0_0 Os1_2 2.217153 1_555
C0_0 Os1_6 2.217156 1_555
C0_0 Os1_0 2.217156 1_555
C0_1 Os0_5 2.117815 1_455
C0_1 Os0_3 2.117815 1_555
C0_1 Os0_1 2.117818 1_555
C0_1 Os1_3 2.217153 1_555
C0_1 Os1_1 2.217156 1_555
C0_1 Os1_7 2.217156 1_555
C0_2 Os0_6 2.117815 1_455
C0_2 Os0_0 2.117815 1_565
C0_2 Os0_2 2.117818 1_555
C0_2 Os1_0 2.217153 1_565
C0_2 Os1_2 2.217156 1_555
C0_2 Os1_4 2.217156 1_565
C0_3 Os0_7 2.117815 1_455
C0_3 Os0_1 2.117815 1_565
C0_3 Os0_3 2.117818 1_555
C0_3 Os1_1 2.217153 1_565
C0_3 Os1_3 2.217156 1_555
C0_3 Os1_5 2.217156 1_565
C0_4 Os0_6 2.117815 1_555
C0_4 Os0_0 2.117815 1_555
C0_4 Os0_4 2.117818 1_555
C0_4 Os1_6 2.217153 1_555
C0_4 Os1_2 2.217156 1_655
C0_4 Os1_4 2.217156 1_555
C0_5 Os0_7 2.117815 1_555
C0_5 Os0_1 2.117815 1_555
C0_5 Os0_5 2.117818 1_555
C0_5 Os1_7 2.217153 1_555
C0_5 Os1_3 2.217156 1_655
C0_5 Os1_5 2.217156 1_555
C0_6 Os0_2 2.117815 1_555
C0_6 Os0_4 2.117815 1_565
C0_6 Os0_6 2.117818 1_555
C0_6 Os1_4 2.217153 1_565
C0_6 Os1_0 2.217156 1_665
C0_6 Os1_6 2.217156 1_555
C0_7 Os0_5 2.117815 1_565
C0_7 Os0_3 2.117815 1_555
C0_7 Os0_7 2.117818 1_555
C0_7 Os1_5 2.217153 1_565
C0_7 Os1_1 2.217156 1_665
C0_7 Os1_7 2.217156 1_555
C1_0 Os2_2 2.117815 1_545
C1_0 Os2_4 2.117815 1_555
C1_0 Os2_0 2.117818 1_555
C1_0 Os1_5 2.217153 1_555
C1_0 Os1_1 2.217156 1_555
C1_0 Os1_7 2.217156 1_555
C1_1 Os2_3 2.117815 1_545
C1_1 Os2_5 2.117815 1_555
C1_1 Os2_1 2.117818 1_555
C1_1 Os1_4 2.217153 1_556
C1_1 Os1_0 2.217156 1_556
C1_1 Os1_6 2.217156 1_556
C1_2 Os2_6 2.117815 1_555
C1_2 Os2_0 2.117815 1_555
C1_2 Os2_2 2.117818 1_555
C1_2 Os1_7 2.217153 1_555
C1_2 Os1_3 2.217156 1_555
C1_2 Os1_5 2.217156 1_565
C1_3 Os2_7 2.117815 1_555
C1_3 Os2_1 2.117815 1_555
C1_3 Os2_3 2.117818 1_555
C1_3 Os1_6 2.217153 1_556
C1_3 Os1_2 2.217156 1_556
C1_3 Os1_4 2.217156 1_566
C1_4 Os2_6 2.117815 1_545
C1_4 Os2_0 2.117815 1_655
C1_4 Os2_4 2.117818 1_555
C1_4 Os1_1 2.217153 1_655
C1_4 Os1_5 2.217156 1_555
C1_4 Os1_3 2.217156 1_655
C1_5 Os2_7 2.117815 1_545
C1_5 Os2_1 2.117815 1_655
C1_5 Os2_5 2.117818 1_555
C1_5 Os1_0 2.217153 1_656
C1_5 Os1_4 2.217156 1_556
C1_5 Os1_2 2.217156 1_656
C1_6 Os2_4 2.117815 1_555
C1_6 Os2_2 2.117815 1_655
C1_6 Os2_6 2.117818 1_555
C1_6 Os1_3 2.217153 1_655
C1_6 Os1_7 2.217156 1_555
C1_6 Os1_1 2.217156 1_665
C1_7 Os2_3 2.117815 1_655
C1_7 Os2_5 2.117815 1_555
C1_7 Os2_7 2.117818 1_555
C1_7 Os1_2 2.217153 1_656
C1_7 Os1_6 2.217156 1_556
C1_7 Os1_0 2.217156 1_666
