# generated using pymatgen
data_Lu2ReB6
_symmetry_space_group_name_H-M   'P 1'
_cell_length_a   3.60917166
_cell_length_b   9.04148056
_cell_length_c   11.37987849
_cell_angle_alpha   90.00000000
_cell_angle_beta   90.00000000
_cell_angle_gamma   90.00000000
_symmetry_Int_Tables_number   1
_chemical_formula_structural   Lu2ReB6
_chemical_formula_sum   'Lu8 Re4 B24'
_cell_volume   371.35110132
_cell_formula_units_Z   4
loop_
 _symmetry_equiv_pos_site_id
 _symmetry_equiv_pos_as_xyz
  1  'x, y, z'
loop_
 _atom_site_type_symbol
 _atom_site_label
 _atom_site_symmetry_multiplicity
 _atom_site_fract_x
 _atom_site_fract_y
 _atom_site_fract_z
 _atom_site_occupancy
  Lu  Lu0  1  -0.00000000  0.32322901  0.41395476  1
  Lu  Lu1  1  0.00000000  0.67677883  0.58605143  1
  Lu  Lu2  1  -0.00000000  0.82322901  0.08604524  1
  Lu  Lu3  1  -0.00000000  0.17677883  0.91394857  1
  Lu  Lu4  1  -0.00000000  0.94305695  0.37011442  1
  Lu  Lu5  1  -0.00000000  0.05692894  0.62989763  1
  Lu  Lu6  1  0.00000000  0.44305695  0.12988558  1
  Lu  Lu7  1  0.00000000  0.55692894  0.87010237  1
  Re  Re0  1  -0.00000000  0.63891245  0.32048169  1
  Re  Re1  1  0.00000000  0.36109682  0.67955171  1
  Re  Re2  1  -0.00000000  0.13891245  0.17951831  1
  Re  Re3  1  0.00000000  0.86109682  0.82044829  1
  B  B0  1  0.50000000  0.55310951  0.43356364  1
  B  B1  1  0.50000000  0.44690080  0.56645166  1
  B  B2  1  0.50000000  0.05310951  0.06643636  1
  B  B3  1  0.50000000  0.94690080  0.93354834  1
  B  B4  1  0.50000000  0.75063039  0.41956590  1
  B  B5  1  0.50000000  0.24936842  0.58045207  1
  B  B6  1  0.50000000  0.25063039  0.08043410  1
  B  B7  1  0.50000000  0.74936842  0.91954793  1
  B  B8  1  0.50000000  0.79314919  0.26445567  1
  B  B9  1  0.50000000  0.20685082  0.73555956  1
  B  B10  1  0.50000000  0.29314919  0.23554433  1
  B  B11  1  0.50000000  0.70685082  0.76444044  1
  B  B12  1  0.50000000  0.63050002  0.18432584  1
  B  B13  1  0.50000000  0.36949226  0.81567959  1
  B  B14  1  0.50000000  0.13050002  0.31567416  1
  B  B15  1  0.50000000  0.86949226  0.68432041  1
  B  B16  1  0.50000000  0.98093828  0.21198515  1
  B  B17  1  0.50000000  0.01906712  0.78801374  1
  B  B18  1  0.50000000  0.48093828  0.28801485  1
  B  B19  1  0.50000000  0.51906712  0.71198626  1
  B  B20  1  0.50000000  0.59906375  0.02754881  1
  B  B21  1  0.50000000  0.40092644  0.97243636  1
  B  B22  1  0.50000000  0.09906375  0.47245119  1
  B  B23  1  0.50000000  0.90092644  0.52756364  1
loop_
_geom_bond_atom_site_label_1
_geom_bond_atom_site_label_2
_geom_bond_distance
_geom_bond_site_symmetry_2
Lu0 Re1 3.041791 1_555
Lu0 Re0 3.046014 1_555
Lu0 Re2 3.145580 1_555
Lu1 Re0 3.041482 1_555
Lu1 Re1 3.046110 1_555
Lu1 Re3 3.145205 1_555
Lu2 Re3 3.041791 1_554
Lu2 Re2 3.046014 1_565
Lu2 Re0 3.145580 1_555
Lu3 Re2 3.041482 1_556
Lu3 Re3 3.046110 1_545
Lu3 Re1 3.145205 1_555
Lu4 Re2 2.800037 1_565
Lu4 Re0 2.807322 1_555
Lu5 Re3 2.799503 1_545
Lu5 Re1 2.807578 1_555
Lu6 Re0 2.800037 1_555
Lu6 Re2 2.807322 1_555
Lu7 Re1 2.799503 1_555
Lu7 Re3 2.807578 1_555
B0 B18 1.780231 1_555
B0 B1 1.791380 1_555
B0 B4 1.792971 1_555
B0 Re0 2.348271 1_655
B0 Re0 2.348271 1_555
B0 Lu1 2.741904 1_655
B0 Lu1 2.741904 1_555
B0 Lu0 2.761579 1_555
B0 Lu0 2.761579 1_655
B1 B19 1.780065 1_555
B1 B5 1.793077 1_555
B1 Re1 2.348387 1_555
B1 Re1 2.348387 1_655
B1 Lu0 2.741979 1_555
B1 Lu0 2.741979 1_655
B1 Lu1 2.761554 1_555
B1 Lu1 2.761554 1_655
B2 B3 1.791380 1_544
B2 B6 1.792971 1_555
B2 Re2 2.348271 1_655
B2 Re2 2.348271 1_555
B2 Lu3 2.741904 1_654
B2 Lu3 2.741904 1_554
B2 Lu2 2.761579 1_545
B2 Lu2 2.761579 1_645
B3 B7 1.793077 1_555
B3 Re3 2.348387 1_555
B3 Re3 2.348387 1_655
B3 Lu2 2.741979 1_656
B3 Lu2 2.741979 1_556
B3 Lu3 2.761554 1_565
B3 Lu3 2.761554 1_665
B4 B8 1.806514 1_555
B4 Re0 2.355468 1_555
B4 Re0 2.355468 1_655
B4 Lu4 2.569085 1_555
B4 Lu4 2.569085 1_655
B4 Lu1 2.700341 1_555
B4 Lu1 2.700341 1_655
B5 B9 1.806481 1_555
B5 Re1 2.355592 1_555
B5 Re1 2.355592 1_655
B5 Lu5 2.569149 1_555
B5 Lu5 2.569149 1_655
B5 Lu0 2.700455 1_655
B5 Lu0 2.700455 1_555
B6 Re2 2.355468 1_555
B6 Re2 2.355468 1_655
B6 Lu6 2.569085 1_655
B6 Lu6 2.569085 1_555
B6 Lu3 2.700341 1_654
B6 Lu3 2.700341 1_554
B7 Re3 2.355592 1_555
B7 Re3 2.355592 1_655
B7 Lu7 2.569149 1_655
B7 Lu7 2.569149 1_555
B7 Lu2 2.700455 1_656
B7 Lu2 2.700455 1_556
B8 Re0 2.368066 1_555
B8 Re0 2.368066 1_655
B8 Lu4 2.557212 1_555
B8 Lu4 2.557212 1_655
B8 Lu2 2.729939 1_655
B8 Lu2 2.729939 1_555
B9 Re1 2.368059 1_555
B9 Re1 2.368059 1_655
B9 Lu5 2.557297 1_655
B9 Lu5 2.557297 1_555
B9 Lu3 2.729751 1_555
B9 Lu3 2.729751 1_655
B10 B14 1.730357 1_555
B10 B18 1.799826 1_555
B10 B6 1.806514 1_555
B10 Re2 2.368066 1_555
B10 Re2 2.368066 1_655
B10 Lu6 2.557212 1_555
B10 Lu6 2.557212 1_655
B10 Lu0 2.729939 1_555
B10 Lu0 2.729939 1_655
B11 B15 1.730239 1_555
B11 B19 1.799718 1_555
B11 B7 1.806481 1_555
B11 Re3 2.368059 1_555
B11 Re3 2.368059 1_655
B11 Lu7 2.557297 1_655
B11 Lu7 2.557297 1_555
B11 Lu1 2.729751 1_655
B11 Lu1 2.729751 1_555
B12 B8 1.730357 1_555
B12 B18 1.794695 1_555
B12 B20 1.806602 1_555
B12 Re0 2.379721 1_555
B12 Re0 2.379721 1_655
B12 Lu6 2.551972 1_655
B12 Lu6 2.551972 1_555
B12 Lu2 2.746615 1_555
B12 Lu2 2.746615 1_655
B13 B9 1.730239 1_555
B13 B19 1.794817 1_555
B13 B21 1.806372 1_555
B13 Re1 2.379509 1_555
B13 Re1 2.379509 1_655
B13 Lu7 2.551885 1_555
B13 Lu7 2.551885 1_655
B13 Lu3 2.746472 1_555
B13 Lu3 2.746472 1_655
B14 B16 1.794695 1_545
B14 B22 1.806602 1_555
B14 Re2 2.379721 1_555
B14 Re2 2.379721 1_655
B14 Lu4 2.551972 1_645
B14 Lu4 2.551972 1_545
B14 Lu0 2.746615 1_555
B14 Lu0 2.746615 1_655
B15 B17 1.794817 1_565
B15 B23 1.806372 1_555
B15 Re3 2.379509 1_655
B15 Re3 2.379509 1_555
B15 Lu5 2.551885 1_665
B15 Lu5 2.551885 1_565
B15 Lu1 2.746472 1_655
B15 Lu1 2.746472 1_555
B16 B2 1.780231 1_565
B16 B8 1.799826 1_555
B16 Re2 2.330909 1_565
B16 Re2 2.330909 1_665
B16 Lu4 2.571383 1_555
B16 Lu4 2.571383 1_655
B16 Lu2 2.709945 1_555
B16 Lu2 2.709945 1_655
B17 B3 1.780065 1_545
B17 B9 1.799718 1_555
B17 Re3 2.330829 1_545
B17 Re3 2.330829 1_645
B17 Lu5 2.571255 1_555
B17 Lu5 2.571255 1_655
B17 Lu3 2.709926 1_655
B17 Lu3 2.709926 1_555
B18 Re0 2.330909 1_655
B18 Re0 2.330909 1_555
B18 Lu6 2.571383 1_655
B18 Lu6 2.571383 1_555
B18 Lu0 2.709945 1_655
B18 Lu0 2.709945 1_555
B19 Re1 2.330829 1_555
B19 Re1 2.330829 1_655
B19 Lu7 2.571255 1_655
B19 Lu7 2.571255 1_555
B19 Lu1 2.709926 1_555
B19 Lu1 2.709926 1_655
B20 B7 1.832307 1_554
B20 B21 1.898066 1_554
B20 Lu6 2.569509 1_555
B20 Lu6 2.569509 1_655
B20 Lu7 2.571367 1_654
B20 Lu7 2.571367 1_554
B20 Lu2 2.794195 1_555
B20 Lu2 2.794195 1_655
B21 B6 1.832225 1_556
B21 Lu7 2.569474 1_655
B21 Lu7 2.569474 1_555
B21 Lu6 2.571383 1_656
B21 Lu6 2.571383 1_556
B21 Lu3 2.794055 1_655
B21 Lu3 2.794055 1_555
B22 B5 1.832307 1_555
B22 B23 1.898066 1_545
B22 Lu4 2.569509 1_545
B22 Lu4 2.569509 1_645
B22 Lu5 2.571367 1_555
B22 Lu5 2.571367 1_655
B22 Lu0 2.794195 1_555
B22 Lu0 2.794195 1_655
B23 B4 1.832225 1_555
B23 Lu5 2.569474 1_565
B23 Lu5 2.569474 1_665
B23 Lu4 2.571383 1_655
B23 Lu4 2.571383 1_555
B23 Lu1 2.794055 1_555
B23 Lu1 2.794055 1_655
