# generated using pymatgen
data_Li3MnCoO5
_symmetry_space_group_name_H-M   'P 1'
_cell_length_a   5.14573994
_cell_length_b   5.14573994
_cell_length_c   12.96968301
_cell_angle_alpha   77.91690827
_cell_angle_beta   77.91690827
_cell_angle_gamma   32.88367784
_symmetry_Int_Tables_number   1
_chemical_formula_structural   Li3MnCoO5
_chemical_formula_sum   'Li6 Mn2 Co2 O10'
_cell_volume   181.95949327
_cell_formula_units_Z   2
loop_
 _symmetry_equiv_pos_site_id
 _symmetry_equiv_pos_as_xyz
  1  'x, y, z'
loop_
 _atom_site_type_symbol
 _atom_site_label
 _atom_site_symmetry_multiplicity
 _atom_site_fract_x
 _atom_site_fract_y
 _atom_site_fract_z
 _atom_site_occupancy
  Li  Li0  1  0.69886800  0.69886800  0.10364800  1
  Li  Li1  1  0.09376200  0.09376200  0.32105500  1
  Li  Li2  1  0.49410200  0.49410200  0.50284200  1
  Li  Li3  1  0.89522100  0.89522100  0.69067600  1
  Li  Li4  1  0.30859800  0.30859800  0.88907900  1
  Li  Li5  1  0.80213000  0.80213000  0.40316300  1
  Mn  Mn0  1  0.99950700  0.99950700  0.99910200  1
  Mn  Mn1  1  0.40154700  0.40154700  0.20685900  1
  Co  Co0  1  0.20400400  0.20400400  0.58089800  1
  Co  Co1  1  0.60345000  0.60345000  0.78589700  1
  O  O0  1  0.03574900  0.03574900  0.14461700  1
  O  O1  1  0.45237400  0.45237400  0.33131900  1
  O  O2  1  0.84113500  0.84113500  0.55281900  1
  O  O3  1  0.24068500  0.24068500  0.75726300  1
  O  O4  1  0.63083400  0.63083400  0.95915600  1
  O  O5  1  0.36646100  0.36646100  0.05028100  1
  O  O6  1  0.77215100  0.77215100  0.23971000  1
  O  O7  1  0.14707600  0.14707600  0.45847400  1
  O  O8  1  0.55304100  0.55304100  0.65924400  1
  O  O9  1  0.95930500  0.95930500  0.86389700  1
loop_
_geom_bond_atom_site_label_1
_geom_bond_atom_site_label_2
_geom_bond_distance
_geom_bond_site_symmetry_2
Li0 O6 2.048055 1_555
Li0 O4 2.124202 1_554
Li0 O0 2.150012 1_655
Li0 O0 2.150012 1_565
Li0 O5 2.199339 1_655
Li0 O5 2.199339 1_565
Li1 O7 1.965417 1_555
Li1 O1 2.001392 1_455
Li1 O1 2.001392 1_545
Li1 O6 2.350298 1_455
Li1 O6 2.350298 1_545
Li1 O0 2.477178 1_555
Li2 O7 2.086404 1_655
Li2 O7 2.086404 1_565
Li2 O2 2.096177 1_545
Li2 O2 2.096177 1_455
Li2 O8 2.228974 1_555
Li2 O1 2.349138 1_555
Li3 O2 1.974456 1_555
Li3 O8 2.106407 1_655
Li3 O8 2.106407 1_565
Li3 O3 2.149145 1_565
Li3 O3 2.149145 1_655
Li3 O9 2.463281 1_555
Li4 O3 1.967838 1_555
Li4 O9 2.056391 1_545
Li4 O9 2.056391 1_455
Li4 O5 2.284434 1_556
Li4 O4 2.308675 1_545
Li4 O4 2.308675 1_455
Li5 O2 2.059581 1_555
Li5 O7 2.121088 1_565
Li5 O7 2.121088 1_655
Li5 O1 2.141407 1_655
Li5 O1 2.141407 1_565
Li5 O6 2.203522 1_555
Mn0 O9 1.880480 1_555
Mn0 O4 1.943420 1_565
Mn0 O4 1.943420 1_655
Mn0 O5 1.976357 1_656
Mn0 O5 1.976357 1_566
Mn0 O0 1.996125 1_666
Mn1 O1 1.791888 1_555
Mn1 O6 1.922644 1_455
Mn1 O6 1.922644 1_545
Mn1 O0 2.015164 1_565
Mn1 O0 2.015164 1_655
Mn1 O5 2.133295 1_555
Co0 O7 1.796195 1_555
Co0 O2 1.967455 1_455
Co0 O2 1.967455 1_545
Co0 O8 2.171002 1_545
Co0 O8 2.171002 1_455
Co0 O3 2.392654 1_555
Co1 O8 1.817318 1_555
Co1 O3 1.968384 1_655
Co1 O3 1.968384 1_565
Co1 O9 2.130905 1_455
Co1 O9 2.130905 1_545
Co1 O4 2.321145 1_555
