# generated using pymatgen
data_Mn2ClO3
_symmetry_space_group_name_H-M   'P 1'
_cell_length_a   5.93588000
_cell_length_b   6.68543300
_cell_length_c   8.50239300
_cell_angle_alpha   90.00000000
_cell_angle_beta   90.00000000
_cell_angle_gamma   90.00000000
_symmetry_Int_Tables_number   1
_chemical_formula_structural   Mn2ClO3
_chemical_formula_sum   'Mn8 Cl4 O12'
_cell_volume   337.40835195
_cell_formula_units_Z   4
loop_
 _symmetry_equiv_pos_site_id
 _symmetry_equiv_pos_as_xyz
  1  'x, y, z'
loop_
 _atom_site_type_symbol
 _atom_site_label
 _atom_site_symmetry_multiplicity
 _atom_site_fract_x
 _atom_site_fract_y
 _atom_site_fract_z
 _atom_site_occupancy
  Mn  Mn0  1  0.50000000  0.00000000  0.50000000  1
  Mn  Mn1  1  0.00000000  0.50000000  0.00000000  1
  Mn  Mn2  1  0.50000000  0.50000000  0.50000000  1
  Mn  Mn3  1  0.00000000  0.00000000  0.00000000  1
  Mn  Mn4  1  0.69441000  0.25000000  0.24886700  1
  Mn  Mn5  1  0.19441000  0.25000000  0.25113300  1
  Mn  Mn6  1  0.30559000  0.75000000  0.75113300  1
  Mn  Mn7  1  0.80559000  0.75000000  0.74886700  1
  Cl  Cl0  1  0.83586000  0.75000000  0.47130800  1
  Cl  Cl1  1  0.33586000  0.75000000  0.02869200  1
  Cl  Cl2  1  0.16414000  0.25000000  0.52869200  1
  Cl  Cl3  1  0.66414000  0.25000000  0.97130800  1
  O  O0  1  0.68038500  0.25000000  0.47694900  1
  O  O1  1  0.18038500  0.25000000  0.02305100  1
  O  O2  1  0.31961500  0.75000000  0.52305100  1
  O  O3  1  0.81961500  0.75000000  0.97694900  1
  O  O4  1  0.94823400  0.05990700  0.22567400  1
  O  O5  1  0.44823400  0.44009300  0.27432600  1
  O  O6  1  0.05176600  0.55990700  0.77432600  1
  O  O7  1  0.55176600  0.94009300  0.72567400  1
  O  O8  1  0.05176600  0.94009300  0.77432600  1
  O  O9  1  0.55176600  0.55990700  0.72567400  1
  O  O10  1  0.94823400  0.44009300  0.22567400  1
  O  O11  1  0.44823400  0.05990700  0.27432600  1
loop_
_geom_bond_atom_site_label_1
_geom_bond_atom_site_label_2
_geom_bond_distance
_geom_bond_site_symmetry_2
Mn0 O11 1.984061 1_555
Mn0 O7 1.984061 1_545
Mn0 O0 1.994578 1_555
Mn0 O2 1.994578 1_545
Mn1 O10 1.984061 1_455
Mn1 O6 1.984061 1_554
Mn1 O1 1.994578 1_555
Mn1 O3 1.994578 1_454
Mn2 O5 1.984061 1_555
Mn2 O9 1.984061 1_555
Mn2 O2 1.994578 1_555
Mn2 O0 1.994578 1_555
Mn3 O4 1.984061 1_455
Mn3 O8 1.984061 1_544
Mn3 O1 1.994578 1_555
Mn3 O3 1.994578 1_444
Mn4 O0 1.941029 1_555
Mn4 O5 1.948651 1_555
Mn4 O11 1.948651 1_555
Mn4 O4 1.980911 1_555
Mn4 O10 1.980911 1_555
Mn5 O1 1.941029 1_555
Mn5 O4 1.948651 1_455
Mn5 O10 1.948651 1_455
Mn5 O11 1.980911 1_555
Mn5 O5 1.980911 1_555
Mn6 O2 1.941029 1_555
Mn6 O9 1.948651 1_555
Mn6 O7 1.948651 1_555
Mn6 O6 1.980911 1_555
Mn6 O8 1.980911 1_555
Mn7 O3 1.941029 1_555
Mn7 O8 1.948651 1_655
Mn7 O6 1.948651 1_655
Mn7 O9 1.980911 1_555
Mn7 O7 1.980911 1_555
Cl0 Mn7 2.366746 1_555
Cl0 Mn2 2.612947 1_555
Cl0 Mn0 2.612947 1_565
Cl1 Mn6 2.366746 1_554
Cl1 Mn3 2.612947 1_565
Cl1 Mn1 2.612947 1_555
Cl2 Mn5 2.366746 1_555
Cl2 Mn0 2.612947 1_555
Cl2 Mn2 2.612947 1_555
Cl3 Mn4 2.366746 1_556
Cl3 Mn3 2.612947 1_656
Cl3 Mn1 2.612947 1_656
