# generated using pymatgen
data_Ca(MnS2)2
_symmetry_space_group_name_H-M   'P 1'
_cell_length_a   7.47949273
_cell_length_b   7.47949273
_cell_length_c   7.47949273
_cell_angle_alpha   122.03671303
_cell_angle_beta   117.80211629
_cell_angle_gamma   90.17865617
_symmetry_Int_Tables_number   1
_chemical_formula_structural   Ca(MnS2)2
_chemical_formula_sum   'Ca2 Mn4 S8'
_cell_volume   295.72527684
_cell_formula_units_Z   2
loop_
 _symmetry_equiv_pos_site_id
 _symmetry_equiv_pos_as_xyz
  1  'x, y, z'
loop_
 _atom_site_type_symbol
 _atom_site_label
 _atom_site_symmetry_multiplicity
 _atom_site_fract_x
 _atom_site_fract_y
 _atom_site_fract_z
 _atom_site_occupancy
  Ca  Ca0  1  0.00000000  0.00000000  0.00000000  1
  Ca  Ca1  1  0.50000000  0.00000000  0.50000000  1
  Mn  Mn0  1  0.50000000  0.00000000  0.00000000  1
  Mn  Mn1  1  0.00000000  0.50000000  0.50000000  1
  Mn  Mn2  1  0.50000000  0.50000000  0.50000000  1
  Mn  Mn3  1  0.50000000  0.50000000  0.00000000  1
  S  S0  1  0.30233200  0.25830500  0.04402700  1
  S  S1  1  0.72823100  0.24490500  0.01667400  1
  S  S2  1  0.71427800  0.25830500  0.45597300  1
  S  S3  1  0.27176900  0.28844400  0.51667400  1
  S  S4  1  0.28572200  0.74169500  0.54402700  1
  S  S5  1  0.27176900  0.75509500  0.98332600  1
  S  S6  1  0.72823100  0.71155600  0.48332600  1
  S  S7  1  0.69766800  0.74169500  0.95597300  1
loop_
_geom_bond_atom_site_label_1
_geom_bond_atom_site_label_2
_geom_bond_distance
_geom_bond_site_symmetry_2
Ca0 S5 2.742280 1_544
Ca0 S1 2.742280 1_455
Ca0 S3 2.742280 1_555
Ca0 S6 2.742280 1_444
Ca0 S7 2.749112 1_444
Ca0 S0 2.749112 1_555
Ca1 S5 2.742280 1_544
Ca1 S1 2.742280 1_556
Ca1 S3 2.742285 1_555
Ca1 S6 2.742285 1_545
Ca1 S2 2.749112 1_555
Ca1 S4 2.749112 1_545
Mn0 S7 2.413268 1_544
Mn0 S0 2.413268 1_555
Mn0 S4 2.413268 1_544
Mn0 S2 2.413268 1_555
Mn0 S1 2.413397 1_555
Mn0 S5 2.413397 1_544
Mn1 S4 2.575132 1_555
Mn1 S2 2.575132 1_455
Mn1 S3 2.577618 1_555
Mn1 S6 2.577618 1_455
Mn1 S1 2.577623 1_455
Mn1 S5 2.577623 1_555
Mn2 S7 2.413268 1_555
Mn2 S2 2.413268 1_555
Mn2 S4 2.413268 1_555
Mn2 S0 2.413268 1_555
Mn2 S6 2.413392 1_555
Mn2 S3 2.413392 1_555
Mn3 S0 2.575132 1_555
Mn3 S7 2.575132 1_554
Mn3 S1 2.577623 1_555
Mn3 S5 2.577623 1_554
Mn3 S6 2.577624 1_555
Mn3 S3 2.577624 1_554
