# generated using pymatgen
data_MnV3Co2(PO4)6
_symmetry_space_group_name_H-M   'P 1'
_cell_length_a   8.50450198
_cell_length_b   8.50450198
_cell_length_c   8.50450115
_cell_angle_alpha   61.14813231
_cell_angle_beta   61.14813231
_cell_angle_gamma   61.14813315
_symmetry_Int_Tables_number   1
_chemical_formula_structural   MnV3Co2(PO4)6
_chemical_formula_sum   'Mn1 V3 Co2 P6 O24'
_cell_volume   446.17922067
_cell_formula_units_Z   1
loop_
 _symmetry_equiv_pos_site_id
 _symmetry_equiv_pos_as_xyz
  1  'x, y, z'
loop_
 _atom_site_type_symbol
 _atom_site_label
 _atom_site_symmetry_multiplicity
 _atom_site_fract_x
 _atom_site_fract_y
 _atom_site_fract_z
 _atom_site_occupancy
  Mn  Mn0  1  0.85601900  0.85601900  0.85601900  1
  V  V0  1  0.35642000  0.35642000  0.35642000  1
  V  V1  1  0.14258800  0.14258800  0.14258800  1
  V  V2  1  0.64392300  0.64392300  0.64392300  1
  Co  Co0  1  0.99762600  0.99762600  0.99762600  1
  Co  Co1  1  0.49939100  0.49939100  0.49939100  1
  P  P0  1  0.45205700  0.75183200  0.04606100  1
  P  P1  1  0.75183200  0.04606100  0.45205700  1
  P  P2  1  0.04606100  0.45205700  0.75183200  1
  P  P3  1  0.95800200  0.54135900  0.25408200  1
  P  P4  1  0.25408200  0.95800200  0.54135900  1
  P  P5  1  0.54135900  0.25408200  0.95800200  1
  O  O0  1  0.69156600  0.87918100  0.49484100  1
  O  O1  1  0.87918100  0.49484100  0.69156600  1
  O  O2  1  0.49484100  0.69156600  0.87918100  1
  O  O3  1  0.25345400  0.91295100  0.05969800  1
  O  O4  1  0.60262200  0.81236200  0.02062200  1
  O  O5  1  0.42737700  0.58772500  0.24147800  1
  O  O6  1  0.91295100  0.05969800  0.25345400  1
  O  O7  1  0.58772500  0.24147800  0.42737700  1
  O  O8  1  0.99763200  0.38080700  0.18778300  1
  O  O9  1  0.24147800  0.42737700  0.58772500  1
  O  O10  1  0.95182600  0.73486300  0.09937200  1
  O  O11  1  0.18778300  0.99763200  0.38080700  1
  O  O12  1  0.81236200  0.02062200  0.60262200  1
  O  O13  1  0.05969800  0.25345400  0.91295100  1
  O  O14  1  0.76148900  0.55301200  0.41704000  1
  O  O15  1  0.02062200  0.60262200  0.81236200  1
  O  O16  1  0.41704000  0.76148900  0.55301200  1
  O  O17  1  0.09937200  0.95182600  0.73486300  1
  O  O18  1  0.55301200  0.41704000  0.76148900  1
  O  O19  1  0.38080700  0.18778300  0.99763200  1
  O  O20  1  0.73486300  0.09937200  0.95182600  1
  O  O21  1  0.48812300  0.33148300  0.11330800  1
  O  O22  1  0.11330800  0.48812300  0.33148300  1
  O  O23  1  0.33148300  0.11330800  0.48812300  1
loop_
_geom_bond_atom_site_label_1
_geom_bond_atom_site_label_2
_geom_bond_distance
_geom_bond_site_symmetry_2
Mn0 O12 2.025024 1_565
Mn0 O4 2.025024 1_556
Mn0 O15 2.025024 1_655
Mn0 O10 2.183564 1_556
Mn0 O20 2.183565 1_565
Mn0 O17 2.183565 1_655
Co0 O17 2.131385 1_655
Co0 O20 2.131385 1_565
Co0 O10 2.131385 1_556
Co0 O6 2.181825 1_566
Co0 O3 2.181826 1_656
Co0 O13 2.181826 1_665
Co1 O18 2.198433 1_555
Co1 O16 2.198433 1_555
Co1 O14 2.198433 1_555
Co1 O5 2.238907 1_555
Co1 O7 2.238907 1_555
Co1 O9 2.238907 1_555
O0 P1 1.559795 1_565
O0 V2 1.900818 1_555
O1 P2 1.559795 1_655
O1 V2 1.900819 1_555
O2 P0 1.559795 1_556
O2 V2 1.900818 1_555
O3 P0 1.573066 1_555
O3 V1 2.027324 1_565
O4 P0 1.487530 1_555
O5 P0 1.568899 1_555
O5 V0 1.977338 1_555
O6 P1 1.573065 1_555
O6 V1 2.027324 1_655
O7 P1 1.568899 1_555
O7 V0 1.977338 1_555
O8 P3 1.552849 1_555
O8 V1 1.912002 1_655
O9 P2 1.568899 1_555
O9 V0 1.977338 1_555
O10 P3 1.528302 1_555
O11 P4 1.552849 1_555
O11 V1 1.912002 1_565
O12 P1 1.487530 1_555
O13 P2 1.573065 1_555
O13 V1 2.027324 1_556
O14 P3 1.568742 1_555
O14 V2 2.037730 1_555
O15 P2 1.487530 1_555
O16 P4 1.568742 1_555
O16 V2 2.037730 1_555
O17 P4 1.528301 1_555
O18 P5 1.568742 1_555
O18 V2 2.037730 1_555
O19 P5 1.552849 1_555
O19 V1 1.912002 1_556
O20 P5 1.528302 1_555
O21 P5 1.535297 1_554
O21 V0 1.879693 1_555
O22 P3 1.535297 1_455
O22 V0 1.879693 1_555
O23 P4 1.535297 1_545
O23 V0 1.879693 1_555
