# generated using pymatgen
data_Li3MnCoO5
_symmetry_space_group_name_H-M   'P 1'
_cell_length_a   12.13007823
_cell_length_b   12.13007823
_cell_length_c   5.08889506
_cell_angle_alpha   85.35001139
_cell_angle_beta   85.35001139
_cell_angle_gamma   13.81117874
_symmetry_Int_Tables_number   1
_chemical_formula_structural   Li3MnCoO5
_chemical_formula_sum   'Li6 Mn2 Co2 O10'
_cell_volume   178.15250386
_cell_formula_units_Z   2
loop_
 _symmetry_equiv_pos_site_id
 _symmetry_equiv_pos_as_xyz
  1  'x, y, z'
loop_
 _atom_site_type_symbol
 _atom_site_label
 _atom_site_symmetry_multiplicity
 _atom_site_fract_x
 _atom_site_fract_y
 _atom_site_fract_z
 _atom_site_occupancy
  Li  Li0  1  0.00000000  0.00000000  0.50000000  1
  Li  Li1  1  0.40257300  0.40257300  0.70460100  1
  Li  Li2  1  0.79957900  0.79957900  0.89479100  1
  Li  Li3  1  0.20042100  0.20042100  0.10520900  1
  Li  Li4  1  0.59742700  0.59742700  0.29539900  1
  Li  Li5  1  0.50000000  0.50000000  0.00000000  1
  Mn  Mn0  1  0.09707500  0.09707500  0.81241100  1
  Mn  Mn1  1  0.90292500  0.90292500  0.18758900  1
  Co  Co0  1  0.30006700  0.30006700  0.40308500  1
  Co  Co1  1  0.69993300  0.69993300  0.59691500  1
  O  O0  1  0.94480100  0.94480100  0.87473800  1
  O  O1  1  0.35406000  0.35406000  0.07306400  1
  O  O2  1  0.75137700  0.75137700  0.26276800  1
  O  O3  1  0.15181300  0.15181300  0.47698400  1
  O  O4  1  0.55645900  0.55645900  0.66639500  1
  O  O5  1  0.05519900  0.05519900  0.12526200  1
  O  O6  1  0.44354100  0.44354100  0.33360500  1
  O  O7  1  0.84818700  0.84818700  0.52301600  1
  O  O8  1  0.24862300  0.24862300  0.73723200  1
  O  O9  1  0.64594000  0.64594000  0.92693600  1
loop_
_geom_bond_atom_site_label_1
_geom_bond_atom_site_label_2
_geom_bond_distance
_geom_bond_site_symmetry_2
Li0 O6 2.209319 1_545
Li0 O6 2.209319 1_455
Li0 O4 2.209319 1_455
Li0 O4 2.209319 1_545
Li0 O0 2.233823 1_445
Li0 O5 2.233823 1_555
Li1 O0 2.013663 1_545
Li1 O0 2.013663 1_455
Li1 O6 2.057594 1_555
Li1 O1 2.126787 1_556
Li1 O7 2.212312 1_545
Li1 O7 2.212312 1_455
Li2 O8 2.106360 1_655
Li2 O8 2.106360 1_565
Li2 O2 2.121148 1_556
Li2 O7 2.141995 1_555
Li2 O1 2.205945 1_566
Li2 O1 2.205945 1_656
Li3 O2 2.106360 1_455
Li3 O2 2.106360 1_545
Li3 O8 2.121148 1_554
Li3 O3 2.141995 1_555
Li3 O9 2.205945 1_454
Li3 O9 2.205945 1_544
Li4 O5 2.013663 1_565
Li4 O5 2.013663 1_655
Li4 O4 2.057594 1_555
Li4 O9 2.126787 1_554
Li4 O3 2.212312 1_655
Li4 O3 2.212312 1_565
Li5 O6 2.086640 1_555
Li5 O4 2.086640 1_554
Li5 O0 2.106932 1_544
Li5 O5 2.106932 1_655
Li5 O0 2.106932 1_454
Li5 O5 2.106932 1_565
Mn0 O5 1.813726 1_556
Mn0 O4 1.937728 1_545
Mn0 O4 1.937728 1_455
Mn0 O9 1.990922 1_455
Mn0 O9 1.990922 1_545
Mn0 O3 2.069814 1_555
Mn1 O0 1.813726 1_554
Mn1 O6 1.937728 1_655
Mn1 O6 1.937728 1_565
Mn1 O1 1.990922 1_655
Mn1 O1 1.990922 1_565
Mn1 O7 2.069814 1_555
Co0 O7 1.989518 1_455
Co0 O7 1.989518 1_545
Co0 O8 2.020517 1_555
Co0 O2 2.036866 1_545
Co0 O2 2.036866 1_455
Co0 O1 2.038339 1_555
Co1 O3 1.989518 1_565
Co1 O3 1.989518 1_655
Co1 O2 2.020517 1_555
Co1 O8 2.036866 1_565
Co1 O8 2.036866 1_655
Co1 O9 2.038339 1_555
