# generated using pymatgen
data_Sc2O3
_symmetry_space_group_name_H-M   'P 1'
_cell_length_a   3.38968001
_cell_length_b   3.38968001
_cell_length_c   5.66601500
_cell_angle_alpha   90.00000000
_cell_angle_beta   90.00000000
_cell_angle_gamma   120.00000016
_symmetry_Int_Tables_number   1
_chemical_formula_structural   Sc2O3
_chemical_formula_sum   'Sc2 O3'
_cell_volume   56.38008871
_cell_formula_units_Z   1
loop_
 _symmetry_equiv_pos_site_id
 _symmetry_equiv_pos_as_xyz
  1  'x, y, z'
loop_
 _atom_site_type_symbol
 _atom_site_label
 _atom_site_symmetry_multiplicity
 _atom_site_fract_x
 _atom_site_fract_y
 _atom_site_fract_z
 _atom_site_occupancy
  Sc  Sc0  1  0.66666700  0.33333300  0.75116700  1
  Sc  Sc1  1  0.33333300  0.66666700  0.24883300  1
  O  O0  1  0.66666700  0.33333300  0.35203900  1
  O  O1  1  0.33333300  0.66666700  0.64796100  1
  O  O2  1  0.00000000  0.00000000  0.00000000  1
loop_
_geom_bond_atom_site_label_1
_geom_bond_atom_site_label_2
_geom_bond_distance
_geom_bond_site_symmetry_2
O0 Sc1 2.042528 1_545
O0 Sc1 2.042528 1_655
O0 Sc1 2.042534 1_555
O0 Sc0 2.261465 1_555
O1 Sc0 2.042528 1_455
O1 Sc0 2.042528 1_565
O1 Sc0 2.042534 1_555
O1 Sc1 2.261465 1_555
O2 Sc0 2.412004 1_454
O2 Sc1 2.412004 1_545
O2 Sc1 2.412006 1_445
O2 Sc0 2.412006 1_554
O2 Sc1 2.412006 1_555
O2 Sc0 2.412006 1_444
