# generated using pymatgen
data_Li2V2(PO4)3
_symmetry_space_group_name_H-M   'P 1'
_cell_length_a   8.70492974
_cell_length_b   8.66157414
_cell_length_c   8.67615767
_cell_angle_alpha   60.26528175
_cell_angle_beta   91.07157493
_cell_angle_gamma   60.71830865
_symmetry_Int_Tables_number   1
_chemical_formula_structural   Li2V2(PO4)3
_chemical_formula_sum   'Li4 V4 P6 O24'
_cell_volume   465.03652108
_cell_formula_units_Z   2
loop_
 _symmetry_equiv_pos_site_id
 _symmetry_equiv_pos_as_xyz
  1  'x, y, z'
loop_
 _atom_site_type_symbol
 _atom_site_label
 _atom_site_symmetry_multiplicity
 _atom_site_fract_x
 _atom_site_fract_y
 _atom_site_fract_z
 _atom_site_occupancy
  Li  Li0  1  0.68040500  0.77397300  0.55396500  1
  Li  Li1  1  0.17842500  0.87147000  0.94024200  1
  Li  Li2  1  0.82142500  0.12890600  0.05963400  1
  Li  Li3  1  0.31949500  0.22612200  0.44601700  1
  V  V0  1  0.63561000  0.72145100  0.91630000  1
  V  V1  1  0.86054700  0.28370400  0.57702200  1
  V  V2  1  0.13935400  0.71633400  0.42291800  1
  V  V3  1  0.36443100  0.27839100  0.08380300  1
  P  P0  1  0.96809900  0.78267000  0.74978800  1
  P  P1  1  0.54337500  0.49208200  0.74945000  1
  P  P2  1  0.25165600  0.21332100  0.74613800  1
  P  P3  1  0.74819000  0.78693100  0.25362800  1
  P  P4  1  0.45656200  0.50767100  0.25073600  1
  P  P5  1  0.03236800  0.21703100  0.25038200  1
  O  O0  1  0.95095000  0.97219000  0.74647900  1
  O  O1  1  0.00965300  0.79059800  0.57276700  1
  O  O2  1  0.78255900  0.80259000  0.73655700  1
  O  O3  1  0.73355900  0.32550600  0.75001200  1
  O  O4  1  0.53641600  0.35086300  0.94340400  1
  O  O5  1  0.56139000  0.66927100  0.73068000  1
  O  O6  1  0.30060900  0.20733600  0.91768200  1
  O  O7  1  0.41380200  0.03558900  0.73403800  1
  O  O8  1  0.81121600  0.57380100  0.44775800  1
  O  O9  1  0.90740100  0.82489200  0.24518500  1
  O  O10  1  0.13299700  0.57763500  0.93013300  1
  O  O11  1  0.62288800  0.39558400  0.41998200  1
  O  O12  1  0.37710400  0.60431500  0.57998800  1
  O  O13  1  0.86731000  0.42222300  0.06985000  1
  O  O14  1  0.09230400  0.17562500  0.75464600  1
  O  O15  1  0.18848800  0.42646100  0.55190900  1
  O  O16  1  0.58617600  0.96450800  0.26594700  1
  O  O17  1  0.69930500  0.79307100  0.08200600  1
  O  O18  1  0.43848200  0.33065700  0.26959800  1
  O  O19  1  0.46325700  0.64931700  0.05673700  1
  O  O20  1  0.26627300  0.67420600  0.25027600  1
  O  O21  1  0.21786700  0.19677200  0.26359800  1
  O  O22  1  0.99070500  0.20933000  0.42722200  1
  O  O23  1  0.04934300  0.02760700  0.25352400  1
loop_
_geom_bond_atom_site_label_1
_geom_bond_atom_site_label_2
_geom_bond_distance
_geom_bond_site_symmetry_2
Li0 O5 1.961046 1_555
Li0 O2 1.978462 1_555
Li0 O16 2.036940 1_555
Li0 O8 2.201051 1_555
Li1 O14 1.977405 1_565
Li1 O19 2.044950 1_556
Li1 O0 2.058903 1_455
Li1 O20 2.196717 1_556
Li2 O9 1.976804 1_545
Li2 O4 2.045911 1_554
Li2 O23 2.060141 1_655
Li2 O3 2.193737 1_554
Li3 O18 1.958933 1_555
Li3 O21 1.979628 1_555
Li3 O7 2.036950 1_555
Li3 O15 2.200126 1_555
O0 P0 1.559214 1_555
O0 V1 2.001421 1_565
O1 P0 1.560414 1_455
O1 V2 1.884898 1_555
O2 P0 1.533740 1_555
O2 V0 2.104525 1_555
O3 P1 1.574382 1_555
O3 V1 1.953284 1_555
O4 P1 1.538200 1_555
O4 V3 2.085239 1_556
O5 P1 1.547574 1_555
O5 V0 2.045493 1_555
O6 P2 1.509163 1_555
O6 V3 1.987257 1_556
O7 P2 1.553537 1_555
O7 V0 2.027476 1_545
O8 P3 1.560809 1_555
O8 V1 1.971532 1_555
O9 P3 1.568413 1_555
O9 V2 1.981659 1_655
O10 P0 1.525945 1_455
O10 V3 1.979387 1_556
O11 P4 1.525241 1_555
O11 V1 1.923323 1_555
O12 P1 1.525738 1_555
O12 V2 1.923634 1_555
O13 P5 1.527399 1_655
O13 V0 1.980161 1_554
O14 P2 1.568184 1_555
O14 V1 1.981549 1_455
O15 P2 1.560963 1_555
O15 V2 1.970687 1_555
O16 P3 1.553365 1_555
O16 V3 2.026143 1_565
O17 P3 1.508874 1_555
O17 V0 1.987599 1_554
O18 P4 1.546101 1_555
O18 V3 2.046815 1_555
O19 P4 1.538450 1_555
O19 V0 2.087134 1_554
O20 P4 1.575208 1_555
O20 V2 1.951180 1_555
O21 P5 1.532096 1_555
O21 V3 2.103258 1_555
O22 P5 1.559804 1_655
O22 V1 1.886673 1_555
O23 P5 1.559754 1_555
O23 V2 2.000694 1_545
