# generated using pymatgen
data_K2TlBiF6
_symmetry_space_group_name_H-M   'P 1'
_cell_length_a   6.93681228
_cell_length_b   6.93681228
_cell_length_c   6.93681228
_cell_angle_alpha   60.00000000
_cell_angle_beta   60.00000000
_cell_angle_gamma   60.00000000
_symmetry_Int_Tables_number   1
_chemical_formula_structural   K2TlBiF6
_chemical_formula_sum   'K2 Tl1 Bi1 F6'
_cell_volume   236.02870711
_cell_formula_units_Z   1
loop_
 _symmetry_equiv_pos_site_id
 _symmetry_equiv_pos_as_xyz
  1  'x, y, z'
loop_
 _atom_site_type_symbol
 _atom_site_label
 _atom_site_symmetry_multiplicity
 _atom_site_fract_x
 _atom_site_fract_y
 _atom_site_fract_z
 _atom_site_occupancy
  K  K0  1  0.75000000  0.75000000  0.75000000  1
  K  K1  1  0.25000000  0.25000000  0.25000000  1
  Tl  Tl0  1  0.50000000  0.50000000  0.50000000  1
  Bi  Bi0  1  0.00000000  0.00000000  0.00000000  1
  F  F0  1  0.76878200  0.23121800  0.23121800  1
  F  F1  1  0.23121800  0.23121800  0.76878200  1
  F  F2  1  0.23121800  0.76878200  0.76878200  1
  F  F3  1  0.23121800  0.76878200  0.23121800  1
  F  F4  1  0.76878200  0.23121800  0.76878200  1
  F  F5  1  0.76878200  0.76878200  0.23121800  1
loop_
_geom_bond_atom_site_label_1
_geom_bond_atom_site_label_2
_geom_bond_distance
_geom_bond_site_symmetry_2
Bi0 F1 2.268280 1_554
Bi0 F3 2.268280 1_545
Bi0 F0 2.268280 1_455
Bi0 F2 2.268280 1_544
Bi0 F5 2.268280 1_445
Bi0 F4 2.268280 1_454
F0 Tl0 2.636787 1_555
F1 Tl0 2.636787 1_555
F2 Tl0 2.636787 1_555
F3 Tl0 2.636787 1_555
F4 Tl0 2.636787 1_555
F5 Tl0 2.636787 1_555
