# generated using pymatgen
data_LiV(SO4)2
_symmetry_space_group_name_H-M   'P 1'
_cell_length_a   9.10878000
_cell_length_b   9.27118793
_cell_length_c   13.85924019
_cell_angle_alpha   89.62270041
_cell_angle_beta   89.85357753
_cell_angle_gamma   89.86190198
_symmetry_Int_Tables_number   1
_chemical_formula_structural   LiV(SO4)2
_chemical_formula_sum   'Li8 V8 S16 O64'
_cell_volume   1170.36935118
_cell_formula_units_Z   8
loop_
 _symmetry_equiv_pos_site_id
 _symmetry_equiv_pos_as_xyz
  1  'x, y, z'
loop_
 _atom_site_type_symbol
 _atom_site_label
 _atom_site_symmetry_multiplicity
 _atom_site_fract_x
 _atom_site_fract_y
 _atom_site_fract_z
 _atom_site_occupancy
  Li  Li0  1  0.29235600  0.94531300  0.87804400  1
  Li  Li1  1  0.96480800  0.77242700  0.37208300  1
  Li  Li2  1  0.45406300  0.71954000  0.37668700  1
  Li  Li3  1  0.78514200  0.55702200  0.87231400  1
  Li  Li4  1  0.44565900  0.23297800  0.12578400  1
  Li  Li5  1  0.05227300  0.23398600  0.62436600  1
  Li  Li6  1  0.77146500  0.04795500  0.62718900  1
  Li  Li7  1  0.72684500  0.04391500  0.12544100  1
  V  V0  1  0.10405800  0.85545600  0.12641800  1
  V  V1  1  0.39429900  0.85875500  0.62398200  1
  V  V2  1  0.60607700  0.64078500  0.12630500  1
  V  V3  1  0.89308300  0.63724100  0.62427400  1
  V  V4  1  0.10450700  0.35807000  0.37361100  1
  V  V5  1  0.39253300  0.36358600  0.87287600  1
  V  V6  1  0.60266700  0.14534200  0.37625400  1
  V  V7  1  0.89479700  0.13877900  0.87551400  1
  S  S0  1  0.06377900  0.92231700  0.72347000  1
  S  S1  1  0.43505800  0.92709300  0.22420900  1
  S  S2  1  0.68853700  0.84521600  0.48897700  1
  S  S3  1  0.81608700  0.83970000  0.99025800  1
  S  S4  1  0.18792800  0.65163000  0.49137900  1
  S  S5  1  0.31670500  0.65826900  0.99099600  1
  S  S6  1  0.93422800  0.57240000  0.22054100  1
  S  S7  1  0.56716200  0.57780800  0.72008400  1
  S  S8  1  0.43141600  0.42585800  0.27624000  1
  S  S9  1  0.06296800  0.42336100  0.77847100  1
  S  S10  1  0.68318700  0.34122200  0.01038200  1
  S  S11  1  0.81331700  0.34141700  0.51211300  1
  S  S12  1  0.18353900  0.15473600  0.00818700  1
  S  S13  1  0.31263100  0.15472500  0.50886200  1
  S  S14  1  0.56385000  0.07888500  0.77789300  1
  S  S15  1  0.93036300  0.07638500  0.27704300  1
  O  O0  1  0.69687800  0.00674200  0.47666900  1
  O  O1  1  0.80451400  0.00154900  0.97351900  1
  O  O2  1  0.98123800  0.98048100  0.35276100  1
  O  O3  1  0.50450200  0.98523700  0.85220600  1
  O  O4  1  0.47106100  0.97651100  0.32368000  1
  O  O5  1  0.03052800  0.97156200  0.82359600  1
  O  O6  1  0.22965200  0.91757800  0.71960300  1
  O  O7  1  0.27278900  0.92112400  0.21574000  1
  O  O8  1  0.72202800  0.81953600  0.07872800  1
  O  O9  1  0.77387000  0.81844800  0.57958900  1
  O  O10  1  0.96937000  0.80089700  0.01706100  1
  O  O11  1  0.53142000  0.80232800  0.50740900  1
  O  O12  1  0.00545400  0.77395400  0.71152800  1
  O  O13  1  0.49604500  0.77517000  0.22025700  1
  O  O14  1  0.74269600  0.76785300  0.40561100  1
  O  O15  1  0.76915400  0.75883700  0.90764300  1
  O  O16  1  0.23560300  0.73317900  0.40638300  1
  O  O17  1  0.27661400  0.74366100  0.90730300  1
  O  O18  1  0.99537300  0.72821800  0.22091300  1
  O  O19  1  0.50933300  0.73083900  0.71267700  1
  O  O20  1  0.02816900  0.69223300  0.51069800  1
  O  O21  1  0.47305100  0.69256400  0.01909700  1
  O  O22  1  0.22481400  0.68678800  0.07771500  1
  O  O23  1  0.27290700  0.68513500  0.57937500  1
  O  O24  1  0.76901700  0.58767600  0.21858700  1
  O  O25  1  0.73662300  0.59041100  0.72267500  1
  O  O26  1  0.53486300  0.52630200  0.82127400  1
  O  O27  1  0.97005600  0.52262700  0.32177300  1
  O  O28  1  0.49022700  0.51757600  0.35053900  1
  O  O29  1  0.99595800  0.51271900  0.85122500  1
  O  O30  1  0.19506600  0.49298700  0.47519600  1
  O  O31  1  0.30658700  0.49994100  0.97100800  1
  O  O32  1  0.69864400  0.49997800  0.02725500  1
  O  O33  1  0.80030400  0.49954700  0.53122000  1
  O  O34  1  0.51647400  0.48543400  0.64508300  1
  O  O35  1  0.99193900  0.48513600  0.14485200  1
  O  O36  1  0.46914900  0.47417700  0.17574200  1
  O  O37  1  0.02726200  0.46846600  0.67696100  1
  O  O38  1  0.26831100  0.41383700  0.28027300  1
  O  O39  1  0.22620000  0.41933600  0.78476800  1
  O  O40  1  0.72390700  0.31317600  0.42550600  1
  O  O41  1  0.77269500  0.31482000  0.92197100  1
  O  O42  1  0.52499400  0.30653200  0.98707600  1
  O  O43  1  0.97185400  0.30516000  0.48792700  1
  O  O44  1  0.49435800  0.27353700  0.28068400  1
  O  O45  1  0.00860100  0.26719900  0.78289900  1
  O  O46  1  0.72186100  0.25380000  0.09381800  1
  O  O47  1  0.77678100  0.25486500  0.59681500  1
  O  O48  1  0.23631000  0.23206800  0.09136700  1
  O  O49  1  0.26243100  0.23144500  0.59350200  1
  O  O50  1  0.50779700  0.23039700  0.78522700  1
  O  O51  1  0.99395100  0.22373400  0.28390500  1
  O  O52  1  0.46864300  0.19407300  0.48477200  1
  O  O53  1  0.02875100  0.19552900  0.98469600  1
  O  O54  1  0.22305800  0.18514400  0.42129300  1
  O  O55  1  0.27525200  0.17954300  0.91911600  1
  O  O56  1  0.73140000  0.08420700  0.78080800  1
  O  O57  1  0.76288100  0.08993600  0.27723000  1
  O  O58  1  0.53429800  0.02599600  0.67746800  1
  O  O59  1  0.96120100  0.01982000  0.17733300  1
  O  O60  1  0.00267200  0.02150900  0.65059800  1
  O  O61  1  0.50043500  0.02060900  0.14972400  1
  O  O62  1  0.19090400  0.99279600  0.02278500  1
  O  O63  1  0.30779000  0.99356100  0.52504300  1
loop_
_geom_bond_atom_site_label_1
_geom_bond_atom_site_label_2
_geom_bond_distance
_geom_bond_site_symmetry_2
Li0 O17 1.916048 1_555
Li0 O3 1.999385 1_555
Li0 O62 2.252109 1_556
Li0 O55 2.253507 1_565
Li0 O6 2.286645 1_555
Li0 O5 2.514070 1_555
Li1 O2 1.951711 1_555
Li1 O14 2.075158 1_555
Li1 O20 2.135716 1_655
Li1 O18 2.154700 1_555
Li1 O27 2.423347 1_555
Li1 O16 2.538099 1_655
Li2 O28 1.936813 1_555
Li2 O16 2.034792 1_555
Li2 O11 2.096510 1_555
Li2 O13 2.257089 1_555
Li2 O4 2.493545 1_555
Li3 O15 1.942220 1_555
Li3 O29 1.984063 1_555
Li3 O25 2.141893 1_555
Li3 O32 2.343086 1_556
Li3 O41 2.347175 1_555
Li3 O26 2.406807 1_555
Li4 O48 1.966900 1_555
Li4 O61 2.055031 1_555
Li4 O42 2.158896 1_554
Li4 O44 2.227826 1_555
Li4 O36 2.355679 1_555
Li4 O46 2.560981 1_555
Li5 O49 1.960545 1_555
Li5 O60 2.052043 1_555
Li5 O43 2.129785 1_455
Li5 O45 2.254854 1_555
Li5 O37 2.307974 1_555
Li5 O47 2.545961 1_455
Li6 O47 1.961923 1_555
Li6 O60 2.144906 1_655
Li6 O56 2.187197 1_555
Li6 O0 2.231222 1_555
Li6 O9 2.231909 1_545
Li6 O58 2.277384 1_555
Li7 O46 1.992247 1_555
Li7 O61 2.100179 1_555
Li7 O57 2.175152 1_555
Li7 O8 2.183315 1_545
Li7 O1 2.256094 1_554
Li7 O59 2.264397 1_555
O0 S2 1.508180 1_545
O0 V6 2.074031 1_555
O1 S3 1.520298 1_545
O1 V7 2.028912 1_555
O2 S15 1.447330 1_565
O3 S14 1.447216 1_565
O4 S1 1.493095 1_555
O4 V6 2.108682 1_565
O5 S0 1.493767 1_555
O5 V7 2.109651 1_465
O6 S0 1.512257 1_555
O6 V1 2.073229 1_555
O7 S1 1.484218 1_555
O7 V0 2.071104 1_555
O8 S3 1.504913 1_554
O8 V2 2.070554 1_555
O9 S2 1.497590 1_555
O9 V3 2.089506 1_555
O10 S3 1.488393 1_554
O10 V0 2.020063 1_655
O11 S2 1.507007 1_555
O11 V1 2.107503 1_555
O12 S0 1.486141 1_555
O12 V3 2.036990 1_455
O13 S1 1.514126 1_555
O13 V2 2.064209 1_555
O14 S2 1.448803 1_555
O15 S3 1.439144 1_555
O16 S4 1.461191 1_555
O17 S5 1.447141 1_555
O18 S6 1.549561 1_555
O18 V0 2.016291 1_655
O19 S7 1.515155 1_555
O19 V1 1.999200 1_555
O20 S4 1.525688 1_555
O20 V3 2.057733 1_455
O21 S5 1.512463 1_554
O21 V2 1.975689 1_555
O22 S5 1.487598 1_554
O22 V0 2.027958 1_555
O23 S4 1.481198 1_555
O23 V1 2.054516 1_555
O24 S6 1.511475 1_555
O24 V2 2.019620 1_555
O25 S7 1.548806 1_555
O25 V3 2.016106 1_555
O26 S7 1.507018 1_555
O26 V5 2.111520 1_555
O27 S6 1.510277 1_555
O27 V4 2.079575 1_655
O28 S8 1.444620 1_555
O29 S9 1.442573 1_655
O30 S4 1.490510 1_555
O30 V4 2.064290 1_555
O31 S5 1.498689 1_555
O31 V5 2.018201 1_555
O32 S10 1.498856 1_555
O32 V2 2.076530 1_555
O33 S11 1.495861 1_555
O33 V3 2.009862 1_555
O34 S7 1.429397 1_555
O35 S6 1.427437 1_555
O36 S8 1.499618 1_555
O36 V2 2.098096 1_555
O37 S9 1.501272 1_555
O37 V3 2.110854 1_455
O38 S8 1.491008 1_555
O38 V4 2.037639 1_555
O39 S9 1.489989 1_555
O39 V5 2.012742 1_555
O40 S11 1.477406 1_555
O40 V6 2.032940 1_555
O41 S10 1.491278 1_556
O41 V7 2.077680 1_555
O42 S10 1.513299 1_556
O42 V5 2.058217 1_555
O43 S11 1.519008 1_555
O43 V4 2.047824 1_655
O44 S8 1.523787 1_555
O44 V6 2.029915 1_555
O45 S9 1.532084 1_555
O45 V7 2.029457 1_455
O46 S10 1.451394 1_555
O47 S11 1.455886 1_555
O48 S12 1.445489 1_555
O49 S13 1.448355 1_555
O50 S14 1.497447 1_555
O50 V5 2.027240 1_555
O51 S15 1.488813 1_555
O51 V4 2.035631 1_655
O52 S13 1.504156 1_555
O52 V6 1.988294 1_555
O53 S12 1.495020 1_556
O53 V7 2.019489 1_455
O54 S13 1.489159 1_555
O54 V4 2.038255 1_555
O55 S12 1.505515 1_556
O55 V5 2.110513 1_555
O56 S14 1.527738 1_555
O56 V7 2.053367 1_555
O57 S15 1.530416 1_555
O57 V6 2.067000 1_555
O58 S14 1.503856 1_555
O58 V1 2.146927 1_545
O59 S15 1.506796 1_555
O59 V0 2.124434 1_645
O60 S0 1.470953 1_545
O61 S1 1.469536 1_545
O62 S12 1.514974 1_565
O62 V0 2.070007 1_555
O63 S13 1.510188 1_565
O63 V1 2.010325 1_555
