# generated using pymatgen
data_Ce(FeB)4
_symmetry_space_group_name_H-M   'P 1'
_cell_length_a   6.95898879
_cell_length_b   6.95898879
_cell_length_c   3.78073638
_cell_angle_alpha   90.00000000
_cell_angle_beta   90.00000000
_cell_angle_gamma   90.00000000
_symmetry_Int_Tables_number   1
_chemical_formula_structural   Ce(FeB)4
_chemical_formula_sum   'Ce2 Fe8 B8'
_cell_volume   183.09170551
_cell_formula_units_Z   2
loop_
 _symmetry_equiv_pos_site_id
 _symmetry_equiv_pos_as_xyz
  1  'x, y, z'
loop_
 _atom_site_type_symbol
 _atom_site_label
 _atom_site_symmetry_multiplicity
 _atom_site_fract_x
 _atom_site_fract_y
 _atom_site_fract_z
 _atom_site_occupancy
  Ce  Ce0  1  0.25000000  0.25000000  0.25000000  1
  Ce  Ce1  1  0.75000000  0.75000000  0.75000000  1
  Fe  Fe0  1  0.63514609  0.11983333  0.35317762  1
  Fe  Fe1  1  0.86485491  0.38016667  0.35317762  1
  Fe  Fe2  1  0.88016667  0.13514509  0.85317762  1
  Fe  Fe3  1  0.61983333  0.36485491  0.85317762  1
  Fe  Fe4  1  0.36485491  0.88016667  0.64682038  1
  Fe  Fe5  1  0.13514509  0.61983333  0.64682038  1
  Fe  Fe6  1  0.11983333  0.86485491  0.14681938  1
  Fe  Fe7  1  0.38016667  0.63514409  0.14681938  1
  B  B0  1  0.04708417  0.58628765  0.14675128  1
  B  B1  1  0.45291583  0.91371135  0.14675128  1
  B  B2  1  0.41371235  0.54708417  0.64675128  1
  B  B3  1  0.08628765  0.95291583  0.64675128  1
  B  B4  1  0.95291583  0.41371235  0.85324972  1
  B  B5  1  0.54708417  0.08628765  0.85324972  1
  B  B6  1  0.58628765  0.45291583  0.35324872  1
  B  B7  1  0.91371135  0.04708417  0.35324872  1
loop_
_geom_bond_atom_site_label_1
_geom_bond_atom_site_label_2
_geom_bond_distance
_geom_bond_site_symmetry_2
Ce0 Fe7 2.855914 1_555
Ce0 Fe1 2.855919 1_455
Ce0 Fe6 2.855921 1_545
Ce0 Fe0 2.855926 1_555
Ce0 Fe4 3.084383 1_545
Ce0 Fe5 3.084383 1_555
Ce0 Fe2 3.084386 1_454
Ce0 Fe3 3.084386 1_554
Ce1 Fe2 2.855919 1_565
Ce1 Fe3 2.855919 1_555
Ce1 Fe5 2.855920 1_655
Ce1 Fe4 2.855920 1_555
Ce1 Fe6 3.084381 1_656
Ce1 Fe7 3.084382 1_556
Ce1 Fe0 3.084384 1_565
Ce1 Fe1 3.084386 1_555
B0 B4 1.761547 1_454
B0 Fe5 2.000636 1_554
B0 Fe5 2.001129 1_555
B0 Fe6 2.003562 1_555
B0 Fe1 2.067543 1_455
B0 Fe7 2.342720 1_555
B0 Ce0 2.760980 1_555
B0 Ce1 2.796809 1_454
B0 Ce1 3.282348 1_455
B1 B5 1.761552 1_564
B1 Fe4 2.000635 1_554
B1 Fe4 2.001128 1_555
B1 Fe7 2.003562 1_555
B1 Fe0 2.067552 1_565
B1 Fe6 2.342720 1_555
B1 Ce0 2.760986 1_565
B1 Ce1 2.796807 1_554
B1 Ce1 3.282346 1_555
B2 B6 1.761549 1_555
B2 Fe7 2.000637 1_555
B2 Fe7 2.001123 1_556
B2 Fe5 2.003562 1_555
B2 Fe3 2.067543 1_555
B2 Fe4 2.342721 1_555
B2 Ce1 2.760980 1_555
B2 Ce0 2.796809 1_555
B2 Ce0 3.282348 1_556
B3 B7 1.761554 1_465
B3 Fe6 2.000639 1_555
B3 Fe6 2.001126 1_556
B3 Fe4 2.003562 1_555
B3 Fe2 2.067543 1_465
B3 Fe5 2.342721 1_555
B3 Ce1 2.760980 1_455
B3 Ce0 2.796809 1_565
B3 Ce0 3.282348 1_566
B4 Fe1 2.000625 1_556
B4 Fe1 2.001140 1_555
B4 Fe2 2.003562 1_555
B4 Fe5 2.067547 1_655
B4 Fe3 2.342721 1_555
B4 Ce1 2.760981 1_555
B4 Ce0 2.796807 1_656
B4 Ce0 3.282351 1_655
B5 Fe0 2.000627 1_556
B5 Fe0 2.001142 1_555
B5 Fe3 2.003562 1_555
B5 Fe4 2.067547 1_545
B5 Fe2 2.342721 1_555
B5 Ce1 2.760981 1_545
B5 Ce0 2.796807 1_556
B5 Ce0 3.282351 1_555
B6 Fe3 2.000628 1_555
B6 Fe3 2.001136 1_554
B6 Fe1 2.003562 1_555
B6 Fe7 2.067543 1_555
B6 Fe0 2.342722 1_555
B6 Ce0 2.760980 1_555
B6 Ce1 2.796809 1_555
B6 Ce1 3.282348 1_554
B7 Fe2 2.000628 1_555
B7 Fe2 2.001136 1_554
B7 Fe0 2.003549 1_555
B7 Fe6 2.067552 1_645
B7 Fe1 2.342720 1_555
B7 Ce0 2.760986 1_655
B7 Ce1 2.796807 1_545
B7 Ce1 3.282346 1_544
