# generated using pymatgen
data_BiTeO5
_symmetry_space_group_name_H-M   'P 1'
_cell_length_a   11.26543700
_cell_length_b   5.86393600
_cell_length_c   8.99990916
_cell_angle_alpha   72.70812703
_cell_angle_beta   90.00000000
_cell_angle_gamma   90.00000000
_symmetry_Int_Tables_number   1
_chemical_formula_structural   BiTeO5
_chemical_formula_sum   'Bi4 Te4 O20'
_cell_volume   567.66112335
_cell_formula_units_Z   4
loop_
 _symmetry_equiv_pos_site_id
 _symmetry_equiv_pos_as_xyz
  1  'x, y, z'
loop_
 _atom_site_type_symbol
 _atom_site_label
 _atom_site_symmetry_multiplicity
 _atom_site_fract_x
 _atom_site_fract_y
 _atom_site_fract_z
 _atom_site_occupancy
  Bi  Bi0  1  0.91642000  0.99117600  0.85471500  1
  Bi  Bi1  1  0.08358000  0.00882400  0.14528500  1
  Bi  Bi2  1  0.58358000  0.99117600  0.35471500  1
  Bi  Bi3  1  0.41642000  0.00882400  0.64528500  1
  Te  Te0  1  0.35479700  0.15852200  0.05291200  1
  Te  Te1  1  0.64520300  0.84147800  0.94708800  1
  Te  Te2  1  0.85479700  0.84147800  0.44708800  1
  Te  Te3  1  0.14520300  0.15852200  0.55291200  1
  O  O0  1  0.92063000  0.83598900  0.63728400  1
  O  O1  1  0.03239300  0.26644700  0.66743100  1
  O  O2  1  0.78579800  0.13094200  0.33441800  1
  O  O3  1  0.43932600  0.80406400  0.48744400  1
  O  O4  1  0.71262800  0.66982100  0.47338800  1
  O  O5  1  0.78737200  0.66982100  0.97338800  1
  O  O6  1  0.46760700  0.26644700  0.16743100  1
  O  O7  1  0.53239300  0.73355300  0.83256900  1
  O  O8  1  0.56067400  0.19593600  0.51255600  1
  O  O9  1  0.42063000  0.16401100  0.86271600  1
  O  O10  1  0.28737200  0.33017900  0.52661200  1
  O  O11  1  0.07937000  0.16401100  0.36271600  1
  O  O12  1  0.57937000  0.83598900  0.13728400  1
  O  O13  1  0.21262800  0.33017900  0.02661200  1
  O  O14  1  0.93932600  0.19593600  0.01255600  1
  O  O15  1  0.06067400  0.80406400  0.98744400  1
  O  O16  1  0.21420200  0.86905800  0.66558200  1
  O  O17  1  0.96760700  0.73355300  0.33256900  1
  O  O18  1  0.28579800  0.86905800  0.16558200  1
  O  O19  1  0.71420200  0.13094200  0.83441800  1
loop_
_geom_bond_atom_site_label_1
_geom_bond_atom_site_label_2
_geom_bond_distance
_geom_bond_site_symmetry_2
Bi0 O15 2.119565 1_655
Bi0 O14 2.130779 1_566
Bi0 O1 2.352886 1_665
Bi0 O5 2.368274 1_555
Bi0 O0 2.391293 1_555
Bi0 O19 2.409502 1_565
Bi1 O14 2.119565 1_455
Bi1 O15 2.130779 1_544
Bi1 O17 2.352886 1_445
Bi1 O13 2.368274 1_555
Bi1 O11 2.391293 1_555
Bi1 O18 2.409502 1_545
Bi2 O3 2.119565 1_555
Bi2 O8 2.130779 1_565
Bi2 O6 2.352886 1_565
Bi2 O4 2.368274 1_555
Bi2 O12 2.391293 1_555
Bi2 O2 2.409502 1_565
Bi3 O8 2.119565 1_555
Bi3 O3 2.130779 1_545
Bi3 O7 2.352886 1_545
Bi3 O10 2.368274 1_555
Bi3 O9 2.391293 1_555
Bi3 O16 2.409502 1_545
O0 Te2 1.856983 1_555
O1 Te3 1.861615 1_555
O2 Te2 1.868257 1_545
O4 Te2 1.868880 1_555
O5 Te1 1.868880 1_555
O6 Te0 1.861615 1_555
O7 Te1 1.861615 1_555
O9 Te0 1.856983 1_556
O10 Te3 1.868880 1_555
O11 Te3 1.856983 1_555
O12 Te1 1.856983 1_554
O13 Te0 1.868880 1_555
O16 Te3 1.868257 1_565
O17 Te2 1.861615 1_555
O18 Te0 1.868257 1_565
O19 Te1 1.868257 1_545
