# generated using pymatgen
data_Li7Mn2(CoO4)3
_symmetry_space_group_name_H-M   'P 1'
_cell_length_a   7.78645967
_cell_length_b   7.78645967
_cell_length_c   10.27358752
_cell_angle_alpha   71.06544223
_cell_angle_beta   71.06544223
_cell_angle_gamma   21.41441403
_symmetry_Int_Tables_number   1
_chemical_formula_structural   Li7Mn2(CoO4)3
_chemical_formula_sum   'Li7 Mn2 Co3 O12'
_cell_volume   214.66048638
_cell_formula_units_Z   1
loop_
 _symmetry_equiv_pos_site_id
 _symmetry_equiv_pos_as_xyz
  1  'x, y, z'
loop_
 _atom_site_type_symbol
 _atom_site_label
 _atom_site_symmetry_multiplicity
 _atom_site_fract_x
 _atom_site_fract_y
 _atom_site_fract_z
 _atom_site_occupancy
  Li  Li0  1  0.16758800  0.16758800  0.24252700  1
  Li  Li1  1  0.83606600  0.83606600  0.76344000  1
  Li  Li2  1  0.50003000  0.50003000  0.24643400  1
  Li  Li3  1  0.16817800  0.16817800  0.75366200  1
  Li  Li4  1  0.83433800  0.83433800  0.23591800  1
  Li  Li5  1  0.49272000  0.49272000  0.76118500  1
  Li  Li6  1  0.33430300  0.33430300  0.99702600  1
  Mn  Mn0  1  0.99710500  0.99710500  0.99695700  1
  Mn  Mn1  1  0.66697900  0.66697900  0.49770600  1
  Co  Co0  1  0.99463300  0.99463300  0.50356600  1
  Co  Co1  1  0.67598200  0.67598200  0.00666200  1
  Co  Co2  1  0.33598400  0.33598400  0.49841000  1
  O  O0  1  0.24105000  0.24105000  0.88326900  1
  O  O1  1  0.91582300  0.91582300  0.38200100  1
  O  O2  1  0.57555000  0.57555000  0.89071100  1
  O  O3  1  0.23870600  0.23870600  0.38603500  1
  O  O4  1  0.92466400  0.92466400  0.88407500  1
  O  O5  1  0.58158900  0.58158900  0.39218600  1
  O  O6  1  0.09426200  0.09426200  0.60864100  1
  O  O7  1  0.74266100  0.74266100  0.12137000  1
  O  O8  1  0.42103800  0.42103800  0.62249600  1
  O  O9  1  0.08522000  0.08522000  0.10760300  1
  O  O10  1  0.74880400  0.74880400  0.60634600  1
  O  O11  1  0.42672800  0.42672800  0.11177500  1
loop_
_geom_bond_atom_site_label_1
_geom_bond_atom_site_label_2
_geom_bond_distance
_geom_bond_site_symmetry_2
Li0 O7 2.004332 1_545
Li0 O7 2.004332 1_455
Li0 O3 2.101813 1_555
Li0 O9 2.159600 1_555
Li0 O5 2.202761 1_545
Li0 O5 2.202761 1_455
Li1 O4 2.117469 1_555
Li1 O0 2.130735 1_655
Li1 O0 2.130735 1_565
Li1 O8 2.153273 1_565
Li1 O8 2.153273 1_655
Li1 O10 2.410601 1_555
Li2 O11 2.048624 1_555
Li2 O1 2.123102 1_545
Li2 O1 2.123102 1_455
Li2 O9 2.144382 1_655
Li2 O9 2.144382 1_565
Li2 O5 2.243648 1_555
Li3 O0 1.999249 1_555
Li3 O6 2.147560 1_555
Li3 O10 2.161527 1_545
Li3 O10 2.161527 1_455
Li3 O2 2.183137 1_455
Li3 O2 2.183137 1_545
Li4 O7 2.107883 1_555
Li4 O11 2.127717 1_565
Li4 O11 2.127717 1_655
Li4 O1 2.245664 1_555
Li4 O3 2.263202 1_655
Li4 O3 2.263202 1_565
Li5 O4 1.975563 1_545
Li5 O4 1.975563 1_455
Li5 O8 2.065304 1_555
Li5 O2 2.119227 1_555
Li5 O6 2.314035 1_655
Li5 O6 2.314035 1_565
Li6 O4 2.071579 1_545
Li6 O4 2.071579 1_455
Li6 O11 2.119222 1_556
Li6 O0 2.122130 1_555
Li6 O7 2.123193 1_456
Li6 O7 2.123193 1_546
Mn0 O4 1.850047 1_555
Mn0 O11 1.950623 1_566
Mn0 O11 1.950623 1_656
Mn0 O2 1.964611 1_565
Mn0 O2 1.964611 1_655
Mn0 O9 2.030372 1_666
Mn1 O10 1.932976 1_555
Mn1 O3 1.944727 1_565
Mn1 O3 1.944727 1_655
Mn1 O6 1.947365 1_565
Mn1 O6 1.947365 1_655
Mn1 O5 1.953970 1_555
Co0 O8 1.986221 1_655
Co0 O8 1.986221 1_565
Co0 O1 2.002197 1_555
Co0 O5 2.041321 1_655
Co0 O5 2.041321 1_565
Co0 O6 2.139243 1_665
Co1 O7 1.795537 1_555
Co1 O0 1.964056 1_564
Co1 O0 1.964056 1_654
Co1 O9 2.036122 1_565
Co1 O9 2.036122 1_655
Co1 O2 2.233802 1_554
Co2 O1 2.012603 1_545
Co2 O1 2.012603 1_455
Co2 O10 2.031007 1_545
Co2 O10 2.031007 1_455
Co2 O8 2.101142 1_555
Co2 O3 2.164161 1_555
