# generated using pymatgen
data_TeW2Se2S
_symmetry_space_group_name_H-M   'P 1'
_cell_length_a   3.34338582
_cell_length_b   3.34338582
_cell_length_c   41.07582700
_cell_angle_alpha   90.00000000
_cell_angle_beta   90.00000000
_cell_angle_gamma   119.99999639
_symmetry_Int_Tables_number   1
_chemical_formula_structural   TeW2Se2S
_chemical_formula_sum   'Te2 W4 Se4 S2'
_cell_volume   397.63989945
_cell_formula_units_Z   2
loop_
 _symmetry_equiv_pos_site_id
 _symmetry_equiv_pos_as_xyz
  1  'x, y, z'
loop_
 _atom_site_type_symbol
 _atom_site_label
 _atom_site_symmetry_multiplicity
 _atom_site_fract_x
 _atom_site_fract_y
 _atom_site_fract_z
 _atom_site_occupancy
  Te  Te0  1  0.66666700  0.33333300  0.42320700  1
  Te  Te1  1  0.66666700  0.33333300  0.51611800  1
  W  W0  1  0.33333300  0.66666700  0.09370200  1
  W  W1  1  0.33333300  0.66666700  0.46963300  1
  W  W2  1  0.66666700  0.33333300  0.28043700  1
  W  W3  1  0.66666700  0.33333300  0.65908300  1
  Se  Se0  1  0.33333300  0.66666700  0.32122400  1
  Se  Se1  1  0.33333300  0.66666700  0.69984100  1
  Se  Se2  1  0.33333300  0.66666700  0.23972800  1
  Se  Se3  1  0.33333300  0.66666700  0.61836000  1
  S  S0  1  0.66666700  0.33333300  0.05665700  1
  S  S1  1  0.66666700  0.33333300  0.13075800  1
loop_
_geom_bond_atom_site_label_1
_geom_bond_atom_site_label_2
_geom_bond_distance
_geom_bond_site_symmetry_2
Te0 W1 2.713423 1_545
Te0 W1 2.713423 1_655
Te0 W1 2.713427 1_555
Te1 W1 2.715127 1_545
Te1 W1 2.715127 1_655
Te1 W1 2.715131 1_555
Se0 W2 2.555954 1_455
Se0 W2 2.555954 1_565
Se0 W2 2.555958 1_555
Se1 W3 2.555173 1_455
Se1 W3 2.555173 1_565
Se1 W3 2.555177 1_555
Se2 W2 2.553855 1_455
Se2 W2 2.553855 1_565
Se2 W2 2.553859 1_555
Se3 W3 2.554231 1_455
Se3 W3 2.554231 1_565
Se3 W3 2.554236 1_555
S0 W0 2.457946 1_545
S0 W0 2.457946 1_655
S0 W0 2.457951 1_555
S1 W0 2.458226 1_545
S1 W0 2.458226 1_655
S1 W0 2.458231 1_555
