# generated using pymatgen
data_Sr3InNiO6
_symmetry_space_group_name_H-M   'P 1'
_cell_length_a   6.62373528
_cell_length_b   9.36295882
_cell_length_c   9.65564128
_cell_angle_alpha   90.00073211
_cell_angle_beta   90.00120482
_cell_angle_gamma   93.45460241
_symmetry_Int_Tables_number   1
_chemical_formula_structural   Sr3InNiO6
_chemical_formula_sum   'Sr12 In4 Ni4 O24'
_cell_volume   597.73310534
_cell_formula_units_Z   4
loop_
 _symmetry_equiv_pos_site_id
 _symmetry_equiv_pos_as_xyz
  1  'x, y, z'
loop_
 _atom_site_type_symbol
 _atom_site_label
 _atom_site_symmetry_multiplicity
 _atom_site_fract_x
 _atom_site_fract_y
 _atom_site_fract_z
 _atom_site_occupancy
  Sr  Sr0  1  0.61543168  0.55768766  0.68558738  1
  Sr  Sr1  1  0.62352873  0.07316716  0.18586273  1
  Sr  Sr2  1  0.88461307  0.44233629  0.18561342  1
  Sr  Sr3  1  0.87645376  0.92684094  0.68583104  1
  Sr  Sr4  1  0.25914567  0.75558770  0.12899167  1
  Sr  Sr5  1  0.24085215  0.24440839  0.62903413  1
  Sr  Sr6  1  0.11540778  0.55766375  0.81438842  1
  Sr  Sr7  1  0.12352747  0.07316350  0.31416650  1
  Sr  Sr8  1  0.74084294  0.24440796  0.87100783  1
  Sr  Sr9  1  0.75916312  0.75559340  0.37096170  1
  Sr  Sr10  1  0.38460549  0.44231593  0.31441013  1
  Sr  Sr11  1  0.37643433  0.92683277  0.81413954  1
  In  In0  1  0.24558769  0.25152826  0.99794154  1
  In  In1  1  0.25443689  0.74846763  0.49788986  1
  In  In2  1  0.75438455  0.74846327  0.00206780  1
  In  In3  1  0.74558582  0.25154871  0.50208701  1
  Ni  Ni0  1  0.50000161  0.00000926  0.49999630  1
  Ni  Ni1  1  0.99997321  0.99999957  0.00000722  1
  Ni  Ni2  1  0.50000614  0.49999127  -0.00000214  1
  Ni  Ni3  1  0.00002738  0.50000200  0.50000202  1
  O  O0  1  0.53767306  0.32061851  0.09630917  1
  O  O1  1  0.54009653  0.80029878  0.59930168  1
  O  O2  1  0.22464004  0.48148985  0.06245294  1
  O  O3  1  0.21629360  0.97234841  0.56258119  1
  O  O4  1  0.39889999  0.36636461  0.83036928  1
  O  O5  1  0.41940502  0.89050723  0.34071764  1
  O  O6  1  0.03999427  0.80026589  0.90060184  1
  O  O7  1  0.03773905  0.32067916  0.40374855  1
  O  O8  1  0.89886801  0.36636001  0.66966354  1
  O  O9  1  0.91936953  0.89045854  0.15926585  1
  O  O10  1  0.72464372  0.48146561  0.43751102  1
  O  O11  1  0.71630954  0.97241551  0.93745636  1
  O  O12  1  0.46232023  0.67936953  0.90368657  1
  O  O13  1  0.45991887  0.19971333  0.40068887  1
  O  O14  1  0.77536204  0.51849710  0.93755230  1
  O  O15  1  0.78370267  0.02766709  0.43740499  1
  O  O16  1  0.60109476  0.63362345  0.16963615  1
  O  O17  1  0.58059671  0.10949263  0.65926459  1
  O  O18  1  0.95997604  0.19973232  0.09941362  1
  O  O19  1  0.96230669  0.67932909  0.59625274  1
  O  O20  1  0.10115676  0.63363519  0.33033505  1
  O  O21  1  0.08059560  0.10952959  0.84075117  1
  O  O22  1  0.27540982  0.51854486  0.56248820  1
  O  O23  1  0.28361698  0.02757628  0.06256657  1
loop_
_geom_bond_atom_site_label_1
_geom_bond_atom_site_label_2
_geom_bond_distance
_geom_bond_site_symmetry_2
In0 O18 2.159547 1_456
In0 O4 2.161902 1_555
In0 O0 2.216465 1_556
In0 O23 2.216596 1_556
In0 O2 2.253699 1_556
In0 O21 2.256192 1_555
In1 O1 2.159572 1_555
In1 O20 2.161612 1_555
In1 O3 2.216258 1_555
In1 O19 2.216850 1_455
In1 O22 2.253616 1_555
In1 O5 2.256272 1_555
In2 O6 2.159520 1_654
In2 O16 2.161823 1_555
In2 O12 2.216410 1_554
In2 O11 2.216613 1_554
In2 O14 2.253774 1_554
In2 O9 2.256203 1_555
In3 O13 2.159561 1_555
In3 O8 2.161683 1_555
In3 O15 2.216210 1_555
In3 O7 2.216861 1_655
In3 O10 2.253479 1_555
In3 O17 2.256455 1_555
Ni0 O17 1.906492 1_555
Ni0 O5 1.906666 1_545
Ni0 O15 1.976097 1_555
Ni0 O3 1.976124 1_545
Ni0 O13 2.132141 1_555
Ni0 O1 2.132200 1_545
Ni1 O21 1.906708 1_664
Ni1 O9 1.906751 1_555
Ni1 O23 1.975563 1_665
Ni1 O11 1.975667 1_554
Ni1 O18 2.132692 1_565
Ni1 O6 2.132723 1_654
Ni2 O14 1.918878 1_554
Ni2 O2 1.918969 1_555
Ni2 O0 1.948888 1_555
Ni2 O12 1.948955 1_554
Ni2 O4 2.143689 1_554
Ni2 O16 2.143758 1_555
Ni3 O22 1.919153 1_555
Ni3 O10 1.919173 1_455
Ni3 O7 1.948253 1_555
Ni3 O19 1.948286 1_455
Ni3 O20 2.144095 1_555
Ni3 O8 2.144157 1_455
O0 Sr1 2.568626 1_555
O0 Sr10 2.626858 1_555
O0 Sr2 2.647182 1_555
O0 Sr8 2.677403 1_554
O1 Sr0 2.497947 1_555
O1 Sr3 2.597561 1_555
O1 Sr11 2.652678 1_555
O1 Sr9 2.686081 1_555
O2 Sr2 2.553784 1_455
O2 Sr6 2.613697 1_554
O2 Sr4 2.642066 1_555
O2 Sr10 2.687475 1_555
O3 Sr3 2.559172 1_455
O3 Sr5 2.622376 1_565
O3 Sr7 2.663034 1_565
O3 Sr11 2.694622 1_555
O4 Sr5 2.456585 1_555
O4 Sr8 2.626683 1_555
O4 Sr0 2.628843 1_555
O4 Sr6 2.676438 1_555
O5 Sr1 2.590396 1_565
O5 Sr4 2.596191 1_555
O5 Sr9 2.662352 1_555
O5 Sr7 2.689853 1_565
O6 Sr6 2.497757 1_555
O6 Sr11 2.597942 1_555
O6 Sr3 2.651990 1_455
O6 Sr4 2.686696 1_556
O7 Sr7 2.569135 1_555
O7 Sr2 2.627099 1_455
O7 Sr10 2.646633 1_555
O7 Sr5 2.677221 1_555
O8 Sr8 2.456635 1_555
O8 Sr5 2.626899 1_655
O8 Sr6 2.628404 1_655
O8 Sr0 2.676323 1_555
O9 Sr7 2.590968 1_665
O9 Sr9 2.595655 1_555
O9 Sr4 2.662284 1_655
O9 Sr1 2.690046 1_565
O10 Sr10 2.553530 1_555
O10 Sr0 2.613904 1_555
O10 Sr9 2.642382 1_555
O10 Sr2 2.686930 1_555
O11 Sr11 2.559707 1_555
O11 Sr8 2.621771 1_565
O11 Sr1 2.662769 1_566
O11 Sr3 2.695345 1_555
O12 Sr11 2.568762 1_555
O12 Sr0 2.626897 1_555
O12 Sr6 2.646966 1_555
O12 Sr4 2.677470 1_556
O13 Sr10 2.497815 1_555
O13 Sr7 2.597756 1_555
O13 Sr1 2.652493 1_555
O13 Sr5 2.686106 1_555
O14 Sr6 2.553919 1_655
O14 Sr2 2.613668 1_556
O14 Sr8 2.642003 1_555
O14 Sr0 2.687474 1_555
O15 Sr7 2.559023 1_655
O15 Sr9 2.622477 1_545
O15 Sr3 2.663146 1_545
O15 Sr1 2.694545 1_555
O16 Sr9 2.456622 1_555
O16 Sr4 2.626762 1_555
O16 Sr10 2.628566 1_555
O16 Sr2 2.676484 1_555
O17 Sr11 2.590631 1_545
O17 Sr8 2.596272 1_555
O17 Sr5 2.662269 1_555
O17 Sr3 2.689734 1_545
O18 Sr2 2.497644 1_555
O18 Sr1 2.597934 1_555
O18 Sr7 2.651859 1_655
O18 Sr8 2.686751 1_554
O19 Sr3 2.569208 1_555
O19 Sr6 2.627070 1_655
O19 Sr0 2.646686 1_555
O19 Sr9 2.677350 1_555
O20 Sr4 2.456535 1_555
O20 Sr9 2.626981 1_455
O20 Sr2 2.628371 1_455
O20 Sr10 2.676329 1_555
O21 Sr3 2.590929 1_445
O21 Sr5 2.596001 1_555
O21 Sr8 2.662166 1_455
O21 Sr11 2.689974 1_545
O22 Sr0 2.553422 1_555
O22 Sr10 2.613906 1_555
O22 Sr5 2.642460 1_555
O22 Sr6 2.687024 1_555
O23 Sr1 2.559834 1_555
O23 Sr4 2.621679 1_545
O23 Sr11 2.662982 1_544
O23 Sr7 2.695000 1_555
