# generated using pymatgen
data_GdCo4B
_symmetry_space_group_name_H-M   'P 1'
_cell_length_a   5.04747883
_cell_length_b   5.04748173
_cell_length_c   6.76555153
_cell_angle_alpha   90.00000000
_cell_angle_beta   90.00000000
_cell_angle_gamma   120.00003827
_symmetry_Int_Tables_number   1
_chemical_formula_structural   GdCo4B
_chemical_formula_sum   'Gd2 Co8 B2'
_cell_volume   149.27357435
_cell_formula_units_Z   2
loop_
 _symmetry_equiv_pos_site_id
 _symmetry_equiv_pos_as_xyz
  1  'x, y, z'
loop_
 _atom_site_type_symbol
 _atom_site_label
 _atom_site_symmetry_multiplicity
 _atom_site_fract_x
 _atom_site_fract_y
 _atom_site_fract_z
 _atom_site_occupancy
  Gd  Gd0  1  0.99999900  0.00000000  0.50000000  1
  Gd  Gd1  1  0.00000100  0.00000100  0.00000000  1
  Co  Co0  1  0.33333300  0.66666500  0.00000000  1
  Co  Co1  1  0.66666700  0.33333500  0.00000000  1
  Co  Co2  1  0.49999935  -0.00000130  0.28539196  1
  Co  Co3  1  0.49999935  0.50000065  0.28539196  1
  Co  Co4  1  0.00000130  0.50000065  0.28539396  1
  Co  Co5  1  0.49999935  -0.00000130  0.71460804  1
  Co  Co6  1  0.49999935  0.50000065  0.71460804  1
  Co  Co7  1  0.00000130  0.50000065  0.71460604  1
  B  B0  1  0.66666700  0.33333300  0.50000000  1
  B  B1  1  0.33333300  0.66666700  0.50000000  1
loop_
_geom_bond_atom_site_label_1
_geom_bond_atom_site_label_2
_geom_bond_distance
_geom_bond_site_symmetry_2
Co0 Co6 2.418920 1_554
Co0 Co3 2.418920 1_555
Co0 Co2 2.418928 1_565
Co0 Co5 2.418928 1_564
Co0 Co7 2.418933 1_554
Co0 Co4 2.418933 1_555
Co0 Gd1 2.914152 1_555
Co0 Gd1 2.914168 1_665
Co0 Gd1 2.914170 1_565
Co1 Co3 2.418927 1_555
Co1 Co6 2.418927 1_554
Co1 Co5 2.418935 1_554
Co1 Co2 2.418935 1_555
Co1 Co4 2.418940 1_655
Co1 Co7 2.418940 1_654
Co1 Gd1 2.914159 1_555
Co1 Gd1 2.914161 1_665
Co1 Gd1 2.914170 1_655
Co2 Gd0 2.911592 1_555
Co2 Gd0 2.911601 1_455
Co2 Gd1 3.177636 1_555
Co2 Gd1 3.177640 1_655
Co3 Gd0 2.911594 1_565
Co3 Gd0 2.911598 1_455
Co3 Gd1 3.177633 1_555
Co3 Gd1 3.177641 1_665
Co4 Gd0 2.911589 1_455
Co4 Gd0 2.911593 1_465
Co4 Gd1 3.177645 1_555
Co4 Gd1 3.177649 1_565
Co5 Gd0 2.911592 1_555
Co5 Gd0 2.911601 1_455
Co5 Gd1 3.177636 1_556
Co5 Gd1 3.177640 1_656
Co6 Gd0 2.911594 1_565
Co6 Gd0 2.911598 1_455
Co6 Gd1 3.177633 1_556
Co6 Gd1 3.177641 1_666
Co7 Gd0 2.911589 1_455
Co7 Gd0 2.911593 1_465
Co7 Gd1 3.177645 1_556
Co7 Gd1 3.177649 1_566
B0 Co4 2.056986 1_655
B0 Co7 2.056986 1_655
B0 Co2 2.056997 1_555
B0 Co5 2.056997 1_555
B0 Co3 2.057000 1_555
B0 Co6 2.057000 1_555
B0 Gd0 2.914157 1_555
B0 Gd0 2.914165 1_565
B0 Gd0 2.914168 1_455
B1 Co4 2.056978 1_555
B1 Co7 2.056978 1_555
B1 Co5 2.056989 1_565
B1 Co2 2.056989 1_565
B1 Co3 2.056992 1_555
B1 Co6 2.056992 1_555
B1 Gd0 2.914159 1_565
B1 Gd0 2.914165 1_455
B1 Gd0 2.914166 1_465
