# generated using pymatgen
data_EuZnSn
_symmetry_space_group_name_H-M   'P 1'
_cell_length_a   6.11162526
_cell_length_b   6.11162526
_cell_length_c   7.68790374
_cell_angle_alpha   51.45808649
_cell_angle_beta   51.45808649
_cell_angle_gamma   46.37008956
_symmetry_Int_Tables_number   1
_chemical_formula_structural   EuZnSn
_chemical_formula_sum   'Eu2 Zn2 Sn2'
_cell_volume   152.81418069
_cell_formula_units_Z   2
loop_
 _symmetry_equiv_pos_site_id
 _symmetry_equiv_pos_as_xyz
  1  'x, y, z'
loop_
 _atom_site_type_symbol
 _atom_site_label
 _atom_site_symmetry_multiplicity
 _atom_site_fract_x
 _atom_site_fract_y
 _atom_site_fract_z
 _atom_site_occupancy
  Eu  Eu0  1  0.53756100  0.53756100  0.71405600  1
  Eu  Eu1  1  0.46243900  0.46243900  0.28594400  1
  Zn  Zn0  1  0.84711900  0.84711900  0.10081000  1
  Zn  Zn1  1  0.15288100  0.15288100  0.89919000  1
  Sn  Sn0  1  0.17139800  0.17139800  0.27422000  1
  Sn  Sn1  1  0.82860200  0.82860200  0.72578000  1
loop_
_geom_bond_atom_site_label_1
_geom_bond_atom_site_label_2
_geom_bond_distance
_geom_bond_site_symmetry_2
Eu0 Zn0 3.253287 1_456
Eu0 Zn0 3.253287 1_546
Eu0 Sn1 3.320147 1_455
Eu0 Sn1 3.320147 1_545
Eu0 Sn1 3.331913 1_555
Eu0 Sn0 3.384276 1_556
Eu0 Zn1 3.463301 1_655
Eu0 Zn1 3.463301 1_565
Eu0 Zn0 3.477741 1_555
Eu0 Zn1 3.516834 1_555
Eu0 Sn0 3.548450 1_565
Eu0 Sn0 3.548450 1_655
Eu1 Zn1 3.253287 1_564
Eu1 Zn1 3.253287 1_654
Eu1 Sn0 3.320147 1_565
Eu1 Sn0 3.320147 1_655
Eu1 Sn0 3.331913 1_555
Eu1 Sn1 3.384276 1_554
Eu1 Zn0 3.463301 1_545
Eu1 Zn0 3.463301 1_455
Eu1 Zn1 3.477741 1_555
Eu1 Zn0 3.516834 1_555
Eu1 Sn1 3.548450 1_455
Eu1 Sn1 3.548450 1_545
Zn0 Zn1 2.643198 1_664
Sn0 Zn0 2.810133 1_545
Sn0 Zn0 2.810133 1_455
Sn0 Sn1 2.959759 1_445
Sn0 Zn1 3.028089 1_554
Sn1 Zn1 2.810133 1_655
Sn1 Zn1 2.810133 1_565
Sn1 Zn0 3.028089 1_556
