# generated using pymatgen
data_Li7Mn2(CoO4)3
_symmetry_space_group_name_H-M   'P 1'
_cell_length_a   5.85887500
_cell_length_b   5.90738849
_cell_length_c   6.43846498
_cell_angle_alpha   103.65408093
_cell_angle_beta   104.50598496
_cell_angle_gamma   87.94006993
_symmetry_Int_Tables_number   1
_chemical_formula_structural   Li7Mn2(CoO4)3
_chemical_formula_sum   'Li7 Mn2 Co3 O12'
_cell_volume   209.57501629
_cell_formula_units_Z   1
loop_
 _symmetry_equiv_pos_site_id
 _symmetry_equiv_pos_as_xyz
  1  'x, y, z'
loop_
 _atom_site_type_symbol
 _atom_site_label
 _atom_site_symmetry_multiplicity
 _atom_site_fract_x
 _atom_site_fract_y
 _atom_site_fract_z
 _atom_site_occupancy
  Li  Li0  1  0.16546300  0.16422600  0.65944800  1
  Li  Li1  1  0.83033700  0.33539100  0.34642500  1
  Li  Li2  1  0.50467700  0.49545800  0.99407000  1
  Li  Li3  1  0.16553400  0.66536200  0.66109100  1
  Li  Li4  1  0.82833500  0.84241500  0.34971800  1
  Li  Li5  1  0.49898700  0.99973600  0.99105400  1
  Li  Li6  1  0.66596900  0.16732200  0.66520500  1
  Mn  Mn0  1  0.99302500  0.99820000  0.00086300  1
  Mn  Mn1  1  0.99606900  0.49641300  0.99473300  1
  Co  Co0  1  0.34210300  0.33578600  0.33423300  1
  Co  Co1  1  0.66548300  0.66721000  0.66486600  1
  Co  Co2  1  0.33901200  0.83842800  0.34030300  1
  O  O0  1  0.90463300  0.90481900  0.68653100  1
  O  O1  1  0.53918700  0.06882700  0.32366300  1
  O  O2  1  0.24688100  0.26796600  0.01112500  1
  O  O3  1  0.91281400  0.43228400  0.68233700  1
  O  O4  1  0.58227200  0.61039200  0.35019900  1
  O  O5  1  0.23200700  0.74287500  0.01747200  1
  O  O6  1  0.43148900  0.42732800  0.63958400  1
  O  O7  1  0.11663700  0.59015200  0.31942300  1
  O  O8  1  0.75099800  0.72389100  0.98665600  1
  O  O9  1  0.42161300  0.89677700  0.64378700  1
  O  O10  1  0.08599400  0.06349400  0.32552100  1
  O  O11  1  0.78048300  0.26524700  0.01169300  1
loop_
_geom_bond_atom_site_label_1
_geom_bond_atom_site_label_2
_geom_bond_distance
_geom_bond_site_symmetry_2
Li0 O10 2.026749 1_555
Li0 O3 2.133299 1_455
Li0 O2 2.134197 1_556
Li0 O9 2.142131 1_545
Li0 O0 2.267601 1_445
Li0 O6 2.286738 1_555
Li1 O3 2.037285 1_555
Li1 O11 2.042905 1_555
Li1 O4 2.140409 1_555
Li1 O10 2.160454 1_655
Li1 O1 2.317295 1_555
Li1 O7 2.357948 1_655
Li2 O8 2.027541 1_555
Li2 O11 2.072805 1_556
Li2 O2 2.097153 1_556
Li2 O5 2.135376 1_556
Li2 O6 2.154857 1_555
Li2 O4 2.165676 1_556
Li3 O0 2.055479 1_455
Li3 O6 2.069561 1_555
Li3 O7 2.085827 1_555
Li3 O9 2.106029 1_555
Li3 O3 2.108033 1_455
Li3 O5 2.166887 1_556
Li4 O4 2.025672 1_555
Li4 O0 2.046257 1_555
Li4 O10 2.089110 1_665
Li4 O1 2.118406 1_565
Li4 O8 2.208898 1_554
Li4 O7 2.226835 1_655
Li5 O1 2.037063 1_566
Li5 O9 2.108212 1_555
Li5 O2 2.130694 1_566
Li5 O8 2.159259 1_555
Li5 O11 2.274989 1_566
Li5 O5 2.281197 1_556
Li6 O6 2.031765 1_555
Li6 O0 2.056029 1_545
Li6 O1 2.081981 1_555
Li6 O11 2.104827 1_556
Li6 O3 2.134250 1_555
Li6 O9 2.141137 1_545
Mn0 O0 1.907023 1_554
Mn0 O10 1.969489 1_665
Mn0 O11 1.973457 1_565
Mn0 O5 2.023907 1_655
Mn0 O8 2.162220 1_554
Mn0 O2 2.197160 1_665
Mn1 O3 1.894473 1_555
Mn1 O8 1.930549 1_555
Mn1 O11 1.932783 1_556
Mn1 O2 1.959261 1_656
Mn1 O7 1.979305 1_656
Mn1 O5 1.998680 1_656
Co0 O6 1.853229 1_555
Co0 O1 1.919050 1_555
Co0 O2 1.959757 1_555
Co0 O7 1.968208 1_555
Co0 O4 2.152907 1_555
Co0 O10 2.220544 1_555
Co1 O4 1.910711 1_555
Co1 O9 1.936355 1_555
Co1 O8 1.954522 1_555
Co1 O6 1.957817 1_555
Co1 O3 1.971281 1_555
Co1 O0 1.975841 1_555
Co2 O9 1.841552 1_555
Co2 O1 1.867071 1_565
Co2 O4 1.925362 1_555
Co2 O10 1.954905 1_565
Co2 O7 1.955294 1_555
Co2 O5 1.962319 1_555
