# generated using pymatgen
data_HfRh3
_symmetry_space_group_name_H-M   'P 1'
_cell_length_a   3.91421670
_cell_length_b   3.91421670
_cell_length_c   3.91421670
_cell_angle_alpha   90.00000000
_cell_angle_beta   90.00000000
_cell_angle_gamma   90.00000000
_symmetry_Int_Tables_number   1
_chemical_formula_structural   HfRh3
_chemical_formula_sum   'Hf1 Rh3'
_cell_volume   59.97007563
_cell_formula_units_Z   1
loop_
 _symmetry_equiv_pos_site_id
 _symmetry_equiv_pos_as_xyz
  1  'x, y, z'
loop_
 _atom_site_type_symbol
 _atom_site_label
 _atom_site_symmetry_multiplicity
 _atom_site_fract_x
 _atom_site_fract_y
 _atom_site_fract_z
 _atom_site_occupancy
  Hf  Hf0  1  0.00000000  0.00000000  0.00000000  1
  Rh  Rh0  1  0.50000000  0.00000000  0.50000000  1
  Rh  Rh1  1  0.00000000  0.50000000  0.50000000  1
  Rh  Rh2  1  0.50000000  0.50000000  0.00000000  1
loop_
_geom_bond_atom_site_label_1
_geom_bond_atom_site_label_2
_geom_bond_distance
_geom_bond_site_symmetry_2
Hf0 Rh2 2.767769 1_545
Hf0 Rh1 2.767769 1_545
Hf0 Rh1 2.767769 1_555
Hf0 Rh0 2.767769 1_555
Hf0 Rh1 2.767769 1_554
Hf0 Rh2 2.767769 1_455
Hf0 Rh2 2.767769 1_555
Hf0 Rh1 2.767769 1_544
Hf0 Rh0 2.767769 1_455
Hf0 Rh0 2.767769 1_454
Hf0 Rh0 2.767769 1_554
Hf0 Rh2 2.767769 1_445
Rh0 Rh2 2.767769 1_545
Rh0 Rh1 2.767769 1_545
Rh0 Rh1 2.767769 1_555
Rh0 Rh2 2.767769 1_555
Rh0 Rh1 2.767769 1_645
Rh0 Rh2 2.767769 1_556
Rh0 Rh1 2.767769 1_655
Rh0 Rh2 2.767769 1_546
Rh1 Rh2 2.767769 1_456
Rh1 Rh2 2.767769 1_555
Rh1 Rh2 2.767769 1_455
Rh1 Rh2 2.767769 1_556
