# generated using pymatgen
data_Li3VCrP2(HO5)2
_symmetry_space_group_name_H-M   'P 1'
_cell_length_a   5.17618851
_cell_length_b   5.58458355
_cell_length_c   13.28569603
_cell_angle_alpha   88.97065162
_cell_angle_beta   91.79115205
_cell_angle_gamma   95.57795832
_symmetry_Int_Tables_number   1
_chemical_formula_structural   Li3VCrP2(HO5)2
_chemical_formula_sum   'Li6 V2 Cr2 P4 H4 O20'
_cell_volume   381.99943377
_cell_formula_units_Z   2
loop_
 _symmetry_equiv_pos_site_id
 _symmetry_equiv_pos_as_xyz
  1  'x, y, z'
loop_
 _atom_site_type_symbol
 _atom_site_label
 _atom_site_symmetry_multiplicity
 _atom_site_fract_x
 _atom_site_fract_y
 _atom_site_fract_z
 _atom_site_occupancy
  Li  Li0  1  0.36390300  0.99156400  0.41866800  1
  Li  Li1  1  0.86371200  0.49130700  0.91877400  1
  Li  Li2  1  0.09063800  0.45756700  0.15711200  1
  Li  Li3  1  0.59063200  0.95777200  0.65711500  1
  Li  Li4  1  0.42209400  0.75961500  0.07402600  1
  Li  Li5  1  0.92218300  0.25987000  0.57389600  1
  V  V0  1  0.25104800  0.25345200  0.75086700  1
  V  V1  1  0.75148800  0.75341800  0.25065600  1
  Cr  Cr0  1  0.50473100  0.50720300  0.49476200  1
  Cr  Cr1  1  0.00487500  0.00698500  0.99478800  1
  P  P0  1  0.54973200  0.24414700  0.10860000  1
  P  P1  1  0.04982700  0.74430400  0.60848900  1
  P  P2  1  0.95844200  0.25784800  0.37597300  1
  P  P3  1  0.45843600  0.75769500  0.87603900  1
  H  H0  1  0.16507700  0.91414800  0.17156800  1
  H  H1  1  0.66512200  0.41434700  0.67160100  1
  H  H2  1  0.30591700  0.61997100  0.33412000  1
  H  H3  1  0.80573500  0.11970800  0.83414900  1
  O  O0  1  0.46943200  0.69096300  0.36628900  1
  O  O1  1  0.96937600  0.19061400  0.86633200  1
  O  O2  1  0.52947000  0.02441600  0.18089200  1
  O  O3  1  0.02950600  0.52462700  0.68069400  1
  O  O4  1  0.00591000  0.01767500  0.32974000  1
  O  O5  1  0.50597200  0.51732800  0.82991100  1
  O  O6  1  0.34050600  0.20009900  0.02340200  1
  O  O7  1  0.84054700  0.70019300  0.52334600  1
  O  O8  1  0.82788700  0.27838700  0.06281900  1
  O  O9  1  0.32798300  0.77854800  0.56276600  1
  O  O10  1  0.69279100  0.24247000  0.43064300  1
  O  O11  1  0.19255300  0.74236500  0.93054900  1
  O  O12  1  0.17205000  0.29932600  0.46357800  1
  O  O13  1  0.67174700  0.79912800  0.96380000  1
  O  O14  1  0.49738700  0.48271000  0.15970400  1
  O  O15  1  0.99746100  0.98295700  0.65956300  1
  O  O16  1  0.98538800  0.46655500  0.29803800  1
  O  O17  1  0.48538100  0.96643100  0.79816800  1
  O  O18  1  0.04256000  0.81205300  0.12832500  1
  O  O19  1  0.54254300  0.31225100  0.62836900  1
loop_
_geom_bond_atom_site_label_1
_geom_bond_atom_site_label_2
_geom_bond_distance
_geom_bond_site_symmetry_2
Li0 O0 1.960810 1_555
Li0 O10 2.100992 1_565
Li0 O12 2.168383 1_565
Li0 O4 2.181827 1_565
Li0 O9 2.238805 1_555
Li1 O1 1.961845 1_555
Li1 O11 2.101147 1_655
Li1 O13 2.169444 1_555
Li1 O5 2.180214 1_555
Li1 O8 2.237907 1_556
Li2 O16 1.969082 1_455
Li2 O8 2.023454 1_455
Li2 O18 2.046916 1_555
Li2 O14 2.095668 1_555
Li3 O17 1.970577 1_555
Li3 O9 2.023695 1_555
Li3 O19 2.046799 1_565
Li3 O15 2.096101 1_555
Li4 O14 1.965994 1_555
Li4 O13 1.978488 1_554
Li4 O2 2.092343 1_565
Li4 O18 2.161855 1_555
Li4 O11 2.212986 1_554
Li4 O6 2.608959 1_565
Li5 O15 1.965928 1_545
Li5 O12 1.980141 1_655
Li5 O3 2.091507 1_655
Li5 O19 2.163137 1_555
Li5 O10 2.210086 1_555
Li5 O7 2.607930 1_555
Cr0 O7 1.984074 1_555
Cr0 O0 1.988439 1_555
Cr0 O12 2.017116 1_555
Cr0 O10 2.058116 1_555
Cr0 O9 2.078446 1_555
Cr0 O19 2.079603 1_555
Cr1 O6 1.983681 1_556
Cr1 O1 1.987994 1_455
Cr1 O13 2.018402 1_445
Cr1 O11 2.057236 1_545
Cr1 O18 2.078685 1_546
Cr1 O8 2.079512 1_456
H0 O18 0.987938 1_555
H0 Li4 2.136632 1_555
H1 O19 0.988039 1_555
H1 Li5 2.138010 1_555
H2 O0 0.987142 1_555
H3 O1 0.987588 1_555
O0 V1 2.152964 1_555
O1 V0 2.150150 1_655
O2 P0 1.542137 1_555
O2 V1 2.165938 1_545
O3 P1 1.541200 1_555
O3 V0 2.167405 1_555
O4 P2 1.529625 1_455
O4 V1 2.146519 1_445
O5 P3 1.530103 1_555
O5 V0 2.146291 1_555
O6 P0 1.547966 1_555
O7 P1 1.547667 1_655
O8 P0 1.573699 1_555
O9 P1 1.573387 1_555
O10 P2 1.569380 1_555
O11 P3 1.569416 1_555
O12 P2 1.584384 1_455
O13 P3 1.584830 1_555
O14 P0 1.556766 1_555
O14 V1 2.248406 1_555
O15 P1 1.557056 1_655
O15 V0 2.248815 1_665
O16 P2 1.544054 1_555
O16 V1 2.172949 1_555
O17 P3 1.543612 1_555
O17 V0 2.174754 1_565
O18 V1 2.248708 1_455
O19 V0 2.251900 1_555
