# generated using pymatgen
data_LaU2O6
_symmetry_space_group_name_H-M   'P 1'
_cell_length_a   6.60115846
_cell_length_b   6.60115846
_cell_length_c   6.60115846
_cell_angle_alpha   144.88637100
_cell_angle_beta   131.06245443
_cell_angle_gamma   61.64753730
_symmetry_Int_Tables_number   1
_chemical_formula_structural   LaU2O6
_chemical_formula_sum   'La1 U2 O6'
_cell_volume   123.45207239
_cell_formula_units_Z   1
loop_
 _symmetry_equiv_pos_site_id
 _symmetry_equiv_pos_as_xyz
  1  'x, y, z'
loop_
 _atom_site_type_symbol
 _atom_site_label
 _atom_site_symmetry_multiplicity
 _atom_site_fract_x
 _atom_site_fract_y
 _atom_site_fract_z
 _atom_site_occupancy
  La  La0  1  -0.00000000  -0.00000000  -0.00000000  1
  U  U0  1  0.66712225  0.66712225  -0.00000000  1
  U  U1  1  0.33287775  0.33287775  0.00000000  1
  O  O0  1  0.73071489  0.50000000  0.23071489  1
  O  O1  1  0.43583701  0.17595375  0.25988326  1
  O  O2  1  0.08392950  0.82404625  0.25988326  1
  O  O3  1  0.26928511  0.50000000  0.76928511  1
  O  O4  1  0.91607050  0.17595375  0.74011674  1
  O  O5  1  0.56416299  0.82404625  0.74011674  1
loop_
_geom_bond_atom_site_label_1
_geom_bond_atom_site_label_2
_geom_bond_distance
_geom_bond_site_symmetry_2
La0 O1 2.449311 1_555
La0 O5 2.449311 1_444
La0 O4 2.449311 1_454
La0 O2 2.449311 1_545
La0 O3 2.476584 1_544
La0 O3 2.476584 1_555
La0 O0 2.476584 1_444
La0 O0 2.476584 1_455
O0 U1 2.276348 1_555
O0 U0 2.276348 1_555
O1 U1 2.277036 1_555
O1 U0 2.387296 1_545
O1 U0 2.387296 1_556
O2 U0 2.277036 1_455
O2 U1 2.387296 1_566
O2 U1 2.387296 1_555
O3 U0 2.276348 1_556
O3 U1 2.276348 1_556
O4 U1 2.277036 1_656
O4 U0 2.387296 1_545
O4 U0 2.387296 1_556
O5 U0 2.277036 1_556
O5 U1 2.387296 1_555
O5 U1 2.387296 1_566
