# generated using pymatgen
data_Sm2MgCu2
_symmetry_space_group_name_H-M   'P 1'
_cell_length_a   7.72347908
_cell_length_b   7.72347908
_cell_length_c   3.76091358
_cell_angle_alpha   90.00000000
_cell_angle_beta   90.00000000
_cell_angle_gamma   90.00000000
_symmetry_Int_Tables_number   1
_chemical_formula_structural   Sm2MgCu2
_chemical_formula_sum   'Sm4 Mg2 Cu4'
_cell_volume   224.34650241
_cell_formula_units_Z   2
loop_
 _symmetry_equiv_pos_site_id
 _symmetry_equiv_pos_as_xyz
  1  'x, y, z'
loop_
 _atom_site_type_symbol
 _atom_site_label
 _atom_site_symmetry_multiplicity
 _atom_site_fract_x
 _atom_site_fract_y
 _atom_site_fract_z
 _atom_site_occupancy
  Sm  Sm0  1  0.66998000  0.16998000  0.50000000  1
  Sm  Sm1  1  0.33002000  0.83002000  0.50000000  1
  Sm  Sm2  1  0.16998000  0.33002000  0.50000000  1
  Sm  Sm3  1  0.83002000  0.66998000  0.50000000  1
  Mg  Mg0  1  0.00000000  0.00000000  0.00000000  1
  Mg  Mg1  1  0.50000000  0.50000000  0.00000000  1
  Cu  Cu0  1  0.12139672  0.62139672  -0.00000000  1
  Cu  Cu1  1  0.87860328  0.37860328  0.00000000  1
  Cu  Cu2  1  0.62139672  0.87860328  0.00000000  1
  Cu  Cu3  1  0.37860328  0.12139672  -0.00000000  1
loop_
_geom_bond_atom_site_label_1
_geom_bond_atom_site_label_2
_geom_bond_distance
_geom_bond_site_symmetry_2
Mg0 Sm2 3.428784 1_555
Mg0 Sm2 3.428784 1_554
Mg0 Sm0 3.428784 1_455
Mg0 Sm3 3.428784 1_444
Mg0 Sm3 3.428784 1_445
Mg0 Sm0 3.428784 1_454
Mg0 Sm1 3.428784 1_544
Mg0 Sm1 3.428784 1_545
Mg1 Sm1 3.428784 1_555
Mg1 Sm0 3.428784 1_555
Mg1 Sm1 3.428784 1_554
Mg1 Sm0 3.428784 1_554
Mg1 Sm2 3.428784 1_555
Mg1 Sm2 3.428784 1_554
Mg1 Sm3 3.428784 1_554
Mg1 Sm3 3.428784 1_555
Cu0 Cu1 2.651947 1_455
Cu0 Sm1 2.954433 1_554
Cu0 Sm1 2.954433 1_555
Cu0 Sm3 2.956587 1_455
Cu0 Sm3 2.956587 1_454
Cu0 Sm2 2.956587 1_555
Cu0 Sm2 2.956587 1_554
Cu0 Mg0 3.070776 1_565
Cu0 Mg1 3.070776 1_555
Cu1 Sm0 2.954433 1_554
Cu1 Sm0 2.954433 1_555
Cu1 Sm2 2.956587 1_654
Cu1 Sm2 2.956587 1_655
Cu1 Sm3 2.956587 1_554
Cu1 Sm3 2.956587 1_555
Cu1 Mg0 3.070776 1_655
Cu1 Mg1 3.070776 1_555
Cu2 Cu3 2.651947 1_565
Cu2 Sm3 2.954433 1_554
Cu2 Sm3 2.954433 1_555
Cu2 Sm0 2.956587 1_564
Cu2 Sm1 2.956587 1_554
Cu2 Sm1 2.956587 1_555
Cu2 Sm0 2.956587 1_565
Cu2 Mg1 3.070776 1_555
Cu2 Mg0 3.070776 1_665
Cu3 Sm2 2.954433 1_555
Cu3 Sm2 2.954433 1_554
Cu3 Sm0 2.956587 1_554
Cu3 Sm1 2.956587 1_544
Cu3 Sm1 2.956587 1_545
Cu3 Sm0 2.956587 1_555
Cu3 Mg1 3.070776 1_555
Cu3 Mg0 3.070776 1_555
