# generated using pymatgen
data_BaYFe4O7
_symmetry_space_group_name_H-M   'P 1'
_cell_length_a   6.54533442
_cell_length_b   6.54533442
_cell_length_c   10.50633800
_cell_angle_alpha   90.00000000
_cell_angle_beta   90.00000000
_cell_angle_gamma   120.00000420
_symmetry_Int_Tables_number   1
_chemical_formula_structural   BaYFe4O7
_chemical_formula_sum   'Ba2 Y2 Fe8 O14'
_cell_volume   389.80343579
_cell_formula_units_Z   2
loop_
 _symmetry_equiv_pos_site_id
 _symmetry_equiv_pos_as_xyz
  1  'x, y, z'
loop_
 _atom_site_type_symbol
 _atom_site_label
 _atom_site_symmetry_multiplicity
 _atom_site_fract_x
 _atom_site_fract_y
 _atom_site_fract_z
 _atom_site_occupancy
  Ba  Ba0  1  0.66666700  0.33333300  0.48402500  1
  Ba  Ba1  1  0.33333300  0.66666700  0.98402500  1
  Y  Y0  1  0.66666700  0.33333300  0.87802400  1
  Y  Y1  1  0.33333300  0.66666700  0.37802400  1
  Fe  Fe0  1  0.82846300  0.17153700  0.19487400  1
  Fe  Fe1  1  0.65692500  0.82846300  0.69487400  1
  Fe  Fe2  1  0.17153700  0.34307500  0.69487400  1
  Fe  Fe3  1  0.82846300  0.65692500  0.19487400  1
  Fe  Fe4  1  0.34307500  0.17153700  0.19487400  1
  Fe  Fe5  1  0.17153700  0.82846300  0.69487400  1
  Fe  Fe6  1  0.00000000  0.00000000  0.44596000  1
  Fe  Fe7  1  0.00000000  0.00000000  0.94596000  1
  O  O0  1  0.83835900  0.16164100  0.99976300  1
  O  O1  1  0.67671700  0.83835900  0.49976300  1
  O  O2  1  0.16164100  0.32328300  0.49976300  1
  O  O3  1  0.83835900  0.67671700  0.99976300  1
  O  O4  1  0.32328300  0.16164100  0.99976300  1
  O  O5  1  0.16164100  0.83835900  0.49976300  1
  O  O6  1  0.00000000  0.00000000  0.76149100  1
  O  O7  1  0.00000000  0.00000000  0.26149100  1
  O  O8  1  0.49952400  0.50047600  0.26019500  1
  O  O9  1  0.99904900  0.49952400  0.76019500  1
  O  O10  1  0.50047600  0.00095100  0.76019500  1
  O  O11  1  0.49952400  0.99904900  0.26019500  1
  O  O12  1  0.50047600  0.49952400  0.76019500  1
  O  O13  1  0.00095100  0.50047600  0.26019500  1
loop_
_geom_bond_atom_site_label_1
_geom_bond_atom_site_label_2
_geom_bond_distance
_geom_bond_site_symmetry_2
Ba0 O13 3.020048 1_655
Ba0 O11 3.020048 1_545
Ba0 O8 3.020055 1_555
Ba0 O2 3.277330 1_655
Ba0 O1 3.277330 1_545
Ba0 O5 3.277337 1_655
Ba0 O5 3.277337 1_545
Ba0 O1 3.277343 1_555
Ba0 O2 3.277343 1_555
Ba0 O9 3.459577 1_555
Ba0 O10 3.459577 1_555
Ba0 O12 3.459577 1_555
Ba1 O10 3.020048 1_565
Ba1 O9 3.020048 1_455
Ba1 O12 3.020055 1_555
Ba1 O4 3.277330 1_565
Ba1 O3 3.277330 1_455
Ba1 O0 3.277337 1_565
Ba1 O0 3.277337 1_455
Ba1 O3 3.277343 1_555
Ba1 O4 3.277343 1_555
Ba1 O11 3.459577 1_556
Ba1 O13 3.459577 1_556
Ba1 O8 3.459577 1_556
Fe0 O13 1.987548 1_655
Fe0 O11 1.987548 1_545
Fe0 O0 2.052970 1_554
Fe0 O7 2.066804 1_655
Fe1 O10 1.987538 1_565
Fe1 O12 1.987549 1_555
Fe1 O1 2.052970 1_555
Fe1 O6 2.066809 1_665
Fe2 O9 1.987538 1_455
Fe2 O12 1.987549 1_555
Fe2 O2 2.052970 1_555
Fe2 O6 2.066809 1_555
Fe3 O13 1.987538 1_655
Fe3 O8 1.987549 1_555
Fe3 O3 2.052970 1_554
Fe3 O7 2.066809 1_665
Fe4 O11 1.987538 1_545
Fe4 O8 1.987549 1_555
Fe4 O4 2.052970 1_554
Fe4 O7 2.066809 1_555
Fe5 O10 1.987548 1_565
Fe5 O9 1.987548 1_455
Fe5 O5 2.052970 1_555
Fe5 O6 2.066804 1_565
Fe6 O5 1.917704 1_545
Fe6 O1 1.917710 1_445
Fe6 O2 1.917710 1_555
Fe6 O7 1.938094 1_555
Fe7 O0 1.917704 1_455
Fe7 O3 1.917710 1_445
Fe7 O4 1.917710 1_555
Fe7 O6 1.938094 1_555
O0 Y0 2.329072 1_555
O1 Y1 2.329072 1_555
O2 Y1 2.329072 1_555
O3 Y0 2.329072 1_555
O4 Y0 2.329072 1_555
O5 Y1 2.329072 1_555
O8 Y1 2.254394 1_555
O9 Y0 2.254394 1_555
O10 Y0 2.254394 1_555
O11 Y1 2.254394 1_555
O12 Y0 2.254394 1_555
O13 Y1 2.254394 1_555
