# generated using pymatgen
data_Ba3V4(PO4)6
_symmetry_space_group_name_H-M   'P 1'
_cell_length_a   10.08244100
_cell_length_b   10.05073800
_cell_length_c   10.07723152
_cell_angle_alpha   89.82967992
_cell_angle_beta   90.00000000
_cell_angle_gamma   90.00000000
_symmetry_Int_Tables_number   1
_chemical_formula_structural   Ba3V4(PO4)6
_chemical_formula_sum   'Ba6 V8 P12 O48'
_cell_volume   1021.18154865
_cell_formula_units_Z   2
loop_
 _symmetry_equiv_pos_site_id
 _symmetry_equiv_pos_as_xyz
  1  'x, y, z'
loop_
 _atom_site_type_symbol
 _atom_site_label
 _atom_site_symmetry_multiplicity
 _atom_site_fract_x
 _atom_site_fract_y
 _atom_site_fract_z
 _atom_site_occupancy
  Ba  Ba0  1  0.80076100  0.70350000  0.94843500  1
  Ba  Ba1  1  0.30076100  0.29650000  0.05156500  1
  Ba  Ba2  1  0.42439700  0.57341600  0.66549600  1
  Ba  Ba3  1  0.92439700  0.42658400  0.33450400  1
  Ba  Ba4  1  0.56439100  0.93566500  0.19634900  1
  Ba  Ba5  1  0.06439100  0.06433500  0.80365100  1
  V  V0  1  0.91461900  0.08553500  0.16509100  1
  V  V1  1  0.41461900  0.91446500  0.83490900  1
  V  V2  1  0.08673300  0.41286800  0.66465200  1
  V  V3  1  0.58673300  0.58713200  0.33534800  1
  V  V4  1  0.64949300  0.35041100  0.89291800  1
  V  V5  1  0.14949300  0.64958900  0.10708200  1
  V  V6  1  0.35446100  0.14542000  0.40255400  1
  V  V7  1  0.85446100  0.85458000  0.59744600  1
  P  P0  1  0.22795100  0.96115900  0.12143500  1
  P  P1  1  0.04042900  0.12640400  0.47764200  1
  P  P2  1  0.87248200  0.77119900  0.28861300  1
  P  P3  1  0.72795100  0.03884100  0.87856500  1
  P  P4  1  0.54042900  0.87359600  0.52235800  1
  P  P5  1  0.37248200  0.22880100  0.71138700  1
  P  P6  1  0.77192700  0.53944400  0.62500400  1
  P  P7  1  0.96301900  0.37346700  0.97862600  1
  P  P8  1  0.12545800  0.72723700  0.78978000  1
  P  P9  1  0.27192700  0.46055600  0.37499600  1
  P  P10  1  0.46301900  0.62653300  0.02137400  1
  P  P11  1  0.62545800  0.27276300  0.21022000  1
  O  O0  1  0.08241200  0.99881600  0.09363500  1
  O  O1  1  0.99614700  0.15490200  0.33312300  1
  O  O2  1  0.84465200  0.91731200  0.24964100  1
  O  O3  1  0.58241200  0.00118400  0.90636500  1
  O  O4  1  0.49614700  0.84509800  0.66687700  1
  O  O5  1  0.34465200  0.08268800  0.75035900  1
  O  O6  1  0.91658100  0.49719700  0.59885200  1
  O  O7  1  0.00006000  0.34452500  0.83375900  1
  O  O8  1  0.15316600  0.58281500  0.74649400  1
  O  O9  1  0.41658100  0.50280300  0.40114800  1
  O  O10  1  0.50006000  0.65547500  0.16624100  1
  O  O11  1  0.65316600  0.41718500  0.25350600  1
  O  O12  1  0.29676700  0.05474800  0.22225700  1
  O  O13  1  0.95621300  0.02076200  0.55057800  1
  O  O14  1  0.97007200  0.70060400  0.19297500  1
  O  O15  1  0.79676700  0.94525200  0.77774300  1
  O  O16  1  0.45621300  0.97923800  0.44942200  1
  O  O17  1  0.47007200  0.29939600  0.80702500  1
  O  O18  1  0.69943400  0.45662000  0.73182500  1
  O  O19  1  0.05726500  0.47456800  0.04594100  1
  O  O20  1  0.01708400  0.79874400  0.70935100  1
  O  O21  1  0.19943400  0.54338000  0.26817500  1
  O  O22  1  0.55726500  0.52543200  0.95405900  1
  O  O23  1  0.51708400  0.20125600  0.29064900  1
  O  O24  1  0.24421100  0.81434900  0.16267400  1
  O  O25  1  0.18675600  0.08316400  0.48608900  1
  O  O26  1  0.91601900  0.75463500  0.43324400  1
  O  O27  1  0.74421100  0.18565100  0.83732600  1
  O  O28  1  0.68675600  0.91683600  0.51391100  1
  O  O29  1  0.41601900  0.24536500  0.56675600  1
  O  O30  1  0.76676800  0.68593400  0.67547400  1
  O  O31  1  0.81890600  0.42651400  0.98938000  1
  O  O32  1  0.07512500  0.73011400  0.93686300  1
  O  O33  1  0.26676800  0.31406600  0.32452600  1
  O  O34  1  0.31890600  0.57348600  0.01062000  1
  O  O35  1  0.57512500  0.26988600  0.06313700  1
  O  O36  1  0.30562600  0.99017000  0.98973400  1
  O  O37  1  0.01832500  0.25847300  0.55524300  1
  O  O38  1  0.73820100  0.69665200  0.25941000  1
  O  O39  1  0.80562600  0.00983000  0.01026600  1
  O  O40  1  0.51832500  0.74152700  0.44475700  1
  O  O41  1  0.23820100  0.30334800  0.74059000  1
  O  O42  1  0.69604500  0.52211100  0.49340900  1
  O  O43  1  0.98675800  0.24158800  0.05661800  1
  O  O44  1  0.25566800  0.80535500  0.77425600  1
  O  O45  1  0.19604500  0.47788900  0.50659100  1
  O  O46  1  0.48675800  0.75841200  0.94338200  1
  O  O47  1  0.75566800  0.19464500  0.22574400  1
loop_
_geom_bond_atom_site_label_1
_geom_bond_atom_site_label_2
_geom_bond_distance
_geom_bond_site_symmetry_2
Ba0 O30 2.778097 1_555
Ba0 O32 2.781574 1_655
Ba0 O31 2.819054 1_555
Ba0 O15 2.973111 1_555
Ba0 O14 2.997867 1_556
Ba0 O22 3.038565 1_555
Ba0 O39 3.143456 1_566
Ba0 O38 3.197156 1_556
Ba0 O46 3.214040 1_555
Ba1 O33 2.778097 1_555
Ba1 O35 2.781574 1_555
Ba1 O34 2.819054 1_555
Ba1 O12 2.973111 1_555
Ba1 O17 2.997867 1_554
Ba1 O19 3.038565 1_555
Ba1 O36 3.143456 1_544
Ba1 O41 3.197156 1_554
Ba1 O43 3.214040 1_455
Ba2 O9 2.759979 1_555
Ba2 O4 2.824881 1_555
Ba2 O8 2.855529 1_555
Ba2 O40 2.945762 1_555
Ba2 O45 2.965804 1_555
Ba2 O18 3.083812 1_555
Ba2 O44 3.089464 1_555
Ba2 O17 3.131758 1_555
Ba2 O22 3.236487 1_555
Ba2 O42 3.283285 1_555
Ba2 O41 3.384170 1_555
Ba2 O46 3.424216 1_555
Ba2 O29 3.447890 1_555
Ba3 O6 2.759979 1_555
Ba3 O1 2.824881 1_555
Ba3 O11 2.855529 1_555
Ba3 O37 2.945762 1_655
Ba3 O42 2.965804 1_555
Ba3 O21 3.083812 1_655
Ba3 O47 3.089464 1_555
Ba3 O14 3.131758 1_555
Ba3 O19 3.236487 1_655
Ba3 O45 3.283285 1_655
Ba3 O38 3.384170 1_555
Ba3 O43 3.424216 1_555
Ba3 O26 3.447890 1_555
Ba4 O16 2.809263 1_555
Ba4 O23 2.875976 1_565
Ba4 O2 2.882102 1_555
Ba4 O10 2.906604 1_555
Ba4 O12 2.963674 1_565
Ba4 O3 2.999113 1_564
Ba4 O38 3.039178 1_555
Ba4 O39 3.159033 1_565
Ba4 O40 3.203173 1_555
Ba4 O46 3.211222 1_554
Ba4 O47 3.253750 1_565
Ba4 O36 3.381609 1_554
Ba4 O28 3.434422 1_555
Ba4 O24 3.467794 1_555
Ba5 O13 2.809263 1_455
Ba5 O20 2.875976 1_545
Ba5 O5 2.882102 1_555
Ba5 O7 2.906604 1_555
Ba5 O15 2.963674 1_445
Ba5 O0 2.999113 1_546
Ba5 O41 3.039178 1_555
Ba5 O36 3.159033 1_545
Ba5 O37 3.203173 1_555
Ba5 O43 3.211222 1_456
Ba5 O44 3.253750 1_545
Ba5 O39 3.381609 1_456
Ba5 O25 3.434422 1_555
Ba5 O27 3.467794 1_455
O0 P0 1.540886 1_555
O0 V0 2.035676 1_465
O1 P1 1.549147 1_655
O1 V0 2.008988 1_555
O2 P2 1.544720 1_555
O2 V0 2.018346 1_565
O3 P3 1.540886 1_555
O3 V1 2.035676 1_545
O4 P4 1.549147 1_555
O4 V1 2.008988 1_555
O5 P5 1.544720 1_555
O5 V1 2.018346 1_545
O6 P6 1.541926 1_555
O6 V2 2.024305 1_655
O7 P7 1.535514 1_455
O7 V2 2.032877 1_555
O8 P8 1.542424 1_555
O8 V2 2.013652 1_555
O9 P9 1.541926 1_555
O9 V3 2.024305 1_555
O10 P10 1.535514 1_555
O10 V3 2.032877 1_555
O11 P11 1.542424 1_555
O11 V3 2.013652 1_555
O12 P0 1.550534 1_545
O12 V6 2.116560 1_555
O13 P1 1.543997 1_655
O13 V7 2.015095 1_545
O14 P2 1.550643 1_555
O14 V5 2.070562 1_655
O15 P3 1.550534 1_565
O15 V7 2.116560 1_555
O16 P4 1.543997 1_555
O16 V6 2.015095 1_565
O17 P5 1.550643 1_555
O17 V4 2.070562 1_555
O18 P6 1.542927 1_555
O18 V4 2.004516 1_555
O19 P7 1.549107 1_454
O19 V5 2.084501 1_555
O20 P8 1.537503 1_555
O20 V7 2.066706 1_455
O21 P9 1.542927 1_555
O21 V5 2.004516 1_555
O22 P10 1.549107 1_556
O22 V4 2.084501 1_555
O23 P11 1.537503 1_555
O23 V6 2.066706 1_555
O24 P0 1.540512 1_555
O24 V5 1.993379 1_555
O25 P1 1.540294 1_555
O25 V6 1.988990 1_555
O26 P2 1.530754 1_555
O26 V7 2.035238 1_555
O27 P3 1.540512 1_555
O27 V4 1.993379 1_555
O28 P4 1.540294 1_555
O28 V7 1.988990 1_555
O29 P5 1.530754 1_555
O29 V6 2.035238 1_555
O30 P6 1.559998 1_555
O30 V7 2.065230 1_555
O31 P7 1.551641 1_555
O31 V4 2.109975 1_555
O32 P8 1.567007 1_555
O32 V5 2.037490 1_556
O33 P9 1.559998 1_555
O33 V6 2.065230 1_555
O34 P10 1.551641 1_555
O34 V5 2.109975 1_555
O35 P11 1.567007 1_555
O35 V4 2.037490 1_554
O36 P0 1.567629 1_556
O36 V1 2.056180 1_555
O37 P1 1.558632 1_555
O37 V2 2.027193 1_555
O38 P2 1.575527 1_555
O38 V3 2.030886 1_555
O39 P3 1.567629 1_554
O39 V0 2.056180 1_555
O40 P4 1.558632 1_555
O40 V3 2.027193 1_555
O41 P5 1.575527 1_555
O41 V2 2.030886 1_555
O42 P6 1.541311 1_555
O42 V3 2.042706 1_555
O43 P7 1.557466 1_554
O43 V0 2.042973 1_555
O44 P8 1.537442 1_555
O44 V1 2.036799 1_555
O45 P9 1.541311 1_555
O45 V2 2.042706 1_555
O46 P10 1.557466 1_556
O46 V1 2.042973 1_555
O47 P11 1.537442 1_555
O47 V0 2.036799 1_555
