# generated using pymatgen
data_Ba2B6PbO12
_symmetry_space_group_name_H-M   'P 1'
_cell_length_a   13.43347425
_cell_length_b   13.43347425
_cell_length_c   13.43347399
_cell_angle_alpha   31.45023655
_cell_angle_beta   31.45023655
_cell_angle_gamma   31.45023435
_symmetry_Int_Tables_number   1
_chemical_formula_structural   Ba2B6PbO12
_chemical_formula_sum   'Ba4 B12 Pb2 O24'
_cell_volume   585.84739700
_cell_formula_units_Z   2
loop_
 _symmetry_equiv_pos_site_id
 _symmetry_equiv_pos_as_xyz
  1  'x, y, z'
loop_
 _atom_site_type_symbol
 _atom_site_label
 _atom_site_symmetry_multiplicity
 _atom_site_fract_x
 _atom_site_fract_y
 _atom_site_fract_z
 _atom_site_occupancy
  Ba  Ba0  1  0.14885600  0.14885600  0.14885600  1
  Ba  Ba1  1  0.64885600  0.64885600  0.64885600  1
  Ba  Ba2  1  0.85114400  0.85114400  0.85114400  1
  Ba  Ba3  1  0.35114400  0.35114400  0.35114400  1
  B  B0  1  0.49858900  0.24591800  0.63382000  1
  B  B1  1  0.63382000  0.49858900  0.24591800  1
  B  B2  1  0.24591800  0.63382000  0.49858900  1
  B  B3  1  0.13382000  0.74591800  0.99858900  1
  B  B4  1  0.99858900  0.13382000  0.74591800  1
  B  B5  1  0.74591800  0.99858900  0.13382000  1
  B  B6  1  0.50141100  0.75408200  0.36618000  1
  B  B7  1  0.36618000  0.50141100  0.75408200  1
  B  B8  1  0.75408200  0.36618000  0.50141100  1
  B  B9  1  0.86618000  0.25408200  0.00141100  1
  B  B10  1  0.00141100  0.86618000  0.25408200  1
  B  B11  1  0.25408200  0.00141100  0.86618000  1
  Pb  Pb0  1  0.25000000  0.25000000  0.25000000  1
  Pb  Pb1  1  0.75000000  0.75000000  0.75000000  1
  O  O0  1  0.28887500  0.42087100  0.66507100  1
  O  O1  1  0.66507100  0.28887500  0.42087100  1
  O  O2  1  0.42087100  0.66507100  0.28887500  1
  O  O3  1  0.16507100  0.92087100  0.78887500  1
  O  O4  1  0.78887500  0.16507100  0.92087100  1
  O  O5  1  0.92087100  0.78887500  0.16507100  1
  O  O6  1  0.71112500  0.57912900  0.33492900  1
  O  O7  1  0.33492900  0.71112500  0.57912900  1
  O  O8  1  0.57912900  0.33492900  0.71112500  1
  O  O9  1  0.83492900  0.07912900  0.21112500  1
  O  O10  1  0.21112500  0.83492900  0.07912900  1
  O  O11  1  0.07912900  0.21112500  0.83492900  1
  O  O12  1  0.05329200  0.80252700  0.53126200  1
  O  O13  1  0.53126200  0.05329200  0.80252800  1
  O  O14  1  0.80252800  0.53126200  0.05329200  1
  O  O15  1  0.03126200  0.30252700  0.55329200  1
  O  O16  1  0.55329200  0.03126200  0.30252800  1
  O  O17  1  0.30252800  0.55329200  0.03126200  1
  O  O18  1  0.94670800  0.19747200  0.46873800  1
  O  O19  1  0.46873800  0.94670800  0.19747300  1
  O  O20  1  0.19747200  0.46873800  0.94670800  1
  O  O21  1  0.96873800  0.69747200  0.44670800  1
  O  O22  1  0.44670800  0.96873800  0.69747200  1
  O  O23  1  0.69747200  0.44670800  0.96873800  1
loop_
_geom_bond_atom_site_label_1
_geom_bond_atom_site_label_2
_geom_bond_distance
_geom_bond_site_symmetry_2
Ba0 O14 2.800598 1_455
Ba0 O13 2.800598 1_554
Ba0 O12 2.800605 1_545
Ba0 O18 2.849340 1_455
Ba0 O20 2.849340 1_554
Ba0 O19 2.849349 1_545
Ba0 O2 3.078731 1_545
Ba0 O1 3.078731 1_455
Ba0 O0 3.078731 1_554
Ba1 O16 2.800598 1_565
Ba1 O17 2.800598 1_556
Ba1 O15 2.800604 1_655
Ba1 O22 2.849340 1_555
Ba1 O23 2.849340 1_555
Ba1 O21 2.849340 1_555
Ba1 O3 3.078731 1_555
Ba1 O4 3.078731 1_555
Ba1 O5 3.078731 1_555
Ba2 O20 2.800598 1_655
Ba2 O18 2.800598 1_565
Ba2 O19 2.800605 1_556
Ba2 O13 2.849340 1_565
Ba2 O14 2.849340 1_556
Ba2 O12 2.849349 1_655
Ba2 O8 3.078731 1_565
Ba2 O7 3.078731 1_655
Ba2 O6 3.078731 1_556
Ba3 O21 2.800598 1_455
Ba3 O22 2.800598 1_545
Ba3 O23 2.800598 1_554
Ba3 O16 2.849340 1_555
Ba3 O17 2.849340 1_555
Ba3 O15 2.849349 1_555
Ba3 O9 3.078731 1_555
Ba3 O10 3.078731 1_555
Ba3 O11 3.078731 1_555
B0 O13 1.333535 1_555
B0 O1 1.409881 1_555
B0 O0 1.416038 1_555
B1 O14 1.333535 1_555
B1 O2 1.409881 1_555
B1 O1 1.416038 1_555
B2 O12 1.333531 1_555
B2 O0 1.409881 1_555
B2 O2 1.416038 1_555
B3 O17 1.333535 1_556
B3 O5 1.409881 1_456
B3 O3 1.416038 1_555
B4 O15 1.333531 1_655
B4 O3 1.409881 1_645
B4 O4 1.416038 1_555
B5 O16 1.333535 1_565
B5 O4 1.409881 1_564
B5 O5 1.416038 1_555
B6 O19 1.333531 1_555
B6 O7 1.409881 1_555
B6 O6 1.416038 1_555
B7 O20 1.333535 1_555
B7 O8 1.409881 1_555
B7 O7 1.416038 1_555
B8 O18 1.333535 1_555
B8 O6 1.409881 1_555
B8 O8 1.416038 1_555
B9 O23 1.333535 1_554
B9 O11 1.409881 1_654
B9 O9 1.416038 1_555
B10 O21 1.333535 1_455
B10 O9 1.409881 1_465
B10 O10 1.416038 1_555
B11 O22 1.333535 1_545
B11 O10 1.409881 1_546
B11 O11 1.416038 1_555
O12 Pb1 2.583221 1_455
O13 Pb1 2.583229 1_545
O14 Pb1 2.583229 1_554
O15 Pb0 2.583220 1_555
O16 Pb0 2.583229 1_555
O17 Pb0 2.583229 1_555
O18 Pb0 2.583229 1_655
O19 Pb0 2.583220 1_565
O20 Pb0 2.583229 1_556
O21 Pb1 2.583229 1_555
O22 Pb1 2.583229 1_555
O23 Pb1 2.583229 1_555
