# generated using pymatgen
data_Li2TiFe3O8
_symmetry_space_group_name_H-M   'P 1'
_cell_length_a   6.04766523
_cell_length_b   5.98725551
_cell_length_c   8.38699976
_cell_angle_alpha   90.07862832
_cell_angle_beta   90.04627851
_cell_angle_gamma   88.41157487
_symmetry_Int_Tables_number   1
_chemical_formula_structural   Li2TiFe3O8
_chemical_formula_sum   'Li4 Ti2 Fe6 O16'
_cell_volume   303.56710665
_cell_formula_units_Z   2
loop_
 _symmetry_equiv_pos_site_id
 _symmetry_equiv_pos_as_xyz
  1  'x, y, z'
loop_
 _atom_site_type_symbol
 _atom_site_label
 _atom_site_symmetry_multiplicity
 _atom_site_fract_x
 _atom_site_fract_y
 _atom_site_fract_z
 _atom_site_occupancy
  Li  Li0  1  0.99720900  0.24220600  0.13193500  1
  Li  Li1  1  0.49986200  0.74469400  0.63132100  1
  Li  Li2  1  0.00075200  0.75427000  0.86906600  1
  Li  Li3  1  0.50140200  0.25623700  0.36852200  1
  Ti  Ti0  1  0.00966700  0.99946600  0.50091700  1
  Ti  Ti1  1  0.50908400  0.50463700  0.99862500  1
  Fe  Fe0  1  0.49584700  0.00200000  0.00039400  1
  Fe  Fe1  1  0.74862800  0.24697400  0.74803200  1
  Fe  Fe2  1  0.74913800  0.75217500  0.25265300  1
  Fe  Fe3  1  0.99518300  0.49723700  0.49962600  1
  Fe  Fe4  1  0.24886300  0.74681100  0.24789300  1
  Fe  Fe5  1  0.24896200  0.25256700  0.75280700  1
  O  O0  1  0.00211600  0.51970100  0.27146200  1
  O  O1  1  0.50166700  0.02128300  0.77174100  1
  O  O2  1  0.99411800  0.47933400  0.72794400  1
  O  O3  1  0.49428600  0.98059300  0.22804700  1
  O  O4  1  0.23036000  0.76160500  0.49123000  1
  O  O5  1  0.72878300  0.26303200  0.99113700  1
  O  O6  1  0.78367300  0.74446000  0.49588600  1
  O  O7  1  0.28301200  0.24714300  0.99589900  1
  O  O8  1  0.99279100  0.97372800  0.26612800  1
  O  O9  1  0.49257500  0.47566400  0.76525100  1
  O  O10  1  0.00732900  0.02410800  0.73499300  1
  O  O11  1  0.50740900  0.52531700  0.23395400  1
  O  O12  1  0.21655400  0.25404500  0.50459600  1
  O  O13  1  0.71704200  0.75645200  0.00450900  1
  O  O14  1  0.77182000  0.23606300  0.50795400  1
  O  O15  1  0.27187000  0.73819700  0.00747600  1
loop_
_geom_bond_atom_site_label_1
_geom_bond_atom_site_label_2
_geom_bond_distance
_geom_bond_site_symmetry_2
Li0 O8 1.964355 1_545
Li0 O5 2.007825 1_554
Li0 O0 2.031743 1_655
Li0 O7 2.072733 1_654
Li1 O9 1.966515 1_555
Li1 O4 2.008797 1_555
Li1 O1 2.031033 1_565
Li1 O6 2.058950 1_555
Li2 O10 1.970981 1_565
Li2 O15 2.008406 1_556
Li2 O2 2.027416 1_455
Li2 O13 2.058240 1_456
Li3 O11 1.969490 1_555
Li3 O14 2.010720 1_555
Li3 O3 2.027831 1_545
Li3 O12 2.067529 1_555
Fe0 O3 1.913847 1_545
Fe0 O1 1.921752 1_554
Fe0 O7 1.925557 1_554
Fe0 O13 1.960375 1_545
Fe0 O15 2.109971 1_545
Fe0 O5 2.134393 1_554
Fe1 O14 2.019368 1_555
Fe1 O10 2.030857 1_655
Fe1 O9 2.043484 1_555
Fe1 O5 2.044521 1_555
Fe1 O1 2.051640 1_555
Fe1 O2 2.069670 1_555
Fe2 O8 2.012794 1_555
Fe2 O11 2.028725 1_555
Fe2 O3 2.042497 1_555
Fe2 O0 2.045739 1_655
Fe2 O6 2.050944 1_555
Fe2 O13 2.090186 1_555
Fe3 O2 1.918074 1_555
Fe3 O0 1.919090 1_655
Fe3 O6 1.929569 1_555
Fe3 O12 1.950938 1_655
Fe3 O14 2.095798 1_555
Fe3 O4 2.158349 1_655
Fe4 O15 2.021773 1_555
Fe4 O11 2.025358 1_555
Fe4 O8 2.037316 1_455
Fe4 O4 2.045686 1_555
Fe4 O0 2.056340 1_555
Fe4 O3 2.075108 1_555
Fe5 O9 2.018451 1_555
Fe5 O10 2.034370 1_555
Fe5 O2 2.036283 1_455
Fe5 O1 2.039921 1_555
Fe5 O7 2.049231 1_555
Fe5 O12 2.090802 1_555
O4 Ti0 1.926293 1_555
O5 Ti1 1.937818 1_555
O6 Ti0 2.077556 1_655
O7 Ti1 2.088845 1_555
O8 Ti0 1.977759 1_655
O9 Ti1 1.967441 1_555
O10 Ti0 1.968562 1_545
O11 Ti1 1.977431 1_554
O12 Ti0 1.998806 1_545
O13 Ti1 1.990493 1_554
O14 Ti0 1.991516 1_645
O15 Ti1 1.976792 1_554
