# generated using pymatgen
data_Ag3Se
_symmetry_space_group_name_H-M   'P 1'
_cell_length_a   6.02630096
_cell_length_b   6.02630096
_cell_length_c   4.85159300
_cell_angle_alpha   90.00000000
_cell_angle_beta   90.00000000
_cell_angle_gamma   120.00001055
_symmetry_Int_Tables_number   1
_chemical_formula_structural   Ag3Se
_chemical_formula_sum   'Ag6 Se2'
_cell_volume   152.58666480
_cell_formula_units_Z   2
loop_
 _symmetry_equiv_pos_site_id
 _symmetry_equiv_pos_as_xyz
  1  'x, y, z'
loop_
 _atom_site_type_symbol
 _atom_site_label
 _atom_site_symmetry_multiplicity
 _atom_site_fract_x
 _atom_site_fract_y
 _atom_site_fract_z
 _atom_site_occupancy
  Ag  Ag0  1  0.16250400  0.32500900  0.25000000  1
  Ag  Ag1  1  0.67499100  0.83749600  0.25000000  1
  Ag  Ag2  1  0.16250400  0.83749600  0.25000000  1
  Ag  Ag3  1  0.83749600  0.67499100  0.75000000  1
  Ag  Ag4  1  0.32500900  0.16250400  0.75000000  1
  Ag  Ag5  1  0.83749600  0.16250400  0.75000000  1
  Se  Se0  1  0.33333300  0.66666700  0.75000000  1
  Se  Se1  1  0.66666700  0.33333300  0.25000000  1
loop_
_geom_bond_atom_site_label_1
_geom_bond_atom_site_label_2
_geom_bond_distance
_geom_bond_site_symmetry_2
Ag0 Ag1 2.937900 1_445
Ag0 Ag2 2.937900 1_545
Ag0 Ag5 2.959994 1_454
Ag0 Ag5 2.959994 1_455
Ag0 Ag4 2.960000 1_555
Ag0 Ag4 2.960000 1_554
Ag0 Se0 3.010630 1_555
Ag0 Se0 3.010630 1_554
Ag0 Se1 3.013458 1_455
Ag0 Se1 3.013470 1_555
Ag0 Ag1 3.088400 1_555
Ag0 Ag2 3.088401 1_555
Ag1 Ag2 2.937900 1_655
Ag1 Ag5 2.959994 1_565
Ag1 Ag5 2.959994 1_564
Ag1 Ag3 2.960000 1_555
Ag1 Ag3 2.960000 1_554
Ag1 Se0 3.010630 1_555
Ag1 Se0 3.010630 1_554
Ag1 Se1 3.013458 1_565
Ag1 Se1 3.013470 1_555
Ag1 Ag2 3.088401 1_555
Ag2 Ag3 2.959994 1_454
Ag2 Ag3 2.959994 1_455
Ag2 Ag4 2.959994 1_565
Ag2 Ag4 2.959994 1_564
Ag2 Se0 3.010630 1_555
Ag2 Se0 3.010630 1_554
Ag2 Se1 3.013463 1_455
Ag2 Se1 3.013463 1_565
Ag3 Ag4 2.937900 1_665
Ag3 Ag5 2.937900 1_565
Ag3 Se1 3.010630 1_555
Ag3 Se1 3.010630 1_556
Ag3 Se0 3.013458 1_655
Ag3 Se0 3.013470 1_555
Ag3 Ag4 3.088400 1_555
Ag3 Ag5 3.088401 1_555
Ag4 Ag5 2.937900 1_455
Ag4 Se1 3.010630 1_555
Ag4 Se1 3.010630 1_556
Ag4 Se0 3.013458 1_545
Ag4 Se0 3.013470 1_555
Ag4 Ag5 3.088401 1_555
Ag5 Se1 3.010630 1_555
Ag5 Se1 3.010630 1_556
Ag5 Se0 3.013463 1_545
Ag5 Se0 3.013463 1_655
