# generated using pymatgen
data_CsTb2Cl7
_symmetry_space_group_name_H-M   'P 1'
_cell_length_a   7.00645764
_cell_length_b   12.72291826
_cell_length_c   13.54704878
_cell_angle_alpha   90.00000000
_cell_angle_beta   90.00000000
_cell_angle_gamma   90.00000000
_symmetry_Int_Tables_number   1
_chemical_formula_structural   CsTb2Cl7
_chemical_formula_sum   'Cs4 Tb8 Cl28'
_cell_volume   1207.61898592
_cell_formula_units_Z   4
loop_
 _symmetry_equiv_pos_site_id
 _symmetry_equiv_pos_as_xyz
  1  'x, y, z'
loop_
 _atom_site_type_symbol
 _atom_site_label
 _atom_site_symmetry_multiplicity
 _atom_site_fract_x
 _atom_site_fract_y
 _atom_site_fract_z
 _atom_site_occupancy
  Cs  Cs0  1  0.25000000  0.79998619  0.04090406  1
  Cs  Cs1  1  0.75000000  0.20001381  0.95909594  1
  Cs  Cs2  1  0.75000000  0.29998619  0.45909594  1
  Cs  Cs3  1  0.25000000  0.70001381  0.54090406  1
  Tb  Tb0  1  0.25000000  0.45491871  0.23995638  1
  Tb  Tb1  1  0.75000000  0.54508129  0.76004362  1
  Tb  Tb2  1  0.75000000  0.95491871  0.26004362  1
  Tb  Tb3  1  0.25000000  0.04508129  0.73995638  1
  Tb  Tb4  1  0.25000000  0.15097683  0.24913344  1
  Tb  Tb5  1  0.75000000  0.84902317  0.75086656  1
  Tb  Tb6  1  0.75000000  0.65097683  0.25086656  1
  Tb  Tb7  1  0.25000000  0.34902317  0.74913344  1
  Cl  Cl0  1  0.00861699  0.30179284  0.17934211  1
  Cl  Cl1  1  0.99138301  0.69820716  0.82065789  1
  Cl  Cl2  1  0.99138301  0.80179284  0.32065789  1
  Cl  Cl3  1  0.50861699  0.69820716  0.82065789  1
  Cl  Cl4  1  0.00861699  0.19820716  0.67934211  1
  Cl  Cl5  1  0.49138301  0.30179284  0.17934211  1
  Cl  Cl6  1  0.49138301  0.19820716  0.67934211  1
  Cl  Cl7  1  0.50861699  0.80179284  0.32065789  1
  Cl  Cl8  1  0.00888660  0.56942509  0.12510662  1
  Cl  Cl9  1  0.99111340  0.43057491  0.87489338  1
  Cl  Cl10  1  0.99111340  0.06942509  0.37489338  1
  Cl  Cl11  1  0.50888660  0.43057491  0.87489338  1
  Cl  Cl12  1  0.00888660  0.93057491  0.62510662  1
  Cl  Cl13  1  0.49111340  0.56942509  0.12510662  1
  Cl  Cl14  1  0.49111340  0.93057491  0.62510662  1
  Cl  Cl15  1  0.50888660  0.06942509  0.37489338  1
  Cl  Cl16  1  0.00937670  0.03608859  0.13240957  1
  Cl  Cl17  1  0.99062330  0.96391141  0.86759043  1
  Cl  Cl18  1  0.99062330  0.53608859  0.36759043  1
  Cl  Cl19  1  0.50937670  0.96391141  0.86759043  1
  Cl  Cl20  1  0.00937670  0.46391141  0.63240957  1
  Cl  Cl21  1  0.49062330  0.03608859  0.13240957  1
  Cl  Cl22  1  0.49062330  0.46391141  0.63240957  1
  Cl  Cl23  1  0.50937670  0.53608859  0.36759043  1
  Cl  Cl24  1  0.25000000  0.30529238  0.39080323  1
  Cl  Cl25  1  0.75000000  0.69470762  0.60919677  1
  Cl  Cl26  1  0.75000000  0.80529238  0.10919677  1
  Cl  Cl27  1  0.25000000  0.19470762  0.89080323  1
loop_
_geom_bond_atom_site_label_1
_geom_bond_atom_site_label_2
_geom_bond_distance
_geom_bond_site_symmetry_2
Cl0 Tb0 2.707413 1_555
Cl0 Tb4 2.726916 1_555
Cl0 Cs1 3.723240 1_454
Cl1 Tb1 2.707413 1_555
Cl1 Tb5 2.726916 1_555
Cl1 Cs0 3.723240 1_656
Cl2 Tb2 2.707413 1_555
Cl2 Tb6 2.726916 1_555
Cl2 Cs3 3.723240 1_655
Cl3 Tb1 2.707413 1_555
Cl3 Tb5 2.726916 1_555
Cl3 Cs0 3.723240 1_556
Cl4 Tb3 2.707413 1_555
Cl4 Tb7 2.726916 1_555
Cl4 Cs2 3.723240 1_455
Cl5 Tb0 2.707413 1_555
Cl5 Tb4 2.726916 1_555
Cl5 Cs1 3.723240 1_554
Cl6 Tb3 2.707413 1_555
Cl6 Tb7 2.726916 1_555
Cl6 Cs2 3.723240 1_555
Cl7 Tb2 2.707413 1_555
Cl7 Tb6 2.726916 1_555
Cl7 Cs3 3.723240 1_555
Cl8 Tb6 2.696151 1_455
Cl8 Tb0 2.719758 1_555
Cl8 Cs0 3.572113 1_555
Cl9 Tb7 2.696151 1_655
Cl9 Tb1 2.719758 1_555
Cl9 Cs1 3.572113 1_555
Cl10 Tb4 2.696151 1_655
Cl10 Tb2 2.719758 1_545
Cl10 Cs2 3.572113 1_555
Cl11 Tb7 2.696151 1_555
Cl11 Tb1 2.719758 1_555
Cl11 Cs1 3.572113 1_555
Cl12 Tb5 2.696151 1_455
Cl12 Tb3 2.719758 1_565
Cl12 Cs3 3.572113 1_555
Cl13 Tb6 2.696151 1_555
Cl13 Tb0 2.719758 1_555
Cl13 Cs0 3.572113 1_555
Cl14 Tb5 2.696151 1_555
Cl14 Tb3 2.719758 1_565
Cl14 Cs3 3.572113 1_555
Cl15 Tb4 2.696151 1_555
Cl15 Tb2 2.719758 1_545
Cl15 Cs2 3.572113 1_555
Cl16 Tb2 2.712710 1_445
Cl16 Tb4 2.734834 1_555
Cl16 Cs1 3.628355 1_454
Cl16 Cs0 3.660940 1_545
Cl17 Tb3 2.712710 1_665
Cl17 Tb5 2.734834 1_555
Cl17 Cs0 3.628355 1_656
Cl17 Cs1 3.660940 1_565
Cl18 Tb0 2.712710 1_655
Cl18 Tb6 2.734834 1_555
Cl18 Cs3 3.628355 1_655
Cl18 Cs2 3.660940 1_555
Cl19 Tb3 2.712710 1_565
Cl19 Tb5 2.734834 1_555
Cl19 Cs0 3.628355 1_556
Cl19 Cs1 3.660940 1_565
Cl20 Tb1 2.712710 1_455
Cl20 Tb7 2.734834 1_555
Cl20 Cs2 3.628355 1_455
Cl20 Cs3 3.660940 1_555
Cl21 Tb2 2.712710 1_545
Cl21 Tb4 2.734834 1_555
Cl21 Cs1 3.628355 1_554
Cl21 Cs0 3.660940 1_545
Cl22 Tb1 2.712710 1_555
Cl22 Tb7 2.734834 1_555
Cl22 Cs2 3.628355 1_555
Cl22 Cs3 3.660940 1_555
Cl23 Tb0 2.712710 1_555
Cl23 Tb6 2.734834 1_555
Cl23 Cs3 3.628355 1_555
Cl23 Cs2 3.660940 1_555
Cl24 Tb4 2.745556 1_555
Cl24 Tb0 2.792852 1_555
Cl24 Cs2 3.623962 1_455
Cl24 Cs2 3.623962 1_555
Cl25 Tb5 2.745556 1_555
Cl25 Tb1 2.792852 1_555
Cl25 Cs3 3.623962 1_555
Cl25 Cs3 3.623962 1_655
Cl26 Tb6 2.745556 1_555
Cl26 Tb2 2.792852 1_555
Cl26 Cs0 3.623962 1_555
Cl26 Cs0 3.623962 1_655
Cl27 Tb7 2.745556 1_555
Cl27 Tb3 2.792852 1_555
Cl27 Cs1 3.623962 1_555
Cl27 Cs1 3.623962 1_455
