# generated using pymatgen
data_Ca16Sb11
_symmetry_space_group_name_H-M   'P 1'
_cell_length_a   11.36797787
_cell_length_b   12.26793638
_cell_length_c   12.26911504
_cell_angle_alpha   90.00000000
_cell_angle_beta   90.00000000
_cell_angle_gamma   90.00000000
_symmetry_Int_Tables_number   1
_chemical_formula_structural   Ca16Sb11
_chemical_formula_sum   'Ca32 Sb22'
_cell_volume   1711.07077328
_cell_formula_units_Z   2
loop_
 _symmetry_equiv_pos_site_id
 _symmetry_equiv_pos_as_xyz
  1  'x, y, z'
loop_
 _atom_site_type_symbol
 _atom_site_label
 _atom_site_symmetry_multiplicity
 _atom_site_fract_x
 _atom_site_fract_y
 _atom_site_fract_z
 _atom_site_occupancy
  Ca  Ca0  1  0.13462679  -0.00000000  0.50000000  1
  Ca  Ca1  1  0.86537321  0.50000000  0.00000000  1
  Ca  Ca2  1  0.50079251  0.86929137  0.36930854  1
  Ca  Ca3  1  0.49920749  0.63070863  0.86930854  1
  Ca  Ca4  1  0.50079251  0.13070863  0.63069146  1
  Ca  Ca5  1  0.49920749  0.36929137  0.13069146  1
  Ca  Ca6  1  0.99861525  0.91086078  0.20685088  1
  Ca  Ca7  1  0.00138475  0.58913922  0.70685088  1
  Ca  Ca8  1  0.99861525  0.08913922  0.79314912  1
  Ca  Ca9  1  0.00138475  0.41086078  0.29314912  1
  Ca  Ca10  1  0.00139044  0.79323246  0.91077773  1
  Ca  Ca11  1  0.99860956  0.70676754  0.41077773  1
  Ca  Ca12  1  0.00139044  0.20676754  0.08922227  1
  Ca  Ca13  1  0.99860956  0.29323246  0.58922227  1
  Ca  Ca14  1  0.78319739  -0.00000000  0.50000000  1
  Ca  Ca15  1  0.21680261  0.50000000  0.00000000  1
  Ca  Ca16  1  0.28795629  0.79043919  0.07609371  1
  Ca  Ca17  1  0.71204371  0.70956081  0.57609371  1
  Ca  Ca18  1  0.28795629  0.20956081  0.92390629  1
  Ca  Ca19  1  0.71204371  0.29043919  0.42390629  1
  Ca  Ca20  1  0.71175195  0.92411204  0.79063162  1
  Ca  Ca21  1  0.28824805  0.57588796  0.29063162  1
  Ca  Ca22  1  0.71175195  0.07588696  0.20936838  1
  Ca  Ca23  1  0.28824805  0.42411304  0.70936838  1
  Ca  Ca24  1  0.31753761  0.29716299  0.43042548  1
  Ca  Ca25  1  0.68246239  0.20283701  0.93042548  1
  Ca  Ca26  1  0.31753761  0.70283701  0.56957452  1
  Ca  Ca27  1  0.68246239  0.79716299  0.06957452  1
  Ca  Ca28  1  0.68205726  0.56947886  0.29763226  1
  Ca  Ca29  1  0.31794274  0.93052114  0.79763226  1
  Ca  Ca30  1  0.68205726  0.43052114  0.70236774  1
  Ca  Ca31  1  0.31794274  0.06947886  0.20236774  1
  Sb  Sb0  1  0.15163747  0.50000000  0.50000000  1
  Sb  Sb1  1  0.84836253  -0.00000000  0.00000000  1
  Sb  Sb2  1  0.84827800  0.50000000  0.50000000  1
  Sb  Sb3  1  0.15172200  -0.00000000  0.00000000  1
  Sb  Sb4  1  0.03688195  0.64468700  0.14453879  1
  Sb  Sb5  1  0.96311805  0.85531300  0.64453879  1
  Sb  Sb6  1  0.03688195  0.35531300  0.85546121  1
  Sb  Sb7  1  0.96311805  0.14468700  0.35546121  1
  Sb  Sb8  1  0.48515586  0.62637973  0.12646895  1
  Sb  Sb9  1  0.51484414  0.87362027  0.62646895  1
  Sb  Sb10  1  0.48515586  0.37362027  0.87353105  1
  Sb  Sb11  1  0.51484414  0.12637973  0.37353105  1
  Sb  Sb12  1  0.23649759  0.83698958  0.33697931  1
  Sb  Sb13  1  0.76350241  0.66301042  0.83697931  1
  Sb  Sb14  1  0.23649759  0.16301042  0.66302069  1
  Sb  Sb15  1  0.76350241  0.33698958  0.16302069  1
  Sb  Sb16  1  0.76116425  0.81932025  0.31939468  1
  Sb  Sb17  1  0.23883575  0.68067975  0.81939468  1
  Sb  Sb18  1  0.76116425  0.18067975  0.68060532  1
  Sb  Sb19  1  0.23883575  0.31932025  0.18060532  1
  Sb  Sb20  1  0.50008194  0.50000000  0.50000000  1
  Sb  Sb21  1  0.49991806  -0.00000000  0.00000000  1
loop_
_geom_bond_atom_site_label_1
_geom_bond_atom_site_label_2
_geom_bond_distance
_geom_bond_site_symmetry_2
Ca0 Sb14 3.056272 1_555
Ca0 Sb12 3.056272 1_545
Ca0 Sb7 3.177552 1_455
Ca0 Sb5 3.177552 1_445
Ca1 Sb15 3.056272 1_555
Ca1 Sb13 3.056272 1_554
Ca1 Sb6 3.177552 1_654
Ca1 Sb4 3.177552 1_655
Ca2 Sb12 3.056367 1_555
Ca2 Sb16 3.084131 1_555
Ca2 Sb11 3.158411 1_565
Ca2 Sb9 3.159618 1_555
Ca3 Sb13 3.056367 1_555
Ca3 Sb17 3.084131 1_555
Ca3 Sb10 3.158411 1_555
Ca3 Sb8 3.159618 1_556
Ca4 Sb14 3.056367 1_555
Ca4 Sb18 3.084131 1_555
Ca4 Sb9 3.158411 1_545
Ca4 Sb11 3.159618 1_555
Ca5 Sb15 3.056367 1_555
Ca5 Sb19 3.084131 1_555
Ca5 Sb8 3.158411 1_555
Ca5 Sb10 3.159618 1_554
Ca6 Sb16 3.233300 1_555
Ca6 Sb1 3.248720 1_565
Ca6 Sb3 3.265895 1_665
Ca6 Sb12 3.268518 1_655
Ca6 Sb4 3.381801 1_655
Ca6 Sb7 3.422863 1_565
Ca7 Sb17 3.233300 1_555
Ca7 Sb0 3.248720 1_555
Ca7 Sb2 3.265895 1_455
Ca7 Sb13 3.268518 1_455
Ca7 Sb5 3.381801 1_455
Ca7 Sb6 3.422863 1_555
Ca8 Sb18 3.233300 1_555
Ca8 Sb1 3.248720 1_556
Ca8 Sb3 3.265895 1_656
Ca8 Sb14 3.268518 1_655
Ca8 Sb6 3.381801 1_655
Ca8 Sb5 3.422863 1_545
Ca9 Sb19 3.233300 1_555
Ca9 Sb0 3.248720 1_555
Ca9 Sb2 3.265895 1_455
Ca9 Sb15 3.268518 1_455
Ca9 Sb7 3.381801 1_455
Ca9 Sb4 3.422863 1_555
Ca10 Sb17 3.232603 1_555
Ca10 Sb3 3.248581 1_566
Ca10 Sb1 3.264810 1_466
Ca10 Sb13 3.268834 1_455
Ca10 Sb5 3.382227 1_455
Ca10 Sb4 3.421899 1_556
Ca11 Sb16 3.232603 1_555
Ca11 Sb2 3.248581 1_555
Ca11 Sb0 3.264810 1_655
Ca11 Sb12 3.268834 1_655
Ca11 Sb4 3.382227 1_655
Ca11 Sb5 3.421899 1_555
Ca12 Sb19 3.232603 1_555
Ca12 Sb3 3.248581 1_555
Ca12 Sb1 3.264810 1_455
Ca12 Sb15 3.268834 1_455
Ca12 Sb7 3.382227 1_455
Ca12 Sb6 3.421899 1_554
Ca13 Sb18 3.232603 1_555
Ca13 Sb2 3.248581 1_555
Ca13 Sb0 3.264810 1_655
Ca13 Sb14 3.268834 1_655
Ca13 Sb6 3.382227 1_655
Ca13 Sb7 3.421899 1_555
Ca14 Sb16 3.144197 1_545
Ca14 Sb18 3.144197 1_555
Ca14 Sb7 3.237109 1_555
Ca14 Sb5 3.237109 1_545
Ca15 Sb19 3.144197 1_555
Ca15 Sb17 3.144197 1_554
Ca15 Sb6 3.237109 1_554
Ca15 Sb4 3.237109 1_555
Ca16 Sb8 3.075440 1_555
Ca16 Sb3 3.143172 1_565
Ca16 Sb12 3.303586 1_555
Ca16 Sb17 3.470460 1_554
Ca16 Sb4 3.471156 1_555
Ca16 Sb21 3.645146 1_565
Ca17 Sb9 3.075440 1_555
Ca17 Sb2 3.143172 1_555
Ca17 Sb13 3.303586 1_555
Ca17 Sb16 3.470460 1_555
Ca17 Sb5 3.471156 1_555
Ca17 Sb20 3.645146 1_555
Ca18 Sb10 3.075440 1_555
Ca18 Sb3 3.143172 1_556
Ca18 Sb14 3.303586 1_555
Ca18 Sb19 3.470460 1_556
Ca18 Sb6 3.471156 1_555
Ca18 Sb21 3.645146 1_556
Ca19 Sb11 3.075440 1_555
Ca19 Sb2 3.143172 1_555
Ca19 Sb15 3.303586 1_555
Ca19 Sb18 3.470460 1_555
Ca19 Sb7 3.471156 1_555
Ca19 Sb20 3.645146 1_555
Ca20 Sb9 3.074255 1_555
Ca20 Sb1 3.142779 1_566
Ca20 Sb13 3.306025 1_555
Ca20 Sb18 3.470582 1_565
Ca20 Sb5 3.477157 1_555
Ca20 Sb21 3.642025 1_566
Ca21 Sb8 3.074255 1_555
Ca21 Sb0 3.142779 1_555
Ca21 Sb12 3.306025 1_555
Ca21 Sb19 3.470582 1_555
Ca21 Sb4 3.477157 1_555
Ca21 Sb20 3.642025 1_555
Ca22 Sb11 3.074258 1_555
Ca22 Sb1 3.142775 1_555
Ca22 Sb15 3.306037 1_555
Ca22 Sb16 3.470570 1_545
Ca22 Sb7 3.477160 1_555
Ca22 Sb21 3.642022 1_555
Ca23 Sb10 3.074258 1_555
Ca23 Sb0 3.142775 1_555
Ca23 Sb14 3.306037 1_555
Ca23 Sb17 3.470570 1_555
Ca23 Sb6 3.477160 1_555
Ca23 Sb20 3.642022 1_555
Ca24 Sb11 3.147681 1_555
Ca24 Sb19 3.204530 1_555
Ca24 Sb0 3.236906 1_555
Ca24 Sb20 3.350678 1_555
Ca24 Sb14 3.420689 1_555
Ca25 Sb10 3.147681 1_555
Ca25 Sb18 3.204530 1_555
Ca25 Sb1 3.236906 1_556
Ca25 Sb21 3.350678 1_556
Ca25 Sb15 3.420689 1_556
Ca26 Sb9 3.147681 1_555
Ca26 Sb17 3.204530 1_555
Ca26 Sb0 3.236906 1_555
Ca26 Sb20 3.350678 1_555
Ca26 Sb12 3.420689 1_555
Ca27 Sb8 3.147681 1_555
Ca27 Sb16 3.204530 1_555
Ca27 Sb1 3.236906 1_565
Ca27 Sb21 3.350678 1_565
Ca27 Sb13 3.420689 1_554
Ca28 Sb8 3.147647 1_555
Ca28 Sb16 3.205381 1_555
Ca28 Sb2 3.234462 1_555
Ca28 Sb20 3.342254 1_555
Ca28 Sb15 3.423410 1_555
Ca29 Sb9 3.147647 1_555
Ca29 Sb17 3.205381 1_555
Ca29 Sb3 3.234462 1_566
Ca29 Sb21 3.342254 1_566
Ca29 Sb14 3.423410 1_565
Ca30 Sb10 3.147647 1_555
Ca30 Sb18 3.205381 1_555
Ca30 Sb2 3.234462 1_555
Ca30 Sb20 3.342254 1_555
Ca30 Sb13 3.423410 1_555
Ca31 Sb11 3.147647 1_555
Ca31 Sb19 3.205381 1_555
Ca31 Sb3 3.234462 1_555
Ca31 Sb21 3.342254 1_555
Ca31 Sb12 3.423410 1_545
