# generated using pymatgen
data_Cs2UF7
_symmetry_space_group_name_H-M   'P 1'
_cell_length_a   14.34772400
_cell_length_b   6.89266600
_cell_length_c   10.20229690
_cell_angle_alpha   87.75325020
_cell_angle_beta   90.00000000
_cell_angle_gamma   90.00000000
_symmetry_Int_Tables_number   1
_chemical_formula_structural   Cs2UF7
_chemical_formula_sum   'Cs8 U4 F28'
_cell_volume   1008.17104129
_cell_formula_units_Z   4
loop_
 _symmetry_equiv_pos_site_id
 _symmetry_equiv_pos_as_xyz
  1  'x, y, z'
loop_
 _atom_site_type_symbol
 _atom_site_label
 _atom_site_symmetry_multiplicity
 _atom_site_fract_x
 _atom_site_fract_y
 _atom_site_fract_z
 _atom_site_occupancy
  Cs  Cs0  1  0.21527800  0.77791200  0.06245500  1
  Cs  Cs1  1  0.78472200  0.22208800  0.93754500  1
  Cs  Cs2  1  0.71527800  0.22208800  0.43754500  1
  Cs  Cs3  1  0.28472200  0.77791200  0.56245500  1
  Cs  Cs4  1  0.05219800  0.20956200  0.35738400  1
  Cs  Cs5  1  0.94780200  0.79043800  0.64261600  1
  Cs  Cs6  1  0.55219800  0.79043800  0.14261600  1
  Cs  Cs7  1  0.44780200  0.20956200  0.85738400  1
  U  U0  1  0.36826600  0.30503800  0.31780200  1
  U  U1  1  0.63173400  0.69496200  0.68219800  1
  U  U2  1  0.86826600  0.69496200  0.18219800  1
  U  U3  1  0.13173400  0.30503800  0.81780200  1
  F  F0  1  0.74666400  0.52384600  0.18871000  1
  F  F1  1  0.25333600  0.47615400  0.81129000  1
  F  F2  1  0.24666400  0.47615400  0.31129000  1
  F  F3  1  0.75333600  0.52384600  0.68871000  1
  F  F4  1  0.15777700  0.23971200  0.01665600  1
  F  F5  1  0.84222300  0.76028800  0.98334400  1
  F  F6  1  0.65777700  0.76028800  0.48334400  1
  F  F7  1  0.34222300  0.23971200  0.51665600  1
  F  F8  1  0.28891500  0.06112800  0.27666500  1
  F  F9  1  0.71108500  0.93887200  0.72333500  1
  F  F10  1  0.78891500  0.93887200  0.22333500  1
  F  F11  1  0.21108500  0.06112800  0.77666500  1
  F  F12  1  0.38843200  0.89435700  0.01226600  1
  F  F13  1  0.61156800  0.10564300  0.98773400  1
  F  F14  1  0.88843200  0.10564300  0.48773400  1
  F  F15  1  0.11156800  0.89435700  0.51226600  1
  F  F16  1  0.93848700  0.44623700  0.12664000  1
  F  F17  1  0.06151300  0.55376300  0.87336000  1
  F  F18  1  0.43848700  0.55376300  0.37336000  1
  F  F19  1  0.56151300  0.44623700  0.62664000  1
  F  F20  1  0.99134800  0.85661400  0.17304700  1
  F  F21  1  0.00865200  0.14338600  0.82695300  1
  F  F22  1  0.49134800  0.14338600  0.32695300  1
  F  F23  1  0.50865200  0.85661400  0.67304700  1
  F  F24  1  0.39104600  0.39352200  0.12239500  1
  F  F25  1  0.60895400  0.60647800  0.87760500  1
  F  F26  1  0.89104600  0.60647800  0.37760500  1
  F  F27  1  0.10895400  0.39352200  0.62239500  1
loop_
_geom_bond_atom_site_label_1
_geom_bond_atom_site_label_2
_geom_bond_distance
_geom_bond_site_symmetry_2
Cs0 F12 2.654474 1_555
Cs1 F13 2.654474 1_555
Cs2 F14 2.654474 1_555
Cs3 F15 2.654474 1_555
Cs4 F15 2.770111 1_545
Cs4 F14 2.779904 1_455
Cs4 F27 3.138436 1_555
Cs4 F16 3.250193 1_455
Cs4 F20 3.252096 1_445
Cs4 F2 3.363750 1_555
Cs5 F14 2.770111 1_565
Cs5 F15 2.779904 1_655
Cs5 F26 3.138436 1_555
Cs5 F17 3.250193 1_655
Cs5 F21 3.252096 1_665
Cs5 F3 3.363750 1_555
Cs6 F13 2.770111 1_564
Cs6 F12 2.779904 1_555
Cs6 F25 3.138436 1_554
Cs6 F18 3.250193 1_555
Cs6 F22 3.252096 1_565
Cs6 F0 3.363750 1_555
Cs7 F12 2.770111 1_546
Cs7 F13 2.779904 1_555
Cs7 F24 3.138436 1_556
Cs7 F19 3.250193 1_555
Cs7 F23 3.252096 1_545
Cs7 F1 3.363750 1_555
F0 U2 2.105560 1_555
F1 U3 2.105560 1_555
F2 U0 2.105560 1_555
F3 U1 2.105560 1_555
F4 U3 2.094430 1_554
F5 U2 2.094430 1_556
F6 U1 2.094430 1_555
F7 U0 2.094430 1_555
F8 U0 2.086638 1_555
F9 U1 2.086638 1_555
F10 U2 2.086638 1_555
F11 U3 2.086638 1_555
F16 U2 2.086060 1_555
F17 U3 2.086060 1_555
F18 U0 2.086060 1_555
F19 U1 2.086060 1_555
F20 U2 2.088205 1_555
F21 U3 2.088205 1_555
F22 U0 2.088205 1_555
F23 U1 2.088205 1_555
F24 U0 2.087559 1_555
F25 U1 2.087559 1_555
F26 U2 2.087559 1_555
F27 U3 2.087559 1_555
