# generated using pymatgen
data_Fe3S2O15
_symmetry_space_group_name_H-M   'P 1'
_cell_length_a   6.97873664
_cell_length_b   6.97873664
_cell_length_c   6.97873612
_cell_angle_alpha   61.79884226
_cell_angle_beta   61.79884226
_cell_angle_gamma   61.79884890
_symmetry_Int_Tables_number   1
_chemical_formula_structural   Fe3S2O15
_chemical_formula_sum   'Fe3 S2 O15'
_cell_volume   250.01814843
_cell_formula_units_Z   1
loop_
 _symmetry_equiv_pos_site_id
 _symmetry_equiv_pos_as_xyz
  1  'x, y, z'
loop_
 _atom_site_type_symbol
 _atom_site_label
 _atom_site_symmetry_multiplicity
 _atom_site_fract_x
 _atom_site_fract_y
 _atom_site_fract_z
 _atom_site_occupancy
  Fe  Fe0  1  0.00145800  0.50689700  0.00145800  1
  Fe  Fe1  1  0.00145800  0.00145800  0.50689700  1
  Fe  Fe2  1  0.50689700  0.00145800  0.00145800  1
  S  S0  1  0.69050000  0.69050000  0.69050000  1
  S  S1  1  0.31481400  0.31481400  0.31481400  1
  O  O0  1  0.60384700  0.60384700  0.60384700  1
  O  O1  1  0.40110700  0.40110700  0.40110700  1
  O  O2  1  0.83400500  0.49264400  0.83400500  1
  O  O3  1  0.83400500  0.83400500  0.49264400  1
  O  O4  1  0.49264400  0.83400500  0.83400500  1
  O  O5  1  0.17109400  0.51277000  0.17109400  1
  O  O6  1  0.17109400  0.17109400  0.51277000  1
  O  O7  1  0.51277000  0.17109400  0.17109400  1
  O  O8  1  0.74193900  0.11087500  0.74193900  1
  O  O9  1  0.74193900  0.74193900  0.11087500  1
  O  O10  1  0.11087500  0.74193900  0.74193900  1
  O  O11  1  0.24935500  0.91557600  0.24935500  1
  O  O12  1  0.24935500  0.24935500  0.91557600  1
  O  O13  1  0.91557600  0.24935500  0.24935500  1
  O  O14  1  0.95536400  0.95536500  0.95536500  1
loop_
_geom_bond_atom_site_label_1
_geom_bond_atom_site_label_2
_geom_bond_distance
_geom_bond_site_symmetry_2
Fe0 O10 1.903345 1_554
Fe0 O9 1.903345 1_455
Fe0 O13 1.918812 1_455
Fe0 O12 1.918812 1_554
Fe0 O5 2.054501 1_555
Fe0 O2 2.061952 1_454
Fe1 O8 1.903345 1_455
Fe1 O10 1.903345 1_545
Fe1 O13 1.918812 1_455
Fe1 O11 1.918812 1_545
Fe1 O6 2.054501 1_555
Fe1 O3 2.061952 1_445
Fe2 O8 1.903345 1_554
Fe2 O9 1.903345 1_545
Fe2 O11 1.918812 1_545
Fe2 O12 1.918812 1_554
Fe2 O7 2.054501 1_555
Fe2 O4 2.061952 1_544
O0 S0 1.460818 1_555
O1 S1 1.454749 1_555
O2 S0 1.498838 1_555
O3 S0 1.498838 1_555
O4 S0 1.498838 1_555
O5 S1 1.500687 1_555
O6 S1 1.500687 1_555
O7 S1 1.500687 1_555
