# generated using pymatgen
data_La4Ni3MoO12
_symmetry_space_group_name_H-M   'P 1'
_cell_length_a   5.55632800
_cell_length_b   5.55632800
_cell_length_c   8.05767300
_cell_angle_alpha   90.00000000
_cell_angle_beta   90.00000000
_cell_angle_gamma   90.00000000
_symmetry_Int_Tables_number   1
_chemical_formula_structural   La4Ni3MoO12
_chemical_formula_sum   'La4 Ni3 Mo1 O12'
_cell_volume   248.76277264
_cell_formula_units_Z   1
loop_
 _symmetry_equiv_pos_site_id
 _symmetry_equiv_pos_as_xyz
  1  'x, y, z'
loop_
 _atom_site_type_symbol
 _atom_site_label
 _atom_site_symmetry_multiplicity
 _atom_site_fract_x
 _atom_site_fract_y
 _atom_site_fract_z
 _atom_site_occupancy
  La  La0  1  0.50000000  0.00000000  0.72020000  1
  La  La1  1  0.00000000  0.50000000  0.27980000  1
  La  La2  1  0.50000000  0.00000000  0.27980000  1
  La  La3  1  0.00000000  0.50000000  0.72020000  1
  Ni  Ni0  1  0.00000000  0.00000000  0.00000000  1
  Ni  Ni1  1  0.50000000  0.50000000  0.50000000  1
  Ni  Ni2  1  0.00000000  0.00000000  0.50000000  1
  Mo  Mo0  1  0.50000000  0.50000000  0.00000000  1
  O  O0  1  0.00000000  0.00000000  0.75266600  1
  O  O1  1  0.50000000  0.50000000  0.24397900  1
  O  O2  1  0.74829400  0.74829400  0.50000000  1
  O  O3  1  0.25738600  0.25738600  0.00000000  1
  O  O4  1  0.74829400  0.25170600  0.50000000  1
  O  O5  1  0.25738600  0.74261400  0.00000000  1
  O  O6  1  0.00000000  0.00000000  0.24733400  1
  O  O7  1  0.50000000  0.50000000  0.75602100  1
  O  O8  1  0.25170600  0.25170600  0.50000000  1
  O  O9  1  0.74261400  0.74261400  0.00000000  1
  O  O10  1  0.25170600  0.74829400  0.50000000  1
  O  O11  1  0.74261400  0.25738600  0.00000000  1
loop_
_geom_bond_atom_site_label_1
_geom_bond_atom_site_label_2
_geom_bond_distance
_geom_bond_site_symmetry_2
La0 O8 2.647153 1_555
La0 O10 2.647153 1_545
La0 O2 2.647153 1_545
La0 O4 2.647153 1_555
La0 O0 2.790453 1_555
La0 O0 2.790453 1_655
La0 O7 2.793117 1_555
La0 O7 2.793117 1_545
La0 O11 2.990887 1_556
La0 O3 2.990887 1_556
La0 O5 2.990887 1_546
La0 O9 2.990887 1_546
La1 O2 2.647153 1_455
La1 O10 2.647153 1_555
La1 O8 2.647153 1_555
La1 O4 2.647153 1_455
La1 O6 2.790453 1_555
La1 O6 2.790453 1_565
La1 O1 2.793117 1_555
La1 O1 2.793117 1_455
La1 O11 2.990887 1_455
La1 O9 2.990887 1_455
La1 O5 2.990887 1_555
La1 O3 2.990887 1_555
La2 O8 2.647153 1_555
La2 O10 2.647153 1_545
La2 O2 2.647153 1_545
La2 O4 2.647153 1_555
La2 O6 2.790453 1_655
La2 O6 2.790453 1_555
La2 O1 2.793117 1_545
La2 O1 2.793117 1_555
La2 O5 2.990887 1_545
La2 O9 2.990887 1_545
La2 O11 2.990887 1_555
La2 O3 2.990887 1_555
La3 O2 2.647153 1_455
La3 O10 2.647153 1_555
La3 O8 2.647153 1_555
La3 O4 2.647153 1_455
La3 O0 2.790453 1_565
La3 O0 2.790453 1_555
La3 O7 2.793117 1_455
La3 O7 2.793117 1_555
La3 O3 2.990887 1_556
La3 O11 2.990887 1_456
La3 O5 2.990887 1_556
La3 O9 2.990887 1_456
Ni0 O6 1.992936 1_555
Ni0 O0 1.992936 1_554
Ni0 O11 2.022497 1_455
Ni0 O3 2.022497 1_555
Ni0 O5 2.022497 1_545
Ni0 O9 2.022497 1_445
Ni1 O4 1.951053 1_555
Ni1 O8 1.951053 1_555
Ni1 O2 1.951053 1_555
Ni1 O10 1.951053 1_555
Ni1 O7 2.062933 1_555
Ni1 O1 2.062933 1_555
Ni2 O8 1.977864 1_555
Ni2 O10 1.977864 1_545
Ni2 O2 1.977864 1_445
Ni2 O4 1.977864 1_455
Ni2 O0 2.035900 1_555
Ni2 O6 2.035900 1_555
Mo0 O11 1.906421 1_555
Mo0 O5 1.906421 1_555
Mo0 O3 1.906421 1_555
Mo0 O9 1.906421 1_555
Mo0 O1 1.965903 1_555
Mo0 O7 1.965903 1_554
