# generated using pymatgen
data_Ho(NiSb)2
_symmetry_space_group_name_H-M   'P 1'
_cell_length_a   4.40970600
_cell_length_b   4.40970600
_cell_length_c   10.05427600
_cell_angle_alpha   90.00000000
_cell_angle_beta   90.00000000
_cell_angle_gamma   90.00000000
_symmetry_Int_Tables_number   1
_chemical_formula_structural   Ho(NiSb)2
_chemical_formula_sum   'Ho2 Ni4 Sb4'
_cell_volume   195.51049440
_cell_formula_units_Z   2
loop_
 _symmetry_equiv_pos_site_id
 _symmetry_equiv_pos_as_xyz
  1  'x, y, z'
loop_
 _atom_site_type_symbol
 _atom_site_label
 _atom_site_symmetry_multiplicity
 _atom_site_fract_x
 _atom_site_fract_y
 _atom_site_fract_z
 _atom_site_occupancy
  Ho  Ho0  1  0.00000000  0.50000000  0.23792100  1
  Ho  Ho1  1  0.50000000  0.00000000  0.76207900  1
  Ni  Ni0  1  0.00000000  0.00000000  0.00000000  1
  Ni  Ni1  1  0.50000000  0.50000000  0.00000000  1
  Ni  Ni2  1  0.00000000  0.50000000  0.62716000  1
  Ni  Ni3  1  0.50000000  0.00000000  0.37284000  1
  Sb  Sb0  1  0.00000000  0.00000000  0.50000000  1
  Sb  Sb1  1  0.50000000  0.50000000  0.50000000  1
  Sb  Sb2  1  0.00000000  0.50000000  0.87234600  1
  Sb  Sb3  1  0.50000000  0.00000000  0.12765400  1
loop_
_geom_bond_atom_site_label_1
_geom_bond_atom_site_label_2
_geom_bond_distance
_geom_bond_site_symmetry_2
Ho0 Ni1 3.253249 1_555
Ho0 Ni0 3.253249 1_555
Ho0 Ni0 3.253249 1_565
Ho0 Ni1 3.253249 1_455
Ho0 Sb3 3.309361 1_565
Ho0 Sb3 3.309361 1_455
Ho0 Sb3 3.309361 1_555
Ho0 Sb3 3.309361 1_465
Ho0 Ni3 3.400424 1_565
Ho0 Ni3 3.400424 1_555
Ho0 Ni3 3.400424 1_465
Ho0 Ni3 3.400424 1_455
Ho0 Sb0 3.435794 1_555
Ho0 Sb1 3.435794 1_455
Ho0 Sb0 3.435794 1_565
Ho0 Sb1 3.435794 1_555
Ho1 Ni0 3.253249 1_556
Ho1 Ni1 3.253249 1_546
Ho1 Ni1 3.253249 1_556
Ho1 Ni0 3.253249 1_656
Ho1 Sb2 3.309361 1_645
Ho1 Sb2 3.309361 1_555
Ho1 Sb2 3.309361 1_655
Ho1 Sb2 3.309361 1_545
Ho1 Ni2 3.400424 1_655
Ho1 Ni2 3.400424 1_645
Ho1 Ni2 3.400424 1_555
Ho1 Ni2 3.400424 1_545
Ho1 Sb1 3.435794 1_555
Ho1 Sb0 3.435794 1_655
Ho1 Sb0 3.435794 1_555
Ho1 Sb1 3.435794 1_545
Ni0 Sb3 2.551209 1_455
Ni0 Sb3 2.551209 1_555
Ni0 Sb2 2.551209 1_544
Ni0 Sb2 2.551209 1_554
Ni1 Sb3 2.551209 1_555
Ni1 Sb3 2.551209 1_565
Ni1 Sb2 2.551209 1_554
Ni1 Sb2 2.551209 1_654
Ni2 Sb2 2.465168 1_555
Ni2 Sb0 2.548714 1_555
Ni2 Sb0 2.548714 1_565
Ni2 Sb1 2.548714 1_555
Ni2 Sb1 2.548714 1_455
Ni3 Sb3 2.465168 1_555
Ni3 Sb0 2.548714 1_555
Ni3 Sb1 2.548714 1_545
Ni3 Sb1 2.548714 1_555
Ni3 Sb0 2.548714 1_655
