# generated using pymatgen
data_SnH8C2Br3N
_symmetry_space_group_name_H-M   'P 1'
_cell_length_a   12.85621600
_cell_length_b   12.99106000
_cell_length_c   13.10447700
_cell_angle_alpha   90.00000000
_cell_angle_beta   90.00000000
_cell_angle_gamma   90.00000000
_symmetry_Int_Tables_number   1
_chemical_formula_structural   SnH8C2Br3N
_chemical_formula_sum   'Sn8 H64 C16 Br24 N8'
_cell_volume   2188.65567198
_cell_formula_units_Z   8
loop_
 _symmetry_equiv_pos_site_id
 _symmetry_equiv_pos_as_xyz
  1  'x, y, z'
loop_
 _atom_site_type_symbol
 _atom_site_label
 _atom_site_symmetry_multiplicity
 _atom_site_fract_x
 _atom_site_fract_y
 _atom_site_fract_z
 _atom_site_occupancy
  Sn  Sn0  1  0.25438700  0.49062400  0.69599700  1
  Sn  Sn1  1  0.24561300  0.50937600  0.19599700  1
  Sn  Sn2  1  0.75438700  0.00937600  0.30400300  1
  Sn  Sn3  1  0.74561300  0.99062400  0.80400300  1
  Sn  Sn4  1  0.74561300  0.50937600  0.30400300  1
  Sn  Sn5  1  0.75438700  0.49062400  0.80400300  1
  Sn  Sn6  1  0.24561300  0.99062400  0.69599700  1
  Sn  Sn7  1  0.25438700  0.00937600  0.19599700  1
  H  H0  1  0.95775200  0.13952000  0.45659800  1
  H  H1  1  0.54224800  0.86048000  0.95659800  1
  H  H2  1  0.45775200  0.36048000  0.54340200  1
  H  H3  1  0.04224800  0.63952000  0.04340200  1
  H  H4  1  0.04224800  0.86048000  0.54340200  1
  H  H5  1  0.45775200  0.13952000  0.04340200  1
  H  H6  1  0.54224800  0.63952000  0.45659800  1
  H  H7  1  0.95775200  0.36048000  0.95659800  1
  H  H8  1  0.05835800  0.15412800  0.53304600  1
  H  H9  1  0.44164200  0.84587200  0.03304600  1
  H  H10  1  0.55835800  0.34587200  0.46695400  1
  H  H11  1  0.94164200  0.65412800  0.96695400  1
  H  H12  1  0.94164200  0.84587200  0.46695400  1
  H  H13  1  0.55835800  0.15412800  0.96695400  1
  H  H14  1  0.44164200  0.65412800  0.53304600  1
  H  H15  1  0.05835800  0.34587200  0.03304600  1
  H  H16  1  0.08968300  0.23660500  0.37275300  1
  H  H17  1  0.41031700  0.76339500  0.87275300  1
  H  H18  1  0.58968300  0.26339500  0.62724700  1
  H  H19  1  0.91031700  0.73660500  0.12724700  1
  H  H20  1  0.91031700  0.76339500  0.62724700  1
  H  H21  1  0.58968300  0.23660500  0.12724700  1
  H  H22  1  0.41031700  0.73660500  0.37275300  1
  H  H23  1  0.08968300  0.26339500  0.87275300  1
  H  H24  1  0.97467000  0.31247400  0.39188600  1
  H  H25  1  0.52533000  0.68752600  0.89188600  1
  H  H26  1  0.47467000  0.18752600  0.60811400  1
  H  H27  1  0.02533000  0.81247400  0.10811400  1
  H  H28  1  0.02533000  0.68752600  0.60811400  1
  H  H29  1  0.47467000  0.31247400  0.10811400  1
  H  H30  1  0.52533000  0.81247400  0.39188600  1
  H  H31  1  0.97467000  0.18752600  0.89188600  1
  H  H32  1  0.08517100  0.32896800  0.47499000  1
  H  H33  1  0.41482900  0.67103200  0.97499000  1
  H  H34  1  0.58517100  0.17103200  0.52501000  1
  H  H35  1  0.91482900  0.82896800  0.02501000  1
  H  H36  1  0.91482900  0.67103200  0.52501000  1
  H  H37  1  0.58517100  0.32896800  0.02501000  1
  H  H38  1  0.41482900  0.82896800  0.47499000  1
  H  H39  1  0.08517100  0.17103200  0.97499000  1
  H  H40  1  0.86103500  0.27406000  0.54267700  1
  H  H41  1  0.63896500  0.72594000  0.04267700  1
  H  H42  1  0.36103500  0.22594000  0.45732300  1
  H  H43  1  0.13896500  0.77406000  0.95732300  1
  H  H44  1  0.13896500  0.72594000  0.45732300  1
  H  H45  1  0.36103500  0.27406000  0.95732300  1
  H  H46  1  0.63896500  0.77406000  0.54267700  1
  H  H47  1  0.86103500  0.22594000  0.04267700  1
  H  H48  1  0.90072000  0.17390700  0.62928600  1
  H  H49  1  0.59928000  0.82609300  0.12928600  1
  H  H50  1  0.40072000  0.32609300  0.37071400  1
  H  H51  1  0.09928000  0.67390700  0.87071400  1
  H  H52  1  0.09928000  0.82609300  0.37071400  1
  H  H53  1  0.40072000  0.17390700  0.87071400  1
  H  H54  1  0.59928000  0.67390700  0.62928600  1
  H  H55  1  0.90072000  0.32609300  0.12928600  1
  H  H56  1  0.97105000  0.29333300  0.62523400  1
  H  H57  1  0.52895000  0.70666700  0.12523400  1
  H  H58  1  0.47105000  0.20666700  0.37476600  1
  H  H59  1  0.02895000  0.79333300  0.87476600  1
  H  H60  1  0.02895000  0.70666700  0.37476600  1
  H  H61  1  0.47105000  0.29333300  0.87476600  1
  H  H62  1  0.52895000  0.79333300  0.62523400  1
  H  H63  1  0.97105000  0.20666700  0.12523400  1
  C  C0  1  0.03993700  0.27413300  0.42965700  1
  C  C1  1  0.46006300  0.72586700  0.92965700  1
  C  C2  1  0.53993700  0.22586700  0.57034300  1
  C  C3  1  0.96006300  0.77413300  0.07034300  1
  C  C4  1  0.96006300  0.72586700  0.57034300  1
  C  C5  1  0.53993700  0.27413300  0.07034300  1
  C  C6  1  0.46006300  0.77413300  0.42965700  1
  C  C7  1  0.03993700  0.22586700  0.92965700  1
  C  C8  1  0.92722100  0.23701800  0.58029200  1
  C  C9  1  0.57277900  0.76298200  0.08029200  1
  C  C10  1  0.42722100  0.26298200  0.41970800  1
  C  C11  1  0.07277900  0.73701800  0.91970800  1
  C  C12  1  0.07277900  0.76298200  0.41970800  1
  C  C13  1  0.42722100  0.23701800  0.91970800  1
  C  C14  1  0.57277900  0.73701800  0.58029200  1
  C  C15  1  0.92722100  0.26298200  0.08029200  1
  Br  Br0  1  0.23413300  0.28502700  0.67450300  1
  Br  Br1  1  0.26586700  0.71497300  0.17450300  1
  Br  Br2  1  0.73413300  0.21497300  0.32549700  1
  Br  Br3  1  0.76586700  0.78502700  0.82549700  1
  Br  Br4  1  0.76586700  0.71497300  0.32549700  1
  Br  Br5  1  0.73413300  0.28502700  0.82549700  1
  Br  Br6  1  0.26586700  0.78502700  0.67450300  1
  Br  Br7  1  0.23413300  0.21497300  0.17450300  1
  Br  Br8  1  0.46355200  0.48281400  0.71121800  1
  Br  Br9  1  0.03644800  0.51718600  0.21121800  1
  Br  Br10  1  0.96355200  0.01718600  0.28878200  1
  Br  Br11  1  0.53644800  0.98281400  0.78878200  1
  Br  Br12  1  0.53644800  0.51718600  0.28878200  1
  Br  Br13  1  0.96355200  0.48281400  0.78878200  1
  Br  Br14  1  0.03644800  0.98281400  0.71121800  1
  Br  Br15  1  0.46355200  0.01718600  0.21121800  1
  Br  Br16  1  0.27561400  0.52387300  0.49379600  1
  Br  Br17  1  0.22438600  0.47612700  0.99379600  1
  Br  Br18  1  0.77561400  0.97612700  0.50620400  1
  Br  Br19  1  0.72438600  0.02387300  0.00620400  1
  Br  Br20  1  0.72438600  0.47612700  0.50620400  1
  Br  Br21  1  0.77561400  0.52387300  0.00620400  1
  Br  Br22  1  0.22438600  0.02387300  0.49379600  1
  Br  Br23  1  0.27561400  0.97612700  0.99379600  1
  N  N0  1  0.99726800  0.19380300  0.49980400  1
  N  N1  1  0.50273200  0.80619700  0.99980400  1
  N  N2  1  0.49726800  0.30619700  0.50019600  1
  N  N3  1  0.00273200  0.69380300  0.00019600  1
  N  N4  1  0.00273200  0.80619700  0.50019600  1
  N  N5  1  0.49726800  0.19380300  0.00019600  1
  N  N6  1  0.50273200  0.69380300  0.49980400  1
  N  N7  1  0.99726800  0.30619700  0.99980400  1
loop_
_geom_bond_atom_site_label_1
_geom_bond_atom_site_label_2
_geom_bond_distance
_geom_bond_site_symmetry_2
H0 N0 1.037286 1_555
H1 N1 1.037286 1_555
H2 N2 1.037286 1_555
H3 N3 1.037286 1_555
H4 N4 1.037286 1_555
H5 N5 1.037286 1_555
H6 N6 1.037286 1_555
H7 N7 1.037286 1_555
H8 N0 1.035497 1_455
H9 N1 1.035497 1_554
H10 N2 1.035497 1_555
H11 N3 1.035497 1_656
H12 N4 1.035497 1_655
H13 N5 1.035497 1_556
H14 N6 1.035497 1_555
H15 N7 1.035497 1_454
C0 H24 1.094146 1_455
C0 H32 1.094789 1_555
C0 H16 1.096707 1_555
C0 N0 1.494980 1_455
C1 H25 1.094146 1_555
C1 H33 1.094789 1_555
C1 H17 1.096707 1_555
C1 N1 1.494980 1_555
C2 H26 1.094146 1_555
C2 H34 1.094789 1_555
C2 H18 1.096707 1_555
C2 N2 1.494980 1_555
C3 H27 1.094146 1_655
C3 H35 1.094789 1_555
C3 H19 1.096707 1_555
C3 N3 1.494980 1_655
C4 H28 1.094146 1_655
C4 H36 1.094789 1_555
C4 H20 1.096707 1_555
C4 N4 1.494980 1_655
C5 H29 1.094146 1_555
C5 H37 1.094789 1_555
C5 H21 1.096707 1_555
C5 N5 1.494980 1_555
C6 H30 1.094146 1_555
C6 H38 1.094789 1_555
C6 H22 1.096707 1_555
C6 N6 1.494980 1_555
C7 H31 1.094146 1_455
C7 H39 1.094789 1_555
C7 H23 1.096707 1_555
C7 N7 1.494980 1_455
C8 H40 1.094795 1_555
C8 H56 1.095254 1_555
C8 H48 1.095671 1_555
C8 N0 1.496214 1_555
C9 H41 1.094795 1_555
C9 H57 1.095254 1_555
C9 H49 1.095671 1_555
C9 N1 1.496214 1_554
C10 H42 1.094795 1_555
C10 H58 1.095254 1_555
C10 H50 1.095671 1_555
C10 N2 1.496214 1_555
C11 H43 1.094795 1_555
C11 H59 1.095254 1_555
C11 H51 1.095671 1_555
C11 N3 1.496214 1_556
C12 H44 1.094795 1_555
C12 H60 1.095254 1_555
C12 H52 1.095671 1_555
C12 N4 1.496214 1_555
C13 H45 1.094795 1_555
C13 H61 1.095254 1_555
C13 H53 1.095671 1_555
C13 N5 1.496214 1_556
C14 H46 1.094795 1_555
C14 H62 1.095254 1_555
C14 H54 1.095671 1_555
C14 N6 1.496214 1_555
C15 H47 1.094795 1_555
C15 H63 1.095254 1_555
C15 H55 1.095671 1_555
C15 N7 1.496214 1_554
Br0 Sn0 2.698327 1_555
Br1 Sn1 2.698327 1_555
Br2 Sn2 2.698327 1_555
Br3 Sn3 2.698327 1_555
Br4 Sn4 2.698327 1_555
Br5 Sn5 2.698327 1_555
Br6 Sn6 2.698327 1_555
Br7 Sn7 2.698327 1_555
Br8 Sn0 2.698366 1_555
Br9 Sn1 2.698366 1_555
Br10 Sn2 2.698366 1_555
Br11 Sn3 2.698366 1_555
Br12 Sn4 2.698366 1_555
Br13 Sn5 2.698366 1_555
Br14 Sn6 2.698366 1_555
Br15 Sn7 2.698366 1_555
Br16 Sn0 2.698548 1_555
Br17 Sn1 2.698548 1_556
Br18 Sn2 2.698548 1_565
Br19 Sn3 2.698548 1_544
Br20 Sn4 2.698548 1_555
Br21 Sn5 2.698548 1_554
Br22 Sn6 2.698548 1_545
Br23 Sn7 2.698548 1_566
