# generated using pymatgen
data_Tb(Ni2B)6
_symmetry_space_group_name_H-M   'P 1'
_cell_length_a   5.98927516
_cell_length_b   5.98927516
_cell_length_c   5.98927533
_cell_angle_alpha   104.37409008
_cell_angle_beta   104.37409008
_cell_angle_gamma   104.37410071
_symmetry_Int_Tables_number   1
_chemical_formula_structural   Tb(Ni2B)6
_chemical_formula_sum   'Tb1 Ni12 B6'
_cell_volume   190.29314181
_cell_formula_units_Z   1
loop_
 _symmetry_equiv_pos_site_id
 _symmetry_equiv_pos_as_xyz
  1  'x, y, z'
loop_
 _atom_site_type_symbol
 _atom_site_label
 _atom_site_symmetry_multiplicity
 _atom_site_fract_x
 _atom_site_fract_y
 _atom_site_fract_z
 _atom_site_occupancy
  Tb  Tb0  1  0.00000000  0.00000000  0.00000000  1
  Ni  Ni0  1  0.86907900  0.13092100  0.50000000  1
  Ni  Ni1  1  0.13092100  0.50000000  0.86907900  1
  Ni  Ni2  1  0.50000000  0.86907900  0.13092100  1
  Ni  Ni3  1  0.86907900  0.50000000  0.13092100  1
  Ni  Ni4  1  0.50000000  0.13092100  0.86907900  1
  Ni  Ni5  1  0.13092100  0.86907900  0.50000000  1
  Ni  Ni6  1  0.81169900  0.54687900  0.54687900  1
  Ni  Ni7  1  0.54687900  0.54687900  0.81169900  1
  Ni  Ni8  1  0.54687900  0.81169900  0.54687900  1
  Ni  Ni9  1  0.18830100  0.45312100  0.45312100  1
  Ni  Ni10  1  0.45312100  0.45312100  0.18830100  1
  Ni  Ni11  1  0.45312100  0.18830100  0.45312100  1
  B  B0  1  0.33234400  0.76568100  0.76568100  1
  B  B1  1  0.76568100  0.76568100  0.33234400  1
  B  B2  1  0.76568100  0.33234400  0.76568100  1
  B  B3  1  0.66765600  0.23431900  0.23431900  1
  B  B4  1  0.23431900  0.23431900  0.66765600  1
  B  B5  1  0.23431900  0.66765600  0.23431900  1
loop_
_geom_bond_atom_site_label_1
_geom_bond_atom_site_label_2
_geom_bond_distance
_geom_bond_site_symmetry_2
Ni0 Tb0 3.240806 1_656
Ni0 Tb0 3.240806 1_655
Ni1 Tb0 3.240806 1_556
Ni1 Tb0 3.240806 1_566
Ni2 Tb0 3.240806 1_665
Ni2 Tb0 3.240806 1_565
Ni3 Tb0 3.240806 1_665
Ni3 Tb0 3.240806 1_655
Ni4 Tb0 3.240806 1_556
Ni4 Tb0 3.240806 1_656
Ni5 Tb0 3.240806 1_566
Ni5 Tb0 3.240806 1_565
Ni6 Tb0 3.050573 1_666
Ni7 Tb0 3.050573 1_666
Ni8 Tb0 3.050573 1_666
Ni9 Tb0 3.050573 1_555
Ni10 Tb0 3.050573 1_555
Ni11 Tb0 3.050573 1_555
B0 Ni4 2.026103 1_565
B0 Ni2 2.026103 1_556
B0 Ni1 2.068327 1_555
B0 Ni5 2.068327 1_555
B0 Ni8 2.069734 1_555
B0 Ni7 2.069734 1_555
B0 Ni9 2.099865 1_555
B0 Tb0 3.114035 1_566
B1 Ni5 2.026103 1_655
B1 Ni0 2.026103 1_565
B1 Ni2 2.068327 1_555
B1 Ni3 2.068327 1_555
B1 Ni8 2.069734 1_555
B1 Ni6 2.069734 1_555
B1 Ni10 2.099865 1_555
B1 Tb0 3.114035 1_665
B2 Ni1 2.026103 1_655
B2 Ni3 2.026103 1_556
B2 Ni4 2.068327 1_555
B2 Ni0 2.068327 1_555
B2 Ni6 2.069734 1_555
B2 Ni7 2.069734 1_555
B2 Ni11 2.099865 1_555
B2 Tb0 3.114035 1_656
B3 Ni2 2.026103 1_545
B3 Ni4 2.026103 1_554
B3 Ni3 2.068327 1_555
B3 Ni0 2.068327 1_555
B3 Ni11 2.069734 1_555
B3 Ni10 2.069734 1_555
B3 Ni6 2.099865 1_555
B3 Tb0 3.114035 1_655
B4 Ni0 2.026103 1_455
B4 Ni5 2.026103 1_545
B4 Ni4 2.068327 1_555
B4 Ni1 2.068327 1_555
B4 Ni11 2.069734 1_555
B4 Ni9 2.069734 1_555
B4 Ni7 2.099865 1_555
B4 Tb0 3.114035 1_556
B5 Ni3 2.026103 1_455
B5 Ni1 2.026103 1_554
B5 Ni2 2.068327 1_555
B5 Ni5 2.068327 1_555
B5 Ni9 2.069734 1_555
B5 Ni10 2.069734 1_555
B5 Ni8 2.099865 1_555
B5 Tb0 3.114035 1_565
