# generated using pymatgen
data_LiGd3
_symmetry_space_group_name_H-M   'P 1'
_cell_length_a   7.04639382
_cell_length_b   7.04639382
_cell_length_c   5.57874600
_cell_angle_alpha   90.00000000
_cell_angle_beta   90.00000000
_cell_angle_gamma   119.99999830
_symmetry_Int_Tables_number   1
_chemical_formula_structural   LiGd3
_chemical_formula_sum   'Li2 Gd6'
_cell_volume   239.88387275
_cell_formula_units_Z   2
loop_
 _symmetry_equiv_pos_site_id
 _symmetry_equiv_pos_as_xyz
  1  'x, y, z'
loop_
 _atom_site_type_symbol
 _atom_site_label
 _atom_site_symmetry_multiplicity
 _atom_site_fract_x
 _atom_site_fract_y
 _atom_site_fract_z
 _atom_site_occupancy
  Li  Li0  1  0.66666700  0.33333300  0.25000000  1
  Li  Li1  1  0.33333300  0.66666700  0.75000000  1
  Gd  Gd0  1  0.83016700  0.16983300  0.75000000  1
  Gd  Gd1  1  0.33966700  0.16983300  0.75000000  1
  Gd  Gd2  1  0.83016700  0.66033300  0.75000000  1
  Gd  Gd3  1  0.16983300  0.83016700  0.25000000  1
  Gd  Gd4  1  0.66033300  0.83016700  0.25000000  1
  Gd  Gd5  1  0.16983300  0.33966700  0.25000000  1
loop_
_geom_bond_atom_site_label_1
_geom_bond_atom_site_label_2
_geom_bond_distance
_geom_bond_site_symmetry_2
Gd0 Li0 3.429651 1_555
Gd0 Li0 3.429651 1_556
Gd0 Gd1 3.456256 1_555
Gd0 Gd2 3.456256 1_555
Gd0 Gd5 3.475190 1_656
Gd0 Gd4 3.475190 1_545
Gd0 Gd4 3.475190 1_546
Gd0 Gd5 3.475190 1_655
Gd0 Li1 3.523409 1_545
Gd0 Li1 3.523409 1_655
Gd0 Gd2 3.590138 1_545
Gd0 Gd1 3.590138 1_655
Gd1 Li0 3.429651 1_556
Gd1 Li0 3.429651 1_555
Gd1 Gd2 3.456256 1_555
Gd1 Gd3 3.475190 1_546
Gd1 Gd3 3.475190 1_545
Gd1 Gd5 3.475198 1_556
Gd1 Gd5 3.475198 1_555
Gd1 Li1 3.523402 1_545
Gd1 Li1 3.523416 1_555
Gd1 Gd2 3.590138 1_445
Gd2 Li0 3.429651 1_555
Gd2 Li0 3.429651 1_556
Gd2 Gd3 3.475190 1_656
Gd2 Gd3 3.475190 1_655
Gd2 Gd4 3.475198 1_555
Gd2 Gd4 3.475198 1_556
Gd2 Li1 3.523402 1_655
Gd2 Li1 3.523416 1_555
Gd3 Li1 3.429651 1_554
Gd3 Li1 3.429651 1_555
Gd3 Gd5 3.456256 1_555
Gd3 Gd4 3.456256 1_555
Gd3 Li0 3.523409 1_455
Gd3 Li0 3.523409 1_565
Gd3 Gd4 3.590138 1_455
Gd3 Gd5 3.590138 1_565
Gd4 Li1 3.429651 1_555
Gd4 Li1 3.429651 1_554
Gd4 Gd5 3.456256 1_555
Gd4 Li0 3.523402 1_565
Gd4 Li0 3.523416 1_555
Gd4 Gd5 3.590138 1_665
Gd5 Li1 3.429651 1_555
Gd5 Li1 3.429651 1_554
Gd5 Li0 3.523402 1_455
Gd5 Li0 3.523416 1_555
