# generated using pymatgen
data_Sm2Mg
_symmetry_space_group_name_H-M   'P 1'
_cell_length_a   13.82774800
_cell_length_b   13.82774800
_cell_length_c   15.18594097
_cell_angle_alpha   74.14039712
_cell_angle_beta   74.14039712
_cell_angle_gamma   31.75269052
_symmetry_Int_Tables_number   1
_chemical_formula_structural   Sm2Mg
_chemical_formula_sum   'Sm32 Mg16'
_cell_volume   1465.08549155
_cell_formula_units_Z   16
loop_
 _symmetry_equiv_pos_site_id
 _symmetry_equiv_pos_as_xyz
  1  'x, y, z'
loop_
 _atom_site_type_symbol
 _atom_site_label
 _atom_site_symmetry_multiplicity
 _atom_site_fract_x
 _atom_site_fract_y
 _atom_site_fract_z
 _atom_site_occupancy
  Sm  Sm0_0  1  0.42334047  0.42334047  0.28609219  1
  Sm  Sm0_1  1  0.42334047  0.42334047  0.78609219  1
  Sm  Sm0_2  1  0.42334047  0.92334047  0.28609219  1
  Sm  Sm0_3  1  0.42334047  0.92334047  0.78609219  1
  Sm  Sm0_4  1  0.92334047  0.42334047  0.28609219  1
  Sm  Sm0_5  1  0.92334047  0.42334047  0.78609219  1
  Sm  Sm0_6  1  0.92334047  0.92334047  0.28609219  1
  Sm  Sm0_7  1  0.92334047  0.92334047  0.78609220  1
  Sm  Sm1_0  1  0.07665953  0.07665953  0.21390780  1
  Sm  Sm1_1  1  0.07665953  0.07665953  0.71390780  1
  Sm  Sm1_2  1  0.07665953  0.57665953  0.21390780  1
  Sm  Sm1_3  1  0.07665953  0.57665953  0.71390780  1
  Sm  Sm1_4  1  0.57665953  0.07665953  0.21390780  1
  Sm  Sm1_5  1  0.57665953  0.07665953  0.71390780  1
  Sm  Sm1_6  1  0.57665953  0.57665953  0.21390781  1
  Sm  Sm1_7  1  0.57665953  0.57665953  0.71390780  1
  Sm  Sm2_0  1  0.42013708  0.42013708  0.04212641  1
  Sm  Sm2_1  1  0.42013708  0.42013708  0.54212641  1
  Sm  Sm2_2  1  0.42013708  0.92013708  0.04212641  1
  Sm  Sm2_3  1  0.42013708  0.92013708  0.54212641  1
  Sm  Sm2_4  1  0.92013708  0.42013708  0.04212641  1
  Sm  Sm2_5  1  0.92013708  0.42013708  0.54212641  1
  Sm  Sm2_6  1  0.92013708  0.92013708  0.04212641  1
  Sm  Sm2_7  1  0.92013708  0.92013708  0.54212641  1
  Sm  Sm3_0  1  0.07986292  0.07986292  0.45787359  1
  Sm  Sm3_1  1  0.07986292  0.07986292  0.95787359  1
  Sm  Sm3_2  1  0.07986292  0.57986292  0.45787359  1
  Sm  Sm3_3  1  0.07986292  0.57986292  0.95787359  1
  Sm  Sm3_4  1  0.57986292  0.07986292  0.45787359  1
  Sm  Sm3_5  1  0.57986292  0.07986292  0.95787359  1
  Sm  Sm3_6  1  0.57986292  0.57986292  0.45787359  1
  Sm  Sm3_7  1  0.57986292  0.57986292  0.95787359  1
  Mg  Mg0_0  1  0.24823187  0.24823187  0.37923004  1
  Mg  Mg0_1  1  0.24823187  0.24823187  0.87923004  1
  Mg  Mg0_2  1  0.24823187  0.74823187  0.37923004  1
  Mg  Mg0_3  1  0.24823187  0.74823187  0.87923004  1
  Mg  Mg0_4  1  0.74823187  0.24823187  0.37923004  1
  Mg  Mg0_5  1  0.74823187  0.24823187  0.87923004  1
  Mg  Mg0_6  1  0.74823187  0.74823187  0.37923004  1
  Mg  Mg0_7  1  0.74823187  0.74823187  0.87923004  1
  Mg  Mg1_0  1  0.25176813  0.25176813  0.12076996  1
  Mg  Mg1_1  1  0.25176813  0.25176813  0.62076996  1
  Mg  Mg1_2  1  0.25176813  0.75176813  0.12076996  1
  Mg  Mg1_3  1  0.25176813  0.75176813  0.62076996  1
  Mg  Mg1_4  1  0.75176813  0.25176813  0.12076996  1
  Mg  Mg1_5  1  0.75176813  0.25176813  0.62076996  1
  Mg  Mg1_6  1  0.75176813  0.75176813  0.12076996  1
  Mg  Mg1_7  1  0.75176813  0.75176813  0.62076996  1
loop_
_geom_bond_atom_site_label_1
_geom_bond_atom_site_label_2
_geom_bond_distance
_geom_bond_site_symmetry_2
Sm0_0 Sm3_4 3.588795 1_555
Sm0_0 Sm3_2 3.588795 1_555
Sm0_0 Sm1_2 3.604837 1_555
Sm0_0 Sm1_4 3.604837 1_555
Sm0_0 Sm2_0 3.729955 1_555
Sm0_0 Sm0_6 3.782748 1_455
Sm0_0 Sm0_6 3.782748 1_545
Sm0_0 Sm2_1 3.864774 1_555
Sm0_0 Sm1_6 3.910799 1_555
Sm0_1 Sm3_5 3.588795 1_555
Sm0_1 Sm3_3 3.588795 1_555
Sm0_1 Sm1_3 3.604837 1_555
Sm0_1 Sm1_5 3.604837 1_555
Sm0_1 Sm2_1 3.729955 1_555
Sm0_1 Sm0_7 3.782748 1_545
Sm0_1 Sm0_7 3.782748 1_455
Sm0_1 Sm2_0 3.864774 1_556
Sm0_1 Sm1_7 3.910799 1_555
Sm0_2 Sm3_6 3.588795 1_555
Sm0_2 Sm3_0 3.588795 1_565
Sm0_2 Sm1_6 3.604837 1_555
Sm0_2 Sm1_0 3.604837 1_565
Sm0_2 Sm2_2 3.729955 1_555
Sm0_2 Sm0_4 3.782748 1_555
Sm0_2 Sm0_4 3.782748 1_465
Sm0_2 Sm2_3 3.864774 1_555
Sm0_2 Sm1_4 3.910799 1_565
Sm0_3 Sm3_1 3.588795 1_565
Sm0_3 Sm3_7 3.588795 1_555
Sm0_3 Sm1_1 3.604837 1_565
Sm0_3 Sm1_7 3.604837 1_555
Sm0_3 Sm2_3 3.729955 1_555
Sm0_3 Sm0_5 3.782748 1_555
Sm0_3 Sm0_5 3.782748 1_465
Sm0_3 Sm2_2 3.864774 1_556
Sm0_3 Sm1_5 3.910799 1_565
Sm0_4 Sm3_0 3.588795 1_655
Sm0_4 Sm3_6 3.588795 1_555
Sm0_4 Sm1_6 3.604837 1_555
Sm0_4 Sm1_0 3.604837 1_655
Sm0_4 Sm2_4 3.729955 1_555
Sm0_4 Sm2_5 3.864774 1_555
Sm0_4 Sm1_2 3.910799 1_655
Sm0_5 Sm3_7 3.588795 1_555
Sm0_5 Sm3_1 3.588795 1_655
Sm0_5 Sm1_7 3.604837 1_555
Sm0_5 Sm1_1 3.604837 1_655
Sm0_5 Sm2_5 3.729955 1_555
Sm0_5 Sm2_4 3.864774 1_556
Sm0_5 Sm1_3 3.910799 1_655
Sm0_6 Sm3_4 3.588795 1_565
Sm0_6 Sm3_2 3.588795 1_655
Sm0_6 Sm1_2 3.604837 1_655
Sm0_6 Sm1_4 3.604837 1_565
Sm0_6 Sm2_6 3.729955 1_555
Sm0_6 Sm2_7 3.864774 1_555
Sm0_6 Sm1_0 3.910799 1_665
Sm0_7 Sm3_5 3.588795 1_565
Sm0_7 Sm3_3 3.588795 1_655
Sm0_7 Sm1_3 3.604837 1_655
Sm0_7 Sm1_5 3.604837 1_565
Sm0_7 Sm2_7 3.729955 1_555
Sm0_7 Sm2_6 3.864774 1_556
Sm0_7 Sm1_1 3.910799 1_665
Sm1_0 Sm2_2 3.588795 1_545
Sm1_0 Sm2_4 3.588795 1_455
Sm1_0 Sm3_0 3.729955 1_555
Sm1_0 Sm1_6 3.782748 1_545
Sm1_0 Sm1_6 3.782748 1_455
Sm1_0 Sm3_1 3.864774 1_554
Sm1_1 Sm2_3 3.588795 1_545
Sm1_1 Sm2_5 3.588795 1_455
Sm1_1 Sm3_1 3.729955 1_555
Sm1_1 Sm1_7 3.782748 1_545
Sm1_1 Sm1_7 3.782748 1_455
Sm1_1 Sm3_0 3.864774 1_555
Sm1_2 Sm2_6 3.588795 1_455
Sm1_2 Sm2_0 3.588795 1_555
Sm1_2 Sm3_2 3.729955 1_555
Sm1_2 Sm1_4 3.782748 1_465
Sm1_2 Sm1_4 3.782748 1_555
Sm1_2 Sm3_3 3.864774 1_554
Sm1_3 Sm2_7 3.588795 1_455
Sm1_3 Sm2_1 3.588795 1_555
Sm1_3 Sm3_3 3.729955 1_555
Sm1_3 Sm1_5 3.782748 1_555
Sm1_3 Sm1_5 3.782748 1_465
Sm1_3 Sm3_2 3.864774 1_555
Sm1_4 Sm2_6 3.588795 1_545
Sm1_4 Sm2_0 3.588795 1_555
Sm1_4 Sm3_4 3.729955 1_555
Sm1_4 Sm3_5 3.864774 1_554
Sm1_5 Sm2_7 3.588795 1_545
Sm1_5 Sm2_1 3.588795 1_555
Sm1_5 Sm3_5 3.729955 1_555
Sm1_5 Sm3_4 3.864774 1_555
Sm1_6 Sm2_4 3.588795 1_555
Sm1_6 Sm2_2 3.588795 1_555
Sm1_6 Sm3_6 3.729955 1_555
Sm1_6 Sm3_7 3.864774 1_554
Sm1_7 Sm2_5 3.588795 1_555
Sm1_7 Sm2_3 3.588795 1_555
Sm1_7 Sm3_7 3.729955 1_555
Sm1_7 Sm3_6 3.864774 1_555
Sm2_0 Sm3_3 3.567439 1_554
Sm2_0 Sm3_5 3.567439 1_554
Sm2_0 Sm2_6 3.782748 1_545
Sm2_0 Sm2_6 3.782748 1_455
Sm2_1 Sm3_2 3.567439 1_555
Sm2_1 Sm3_4 3.567439 1_555
Sm2_1 Sm2_7 3.782748 1_455
Sm2_1 Sm2_7 3.782748 1_545
Sm2_2 Sm3_1 3.567439 1_564
Sm2_2 Sm3_7 3.567439 1_554
Sm2_2 Sm2_4 3.782748 1_465
Sm2_2 Sm2_4 3.782748 1_555
Sm2_3 Sm3_0 3.567439 1_565
Sm2_3 Sm3_6 3.567439 1_555
Sm2_3 Sm2_5 3.782748 1_555
Sm2_3 Sm2_5 3.782748 1_465
Sm2_4 Sm3_1 3.567439 1_654
Sm2_4 Sm3_7 3.567439 1_554
Sm2_5 Sm3_0 3.567439 1_655
Sm2_5 Sm3_6 3.567439 1_555
Sm2_6 Sm3_5 3.567439 1_564
Sm2_6 Sm3_3 3.567439 1_654
Sm2_7 Sm3_2 3.567439 1_655
Sm2_7 Sm3_4 3.567439 1_565
Sm3_0 Sm3_6 3.782748 1_545
Sm3_0 Sm3_6 3.782748 1_455
Sm3_1 Sm3_7 3.782748 1_545
Sm3_1 Sm3_7 3.782748 1_455
Sm3_2 Sm3_4 3.782748 1_555
Sm3_2 Sm3_4 3.782748 1_465
Sm3_3 Sm3_5 3.782748 1_555
Sm3_3 Sm3_5 3.782748 1_465
Mg0_0 Sm2_3 3.330468 1_545
Mg0_0 Sm2_5 3.330468 1_455
Mg0_0 Sm0_4 3.338797 1_455
Mg0_0 Sm0_2 3.338797 1_545
Mg0_0 Sm3_2 3.345491 1_555
Mg0_0 Sm3_4 3.345491 1_555
Mg0_0 Sm1_4 3.355053 1_555
Mg0_0 Sm1_2 3.355053 1_555
Mg0_1 Sm2_2 3.330468 1_546
Mg0_1 Sm2_4 3.330468 1_456
Mg0_1 Sm0_3 3.338797 1_545
Mg0_1 Sm0_5 3.338797 1_455
Mg0_1 Sm3_3 3.345491 1_555
Mg0_1 Sm3_5 3.345491 1_555
Mg0_1 Sm1_5 3.355053 1_555
Mg0_1 Sm1_3 3.355053 1_555
Mg0_2 Sm2_1 3.330468 1_555
Mg0_2 Sm2_7 3.330468 1_455
Mg0_2 Sm0_0 3.338797 1_555
Mg0_2 Sm0_6 3.338797 1_455
Mg0_2 Sm3_6 3.345491 1_555
Mg0_2 Sm3_0 3.345491 1_565
Mg0_2 Sm1_0 3.355053 1_565
Mg0_2 Sm1_6 3.355053 1_555
Mg0_3 Sm2_0 3.330468 1_556
Mg0_3 Sm2_6 3.330468 1_456
Mg0_3 Sm0_1 3.338797 1_555
Mg0_3 Sm0_7 3.338797 1_455
Mg0_3 Sm3_7 3.345491 1_555
Mg0_3 Sm3_1 3.345491 1_565
Mg0_3 Sm1_7 3.355053 1_555
Mg0_3 Sm1_1 3.355053 1_565
Mg0_4 Sm2_1 3.330468 1_555
Mg0_4 Sm2_7 3.330468 1_545
Mg0_4 Sm0_0 3.338797 1_555
Mg0_4 Sm0_6 3.338797 1_545
Mg0_4 Sm3_6 3.345491 1_555
Mg0_4 Sm3_0 3.345491 1_655
Mg0_4 Sm1_0 3.355053 1_655
Mg0_4 Sm1_6 3.355053 1_555
Mg0_5 Sm2_0 3.330468 1_556
Mg0_5 Sm2_6 3.330468 1_546
Mg0_5 Sm0_1 3.338797 1_555
Mg0_5 Sm0_7 3.338797 1_545
Mg0_5 Sm3_7 3.345491 1_555
Mg0_5 Sm3_1 3.345491 1_655
Mg0_5 Sm1_1 3.355053 1_655
Mg0_5 Sm1_7 3.355053 1_555
Mg0_6 Sm2_3 3.330468 1_555
Mg0_6 Sm2_5 3.330468 1_555
Mg0_6 Sm0_4 3.338797 1_555
Mg0_6 Sm0_2 3.338797 1_555
Mg0_6 Sm3_4 3.345491 1_565
Mg0_6 Sm3_2 3.345491 1_655
Mg0_6 Sm1_4 3.355053 1_565
Mg0_6 Sm1_2 3.355053 1_655
Mg0_7 Sm2_2 3.330468 1_556
Mg0_7 Sm2_4 3.330468 1_556
Mg0_7 Sm0_5 3.338797 1_555
Mg0_7 Sm0_3 3.338797 1_555
Mg0_7 Sm3_5 3.345491 1_565
Mg0_7 Sm3_3 3.345491 1_655
Mg0_7 Sm1_5 3.355053 1_565
Mg0_7 Sm1_3 3.355053 1_655
Mg1_0 Sm3_3 3.330468 1_554
Mg1_0 Sm3_5 3.330468 1_554
Mg1_0 Sm1_4 3.338797 1_555
Mg1_0 Sm1_2 3.338797 1_555
Mg1_0 Sm2_2 3.345491 1_545
Mg1_0 Sm2_4 3.345491 1_455
Mg1_0 Sm0_4 3.355053 1_455
Mg1_0 Sm0_2 3.355053 1_545
Mg1_1 Sm3_2 3.330468 1_555
Mg1_1 Sm3_4 3.330468 1_555
Mg1_1 Sm1_5 3.338797 1_555
Mg1_1 Sm1_3 3.338797 1_555
Mg1_1 Sm2_3 3.345491 1_545
Mg1_1 Sm2_5 3.345491 1_455
Mg1_1 Sm0_3 3.355053 1_545
Mg1_1 Sm0_5 3.355053 1_455
Mg1_2 Sm3_7 3.330468 1_554
Mg1_2 Sm3_1 3.330468 1_564
Mg1_2 Sm1_0 3.338797 1_565
Mg1_2 Sm1_6 3.338797 1_555
Mg1_2 Sm2_0 3.345491 1_555
Mg1_2 Sm2_6 3.345491 1_455
Mg1_2 Sm0_0 3.355053 1_555
Mg1_2 Sm0_6 3.355053 1_455
Mg1_3 Sm3_6 3.330468 1_555
Mg1_3 Sm3_0 3.330468 1_565
Mg1_3 Sm1_7 3.338797 1_555
Mg1_3 Sm1_1 3.338797 1_565
Mg1_3 Sm2_1 3.345491 1_555
Mg1_3 Sm2_7 3.345491 1_455
Mg1_3 Sm0_1 3.355053 1_555
Mg1_3 Sm0_7 3.355053 1_455
Mg1_4 Sm3_7 3.330468 1_554
Mg1_4 Sm3_1 3.330468 1_654
Mg1_4 Sm1_6 3.338797 1_555
Mg1_4 Sm1_0 3.338797 1_655
Mg1_4 Sm2_0 3.345491 1_555
Mg1_4 Sm2_6 3.345491 1_545
Mg1_4 Sm0_0 3.355053 1_555
Mg1_4 Sm0_6 3.355053 1_545
Mg1_5 Sm3_6 3.330468 1_555
Mg1_5 Sm3_0 3.330468 1_655
Mg1_5 Sm1_1 3.338797 1_655
Mg1_5 Sm1_7 3.338797 1_555
Mg1_5 Sm2_1 3.345491 1_555
Mg1_5 Sm2_7 3.345491 1_545
Mg1_5 Sm0_1 3.355053 1_555
Mg1_5 Sm0_7 3.355053 1_545
Mg1_6 Sm3_5 3.330468 1_564
Mg1_6 Sm3_3 3.330468 1_654
Mg1_6 Sm1_4 3.338797 1_565
Mg1_6 Sm1_2 3.338797 1_655
Mg1_6 Sm2_2 3.345491 1_555
Mg1_6 Sm2_4 3.345491 1_555
Mg1_6 Sm0_4 3.355053 1_555
Mg1_6 Sm0_2 3.355053 1_555
Mg1_7 Sm3_2 3.330468 1_655
Mg1_7 Sm3_4 3.330468 1_565
Mg1_7 Sm1_5 3.338797 1_565
Mg1_7 Sm1_3 3.338797 1_655
Mg1_7 Sm2_3 3.345491 1_555
Mg1_7 Sm2_5 3.345491 1_555
Mg1_7 Sm0_5 3.355053 1_555
Mg1_7 Sm0_3 3.355053 1_555
