# generated using pymatgen
data_CaMg2
_symmetry_space_group_name_H-M   'P 1'
_cell_length_a   6.00455374
_cell_length_b   6.00455374
_cell_length_c   5.53480200
_cell_angle_alpha   90.00000000
_cell_angle_beta   90.00000000
_cell_angle_gamma   119.99999711
_symmetry_Int_Tables_number   1
_chemical_formula_structural   CaMg2
_chemical_formula_sum   'Ca2 Mg4'
_cell_volume   172.82008140
_cell_formula_units_Z   2
loop_
 _symmetry_equiv_pos_site_id
 _symmetry_equiv_pos_as_xyz
  1  'x, y, z'
loop_
 _atom_site_type_symbol
 _atom_site_label
 _atom_site_symmetry_multiplicity
 _atom_site_fract_x
 _atom_site_fract_y
 _atom_site_fract_z
 _atom_site_occupancy
  Ca  Ca0  1  0.33333300  0.66666700  0.50000000  1
  Ca  Ca1  1  0.66666700  0.33333300  0.50000000  1
  Mg  Mg0  1  0.69154000  0.00000000  0.00000000  1
  Mg  Mg1  1  0.00000000  0.69154000  0.00000000  1
  Mg  Mg2  1  0.30846000  0.30846000  0.00000000  1
  Mg  Mg3  1  0.00000000  0.00000000  0.50000000  1
loop_
_geom_bond_atom_site_label_1
_geom_bond_atom_site_label_2
_geom_bond_distance
_geom_bond_site_symmetry_2
Ca0 Mg1 3.462053 1_555
Ca0 Mg1 3.462053 1_556
Ca0 Mg0 3.462055 1_566
Ca0 Mg0 3.462055 1_565
Ca0 Mg2 3.462056 1_555
Ca0 Mg2 3.462056 1_556
Ca0 Mg3 3.466727 1_565
Ca0 Ca1 3.466727 1_455
Ca0 Ca1 3.466727 1_565
Ca0 Mg3 3.466733 1_555
Ca0 Mg3 3.466733 1_665
Ca0 Ca1 3.466738 1_555
Ca1 Mg0 3.462053 1_556
Ca1 Mg0 3.462053 1_555
Ca1 Mg1 3.462055 1_655
Ca1 Mg1 3.462055 1_656
Ca1 Mg2 3.462056 1_555
Ca1 Mg2 3.462056 1_556
Ca1 Mg3 3.466727 1_655
Ca1 Mg3 3.466733 1_555
Ca1 Mg3 3.466733 1_665
Mg0 Mg1 3.208043 1_645
Mg0 Mg2 3.208043 1_655
Mg0 Mg3 3.330018 1_655
Mg0 Mg3 3.330018 1_654
Mg1 Mg2 3.208043 1_565
Mg1 Mg3 3.330018 1_564
Mg1 Mg3 3.330018 1_565
Mg2 Mg3 3.330018 1_555
Mg2 Mg3 3.330018 1_554
