# generated using pymatgen
data_K6U5As2O23
_symmetry_space_group_name_H-M   'P 1'
_cell_length_a   24.88358300
_cell_length_b   7.10661600
_cell_length_c   7.20729430
_cell_angle_alpha   81.45181670
_cell_angle_beta   90.00000000
_cell_angle_gamma   90.00000000
_symmetry_Int_Tables_number   1
_chemical_formula_structural   K6U5As2O23
_chemical_formula_sum   'K12 U10 As4 O46'
_cell_volume   1260.36559113
_cell_formula_units_Z   2
loop_
 _symmetry_equiv_pos_site_id
 _symmetry_equiv_pos_as_xyz
  1  'x, y, z'
loop_
 _atom_site_type_symbol
 _atom_site_label
 _atom_site_symmetry_multiplicity
 _atom_site_fract_x
 _atom_site_fract_y
 _atom_site_fract_z
 _atom_site_occupancy
  K  K0  1  0.38498600  0.36761300  0.76832900  1
  K  K1  1  0.88498600  0.63238700  0.73167100  1
  K  K2  1  0.61501400  0.63238700  0.23167100  1
  K  K3  1  0.11501400  0.36761300  0.26832900  1
  K  K4  1  0.54048300  0.54589500  0.73447100  1
  K  K5  1  0.04048300  0.45410500  0.76552900  1
  K  K6  1  0.45951700  0.45410500  0.26552900  1
  K  K7  1  0.95951700  0.54589500  0.23447100  1
  K  K8  1  0.28611600  0.24356200  0.30402200  1
  K  K9  1  0.78611600  0.75643800  0.19597800  1
  K  K10  1  0.71388400  0.75643800  0.69597800  1
  K  K11  1  0.21388400  0.24356200  0.80402200  1
  U  U0  1  0.41897000  0.90599300  0.51578300  1
  U  U1  1  0.91897000  0.09400700  0.98421700  1
  U  U2  1  0.58103000  0.09400700  0.48421700  1
  U  U3  1  0.08103000  0.90599300  0.01578300  1
  U  U4  1  0.35652400  0.84710000  0.02950800  1
  U  U5  1  0.85652400  0.15290000  0.47049200  1
  U  U6  1  0.64347600  0.15290000  0.97049200  1
  U  U7  1  0.14347600  0.84710000  0.52950800  1
  U  U8  1  0.50000000  0.00000000  0.00000000  1
  U  U9  1  0.00000000  0.00000000  0.50000000  1
  As  As0  1  0.29538700  0.71408500  0.54663700  1
  As  As1  1  0.79538700  0.28591500  0.95336300  1
  As  As2  1  0.70461300  0.28591500  0.45336300  1
  As  As3  1  0.20461300  0.71408500  0.04663700  1
  O  O0  1  0.28897800  0.47548100  0.58044500  1
  O  O1  1  0.78897800  0.52451900  0.91955500  1
  O  O2  1  0.71102200  0.52451900  0.41955500  1
  O  O3  1  0.21102200  0.47548100  0.08044500  1
  O  O4  1  0.23671100  0.83903600  0.52876200  1
  O  O5  1  0.73671100  0.16096400  0.97123800  1
  O  O6  1  0.76328900  0.16096400  0.47123800  1
  O  O7  1  0.26328900  0.83903600  0.02876200  1
  O  O8  1  0.33588700  0.80577200  0.35583900  1
  O  O9  1  0.83588700  0.19422800  0.14416100  1
  O  O10  1  0.66411300  0.19422800  0.64416100  1
  O  O11  1  0.16411300  0.80577200  0.85583900  1
  O  O12  1  0.33732300  0.79808800  0.71065500  1
  O  O13  1  0.83732300  0.20191200  0.78934500  1
  O  O14  1  0.66267700  0.20191200  0.28934500  1
  O  O15  1  0.16267700  0.79808800  0.21065500  1
  O  O16  1  0.39350800  0.15682700  0.46593700  1
  O  O17  1  0.89350800  0.84317300  0.03406300  1
  O  O18  1  0.60649200  0.84317300  0.53406300  1
  O  O19  1  0.10649200  0.15682700  0.96593700  1
  O  O20  1  0.44106400  0.65015100  0.56298000  1
  O  O21  1  0.94106400  0.34984900  0.93702000  1
  O  O22  1  0.55893600  0.34984900  0.43702000  1
  O  O23  1  0.05893600  0.65015100  0.06298000  1
  O  O24  1  0.50000000  0.00000000  0.50000000  1
  O  O25  1  0.00000000  0.00000000  0.00000000  1
  O  O26  1  0.42812500  0.93590400  0.82840400  1
  O  O27  1  0.92812500  0.06409600  0.67159600  1
  O  O28  1  0.57187500  0.06409600  0.17159600  1
  O  O29  1  0.07187500  0.93590400  0.32840400  1
  O  O30  1  0.56877600  0.09966800  0.80114200  1
  O  O31  1  0.06877600  0.90033200  0.69885800  1
  O  O32  1  0.43122400  0.90033200  0.19885800  1
  O  O33  1  0.93122400  0.09966800  0.30114200  1
  O  O34  1  0.33970000  0.10341600  0.00799100  1
  O  O35  1  0.83970000  0.89658400  0.49200900  1
  O  O36  1  0.66030000  0.89658400  0.99200900  1
  O  O37  1  0.16030000  0.10341600  0.50799100  1
  O  O38  1  0.36937100  0.58673200  0.06217500  1
  O  O39  1  0.86937100  0.41326800  0.43782500  1
  O  O40  1  0.63062900  0.41326800  0.93782500  1
  O  O41  1  0.13062900  0.58673200  0.56217500  1
  O  O42  1  0.52155600  0.74468600  0.02340800  1
  O  O43  1  0.02155600  0.25531400  0.47659200  1
  O  O44  1  0.47844400  0.25531400  0.97659200  1
  O  O45  1  0.97844400  0.74468600  0.52340800  1
loop_
_geom_bond_atom_site_label_1
_geom_bond_atom_site_label_2
_geom_bond_distance
_geom_bond_site_symmetry_2
K0 O34 2.610466 1_556
K0 O20 2.699226 1_555
K0 O0 2.796455 1_555
K0 O44 2.818174 1_555
K0 O16 2.830080 1_555
K0 O38 2.835746 1_556
K1 O35 2.610466 1_555
K1 O21 2.699226 1_555
K1 O1 2.796455 1_555
K1 O45 2.818174 1_555
K1 O17 2.830080 1_556
K1 O39 2.835746 1_555
K2 O36 2.610466 1_554
K2 O22 2.699226 1_555
K2 O2 2.796455 1_555
K2 O42 2.818174 1_555
K2 O18 2.830080 1_555
K2 O40 2.835746 1_554
K3 O37 2.610466 1_555
K3 O23 2.699226 1_555
K3 O3 2.796455 1_555
K3 O43 2.818174 1_555
K3 O19 2.830080 1_554
K3 O41 2.835746 1_555
K4 O42 2.725588 1_556
K4 O22 2.763294 1_555
K4 O40 2.767222 1_555
K4 O20 2.815059 1_555
K4 O18 2.887962 1_555
K4 O44 2.936234 1_555
K4 O30 3.214007 1_555
K5 O43 2.725588 1_555
K5 O23 2.763294 1_556
K5 O41 2.767222 1_555
K5 O21 2.815059 1_455
K5 O19 2.887962 1_555
K5 O45 2.936234 1_455
K5 O31 3.214007 1_555
K6 O44 2.725588 1_554
K6 O20 2.763294 1_555
K6 O38 2.767222 1_555
K6 O22 2.815059 1_555
K6 O16 2.887962 1_555
K6 O42 2.936234 1_555
K6 O32 3.214007 1_555
K7 O45 2.725588 1_555
K7 O21 2.763294 1_554
K7 O39 2.767222 1_555
K7 O23 2.815059 1_655
K7 O17 2.887962 1_555
K7 O43 2.936234 1_655
K7 O33 3.214007 1_555
K8 O0 2.768890 1_555
K8 O34 2.820228 1_555
K8 O3 2.831106 1_555
K8 O16 2.944332 1_555
K9 O1 2.768890 1_554
K9 O35 2.820228 1_555
K9 O2 2.831106 1_555
K9 O17 2.944332 1_555
K10 O2 2.768890 1_555
K10 O36 2.820228 1_555
K10 O1 2.831106 1_555
K10 O18 2.944332 1_555
K11 O3 2.768890 1_556
K11 O37 2.820228 1_555
K11 O0 2.831106 1_555
K11 O19 2.944332 1_555
As0 O0 1.684418 1_555
As0 O4 1.703789 1_555
As0 O12 1.747148 1_555
As0 O8 1.750664 1_555
As1 O1 1.684418 1_555
As1 O5 1.703789 1_555
As1 O13 1.747148 1_555
As1 O9 1.750664 1_556
As2 O2 1.684418 1_555
As2 O6 1.703789 1_555
As2 O14 1.747148 1_555
As2 O10 1.750664 1_555
As3 O3 1.684418 1_555
As3 O7 1.703789 1_555
As3 O15 1.747148 1_555
As3 O11 1.750664 1_554
O4 U7 2.320755 1_555
O5 U6 2.320755 1_555
O6 U5 2.320755 1_555
O7 U4 2.320755 1_555
O8 U4 2.382508 1_555
O8 U0 2.520788 1_555
O9 U5 2.382508 1_555
O9 U1 2.520788 1_554
O10 U6 2.382508 1_555
O10 U2 2.520788 1_555
O11 U7 2.382508 1_555
O11 U3 2.520788 1_556
O12 U4 2.422534 1_556
O12 U0 2.523522 1_555
O13 U5 2.422534 1_555
O13 U1 2.523522 1_555
O14 U6 2.422534 1_554
O14 U2 2.523522 1_555
O15 U7 2.422534 1_555
O15 U3 2.523522 1_555
O16 U0 1.875556 1_545
O17 U1 1.875556 1_564
O18 U2 1.875556 1_565
O19 U3 1.875556 1_546
O20 U0 1.881449 1_555
O21 U1 1.881449 1_555
O22 U2 1.881449 1_555
O23 U3 1.881449 1_555
O24 U2 2.121839 1_555
O24 U0 2.121839 1_545
O25 U1 2.121839 1_454
O25 U3 2.121839 1_545
O26 U8 2.259037 1_566
O26 U0 2.305679 1_555
O26 U4 2.324129 1_556
O27 U9 2.259037 1_655
O27 U1 2.305679 1_555
O27 U5 2.324129 1_555
O28 U8 2.259037 1_555
O28 U2 2.305679 1_555
O28 U6 2.324129 1_554
O29 U9 2.259037 1_565
O29 U3 2.305679 1_555
O29 U7 2.324129 1_555
O30 U8 2.276601 1_556
O30 U6 2.285888 1_555
O30 U2 2.310705 1_555
O31 U9 2.276601 1_565
O31 U7 2.285888 1_555
O31 U3 2.310705 1_556
O32 U8 2.276601 1_565
O32 U4 2.285888 1_555
O32 U0 2.310705 1_555
O33 U9 2.276601 1_655
O33 U5 2.285888 1_555
O33 U1 2.310705 1_554
O34 U4 1.852927 1_545
O35 U5 1.852927 1_565
O36 U6 1.852927 1_565
O37 U7 1.852927 1_545
O38 U4 1.857918 1_555
O39 U5 1.857918 1_555
O40 U6 1.857918 1_555
O41 U7 1.857918 1_555
O42 U8 1.875444 1_565
O43 U9 1.875444 1_555
O44 U8 1.875444 1_556
O45 U9 1.875444 1_665
