# generated using pymatgen
data_SrSbAu
_symmetry_space_group_name_H-M   'P 1'
_cell_length_a   5.46816765
_cell_length_b   5.46816765
_cell_length_c   6.52165300
_cell_angle_alpha   90.00000000
_cell_angle_beta   90.00000000
_cell_angle_gamma   119.99999581
_symmetry_Int_Tables_number   1
_chemical_formula_structural   SrSbAu
_chemical_formula_sum   'Sr2 Sb2 Au2'
_cell_volume   168.87757361
_cell_formula_units_Z   2
loop_
 _symmetry_equiv_pos_site_id
 _symmetry_equiv_pos_as_xyz
  1  'x, y, z'
loop_
 _atom_site_type_symbol
 _atom_site_label
 _atom_site_symmetry_multiplicity
 _atom_site_fract_x
 _atom_site_fract_y
 _atom_site_fract_z
 _atom_site_occupancy
  Sr  Sr0  1  0.66666700  0.33333300  0.75000000  1
  Sr  Sr1  1  0.33333300  0.66666700  0.25000000  1
  Sb  Sb0  1  0.33333300  0.66666700  0.75000000  1
  Sb  Sb1  1  0.66666700  0.33333300  0.25000000  1
  Au  Au0  1  0.00000000  0.00000000  0.50000000  1
  Au  Au1  1  0.00000000  0.00000000  0.00000000  1
loop_
_geom_bond_atom_site_label_1
_geom_bond_atom_site_label_2
_geom_bond_distance
_geom_bond_site_symmetry_2
Sb0 Sr0 3.157045 1_455
Sb0 Sr0 3.157045 1_565
Sb0 Sr0 3.157054 1_555
Sb0 Sr1 3.260826 1_555
Sb0 Sr1 3.260826 1_556
Sb1 Sr1 3.157045 1_545
Sb1 Sr1 3.157045 1_655
Sb1 Sr1 3.157054 1_555
Sb1 Sr0 3.260826 1_555
Sb1 Sr0 3.260826 1_554
Au0 Sr1 3.553193 1_545
Au0 Sr0 3.553193 1_455
Au0 Sr0 3.553197 1_555
Au0 Sr0 3.553197 1_445
Au0 Sr1 3.553197 1_555
Au0 Sr1 3.553197 1_445
Au1 Sr1 3.553193 1_545
Au1 Sr0 3.553193 1_454
Au1 Sr0 3.553197 1_554
Au1 Sr0 3.553197 1_444
Au1 Sr1 3.553197 1_555
Au1 Sr1 3.553197 1_445
