# generated using pymatgen
data_Rb3LaN6
_symmetry_space_group_name_H-M   'P 1'
_cell_length_a   8.34273327
_cell_length_b   8.34273327
_cell_length_c   8.34273317
_cell_angle_alpha   93.09047104
_cell_angle_beta   93.09047104
_cell_angle_gamma   93.09047168
_symmetry_Int_Tables_number   1
_chemical_formula_structural   Rb3LaN6
_chemical_formula_sum   'Rb6 La2 N12'
_cell_volume   578.03566104
_cell_formula_units_Z   2
loop_
 _symmetry_equiv_pos_site_id
 _symmetry_equiv_pos_as_xyz
  1  'x, y, z'
loop_
 _atom_site_type_symbol
 _atom_site_label
 _atom_site_symmetry_multiplicity
 _atom_site_fract_x
 _atom_site_fract_y
 _atom_site_fract_z
 _atom_site_occupancy
  Rb  Rb0  1  0.89986500  0.60013500  0.25000000  1
  Rb  Rb1  1  0.25000000  0.89986500  0.60013500  1
  Rb  Rb2  1  0.60013500  0.25000000  0.89986500  1
  Rb  Rb3  1  0.75000000  0.10013500  0.39986500  1
  Rb  Rb4  1  0.39986500  0.75000000  0.10013500  1
  Rb  Rb5  1  0.10013500  0.39986500  0.75000000  1
  La  La0  1  0.50000000  0.50000000  0.50000000  1
  La  La1  1  0.00000000  0.00000000  0.00000000  1
  N  N0  1  0.27597600  0.06461500  0.94102500  1
  N  N1  1  0.94102500  0.27597600  0.06461500  1
  N  N2  1  0.06461500  0.94102500  0.27597600  1
  N  N3  1  0.44102500  0.56461500  0.77597600  1
  N  N4  1  0.77597600  0.44102500  0.56461500  1
  N  N5  1  0.56461500  0.77597600  0.44102500  1
  N  N6  1  0.72402400  0.93538500  0.05897500  1
  N  N7  1  0.05897500  0.72402400  0.93538500  1
  N  N8  1  0.93538500  0.05897500  0.72402400  1
  N  N9  1  0.55897500  0.43538500  0.22402400  1
  N  N10  1  0.22402400  0.55897500  0.43538500  1
  N  N11  1  0.43538500  0.22402400  0.55897500  1
loop_
_geom_bond_atom_site_label_1
_geom_bond_atom_site_label_2
_geom_bond_distance
_geom_bond_site_symmetry_2
La0 N9 2.418802 1_555
La0 N3 2.418802 1_555
La0 N5 2.418802 1_555
La0 N11 2.418802 1_555
La0 N4 2.418802 1_555
La0 N10 2.418802 1_555
La1 N2 2.418802 1_545
La1 N8 2.418802 1_454
La1 N6 2.418802 1_445
La1 N0 2.418802 1_554
La1 N1 2.418802 1_455
La1 N7 2.418802 1_544
N0 Rb1 3.082879 1_545
N0 Rb2 3.087065 1_555
N0 Rb4 3.199979 1_546
N1 Rb2 3.082879 1_554
N1 Rb0 3.087065 1_555
N1 Rb5 3.199979 1_654
N2 Rb0 3.082879 1_455
N2 Rb1 3.087065 1_555
N2 Rb3 3.199979 1_465
N3 Rb5 3.082879 1_555
N3 Rb4 3.087065 1_556
N3 Rb2 3.199979 1_555
N4 Rb3 3.082879 1_555
N4 Rb5 3.087065 1_655
N4 Rb0 3.199979 1_555
N5 Rb4 3.082879 1_555
N5 Rb3 3.087065 1_565
N5 Rb1 3.199979 1_555
N6 Rb3 3.082879 1_565
N6 Rb4 3.087065 1_555
N6 Rb2 3.199979 1_564
N7 Rb4 3.082879 1_556
N7 Rb5 3.087065 1_555
N7 Rb0 3.199979 1_456
N8 Rb5 3.082879 1_655
N8 Rb3 3.087065 1_555
N8 Rb1 3.199979 1_645
N9 Rb0 3.082879 1_555
N9 Rb2 3.087065 1_554
N9 Rb4 3.199979 1_555
N10 Rb1 3.082879 1_555
N10 Rb0 3.087065 1_455
N10 Rb5 3.199979 1_555
N11 Rb2 3.082879 1_555
N11 Rb1 3.087065 1_545
N11 Rb3 3.199979 1_555
