# generated using pymatgen
data_YFeCu
_symmetry_space_group_name_H-M   'P 1'
_cell_length_a   5.22349146
_cell_length_b   5.22349146
_cell_length_c   5.22349146
_cell_angle_alpha   122.00561614
_cell_angle_beta   120.55602840
_cell_angle_gamma   87.80027130
_symmetry_Int_Tables_number   1
_chemical_formula_structural   YFeCu
_chemical_formula_sum   'Y2 Fe2 Cu2'
_cell_volume   98.72764029
_cell_formula_units_Z   2
loop_
 _symmetry_equiv_pos_site_id
 _symmetry_equiv_pos_as_xyz
  1  'x, y, z'
loop_
 _atom_site_type_symbol
 _atom_site_label
 _atom_site_symmetry_multiplicity
 _atom_site_fract_x
 _atom_site_fract_y
 _atom_site_fract_z
 _atom_site_occupancy
  Y  Y0  1  0.37080700  0.12080700  0.25000000  1
  Y  Y1  1  0.62919300  0.87919300  0.75000000  1
  Fe  Fe0  1  0.00000000  0.50000000  0.00000000  1
  Fe  Fe1  1  0.00000000  0.00000000  0.50000000  1
  Cu  Cu0  1  0.50000000  0.50000000  0.00000000  1
  Cu  Cu1  1  0.00000000  0.50000000  0.50000000  1
loop_
_geom_bond_atom_site_label_1
_geom_bond_atom_site_label_2
_geom_bond_distance
_geom_bond_site_symmetry_2
Fe0 Fe1 2.532175 1_554
Fe0 Fe1 2.532175 1_565
Fe0 Y1 3.042307 1_555
Fe0 Y0 3.042307 1_454
Fe0 Y1 3.042307 1_454
Fe0 Y0 3.042307 1_555
Fe0 Y1 3.064995 1_444
Fe0 Y0 3.064995 1_565
Fe1 Y1 3.042307 1_545
Fe1 Y0 3.042307 1_556
Fe1 Y0 3.042307 1_455
Fe1 Y1 3.042307 1_444
Fe1 Y0 3.064995 1_555
Fe1 Y1 3.064995 1_445
Cu0 Cu1 2.589765 1_554
Cu0 Cu1 2.589765 1_655
Cu0 Fe0 2.611746 1_655
Cu0 Fe1 2.611746 1_665
Cu0 Fe1 2.611746 1_554
Cu0 Fe0 2.611746 1_555
Cu0 Y1 2.985902 1_544
Cu0 Y0 2.985902 1_554
Cu0 Y1 2.985902 1_555
Cu0 Y0 2.985902 1_565
Cu0 Y0 3.134378 1_555
Cu0 Y1 3.134378 1_554
Cu1 Fe1 2.611746 1_555
Cu1 Fe1 2.611746 1_565
Cu1 Fe0 2.611746 1_555
Cu1 Fe0 2.611746 1_556
Cu1 Y0 2.985902 1_566
Cu1 Y1 2.985902 1_455
Cu1 Y0 2.985902 1_555
Cu1 Y1 2.985902 1_444
Cu1 Y0 3.134378 1_455
Cu1 Y1 3.134378 1_555
