# generated using pymatgen
data_MgMn3O7
_symmetry_space_group_name_H-M   'P 1'
_cell_length_a   5.45648600
_cell_length_b   9.61065600
_cell_length_c   10.39044100
_cell_angle_alpha   90.00000000
_cell_angle_beta   90.00000000
_cell_angle_gamma   90.00000000
_symmetry_Int_Tables_number   1
_chemical_formula_structural   MgMn3O7
_chemical_formula_sum   'Mg4 Mn12 O28'
_cell_volume   544.87898524
_cell_formula_units_Z   4
loop_
 _symmetry_equiv_pos_site_id
 _symmetry_equiv_pos_as_xyz
  1  'x, y, z'
loop_
 _atom_site_type_symbol
 _atom_site_label
 _atom_site_symmetry_multiplicity
 _atom_site_fract_x
 _atom_site_fract_y
 _atom_site_fract_z
 _atom_site_occupancy
  Mg  Mg0  1  0.37427900  0.04439200  0.25000000  1
  Mg  Mg1  1  0.87427900  0.45560800  0.75000000  1
  Mg  Mg2  1  0.62572100  0.95560800  0.75000000  1
  Mg  Mg3  1  0.12572100  0.54439200  0.25000000  1
  Mn  Mn0  1  0.71043700  0.70125800  0.97170200  1
  Mn  Mn1  1  0.21043700  0.79874200  0.02829800  1
  Mn  Mn2  1  0.28956300  0.29874200  0.47170200  1
  Mn  Mn3  1  0.78956300  0.20125800  0.52829800  1
  Mn  Mn4  1  0.70812600  0.76474800  0.25000000  1
  Mn  Mn5  1  0.20812600  0.73525200  0.75000000  1
  Mn  Mn6  1  0.29187400  0.23525200  0.75000000  1
  Mn  Mn7  1  0.79187400  0.26474800  0.25000000  1
  Mn  Mn8  1  0.21043700  0.79874200  0.47170200  1
  Mn  Mn9  1  0.71043700  0.70125800  0.52829800  1
  Mn  Mn10  1  0.78956300  0.20125800  0.97170200  1
  Mn  Mn11  1  0.28956300  0.29874200  0.02829800  1
  O  O0  1  0.04483400  0.29058100  0.87791400  1
  O  O1  1  0.54483400  0.20941900  0.12208600  1
  O  O2  1  0.95516600  0.70941900  0.37791400  1
  O  O3  1  0.45516600  0.79058100  0.62208600  1
  O  O4  1  0.95516600  0.70941900  0.12208600  1
  O  O5  1  0.45516600  0.79058100  0.87791400  1
  O  O6  1  0.04483400  0.29058100  0.62208600  1
  O  O7  1  0.54483400  0.20941900  0.37791400  1
  O  O8  1  0.52005100  0.28115900  0.88222800  1
  O  O9  1  0.02005100  0.21884100  0.11777200  1
  O  O10  1  0.47994900  0.71884100  0.38222800  1
  O  O11  1  0.97994900  0.78115900  0.61777200  1
  O  O12  1  0.47994900  0.71884100  0.11777200  1
  O  O13  1  0.97994900  0.78115900  0.88222800  1
  O  O14  1  0.52005100  0.28115900  0.61777200  1
  O  O15  1  0.02005100  0.21884100  0.38222800  1
  O  O16  1  0.80207400  0.44324700  0.25000000  1
  O  O17  1  0.30207400  0.05675300  0.75000000  1
  O  O18  1  0.19792600  0.55675300  0.75000000  1
  O  O19  1  0.69792600  0.94324700  0.25000000  1
  O  O20  1  0.77437500  0.03593900  0.59019500  1
  O  O21  1  0.27437500  0.46406100  0.40980500  1
  O  O22  1  0.22562500  0.96406100  0.09019500  1
  O  O23  1  0.72562500  0.53593900  0.90980500  1
  O  O24  1  0.22562500  0.96406100  0.40980500  1
  O  O25  1  0.72562500  0.53593900  0.59019500  1
  O  O26  1  0.77437500  0.03593900  0.90980500  1
  O  O27  1  0.27437500  0.46406100  0.09019500  1
loop_
_geom_bond_atom_site_label_1
_geom_bond_atom_site_label_2
_geom_bond_distance
_geom_bond_site_symmetry_2
Mg0 O24 2.002758 1_545
Mg0 O22 2.002758 1_545
Mg0 O19 2.015834 1_545
Mg0 O7 2.268918 1_555
Mg0 O1 2.268918 1_555
Mg1 O25 2.002758 1_555
Mg1 O23 2.002758 1_555
Mg1 O18 2.015834 1_655
Mg1 O0 2.268918 1_655
Mg1 O6 2.268918 1_655
Mg2 O26 2.002758 1_565
Mg2 O20 2.002758 1_565
Mg2 O17 2.015834 1_565
Mg2 O5 2.268918 1_555
Mg2 O3 2.268918 1_555
Mg3 O27 2.002758 1_555
Mg3 O21 2.002758 1_555
Mg3 O16 2.015834 1_455
Mg3 O2 2.268918 1_455
Mg3 O4 2.268918 1_455
Mn0 O23 1.716058 1_555
Mn0 O13 1.901735 1_555
Mn0 O5 1.904392 1_555
Mn0 O12 1.978323 1_556
Mn0 O4 2.056920 1_556
Mn1 O22 1.716058 1_555
Mn1 O12 1.901735 1_555
Mn1 O4 1.904392 1_455
Mn1 O13 1.978323 1_454
Mn1 O5 2.056920 1_554
Mn2 O21 1.716058 1_555
Mn2 O15 1.901735 1_555
Mn2 O7 1.904392 1_555
Mn2 O14 1.978323 1_555
Mn2 O6 2.056920 1_555
Mn3 O20 1.716058 1_555
Mn3 O14 1.901735 1_555
Mn3 O6 1.904392 1_655
Mn3 O15 1.978323 1_655
Mn3 O7 2.056920 1_555
Mn4 O19 1.716395 1_555
Mn4 O10 1.905889 1_555
Mn4 O12 1.905889 1_555
Mn4 O2 1.966276 1_555
Mn4 O4 1.966276 1_555
Mn5 O18 1.716395 1_555
Mn5 O13 1.905889 1_455
Mn5 O11 1.905889 1_455
Mn5 O5 1.966276 1_555
Mn5 O3 1.966276 1_555
Mn6 O17 1.716395 1_555
Mn6 O14 1.905889 1_555
Mn6 O8 1.905889 1_555
Mn6 O0 1.966276 1_555
Mn6 O6 1.966276 1_555
Mn7 O16 1.716395 1_555
Mn7 O15 1.905889 1_655
Mn7 O9 1.905889 1_655
Mn7 O7 1.966276 1_555
Mn7 O1 1.966276 1_555
Mn8 O24 1.716058 1_555
Mn8 O10 1.901735 1_555
Mn8 O2 1.904392 1_455
Mn8 O11 1.978323 1_455
Mn8 O3 2.056920 1_555
Mn9 O25 1.716058 1_555
Mn9 O11 1.901735 1_555
Mn9 O3 1.904392 1_555
Mn9 O10 1.978323 1_555
Mn9 O2 2.056920 1_555
Mn10 O26 1.716058 1_555
Mn10 O8 1.901735 1_555
Mn10 O0 1.904392 1_655
Mn10 O9 1.978323 1_656
Mn10 O1 2.056920 1_556
Mn11 O27 1.716058 1_555
Mn11 O9 1.901735 1_555
Mn11 O1 1.904392 1_555
Mn11 O8 1.978323 1_554
Mn11 O0 2.056920 1_554
