# generated using pymatgen
data_Ba6MgNb2Ir(ClO6)2
_symmetry_space_group_name_H-M   'P 1'
_cell_length_a   5.98117956
_cell_length_b   5.98097760
_cell_length_c   15.84522531
_cell_angle_alpha   89.97139328
_cell_angle_beta   90.04790836
_cell_angle_gamma   119.99964631
_symmetry_Int_Tables_number   1
_chemical_formula_structural   Ba6MgNb2Ir(ClO6)2
_chemical_formula_sum   'Ba6 Mg1 Nb2 Ir1 Cl2 O12'
_cell_volume   490.89596387
_cell_formula_units_Z   1
loop_
 _symmetry_equiv_pos_site_id
 _symmetry_equiv_pos_as_xyz
  1  'x, y, z'
loop_
 _atom_site_type_symbol
 _atom_site_label
 _atom_site_symmetry_multiplicity
 _atom_site_fract_x
 _atom_site_fract_y
 _atom_site_fract_z
 _atom_site_occupancy
  Ba  Ba0  1  0.33369000  0.66679200  0.36803200  1
  Ba  Ba1  1  0.33336500  0.66670600  0.78447800  1
  Ba  Ba2  1  0.66631300  0.33339300  0.63442100  1
  Ba  Ba3  1  0.66699800  0.33337900  0.87159300  1
  Ba  Ba4  1  0.33329100  0.66660200  0.04704400  1
  Ba  Ba5  1  0.66695800  0.33377200  0.24294800  1
  Mg  Mg0  1  0.66642700  0.33324000  0.05813500  1
  Nb  Nb0  1  0.00012100  0.00003000  0.81699100  1
  Nb  Nb1  1  0.99990700  0.00006000  0.19339000  1
  Ir  Ir0  1  0.00009100  0.99992900  0.00095500  1
  Cl  Cl0  1  0.66649700  0.33310800  0.43205900  1
  Cl  Cl1  1  0.33324900  0.66670600  0.57967300  1
  O  O0  1  0.15113500  0.30194000  0.91174900  1
  O  O1  1  0.32181700  0.16093100  0.75258500  1
  O  O2  1  0.15969100  0.31987500  0.25310200  1
  O  O3  1  0.83921900  0.67828700  0.75254900  1
  O  O4  1  0.83918200  0.16097300  0.75253900  1
  O  O5  1  0.84688600  0.69377900  0.09503300  1
  O  O6  1  0.15955500  0.83988000  0.25319300  1
  O  O7  1  0.30614000  0.15305300  0.09514000  1
  O  O8  1  0.84695200  0.15298300  0.09489900  1
  O  O9  1  0.69816200  0.84896400  0.91170500  1
  O  O10  1  0.67990800  0.83996200  0.25296700  1
  O  O11  1  0.15111300  0.84899100  0.91178300  1
loop_
_geom_bond_atom_site_label_1
_geom_bond_atom_site_label_2
_geom_bond_distance
_geom_bond_site_symmetry_2
Ba0 O6 2.557498 1_555
Ba0 O10 2.558272 1_555
Ba0 O2 2.558501 1_555
Ba0 Cl1 3.353502 1_555
Ba0 Cl0 3.597429 1_565
Ba0 Cl0 3.597495 1_555
Ba0 Cl0 3.602466 1_455
Ba1 O9 2.762146 1_555
Ba1 O0 2.763306 1_555
Ba1 O11 2.764095 1_555
Ba1 O3 3.032881 1_455
Ba1 O1 3.033216 1_565
Ba1 O4 3.033254 1_455
Ba1 O1 3.033724 1_555
Ba1 O4 3.034090 1_565
Ba1 O3 3.034467 1_555
Ba1 Cl1 3.245181 1_555
Ba2 O1 2.587355 1_555
Ba2 O3 2.587570 1_555
Ba2 O4 2.587765 1_555
Ba2 Cl0 3.206474 1_555
Ba2 Cl1 3.558365 1_555
Ba2 Cl1 3.560612 1_545
Ba2 Cl1 3.562466 1_655
Ba3 O1 2.597739 1_555
Ba3 O3 2.597896 1_555
Ba3 O4 2.598014 1_555
Ba3 Mg0 2.955804 1_556
Ba3 O0 3.060497 1_655
Ba3 O11 3.060969 1_655
Ba3 O9 3.061195 1_545
Ba3 O9 3.061846 1_555
Ba3 O11 3.062996 1_545
Ba3 O0 3.063221 1_555
Ba4 O11 2.855377 1_554
Ba4 O0 2.857318 1_554
Ba4 O9 2.859426 1_554
Ba4 O8 3.088277 1_565
Ba4 O5 3.088384 1_555
Ba4 O8 3.088518 1_455
Ba4 O7 3.088770 1_555
Ba4 O5 3.089533 1_455
Ba4 O7 3.089817 1_565
Ba5 Mg0 2.928404 1_555
Ba5 O6 2.991855 1_655
Ba5 O2 2.993741 1_655
Ba5 O10 2.993825 1_555
Ba5 O5 2.994918 1_555
Ba5 O7 2.995398 1_555
Ba5 Cl0 2.996509 1_555
Ba5 O10 2.997072 1_545
Ba5 O2 2.997817 1_555
Ba5 O6 2.999702 1_545
Ba5 O8 3.000360 1_555
Mg0 O7 1.956565 1_555
Mg0 O5 1.956916 1_555
Mg0 O8 1.957024 1_555
Nb0 O4 1.954515 1_455
Nb0 O3 1.954555 1_445
Nb0 O1 1.954605 1_555
Nb0 O11 2.167920 1_545
Nb0 O0 2.168019 1_555
Nb0 O9 2.168389 1_445
Nb1 O2 1.907783 1_655
Nb1 O6 1.907863 1_645
Nb1 O10 1.908078 1_545
Nb1 O8 2.223047 1_555
Nb1 O7 2.223316 1_655
Nb1 O5 2.223995 1_545
Ir0 O9 2.107814 1_454
Ir0 O0 2.108234 1_564
Ir0 O11 2.108597 1_554
Ir0 O8 2.175977 1_465
Ir0 O5 2.176317 1_455
Ir0 O7 2.176502 1_565
