# generated using pymatgen
data_Zr6GeI14
_symmetry_space_group_name_H-M   'P 1'
_cell_length_a   10.96460490
_cell_length_b   10.96460490
_cell_length_c   13.25705765
_cell_angle_alpha   90.00000000
_cell_angle_beta   90.00000000
_cell_angle_gamma   95.93984905
_symmetry_Int_Tables_number   1
_chemical_formula_structural   Zr6GeI14
_chemical_formula_sum   'Zr12 Ge2 I28'
_cell_volume   1585.24045235
_cell_formula_units_Z   2
loop_
 _symmetry_equiv_pos_site_id
 _symmetry_equiv_pos_as_xyz
  1  'x, y, z'
loop_
 _atom_site_type_symbol
 _atom_site_label
 _atom_site_symmetry_multiplicity
 _atom_site_fract_x
 _atom_site_fract_y
 _atom_site_fract_z
 _atom_site_occupancy
  Zr  Zr0  1  0.18199634  0.95322477  0.11638585  1
  Zr  Zr1  1  0.81800366  0.04677523  0.88361415  1
  Zr  Zr2  1  0.31800366  0.54677523  0.61638585  1
  Zr  Zr3  1  0.45322477  0.68199634  0.38361415  1
  Zr  Zr4  1  0.68199634  0.45322477  0.38361415  1
  Zr  Zr5  1  0.54677523  0.31800366  0.61638585  1
  Zr  Zr6  1  0.04677523  0.81800366  0.88361415  1
  Zr  Zr7  1  0.95322477  0.18199634  0.11638585  1
  Zr  Zr8  1  0.35480830  0.35480830  0.39381132  1
  Zr  Zr9  1  0.64519170  0.64519170  0.60618868  1
  Zr  Zr10  1  0.14519170  0.14519170  0.89381132  1
  Zr  Zr11  1  0.85480830  0.85480830  0.10618868  1
  Ge  Ge0  1  -0.00000000  0.00000000  -0.00000000  1
  Ge  Ge1  1  0.50000000  0.50000000  0.50000000  1
  I  I0  1  0.53582392  0.28361737  0.25199101  1
  I  I1  1  0.46417608  0.71638263  0.74800899  1
  I  I2  1  0.96417608  0.21638263  0.75199101  1
  I  I3  1  0.78361737  0.03582392  0.24800899  1
  I  I4  1  0.03582392  0.78361737  0.24800899  1
  I  I5  1  0.21638263  0.96417608  0.75199101  1
  I  I6  1  0.71638263  0.46417608  0.74800899  1
  I  I7  1  0.28361737  0.53582392  0.25199101  1
  I  I8  1  0.36552932  0.11667511  0.00929951  1
  I  I9  1  0.63447068  0.88332489  0.99070049  1
  I  I10  1  0.13447068  0.38332489  0.50929951  1
  I  I11  1  0.61667511  0.86552932  0.49070049  1
  I  I12  1  0.86552932  0.61667511  0.49070049  1
  I  I13  1  0.38332489  0.13447068  0.50929951  1
  I  I14  1  0.88332489  0.63447068  0.99070049  1
  I  I15  1  0.11667511  0.36552932  0.00929951  1
  I  I16  1  0.40192866  0.90192866  0.25000000  1
  I  I17  1  0.59807134  0.09807134  0.75000000  1
  I  I18  1  0.09807134  0.59807134  0.75000000  1
  I  I19  1  0.90192866  0.40192866  0.25000000  1
  I  I20  1  0.25126634  0.74873366  -0.00000000  1
  I  I21  1  0.74873366  0.25126634  -0.00000000  1
  I  I22  1  0.24873366  0.75126634  0.50000000  1
  I  I23  1  0.75126634  0.24873366  0.50000000  1
  I  I24  1  0.15291780  0.15291780  0.26540965  1
  I  I25  1  0.84708220  0.84708220  0.73459035  1
  I  I26  1  0.34708220  0.34708220  0.76540965  1
  I  I27  1  0.65291780  0.65291780  0.23459035  1
loop_
_geom_bond_atom_site_label_1
_geom_bond_atom_site_label_2
_geom_bond_distance
_geom_bond_site_symmetry_2
Ge0 Zr10 2.554596 1_554
Ge0 Zr11 2.554596 1_445
Ge0 Zr0 2.614880 1_545
Ge0 Zr7 2.614880 1_455
Ge0 Zr6 2.614880 1_544
Ge0 Zr1 2.614880 1_454
Ge1 Zr9 2.554596 1_555
Ge1 Zr8 2.554596 1_555
Ge1 Zr5 2.614880 1_555
Ge1 Zr2 2.614880 1_555
Ge1 Zr3 2.614880 1_555
Ge1 Zr4 2.614880 1_555
I0 Zr8 2.898982 1_555
I0 Zr4 2.907756 1_555
I1 Zr9 2.898982 1_555
I1 Zr2 2.907756 1_555
I2 Zr10 2.898982 1_655
I2 Zr1 2.907756 1_555
I3 Zr11 2.898982 1_545
I3 Zr7 2.907756 1_555
I4 Zr11 2.898982 1_455
I4 Zr0 2.907756 1_555
I5 Zr10 2.898982 1_565
I5 Zr6 2.907756 1_555
I6 Zr9 2.898982 1_555
I6 Zr5 2.907756 1_555
I7 Zr8 2.898982 1_555
I7 Zr3 2.907756 1_555
I8 Zr10 2.904275 1_554
I8 Zr0 2.920695 1_545
I9 Zr11 2.904275 1_556
I9 Zr1 2.920695 1_565
I10 Zr8 2.904275 1_555
I10 Zr2 2.920695 1_555
I11 Zr9 2.904275 1_555
I11 Zr3 2.920695 1_555
I12 Zr9 2.904275 1_555
I12 Zr4 2.920695 1_555
I13 Zr8 2.904275 1_555
I13 Zr5 2.920695 1_555
I14 Zr11 2.904275 1_556
I14 Zr6 2.920695 1_655
I15 Zr10 2.904275 1_554
I15 Zr7 2.920695 1_455
I16 Zr0 3.090285 1_555
I16 Zr3 3.090285 1_555
I17 Zr5 3.090285 1_555
I17 Zr1 3.090285 1_555
I18 Zr6 3.090285 1_555
I18 Zr2 3.090285 1_555
I19 Zr7 3.090285 1_555
I19 Zr4 3.090285 1_555
I20 Zr6 2.887434 1_554
I20 Zr0 2.887434 1_555
I21 Zr1 2.887434 1_554
I21 Zr7 2.887434 1_555
I22 Zr2 2.887434 1_555
I22 Zr3 2.887434 1_555
I23 Zr4 2.887434 1_555
I23 Zr5 2.887434 1_555
I24 Zr7 2.990545 1_455
I24 Zr0 2.990545 1_545
I24 Zr8 3.418168 1_555
I25 Zr1 2.990545 1_565
I25 Zr6 2.990545 1_655
I25 Zr9 3.418168 1_555
I26 Zr5 2.990545 1_555
I26 Zr2 2.990545 1_555
I26 Zr10 3.418168 1_555
I27 Zr3 2.990545 1_555
I27 Zr4 2.990545 1_555
I27 Zr11 3.418168 1_555
