# generated using pymatgen
data_CrFe7O12
_symmetry_space_group_name_H-M   'P 1'
_cell_length_a   10.38327564
_cell_length_b   9.14975062
_cell_length_c   10.38274051
_cell_angle_alpha   95.06961232
_cell_angle_beta   89.15883135
_cell_angle_gamma   87.65362411
_symmetry_Int_Tables_number   1
_chemical_formula_structural   CrFe7O12
_chemical_formula_sum   'Cr4 Fe28 O48'
_cell_volume   981.55738126
_cell_formula_units_Z   4
loop_
 _symmetry_equiv_pos_site_id
 _symmetry_equiv_pos_as_xyz
  1  'x, y, z'
loop_
 _atom_site_type_symbol
 _atom_site_label
 _atom_site_symmetry_multiplicity
 _atom_site_fract_x
 _atom_site_fract_y
 _atom_site_fract_z
 _atom_site_occupancy
  Cr  Cr0  1  0.39087500  0.74002500  0.16332000  1
  Cr  Cr1  1  0.66979600  0.31531500  0.12423000  1
  Cr  Cr2  1  0.18398800  0.98184400  0.17694700  1
  Cr  Cr3  1  0.90690400  0.39060600  0.21829300  1
  Fe  Fe0  1  0.64490400  0.82322000  0.72462500  1
  Fe  Fe1  1  0.67613700  0.23791800  0.48674500  1
  Fe  Fe2  1  0.71462300  0.97118300  0.97575700  1
  Fe  Fe3  1  0.97534900  0.15271600  0.98100400  1
  Fe  Fe4  1  0.64146900  0.56511400  0.89081700  1
  Fe  Fe5  1  0.94726400  0.10354000  0.40928800  1
  Fe  Fe6  1  0.48097400  0.42666500  0.32049000  1
  Fe  Fe7  1  0.10745900  0.50750200  0.03584600  1
  Fe  Fe8  1  0.68131000  0.91204100  0.27923200  1
  Fe  Fe9  1  0.38851400  0.45328900  0.98827500  1
  Fe  Fe10  1  0.29423800  0.25079300  0.51299900  1
  Fe  Fe11  1  0.67101500  0.22966500  0.82380500  1
  Fe  Fe12  1  0.47608900  0.11757000  0.16388100  1
  Fe  Fe13  1  0.14450100  0.64253700  0.33486200  1
  Fe  Fe14  1  0.99546600  0.41769600  0.51567800  1
  Fe  Fe15  1  0.92958100  0.75475300  0.12299900  1
  Fe  Fe16  1  0.60400600  0.66981900  0.45514400  1
  Fe  Fe17  1  0.15299400  0.82898500  0.90937900  1
  Fe  Fe18  1  0.91843200  0.68498900  0.72092600  1
  Fe  Fe19  1  0.50248600  0.42330600  0.66466800  1
  Fe  Fe20  1  0.19173600  0.62032900  0.66426300  1
  Fe  Fe21  1  0.12433300  0.00327100  0.65897400  1
  Fe  Fe22  1  0.18719400  0.30123600  0.23716700  1
  Fe  Fe23  1  0.89209100  0.80107200  0.45571400  1
  Fe  Fe24  1  0.41377200  0.78766000  0.87360400  1
  Fe  Fe25  1  0.14765600  0.33113200  0.75600300  1
  Fe  Fe26  1  0.35018000  0.83175200  0.44866100  1
  Fe  Fe27  1  0.44599500  0.03302000  0.65658900  1
  O  O0  1  0.24442500  0.68953200  0.50464900  1
  O  O1  1  0.06085400  0.97633500  0.04290600  1
  O  O2  1  0.50978200  0.91869200  0.21205500  1
  O  O3  1  0.28322200  0.02477400  0.53836400  1
  O  O4  1  0.50093900  0.37009700  0.84468000  1
  O  O5  1  0.73841100  0.73574400  0.35258800  1
  O  O6  1  0.61746300  0.04495600  0.72395300  1
  O  O7  1  0.84273100  0.22031500  0.13744400  1
  O  O8  1  0.56834300  0.47264900  0.48704900  1
  O  O9  1  0.69055400  0.33933600  0.67720900  1
  O  O10  1  0.47184000  0.21654700  0.57047700  1
  O  O11  1  0.29421800  0.12879400  0.15262800  1
  O  O12  1  0.51232600  0.84330400  0.54553900  1
  O  O13  1  0.26285200  0.84798200  0.28391000  1
  O  O14  1  0.10740700  0.25160600  0.56662500  1
  O  O15  1  0.99913700  0.79242900  0.28939500  1
  O  O16  1  0.08823000  0.11160700  0.29263000  1
  O  O17  1  0.82435000  0.09180600  0.88543000  1
  O  O18  1  0.57663600  0.87080000  0.90197900  1
  O  O19  1  0.22538800  0.39318400  0.91756300  1
  O  O20  1  0.05345100  0.31417100  0.08954200  1
  O  O21  1  0.07058200  0.81790800  0.73740200  1
  O  O22  1  0.08252000  0.14754600  0.80917600  1
  O  O23  1  0.78265500  0.76854600  0.60898400  1
  O  O24  1  0.04142500  0.69126300  0.97499900  1
  O  O25  1  0.78110000  0.69458000  0.84881900  1
  O  O26  1  0.46559500  0.65376600  0.32372000  1
  O  O27  1  0.31903800  0.35745200  0.36855500  1
  O  O28  1  0.33140000  0.94735200  0.77538400  1
  O  O29  1  0.86704800  0.29938200  0.43546100  1
  O  O30  1  0.25295400  0.57017700  0.14306100  1
  O  O31  1  0.99510800  0.96643300  0.53146200  1
  O  O32  1  0.54102800  0.63796800  0.74037500  1
  O  O33  1  0.98571200  0.63205600  0.52922500  1
  O  O34  1  0.72554400  0.44609400  0.24905800  1
  O  O35  1  0.27047400  0.66736000  0.82615700  1
  O  O36  1  0.29390000  0.42193100  0.65199200  1
  O  O37  1  0.29690200  0.85483900  0.03552200  1
  O  O38  1  0.04928400  0.44303000  0.33029200  1
  O  O39  1  0.48809200  0.63431800  0.00640500  1
  O  O40  1  0.77356400  0.02810200  0.40313200  1
  O  O41  1  0.58422700  0.22147300  0.29016800  1
  O  O42  1  0.60314600  0.13961900  0.02966900  1
  O  O43  1  0.47819700  0.37289700  0.13052400  1
  O  O44  1  0.03366500  0.49782100  0.72013900  1
  O  O45  1  0.92375100  0.54738100  0.12402400  1
  O  O46  1  0.71698800  0.39231900  0.96531400  1
  O  O47  1  0.78231100  0.88400000  0.12065400  1
loop_
_geom_bond_atom_site_label_1
_geom_bond_atom_site_label_2
_geom_bond_distance
_geom_bond_site_symmetry_2
Cr0 O13 1.983791 1_555
Cr0 O37 2.004184 1_555
Cr0 O39 2.049882 1_555
Cr0 O26 2.053890 1_555
Cr0 O2 2.119018 1_555
Cr0 O30 2.154878 1_555
Cr1 O34 1.803143 1_555
Cr1 O46 1.915451 1_554
Cr1 O42 1.964501 1_555
Cr1 O7 1.974634 1_555
Cr1 O43 2.035667 1_555
Cr1 O41 2.184943 1_555
Cr2 O11 1.832785 1_565
Cr2 O16 1.859348 1_565
Cr2 O13 1.894472 1_555
Cr2 O1 1.902414 1_555
Cr2 O37 2.101766 1_555
Cr3 O45 1.819312 1_555
Cr3 O7 1.856517 1_555
Cr3 O38 1.943671 1_655
Cr3 O34 1.944555 1_555
Cr3 O20 2.068672 1_655
Cr3 O29 2.507103 1_555
Fe0 O23 1.876827 1_555
Fe0 O18 1.969149 1_555
Fe0 O6 2.037795 1_565
Fe0 O32 2.063158 1_555
Fe0 O25 2.287676 1_555
Fe0 O12 2.345419 1_555
Fe1 O9 2.118941 1_555
Fe1 O29 2.154634 1_555
Fe1 O40 2.232299 1_555
Fe1 O41 2.261364 1_555
Fe1 O10 2.302974 1_555
Fe1 O8 2.380620 1_555
Fe2 O18 1.870512 1_555
Fe2 O47 1.894948 1_556
Fe2 O17 1.910554 1_565
Fe2 O42 1.926320 1_566
Fe3 O17 1.942417 1_555
Fe3 O1 1.971938 1_646
Fe3 O20 1.985105 1_656
Fe3 O22 2.084666 1_655
Fe3 O7 2.145699 1_556
Fe4 O46 1.960925 1_555
Fe4 O25 1.977051 1_555
Fe4 O39 2.025951 1_556
Fe4 O32 2.036363 1_555
Fe4 O4 2.371751 1_555
Fe5 O16 1.894071 1_655
Fe5 O31 1.917903 1_545
Fe5 O29 1.939998 1_555
Fe5 O40 1.957273 1_555
Fe5 O14 2.672456 1_655
Fe6 O27 1.896231 1_555
Fe6 O8 1.984775 1_555
Fe6 O43 1.991089 1_555
Fe6 O26 2.074783 1_555
Fe6 O41 2.119948 1_555
Fe7 O19 1.930190 1_554
Fe7 O24 1.949944 1_554
Fe7 O30 1.964126 1_555
Fe7 O20 2.000187 1_555
Fe7 O45 2.107736 1_455
Fe8 O40 1.891609 1_565
Fe8 O5 1.919817 1_555
Fe8 O2 1.922843 1_555
Fe8 O47 1.931097 1_555
Fe9 O19 1.936954 1_555
Fe9 O43 1.940574 1_556
Fe9 O4 1.959713 1_555
Fe9 O39 1.984661 1_556
Fe9 O30 2.283500 1_556
Fe10 O27 1.880364 1_555
Fe10 O10 1.968006 1_555
Fe10 O14 2.009905 1_555
Fe10 O36 2.033374 1_555
Fe10 O3 2.115154 1_555
Fe11 O9 1.908486 1_555
Fe11 O6 2.006107 1_555
Fe11 O46 2.072137 1_555
Fe11 O17 2.131528 1_555
Fe11 O4 2.137827 1_555
Fe11 O42 2.461418 1_556
Fe12 O11 1.892890 1_555
Fe12 O42 1.934031 1_555
Fe12 O41 1.947853 1_555
Fe12 O2 1.948765 1_545
Fe12 O43 2.392722 1_555
Fe13 O0 2.079736 1_555
Fe13 O15 2.085136 1_455
Fe13 O38 2.108502 1_555
Fe13 O30 2.304840 1_555
Fe13 O13 2.381036 1_555
Fe13 O33 2.597968 1_455
Fe14 O29 1.906564 1_555
Fe14 O33 1.952296 1_555
Fe14 O14 1.988896 1_655
Fe14 O38 2.031942 1_655
Fe14 O44 2.230431 1_655
Fe15 O15 1.891286 1_555
Fe15 O47 1.896175 1_555
Fe15 O45 1.901806 1_555
Fe15 O24 1.944732 1_654
Fe16 O5 1.893167 1_555
Fe16 O8 1.912640 1_555
Fe16 O12 1.973187 1_555
Fe16 O26 1.997102 1_555
Fe16 O23 2.603341 1_555
Fe17 O24 1.908454 1_555
Fe17 O21 1.987669 1_555
Fe17 O35 2.004258 1_555
Fe17 O37 2.008903 1_556
Fe17 O1 2.044538 1_556
Fe17 O28 2.625816 1_555
Fe18 O25 1.928181 1_555
Fe18 O23 2.009930 1_555
Fe18 O21 2.032892 1_655
Fe18 O44 2.047908 1_655
Fe18 O33 2.108392 1_555
Fe19 O4 1.972582 1_555
Fe19 O8 2.051292 1_555
Fe19 O9 2.079140 1_555
Fe19 O10 2.089976 1_555
Fe19 O32 2.106293 1_555
Fe19 O36 2.172212 1_555
Fe20 O35 1.902718 1_555
Fe20 O0 1.906264 1_555
Fe20 O36 2.057739 1_555
Fe20 O44 2.127084 1_555
Fe20 O21 2.229444 1_555
Fe20 O33 2.578633 1_455
Fe21 O31 1.917571 1_445
Fe21 O22 1.983060 1_555
Fe21 O21 2.039439 1_545
Fe21 O3 2.082819 1_555
Fe21 O28 2.537871 1_545
Fe21 O14 2.543708 1_555
Fe22 O27 1.997020 1_555
Fe22 O11 2.019364 1_555
Fe22 O38 2.062550 1_555
Fe22 O20 2.091147 1_555
Fe22 O16 2.168671 1_555
Fe23 O23 1.992608 1_555
Fe23 O31 1.999705 1_555
Fe23 O33 2.006570 1_555
Fe23 O5 2.016226 1_555
Fe23 O15 2.033709 1_555
Fe23 O40 2.477608 1_565
Fe24 O18 1.898820 1_555
Fe24 O35 1.930778 1_555
Fe24 O28 2.023131 1_555
Fe24 O37 2.091186 1_556
Fe24 O39 2.179382 1_556
Fe24 O32 2.235762 1_555
Fe25 O19 1.922636 1_555
Fe25 O22 1.956982 1_555
Fe25 O44 1.957342 1_555
Fe25 O14 2.089612 1_555
Fe25 O36 2.091880 1_555
Fe26 O0 1.862519 1_555
Fe26 O13 1.962065 1_555
Fe26 O12 1.975591 1_555
Fe26 O3 2.014861 1_565
Fe26 O26 2.278647 1_555
Fe27 O6 1.926117 1_555
Fe27 O28 1.937953 1_545
Fe27 O10 1.996593 1_555
Fe27 O12 2.083754 1_545
Fe27 O3 2.103314 1_555
