# generated using pymatgen
data_Sm2Ti12(CuO4)9
_symmetry_space_group_name_H-M   'P 1'
_cell_length_a   6.46916646
_cell_length_b   10.52712857
_cell_length_c   10.52712857
_cell_angle_alpha   120.00000000
_cell_angle_beta   90.00000000
_cell_angle_gamma   90.00000000
_symmetry_Int_Tables_number   1
_chemical_formula_structural   Sm2Ti12(CuO4)9
_chemical_formula_sum   'Sm2 Ti12 Cu9 O36'
_cell_volume   620.86733682
_cell_formula_units_Z   1
loop_
 _symmetry_equiv_pos_site_id
 _symmetry_equiv_pos_as_xyz
  1  'x, y, z'
loop_
 _atom_site_type_symbol
 _atom_site_label
 _atom_site_symmetry_multiplicity
 _atom_site_fract_x
 _atom_site_fract_y
 _atom_site_fract_z
 _atom_site_occupancy
  Sm  Sm0  1  0.00417800  0.00000000  0.00000000  1
  Sm  Sm1  1  0.66248900  0.66666700  0.33333300  1
  Ti  Ti0  1  0.16998000  0.65141700  0.82422300  1
  Ti  Ti1  1  0.83333300  0.33333300  0.16666700  1
  Ti  Ti2  1  0.49668700  0.01525000  0.50911000  1
  Ti  Ti3  1  0.83333300  0.33333300  0.66666700  1
  Ti  Ti4  1  0.49325100  0.00000000  0.00000000  1
  Ti  Ti5  1  0.17341600  0.66666700  0.33333300  1
  Ti  Ti6  1  0.16998000  0.17280600  0.34858300  1
  Ti  Ti7  1  0.83333300  0.83333300  0.66666700  1
  Ti  Ti8  1  0.49668700  0.49386100  0.98475000  1
  Ti  Ti9  1  0.49668700  0.49089000  0.50613900  1
  Ti  Ti10  1  0.16998000  0.17577700  0.82719400  1
  Ti  Ti11  1  0.83333300  0.83333300  0.16666700  1
  Cu  Cu0  1  0.67124600  0.67000700  0.83493500  1
  Cu  Cu1  1  0.33333300  0.33333300  0.16666700  1
  Cu  Cu2  1  0.99542100  0.99666000  0.49839800  1
  Cu  Cu3  1  0.99542100  0.50160200  0.49826200  1
  Cu  Cu4  1  0.67124600  0.16506500  0.83507100  1
  Cu  Cu5  1  0.33333300  0.83333300  0.16666700  1
  Cu  Cu6  1  0.33333300  0.83333300  0.66666700  1
  Cu  Cu7  1  0.99542100  0.50173800  0.00334000  1
  Cu  Cu8  1  0.67124600  0.16492900  0.32999300  1
  O  O0  1  0.24487500  0.06392700  0.62227500  1
  O  O1  1  0.91983700  0.74271700  0.95925100  1
  O  O2  1  0.58354500  0.40845400  0.29214400  1
  O  O3  1  0.34908700  0.52563800  0.17540200  1
  O  O4  1  0.00292200  0.18522500  0.50186200  1
  O  O5  1  0.68584500  0.85986100  0.84249600  1
  O  O6  1  0.98082100  0.80680500  0.49083800  1
  O  O7  1  0.66374500  0.48144200  0.83147100  1
  O  O8  1  0.31758000  0.14102900  0.15793100  1
  O  O9  1  0.08312200  0.25821300  0.04118900  1
  O  O10  1  0.74683000  0.92395000  0.37408200  1
  O  O11  1  0.42179100  0.60273900  0.71105900  1
  O  O12  1  0.42179100  0.28894100  0.89168100  1
  O  O13  1  0.08312200  0.95881100  0.21702400  1
  O  O14  1  0.74683000  0.62591800  0.54986700  1
  O  O15  1  0.66374500  0.16852900  0.64997100  1
  O  O16  1  0.31758000  0.84206900  0.98309700  1
  O  O17  1  0.98082100  0.50916200  0.31596700  1
  O  O18  1  0.68584500  0.15750400  0.01736700  1
  O  O19  1  0.34908700  0.82459800  0.35023600  1
  O  O20  1  0.00292200  0.49813800  0.68336200  1
  O  O21  1  0.91983700  0.04074900  0.78346600  1
  O  O22  1  0.58354500  0.70785600  0.11630900  1
  O  O23  1  0.24487500  0.37772500  0.44165300  1
  O  O24  1  0.00292200  0.31663800  0.81477500  1
  O  O25  1  0.68584500  0.98263300  0.14013900  1
  O  O26  1  0.34908700  0.64976400  0.47436200  1
  O  O27  1  0.58354500  0.88369100  0.59154600  1
  O  O28  1  0.24487500  0.55834700  0.93607300  1
  O  O29  1  0.91983700  0.21653400  0.25728300  1
  O  O30  1  0.74683000  0.45013300  0.07605000  1
  O  O31  1  0.42179100  0.10831900  0.39726100  1
  O  O32  1  0.08312200  0.78297600  0.74178700  1
  O  O33  1  0.31758000  0.01690300  0.85897100  1
  O  O34  1  0.98082100  0.68403300  0.19319500  1
  O  O35  1  0.66374500  0.35002900  0.51855800  1
loop_
_geom_bond_atom_site_label_1
_geom_bond_atom_site_label_2
_geom_bond_distance
_geom_bond_site_symmetry_2
Cu0 O5 1.962306 1_555
Cu0 O7 1.967667 1_555
Cu0 O11 1.970486 1_555
Cu0 O1 1.970552 1_555
Cu1 O8 1.982650 1_555
Cu1 O3 1.982665 1_555
Cu1 O9 1.986370 1_555
Cu1 O2 1.986371 1_555
Cu2 O6 1.962322 1_555
Cu2 O4 1.967667 1_665
Cu2 O0 1.970486 1_665
Cu2 O10 1.970552 1_555
Cu3 O17 1.962322 1_555
Cu3 O20 1.967656 1_655
Cu3 O23 1.970486 1_655
Cu3 O14 1.970552 1_555
Cu4 O18 1.962338 1_556
Cu4 O15 1.967656 1_555
Cu4 O12 1.970485 1_555
Cu4 O21 1.970552 1_555
Cu5 O19 1.982655 1_555
Cu5 O16 1.982671 1_554
Cu5 O22 1.986369 1_555
Cu5 O13 1.986371 1_555
Cu6 O33 1.982659 1_565
Cu6 O26 1.982661 1_555
Cu6 O32 1.986365 1_555
Cu6 O27 1.986381 1_555
Cu7 O34 1.962322 1_555
Cu7 O24 1.967662 1_654
Cu7 O28 1.970480 1_654
Cu7 O30 1.970547 1_555
Cu8 O25 1.962321 1_545
Cu8 O35 1.967662 1_555
Cu8 O31 1.970496 1_555
Cu8 O29 1.970547 1_555
O0 Ti2 1.930029 1_555
O0 Ti10 1.932533 1_555
O1 Ti11 1.976839 1_556
O1 Ti0 2.048592 1_655
O1 Sm0 2.579840 1_666
O2 Ti1 1.984136 1_555
O2 Ti9 2.046645 1_555
O2 Sm1 2.580509 1_555
O3 Ti5 1.947165 1_555
O3 Ti8 2.092934 1_554
O3 Sm1 2.571089 1_555
O4 Ti6 1.891500 1_555
O4 Ti3 1.984825 1_455
O5 Ti7 1.974218 1_555
O5 Ti4 2.007939 1_566
O5 Sm0 2.592376 1_666
O6 Ti7 1.974218 1_555
O6 Ti5 2.007945 1_655
O6 Sm1 2.592372 1_555
O7 Ti8 1.891500 1_555
O7 Ti3 1.984820 1_555
O8 Ti4 1.947165 1_555
O8 Ti6 2.092934 1_555
O8 Sm0 2.571089 1_555
O9 Ti1 1.984146 1_455
O9 Ti10 2.046645 1_554
O9 Sm0 2.580509 1_555
O10 Ti11 1.976828 1_555
O10 Ti2 2.048592 1_565
O10 Sm1 2.579840 1_555
O11 Ti0 1.930018 1_555
O11 Ti9 1.932542 1_555
O12 Ti10 1.930019 1_555
O12 Ti8 1.932543 1_555
O13 Ti11 1.984147 1_455
O13 Ti6 2.046645 1_565
O13 Sm0 2.580509 1_565
O14 Ti7 1.976829 1_555
O14 Ti9 2.048592 1_555
O14 Sm1 2.579840 1_555
O15 Ti2 1.891504 1_555
O15 Ti3 1.984817 1_555
O16 Ti4 1.947162 1_566
O16 Ti0 2.092931 1_555
O16 Sm0 2.571086 1_566
O17 Ti1 1.974215 1_555
O17 Ti5 2.007948 1_655
O17 Sm1 2.592375 1_555
O18 Ti1 1.974215 1_555
O18 Ti4 2.007932 1_555
O18 Sm0 2.592371 1_655
O19 Ti5 1.947162 1_555
O19 Ti2 2.092931 1_565
O19 Sm1 2.571086 1_555
O20 Ti0 1.891504 1_555
O20 Ti3 1.984833 1_455
O21 Ti7 1.976839 1_545
O21 Ti10 2.048592 1_655
O21 Sm0 2.579840 1_656
O22 Ti11 1.984135 1_555
O22 Ti8 2.046645 1_554
O22 Sm1 2.580509 1_555
O23 Ti9 1.930028 1_555
O23 Ti6 1.932532 1_555
O24 Ti10 1.891508 1_555
O24 Ti3 1.984815 1_455
O25 Ti11 1.974209 1_555
O25 Ti4 2.007949 1_565
O25 Sm0 2.592384 1_665
O26 Ti5 1.947170 1_555
O26 Ti9 2.092925 1_555
O26 Sm1 2.571093 1_555
O27 Ti7 1.984146 1_555
O27 Ti2 2.046645 1_565
O27 Sm1 2.580509 1_555
O28 Ti8 1.930019 1_555
O28 Ti0 1.932541 1_555
O29 Ti1 1.976830 1_555
O29 Ti6 2.048592 1_655
O29 Sm0 2.579840 1_655
O30 Ti1 1.976846 1_555
O30 Ti8 2.048592 1_554
O30 Sm1 2.579840 1_555
O31 Ti6 1.930023 1_555
O31 Ti2 1.932525 1_555
O32 Ti7 1.984141 1_455
O32 Ti0 2.046645 1_555
O32 Sm0 2.580509 1_566
O33 Ti4 1.947170 1_556
O33 Ti10 2.092925 1_555
O33 Sm0 2.571093 1_556
O34 Ti11 1.974209 1_555
O34 Ti5 2.007940 1_655
O34 Sm1 2.592369 1_555
O35 Ti9 1.891508 1_555
O35 Ti3 1.984826 1_555
