# generated using pymatgen
data_Zn(FeO2)2
_symmetry_space_group_name_H-M   'P 1'
_cell_length_a   6.04811088
_cell_length_b   6.04811088
_cell_length_c   24.95813782
_cell_angle_alpha   83.11840115
_cell_angle_beta   83.11840115
_cell_angle_gamma   60.15547068
_symmetry_Int_Tables_number   1
_chemical_formula_structural   Zn(FeO2)2
_chemical_formula_sum   'Zn10 Fe20 O40'
_cell_volume   784.25447416
_cell_formula_units_Z   10
loop_
 _symmetry_equiv_pos_site_id
 _symmetry_equiv_pos_as_xyz
  1  'x, y, z'
loop_
 _atom_site_type_symbol
 _atom_site_label
 _atom_site_symmetry_multiplicity
 _atom_site_fract_x
 _atom_site_fract_y
 _atom_site_fract_z
 _atom_site_occupancy
  Zn  Zn0  1  0.99861000  0.99861000  0.99991000  1
  Zn  Zn1  1  0.12435900  0.12435900  0.12540700  1
  Zn  Zn2  1  0.59599400  0.59599400  0.20098400  1
  Zn  Zn3  1  0.72441900  0.72441900  0.32544800  1
  Zn  Zn4  1  0.19582100  0.19582100  0.40109200  1
  Zn  Zn5  1  0.32417700  0.32417700  0.52571700  1
  Zn  Zn6  1  0.79546400  0.79546400  0.60189000  1
  Zn  Zn7  1  0.92503500  0.92503500  0.72514700  1
  Zn  Zn8  1  0.05281300  0.05281300  0.84781800  1
  Zn  Zn9  1  0.39909600  0.39909600  0.79911100  1
  Fe  Fe0  1  0.65207300  0.65207300  0.05043300  1
  Fe  Fe1  1  0.12269400  0.63105100  0.12554200  1
  Fe  Fe2  1  0.32407500  0.32407500  0.02387600  1
  Fe  Fe3  1  0.25420100  0.25420100  0.24962200  1
  Fe  Fe4  1  0.63105100  0.12269400  0.12554200  1
  Fe  Fe5  1  0.72272100  0.23099400  0.32572200  1
  Fe  Fe6  1  0.92592200  0.92592200  0.22418200  1
  Fe  Fe7  1  0.85430400  0.85430400  0.44971800  1
  Fe  Fe8  1  0.23099400  0.72272100  0.32572200  1
  Fe  Fe9  1  0.32300700  0.83083500  0.52589700  1
  Fe  Fe10  1  0.52584700  0.52584700  0.42445400  1
  Fe  Fe11  1  0.45317600  0.45317600  0.64865800  1
  Fe  Fe12  1  0.83083500  0.32300700  0.52589700  1
  Fe  Fe13  1  0.92426700  0.42817100  0.72554200  1
  Fe  Fe14  1  0.12496400  0.12496400  0.62399900  1
  Fe  Fe15  1  0.42817100  0.92426700  0.72554200  1
  Fe  Fe16  1  0.52460600  0.52460600  0.92410100  1
  Fe  Fe17  1  0.52468600  0.02653500  0.92402000  1
  Fe  Fe18  1  0.72787600  0.72787600  0.82366000  1
  Fe  Fe19  1  0.02653500  0.52468600  0.92402000  1
  O  O0  1  0.99405700  0.47337000  0.07489100  1
  O  O1  1  0.28085200  0.28085200  0.17080900  1
  O  O2  1  0.47337000  0.99405700  0.07489100  1
  O  O3  1  0.46510600  0.46510600  0.07616000  1
  O  O4  1  0.59439500  0.07259400  0.27508400  1
  O  O5  1  0.78744500  0.78744500  0.17305800  1
  O  O6  1  0.78045500  0.24701000  0.17385400  1
  O  O7  1  0.88104800  0.88104800  0.37074700  1
  O  O8  1  0.07259400  0.59439500  0.27508400  1
  O  O9  1  0.96712700  0.96712700  0.08045200  1
  O  O10  1  0.24701000  0.78045500  0.17385400  1
  O  O11  1  0.06613500  0.06613500  0.27578800  1
  O  O12  1  0.19422800  0.67274900  0.47528900  1
  O  O13  1  0.38723700  0.38723700  0.37323400  1
  O  O14  1  0.38052000  0.84683200  0.37409900  1
  O  O15  1  0.67274900  0.19422800  0.47528900  1
  O  O16  1  0.48106200  0.48106200  0.57012400  1
  O  O17  1  0.56717200  0.56717200  0.28096400  1
  O  O18  1  0.84683200  0.38052000  0.37409900  1
  O  O19  1  0.66622800  0.66622800  0.47611500  1
  O  O20  1  0.79142700  0.27219200  0.67480200  1
  O  O21  1  0.98626200  0.98626200  0.57301600  1
  O  O22  1  0.08322400  0.08322400  0.76792400  1
  O  O23  1  0.27219200  0.79142700  0.67480200  1
  O  O24  1  0.16707600  0.16707600  0.48134300  1
  O  O25  1  0.97950600  0.44810900  0.57411800  1
  O  O26  1  0.44810900  0.97950600  0.57411800  1
  O  O27  1  0.26652800  0.26652800  0.67550700  1
  O  O28  1  0.40235500  0.85996100  0.87845700  1
  O  O29  1  0.58867300  0.58867300  0.77363600  1
  O  O30  1  0.76680500  0.76680500  0.68137900  1
  O  O31  1  0.67622600  0.67622600  0.97168500  1
  O  O32  1  0.85996100  0.40235500  0.87845700  1
  O  O33  1  0.58030800  0.04767200  0.77477500  1
  O  O34  1  0.04767200  0.58030800  0.77477500  1
  O  O35  1  0.86145500  0.86145500  0.87813600  1
  O  O36  1  0.18925800  0.18925800  0.97319100  1
  O  O37  1  0.19054200  0.64591700  0.97287100  1
  O  O38  1  0.37308900  0.37308900  0.88157700  1
  O  O39  1  0.64591700  0.19054200  0.97287100  1
loop_
_geom_bond_atom_site_label_1
_geom_bond_atom_site_label_2
_geom_bond_distance
_geom_bond_site_symmetry_2
Fe0 O2 1.933480 1_555
Fe0 O0 1.933480 1_555
Fe0 O31 1.946568 1_554
Fe0 O3 1.973421 1_555
Fe1 O10 1.997572 1_555
Fe1 O9 2.021233 1_455
Fe1 O5 2.048425 1_455
Fe1 O1 2.084839 1_555
Fe1 O0 2.091876 1_455
Fe1 O3 2.105040 1_555
Fe2 O36 2.021394 1_554
Fe2 O39 2.037071 1_554
Fe2 O37 2.037071 1_554
Fe2 O2 2.071984 1_545
Fe2 O0 2.071984 1_455
Fe2 O3 2.101310 1_555
Fe3 O4 1.934026 1_555
Fe3 O8 1.934026 1_555
Fe3 O1 1.948090 1_555
Fe3 O11 1.986384 1_555
Fe4 O6 1.997572 1_555
Fe4 O9 2.021233 1_545
Fe4 O5 2.048425 1_545
Fe4 O1 2.084839 1_555
Fe4 O2 2.091876 1_545
Fe4 O3 2.105040 1_555
Fe5 O18 1.998403 1_555
Fe5 O17 2.017602 1_555
Fe5 O13 2.049321 1_555
Fe5 O7 2.080887 1_545
Fe5 O4 2.093491 1_555
Fe5 O11 2.116026 1_655
Fe6 O10 2.025550 1_655
Fe6 O6 2.025550 1_565
Fe6 O5 2.059439 1_555
Fe6 O4 2.076211 1_565
Fe6 O8 2.076211 1_655
Fe6 O11 2.082415 1_665
Fe7 O15 1.933744 1_565
Fe7 O12 1.933744 1_655
Fe7 O7 1.951997 1_555
Fe7 O19 1.987595 1_555
Fe8 O14 1.998403 1_555
Fe8 O17 2.017602 1_555
Fe8 O13 2.049321 1_555
Fe8 O7 2.080887 1_455
Fe8 O8 2.093491 1_555
Fe8 O11 2.116026 1_565
Fe9 O26 1.996028 1_555
Fe9 O24 2.015462 1_565
Fe9 O21 2.049413 1_455
Fe9 O16 2.070745 1_555
Fe9 O12 2.093447 1_555
Fe9 O19 2.113155 1_555
Fe10 O14 2.025483 1_555
Fe10 O18 2.025483 1_555
Fe10 O13 2.062256 1_555
Fe10 O15 2.075702 1_555
Fe10 O12 2.075702 1_555
Fe10 O19 2.084788 1_555
Fe11 O23 1.931082 1_555
Fe11 O20 1.931082 1_555
Fe11 O16 1.941291 1_555
Fe11 O27 1.975733 1_555
Fe12 O25 1.996028 1_555
Fe12 O24 2.015462 1_655
Fe12 O21 2.049413 1_545
Fe12 O16 2.070745 1_555
Fe12 O15 2.093447 1_555
Fe12 O19 2.113155 1_555
Fe13 O30 2.021340 1_555
Fe13 O34 2.021839 1_655
Fe13 O22 2.028370 1_655
Fe13 O29 2.058447 1_555
Fe13 O20 2.103247 1_555
Fe13 O27 2.111667 1_655
Fe14 O26 2.027721 1_545
Fe14 O25 2.027721 1_455
Fe14 O21 2.058779 1_445
Fe14 O20 2.083209 1_455
Fe14 O23 2.083209 1_545
Fe14 O27 2.091867 1_555
Fe15 O30 2.021340 1_555
Fe15 O33 2.021839 1_565
Fe15 O22 2.028370 1_565
Fe15 O29 2.058447 1_555
Fe15 O23 2.103247 1_555
Fe15 O27 2.111667 1_565
Fe16 O38 2.026796 1_555
Fe16 O28 2.028258 1_555
Fe16 O32 2.028258 1_555
Fe16 O39 2.061889 1_555
Fe16 O37 2.061889 1_555
Fe16 O31 2.109777 1_555
Fe17 O28 2.018310 1_545
Fe17 O38 2.035665 1_555
Fe17 O35 2.036640 1_545
Fe17 O39 2.058151 1_555
Fe17 O36 2.072659 1_555
Fe17 O31 2.113937 1_545
Fe18 O34 2.000864 1_655
Fe18 O33 2.000864 1_565
Fe18 O29 2.045893 1_555
Fe18 O35 2.080879 1_555
Fe18 O28 2.106158 1_555
Fe18 O32 2.106158 1_555
Fe19 O32 2.018310 1_455
Fe19 O38 2.035665 1_555
Fe19 O35 2.036640 1_455
Fe19 O37 2.058151 1_555
Fe19 O36 2.072659 1_555
Fe19 O31 2.113937 1_455
O0 Zn1 2.147328 1_655
O1 Zn1 2.116920 1_555
O2 Zn1 2.147328 1_565
O4 Zn3 2.141777 1_545
O5 Zn2 2.028545 1_555
O6 Zn2 1.993972 1_555
O6 Zn1 2.101230 1_655
O7 Zn3 2.116478 1_555
O8 Zn3 2.141777 1_455
O9 Zn0 1.991474 1_554
O9 Zn1 2.116350 1_665
O10 Zn2 1.993972 1_555
O10 Zn1 2.101230 1_565
O12 Zn5 2.144373 1_555
O13 Zn4 2.027850 1_555
O14 Zn4 1.992623 1_565
O14 Zn3 2.103855 1_555
O15 Zn5 2.144373 1_555
O16 Zn5 2.104553 1_555
O17 Zn2 1.977086 1_555
O17 Zn3 2.109006 1_555
O18 Zn4 1.992623 1_655
O18 Zn3 2.103855 1_555
O20 Zn7 2.136056 1_545
O21 Zn6 2.027171 1_555
O22 Zn8 1.975250 1_555
O22 Zn7 2.090735 1_445
O23 Zn7 2.136056 1_455
O24 Zn4 1.983763 1_555
O24 Zn5 2.105960 1_555
O25 Zn6 1.992381 1_555
O25 Zn5 2.103577 1_655
O26 Zn6 1.992381 1_555
O26 Zn5 2.103577 1_565
O28 Zn8 2.033208 1_565
O29 Zn9 1.998157 1_555
O30 Zn6 1.964951 1_555
O30 Zn7 2.106535 1_555
O32 Zn8 2.033208 1_655
O33 Zn9 1.979639 1_555
O33 Zn7 2.119781 1_545
O34 Zn9 1.979639 1_555
O34 Zn7 2.119781 1_455
O35 Zn8 2.040821 1_665
O36 Zn0 2.014588 1_445
O37 Zn0 2.011431 1_455
O38 Zn9 2.038412 1_555
O39 Zn0 2.011431 1_545
