# generated using pymatgen
data_Ba3Yb
_symmetry_space_group_name_H-M   'P 1'
_cell_length_a   7.69512022
_cell_length_b   7.69512022
_cell_length_c   7.69512022
_cell_angle_alpha   133.21020209
_cell_angle_beta   133.21020209
_cell_angle_gamma   68.32423061
_symmetry_Int_Tables_number   1
_chemical_formula_structural   Ba3Yb
_chemical_formula_sum   'Ba3 Yb1'
_cell_volume   237.77974292
_cell_formula_units_Z   1
loop_
 _symmetry_equiv_pos_site_id
 _symmetry_equiv_pos_as_xyz
  1  'x, y, z'
loop_
 _atom_site_type_symbol
 _atom_site_label
 _atom_site_symmetry_multiplicity
 _atom_site_fract_x
 _atom_site_fract_y
 _atom_site_fract_z
 _atom_site_occupancy
  Ba  Ba0  1  0.75000000  0.25000000  0.50000000  1
  Ba  Ba1  1  0.25000000  0.75000000  0.50000000  1
  Ba  Ba2  1  0.50000000  0.50000000  0.00000000  1
  Yb  Yb0  1  0.00000000  0.00000000  0.00000000  1
loop_
_geom_bond_atom_site_label_1
_geom_bond_atom_site_label_2
_geom_bond_distance
_geom_bond_site_symmetry_2
Ba0 Ba1 4.321090 1_656
Ba0 Ba1 4.321090 1_555
Ba0 Ba1 4.321090 1_645
Ba0 Ba1 4.321090 1_544
Ba0 Yb0 4.412672 1_555
Ba0 Yb0 4.412672 1_656
Ba0 Yb0 4.412672 1_655
Ba0 Ba2 4.412672 1_656
Ba0 Ba2 4.412672 1_556
Ba0 Yb0 4.412672 1_666
Ba0 Ba2 4.412672 1_555
Ba0 Ba2 4.412672 1_545
Ba1 Yb0 4.412672 1_555
Ba1 Yb0 4.412672 1_566
Ba1 Ba2 4.412672 1_455
Ba1 Ba2 4.412672 1_556
Ba1 Yb0 4.412672 1_666
Ba1 Ba2 4.412672 1_555
Ba1 Ba2 4.412672 1_566
Ba1 Yb0 4.412672 1_565
Ba2 Yb0 4.321090 1_666
Ba2 Yb0 4.321090 1_554
Ba2 Yb0 4.321090 1_565
Ba2 Yb0 4.321090 1_655
