# generated using pymatgen
data_CeMg14Cu
_symmetry_space_group_name_H-M   'P 1'
_cell_length_a   6.46322565
_cell_length_b   6.46322582
_cell_length_c   10.06903228
_cell_angle_alpha   90.00000000
_cell_angle_beta   90.00000000
_cell_angle_gamma   119.99999909
_symmetry_Int_Tables_number   1
_chemical_formula_structural   CeMg14Cu
_chemical_formula_sum   'Ce1 Mg14 Cu1'
_cell_volume   364.26464178
_cell_formula_units_Z   1
loop_
 _symmetry_equiv_pos_site_id
 _symmetry_equiv_pos_as_xyz
  1  'x, y, z'
loop_
 _atom_site_type_symbol
 _atom_site_label
 _atom_site_symmetry_multiplicity
 _atom_site_fract_x
 _atom_site_fract_y
 _atom_site_fract_z
 _atom_site_occupancy
  Ce  Ce0  1  0.16666700  0.33333300  0.62500000  1
  Mg  Mg0  1  0.16389167  0.83194533  0.12500000  1
  Mg  Mg1  1  0.18004074  0.84001987  0.62500000  1
  Mg  Mg2  1  0.66805467  0.33610833  0.12500000  1
  Mg  Mg3  1  0.65998013  0.31995926  0.62500000  1
  Mg  Mg4  1  0.66805467  0.83194533  0.12500000  1
  Mg  Mg5  1  0.65998013  0.84001987  0.62500000  1
  Mg  Mg6  1  0.33047662  0.16952338  0.36245370  1
  Mg  Mg7  1  0.33047662  0.16952338  0.88754630  1
  Mg  Mg8  1  0.33047662  0.66095425  0.36245370  1
  Mg  Mg9  1  0.33047662  0.66095425  0.88754630  1
  Mg  Mg10  1  0.83904575  0.16952338  0.36245370  1
  Mg  Mg11  1  0.83904575  0.16952338  0.88754630  1
  Mg  Mg12  1  0.83333300  0.66666700  0.38233218  1
  Mg  Mg13  1  0.83333300  0.66666700  0.86766782  1
  Cu  Cu0  1  0.16666700  0.33333300  0.12500000  1
loop_
_geom_bond_atom_site_label_1
_geom_bond_atom_site_label_2
_geom_bond_distance
_geom_bond_site_symmetry_2
Ce0 Mg6 3.217349 1_555
Ce0 Mg7 3.217349 1_555
Ce0 Mg10 3.217355 1_455
Ce0 Mg11 3.217355 1_455
Ce0 Mg9 3.217356 1_555
Ce0 Mg8 3.217356 1_555
Ce0 Mg3 3.232480 1_555
Ce0 Mg3 3.232480 1_455
Ce0 Mg1 3.232480 1_545
Ce0 Mg5 3.232480 1_445
Ce0 Mg1 3.232480 1_555
Ce0 Mg5 3.232480 1_555
Mg0 Mg9 3.047463 1_554
Mg0 Mg8 3.047463 1_555
Mg0 Mg6 3.047470 1_565
Mg0 Mg7 3.047470 1_564
Mg0 Mg12 3.183885 1_455
Mg0 Mg13 3.183885 1_454
Mg0 Mg4 3.204706 1_455
Mg0 Mg2 3.204707 1_455
Mg0 Mg4 3.258519 1_555
Mg0 Mg2 3.258519 1_565
Mg1 Mg5 3.101957 1_555
Mg1 Mg3 3.101957 1_565
Mg1 Mg13 3.120322 1_455
Mg1 Mg12 3.120322 1_455
Mg1 Mg8 3.224693 1_555
Mg1 Mg9 3.224693 1_555
Mg1 Mg6 3.224700 1_565
Mg1 Mg7 3.224700 1_565
Mg1 Mg5 3.361269 1_455
Mg1 Mg3 3.361269 1_455
Mg2 Mg6 3.047470 1_555
Mg2 Mg7 3.047470 1_554
Mg2 Mg4 3.204706 1_555
Mg2 Mg4 3.258519 1_545
Mg3 Mg5 3.101957 1_545
Mg3 Mg7 3.224700 1_555
Mg3 Mg6 3.224700 1_555
Mg3 Mg5 3.361269 1_555
Mg4 Mg8 3.047470 1_555
Mg4 Mg9 3.047470 1_554
Mg5 Mg9 3.224699 1_555
Mg5 Mg8 3.224699 1_555
Mg6 Mg8 3.176229 1_555
Mg6 Mg8 3.286997 1_545
Mg7 Mg9 3.176229 1_555
Mg7 Mg9 3.286997 1_545
Mg10 Mg2 3.047463 1_555
Mg10 Mg4 3.047470 1_545
Mg10 Mg6 3.176229 1_655
Mg10 Mg8 3.176229 1_655
Mg10 Mg3 3.224693 1_555
Mg10 Mg5 3.224699 1_545
Mg10 Mg12 3.237963 1_555
Mg10 Mg12 3.237963 1_545
Mg10 Mg6 3.286997 1_555
Mg10 Mg8 3.286997 1_545
Mg11 Mg2 3.047463 1_556
Mg11 Mg4 3.047470 1_546
Mg11 Mg7 3.176229 1_655
Mg11 Mg9 3.176229 1_655
Mg11 Mg3 3.224693 1_555
Mg11 Mg5 3.224699 1_545
Mg11 Mg13 3.237963 1_555
Mg11 Mg13 3.237963 1_545
Mg11 Mg7 3.286997 1_555
Mg11 Mg9 3.286997 1_545
Mg12 Mg5 3.120315 1_555
Mg12 Mg3 3.120322 1_555
Mg12 Mg4 3.183878 1_555
Mg12 Mg2 3.183885 1_555
Mg12 Mg8 3.237963 1_655
Mg12 Mg8 3.237963 1_555
Mg12 Mg6 3.237963 1_555
Mg12 Mg6 3.237963 1_665
Mg13 Mg5 3.120315 1_555
Mg13 Mg3 3.120322 1_555
Mg13 Mg4 3.183878 1_556
Mg13 Mg2 3.183885 1_556
Mg13 Mg9 3.237963 1_655
Mg13 Mg9 3.237963 1_555
Mg13 Mg7 3.237963 1_555
Mg13 Mg7 3.237963 1_665
Cu0 Mg7 3.013192 1_554
Cu0 Mg6 3.013192 1_555
Cu0 Mg10 3.013198 1_455
Cu0 Mg11 3.013198 1_454
Cu0 Mg9 3.013198 1_554
Cu0 Mg8 3.013198 1_555
Cu0 Mg2 3.231650 1_455
Cu0 Mg2 3.231650 1_555
Cu0 Mg0 3.231650 1_555
Cu0 Mg4 3.231650 1_555
Cu0 Mg4 3.231650 1_445
Cu0 Mg0 3.231650 1_545
