# generated using pymatgen
data_Sr10Mn(RuO5)4
_symmetry_space_group_name_H-M   'P 1'
_cell_length_a   3.91919100
_cell_length_b   3.91919100
_cell_length_c   32.11243571
_cell_angle_alpha   86.50146991
_cell_angle_beta   86.50146991
_cell_angle_gamma   90.00000000
_symmetry_Int_Tables_number   1
_chemical_formula_structural   Sr10Mn(RuO5)4
_chemical_formula_sum   'Sr10 Mn1 Ru4 O20'
_cell_volume   491.40868612
_cell_formula_units_Z   1
loop_
 _symmetry_equiv_pos_site_id
 _symmetry_equiv_pos_as_xyz
  1  'x, y, z'
loop_
 _atom_site_type_symbol
 _atom_site_label
 _atom_site_symmetry_multiplicity
 _atom_site_fract_x
 _atom_site_fract_y
 _atom_site_fract_z
 _atom_site_occupancy
  Sr  Sr0  1  0.47256800  0.47256800  0.05486400  1
  Sr  Sr1  1  0.87077900  0.87077900  0.25844200  1
  Sr  Sr2  1  0.27057800  0.27057800  0.45884500  1
  Sr  Sr3  1  0.67051800  0.67051800  0.65896400  1
  Sr  Sr4  1  0.06933000  0.06933000  0.86134000  1
  Sr  Sr5  1  0.93067000  0.93067000  0.13866000  1
  Sr  Sr6  1  0.32948200  0.32948200  0.34103600  1
  Sr  Sr7  1  0.72942200  0.72942200  0.54115500  1
  Sr  Sr8  1  0.12922100  0.12922100  0.74155800  1
  Sr  Sr9  1  0.52743200  0.52743200  0.94513600  1
  Mn  Mn0  1  0.00000000  0.00000000  0.00000000  1
  Ru  Ru0  1  0.40020200  0.40020200  0.19959600  1
  Ru  Ru1  1  0.80001100  0.80001100  0.39997800  1
  Ru  Ru2  1  0.19998900  0.19998900  0.60002200  1
  Ru  Ru3  1  0.59979800  0.59979800  0.80040400  1
  O  O0  1  0.43220500  0.43220500  0.13559000  1
  O  O1  1  0.83257700  0.83257700  0.33484600  1
  O  O2  1  0.23259900  0.23259900  0.53480200  1
  O  O3  1  0.63255000  0.63255000  0.73489900  1
  O  O4  1  0.03152300  0.03152300  0.93695300  1
  O  O5  1  0.96847700  0.96847700  0.06304700  1
  O  O6  1  0.36745000  0.36745000  0.26510100  1
  O  O7  1  0.76740100  0.76740100  0.46519800  1
  O  O8  1  0.16742300  0.16742300  0.66515400  1
  O  O9  1  0.56779500  0.56779500  0.86441000  1
  O  O10  1  0.50000000  0.00000000  0.00000000  1
  O  O11  1  0.89986500  0.39986500  0.20026900  1
  O  O12  1  0.29998300  0.79998300  0.40003400  1
  O  O13  1  0.70001700  0.20001700  0.59996600  1
  O  O14  1  0.10013500  0.60013500  0.79973100  1
  O  O15  1  0.00000000  0.50000000  0.00000000  1
  O  O16  1  0.39986500  0.89986500  0.20026900  1
  O  O17  1  0.79998300  0.29998300  0.40003400  1
  O  O18  1  0.20001700  0.70001700  0.59996600  1
  O  O19  1  0.60013500  0.10013500  0.79973100  1
loop_
_geom_bond_atom_site_label_1
_geom_bond_atom_site_label_2
_geom_bond_distance
_geom_bond_site_symmetry_2
Mn0 O15 1.959596 1_555
Mn0 O15 1.959596 1_545
Mn0 O10 1.959596 1_555
Mn0 O10 1.959596 1_455
Mn0 O4 2.017039 1_554
Mn0 O5 2.017039 1_445
O0 Ru0 2.047720 1_555
O0 Sr0 2.582637 1_555
O0 Sr5 2.773026 1_555
O0 Sr5 2.773026 1_455
O0 Sr5 2.773026 1_545
O0 Sr5 2.773026 1_445
O1 Ru1 2.083744 1_555
O1 Sr1 2.444365 1_555
O1 Sr6 2.778353 1_665
O1 Sr6 2.778353 1_565
O1 Sr6 2.778353 1_655
O1 Sr6 2.778353 1_555
O2 Ru2 2.086559 1_555
O2 Sr2 2.430064 1_555
O2 Sr7 2.778727 1_555
O2 Sr7 2.778730 1_455
O2 Sr7 2.778730 1_545
O2 Sr7 2.778733 1_445
O3 Ru3 2.095677 1_555
O3 Sr3 2.429361 1_555
O3 Sr8 2.779460 1_555
O3 Sr8 2.779463 1_565
O3 Sr8 2.779463 1_655
O3 Sr8 2.779466 1_665
O4 Sr4 2.419059 1_555
O4 Sr9 2.783622 1_445
O4 Sr9 2.783625 1_545
O4 Sr9 2.783625 1_455
O4 Sr9 2.783627 1_555
O5 Sr5 2.419059 1_555
O5 Sr0 2.783622 1_665
O5 Sr0 2.783625 1_565
O5 Sr0 2.783625 1_655
O5 Sr0 2.783627 1_555
O6 Ru0 2.095677 1_555
O6 Sr6 2.429361 1_555
O6 Sr1 2.779460 1_555
O6 Sr1 2.779463 1_545
O6 Sr1 2.779463 1_455
O6 Sr1 2.779466 1_445
O7 Ru1 2.086559 1_555
O7 Sr7 2.430064 1_555
O7 Sr2 2.778727 1_555
O7 Sr2 2.778730 1_565
O7 Sr2 2.778730 1_655
O7 Sr2 2.778733 1_665
O8 Ru2 2.083744 1_555
O8 Sr8 2.444365 1_555
O8 Sr3 2.778353 1_445
O8 Sr3 2.778353 1_455
O8 Sr3 2.778353 1_545
O8 Sr3 2.778353 1_555
O9 Ru3 2.047720 1_555
O9 Sr9 2.582637 1_555
O9 Sr4 2.773026 1_555
O9 Sr4 2.773026 1_565
O9 Sr4 2.773026 1_655
O9 Sr4 2.773026 1_665
O10 Sr0 2.630759 1_555
O10 Sr9 2.630759 1_544
O10 Sr9 2.630759 1_554
O10 Sr0 2.630759 1_545
O11 Ru0 1.959712 1_555
O11 Ru0 1.959716 1_655
O11 Sr1 2.702541 1_545
O11 Sr1 2.702544 1_555
O11 Sr5 2.779385 1_545
O11 Sr5 2.779388 1_555
O12 Ru1 1.959596 1_455
O12 Ru1 1.959596 1_555
O12 Sr2 2.716638 1_555
O12 Sr2 2.716640 1_565
O12 Sr6 2.720786 1_555
O12 Sr6 2.720786 1_565
O13 Ru2 1.959596 1_655
O13 Ru2 1.959596 1_555
O13 Sr7 2.716638 1_555
O13 Sr7 2.716640 1_545
O13 Sr3 2.720786 1_555
O13 Sr3 2.720786 1_545
O14 Ru3 1.959712 1_555
O14 Ru3 1.959716 1_455
O14 Sr8 2.702541 1_565
O14 Sr8 2.702544 1_555
O14 Sr4 2.779385 1_565
O14 Sr4 2.779388 1_555
O15 Sr0 2.630759 1_555
O15 Sr9 2.630759 1_454
O15 Sr0 2.630759 1_455
O15 Sr9 2.630759 1_554
O16 Ru0 1.959712 1_555
O16 Ru0 1.959716 1_565
O16 Sr1 2.702541 1_455
O16 Sr1 2.702544 1_555
O16 Sr5 2.779385 1_455
O16 Sr5 2.779388 1_555
O17 Ru1 1.959596 1_545
O17 Ru1 1.959596 1_555
O17 Sr2 2.716638 1_555
O17 Sr2 2.716640 1_655
O17 Sr6 2.720786 1_555
O17 Sr6 2.720786 1_655
O18 Ru2 1.959596 1_565
O18 Ru2 1.959596 1_555
O18 Sr7 2.716638 1_555
O18 Sr7 2.716640 1_455
O18 Sr3 2.720786 1_555
O18 Sr3 2.720786 1_455
O19 Ru3 1.959712 1_555
O19 Ru3 1.959716 1_545
O19 Sr8 2.702541 1_655
O19 Sr8 2.702544 1_555
O19 Sr4 2.779385 1_655
O19 Sr4 2.779388 1_555
