# generated using pymatgen
data_CsHoSiS4
_symmetry_space_group_name_H-M   'P 1'
_cell_length_a   6.37266100
_cell_length_b   6.72488300
_cell_length_c   17.81103300
_cell_angle_alpha   90.00000000
_cell_angle_beta   90.00000000
_cell_angle_gamma   90.00000000
_symmetry_Int_Tables_number   1
_chemical_formula_structural   CsHoSiS4
_chemical_formula_sum   'Cs4 Ho4 Si4 S16'
_cell_volume   763.29893693
_cell_formula_units_Z   4
loop_
 _symmetry_equiv_pos_site_id
 _symmetry_equiv_pos_as_xyz
  1  'x, y, z'
loop_
 _atom_site_type_symbol
 _atom_site_label
 _atom_site_symmetry_multiplicity
 _atom_site_fract_x
 _atom_site_fract_y
 _atom_site_fract_z
 _atom_site_occupancy
  Cs  Cs0  1  0.50326900  0.49187700  0.96824700  1
  Cs  Cs1  1  0.99673100  0.50812300  0.46824700  1
  Cs  Cs2  1  0.00326900  0.00812300  0.03175300  1
  Cs  Cs3  1  0.49673100  0.99187700  0.53175300  1
  Ho  Ho0  1  0.29187700  0.48059600  0.22821200  1
  Ho  Ho1  1  0.20812300  0.51940400  0.72821200  1
  Ho  Ho2  1  0.79187700  0.01940400  0.77178800  1
  Ho  Ho3  1  0.70812300  0.98059600  0.27178800  1
  Si  Si0  1  0.78997000  0.51777100  0.16749200  1
  Si  Si1  1  0.71003000  0.48222900  0.66749200  1
  Si  Si2  1  0.28997000  0.98222900  0.83250800  1
  Si  Si3  1  0.21003000  0.01777100  0.33250800  1
  S  S0  1  0.05547600  0.51282300  0.09616500  1
  S  S1  1  0.44452400  0.48717700  0.59616500  1
  S  S2  1  0.55547600  0.98717700  0.90383500  1
  S  S3  1  0.94452400  0.01282300  0.40383500  1
  S  S4  1  0.60749300  0.42666300  0.77966000  1
  S  S5  1  0.89250700  0.57333700  0.27966000  1
  S  S6  1  0.10749300  0.07333700  0.22034000  1
  S  S7  1  0.39250700  0.92666300  0.72034000  1
  S  S8  1  0.56742500  0.75057200  0.14719700  1
  S  S9  1  0.93257500  0.24942800  0.64719700  1
  S  S10  1  0.06742500  0.74942800  0.85280300  1
  S  S11  1  0.43257500  0.25057200  0.35280300  1
  S  S12  1  0.60221000  0.25390200  0.15604100  1
  S  S13  1  0.89779000  0.74609800  0.65604100  1
  S  S14  1  0.10221000  0.24609800  0.84395900  1
  S  S15  1  0.39779000  0.75390200  0.34395900  1
loop_
_geom_bond_atom_site_label_1
_geom_bond_atom_site_label_2
_geom_bond_distance
_geom_bond_site_symmetry_2
Cs0 S4 3.451938 1_555
Cs0 S2 3.538547 1_555
Cs0 S2 3.598114 1_545
Cs0 S8 3.654103 1_556
Cs0 S0 3.654306 1_556
Cs0 S12 3.761171 1_556
Cs0 S14 3.763576 1_555
Cs0 S10 3.865504 1_555
Cs1 S5 3.451938 1_555
Cs1 S3 3.538547 1_555
Cs1 S3 3.598114 1_565
Cs1 S9 3.654103 1_555
Cs1 S1 3.654306 1_655
Cs1 S13 3.761171 1_555
Cs1 S15 3.763576 1_655
Cs1 S11 3.865504 1_655
Cs2 S6 3.451938 1_555
Cs2 S0 3.538547 1_545
Cs2 S0 3.598114 1_555
Cs2 S10 3.654103 1_544
Cs2 S2 3.654306 1_444
Cs2 S14 3.761171 1_554
Cs2 S12 3.763576 1_455
Cs2 S8 3.865504 1_445
Cs3 S7 3.451938 1_555
Cs3 S1 3.538547 1_565
Cs3 S1 3.598114 1_555
Cs3 S11 3.654103 1_565
Cs3 S3 3.654306 1_565
Cs3 S15 3.761171 1_555
Cs3 S13 3.763576 1_555
Cs3 S9 3.865504 1_565
Ho0 S5 2.775955 1_455
Ho0 S0 2.801415 1_555
Ho0 S12 2.808472 1_555
Ho0 S15 2.843185 1_555
Ho0 S11 2.849765 1_555
Ho0 S8 2.908922 1_555
Ho0 S6 2.983484 1_555
Ho1 S4 2.775955 1_555
Ho1 S1 2.801415 1_555
Ho1 S13 2.808472 1_455
Ho1 S14 2.843185 1_555
Ho1 S10 2.849765 1_555
Ho1 S9 2.908922 1_455
Ho1 S7 2.983484 1_555
Ho2 S7 2.775955 1_545
Ho2 S2 2.801415 1_545
Ho2 S14 2.808472 1_655
Ho2 S13 2.843185 1_545
Ho2 S9 2.849765 1_555
Ho2 S10 2.908922 1_645
Ho2 S4 2.983484 1_555
Ho3 S6 2.775955 1_665
Ho3 S3 2.801415 1_565
Ho3 S15 2.808472 1_555
Ho3 S12 2.843185 1_565
Ho3 S8 2.849765 1_555
Ho3 S11 2.908922 1_565
Ho3 S5 2.983484 1_555
S0 Si0 2.116090 1_455
S1 Si1 2.116090 1_555
S2 Si2 2.116090 1_555
S3 Si3 2.116090 1_655
S4 Si1 2.134930 1_555
S5 Si0 2.134930 1_555
S6 Si3 2.134930 1_555
S7 Si2 2.134930 1_555
S8 Si0 2.143115 1_555
S9 Si1 2.143115 1_555
S10 Si2 2.143115 1_555
S11 Si3 2.143115 1_555
S12 Si0 2.149905 1_555
S13 Si1 2.149905 1_555
S14 Si2 2.149905 1_545
S15 Si3 2.149905 1_565
