# generated using pymatgen
data_CaTeO3
_symmetry_space_group_name_H-M   'P 1'
_cell_length_a   10.50670700
_cell_length_b   11.45506331
_cell_length_c   14.27644869
_cell_angle_alpha   77.99911869
_cell_angle_beta   84.79612879
_cell_angle_gamma   72.86985758
_symmetry_Int_Tables_number   1
_chemical_formula_structural   CaTeO3
_chemical_formula_sum   'Ca18 Te18 O54'
_cell_volume   1605.33262580
_cell_formula_units_Z   18
loop_
 _symmetry_equiv_pos_site_id
 _symmetry_equiv_pos_as_xyz
  1  'x, y, z'
loop_
 _atom_site_type_symbol
 _atom_site_label
 _atom_site_symmetry_multiplicity
 _atom_site_fract_x
 _atom_site_fract_y
 _atom_site_fract_z
 _atom_site_occupancy
  Ca  Ca0  1  0.27607500  0.88083800  0.24172100  1
  Ca  Ca1  1  0.72392500  0.11916200  0.75827900  1
  Ca  Ca2  1  0.25021200  0.41602000  0.26181100  1
  Ca  Ca3  1  0.74978800  0.58398000  0.73818900  1
  Ca  Ca4  1  0.60537000  0.36807000  0.92265100  1
  Ca  Ca5  1  0.39463000  0.63193000  0.07734900  1
  Ca  Ca6  1  0.93589200  0.86296100  0.59385700  1
  Ca  Ca7  1  0.06410800  0.13703900  0.40614300  1
  Ca  Ca8  1  0.57061600  0.86716400  0.92777000  1
  Ca  Ca9  1  0.42938400  0.13283600  0.07223000  1
  Ca  Ca10  1  0.91685000  0.36925600  0.57181000  1
  Ca  Ca11  1  0.08315000  0.63074400  0.42819000  1
  Ca  Ca12  1  0.81445600  0.03668600  0.02245400  1
  Ca  Ca13  1  0.18554400  0.96331400  0.97754600  1
  Ca  Ca14  1  0.46177700  0.06583600  0.34191600  1
  Ca  Ca15  1  0.53822300  0.93416400  0.65808400  1
  Ca  Ca16  1  0.13017900  0.03716100  0.67508300  1
  Ca  Ca17  1  0.86982100  0.96283900  0.32491700  1
  Te  Te0  1  0.28740600  0.25378800  0.52554400  1
  Te  Te1  1  0.71259400  0.74621200  0.47445600  1
  Te  Te2  1  0.46336300  0.53849700  0.35502000  1
  Te  Te3  1  0.53663700  0.46150300  0.64498000  1
  Te  Te4  1  0.60317000  0.83389400  0.16475200  1
  Te  Te5  1  0.39683000  0.16610600  0.83524800  1
  Te  Te6  1  0.60644100  0.26553900  0.19176600  1
  Te  Te7  1  0.39355900  0.73446100  0.80823400  1
  Te  Te8  1  0.10685500  0.56081400  0.67522000  1
  Te  Te9  1  0.89314500  0.43918600  0.32478000  1
  Te  Te10  1  0.96548700  0.26349000  0.85502400  1
  Te  Te11  1  0.03451300  0.73651000  0.14497600  1
  Te  Te12  1  0.94304100  0.82359900  0.86286600  1
  Te  Te13  1  0.05695900  0.17640100  0.13713400  1
  Te  Te14  1  0.77907900  0.52184800  0.02350900  1
  Te  Te15  1  0.22092100  0.47815200  0.97649100  1
  Te  Te16  1  0.25319400  0.84593900  0.47344000  1
  Te  Te17  1  0.74680600  0.15406100  0.52656000  1
  O  O0  1  0.64648300  0.21133900  0.07204900  1
  O  O1  1  0.35351700  0.78866100  0.92795100  1
  O  O2  1  0.74555700  0.69478700  0.99895800  1
  O  O3  1  0.25444300  0.30521300  0.00104200  1
  O  O4  1  0.81115400  0.20162300  0.87418200  1
  O  O5  1  0.18884600  0.79837700  0.12581800  1
  O  O6  1  0.00533300  0.89329000  0.95309300  1
  O  O7  1  0.99466700  0.10671000  0.04690700  1
  O  O8  1  0.99288400  0.90966200  0.74353300  1
  O  O9  1  0.00711600  0.09033800  0.25646700  1
  O  O10  1  0.12053600  0.95178300  0.54143100  1
  O  O11  1  0.87946400  0.04821700  0.45856900  1
  O  O12  1  0.67274500  0.11399700  0.27812100  1
  O  O13  1  0.32725500  0.88600300  0.72187900  1
  O  O14  1  0.30536300  0.50954400  0.41501800  1
  O  O15  1  0.69463700  0.49045600  0.58498200  1
  O  O16  1  0.14184800  0.82028500  0.38586600  1
  O  O17  1  0.85815200  0.17971500  0.61413400  1
  O  O18  1  0.11836200  0.21877200  0.54047200  1
  O  O19  1  0.88163800  0.78122800  0.45952800  1
  O  O20  1  0.32116800  0.24574200  0.39431700  1
  O  O21  1  0.67883200  0.75425800  0.60568300  1
  O  O22  1  0.43455900  0.71196000  0.33395100  1
  O  O23  1  0.56544100  0.28804000  0.66604900  1
  O  O24  1  0.42724000  0.51432000  0.23399900  1
  O  O25  1  0.57276000  0.48568000  0.76600100  1
  O  O26  1  0.27992900  0.98511400  0.38018500  1
  O  O27  1  0.72007100  0.01488600  0.61981500  1
  O  O28  1  0.09637500  0.12430400  0.81658900  1
  O  O29  1  0.90362500  0.87569600  0.18341100  1
  O  O30  1  0.42857200  0.25246900  0.20022200  1
  O  O31  1  0.57142800  0.74753100  0.79977800  1
  O  O32  1  0.76786500  0.92834900  0.86741100  1
  O  O33  1  0.23213500  0.07165100  0.13258900  1
  O  O34  1  0.47526200  0.79042200  0.10530100  1
  O  O35  1  0.52473800  0.20957800  0.89469900  1
  O  O36  1  0.92198600  0.37372800  0.73633300  1
  O  O37  1  0.07801400  0.62627200  0.26366700  1
  O  O38  1  0.60927200  0.49779300  0.05434600  1
  O  O39  1  0.39072800  0.50220700  0.94565400  1
  O  O40  1  0.63499100  0.94975300  0.05575100  1
  O  O41  1  0.36500900  0.05024700  0.94424900  1
  O  O42  1  0.14733000  0.69378500  0.58677900  1
  O  O43  1  0.85267000  0.30621500  0.41322100  1
  O  O44  1  0.47583400  0.96040600  0.21681300  1
  O  O45  1  0.52416600  0.03959400  0.78318700  1
  O  O46  1  0.06707000  0.48842600  0.57968900  1
  O  O47  1  0.93293000  0.51157400  0.42031100  1
  O  O48  1  0.93887500  0.65978200  0.71255000  1
  O  O49  1  0.06112500  0.34021800  0.28745000  1
  O  O50  1  0.78580500  0.48005900  0.90114200  1
  O  O51  1  0.21419500  0.51994100  0.09885800  1
  O  O52  1  0.38017100  0.08945800  0.57631900  1
  O  O53  1  0.61982900  0.91054200  0.42368100  1
loop_
_geom_bond_atom_site_label_1
_geom_bond_atom_site_label_2
_geom_bond_distance
_geom_bond_site_symmetry_2
Ca0 O33 2.353300 1_565
Ca0 O22 2.385298 1_555
Ca0 O5 2.430071 1_555
Ca0 O16 2.482157 1_555
Ca0 O44 2.493781 1_555
Ca0 O26 2.522106 1_555
Ca0 O34 2.840465 1_555
Ca1 O32 2.353300 1_545
Ca1 O23 2.385298 1_555
Ca1 O4 2.430071 1_555
Ca1 O17 2.482157 1_555
Ca1 O45 2.493781 1_555
Ca1 O27 2.522106 1_555
Ca1 O35 2.840465 1_555
Ca2 O49 2.363681 1_555
Ca2 O51 2.390620 1_555
Ca2 O24 2.408116 1_555
Ca2 O20 2.409099 1_555
Ca2 O30 2.472406 1_555
Ca2 O37 2.554523 1_555
Ca2 O14 2.799576 1_555
Ca3 O48 2.363681 1_555
Ca3 O50 2.390620 1_555
Ca3 O25 2.408116 1_555
Ca3 O21 2.409099 1_555
Ca3 O31 2.472406 1_555
Ca3 O36 2.554523 1_555
Ca3 O15 2.799576 1_555
Ca4 O35 2.332766 1_555
Ca4 O25 2.355432 1_555
Ca4 O39 2.364078 1_555
Ca4 O0 2.465141 1_556
Ca4 O50 2.548956 1_555
Ca4 O4 2.576374 1_555
Ca4 O38 2.637509 1_556
Ca5 O34 2.332766 1_555
Ca5 O24 2.355432 1_555
Ca5 O38 2.364078 1_555
Ca5 O1 2.465141 1_554
Ca5 O51 2.548956 1_555
Ca5 O5 2.576374 1_555
Ca5 O39 2.637509 1_554
Ca6 O10 2.437565 1_655
Ca6 O27 2.469605 1_565
Ca6 O8 2.471240 1_555
Ca6 O19 2.477620 1_555
Ca6 O42 2.491087 1_655
Ca6 O11 2.519407 1_565
Ca6 O48 2.572135 1_555
Ca7 O11 2.437565 1_455
Ca7 O26 2.469605 1_545
Ca7 O9 2.471240 1_555
Ca7 O18 2.477620 1_555
Ca7 O43 2.491087 1_455
Ca7 O10 2.519407 1_545
Ca7 O49 2.572135 1_555
Ca8 O2 2.382568 1_555
Ca8 O32 2.410255 1_555
Ca8 O40 2.451695 1_556
Ca8 O31 2.499724 1_555
Ca8 O45 2.513889 1_565
Ca8 O41 2.562130 1_565
Ca8 O1 2.686617 1_555
Ca8 O34 2.707752 1_556
Ca9 O3 2.382568 1_555
Ca9 O33 2.410255 1_555
Ca9 O41 2.451695 1_554
Ca9 O30 2.499724 1_555
Ca9 O44 2.513889 1_545
Ca9 O40 2.562130 1_545
Ca9 O0 2.686617 1_555
Ca9 O35 2.707752 1_554
Ca10 O15 2.352294 1_555
Ca10 O36 2.365814 1_555
Ca10 O17 2.373861 1_555
Ca10 O18 2.377651 1_655
Ca10 O46 2.394268 1_655
Ca10 O47 2.448253 1_555
Ca10 O43 2.710351 1_555
Ca11 O14 2.352294 1_555
Ca11 O37 2.365814 1_555
Ca11 O16 2.373861 1_555
Ca11 O19 2.377651 1_455
Ca11 O47 2.394268 1_455
Ca11 O46 2.448253 1_555
Ca11 O42 2.710351 1_555
Ca12 O7 2.341235 1_555
Ca12 O40 2.349415 1_545
Ca12 O0 2.429211 1_555
Ca12 O6 2.465013 1_644
Ca12 O4 2.522553 1_554
Ca12 O29 2.677580 1_545
Ca12 O32 2.894112 1_544
Ca13 O6 2.341235 1_555
Ca13 O41 2.349415 1_565
Ca13 O1 2.429211 1_555
Ca13 O7 2.465013 1_466
Ca13 O5 2.522553 1_556
Ca13 O28 2.677580 1_565
Ca13 O33 2.894112 1_566
Ca14 O53 2.243353 1_545
Ca14 O44 2.326871 1_545
Ca14 O26 2.333517 1_545
Ca14 O20 2.374102 1_555
Ca14 O12 2.488431 1_555
Ca14 O30 2.583519 1_555
Ca15 O52 2.243353 1_565
Ca15 O45 2.326871 1_565
Ca15 O27 2.333517 1_565
Ca15 O21 2.374102 1_555
Ca15 O13 2.488431 1_555
Ca15 O31 2.583519 1_555
Ca16 O13 2.321591 1_545
Ca16 O10 2.340298 1_545
Ca16 O8 2.358128 1_445
Ca16 O28 2.388187 1_555
Ca16 O18 2.503013 1_555
Ca16 O17 2.950145 1_455
Ca16 O52 3.024867 1_555
Ca17 O12 2.321591 1_565
Ca17 O11 2.340298 1_565
Ca17 O9 2.358128 1_665
Ca17 O29 2.388187 1_555
Ca17 O19 2.503013 1_555
Ca17 O16 2.950145 1_655
Ca17 O53 3.024867 1_555
O0 Te6 1.908030 1_555
O1 Te7 1.908030 1_555
O2 Te14 1.869222 1_556
O3 Te15 1.869222 1_554
O4 Te10 1.929330 1_555
O5 Te11 1.929330 1_555
O6 Te12 1.900858 1_455
O7 Te13 1.900858 1_655
O8 Te12 1.895371 1_555
O9 Te13 1.895371 1_555
O10 Te16 1.898262 1_555
O11 Te17 1.898262 1_555
O12 Te6 1.889991 1_555
O13 Te7 1.889991 1_555
O14 Te2 1.883546 1_555
O15 Te3 1.883546 1_555
O16 Te16 1.907544 1_555
O17 Te17 1.907544 1_555
O18 Te0 1.917364 1_555
O19 Te1 1.917364 1_555
O20 Te0 1.891073 1_555
O21 Te1 1.891073 1_555
O22 Te2 1.882570 1_555
O23 Te3 1.882570 1_555
O24 Te2 1.893601 1_555
O25 Te3 1.893601 1_555
O26 Te16 1.925193 1_555
O27 Te17 1.925193 1_555
O28 Te10 1.915628 1_455
O29 Te11 1.915628 1_655
O30 Te6 1.909411 1_555
O31 Te7 1.909411 1_555
O32 Te12 1.881826 1_555
O33 Te13 1.881826 1_555
O34 Te4 1.884490 1_555
O35 Te5 1.884490 1_555
O36 Te10 1.893532 1_555
O37 Te11 1.893532 1_555
O38 Te14 1.884006 1_555
O39 Te15 1.884006 1_555
O40 Te4 1.898136 1_555
O41 Te5 1.898136 1_555
O42 Te8 1.891977 1_555
O42 Te16 2.556545 1_555
O43 Te9 1.891977 1_555
O43 Te17 2.556545 1_555
O44 Te4 1.888893 1_555
O45 Te5 1.888893 1_555
O46 Te8 1.870905 1_555
O47 Te9 1.870905 1_555
O48 Te8 1.893713 1_655
O49 Te9 1.893713 1_455
O50 Te14 1.895119 1_556
O51 Te15 1.895119 1_554
O52 Te0 1.870508 1_555
O53 Te1 1.870508 1_555
