# generated using pymatgen
data_ZrTiMn4
_symmetry_space_group_name_H-M   'P 1'
_cell_length_a   4.84230822
_cell_length_b   4.84230822
_cell_length_c   8.04265100
_cell_angle_alpha   90.00000000
_cell_angle_beta   90.00000000
_cell_angle_gamma   120.00000307
_symmetry_Int_Tables_number   1
_chemical_formula_structural   ZrTiMn4
_chemical_formula_sum   'Zr2 Ti2 Mn8'
_cell_volume   163.31824390
_cell_formula_units_Z   2
loop_
 _symmetry_equiv_pos_site_id
 _symmetry_equiv_pos_as_xyz
  1  'x, y, z'
loop_
 _atom_site_type_symbol
 _atom_site_label
 _atom_site_symmetry_multiplicity
 _atom_site_fract_x
 _atom_site_fract_y
 _atom_site_fract_z
 _atom_site_occupancy
  Zr  Zr0  1  0.66666700  0.33333300  0.56923700  1
  Zr  Zr1  1  0.33333300  0.66666700  0.43076300  1
  Ti  Ti0  1  0.33333300  0.66666700  0.05889400  1
  Ti  Ti1  1  0.66666700  0.33333300  0.94110600  1
  Mn  Mn0  1  0.82876000  0.17124000  0.24069100  1
  Mn  Mn1  1  0.82876000  0.65751900  0.24069100  1
  Mn  Mn2  1  0.34248100  0.17124000  0.24069100  1
  Mn  Mn3  1  0.17124000  0.82876000  0.75930900  1
  Mn  Mn4  1  0.17124000  0.34248100  0.75930900  1
  Mn  Mn5  1  0.65751900  0.82876000  0.75930900  1
  Mn  Mn6  1  0.00000000  0.00000000  0.50000000  1
  Mn  Mn7  1  0.00000000  0.00000000  0.00000000  1
loop_
_geom_bond_atom_site_label_1
_geom_bond_atom_site_label_2
_geom_bond_distance
_geom_bond_site_symmetry_2
Zr0 Zr1 3.009367 1_545
Zr0 Zr1 3.009367 1_655
Zr0 Zr1 3.009375 1_555
Ti0 Ti1 2.951846 1_454
Ti0 Ti1 2.951846 1_564
Ti0 Ti1 2.951854 1_554
Ti0 Zr1 2.990813 1_555
Ti1 Zr0 2.990813 1_555
Mn0 Mn1 2.354713 1_555
Mn0 Mn2 2.354713 1_555
Mn0 Mn7 2.410394 1_655
Mn0 Mn2 2.487595 1_655
Mn0 Mn1 2.487595 1_545
Mn0 Mn6 2.532221 1_655
Mn0 Ti1 2.766534 1_554
Mn0 Ti0 2.828654 1_545
Mn0 Ti0 2.828654 1_655
Mn0 Zr1 2.863622 1_545
Mn0 Zr1 2.863622 1_655
Mn0 Zr0 2.971599 1_555
Mn1 Mn2 2.354713 1_555
Mn1 Mn7 2.410397 1_665
Mn1 Mn2 2.487595 1_665
Mn1 Mn6 2.532224 1_665
Mn1 Ti1 2.766534 1_554
Mn1 Ti0 2.828650 1_655
Mn1 Ti0 2.828658 1_555
Mn1 Zr1 2.863618 1_655
Mn1 Zr1 2.863626 1_555
Mn1 Zr0 2.971599 1_555
Mn2 Mn7 2.410397 1_555
Mn2 Mn6 2.532224 1_555
Mn2 Ti1 2.766534 1_554
Mn2 Ti0 2.828650 1_545
Mn2 Ti0 2.828658 1_555
Mn2 Zr1 2.863618 1_545
Mn2 Zr1 2.863626 1_555
Mn2 Zr0 2.971599 1_555
Mn3 Mn5 2.354713 1_555
Mn3 Mn4 2.354713 1_555
Mn3 Mn7 2.410394 1_566
Mn3 Mn4 2.487595 1_565
Mn3 Mn5 2.487595 1_455
Mn3 Mn6 2.532221 1_565
Mn3 Ti0 2.766534 1_556
Mn3 Ti1 2.828654 1_455
Mn3 Ti1 2.828654 1_565
Mn3 Zr0 2.863622 1_565
Mn3 Zr0 2.863622 1_455
Mn3 Zr1 2.971599 1_555
Mn4 Mn5 2.354713 1_555
Mn4 Mn7 2.410397 1_556
Mn4 Mn5 2.487595 1_445
Mn4 Mn6 2.532224 1_555
Mn4 Ti0 2.766534 1_556
Mn4 Ti1 2.828650 1_455
Mn4 Ti1 2.828658 1_555
Mn4 Zr0 2.863618 1_455
Mn4 Zr0 2.863626 1_555
Mn4 Zr1 2.971599 1_555
Mn5 Mn7 2.410397 1_666
Mn5 Mn6 2.532224 1_665
Mn5 Ti0 2.766534 1_556
Mn5 Ti1 2.828650 1_565
Mn5 Ti1 2.828658 1_555
Mn5 Zr0 2.863618 1_565
Mn5 Zr0 2.863626 1_555
Mn5 Zr1 2.971599 1_555
Mn6 Zr1 2.850622 1_545
Mn6 Zr0 2.850622 1_455
Mn6 Zr0 2.850626 1_445
Mn6 Zr1 2.850626 1_445
Mn6 Zr0 2.850626 1_555
Mn6 Zr1 2.850626 1_555
Mn7 Ti0 2.835547 1_545
Mn7 Ti1 2.835547 1_454
Mn7 Ti0 2.835551 1_555
Mn7 Ti0 2.835551 1_445
Mn7 Ti1 2.835551 1_444
Mn7 Ti1 2.835551 1_554
