# generated using pymatgen
data_Ca2WN2
_symmetry_space_group_name_H-M   'P 1'
_cell_length_a   6.06347836
_cell_length_b   6.06347836
_cell_length_c   6.58593870
_cell_angle_alpha   65.90793192
_cell_angle_beta   65.90793192
_cell_angle_gamma   50.20602985
_symmetry_Int_Tables_number   1
_chemical_formula_structural   Ca2WN2
_chemical_formula_sum   'Ca4 W2 N4'
_cell_volume   166.07122744
_cell_formula_units_Z   2
loop_
 _symmetry_equiv_pos_site_id
 _symmetry_equiv_pos_as_xyz
  1  'x, y, z'
loop_
 _atom_site_type_symbol
 _atom_site_label
 _atom_site_symmetry_multiplicity
 _atom_site_fract_x
 _atom_site_fract_y
 _atom_site_fract_z
 _atom_site_occupancy
  Ca  Ca0  1  0.32214724  0.32214724  0.62888283  1
  Ca  Ca1  1  0.67785276  0.67785276  0.37111717  1
  Ca  Ca2  1  0.97491832  0.97491832  0.76786608  1
  Ca  Ca3  1  0.02508168  0.02508168  0.23213392  1
  W  W0  1  0.64464327  0.64464327  0.86971427  1
  W  W1  1  0.35535673  0.35535673  0.13028573  1
  N  N0  1  0.81597427  0.81597427  0.61435060  1
  N  N1  1  0.18402573  0.18402573  0.38564940  1
  N  N2  1  0.50100379  0.50100379  0.21688408  1
  N  N3  1  0.49899621  0.49899621  0.78311592  1
loop_
_geom_bond_atom_site_label_1
_geom_bond_atom_site_label_2
_geom_bond_distance
_geom_bond_site_symmetry_2
Ca0 N2 2.532876 1_555
Ca0 N3 2.565529 1_555
Ca0 N0 2.576221 1_455
Ca0 N0 2.576221 1_545
Ca0 N1 2.656572 1_555
Ca1 N3 2.532876 1_555
Ca1 N2 2.565529 1_555
Ca1 N1 2.576221 1_565
Ca1 N1 2.576221 1_655
Ca1 N0 2.656572 1_555
Ca2 N0 2.379035 1_555
Ca2 N1 2.529473 1_665
Ca2 N3 2.592538 1_655
Ca2 N3 2.592538 1_565
Ca3 N1 2.379035 1_555
Ca3 N0 2.529473 1_445
Ca3 N2 2.592538 1_545
Ca3 N2 2.592538 1_455
N0 W0 1.875001 1_555
N1 W1 1.875001 1_555
N2 W1 1.925059 1_555
N2 W0 2.112905 1_554
N3 W0 1.925059 1_555
N3 W1 2.112905 1_556
