# generated using pymatgen
data_Sr10Fe4Co(MoO6)5
_symmetry_space_group_name_H-M   'P 1'
_cell_length_a   9.74930356
_cell_length_b   9.74930356
_cell_length_c   9.74930356
_cell_angle_alpha   99.75805648
_cell_angle_beta   99.75805648
_cell_angle_gamma   131.37800297
_symmetry_Int_Tables_number   1
_chemical_formula_structural   Sr10Fe4Co(MoO6)5
_chemical_formula_sum   'Sr10 Fe4 Co1 Mo5 O30'
_cell_volume   633.67449513
_cell_formula_units_Z   1
loop_
 _symmetry_equiv_pos_site_id
 _symmetry_equiv_pos_as_xyz
  1  'x, y, z'
loop_
 _atom_site_type_symbol
 _atom_site_label
 _atom_site_symmetry_multiplicity
 _atom_site_fract_x
 _atom_site_fract_y
 _atom_site_fract_z
 _atom_site_occupancy
  Sr  Sr0  1  0.34794900  0.05057900  0.90030200  1
  Sr  Sr1  1  0.75000000  0.25000000  0.50000000  1
  Sr  Sr2  1  0.55235300  0.65205100  0.70263000  1
  Sr  Sr3  1  0.94942100  0.84972300  0.29737000  1
  Sr  Sr4  1  0.15027700  0.44764700  0.09969800  1
  Sr  Sr5  1  0.25000000  0.75000000  0.50000000  1
  Sr  Sr6  1  0.65205100  0.94942100  0.09969800  1
  Sr  Sr7  1  0.44764700  0.34794900  0.29737000  1
  Sr  Sr8  1  0.84972300  0.55235300  0.90030200  1
  Sr  Sr9  1  0.05057900  0.15027700  0.70263000  1
  Fe  Fe0  1  0.79852200  0.40223300  0.20075400  1
  Fe  Fe1  1  0.59776700  0.79852200  0.39628900  1
  Fe  Fe2  1  0.40223300  0.20147800  0.60371100  1
  Fe  Fe3  1  0.20147800  0.59776700  0.79924600  1
  Co  Co0  1  0.00000000  0.00000000  0.00000000  1
  Mo  Mo0  1  0.89996400  0.70206600  0.60203100  1
  Mo  Mo1  1  0.29793400  0.89996400  0.19789800  1
  Mo  Mo2  1  0.10003600  0.29793400  0.39796900  1
  Mo  Mo3  1  0.50000000  0.50000000  0.00000000  1
  Mo  Mo4  1  0.70206600  0.10003600  0.80210200  1
  O  O0  1  0.44819100  0.84907800  0.80121800  1
  O  O1  1  0.84907800  0.04785900  0.40088700  1
  O  O2  1  0.64697300  0.44819100  0.59911400  1
  O  O3  1  0.04785900  0.64697300  0.19878200  1
  O  O4  1  0.25341500  0.25341500  0.00000000  1
  O  O5  1  0.15092200  0.95214100  0.59911400  1
  O  O6  1  0.55180900  0.15092200  0.19878200  1
  O  O7  1  0.35302700  0.55180900  0.40088700  1
  O  O8  1  0.74658500  0.74658500  0.00000000  1
  O  O9  1  0.95214100  0.35302700  0.80121800  1
  O  O10  1  0.84739800  0.02753500  0.87493400  1
  O  O11  1  0.64228200  0.42712800  0.06941000  1
  O  O12  1  0.44241400  0.83051500  0.27292900  1
  O  O13  1  0.23872800  0.23057000  0.46929800  1
  O  O14  1  0.03913500  0.63337100  0.67250600  1
  O  O15  1  0.35771800  0.57287200  0.93059000  1
  O  O16  1  0.15260200  0.97246500  0.12506600  1
  O  O17  1  0.96086500  0.36662900  0.32749400  1
  O  O18  1  0.76127200  0.76943000  0.53070200  1
  O  O19  1  0.55758600  0.16948500  0.72707100  1
  O  O20  1  0.76943000  0.23872800  0.00815700  1
  O  O21  1  0.57287200  0.64228200  0.21515500  1
  O  O22  1  0.36662900  0.03913500  0.40576300  1
  O  O23  1  0.16948500  0.44241400  0.61189800  1
  O  O24  1  0.97246500  0.84739800  0.81986300  1
  O  O25  1  0.63337100  0.96086500  0.59423700  1
  O  O26  1  0.42712800  0.35771800  0.78484500  1
  O  O27  1  0.23057000  0.76127200  0.99184300  1
  O  O28  1  0.02753500  0.15260200  0.18013700  1
  O  O29  1  0.83051500  0.55758600  0.38810200  1
loop_
_geom_bond_atom_site_label_1
_geom_bond_atom_site_label_2
_geom_bond_distance
_geom_bond_site_symmetry_2
Fe0 O11 1.987911 1_555
Fe0 O3 1.991480 1_655
Fe0 O6 1.991492 1_555
Fe0 O29 1.992984 1_555
Fe0 O20 2.086702 1_555
Fe0 O17 2.088320 1_555
Fe1 O21 1.987909 1_555
Fe1 O1 1.991484 1_565
Fe1 O7 1.991488 1_555
Fe1 O12 1.992969 1_555
Fe1 O18 2.086702 1_555
Fe1 O25 2.088323 1_555
Fe2 O26 1.987909 1_555
Fe2 O2 1.991484 1_555
Fe2 O5 1.991488 1_545
Fe2 O19 1.992969 1_555
Fe2 O13 2.086702 1_555
Fe2 O22 2.088323 1_555
Fe3 O15 1.987911 1_555
Fe3 O9 1.991480 1_455
Fe3 O0 1.991492 1_555
Fe3 O23 1.992984 1_555
Fe3 O27 2.086702 1_555
Fe3 O14 2.088320 1_555
Co0 O16 1.948398 1_545
Co0 O10 1.948398 1_454
Co0 O28 1.948403 1_555
Co0 O24 1.948403 1_444
Co0 O8 2.034255 1_445
Co0 O4 2.034255 1_555
Mo0 O18 1.937348 1_555
Mo0 O14 1.950102 1_655
Mo0 O29 2.014226 1_555
Mo0 O2 2.022873 1_555
Mo0 O5 2.022877 1_655
Mo0 O24 2.040699 1_555
Mo1 O27 1.937337 1_554
Mo1 O22 1.950097 1_565
Mo1 O12 2.014226 1_555
Mo1 O6 2.022873 1_565
Mo1 O3 2.022877 1_555
Mo1 O16 2.040710 1_555
Mo2 O13 1.937348 1_555
Mo2 O17 1.950102 1_455
Mo2 O23 2.014226 1_555
Mo2 O7 2.022869 1_555
Mo2 O1 2.022881 1_455
Mo2 O28 2.040699 1_555
Mo3 O4 1.979429 1_555
Mo3 O8 1.979429 1_555
Mo3 O11 2.008608 1_555
Mo3 O15 2.008608 1_554
Mo3 O26 2.008616 1_554
Mo3 O21 2.008616 1_555
Mo4 O20 1.937337 1_556
Mo4 O25 1.950097 1_545
Mo4 O19 2.014226 1_555
Mo4 O0 2.022873 1_545
Mo4 O9 2.022877 1_555
Mo4 O10 2.040710 1_555
O0 Sr6 2.806982 1_556
O0 Sr2 2.815803 1_555
O0 Sr5 2.817453 1_555
O0 Sr0 2.821773 1_565
O1 Sr3 2.806973 1_545
O1 Sr6 2.815806 1_545
O1 Sr1 2.817461 1_555
O1 Sr9 2.821770 1_655
O2 Sr2 2.806979 1_555
O2 Sr8 2.815794 1_555
O2 Sr1 2.817456 1_555
O2 Sr7 2.821781 1_555
O3 Sr8 2.806979 1_454
O3 Sr3 2.815794 1_455
O3 Sr5 2.817456 1_555
O3 Sr4 2.821781 1_555
O4 Sr4 2.786815 1_555
O4 Sr7 2.786815 1_555
O4 Sr9 2.786815 1_554
O4 Sr0 2.786815 1_554
O5 Sr9 2.806970 1_565
O5 Sr0 2.815797 1_565
O5 Sr5 2.817464 1_555
O5 Sr3 2.821778 1_455
O6 Sr0 2.806982 1_554
O6 Sr7 2.815803 1_555
O6 Sr1 2.817453 1_555
O6 Sr6 2.821773 1_545
O7 Sr7 2.806982 1_555
O7 Sr4 2.815803 1_555
O7 Sr5 2.817453 1_555
O7 Sr2 2.821773 1_555
O8 Sr6 2.786815 1_555
O8 Sr3 2.786815 1_555
O8 Sr2 2.786815 1_554
O8 Sr8 2.786815 1_554
O9 Sr4 2.806979 1_656
O9 Sr9 2.815794 1_655
O9 Sr1 2.817456 1_555
O9 Sr8 2.821781 1_555
O10 Sr2 2.617870 1_545
O10 Sr9 2.617876 1_655
O10 Sr6 3.011926 1_546
O10 Sr4 3.011932 1_656
O11 Sr8 2.616696 1_554
O11 Sr0 2.616696 1_554
O11 Sr7 3.034872 1_555
O11 Sr3 3.034872 1_555
O12 Sr4 2.659844 1_555
O12 Sr6 2.659844 1_555
O12 Sr1 3.014308 1_565
O12 Sr5 3.014308 1_555
O13 Sr7 2.644570 1_555
O13 Sr3 2.644570 1_445
O13 Sr9 3.045011 1_555
O13 Sr2 3.045011 1_555
O14 Sr1 2.660363 1_455
O14 Sr5 2.660363 1_555
O14 Sr0 3.003765 1_565
O14 Sr8 3.003765 1_455
O15 Sr6 2.616696 1_556
O15 Sr4 2.616696 1_556
O15 Sr9 3.034872 1_555
O15 Sr2 3.034872 1_555
O16 Sr7 2.617870 1_565
O16 Sr3 2.617876 1_455
O16 Sr0 3.011926 1_564
O16 Sr8 3.011932 1_454
O17 Sr1 2.660363 1_555
O17 Sr5 2.660363 1_655
O17 Sr6 3.003765 1_545
O17 Sr4 3.003765 1_655
O18 Sr2 2.644570 1_555
O18 Sr9 2.644570 1_665
O18 Sr7 3.045011 1_555
O18 Sr3 3.045011 1_555
O19 Sr8 2.659844 1_555
O19 Sr0 2.659844 1_555
O19 Sr5 3.014308 1_545
O19 Sr1 3.014308 1_555
O20 Sr4 2.644569 1_655
O20 Sr6 2.644575 1_545
O20 Sr8 3.045006 1_554
O20 Sr0 3.045011 1_554
O21 Sr7 2.616691 1_555
O21 Sr3 2.616697 1_555
O21 Sr4 3.034873 1_555
O21 Sr6 3.034878 1_555
O22 Sr1 2.660362 1_555
O22 Sr5 2.660368 1_545
O22 Sr7 3.003759 1_555
O22 Sr3 3.003765 1_445
O23 Sr2 2.659843 1_555
O23 Sr9 2.659849 1_555
O23 Sr5 3.014302 1_555
O23 Sr1 3.014307 1_455
O24 Sr0 2.617868 1_665
O24 Sr8 2.617868 1_555
O24 Sr2 3.011935 1_555
O24 Sr9 3.011935 1_665
O25 Sr5 2.660362 1_555
O25 Sr1 2.660368 1_565
O25 Sr2 3.003759 1_555
O25 Sr9 3.003765 1_665
O26 Sr2 2.616691 1_555
O26 Sr9 2.616697 1_555
O26 Sr8 3.034873 1_555
O26 Sr0 3.034878 1_555
O27 Sr8 2.644569 1_455
O27 Sr0 2.644575 1_565
O27 Sr4 3.045006 1_556
O27 Sr6 3.045011 1_556
O28 Sr6 2.617868 1_445
O28 Sr4 2.617868 1_555
O28 Sr3 3.011935 1_445
O28 Sr7 3.011935 1_555
O29 Sr7 2.659843 1_555
O29 Sr3 2.659849 1_555
O29 Sr1 3.014302 1_555
O29 Sr5 3.014307 1_655
