# generated using pymatgen
data_NaCuSI
_symmetry_space_group_name_H-M   'P 1'
_cell_length_a   3.97862200
_cell_length_b   3.97862200
_cell_length_c   5.68134100
_cell_angle_alpha   90.00000000
_cell_angle_beta   90.00000000
_cell_angle_gamma   90.00000000
_symmetry_Int_Tables_number   1
_chemical_formula_structural   NaCuSI
_chemical_formula_sum   'Na1 Cu1 S1 I1'
_cell_volume   89.93240682
_cell_formula_units_Z   1
loop_
 _symmetry_equiv_pos_site_id
 _symmetry_equiv_pos_as_xyz
  1  'x, y, z'
loop_
 _atom_site_type_symbol
 _atom_site_label
 _atom_site_symmetry_multiplicity
 _atom_site_fract_x
 _atom_site_fract_y
 _atom_site_fract_z
 _atom_site_occupancy
  Na  Na0  1  0.50000000  0.50000000  0.50000000  1
  Cu  Cu0  1  0.00000000  0.00000000  0.00000000  1
  S  S0  1  0.00000000  0.00000000  0.50000000  1
  I  I0  1  0.50000000  0.50000000  0.00000000  1
loop_
_geom_bond_atom_site_label_1
_geom_bond_atom_site_label_2
_geom_bond_distance
_geom_bond_site_symmetry_2
Na0 S0 2.813311 1_565
Na0 S0 2.813311 1_655
Na0 S0 2.813311 1_665
Na0 S0 2.813311 1_555
Cu0 I0 2.813311 1_545
Cu0 I0 2.813311 1_445
Cu0 I0 2.813311 1_555
Cu0 I0 2.813311 1_455
Cu0 S0 2.840670 1_554
Cu0 S0 2.840670 1_555
I0 Na0 2.840670 1_554
I0 Na0 2.840670 1_555
