# generated using pymatgen
data_V2Cu(PO7)2
_symmetry_space_group_name_H-M   'P 1'
_cell_length_a   8.93565400
_cell_length_b   7.17948500
_cell_length_c   8.88372875
_cell_angle_alpha   75.96288369
_cell_angle_beta   90.00000000
_cell_angle_gamma   90.00000000
_symmetry_Int_Tables_number   1
_chemical_formula_structural   V2Cu(PO7)2
_chemical_formula_sum   'V4 Cu2 P4 O28'
_cell_volume   552.90281730
_cell_formula_units_Z   2
loop_
 _symmetry_equiv_pos_site_id
 _symmetry_equiv_pos_as_xyz
  1  'x, y, z'
loop_
 _atom_site_type_symbol
 _atom_site_label
 _atom_site_symmetry_multiplicity
 _atom_site_fract_x
 _atom_site_fract_y
 _atom_site_fract_z
 _atom_site_occupancy
  V  V0  1  0.25000000  0.91793400  0.51394900  1
  V  V1  1  0.75000000  0.08206600  0.48605100  1
  V  V2  1  0.75000000  0.90594800  0.01992500  1
  V  V3  1  0.25000000  0.09405200  0.98007500  1
  Cu  Cu0  1  0.75000000  0.52282700  0.87006300  1
  Cu  Cu1  1  0.25000000  0.47717300  0.12993700  1
  P  P0  1  0.49958200  0.00689200  0.74826700  1
  P  P1  1  0.99958200  0.99310800  0.25173300  1
  P  P2  1  0.50041800  0.99310800  0.25173300  1
  P  P3  1  0.00041800  0.00689200  0.74826700  1
  O  O0  1  0.59713500  0.87152400  0.87156500  1
  O  O1  1  0.09713500  0.12847600  0.12843500  1
  O  O2  1  0.40286500  0.12847600  0.12843500  1
  O  O3  1  0.90286500  0.87152400  0.87156500  1
  O  O4  1  0.40026100  0.87587900  0.67428500  1
  O  O5  1  0.90026100  0.12412100  0.32571500  1
  O  O6  1  0.59973900  0.12412100  0.32571500  1
  O  O7  1  0.09973900  0.87587900  0.67428500  1
  O  O8  1  0.40128200  0.13878200  0.82224800  1
  O  O9  1  0.90128200  0.86121800  0.17775200  1
  O  O10  1  0.59871800  0.86121800  0.17775200  1
  O  O11  1  0.09871800  0.13878200  0.82224800  1
  O  O12  1  0.59941000  0.13894000  0.62393000  1
  O  O13  1  0.09941000  0.86106000  0.37607000  1
  O  O14  1  0.40059000  0.86106000  0.37607000  1
  O  O15  1  0.90059000  0.13894000  0.62393000  1
  O  O16  1  0.25000000  0.14827400  0.46233500  1
  O  O17  1  0.75000000  0.85172600  0.53766500  1
  O  O18  1  0.75000000  0.13914600  0.97225000  1
  O  O19  1  0.25000000  0.86085400  0.02775000  1
  O  O20  1  0.25000000  0.58293200  0.60710800  1
  O  O21  1  0.75000000  0.41706800  0.39289200  1
  O  O22  1  0.75000000  0.58895000  0.04692900  1
  O  O23  1  0.25000000  0.41105000  0.95307100  1
  O  O24  1  0.90674100  0.50450900  0.75874600  1
  O  O25  1  0.40674100  0.49549100  0.24125400  1
  O  O26  1  0.09325900  0.49549100  0.24125400  1
  O  O27  1  0.59325900  0.50450900  0.75874600  1
loop_
_geom_bond_atom_site_label_1
_geom_bond_atom_site_label_2
_geom_bond_distance
_geom_bond_site_symmetry_2
Cu0 O24 1.737804 1_555
Cu0 O27 1.737804 1_555
Cu0 O22 1.748134 1_556
Cu1 O25 1.737804 1_555
Cu1 O26 1.737804 1_555
Cu1 O23 1.748134 1_554
O0 P0 1.545242 1_565
O0 V2 1.954996 1_556
O1 P1 1.545242 1_445
O1 V3 1.954996 1_554
O2 P2 1.545242 1_545
O2 V3 1.954996 1_554
O3 P3 1.545242 1_665
O3 V2 1.954996 1_556
O4 P0 1.550561 1_565
O4 V0 1.927224 1_555
O5 P1 1.550561 1_545
O5 V1 1.927224 1_555
O6 P2 1.550561 1_545
O6 V1 1.927224 1_555
O7 P3 1.550561 1_565
O7 V0 1.927224 1_555
O8 P0 1.549841 1_555
O8 V3 1.917796 1_555
O9 P1 1.549841 1_555
O9 V2 1.917796 1_555
O10 P2 1.549841 1_555
O10 V2 1.917796 1_555
O11 P3 1.549841 1_555
O11 V3 1.917796 1_555
O12 P0 1.551319 1_555
O12 V1 1.928828 1_555
O13 P1 1.551319 1_455
O13 V0 1.928828 1_555
O14 P2 1.551319 1_555
O14 V0 1.928828 1_555
O15 P3 1.551319 1_655
O15 V1 1.928828 1_555
O16 V0 1.605367 1_545
O17 V1 1.605367 1_565
O18 V2 1.624340 1_546
O19 V3 1.624340 1_564
O20 V0 2.346069 1_555
O21 V1 2.346069 1_555
O22 V2 2.229874 1_555
O23 V3 2.229874 1_555
