# generated using pymatgen
data_K8MgCo2(Mo4O15)2
_symmetry_space_group_name_H-M   'P 1'
_cell_length_a   10.57523338
_cell_length_b   10.51096450
_cell_length_c   8.48211697
_cell_angle_alpha   89.40270486
_cell_angle_beta   91.76440223
_cell_angle_gamma   120.37161238
_symmetry_Int_Tables_number   1
_chemical_formula_structural   K8MgCo2(Mo4O15)2
_chemical_formula_sum   'K8 Mg1 Co2 Mo8 O30'
_cell_volume   813.04627675
_cell_formula_units_Z   1
loop_
 _symmetry_equiv_pos_site_id
 _symmetry_equiv_pos_as_xyz
  1  'x, y, z'
loop_
 _atom_site_type_symbol
 _atom_site_label
 _atom_site_symmetry_multiplicity
 _atom_site_fract_x
 _atom_site_fract_y
 _atom_site_fract_z
 _atom_site_occupancy
  K  K0  1  0.09647800  0.67709500  0.13772700  1
  K  K1  1  0.59523300  0.90518000  0.15114900  1
  K  K2  1  0.40072800  0.08958100  0.85539300  1
  K  K3  1  0.99794600  0.99553900  0.01506700  1
  K  K4  1  0.87395900  0.28308300  0.91476000  1
  K  K5  1  0.69848400  0.60574400  0.86365900  1
  K  K6  1  0.29780900  0.41002400  0.13621400  1
  K  K7  1  0.00310000  0.00241900  0.52227800  1
  Mg  Mg0  1  0.11600100  0.44852400  0.67975700  1
  Co  Co0  1  0.33170600  0.66371800  0.46013000  1
  Co  Co1  1  0.67325800  0.33365800  0.52434500  1
  Mo  Mo0  1  0.96969800  0.30820800  0.36078800  1
  Mo  Mo1  1  0.01987900  0.68143700  0.62768500  1
  Mo  Mo2  1  0.33536000  0.00636200  0.36547600  1
  Mo  Mo3  1  0.65305500  0.33086600  0.16021500  1
  Mo  Mo4  1  0.67524000  0.00160900  0.63519700  1
  Mo  Mo5  1  0.34943200  0.68239000  0.84575500  1
  Mo  Mo6  1  0.67226400  0.66156800  0.36743900  1
  Mo  Mo7  1  0.34346900  0.34176000  0.62283000  1
  O  O0  1  0.49657300  0.83175800  0.65402900  1
  O  O1  1  0.66007400  0.47966100  0.35045800  1
  O  O2  1  0.74338100  0.01084600  0.44385400  1
  O  O3  1  0.49149200  0.64234700  0.34488000  1
  O  O4  1  0.16701600  0.50616600  0.90523700  1
  O  O5  1  0.14164900  0.49897100  0.35829500  1
  O  O6  1  0.26546400  0.99392300  0.55528800  1
  O  O7  1  0.36069400  0.84862100  0.34012900  1
  O  O8  1  0.50698300  0.34347600  0.06720800  1
  O  O9  1  0.87402100  0.49317800  0.65889900  1
  O  O10  1  0.33065800  0.51401800  0.64079200  1
  O  O11  1  0.79920500  0.32861000  0.34965100  1
  O  O12  1  0.98906600  0.26651900  0.57307100  1
  O  O13  1  0.74050900  0.73273600  0.55817200  1
  O  O14  1  0.33744600  0.82509500  0.94625500  1
  O  O15  1  0.80944500  0.47292300  0.06426900  1
  O  O16  1  0.20813700  0.99273900  0.21520300  1
  O  O17  1  0.99684000  0.73427500  0.43730400  1
  O  O18  1  0.63277200  0.16874900  0.06959400  1
  O  O19  1  0.79586300  0.00437400  0.78935000  1
  O  O20  1  0.98600000  0.21603700  0.19128100  1
  O  O21  1  0.51022900  0.18335500  0.35340600  1
  O  O22  1  0.52586000  0.36800200  0.65451000  1
  O  O23  1  0.19227900  0.66822200  0.63997600  1
  O  O24  1  0.27176700  0.26681100  0.43519100  1
  O  O25  1  0.65192900  0.16001700  0.66445800  1
  O  O26  1  0.78247300  0.78519300  0.21833800  1
  O  O27  1  0.00949100  0.79420700  0.77569200  1
  O  O28  1  0.48603900  0.65423800  0.94352900  1
  O  O29  1  0.22729600  0.21741700  0.76675600  1
loop_
_geom_bond_atom_site_label_1
_geom_bond_atom_site_label_2
_geom_bond_distance
_geom_bond_site_symmetry_2
K0 O15 2.744415 1_455
K0 O14 2.782979 1_554
K0 O5 2.830206 1_555
K0 O7 2.946215 1_555
K0 O17 2.960663 1_455
K0 O16 2.978186 1_555
K0 O4 3.031967 1_554
K1 O18 2.678783 1_565
K1 O7 2.794403 1_555
K1 O2 2.812575 1_565
K1 O26 2.876974 1_555
K1 O28 2.878120 1_554
K1 O3 2.913335 1_555
K1 O14 2.929018 1_554
K2 O14 2.622222 1_545
K2 O18 2.776202 1_556
K2 O6 2.812754 1_545
K2 O29 2.849678 1_555
K2 O25 2.911904 1_555
K2 O8 2.925015 1_556
K2 O22 3.055740 1_555
K3 O16 2.767003 1_655
K3 O20 2.828675 1_565
K3 O26 2.849795 1_555
K3 O19 2.861165 1_564
K3 O27 2.996973 1_654
K3 O29 3.201563 1_664
K4 O18 2.597773 1_556
K4 O15 2.745536 1_556
K4 O4 2.787912 1_655
K4 O19 2.821333 1_555
K4 O20 2.835590 1_556
K4 O25 2.893600 1_555
K4 Mg0 3.047950 1_655
K4 O9 3.079814 1_555
K4 O12 3.217764 1_555
K5 O28 2.650502 1_555
K5 O15 2.775881 1_556
K5 O22 2.829181 1_555
K5 O13 2.844706 1_555
K5 O27 2.971562 1_655
K5 O8 3.025270 1_556
K5 O9 3.213221 1_555
K5 O26 3.414219 1_556
K6 O8 2.716251 1_555
K6 O4 2.824533 1_554
K6 O3 2.846071 1_555
K6 O28 2.858077 1_554
K6 O24 2.883935 1_555
K6 O20 2.919755 1_455
K6 O5 2.989853 1_555
K7 O13 2.813091 1_445
K7 O6 2.826083 1_545
K7 O2 2.850678 1_455
K7 O17 2.884144 1_445
K7 O12 2.891193 1_455
K7 O24 2.905720 1_555
K7 O29 3.066807 1_555
K7 O27 3.075221 1_545
K7 O19 3.207401 1_455
Mg0 O12 1.909207 1_455
Mg0 O4 1.986471 1_555
Mg0 O10 2.048774 1_555
Mg0 O23 2.052802 1_555
Co0 O5 2.046759 1_555
Co0 O7 2.069479 1_555
Co0 O3 2.086038 1_555
Co0 O23 2.171172 1_555
Co0 O10 2.181141 1_555
Co0 O0 2.373693 1_555
Co1 O11 2.041352 1_555
Co1 O25 2.085524 1_555
Co1 O22 2.112427 1_555
Co1 O1 2.169438 1_555
Co1 O21 2.170278 1_555
Co1 O9 2.216408 1_555
Mo0 O20 1.802418 1_555
Mo0 O12 1.878231 1_555
Mo0 O5 1.908408 1_655
Mo0 O11 1.919844 1_555
Mo1 O17 1.751970 1_455
Mo1 O27 1.778850 1_555
Mo1 O9 1.814579 1_455
Mo1 O23 1.896889 1_555
Mo2 O6 1.768263 1_545
Mo2 O16 1.777279 1_545
Mo2 O7 1.824050 1_545
Mo2 O21 1.849340 1_555
Mo3 O8 1.776508 1_555
Mo3 O15 1.785348 1_555
Mo3 O18 1.785506 1_555
Mo3 O11 2.203305 1_555
Mo3 O1 2.232330 1_555
Mo3 O21 2.258739 1_555
Mo4 O2 1.777863 1_555
Mo4 O19 1.788381 1_555
Mo4 O25 1.822666 1_555
Mo4 O0 1.839674 1_545
Mo5 O28 1.793249 1_555
Mo5 O14 1.793939 1_555
Mo5 O4 1.958077 1_555
Mo5 O0 2.272238 1_555
Mo5 O23 2.325355 1_555
Mo5 O10 2.425176 1_555
Mo6 O13 1.762152 1_555
Mo6 O26 1.780831 1_555
Mo6 O3 1.822025 1_555
Mo6 O1 1.857022 1_555
Mo7 O24 1.753985 1_555
Mo7 O29 1.772925 1_555
Mo7 O22 1.816673 1_555
Mo7 O10 1.890741 1_555
