# generated using pymatgen
data_KMg14CoO16
_symmetry_space_group_name_H-M   'P 1'
_cell_length_a   8.65694357
_cell_length_b   8.65694357
_cell_length_c   4.31253003
_cell_angle_alpha   90.00000000
_cell_angle_beta   90.00000000
_cell_angle_gamma   90.00000000
_symmetry_Int_Tables_number   1
_chemical_formula_structural   KMg14CoO16
_chemical_formula_sum   'K1 Mg14 Co1 O16'
_cell_volume   323.19252342
_cell_formula_units_Z   1
loop_
 _symmetry_equiv_pos_site_id
 _symmetry_equiv_pos_as_xyz
  1  'x, y, z'
loop_
 _atom_site_type_symbol
 _atom_site_label
 _atom_site_symmetry_multiplicity
 _atom_site_fract_x
 _atom_site_fract_y
 _atom_site_fract_z
 _atom_site_occupancy
  K  K0  1  0.50000000  0.50000000  0.00000000  1
  Mg  Mg0  1  0.00000000  0.50000000  0.00000000  1
  Mg  Mg1  1  0.50000000  0.00000000  0.00000000  1
  Mg  Mg2  1  0.00000000  0.24900539  0.50000000  1
  Mg  Mg3  1  0.00000000  0.75099461  0.50000000  1
  Mg  Mg4  1  0.50000000  0.24222608  0.50000000  1
  Mg  Mg5  1  0.50000000  0.75777392  0.50000000  1
  Mg  Mg6  1  0.24900539  0.00000000  0.50000000  1
  Mg  Mg7  1  0.24222608  0.50000000  0.50000000  1
  Mg  Mg8  1  0.75099461  0.00000000  0.50000000  1
  Mg  Mg9  1  0.75777392  0.50000000  0.50000000  1
  Mg  Mg10  1  0.24975479  0.24975479  0.00000000  1
  Mg  Mg11  1  0.24975479  0.75024521  0.00000000  1
  Mg  Mg12  1  0.75024521  0.24975479  0.00000000  1
  Mg  Mg13  1  0.75024521  0.75024521  0.00000000  1
  Co  Co0  1  0.00000000  0.00000000  0.00000000  1
  O  O0  1  0.23997409  0.00000000  0.00000000  1
  O  O1  1  0.22488671  0.50000000  0.00000000  1
  O  O2  1  0.76002591  0.00000000  0.00000000  1
  O  O3  1  0.77511329  0.50000000  0.00000000  1
  O  O4  1  0.24935398  0.24935398  0.50000000  1
  O  O5  1  0.24935398  0.75064602  0.50000000  1
  O  O6  1  0.75064602  0.24935398  0.50000000  1
  O  O7  1  0.75064602  0.75064602  0.50000000  1
  O  O8  1  0.00000000  0.00000000  0.50000000  1
  O  O9  1  0.00000000  0.50000000  0.50000000  1
  O  O10  1  0.50000000  0.00000000  0.50000000  1
  O  O11  1  0.50000000  0.50000000  0.50000000  1
  O  O12  1  0.00000000  0.23997409  0.00000000  1
  O  O13  1  0.00000000  0.76002591  0.00000000  1
  O  O14  1  0.50000000  0.22488671  0.00000000  1
  O  O15  1  0.50000000  0.77511329  0.00000000  1
loop_
_geom_bond_atom_site_label_1
_geom_bond_atom_site_label_2
_geom_bond_distance
_geom_bond_site_symmetry_2
K0 O11 2.156265 1_554
K0 O11 2.156265 1_555
K0 O1 2.381640 1_555
K0 O14 2.381640 1_555
K0 O3 2.381640 1_555
K0 O15 2.381640 1_555
Mg0 O3 1.946832 1_455
Mg0 O1 1.946832 1_555
Mg0 O9 2.156265 1_555
Mg0 O9 2.156265 1_554
Mg0 O13 2.251030 1_555
Mg0 O12 2.251030 1_555
Mg1 O15 1.946832 1_545
Mg1 O14 1.946832 1_555
Mg1 O10 2.156265 1_555
Mg1 O10 2.156265 1_554
Mg1 O0 2.251030 1_555
Mg1 O2 2.251030 1_555
Mg2 O8 2.155626 1_555
Mg2 O12 2.157682 1_555
Mg2 O12 2.157682 1_556
Mg2 O4 2.158645 1_555
Mg2 O6 2.158645 1_455
Mg2 O9 2.172846 1_555
Mg3 O8 2.155626 1_565
Mg3 O13 2.157682 1_555
Mg3 O13 2.157682 1_556
Mg3 O7 2.158645 1_455
Mg3 O5 2.158645 1_555
Mg3 O9 2.172846 1_555
Mg4 O10 2.096938 1_555
Mg4 O14 2.161483 1_556
Mg4 O14 2.161483 1_555
Mg4 O4 2.170706 1_555
Mg4 O6 2.170706 1_555
Mg4 O11 2.231534 1_555
Mg5 O10 2.096938 1_565
Mg5 O15 2.161483 1_555
Mg5 O15 2.161483 1_556
Mg5 O5 2.170706 1_555
Mg5 O7 2.170706 1_555
Mg5 O11 2.231534 1_555
Mg6 O8 2.155626 1_555
Mg6 O0 2.157682 1_555
Mg6 O0 2.157682 1_556
Mg6 O5 2.158645 1_545
Mg6 O4 2.158645 1_555
Mg6 O10 2.172846 1_555
Mg7 O9 2.096938 1_555
Mg7 O1 2.161483 1_556
Mg7 O1 2.161483 1_555
Mg7 O4 2.170706 1_555
Mg7 O5 2.170706 1_555
Mg7 O11 2.231534 1_555
Mg8 O8 2.155626 1_655
Mg8 O2 2.157682 1_556
Mg8 O2 2.157682 1_555
Mg8 O7 2.158645 1_545
Mg8 O6 2.158645 1_555
Mg8 O10 2.172846 1_555
Mg9 O9 2.096938 1_655
Mg9 O3 2.161483 1_556
Mg9 O3 2.161483 1_555
Mg9 O6 2.170706 1_555
Mg9 O7 2.170706 1_555
Mg9 O11 2.231534 1_555
Mg10 O4 2.156271 1_554
Mg10 O4 2.156271 1_555
Mg10 O0 2.163770 1_555
Mg10 O12 2.163770 1_555
Mg10 O1 2.177029 1_555
Mg10 O14 2.177029 1_555
Mg11 O5 2.156271 1_554
Mg11 O5 2.156271 1_555
Mg11 O13 2.163770 1_555
Mg11 O0 2.163770 1_565
Mg11 O1 2.177029 1_555
Mg11 O15 2.177029 1_555
Mg12 O6 2.156271 1_554
Mg12 O6 2.156271 1_555
Mg12 O12 2.163770 1_655
Mg12 O2 2.163770 1_555
Mg12 O3 2.177029 1_555
Mg12 O14 2.177029 1_555
Mg13 O7 2.156271 1_555
Mg13 O7 2.156271 1_554
Mg13 O13 2.163770 1_655
Mg13 O2 2.163770 1_565
Mg13 O3 2.177029 1_555
Mg13 O15 2.177029 1_555
Co0 O12 2.077442 1_555
Co0 O0 2.077442 1_555
Co0 O13 2.077442 1_545
Co0 O2 2.077442 1_455
Co0 O8 2.156265 1_554
Co0 O8 2.156265 1_555
