# generated using pymatgen
data_Dy2(Al3Rh)3
_symmetry_space_group_name_H-M   'P 1'
_cell_length_a   7.49452837
_cell_length_b   7.49452837
_cell_length_c   9.41812907
_cell_angle_alpha   90.00000000
_cell_angle_beta   90.00000000
_cell_angle_gamma   119.32619305
_symmetry_Int_Tables_number   1
_chemical_formula_structural   Dy2(Al3Rh)3
_chemical_formula_sum   'Dy4 Al18 Rh6'
_cell_volume   461.20367956
_cell_formula_units_Z   2
loop_
 _symmetry_equiv_pos_site_id
 _symmetry_equiv_pos_as_xyz
  1  'x, y, z'
loop_
 _atom_site_type_symbol
 _atom_site_label
 _atom_site_symmetry_multiplicity
 _atom_site_fract_x
 _atom_site_fract_y
 _atom_site_fract_z
 _atom_site_occupancy
  Dy  Dy0  1  0.99441665  0.67212498  0.75000000  1
  Dy  Dy1  1  0.00558335  0.32787502  0.25000000  1
  Dy  Dy2  1  0.67212498  0.99441665  0.75000000  1
  Dy  Dy3  1  0.32787502  0.00558335  0.25000000  1
  Al  Al0  1  0.12986225  0.12986225  0.75000000  1
  Al  Al1  1  0.87013775  0.87013775  0.25000000  1
  Al  Al2  1  0.00163494  0.33573122  0.57413127  1
  Al  Al3  1  -0.00163494  0.66426878  0.42586873  1
  Al  Al4  1  -0.00163494  0.66426878  0.07413127  1
  Al  Al5  1  0.33573122  0.00163494  0.92586873  1
  Al  Al6  1  0.00163494  0.33573122  0.92586873  1
  Al  Al7  1  0.66426878  -0.00163494  0.07413127  1
  Al  Al8  1  0.66426878  -0.00163494  0.42586873  1
  Al  Al9  1  0.33573122  0.00163494  0.57413127  1
  Al  Al10  1  0.33355764  0.33355764  0.04807737  1
  Al  Al11  1  0.66644236  0.66644236  0.95192263  1
  Al  Al12  1  0.66644236  0.66644236  0.54807737  1
  Al  Al13  1  0.33355764  0.33355764  0.45192263  1
  Al  Al14  1  0.33987954  0.54947447  0.75000000  1
  Al  Al15  1  0.66012046  0.45052553  0.25000000  1
  Al  Al16  1  0.54947447  0.33987954  0.75000000  1
  Al  Al17  1  0.45052553  0.66012046  0.25000000  1
  Rh  Rh0  1  0.67235431  0.32764569  0.50000000  1
  Rh  Rh1  1  0.32764569  0.67235431  0.50000000  1
  Rh  Rh2  1  0.32764569  0.67235431  0.00000000  1
  Rh  Rh3  1  0.67235431  0.32764569  0.00000000  1
  Rh  Rh4  1  0.00000000  -0.00000000  0.50000000  1
  Rh  Rh5  1  0.00000000  -0.00000000  0.00000000  1
loop_
_geom_bond_atom_site_label_1
_geom_bond_atom_site_label_2
_geom_bond_distance
_geom_bond_site_symmetry_2
Dy0 Rh5 3.388661 1_666
Dy0 Rh4 3.388661 1_665
Dy0 Rh2 3.431705 1_656
Dy0 Rh1 3.431705 1_655
Dy0 Rh3 3.454112 1_556
Dy0 Rh0 3.454112 1_555
Dy1 Rh4 3.388661 1_555
Dy1 Rh5 3.388661 1_555
Dy1 Rh3 3.431705 1_455
Dy1 Rh0 3.431705 1_455
Dy1 Rh2 3.454112 1_555
Dy1 Rh1 3.454112 1_555
Dy2 Rh5 3.388661 1_666
Dy2 Rh4 3.388661 1_665
Dy2 Rh0 3.431705 1_565
Dy2 Rh3 3.431705 1_566
Dy2 Rh1 3.454112 1_555
Dy2 Rh2 3.454112 1_556
Dy3 Rh4 3.388661 1_555
Dy3 Rh5 3.388661 1_555
Dy3 Rh2 3.431705 1_545
Dy3 Rh1 3.431705 1_545
Dy3 Rh3 3.454112 1_555
Dy3 Rh0 3.454112 1_555
Al0 Rh4 2.551550 1_555
Al0 Rh5 2.551550 1_556
Al0 Dy2 3.063947 1_445
Al0 Dy0 3.063947 1_445
Al1 Rh4 2.551550 1_665
Al1 Rh5 2.551550 1_665
Al1 Dy1 3.063947 1_665
Al1 Dy3 3.063947 1_665
Al2 Rh0 2.536669 1_455
Al2 Rh1 2.604570 1_555
Al2 Rh4 2.605456 1_555
Al2 Dy2 3.032731 1_445
Al2 Dy0 3.039086 1_455
Al2 Dy1 3.053701 1_555
Al3 Rh1 2.536669 1_555
Al3 Rh0 2.604570 1_455
Al3 Rh4 2.605456 1_565
Al3 Dy3 3.032731 1_565
Al3 Dy1 3.039086 1_555
Al3 Dy0 3.053701 1_455
Al4 Rh2 2.536669 1_555
Al4 Rh3 2.604570 1_455
Al4 Rh5 2.605456 1_565
Al4 Dy3 3.032731 1_565
Al4 Dy1 3.039086 1_555
Al4 Dy0 3.053701 1_454
Al5 Rh2 2.536669 1_546
Al5 Rh3 2.604570 1_556
Al5 Rh5 2.605456 1_556
Al5 Dy0 3.032731 1_445
Al5 Dy2 3.039086 1_545
Al5 Dy3 3.053701 1_556
Al6 Rh3 2.536669 1_456
Al6 Rh2 2.604570 1_556
Al6 Rh5 2.605456 1_556
Al6 Dy2 3.032731 1_445
Al6 Dy0 3.039086 1_455
Al6 Dy1 3.053701 1_556
Al7 Rh3 2.536669 1_555
Al7 Rh2 2.604570 1_545
Al7 Rh5 2.605456 1_655
Al7 Dy1 3.032731 1_655
Al7 Dy3 3.039086 1_555
Al7 Dy2 3.053701 1_544
Al8 Rh0 2.536669 1_555
Al8 Rh1 2.604570 1_545
Al8 Rh4 2.605456 1_655
Al8 Dy1 3.032731 1_655
Al8 Dy3 3.039086 1_555
Al8 Dy2 3.053701 1_545
Al9 Rh1 2.536669 1_545
Al9 Rh0 2.604570 1_555
Al9 Rh4 2.605456 1_555
Al9 Dy0 3.032731 1_445
Al9 Dy2 3.039086 1_545
Al9 Dy3 3.053701 1_555
Al10 Rh5 2.565548 1_555
Al10 Rh2 2.600832 1_555
Al10 Rh3 2.600832 1_555
Al10 Dy3 3.091551 1_555
Al10 Dy1 3.091551 1_555
Al11 Rh5 2.565548 1_666
Al11 Rh3 2.600832 1_556
Al11 Rh2 2.600832 1_556
Al11 Dy2 3.091551 1_555
Al11 Dy0 3.091551 1_555
Al12 Rh4 2.565548 1_665
Al12 Rh0 2.600832 1_555
Al12 Rh1 2.600832 1_555
Al12 Dy2 3.091551 1_555
Al12 Dy0 3.091551 1_555
Al13 Rh4 2.565548 1_555
Al13 Rh0 2.600832 1_555
Al13 Rh1 2.600832 1_555
Al13 Dy3 3.091551 1_555
Al13 Dy1 3.091551 1_555
Al14 Rh2 2.546183 1_556
Al14 Rh1 2.546183 1_555
Al14 Dy2 3.030903 1_555
Al14 Dy0 3.143175 1_455
Al15 Rh0 2.546183 1_555
Al15 Rh3 2.546183 1_555
Al15 Dy3 3.030903 1_555
Al15 Dy1 3.143175 1_655
Al16 Rh0 2.546183 1_555
Al16 Rh3 2.546183 1_556
Al16 Dy0 3.030903 1_555
Al16 Dy2 3.143175 1_545
Al17 Rh1 2.546183 1_555
Al17 Rh2 2.546183 1_555
Al17 Dy1 3.030903 1_555
Al17 Dy3 3.143175 1_565
