# generated using pymatgen
data_HoBi2C
_symmetry_space_group_name_H-M   'P 1'
_cell_length_a   10.72944200
_cell_length_b   10.72944200
_cell_length_c   7.14548700
_cell_angle_alpha   90.00000000
_cell_angle_beta   90.00000000
_cell_angle_gamma   90.00000000
_symmetry_Int_Tables_number   1
_chemical_formula_structural   HoBi2C
_chemical_formula_sum   'Ho8 Bi16 C8'
_cell_volume   822.59507753
_cell_formula_units_Z   8
loop_
 _symmetry_equiv_pos_site_id
 _symmetry_equiv_pos_as_xyz
  1  'x, y, z'
loop_
 _atom_site_type_symbol
 _atom_site_label
 _atom_site_symmetry_multiplicity
 _atom_site_fract_x
 _atom_site_fract_y
 _atom_site_fract_z
 _atom_site_occupancy
  Ho  Ho0  1  0.74525300  0.24525300  0.25000000  1
  Ho  Ho1  1  0.25474700  0.75474700  0.75000000  1
  Ho  Ho2  1  0.25474700  0.75474700  0.25000000  1
  Ho  Ho3  1  0.24525300  0.25474700  0.75000000  1
  Ho  Ho4  1  0.74525300  0.24525300  0.75000000  1
  Ho  Ho5  1  0.75474700  0.74525300  0.25000000  1
  Ho  Ho6  1  0.75474700  0.74525300  0.75000000  1
  Ho  Ho7  1  0.24525300  0.25474700  0.25000000  1
  Bi  Bi0  1  0.49275100  0.15718500  0.00000000  1
  Bi  Bi1  1  0.50724900  0.84281500  0.00000000  1
  Bi  Bi2  1  0.15718500  0.50724900  0.50000000  1
  Bi  Bi3  1  0.99275100  0.34281500  0.00000000  1
  Bi  Bi4  1  0.84281500  0.49275100  0.50000000  1
  Bi  Bi5  1  0.00724900  0.65718500  0.00000000  1
  Bi  Bi6  1  0.65718500  0.99275100  0.50000000  1
  Bi  Bi7  1  0.34281500  0.00724900  0.50000000  1
  Bi  Bi8  1  0.17129800  0.00281600  0.00000000  1
  Bi  Bi9  1  0.82870200  0.99718400  0.00000000  1
  Bi  Bi10  1  0.00281600  0.82870200  0.50000000  1
  Bi  Bi11  1  0.67129800  0.49718400  0.00000000  1
  Bi  Bi12  1  0.99718400  0.17129800  0.50000000  1
  Bi  Bi13  1  0.32870200  0.50281600  0.00000000  1
  Bi  Bi14  1  0.50281600  0.67129800  0.50000000  1
  Bi  Bi15  1  0.49718400  0.32870200  0.50000000  1
  C  C0  1  0.49770100  0.36513100  0.00000000  1
  C  C1  1  0.50229900  0.63486900  0.00000000  1
  C  C2  1  0.36513100  0.50229900  0.50000000  1
  C  C3  1  0.99770100  0.13486900  0.00000000  1
  C  C4  1  0.63486900  0.49770100  0.50000000  1
  C  C5  1  0.00229900  0.86513100  0.00000000  1
  C  C6  1  0.86513100  0.99770100  0.50000000  1
  C  C7  1  0.13486900  0.00229900  0.50000000  1
loop_
_geom_bond_atom_site_label_1
_geom_bond_atom_site_label_2
_geom_bond_distance
_geom_bond_site_symmetry_2
Bi0 C0 2.231777 1_555
Bi0 Ho3 3.367291 1_554
Bi0 Ho7 3.367291 1_555
Bi0 Ho4 3.379910 1_554
Bi0 Ho0 3.379910 1_555
Bi1 C1 2.231777 1_555
Bi1 Ho5 3.367291 1_555
Bi1 Ho6 3.367291 1_554
Bi1 Ho2 3.379910 1_555
Bi1 Ho1 3.379910 1_554
Bi2 C2 2.231777 1_555
Bi2 Ho1 3.367291 1_555
Bi2 Ho2 3.367291 1_555
Bi2 Ho3 3.379910 1_555
Bi2 Ho7 3.379910 1_555
Bi3 C3 2.231777 1_555
Bi3 Ho4 3.367291 1_554
Bi3 Ho0 3.367291 1_555
Bi3 Ho3 3.379910 1_654
Bi3 Ho7 3.379910 1_655
Bi4 C4 2.231777 1_555
Bi4 Ho4 3.367291 1_555
Bi4 Ho0 3.367291 1_555
Bi4 Ho5 3.379910 1_555
Bi4 Ho6 3.379910 1_555
Bi5 C5 2.231777 1_555
Bi5 Ho1 3.367291 1_554
Bi5 Ho2 3.367291 1_555
Bi5 Ho6 3.379910 1_454
Bi5 Ho5 3.379910 1_455
Bi6 C6 2.231777 1_555
Bi6 Ho5 3.367291 1_555
Bi6 Ho6 3.367291 1_555
Bi6 Ho4 3.379910 1_565
Bi6 Ho0 3.379910 1_565
Bi7 C7 2.231777 1_555
Bi7 Ho3 3.367291 1_555
Bi7 Ho7 3.367291 1_555
Bi7 Ho2 3.379910 1_545
Bi7 Ho1 3.379910 1_545
Bi8 C5 2.338866 1_545
Bi8 C3 2.340246 1_455
Bi8 Ho2 3.328233 1_545
Bi8 Ho1 3.328233 1_544
Bi8 Ho7 3.335775 1_555
Bi8 Ho3 3.335775 1_554
Bi9 C3 2.338866 1_565
Bi9 C5 2.340246 1_655
Bi9 Ho4 3.328233 1_564
Bi9 Ho0 3.328233 1_565
Bi9 Ho5 3.335775 1_555
Bi9 Ho6 3.335775 1_554
Bi10 C6 2.338866 1_455
Bi10 C7 2.340246 1_565
Bi10 Ho5 3.328233 1_455
Bi10 Ho6 3.328233 1_455
Bi10 Ho1 3.335775 1_555
Bi10 Ho2 3.335775 1_555
Bi11 C1 2.338866 1_555
Bi11 C0 2.340246 1_555
Bi11 Ho5 3.328233 1_555
Bi11 Ho6 3.328233 1_554
Bi11 Ho4 3.335775 1_554
Bi11 Ho0 3.335775 1_555
Bi12 C7 2.338866 1_655
Bi12 C6 2.340246 1_545
Bi12 Ho3 3.328233 1_655
Bi12 Ho7 3.328233 1_655
Bi12 Ho0 3.335775 1_555
Bi12 Ho4 3.335775 1_555
Bi13 C0 2.338866 1_555
Bi13 C1 2.340246 1_555
Bi13 Ho3 3.328233 1_554
Bi13 Ho7 3.328233 1_555
Bi13 Ho1 3.335775 1_554
Bi13 Ho2 3.335775 1_555
Bi14 C2 2.338866 1_555
Bi14 C4 2.340246 1_555
Bi14 Ho2 3.328233 1_555
Bi14 Ho1 3.328233 1_555
Bi14 Ho5 3.335775 1_555
Bi14 Ho6 3.335775 1_555
Bi15 C4 2.338866 1_555
Bi15 C2 2.340246 1_555
Bi15 Ho4 3.328233 1_555
Bi15 Ho0 3.328233 1_555
Bi15 Ho3 3.335775 1_555
Bi15 Ho7 3.335775 1_555
