# generated using pymatgen
data_Mg14CuSi
_symmetry_space_group_name_H-M   'P 1'
_cell_length_a   6.17318745
_cell_length_b   6.17318745
_cell_length_c   10.18396500
_cell_angle_alpha   90.00000000
_cell_angle_beta   90.00000000
_cell_angle_gamma   119.99999415
_symmetry_Int_Tables_number   1
_chemical_formula_structural   Mg14CuSi
_chemical_formula_sum   'Mg14 Cu1 Si1'
_cell_volume   336.09843107
_cell_formula_units_Z   1
loop_
 _symmetry_equiv_pos_site_id
 _symmetry_equiv_pos_as_xyz
  1  'x, y, z'
loop_
 _atom_site_type_symbol
 _atom_site_label
 _atom_site_symmetry_multiplicity
 _atom_site_fract_x
 _atom_site_fract_y
 _atom_site_fract_z
 _atom_site_occupancy
  Mg  Mg0  1  0.99899800  0.49949900  0.00000000  1
  Mg  Mg1  1  0.99943400  0.49971700  0.50000000  1
  Mg  Mg2  1  0.50050100  0.00100200  0.00000000  1
  Mg  Mg3  1  0.50028300  0.00056600  0.50000000  1
  Mg  Mg4  1  0.50050100  0.49949900  0.00000000  1
  Mg  Mg5  1  0.50028300  0.49971700  0.50000000  1
  Mg  Mg6  1  0.16236100  0.83763900  0.24745300  1
  Mg  Mg7  1  0.16236100  0.83763900  0.75254700  1
  Mg  Mg8  1  0.16236100  0.32472300  0.24745300  1
  Mg  Mg9  1  0.16236100  0.32472300  0.75254700  1
  Mg  Mg10  1  0.67527700  0.83763900  0.24745300  1
  Mg  Mg11  1  0.67527700  0.83763900  0.75254700  1
  Mg  Mg12  1  0.66666700  0.33333300  0.24844200  1
  Mg  Mg13  1  0.66666700  0.33333300  0.75155800  1
  Cu  Cu0  1  0.00000000  0.00000000  0.00000000  1
  Si  Si0  1  0.00000000  0.00000000  0.50000000  1
loop_
_geom_bond_atom_site_label_1
_geom_bond_atom_site_label_2
_geom_bond_distance
_geom_bond_site_symmetry_2
Mg0 Mg4 3.077315 1_555
Mg0 Mg2 3.077316 1_555
Mg0 Mg13 3.091625 1_554
Mg0 Mg12 3.091625 1_555
Mg0 Mg4 3.095872 1_655
Mg0 Mg2 3.095872 1_665
Mg0 Mg8 3.101584 1_655
Mg0 Mg9 3.101584 1_654
Mg0 Mg6 3.101587 1_655
Mg0 Mg7 3.101587 1_654
Mg1 Mg5 3.081353 1_555
Mg1 Mg3 3.081353 1_555
Mg1 Si0 3.086595 1_655
Mg1 Si0 3.086595 1_665
Mg1 Mg5 3.091835 1_655
Mg1 Mg3 3.091835 1_665
Mg1 Mg13 3.118978 1_555
Mg1 Mg12 3.118978 1_555
Mg1 Mg9 3.143233 1_655
Mg1 Mg8 3.143233 1_655
Mg1 Mg7 3.143236 1_655
Mg1 Mg6 3.143236 1_655
Mg2 Mg4 3.077315 1_555
Mg2 Mg4 3.095872 1_545
Mg2 Mg6 3.101587 1_545
Mg2 Mg7 3.101587 1_544
Mg3 Mg5 3.081353 1_555
Mg3 Si0 3.086595 1_655
Mg3 Si0 3.086595 1_555
Mg3 Mg5 3.091835 1_545
Mg3 Mg7 3.143236 1_545
Mg3 Mg6 3.143236 1_545
Mg4 Mg8 3.101587 1_555
Mg4 Mg9 3.101587 1_554
Mg5 Si0 3.086595 1_555
Mg5 Si0 3.086595 1_665
Mg5 Mg9 3.143236 1_555
Mg5 Mg8 3.143236 1_555
Mg6 Mg8 3.006861 1_565
Mg6 Si0 3.102990 1_565
Mg6 Mg8 3.166327 1_555
Mg7 Mg9 3.006861 1_565
Mg7 Si0 3.102990 1_565
Mg7 Mg9 3.166327 1_555
Mg8 Si0 3.102993 1_555
Mg9 Si0 3.102993 1_555
Mg10 Mg6 3.006861 1_655
Mg10 Mg8 3.006861 1_665
Mg10 Mg12 3.086947 1_565
Mg10 Mg12 3.086960 1_555
Mg10 Mg2 3.101584 1_565
Mg10 Mg4 3.101587 1_555
Mg10 Si0 3.102993 1_665
Mg10 Mg3 3.143233 1_565
Mg10 Mg5 3.143236 1_555
Mg10 Mg6 3.166327 1_555
Mg10 Mg8 3.166327 1_555
Mg11 Mg7 3.006861 1_655
Mg11 Mg9 3.006861 1_665
Mg11 Mg13 3.086947 1_565
Mg11 Mg13 3.086960 1_555
Mg11 Mg2 3.101584 1_566
Mg11 Mg4 3.101587 1_556
Mg11 Si0 3.102993 1_665
Mg11 Mg3 3.143233 1_565
Mg11 Mg5 3.143236 1_555
Mg11 Mg7 3.166327 1_555
Mg11 Mg9 3.166327 1_555
Mg12 Mg8 3.086947 1_655
Mg12 Mg6 3.086954 1_655
Mg12 Mg6 3.086954 1_545
Mg12 Mg8 3.086960 1_555
Mg12 Mg2 3.091625 1_555
Mg12 Mg4 3.091628 1_555
Mg12 Mg3 3.118978 1_555
Mg12 Mg5 3.118981 1_555
Mg13 Mg9 3.086947 1_655
Mg13 Mg7 3.086954 1_655
Mg13 Mg7 3.086954 1_545
Mg13 Mg9 3.086960 1_555
Mg13 Mg2 3.091625 1_556
Mg13 Mg4 3.091628 1_556
Mg13 Mg3 3.118978 1_555
Mg13 Mg5 3.118981 1_555
Cu0 Mg6 3.060129 1_545
Cu0 Mg7 3.060129 1_544
Cu0 Mg8 3.060132 1_555
Cu0 Mg10 3.060132 1_445
Cu0 Mg9 3.060132 1_554
Cu0 Mg11 3.060132 1_444
Cu0 Mg2 3.086598 1_455
Cu0 Mg0 3.086598 1_455
Cu0 Mg2 3.086598 1_555
Cu0 Mg0 3.086598 1_445
Cu0 Mg4 3.086599 1_555
Cu0 Mg4 3.086599 1_445
