# generated using pymatgen
data_Ca19Co2(PO4)14
_symmetry_space_group_name_H-M   'P 1'
_cell_length_a   13.86941225
_cell_length_b   13.86941225
_cell_length_c   13.86941223
_cell_angle_alpha   44.26968789
_cell_angle_beta   44.26968789
_cell_angle_gamma   44.26968517
_symmetry_Int_Tables_number   1
_chemical_formula_structural   Ca19Co2(PO4)14
_chemical_formula_sum   'Ca19 Co2 P14 O56'
_cell_volume   1181.38202645
_cell_formula_units_Z   1
loop_
 _symmetry_equiv_pos_site_id
 _symmetry_equiv_pos_as_xyz
  1  'x, y, z'
loop_
 _atom_site_type_symbol
 _atom_site_label
 _atom_site_symmetry_multiplicity
 _atom_site_fract_x
 _atom_site_fract_y
 _atom_site_fract_z
 _atom_site_occupancy
  Ca  Ca0  1  0.95674200  0.98338700  0.54804600  1
  Ca  Ca1  1  0.54804600  0.95674200  0.98338700  1
  Ca  Ca2  1  0.98338700  0.54804600  0.95674200  1
  Ca  Ca3  1  0.06826100  0.46509800  0.44559000  1
  Ca  Ca4  1  0.44559000  0.06826100  0.46509800  1
  Ca  Ca5  1  0.46509800  0.44559000  0.06826100  1
  Ca  Ca6  1  0.34609000  0.94551500  0.91235900  1
  Ca  Ca7  1  0.91235900  0.34609000  0.94551500  1
  Ca  Ca8  1  0.94551500  0.91235900  0.34609000  1
  Ca  Ca9  1  0.40617200  0.43492100  0.85438800  1
  Ca  Ca10  1  0.85438800  0.40617200  0.43492100  1
  Ca  Ca11  1  0.43492100  0.85438800  0.40617200  1
  Ca  Ca12  1  0.66171600  0.06582000  0.07739800  1
  Ca  Ca13  1  0.07739800  0.66171600  0.06582000  1
  Ca  Ca14  1  0.06582000  0.07739800  0.66171600  1
  Ca  Ca15  1  0.57875600  0.56373000  0.16395200  1
  Ca  Ca16  1  0.16395200  0.57875600  0.56373000  1
  Ca  Ca17  1  0.56373000  0.16395200  0.57875600  1
  Ca  Ca18  1  0.69059800  0.69059800  0.69059800  1
  Co  Co0  1  0.50309500  0.50309500  0.50309500  1
  Co  Co1  1  0.00357900  0.00357900  0.00357900  1
  P  P0  1  0.32774400  0.81073500  0.77217000  1
  P  P1  1  0.77217000  0.32774400  0.81073500  1
  P  P2  1  0.81073500  0.77217000  0.32774400  1
  P  P3  1  0.27543100  0.31363100  0.82168200  1
  P  P4  1  0.82168200  0.27543100  0.31363100  1
  P  P5  1  0.31363100  0.82168200  0.27543100  1
  P  P6  1  0.76723200  0.76723200  0.76723200  1
  P  P7  1  0.26742600  0.26742600  0.26742600  1
  P  P8  1  0.18882400  0.72539700  0.68602100  1
  P  P9  1  0.68602100  0.18882400  0.72539700  1
  P  P10  1  0.72539700  0.68602100  0.18882400  1
  P  P11  1  0.18481800  0.22668900  0.68900600  1
  P  P12  1  0.68900600  0.18481800  0.22668900  1
  P  P13  1  0.22668900  0.68900600  0.18481800  1
  O  O0  1  0.42671700  0.84701900  0.75276600  1
  O  O1  1  0.75276600  0.42671700  0.84701900  1
  O  O2  1  0.84701900  0.75276600  0.42671700  1
  O  O3  1  0.26039300  0.36053800  0.90538100  1
  O  O4  1  0.90538100  0.26039300  0.36053800  1
  O  O5  1  0.36053800  0.90538100  0.26039300  1
  O  O6  1  0.15308200  0.88010900  0.87216700  1
  O  O7  1  0.87216700  0.15308200  0.88010900  1
  O  O8  1  0.88010900  0.87216700  0.15308200  1
  O  O9  1  0.37297700  0.38150300  0.64434200  1
  O  O10  1  0.64434200  0.37297700  0.38150300  1
  O  O11  1  0.38150300  0.64434200  0.37297700  1
  O  O12  1  0.13236900  0.67089200  0.85604000  1
  O  O13  1  0.85604000  0.13236900  0.67089200  1
  O  O14  1  0.67089200  0.85604000  0.13236900  1
  O  O15  1  0.35506300  0.17177500  0.63094400  1
  O  O16  1  0.63094400  0.35506300  0.17177500  1
  O  O17  1  0.17177500  0.63094400  0.35506300  1
  O  O18  1  0.36590300  0.63778000  0.61767900  1
  O  O19  1  0.61767900  0.36590300  0.63778000  1
  O  O20  1  0.63778000  0.61767900  0.36590300  1
  O  O21  1  0.11798400  0.13905100  0.86626300  1
  O  O22  1  0.86626300  0.11798400  0.13905100  1
  O  O23  1  0.13905100  0.86626300  0.11798400  1
  O  O24  1  0.80787800  0.80787800  0.80787800  1
  O  O25  1  0.30932300  0.30932300  0.30932300  1
  O  O26  1  0.75124600  0.61257400  0.88962700  1
  O  O27  1  0.88962700  0.75124600  0.61257400  1
  O  O28  1  0.61257400  0.88962700  0.75124600  1
  O  O29  1  0.39691000  0.11241500  0.25732500  1
  O  O30  1  0.25732500  0.39691000  0.11241500  1
  O  O31  1  0.11241500  0.25732500  0.39691000  1
  O  O32  1  0.14934400  0.89813300  0.59211400  1
  O  O33  1  0.59211400  0.14934400  0.89813300  1
  O  O34  1  0.89813300  0.59211400  0.14934400  1
  O  O35  1  0.08932700  0.39962800  0.64763900  1
  O  O36  1  0.64763900  0.08932700  0.39962800  1
  O  O37  1  0.39962800  0.64763900  0.08932700  1
  O  O38  1  0.33919200  0.89472700  0.61045600  1
  O  O39  1  0.61045600  0.33919200  0.89472700  1
  O  O40  1  0.89472700  0.61045600  0.33919200  1
  O  O41  1  0.11181400  0.39261600  0.83803200  1
  O  O42  1  0.83803200  0.11181400  0.39261600  1
  O  O43  1  0.39261600  0.83803200  0.11181400  1
  O  O44  1  0.38441400  0.63704400  0.84715900  1
  O  O45  1  0.84715900  0.38441400  0.63704400  1
  O  O46  1  0.63704400  0.84715900  0.38441400  1
  O  O47  1  0.35185400  0.13949800  0.87609300  1
  O  O48  1  0.87609300  0.35185400  0.13949800  1
  O  O49  1  0.13949800  0.87609300  0.35185400  1
  O  O50  1  0.11228200  0.69248500  0.67498700  1
  O  O51  1  0.67498700  0.11228200  0.69248500  1
  O  O52  1  0.69248500  0.67498700  0.11228200  1
  O  O53  1  0.17359100  0.19046500  0.61525500  1
  O  O54  1  0.61525500  0.17359100  0.19046500  1
  O  O55  1  0.19046500  0.61525500  0.17359100  1
loop_
_geom_bond_atom_site_label_1
_geom_bond_atom_site_label_2
_geom_bond_distance
_geom_bond_site_symmetry_2
Ca0 O32 2.384772 1_655
Ca0 O42 2.431998 1_565
Ca0 O51 2.528362 1_565
Ca0 O4 2.540819 1_565
Ca0 O49 2.561843 1_655
Ca0 O13 2.573729 1_565
Ca0 O50 2.614056 1_655
Ca0 O24 2.674699 1_555
Ca1 O33 2.384772 1_565
Ca1 O43 2.431998 1_556
Ca1 O52 2.528362 1_556
Ca1 O5 2.540819 1_556
Ca1 O47 2.561843 1_565
Ca1 O14 2.573729 1_556
Ca1 O51 2.614056 1_565
Ca1 O24 2.674699 1_555
Ca2 O34 2.384772 1_556
Ca2 O41 2.431998 1_655
Ca2 O50 2.528362 1_655
Ca2 O3 2.540819 1_655
Ca2 O48 2.561843 1_556
Ca2 O12 2.573729 1_655
Ca2 O52 2.614056 1_556
Ca2 O24 2.674699 1_555
Ca3 O25 2.423112 1_555
Ca3 O35 2.431305 1_555
Ca3 O40 2.431390 1_455
Ca3 O55 2.467394 1_555
Ca3 O53 2.509530 1_555
Ca3 O45 2.589289 1_455
Ca3 O17 2.634443 1_555
Ca3 O2 2.743033 1_455
Ca3 O31 2.966805 1_555
Ca4 O25 2.423112 1_555
Ca4 O36 2.431305 1_555
Ca4 O38 2.431390 1_545
Ca4 O53 2.467394 1_555
Ca4 O54 2.509530 1_555
Ca4 O46 2.589289 1_545
Ca4 O15 2.634443 1_555
Ca4 O0 2.743033 1_545
Ca4 O29 2.966805 1_555
Ca5 O25 2.423112 1_555
Ca5 O37 2.431305 1_555
Ca5 O39 2.431390 1_554
Ca5 O54 2.467394 1_555
Ca5 O55 2.509530 1_555
Ca5 O44 2.589289 1_554
Ca5 O16 2.634443 1_555
Ca5 O1 2.743033 1_554
Ca5 O30 2.966805 1_555
Ca6 O43 2.358854 1_556
Ca6 O28 2.409208 1_555
Ca6 O47 2.410438 1_565
Ca6 O23 2.426917 1_556
Ca6 O21 2.429006 1_565
Ca6 O0 2.571759 1_555
Ca6 O37 2.708976 1_556
Ca6 O15 2.723924 1_565
Ca7 O41 2.358854 1_655
Ca7 O26 2.409208 1_555
Ca7 O48 2.410438 1_556
Ca7 O21 2.426917 1_655
Ca7 O22 2.429006 1_556
Ca7 O1 2.571759 1_555
Ca7 O35 2.708976 1_655
Ca7 O16 2.723924 1_556
Ca8 O42 2.358854 1_565
Ca8 O27 2.409208 1_555
Ca8 O49 2.410438 1_655
Ca8 O22 2.426917 1_565
Ca8 O23 2.429006 1_655
Ca8 O2 2.571759 1_555
Ca8 O36 2.708976 1_565
Ca8 O17 2.723924 1_655
Ca9 O3 2.355179 1_555
Ca9 O30 2.371300 1_556
Ca9 O39 2.433598 1_555
Ca9 O19 2.454158 1_555
Ca9 O18 2.480575 1_555
Ca9 O44 2.527656 1_555
Ca9 O33 2.622508 1_555
Ca9 O12 2.704880 1_555
Ca10 O4 2.355179 1_555
Ca10 O31 2.371299 1_655
Ca10 O40 2.433598 1_555
Ca10 O20 2.454158 1_555
Ca10 O19 2.480575 1_555
Ca10 O45 2.527656 1_555
Ca10 O34 2.622509 1_555
Ca10 O13 2.704880 1_555
Ca11 O5 2.355179 1_555
Ca11 O29 2.371300 1_565
Ca11 O38 2.433598 1_555
Ca11 O18 2.454158 1_555
Ca11 O20 2.480575 1_555
Ca11 O46 2.527656 1_555
Ca11 O32 2.622509 1_555
Ca11 O14 2.704880 1_555
Ca12 O14 2.344066 1_545
Ca12 O54 2.374635 1_555
Ca12 O29 2.432825 1_555
Ca12 O33 2.483240 1_554
Ca12 O39 2.502417 1_554
Ca12 O7 2.519915 1_554
Ca12 O8 2.520975 1_545
Ca12 O46 2.889911 1_545
Ca13 O12 2.344066 1_554
Ca13 O55 2.374635 1_555
Ca13 O30 2.432825 1_555
Ca13 O34 2.483240 1_455
Ca13 O40 2.502417 1_455
Ca13 O8 2.519915 1_455
Ca13 O6 2.520975 1_554
Ca13 O44 2.889911 1_554
Ca14 O13 2.344066 1_455
Ca14 O53 2.374636 1_555
Ca14 O31 2.432825 1_555
Ca14 O32 2.483240 1_545
Ca14 O38 2.502417 1_545
Ca14 O6 2.519915 1_545
Ca14 O7 2.520975 1_455
Ca14 O45 2.889911 1_455
Ca15 O16 2.360975 1_555
Ca15 O52 2.380316 1_555
Ca15 O10 2.446004 1_555
Ca15 O11 2.458053 1_555
Ca15 O26 2.500482 1_554
Ca15 O43 2.515796 1_555
Ca15 O37 2.532725 1_555
Ca15 O48 2.797498 1_555
Ca16 O17 2.360975 1_555
Ca16 O50 2.380316 1_555
Ca16 O11 2.446004 1_555
Ca16 O9 2.458053 1_555
Ca16 O27 2.500482 1_455
Ca16 O41 2.515796 1_555
Ca16 O35 2.532725 1_555
Ca16 O49 2.797499 1_555
Ca17 O15 2.360975 1_555
Ca17 O51 2.380316 1_555
Ca17 O9 2.446004 1_555
Ca17 O10 2.458053 1_555
Ca17 O28 2.500482 1_545
Ca17 O42 2.515796 1_555
Ca17 O36 2.532725 1_555
Ca17 O47 2.797499 1_555
Ca18 O0 2.373455 1_555
Ca18 O1 2.373455 1_555
Ca18 O2 2.373455 1_555
Ca18 O28 2.691127 1_555
Ca18 O26 2.691127 1_555
Ca18 O27 2.691127 1_555
Co0 O18 2.113319 1_555
Co0 O19 2.113319 1_555
Co0 O20 2.113319 1_555
Co0 O10 2.121947 1_555
Co0 O11 2.121947 1_555
Co0 O9 2.121947 1_555
Co1 O23 2.119511 1_545
Co1 O22 2.119511 1_455
Co1 O21 2.119511 1_554
Co1 O7 2.127495 1_454
Co1 O6 2.127495 1_544
Co1 O8 2.127496 1_445
O0 P0 1.573613 1_555
O1 P1 1.573613 1_555
O2 P2 1.573613 1_555
O3 P3 1.534548 1_555
O4 P4 1.534548 1_555
O5 P5 1.534548 1_555
O6 P0 1.574518 1_555
O7 P1 1.574518 1_555
O8 P2 1.574518 1_555
O9 P3 1.583860 1_555
O10 P4 1.583860 1_555
O11 P5 1.583860 1_555
O12 P8 1.547774 1_555
O13 P9 1.547774 1_555
O14 P10 1.547774 1_555
O15 P11 1.543897 1_555
O16 P12 1.543897 1_555
O17 P13 1.543897 1_555
O18 P8 1.564770 1_555
O19 P9 1.564770 1_555
O20 P10 1.564770 1_555
O21 P11 1.565594 1_555
O22 P12 1.565594 1_555
O23 P13 1.565594 1_555
O24 P6 1.522753 1_555
O25 P7 1.569620 1_555
O26 P6 1.568201 1_555
O27 P6 1.568201 1_555
O28 P6 1.568201 1_555
O29 P7 1.551950 1_555
O30 P7 1.551950 1_555
O31 P7 1.551950 1_555
O32 P8 1.552337 1_555
O33 P9 1.552337 1_555
O34 P10 1.552337 1_555
O35 P11 1.550595 1_555
O36 P12 1.550595 1_555
O37 P13 1.550595 1_555
O38 P0 1.557504 1_555
O39 P1 1.557504 1_555
O40 P2 1.557504 1_555
O41 P3 1.568350 1_555
O42 P4 1.568350 1_555
O43 P5 1.568350 1_555
O44 P0 1.540666 1_555
O45 P1 1.540667 1_555
O46 P2 1.540666 1_555
O47 P3 1.547610 1_555
O48 P4 1.547610 1_555
O49 P5 1.547610 1_555
O50 P8 1.544492 1_555
O51 P9 1.544492 1_555
O52 P10 1.544492 1_555
O53 P11 1.548889 1_555
O54 P12 1.548889 1_555
O55 P13 1.548889 1_555
