# generated using pymatgen
data_CaMo2O5
_symmetry_space_group_name_H-M   'P 1'
_cell_length_a   5.21457400
_cell_length_b   3.58466900
_cell_length_c   13.51778951
_cell_angle_alpha   74.90831963
_cell_angle_beta   90.00000000
_cell_angle_gamma   90.00000000
_symmetry_Int_Tables_number   1
_chemical_formula_structural   CaMo2O5
_chemical_formula_sum   'Ca2 Mo4 O10'
_cell_volume   243.96670023
_cell_formula_units_Z   2
loop_
 _symmetry_equiv_pos_site_id
 _symmetry_equiv_pos_as_xyz
  1  'x, y, z'
loop_
 _atom_site_type_symbol
 _atom_site_label
 _atom_site_symmetry_multiplicity
 _atom_site_fract_x
 _atom_site_fract_y
 _atom_site_fract_z
 _atom_site_occupancy
  Ca  Ca0  1  0.94922500  0.00000000  0.75000000  1
  Ca  Ca1  1  0.05077500  0.00000000  0.25000000  1
  Mo  Mo0  1  0.47092300  0.64795000  0.60564800  1
  Mo  Mo1  1  0.52907700  0.35205000  0.39435200  1
  Mo  Mo2  1  0.52907700  0.64795000  0.10564800  1
  Mo  Mo3  1  0.47092300  0.35205000  0.89435200  1
  O  O0  1  0.36812000  0.50000000  0.25000000  1
  O  O1  1  0.63188000  0.50000000  0.75000000  1
  O  O2  1  0.61642600  0.18543000  0.56634800  1
  O  O3  1  0.38357400  0.81457000  0.43365200  1
  O  O4  1  0.61642600  0.81457000  0.93365200  1
  O  O5  1  0.38357400  0.18543000  0.06634800  1
  O  O6  1  0.12754200  0.37632500  0.85946100  1
  O  O7  1  0.87245800  0.62367500  0.14053900  1
  O  O8  1  0.87245800  0.37632500  0.35946100  1
  O  O9  1  0.12754200  0.62367500  0.64053900  1
loop_
_geom_bond_atom_site_label_1
_geom_bond_atom_site_label_2
_geom_bond_distance
_geom_bond_site_symmetry_2
Ca0 O6 2.431719 1_655
Ca0 O9 2.431719 1_645
Ca0 O1 2.439444 1_555
Ca0 O1 2.439444 1_545
Ca0 O6 2.515881 1_645
Ca0 O9 2.515881 1_655
Ca0 O4 2.959277 1_545
Ca0 O2 2.959277 1_555
Ca1 O8 2.431719 1_455
Ca1 O7 2.431719 1_445
Ca1 O0 2.439444 1_555
Ca1 O0 2.439444 1_545
Ca1 O7 2.515881 1_455
Ca1 O8 2.515881 1_445
Ca1 O3 2.959277 1_545
Ca1 O5 2.959277 1_555
Mo0 O9 1.847931 1_555
Mo0 O2 2.009239 1_565
Mo0 O2 2.016300 1_555
Mo0 O1 2.062641 1_555
Mo0 O3 2.290576 1_555
Mo1 O8 1.847931 1_555
Mo1 O3 2.009239 1_545
Mo1 O3 2.016300 1_555
Mo1 O0 2.062641 1_555
Mo1 O2 2.290576 1_555
Mo2 O7 1.847931 1_555
Mo2 O5 2.009239 1_565
Mo2 O5 2.016300 1_555
Mo2 O0 2.062641 1_555
Mo2 O4 2.290576 1_554
Mo3 O6 1.847931 1_555
Mo3 O4 2.009239 1_545
Mo3 O4 2.016300 1_555
Mo3 O1 2.062641 1_555
Mo3 O5 2.290576 1_556
