# generated using pymatgen
data_AlOF3
_symmetry_space_group_name_H-M   'P 1'
_cell_length_a   3.96535500
_cell_length_b   3.96535500
_cell_length_c   3.55582300
_cell_angle_alpha   90.00000000
_cell_angle_beta   90.00000000
_cell_angle_gamma   90.00000000
_symmetry_Int_Tables_number   1
_chemical_formula_structural   AlOF3
_chemical_formula_sum   'Al1 O1 F3'
_cell_volume   55.91190407
_cell_formula_units_Z   1
loop_
 _symmetry_equiv_pos_site_id
 _symmetry_equiv_pos_as_xyz
  1  'x, y, z'
loop_
 _atom_site_type_symbol
 _atom_site_label
 _atom_site_symmetry_multiplicity
 _atom_site_fract_x
 _atom_site_fract_y
 _atom_site_fract_z
 _atom_site_occupancy
  Al  Al0  1  0.00000000  0.00000000  0.00000000  1
  O  O0  1  0.50000000  0.50000000  0.00000000  1
  F  F0  1  0.00000000  0.00000000  0.50000000  1
  F  F1  1  0.50000000  0.00000000  0.00000000  1
  F  F2  1  0.00000000  0.50000000  0.00000000  1
loop_
_geom_bond_atom_site_label_1
_geom_bond_atom_site_label_2
_geom_bond_distance
_geom_bond_site_symmetry_2
Al0 F0 1.777912 1_554
Al0 F0 1.777912 1_555
Al0 F2 1.982678 1_545
Al0 F1 1.982678 1_455
Al0 F1 1.982678 1_555
Al0 F2 1.982678 1_555
F1 O0 1.982678 1_545
F1 O0 1.982678 1_555
F2 O0 1.982678 1_555
F2 O0 1.982678 1_455
