# generated using pymatgen
data_BaMo2C4O17
_symmetry_space_group_name_H-M   'P 1'
_cell_length_a   10.94524456
_cell_length_b   10.94524456
_cell_length_c   12.01182100
_cell_angle_alpha   90.00000000
_cell_angle_beta   90.00000000
_cell_angle_gamma   120.00000338
_symmetry_Int_Tables_number   1
_chemical_formula_structural   BaMo2C4O17
_chemical_formula_sum   'Ba3 Mo6 C12 O51'
_cell_volume   1246.20763676
_cell_formula_units_Z   3
loop_
 _symmetry_equiv_pos_site_id
 _symmetry_equiv_pos_as_xyz
  1  'x, y, z'
loop_
 _atom_site_type_symbol
 _atom_site_label
 _atom_site_symmetry_multiplicity
 _atom_site_fract_x
 _atom_site_fract_y
 _atom_site_fract_z
 _atom_site_occupancy
  Ba  Ba0  1  0.19591900  0.53218500  0.66317200  1
  Ba  Ba1  1  0.46781500  0.66373400  0.99650500  1
  Ba  Ba2  1  0.33626600  0.80408100  0.32983900  1
  Mo  Mo0  1  0.92647700  0.76861600  0.39997000  1
  Mo  Mo1  1  0.23138400  0.15786100  0.73330400  1
  Mo  Mo2  1  0.84213900  0.07352300  0.06663700  1
  Mo  Mo3  1  0.74611000  0.18254200  0.26560200  1
  Mo  Mo4  1  0.81745800  0.56356800  0.59893500  1
  Mo  Mo5  1  0.43643200  0.25389000  0.93226900  1
  C  C0  1  0.56773700  0.65801200  0.66611300  1
  C  C1  1  0.34198800  0.90972500  0.99944700  1
  C  C2  1  0.09027500  0.43226300  0.33278000  1
  C  C3  1  0.09735700  0.42221200  0.00184100  1
  C  C4  1  0.57778800  0.67514500  0.33517400  1
  C  C5  1  0.32485500  0.90264300  0.66850700  1
  C  C6  1  0.75651400  0.60591500  0.16041800  1
  C  C7  1  0.39408500  0.15059900  0.49375100  1
  C  C8  1  0.84940100  0.24348600  0.82708500  1
  C  C9  1  0.91114600  0.18247600  0.50814000  1
  C  C10  1  0.81752400  0.72867000  0.84147300  1
  C  C11  1  0.27133000  0.08885400  0.17480700  1
  O  O0  1  0.66226300  0.62532500  0.65894000  1
  O  O1  1  0.37467500  0.03693800  0.99227400  1
  O  O2  1  0.96306200  0.33773700  0.32560700  1
  O  O3  1  0.00547300  0.29445200  0.00512500  1
  O  O4  1  0.70554800  0.71102100  0.33845800  1
  O  O5  1  0.28897900  0.99452700  0.67179200  1
  O  O6  1  0.98487600  0.58352500  0.62590700  1
  O  O7  1  0.41647500  0.40135100  0.95924100  1
  O  O8  1  0.59864900  0.01512400  0.29257400  1
  O  O9  1  0.67385100  0.92466100  0.04434800  1
  O  O10  1  0.07533900  0.74919000  0.37768100  1
  O  O11  1  0.25081000  0.32614900  0.71101400  1
  O  O12  1  0.70467300  0.39586500  0.64934700  1
  O  O13  1  0.60413500  0.30880800  0.98268000  1
  O  O14  1  0.69119200  0.29532700  0.31601400  1
  O  O15  1  0.95375400  0.02138300  0.00901100  1
  O  O16  1  0.97861700  0.93237100  0.34234400  1
  O  O17  1  0.06762900  0.04624600  0.67567800  1
  O  O18  1  0.79341400  0.54522500  0.45025300  1
  O  O19  1  0.45477500  0.24818900  0.78358700  1
  O  O20  1  0.75181100  0.20658600  0.11692000  1
  O  O21  1  0.87317800  0.08200900  0.21407200  1
  O  O22  1  0.91799100  0.79116900  0.54740600  1
  O  O23  1  0.20883100  0.12682200  0.88073900  1
  O  O24  1  0.89506400  0.70170100  0.79404600  1
  O  O25  1  0.29829900  0.19336300  0.12738000  1
  O  O26  1  0.80663700  0.10493600  0.46071300  1
  O  O27  1  0.77108000  0.13964600  0.87502600  1
  O  O28  1  0.86035400  0.63143400  0.20836000  1
  O  O29  1  0.36856600  0.22892000  0.54169300  1
  O  O30  1  0.92507300  0.34495700  0.77620100  1
  O  O31  1  0.65504300  0.58011600  0.10953400  1
  O  O32  1  0.41988400  0.07492700  0.44286700  1
  O  O33  1  0.74151400  0.75510600  0.89114500  1
  O  O34  1  0.24489400  0.98640900  0.22447900  1
  O  O35  1  0.01359100  0.25848600  0.55781200  1
  O  O36  1  0.48027100  0.63310200  0.74144100  1
  O  O37  1  0.36689800  0.84716900  0.07477500  1
  O  O38  1  0.15283100  0.51972900  0.40810800  1
  O  O39  1  0.18882300  0.49043300  0.93039600  1
  O  O40  1  0.50956700  0.69839000  0.26372900  1
  O  O41  1  0.30161000  0.81117700  0.59706300  1
  O  O42  1  0.25271600  0.82098900  0.90768800  1
  O  O43  1  0.17901100  0.43172700  0.24102200  1
  O  O44  1  0.56827300  0.74728400  0.57435500  1
  O  O45  1  0.41770800  0.91217200  0.76202600  1
  O  O46  1  0.08782800  0.50553600  0.09535900  1
  O  O47  1  0.49446400  0.58229200  0.42869200  1
  O  O48  1  0.44982400  0.65966400  0.49976200  1
  O  O49  1  0.34033600  0.79016000  0.83309500  1
  O  O50  1  0.20984000  0.55017600  0.16642900  1
loop_
_geom_bond_atom_site_label_1
_geom_bond_atom_site_label_2
_geom_bond_distance
_geom_bond_site_symmetry_2
Ba0 O11 2.670506 1_555
Ba0 O6 2.673921 1_455
Ba0 O41 2.785857 1_555
Ba0 O36 2.890093 1_555
Ba0 O35 2.929182 1_555
Ba0 O30 2.959037 1_455
Ba0 O38 3.092486 1_555
Ba0 O48 3.105667 1_555
Ba0 O49 3.189684 1_555
Ba0 O39 3.237668 1_555
Ba1 O9 2.670509 1_556
Ba1 O7 2.673919 1_555
Ba1 O39 2.785857 1_555
Ba1 O37 2.890097 1_556
Ba1 O33 2.929180 1_555
Ba1 O31 2.959038 1_556
Ba1 O36 3.092486 1_555
Ba1 O49 3.105667 1_555
Ba1 O50 3.189691 1_556
Ba1 O40 3.237668 1_556
Ba2 O10 2.670506 1_555
Ba2 O8 2.673921 1_565
Ba2 O40 2.785860 1_555
Ba2 O38 2.890093 1_555
Ba2 O34 2.929190 1_555
Ba2 O32 2.959032 1_565
Ba2 O37 3.092486 1_555
Ba2 O50 3.105667 1_555
Ba2 O48 3.189684 1_555
Ba2 O41 3.237668 1_555
Mo0 O16 1.730442 1_555
Mo0 O10 1.765797 1_655
Mo0 O22 1.796897 1_555
Mo0 O18 2.214333 1_555
Mo0 O4 2.294836 1_555
Mo0 O28 2.643649 1_555
Mo1 O17 1.730442 1_555
Mo1 O11 1.765799 1_555
Mo1 O23 1.796886 1_555
Mo1 O19 2.214333 1_555
Mo1 O5 2.294836 1_545
Mo1 O29 2.643659 1_555
Mo2 O15 1.730442 1_555
Mo2 O9 1.765797 1_545
Mo2 O21 1.796886 1_555
Mo2 O20 2.214334 1_555
Mo2 O3 2.294836 1_655
Mo2 O27 2.643659 1_554
Mo3 O14 1.730289 1_555
Mo3 O8 1.763580 1_555
Mo3 O20 1.801754 1_555
Mo3 O2 2.238304 1_555
Mo3 O21 2.249128 1_555
Mo3 O26 2.686216 1_555
Mo4 O12 1.730289 1_555
Mo4 O6 1.763580 1_555
Mo4 O18 1.801754 1_555
Mo4 O0 2.238304 1_555
Mo4 O22 2.249125 1_555
Mo4 O24 2.686216 1_555
Mo5 O13 1.730285 1_555
Mo5 O7 1.763580 1_555
Mo5 O19 1.801754 1_555
Mo5 O1 2.238304 1_555
Mo5 O23 2.249128 1_555
Mo5 O25 2.686216 1_556
C0 O36 1.244398 1_555
C0 O0 1.255384 1_555
C0 O44 1.470998 1_555
C1 O37 1.244398 1_556
C1 O1 1.255384 1_565
C1 O42 1.471007 1_555
C2 O38 1.244398 1_555
C2 O2 1.255384 1_455
C2 O43 1.470998 1_555
C3 O39 1.244484 1_554
C3 O3 1.249829 1_555
C3 O46 1.483103 1_555
C4 O40 1.244484 1_555
C4 O4 1.249829 1_555
C4 O47 1.483103 1_555
C5 O41 1.244476 1_555
C5 O5 1.249829 1_555
C5 O45 1.483112 1_555
C6 O31 1.171831 1_555
C6 O28 1.176412 1_555
C7 O32 1.171831 1_555
C7 O29 1.176412 1_555
C8 O30 1.171831 1_555
C8 O27 1.176406 1_555
C9 O35 1.171563 1_655
C9 O26 1.175787 1_555
C10 O33 1.171570 1_555
C10 O24 1.175787 1_555
C11 O34 1.171561 1_545
C11 O25 1.175787 1_555
O42 O49 1.469694 1_555
O43 O50 1.469694 1_555
O44 O48 1.469694 1_555
O45 O49 1.448589 1_555
O46 O50 1.448596 1_555
O47 O48 1.448596 1_555
