# generated using pymatgen
data_Nd2Cr2O5
_symmetry_space_group_name_H-M   'P 1'
_cell_length_a   3.93836400
_cell_length_b   3.93836400
_cell_length_c   7.27476200
_cell_angle_alpha   90.00000000
_cell_angle_beta   90.00000000
_cell_angle_gamma   90.00000000
_symmetry_Int_Tables_number   1
_chemical_formula_structural   Nd2Cr2O5
_chemical_formula_sum   'Nd2 Cr2 O5'
_cell_volume   112.83673095
_cell_formula_units_Z   1
loop_
 _symmetry_equiv_pos_site_id
 _symmetry_equiv_pos_as_xyz
  1  'x, y, z'
loop_
 _atom_site_type_symbol
 _atom_site_label
 _atom_site_symmetry_multiplicity
 _atom_site_fract_x
 _atom_site_fract_y
 _atom_site_fract_z
 _atom_site_occupancy
  Nd  Nd0  1  0.00000000  0.00000000  0.00000000  1
  Nd  Nd1  1  0.00000000  0.00000000  0.50000000  1
  Cr  Cr0  1  0.50000000  0.50000000  0.22318400  1
  Cr  Cr1  1  0.50000000  0.50000000  0.77681600  1
  O  O0  1  0.50000000  0.00000000  0.23367600  1
  O  O1  1  0.50000000  0.00000000  0.76632400  1
  O  O2  1  0.00000000  0.50000000  0.23367600  1
  O  O3  1  0.00000000  0.50000000  0.76632400  1
  O  O4  1  0.50000000  0.50000000  0.50000000  1
loop_
_geom_bond_atom_site_label_1
_geom_bond_atom_site_label_2
_geom_bond_distance
_geom_bond_site_symmetry_2
Nd0 O3 2.601435 1_544
Nd0 O0 2.601435 1_455
Nd0 O1 2.601435 1_554
Nd0 O1 2.601435 1_454
Nd0 O0 2.601435 1_555
Nd0 O3 2.601435 1_554
Nd0 O2 2.601435 1_545
Nd0 O2 2.601435 1_555
Nd1 O3 2.762493 1_545
Nd1 O1 2.762493 1_555
Nd1 O0 2.762493 1_455
Nd1 O3 2.762493 1_555
Nd1 O0 2.762493 1_555
Nd1 O2 2.762493 1_545
Nd1 O2 2.762493 1_555
Nd1 O1 2.762493 1_455
Nd1 O4 2.784844 1_455
Nd1 O4 2.784844 1_555
Nd1 O4 2.784844 1_445
Nd1 O4 2.784844 1_545
Cr0 O0 1.970661 1_565
Cr0 O2 1.970661 1_655
Cr0 O0 1.970661 1_555
Cr0 O2 1.970661 1_555
Cr0 O4 2.013771 1_555
Cr1 O1 1.970661 1_565
Cr1 O3 1.970661 1_555
Cr1 O1 1.970661 1_555
Cr1 O3 1.970661 1_655
Cr1 O4 2.013771 1_555
