# generated using pymatgen
data_Tm2I2F
_symmetry_space_group_name_H-M   'P 1'
_cell_length_a   4.03461500
_cell_length_b   4.03461500
_cell_length_c   13.93597000
_cell_angle_alpha   90.00000000
_cell_angle_beta   90.00000000
_cell_angle_gamma   90.00000000
_symmetry_Int_Tables_number   1
_chemical_formula_structural   Tm2I2F
_chemical_formula_sum   'Tm2 I2 F1'
_cell_volume   226.85136687
_cell_formula_units_Z   1
loop_
 _symmetry_equiv_pos_site_id
 _symmetry_equiv_pos_as_xyz
  1  'x, y, z'
loop_
 _atom_site_type_symbol
 _atom_site_label
 _atom_site_symmetry_multiplicity
 _atom_site_fract_x
 _atom_site_fract_y
 _atom_site_fract_z
 _atom_site_occupancy
  Tm  Tm0  1  0.50000000  0.50000000  0.15392100  1
  Tm  Tm1  1  0.50000000  0.50000000  0.84607900  1
  I  I0  1  0.50000000  0.50000000  0.64942100  1
  I  I1  1  0.50000000  0.50000000  0.35057900  1
  F  F0  1  0.50000000  0.50000000  0.00000000  1
loop_
_geom_bond_atom_site_label_1
_geom_bond_atom_site_label_2
_geom_bond_distance
_geom_bond_site_symmetry_2
I0 Tm1 2.740620 1_555
I1 Tm0 2.740620 1_555
F0 Tm1 2.145038 1_554
F0 Tm0 2.145038 1_555
