# generated using pymatgen
data_CrN4Cl(O2F)2
_symmetry_space_group_name_H-M   'P 1'
_cell_length_a   10.19036291
_cell_length_b   10.19036291
_cell_length_c   10.19036291
_cell_angle_alpha   136.90961244
_cell_angle_beta   136.90961244
_cell_angle_gamma   62.57715123
_symmetry_Int_Tables_number   1
_chemical_formula_structural   CrN4Cl(O2F)2
_chemical_formula_sum   'Cr2 N8 Cl2 O8 F4'
_cell_volume   487.82142911
_cell_formula_units_Z   2
loop_
 _symmetry_equiv_pos_site_id
 _symmetry_equiv_pos_as_xyz
  1  'x, y, z'
loop_
 _atom_site_type_symbol
 _atom_site_label
 _atom_site_symmetry_multiplicity
 _atom_site_fract_x
 _atom_site_fract_y
 _atom_site_fract_z
 _atom_site_occupancy
  Cr  Cr0  1  0.95978500  0.45978500  0.50000000  1
  Cr  Cr1  1  0.20978500  0.20978500  0.00000000  1
  N  N0  1  0.19917700  0.94537300  0.74619500  1
  N  N1  1  0.19917700  0.45298200  0.25380500  1
  N  N2  1  0.20298200  0.44917700  0.75380500  1
  N  N3  1  0.69537300  0.44917700  0.24619500  1
  N  N4  1  0.86593000  0.54175200  0.67582200  1
  N  N5  1  0.86593000  0.19010700  0.32417800  1
  N  N6  1  0.94010700  0.11593000  0.82417800  1
  N  N7  1  0.29175200  0.11593000  0.17582200  1
  Cl  Cl0  1  0.42008000  0.92008000  0.50000000  1
  Cl  Cl1  1  0.67008000  0.67008000  0.00000000  1
  O  O0  1  0.47589600  0.12671200  0.65081600  1
  O  O1  1  0.47589600  0.82508000  0.34918400  1
  O  O2  1  0.57508000  0.72589600  0.84918400  1
  O  O3  1  0.87671200  0.72589600  0.15081600  1
  O  O4  1  0.62472800  0.46550800  0.84078000  1
  O  O5  1  0.62472800  0.78394800  0.15922000  1
  O  O6  1  0.53394800  0.87472800  0.65922000  1
  O  O7  1  0.21550800  0.87472800  0.34078000  1
  F  F0  1  0.02218600  0.71209000  0.68990400  1
  F  F1  1  0.02218600  0.33228200  0.31009600  1
  F  F2  1  0.08228200  0.27218600  0.81009600  1
  F  F3  1  0.46209000  0.27218600  0.18990400  1
loop_
_geom_bond_atom_site_label_1
_geom_bond_atom_site_label_2
_geom_bond_distance
_geom_bond_site_symmetry_2
Cr0 F1 1.789237 1_655
Cr0 F0 1.789237 1_655
Cr0 N3 1.908566 1_555
Cr0 N2 1.908571 1_655
Cr0 N4 2.098508 1_555
Cr0 N5 2.098517 1_555
Cr1 F3 1.789237 1_555
Cr1 F2 1.789237 1_554
Cr1 N0 1.908566 1_544
Cr1 N1 1.908571 1_555
Cr1 N7 2.098508 1_555
Cr1 N6 2.098517 1_454
Cl0 O6 1.429692 1_555
Cl0 O7 1.429692 1_555
Cl0 O0 1.489692 1_565
Cl0 O1 1.489692 1_555
Cl1 O5 1.429692 1_555
Cl1 O4 1.429692 1_554
Cl1 O3 1.489692 1_555
Cl1 O2 1.489692 1_554
