# generated using pymatgen
data_K4NaCl5
_symmetry_space_group_name_H-M   'P 1'
_cell_length_a   18.27267550
_cell_length_b   18.27267550
_cell_length_c   18.27267550
_cell_angle_alpha   13.84470190
_cell_angle_beta   13.84470190
_cell_angle_gamma   13.84470313
_symmetry_Int_Tables_number   1
_chemical_formula_structural   K4NaCl5
_chemical_formula_sum   'K4 Na1 Cl5'
_cell_volume   304.01701838
_cell_formula_units_Z   1
loop_
 _symmetry_equiv_pos_site_id
 _symmetry_equiv_pos_as_xyz
  1  'x, y, z'
loop_
 _atom_site_type_symbol
 _atom_site_label
 _atom_site_symmetry_multiplicity
 _atom_site_fract_x
 _atom_site_fract_y
 _atom_site_fract_z
 _atom_site_occupancy
  K  K0  1  0.60352200  0.60352200  0.60352200  1
  K  K1  1  0.20132600  0.20132600  0.20132600  1
  K  K2  1  0.79867400  0.79867400  0.79867400  1
  K  K3  1  0.39647800  0.39647800  0.39647800  1
  Na  Na0  1  0.00000000  0.00000000  0.00000000  1
  Cl  Cl0  1  0.69515600  0.69515600  0.69515600  1
  Cl  Cl1  1  0.50000000  0.50000000  0.50000000  1
  Cl  Cl2  1  0.09759100  0.09759100  0.09759100  1
  Cl  Cl3  1  0.30484400  0.30484400  0.30484400  1
  Cl  Cl4  1  0.90240900  0.90240900  0.90240900  1
loop_
_geom_bond_atom_site_label_1
_geom_bond_atom_site_label_2
_geom_bond_distance
_geom_bond_site_symmetry_2
Cl0 Na0 2.976337 1_665
Cl0 Na0 2.976337 1_566
Cl0 Na0 2.976337 1_656
Cl0 K3 3.163214 1_556
Cl0 K3 3.163214 1_565
Cl0 K3 3.163214 1_655
Cl1 K1 3.163343 1_556
Cl1 K2 3.163343 1_554
Cl1 K1 3.163343 1_565
Cl1 K1 3.163343 1_655
Cl1 K2 3.163343 1_455
Cl1 K2 3.163343 1_545
Cl2 K2 3.155515 1_445
Cl2 K2 3.155515 1_544
Cl2 K2 3.155515 1_454
Cl2 K3 3.156480 1_554
Cl2 K3 3.156480 1_455
Cl2 K3 3.156480 1_545
Cl3 Na0 2.976337 1_556
Cl3 Na0 2.976337 1_565
Cl3 Na0 2.976337 1_655
Cl3 K0 3.163214 1_554
Cl3 K0 3.163214 1_455
Cl3 K0 3.163214 1_545
Cl4 K1 3.155515 1_665
Cl4 K1 3.155515 1_656
Cl4 K1 3.155515 1_566
Cl4 K0 3.156480 1_556
Cl4 K0 3.156480 1_565
Cl4 K0 3.156480 1_655
