# generated using pymatgen
data_Cr2CoSe4
_symmetry_space_group_name_H-M   'P 1'
_cell_length_a   4.94334000
_cell_length_b   5.10000232
_cell_length_c   6.44424862
_cell_angle_alpha   110.88976799
_cell_angle_beta   106.77862390
_cell_angle_gamma   98.91121998
_symmetry_Int_Tables_number   1
_chemical_formula_structural   Cr2CoSe4
_chemical_formula_sum   'Cr2 Co1 Se4'
_cell_volume   139.15680289
_cell_formula_units_Z   1
loop_
 _symmetry_equiv_pos_site_id
 _symmetry_equiv_pos_as_xyz
  1  'x, y, z'
loop_
 _atom_site_type_symbol
 _atom_site_label
 _atom_site_symmetry_multiplicity
 _atom_site_fract_x
 _atom_site_fract_y
 _atom_site_fract_z
 _atom_site_occupancy
  Cr  Cr0  1  0.38755800  0.12375300  0.23573000  1
  Cr  Cr1  1  0.61244200  0.87624700  0.76427000  1
  Co  Co0  1  0.00000000  0.00000000  0.00000000  1
  Se  Se0  1  0.86906600  0.17845500  0.30735300  1
  Se  Se1  1  0.49747800  0.32778000  0.80341000  1
  Se  Se2  1  0.50252200  0.67222000  0.19659000  1
  Se  Se3  1  0.13093400  0.82154500  0.69264700  1
loop_
_geom_bond_atom_site_label_1
_geom_bond_atom_site_label_2
_geom_bond_distance
_geom_bond_site_symmetry_2
Cr0 Se0 2.241573 1_555
Cr0 Se2 2.400741 1_545
Cr0 Se2 2.881707 1_555
Cr0 Se1 3.274671 1_555
Cr1 Se3 2.241573 1_555
Cr1 Se1 2.400741 1_565
Cr1 Se1 2.881707 1_555
Cr1 Se2 3.274671 1_555
Co0 Cr1 1.907299 1_444
Co0 Cr0 1.907299 1_555
Co0 Se0 2.192574 1_455
Co0 Se3 2.192574 1_544
Se0 Se2 2.635927 1_545
Se1 Se2 2.506420 1_556
Se1 Se3 2.635927 1_545
