# generated using pymatgen
data_TaInBi2O7
_symmetry_space_group_name_H-M   'P 1'
_cell_length_a   7.62890009
_cell_length_b   7.62890009
_cell_length_c   7.62890009
_cell_angle_alpha   120.45902925
_cell_angle_beta   119.87777160
_cell_angle_gamma   89.70930940
_symmetry_Int_Tables_number   1
_chemical_formula_structural   TaInBi2O7
_chemical_formula_sum   'Ta2 In2 Bi4 O14'
_cell_volume   313.14380267
_cell_formula_units_Z   2
loop_
 _symmetry_equiv_pos_site_id
 _symmetry_equiv_pos_as_xyz
  1  'x, y, z'
loop_
 _atom_site_type_symbol
 _atom_site_label
 _atom_site_symmetry_multiplicity
 _atom_site_fract_x
 _atom_site_fract_y
 _atom_site_fract_z
 _atom_site_occupancy
  Ta  Ta0  1  0.00000000  0.00000000  0.00000000  1
  Ta  Ta1  1  0.50000000  0.00000000  0.50000000  1
  In  In0  1  0.00000000  0.00000000  0.50000000  1
  In  In1  1  0.00000000  0.50000000  0.00000000  1
  Bi  Bi0  1  0.50000000  0.50000000  0.50000000  1
  Bi  Bi1  1  0.50000000  0.00000000  0.00000000  1
  Bi  Bi2  1  0.50000000  0.50000000  0.00000000  1
  Bi  Bi3  1  0.00000000  0.50000000  0.50000000  1
  O  O0  1  0.38023800  0.63023800  0.75000000  1
  O  O1  1  0.61976200  0.36976200  0.25000000  1
  O  O2  1  0.29168100  0.04168100  0.25000000  1
  O  O3  1  0.89950500  0.64950500  0.25000000  1
  O  O4  1  0.35059700  0.67944800  0.28214200  1
  O  O5  1  0.89730600  0.06845500  0.21785800  1
  O  O6  1  0.35059700  0.06845500  0.67115000  1
  O  O7  1  0.89730600  0.67944800  0.82885000  1
  O  O8  1  0.70831900  0.95831900  0.75000000  1
  O  O9  1  0.10049500  0.35049500  0.75000000  1
  O  O10  1  0.64940300  0.32055200  0.71785800  1
  O  O11  1  0.10269400  0.93154500  0.78214200  1
  O  O12  1  0.64940300  0.93154500  0.32885000  1
  O  O13  1  0.10269400  0.32055200  0.17115000  1
loop_
_geom_bond_atom_site_label_1
_geom_bond_atom_site_label_2
_geom_bond_distance
_geom_bond_site_symmetry_2
In0 O9 2.183728 1_555
In0 O3 2.183728 1_445
In0 O12 2.230447 1_445
In0 O6 2.230447 1_555
In0 O5 2.230448 1_455
In0 O11 2.230448 1_545
In1 O9 2.183728 1_554
In1 O3 2.183728 1_455
In1 O4 2.230448 1_555
In1 O10 2.230448 1_454
In1 O7 2.230453 1_454
In1 O13 2.230453 1_555
Bi0 O1 2.294589 1_555
Bi0 O0 2.294589 1_555
Bi0 O7 2.517768 1_555
Bi0 O13 2.517768 1_555
Bi0 O4 2.517768 1_555
Bi0 O10 2.517768 1_555
Bi1 O0 2.294589 1_544
Bi1 O1 2.294589 1_555
Bi1 O6 2.517762 1_554
Bi1 O12 2.517762 1_545
Bi1 O5 2.517768 1_555
Bi1 O11 2.517768 1_544
Bi2 O0 2.373888 1_554
Bi2 O1 2.373888 1_555
Bi2 O9 2.503179 1_554
Bi2 O3 2.503179 1_555
Bi2 O6 2.692052 1_554
Bi2 O12 2.692052 1_555
Bi2 O10 2.692053 1_554
Bi2 O4 2.692053 1_555
Bi3 O0 2.373888 1_555
Bi3 O1 2.373888 1_455
Bi3 O3 2.503179 1_455
Bi3 O9 2.503179 1_555
Bi3 O13 2.692046 1_555
Bi3 O7 2.692046 1_455
Bi3 O5 2.692053 1_455
Bi3 O11 2.692053 1_555
O2 Ta1 1.963213 1_555
O2 Ta0 1.963213 1_555
O4 Ta1 2.015430 1_565
O5 Ta0 2.015430 1_655
O6 Ta1 2.015436 1_555
O7 Ta0 2.015429 1_666
O8 Ta1 1.963213 1_565
O8 Ta0 1.963213 1_666
O10 Ta1 2.015430 1_555
O11 Ta0 2.015430 1_566
O12 Ta1 2.015436 1_565
O13 Ta0 2.015429 1_555
