# generated using pymatgen
data_Na5Li(Mo3O10)3
_symmetry_space_group_name_H-M   'P 1'
_cell_length_a   7.40857509
_cell_length_b   9.88753962
_cell_length_c   19.31966642
_cell_angle_alpha   85.88074808
_cell_angle_beta   78.94585123
_cell_angle_gamma   67.99781243
_symmetry_Int_Tables_number   1
_chemical_formula_structural   Na5Li(Mo3O10)3
_chemical_formula_sum   'Na10 Li2 Mo18 O60'
_cell_volume   1287.79964605
_cell_formula_units_Z   2
loop_
 _symmetry_equiv_pos_site_id
 _symmetry_equiv_pos_as_xyz
  1  'x, y, z'
loop_
 _atom_site_type_symbol
 _atom_site_label
 _atom_site_symmetry_multiplicity
 _atom_site_fract_x
 _atom_site_fract_y
 _atom_site_fract_z
 _atom_site_occupancy
  Na  Na0  1  0.56215479  0.10197582  0.30396472  1
  Na  Na1  1  0.33586939  0.10197582  0.69603528  1
  Na  Na2  1  0.28190467  0.60197582  0.80396472  1
  Na  Na3  1  0.11611950  0.60197582  0.19603528  1
  Na  Na4  1  0.64406369  0.10632738  0.09332280  1
  Na  Na5  1  0.24960894  0.10632738  0.90667720  1
  Na  Na6  1  0.40628614  0.60632738  0.59332280  1
  Na  Na7  1  0.98738649  0.60632738  0.40667720  1
  Na  Na8  1  0.20079442  0.59841116  -0.00000000  1
  Na  Na9  1  0.45079442  0.09841116  0.50000000  1
  Li  Li0  1  0.79496904  0.41006191  0.00000000  1
  Li  Li1  1  0.04496904  0.91006191  0.50000000  1
  Mo  Mo0  1  0.10405403  0.28818017  0.09250056  1
  Mo  Mo1  1  0.60776580  0.28818017  0.90749944  1
  Mo  Mo2  1  0.76526524  0.78818017  0.59250056  1
  Mo  Mo3  1  0.44655459  0.78818017  0.40749944  1
  Mo  Mo4  1  0.10955753  0.91212416  0.30014876  1
  Mo  Mo5  1  0.97831831  0.91212416  0.69985124  1
  Mo  Mo6  1  0.92816955  0.41212416  0.80014876  1
  Mo  Mo7  1  0.65970629  0.41212416  0.19985124  1
  Mo  Mo8  1  0.56173628  0.78709029  0.20074992  1
  Mo  Mo9  1  0.65117343  0.78709029  0.79925008  1
  Mo  Mo10  1  0.70042351  0.28709029  0.70074992  1
  Mo  Mo11  1  0.01248620  0.28709029  0.29925008  1
  Mo  Mo12  1  0.20259365  0.93233768  0.09673022  1
  Mo  Mo13  1  0.86506866  0.93233768  0.90326978  1
  Mo  Mo14  1  0.01833845  0.43233768  0.59673022  1
  Mo  Mo15  1  0.54932387  0.43233768  0.40326978  1
  Mo  Mo16  1  0.62777259  0.74445482  -0.00000000  1
  Mo  Mo17  1  0.87777259  0.24445482  0.50000000  1
  O  O0  1  0.33307037  0.92313888  0.00500487  1
  O  O1  1  0.74379075  0.92313888  0.99499513  1
  O  O2  1  0.98878588  0.42313888  0.50500487  1
  O  O3  1  0.58807524  0.42313888  0.49499513  1
  O  O4  1  0.01722191  0.77506384  0.29696598  1
  O  O5  1  0.20771425  0.77506384  0.70303402  1
  O  O6  1  0.16074826  0.27506384  0.79696598  1
  O  O7  1  0.56418790  0.27506384  0.20303402  1
  O  O8  1  0.64718754  0.92867681  0.20070154  1
  O  O9  1  0.42413565  0.92867681  0.79929846  1
  O  O10  1  0.47343410  0.42867681  0.70070154  1
  O  O11  1  0.09788908  0.42867681  0.29929846  1
  O  O12  1  0.97186269  0.29388829  0.20407268  1
  O  O13  1  0.73424901  0.29388829  0.79592732  1
  O  O14  1  0.78017633  0.79388829  0.70407268  1
  O  O15  1  0.42593537  0.79388829  0.29592732  1
  O  O16  1  0.18877516  0.42909167  0.10071128  1
  O  O17  1  0.38213317  0.42909167  0.89928872  1
  O  O18  1  0.53142190  0.92909167  0.60071128  1
  O  O19  1  0.53948644  0.92909167  0.39928872  1
  O  O20  1  0.79598715  0.39893011  0.10644359  1
  O  O21  1  0.80508274  0.39893011  0.89355641  1
  O  O22  1  0.94863915  0.89893011  0.60644359  1
  O  O23  1  0.15243075  0.89893011  0.39355641  1
  O  O24  1  0.09849910  0.28424484  0.00130189  1
  O  O25  1  0.61725606  0.28424484  0.99869811  1
  O  O26  1  0.86595417  0.78424484  0.50130189  1
  O  O27  1  0.34980099  0.78424484  0.49869811  1
  O  O28  1  0.97597047  0.08526334  0.10040072  1
  O  O29  1  0.93876619  0.08526334  0.89959928  1
  O  O30  1  0.08836547  0.58526334  0.60040072  1
  O  O31  1  0.32637119  0.58526334  0.39959928  1
  O  O32  1  0.89899199  0.07700753  0.30046405  1
  O  O33  1  0.02400048  0.07700753  0.69953595  1
  O  O34  1  0.97353643  0.57700753  0.80046405  1
  O  O35  1  0.44945604  0.57700753  0.19953595  1
  O  O36  1  0.12885536  0.78187322  0.10067829  1
  O  O37  1  0.08927142  0.78187322  0.89932171  1
  O  O38  1  0.23859313  0.28187322  0.60067829  1
  O  O39  1  0.47953365  0.28187322  0.39932171  1
  O  O40  1  0.52635857  0.79644376  0.10144088  1
  O  O41  1  0.67719767  0.79644376  0.89855912  1
  O  O42  1  0.82575679  0.29644376  0.60144088  1
  O  O43  1  0.87779945  0.29644376  0.39855912  1
  O  O44  1  0.24636341  0.90763185  0.20009696  1
  O  O45  1  0.84600474  0.90763185  0.79990304  1
  O  O46  1  0.89590778  0.40763185  0.70009696  1
  O  O47  1  0.69646037  0.40763185  0.29990304  1
  O  O48  1  0.22728069  0.12850707  0.30006043  1
  O  O49  1  0.64421224  0.12850707  0.69993957  1
  O  O50  1  0.59415181  0.62850707  0.80006043  1
  O  O51  1  0.77734112  0.62850707  0.19993957  1
  O  O52  1  0.30831129  0.12104564  0.10718103  1
  O  O53  1  0.57064307  0.12104564  0.89281897  1
  O  O54  1  0.71346205  0.62104564  0.60718103  1
  O  O55  1  0.66549231  0.62104564  0.39281897  1
  O  O56  1  0.51367074  0.62130570  0.99238910  1
  O  O57  1  0.86502356  0.62130570  0.00761090  1
  O  O58  1  0.12263446  0.12130570  0.49238910  1
  O  O59  1  0.75605984  0.12130570  0.50761090  1
loop_
_geom_bond_atom_site_label_1
_geom_bond_atom_site_label_2
_geom_bond_distance
_geom_bond_site_symmetry_2
Na0 O32 2.401880 1_555
Na0 O48 2.410568 1_555
Na0 O19 2.446645 1_545
Na0 O39 2.480945 1_555
Na0 O7 2.502015 1_555
Na0 O8 2.552128 1_545
Na1 O33 2.401880 1_555
Na1 O49 2.410568 1_555
Na1 O18 2.446645 1_545
Na1 O38 2.480945 1_555
Na1 O6 2.502015 1_555
Na1 O9 2.552128 1_545
Na2 O34 2.401880 1_455
Na2 O50 2.410568 1_555
Na2 O17 2.446645 1_555
Na2 O37 2.480945 1_555
Na2 O5 2.502015 1_555
Na2 O10 2.552128 1_555
Na3 O35 2.401880 1_555
Na3 O51 2.410568 1_455
Na3 O16 2.446645 1_555
Na3 O36 2.480945 1_555
Na3 O4 2.502015 1_555
Na3 O11 2.552128 1_555
Na4 O52 2.399840 1_555
Na4 O28 2.418607 1_555
Na4 O25 2.427250 1_554
Na4 O1 2.527590 1_544
Na4 O8 2.618015 1_545
Na4 O7 2.629379 1_555
Na5 O53 2.399840 1_555
Na5 O29 2.418607 1_455
Na5 O24 2.427250 1_556
Na5 O0 2.527590 1_546
Na5 O9 2.618015 1_545
Na5 O6 2.629379 1_555
Na6 O54 2.399840 1_555
Na6 O30 2.418607 1_555
Na6 O27 2.427250 1_555
Na6 O3 2.527590 1_555
Na6 O10 2.618015 1_555
Na6 O5 2.629379 1_555
Na7 O55 2.399840 1_555
Na7 O31 2.418607 1_655
Na7 O26 2.427250 1_555
Na7 O2 2.527590 1_555
Na7 O11 2.618015 1_655
Na7 O4 2.629379 1_655
Na8 O57 2.388204 1_455
Na8 O56 2.388204 1_554
Na8 O17 2.484710 1_554
Na8 O16 2.484710 1_555
Na8 O37 2.596704 1_554
Na8 O36 2.596704 1_555
Na9 O58 2.388204 1_555
Na9 O59 2.388204 1_555
Na9 O19 2.484710 1_545
Na9 O18 2.484710 1_545
Na9 O38 2.596704 1_555
Na9 O39 2.596704 1_555
Li0 O21 2.052799 1_554
Li0 O20 2.052799 1_555
Li0 O25 2.127460 1_554
Li0 O24 2.127460 1_655
Li0 O56 2.353553 1_554
Li0 O57 2.353553 1_555
Li1 O22 2.052799 1_455
Li1 O23 2.052799 1_555
Li1 O26 2.127460 1_455
Li1 O27 2.127460 1_555
Li1 O59 2.353553 1_465
Li1 O58 2.353553 1_565
Mo0 O16 1.756560 1_555
Mo0 O24 1.773824 1_555
Mo0 O52 1.823402 1_555
Mo0 O20 2.101120 1_455
Mo0 O12 2.185220 1_455
Mo0 O28 2.505228 1_455
Mo1 O17 1.756560 1_555
Mo1 O25 1.773824 1_555
Mo1 O53 1.823402 1_555
Mo1 O21 2.101120 1_555
Mo1 O13 2.185220 1_555
Mo1 O29 2.505228 1_555
Mo2 O18 1.756560 1_555
Mo2 O26 1.773824 1_555
Mo2 O54 1.823402 1_555
Mo2 O22 2.101120 1_555
Mo2 O14 2.185220 1_555
Mo2 O30 2.505228 1_655
Mo3 O19 1.756560 1_555
Mo3 O27 1.773824 1_555
Mo3 O55 1.823402 1_555
Mo3 O23 2.101120 1_555
Mo3 O15 2.185220 1_555
Mo3 O31 2.505228 1_555
Mo4 O4 1.740978 1_555
Mo4 O32 1.784273 1_465
Mo4 O23 1.878681 1_555
Mo4 O44 1.998229 1_555
Mo4 O15 2.180479 1_555
Mo4 O48 2.595219 1_565
Mo5 O5 1.740978 1_655
Mo5 O33 1.784273 1_665
Mo5 O22 1.878680 1_555
Mo5 O45 1.998229 1_555
Mo5 O14 2.180479 1_555
Mo5 O49 2.595219 1_565
Mo6 O6 1.740978 1_655
Mo6 O34 1.784273 1_555
Mo6 O21 1.878680 1_555
Mo6 O46 1.998229 1_555
Mo6 O13 2.180479 1_555
Mo6 O50 2.595219 1_555
Mo7 O7 1.740978 1_555
Mo7 O35 1.784273 1_555
Mo7 O20 1.878680 1_555
Mo7 O47 1.998229 1_555
Mo7 O12 2.180479 1_555
Mo7 O51 2.595219 1_555
Mo8 O8 1.739042 1_555
Mo8 O51 1.768499 1_555
Mo8 O15 1.911954 1_555
Mo8 O40 1.976746 1_555
Mo8 O44 2.191423 1_555
Mo8 O35 2.513251 1_555
Mo9 O9 1.739042 1_555
Mo9 O50 1.768499 1_555
Mo9 O14 1.911954 1_555
Mo9 O41 1.976746 1_555
Mo9 O45 2.191423 1_555
Mo9 O34 2.513251 1_555
Mo10 O10 1.739042 1_555
Mo10 O49 1.768499 1_555
Mo10 O13 1.911954 1_555
Mo10 O42 1.976746 1_555
Mo10 O46 2.191423 1_555
Mo10 O33 2.513251 1_655
Mo11 O11 1.739042 1_555
Mo11 O48 1.768499 1_555
Mo11 O12 1.911954 1_455
Mo11 O43 1.976746 1_455
Mo11 O47 2.191423 1_455
Mo11 O32 2.513251 1_455
Mo12 O36 1.759053 1_555
Mo12 O28 1.782638 1_465
Mo12 O0 1.839407 1_555
Mo12 O44 2.066825 1_555
Mo12 O40 2.284381 1_555
Mo12 O52 2.312005 1_565
Mo13 O37 1.759053 1_655
Mo13 O29 1.782638 1_565
Mo13 O1 1.839407 1_555
Mo13 O45 2.066825 1_555
Mo13 O41 2.284381 1_555
Mo13 O53 2.312004 1_565
Mo14 O38 1.759053 1_555
Mo14 O30 1.782638 1_555
Mo14 O2 1.839407 1_455
Mo14 O46 2.066825 1_455
Mo14 O42 2.284381 1_455
Mo14 O54 2.312004 1_455
Mo15 O39 1.759053 1_555
Mo15 O31 1.782638 1_555
Mo15 O3 1.839407 1_555
Mo15 O47 2.066825 1_555
Mo15 O43 2.284381 1_555
Mo15 O55 2.312004 1_555
Mo16 O57 1.750284 1_555
Mo16 O56 1.750284 1_554
Mo16 O40 1.990042 1_555
Mo16 O41 1.990042 1_554
Mo16 O0 2.225075 1_555
Mo16 O1 2.225075 1_554
Mo17 O58 1.750284 1_655
Mo17 O59 1.750284 1_555
Mo17 O43 1.990042 1_555
Mo17 O42 1.990042 1_555
Mo17 O3 2.225075 1_555
Mo17 O2 2.225075 1_555
