# generated using pymatgen
data_Mg2Mn2(SiO4)3
_symmetry_space_group_name_H-M   'P 1'
_cell_length_a   10.10821029
_cell_length_b   10.10821029
_cell_length_c   10.10821029
_cell_angle_alpha   109.72858317
_cell_angle_beta   109.72858317
_cell_angle_gamma   108.95771271
_symmetry_Int_Tables_number   1
_chemical_formula_structural   Mg2Mn2(SiO4)3
_chemical_formula_sum   'Mg8 Mn8 Si12 O48'
_cell_volume   795.01400200
_cell_formula_units_Z   4
loop_
 _symmetry_equiv_pos_site_id
 _symmetry_equiv_pos_as_xyz
  1  'x, y, z'
loop_
 _atom_site_type_symbol
 _atom_site_label
 _atom_site_symmetry_multiplicity
 _atom_site_fract_x
 _atom_site_fract_y
 _atom_site_fract_z
 _atom_site_occupancy
  Mg  Mg0  1  0.74497700  0.37500000  0.86997700  1
  Mg  Mg1  1  0.62500000  0.99497700  0.86997700  1
  Mg  Mg2  1  0.12500000  0.75502300  0.13002300  1
  Mg  Mg3  1  0.50502300  0.87500000  0.13002300  1
  Mg  Mg4  1  0.00502300  0.87500000  0.63002300  1
  Mg  Mg5  1  0.12500000  0.25502300  0.63002300  1
  Mg  Mg6  1  0.62500000  0.49497700  0.36997700  1
  Mg  Mg7  1  0.24497700  0.37500000  0.36997700  1
  Mn  Mn0  1  0.87500000  0.62500000  0.25000000  1
  Mn  Mn1  1  0.37500000  0.12500000  0.75000000  1
  Mn  Mn2  1  0.87500000  0.12500000  0.25000000  1
  Mn  Mn3  1  0.37500000  0.62500000  0.75000000  1
  Mn  Mn4  1  0.37500000  0.12500000  0.25000000  1
  Mn  Mn5  1  0.87500000  0.12500000  0.75000000  1
  Mn  Mn6  1  0.87500000  0.62500000  0.75000000  1
  Mn  Mn7  1  0.37500000  0.62500000  0.25000000  1
  Si  Si0  1  0.24918400  0.87500000  0.87418400  1
  Si  Si1  1  0.12500000  0.99918400  0.37418400  1
  Si  Si2  1  0.50000000  0.50000000  0.00000000  1
  Si  Si3  1  0.62500000  0.75081600  0.62581600  1
  Si  Si4  1  0.00000000  0.00000000  0.00000000  1
  Si  Si5  1  0.75000000  0.25000000  0.50000000  1
  Si  Si6  1  0.74918400  0.87500000  0.37418400  1
  Si  Si7  1  0.25000000  0.75000000  0.50000000  1
  Si  Si8  1  0.00081600  0.37500000  0.12581600  1
  Si  Si9  1  0.62500000  0.25081600  0.12581600  1
  Si  Si10  1  0.12500000  0.49918400  0.87418400  1
  Si  Si11  1  0.50081600  0.37500000  0.62581600  1
  O  O0  1  0.25292200  0.01533900  0.82656300  1
  O  O1  1  0.17635900  0.50292200  0.73758300  1
  O  O2  1  0.76533900  0.43877600  0.26241700  1
  O  O3  1  0.06698900  0.72327700  0.45545400  1
  O  O4  1  0.18301100  0.13846400  0.15628800  1
  O  O5  1  0.35748900  0.42197100  0.62459700  1
  O  O6  1  0.45262600  0.32802900  0.43551800  1
  O  O7  1  0.36153600  0.31698900  0.84371200  1
  O  O8  1  0.17197100  0.04737400  0.56448200  1
  O  O9  1  0.77672300  0.43301100  0.54454600  1
  O  O10  1  0.07802900  0.14251100  0.37540300  1
  O  O11  1  0.47327700  0.51782300  0.15628800  1
  O  O12  1  0.76710800  0.70262600  0.62459700  1
  O  O13  1  0.48289200  0.60748900  0.43551800  1
  O  O14  1  0.88846400  0.23217700  0.45545400  1
  O  O15  1  0.18877600  0.42635900  0.17343700  1
  O  O16  1  0.48466100  0.24707800  0.17343700  1
  O  O17  1  0.99707800  0.32364100  0.26241700  1
  O  O18  1  0.26782300  0.61153600  0.54454600  1
  O  O19  1  0.06122400  0.73466100  0.73758300  1
  O  O20  1  0.95262600  0.51710800  0.12459700  1
  O  O21  1  0.07364100  0.31122400  0.82656300  1
  O  O22  1  0.98217700  0.02672300  0.84371200  1
  O  O23  1  0.79737400  0.73289200  0.37540300  1
  O  O24  1  0.49707800  0.23466100  0.67343700  1
  O  O25  1  0.57364100  0.74707800  0.76241700  1
  O  O26  1  0.98466100  0.81122400  0.23758300  1
  O  O27  1  0.68301100  0.52672300  0.04454600  1
  O  O28  1  0.56698900  0.11153600  0.34371200  1
  O  O29  1  0.39251100  0.82802900  0.87540300  1
  O  O30  1  0.29737400  0.92197100  0.06448200  1
  O  O31  1  0.38846400  0.93301100  0.65628800  1
  O  O32  1  0.57802900  0.20262600  0.93551800  1
  O  O33  1  0.97327700  0.81698900  0.95545400  1
  O  O34  1  0.67197100  0.10748900  0.12459700  1
  O  O35  1  0.27672300  0.73217700  0.34371200  1
  O  O36  1  0.98289200  0.54737400  0.87540300  1
  O  O37  1  0.26710800  0.64251100  0.06448200  1
  O  O38  1  0.86153600  0.01782300  0.04454600  1
  O  O39  1  0.56122400  0.82364100  0.32656300  1
  O  O40  1  0.26533900  0.00292200  0.32656300  1
  O  O41  1  0.75292200  0.92635900  0.23758300  1
  O  O42  1  0.48217700  0.63846400  0.95545400  1
  O  O43  1  0.68877600  0.51533900  0.76241700  1
  O  O44  1  0.85748900  0.23289200  0.93551800  1
  O  O45  1  0.67635900  0.93877600  0.67343700  1
  O  O46  1  0.76782300  0.22327700  0.65628800  1
  O  O47  1  0.89251100  0.01710800  0.56448200  1
loop_
_geom_bond_atom_site_label_1
_geom_bond_atom_site_label_2
_geom_bond_distance
_geom_bond_site_symmetry_2
Mg0 O43 2.159877 1_555
Mg0 O24 2.159877 1_555
Mg0 O44 2.234062 1_555
Mg0 O20 2.234062 1_556
Mg0 O46 2.324101 1_555
Mg0 O27 2.324101 1_556
Mg0 O32 2.438504 1_555
Mg0 O36 2.438504 1_555
Mg1 O45 2.159877 1_555
Mg1 O25 2.159877 1_555
Mg1 O32 2.234062 1_565
Mg1 O34 2.234062 1_566
Mg1 O31 2.324107 1_555
Mg1 O38 2.324108 1_566
Mg1 O29 2.438504 1_555
Mg1 O44 2.438504 1_565
Mg2 O40 2.159877 1_565
Mg2 O26 2.159877 1_455
Mg2 O36 2.234062 1_454
Mg2 O37 2.234062 1_555
Mg2 O35 2.324101 1_555
Mg2 O33 2.324101 1_454
Mg2 O30 2.438504 1_555
Mg2 O20 2.438504 1_455
Mg3 O39 2.159877 1_555
Mg3 O41 2.159877 1_555
Mg3 O29 2.234062 1_554
Mg3 O30 2.234062 1_555
Mg3 O28 2.324107 1_565
Mg3 O42 2.324108 1_554
Mg3 O34 2.438504 1_565
Mg3 O37 2.438504 1_555
Mg4 O0 2.159877 1_565
Mg4 O19 2.159877 1_555
Mg4 O47 2.234062 1_465
Mg4 O23 2.234062 1_455
Mg4 O22 2.324101 1_465
Mg4 O3 2.324101 1_555
Mg4 O12 2.438504 1_455
Mg4 O8 2.438504 1_565
Mg5 O21 2.159877 1_555
Mg5 O1 2.159877 1_555
Mg5 O8 2.234062 1_555
Mg5 O10 2.234062 1_555
Mg5 O7 2.324107 1_555
Mg5 O14 2.324108 1_455
Mg5 O5 2.438504 1_555
Mg5 O47 2.438504 1_455
Mg6 O2 2.159877 1_555
Mg6 O16 2.159877 1_555
Mg6 O13 2.234062 1_555
Mg6 O12 2.234062 1_555
Mg6 O9 2.324101 1_555
Mg6 O11 2.324101 1_555
Mg6 O23 2.438504 1_555
Mg6 O6 2.438504 1_555
Mg7 O17 2.159877 1_455
Mg7 O15 2.159877 1_555
Mg7 O5 2.234062 1_555
Mg7 O6 2.234062 1_555
Mg7 O4 2.324107 1_555
Mg7 O18 2.324108 1_555
Mg7 O10 2.438504 1_555
Mg7 O13 2.438504 1_555
Mn0 O26 1.919784 1_555
Mn0 O2 1.919784 1_555
Mn0 O3 1.923427 1_655
Mn0 O27 1.923427 1_555
Mn0 O20 1.925122 1_555
Mn0 O23 1.925122 1_555
Mn1 O24 1.919784 1_555
Mn1 O0 1.919784 1_555
Mn1 O7 1.923422 1_555
Mn1 O31 1.923422 1_545
Mn1 O32 1.925122 1_555
Mn1 O8 1.925122 1_555
Mn2 O17 1.919784 1_555
Mn2 O41 1.919784 1_545
Mn2 O14 1.923432 1_555
Mn2 O38 1.923432 1_555
Mn2 O10 1.925122 1_655
Mn2 O34 1.925122 1_555
Mn3 O25 1.919784 1_555
Mn3 O1 1.919784 1_555
Mn3 O42 1.923432 1_555
Mn3 O18 1.923432 1_555
Mn3 O29 1.925122 1_555
Mn3 O5 1.925122 1_555
Mn4 O16 1.919784 1_555
Mn4 O40 1.919784 1_555
Mn4 O28 1.923422 1_555
Mn4 O4 1.923422 1_555
Mn4 O6 1.925122 1_555
Mn4 O30 1.925122 1_545
Mn5 O21 1.919784 1_655
Mn5 O45 1.919784 1_545
Mn5 O22 1.923427 1_555
Mn5 O46 1.923427 1_555
Mn5 O44 1.925122 1_555
Mn5 O47 1.925122 1_555
Mn6 O19 1.919784 1_655
Mn6 O43 1.919784 1_555
Mn6 O33 1.923427 1_555
Mn6 O9 1.923427 1_555
Mn6 O36 1.925122 1_555
Mn6 O12 1.925122 1_555
Mn7 O15 1.919784 1_555
Mn7 O39 1.919784 1_555
Mn7 O35 1.923427 1_555
Mn7 O11 1.923427 1_555
Mn7 O13 1.925122 1_555
Mn7 O37 1.925122 1_555
O0 Si0 1.638280 1_545
O1 Si10 1.638280 1_555
O2 Si9 1.638280 1_555
O3 Si7 1.651889 1_555
O4 Si4 1.651887 1_555
O5 Si11 1.662341 1_555
O6 Si11 1.662341 1_555
O7 Si2 1.651887 1_556
O8 Si1 1.662341 1_545
O9 Si5 1.651889 1_555
O10 Si1 1.662341 1_545
O11 Si2 1.651889 1_555
O12 Si3 1.662341 1_555
O13 Si3 1.662341 1_555
O14 Si5 1.651879 1_555
O15 Si8 1.638280 1_555
O16 Si9 1.638280 1_555
O17 Si8 1.638280 1_655
O18 Si7 1.651879 1_555
O19 Si0 1.638280 1_555
O20 Si8 1.662341 1_655
O21 Si10 1.638280 1_555
O22 Si4 1.651889 1_656
O23 Si6 1.662341 1_555
O24 Si11 1.638280 1_555
O25 Si3 1.638280 1_555
O26 Si1 1.638280 1_655
O27 Si2 1.651889 1_555
O28 Si5 1.651887 1_555
O29 Si0 1.662341 1_555
O30 Si0 1.662341 1_554
O31 Si7 1.651887 1_555
O32 Si9 1.662341 1_556
O33 Si4 1.651889 1_666
O34 Si9 1.662341 1_555
O35 Si7 1.651889 1_555
O36 Si10 1.662341 1_655
O37 Si10 1.662341 1_554
O38 Si4 1.651879 1_655
O39 Si6 1.638280 1_555
O40 Si1 1.638280 1_545
O41 Si6 1.638280 1_555
O42 Si2 1.651879 1_556
O43 Si11 1.638280 1_555
O44 Si8 1.662341 1_656
O45 Si3 1.638280 1_555
O46 Si5 1.651889 1_555
O47 Si6 1.662341 1_545
