# generated using pymatgen
data_Ca2MnAlO5
_symmetry_space_group_name_H-M   'P 1'
_cell_length_a   7.68646457
_cell_length_b   7.58126300
_cell_length_c   7.67118277
_cell_angle_alpha   90.00000000
_cell_angle_beta   89.81816141
_cell_angle_gamma   90.00000000
_symmetry_Int_Tables_number   1
_chemical_formula_structural   Ca2MnAlO5
_chemical_formula_sum   'Ca8 Mn4 Al4 O20'
_cell_volume   447.02142164
_cell_formula_units_Z   4
loop_
 _symmetry_equiv_pos_site_id
 _symmetry_equiv_pos_as_xyz
  1  'x, y, z'
loop_
 _atom_site_type_symbol
 _atom_site_label
 _atom_site_symmetry_multiplicity
 _atom_site_fract_x
 _atom_site_fract_y
 _atom_site_fract_z
 _atom_site_occupancy
  Ca  Ca0  1  0.25304300  0.26701800  0.24088600  1
  Ca  Ca1  1  0.26027400  0.25554800  0.75668300  1
  Ca  Ca2  1  0.25304300  0.73298200  0.24088600  1
  Ca  Ca3  1  0.26027400  0.74445200  0.75668300  1
  Ca  Ca4  1  0.79410800  0.26705700  0.21137400  1
  Ca  Ca5  1  0.72465200  0.26995800  0.72912600  1
  Ca  Ca6  1  0.79410800  0.73294300  0.21137400  1
  Ca  Ca7  1  0.72465200  0.73004200  0.72912600  1
  Mn  Mn0  1  0.01981800  0.50000000  0.97667800  1
  Mn  Mn1  1  0.00933800  0.50000000  0.47153800  1
  Mn  Mn2  1  0.50377700  0.00000000  0.02864100  1
  Mn  Mn3  1  0.50899000  0.00000000  0.49588300  1
  Al  Al0  1  0.99236300  0.00000000  0.95089500  1
  Al  Al1  1  0.97253900  0.00000000  0.52413300  1
  Al  Al2  1  0.50864500  0.50000000  0.97707600  1
  Al  Al3  1  0.49988600  0.50000000  0.51029300  1
  O  O0  1  0.99543200  0.50000000  0.22557000  1
  O  O1  1  0.01532900  0.50000000  0.72090200  1
  O  O2  1  0.40273500  0.00000000  0.26449000  1
  O  O3  1  0.44085800  0.00000000  0.78707500  1
  O  O4  1  0.50383500  0.50000000  0.74489000  1
  O  O5  1  0.07196100  0.00000000  0.73096500  1
  O  O6  1  0.26799800  0.50000000  0.99129400  1
  O  O7  1  0.27316100  0.50000000  0.44137600  1
  O  O8  1  0.77429200  0.00000000  0.02518200  1
  O  O9  1  0.75096600  0.00000000  0.58646800  1
  O  O10  1  0.76275800  0.50000000  0.97700900  1
  O  O11  1  0.73689100  0.50000000  0.46142800  1
  O  O12  1  0.06318100  0.21018100  0.01260800  1
  O  O13  1  0.01465500  0.20246100  0.42432400  1
  O  O14  1  0.06318100  0.78981900  0.01260800  1
  O  O15  1  0.01465500  0.79753900  0.42432400  1
  O  O16  1  0.51498900  0.26614500  0.04543200  1
  O  O17  1  0.49431200  0.24917100  0.50867500  1
  O  O18  1  0.51498900  0.73385500  0.04543200  1
  O  O19  1  0.49431200  0.75082900  0.50867500  1
loop_
_geom_bond_atom_site_label_1
_geom_bond_atom_site_label_2
_geom_bond_distance
_geom_bond_site_symmetry_2
Ca0 O12 2.323406 1_555
Ca0 O2 2.335791 1_555
Ca0 O7 2.347479 1_555
Ca0 O13 2.358154 1_555
Ca0 O16 2.506573 1_555
Ca0 O6 2.607215 1_554
Ca0 O0 2.656305 1_455
Ca0 O17 2.775186 1_555
Ca1 O3 2.395105 1_555
Ca1 O5 2.426789 1_555
Ca1 O12 2.499765 1_556
Ca1 O6 2.584151 1_555
Ca1 O17 2.614633 1_555
Ca1 O4 2.635623 1_555
Ca1 O1 2.656683 1_555
Ca1 O16 2.962029 1_556
Ca2 O14 2.323406 1_555
Ca2 O2 2.335791 1_565
Ca2 O7 2.347479 1_555
Ca2 O15 2.358154 1_555
Ca2 O18 2.506573 1_555
Ca2 O6 2.607215 1_554
Ca2 O0 2.656305 1_455
Ca2 O19 2.775186 1_555
Ca3 O3 2.395105 1_565
Ca3 O5 2.426789 1_565
Ca3 O14 2.499765 1_556
Ca3 O6 2.584151 1_555
Ca3 O19 2.614633 1_555
Ca3 O4 2.635623 1_555
Ca3 O1 2.656683 1_555
Ca3 O18 2.962029 1_556
Ca4 O0 2.350820 1_555
Ca4 O13 2.408272 1_655
Ca4 O8 2.482697 1_555
Ca4 O16 2.498148 1_555
Ca4 O10 2.532167 1_554
Ca4 O12 2.601609 1_655
Ca4 O11 2.643172 1_555
Ca5 O9 2.329331 1_555
Ca5 O4 2.436334 1_555
Ca5 O17 2.457315 1_555
Ca5 O10 2.597462 1_555
Ca5 O11 2.695608 1_555
Ca5 O1 2.834899 1_655
Ca5 O16 2.908742 1_556
Ca5 O3 3.022997 1_555
Ca5 O8 3.081825 1_556
Ca6 O0 2.350820 1_555
Ca6 O15 2.408272 1_655
Ca6 O8 2.482697 1_565
Ca6 O18 2.498148 1_555
Ca6 O10 2.532167 1_554
Ca6 O14 2.601609 1_655
Ca6 O11 2.643172 1_555
Ca7 O9 2.329331 1_565
Ca7 O4 2.436334 1_555
Ca7 O19 2.457315 1_555
Ca7 O10 2.597462 1_555
Ca7 O11 2.695608 1_555
Ca7 O1 2.834899 1_655
Ca7 O18 2.908742 1_556
Ca7 O3 3.022997 1_565
Ca7 O8 3.081825 1_566
Mn0 O6 1.911274 1_555
Mn0 O0 1.917883 1_456
Mn0 O1 1.962517 1_555
Mn0 O10 1.975876 1_455
Mn0 O14 2.239488 1_556
Mn0 O12 2.239488 1_556
Mn1 O0 1.890229 1_455
Mn1 O1 1.913617 1_555
Mn1 O7 2.040294 1_555
Mn1 O11 2.095836 1_455
Mn1 O15 2.284958 1_555
Mn1 O13 2.284958 1_555
Mn2 O3 1.916651 1_554
Mn2 O2 1.966628 1_555
Mn2 O16 2.023676 1_555
Mn2 O18 2.023676 1_545
Mn2 O8 2.079389 1_555
Mn3 O17 1.894921 1_555
Mn3 O19 1.894921 1_545
Mn3 O2 1.956291 1_555
Mn3 O9 1.987576 1_555
Mn3 O3 2.292735 1_555
Al0 O12 1.749601 1_656
Al0 O14 1.749601 1_646
Al0 O8 1.768705 1_556
Al0 O5 1.792809 1_655
Al1 O13 1.745107 1_655
Al1 O15 1.745107 1_645
Al1 O5 1.763278 1_655
Al1 O9 1.767508 1_555
Al2 O4 1.781642 1_555
Al2 O18 1.849524 1_556
Al2 O16 1.849524 1_556
Al2 O6 1.852592 1_555
Al2 O10 1.953229 1_555
Al3 O4 1.799989 1_555
Al3 O7 1.822744 1_555
Al3 O11 1.858731 1_555
Al3 O19 1.902125 1_555
Al3 O17 1.902125 1_555
