# generated using pymatgen
data_KCu4Se3
_symmetry_space_group_name_H-M   'P 1'
_cell_length_a   4.00783100
_cell_length_b   4.00783100
_cell_length_c   9.86775200
_cell_angle_alpha   90.00000000
_cell_angle_beta   90.00000000
_cell_angle_gamma   90.00000000
_symmetry_Int_Tables_number   1
_chemical_formula_structural   KCu4Se3
_chemical_formula_sum   'K1 Cu4 Se3'
_cell_volume   158.50283206
_cell_formula_units_Z   1
loop_
 _symmetry_equiv_pos_site_id
 _symmetry_equiv_pos_as_xyz
  1  'x, y, z'
loop_
 _atom_site_type_symbol
 _atom_site_label
 _atom_site_symmetry_multiplicity
 _atom_site_fract_x
 _atom_site_fract_y
 _atom_site_fract_z
 _atom_site_occupancy
  K  K0  1  0.50000000  0.50000000  0.50000000  1
  Cu  Cu0  1  0.50000000  0.00000000  0.16199400  1
  Cu  Cu1  1  0.00000000  0.50000000  0.83800600  1
  Cu  Cu2  1  0.50000000  0.00000000  0.83800600  1
  Cu  Cu3  1  0.00000000  0.50000000  0.16199400  1
  Se  Se0  1  0.00000000  0.00000000  0.30191600  1
  Se  Se1  1  0.00000000  0.00000000  0.69808400  1
  Se  Se2  1  0.50000000  0.50000000  0.00000000  1
loop_
_geom_bond_atom_site_label_1
_geom_bond_atom_site_label_2
_geom_bond_distance
_geom_bond_site_symmetry_2
K0 Se1 3.442671 1_665
K0 Se1 3.442671 1_655
K0 Se1 3.442671 1_555
K0 Se1 3.442671 1_565
K0 Se0 3.442671 1_665
K0 Se0 3.442671 1_655
K0 Se0 3.442671 1_555
K0 Se0 3.442671 1_565
Cu0 Se0 2.433527 1_655
Cu0 Se0 2.433527 1_555
Cu0 Se2 2.563383 1_545
Cu0 Se2 2.563383 1_555
Cu1 Se1 2.433527 1_555
Cu1 Se1 2.433527 1_565
Cu1 Se2 2.563383 1_556
Cu1 Se2 2.563383 1_456
Cu2 Se1 2.433527 1_555
Cu2 Se1 2.433527 1_655
Cu2 Se2 2.563383 1_546
Cu2 Se2 2.563383 1_556
Cu3 Se0 2.433527 1_565
Cu3 Se0 2.433527 1_555
Cu3 Se2 2.563383 1_555
Cu3 Se2 2.563383 1_455
