# generated using pymatgen
data_Ba2La2Mn4O11
_symmetry_space_group_name_H-M   'P 1'
_cell_length_a   3.91489900
_cell_length_b   8.27953100
_cell_length_c   8.89821913
_cell_angle_alpha   117.72838344
_cell_angle_beta   89.99938267
_cell_angle_gamma   89.99976528
_symmetry_Int_Tables_number   1
_chemical_formula_structural   Ba2La2Mn4O11
_chemical_formula_sum   'Ba2 La2 Mn4 O11'
_cell_volume   255.30114714
_cell_formula_units_Z   1
loop_
 _symmetry_equiv_pos_site_id
 _symmetry_equiv_pos_as_xyz
  1  'x, y, z'
loop_
 _atom_site_type_symbol
 _atom_site_label
 _atom_site_symmetry_multiplicity
 _atom_site_fract_x
 _atom_site_fract_y
 _atom_site_fract_z
 _atom_site_occupancy
  Ba  Ba0  1  0.49999600  0.50000700  0.50000100  1
  Ba  Ba1  1  0.49999500  0.00001400  0.50000400  1
  La  La0  1  0.49998000  0.23172300  0.00000800  1
  La  La1  1  0.50000900  0.76826700  0.00000600  1
  Mn  Mn0  1  0.00000800  0.38028900  0.76057400  1
  Mn  Mn1  1  0.99999600  0.61970800  0.23941900  1
  Mn  Mn2  1  0.00001000  0.12490700  0.24984200  1
  Mn  Mn3  1  0.99999700  0.87509500  0.75015400  1
  O  O0  1  0.49999500  0.11624300  0.23251600  1
  O  O1  1  0.50000000  0.88376300  0.76749200  1
  O  O2  1  0.99998800  0.37410700  0.21118300  1
  O  O3  1  0.00001700  0.62590100  0.78882100  1
  O  O4  1  0.99999900  0.83702900  0.21115400  1
  O  O5  1  0.00001500  0.16296400  0.78883900  1
  O  O6  1  0.50001000  0.40704300  0.81409200  1
  O  O7  1  0.49999800  0.59295800  0.18590100  1
  O  O8  1  0.99997500  0.99999200  0.99999700  1
  O  O9  1  0.00000300  0.24731900  0.49467500  1
  O  O10  1  0.00001000  0.75267100  0.50532000  1
loop_
_geom_bond_atom_site_label_1
_geom_bond_atom_site_label_2
_geom_bond_distance
_geom_bond_site_symmetry_2
Ba0 O10 2.849153 1_555
Ba0 O10 2.849241 1_655
Ba0 O9 2.849309 1_555
Ba0 O9 2.849334 1_655
Ba0 O1 2.953504 1_555
Ba0 O0 2.953534 1_555
Ba0 O3 3.004940 1_555
Ba0 O2 3.004958 1_555
Ba0 O2 3.005041 1_455
Ba0 O3 3.005089 1_655
Ba0 O6 3.225747 1_555
Ba0 O7 3.225756 1_555
Ba1 O9 2.848964 1_555
Ba1 O9 2.849018 1_655
Ba1 O10 2.849144 1_545
Ba1 O10 2.849214 1_645
Ba1 O0 2.953421 1_555
Ba1 O1 2.953548 1_545
Ba1 O5 3.005026 1_555
Ba1 O5 3.005172 1_655
Ba1 O4 3.005189 1_545
Ba1 O4 3.005211 1_445
Ba1 O6 3.225436 1_555
Ba1 O7 3.225630 1_545
La0 O5 2.586613 1_554
La0 O2 2.586638 1_455
La0 O2 2.586724 1_555
La0 O5 2.586786 1_654
La0 O1 2.652132 1_544
La0 O0 2.652416 1_555
La0 O7 2.660381 1_555
La0 O6 2.660533 1_554
La0 O8 2.740884 1_544
La0 O8 2.740923 1_444
La1 O4 2.586567 1_555
La1 O4 2.586592 1_455
La1 O3 2.586705 1_554
La1 O3 2.586714 1_654
La1 O0 2.652213 1_565
La1 O1 2.652562 1_554
La1 O7 2.660294 1_555
La1 O6 2.660324 1_554
La1 O8 2.740837 1_554
La1 O8 2.741016 1_454
Mn0 O5 1.929259 1_555
Mn0 O3 1.929475 1_555
Mn0 O6 2.002309 1_455
Mn0 O6 2.002336 1_555
Mn0 O9 2.094321 1_555
Mn1 O4 1.929226 1_555
Mn1 O2 1.929420 1_555
Mn1 O7 2.002320 1_555
Mn1 O7 2.002324 1_655
Mn1 O10 2.094336 1_655
Mn2 O9 1.928397 1_555
Mn2 O0 1.962140 1_555
Mn2 O0 1.962261 1_455
Mn2 O8 1.967873 1_444
Mn2 O2 2.244068 1_455
Mn2 O4 2.244105 1_445
Mn3 O10 1.928405 1_655
Mn3 O1 1.962194 1_555
Mn3 O1 1.962221 1_655
Mn3 O8 1.967858 1_555
Mn3 O5 2.244040 1_665
Mn3 O3 2.244060 1_655
