# generated using pymatgen
data_Li2Ti3CoO8
_symmetry_space_group_name_H-M   'P 1'
_cell_length_a   5.94548007
_cell_length_b   11.43443894
_cell_length_c   10.29718450
_cell_angle_alpha   116.76183130
_cell_angle_beta   90.00263905
_cell_angle_gamma   74.93843088
_symmetry_Int_Tables_number   1
_chemical_formula_structural   Li2Ti3CoO8
_chemical_formula_sum   'Li8 Ti12 Co4 O32'
_cell_volume   598.00050393
_cell_formula_units_Z   4
loop_
 _symmetry_equiv_pos_site_id
 _symmetry_equiv_pos_as_xyz
  1  'x, y, z'
loop_
 _atom_site_type_symbol
 _atom_site_label
 _atom_site_symmetry_multiplicity
 _atom_site_fract_x
 _atom_site_fract_y
 _atom_site_fract_z
 _atom_site_occupancy
  Li  Li0  1  0.05529804  0.88954140  0.61155114  1
  Li  Li1  1  0.55504629  0.88976523  0.11150849  1
  Li  Li2  1  0.80513077  0.38988056  0.52822810  1
  Li  Li3  1  0.30463619  0.39064932  0.02847292  1
  Li  Li4  1  0.00068573  0.99879987  0.99916238  1
  Li  Li5  1  0.50069407  0.99886450  0.49932492  1
  Li  Li6  1  0.25023020  0.49899061  0.75002260  1
  Li  Li7  1  0.75026736  0.49873694  0.24956675  1
  Ti  Ti0  1  0.14590683  0.21506652  0.19188719  1
  Ti  Ti1  1  0.64582044  0.21529938  0.69182966  1
  Ti  Ti2  1  0.39239057  0.21524310  0.43940005  1
  Ti  Ti3  1  0.89201386  0.21630215  0.93901638  1
  Ti  Ti4  1  0.63946294  0.21495829  0.19185788  1
  Ti  Ti5  1  0.13925253  0.21507108  0.69167059  1
  Ti  Ti6  1  0.39559983  0.71545659  0.77314328  1
  Ti  Ti7  1  0.89607179  0.71490005  0.27352889  1
  Ti  Ti8  1  0.64218532  0.71579364  0.52646101  1
  Ti  Ti9  1  0.14225721  0.71562655  0.02647977  1
  Ti  Ti10  1  0.88884262  0.71564873  0.77335953  1
  Ti  Ti11  1  0.38925836  0.71484143  0.27344103  1
  Co  Co0  1  0.25485272  0.49059395  0.41442238  1
  Co  Co1  1  0.00384975  0.99049161  0.32648478  1
  Co  Co2  1  0.75203694  0.49584653  0.91409319  1
  Co  Co3  1  0.50171775  0.99666269  0.83158137  1
  O  O0  1  0.44781847  0.10452658  0.21893687  1
  O  O1  1  0.94762957  0.10463445  0.71912480  1
  O  O2  1  0.69773324  0.60451135  0.63557149  1
  O  O3  1  0.19753664  0.60471333  0.13560512  1
  O  O4  1  0.34234244  0.31530436  0.65776677  1
  O  O5  1  0.84263994  0.31489360  0.15727846  1
  O  O6  1  0.59248656  0.81511270  0.40690338  1
  O  O7  1  0.09258186  0.81503744  0.90761922  1
  O  O8  1  0.93370772  0.60739595  0.38243597  1
  O  O9  1  0.43318101  0.60692293  0.88270069  1
  O  O10  1  0.19650325  0.60693715  0.64542646  1
  O  O11  1  0.69679276  0.60619191  0.14481174  1
  O  O12  1  0.68365299  0.10748742  0.47458612  1
  O  O13  1  0.18420321  0.10651467  0.97441026  1
  O  O14  1  0.45837137  0.60759155  0.38254051  1
  O  O15  1  0.95949065  0.60706333  0.88278610  1
  O  O16  1  0.94653475  0.10716541  0.21202263  1
  O  O17  1  0.44670298  0.10638644  0.71117041  1
  O  O18  1  0.20911254  0.10733492  0.47458291  1
  O  O19  1  0.70937750  0.10648211  0.97447561  1
  O  O20  1  0.11225580  0.32867690  0.40544176  1
  O  O21  1  0.61154294  0.32780712  0.90534453  1
  O  O22  1  0.33570714  0.32869400  0.18206210  1
  O  O23  1  0.83576378  0.32840362  0.68188376  1
  O  O24  1  0.55934093  0.32867974  0.40541658  1
  O  O25  1  0.06032963  0.32796906  0.90538199  1
  O  O26  1  0.36221000  0.82809496  0.67275635  1
  O  O27  1  0.86218919  0.82864104  0.17304430  1
  O  O28  1  0.58613634  0.82790370  0.89663316  1
  O  O29  1  0.08547511  0.82882064  0.39650970  1
  O  O30  1  0.80973977  0.82808640  0.67269106  1
  O  O31  1  0.30926181  0.82865447  0.17312496  1
loop_
_geom_bond_atom_site_label_1
_geom_bond_atom_site_label_2
_geom_bond_distance
_geom_bond_site_symmetry_2
Li0 O26 1.988189 1_555
Li0 O30 1.988295 1_455
Li0 O29 1.992039 1_555
Li0 O1 2.100983 1_465
Li1 O28 1.988159 1_554
Li1 O31 1.989043 1_555
Li1 O27 1.989998 1_555
Li1 O0 2.097743 1_565
Li2 O24 1.989675 1_555
Li2 O20 1.990446 1_655
Li2 O23 1.991434 1_555
Li2 O2 2.096468 1_555
Li3 O21 1.987894 1_554
Li3 O25 1.988165 1_554
Li3 O22 1.994542 1_555
Li3 O3 2.090932 1_555
Li4 O7 1.794955 1_555
Li4 O13 1.937421 1_565
Li4 O19 1.937503 1_465
Li4 O16 1.946827 1_466
Li5 O6 1.794857 1_555
Li5 O17 1.937226 1_565
Li5 O18 1.943103 1_565
Li5 O12 1.943696 1_565
Li6 O4 1.794214 1_555
Li6 O9 1.936981 1_555
Li6 O15 1.937184 1_455
Li6 O10 1.943671 1_555
Li7 O5 1.795749 1_555
Li7 O11 1.940317 1_555
Li7 O8 1.943797 1_555
Li7 O14 1.943885 1_555
Co0 O10 2.111571 1_555
Co0 O14 2.144407 1_555
Co0 O8 2.146780 1_455
Co0 O20 2.194699 1_555
Co0 O24 2.194783 1_555
Co0 O22 2.220727 1_555
Co1 O16 2.113029 1_465
Co1 O12 2.139840 1_465
Co1 O18 2.147627 1_565
Co1 O27 2.192580 1_455
Co1 O31 2.199458 1_555
Co1 O29 2.215167 1_555
Co2 O15 2.104015 1_555
Co2 O11 2.104575 1_556
Co2 O9 2.104717 1_555
Co2 O23 2.238945 1_555
Co2 O25 2.251419 1_655
Co2 O21 2.253000 1_555
Co3 O17 2.099055 1_565
Co3 O19 2.099483 1_565
Co3 O13 2.099701 1_565
Co3 O26 2.251610 1_555
Co3 O30 2.252055 1_555
Co3 O28 2.254971 1_555
O0 Ti0 2.008758 1_555
O0 Ti4 2.008821 1_555
O0 Ti2 2.014929 1_555
O1 Ti1 2.010039 1_555
O1 Ti5 2.010408 1_655
O1 Ti3 2.010864 1_555
O2 Ti6 2.010073 1_555
O2 Ti10 2.011355 1_555
O2 Ti8 2.014837 1_555
O3 Ti7 2.008017 1_455
O3 Ti11 2.008928 1_555
O3 Ti9 2.011422 1_555
O4 Ti2 1.989949 1_555
O4 Ti5 1.993247 1_555
O4 Ti1 1.993753 1_555
O5 Ti3 1.988613 1_554
O5 Ti4 1.993903 1_555
O5 Ti0 1.994401 1_655
O6 Ti11 1.990986 1_555
O6 Ti7 1.991274 1_555
O6 Ti8 1.994321 1_555
O7 Ti9 1.988903 1_556
O7 Ti10 1.992615 1_455
O7 Ti6 1.993456 1_555
O8 Ti7 1.979196 1_555
O8 Ti8 1.992027 1_555
O9 Ti9 1.988551 1_556
O9 Ti6 1.994852 1_555
O10 Ti6 1.991004 1_555
O10 Ti10 1.992568 1_455
O11 Ti11 1.994678 1_555
O11 Ti7 1.996789 1_555
O12 Ti2 1.985259 1_555
O12 Ti1 1.986684 1_555
O13 Ti0 1.989310 1_556
O13 Ti3 2.001302 1_455
O14 Ti11 1.978282 1_555
O14 Ti8 1.993158 1_555
O15 Ti9 1.989435 1_656
O15 Ti10 1.994120 1_555
O16 Ti4 1.989069 1_555
O16 Ti0 1.990171 1_655
O17 Ti5 1.992531 1_555
O17 Ti1 1.995415 1_555
O18 Ti5 1.985265 1_555
O18 Ti2 1.985558 1_555
O19 Ti4 1.988361 1_556
O19 Ti3 2.002718 1_555
O20 Ti0 1.963570 1_555
O20 Ti2 1.965780 1_555
O21 Ti3 1.954381 1_555
O21 Ti1 1.961371 1_555
O22 Ti0 1.962679 1_555
O22 Ti4 1.964818 1_555
O23 Ti1 1.958759 1_555
O23 Ti5 1.961545 1_655
O24 Ti4 1.963830 1_555
O24 Ti2 1.966737 1_555
O25 Ti3 1.952968 1_455
O25 Ti5 1.963756 1_555
O26 Ti6 1.957770 1_555
O26 Ti8 1.958668 1_555
O27 Ti9 1.961089 1_655
O27 Ti7 1.969361 1_555
O28 Ti10 1.957093 1_555
O28 Ti6 1.959062 1_555
O29 Ti7 1.960925 1_455
O29 Ti11 1.963698 1_555
O30 Ti8 1.957512 1_555
O30 Ti10 1.958205 1_555
O31 Ti9 1.961041 1_555
O31 Ti11 1.968694 1_555
