# generated using pymatgen
data_KBa(FeAs)4
_symmetry_space_group_name_H-M   'P 1'
_cell_length_a   7.13170472
_cell_length_b   7.13170472
_cell_length_c   5.47902700
_cell_angle_alpha   90.00000000
_cell_angle_beta   90.00000000
_cell_angle_gamma   134.81163920
_symmetry_Int_Tables_number   1
_chemical_formula_structural   KBa(FeAs)4
_chemical_formula_sum   'K1 Ba1 Fe4 As4'
_cell_volume   197.69615182
_cell_formula_units_Z   1
loop_
 _symmetry_equiv_pos_site_id
 _symmetry_equiv_pos_as_xyz
  1  'x, y, z'
loop_
 _atom_site_type_symbol
 _atom_site_label
 _atom_site_symmetry_multiplicity
 _atom_site_fract_x
 _atom_site_fract_y
 _atom_site_fract_z
 _atom_site_occupancy
  K  K0  1  0.00000000  0.00000000  0.00000000  1
  Ba  Ba0  1  0.50000000  0.50000000  0.50000000  1
  Fe  Fe0  1  0.50000000  0.00000000  0.75004200  1
  Fe  Fe1  1  0.00000000  0.50000000  0.24995800  1
  Fe  Fe2  1  0.00000000  0.50000000  0.75004200  1
  Fe  Fe3  1  0.50000000  0.00000000  0.24995800  1
  As  As0  1  0.65432200  0.34567800  0.00000000  1
  As  As1  1  0.15429300  0.84570700  0.50000000  1
  As  As2  1  0.84570700  0.15429300  0.50000000  1
  As  As3  1  0.34567800  0.65432200  0.00000000  1
loop_
_geom_bond_atom_site_label_1
_geom_bond_atom_site_label_2
_geom_bond_distance
_geom_bond_site_symmetry_2
As0 Fe3 2.310844 1_555
As0 Fe0 2.310844 1_554
As0 Fe2 2.310844 1_654
As0 Fe1 2.310844 1_655
As0 Ba0 3.410988 1_555
As0 Ba0 3.410988 1_554
As0 K0 3.411389 1_555
As0 K0 3.411389 1_665
As1 Fe3 2.311325 1_565
As1 Fe0 2.311325 1_565
As1 Fe2 2.311325 1_555
As1 Fe1 2.311325 1_555
As1 K0 3.410761 1_565
As1 K0 3.410761 1_566
As1 Ba0 3.411161 1_455
As1 Ba0 3.411161 1_565
As2 Fe3 2.311325 1_555
As2 Fe0 2.311325 1_555
As2 Fe2 2.311325 1_655
As2 Fe1 2.311325 1_655
As2 K0 3.410761 1_655
As2 K0 3.410761 1_656
As2 Ba0 3.411161 1_655
As2 Ba0 3.411161 1_545
As3 Fe1 2.310844 1_555
As3 Fe2 2.310844 1_554
As3 Fe3 2.310844 1_565
As3 Fe0 2.310844 1_564
As3 Ba0 3.410988 1_554
As3 Ba0 3.410988 1_555
As3 K0 3.411389 1_555
As3 K0 3.411389 1_665
