# generated using pymatgen
data_Rb3LaBr6
_symmetry_space_group_name_H-M   'P 1'
_cell_length_a   8.53357288
_cell_length_b   13.60877596
_cell_length_c   14.34657210
_cell_angle_alpha   71.29574079
_cell_angle_beta   90.00000000
_cell_angle_gamma   90.00000000
_symmetry_Int_Tables_number   1
_chemical_formula_structural   Rb3LaBr6
_chemical_formula_sum   'Rb12 La4 Br24'
_cell_volume   1578.09660108
_cell_formula_units_Z   4
loop_
 _symmetry_equiv_pos_site_id
 _symmetry_equiv_pos_as_xyz
  1  'x, y, z'
loop_
 _atom_site_type_symbol
 _atom_site_label
 _atom_site_symmetry_multiplicity
 _atom_site_fract_x
 _atom_site_fract_y
 _atom_site_fract_z
 _atom_site_occupancy
  Rb  Rb0  1  0.43743049  0.73624676  0.31627357  1
  Rb  Rb1  1  0.56256951  0.26375324  0.68372643  1
  Rb  Rb2  1  0.93743049  0.76375324  0.68372643  1
  Rb  Rb3  1  0.06256951  0.23624676  0.31627357  1
  Rb  Rb4  1  0.95787457  0.64146939  0.09714970  1
  Rb  Rb5  1  0.04212543  0.35853061  0.90285030  1
  Rb  Rb6  1  0.45787457  0.85853061  0.90285030  1
  Rb  Rb7  1  0.54212543  0.14146939  0.09714970  1
  Rb  Rb8  1  0.92743720  0.88737487  0.31793999  1
  Rb  Rb9  1  0.07256280  0.11262513  0.68206001  1
  Rb  Rb10  1  0.42743720  0.61262513  0.68206001  1
  Rb  Rb11  1  0.57256280  0.38737487  0.31793999  1
  La  La0  1  0.00000000  0.50000000  0.50000000  1
  La  La1  1  0.50000000  0.00000000  0.50000000  1
  La  La2  1  0.00000000  0.00000000  -0.00000000  1
  La  La3  1  0.50000000  0.50000000  -0.00000000  1
  Br  Br0  1  0.50088805  0.63524915  0.12000690  1
  Br  Br1  1  0.49911195  0.36475085  0.87999310  1
  Br  Br2  1  0.00088805  0.86475085  0.87999310  1
  Br  Br3  1  0.99911195  0.13524915  0.12000690  1
  Br  Br4  1  0.28823637  0.99559756  0.34045971  1
  Br  Br5  1  0.71176363  0.00440244  0.65954029  1
  Br  Br6  1  0.78823637  0.50440244  0.65954029  1
  Br  Br7  1  0.21176363  0.49559756  0.34045971  1
  Br  Br8  1  0.78658858  0.61068984  0.33905465  1
  Br  Br9  1  0.21341142  0.38931016  0.66094535  1
  Br  Br10  1  0.28658858  0.88931016  0.66094535  1
  Br  Br11  1  0.71341142  0.11068984  0.33905465  1
  Br  Br12  1  0.64403471  0.80134947  0.50099575  1
  Br  Br13  1  0.35596529  0.19865053  0.49900425  1
  Br  Br14  1  0.14403471  0.69865053  0.49900425  1
  Br  Br15  1  0.85596529  0.30134947  0.50099575  1
  Br  Br16  1  0.17390099  0.83727502  0.14479553  1
  Br  Br17  1  0.82609901  0.16272498  0.85520447  1
  Br  Br18  1  0.67390099  0.66272498  0.85520447  1
  Br  Br19  1  0.32609901  0.33727502  0.14479553  1
  Br  Br20  1  0.70652240  0.90394115  0.10287901  1
  Br  Br21  1  0.29347760  0.09605885  0.89712099  1
  Br  Br22  1  0.20652240  0.59605885  0.89712099  1
  Br  Br23  1  0.79347760  0.40394115  0.10287901  1
loop_
_geom_bond_atom_site_label_1
_geom_bond_atom_site_label_2
_geom_bond_distance
_geom_bond_site_symmetry_2
Br0 La3 2.895584 1_555
Br0 Rb0 3.548663 1_555
Br0 Rb6 3.605862 1_554
Br0 Rb11 3.697715 1_555
Br0 Rb4 3.912131 1_555
Br1 La3 2.895584 1_556
Br1 Rb1 3.548663 1_555
Br1 Rb7 3.605862 1_556
Br1 Rb10 3.697715 1_555
Br1 Rb5 3.912131 1_555
Br2 La2 2.895584 1_566
Br2 Rb2 3.548663 1_455
Br2 Rb4 3.605862 1_456
Br2 Rb9 3.697715 1_565
Br2 Rb6 3.912131 1_555
Br3 La2 2.895584 1_655
Br3 Rb3 3.548663 1_655
Br3 Rb5 3.605862 1_654
Br3 Rb8 3.697715 1_545
Br3 Rb7 3.912131 1_555
Br4 La1 2.931896 1_565
Br4 Rb8 3.472506 1_455
Br4 Rb3 3.718239 1_565
Br4 Rb0 3.870891 1_555
Br4 Rb7 4.046636 1_565
Br5 La1 2.931896 1_555
Br5 Rb9 3.472506 1_655
Br5 Rb2 3.718239 1_545
Br5 Rb1 3.870891 1_555
Br5 Rb6 4.046636 1_545
Br6 La0 2.931896 1_655
Br6 Rb10 3.472506 1_555
Br6 Rb1 3.718239 1_555
Br6 Rb2 3.870891 1_555
Br6 Rb5 4.046636 1_655
Br7 La0 2.931896 1_555
Br7 Rb11 3.472506 1_555
Br7 Rb0 3.718239 1_555
Br7 Rb3 3.870891 1_555
Br7 Rb4 4.046636 1_455
Br8 La0 2.947284 1_655
Br8 Rb0 3.397946 1_555
Br8 Rb11 3.640569 1_555
Br8 Rb4 3.663882 1_555
Br8 Rb8 3.870749 1_555
Br9 La0 2.947284 1_555
Br9 Rb1 3.397946 1_555
Br9 Rb10 3.640569 1_555
Br9 Rb5 3.663882 1_555
Br9 Rb9 3.870749 1_555
Br10 La1 2.947284 1_565
Br10 Rb2 3.397946 1_455
Br10 Rb9 3.640569 1_565
Br10 Rb6 3.663882 1_555
Br10 Rb10 3.870749 1_555
Br11 La1 2.947284 1_555
Br11 Rb3 3.397946 1_655
Br11 Rb8 3.640569 1_545
Br11 Rb7 3.663882 1_555
Br11 Rb11 3.870749 1_555
Br12 La1 2.965555 1_565
Br12 Rb8 3.484899 1_555
Br12 Rb0 3.524548 1_555
Br12 Rb10 3.532913 1_555
Br12 Rb2 3.541563 1_555
Br13 La1 2.965555 1_555
Br13 Rb9 3.484899 1_555
Br13 Rb1 3.524548 1_555
Br13 Rb11 3.532913 1_555
Br13 Rb3 3.541563 1_555
Br14 La0 2.965555 1_555
Br14 Rb10 3.484899 1_555
Br14 Rb2 3.524548 1_455
Br14 Rb8 3.532913 1_455
Br14 Rb0 3.541563 1_555
Br15 La0 2.965555 1_655
Br15 Rb11 3.484899 1_555
Br15 Rb3 3.524548 1_655
Br15 Rb9 3.532913 1_655
Br15 Rb1 3.541563 1_555
Br16 La2 2.910506 1_565
Br16 Rb0 3.290967 1_555
Br16 Rb4 3.483442 1_455
Br16 Rb8 3.484967 1_455
Br17 La2 2.910506 1_656
Br17 Rb1 3.290967 1_555
Br17 Rb5 3.483442 1_655
Br17 Rb9 3.484967 1_655
Br18 La3 2.910506 1_556
Br18 Rb2 3.290967 1_555
Br18 Rb6 3.483442 1_555
Br18 Rb10 3.484967 1_555
Br19 La3 2.910506 1_555
Br19 Rb3 3.290967 1_555
Br19 Rb7 3.483442 1_555
Br19 Rb11 3.484967 1_555
Br20 La2 2.986963 1_665
Br20 Rb7 3.500473 1_565
Br20 Rb8 3.560655 1_555
Br20 Rb6 3.775834 1_554
Br20 Rb0 3.920813 1_555
Br21 La2 2.986963 1_556
Br21 Rb6 3.500473 1_545
Br21 Rb9 3.560655 1_555
Br21 Rb7 3.775834 1_556
Br21 Rb1 3.920813 1_555
Br22 La3 2.986963 1_556
Br22 Rb5 3.500473 1_555
Br22 Rb10 3.560655 1_555
Br22 Rb4 3.775834 1_456
Br22 Rb2 3.920813 1_455
Br23 La3 2.986963 1_555
Br23 Rb4 3.500473 1_555
Br23 Rb11 3.560655 1_555
Br23 Rb5 3.775834 1_654
Br23 Rb3 3.920813 1_655
