# generated using pymatgen
data_Yb2WN2O3
_symmetry_space_group_name_H-M   'P 1'
_cell_length_a   8.92923437
_cell_length_b   8.92923437
_cell_length_c   8.92923437
_cell_angle_alpha   157.49211259
_cell_angle_beta   157.49211259
_cell_angle_gamma   32.04261892
_symmetry_Int_Tables_number   1
_chemical_formula_structural   Yb2WN2O3
_chemical_formula_sum   'Yb2 W1 N2 O3'
_cell_volume   104.24852191
_cell_formula_units_Z   1
loop_
 _symmetry_equiv_pos_site_id
 _symmetry_equiv_pos_as_xyz
  1  'x, y, z'
loop_
 _atom_site_type_symbol
 _atom_site_label
 _atom_site_symmetry_multiplicity
 _atom_site_fract_x
 _atom_site_fract_y
 _atom_site_fract_z
 _atom_site_occupancy
  Yb  Yb0  1  0.66520600  0.66520600  0.00000000  1
  Yb  Yb1  1  0.33479400  0.33479400  0.00000000  1
  W  W0  1  0.00000000  0.00000000  0.00000000  1
  N  N0  1  0.06686500  0.56686500  0.50000000  1
  N  N1  1  0.43313500  0.93313500  0.50000000  1
  O  O0  1  0.75000000  0.25000000  0.50000000  1
  O  O1  1  0.92459300  0.42459300  0.50000000  1
  O  O2  1  0.57540700  0.07540700  0.50000000  1
loop_
_geom_bond_atom_site_label_1
_geom_bond_atom_site_label_2
_geom_bond_distance
_geom_bond_site_symmetry_2
N0 W0 2.086616 1_566
N0 W0 2.086616 1_555
N0 Yb0 2.426119 1_455
N0 Yb0 2.426119 1_556
N1 W0 2.086616 1_666
N1 W0 2.086616 1_565
N1 Yb1 2.426119 1_555
N1 Yb1 2.426119 1_566
O0 Yb1 2.270484 1_555
O0 Yb1 2.270484 1_656
O0 Yb0 2.270484 1_545
O0 Yb0 2.270484 1_556
O1 W0 2.170720 1_666
O1 W0 2.170720 1_655
O1 Yb1 2.326490 1_656
O1 Yb1 2.326490 1_555
O2 W0 2.170720 1_555
O2 W0 2.170720 1_656
O2 Yb0 2.326490 1_556
O2 Yb0 2.326490 1_545
