# generated using pymatgen
data_Na2Ga2Si3(HO3)4
_symmetry_space_group_name_H-M   'P 1'
_cell_length_a   9.96491400
_cell_length_b   10.07761436
_cell_length_c   13.44150377
_cell_angle_alpha   109.21190197
_cell_angle_beta   109.30371048
_cell_angle_gamma   83.82325745
_symmetry_Int_Tables_number   1
_chemical_formula_structural   Na2Ga2Si3(HO3)4
_chemical_formula_sum   'Na8 Ga8 Si12 H16 O48'
_cell_volume   1202.99275182
_cell_formula_units_Z   4
loop_
 _symmetry_equiv_pos_site_id
 _symmetry_equiv_pos_as_xyz
  1  'x, y, z'
loop_
 _atom_site_type_symbol
 _atom_site_label
 _atom_site_symmetry_multiplicity
 _atom_site_fract_x
 _atom_site_fract_y
 _atom_site_fract_z
 _atom_site_occupancy
  Na  Na0  1  0.55336000  0.94017400  0.17700100  1
  Na  Na1  1  0.05425600  0.56146500  0.08239900  1
  Na  Na2  1  0.94590700  0.44240900  0.27588200  1
  Na  Na3  1  0.43852300  0.06100700  0.42789400  1
  Na  Na4  1  0.55816100  0.94135400  0.67760300  1
  Na  Na5  1  0.05857400  0.55908400  0.57938900  1
  Na  Na6  1  0.93994100  0.44009900  0.77108500  1
  Na  Na7  1  0.44347600  0.05902500  0.92840200  1
  Ga  Ga0  1  0.92114100  0.81093500  0.23933300  1
  Ga  Ga1  1  0.80372800  0.08155200  0.15359800  1
  Ga  Ga2  1  0.42271500  0.68998200  0.20756300  1
  Ga  Ga3  1  0.07173800  0.18908100  0.36888300  1
  Ga  Ga4  1  0.92936900  0.81203200  0.73842700  1
  Ga  Ga5  1  0.57409100  0.31224100  0.65068300  1
  Ga  Ga6  1  0.43004300  0.68557600  0.70728700  1
  Ga  Ga7  1  0.07449600  0.18327500  0.86618700  1
  Si  Si0  1  0.99698600  0.99735800  0.99477500  1
  Si  Si1  1  0.69103200  0.57531400  0.12449000  1
  Si  Si2  1  0.56643000  0.31796100  0.15022100  1
  Si  Si3  1  0.18978500  0.92257000  0.21054600  1
  Si  Si4  1  0.00122500  0.99768800  0.49870500  1
  Si  Si5  1  0.50092900  0.50313900  0.37217600  1
  Si  Si6  1  0.30948700  0.42073900  0.48928300  1
  Si  Si7  1  0.69522800  0.57632100  0.62103600  1
  Si  Si8  1  0.80720600  0.07803000  0.65330400  1
  Si  Si9  1  0.19749800  0.92095000  0.70985300  1
  Si  Si10  1  0.50360700  0.49898200  0.87495600  1
  Si  Si11  1  0.30583600  0.42737300  0.99261700  1
  H  H0  1  0.29549800  0.88374000  0.00151000  1
  H  H1  1  0.10037200  0.28929200  0.11348100  1
  H  H2  1  0.20327900  0.38269900  0.22815200  1
  H  H3  1  0.90301300  0.71095500  0.41880600  1
  H  H4  1  0.79764700  0.61870600  0.43690200  1
  H  H5  1  0.60494700  0.20663900  0.34258400  1
  H  H6  1  0.39988200  0.79123000  0.43891100  1
  H  H7  1  0.70547200  0.11382500  0.41075900  1
  H  H8  1  0.29595300  0.88451800  0.50226900  1
  H  H9  1  0.09913100  0.28987400  0.61305500  1
  H  H10  1  0.20448700  0.38242200  0.72663900  1
  H  H11  1  0.90477700  0.70954800  0.91827200  1
  H  H12  1  0.79752800  0.61930600  0.93571700  1
  H  H13  1  0.60295800  0.20835500  0.84460100  1
  H  H14  1  0.39978200  0.79028800  0.93867900  1
  H  H15  1  0.70477800  0.11089300  0.91259800  1
  O  O0  1  0.84891700  0.03940100  0.02397000  1
  O  O1  1  0.78370000  0.92149100  0.18216400  1
  O  O2  1  0.13290400  0.95939200  0.09246200  1
  O  O3  1  0.41646800  0.31670000  0.04839800  1
  O  O4  1  0.85843400  0.62107600  0.17622300  1
  O  O5  1  0.29303400  0.56980200  0.09014800  1
  O  O6  1  0.58850000  0.69512400  0.17613300  1
  O  O7  1  0.67937000  0.42808300  0.15244800  1
  O  O8  1  0.61655800  0.15598100  0.12250800  1
  O  O9  1  0.35684000  0.87104100  0.22881100  1
  O  O10  1  0.08979600  0.79968600  0.20509800  1
  O  O11  1  0.91088600  0.22056800  0.26704000  1
  O  O12  1  0.96175700  0.85541900  0.39197000  1
  O  O13  1  0.11130300  0.38223500  0.17131800  1
  O  O14  1  0.53798200  0.37108300  0.27231500  1
  O  O15  1  0.45868300  0.64511900  0.33689800  1
  O  O16  1  0.88992700  0.61836900  0.42631400  1
  O  O17  1  0.60967100  0.11880300  0.35946700  1
  O  O18  1  0.36656200  0.45224300  0.39530700  1
  O  O19  1  0.20055800  0.06525000  0.31508400  1
  O  O20  1  0.38992600  0.88272100  0.49351500  1
  O  O21  1  0.64261000  0.53441900  0.48254100  1
  O  O22  1  0.14445900  0.37096600  0.42902600  1
  O  O23  1  0.86097700  0.03898100  0.54285400  1
  O  O24  1  0.80129900  0.93643600  0.68506500  1
  O  O25  1  0.14138600  0.95840300  0.59189700  1
  O  O26  1  0.40958100  0.29918200  0.53321200  1
  O  O27  1  0.86033800  0.63004300  0.66704100  1
  O  O28  1  0.30357400  0.56506600  0.58852200  1
  O  O29  1  0.04278600  0.13824900  0.48100000  1
  O  O30  1  0.59201100  0.69754000  0.67193500  1
  O  O31  1  0.70104700  0.43477800  0.65559600  1
  O  O32  1  0.64128900  0.13040300  0.61842700  1
  O  O33  1  0.36327000  0.86772400  0.73037000  1
  O  O34  1  0.09529400  0.79961100  0.70267100  1
  O  O35  1  0.90958600  0.20049100  0.75593800  1
  O  O36  1  0.96973400  0.85239600  0.88864800  1
  O  O37  1  0.10974000  0.38122500  0.67297600  1
  O  O38  1  0.54139000  0.35918500  0.78548300  1
  O  O39  1  0.46220200  0.63892300  0.83565900  1
  O  O40  1  0.89066700  0.61757800  0.92630700  1
  O  O41  1  0.61030500  0.11744300  0.85927900  1
  O  O42  1  0.36665600  0.45825800  0.90251200  1
  O  O43  1  0.20604400  0.06534800  0.81310700  1
  O  O44  1  0.38945800  0.88199700  0.99274400  1
  O  O45  1  0.64349600  0.53707600  0.98820200  1
  O  O46  1  0.14559700  0.36506600  0.92829000  1
  O  O47  1  0.04916100  0.13561800  0.97859400  1
loop_
_geom_bond_atom_site_label_1
_geom_bond_atom_site_label_2
_geom_bond_distance
_geom_bond_site_symmetry_2
Na0 O1 2.262529 1_555
Na0 O44 2.391925 1_554
Na0 O17 2.443878 1_565
Na0 O6 2.453351 1_555
Na0 O9 2.513939 1_555
Na0 O8 2.703894 1_565
Na1 O5 2.356452 1_555
Na1 O40 2.387552 1_454
Na1 O13 2.400971 1_555
Na1 O10 2.408290 1_555
Na1 O4 2.575905 1_455
Na1 O46 2.682801 1_554
Na2 O11 2.258218 1_555
Na2 O16 2.391100 1_555
Na2 O13 2.411456 1_655
Na2 O4 2.504755 1_555
Na2 O22 2.578078 1_655
Na2 O7 2.615224 1_555
Na3 O19 2.359604 1_555
Na3 O17 2.386897 1_555
Na3 O26 2.394385 1_555
Na3 O20 2.398594 1_545
Na3 O32 2.614332 1_555
Na3 O9 2.648028 1_545
Na4 O24 2.387358 1_555
Na4 O20 2.406384 1_555
Na4 O30 2.423260 1_555
Na4 O41 2.426919 1_565
Na4 O33 2.528331 1_555
Na4 O32 2.592503 1_565
Na5 O16 2.391979 1_455
Na5 O28 2.409939 1_555
Na5 O34 2.429366 1_555
Na5 O37 2.432750 1_555
Na5 O27 2.545971 1_455
Na5 O22 2.585367 1_555
Na6 O31 2.368364 1_555
Na6 O37 2.387119 1_655
Na6 O35 2.399276 1_555
Na6 O40 2.413629 1_555
Na6 O27 2.636428 1_555
Na6 O46 2.663023 1_655
Na7 O41 2.359098 1_555
Na7 O43 2.368963 1_555
Na7 O44 2.397983 1_545
Na7 O8 2.538985 1_556
Na7 O3 2.607146 1_556
Na7 O33 2.643592 1_545
Ga0 O1 1.801899 1_555
Ga0 O12 1.859800 1_555
Ga0 O10 1.866848 1_655
Ga0 O4 1.899874 1_555
Ga1 O11 1.807627 1_555
Ga1 O1 1.821179 1_545
Ga1 O0 1.846519 1_555
Ga1 O8 1.898915 1_555
Ga2 O5 1.832486 1_555
Ga2 O9 1.834405 1_555
Ga2 O6 1.845167 1_555
Ga2 O15 1.850822 1_555
Ga3 O11 1.808195 1_455
Ga3 O19 1.844770 1_555
Ga3 O29 1.855827 1_555
Ga3 O22 1.860575 1_555
Ga4 O24 1.832274 1_555
Ga4 O36 1.833599 1_555
Ga4 O34 1.849796 1_655
Ga4 O27 1.853221 1_555
Ga5 O31 1.832229 1_555
Ga5 O26 1.842880 1_555
Ga5 O32 1.843749 1_555
Ga5 O38 1.845558 1_555
Ga6 O28 1.826160 1_555
Ga6 O33 1.845896 1_555
Ga6 O30 1.852558 1_555
Ga6 O39 1.853921 1_555
Ga7 O47 1.825685 1_555
Ga7 O43 1.834351 1_555
Ga7 O35 1.850523 1_455
Ga7 O46 1.853897 1_555
H0 O44 0.979232 1_554
H1 O13 0.990095 1_555
H2 O13 0.979440 1_555
H3 O16 0.997305 1_555
H4 O16 0.975395 1_555
H5 O17 0.976435 1_555
H6 O20 0.990826 1_555
H7 O17 0.983110 1_555
H8 O20 0.979223 1_555
H9 O37 0.991997 1_555
H10 O37 0.978934 1_555
H11 O40 0.997209 1_555
H12 O40 0.974884 1_555
H13 O41 0.989262 1_555
H14 O44 0.989852 1_555
H15 O41 0.987899 1_555
O0 Si0 1.627718 1_544
O2 Si3 1.651005 1_555
O2 Si0 1.657787 1_454
O3 Si2 1.657377 1_555
O3 Si11 1.661548 1_554
O4 Si1 1.632944 1_555
O5 Si11 1.621079 1_554
O6 Si1 1.623404 1_555
O7 Si2 1.650370 1_555
O7 Si1 1.670073 1_555
O8 Si2 1.612542 1_555
O9 Si3 1.651907 1_555
O10 Si3 1.639914 1_555
O12 Si4 1.631910 1_655
O14 Si5 1.659944 1_555
O14 Si2 1.660414 1_555
O15 Si5 1.623036 1_555
O18 Si5 1.637231 1_555
O18 Si6 1.672625 1_555
O19 Si3 1.630104 1_545
O21 Si5 1.642141 1_555
O21 Si7 1.674419 1_555
O22 Si6 1.625259 1_555
O23 Si4 1.655039 1_645
O23 Si8 1.655933 1_555
O24 Si8 1.630170 1_565
O25 Si4 1.651442 1_555
O25 Si9 1.652643 1_555
O26 Si6 1.633364 1_555
O27 Si7 1.637441 1_555
O28 Si6 1.629407 1_555
O29 Si4 1.627252 1_545
O30 Si7 1.631904 1_555
O31 Si7 1.629203 1_555
O32 Si8 1.641496 1_555
O33 Si9 1.642571 1_555
O34 Si9 1.633134 1_555
O35 Si8 1.639198 1_555
O36 Si0 1.643340 1_555
O38 Si10 1.625747 1_555
O39 Si10 1.630661 1_555
O42 Si11 1.644706 1_555
O42 Si10 1.650092 1_555
O43 Si9 1.634138 1_545
O45 Si1 1.652199 1_556
O45 Si10 1.653878 1_555
O46 Si11 1.623941 1_555
O47 Si0 1.639844 1_445
