# generated using pymatgen
data_TlFeC3NO4
_symmetry_space_group_name_H-M   'P 1'
_cell_length_a   9.13706000
_cell_length_b   9.13706000
_cell_length_c   9.13706000
_cell_angle_alpha   90.00000000
_cell_angle_beta   90.00000000
_cell_angle_gamma   90.00000000
_symmetry_Int_Tables_number   1
_chemical_formula_structural   TlFeC3NO4
_chemical_formula_sum   'Tl4 Fe4 C12 N4 O16'
_cell_volume   762.81536171
_cell_formula_units_Z   4
loop_
 _symmetry_equiv_pos_site_id
 _symmetry_equiv_pos_as_xyz
  1  'x, y, z'
loop_
 _atom_site_type_symbol
 _atom_site_label
 _atom_site_symmetry_multiplicity
 _atom_site_fract_x
 _atom_site_fract_y
 _atom_site_fract_z
 _atom_site_occupancy
  Tl  Tl0  1  0.94022600  0.55977400  0.44022600  1
  Tl  Tl1  1  0.55977400  0.44022600  0.94022600  1
  Tl  Tl2  1  0.44022600  0.94022600  0.55977400  1
  Tl  Tl3  1  0.05977400  0.05977400  0.05977400  1
  Fe  Fe0  1  0.44072800  0.05927200  0.94072800  1
  Fe  Fe1  1  0.05927200  0.94072800  0.44072800  1
  Fe  Fe2  1  0.94072800  0.44072800  0.05927200  1
  Fe  Fe3  1  0.55927200  0.55927200  0.55927200  1
  C  C0  1  0.06220500  0.91187000  0.63220000  1
  C  C1  1  0.91187000  0.63220000  0.06220500  1
  C  C2  1  0.41187000  0.86780000  0.93779500  1
  C  C3  1  0.08813000  0.13220000  0.43779500  1
  C  C4  1  0.86780000  0.93779500  0.41187000  1
  C  C5  1  0.43779500  0.08813000  0.13220000  1
  C  C6  1  0.93779500  0.41187000  0.86780000  1
  C  C7  1  0.58813000  0.36780000  0.56220500  1
  C  C8  1  0.13220000  0.43779500  0.08813000  1
  C  C9  1  0.56220500  0.58813000  0.36780000  1
  C  C10  1  0.36780000  0.56220500  0.58813000  1
  C  C11  1  0.63220000  0.06220500  0.91187000  1
  N  N0  1  0.33622000  0.16378000  0.83622000  1
  N  N1  1  0.16378000  0.83622000  0.33622000  1
  N  N2  1  0.83622000  0.33622000  0.16378000  1
  N  N3  1  0.66378000  0.66378000  0.66378000  1
  O  O0  1  0.26023900  0.23976100  0.76023900  1
  O  O1  1  0.23976100  0.76023900  0.26023900  1
  O  O2  1  0.76023900  0.26023900  0.23976100  1
  O  O3  1  0.73976100  0.73976100  0.73976100  1
  O  O4  1  0.89349600  0.75885900  0.06663800  1
  O  O5  1  0.06663800  0.89349600  0.75885900  1
  O  O6  1  0.75885900  0.06663800  0.89349600  1
  O  O7  1  0.93336200  0.39349600  0.74114100  1
  O  O8  1  0.43336200  0.10650400  0.25885900  1
  O  O9  1  0.74114100  0.93336200  0.39349600  1
  O  O10  1  0.10650400  0.25885900  0.43336200  1
  O  O11  1  0.39349600  0.74114100  0.93336200  1
  O  O12  1  0.60650400  0.24114100  0.56663800  1
  O  O13  1  0.56663800  0.60650400  0.24114100  1
  O  O14  1  0.24114100  0.56663800  0.60650400  1
  O  O15  1  0.25885900  0.43336200  0.10650400  1
loop_
_geom_bond_atom_site_label_1
_geom_bond_atom_site_label_2
_geom_bond_distance
_geom_bond_site_symmetry_2
Fe0 N0 1.653928 1_555
Fe1 N1 1.653928 1_555
Fe2 N2 1.653928 1_555
Fe3 N3 1.653928 1_555
C0 O5 1.170106 1_555
C0 Fe1 1.769453 1_555
C1 O4 1.170106 1_555
C1 Fe2 1.769453 1_555
C2 O11 1.170106 1_555
C2 Fe0 1.769453 1_565
C3 O10 1.170106 1_555
C3 Fe1 1.769453 1_545
C4 O9 1.170106 1_555
C4 Fe1 1.769453 1_655
C5 O8 1.170106 1_555
C5 Fe0 1.769453 1_554
C6 O7 1.170106 1_555
C6 Fe2 1.769453 1_556
C7 O12 1.170106 1_555
C7 Fe3 1.769453 1_555
C8 O15 1.170106 1_555
C8 Fe2 1.769453 1_455
C9 O13 1.170106 1_555
C9 Fe3 1.769453 1_555
C10 O14 1.170106 1_555
C10 Fe3 1.769453 1_555
C11 O6 1.170106 1_555
C11 Fe0 1.769453 1_555
N0 O0 1.202464 1_555
N1 O1 1.202464 1_555
N2 O2 1.202464 1_555
N3 O3 1.202464 1_555
