# generated using pymatgen
data_HfZrO4
_symmetry_space_group_name_H-M   'P 1'
_cell_length_a   10.22960100
_cell_length_b   10.22960100
_cell_length_c   10.22960100
_cell_angle_alpha   90.00000000
_cell_angle_beta   90.00000000
_cell_angle_gamma   90.00000000
_symmetry_Int_Tables_number   1
_chemical_formula_structural   HfZrO4
_chemical_formula_sum   'Hf16 Zr16 O64'
_cell_volume   1070.47390236
_cell_formula_units_Z   16
loop_
 _symmetry_equiv_pos_site_id
 _symmetry_equiv_pos_as_xyz
  1  'x, y, z'
loop_
 _atom_site_type_symbol
 _atom_site_label
 _atom_site_symmetry_multiplicity
 _atom_site_fract_x
 _atom_site_fract_y
 _atom_site_fract_z
 _atom_site_occupancy
  Hf  Hf0  1  0.12381100  0.37437900  0.37387300  1
  Hf  Hf1  1  0.12612700  0.87618900  0.87437900  1
  Hf  Hf2  1  0.12562100  0.62612700  0.62381100  1
  Hf  Hf3  1  0.12458300  0.12458300  0.12458300  1
  Hf  Hf4  1  0.37541700  0.87541700  0.62458300  1
  Hf  Hf5  1  0.37437900  0.37387300  0.12381100  1
  Hf  Hf6  1  0.37387300  0.12381100  0.37437900  1
  Hf  Hf7  1  0.37618900  0.62562100  0.87387300  1
  Hf  Hf8  1  0.62381100  0.12562100  0.62612700  1
  Hf  Hf9  1  0.62612700  0.62381100  0.12562100  1
  Hf  Hf10  1  0.62562100  0.87387300  0.37618900  1
  Hf  Hf11  1  0.62458300  0.37541700  0.87541700  1
  Hf  Hf12  1  0.87541700  0.62458300  0.37541700  1
  Hf  Hf13  1  0.87437900  0.12612700  0.87618900  1
  Hf  Hf14  1  0.87387300  0.37618900  0.62562100  1
  Hf  Hf15  1  0.87618900  0.87437900  0.12612700  1
  Zr  Zr0  1  0.12610200  0.62522600  0.12356000  1
  Zr  Zr1  1  0.12356000  0.12610200  0.62522600  1
  Zr  Zr2  1  0.12512600  0.87487400  0.37487400  1
  Zr  Zr3  1  0.12522600  0.37644000  0.87389800  1
  Zr  Zr4  1  0.37477400  0.62356000  0.37389800  1
  Zr  Zr5  1  0.37487400  0.12512600  0.87487400  1
  Zr  Zr6  1  0.37644000  0.87389800  0.12522600  1
  Zr  Zr7  1  0.37389800  0.37477400  0.62356000  1
  Zr  Zr8  1  0.62610200  0.87477400  0.87644000  1
  Zr  Zr9  1  0.62356000  0.37389800  0.37477400  1
  Zr  Zr10  1  0.62512600  0.62512600  0.62512600  1
  Zr  Zr11  1  0.62522600  0.12356000  0.12610200  1
  Zr  Zr12  1  0.87477400  0.87644000  0.62610200  1
  Zr  Zr13  1  0.87487400  0.37487400  0.12512600  1
  Zr  Zr14  1  0.87644000  0.62610200  0.87477400  1
  Zr  Zr15  1  0.87389800  0.12522600  0.37644000  1
  O  O0  1  0.99647300  0.74493300  0.24936900  1
  O  O1  1  0.00026000  0.99564200  0.25048800  1
  O  O2  1  0.00146600  0.75506100  0.99937000  1
  O  O3  1  0.99769400  0.00230600  0.50230600  1
  O  O4  1  0.00237400  0.00237400  0.00237400  1
  O  O5  1  0.99937000  0.00146600  0.75506100  1
  O  O6  1  0.00435800  0.75048800  0.49974000  1
  O  O7  1  0.99873300  0.25134100  0.75065700  1
  O  O8  1  0.24865900  0.24934300  0.49873300  1
  O  O9  1  0.24934300  0.49873300  0.24865900  1
  O  O10  1  0.25123100  0.24876900  0.75123100  1
  O  O11  1  0.24936900  0.99647300  0.74493300  1
  O  O12  1  0.24951200  0.99974000  0.49564200  1
  O  O13  1  0.25506100  0.50063000  0.99853400  1
  O  O14  1  0.25506700  0.74936900  0.50352700  1
  O  O15  1  0.24851600  0.74851600  0.75148400  1
  O  O16  1  0.25148400  0.25148400  0.25148400  1
  O  O17  1  0.24493300  0.25063100  0.00352700  1
  O  O18  1  0.24493900  0.49937000  0.49853400  1
  O  O19  1  0.25048800  0.00026000  0.99564200  1
  O  O20  1  0.25063100  0.00352700  0.24493300  1
  O  O21  1  0.24876900  0.75123100  0.25123100  1
  O  O22  1  0.25065700  0.50126700  0.74865900  1
  O  O23  1  0.25134100  0.75065700  0.99873300  1
  O  O24  1  0.50126700  0.74865900  0.25065700  1
  O  O25  1  0.49762600  0.99762600  0.50237400  1
  O  O26  1  0.50230600  0.99769400  0.00230600  1
  O  O27  1  0.50063000  0.99853400  0.25506100  1
  O  O28  1  0.49564200  0.24951200  0.99974000  1
  O  O29  1  0.49853400  0.24493900  0.49937000  1
  O  O30  1  0.50352700  0.25506700  0.74936900  1
  O  O31  1  0.49974000  0.00435800  0.75048800  1
  O  O32  1  0.50026000  0.50435800  0.74951200  1
  O  O33  1  0.49647300  0.75506700  0.75063100  1
  O  O34  1  0.50146600  0.74493900  0.00063000  1
  O  O35  1  0.49937000  0.49853400  0.24493900  1
  O  O36  1  0.49769400  0.49769400  0.49769400  1
  O  O37  1  0.50237400  0.49762600  0.99762600  1
  O  O38  1  0.50435800  0.74951200  0.50026000  1
  O  O39  1  0.49873300  0.24865900  0.24934300  1
  O  O40  1  0.74865900  0.25065700  0.50126700  1
  O  O41  1  0.74934300  0.00126700  0.75134100  1
  O  O42  1  0.75123100  0.25123100  0.24876900  1
  O  O43  1  0.74936900  0.50352700  0.25506700  1
  O  O44  1  0.74951200  0.50026000  0.50435800  1
  O  O45  1  0.75506100  0.99937000  0.00146600  1
  O  O46  1  0.75506700  0.75063100  0.49647300  1
  O  O47  1  0.74851600  0.75148400  0.24851600  1
  O  O48  1  0.75148400  0.24851600  0.74851600  1
  O  O49  1  0.74493300  0.24936900  0.99647300  1
  O  O50  1  0.74493900  0.00063000  0.50146600  1
  O  O51  1  0.75048800  0.49974000  0.00435800  1
  O  O52  1  0.75063100  0.49647300  0.75506700  1
  O  O53  1  0.74876900  0.74876900  0.74876900  1
  O  O54  1  0.75065700  0.99873300  0.25134100  1
  O  O55  1  0.75134100  0.74934300  0.00126700  1
  O  O56  1  0.00126700  0.75134100  0.74934300  1
  O  O57  1  0.99564200  0.25048800  0.00026000  1
  O  O58  1  0.00230600  0.50230600  0.99769400  1
  O  O59  1  0.00063000  0.50146600  0.74493900  1
  O  O60  1  0.99762600  0.50237400  0.49762600  1
  O  O61  1  0.99853400  0.25506100  0.50063000  1
  O  O62  1  0.00352700  0.24493300  0.25063100  1
  O  O63  1  0.99974000  0.49564200  0.24951200  1
loop_
_geom_bond_atom_site_label_1
_geom_bond_atom_site_label_2
_geom_bond_distance
_geom_bond_site_symmetry_2
Hf0 O63 2.183582 1_455
Hf0 O18 2.190069 1_555
Hf0 O61 2.193968 1_455
Hf0 O16 2.203111 1_555
Hf0 O62 2.203834 1_555
Hf0 O8 2.213262 1_555
Hf0 O9 2.215382 1_555
Hf0 O60 2.232308 1_455
Hf1 O19 2.183582 1_565
Hf1 O2 2.190069 1_555
Hf1 O5 2.193968 1_465
Hf1 O15 2.203111 1_555
Hf1 O11 2.203834 1_555
Hf1 O56 2.213262 1_555
Hf1 O23 2.215382 1_555
Hf1 O4 2.232308 1_566
Hf2 O6 2.183582 1_555
Hf2 O59 2.190069 1_555
Hf2 O18 2.193968 1_555
Hf2 O15 2.203111 1_555
Hf2 O14 2.203834 1_555
Hf2 O22 2.213262 1_555
Hf2 O56 2.215382 1_555
Hf2 O60 2.232308 1_455
Hf3 O4 2.165322 1_555
Hf3 O17 2.170672 1_555
Hf3 O20 2.170672 1_555
Hf3 O62 2.170672 1_555
Hf3 O19 2.239653 1_554
Hf3 O1 2.239653 1_545
Hf3 O57 2.239653 1_455
Hf3 O16 2.248456 1_555
Hf4 O25 2.165322 1_555
Hf4 O33 2.170672 1_555
Hf4 O11 2.170672 1_555
Hf4 O14 2.170672 1_555
Hf4 O12 2.239653 1_555
Hf4 O38 2.239653 1_555
Hf4 O31 2.239653 1_565
Hf4 O15 2.248456 1_555
Hf5 O28 2.183582 1_554
Hf5 O35 2.190069 1_555
Hf5 O13 2.193968 1_554
Hf5 O16 2.203111 1_555
Hf5 O17 2.203834 1_555
Hf5 O9 2.213262 1_555
Hf5 O39 2.215382 1_555
Hf5 O37 2.232308 1_554
Hf6 O12 2.183582 1_545
Hf6 O29 2.190069 1_555
Hf6 O27 2.193968 1_545
Hf6 O16 2.203111 1_555
Hf6 O20 2.203834 1_555
Hf6 O39 2.213262 1_555
Hf6 O8 2.215382 1_555
Hf6 O25 2.232308 1_545
Hf7 O32 2.183582 1_555
Hf7 O13 2.190069 1_555
Hf7 O34 2.193968 1_556
Hf7 O15 2.203111 1_555
Hf7 O33 2.203834 1_555
Hf7 O23 2.213262 1_555
Hf7 O22 2.215382 1_555
Hf7 O37 2.232308 1_555
Hf8 O31 2.183582 1_555
Hf8 O50 2.190069 1_555
Hf8 O29 2.193968 1_555
Hf8 O48 2.203111 1_555
Hf8 O30 2.203834 1_555
Hf8 O40 2.213262 1_555
Hf8 O41 2.215382 1_555
Hf8 O25 2.232308 1_545
Hf9 O51 2.183582 1_555
Hf9 O34 2.190069 1_555
Hf9 O35 2.193968 1_555
Hf9 O47 2.203111 1_555
Hf9 O43 2.203834 1_555
Hf9 O24 2.213262 1_555
Hf9 O55 2.215382 1_555
Hf9 O37 2.232308 1_554
Hf10 O38 2.183582 1_555
Hf10 O27 2.190069 1_555
Hf10 O50 2.193968 1_565
Hf10 O47 2.203111 1_555
Hf10 O46 2.203834 1_555
Hf10 O54 2.213262 1_555
Hf10 O24 2.215382 1_555
Hf10 O25 2.232308 1_555
Hf11 O37 2.165322 1_555
Hf11 O49 2.170672 1_555
Hf11 O52 2.170672 1_555
Hf11 O30 2.170672 1_555
Hf11 O28 2.239653 1_555
Hf11 O32 2.239653 1_555
Hf11 O51 2.239653 1_556
Hf11 O48 2.248456 1_555
Hf12 O60 2.165322 1_555
Hf12 O46 2.170672 1_555
Hf12 O0 2.170672 1_555
Hf12 O43 2.170672 1_555
Hf12 O63 2.239653 1_555
Hf12 O44 2.239653 1_555
Hf12 O6 2.239653 1_655
Hf12 O47 2.248456 1_555
Hf13 O57 2.183582 1_556
Hf13 O5 2.190069 1_555
Hf13 O45 2.193968 1_546
Hf13 O48 2.203111 1_555
Hf13 O49 2.203834 1_555
Hf13 O41 2.213262 1_555
Hf13 O7 2.215382 1_555
Hf13 O4 2.232308 1_656
Hf14 O44 2.183582 1_555
Hf14 O61 2.190069 1_555
Hf14 O59 2.193968 1_655
Hf14 O48 2.203111 1_555
Hf14 O52 2.203834 1_555
Hf14 O7 2.213262 1_555
Hf14 O40 2.215382 1_555
Hf14 O60 2.232308 1_555
Hf15 O1 2.183582 1_655
Hf15 O45 2.190069 1_555
Hf15 O2 2.193968 1_654
Hf15 O47 2.203111 1_555
Hf15 O0 2.203834 1_555
Hf15 O55 2.213262 1_555
Hf15 O54 2.215382 1_555
Hf15 O4 2.232308 1_665
O0 Zr0 2.216813 1_655
O0 Zr2 2.268753 1_655
O1 Zr2 2.185602 1_555
O1 Zr15 2.255697 1_465
O2 Zr14 2.236194 1_455
O2 Zr0 2.236856 1_556
O3 Zr1 2.200602 1_655
O3 Zr12 2.200602 1_545
O3 Zr15 2.200602 1_555
O3 Zr2 2.257864 1_645
O5 Zr12 2.236194 1_545
O5 Zr1 2.236856 1_655
O6 Zr2 2.185602 1_555
O6 Zr12 2.255697 1_455
O7 Zr3 2.213913 1_655
O7 Zr1 2.217713 1_655
O8 Zr1 2.213913 1_555
O8 Zr7 2.217713 1_555
O9 Zr0 2.213913 1_555
O9 Zr4 2.217713 1_555
O10 Zr5 2.190730 1_555
O10 Zr3 2.223011 1_555
O10 Zr7 2.223011 1_555
O10 Zr1 2.223011 1_555
O11 Zr1 2.216813 1_565
O11 Zr5 2.268753 1_565
O12 Zr2 2.185602 1_555
O12 Zr1 2.255697 1_565
O13 Zr0 2.236194 1_556
O13 Zr3 2.236856 1_555
O14 Zr4 2.216813 1_555
O14 Zr2 2.268753 1_555
O17 Zr3 2.216813 1_554
O17 Zr5 2.268753 1_554
O18 Zr7 2.236194 1_555
O18 Zr4 2.236856 1_555
O19 Zr5 2.185602 1_555
O19 Zr6 2.255697 1_546
O20 Zr6 2.216813 1_545
O20 Zr2 2.268753 1_545
O21 Zr2 2.190730 1_555
O21 Zr4 2.223011 1_555
O21 Zr0 2.223011 1_555
O21 Zr6 2.223011 1_555
O22 Zr7 2.213913 1_555
O22 Zr3 2.217713 1_555
O23 Zr6 2.213913 1_556
O23 Zr0 2.217713 1_556
O24 Zr4 2.213913 1_555
O24 Zr6 2.217713 1_555
O26 Zr11 2.200602 1_565
O26 Zr8 2.200602 1_554
O26 Zr6 2.200602 1_555
O26 Zr5 2.257864 1_564
O27 Zr11 2.236194 1_565
O27 Zr6 2.236856 1_555
O28 Zr5 2.185602 1_555
O28 Zr11 2.255697 1_556
O29 Zr9 2.236194 1_555
O29 Zr7 2.236856 1_555
O30 Zr7 2.216813 1_555
O30 Zr5 2.268753 1_555
O31 Zr5 2.185602 1_555
O31 Zr8 2.255697 1_545
O32 Zr10 2.185602 1_555
O32 Zr7 2.255697 1_555
O33 Zr8 2.216813 1_555
O33 Zr10 2.268753 1_555
O34 Zr6 2.236194 1_555
O34 Zr8 2.236856 1_554
O35 Zr4 2.236194 1_555
O35 Zr9 2.236856 1_555
O36 Zr4 2.200602 1_555
O36 Zr9 2.200602 1_555
O36 Zr7 2.200602 1_555
O36 Zr10 2.257864 1_555
O38 Zr10 2.185602 1_555
O38 Zr4 2.255697 1_555
O39 Zr11 2.213913 1_555
O39 Zr9 2.217713 1_555
O40 Zr9 2.213913 1_555
O40 Zr15 2.217713 1_555
O41 Zr8 2.213913 1_545
O41 Zr12 2.217713 1_545
O42 Zr13 2.190730 1_555
O42 Zr11 2.223011 1_555
O42 Zr15 2.223011 1_555
O42 Zr9 2.223011 1_555
O43 Zr9 2.216813 1_555
O43 Zr13 2.268753 1_555
O44 Zr10 2.185602 1_555
O44 Zr9 2.255697 1_555
O45 Zr8 2.236194 1_554
O45 Zr11 2.236856 1_565
O46 Zr12 2.216813 1_555
O46 Zr10 2.268753 1_555
O49 Zr11 2.216813 1_556
O49 Zr13 2.268753 1_556
O50 Zr15 2.236194 1_555
O50 Zr12 2.236856 1_545
O51 Zr13 2.185602 1_555
O51 Zr14 2.255697 1_554
O52 Zr14 2.216813 1_555
O52 Zr10 2.268753 1_555
O53 Zr10 2.190730 1_555
O53 Zr12 2.223011 1_555
O53 Zr14 2.223011 1_555
O53 Zr8 2.223011 1_555
O54 Zr15 2.213913 1_565
O54 Zr11 2.217713 1_565
O55 Zr14 2.213913 1_554
O55 Zr8 2.217713 1_554
O56 Zr12 2.213913 1_455
O56 Zr14 2.217713 1_455
O57 Zr13 2.185602 1_555
O57 Zr3 2.255697 1_654
O58 Zr0 2.200602 1_556
O58 Zr14 2.200602 1_455
O58 Zr3 2.200602 1_555
O58 Zr13 2.257864 1_456
O59 Zr3 2.236194 1_555
O59 Zr14 2.236856 1_455
O61 Zr1 2.236194 1_655
O61 Zr15 2.236856 1_555
O62 Zr15 2.216813 1_455
O62 Zr13 2.268753 1_455
O63 Zr13 2.185602 1_555
O63 Zr0 2.255697 1_655
