# generated using pymatgen
data_Nd3GaCo3
_symmetry_space_group_name_H-M   'P 1'
_cell_length_a   5.55763092
_cell_length_b   5.55763092
_cell_length_c   13.16921500
_cell_angle_alpha   90.00000000
_cell_angle_beta   90.00000000
_cell_angle_gamma   135.45740798
_symmetry_Int_Tables_number   1
_chemical_formula_structural   Nd3GaCo3
_chemical_formula_sum   'Nd6 Ga2 Co6'
_cell_volume   285.31813412
_cell_formula_units_Z   2
loop_
 _symmetry_equiv_pos_site_id
 _symmetry_equiv_pos_as_xyz
  1  'x, y, z'
loop_
 _atom_site_type_symbol
 _atom_site_label
 _atom_site_symmetry_multiplicity
 _atom_site_fract_x
 _atom_site_fract_y
 _atom_site_fract_z
 _atom_site_occupancy
  Nd  Nd0  1  0.79355600  0.20644400  0.39822700  1
  Nd  Nd1  1  0.20644400  0.79355600  0.60177300  1
  Nd  Nd2  1  0.79355600  0.20644400  0.10177300  1
  Nd  Nd3  1  0.20644400  0.79355600  0.89822700  1
  Nd  Nd4  1  0.50315300  0.49684700  0.25000000  1
  Nd  Nd5  1  0.49684700  0.50315300  0.75000000  1
  Ga  Ga0  1  0.50000000  0.50000000  0.50000000  1
  Ga  Ga1  1  0.50000000  0.50000000  0.00000000  1
  Co  Co0  1  0.08416400  0.91583600  0.40169000  1
  Co  Co1  1  0.91583600  0.08416400  0.59831000  1
  Co  Co2  1  0.08416400  0.91583600  0.09831000  1
  Co  Co3  1  0.91583600  0.08416400  0.90169000  1
  Co  Co4  1  0.20124500  0.79875500  0.25000000  1
  Co  Co5  1  0.79875500  0.20124500  0.75000000  1
loop_
_geom_bond_atom_site_label_1
_geom_bond_atom_site_label_2
_geom_bond_distance
_geom_bond_site_symmetry_2
Ga0 Nd0 3.277508 1_565
Ga0 Nd1 3.277508 1_655
Ga0 Nd1 3.277508 1_545
Ga0 Nd0 3.277508 1_455
Ga0 Nd4 3.292463 1_555
Ga0 Nd5 3.292463 1_555
Ga0 Nd1 3.303621 1_555
Ga0 Nd0 3.303621 1_555
Ga1 Nd2 3.277508 1_565
Ga1 Nd2 3.277508 1_455
Ga1 Nd3 3.277508 1_654
Ga1 Nd3 3.277508 1_544
Ga1 Nd4 3.292463 1_555
Ga1 Nd5 3.292463 1_554
Ga1 Nd2 3.303621 1_555
Ga1 Nd3 3.303621 1_554
Co0 Co4 2.332574 1_555
Co0 Ga0 2.619566 1_565
Co0 Ga0 2.619566 1_455
Co0 Nd1 2.919743 1_555
Co0 Nd0 2.989559 1_465
Co0 Nd0 3.012892 1_565
Co0 Nd0 3.012892 1_455
Co0 Nd4 3.020170 1_455
Co0 Nd4 3.020170 1_565
Co1 Co5 2.332574 1_555
Co1 Ga0 2.619566 1_655
Co1 Ga0 2.619566 1_545
Co1 Nd0 2.919743 1_555
Co1 Nd1 2.989559 1_645
Co1 Nd1 3.012892 1_655
Co1 Nd1 3.012892 1_545
Co1 Nd5 3.020170 1_655
Co1 Nd5 3.020170 1_545
Co2 Co4 2.332574 1_555
Co2 Ga1 2.619566 1_565
Co2 Ga1 2.619566 1_455
Co2 Nd3 2.919743 1_554
Co2 Nd2 2.989559 1_465
Co2 Nd2 3.012892 1_565
Co2 Nd2 3.012892 1_455
Co2 Nd4 3.020170 1_455
Co2 Nd4 3.020170 1_565
Co3 Co5 2.332574 1_555
Co3 Ga1 2.619566 1_546
Co3 Ga1 2.619566 1_656
Co3 Nd2 2.919743 1_556
Co3 Nd3 2.989559 1_645
Co3 Nd3 3.012892 1_655
Co3 Nd3 3.012892 1_545
Co3 Nd5 3.020170 1_545
Co3 Nd5 3.020170 1_655
Co4 Nd4 2.930574 1_455
Co4 Nd4 2.930574 1_565
Co4 Nd0 3.024652 1_565
Co4 Nd0 3.024652 1_455
Co4 Nd2 3.024652 1_455
Co4 Nd2 3.024652 1_565
Co4 Nd4 3.105444 1_555
Co5 Nd5 2.930574 1_545
Co5 Nd5 2.930574 1_655
Co5 Nd1 3.024652 1_545
Co5 Nd3 3.024652 1_655
Co5 Nd3 3.024652 1_545
Co5 Nd1 3.024652 1_655
Co5 Nd5 3.105444 1_555
