# generated using pymatgen
data_KSb5S8
_symmetry_space_group_name_H-M   'P 1'
_cell_length_a   19.65786740
_cell_length_b   8.37507334
_cell_length_c   12.33876911
_cell_angle_alpha   48.08829599
_cell_angle_beta   90.00000000
_cell_angle_gamma   90.00000000
_symmetry_Int_Tables_number   1
_chemical_formula_structural   KSb5S8
_chemical_formula_sum   'K4 Sb20 S32'
_cell_volume   1511.72222509
_cell_formula_units_Z   4
loop_
 _symmetry_equiv_pos_site_id
 _symmetry_equiv_pos_as_xyz
  1  'x, y, z'
loop_
 _atom_site_type_symbol
 _atom_site_label
 _atom_site_symmetry_multiplicity
 _atom_site_fract_x
 _atom_site_fract_y
 _atom_site_fract_z
 _atom_site_occupancy
  K  K0  1  0.94939995  0.07559579  0.23391729  1
  K  K1  1  0.05060005  0.07559579  0.73391729  1
  K  K2  1  0.55754449  0.00544808  0.50109481  1
  K  K3  1  0.44245551  0.00544808  0.00109481  1
  Sb  Sb0  1  0.84840268  0.40121090  0.53332254  1
  Sb  Sb1  1  0.15159732  0.40121090  0.03332254  1
  Sb  Sb2  1  0.95494529  0.57722830  0.70485365  1
  Sb  Sb3  1  0.04505471  0.57722830  0.20485365  1
  Sb  Sb4  1  0.87229906  0.00621374  0.97291063  1
  Sb  Sb5  1  0.12770094  0.00621374  0.47291063  1
  Sb  Sb6  1  0.62714598  0.63736583  0.29296438  1
  Sb  Sb7  1  0.37285402  0.63736583  0.79296438  1
  Sb  Sb8  1  0.74085920  0.80290441  0.49491752  1
  Sb  Sb9  1  0.25914080  0.80290441  0.99491752  1
  Sb  Sb10  1  0.78371452  0.38064025  0.24337123  1
  Sb  Sb11  1  0.21628548  0.38064025  0.74337123  1
  Sb  Sb12  1  0.71065371  0.20479428  0.04949612  1
  Sb  Sb13  1  0.28934629  0.20479428  0.54949612  1
  Sb  Sb14  1  0.54090736  0.57647796  0.95394881  1
  Sb  Sb15  1  0.45909264  0.57647796  0.45394881  1
  Sb  Sb16  1  0.64934246  0.14909834  0.77062578  1
  Sb  Sb17  1  0.35065754  0.14909834  0.27062578  1
  Sb  Sb18  1  0.77158650  0.79037577  0.80100465  1
  Sb  Sb19  1  0.22841350  0.79037577  0.30100465  1
  S  S0  1  0.96301201  0.55719176  0.51661329  1
  S  S1  1  0.03698799  0.55719176  0.01661329  1
  S  S2  1  0.91927656  0.64997217  0.19298114  1
  S  S3  1  0.08072344  0.64997217  0.69298114  1
  S  S4  1  0.98239048  0.19607067  0.92152758  1
  S  S5  1  0.01760952  0.19607067  0.42152758  1
  S  S6  1  0.50658530  0.53672709  0.28713783  1
  S  S7  1  0.49341470  0.53672709  0.78713783  1
  S  S8  1  0.59406823  0.60599076  0.49668837  1
  S  S9  1  0.40593177  0.60599076  -0.00331163  1
  S  S10  1  0.80312194  0.43921681  0.70153826  1
  S  S11  1  0.19687806  0.43921681  0.20153826  1
  S  S12  1  0.77674690  0.76944146  0.32354940  1
  S  S13  1  0.22325310  0.76944146  0.82354940  1
  S  S14  1  0.83938879  0.03001733  0.45123101  1
  S  S15  1  0.16061121  0.03001733  0.95123101  1
  S  S16  1  0.59970957  0.02030173  0.08809506  1
  S  S17  1  0.40029043  0.02030173  0.58809506  1
  S  S18  1  0.67718201  0.20802924  0.24457134  1
  S  S19  1  0.32281799  0.20802924  0.74457134  1
  S  S20  1  0.54097192  0.97514597  0.78853616  1
  S  S21  1  0.45902808  0.97514597  0.28853616  1
  S  S22  1  0.65903813  0.55988593  0.84278359  1
  S  S23  1  0.34096187  0.55988593  0.34278359  1
  S  S24  1  0.27927046  0.82202420  0.46788788  1
  S  S25  1  0.72072954  0.82202420  0.96788788  1
  S  S26  1  0.29345561  0.15508048  0.09121124  1
  S  S27  1  0.70654439  0.15508048  0.59121124  1
  S  S28  1  0.11174749  0.99391920  0.28177067  1
  S  S29  1  0.88825251  0.99391920  0.78177067  1
  S  S30  1  0.16838516  0.42133354  0.54535077  1
  S  S31  1  0.83161484  0.42133354  0.04535077  1
loop_
_geom_bond_atom_site_label_1
_geom_bond_atom_site_label_2
_geom_bond_distance
_geom_bond_site_symmetry_2
K0 S31 3.187220 1_555
K0 S28 3.234507 1_645
K0 S14 3.262649 1_555
K0 S0 3.294908 1_545
K0 S4 3.331676 1_554
K0 S5 3.360805 1_655
K0 S1 3.460360 1_655
K1 S30 3.187220 1_555
K1 S29 3.234507 1_445
K1 S15 3.262649 1_555
K1 S1 3.294908 1_546
K1 S5 3.331676 1_555
K1 S4 3.360805 1_455
K1 S0 3.460360 1_455
K2 S17 3.301854 1_555
K2 S7 3.308524 1_545
K2 S18 3.354645 1_555
K2 S20 3.398079 1_545
K2 S21 3.403344 1_545
K2 S8 3.457415 1_545
K2 S6 3.475338 1_555
K2 S27 3.639726 1_555
K3 S16 3.301854 1_555
K3 S6 3.308524 1_545
K3 S19 3.354645 1_554
K3 S21 3.398079 1_545
K3 S20 3.403344 1_544
K3 S9 3.457415 1_545
K3 S7 3.475338 1_554
K3 S26 3.639726 1_555
S0 Sb2 2.443099 1_555
S0 Sb0 2.542663 1_555
S1 Sb3 2.443099 1_555
S1 Sb1 2.542663 1_555
S2 Sb4 2.510852 1_564
S2 Sb3 2.527212 1_655
S3 Sb5 2.510852 1_565
S3 Sb2 2.527212 1_455
S4 Sb2 2.495445 1_555
S4 Sb4 2.503411 1_555
S5 Sb3 2.495445 1_555
S5 Sb5 2.503411 1_555
S6 Sb15 2.476741 1_555
S6 Sb6 2.532443 1_555
S7 Sb14 2.476741 1_555
S7 Sb7 2.532443 1_555
S8 Sb6 2.434774 1_555
S8 Sb15 2.748364 1_555
S8 Sb16 3.157277 1_555
S9 Sb7 2.434774 1_554
S9 Sb14 2.748364 1_554
S9 Sb17 3.157277 1_555
S10 Sb0 2.466631 1_555
S10 Sb8 2.626974 1_555
S11 Sb1 2.466631 1_555
S11 Sb9 2.626974 1_554
S12 Sb8 2.416384 1_555
S12 Sb0 2.744141 1_555
S12 Sb12 3.153583 1_565
S13 Sb9 2.416384 1_555
S13 Sb1 2.744141 1_556
S13 Sb13 3.153583 1_565
S14 Sb8 2.508036 1_545
S14 Sb10 2.517345 1_555
S15 Sb9 2.508036 1_545
S15 Sb11 2.517345 1_555
S16 Sb6 2.477025 1_545
S16 Sb12 2.527367 1_555
S17 Sb7 2.477025 1_545
S17 Sb13 2.527367 1_555
S18 Sb12 2.512845 1_555
S18 Sb10 2.539123 1_555
S18 Sb8 2.935782 1_545
S19 Sb13 2.512845 1_555
S19 Sb11 2.539123 1_555
S19 Sb9 2.935782 1_545
S20 Sb14 2.491910 1_555
S20 Sb16 2.505891 1_565
S21 Sb15 2.491910 1_555
S21 Sb17 2.505891 1_565
S22 Sb12 2.499110 1_556
S22 Sb14 2.747355 1_555
S22 Sb18 2.749112 1_555
S23 Sb13 2.499110 1_555
S23 Sb15 2.747355 1_555
S23 Sb19 2.749112 1_555
S24 Sb19 2.457422 1_555
S24 Sb17 2.547509 1_565
S25 Sb18 2.457422 1_555
S25 Sb16 2.547509 1_565
S26 Sb17 2.453462 1_555
S26 Sb19 2.664970 1_545
S27 Sb16 2.453462 1_555
S27 Sb18 2.664970 1_545
S28 Sb5 2.448588 1_565
S28 Sb1 2.770695 1_565
S28 Sb19 2.771555 1_555
S29 Sb4 2.448588 1_565
S29 Sb0 2.770695 1_565
S29 Sb18 2.771555 1_555
S30 Sb11 2.420780 1_555
S30 Sb19 2.754257 1_555
S30 Sb13 2.970135 1_555
S31 Sb10 2.420780 1_555
S31 Sb18 2.754257 1_554
S31 Sb12 2.970135 1_555
