# generated using pymatgen
data_Zn3CuP2O9
_symmetry_space_group_name_H-M   'P 1'
_cell_length_a   6.40890130
_cell_length_b   6.40890130
_cell_length_c   9.91013574
_cell_angle_alpha   67.42346874
_cell_angle_beta   67.42346874
_cell_angle_gamma   78.63735521
_symmetry_Int_Tables_number   1
_chemical_formula_structural   Zn3CuP2O9
_chemical_formula_sum   'Zn6 Cu2 P4 O18'
_cell_volume   346.46477538
_cell_formula_units_Z   2
loop_
 _symmetry_equiv_pos_site_id
 _symmetry_equiv_pos_as_xyz
  1  'x, y, z'
loop_
 _atom_site_type_symbol
 _atom_site_label
 _atom_site_symmetry_multiplicity
 _atom_site_fract_x
 _atom_site_fract_y
 _atom_site_fract_z
 _atom_site_occupancy
  Zn  Zn0  1  0.70532600  0.31321500  0.16762900  1
  Zn  Zn1  1  0.31321500  0.70532600  0.16762900  1
  Zn  Zn2  1  0.29467400  0.68678500  0.83237100  1
  Zn  Zn3  1  0.68678500  0.29467400  0.83237100  1
  Zn  Zn4  1  0.84421700  0.84421700  0.11231400  1
  Zn  Zn5  1  0.15578300  0.15578300  0.88768600  1
  Cu  Cu0  1  0.80933900  0.19066100  0.50000000  1
  Cu  Cu1  1  0.19066100  0.80933900  0.50000000  1
  P  P0  1  0.29721800  0.29721800  0.50066500  1
  P  P1  1  0.70278200  0.70278200  0.49933500  1
  P  P2  1  0.23882000  0.23882000  0.14289300  1
  P  P3  1  0.76118000  0.76118000  0.85710700  1
  O  O0  1  0.82230200  0.17769800  0.00000000  1
  O  O1  1  0.17769800  0.82230200  0.00000000  1
  O  O2  1  0.26303900  0.26303900  0.66793000  1
  O  O3  1  0.73696100  0.73696100  0.33207000  1
  O  O4  1  0.24061700  0.55349200  0.41583000  1
  O  O5  1  0.55349200  0.24061700  0.41583000  1
  O  O6  1  0.75938300  0.44650800  0.58417000  1
  O  O7  1  0.44650800  0.75938300  0.58417000  1
  O  O8  1  0.14335000  0.14335000  0.49113900  1
  O  O9  1  0.85665000  0.85665000  0.50886100  1
  O  O10  1  0.37930800  0.37930800  0.17048400  1
  O  O11  1  0.62069200  0.62069200  0.82951600  1
  O  O12  1  0.98669500  0.30281000  0.21066700  1
  O  O13  1  0.30281000  0.98669500  0.21066700  1
  O  O14  1  0.01330500  0.69719000  0.78933300  1
  O  O15  1  0.69719000  0.01330500  0.78933300  1
  O  O16  1  0.31190800  0.31190800  0.95794800  1
  O  O17  1  0.68809200  0.68809200  0.04205200  1
loop_
_geom_bond_atom_site_label_1
_geom_bond_atom_site_label_2
_geom_bond_distance
_geom_bond_site_symmetry_2
Cu0 O5 2.031052 1_555
Cu0 O6 2.031052 1_555
Cu0 O9 2.074212 1_545
Cu0 O8 2.074212 1_655
Cu0 O15 2.503429 1_555
Cu0 O12 2.503429 1_555
Cu1 O4 2.031052 1_555
Cu1 O7 2.031052 1_555
Cu1 O9 2.074212 1_455
Cu1 O8 2.074212 1_565
Cu1 O14 2.503429 1_555
Cu1 O13 2.503429 1_555
O0 Zn0 1.992744 1_555
O0 Zn3 1.992744 1_554
O0 Zn4 2.000402 1_545
O0 Zn5 2.000402 1_654
O1 Zn1 1.992744 1_555
O1 Zn2 1.992744 1_554
O1 Zn5 2.000402 1_564
O1 Zn4 2.000402 1_455
O2 P0 1.518213 1_555
O2 Zn5 1.890808 1_555
O3 P1 1.518213 1_555
O3 Zn4 1.890808 1_555
O4 P0 1.573261 1_555
O4 Zn1 2.162262 1_555
O5 P0 1.573261 1_555
O5 Zn0 2.162262 1_555
O6 P1 1.573261 1_555
O6 Zn3 2.162262 1_555
O7 P1 1.573261 1_555
O7 Zn2 2.162262 1_555
O8 P0 1.574781 1_555
O9 P1 1.574781 1_555
O10 P2 1.547130 1_555
O10 Zn0 2.039843 1_555
O10 Zn1 2.039843 1_555
O11 P3 1.547130 1_555
O11 Zn3 2.039843 1_555
O11 Zn2 2.039843 1_555
O12 P2 1.532096 1_655
O12 Zn0 1.989839 1_555
O13 P2 1.532096 1_565
O13 Zn1 1.989839 1_555
O14 P3 1.532096 1_455
O14 Zn2 1.989839 1_555
O15 P3 1.532096 1_545
O15 Zn3 1.989839 1_555
O16 P2 1.601917 1_556
O16 Zn5 1.987870 1_555
O16 Zn3 2.244636 1_555
O16 Zn2 2.244636 1_555
O17 P3 1.601917 1_554
O17 Zn4 1.987870 1_555
O17 Zn0 2.244636 1_555
O17 Zn1 2.244636 1_555
