# generated using pymatgen
data_CeTeCl
_symmetry_space_group_name_H-M   'P 1'
_cell_length_a   4.48385700
_cell_length_b   7.92849500
_cell_length_c   9.43356700
_cell_angle_alpha   90.00000000
_cell_angle_beta   90.00000000
_cell_angle_gamma   90.00000000
_symmetry_Int_Tables_number   1
_chemical_formula_structural   CeTeCl
_chemical_formula_sum   'Ce4 Te4 Cl4'
_cell_volume   335.36555020
_cell_formula_units_Z   4
loop_
 _symmetry_equiv_pos_site_id
 _symmetry_equiv_pos_as_xyz
  1  'x, y, z'
loop_
 _atom_site_type_symbol
 _atom_site_label
 _atom_site_symmetry_multiplicity
 _atom_site_fract_x
 _atom_site_fract_y
 _atom_site_fract_z
 _atom_site_occupancy
  Ce  Ce0  1  0.25000000  0.23828100  0.63307100  1
  Ce  Ce1  1  0.25000000  0.73828100  0.86692900  1
  Ce  Ce2  1  0.75000000  0.76171900  0.36692900  1
  Ce  Ce3  1  0.75000000  0.26171900  0.13307100  1
  Te  Te0  1  0.25000000  0.46176600  0.33217400  1
  Te  Te1  1  0.25000000  0.96176600  0.16782600  1
  Te  Te2  1  0.75000000  0.53823400  0.66782600  1
  Te  Te3  1  0.75000000  0.03823400  0.83217400  1
  Cl  Cl0  1  0.25000000  0.86456000  0.56053900  1
  Cl  Cl1  1  0.25000000  0.36456000  0.93946100  1
  Cl  Cl2  1  0.75000000  0.13544000  0.43946100  1
  Cl  Cl3  1  0.75000000  0.63544000  0.06053900  1
loop_
_geom_bond_atom_site_label_1
_geom_bond_atom_site_label_2
_geom_bond_distance
_geom_bond_site_symmetry_2
Ce0 Cl2 3.004486 1_455
Ce0 Cl2 3.004486 1_555
Ce0 Cl0 3.041022 1_545
Ce0 Cl1 3.058845 1_555
Ce0 Te2 3.284731 1_555
Ce0 Te2 3.284731 1_455
Ce0 Te3 3.327115 1_455
Ce0 Te3 3.327115 1_555
Ce0 Te0 3.346176 1_555
Ce1 Cl3 3.004486 1_556
Ce1 Cl3 3.004486 1_456
Ce1 Cl1 3.041022 1_555
Ce1 Cl0 3.058845 1_555
Ce1 Te3 3.284731 1_465
Ce1 Te3 3.284731 1_565
Ce1 Te2 3.327115 1_455
Ce1 Te2 3.327115 1_555
Ce1 Te1 3.346176 1_556
Ce2 Cl0 3.004486 1_555
Ce2 Cl0 3.004486 1_655
Ce2 Cl2 3.041022 1_565
Ce2 Cl3 3.058845 1_555
Ce2 Te0 3.284731 1_655
Ce2 Te0 3.284731 1_555
Ce2 Te1 3.327115 1_555
Ce2 Te1 3.327115 1_655
Ce2 Te2 3.346176 1_555
Ce3 Cl1 3.004486 1_554
Ce3 Cl1 3.004486 1_654
Ce3 Cl3 3.041022 1_555
Ce3 Cl2 3.058845 1_555
Ce3 Te1 3.284731 1_645
Ce3 Te1 3.284731 1_545
Ce3 Te0 3.327115 1_655
Ce3 Te0 3.327115 1_555
Ce3 Te3 3.346176 1_554
