# generated using pymatgen
data_LiGdGe
_symmetry_space_group_name_H-M   'P 1'
_cell_length_a   7.13668758
_cell_length_b   7.13329483
_cell_length_c   4.27640117
_cell_angle_alpha   90.00000000
_cell_angle_beta   90.00000000
_cell_angle_gamma   119.98427141
_symmetry_Int_Tables_number   1
_chemical_formula_structural   LiGdGe
_chemical_formula_sum   'Li3 Gd3 Ge3'
_cell_volume   188.56658726
_cell_formula_units_Z   3
loop_
 _symmetry_equiv_pos_site_id
 _symmetry_equiv_pos_as_xyz
  1  'x, y, z'
loop_
 _atom_site_type_symbol
 _atom_site_label
 _atom_site_symmetry_multiplicity
 _atom_site_fract_x
 _atom_site_fract_y
 _atom_site_fract_z
 _atom_site_occupancy
  Li  Li0  1  0.23262179  1.00005672  0.50000000  1
  Li  Li1  1  0.76737821  0.76743493  0.50000000  1
  Li  Li2  1  1.00000000  0.23220942  0.50000000  1
  Gd  Gd0  1  1.00000000  0.57773671  -0.00000000  1
  Gd  Gd1  1  0.57775309  0.99999601  -0.00000000  1
  Gd  Gd2  1  0.42224691  0.42224392  -0.00000000  1
  Ge  Ge0  1  0.33335469  0.66670834  0.50000000  1
  Ge  Ge1  1  0.66664531  0.33335265  0.50000000  1
  Ge  Ge2  1  0.00000000  1.00026031  0.00000000  1
loop_
_geom_bond_atom_site_label_1
_geom_bond_atom_site_label_2
_geom_bond_distance
_geom_bond_site_symmetry_2
Gd0 Ge2 3.013985 1_655
Gd0 Ge0 3.020827 1_654
Gd0 Ge0 3.020827 1_655
Gd0 Ge1 3.020828 1_555
Gd0 Ge1 3.020828 1_554
Gd1 Ge2 3.012503 1_655
Gd1 Ge1 3.020113 1_565
Gd1 Ge1 3.020113 1_564
Gd1 Ge0 3.020197 1_555
Gd1 Ge0 3.020197 1_554
Gd2 Ge2 3.012506 1_545
Gd2 Ge0 3.020113 1_555
Gd2 Ge0 3.020113 1_554
Gd2 Ge1 3.020204 1_555
Gd2 Ge1 3.020204 1_554
Ge0 Li0 2.807086 1_555
Ge0 Li1 2.808234 1_555
Ge0 Li2 2.809994 1_455
Ge1 Li1 2.807093 1_555
Ge1 Li0 2.808232 1_545
Ge1 Li2 2.809989 1_555
Ge2 Li2 2.703604 1_465
Ge2 Li2 2.703604 1_464
Ge2 Li0 2.707473 1_555
Ge2 Li0 2.707473 1_554
Ge2 Li1 2.707473 1_455
Ge2 Li1 2.707473 1_454
