# generated using pymatgen
data_LiFe6(OF2)4
_symmetry_space_group_name_H-M   'P 1'
_cell_length_a   7.67803461
_cell_length_b   5.83379116
_cell_length_c   5.74438460
_cell_angle_alpha   71.42838189
_cell_angle_beta   70.41852566
_cell_angle_gamma   70.77402626
_symmetry_Int_Tables_number   1
_chemical_formula_structural   LiFe6(OF2)4
_chemical_formula_sum   'Li1 Fe6 O4 F8'
_cell_volume   222.54892117
_cell_formula_units_Z   1
loop_
 _symmetry_equiv_pos_site_id
 _symmetry_equiv_pos_as_xyz
  1  'x, y, z'
loop_
 _atom_site_type_symbol
 _atom_site_label
 _atom_site_symmetry_multiplicity
 _atom_site_fract_x
 _atom_site_fract_y
 _atom_site_fract_z
 _atom_site_occupancy
  Li  Li0  1  0.15967700  0.01884300  0.65137000  1
  Fe  Fe0  1  0.84090100  0.65043500  0.67543600  1
  Fe  Fe1  1  0.66920000  0.34441400  0.31103700  1
  Fe  Fe2  1  0.35312700  0.64520000  0.64133800  1
  Fe  Fe3  1  0.15331900  0.37058000  0.32538600  1
  Fe  Fe4  1  0.50024800  0.95895600  0.03082200  1
  Fe  Fe5  1  0.97752400  0.00133700  0.04994900  1
  O  O0  1  0.32573200  0.97823800  0.35248600  1
  O  O1  1  0.67320200  0.63907400  0.01549100  1
  O  O2  1  0.00341700  0.31062900  0.69963500  1
  O  O3  1  0.99950900  0.69927400  0.33134400  1
  F  F0  1  0.66927400  0.01989900  0.63601600  1
  F  F1  1  0.33200200  0.35708800  0.96036700  1
  F  F2  1  0.30568700  0.89601900  0.89344000  1
  F  F3  1  0.96237600  0.25683200  0.24207200  1
  F  F4  1  0.64372700  0.55769000  0.55094000  1
  F  F5  1  0.04002100  0.76388600  0.78700500  1
  F  F6  1  0.37468100  0.42230000  0.40692700  1
  F  F7  1  0.68304300  0.10930400  0.09519300  1
loop_
_geom_bond_atom_site_label_1
_geom_bond_atom_site_label_2
_geom_bond_distance
_geom_bond_site_symmetry_2
Li0 O2 1.773838 1_555
Li0 O0 1.795080 1_545
Fe0 O3 1.930665 1_555
Fe0 O1 1.940595 1_556
Fe0 O2 1.953902 1_655
Fe1 O1 1.994747 1_555
Fe2 O0 2.117434 1_555
Fe2 Li0 2.202542 1_565
Fe3 O3 1.896334 1_455
Fe3 O2 2.048514 1_555
Fe3 O0 2.220615 1_545
Fe3 Li0 2.295040 1_555
Fe4 O0 1.896278 1_555
Fe4 O1 1.909936 1_555
Fe5 O3 1.979701 1_545
Fe5 O2 2.236053 1_654
Fe5 Li0 2.237723 1_654
F0 Fe0 2.109968 1_545
F0 Fe4 2.184380 1_546
F0 Fe1 2.194951 1_555
F1 Fe2 2.056236 1_555
F1 Fe3 2.095422 1_556
F1 Fe4 2.236688 1_546
F2 Li0 1.893422 1_565
F2 Fe4 2.079708 1_556
F2 Fe2 2.239660 1_555
F2 Fe5 2.312639 1_466
F3 Fe3 2.032745 1_655
F3 Fe1 2.063686 1_555
F3 Fe5 2.073819 1_555
F4 Fe2 2.037338 1_555
F4 Fe1 2.058327 1_555
F4 Fe0 2.146565 1_555
F5 Li0 1.829026 1_565
F5 Fe0 2.186218 1_455
F5 Fe5 2.199952 1_466
F5 Fe2 2.209844 1_555
F6 Fe3 2.039743 1_555
F6 Fe1 2.066708 1_555
F6 Fe2 2.087040 1_555
F7 Fe4 2.059382 1_545
F7 Fe1 2.080571 1_555
F7 Fe5 2.085429 1_555
