# generated using pymatgen
data_U3Al3CoRu2
_symmetry_space_group_name_H-M   'P 1'
_cell_length_a   6.80315200
_cell_length_b   6.80318446
_cell_length_c   4.01929594
_cell_angle_alpha   90.00000000
_cell_angle_beta   90.00000000
_cell_angle_gamma   119.99998639
_symmetry_Int_Tables_number   1
_chemical_formula_structural   U3Al3CoRu2
_chemical_formula_sum   'U3 Al3 Co1 Ru2'
_cell_volume   161.10280294
_cell_formula_units_Z   1
loop_
 _symmetry_equiv_pos_site_id
 _symmetry_equiv_pos_as_xyz
  1  'x, y, z'
loop_
 _atom_site_type_symbol
 _atom_site_label
 _atom_site_symmetry_multiplicity
 _atom_site_fract_x
 _atom_site_fract_y
 _atom_site_fract_z
 _atom_site_occupancy
  U  U0  1  0.00000206  0.41998241  0.50000000  1
  U  U1  1  0.58001784  0.58001606  0.50000000  1
  U  U2  1  0.41998405  -0.00000297  0.50000000  1
  Al  Al0  1  -0.00000132  0.77226224  0.00000000  1
  Al  Al1  1  0.22772276  0.22773965  0.00000000  1
  Al  Al2  1  0.77227431  0.00000913  0.00000000  1
  Co  Co0  1  0.99999401  0.00000548  0.50000000  1
  Ru  Ru0  1  0.33329672  0.66662978  0.00000000  1
  Ru  Ru1  1  0.66670957  0.33335822  0.00000000  1
loop_
_geom_bond_atom_site_label_1
_geom_bond_atom_site_label_2
_geom_bond_distance
_geom_bond_site_symmetry_2
U0 U1 3.529826 1_555
U0 U2 3.529835 1_565
U0 U1 3.529844 1_455
U0 U2 3.529847 1_455
U1 U2 3.529833 1_565
U1 U2 3.529866 1_555
Al0 Co0 2.537580 1_464
Al0 Co0 2.537580 1_465
Al0 Al2 2.683507 1_465
Al0 Al1 2.683551 1_565
Al0 Ru1 2.699383 1_455
Al0 Ru0 2.699516 1_555
Al0 U0 3.127707 1_555
Al0 U0 3.127707 1_554
Al0 U1 3.189972 1_454
Al0 U1 3.189972 1_455
Al0 U2 3.189993 1_564
Al0 U2 3.189993 1_565
Al1 Co0 2.537519 1_455
Al1 Co0 2.537519 1_454
Al1 Al2 2.683367 1_455
Al1 Ru0 2.699374 1_555
Al1 Ru1 2.699913 1_555
Al1 U1 3.127725 1_554
Al1 U1 3.127725 1_555
Al1 U0 3.189895 1_555
Al1 U0 3.189895 1_554
Al1 U2 3.190082 1_555
Al1 U2 3.190082 1_554
Al2 Co0 2.537475 1_555
Al2 Co0 2.537475 1_554
Al2 Ru1 2.699546 1_555
Al2 Ru0 2.699896 1_545
Al2 U2 3.127712 1_554
Al2 U2 3.127712 1_555
Al2 U0 3.189946 1_655
Al2 U0 3.189946 1_654
Al2 U1 3.190037 1_544
Al2 U1 3.190037 1_545
Co0 U0 2.857153 1_655
Co0 U1 2.857214 1_545
Co0 U2 2.857285 1_655
Ru0 U0 2.861978 1_555
Ru0 U0 2.861978 1_554
Ru0 U1 2.862209 1_555
Ru0 U1 2.862209 1_554
Ru0 U2 2.862272 1_564
Ru0 U2 2.862272 1_565
Ru1 U0 2.861995 1_655
Ru1 U0 2.861995 1_654
Ru1 U1 2.862182 1_554
Ru1 U1 2.862182 1_555
Ru1 U2 2.862309 1_555
Ru1 U2 2.862309 1_554
