# generated using pymatgen
data_CsLaMg14O16
_symmetry_space_group_name_H-M   'P 1'
_cell_length_a   8.90660857
_cell_length_b   9.21493554
_cell_length_c   4.57373241
_cell_angle_alpha   89.99999819
_cell_angle_beta   90.00001936
_cell_angle_gamma   89.99998964
_symmetry_Int_Tables_number   1
_chemical_formula_structural   CsLaMg14O16
_chemical_formula_sum   'Cs1 La1 Mg14 O16'
_cell_volume   375.38370817
_cell_formula_units_Z   1
loop_
 _symmetry_equiv_pos_site_id
 _symmetry_equiv_pos_as_xyz
  1  'x, y, z'
loop_
 _atom_site_type_symbol
 _atom_site_label
 _atom_site_symmetry_multiplicity
 _atom_site_fract_x
 _atom_site_fract_y
 _atom_site_fract_z
 _atom_site_occupancy
  Cs  Cs0  1  0.00000506  0.49999713  0.00000057  1
  La  La0  1  -0.00000049  -0.00000250  0.99999507  1
  Mg  Mg0  1  0.49999984  -0.00000123  0.00000030  1
  Mg  Mg1  1  0.50000074  0.50000133  0.00000071  1
  Mg  Mg2  1  -0.00000103  0.25968304  0.49999814  1
  Mg  Mg3  1  -0.00000069  0.74031581  0.49999653  1
  Mg  Mg4  1  0.50000078  0.25215685  0.50000005  1
  Mg  Mg5  1  0.50000042  0.74784246  0.50000117  1
  Mg  Mg6  1  0.26917305  0.00000013  0.49999881  1
  Mg  Mg7  1  0.26599382  0.50000005  0.50000020  1
  Mg  Mg8  1  0.73082603  -0.00000037  0.49999817  1
  Mg  Mg9  1  0.73400852  0.50000078  0.50000136  1
  Mg  Mg10  1  0.26661655  0.25742567  -0.00000096  1
  Mg  Mg11  1  0.26661477  0.74257322  0.00000034  1
  Mg  Mg12  1  0.73338366  0.25742736  0.00000115  1
  Mg  Mg13  1  0.73338592  0.74257350  0.00000106  1
  O  O0  1  0.27368822  0.00000043  0.00000008  1
  O  O1  1  0.28833638  0.50000026  -0.00000001  1
  O  O2  1  0.72631114  -0.00000014  -0.00000011  1
  O  O3  1  0.71166775  0.50000003  0.00000022  1
  O  O4  1  0.25234344  0.25104491  0.50000076  1
  O  O5  1  0.25234319  0.74895539  0.50000085  1
  O  O6  1  0.74765612  0.25104339  0.50000043  1
  O  O7  1  0.74765665  0.74895733  0.50000082  1
  O  O8  1  0.00000040  0.00000066  0.49999681  1
  O  O9  1  0.99999194  0.50000401  0.49999850  1
  O  O10  1  0.49999948  0.00000052  0.49999982  1
  O  O11  1  0.50000088  0.50000010  0.50000015  1
  O  O12  1  0.99999884  0.23482111  0.00000220  1
  O  O13  1  0.99999849  0.76517886  0.00000604  1
  O  O14  1  0.49999999  0.24453934  0.00000066  1
  O  O15  1  0.50000013  0.75546057  0.00000010  1
loop_
_geom_bond_atom_site_label_1
_geom_bond_atom_site_label_2
_geom_bond_distance
_geom_bond_site_symmetry_2
Cs0 O9 2.286857 1_455
Cs0 O9 2.286876 1_454
Cs0 O12 2.443580 1_455
Cs0 O13 2.443633 1_455
Cs0 O1 2.568054 1_555
Cs0 O3 2.568108 1_455
La0 O13 2.163839 1_446
La0 O12 2.163884 1_456
La0 O8 2.286858 1_555
La0 O8 2.286874 1_556
La0 O2 2.437635 1_456
La0 O0 2.437638 1_556
Mg0 O2 2.015666 1_555
Mg0 O0 2.015669 1_555
Mg0 O15 2.253404 1_545
Mg0 O14 2.253426 1_555
Mg0 O10 2.286864 1_555
Mg0 O10 2.286868 1_554
Mg1 O1 1.885212 1_555
Mg1 O3 1.885235 1_555
Mg1 O11 2.286864 1_555
Mg1 O11 2.286869 1_554
Mg1 O15 2.354040 1_555
Mg1 O14 2.354066 1_555
Mg2 O9 2.214542 1_455
Mg2 O6 2.248929 1_455
Mg2 O4 2.248943 1_555
Mg2 O12 2.298295 1_455
Mg2 O12 2.298332 1_456
Mg2 O8 2.392956 1_555
Mg3 O9 2.214458 1_455
Mg3 O7 2.248928 1_455
Mg3 O5 2.248938 1_555
Mg3 O13 2.298271 1_455
Mg3 O13 2.298358 1_456
Mg3 O8 2.392979 1_565
Mg4 O6 2.205793 1_555
Mg4 O4 2.205811 1_555
Mg4 O11 2.283860 1_555
Mg4 O14 2.287940 1_555
Mg4 O14 2.287946 1_556
Mg4 O10 2.323604 1_555
Mg5 O7 2.205801 1_555
Mg5 O5 2.205810 1_555
Mg5 O11 2.283851 1_555
Mg5 O15 2.287939 1_556
Mg5 O15 2.287948 1_555
Mg5 O10 2.323620 1_565
Mg6 O10 2.055881 1_555
Mg6 O0 2.287214 1_555
Mg6 O0 2.287226 1_556
Mg6 O5 2.318212 1_545
Mg6 O4 2.318213 1_555
Mg6 O8 2.397415 1_555
Mg7 O11 2.084209 1_555
Mg7 O1 2.295507 1_556
Mg7 O1 2.295509 1_555
Mg7 O4 2.297325 1_555
Mg7 O5 2.297327 1_555
Mg7 O9 2.369175 1_455
Mg8 O10 2.055882 1_555
Mg8 O2 2.287212 1_555
Mg8 O2 2.287228 1_556
Mg8 O7 2.318190 1_545
Mg8 O6 2.318204 1_555
Mg8 O8 2.397431 1_655
Mg9 O11 2.084214 1_555
Mg9 O3 2.295501 1_556
Mg9 O3 2.295512 1_555
Mg9 O7 2.297337 1_555
Mg9 O6 2.297344 1_555
Mg9 O9 2.369010 1_555
Mg10 O14 2.082044 1_555
Mg10 O1 2.243664 1_555
Mg10 O4 2.291144 1_554
Mg10 O4 2.291159 1_555
Mg10 O0 2.372993 1_555
Mg10 O12 2.383778 1_455
Mg11 O15 2.082062 1_555
Mg11 O1 2.243651 1_555
Mg11 O5 2.291149 1_554
Mg11 O5 2.291153 1_555
Mg11 O0 2.373012 1_565
Mg11 O13 2.383766 1_455
Mg12 O14 2.082047 1_555
Mg12 O3 2.243644 1_555
Mg12 O6 2.291149 1_555
Mg12 O6 2.291155 1_554
Mg12 O2 2.373014 1_555
Mg12 O12 2.383757 1_555
Mg13 O15 2.082065 1_555
Mg13 O3 2.243653 1_555
Mg13 O7 2.291150 1_555
Mg13 O7 2.291152 1_554
Mg13 O2 2.373004 1_565
Mg13 O13 2.383733 1_555
