# generated using pymatgen
data_Mg2Au
_symmetry_space_group_name_H-M   'P 1'
_cell_length_a   4.33762471
_cell_length_b   6.19823221
_cell_length_c   8.49967062
_cell_angle_alpha   90.00000000
_cell_angle_beta   90.00000000
_cell_angle_gamma   90.00000000
_symmetry_Int_Tables_number   1
_chemical_formula_structural   Mg2Au
_chemical_formula_sum   'Mg8 Au4'
_cell_volume   228.51878855
_cell_formula_units_Z   4
loop_
 _symmetry_equiv_pos_site_id
 _symmetry_equiv_pos_as_xyz
  1  'x, y, z'
loop_
 _atom_site_type_symbol
 _atom_site_label
 _atom_site_symmetry_multiplicity
 _atom_site_fract_x
 _atom_site_fract_y
 _atom_site_fract_z
 _atom_site_occupancy
  Mg  Mg0  1  0.25000000  0.95884405  0.69442463  1
  Mg  Mg1  1  0.75000000  0.04115595  0.30557537  1
  Mg  Mg2  1  0.25000000  0.45884405  0.80557537  1
  Mg  Mg3  1  0.75000000  0.54115595  0.19442463  1
  Mg  Mg4  1  0.75000000  0.16562964  0.93998314  1
  Mg  Mg5  1  0.25000000  0.83437036  0.06001686  1
  Mg  Mg6  1  0.75000000  0.66562964  0.56001686  1
  Mg  Mg7  1  0.25000000  0.33437036  0.43998314  1
  Au  Au0  1  0.25000000  0.76842314  0.37785474  1
  Au  Au1  1  0.75000000  0.23157686  0.62214526  1
  Au  Au2  1  0.25000000  0.26842314  0.12214526  1
  Au  Au3  1  0.75000000  0.73157686  0.87785474  1
loop_
_geom_bond_atom_site_label_1
_geom_bond_atom_site_label_2
_geom_bond_distance
_geom_bond_site_symmetry_2
Mg0 Mg6 3.051534 1_455
Mg0 Mg6 3.051534 1_555
Mg0 Mg7 3.177240 1_565
Mg0 Mg5 3.201758 1_556
Mg0 Mg2 3.239917 1_565
Mg0 Mg2 3.239917 1_555
Mg0 Mg4 3.271510 1_465
Mg0 Mg4 3.271510 1_565
Mg1 Mg7 3.051534 1_555
Mg1 Mg7 3.051534 1_655
Mg1 Mg6 3.177240 1_545
Mg1 Mg4 3.201758 1_554
Mg1 Mg3 3.239917 1_545
Mg1 Mg3 3.239917 1_555
Mg1 Mg5 3.271510 1_545
Mg1 Mg5 3.271510 1_645
Mg2 Mg4 3.051534 1_555
Mg2 Mg4 3.051534 1_455
Mg2 Mg5 3.177240 1_556
Mg2 Mg7 3.201758 1_555
Mg2 Mg6 3.271510 1_455
Mg2 Mg6 3.271510 1_555
Mg3 Mg5 3.051534 1_655
Mg3 Mg5 3.051534 1_555
Mg3 Mg4 3.177240 1_554
Mg3 Mg6 3.201758 1_555
Mg3 Mg7 3.271510 1_555
Mg3 Mg7 3.271510 1_655
Mg4 Mg5 3.156006 1_546
Mg4 Mg5 3.156006 1_646
Mg6 Mg7 3.156006 1_555
Mg6 Mg7 3.156006 1_655
Au0 Mg5 2.732266 1_555
Au0 Mg6 2.739887 1_455
Au0 Mg6 2.739887 1_555
Au0 Mg7 2.741696 1_555
Au0 Mg1 2.817594 1_465
Au0 Mg1 2.817594 1_565
Au0 Mg0 2.938218 1_555
Au0 Mg3 3.019741 1_555
Au0 Mg3 3.019741 1_455
Au1 Mg4 2.732266 1_555
Au1 Mg7 2.739887 1_555
Au1 Mg7 2.739887 1_655
Au1 Mg6 2.741696 1_555
Au1 Mg0 2.817594 1_645
Au1 Mg0 2.817594 1_545
Au1 Mg1 2.938218 1_555
Au1 Mg2 3.019741 1_655
Au1 Mg2 3.019741 1_555
Au2 Mg7 2.732266 1_555
Au2 Mg4 2.739887 1_554
Au2 Mg4 2.739887 1_454
Au2 Mg5 2.741696 1_545
Au2 Mg3 2.817594 1_555
Au2 Mg3 2.817594 1_455
Au2 Mg2 2.938218 1_554
Au2 Mg1 3.019741 1_555
Au2 Mg1 3.019741 1_455
Au3 Mg6 2.732266 1_555
Au3 Mg5 2.739887 1_656
Au3 Mg5 2.739887 1_556
Au3 Mg4 2.741696 1_565
Au3 Mg2 2.817594 1_555
Au3 Mg2 2.817594 1_655
Au3 Mg3 2.938218 1_556
Au3 Mg0 3.019741 1_655
Au3 Mg0 3.019741 1_555
