# generated using pymatgen
data_Sr4Mn5O15
_symmetry_space_group_name_H-M   'P 1'
_cell_length_a   5.44455700
_cell_length_b   9.42707824
_cell_length_c   12.21333733
_cell_angle_alpha   97.47395668
_cell_angle_beta   102.87261246
_cell_angle_gamma   106.68994212
_symmetry_Int_Tables_number   1
_chemical_formula_structural   Sr4Mn5O15
_chemical_formula_sum   'Sr8 Mn10 O30'
_cell_volume   572.58657549
_cell_formula_units_Z   2
loop_
 _symmetry_equiv_pos_site_id
 _symmetry_equiv_pos_as_xyz
  1  'x, y, z'
loop_
 _atom_site_type_symbol
 _atom_site_label
 _atom_site_symmetry_multiplicity
 _atom_site_fract_x
 _atom_site_fract_y
 _atom_site_fract_z
 _atom_site_occupancy
  Sr  Sr0  1  0.65128700  0.34713600  0.45461000  1
  Sr  Sr1  1  0.05448800  0.95589900  0.65363500  1
  Sr  Sr2  1  0.44693100  0.54400000  0.84688400  1
  Sr  Sr3  1  0.84767500  0.15088400  0.04407900  1
  Sr  Sr4  1  0.34871300  0.65286400  0.54539000  1
  Sr  Sr5  1  0.15232500  0.84911600  0.95592100  1
  Sr  Sr6  1  0.55306900  0.45600000  0.15311600  1
  Sr  Sr7  1  0.94551200  0.04410100  0.34636500  1
  Mn  Mn0  1  0.39672000  0.09463400  0.19979600  1
  Mn  Mn1  1  0.60328000  0.90536600  0.80020400  1
  Mn  Mn2  1  0.00000000  0.50000000  0.00000000  1
  Mn  Mn3  1  0.79982200  0.70447200  0.39773200  1
  Mn  Mn4  1  0.20017800  0.29552800  0.60226800  1
  Mn  Mn5  1  0.50000000  0.00000000  0.50000000  1
  Mn  Mn6  1  0.70265300  0.80035000  0.10518200  1
  Mn  Mn7  1  0.10231200  0.40368600  0.29865500  1
  Mn  Mn8  1  0.89768800  0.59631400  0.70134500  1
  Mn  Mn9  1  0.29734700  0.19965000  0.89481800  1
  O  O0  1  0.72871100  0.75737300  0.25125900  1
  O  O1  1  0.94463600  0.56989300  0.85700500  1
  O  O2  1  0.34186000  0.16338900  0.05444000  1
  O  O3  1  0.13889600  0.36161900  0.45426900  1
  O  O4  1  0.52649700  0.95188300  0.65034100  1
  O  O5  1  0.86110400  0.63838100  0.54573100  1
  O  O6  1  0.05536400  0.43010700  0.14299500  1
  O  O7  1  0.47350300  0.04811700  0.34965900  1
  O  O8  1  0.27128900  0.24262700  0.74874100  1
  O  O9  1  0.65814000  0.83661100  0.94556000  1
  O  O10  1  0.25404500  0.24674100  0.26197800  1
  O  O11  1  0.44318700  0.04130600  0.86502700  1
  O  O12  1  0.84370000  0.64485700  0.05554200  1
  O  O13  1  0.66612000  0.84891400  0.46696100  1
  O  O14  1  0.06063300  0.45092400  0.65752900  1
  O  O15  1  0.55681300  0.95869400  0.13497300  1
  O  O16  1  0.74595500  0.75325900  0.73802200  1
  O  O17  1  0.15630000  0.35514300  0.94445800  1
  O  O18  1  0.93936700  0.54907600  0.34247100  1
  O  O19  1  0.33388000  0.15108600  0.53303900  1
  O  O20  1  0.45766700  0.54326600  0.35429600  1
  O  O21  1  0.85333300  0.14814100  0.54556000  1
  O  O22  1  0.24922700  0.74880700  0.74904100  1
  O  O23  1  0.64451900  0.35277500  0.95571800  1
  O  O24  1  0.04253700  0.95380000  0.14691300  1
  O  O25  1  0.54233300  0.45673400  0.64570400  1
  O  O26  1  0.95746300  0.04620000  0.85308700  1
  O  O27  1  0.35548100  0.64722500  0.04428200  1
  O  O28  1  0.75077300  0.25119300  0.25095900  1
  O  O29  1  0.14666700  0.85185900  0.45444000  1
loop_
_geom_bond_atom_site_label_1
_geom_bond_atom_site_label_2
_geom_bond_distance
_geom_bond_site_symmetry_2
Mn0 O24 1.910460 1_545
Mn0 O7 1.921024 1_555
Mn0 O15 1.927164 1_545
Mn0 O2 1.958375 1_555
Mn0 O10 1.963587 1_555
Mn0 O28 1.968207 1_555
Mn1 O26 1.910460 1_565
Mn1 O4 1.921024 1_555
Mn1 O11 1.927164 1_565
Mn1 O9 1.958375 1_555
Mn1 O16 1.963587 1_555
Mn1 O22 1.968207 1_555
Mn2 O12 1.932058 1_455
Mn2 O17 1.932058 1_554
Mn2 O6 1.937509 1_555
Mn2 O1 1.937509 1_454
Mn2 O27 1.939099 1_555
Mn2 O23 1.939099 1_454
Mn3 O0 1.906106 1_555
Mn3 O29 1.906863 1_655
Mn3 O13 1.908668 1_555
Mn3 O20 1.945530 1_555
Mn3 O18 1.946619 1_555
Mn3 O5 1.977486 1_555
Mn4 O8 1.906106 1_555
Mn4 O21 1.906863 1_455
Mn4 O19 1.908668 1_555
Mn4 O25 1.945530 1_555
Mn4 O14 1.946619 1_555
Mn4 O3 1.977486 1_555
Mn5 O7 1.932435 1_555
Mn5 O4 1.932435 1_545
Mn5 O21 1.933514 1_555
Mn5 O29 1.933514 1_545
Mn5 O19 1.939719 1_555
Mn5 O13 1.939719 1_545
Mn6 O0 1.864274 1_555
Mn6 O24 1.904509 1_655
Mn6 O15 1.912937 1_555
Mn6 O12 1.931015 1_555
Mn6 O27 1.933092 1_555
Mn6 O9 1.996657 1_554
Mn7 O20 1.912003 1_555
Mn7 O18 1.916020 1_455
Mn7 O6 1.919608 1_555
Mn7 O10 1.940791 1_555
Mn7 O28 1.942727 1_455
Mn7 O3 1.970245 1_555
Mn8 O25 1.912003 1_555
Mn8 O14 1.916020 1_655
Mn8 O1 1.919608 1_555
Mn8 O16 1.940791 1_555
Mn8 O22 1.942727 1_655
Mn8 O5 1.970245 1_555
Mn9 O8 1.864274 1_555
Mn9 O26 1.904509 1_455
Mn9 O11 1.912937 1_555
Mn9 O17 1.931015 1_555
Mn9 O23 1.933092 1_555
Mn9 O2 1.996657 1_556
O0 Sr7 2.605464 1_565
O0 Sr6 2.732346 1_555
O1 Sr5 2.553684 1_655
O1 Sr2 2.623122 1_555
O1 Sr2 2.842543 1_655
O2 Sr3 2.632786 1_455
O2 Sr6 2.660749 1_555
O2 Sr3 2.819921 1_555
O2 Sr5 2.837858 1_544
O3 Sr0 2.619843 1_455
O3 Sr4 2.630377 1_555
O3 Sr0 2.831089 1_555
O3 Sr7 2.889688 1_455
O4 Sr1 2.590152 1_555
O4 Sr4 2.732391 1_555
O4 Sr1 2.855238 1_655
O5 Sr4 2.619843 1_655
O5 Sr0 2.630377 1_555
O5 Sr4 2.831089 1_555
O5 Sr1 2.889688 1_655
O6 Sr3 2.553684 1_455
O6 Sr6 2.623122 1_555
O6 Sr6 2.842543 1_455
O7 Sr7 2.590152 1_555
O7 Sr0 2.732391 1_555
O7 Sr7 2.855238 1_455
O8 Sr1 2.605464 1_545
O8 Sr2 2.732346 1_555
O9 Sr5 2.632786 1_655
O9 Sr2 2.660749 1_555
O9 Sr5 2.819921 1_555
O9 Sr3 2.837858 1_566
O10 Sr7 2.640782 1_455
O10 Sr0 2.662018 1_555
O10 Sr6 2.848147 1_555
O10 Sr3 2.897686 1_455
O11 Sr3 2.580508 1_556
O11 Sr5 2.584826 1_545
O11 Sr1 2.799759 1_545
O12 Sr6 2.620639 1_555
O12 Sr5 2.770134 1_654
O12 Sr2 2.793203 1_554
O13 Sr4 2.585219 1_555
O13 Sr1 2.591355 1_655
O13 Sr7 2.822182 1_565
O14 Sr2 2.605122 1_555
O14 Sr0 2.778866 1_455
O14 Sr4 2.807196 1_555
O15 Sr5 2.580508 1_554
O15 Sr3 2.584826 1_565
O15 Sr7 2.799759 1_565
O16 Sr1 2.640782 1_655
O16 Sr4 2.662018 1_555
O16 Sr2 2.848147 1_555
O16 Sr5 2.897686 1_655
O17 Sr2 2.620639 1_555
O17 Sr3 2.770134 1_456
O17 Sr6 2.793203 1_556
O18 Sr6 2.605122 1_555
O18 Sr4 2.778866 1_655
O18 Sr0 2.807196 1_555
O19 Sr0 2.585219 1_555
O19 Sr7 2.591355 1_455
O19 Sr1 2.822182 1_545
O20 Sr0 2.676611 1_555
O20 Sr4 2.684780 1_555
O20 Sr6 2.696675 1_555
O21 Sr0 2.673222 1_555
O21 Sr7 2.708973 1_555
O21 Sr1 2.710046 1_645
O22 Sr1 2.742908 1_555
O22 Sr2 2.745031 1_555
O22 Sr4 2.755783 1_555
O22 Sr5 2.795655 1_555
O23 Sr6 2.685156 1_556
O23 Sr3 2.687389 1_556
O23 Sr2 2.697031 1_555
O24 Sr5 2.670896 1_554
O24 Sr7 2.688846 1_465
O24 Sr3 2.701928 1_465
O25 Sr4 2.676611 1_555
O25 Sr0 2.684780 1_555
O25 Sr2 2.696675 1_555
O26 Sr3 2.670896 1_556
O26 Sr1 2.688846 1_645
O26 Sr5 2.701928 1_645
O27 Sr2 2.685156 1_554
O27 Sr5 2.687389 1_554
O27 Sr6 2.697031 1_555
O28 Sr7 2.742908 1_555
O28 Sr6 2.745031 1_555
O28 Sr0 2.755783 1_555
O28 Sr3 2.795655 1_555
O29 Sr4 2.673222 1_555
O29 Sr1 2.708973 1_555
O29 Sr7 2.710046 1_465
