# generated using pymatgen
data_Li3Cr2Fe3O10
_symmetry_space_group_name_H-M   'P 1'
_cell_length_a   5.09949700
_cell_length_b   5.18172944
_cell_length_c   7.79909365
_cell_angle_alpha   72.60778463
_cell_angle_beta   72.17602773
_cell_angle_gamma   78.37067703
_symmetry_Int_Tables_number   1
_chemical_formula_structural   Li3Cr2Fe3O10
_chemical_formula_sum   'Li3 Cr2 Fe3 O10'
_cell_volume   185.84375528
_cell_formula_units_Z   1
loop_
 _symmetry_equiv_pos_site_id
 _symmetry_equiv_pos_as_xyz
  1  'x, y, z'
loop_
 _atom_site_type_symbol
 _atom_site_label
 _atom_site_symmetry_multiplicity
 _atom_site_fract_x
 _atom_site_fract_y
 _atom_site_fract_z
 _atom_site_occupancy
  Li  Li0  1  0.50400500  0.77703100  0.40756200  1
  Li  Li1  1  0.00000000  0.50000000  0.50000000  1
  Li  Li2  1  0.49599500  0.22296900  0.59243800  1
  Cr  Cr0  1  0.02035200  0.89405200  0.68737200  1
  Cr  Cr1  1  0.97964800  0.10594800  0.31262800  1
  Fe  Fe0  1  0.50000000  0.00000000  0.00000000  1
  Fe  Fe1  1  0.02371500  0.68536500  0.10472400  1
  Fe  Fe2  1  0.97628500  0.31463500  0.89527600  1
  O  O0  1  0.23543000  0.95767600  0.85669300  1
  O  O1  1  0.78753100  0.88580000  0.52339200  1
  O  O2  1  0.78596500  0.67927500  0.93616700  1
  O  O3  1  0.24793200  0.79955200  0.23436800  1
  O  O4  1  0.20292700  0.54945500  0.66307500  1
  O  O5  1  0.79707300  0.45054500  0.33692500  1
  O  O6  1  0.75206800  0.20044800  0.76563200  1
  O  O7  1  0.21403500  0.32072500  0.06383300  1
  O  O8  1  0.21246900  0.11420000  0.47660800  1
  O  O9  1  0.76457000  0.04232400  0.14330700  1
loop_
_geom_bond_atom_site_label_1
_geom_bond_atom_site_label_2
_geom_bond_distance
_geom_bond_site_symmetry_2
Li0 O5 2.105446 1_555
Li0 O3 2.113655 1_555
Li0 O8 2.139581 1_565
Li0 O1 2.157937 1_555
Li0 O4 2.273996 1_555
Li0 O9 2.295442 1_565
Li1 O5 1.965090 1_455
Li1 O4 1.965090 1_555
Li1 O8 2.104150 1_555
Li1 O1 2.104150 1_455
Li1 O3 2.359032 1_555
Li1 O6 2.359032 1_455
Li2 O4 2.105446 1_555
Li2 O6 2.113655 1_555
Li2 O1 2.139581 1_545
Li2 O8 2.157937 1_555
Li2 O5 2.273996 1_555
Li2 O0 2.295442 1_545
Cr0 O8 1.818461 1_565
Cr0 O4 1.874880 1_555
Cr0 O6 1.989309 1_465
Cr0 O1 2.007414 1_455
Cr0 O2 2.063437 1_455
Cr0 O0 2.085236 1_555
Cr1 O1 1.818461 1_545
Cr1 O5 1.874880 1_555
Cr1 O3 1.989309 1_645
Cr1 O8 2.007414 1_655
Cr1 O7 2.063437 1_655
Cr1 O9 2.085236 1_555
Fe0 O3 2.009255 1_545
Fe0 O6 2.009255 1_554
Fe0 O7 2.051700 1_555
Fe0 O2 2.051700 1_544
Fe0 O9 2.075211 1_555
Fe0 O0 2.075211 1_544
Fe1 O3 2.004476 1_555
Fe1 O7 2.011260 1_555
Fe1 O5 2.015987 1_455
Fe1 O2 2.053050 1_454
Fe1 O9 2.088548 1_465
Fe1 O0 2.145342 1_554
Fe2 O6 2.004476 1_555
Fe2 O2 2.011260 1_555
Fe2 O4 2.015987 1_655
Fe2 O7 2.053050 1_656
Fe2 O0 2.088548 1_645
Fe2 O9 2.145342 1_556
