# generated using pymatgen
data_Mn3FeN3
_symmetry_space_group_name_H-M   'P 1'
_cell_length_a   6.62719411
_cell_length_b   6.62067515
_cell_length_c   3.94745800
_cell_angle_alpha   90.00000000
_cell_angle_beta   90.00000000
_cell_angle_gamma   120.15930029
_symmetry_Int_Tables_number   1
_chemical_formula_structural   Mn3FeN3
_chemical_formula_sum   'Mn6 Fe2 N6'
_cell_volume   149.75479723
_cell_formula_units_Z   2
loop_
 _symmetry_equiv_pos_site_id
 _symmetry_equiv_pos_as_xyz
  1  'x, y, z'
loop_
 _atom_site_type_symbol
 _atom_site_label
 _atom_site_symmetry_multiplicity
 _atom_site_fract_x
 _atom_site_fract_y
 _atom_site_fract_z
 _atom_site_occupancy
  Mn  Mn0  1  0.82896700  0.65614400  0.25000000  1
  Mn  Mn1  1  0.82696100  0.17127500  0.25000000  1
  Mn  Mn2  1  0.34446400  0.17304500  0.25000000  1
  Mn  Mn3  1  0.17103300  0.34385600  0.75000000  1
  Mn  Mn4  1  0.17303900  0.82872500  0.75000000  1
  Mn  Mn5  1  0.65553600  0.82695500  0.75000000  1
  Fe  Fe0  1  0.66702200  0.33386000  0.75000000  1
  Fe  Fe1  1  0.33297800  0.66614000  0.25000000  1
  N  N0  1  0.82705700  0.65294300  0.75000000  1
  N  N1  1  0.82522400  0.17313100  0.75000000  1
  N  N2  1  0.34754400  0.17530000  0.75000000  1
  N  N3  1  0.17294300  0.34705700  0.25000000  1
  N  N4  1  0.17477600  0.82686900  0.25000000  1
  N  N5  1  0.65245600  0.82470000  0.25000000  1
loop_
_geom_bond_atom_site_label_1
_geom_bond_atom_site_label_2
_geom_bond_distance
_geom_bond_site_symmetry_2
Mn0 N0 1.973815 1_554
Mn0 N0 1.973815 1_555
Mn0 N5 1.981267 1_555
Mn0 N4 1.981626 1_655
Mn1 N1 1.973837 1_555
Mn1 N1 1.973837 1_554
Mn1 N3 1.982541 1_655
Mn1 N5 1.983954 1_545
Mn2 N2 1.973813 1_555
Mn2 N2 1.973813 1_554
Mn2 N4 1.981849 1_545
Mn2 N3 1.983745 1_555
Mn3 N3 1.973815 1_555
Mn3 N3 1.973815 1_556
Mn3 N2 1.981267 1_555
Mn3 N1 1.981626 1_455
Mn4 N4 1.973837 1_556
Mn4 N4 1.973837 1_555
Mn4 N0 1.982541 1_455
Mn4 N2 1.983954 1_565
Mn5 N5 1.973813 1_555
Mn5 N5 1.973813 1_556
Mn5 N1 1.981849 1_565
Mn5 N0 1.983745 1_555
Fe0 N0 1.826574 1_555
Fe0 N2 1.830689 1_555
Fe0 N1 1.831023 1_555
Fe1 N3 1.826574 1_555
Fe1 N5 1.830689 1_555
Fe1 N4 1.831023 1_555
