# generated using pymatgen
data_PrNO5
_symmetry_space_group_name_H-M   'P 1'
_cell_length_a   3.81040800
_cell_length_b   6.70762610
_cell_length_c   8.15214631
_cell_angle_alpha   93.11742458
_cell_angle_beta   90.00000000
_cell_angle_gamma   90.00000000
_symmetry_Int_Tables_number   1
_chemical_formula_structural   PrNO5
_chemical_formula_sum   'Pr2 N2 O10'
_cell_volume   208.05067901
_cell_formula_units_Z   2
loop_
 _symmetry_equiv_pos_site_id
 _symmetry_equiv_pos_as_xyz
  1  'x, y, z'
loop_
 _atom_site_type_symbol
 _atom_site_label
 _atom_site_symmetry_multiplicity
 _atom_site_fract_x
 _atom_site_fract_y
 _atom_site_fract_z
 _atom_site_occupancy
  Pr  Pr0  1  0.25716700  0.24563900  0.38151400  1
  Pr  Pr1  1  0.75716700  0.75436100  0.61848600  1
  N  N0  1  0.63649900  0.27062700  0.06003000  1
  N  N1  1  0.13649900  0.72937300  0.93997000  1
  O  O0  1  0.74579200  0.40721200  0.54229400  1
  O  O1  1  0.24579200  0.59278800  0.45770600  1
  O  O2  1  0.25316300  0.00540100  0.59105500  1
  O  O3  1  0.75316300  0.99459900  0.40894500  1
  O  O4  1  0.75839800  0.36007600  0.19618000  1
  O  O5  1  0.25839800  0.63992400  0.80382000  1
  O  O6  1  0.76138200  0.30628900  0.92710700  1
  O  O7  1  0.26138200  0.69371100  0.07289300  1
  O  O8  1  0.38219900  0.15091400  0.07945200  1
  O  O9  1  0.88219900  0.84908600  0.92054800  1
loop_
_geom_bond_atom_site_label_1
_geom_bond_atom_site_label_2
_geom_bond_distance
_geom_bond_site_symmetry_2
N0 O6 1.219039 1_554
N0 O8 1.273823 1_555
N0 O4 1.317275 1_555
N1 O7 1.219039 1_556
N1 O9 1.273823 1_455
N1 O5 1.317275 1_555
O0 Pr1 2.377498 1_555
O0 Pr0 2.490888 1_555
O0 Pr0 2.556333 1_655
O1 Pr0 2.377498 1_555
O1 Pr1 2.490888 1_455
O1 Pr1 2.556333 1_555
O2 Pr0 2.411286 1_555
O2 Pr1 2.549181 1_445
O2 Pr1 2.571885 1_545
O3 Pr1 2.411286 1_555
O3 Pr0 2.549181 1_565
O3 Pr0 2.571885 1_665
O4 Pr0 2.570998 1_655
O4 Pr0 2.577940 1_555
O5 Pr1 2.570998 1_555
O5 Pr1 2.577940 1_455
O8 Pr0 2.554250 1_555
O9 Pr1 2.554250 1_555
