# generated using pymatgen
data_La3(AgSn)4
_symmetry_space_group_name_H-M   'P 1'
_cell_length_a   9.07768064
_cell_length_b   9.07768064
_cell_length_c   9.07768064
_cell_angle_alpha   149.48272019
_cell_angle_beta   131.17410654
_cell_angle_gamma   58.67945893
_symmetry_Int_Tables_number   1
_chemical_formula_structural   La3(AgSn)4
_chemical_formula_sum   'La3 Ag4 Sn4'
_cell_volume   283.72009547
_cell_formula_units_Z   1
loop_
 _symmetry_equiv_pos_site_id
 _symmetry_equiv_pos_as_xyz
  1  'x, y, z'
loop_
 _atom_site_type_symbol
 _atom_site_label
 _atom_site_symmetry_multiplicity
 _atom_site_fract_x
 _atom_site_fract_y
 _atom_site_fract_z
 _atom_site_occupancy
  La  La0  1  0.36913100  0.86913100  0.50000000  1
  La  La1  1  0.63086900  0.13086900  0.50000000  1
  La  La2  1  0.00000000  0.00000000  0.00000000  1
  Ag  Ag0  1  0.63936900  0.33098900  0.30838000  1
  Ag  Ag1  1  0.36063100  0.66901100  0.69162000  1
  Ag  Ag2  1  0.02260800  0.33098900  0.69162000  1
  Ag  Ag3  1  0.97739200  0.66901100  0.30838000  1
  Sn  Sn0  1  0.21619500  0.21619500  0.00000000  1
  Sn  Sn1  1  0.78380500  0.78380500  0.00000000  1
  Sn  Sn2  1  0.69203800  0.50000000  0.19203800  1
  Sn  Sn3  1  0.30796200  0.50000000  0.80796200  1
loop_
_geom_bond_atom_site_label_1
_geom_bond_atom_site_label_2
_geom_bond_distance
_geom_bond_site_symmetry_2
La0 Sn0 3.400893 1_555
La0 Sn0 3.400893 1_566
La0 Sn2 3.474752 1_566
La0 Sn2 3.474752 1_555
La0 Sn3 3.474752 1_554
La0 Sn3 3.474752 1_565
La1 Sn1 3.400893 1_545
La1 Sn1 3.400893 1_556
La1 Sn2 3.474752 1_556
La1 Sn2 3.474752 1_545
La1 Sn3 3.474752 1_544
La1 Sn3 3.474752 1_555
La2 Sn3 3.323803 1_544
La2 Sn2 3.323803 1_455
La2 Sn3 3.323803 1_555
La2 Sn2 3.323803 1_444
La2 Sn0 3.421625 1_555
La2 Sn1 3.421625 1_445
Ag0 Sn2 2.813723 1_555
Ag0 Ag2 2.875751 1_655
Ag0 Sn1 2.886629 1_556
Ag0 Sn1 2.886629 1_545
Ag0 Sn0 2.942012 1_555
Ag0 La0 3.380322 1_555
Ag0 La0 3.380322 1_544
Ag0 La1 3.478323 1_555
Ag0 La2 3.863919 1_655
Ag0 La2 3.863919 1_666
Ag1 Sn3 2.813723 1_555
Ag1 Ag3 2.875751 1_455
Ag1 Sn0 2.886629 1_566
Ag1 Sn0 2.886629 1_555
Ag1 Sn1 2.942012 1_556
Ag1 La1 3.380322 1_566
Ag1 La1 3.380322 1_555
Ag1 La0 3.478323 1_555
Ag1 La2 3.863919 1_566
Ag1 La2 3.863919 1_555
Ag2 Sn3 2.813732 1_555
Ag2 Sn1 2.886623 1_456
Ag2 Sn1 2.886627 1_445
Ag2 Sn0 2.942010 1_556
Ag2 La0 3.380324 1_556
Ag2 La0 3.380328 1_545
Ag2 La1 3.478314 1_455
Ag2 La2 3.863922 1_566
Ag2 La2 3.863925 1_555
Ag3 Sn2 2.813732 1_555
Ag3 Sn0 2.886623 1_655
Ag3 Sn0 2.886627 1_666
Ag3 Sn1 2.942010 1_555
Ag3 La1 3.380324 1_554
Ag3 La1 3.380328 1_565
Ag3 La0 3.478314 1_655
Ag3 La2 3.863922 1_655
Ag3 La2 3.863925 1_666
Sn2 Sn3 2.882028 1_554
