# generated using pymatgen
data_CeI3
_symmetry_space_group_name_H-M   'P 1'
_cell_length_a   7.73037060
_cell_length_b   7.73037060
_cell_length_c   10.13404743
_cell_angle_alpha   90.00000000
_cell_angle_beta   90.00000000
_cell_angle_gamma   147.14393025
_symmetry_Int_Tables_number   1
_chemical_formula_structural   CeI3
_chemical_formula_sum   'Ce2 I6'
_cell_volume   328.55474647
_cell_formula_units_Z   2
loop_
 _symmetry_equiv_pos_site_id
 _symmetry_equiv_pos_as_xyz
  1  'x, y, z'
loop_
 _atom_site_type_symbol
 _atom_site_label
 _atom_site_symmetry_multiplicity
 _atom_site_fract_x
 _atom_site_fract_y
 _atom_site_fract_z
 _atom_site_occupancy
  Ce  Ce0  1  0.25860605  0.74139395  0.25000000  1
  Ce  Ce1  1  0.74139395  0.25860605  0.75000000  1
  I  I0  1  0.64988277  0.35011723  0.06719265  1
  I  I1  1  0.35011723  0.64988277  0.93280735  1
  I  I2  1  0.35011723  0.64988277  0.56719265  1
  I  I3  1  0.64988277  0.35011723  0.43280735  1
  I  I4  1  0.91255178  0.08744822  0.25000000  1
  I  I5  1  0.08744822  0.91255178  0.75000000  1
loop_
_geom_bond_atom_site_label_1
_geom_bond_atom_site_label_2
_geom_bond_distance
_geom_bond_site_symmetry_2
Ce0 I4 3.160928 1_565
Ce0 I4 3.160928 1_455
Ce0 I3 3.288044 1_565
Ce0 I0 3.288044 1_565
Ce0 I0 3.288044 1_455
Ce0 I3 3.288044 1_455
Ce0 I2 3.489169 1_555
Ce0 I1 3.489169 1_554
Ce1 I5 3.160928 1_655
Ce1 I5 3.160928 1_545
Ce1 I2 3.288044 1_655
Ce1 I1 3.288044 1_655
Ce1 I1 3.288044 1_545
Ce1 I2 3.288044 1_545
Ce1 I0 3.489169 1_556
Ce1 I3 3.489169 1_555
