# generated using pymatgen
data_Sr3Te4O11
_symmetry_space_group_name_H-M   'P 1'
_cell_length_a   7.68607500
_cell_length_b   9.40474031
_cell_length_c   9.74698361
_cell_angle_alpha   98.36066533
_cell_angle_beta   110.05402150
_cell_angle_gamma   101.49872770
_symmetry_Int_Tables_number   1
_chemical_formula_structural   Sr3Te4O11
_chemical_formula_sum   'Sr6 Te8 O22'
_cell_volume   630.83469358
_cell_formula_units_Z   2
loop_
 _symmetry_equiv_pos_site_id
 _symmetry_equiv_pos_as_xyz
  1  'x, y, z'
loop_
 _atom_site_type_symbol
 _atom_site_label
 _atom_site_symmetry_multiplicity
 _atom_site_fract_x
 _atom_site_fract_y
 _atom_site_fract_z
 _atom_site_occupancy
  Sr  Sr0  1  0.47365400  0.33330300  0.32316900  1
  Sr  Sr1  1  0.04257100  0.37595200  0.53009300  1
  Sr  Sr2  1  0.48641800  0.82592000  0.82623400  1
  Sr  Sr3  1  0.31620100  0.21456100  0.88527400  1
  Sr  Sr4  1  0.86942300  0.76502300  0.58905600  1
  Sr  Sr5  1  0.88697300  0.25310200  0.08872200  1
  Te  Te0  1  0.10276800  0.93441700  0.00479400  1
  Te  Te1  1  0.20011100  0.54695600  0.98220800  1
  Te  Te2  1  0.64088800  0.98963000  0.25254700  1
  Te  Te3  1  0.25768800  0.65635600  0.41032500  1
  Te  Te4  1  0.72188300  0.59461600  0.16490900  1
  Te  Te5  1  0.67818200  0.10330900  0.66802400  1
  Te  Te6  1  0.68274700  0.48780500  0.74968500  1
  Te  Te7  1  0.16325200  0.04378300  0.43377500  1
  O  O0  1  0.73817000  0.19679300  0.33997400  1
  O  O1  1  0.13116200  0.19072100  0.32084400  1
  O  O2  1  0.37992500  0.52595300  0.51451600  1
  O  O3  1  0.87079300  0.92919000  0.37240100  1
  O  O4  1  0.70058300  0.98826200  0.08206800  1
  O  O5  1  0.15251300  0.14951100  0.60795800  1
  O  O6  1  0.79006900  0.48395400  0.60218500  1
  O  O7  1  0.47461700  0.15341800  0.51604100  1
  O  O8  1  0.88701300  0.43622000  0.90002400  1
  O  O9  1  0.34792000  0.07771500  0.11211900  1
  O  O10  1  0.57585600  0.11381000  0.81828100  1
  O  O11  1  0.01669100  0.50792000  0.30230000  1
  O  O12  1  0.75066700  0.69645300  0.82299300  1
  O  O13  1  0.60632200  0.89356700  0.60161400  1
  O  O14  1  0.18542800  0.74225400  0.56252500  1
  O  O15  1  0.16903300  0.85519300  0.84604800  1
  O  O16  1  0.98123500  0.06868600  0.90718700  1
  O  O17  1  0.21632000  0.44957100  0.80666100  1
  O  O18  1  0.22963400  0.39487900  0.08843500  1
  O  O19  1  0.49234700  0.66000600  0.05177600  1
  O  O20  1  0.62055500  0.38729300  0.07963800  1
  O  O21  1  0.66528800  0.59559900  0.33649500  1
loop_
_geom_bond_atom_site_label_1
_geom_bond_atom_site_label_2
_geom_bond_distance
_geom_bond_site_symmetry_2
O0 Te2 1.892238 1_545
O0 Sr1 2.508748 1_655
O0 Sr0 2.584947 1_555
O0 Sr5 3.105225 1_555
O1 Te7 1.890554 1_555
O1 Sr5 2.626487 1_455
O1 Sr0 2.696512 1_555
O1 Sr1 2.837297 1_555
O2 Te3 1.893500 1_555
O2 Sr1 2.758689 1_555
O2 Sr0 2.781959 1_555
O3 Te2 1.997047 1_555
O3 Te7 2.120534 1_665
O3 Sr4 2.792888 1_555
O4 Te2 1.868364 1_555
O4 Sr2 2.516853 1_554
O4 Sr5 2.593660 1_565
O5 Te7 1.875051 1_555
O5 Sr3 2.478573 1_555
O5 Sr1 2.563789 1_555
O6 Te6 1.886467 1_555
O6 Sr1 2.608756 1_655
O6 Sr4 2.623918 1_555
O6 Sr0 2.878850 1_555
O7 Te5 1.942167 1_555
O7 Te7 2.212037 1_555
O7 Sr0 2.704918 1_555
O8 Te6 1.944263 1_555
O8 Te1 2.225675 1_655
O8 Sr5 2.696292 1_556
O9 Te0 1.920093 1_545
O9 Te2 2.567090 1_545
O9 Sr3 2.680954 1_554
O9 Sr0 2.686271 1_555
O10 Te5 1.884697 1_555
O10 Sr3 2.602859 1_555
O10 Sr2 2.676716 1_545
O10 Sr5 2.794037 1_556
O11 Te3 1.921608 1_555
O11 Te4 2.562341 1_455
O11 Sr1 2.665816 1_555
O11 Sr5 2.691475 1_455
O12 Te6 1.887233 1_555
O12 Sr2 2.574384 1_555
O12 Sr4 2.840517 1_555
O13 Te5 1.887910 1_565
O13 Sr4 2.582099 1_555
O13 Sr2 2.757259 1_555
O14 Te3 1.886069 1_555
O14 Sr4 2.575654 1_455
O14 Sr2 2.680651 1_555
O15 Te0 1.888166 1_556
O15 Sr2 2.576699 1_555
O15 Sr4 2.635211 1_455
O16 Te0 1.892730 1_646
O16 Sr5 2.674239 1_556
O16 Sr3 2.758680 1_655
O17 Te1 1.875638 1_555
O17 Sr1 2.479778 1_555
O17 Sr3 2.612864 1_555
O18 Te1 1.888926 1_554
O18 Sr0 2.638786 1_555
O18 Sr5 2.705625 1_455
O18 Sr3 2.759837 1_554
O19 Te4 2.000560 1_555
O19 Te1 2.104534 1_554
O19 Sr2 2.868242 1_554
O20 Te4 1.891692 1_555
O20 Sr3 2.500174 1_554
O20 Sr5 2.594640 1_555
O20 Sr0 3.021105 1_555
O21 Te4 1.866124 1_555
O21 Sr4 2.504862 1_555
O21 Sr0 2.568769 1_555
