# generated using pymatgen
data_LaMgVFeO6
_symmetry_space_group_name_H-M   'P 1'
_cell_length_a   5.47827900
_cell_length_b   5.36637400
_cell_length_c   9.43555044
_cell_angle_alpha   55.26404214
_cell_angle_beta   90.00000000
_cell_angle_gamma   90.00000000
_symmetry_Int_Tables_number   1
_chemical_formula_structural   LaMgVFeO6
_chemical_formula_sum   'La2 Mg2 V2 Fe2 O12'
_cell_volume   227.95618699
_cell_formula_units_Z   2
loop_
 _symmetry_equiv_pos_site_id
 _symmetry_equiv_pos_as_xyz
  1  'x, y, z'
loop_
 _atom_site_type_symbol
 _atom_site_label
 _atom_site_symmetry_multiplicity
 _atom_site_fract_x
 _atom_site_fract_y
 _atom_site_fract_z
 _atom_site_occupancy
  La  La0  1  0.20907600  0.74444500  0.24956000  1
  La  La1  1  0.79092400  0.74444500  0.74956000  1
  Mg  Mg0  1  0.69521700  0.26975100  0.25505400  1
  Mg  Mg1  1  0.30478300  0.26975100  0.75505400  1
  V  V0  1  0.74423400  0.50238300  0.49926000  1
  V  V1  1  0.25576600  0.50238300  0.99926000  1
  Fe  Fe0  1  0.75040000  0.00059000  0.00102200  1
  Fe  Fe1  1  0.24960000  0.00059000  0.50102200  1
  O  O0  1  0.22933500  0.88125700  0.75163300  1
  O  O1  1  0.05320000  0.24861500  0.94063600  1
  O  O2  1  0.04273000  0.62164900  0.55875400  1
  O  O3  1  0.95727000  0.62164900  0.05875400  1
  O  O4  1  0.94680000  0.24861500  0.44063600  1
  O  O5  1  0.77066500  0.88125700  0.25163300  1
  O  O6  1  0.70263500  0.17355700  0.74721300  1
  O  O7  1  0.52527200  0.71857900  0.55418000  1
  O  O8  1  0.51232900  0.33917500  0.94268600  1
  O  O9  1  0.48767100  0.33917500  0.44268600  1
  O  O10  1  0.47472800  0.71857900  0.05418000  1
  O  O11  1  0.29736500  0.17355700  0.24721300  1
loop_
_geom_bond_atom_site_label_1
_geom_bond_atom_site_label_2
_geom_bond_distance
_geom_bond_site_symmetry_2
La0 O11 2.340746 1_565
La0 O10 2.413997 1_555
La0 O9 2.421474 1_555
La0 O5 2.514780 1_455
La0 O4 2.632109 1_455
La0 O3 2.632574 1_455
La0 O1 2.749274 1_564
La0 O2 2.754116 1_555
La1 O6 2.340746 1_565
La1 O7 2.413997 1_555
La1 O8 2.421474 1_555
La1 O0 2.514780 1_655
La1 O1 2.632109 1_655
La1 O2 2.632574 1_655
La1 O4 2.749274 1_565
La1 O3 2.754116 1_556
Mg0 O5 2.143590 1_545
Mg0 O4 2.179981 1_555
Mg0 O11 2.250752 1_555
Mg0 O3 2.252050 1_555
Mg0 O9 2.305983 1_555
Mg0 O10 2.377034 1_555
Mg1 O0 2.143590 1_545
Mg1 O1 2.179981 1_555
Mg1 O6 2.250752 1_555
Mg1 O2 2.252050 1_555
Mg1 O8 2.305983 1_555
Mg1 O7 2.377034 1_555
Fe0 O10 1.989368 1_545
Fe0 O1 1.995910 1_654
Fe0 O6 2.032744 1_554
Fe0 O8 2.040987 1_554
Fe0 O5 2.070829 1_545
Fe0 O3 2.110450 1_545
Fe1 O7 1.989368 1_545
Fe1 O4 1.995910 1_455
Fe1 O11 2.032744 1_555
Fe1 O9 2.040987 1_555
Fe1 O0 2.070829 1_545
Fe1 O2 2.110450 1_545
O0 V1 2.049477 1_555
O1 V1 2.061653 1_555
O2 V0 1.951466 1_455
O3 V1 1.951466 1_654
O4 V0 2.061653 1_555
O5 V0 2.049477 1_555
O6 V0 1.983596 1_555
O7 V0 1.933543 1_555
O8 V1 1.886882 1_555
O9 V0 1.886882 1_555
O10 V1 1.933543 1_554
O11 V1 1.983596 1_554
