# generated using pymatgen
data_Li9Mn2Co5O16
_symmetry_space_group_name_H-M   'P 1'
_cell_length_a   10.63389126
_cell_length_b   10.63389126
_cell_length_c   10.24144117
_cell_angle_alpha   67.11713364
_cell_angle_beta   67.11713364
_cell_angle_gamma   15.67033564
_symmetry_Int_Tables_number   1
_chemical_formula_structural   Li9Mn2Co5O16
_chemical_formula_sum   'Li9 Mn2 Co5 O16'
_cell_volume   287.70104519
_cell_formula_units_Z   1
loop_
 _symmetry_equiv_pos_site_id
 _symmetry_equiv_pos_as_xyz
  1  'x, y, z'
loop_
 _atom_site_type_symbol
 _atom_site_label
 _atom_site_symmetry_multiplicity
 _atom_site_fract_x
 _atom_site_fract_y
 _atom_site_fract_z
 _atom_site_occupancy
  Li  Li0  1  0.62291800  0.62291800  0.81473600  1
  Li  Li1  1  0.88271300  0.88271300  0.42924700  1
  Li  Li2  1  0.11530000  0.11530000  0.08046600  1
  Li  Li3  1  0.12289000  0.12289000  0.56815400  1
  Li  Li4  1  0.38156200  0.38156200  0.18859400  1
  Li  Li5  1  0.61985600  0.61985600  0.31778100  1
  Li  Li6  1  0.87652300  0.87652300  0.93278200  1
  Li  Li7  1  0.37966400  0.37966400  0.67500700  1
  Li  Li8  1  0.49790400  0.49790400  0.25138400  1
  Mn  Mn0  1  0.99818400  0.99818400  0.00825600  1
  Mn  Mn1  1  0.25047300  0.25047300  0.12384200  1
  Co  Co0  1  0.24903500  0.24903500  0.62788000  1
  Co  Co1  1  0.74782600  0.74782600  0.87102400  1
  Co  Co2  1  0.00444800  0.00444800  0.47788200  1
  Co  Co3  1  0.49914500  0.49914500  0.74534700  1
  Co  Co4  1  0.75208300  0.75208300  0.37584100  1
  O  O0  1  0.55551700  0.55551700  0.02644300  1
  O  O1  1  0.80776500  0.80776500  0.65853000  1
  O  O2  1  0.06235300  0.06235300  0.29154600  1
  O  O3  1  0.05354200  0.05354200  0.79261700  1
  O  O4  1  0.30632800  0.30632800  0.40574700  1
  O  O5  1  0.55777200  0.55777200  0.53598300  1
  O  O6  1  0.80651400  0.80651400  0.14660400  1
  O  O7  1  0.30343700  0.30343700  0.92047500  1
  O  O8  1  0.69220900  0.69220900  0.59255400  1
  O  O9  1  0.94178100  0.94178100  0.19990800  1
  O  O10  1  0.18967600  0.18967600  0.84489900  1
  O  O11  1  0.20118100  0.20118100  0.33239500  1
  O  O12  1  0.44395300  0.44395300  0.96958900  1
  O  O13  1  0.69333100  0.69333100  0.10263400  1
  O  O14  1  0.94147100  0.94147100  0.72134500  1
  O  O15  1  0.44264600  0.44264600  0.47050800  1
loop_
_geom_bond_atom_site_label_1
_geom_bond_atom_site_label_2
_geom_bond_distance
_geom_bond_site_symmetry_2
Li0 O0 2.073782 1_556
Li0 O10 2.125173 1_655
Li0 O10 2.125173 1_565
Li0 O3 2.132910 1_655
Li0 O3 2.132910 1_565
Li0 O8 2.168234 1_555
Li1 O15 2.072067 1_655
Li1 O15 2.072067 1_565
Li1 O9 2.184220 1_555
Li1 O4 2.248013 1_565
Li1 O4 2.248013 1_655
Li1 O1 2.257576 1_555
Li2 O2 2.006126 1_555
Li2 O0 2.131015 1_545
Li2 O0 2.131015 1_455
Li2 O13 2.269131 1_455
Li2 O13 2.269131 1_545
Li2 O10 2.303945 1_554
Li3 O5 2.108851 1_545
Li3 O5 2.108851 1_455
Li3 O8 2.140910 1_545
Li3 O8 2.140910 1_455
Li3 O3 2.186930 1_555
Li3 O11 2.328994 1_555
Li4 O9 1.959617 1_545
Li4 O9 1.959617 1_455
Li4 O12 2.108114 1_554
Li4 O4 2.165918 1_555
Li4 O6 2.306605 1_545
Li4 O6 2.306605 1_455
Li5 O2 1.974098 1_565
Li5 O2 1.974098 1_655
Li5 O5 2.100046 1_555
Li5 O13 2.138643 1_555
Li5 O11 2.293717 1_565
Li5 O11 2.293717 1_655
Li6 O14 2.058011 1_555
Li6 O6 2.106049 1_556
Li6 O7 2.154281 1_565
Li6 O7 2.154281 1_655
Li6 O12 2.163881 1_565
Li6 O12 2.163881 1_655
Li7 O15 1.991360 1_555
Li7 O14 2.123120 1_455
Li7 O14 2.123120 1_545
Li7 O1 2.150682 1_545
Li7 O1 2.150682 1_455
Li7 O7 2.393691 1_555
Li8 O9 2.065677 1_545
Li8 O9 2.065677 1_455
Li8 O15 2.083408 1_555
Li8 O2 2.133774 1_565
Li8 O2 2.133774 1_655
Li8 O0 2.141341 1_555
Mn0 O9 1.853021 1_555
Mn0 O0 1.942159 1_655
Mn0 O0 1.942159 1_565
Mn0 O12 1.979662 1_564
Mn0 O12 1.979662 1_654
Mn0 O3 2.053180 1_664
Mn1 O7 1.938723 1_554
Mn1 O6 1.940633 1_545
Mn1 O6 1.940633 1_455
Mn1 O13 1.950234 1_455
Mn1 O13 1.950234 1_545
Mn1 O11 1.974644 1_555
Co0 O8 2.001475 1_455
Co0 O8 2.001475 1_545
Co0 O1 2.009002 1_455
Co0 O1 2.009002 1_545
Co0 O10 2.078918 1_555
Co0 O4 2.115843 1_555
Co1 O10 1.982793 1_655
Co1 O10 1.982793 1_565
Co1 O1 2.042886 1_555
Co1 O7 2.048572 1_655
Co1 O7 2.048572 1_565
Co1 O13 2.192435 1_556
Co2 O2 1.817285 1_555
Co2 O15 1.969748 1_545
Co2 O15 1.969748 1_455
Co2 O5 2.059759 1_545
Co2 O5 2.059759 1_455
Co2 O14 2.319588 1_445
Co3 O14 1.967990 1_545
Co3 O14 1.967990 1_455
Co3 O5 2.011006 1_555
Co3 O3 2.021131 1_565
Co3 O3 2.021131 1_655
Co3 O12 2.128370 1_555
Co4 O4 1.943274 1_655
Co4 O4 1.943274 1_565
Co4 O11 1.955572 1_655
Co4 O11 1.955572 1_565
Co4 O8 2.078319 1_555
Co4 O6 2.171028 1_555
