# generated using pymatgen
data_Mg3Si4
_symmetry_space_group_name_H-M   'P 1'
_cell_length_a   3.61349200
_cell_length_b   7.74703886
_cell_length_c   10.16122640
_cell_angle_alpha   79.61972925
_cell_angle_beta   84.99556371
_cell_angle_gamma   85.22144516
_symmetry_Int_Tables_number   1
_chemical_formula_structural   Mg3Si4
_chemical_formula_sum   'Mg6 Si8'
_cell_volume   278.06609672
_cell_formula_units_Z   2
loop_
 _symmetry_equiv_pos_site_id
 _symmetry_equiv_pos_as_xyz
  1  'x, y, z'
loop_
 _atom_site_type_symbol
 _atom_site_label
 _atom_site_symmetry_multiplicity
 _atom_site_fract_x
 _atom_site_fract_y
 _atom_site_fract_z
 _atom_site_occupancy
  Mg  Mg0  1  0.33491000  0.46789100  0.32845800  1
  Mg  Mg1  1  0.97784200  0.80028000  0.11219100  1
  Mg  Mg2  1  0.74421800  0.92098600  0.60677200  1
  Mg  Mg3  1  0.26330900  0.83579700  0.37547400  1
  Mg  Mg4  1  0.48733800  0.45198200  0.03068800  1
  Mg  Mg5  1  0.28546800  0.28982200  0.62105700  1
  Si  Si0  1  0.72565700  0.75298900  0.87878600  1
  Si  Si1  1  0.75858200  0.52168800  0.75274700  1
  Si  Si2  1  0.48693100  0.15291000  0.23107200  1
  Si  Si3  1  0.94569400  0.16600200  0.38505700  1
  Si  Si4  1  0.20919400  0.95320000  0.80938900  1
  Si  Si5  1  0.78082800  0.21984900  0.85076900  1
  Si  Si6  1  0.73598000  0.59364000  0.51481000  1
  Si  Si7  1  0.26411700  0.11971400  0.00261800  1
loop_
_geom_bond_atom_site_label_1
_geom_bond_atom_site_label_2
_geom_bond_distance
_geom_bond_site_symmetry_2
Mg0 Si3 2.775020 1_455
Mg0 Si2 2.790594 1_555
Mg0 Si6 2.830855 1_555
Mg0 Si6 2.969344 1_455
Mg0 Mg5 3.040565 1_555
Mg0 Si3 3.090043 1_555
Mg1 Si0 2.708378 1_554
Mg1 Si7 2.768825 1_665
Mg1 Si4 3.157845 1_654
Mg2 Si4 2.729303 1_555
Mg2 Si3 2.758913 1_565
Mg2 Si4 2.825360 1_655
Mg2 Si0 2.832649 1_555
Mg2 Si6 2.859470 1_555
Mg2 Si1 3.178840 1_555
Mg2 Mg5 3.201870 1_565
Mg3 Si6 2.715156 1_555
Mg3 Si3 2.729787 1_465
Mg3 Si2 2.768778 1_565
Mg3 Si6 2.884894 1_455
Mg4 Si0 2.714307 1_554
Mg4 Si2 2.795360 1_555
Mg4 Si7 2.829941 1_555
Mg4 Si5 2.868764 1_554
Mg4 Si1 2.878222 1_554
Mg5 Si5 2.834338 1_455
Mg5 Si1 2.914436 1_455
Mg5 Si4 2.961119 1_545
Mg5 Si6 2.961687 1_555
Mg5 Si5 3.009562 1_555
Mg5 Si6 3.054102 1_455
Mg5 Si1 3.117187 1_555
Mg5 Si3 3.117215 1_455
Si0 Si1 2.372796 1_555
Si0 Si4 2.395621 1_555
Si0 Si4 2.407969 1_655
Si1 Si5 2.368500 1_555
Si1 Si6 2.388310 1_555
Si2 Si3 2.396732 1_555
Si2 Si3 2.402859 1_455
Si2 Si7 2.584350 1_555
Si4 Si5 2.550838 1_465
Si4 Si7 2.565530 1_566
Si5 Si7 2.403350 1_556
Si5 Si7 2.417724 1_656
