# generated using pymatgen
data_Nb12WO33
_symmetry_space_group_name_H-M   'P 1'
_cell_length_a   11.55976934
_cell_length_b   11.55976934
_cell_length_c   18.17531617
_cell_angle_alpha   57.08681565
_cell_angle_beta   57.08681565
_cell_angle_gamma   19.27402737
_symmetry_Int_Tables_number   1
_chemical_formula_structural   Nb12WO33
_chemical_formula_sum   'Nb12 W1 O33'
_cell_volume   668.94008465
_cell_formula_units_Z   1
loop_
 _symmetry_equiv_pos_site_id
 _symmetry_equiv_pos_as_xyz
  1  'x, y, z'
loop_
 _atom_site_type_symbol
 _atom_site_label
 _atom_site_symmetry_multiplicity
 _atom_site_fract_x
 _atom_site_fract_y
 _atom_site_fract_z
 _atom_site_occupancy
  Nb  Nb0  1  0.36278600  0.37167200  0.95373700  1
  Nb  Nb1  1  0.62832800  0.63721400  0.04626300  1
  Nb  Nb2  1  0.24855400  0.24874300  0.86172900  1
  Nb  Nb3  1  0.75125700  0.75144600  0.13827100  1
  Nb  Nb4  1  0.13614900  0.12737700  0.76715800  1
  Nb  Nb5  1  0.87262300  0.86385100  0.23284200  1
  Nb  Nb6  1  0.41768600  0.41772300  0.61871000  1
  Nb  Nb7  1  0.58227700  0.58231400  0.38129000  1
  Nb  Nb8  1  0.29908000  0.29885900  0.52698400  1
  Nb  Nb9  1  0.70114100  0.70092000  0.47301600  1
  Nb  Nb10  1  0.46510300  0.46475200  0.28708400  1
  Nb  Nb11  1  0.53524800  0.53489700  0.71291600  1
  W  W0  1  0.75375700  0.24624300  0.00000000  1
  O  O0  1  0.50001600  0.49998400  0.50000000  1
  O  O1  1  0.14730000  0.15018300  0.00834300  1
  O  O2  1  0.84981700  0.85270000  0.99165700  1
  O  O3  1  0.30472200  0.30456500  0.91687900  1
  O  O4  1  0.69543500  0.69527800  0.08312100  1
  O  O5  1  0.04070600  0.03152800  0.89978000  1
  O  O6  1  0.96847200  0.95929400  0.10022000  1
  O  O7  1  0.45117100  0.45030300  0.84460600  1
  O  O8  1  0.54969700  0.54882900  0.15539400  1
  O  O9  1  0.18105600  0.18196000  0.82090000  1
  O  O10  1  0.81804000  0.81894400  0.17910000  1
  O  O11  1  0.04939600  0.04829500  0.73002100  1
  O  O12  1  0.95170500  0.95060400  0.26997900  1
  O  O13  1  0.32597500  0.32578400  0.74995100  1
  O  O14  1  0.67421600  0.67402500  0.25004900  1
  O  O15  1  0.47446400  0.47457200  0.67539300  1
  O  O16  1  0.52542800  0.52553600  0.32460700  1
  O  O17  1  0.20734800  0.20830700  0.65074200  1
  O  O18  1  0.79169300  0.79265200  0.34925800  1
  O  O19  1  0.35251900  0.35235000  0.57479200  1
  O  O20  1  0.64765000  0.64748100  0.42520800  1
  O  O21  1  0.22302000  0.22325800  0.47845200  1
  O  O22  1  0.77674200  0.77698000  0.52154800  1
  O  O23  1  0.37911100  0.37920900  0.40489800  1
  O  O24  1  0.62079100  0.62088900  0.59510200  1
  O  O25  1  0.08800500  0.08795100  0.37301500  1
  O  O26  1  0.91204900  0.91199500  0.62698500  1
  O  O27  1  0.39445200  0.39172100  0.23399000  1
  O  O28  1  0.60827900  0.60554800  0.76601000  1
  O  O29  1  0.27460300  0.27559700  0.10348900  1
  O  O30  1  0.72440300  0.72539700  0.89651100  1
  O  O31  1  0.42276600  0.43503600  0.01240200  1
  O  O32  1  0.56496400  0.57723500  0.98759800  1
loop_
_geom_bond_atom_site_label_1
_geom_bond_atom_site_label_2
_geom_bond_distance
_geom_bond_site_symmetry_2
Nb0 O7 1.842822 1_555
Nb0 O3 1.880813 1_555
Nb0 O2 2.007743 1_455
Nb0 O2 2.030013 1_545
Nb0 O31 2.182914 1_556
Nb0 O29 2.349011 1_556
Nb1 O8 1.842822 1_555
Nb1 O4 1.880813 1_555
Nb1 O1 2.007743 1_565
Nb1 O1 2.030013 1_655
Nb1 O32 2.182904 1_554
Nb1 O30 2.349011 1_554
Nb2 O13 1.812202 1_555
Nb2 O3 2.010947 1_555
Nb2 O30 2.013532 1_545
Nb2 O30 2.016525 1_455
Nb2 O9 2.035798 1_555
Nb2 O1 2.365947 1_556
Nb3 O14 1.812202 1_555
Nb3 O4 2.010947 1_555
Nb3 O29 2.013532 1_655
Nb3 O29 2.016525 1_565
Nb3 O10 2.035798 1_555
Nb3 O2 2.365947 1_554
Nb4 O17 1.854614 1_555
Nb4 O9 1.860343 1_555
Nb4 O28 2.008495 1_545
Nb4 O28 2.030897 1_455
Nb4 O5 2.184150 1_555
Nb4 O11 2.331081 1_555
Nb5 O18 1.854614 1_555
Nb5 O10 1.860343 1_555
Nb5 O27 2.008495 1_655
Nb5 O27 2.030897 1_565
Nb5 O6 2.184150 1_555
Nb5 O12 2.331081 1_555
Nb6 O0 1.926812 1_555
Nb6 O26 1.939621 1_455
Nb6 O26 1.939972 1_545
Nb6 O19 2.039477 1_555
Nb6 O15 2.051559 1_555
Nb6 O13 2.137123 1_555
Nb7 O0 1.926812 1_555
Nb7 O25 1.939621 1_565
Nb7 O25 1.939972 1_655
Nb7 O20 2.039477 1_555
Nb7 O16 2.051559 1_555
Nb7 O14 2.137123 1_555
Nb8 O19 1.845900 1_555
Nb8 O23 1.947802 1_555
Nb8 O22 2.014952 1_545
Nb8 O22 2.016658 1_455
Nb8 O17 2.055337 1_555
Nb8 O21 2.333688 1_555
Nb9 O20 1.845900 1_555
Nb9 O24 1.947802 1_555
Nb9 O21 2.014952 1_655
Nb9 O21 2.016658 1_565
Nb9 O18 2.055337 1_555
Nb9 O22 2.333688 1_555
Nb10 O16 1.846012 1_555
Nb10 O23 1.947468 1_555
Nb10 O12 2.010487 1_455
Nb10 O12 2.013279 1_545
Nb10 O8 2.086244 1_555
Nb10 O27 2.313967 1_555
Nb11 O15 1.846012 1_555
Nb11 O24 1.947468 1_555
Nb11 O11 2.010487 1_565
Nb11 O11 2.013279 1_655
Nb11 O7 2.086244 1_555
Nb11 O28 2.313967 1_555
O5 W0 1.812517 1_456
O6 W0 1.812517 1_565
O31 W0 1.812788 1_555
O32 W0 1.812799 1_556
