# generated using pymatgen
data_YMg14V
_symmetry_space_group_name_H-M   'P 1'
_cell_length_a   6.43192448
_cell_length_b   6.34336530
_cell_length_c   10.34431867
_cell_angle_alpha   90.00000000
_cell_angle_beta   90.00000000
_cell_angle_gamma   119.54557644
_symmetry_Int_Tables_number   1
_chemical_formula_structural   YMg14V
_chemical_formula_sum   'Y1 Mg14 V1'
_cell_volume   367.16704129
_cell_formula_units_Z   1
loop_
 _symmetry_equiv_pos_site_id
 _symmetry_equiv_pos_as_xyz
  1  'x, y, z'
loop_
 _atom_site_type_symbol
 _atom_site_label
 _atom_site_symmetry_multiplicity
 _atom_site_fract_x
 _atom_site_fract_y
 _atom_site_fract_z
 _atom_site_occupancy
  Y  Y0  1  0.16133375  0.33066637  0.12500000  1
  Mg  Mg0  1  0.16738461  0.33369180  0.62500000  1
  Mg  Mg1  1  0.16293423  0.83146662  0.62500000  1
  Mg  Mg2  1  0.65610376  0.32111881  0.12500000  1
  Mg  Mg3  1  0.66561699  0.33600906  0.62500000  1
  Mg  Mg4  1  0.65610376  0.83498395  0.12500000  1
  Mg  Mg5  1  0.66561699  0.82960694  0.62500000  1
  Mg  Mg6  1  0.33495055  0.16294233  0.37612885  1
  Mg  Mg7  1  0.33495055  0.16294233  0.87387115  1
  Mg  Mg8  1  0.33495055  0.67200922  0.37612885  1
  Mg  Mg9  1  0.33495055  0.67200922  0.87387115  1
  Mg  Mg10  1  0.83537363  0.16768731  0.38253588  1
  Mg  Mg11  1  0.83537363  0.16768731  0.86746412  1
  Mg  Mg12  1  0.84285389  0.67142745  0.36337432  1
  Mg  Mg13  1  0.84285389  0.67142745  0.88662568  1
  V  V0  1  0.16864868  0.83432384  0.12500000  1
loop_
_geom_bond_atom_site_label_1
_geom_bond_atom_site_label_2
_geom_bond_distance
_geom_bond_site_symmetry_2
Mg0 Mg10 3.121225 1_455
Mg0 Mg11 3.121225 1_455
Mg0 Mg1 3.171780 1_545
Mg0 Mg1 3.171780 1_555
Mg0 Mg6 3.180187 1_555
Mg0 Mg7 3.180187 1_555
Mg0 Mg8 3.180194 1_555
Mg0 Mg9 3.180194 1_555
Mg0 Mg5 3.197370 1_555
Mg0 Mg3 3.197370 1_555
Mg0 Mg5 3.234605 1_445
Mg0 Mg3 3.234605 1_455
Mg1 Mg8 3.158875 1_555
Mg1 Mg9 3.158875 1_555
Mg1 Mg6 3.158881 1_565
Mg1 Mg7 3.158881 1_565
Mg1 Mg3 3.192906 1_455
Mg1 Mg5 3.192906 1_455
Mg1 Mg3 3.239051 1_565
Mg1 Mg5 3.239051 1_555
Mg1 Mg13 3.245310 1_455
Mg1 Mg12 3.245310 1_455
Mg2 Mg4 3.083731 1_545
Mg2 V0 3.133211 1_545
Mg2 Mg7 3.158777 1_554
Mg2 Mg6 3.158777 1_555
Mg2 Y0 3.212620 1_555
Mg2 Y0 3.220167 1_655
Mg2 Mg4 3.259634 1_555
Mg2 V0 3.298717 1_655
Mg3 Mg5 3.131072 1_555
Mg3 Mg7 3.170711 1_555
Mg3 Mg6 3.170711 1_555
Mg3 Mg5 3.212294 1_545
Mg4 V0 3.133212 1_555
Mg4 Mg9 3.158777 1_554
Mg4 Mg8 3.158777 1_555
Mg4 Y0 3.212620 1_555
Mg4 Y0 3.220167 1_665
Mg4 V0 3.298717 1_655
Mg5 Mg8 3.170711 1_555
Mg5 Mg9 3.170711 1_555
Mg6 Mg8 3.114168 1_545
Mg6 V0 3.168405 1_545
Mg6 Y0 3.209209 1_555
Mg6 Mg8 3.229197 1_555
Mg7 Mg9 3.114168 1_545
Mg7 V0 3.168405 1_546
Mg7 Y0 3.209209 1_556
Mg7 Mg9 3.229197 1_555
Mg8 V0 3.168399 1_555
Mg8 Y0 3.209215 1_555
Mg9 V0 3.168399 1_556
Mg9 Y0 3.209215 1_556
Mg10 Mg3 3.126125 1_555
Mg10 Mg5 3.126131 1_545
Mg10 Mg12 3.178146 1_545
Mg10 Mg12 3.178146 1_555
Mg10 Mg8 3.204633 1_545
Mg10 Mg6 3.204634 1_555
Mg10 Y0 3.228586 1_655
Mg10 Mg8 3.228870 1_655
Mg10 Mg6 3.228870 1_655
Mg10 Mg2 3.237381 1_555
Mg10 Mg4 3.237387 1_545
Mg11 Mg3 3.126125 1_555
Mg11 Mg5 3.126131 1_545
Mg11 Mg13 3.178146 1_545
Mg11 Mg13 3.178146 1_555
Mg11 Mg9 3.204633 1_545
Mg11 Mg7 3.204634 1_555
Mg11 Y0 3.228586 1_656
Mg11 Mg9 3.228870 1_655
Mg11 Mg7 3.228870 1_655
Mg11 Mg2 3.237381 1_556
Mg11 Mg4 3.237387 1_546
Mg12 V0 3.066527 1_655
Mg12 Mg4 3.135045 1_555
Mg12 Mg2 3.135052 1_555
Mg12 Mg6 3.166060 1_665
Mg12 Mg8 3.166061 1_655
Mg12 Mg6 3.271279 1_555
Mg12 Mg8 3.271279 1_555
Mg12 Mg5 3.280045 1_555
Mg12 Mg3 3.280051 1_555
Mg13 V0 3.066527 1_656
Mg13 Mg4 3.135045 1_556
Mg13 Mg2 3.135052 1_556
Mg13 Mg7 3.166060 1_665
Mg13 Mg9 3.166061 1_655
Mg13 Mg7 3.271279 1_555
Mg13 Mg9 3.271279 1_555
Mg13 Mg5 3.280045 1_555
Mg13 Mg3 3.280051 1_555
V0 Y0 3.171947 1_565
V0 Y0 3.171947 1_555
