# generated using pymatgen
data_TbSbPd
_symmetry_space_group_name_H-M   'P 1'
_cell_length_a   4.58148304
_cell_length_b   4.58148304
_cell_length_c   7.64587300
_cell_angle_alpha   90.00000000
_cell_angle_beta   90.00000000
_cell_angle_gamma   120.00001502
_symmetry_Int_Tables_number   1
_chemical_formula_structural   TbSbPd
_chemical_formula_sum   'Tb2 Sb2 Pd2'
_cell_volume   138.98560196
_cell_formula_units_Z   2
loop_
 _symmetry_equiv_pos_site_id
 _symmetry_equiv_pos_as_xyz
  1  'x, y, z'
loop_
 _atom_site_type_symbol
 _atom_site_label
 _atom_site_symmetry_multiplicity
 _atom_site_fract_x
 _atom_site_fract_y
 _atom_site_fract_z
 _atom_site_occupancy
  Tb  Tb0  1  0.00000000  0.00000000  0.50000000  1
  Tb  Tb1  1  0.00000000  0.00000000  0.00000000  1
  Sb  Sb0  1  0.33333300  0.66666700  0.25000000  1
  Sb  Sb1  1  0.66666700  0.33333300  0.75000000  1
  Pd  Pd0  1  0.33333300  0.66666700  0.75000000  1
  Pd  Pd1  1  0.66666700  0.33333300  0.25000000  1
loop_
_geom_bond_atom_site_label_1
_geom_bond_atom_site_label_2
_geom_bond_distance
_geom_bond_site_symmetry_2
Sb0 Tb0 3.263489 1_565
Sb0 Tb1 3.263489 1_565
Sb0 Tb1 3.263492 1_555
Sb0 Tb0 3.263492 1_665
Sb0 Tb1 3.263492 1_665
Sb0 Tb0 3.263492 1_555
Sb1 Tb1 3.263489 1_656
Sb1 Tb0 3.263489 1_655
Sb1 Tb1 3.263492 1_556
Sb1 Tb0 3.263492 1_665
Sb1 Tb0 3.263492 1_555
Sb1 Tb1 3.263492 1_666
Pd0 Sb1 2.645117 1_455
Pd0 Sb1 2.645117 1_565
Pd0 Sb1 2.645126 1_555
Pd0 Tb0 3.263489 1_565
Pd0 Tb1 3.263489 1_566
Pd0 Tb1 3.263492 1_556
Pd0 Tb0 3.263492 1_665
Pd0 Tb0 3.263492 1_555
Pd0 Tb1 3.263492 1_666
Pd1 Sb0 2.645117 1_655
Pd1 Sb0 2.645117 1_545
Pd1 Sb0 2.645126 1_555
Pd1 Tb1 3.263489 1_655
Pd1 Tb0 3.263489 1_655
Pd1 Tb1 3.263492 1_555
Pd1 Tb0 3.263492 1_665
Pd1 Tb1 3.263492 1_665
Pd1 Tb0 3.263492 1_555
