# generated using pymatgen
data_BaMn2FeSi2O9
_symmetry_space_group_name_H-M   'P 1'
_cell_length_a   10.89639130
_cell_length_b   10.89639130
_cell_length_c   5.45585941
_cell_angle_alpha   83.87414834
_cell_angle_beta   83.87414834
_cell_angle_gamma   37.50772763
_symmetry_Int_Tables_number   1
_chemical_formula_structural   BaMn2FeSi2O9
_chemical_formula_sum   'Ba2 Mn4 Fe2 Si4 O18'
_cell_volume   391.90110951
_cell_formula_units_Z   2
loop_
 _symmetry_equiv_pos_site_id
 _symmetry_equiv_pos_as_xyz
  1  'x, y, z'
loop_
 _atom_site_type_symbol
 _atom_site_label
 _atom_site_symmetry_multiplicity
 _atom_site_fract_x
 _atom_site_fract_y
 _atom_site_fract_z
 _atom_site_occupancy
  Ba  Ba0  1  0.21937600  0.21937600  0.75924000  1
  Ba  Ba1  1  0.78062400  0.78062400  0.24076000  1
  Mn  Mn0  1  0.76374600  0.23625400  0.00000000  1
  Mn  Mn1  1  0.23625400  0.76374600  0.00000000  1
  Mn  Mn2  1  0.00000000  0.00000000  0.50000000  1
  Mn  Mn3  1  0.50000000  0.50000000  0.50000000  1
  Fe  Fe0  1  0.64114900  0.64114900  0.78739400  1
  Fe  Fe1  1  0.35885100  0.35885100  0.21260600  1
  Si  Si0  1  0.90929800  0.36230800  0.29170600  1
  Si  Si1  1  0.36230800  0.90929800  0.29170600  1
  Si  Si2  1  0.09070200  0.63769200  0.70829400  1
  Si  Si3  1  0.63769200  0.09070200  0.70829400  1
  O  O0  1  0.04227200  0.04227200  0.79526000  1
  O  O1  1  0.95772800  0.95772800  0.20474000  1
  O  O2  1  0.15920900  0.15920900  0.27950200  1
  O  O3  1  0.84079100  0.84079100  0.72049800  1
  O  O4  1  0.81415400  0.29782800  0.32633200  1
  O  O5  1  0.29782800  0.81415400  0.32633200  1
  O  O6  1  0.18584600  0.70217200  0.67366800  1
  O  O7  1  0.70217200  0.18584600  0.67366800  1
  O  O8  1  0.85906900  0.47881500  0.02767500  1
  O  O9  1  0.47881500  0.85906900  0.02767500  1
  O  O10  1  0.14093100  0.52118500  0.97232500  1
  O  O11  1  0.52118500  0.14093100  0.97232500  1
  O  O12  1  0.86011700  0.48053900  0.52385400  1
  O  O13  1  0.48053900  0.86011700  0.52385400  1
  O  O14  1  0.13988300  0.51946100  0.47614600  1
  O  O15  1  0.51946100  0.13988300  0.47614600  1
  O  O16  1  0.54887600  0.54887600  0.82540600  1
  O  O17  1  0.45112400  0.45112400  0.17459400  1
loop_
_geom_bond_atom_site_label_1
_geom_bond_atom_site_label_2
_geom_bond_distance
_geom_bond_site_symmetry_2
Ba0 O8 2.756485 1_456
Ba0 O9 2.756485 1_546
Ba0 O13 2.773205 1_545
Ba0 O12 2.773205 1_455
Ba0 O14 2.922636 1_555
Ba0 O15 2.922636 1_555
Ba0 O2 2.967182 1_556
Ba0 O10 3.006885 1_555
Ba0 O11 3.006885 1_555
Ba0 O2 3.020713 1_555
Ba1 O10 2.756485 1_654
Ba1 O11 2.756485 1_564
Ba1 O15 2.773205 1_565
Ba1 O14 2.773205 1_655
Ba1 O13 2.922636 1_555
Ba1 O12 2.922636 1_555
Ba1 O3 2.967182 1_554
Ba1 O8 3.006885 1_555
Ba1 O9 3.006885 1_555
Ba1 O3 3.020713 1_555
Mn0 O1 2.128168 1_545
Mn0 O0 2.128168 1_654
Mn0 O7 2.229368 1_554
Mn0 O4 2.229368 1_555
Mn0 O17 2.263385 1_555
Mn0 O16 2.263385 1_554
Mn1 O1 2.128168 1_455
Mn1 O0 2.128168 1_564
Mn1 O6 2.229368 1_554
Mn1 O5 2.229368 1_555
Mn1 O17 2.263385 1_555
Mn1 O16 2.263385 1_554
Mn2 O1 1.916415 1_445
Mn2 O0 1.916415 1_555
Mn2 O6 2.203875 1_545
Mn2 O7 2.203875 1_455
Mn2 O5 2.203875 1_545
Mn2 O4 2.203875 1_455
Mn3 O17 2.138408 1_555
Mn3 O16 2.138408 1_555
Mn3 O6 2.292987 1_555
Mn3 O4 2.292987 1_555
Mn3 O7 2.292987 1_555
Mn3 O5 2.292987 1_555
Fe0 O16 1.892008 1_555
Fe0 O8 1.997873 1_556
Fe0 O9 1.997873 1_556
Fe0 O13 2.000757 1_555
Fe0 O12 2.000757 1_555
Fe1 O17 1.892008 1_555
Fe1 O10 1.997873 1_554
Fe1 O11 1.997873 1_554
Fe1 O14 2.000757 1_555
Fe1 O15 2.000757 1_555
O2 Si0 1.658021 1_455
O2 Si1 1.658021 1_545
O3 Si3 1.658021 1_565
O3 Si2 1.658021 1_655
O4 Si0 1.640015 1_555
O5 Si1 1.640015 1_555
O6 Si2 1.640015 1_555
O7 Si3 1.640015 1_555
O8 Si0 1.631531 1_555
O9 Si1 1.631531 1_555
O10 Si2 1.631531 1_555
O11 Si3 1.631531 1_555
O12 Si0 1.630682 1_555
O13 Si1 1.630682 1_555
O14 Si2 1.630682 1_555
O15 Si3 1.630682 1_555
