# generated using pymatgen
data_AlCu7O12
_symmetry_space_group_name_H-M   'P 1'
_cell_length_a   6.26826936
_cell_length_b   6.26826936
_cell_length_c   6.26826936
_cell_angle_alpha   109.47122063
_cell_angle_beta   109.47122063
_cell_angle_gamma   109.47122063
_symmetry_Int_Tables_number   1
_chemical_formula_structural   AlCu7O12
_chemical_formula_sum   'Al1 Cu7 O12'
_cell_volume   189.59245949
_cell_formula_units_Z   1
loop_
 _symmetry_equiv_pos_site_id
 _symmetry_equiv_pos_as_xyz
  1  'x, y, z'
loop_
 _atom_site_type_symbol
 _atom_site_label
 _atom_site_symmetry_multiplicity
 _atom_site_fract_x
 _atom_site_fract_y
 _atom_site_fract_z
 _atom_site_occupancy
  Al  Al0  1  0.00000000  0.00000000  0.00000000  1
  Cu  Cu0  1  0.00000000  0.00000000  0.50000000  1
  Cu  Cu1  1  0.00000000  0.50000000  0.00000000  1
  Cu  Cu2  1  0.50000000  0.00000000  0.00000000  1
  Cu  Cu3  1  0.50000000  0.50000000  0.50000000  1
  Cu  Cu4  1  0.00000000  0.50000000  0.50000000  1
  Cu  Cu5  1  0.50000000  0.00000000  0.50000000  1
  Cu  Cu6  1  0.50000000  0.50000000  0.00000000  1
  O  O0  1  0.29927400  0.13326800  0.83399400  1
  O  O1  1  0.70072600  0.86673200  0.16600600  1
  O  O2  1  0.70072600  0.53471900  0.83399400  1
  O  O3  1  0.46528100  0.16600600  0.29927400  1
  O  O4  1  0.16600600  0.29927400  0.46528100  1
  O  O5  1  0.83399400  0.29927400  0.13326800  1
  O  O6  1  0.86673200  0.16600600  0.70072600  1
  O  O7  1  0.83399400  0.70072600  0.53471900  1
  O  O8  1  0.29927400  0.46528100  0.16600600  1
  O  O9  1  0.53471900  0.83399400  0.70072600  1
  O  O10  1  0.16600600  0.70072600  0.86673200  1
  O  O11  1  0.13326800  0.83399400  0.29927400  1
loop_
_geom_bond_atom_site_label_1
_geom_bond_atom_site_label_2
_geom_bond_distance
_geom_bond_site_symmetry_2
Al0 O0 2.477068 1_554
Al0 O11 2.477068 1_545
Al0 O5 2.477068 1_455
Al0 O6 2.477068 1_454
Al0 O1 2.477068 1_445
Al0 O10 2.477068 1_544
Al0 O3 2.477073 1_555
Al0 O4 2.477073 1_555
Al0 O8 2.477073 1_555
Al0 O9 2.477073 1_444
Al0 O7 2.477073 1_444
Al0 O2 2.477073 1_444
Cu0 O7 1.941918 1_445
Cu0 O4 1.941918 1_555
Cu0 O11 1.941922 1_545
Cu0 O6 1.941922 1_455
Cu0 O0 1.941922 1_555
Cu0 O1 1.941922 1_445
Cu1 O2 1.941918 1_454
Cu1 O8 1.941918 1_555
Cu1 O5 1.941922 1_455
Cu1 O10 1.941922 1_554
Cu1 O11 1.941922 1_555
Cu1 O6 1.941922 1_454
Cu2 O9 1.941918 1_544
Cu2 O3 1.941918 1_555
Cu2 O5 1.941922 1_555
Cu2 O0 1.941922 1_554
Cu2 O10 1.941922 1_544
Cu2 O1 1.941922 1_545
Cu3 O3 1.941925 1_555
Cu3 O8 1.941925 1_555
Cu3 O4 1.941925 1_555
Cu3 O9 1.941925 1_555
Cu3 O7 1.941925 1_555
Cu3 O2 1.941925 1_555
Cu4 O7 1.885334 1_455
Cu4 O4 1.885334 1_555
Cu4 O10 1.885335 1_555
Cu4 O5 1.885335 1_455
Cu5 O9 1.885334 1_545
Cu5 O3 1.885334 1_555
Cu5 O6 1.885335 1_555
Cu5 O11 1.885335 1_545
Cu6 O2 1.885334 1_554
Cu6 O8 1.885334 1_555
Cu6 O1 1.885335 1_555
Cu6 O0 1.885335 1_554
