# generated using pymatgen
data_SrEuTe2
_symmetry_space_group_name_H-M   'P 1'
_cell_length_a   4.04277400
_cell_length_b   4.04277400
_cell_length_c   8.09275500
_cell_angle_alpha   90.00000000
_cell_angle_beta   90.00000000
_cell_angle_gamma   90.00000000
_symmetry_Int_Tables_number   1
_chemical_formula_structural   SrEuTe2
_chemical_formula_sum   'Sr1 Eu1 Te2'
_cell_volume   132.26816265
_cell_formula_units_Z   1
loop_
 _symmetry_equiv_pos_site_id
 _symmetry_equiv_pos_as_xyz
  1  'x, y, z'
loop_
 _atom_site_type_symbol
 _atom_site_label
 _atom_site_symmetry_multiplicity
 _atom_site_fract_x
 _atom_site_fract_y
 _atom_site_fract_z
 _atom_site_occupancy
  Sr  Sr0  1  0.00000000  0.00000000  0.50000000  1
  Eu  Eu0  1  0.00000000  0.00000000  0.00000000  1
  Te  Te0  1  0.50000000  0.50000000  0.24812900  1
  Te  Te1  1  0.50000000  0.50000000  0.75187100  1
loop_
_geom_bond_atom_site_label_1
_geom_bond_atom_site_label_2
_geom_bond_distance
_geom_bond_site_symmetry_2
Sr0 Te1 3.510954 1_545
Sr0 Te1 3.510954 1_555
Sr0 Te1 3.510954 1_455
Sr0 Te1 3.510954 1_445
Sr0 Te0 3.510954 1_545
Sr0 Te0 3.510954 1_455
Sr0 Te0 3.510954 1_445
Sr0 Te0 3.510954 1_555
Eu0 Te0 3.493460 1_555
Eu0 Te1 3.493460 1_554
Eu0 Te0 3.493460 1_445
Eu0 Te1 3.493460 1_544
Eu0 Te1 3.493460 1_454
Eu0 Te1 3.493460 1_444
Eu0 Te0 3.493460 1_455
Eu0 Te0 3.493460 1_545
