# generated using pymatgen
data_Li6Mn5CoO12
_symmetry_space_group_name_H-M   'P 1'
_cell_length_a   5.09298464
_cell_length_b   9.25599222
_cell_length_c   10.15976533
_cell_angle_alpha   83.72323748
_cell_angle_beta   84.67548167
_cell_angle_gamma   95.02947289
_symmetry_Int_Tables_number   1
_chemical_formula_structural   Li6Mn5CoO12
_chemical_formula_sum   'Li12 Mn10 Co2 O24'
_cell_volume   471.69184828
_cell_formula_units_Z   2
loop_
 _symmetry_equiv_pos_site_id
 _symmetry_equiv_pos_as_xyz
  1  'x, y, z'
loop_
 _atom_site_type_symbol
 _atom_site_label
 _atom_site_symmetry_multiplicity
 _atom_site_fract_x
 _atom_site_fract_y
 _atom_site_fract_z
 _atom_site_occupancy
  Li  Li0  1  0.38605800  0.02463000  0.76677800  1
  Li  Li1  1  0.88968900  0.52132100  0.76523100  1
  Li  Li2  1  0.11045300  0.47865700  0.23490200  1
  Li  Li3  1  0.61414200  0.97535800  0.23323700  1
  Li  Li4  1  0.38705800  0.36117700  0.76654900  1
  Li  Li5  1  0.88489200  0.86218800  0.76676400  1
  Li  Li6  1  0.11531900  0.13771100  0.23314900  1
  Li  Li7  1  0.61298200  0.63873500  0.23339000  1
  Li  Li8  1  0.61858300  0.30873300  0.23261900  1
  Li  Li9  1  0.11716700  0.81349300  0.23442100  1
  Li  Li10  1  0.88311000  0.18647600  0.76544500  1
  Li  Li11  1  0.38154200  0.69120600  0.76734000  1
  Mn  Mn0  1  0.00032500  0.50015500  0.50003100  1
  Mn  Mn1  1  0.49977900  0.00016200  0.50006800  1
  Mn  Mn2  1  0.50096800  0.16463200  0.99737400  1
  Mn  Mn3  1  0.99542400  0.66579600  0.00331700  1
  Mn  Mn4  1  0.00460200  0.33408900  0.99668600  1
  Mn  Mn5  1  0.49916300  0.83522900  0.00259900  1
  Mn  Mn6  1  0.49956000  0.33498400  0.49748600  1
  Mn  Mn7  1  0.00273600  0.83213100  0.50405200  1
  Mn  Mn8  1  0.99685300  0.16809900  0.49596600  1
  Mn  Mn9  1  0.50010300  0.66503900  0.50264600  1
  Co  Co0  1  0.50001800  0.49992600  0.99997800  1
  Co  Co1  1  0.00008500  0.99991300  0.99993200  1
  O  O0  1  0.66372300  0.46795500  0.61000500  1
  O  O1  1  0.15725100  0.97533000  0.61191000  1
  O  O2  1  0.84224000  0.02487600  0.38814700  1
  O  O3  1  0.33618800  0.53217600  0.39015700  1
  O  O4  1  0.21729400  0.17341700  0.87899700  1
  O  O5  1  0.70131600  0.65995400  0.88951200  1
  O  O6  1  0.29876300  0.33987700  0.11047700  1
  O  O7  1  0.78280500  0.82645800  0.12092900  1
  O  O8  1  0.34026500  0.19918400  0.38769800  1
  O  O9  1  0.85957100  0.67336300  0.40135900  1
  O  O10  1  0.14042000  0.32675600  0.59867900  1
  O  O11  1  0.65963400  0.80097700  0.61234000  1
  O  O12  1  0.30857000  0.00506900  0.11730900  1
  O  O13  1  0.80242600  0.50209200  0.11825100  1
  O  O14  1  0.19763400  0.49775900  0.88173800  1
  O  O15  1  0.69154000  0.99479300  0.88263000  1
  O  O16  1  0.65857700  0.14092300  0.60764500  1
  O  O17  1  0.15580500  0.63362600  0.61178200  1
  O  O18  1  0.84421700  0.36655700  0.38825300  1
  O  O19  1  0.34100700  0.85930000  0.39232000  1
  O  O20  1  0.70296000  0.33552200  0.88861800  1
  O  O21  1  0.20279200  0.82792100  0.88909800  1
  O  O22  1  0.79725000  0.17194600  0.11085600  1
  O  O23  1  0.29714100  0.66434800  0.11133700  1
loop_
_geom_bond_atom_site_label_1
_geom_bond_atom_site_label_2
_geom_bond_distance
_geom_bond_site_symmetry_2
Li0 O15 2.055810 1_545
Li0 O4 2.074665 1_555
Li0 O1 2.108527 1_545
Li0 O16 2.154057 1_555
Li0 O21 2.173167 1_545
Li1 O14 2.063126 1_655
Li1 O17 2.086724 1_655
Li1 O20 2.110454 1_555
Li1 O0 2.112594 1_555
Li1 O5 2.122879 1_555
Li2 O13 2.064267 1_455
Li2 O18 2.085741 1_455
Li2 O23 2.110515 1_555
Li2 O3 2.112518 1_555
Li2 O6 2.124605 1_555
Li3 O12 2.056511 1_565
Li3 O7 2.075772 1_555
Li3 O2 2.107208 1_565
Li3 O19 2.154618 1_555
Li3 O22 2.172371 1_565
Li4 O4 2.047464 1_555
Li4 O14 2.055801 1_555
Li4 O0 2.118479 1_555
Li4 O20 2.134452 1_555
Li4 O10 2.243747 1_555
Li5 O15 2.043195 1_555
Li5 O1 2.115663 1_655
Li5 O11 2.124403 1_555
Li5 O21 2.155001 1_655
Li5 O5 2.213501 1_555
Li6 O12 2.043032 1_555
Li6 O2 2.117568 1_455
Li6 O8 2.125241 1_555
Li6 O22 2.155398 1_455
Li6 O6 2.212499 1_555
Li7 O7 2.047352 1_555
Li7 O13 2.055953 1_555
Li7 O3 2.119630 1_555
Li7 O23 2.134050 1_555
Li7 O9 2.244764 1_555
Li8 O22 2.072910 1_555
Li8 O13 2.116478 1_555
Li8 O8 2.122253 1_555
Li8 O18 2.126419 1_555
Li8 O6 2.157632 1_555
Li9 O19 2.110997 1_555
Li9 O12 2.128521 1_565
Li9 O7 2.147974 1_455
Li9 O23 2.167089 1_555
Li9 O9 2.255599 1_455
Li10 O16 2.111701 1_555
Li10 O15 2.129845 1_545
Li10 O4 2.147633 1_655
Li10 O20 2.167344 1_555
Li10 O10 2.254432 1_655
Li11 O21 2.072587 1_555
Li11 O14 2.117318 1_555
Li11 O11 2.121804 1_555
Li11 O17 2.125449 1_555
Li11 O5 2.157769 1_555
Mn0 O3 1.935019 1_555
Mn0 O17 1.935033 1_555
Mn0 O18 1.937313 1_455
Mn0 O0 1.938602 1_455
Mn0 O10 2.017747 1_555
Mn0 O9 2.018068 1_455
Mn1 O16 1.958779 1_555
Mn1 O19 1.960533 1_545
Mn1 O1 1.972796 1_545
Mn1 O2 1.972929 1_555
Mn1 O8 2.309013 1_555
Mn1 O11 2.310557 1_545
Mn2 O12 1.938389 1_556
Mn2 O4 1.965209 1_555
Mn2 O20 1.975527 1_555
Mn2 O22 1.983149 1_556
Mn2 O15 2.287046 1_545
Mn2 O6 2.343695 1_556
Mn3 O13 1.940257 1_555
Mn3 O21 1.956472 1_654
Mn3 O23 1.969577 1_655
Mn3 O5 1.975946 1_554
Mn3 O7 2.289669 1_555
Mn3 O14 2.338870 1_654
Mn4 O14 1.940179 1_555
Mn4 O22 1.956318 1_456
Mn4 O20 1.969564 1_455
Mn4 O6 1.976059 1_556
Mn4 O4 2.290347 1_555
Mn4 O13 2.338473 1_456
Mn5 O15 1.938527 1_554
Mn5 O7 1.964752 1_555
Mn5 O23 1.975453 1_555
Mn5 O21 1.983642 1_554
Mn5 O12 2.286912 1_565
Mn5 O5 2.343707 1_554
Mn6 O8 1.943715 1_555
Mn6 O0 1.955835 1_555
Mn6 O18 1.968708 1_555
Mn6 O10 2.004450 1_555
Mn6 O16 2.262435 1_555
Mn6 O3 2.283027 1_555
Mn7 O19 1.954118 1_555
Mn7 O11 1.957673 1_455
Mn7 O1 1.967651 1_555
Mn7 O9 2.017018 1_455
Mn7 O17 2.269662 1_555
Mn7 O2 2.283111 1_465
Mn8 O16 1.953877 1_555
Mn8 O8 1.958881 1_655
Mn8 O2 1.967738 1_555
Mn8 O10 2.017081 1_655
Mn8 O18 2.268234 1_555
Mn8 O1 2.283226 1_645
Mn9 O11 1.944420 1_555
Mn9 O3 1.954429 1_555
Mn9 O17 1.966726 1_555
Mn9 O9 2.006207 1_555
Mn9 O19 2.264802 1_555
Mn9 O0 2.282983 1_555
Co0 O5 1.913461 1_555
Co0 O6 1.913651 1_556
Co0 O14 2.039221 1_555
Co0 O13 2.039541 1_556
Co0 O23 2.258103 1_556
Co0 O20 2.258136 1_555
Co1 O15 2.058822 1_455
Co1 O12 2.059076 1_566
Co1 O4 2.077803 1_565
Co1 O7 2.077940 1_456
Co1 O21 2.309224 1_555
Co1 O22 2.310299 1_466
