# generated using pymatgen
data_Ti2FeB6(Os2Rh)3
_symmetry_space_group_name_H-M   'P 1'
_cell_length_a   8.85385168
_cell_length_b   8.85385168
_cell_length_c   3.06095900
_cell_angle_alpha   90.00000000
_cell_angle_beta   90.00000000
_cell_angle_gamma   120.66877481
_symmetry_Int_Tables_number   1
_chemical_formula_structural   Ti2FeB6(Os2Rh)3
_chemical_formula_sum   'Ti2 Fe1 B6 Os6 Rh3'
_cell_volume   206.38887561
_cell_formula_units_Z   1
loop_
 _symmetry_equiv_pos_site_id
 _symmetry_equiv_pos_as_xyz
  1  'x, y, z'
loop_
 _atom_site_type_symbol
 _atom_site_label
 _atom_site_symmetry_multiplicity
 _atom_site_fract_x
 _atom_site_fract_y
 _atom_site_fract_z
 _atom_site_occupancy
  Ti  Ti0  1  0.99820200  0.58500300  0.00000000  1
  Ti  Ti1  1  0.58500300  0.99820200  0.00000000  1
  Fe  Fe0  1  0.40233100  0.40233100  0.00000000  1
  B  B0  1  0.33305000  0.66733200  0.00000000  1
  B  B1  1  0.66733200  0.33305000  0.00000000  1
  B  B2  1  0.23981900  0.23981900  0.50000000  1
  B  B3  1  0.99707200  0.78725600  0.50000000  1
  B  B4  1  0.78725600  0.99707200  0.50000000  1
  B  B5  1  0.00331300  0.00331300  0.50000000  1
  Os  Os0  1  0.18534700  0.46630300  0.50000000  1
  Os  Os1  1  0.28504600  0.81891300  0.50000000  1
  Os  Os2  1  0.53145300  0.70887000  0.50000000  1
  Os  Os3  1  0.46630300  0.18534700  0.50000000  1
  Os  Os4  1  0.81891300  0.28504600  0.50000000  1
  Os  Os5  1  0.70887000  0.53145300  0.50000000  1
  Rh  Rh0  1  0.99705800  0.17197200  0.00000000  1
  Rh  Rh1  1  0.17197200  0.99705800  0.00000000  1
  Rh  Rh2  1  0.82176100  0.82176100  0.00000000  1
loop_
_geom_bond_atom_site_label_1
_geom_bond_atom_site_label_2
_geom_bond_distance
_geom_bond_site_symmetry_2
B0 Os0 2.201365 1_555
B0 Os0 2.201365 1_554
B0 Os2 2.214570 1_555
B0 Os2 2.214570 1_554
B0 Os1 2.214967 1_555
B0 Os1 2.214967 1_554
B0 Ti1 2.625162 1_555
B0 Ti0 2.667613 1_455
B0 Fe0 2.710997 1_555
B1 Os3 2.201365 1_554
B1 Os3 2.201365 1_555
B1 Os5 2.214570 1_554
B1 Os5 2.214570 1_555
B1 Os4 2.214967 1_555
B1 Os4 2.214967 1_554
B1 Ti0 2.625162 1_555
B1 Ti1 2.667613 1_545
B1 Fe0 2.710997 1_555
B2 B5 2.072786 1_555
B2 Fe0 2.090685 1_555
B2 Fe0 2.090685 1_556
B2 Os3 2.289158 1_555
B2 Os0 2.289158 1_555
B2 Rh0 2.450684 1_455
B2 Rh1 2.450684 1_545
B2 Rh1 2.450684 1_546
B2 Rh0 2.450684 1_456
B3 B5 1.885351 1_665
B3 Rh1 2.292684 1_655
B3 Rh1 2.292684 1_656
B3 Rh2 2.308398 1_556
B3 Rh2 2.308398 1_555
B3 Ti0 2.359537 1_556
B3 Ti0 2.359537 1_555
B3 Os5 2.396881 1_555
B3 Os1 2.418757 1_655
B4 B5 1.885351 1_665
B4 Rh0 2.292684 1_565
B4 Rh0 2.292684 1_566
B4 Rh2 2.308398 1_556
B4 Rh2 2.308398 1_555
B4 Ti1 2.359537 1_555
B4 Ti1 2.359537 1_556
B4 Os2 2.396881 1_555
B4 Os4 2.418757 1_565
B5 Rh1 2.158632 1_545
B5 Rh0 2.158632 1_455
B5 Rh1 2.158632 1_546
B5 Rh0 2.158632 1_456
B5 Rh2 2.207748 1_446
B5 Rh2 2.207748 1_445
Os0 Rh0 2.735085 1_455
Os0 Rh0 2.735085 1_456
Os0 Ti0 2.822912 1_456
Os0 Ti0 2.822912 1_455
Os1 Rh1 2.728243 1_555
Os1 Rh1 2.728243 1_556
Os1 Ti1 2.759461 1_555
Os1 Ti1 2.759461 1_556
Os1 Ti0 2.777719 1_456
Os1 Ti0 2.777719 1_455
Os2 Rh2 2.706880 1_555
Os2 Rh2 2.706880 1_556
Os2 Ti1 2.808994 1_555
Os2 Ti1 2.808994 1_556
Os3 Rh1 2.735085 1_545
Os3 Rh1 2.735085 1_546
Os3 Ti1 2.822912 1_545
Os3 Ti1 2.822912 1_546
Os4 Rh0 2.728243 1_556
Os4 Rh0 2.728243 1_555
Os4 Ti0 2.759461 1_556
Os4 Ti0 2.759461 1_555
Os4 Ti1 2.777719 1_546
Os4 Ti1 2.777719 1_545
Os5 Rh2 2.706880 1_555
Os5 Rh2 2.706880 1_556
Os5 Ti0 2.808994 1_556
Os5 Ti0 2.808994 1_555
