# generated using pymatgen
data_Mg30ZnCrO32
_symmetry_space_group_name_H-M   'P 1'
_cell_length_a   8.52028000
_cell_length_b   8.52028000
_cell_length_c   8.56729800
_cell_angle_alpha   90.00000000
_cell_angle_beta   90.00000000
_cell_angle_gamma   90.00000000
_symmetry_Int_Tables_number   1
_chemical_formula_structural   Mg30ZnCrO32
_chemical_formula_sum   'Mg30 Zn1 Cr1 O32'
_cell_volume   621.94446570
_cell_formula_units_Z   1
loop_
 _symmetry_equiv_pos_site_id
 _symmetry_equiv_pos_as_xyz
  1  'x, y, z'
loop_
 _atom_site_type_symbol
 _atom_site_label
 _atom_site_symmetry_multiplicity
 _atom_site_fract_x
 _atom_site_fract_y
 _atom_site_fract_z
 _atom_site_occupancy
  Mg  Mg0  1  0.00000000  0.50000000  0.00000000  1
  Mg  Mg1  1  0.00000000  0.50000000  0.50000000  1
  Mg  Mg2  1  0.50000000  0.00000000  0.00000000  1
  Mg  Mg3  1  0.50000000  0.00000000  0.50000000  1
  Mg  Mg4  1  0.50000000  0.50000000  0.00000000  1
  Mg  Mg5  1  0.50000000  0.50000000  0.50000000  1
  Mg  Mg6  1  0.00000000  0.25007400  0.24747500  1
  Mg  Mg7  1  0.00000000  0.25007400  0.75252500  1
  Mg  Mg8  1  0.00000000  0.74992600  0.24747500  1
  Mg  Mg9  1  0.00000000  0.74992600  0.75252500  1
  Mg  Mg10  1  0.50000000  0.24989000  0.24991700  1
  Mg  Mg11  1  0.50000000  0.24989000  0.75008300  1
  Mg  Mg12  1  0.50000000  0.75011000  0.24991700  1
  Mg  Mg13  1  0.50000000  0.75011000  0.75008300  1
  Mg  Mg14  1  0.25007400  0.00000000  0.24747500  1
  Mg  Mg15  1  0.25007400  0.00000000  0.75252500  1
  Mg  Mg16  1  0.24989000  0.50000000  0.24991700  1
  Mg  Mg17  1  0.24989000  0.50000000  0.75008300  1
  Mg  Mg18  1  0.74992600  0.00000000  0.24747500  1
  Mg  Mg19  1  0.74992600  0.00000000  0.75252500  1
  Mg  Mg20  1  0.75011000  0.50000000  0.24991700  1
  Mg  Mg21  1  0.75011000  0.50000000  0.75008300  1
  Mg  Mg22  1  0.24999300  0.24999300  0.00000000  1
  Mg  Mg23  1  0.25061600  0.25061600  0.50000000  1
  Mg  Mg24  1  0.24999300  0.75000700  0.00000000  1
  Mg  Mg25  1  0.25061600  0.74938400  0.50000000  1
  Mg  Mg26  1  0.75000700  0.24999300  0.00000000  1
  Mg  Mg27  1  0.74938400  0.25061600  0.50000000  1
  Mg  Mg28  1  0.75000700  0.75000700  0.00000000  1
  Mg  Mg29  1  0.74938400  0.74938400  0.50000000  1
  Zn  Zn0  1  0.00000000  0.00000000  0.00000000  1
  Cr  Cr0  1  0.00000000  0.00000000  0.50000000  1
  O  O0  1  0.25765600  0.00000000  0.00000000  1
  O  O1  1  0.25050800  0.00000000  0.50000000  1
  O  O2  1  0.25085800  0.50000000  0.00000000  1
  O  O3  1  0.25011400  0.50000000  0.50000000  1
  O  O4  1  0.74234400  0.00000000  0.00000000  1
  O  O5  1  0.74949200  0.00000000  0.50000000  1
  O  O6  1  0.74914200  0.50000000  0.00000000  1
  O  O7  1  0.74988600  0.50000000  0.50000000  1
  O  O8  1  0.24965800  0.24965800  0.25023600  1
  O  O9  1  0.24965800  0.24965800  0.74976400  1
  O  O10  1  0.24965800  0.75034200  0.25023600  1
  O  O11  1  0.24965800  0.75034200  0.74976400  1
  O  O12  1  0.75034200  0.24965800  0.25023600  1
  O  O13  1  0.75034200  0.24965800  0.74976400  1
  O  O14  1  0.75034200  0.75034200  0.25023600  1
  O  O15  1  0.75034200  0.75034200  0.74976400  1
  O  O16  1  0.00000000  0.00000000  0.23749300  1
  O  O17  1  0.00000000  0.00000000  0.76250700  1
  O  O18  1  0.00000000  0.50000000  0.25123200  1
  O  O19  1  0.00000000  0.50000000  0.74876800  1
  O  O20  1  0.50000000  0.00000000  0.25123200  1
  O  O21  1  0.50000000  0.00000000  0.74876800  1
  O  O22  1  0.50000000  0.50000000  0.25060700  1
  O  O23  1  0.50000000  0.50000000  0.74939300  1
  O  O24  1  0.00000000  0.25765600  0.00000000  1
  O  O25  1  0.00000000  0.25050800  0.50000000  1
  O  O26  1  0.00000000  0.74234400  0.00000000  1
  O  O27  1  0.00000000  0.74949200  0.50000000  1
  O  O28  1  0.50000000  0.25085800  0.00000000  1
  O  O29  1  0.50000000  0.25011400  0.50000000  1
  O  O30  1  0.50000000  0.74914200  0.00000000  1
  O  O31  1  0.50000000  0.74988600  0.50000000  1
loop_
_geom_bond_atom_site_label_1
_geom_bond_atom_site_label_2
_geom_bond_distance
_geom_bond_site_symmetry_2
Mg0 O24 2.064839 1_555
Mg0 O26 2.064839 1_555
Mg0 O2 2.137380 1_555
Mg0 O6 2.137380 1_455
Mg0 O18 2.152379 1_555
Mg0 O19 2.152379 1_554
Mg1 O25 2.125742 1_555
Mg1 O27 2.125742 1_555
Mg1 O7 2.131041 1_455
Mg1 O3 2.131041 1_555
Mg1 O19 2.131270 1_555
Mg1 O18 2.131270 1_555
Mg2 O0 2.064839 1_555
Mg2 O4 2.064839 1_555
Mg2 O28 2.137380 1_555
Mg2 O30 2.137380 1_545
Mg2 O20 2.152379 1_555
Mg2 O21 2.152379 1_554
Mg3 O1 2.125742 1_555
Mg3 O5 2.125742 1_555
Mg3 O31 2.131041 1_545
Mg3 O29 2.131041 1_555
Mg3 O21 2.131270 1_555
Mg3 O20 2.131270 1_555
Mg4 O30 2.122760 1_555
Mg4 O2 2.122760 1_555
Mg4 O28 2.122760 1_555
Mg4 O6 2.122760 1_555
Mg4 O22 2.147025 1_555
Mg4 O23 2.147025 1_554
Mg5 O29 2.129099 1_555
Mg5 O3 2.129099 1_555
Mg5 O7 2.129099 1_555
Mg5 O31 2.129099 1_555
Mg5 O22 2.136624 1_555
Mg5 O23 2.136624 1_555
Mg6 O24 2.121176 1_555
Mg6 O8 2.127291 1_555
Mg6 O12 2.127291 1_455
Mg6 O18 2.129683 1_555
Mg6 O16 2.132416 1_555
Mg6 O25 2.163460 1_555
Mg7 O24 2.121176 1_556
Mg7 O9 2.127291 1_555
Mg7 O13 2.127291 1_455
Mg7 O19 2.129683 1_555
Mg7 O17 2.132416 1_555
Mg7 O25 2.163460 1_555
Mg8 O26 2.121176 1_555
Mg8 O10 2.127291 1_555
Mg8 O14 2.127291 1_455
Mg8 O18 2.129683 1_555
Mg8 O16 2.132416 1_565
Mg8 O27 2.163460 1_555
Mg9 O26 2.121176 1_556
Mg9 O11 2.127291 1_555
Mg9 O15 2.127291 1_455
Mg9 O19 2.129683 1_555
Mg9 O17 2.132416 1_565
Mg9 O27 2.163460 1_555
Mg10 O20 2.129163 1_555
Mg10 O22 2.131015 1_555
Mg10 O12 2.132987 1_555
Mg10 O8 2.132987 1_555
Mg10 O28 2.141129 1_555
Mg10 O29 2.142536 1_555
Mg11 O21 2.129163 1_555
Mg11 O23 2.131015 1_555
Mg11 O13 2.132987 1_555
Mg11 O9 2.132987 1_555
Mg11 O28 2.141129 1_556
Mg11 O29 2.142536 1_555
Mg12 O20 2.129163 1_565
Mg12 O22 2.131015 1_555
Mg12 O14 2.132987 1_555
Mg12 O10 2.132987 1_555
Mg12 O30 2.141129 1_555
Mg12 O31 2.142536 1_555
Mg13 O21 2.129163 1_565
Mg13 O23 2.131015 1_555
Mg13 O15 2.132987 1_555
Mg13 O11 2.132987 1_555
Mg13 O30 2.141129 1_556
Mg13 O31 2.142536 1_555
Mg14 O0 2.121176 1_555
Mg14 O8 2.127291 1_555
Mg14 O10 2.127291 1_545
Mg14 O20 2.129683 1_555
Mg14 O16 2.132416 1_555
Mg14 O1 2.163460 1_555
Mg15 O0 2.121176 1_556
Mg15 O9 2.127291 1_555
Mg15 O11 2.127291 1_545
Mg15 O21 2.129683 1_555
Mg15 O17 2.132416 1_555
Mg15 O1 2.163460 1_555
Mg16 O18 2.129163 1_555
Mg16 O22 2.131015 1_555
Mg16 O10 2.132987 1_555
Mg16 O8 2.132987 1_555
Mg16 O2 2.141129 1_555
Mg16 O3 2.142536 1_555
Mg17 O19 2.129163 1_555
Mg17 O23 2.131015 1_555
Mg17 O11 2.132987 1_555
Mg17 O9 2.132987 1_555
Mg17 O2 2.141129 1_556
Mg17 O3 2.142536 1_555
Mg18 O4 2.121176 1_555
Mg18 O12 2.127291 1_555
Mg18 O14 2.127291 1_545
Mg18 O20 2.129683 1_555
Mg18 O16 2.132416 1_655
Mg18 O5 2.163460 1_555
Mg19 O4 2.121176 1_556
Mg19 O13 2.127291 1_555
Mg19 O15 2.127291 1_545
Mg19 O21 2.129683 1_555
Mg19 O17 2.132416 1_655
Mg19 O5 2.163460 1_555
Mg20 O18 2.129163 1_655
Mg20 O22 2.131015 1_555
Mg20 O14 2.132987 1_555
Mg20 O12 2.132987 1_555
Mg20 O6 2.141129 1_555
Mg20 O7 2.142536 1_555
Mg21 O19 2.129163 1_655
Mg21 O23 2.131015 1_555
Mg21 O15 2.132987 1_555
Mg21 O13 2.132987 1_555
Mg21 O6 2.141129 1_556
Mg21 O7 2.142536 1_555
Mg22 O2 2.130142 1_555
Mg22 O28 2.130142 1_555
Mg22 O0 2.131011 1_555
Mg22 O24 2.131011 1_555
Mg22 O9 2.143850 1_554
Mg22 O8 2.143850 1_555
Mg23 O3 2.124826 1_555
Mg23 O29 2.124826 1_555
Mg23 O25 2.135319 1_555
Mg23 O1 2.135319 1_555
Mg23 O8 2.139834 1_555
Mg23 O9 2.139834 1_555
Mg24 O30 2.130142 1_555
Mg24 O2 2.130142 1_555
Mg24 O26 2.131011 1_555
Mg24 O0 2.131011 1_565
Mg24 O10 2.143850 1_555
Mg24 O11 2.143850 1_554
Mg25 O31 2.124826 1_555
Mg25 O3 2.124826 1_555
Mg25 O1 2.135319 1_565
Mg25 O27 2.135319 1_555
Mg25 O10 2.139834 1_555
Mg25 O11 2.139834 1_555
Mg26 O28 2.130142 1_555
Mg26 O6 2.130142 1_555
Mg26 O4 2.131011 1_555
Mg26 O24 2.131011 1_655
Mg26 O13 2.143850 1_554
Mg26 O12 2.143850 1_555
Mg27 O7 2.124826 1_555
Mg27 O29 2.124826 1_555
Mg27 O25 2.135319 1_655
Mg27 O5 2.135319 1_555
Mg27 O13 2.139834 1_555
Mg27 O12 2.139834 1_555
Mg28 O30 2.130142 1_555
Mg28 O6 2.130142 1_555
Mg28 O26 2.131011 1_655
Mg28 O4 2.131011 1_565
Mg28 O15 2.143850 1_554
Mg28 O14 2.143850 1_555
Mg29 O7 2.124826 1_555
Mg29 O31 2.124826 1_555
Mg29 O27 2.135319 1_655
Mg29 O5 2.135319 1_565
Mg29 O15 2.139834 1_555
Mg29 O14 2.139834 1_555
Cr0 O5 2.134398 1_455
Cr0 O27 2.134398 1_545
Cr0 O1 2.134398 1_555
Cr0 O25 2.134398 1_555
Cr0 O16 2.248976 1_555
Cr0 O17 2.248976 1_555
O0 Zn0 2.195301 1_555
O4 Zn0 2.195301 1_655
O16 Zn0 2.034673 1_555
O17 Zn0 2.034673 1_556
O24 Zn0 2.195301 1_555
O26 Zn0 2.195301 1_565
