# generated using pymatgen
data_KMo2H29C9O11
_symmetry_space_group_name_H-M   'P 1'
_cell_length_a   8.43522000
_cell_length_b   10.13425453
_cell_length_c   15.34096075
_cell_angle_alpha   72.18907652
_cell_angle_beta   84.19350806
_cell_angle_gamma   74.94154326
_symmetry_Int_Tables_number   1
_chemical_formula_structural   KMo2H29C9O11
_chemical_formula_sum   'K2 Mo4 H58 C18 O22'
_cell_volume   1205.35216882
_cell_formula_units_Z   2
loop_
 _symmetry_equiv_pos_site_id
 _symmetry_equiv_pos_as_xyz
  1  'x, y, z'
loop_
 _atom_site_type_symbol
 _atom_site_label
 _atom_site_symmetry_multiplicity
 _atom_site_fract_x
 _atom_site_fract_y
 _atom_site_fract_z
 _atom_site_occupancy
  K  K0  1  0.94436800  0.96798500  0.65328900  1
  K  K1  1  0.05563200  0.03201500  0.34671100  1
  Mo  Mo0  1  0.40901800  0.01893400  0.72017900  1
  Mo  Mo1  1  0.59098200  0.98106600  0.27982100  1
  Mo  Mo2  1  0.30270900  0.73202900  0.80635100  1
  Mo  Mo3  1  0.69729100  0.26797100  0.19364900  1
  H  H0  1  0.17184800  0.15738700  0.53540800  1
  H  H1  1  0.82815200  0.84261300  0.46459200  1
  H  H2  1  0.75056800  0.35696000  0.77202800  1
  H  H3  1  0.24943200  0.64304000  0.22797200  1
  H  H4  1  0.63985500  0.20774400  0.71838900  1
  H  H5  1  0.36014500  0.79225600  0.28161100  1
  H  H6  1  0.90910400  0.34138000  0.68641000  1
  H  H7  1  0.09089600  0.65862000  0.31359000  1
  H  H8  1  0.70338000  0.43681300  0.65398400  1
  H  H9  1  0.29662000  0.56318700  0.34601600  1
  H  H10  1  0.36986700  0.26237800  0.88099800  1
  H  H11  1  0.63013300  0.73762200  0.11900200  1
  H  H12  1  0.38183200  0.07422700  0.91720800  1
  H  H13  1  0.61816800  0.92577300  0.08279200  1
  H  H14  1  0.56445500  0.13755600  0.88670300  1
  H  H15  1  0.43554500  0.86244400  0.11329700  1
  H  H16  1  0.09199100  0.36712200  0.41437500  1
  H  H17  1  0.90800900  0.63287800  0.58562500  1
  H  H18  1  0.90510600  0.31705500  0.41461600  1
  H  H19  1  0.09489400  0.68294500  0.58538400  1
  H  H20  1  0.95301200  0.36205900  0.51128700  1
  H  H21  1  0.04698800  0.63794100  0.48871300  1
  H  H22  1  0.28641800  0.37819700  0.52249600  1
  H  H23  1  0.71358200  0.62180300  0.47750400  1
  H  H24  1  0.29165500  0.36529000  0.64177500  1
  H  H25  1  0.70834500  0.63471000  0.35822500  1
  H  H26  1  0.47511800  0.30470400  0.58212200  1
  H  H27  1  0.52488200  0.69529600  0.41787800  1
  H  H28  1  0.16142100  0.97963200  0.91979500  1
  H  H29  1  0.83857900  0.02036800  0.08020500  1
  H  H30  1  0.05628900  0.13706400  0.83698400  1
  H  H31  1  0.94371100  0.86293600  0.16301600  1
  H  H32  1  0.97338000  0.98300300  0.87458000  1
  H  H33  1  0.02662000  0.01699700  0.12542000  1
  H  H34  1  0.65493900  0.86390700  0.90351400  1
  H  H35  1  0.34506100  0.13609300  0.09648600  1
  H  H36  1  0.59226700  0.70070300  0.95301600  1
  H  H37  1  0.40773300  0.29929700  0.04698400  1
  H  H38  1  0.69271800  0.73254800  0.84266300  1
  H  H39  1  0.30728200  0.26745200  0.15733700  1
  H  H40  1  0.53285600  0.77735500  0.60309800  1
  H  H41  1  0.46714400  0.22264500  0.39690200  1
  H  H42  1  0.33979100  0.74696400  0.58592400  1
  H  H43  1  0.66020900  0.25303600  0.41407600  1
  H  H44  1  0.38354100  0.91794200  0.53135500  1
  H  H45  1  0.61645900  0.08205800  0.46864500  1
  H  H46  1  0.14648100  0.66455400  0.06165200  1
  H  H47  1  0.85351900  0.33544600  0.93834800  1
  H  H48  1  0.35354900  0.57073800  0.04798900  1
  H  H49  1  0.64645100  0.42926200  0.95201100  1
  H  H50  1  0.29863000  0.76171600  0.01121100  1
  H  H51  1  0.70137000  0.23828400  0.98878900  1
  H  H52  1  0.14539100  0.46921600  0.79010700  1
  H  H53  1  0.85460900  0.53078400  0.20989300  1
  H  H54  1  0.05325200  0.54814700  0.87833400  1
  H  H55  1  0.94674800  0.45185300  0.12166600  1
  H  H56  1  0.93908800  0.57720300  0.77863100  1
  H  H57  1  0.06091200  0.42279700  0.22136900  1
  C  C0  1  0.77888400  0.34352000  0.70314700  1
  C  C1  1  0.22111600  0.65648000  0.29685300  1
  C  C2  1  0.43414600  0.15916000  0.86985300  1
  C  C3  1  0.56585400  0.84084000  0.13014700  1
  C  C4  1  0.00470700  0.30937800  0.45805900  1
  C  C5  1  0.99529300  0.69062200  0.54194100  1
  C  C6  1  0.34175900  0.31238000  0.58855000  1
  C  C7  1  0.65824100  0.68762000  0.41145000  1
  C  C8  1  0.08809300  0.01940400  0.85732900  1
  C  C9  1  0.91190700  0.98059600  0.14267100  1
  C  C10  1  0.60573600  0.78291700  0.88838300  1
  C  C11  1  0.39426400  0.21708300  0.11161700  1
  C  C12  1  0.40069700  0.82638700  0.59365300  1
  C  C13  1  0.59930300  0.17361300  0.40634700  1
  C  C14  1  0.25625400  0.66536200  0.01605500  1
  C  C15  1  0.74374600  0.33463800  0.98394500  1
  C  C16  1  0.06142900  0.56496100  0.80370400  1
  C  C17  1  0.93857100  0.43503900  0.19629600  1
  O  O0  1  0.61151100  0.96338000  0.68470700  1
  O  O1  1  0.38848900  0.03662000  0.31529300  1
  O  O2  1  0.41899300  0.16807500  0.77677400  1
  O  O3  1  0.58100700  0.83192500  0.22322600  1
  O  O4  1  0.30860700  0.17462300  0.61097900  1
  O  O5  1  0.69139300  0.82537700  0.38902100  1
  O  O6  1  0.17314900  0.96915300  0.78420300  1
  O  O7  1  0.82685100  0.03084700  0.21579700  1
  O  O8  1  0.44932200  0.84860300  0.84765800  1
  O  O9  1  0.55067800  0.15139700  0.15234200  1
  O  O10  1  0.32854900  0.87344700  0.67028000  1
  O  O11  1  0.67145100  0.12655300  0.32972000  1
  O  O12  1  0.47281100  0.60157500  0.79073200  1
  O  O13  1  0.52718900  0.39842500  0.20926800  1
  O  O14  1  0.21428200  0.66226100  0.92995600  1
  O  O15  1  0.78571800  0.33773900  0.07004400  1
  O  O16  1  0.11930000  0.68889500  0.75749400  1
  O  O17  1  0.88070000  0.31110500  0.24250600  1
  O  O18  1  0.75323900  0.21182400  0.69797400  1
  O  O19  1  0.24676100  0.78817600  0.30202600  1
  O  O20  1  0.08112300  0.16105000  0.49719700  1
  O  O21  1  0.91887700  0.83895000  0.50280300  1
loop_
_geom_bond_atom_site_label_1
_geom_bond_atom_site_label_2
_geom_bond_distance
_geom_bond_site_symmetry_2
K0 O0 2.810390 1_555
K0 O18 2.813928 1_565
K0 O16 2.876676 1_655
K0 O6 2.927186 1_655
K0 O20 2.939495 1_665
K0 O21 3.029726 1_555
K0 O10 3.145241 1_655
K1 O1 2.810390 1_555
K1 O19 2.813928 1_545
K1 O17 2.876676 1_455
K1 O7 2.927186 1_455
K1 O21 2.939495 1_445
K1 O20 3.029726 1_555
K1 O11 3.145241 1_455
Mo0 O0 1.740770 1_545
Mo0 O2 1.982160 1_555
Mo0 O4 1.997239 1_555
Mo0 O10 2.129834 1_545
Mo0 O8 2.164319 1_545
Mo0 O6 2.236240 1_545
Mo1 O1 1.740770 1_565
Mo1 O3 1.982160 1_555
Mo1 O5 1.997239 1_555
Mo1 O11 2.129834 1_565
Mo1 O9 2.164319 1_565
Mo1 O7 2.236240 1_565
Mo2 O12 1.732796 1_555
Mo2 O14 1.954378 1_555
Mo2 O16 1.983133 1_555
Mo2 O10 2.167729 1_555
Mo2 O8 2.168507 1_555
Mo2 O6 2.301215 1_555
Mo3 O13 1.732796 1_555
Mo3 O15 1.954378 1_555
Mo3 O17 1.983133 1_555
Mo3 O11 2.167729 1_555
Mo3 O9 2.168507 1_555
Mo3 O7 2.301215 1_555
H0 O20 0.996674 1_555
H1 O21 0.996674 1_555
H4 O18 0.983133 1_555
H5 O19 0.983133 1_555
C0 H6 1.098598 1_555
C0 H2 1.101042 1_555
C0 H8 1.102920 1_555
C0 O18 1.432705 1_555
C1 H7 1.098598 1_555
C1 H3 1.101042 1_555
C1 H9 1.102920 1_555
C1 O19 1.432705 1_555
C2 H12 1.101506 1_555
C2 H10 1.101527 1_555
C2 H14 1.104891 1_555
C2 O2 1.419672 1_555
C3 H13 1.101506 1_555
C3 H11 1.101527 1_555
C3 H15 1.104891 1_555
C3 O3 1.419672 1_555
C4 H18 1.097129 1_455
C4 H20 1.102562 1_455
C4 H16 1.103524 1_555
C4 O20 1.434674 1_555
C5 H19 1.097129 1_655
C5 H21 1.102562 1_655
C5 H17 1.103524 1_555
C5 O21 1.434674 1_555
C6 H22 1.100043 1_555
C6 H24 1.101411 1_555
C6 H26 1.103622 1_555
C6 O4 1.426574 1_555
C7 H23 1.100043 1_555
C7 H25 1.101411 1_555
C7 H27 1.103622 1_555
C7 O5 1.426574 1_555
C8 H30 1.101929 1_555
C8 H32 1.102891 1_445
C8 H28 1.103388 1_545
C8 O6 1.424560 1_545
C9 H31 1.101929 1_555
C9 H33 1.102891 1_665
C9 H29 1.103388 1_565
C9 O7 1.424560 1_565
C10 H38 1.100514 1_555
C10 H36 1.100563 1_555
C10 H34 1.101298 1_555
C10 O8 1.424863 1_555
C11 H39 1.100514 1_555
C11 H37 1.100563 1_555
C11 H35 1.101298 1_555
C11 O9 1.424863 1_555
C12 H44 1.100436 1_555
C12 H42 1.100651 1_555
C12 H40 1.100667 1_555
C12 O10 1.423763 1_555
C13 H45 1.100436 1_555
C13 H43 1.100651 1_555
C13 H41 1.100667 1_555
C13 O11 1.423763 1_555
C14 H46 1.102792 1_555
C14 H48 1.103699 1_555
C14 H50 1.103811 1_555
C14 O14 1.413064 1_554
C15 H47 1.102792 1_555
C15 H49 1.103699 1_555
C15 H51 1.103811 1_555
C15 O15 1.413064 1_556
C16 H56 1.101322 1_455
C16 H54 1.102435 1_555
C16 H52 1.106096 1_555
C16 O16 1.422039 1_555
C17 H57 1.101322 1_655
C17 H55 1.102435 1_555
C17 H53 1.106096 1_555
C17 O17 1.422039 1_555
