# generated using pymatgen
data_TiCrCuS4
_symmetry_space_group_name_H-M   'P 1'
_cell_length_a   5.71998600
_cell_length_b   6.95603243
_cell_length_c   12.01325956
_cell_angle_alpha   90.22094240
_cell_angle_beta   90.20025229
_cell_angle_gamma   90.65348448
_symmetry_Int_Tables_number   1
_chemical_formula_structural   TiCrCuS4
_chemical_formula_sum   'Ti4 Cr4 Cu4 S16'
_cell_volume   477.95083798
_cell_formula_units_Z   4
loop_
 _symmetry_equiv_pos_site_id
 _symmetry_equiv_pos_as_xyz
  1  'x, y, z'
loop_
 _atom_site_type_symbol
 _atom_site_label
 _atom_site_symmetry_multiplicity
 _atom_site_fract_x
 _atom_site_fract_y
 _atom_site_fract_z
 _atom_site_occupancy
  Ti  Ti0  1  0.50000000  0.00000000  0.00000000  1
  Ti  Ti1  1  0.00000000  0.50000000  0.50000000  1
  Ti  Ti2  1  0.51882500  0.23865000  0.75294900  1
  Ti  Ti3  1  0.48117500  0.76135000  0.24705100  1
  Cr  Cr0  1  0.00000000  0.00000000  0.50000000  1
  Cr  Cr1  1  0.50000000  0.50000000  0.00000000  1
  Cr  Cr2  1  0.01262700  0.74057000  0.75305300  1
  Cr  Cr3  1  0.98737300  0.25943000  0.24694700  1
  Cu  Cu0  1  0.88729700  0.24482900  0.91205600  1
  Cu  Cu1  1  0.11270300  0.75517100  0.08794400  1
  Cu  Cu2  1  0.39428000  0.74252700  0.58875300  1
  Cu  Cu3  1  0.60572000  0.25747300  0.41124700  1
  S  S0  1  0.74015300  0.98182800  0.82912200  1
  S  S1  1  0.25984700  0.01817200  0.17087800  1
  S  S2  1  0.22651600  0.00151700  0.67003400  1
  S  S3  1  0.77348400  0.99848300  0.32996600  1
  S  S4  1  0.76711500  0.51531000  0.32960900  1
  S  S5  1  0.23288500  0.48469000  0.67039100  1
  S  S6  1  0.26654700  0.49439500  0.16901700  1
  S  S7  1  0.73345300  0.50560500  0.83098300  1
  S  S8  1  0.26009200  0.74536600  0.91357100  1
  S  S9  1  0.73990800  0.25463400  0.08642900  1
  S  S10  1  0.75360100  0.24421300  0.58588600  1
  S  S11  1  0.24639900  0.75578700  0.41411400  1
  S  S12  1  0.27441600  0.25018700  0.91754900  1
  S  S13  1  0.72558400  0.74981300  0.08245100  1
  S  S14  1  0.78268200  0.75064600  0.58715900  1
  S  S15  1  0.21731800  0.24935400  0.41284100  1
loop_
_geom_bond_atom_site_label_1
_geom_bond_atom_site_label_2
_geom_bond_distance
_geom_bond_site_symmetry_2
Cr0 S14 2.371496 1_445
Cr0 S15 2.371496 1_555
Cr0 S3 2.415028 1_445
Cr0 S2 2.415028 1_555
Cr0 S10 2.447035 1_455
Cr0 S11 2.447035 1_545
Cr1 S13 2.364814 1_555
Cr1 S12 2.364814 1_554
Cr1 S7 2.434288 1_554
Cr1 S6 2.434288 1_555
Cr1 S8 2.435445 1_554
Cr1 S9 2.435445 1_555
Cr2 S14 2.385686 1_455
Cr2 S8 2.388012 1_555
Cr2 S2 2.399604 1_565
Cr2 S5 2.405774 1_555
Cr2 S7 2.461811 1_455
Cr2 S0 2.477561 1_455
Cr3 S15 2.385686 1_655
Cr3 S9 2.388012 1_555
Cr3 S3 2.399604 1_545
Cr3 S4 2.405774 1_555
Cr3 S6 2.461811 1_655
Cr3 S1 2.477561 1_655
Cu0 S12 2.214952 1_655
Cu0 S0 2.234468 1_545
Cu0 S7 2.248883 1_555
Cu0 S9 2.261879 1_556
Cu1 S13 2.214952 1_455
Cu1 S1 2.234468 1_565
Cu1 S6 2.248883 1_555
Cu1 S8 2.261879 1_554
Cu2 S14 2.221879 1_555
Cu2 S5 2.238963 1_555
Cu2 S11 2.261950 1_555
Cu2 S2 2.269862 1_565
Cu3 S15 2.221879 1_555
Cu3 S4 2.238963 1_555
Cu3 S10 2.261950 1_555
Cu3 S3 2.269862 1_545
S0 Ti2 2.384883 1_565
S0 Ti0 2.477624 1_566
S1 Ti3 2.384883 1_545
S1 Ti0 2.477624 1_555
S2 Ti2 2.534050 1_555
S3 Ti3 2.534050 1_555
S4 Ti1 2.441658 1_655
S4 Ti3 2.579429 1_555
S5 Ti1 2.441658 1_555
S5 Ti2 2.579429 1_555
S6 Ti3 2.400157 1_555
S7 Ti2 2.400157 1_555
S8 Ti0 2.453343 1_566
S9 Ti0 2.453343 1_555
S10 Ti2 2.418906 1_555
S10 Ti1 2.486735 1_655
S11 Ti3 2.418906 1_555
S11 Ti1 2.486735 1_555
S12 Ti0 2.393811 1_556
S12 Ti2 2.427260 1_555
S13 Ti0 2.393811 1_565
S13 Ti3 2.427260 1_555
S14 Ti1 2.392861 1_655
S15 Ti1 2.392861 1_555
