# generated using pymatgen
data_CeCuSi2
_symmetry_space_group_name_H-M   'P 1'
_cell_length_a   8.47677130
_cell_length_b   8.47677130
_cell_length_c   4.11519700
_cell_angle_alpha   90.00000000
_cell_angle_beta   90.00000000
_cell_angle_gamma   151.27800179
_symmetry_Int_Tables_number   1
_chemical_formula_structural   CeCuSi2
_chemical_formula_sum   'Ce2 Cu2 Si4'
_cell_volume   142.10173924
_cell_formula_units_Z   2
loop_
 _symmetry_equiv_pos_site_id
 _symmetry_equiv_pos_as_xyz
  1  'x, y, z'
loop_
 _atom_site_type_symbol
 _atom_site_label
 _atom_site_symmetry_multiplicity
 _atom_site_fract_x
 _atom_site_fract_y
 _atom_site_fract_z
 _atom_site_occupancy
  Ce  Ce0  1  0.89569800  0.10430200  0.25000000  1
  Ce  Ce1  1  0.10430200  0.89569800  0.75000000  1
  Cu  Cu0  1  0.67861400  0.32138600  0.25000000  1
  Cu  Cu1  1  0.32138600  0.67861400  0.75000000  1
  Si  Si0  1  0.53642500  0.46357500  0.25000000  1
  Si  Si1  1  0.46357500  0.53642500  0.75000000  1
  Si  Si2  1  0.24883700  0.75116300  0.25000000  1
  Si  Si3  1  0.75116300  0.24883700  0.75000000  1
loop_
_geom_bond_atom_site_label_1
_geom_bond_atom_site_label_2
_geom_bond_distance
_geom_bond_site_symmetry_2
Ce0 Si0 3.124494 1_655
Ce0 Si0 3.124494 1_545
Ce0 Si3 3.141447 1_555
Ce0 Si3 3.141447 1_554
Ce0 Si1 3.145947 1_544
Ce0 Si1 3.145947 1_545
Ce0 Si1 3.145947 1_654
Ce0 Si1 3.145947 1_655
Ce0 Cu1 3.184932 1_544
Ce0 Cu1 3.184932 1_545
Ce0 Cu1 3.184932 1_654
Ce0 Cu1 3.184932 1_655
Ce0 Si2 3.199735 1_545
Ce0 Si2 3.199735 1_655
Ce1 Si1 3.124494 1_565
Ce1 Si1 3.124494 1_455
Ce1 Si2 3.141447 1_555
Ce1 Si2 3.141447 1_556
Ce1 Si0 3.145947 1_455
Ce1 Si0 3.145947 1_456
Ce1 Si0 3.145947 1_566
Ce1 Si0 3.145947 1_565
Ce1 Cu0 3.184932 1_456
Ce1 Cu0 3.184932 1_455
Ce1 Cu0 3.184932 1_565
Ce1 Cu0 3.184932 1_566
Ce1 Si3 3.199735 1_565
Ce1 Si3 3.199735 1_455
Cu0 Si0 2.335281 1_555
Cu0 Si3 2.377699 1_554
Cu0 Si3 2.377699 1_555
Cu0 Si2 2.398054 1_545
Cu0 Si2 2.398054 1_655
Cu1 Si1 2.335281 1_555
Cu1 Si2 2.377699 1_555
Cu1 Si2 2.377699 1_556
Cu1 Si3 2.398054 1_455
Cu1 Si3 2.398054 1_565
Si0 Si1 2.380180 1_555
Si0 Si1 2.380180 1_554
