# generated using pymatgen
data_ErScO3
_symmetry_space_group_name_H-M   'P 1'
_cell_length_a   5.42068900
_cell_length_b   5.72086100
_cell_length_c   7.94364400
_cell_angle_alpha   90.00000000
_cell_angle_beta   90.00000000
_cell_angle_gamma   90.00000000
_symmetry_Int_Tables_number   1
_chemical_formula_structural   ErScO3
_chemical_formula_sum   'Er4 Sc4 O12'
_cell_volume   246.34040996
_cell_formula_units_Z   4
loop_
 _symmetry_equiv_pos_site_id
 _symmetry_equiv_pos_as_xyz
  1  'x, y, z'
loop_
 _atom_site_type_symbol
 _atom_site_label
 _atom_site_symmetry_multiplicity
 _atom_site_fract_x
 _atom_site_fract_y
 _atom_site_fract_z
 _atom_site_occupancy
  Er  Er0  1  0.01789600  0.43695300  0.25000000  1
  Er  Er1  1  0.98210400  0.56304700  0.75000000  1
  Er  Er2  1  0.51789600  0.06304700  0.75000000  1
  Er  Er3  1  0.48210400  0.93695300  0.25000000  1
  Sc  Sc0  1  0.00000000  0.00000000  0.00000000  1
  Sc  Sc1  1  0.50000000  0.50000000  0.00000000  1
  Sc  Sc2  1  0.00000000  0.00000000  0.50000000  1
  Sc  Sc3  1  0.50000000  0.50000000  0.50000000  1
  O  O0  1  0.31421000  0.18900000  0.06857000  1
  O  O1  1  0.68579000  0.81100000  0.93143000  1
  O  O2  1  0.81421000  0.31100000  0.93143000  1
  O  O3  1  0.68579000  0.81100000  0.56857000  1
  O  O4  1  0.18579000  0.68900000  0.06857000  1
  O  O5  1  0.31421000  0.18900000  0.43143000  1
  O  O6  1  0.18579000  0.68900000  0.43143000  1
  O  O7  1  0.81421000  0.31100000  0.56857000  1
  O  O8  1  0.63245000  0.55996800  0.25000000  1
  O  O9  1  0.36755000  0.44003200  0.75000000  1
  O  O10  1  0.13245000  0.94003200  0.75000000  1
  O  O11  1  0.86755000  0.05996800  0.25000000  1
loop_
_geom_bond_atom_site_label_1
_geom_bond_atom_site_label_2
_geom_bond_distance
_geom_bond_site_symmetry_2
Er0 O8 2.204719 1_455
Er0 O6 2.232607 1_555
Er0 O4 2.232607 1_555
Er0 O11 2.305527 1_455
Er0 O5 2.582483 1_555
Er0 O0 2.582483 1_555
Er0 O2 2.853463 1_454
Er0 O7 2.853463 1_455
Er1 O9 2.204719 1_655
Er1 O2 2.232607 1_555
Er1 O7 2.232607 1_555
Er1 O10 2.305527 1_655
Er1 O3 2.582483 1_555
Er1 O1 2.582483 1_555
Er1 O6 2.853463 1_655
Er1 O4 2.853463 1_656
Er2 O10 2.204719 1_545
Er2 O1 2.232607 1_545
Er2 O3 2.232607 1_545
Er2 O9 2.305527 1_555
Er2 O7 2.582483 1_555
Er2 O2 2.582483 1_555
Er2 O5 2.853463 1_555
Er2 O0 2.853463 1_556
Er3 O11 2.204719 1_565
Er3 O0 2.232607 1_565
Er3 O5 2.232607 1_565
Er3 O8 2.305527 1_555
Er3 O6 2.582483 1_555
Er3 O4 2.582483 1_555
Er3 O3 2.853463 1_555
Er3 O1 2.853463 1_554
O0 Sc0 2.089686 1_555
O0 Sc1 2.115768 1_555
O1 Sc0 2.089686 1_666
O1 Sc1 2.115768 1_556
O2 Sc1 2.089686 1_556
O2 Sc0 2.115768 1_656
O3 Sc2 2.089686 1_665
O3 Sc3 2.115768 1_555
O4 Sc1 2.089686 1_555
O4 Sc0 2.115768 1_565
O5 Sc2 2.089686 1_555
O5 Sc3 2.115768 1_555
O6 Sc3 2.089686 1_555
O6 Sc2 2.115768 1_565
O7 Sc3 2.089686 1_555
O7 Sc2 2.115768 1_655
O8 Sc1 2.139397 1_555
O8 Sc3 2.139397 1_555
O9 Sc1 2.139397 1_556
O9 Sc3 2.139397 1_555
O10 Sc2 2.139397 1_565
O10 Sc0 2.139397 1_566
O11 Sc2 2.139397 1_655
O11 Sc0 2.139397 1_655
