# generated using pymatgen
data_NdSbTe
_symmetry_space_group_name_H-M   'P 1'
_cell_length_a   4.34256079
_cell_length_b   4.34256079
_cell_length_c   9.59876622
_cell_angle_alpha   90.00000000
_cell_angle_beta   90.00000000
_cell_angle_gamma   90.00000000
_symmetry_Int_Tables_number   1
_chemical_formula_structural   NdSbTe
_chemical_formula_sum   'Nd2 Sb2 Te2'
_cell_volume   181.01194204
_cell_formula_units_Z   2
loop_
 _symmetry_equiv_pos_site_id
 _symmetry_equiv_pos_as_xyz
  1  'x, y, z'
loop_
 _atom_site_type_symbol
 _atom_site_label
 _atom_site_symmetry_multiplicity
 _atom_site_fract_x
 _atom_site_fract_y
 _atom_site_fract_z
 _atom_site_occupancy
  Nd  Nd0  1  0.75000000  0.75000000  0.72527875  1
  Nd  Nd1  1  0.25000000  0.25000000  0.27472125  1
  Sb  Sb0  1  0.75000000  0.25000000  -0.00000000  1
  Sb  Sb1  1  0.25000000  0.75000000  -0.00000000  1
  Te  Te0  1  0.75000000  0.75000000  0.37531027  1
  Te  Te1  1  0.25000000  0.25000000  0.62468973  1
loop_
_geom_bond_atom_site_label_1
_geom_bond_atom_site_label_2
_geom_bond_distance
_geom_bond_site_symmetry_2
Nd0 Te1 3.218877 1_555
Nd0 Te1 3.218877 1_565
Nd0 Te1 3.218877 1_655
Nd0 Te1 3.218877 1_665
Nd0 Te0 3.359266 1_555
Nd0 Sb1 3.415867 1_556
Nd0 Sb0 3.415867 1_556
Nd0 Sb1 3.415867 1_656
Nd0 Sb0 3.415867 1_566
Nd1 Te0 3.218877 1_455
Nd1 Te0 3.218877 1_545
Nd1 Te0 3.218877 1_445
Nd1 Te0 3.218877 1_555
Nd1 Te1 3.359266 1_555
Nd1 Sb0 3.415867 1_555
Nd1 Sb1 3.415867 1_545
Nd1 Sb1 3.415867 1_555
Nd1 Sb0 3.415867 1_455
Sb0 Sb1 3.070654 1_645
Sb0 Sb1 3.070654 1_545
Sb0 Sb1 3.070654 1_555
Sb0 Sb1 3.070654 1_655
