# generated using pymatgen
data_Re2Mo3C
_symmetry_space_group_name_H-M   'P 1'
_cell_length_a   6.94837500
_cell_length_b   6.94837500
_cell_length_c   6.94837500
_cell_angle_alpha   90.00000000
_cell_angle_beta   90.00000000
_cell_angle_gamma   90.00000000
_symmetry_Int_Tables_number   1
_chemical_formula_structural   Re2Mo3C
_chemical_formula_sum   'Re8 Mo12 C4'
_cell_volume   335.46695537
_cell_formula_units_Z   4
loop_
 _symmetry_equiv_pos_site_id
 _symmetry_equiv_pos_as_xyz
  1  'x, y, z'
loop_
 _atom_site_type_symbol
 _atom_site_label
 _atom_site_symmetry_multiplicity
 _atom_site_fract_x
 _atom_site_fract_y
 _atom_site_fract_z
 _atom_site_occupancy
  Re  Re0  1  0.18337000  0.81663000  0.31663000  1
  Re  Re1  1  0.31663000  0.18337000  0.81663000  1
  Re  Re2  1  0.81663000  0.31663000  0.18337000  1
  Re  Re3  1  0.68337000  0.68337000  0.68337000  1
  Re  Re4  1  0.56663000  0.43337000  0.93337000  1
  Re  Re5  1  0.43337000  0.93337000  0.56663000  1
  Re  Re6  1  0.93337000  0.56663000  0.43337000  1
  Re  Re7  1  0.06663000  0.06663000  0.06663000  1
  Mo  Mo0  1  0.79500500  0.95499500  0.37500000  1
  Mo  Mo1  1  0.70499500  0.04500500  0.87500000  1
  Mo  Mo2  1  0.20499500  0.45499500  0.12500000  1
  Mo  Mo3  1  0.29500500  0.54500500  0.62500000  1
  Mo  Mo4  1  0.95499500  0.37500000  0.79500500  1
  Mo  Mo5  1  0.04500500  0.87500000  0.70499500  1
  Mo  Mo6  1  0.45499500  0.12500000  0.20499500  1
  Mo  Mo7  1  0.54500500  0.62500000  0.29500500  1
  Mo  Mo8  1  0.37500000  0.79500500  0.95499500  1
  Mo  Mo9  1  0.87500000  0.70499500  0.04500500  1
  Mo  Mo10  1  0.12500000  0.20499500  0.45499500  1
  Mo  Mo11  1  0.62500000  0.29500500  0.54500500  1
  C  C0  1  0.87500000  0.12500000  0.62500000  1
  C  C1  1  0.62500000  0.87500000  0.12500000  1
  C  C2  1  0.12500000  0.62500000  0.87500000  1
  C  C3  1  0.37500000  0.37500000  0.37500000  1
loop_
_geom_bond_atom_site_label_1
_geom_bond_atom_site_label_2
_geom_bond_distance
_geom_bond_site_symmetry_2
Re0 Re5 2.587075 1_555
Re0 Re6 2.587075 1_455
Re0 Re7 2.587075 1_565
Re1 Re5 2.587075 1_545
Re1 Re4 2.587075 1_555
Re1 Re7 2.587075 1_556
Re2 Re4 2.587075 1_554
Re2 Re6 2.587075 1_555
Re2 Re7 2.587075 1_655
Re3 Re5 2.587075 1_555
Re3 Re4 2.587075 1_555
Re3 Re6 2.587075 1_555
Mo0 Re2 2.847728 1_565
Mo0 Re5 2.847728 1_555
Mo0 Re0 2.893223 1_655
Mo0 Re6 2.893223 1_555
Mo0 Re7 2.958854 1_665
Mo0 Re3 2.958854 1_555
Mo1 Re7 2.847728 1_656
Mo1 Re3 2.847728 1_545
Mo1 Re1 2.893223 1_555
Mo1 Re4 2.893223 1_555
Mo1 Re2 2.958854 1_556
Mo1 Re5 2.958854 1_545
Mo2 Re4 2.847728 1_554
Mo2 Re0 2.847728 1_555
Mo2 Re2 2.893223 1_455
Mo2 Re7 2.893223 1_555
Mo2 Re6 2.958854 1_455
Mo2 Re1 2.958854 1_554
Mo3 Re1 2.847728 1_555
Mo3 Re6 2.847728 1_455
Mo3 Re3 2.893223 1_555
Mo3 Re5 2.893223 1_555
Mo3 Re0 2.958854 1_555
Mo3 Re4 2.958854 1_555
Mo4 Re1 2.847728 1_655
Mo4 Re6 2.847728 1_555
Mo4 Re4 2.893223 1_555
Mo4 Re2 2.893223 1_556
Mo4 Re7 2.958854 1_656
Mo4 Re3 2.958854 1_555
Mo5 Re7 2.847728 1_566
Mo5 Re3 2.847728 1_455
Mo5 Re5 2.893223 1_555
Mo5 Re0 2.893223 1_555
Mo5 Re1 2.958854 1_565
Mo5 Re6 2.958854 1_455
Mo6 Re5 2.847728 1_545
Mo6 Re2 2.847728 1_555
Mo6 Re7 2.893223 1_555
Mo6 Re1 2.893223 1_554
Mo6 Re4 2.958854 1_554
Mo6 Re0 2.958854 1_545
Mo7 Re0 2.847728 1_555
Mo7 Re4 2.847728 1_554
Mo7 Re6 2.893223 1_555
Mo7 Re3 2.893223 1_555
Mo7 Re5 2.958854 1_555
Mo7 Re2 2.958854 1_555
Mo8 Re0 2.847728 1_556
Mo8 Re4 2.847728 1_555
Mo8 Re1 2.893223 1_565
Mo8 Re5 2.893223 1_555
Mo8 Re3 2.958854 1_555
Mo8 Re7 2.958854 1_566
Mo9 Re7 2.847728 1_665
Mo9 Re3 2.847728 1_554
Mo9 Re2 2.893223 1_555
Mo9 Re6 2.893223 1_555
Mo9 Re0 2.958854 1_655
Mo9 Re4 2.958854 1_554
Mo10 Re6 2.847728 1_455
Mo10 Re1 2.847728 1_555
Mo10 Re7 2.893223 1_555
Mo10 Re0 2.893223 1_545
Mo10 Re5 2.958854 1_545
Mo10 Re2 2.958854 1_455
Mo11 Re2 2.847728 1_555
Mo11 Re5 2.847728 1_545
Mo11 Re4 2.893223 1_555
Mo11 Re3 2.893223 1_555
Mo11 Re1 2.958854 1_555
Mo11 Re6 2.958854 1_555
C0 Mo4 2.172975 1_555
C0 Mo1 2.172975 1_555
C0 Mo0 2.172975 1_545
C0 Mo10 2.172975 1_655
C0 Mo5 2.172975 1_645
C0 Mo11 2.172975 1_555
C1 Mo1 2.172975 1_564
C1 Mo6 2.172975 1_565
C1 Mo9 2.172975 1_555
C1 Mo0 2.172975 1_555
C1 Mo8 2.172975 1_554
C1 Mo7 2.172975 1_555
C2 Mo4 2.172975 1_455
C2 Mo8 2.172975 1_555
C2 Mo5 2.172975 1_555
C2 Mo3 2.172975 1_555
C2 Mo2 2.172975 1_556
C2 Mo9 2.172975 1_456
C3 Mo11 2.172975 1_555
C3 Mo2 2.172975 1_555
C3 Mo3 2.172975 1_555
C3 Mo6 2.172975 1_555
C3 Mo10 2.172975 1_555
C3 Mo7 2.172975 1_555
