# generated using pymatgen
data_GdGaI
_symmetry_space_group_name_H-M   'P 1'
_cell_length_a   4.21436595
_cell_length_b   4.21436595
_cell_length_c   11.80931663
_cell_angle_alpha   90.00000000
_cell_angle_beta   90.00000000
_cell_angle_gamma   119.99998095
_symmetry_Int_Tables_number   1
_chemical_formula_structural   GdGaI
_chemical_formula_sum   'Gd2 Ga2 I2'
_cell_volume   181.64354544
_cell_formula_units_Z   2
loop_
 _symmetry_equiv_pos_site_id
 _symmetry_equiv_pos_as_xyz
  1  'x, y, z'
loop_
 _atom_site_type_symbol
 _atom_site_label
 _atom_site_symmetry_multiplicity
 _atom_site_fract_x
 _atom_site_fract_y
 _atom_site_fract_z
 _atom_site_occupancy
  Gd  Gd0  1  0.00000000  -0.00000000  0.17241835  1
  Gd  Gd1  1  -0.00000000  -0.00000000  0.82758165  1
  Ga  Ga0  1  0.33333300  0.66666700  0.02654779  1
  Ga  Ga1  1  0.66666700  0.33333300  0.97345221  1
  I  I0  1  0.33333300  0.66666700  0.65654614  1
  I  I1  1  0.66666700  0.33333300  0.34345386  1
loop_
_geom_bond_atom_site_label_1
_geom_bond_atom_site_label_2
_geom_bond_distance
_geom_bond_site_symmetry_2
Gd0 I1 3.162265 1_455
Gd0 I1 3.162269 1_555
Gd0 I1 3.162269 1_445
Gd1 I0 3.162265 1_545
Gd1 I0 3.162269 1_445
Gd1 I0 3.162269 1_555
Ga0 Ga1 2.512656 1_454
Ga0 Ga1 2.512656 1_564
Ga0 Ga1 2.512663 1_554
Ga0 Gd0 2.981231 1_565
Ga0 Gd0 2.981235 1_665
Ga0 Gd0 2.981235 1_555
Ga0 Gd1 3.382478 1_564
Ga0 Gd1 3.382481 1_664
Ga0 Gd1 3.382481 1_554
Ga1 Gd1 2.981231 1_655
Ga1 Gd1 2.981235 1_555
Ga1 Gd1 2.981235 1_665
Ga1 Gd0 3.382478 1_656
Ga1 Gd0 3.382481 1_666
Ga1 Gd0 3.382481 1_556
