# generated using pymatgen
data_Mg2Si3
_symmetry_space_group_name_H-M   'P 1'
_cell_length_a   5.25191631
_cell_length_b   5.25191631
_cell_length_c   19.80758316
_cell_angle_alpha   80.80194969
_cell_angle_beta   80.80194969
_cell_angle_gamma   43.24758679
_symmetry_Int_Tables_number   1
_chemical_formula_structural   Mg2Si3
_chemical_formula_sum   'Mg8 Si12'
_cell_volume   368.75433038
_cell_formula_units_Z   4
loop_
 _symmetry_equiv_pos_site_id
 _symmetry_equiv_pos_as_xyz
  1  'x, y, z'
loop_
 _atom_site_type_symbol
 _atom_site_label
 _atom_site_symmetry_multiplicity
 _atom_site_fract_x
 _atom_site_fract_y
 _atom_site_fract_z
 _atom_site_occupancy
  Mg  Mg0  1  0.49518600  0.49518600  0.17395300  1
  Mg  Mg1  1  0.69080900  0.69080900  0.80917600  1
  Mg  Mg2  1  0.93330100  0.93330100  0.04765300  1
  Mg  Mg3  1  0.25943100  0.25943100  0.94203900  1
  Mg  Mg4  1  0.02075800  0.02075800  0.70684100  1
  Mg  Mg5  1  0.58753100  0.58753100  0.31903100  1
  Mg  Mg6  1  0.94308400  0.94308400  0.54692800  1
  Mg  Mg7  1  0.67407800  0.67407800  0.46256300  1
  Si  Si0  1  0.65050800  0.65050800  0.04477800  1
  Si  Si1  1  0.54458100  0.54458100  0.94502900  1
  Si  Si2  1  0.22786100  0.22786100  0.12033600  1
  Si  Si3  1  0.97499300  0.97499300  0.87518900  1
  Si  Si4  1  0.31583600  0.31583600  0.69995900  1
  Si  Si5  1  0.28099600  0.28099600  0.35765600  1
  Si  Si6  1  0.21042500  0.21042500  0.56185700  1
  Si  Si7  1  0.39166600  0.39166600  0.45723800  1
  Si  Si8  1  0.71366400  0.71366400  0.64242000  1
  Si  Si9  1  0.89120800  0.89120800  0.28887100  1
  Si  Si10  1  0.77395200  0.77395200  0.19151500  1
  Si  Si11  1  0.40223900  0.40223900  0.80687000  1
loop_
_geom_bond_atom_site_label_1
_geom_bond_atom_site_label_2
_geom_bond_distance
_geom_bond_site_symmetry_2
Mg0 Si0 2.740874 1_555
Mg0 Si10 2.802882 1_555
Mg0 Si10 2.876637 1_455
Mg0 Si10 2.876637 1_545
Mg0 Si2 2.982457 1_555
Mg0 Si9 3.027060 1_545
Mg0 Si9 3.027060 1_455
Mg0 Si2 3.034093 1_655
Mg0 Si2 3.034093 1_565
Mg1 Si1 2.821079 1_555
Mg1 Si11 2.824477 1_655
Mg1 Si11 2.824477 1_565
Mg1 Si11 2.825986 1_555
Mg1 Si3 2.991452 1_545
Mg1 Si3 2.991452 1_455
Mg1 Si4 3.001314 1_565
Mg1 Si4 3.001314 1_655
Mg2 Si0 2.771723 1_555
Mg2 Si0 2.864581 1_565
Mg2 Si0 2.864581 1_655
Mg2 Si1 2.880772 1_654
Mg2 Si1 2.880772 1_564
Mg2 Si2 2.974793 1_565
Mg2 Si2 2.974793 1_655
Mg2 Si10 3.002710 1_555
Mg3 Si1 2.795171 1_555
Mg3 Si11 2.798018 1_555
Mg3 Si1 2.847419 1_455
Mg3 Si1 2.847419 1_545
Mg3 Si0 2.876435 1_546
Mg3 Si0 2.876435 1_456
Mg3 Si3 2.995177 1_455
Mg3 Si3 2.995177 1_545
Mg4 Si4 2.803933 1_455
Mg4 Si4 2.803933 1_545
Mg4 Si8 2.845262 1_545
Mg4 Si8 2.845262 1_455
Mg4 Si4 2.861035 1_555
Mg4 Si11 2.867434 1_455
Mg4 Si11 2.867434 1_545
Mg4 Si6 3.138164 1_555
Mg5 Si10 2.848161 1_555
Mg5 Si9 2.858566 1_455
Mg5 Si9 2.858566 1_545
Mg5 Si5 2.897727 1_655
Mg5 Si5 2.897727 1_565
Mg5 Si9 2.922433 1_555
Mg5 Si5 2.959226 1_555
Mg5 Si7 3.058015 1_555
Mg6 Si8 2.671880 1_555
Mg6 Si6 2.677222 1_665
Mg6 Si7 2.731419 1_565
Mg6 Si7 2.731419 1_655
Mg6 Si6 2.960291 1_655
Mg6 Si6 2.960291 1_565
Mg7 Si7 2.777723 1_555
Mg7 Si6 2.824879 1_565
Mg7 Si6 2.824879 1_655
Mg7 Si7 2.862511 1_565
Mg7 Si7 2.862511 1_655
Mg7 Si5 2.899573 1_655
Mg7 Si5 2.899573 1_565
Si0 Si1 2.382516 1_554
Si0 Si2 2.635311 1_565
Si0 Si2 2.635311 1_655
Si1 Si3 2.538581 1_545
Si1 Si3 2.538581 1_455
Si4 Si8 2.535948 1_455
Si4 Si8 2.535948 1_545
Si5 Si7 2.406556 1_555
Si5 Si9 2.501190 1_545
Si5 Si9 2.501190 1_455
Si6 Si7 2.482948 1_555
Si6 Si8 2.512076 1_455
Si6 Si8 2.512076 1_545
Si10 Si9 2.406015 1_555
Si10 Si2 2.480779 1_655
Si10 Si2 2.480779 1_565
Si11 Si4 2.410534 1_555
Si11 Si3 2.532245 1_455
Si11 Si3 2.532245 1_545
