# generated using pymatgen
data_IrRu
_symmetry_space_group_name_H-M   'P 1'
_cell_length_a   9.38314950
_cell_length_b   9.38314950
_cell_length_c   9.38314791
_cell_angle_alpha   33.39923044
_cell_angle_beta   33.39923044
_cell_angle_gamma   33.39921944
_symmetry_Int_Tables_number   1
_chemical_formula_structural   IrRu
_chemical_formula_sum   'Ir8 Ru8'
_cell_volume   222.91669067
_cell_formula_units_Z   8
loop_
 _symmetry_equiv_pos_site_id
 _symmetry_equiv_pos_as_xyz
  1  'x, y, z'
loop_
 _atom_site_type_symbol
 _atom_site_label
 _atom_site_symmetry_multiplicity
 _atom_site_fract_x
 _atom_site_fract_y
 _atom_site_fract_z
 _atom_site_occupancy
  Ir  Ir0_0  1  0.00000000  0.00000000  0.00000000  1
  Ir  Ir0_1  1  0.00000000  0.00000000  0.50000000  1
  Ir  Ir0_2  1  0.00000000  0.50000000  0.00000000  1
  Ir  Ir0_3  1  1.00000000  0.50000000  0.50000000  1
  Ir  Ir0_4  1  0.50000000  0.00000000  0.00000000  1
  Ir  Ir0_5  1  0.50000000  0.00000000  0.50000000  1
  Ir  Ir0_6  1  0.50000000  0.50000000  0.00000000  1
  Ir  Ir0_7  1  0.50000000  0.50000000  0.50000000  1
  Ru  Ru0_0  1  0.25000000  0.25000000  0.25000000  1
  Ru  Ru0_1  1  0.25000000  0.25000000  0.75000000  1
  Ru  Ru0_2  1  0.25000000  0.75000000  0.25000000  1
  Ru  Ru0_3  1  0.25000000  0.75000000  0.75000000  1
  Ru  Ru0_4  1  0.75000000  0.25000000  0.25000000  1
  Ru  Ru0_5  1  0.75000000  0.25000000  0.75000000  1
  Ru  Ru0_6  1  0.75000000  0.75000000  0.25000000  1
  Ru  Ru0_7  1  0.75000000  0.75000000  0.75000000  1
loop_
_geom_bond_atom_site_label_1
_geom_bond_atom_site_label_2
_geom_bond_distance
_geom_bond_site_symmetry_2
Ir0_0 Ir0_6 2.696286 1_455
Ir0_0 Ir0_6 2.696286 1_545
Ir0_0 Ir0_3 2.696286 1_445
Ir0_0 Ir0_5 2.696286 1_455
Ir0_0 Ir0_5 2.696286 1_554
Ir0_0 Ir0_3 2.696286 1_454
Ir0_0 Ru0_2 2.705588 1_545
Ir0_0 Ru0_4 2.705588 1_455
Ir0_0 Ru0_5 2.705588 1_454
Ir0_0 Ru0_3 2.705588 1_544
Ir0_0 Ru0_1 2.705589 1_554
Ir0_0 Ru0_6 2.705589 1_445
Ir0_1 Ir0_7 2.696286 1_545
Ir0_1 Ir0_7 2.696286 1_455
Ir0_1 Ir0_2 2.696286 1_546
Ir0_1 Ir0_4 2.696286 1_555
Ir0_1 Ir0_4 2.696286 1_456
Ir0_1 Ir0_2 2.696286 1_555
Ir0_1 Ru0_3 2.705588 1_545
Ir0_1 Ru0_5 2.705588 1_455
Ir0_1 Ru0_2 2.705588 1_545
Ir0_1 Ru0_4 2.705588 1_455
Ir0_1 Ru0_0 2.705589 1_555
Ir0_1 Ru0_7 2.705589 1_445
Ir0_2 Ir0_4 2.696285 1_465
Ir0_2 Ir0_4 2.696286 1_555
Ir0_2 Ir0_7 2.696286 1_554
Ir0_2 Ir0_7 2.696286 1_455
Ir0_2 Ru0_6 2.705588 1_455
Ir0_2 Ru0_0 2.705588 1_555
Ir0_2 Ru0_7 2.705588 1_454
Ir0_2 Ru0_1 2.705588 1_554
Ir0_2 Ru0_3 2.705589 1_554
Ir0_2 Ru0_4 2.705589 1_455
Ir0_3 Ir0_5 2.696286 1_565
Ir0_3 Ir0_5 2.696286 1_655
Ir0_3 Ir0_6 2.696286 1_556
Ir0_3 Ir0_6 2.696286 1_655
Ir0_3 Ru0_1 2.705588 1_655
Ir0_3 Ru0_0 2.705588 1_655
Ir0_3 Ru0_6 2.705588 1_555
Ir0_3 Ru0_7 2.705588 1_555
Ir0_3 Ru0_5 2.705589 1_555
Ir0_3 Ru0_2 2.705589 1_655
Ir0_4 Ir0_7 2.696286 1_554
Ir0_4 Ir0_7 2.696286 1_545
Ir0_4 Ru0_6 2.705588 1_545
Ir0_4 Ru0_0 2.705588 1_555
Ir0_4 Ru0_7 2.705588 1_544
Ir0_4 Ru0_1 2.705588 1_554
Ir0_4 Ru0_5 2.705589 1_554
Ir0_4 Ru0_2 2.705589 1_545
Ir0_5 Ir0_6 2.696286 1_555
Ir0_5 Ir0_6 2.696286 1_546
Ir0_5 Ru0_1 2.705588 1_555
Ir0_5 Ru0_0 2.705588 1_555
Ir0_5 Ru0_7 2.705588 1_545
Ir0_5 Ru0_6 2.705588 1_545
Ir0_5 Ru0_4 2.705589 1_555
Ir0_5 Ru0_3 2.705589 1_545
Ir0_6 Ru0_4 2.705588 1_555
Ir0_6 Ru0_2 2.705588 1_555
Ir0_6 Ru0_5 2.705588 1_554
Ir0_6 Ru0_3 2.705588 1_554
Ir0_6 Ru0_0 2.705589 1_555
Ir0_6 Ru0_7 2.705589 1_554
Ir0_7 Ru0_3 2.705588 1_555
Ir0_7 Ru0_5 2.705588 1_555
Ir0_7 Ru0_4 2.705588 1_555
Ir0_7 Ru0_2 2.705588 1_555
Ir0_7 Ru0_6 2.705589 1_555
Ir0_7 Ru0_1 2.705589 1_555
Ru0_0 Ru0_6 2.696286 1_455
Ru0_0 Ru0_6 2.696286 1_545
Ru0_0 Ru0_3 2.696286 1_554
Ru0_0 Ru0_5 2.696286 1_554
Ru0_0 Ru0_5 2.696286 1_455
Ru0_0 Ru0_3 2.696286 1_545
Ru0_1 Ru0_7 2.696285 1_455
Ru0_1 Ru0_7 2.696286 1_545
Ru0_1 Ru0_4 2.696286 1_456
Ru0_1 Ru0_4 2.696286 1_555
Ru0_1 Ru0_2 2.696286 1_555
Ru0_1 Ru0_2 2.696286 1_546
Ru0_2 Ru0_4 2.696286 1_555
Ru0_2 Ru0_4 2.696286 1_465
Ru0_2 Ru0_7 2.696286 1_455
Ru0_2 Ru0_7 2.696286 1_554
Ru0_3 Ru0_5 2.696286 1_465
Ru0_3 Ru0_5 2.696286 1_555
Ru0_3 Ru0_6 2.696286 1_456
Ru0_3 Ru0_6 2.696286 1_555
Ru0_4 Ru0_7 2.696286 1_545
Ru0_4 Ru0_7 2.696286 1_554
Ru0_5 Ru0_6 2.696286 1_546
Ru0_5 Ru0_6 2.696286 1_555
