# generated using pymatgen
data_La2ZnCd
_symmetry_space_group_name_H-M   'P 1'
_cell_length_a   11.51827822
_cell_length_b   11.51827822
_cell_length_c   11.51827822
_cell_angle_alpha   124.06867700
_cell_angle_beta   115.47867699
_cell_angle_gamma   90.55226064
_symmetry_Int_Tables_number   1
_chemical_formula_structural   La2ZnCd
_chemical_formula_sum   'La2 Zn1 Cd1'
_cell_volume   1076.66264138
_cell_formula_units_Z   1
loop_
 _symmetry_equiv_pos_site_id
 _symmetry_equiv_pos_as_xyz
  1  'x, y, z'
loop_
 _atom_site_type_symbol
 _atom_site_label
 _atom_site_symmetry_multiplicity
 _atom_site_fract_x
 _atom_site_fract_y
 _atom_site_fract_z
 _atom_site_occupancy
  La  La0  1  0.75932800  0.00000000  0.75932800  1
  La  La1  1  0.24067200  0.00000000  0.24067200  1
  Zn  Zn0  1  0.00000000  0.00000000  0.00000000  1
  Cd  Cd0  1  0.50000000  0.00000000  0.50000000  1
loop_
_geom_bond_atom_site_label_1
_geom_bond_atom_site_label_2
_geom_bond_distance
_geom_bond_site_symmetry_2
La0 Zn0 2.959367 1_656
La1 Zn0 2.959367 1_555
Cd0 La1 3.188766 1_555
Cd0 La0 3.188766 1_555
