# generated using pymatgen
data_ErFeC6(N3O2)2
_symmetry_space_group_name_H-M   'P 1'
_cell_length_a   13.36548100
_cell_length_b   7.34381100
_cell_length_c   7.49190198
_cell_angle_alpha   60.71312162
_cell_angle_beta   90.00000000
_cell_angle_gamma   90.00000000
_symmetry_Int_Tables_number   1
_chemical_formula_structural   ErFeC6(N3O2)2
_chemical_formula_sum   'Er2 Fe2 C12 N12 O8'
_cell_volume   641.36455439
_cell_formula_units_Z   2
loop_
 _symmetry_equiv_pos_site_id
 _symmetry_equiv_pos_as_xyz
  1  'x, y, z'
loop_
 _atom_site_type_symbol
 _atom_site_label
 _atom_site_symmetry_multiplicity
 _atom_site_fract_x
 _atom_site_fract_y
 _atom_site_fract_z
 _atom_site_occupancy
  Er  Er0  1  0.25000000  0.67351900  0.65655900  1
  Er  Er1  1  0.75000000  0.32648100  0.34344100  1
  Fe  Fe0  1  0.50000000  0.00000000  0.00000000  1
  Fe  Fe1  1  0.00000000  0.00000000  0.00000000  1
  C  C0  1  0.41179800  0.88843600  0.23604600  1
  C  C1  1  0.91179800  0.11156400  0.76395400  1
  C  C2  1  0.58820200  0.11156400  0.76395400  1
  C  C3  1  0.08820200  0.88843600  0.23604600  1
  C  C4  1  0.42207300  0.25694300  0.86663700  1
  C  C5  1  0.92207300  0.74305700  0.13336300  1
  C  C6  1  0.57792700  0.74305700  0.13336300  1
  C  C7  1  0.07792700  0.25694300  0.86663700  1
  C  C8  1  0.40954400  0.89020300  0.87309800  1
  C  C9  1  0.90954400  0.10979700  0.12690200  1
  C  C10  1  0.59045600  0.10979700  0.12690200  1
  C  C11  1  0.09045600  0.89020300  0.87309800  1
  N  N0  1  0.35848800  0.82245000  0.37787900  1
  N  N1  1  0.85848800  0.17755000  0.62212100  1
  N  N2  1  0.64151200  0.17755000  0.62212100  1
  N  N3  1  0.14151200  0.82245000  0.37787900  1
  N  N4  1  0.36920200  0.40288700  0.79182600  1
  N  N5  1  0.86920200  0.59711300  0.20817400  1
  N  N6  1  0.63079800  0.59711300  0.20817400  1
  N  N7  1  0.13079800  0.40288700  0.79182600  1
  N  N8  1  0.35663300  0.82328800  0.79488900  1
  N  N9  1  0.85663300  0.17671200  0.20511100  1
  N  N10  1  0.64336700  0.17671200  0.20511100  1
  N  N11  1  0.14336700  0.82328800  0.79488900  1
  O  O0  1  0.67380800  0.64579000  0.67285500  1
  O  O1  1  0.17380800  0.35421000  0.32714500  1
  O  O2  1  0.32619200  0.35421000  0.32714500  1
  O  O3  1  0.82619200  0.64579000  0.67285500  1
  O  O4  1  0.25000000  0.41823600  0.16315600  1
  O  O5  1  0.75000000  0.58176400  0.83684400  1
  O  O6  1  0.25000000  0.40292200  0.44202700  1
  O  O7  1  0.75000000  0.59707800  0.55797300  1
loop_
_geom_bond_atom_site_label_1
_geom_bond_atom_site_label_2
_geom_bond_distance
_geom_bond_site_symmetry_2
Er0 N3 2.328880 1_555
Er0 N0 2.328880 1_555
Er0 N8 2.330270 1_555
Er0 N11 2.330270 1_555
Er0 N7 2.354729 1_555
Er0 N4 2.354729 1_555
Er0 O6 3.107593 1_555
Er1 N2 2.328880 1_555
Er1 N1 2.328880 1_555
Er1 N9 2.330270 1_555
Er1 N10 2.330270 1_555
Er1 N5 2.354729 1_555
Er1 N6 2.354729 1_555
Er1 O7 3.107593 1_555
C0 N0 1.169545 1_555
C0 Fe0 1.941853 1_565
C1 N1 1.169545 1_555
C1 Fe1 1.941853 1_656
C2 N2 1.169545 1_555
C2 Fe0 1.941853 1_556
C3 N3 1.169545 1_555
C3 Fe1 1.941853 1_565
C4 N4 1.172387 1_555
C4 Fe0 1.949124 1_556
C5 N5 1.172387 1_555
C5 Fe1 1.949124 1_665
C6 N6 1.172387 1_555
C6 Fe0 1.949124 1_565
C7 N7 1.172387 1_555
C7 Fe1 1.949124 1_556
C8 N8 1.169023 1_555
C8 Fe0 1.940552 1_566
C9 N9 1.169023 1_555
C9 Fe1 1.940552 1_655
C10 N10 1.169023 1_555
C10 Fe0 1.940552 1_555
C11 N11 1.169023 1_555
C11 Fe1 1.940552 1_566
O0 O5 1.484035 1_555
O0 O7 1.485599 1_555
O1 O4 1.484035 1_555
O1 O6 1.485599 1_555
O2 O4 1.484035 1_555
O2 O6 1.485599 1_555
O3 O5 1.484035 1_555
O3 O7 1.485599 1_555
