# generated using pymatgen
data_MgMn6Nb4O18
_symmetry_space_group_name_H-M   'P 1'
_cell_length_a   5.25613395
_cell_length_b   5.43638770
_cell_length_c   14.93573367
_cell_angle_alpha   89.21613256
_cell_angle_beta   89.83939858
_cell_angle_gamma   119.88037541
_symmetry_Int_Tables_number   1
_chemical_formula_structural   MgMn6Nb4O18
_chemical_formula_sum   'Mg1 Mn6 Nb4 O18'
_cell_volume   369.98908209
_cell_formula_units_Z   1
loop_
 _symmetry_equiv_pos_site_id
 _symmetry_equiv_pos_as_xyz
  1  'x, y, z'
loop_
 _atom_site_type_symbol
 _atom_site_label
 _atom_site_symmetry_multiplicity
 _atom_site_fract_x
 _atom_site_fract_y
 _atom_site_fract_z
 _atom_site_occupancy
  Mg  Mg0  1  0.68921800  0.36884600  0.33288000  1
  Mn  Mn0  1  0.68366100  0.32491700  0.70981400  1
  Mn  Mn1  1  0.66479100  0.32126000  0.96353300  1
  Mn  Mn2  1  0.65027300  0.34328200  0.51370900  1
  Mn  Mn3  1  0.31450600  0.67765100  0.50811100  1
  Mn  Mn4  1  0.33721600  0.65456600  0.99774100  1
  Mn  Mn5  1  0.65700000  0.30424400  0.16175000  1
  Nb  Nb0  1  0.00779300  0.99528000  0.85651200  1
  Nb  Nb1  1  0.99356200  0.97227600  0.14660400  1
  Nb  Nb2  1  0.97716100  0.98387400  0.64897200  1
  Nb  Nb3  1  0.00419100  0.02062000  0.35412000  1
  O  O0  1  0.35369800  0.28780200  0.08479700  1
  O  O1  1  0.68762800  0.68665100  0.91900400  1
  O  O2  1  0.91756400  0.24644400  0.24259800  1
  O  O3  1  0.33386000  0.10467900  0.24818000  1
  O  O4  1  0.97457200  0.64317800  0.08972600  1
  O  O5  1  0.66279700  0.68705500  0.58150800  1
  O  O6  1  0.73408600  0.02913000  0.75279000  1
  O  O7  1  0.02435600  0.30762800  0.91876200  1
  O  O8  1  0.98363600  0.69376100  0.41571900  1
  O  O9  1  0.30593800  0.01133000  0.58187900  1
  O  O10  1  0.30819800  0.23621400  0.74948400  1
  O  O11  1  0.95779400  0.32852100  0.60264800  1
  O  O12  1  0.78552500  0.71074100  0.25222000  1
  O  O13  1  0.30847100  0.96599000  0.91784900  1
  O  O14  1  0.69399800  0.00014000  0.08347300  1
  O  O15  1  0.70625100  0.06020200  0.41450400  1
  O  O16  1  0.33841100  0.32823300  0.41133000  1
  O  O17  1  0.93968200  0.70965000  0.74569600  1
loop_
_geom_bond_atom_site_label_1
_geom_bond_atom_site_label_2
_geom_bond_distance
_geom_bond_site_symmetry_2
Mg0 O12 2.039633 1_555
Mg0 O8 2.095850 1_555
Mg0 O16 2.096842 1_555
Mg0 O15 2.098559 1_555
Mg0 O2 2.124338 1_555
Mg0 O3 2.131145 1_555
Mn0 O6 1.861537 1_555
Mn0 O10 1.875005 1_555
Mn0 O17 1.924321 1_555
Mn0 O11 2.143952 1_555
Mn1 O1 2.031840 1_555
Mn1 O13 2.035320 1_545
Mn1 O7 2.039182 1_655
Mn1 O0 2.380159 1_556
Mn1 O14 2.542290 1_556
Mn1 O4 2.556282 1_556
Mn2 O9 2.062532 1_555
Mn2 O5 2.109988 1_555
Mn2 O11 2.126504 1_555
Mn2 O16 2.217126 1_555
Mn2 O15 2.271876 1_555
Mn2 O8 2.329245 1_555
Mn3 O5 2.115470 1_555
Mn3 O9 2.154618 1_565
Mn3 O8 2.257936 1_455
Mn3 O11 2.340416 1_455
Mn3 O16 2.454698 1_555
Mn3 O15 2.481352 1_565
Mn4 O1 2.113719 1_555
Mn4 O13 2.124521 1_555
Mn4 O7 2.152765 1_555
Mn4 O14 2.292316 1_566
Mn4 O4 2.321634 1_456
Mn4 O0 2.403221 1_556
Mn5 O0 1.934310 1_555
Mn5 O3 1.960001 1_555
Mn5 O2 1.964745 1_555
Mn5 O4 2.051759 1_555
Mn5 O14 2.123623 1_555
Mn5 O12 2.401062 1_555
Nb0 O13 1.901883 1_555
Nb0 O7 1.910949 1_565
Nb0 O1 1.911349 1_455
Nb0 O10 2.152203 1_565
Nb0 O6 2.184477 1_465
Nb0 O17 2.190549 1_455
Nb1 O14 1.906119 1_565
Nb1 O4 1.948502 1_555
Nb1 O12 2.021250 1_555
Nb1 O0 2.022206 1_665
Nb1 O3 2.186618 1_665
Nb1 O2 2.255040 1_565
Nb2 O9 1.934415 1_665
Nb2 O5 1.935595 1_555
Nb2 O17 1.998778 1_555
Nb2 O11 2.038267 1_565
Nb2 O6 2.099944 1_565
Nb2 O10 2.203579 1_665
Nb3 O15 1.909251 1_455
Nb3 O16 1.932132 1_555
Nb3 O8 1.943974 1_445
Nb3 O12 2.150821 1_445
Nb3 O3 2.211534 1_555
Nb3 O2 2.234767 1_455
