# generated using pymatgen
data_Li3V8ZnO16
_symmetry_space_group_name_H-M   'P 1'
_cell_length_a   5.95966400
_cell_length_b   5.95966400
_cell_length_c   8.42180400
_cell_angle_alpha   90.00000000
_cell_angle_beta   90.00000000
_cell_angle_gamma   90.00000000
_symmetry_Int_Tables_number   1
_chemical_formula_structural   Li3V8ZnO16
_chemical_formula_sum   'Li3 V8 Zn1 O16'
_cell_volume   299.12222358
_cell_formula_units_Z   1
loop_
 _symmetry_equiv_pos_site_id
 _symmetry_equiv_pos_as_xyz
  1  'x, y, z'
loop_
 _atom_site_type_symbol
 _atom_site_label
 _atom_site_symmetry_multiplicity
 _atom_site_fract_x
 _atom_site_fract_y
 _atom_site_fract_z
 _atom_site_occupancy
  Li  Li0  1  0.00000000  0.00000000  0.00000000  1
  Li  Li1  1  0.50000000  0.00000000  0.75145600  1
  Li  Li2  1  0.00000000  0.50000000  0.24854400  1
  V  V0  1  0.24271100  0.00000000  0.37422000  1
  V  V1  1  0.75379500  0.50000000  0.87878200  1
  V  V2  1  0.75728900  0.00000000  0.37422000  1
  V  V3  1  0.24620500  0.50000000  0.87878200  1
  V  V4  1  0.50000000  0.24620500  0.12121800  1
  V  V5  1  0.00000000  0.75728900  0.62578000  1
  V  V6  1  0.50000000  0.75379500  0.12121800  1
  V  V7  1  0.00000000  0.24271100  0.62578000  1
  Zn  Zn0  1  0.50000000  0.50000000  0.50000000  1
  O  O0  1  0.73087300  0.00000000  0.13766600  1
  O  O1  1  0.22713000  0.50000000  0.63484900  1
  O  O2  1  0.26912700  0.00000000  0.13766600  1
  O  O3  1  0.77287000  0.50000000  0.63484900  1
  O  O4  1  0.50000000  0.77287000  0.36515100  1
  O  O5  1  0.00000000  0.26912700  0.86233400  1
  O  O6  1  0.50000000  0.22713000  0.36515100  1
  O  O7  1  0.00000000  0.73087300  0.86233400  1
  O  O8  1  0.27240600  0.50000000  0.11513900  1
  O  O9  1  0.76948100  0.00000000  0.61356200  1
  O  O10  1  0.72759400  0.50000000  0.11513900  1
  O  O11  1  0.23051900  0.00000000  0.61356200  1
  O  O12  1  0.50000000  0.72759400  0.88486100  1
  O  O13  1  0.00000000  0.23051900  0.38643800  1
  O  O14  1  0.50000000  0.27240600  0.88486100  1
  O  O15  1  0.00000000  0.76948100  0.38643800  1
loop_
_geom_bond_atom_site_label_1
_geom_bond_atom_site_label_2
_geom_bond_distance
_geom_bond_site_symmetry_2
Li0 O7 1.979069 1_544
Li0 O5 1.979069 1_554
Li0 O2 1.979069 1_555
Li0 O0 1.979069 1_455
Li1 O14 1.974300 1_555
Li1 O12 1.974300 1_545
Li1 O9 1.981904 1_555
Li1 O11 1.981904 1_555
Li2 O8 1.974300 1_555
Li2 O10 1.974300 1_455
Li2 O15 1.981904 1_555
Li2 O13 1.981904 1_555
O0 V2 1.998422 1_555
O0 V6 2.016265 1_545
O0 V4 2.016265 1_555
O1 Zn0 1.983512 1_555
O1 V7 2.046777 1_555
O1 V5 2.046777 1_555
O1 V3 2.057499 1_555
O2 V0 1.998422 1_555
O2 V6 2.016265 1_545
O2 V4 2.016265 1_555
O3 Zn0 1.983512 1_555
O3 V5 2.046777 1_655
O3 V7 2.046777 1_655
O3 V1 2.057499 1_555
O4 Zn0 1.983512 1_555
O4 V0 2.046777 1_565
O4 V2 2.046777 1_565
O4 V6 2.057499 1_555
O5 V7 1.998422 1_555
O5 V1 2.016265 1_455
O5 V3 2.016265 1_555
O6 Zn0 1.983512 1_555
O6 V2 2.046777 1_555
O6 V0 2.046777 1_555
O6 V4 2.057499 1_555
O7 V5 1.998422 1_555
O7 V1 2.016265 1_455
O7 V3 2.016265 1_555
O8 V3 1.996668 1_554
O8 V4 2.032278 1_555
O8 V6 2.032278 1_555
O9 V7 1.997561 1_655
O9 V5 1.997561 1_645
O9 V2 2.017001 1_555
O10 V1 1.996668 1_554
O10 V4 2.032278 1_555
O10 V6 2.032278 1_555
O11 V5 1.997561 1_545
O11 V7 1.997561 1_555
O11 V0 2.017001 1_555
O12 V6 1.996668 1_556
O12 V3 2.032278 1_555
O12 V1 2.032278 1_555
O13 V0 1.997561 1_555
O13 V2 1.997561 1_455
O13 V7 2.017001 1_555
O14 V4 1.996668 1_556
O14 V3 2.032278 1_555
O14 V1 2.032278 1_555
O15 V2 1.997561 1_465
O15 V0 1.997561 1_565
O15 V5 2.017001 1_555
