# generated using pymatgen
data_Sr2NdTa(CuO4)2
_symmetry_space_group_name_H-M   'P 1'
_cell_length_a   3.95383900
_cell_length_b   3.95383900
_cell_length_c   11.74809000
_cell_angle_alpha   90.00000000
_cell_angle_beta   90.00000000
_cell_angle_gamma   90.00000000
_symmetry_Int_Tables_number   1
_chemical_formula_structural   Sr2NdTa(CuO4)2
_chemical_formula_sum   'Sr2 Nd1 Ta1 Cu2 O8'
_cell_volume   183.65604462
_cell_formula_units_Z   1
loop_
 _symmetry_equiv_pos_site_id
 _symmetry_equiv_pos_as_xyz
  1  'x, y, z'
loop_
 _atom_site_type_symbol
 _atom_site_label
 _atom_site_symmetry_multiplicity
 _atom_site_fract_x
 _atom_site_fract_y
 _atom_site_fract_z
 _atom_site_occupancy
  Sr  Sr0  1  0.50000000  0.50000000  0.19913800  1
  Sr  Sr1  1  0.50000000  0.50000000  0.80086200  1
  Nd  Nd0  1  0.50000000  0.50000000  0.50000000  1
  Ta  Ta0  1  0.00000000  0.00000000  0.00000000  1
  Cu  Cu0  1  0.00000000  0.00000000  0.35700700  1
  Cu  Cu1  1  0.00000000  0.00000000  0.64299300  1
  O  O0  1  0.00000000  0.00000000  0.16841300  1
  O  O1  1  0.00000000  0.00000000  0.83158700  1
  O  O2  1  0.00000000  0.50000000  0.00000000  1
  O  O3  1  0.50000000  0.00000000  0.00000000  1
  O  O4  1  0.00000000  0.50000000  0.36868300  1
  O  O5  1  0.00000000  0.50000000  0.63131700  1
  O  O6  1  0.50000000  0.00000000  0.36868300  1
  O  O7  1  0.50000000  0.00000000  0.63131700  1
loop_
_geom_bond_atom_site_label_1
_geom_bond_atom_site_label_2
_geom_bond_distance
_geom_bond_site_symmetry_2
Nd0 O5 2.507630 1_655
Nd0 O4 2.507630 1_655
Nd0 O6 2.507630 1_555
Nd0 O6 2.507630 1_565
Nd0 O4 2.507630 1_555
Nd0 O7 2.507630 1_555
Nd0 O7 2.507630 1_565
Nd0 O5 2.507630 1_555
Cu0 O4 1.981673 1_545
Cu0 O6 1.981673 1_455
Cu0 O6 1.981673 1_555
Cu0 O4 1.981673 1_555
Cu0 O0 2.215619 1_555
Cu1 O5 1.981673 1_555
Cu1 O7 1.981673 1_455
Cu1 O5 1.981673 1_545
Cu1 O7 1.981673 1_555
Cu1 O1 2.215619 1_555
O0 Ta0 1.978531 1_555
O0 Sr0 2.818992 1_455
O0 Sr0 2.818992 1_555
O0 Sr0 2.818992 1_445
O0 Sr0 2.818992 1_545
O1 Ta0 1.978531 1_556
O1 Sr1 2.818992 1_545
O1 Sr1 2.818992 1_455
O1 Sr1 2.818992 1_555
O1 Sr1 2.818992 1_445
O2 Ta0 1.976919 1_555
O2 Ta0 1.976919 1_565
O2 Sr0 3.062912 1_555
O2 Sr0 3.062912 1_455
O2 Sr1 3.062912 1_454
O2 Sr1 3.062912 1_554
O3 Ta0 1.976919 1_555
O3 Ta0 1.976919 1_655
O3 Sr0 3.062912 1_545
O3 Sr0 3.062912 1_555
O3 Sr1 3.062912 1_544
O3 Sr1 3.062912 1_554
O4 Sr0 2.806349 1_555
O4 Sr0 2.806349 1_455
O5 Sr1 2.806349 1_455
O5 Sr1 2.806349 1_555
O6 Sr0 2.806349 1_555
O6 Sr0 2.806349 1_545
O7 Sr1 2.806349 1_555
O7 Sr1 2.806349 1_545
