# generated using pymatgen
data_LiCr4In4O12
_symmetry_space_group_name_H-M   'P 1'
_cell_length_a   5.32302268
_cell_length_b   5.47981485
_cell_length_c   8.07765752
_cell_angle_alpha   90.98252163
_cell_angle_beta   87.36059945
_cell_angle_gamma   90.59354607
_symmetry_Int_Tables_number   1
_chemical_formula_structural   LiCr4In4O12
_chemical_formula_sum   'Li1 Cr4 In4 O12'
_cell_volume   235.32326963
_cell_formula_units_Z   1
loop_
 _symmetry_equiv_pos_site_id
 _symmetry_equiv_pos_as_xyz
  1  'x, y, z'
loop_
 _atom_site_type_symbol
 _atom_site_label
 _atom_site_symmetry_multiplicity
 _atom_site_fract_x
 _atom_site_fract_y
 _atom_site_fract_z
 _atom_site_occupancy
  Li  Li0  1  0.35062200  0.39656400  0.05455600  1
  Cr  Cr0  1  0.95266500  0.48666600  0.98051400  1
  Cr  Cr1  1  0.01791800  0.50789000  0.49478700  1
  Cr  Cr2  1  0.49183100  0.97231800  0.00146000  1
  Cr  Cr3  1  0.50722300  0.01364000  0.50010000  1
  In  In0  1  0.01818100  0.95083200  0.74807400  1
  In  In1  1  0.49344300  0.45634400  0.71912600  1
  In  In2  1  0.54886000  0.57861400  0.28694400  1
  In  In3  1  0.98267000  0.05814200  0.22740700  1
  O  O0  1  0.15785900  0.42567900  0.26444100  1
  O  O1  1  0.20917900  0.21563700  0.58741000  1
  O  O2  1  0.16185700  0.15250900  0.95560700  1
  O  O3  1  0.31925000  0.70960800  0.55735600  1
  O  O4  1  0.30883200  0.66644200  0.91810300  1
  O  O5  1  0.37127200  0.93450400  0.25314900  1
  O  O6  1  0.62316000  0.07085700  0.75313200  1
  O  O7  1  0.66933900  0.28490900  0.08970500  1
  O  O8  1  0.70311400  0.31680400  0.44719000  1
  O  O9  1  0.78267600  0.78904500  0.07326100  1
  O  O10  1  0.81975000  0.81900000  0.42254900  1
  O  O11  1  0.87280000  0.58685400  0.72346300  1
loop_
_geom_bond_atom_site_label_1
_geom_bond_atom_site_label_2
_geom_bond_distance
_geom_bond_site_symmetry_2
Li0 O7 1.845274 1_555
Li0 O2 1.856477 1_554
Li0 O4 1.880629 1_554
Li0 O0 1.945895 1_555
Cr0 O9 2.012877 1_556
Cr0 O7 2.037443 1_556
Cr0 O2 2.154625 1_655
Cr0 O4 2.170101 1_655
Cr0 O11 2.217811 1_555
Cr0 O0 2.613283 1_656
Cr1 O11 2.010986 1_455
Cr1 O8 2.015303 1_455
Cr1 O3 2.017145 1_555
Cr1 O0 2.017532 1_555
Cr1 O1 2.075108 1_555
Cr1 O10 2.118418 1_455
Cr2 O9 1.968943 1_555
Cr2 O4 2.049291 1_554
Cr2 O2 2.075021 1_564
Cr2 O7 2.078867 1_565
Cr2 O5 2.116511 1_555
Cr2 O6 2.168897 1_564
Cr3 O3 1.984949 1_545
Cr3 O8 1.994299 1_555
Cr3 O1 2.036212 1_555
Cr3 O10 2.053150 1_545
Cr3 O6 2.178738 1_555
Cr3 O5 2.188083 1_545
In0 O11 2.141294 1_455
In0 O2 2.157209 1_565
In0 O1 2.176246 1_565
In0 O6 2.208042 1_465
In0 O3 2.536851 1_555
In0 O4 2.650973 1_555
In1 O11 2.136846 1_555
In1 O4 2.165407 1_555
In1 O3 2.166525 1_555
In1 O6 2.254337 1_555
In1 O1 2.284785 1_555
In1 O8 2.527786 1_555
In2 O8 2.143353 1_555
In2 O5 2.202650 1_555
In2 O0 2.249600 1_555
In2 O10 2.251866 1_555
In2 O7 2.319338 1_555
In2 O9 2.387192 1_555
In2 Li0 2.393492 1_555
In2 O3 2.549267 1_555
In3 O5 2.203313 1_645
In3 O10 2.208044 1_545
In3 O9 2.210141 1_545
In3 O0 2.231942 1_655
In3 O7 2.413375 1_555
In3 O2 2.415217 1_654
In3 O8 2.662585 1_555
