# generated using pymatgen
data_ScOs3
_symmetry_space_group_name_H-M   'P 1'
_cell_length_a   4.88846155
_cell_length_b   4.88846155
_cell_length_c   4.88846195
_cell_angle_alpha   132.59822930
_cell_angle_beta   132.59824210
_cell_angle_gamma   69.28579714
_symmetry_Int_Tables_number   1
_chemical_formula_structural   ScOs3
_chemical_formula_sum   'Sc1 Os3'
_cell_volume   62.11459507
_cell_formula_units_Z   1
loop_
 _symmetry_equiv_pos_site_id
 _symmetry_equiv_pos_as_xyz
  1  'x, y, z'
loop_
 _atom_site_type_symbol
 _atom_site_label
 _atom_site_symmetry_multiplicity
 _atom_site_fract_x
 _atom_site_fract_y
 _atom_site_fract_z
 _atom_site_occupancy
  Sc  Sc0  1  0.00000000  0.00000000  0.00000000  1
  Os  Os0  1  0.75000000  0.25000000  0.50000000  1
  Os  Os1  1  0.25000000  0.75000000  0.50000000  1
  Os  Os2  1  0.50000000  0.50000000  0.00000000  1
loop_
_geom_bond_atom_site_label_1
_geom_bond_atom_site_label_2
_geom_bond_distance
_geom_bond_site_symmetry_2
Os0 Os1 2.778894 1_555
Os0 Os1 2.778894 1_645
Os0 Os1 2.778895 1_656
Os0 Os1 2.778895 1_544
Os0 Os2 2.811553 1_555
Os0 Sc0 2.811553 1_555
Os0 Sc0 2.811553 1_656
Os0 Os2 2.811553 1_656
Os0 Sc0 2.811553 1_655
Os0 Os2 2.811553 1_556
Os0 Sc0 2.811553 1_666
Os0 Os2 2.811553 1_545
Os1 Os2 2.811553 1_556
Os1 Os2 2.811553 1_455
Os1 Sc0 2.811553 1_565
Os1 Sc0 2.811553 1_666
Os1 Sc0 2.811553 1_555
Os1 Os2 2.811553 1_555
Os1 Sc0 2.811553 1_566
Os1 Os2 2.811553 1_566
Os2 Sc0 2.778894 1_565
Os2 Sc0 2.778894 1_655
Os2 Sc0 2.778895 1_666
Os2 Sc0 2.778895 1_554
