# generated using pymatgen
data_Mg7Si2(H3O7)2
_symmetry_space_group_name_H-M   'P 1'
_cell_length_a   7.96814526
_cell_length_b   7.96814526
_cell_length_c   9.66595900
_cell_angle_alpha   90.00000000
_cell_angle_beta   90.00000000
_cell_angle_gamma   119.99999384
_symmetry_Int_Tables_number   1
_chemical_formula_structural   Mg7Si2(H3O7)2
_chemical_formula_sum   'Mg14 Si4 H12 O28'
_cell_volume   531.48387472
_cell_formula_units_Z   2
loop_
 _symmetry_equiv_pos_site_id
 _symmetry_equiv_pos_as_xyz
  1  'x, y, z'
loop_
 _atom_site_type_symbol
 _atom_site_label
 _atom_site_symmetry_multiplicity
 _atom_site_fract_x
 _atom_site_fract_y
 _atom_site_fract_z
 _atom_site_occupancy
  Mg  Mg0  1  0.91655500  0.36936700  0.88764200  1
  Mg  Mg1  1  0.45281200  0.08344500  0.88764200  1
  Mg  Mg2  1  0.63063300  0.54718800  0.88764200  1
  Mg  Mg3  1  0.08344500  0.63063300  0.38764200  1
  Mg  Mg4  1  0.54718800  0.91655500  0.38764200  1
  Mg  Mg5  1  0.36936700  0.45281200  0.38764200  1
  Mg  Mg6  1  0.98164800  0.22568000  0.61292600  1
  Mg  Mg7  1  0.24403300  0.01835200  0.61292600  1
  Mg  Mg8  1  0.77432000  0.75596700  0.61292600  1
  Mg  Mg9  1  0.01835200  0.77432000  0.11292600  1
  Mg  Mg10  1  0.75596700  0.98164800  0.11292600  1
  Mg  Mg11  1  0.22568000  0.24403300  0.11292600  1
  Mg  Mg12  1  0.66666700  0.33333300  0.60202100  1
  Mg  Mg13  1  0.33333300  0.66666700  0.10202100  1
  Si  Si0  1  0.33333300  0.66666700  0.67394400  1
  Si  Si1  1  0.66666700  0.33333300  0.17394400  1
  Si  Si2  1  0.00000000  0.00000000  0.90160700  1
  Si  Si3  1  0.00000000  0.00000000  0.40160700  1
  H  H0  1  0.29269100  0.45673400  0.90487100  1
  H  H1  1  0.16404200  0.70730900  0.90487100  1
  H  H2  1  0.54326600  0.83595800  0.90487100  1
  H  H3  1  0.70730900  0.54326600  0.40487100  1
  H  H4  1  0.83595800  0.29269100  0.40487100  1
  H  H5  1  0.45673400  0.16404200  0.40487100  1
  H  H6  1  0.67796800  0.03425400  0.73891400  1
  H  H7  1  0.35628600  0.32203200  0.73891400  1
  H  H8  1  0.96574600  0.64371400  0.73891400  1
  H  H9  1  0.32203200  0.96574600  0.23891400  1
  H  H10  1  0.64371400  0.67796800  0.23891400  1
  H  H11  1  0.03425400  0.35628600  0.23891400  1
  O  O0  1  0.17237500  0.20001500  0.47685000  1
  O  O1  1  0.02764000  0.82762500  0.47685000  1
  O  O2  1  0.79998500  0.97236000  0.47685000  1
  O  O3  1  0.82762500  0.79998500  0.97685000  1
  O  O4  1  0.97236000  0.17237500  0.97685000  1
  O  O5  1  0.20001500  0.02764000  0.97685000  1
  O  O6  1  0.37890300  0.47587500  0.98368800  1
  O  O7  1  0.09697100  0.62109700  0.98368800  1
  O  O8  1  0.52412500  0.90302900  0.98368800  1
  O  O9  1  0.62109700  0.52412500  0.48368800  1
  O  O10  1  0.90302900  0.37890300  0.48368800  1
  O  O11  1  0.47587500  0.09697100  0.48368800  1
  O  O12  1  0.15963300  0.45406700  0.73245700  1
  O  O13  1  0.29443400  0.84036700  0.73245700  1
  O  O14  1  0.54593300  0.70556600  0.73245700  1
  O  O15  1  0.84036700  0.54593300  0.23245700  1
  O  O16  1  0.70556600  0.15963300  0.23245700  1
  O  O17  1  0.45406700  0.29443400  0.23245700  1
  O  O18  1  0.73800600  0.17513000  0.73865200  1
  O  O19  1  0.43712400  0.26199400  0.73865200  1
  O  O20  1  0.82487000  0.56287600  0.73865200  1
  O  O21  1  0.26199400  0.82487000  0.23865200  1
  O  O22  1  0.56287600  0.73800600  0.23865200  1
  O  O23  1  0.17513000  0.43712400  0.23865200  1
  O  O24  1  0.33333300  0.66666700  0.49984800  1
  O  O25  1  0.66666700  0.33333300  0.99984800  1
  O  O26  1  0.00000000  0.00000000  0.73246900  1
  O  O27  1  0.00000000  0.00000000  0.23246900  1
loop_
_geom_bond_atom_site_label_1
_geom_bond_atom_site_label_2
_geom_bond_distance
_geom_bond_site_symmetry_2
Mg0 O7 2.017005 1_655
Mg0 O4 2.025600 1_555
Mg0 O18 2.071602 1_555
Mg0 O25 2.156780 1_555
Mg0 O12 2.269324 1_655
Mg0 O20 2.472171 1_555
Mg1 O8 2.017000 1_545
Mg1 O5 2.025601 1_555
Mg1 O19 2.071602 1_555
Mg1 O25 2.156783 1_555
Mg1 O13 2.269324 1_545
Mg1 O18 2.472171 1_555
Mg2 O6 2.017007 1_555
Mg2 O3 2.025601 1_555
Mg2 O20 2.071602 1_555
Mg2 O25 2.156787 1_555
Mg2 O14 2.269324 1_555
Mg2 O19 2.472171 1_555
Mg3 O10 2.017005 1_455
Mg3 O1 2.025600 1_555
Mg3 O21 2.071602 1_555
Mg3 O24 2.156780 1_555
Mg3 O15 2.269324 1_455
Mg3 O23 2.472171 1_555
Mg4 O11 2.017000 1_565
Mg4 O2 2.025601 1_555
Mg4 O22 2.071602 1_555
Mg4 O24 2.156783 1_555
Mg4 O16 2.269324 1_565
Mg4 O21 2.472171 1_555
Mg5 O9 2.017007 1_555
Mg5 O0 2.025601 1_555
Mg5 O23 2.071602 1_555
Mg5 O24 2.156787 1_555
Mg5 O17 2.269324 1_555
Mg5 O22 2.472171 1_555
Mg6 O12 2.019180 1_655
Mg6 O10 2.051438 1_555
Mg6 O0 2.095770 1_655
Mg6 O18 2.150831 1_555
Mg6 O26 2.203004 1_655
Mg6 O2 2.231107 1_545
Mg7 O13 2.019175 1_545
Mg7 O11 2.051438 1_555
Mg7 O1 2.095773 1_545
Mg7 O19 2.150829 1_555
Mg7 O26 2.203011 1_555
Mg7 O0 2.231111 1_555
Mg8 O14 2.019182 1_555
Mg8 O9 2.051438 1_555
Mg8 O2 2.095776 1_555
Mg8 O20 2.150824 1_555
Mg8 O26 2.203008 1_665
Mg8 O1 2.231105 1_655
Mg9 O15 2.019180 1_455
Mg9 O7 2.051438 1_554
Mg9 O3 2.095770 1_454
Mg9 O21 2.150831 1_555
Mg9 O27 2.203004 1_565
Mg9 O5 2.231107 1_564
Mg10 O16 2.019175 1_565
Mg10 O8 2.051438 1_554
Mg10 O4 2.095773 1_564
Mg10 O22 2.150829 1_555
Mg10 O27 2.203011 1_665
Mg10 O3 2.231111 1_554
Mg11 O17 2.019182 1_555
Mg11 O6 2.051438 1_554
Mg11 O5 2.095776 1_554
Mg11 O23 2.150824 1_555
Mg11 O27 2.203008 1_555
Mg11 O4 2.231105 1_454
Mg12 O9 2.074448 1_555
Mg12 O10 2.074448 1_555
Mg12 O11 2.074448 1_555
Mg12 O18 2.091155 1_555
Mg12 O20 2.091160 1_555
Mg12 O19 2.091161 1_555
Mg13 O6 2.074448 1_554
Mg13 O7 2.074448 1_554
Mg13 O8 2.074448 1_554
Mg13 O21 2.091155 1_555
Mg13 O23 2.091160 1_555
Mg13 O22 2.091161 1_555
H0 O6 0.985288 1_555
H1 O7 0.985288 1_555
H2 O8 0.985288 1_555
H3 O9 0.985288 1_555
H4 O10 0.985288 1_555
H5 O11 0.985288 1_555
H6 O18 0.975660 1_555
H7 O19 0.975660 1_555
H8 O20 0.975660 1_555
H9 O21 0.975660 1_555
H10 O22 0.975660 1_555
H11 O23 0.975660 1_555
O0 Si3 1.663278 1_555
O1 Si3 1.663278 1_565
O2 Si3 1.663278 1_665
O3 Si2 1.663278 1_665
O4 Si2 1.663278 1_655
O5 Si2 1.663278 1_555
O12 Si0 1.661508 1_555
O13 Si0 1.661503 1_555
O14 Si0 1.661511 1_555
O15 Si1 1.661508 1_555
O16 Si1 1.661503 1_555
O17 Si1 1.661511 1_555
O24 Si0 1.682805 1_555
O25 Si1 1.682805 1_556
O26 Si2 1.634881 1_555
O27 Si3 1.634881 1_555
