# generated using pymatgen
data_TbCu5
_symmetry_space_group_name_H-M   'P 1'
_cell_length_a   4.92569368
_cell_length_b   4.92569368
_cell_length_c   4.92569368
_cell_angle_alpha   60.00000000
_cell_angle_beta   60.00000000
_cell_angle_gamma   60.00000000
_symmetry_Int_Tables_number   1
_chemical_formula_structural   TbCu5
_chemical_formula_sum   'Tb1 Cu5'
_cell_volume   84.50593320
_cell_formula_units_Z   1
loop_
 _symmetry_equiv_pos_site_id
 _symmetry_equiv_pos_as_xyz
  1  'x, y, z'
loop_
 _atom_site_type_symbol
 _atom_site_label
 _atom_site_symmetry_multiplicity
 _atom_site_fract_x
 _atom_site_fract_y
 _atom_site_fract_z
 _atom_site_occupancy
  Tb  Tb0  1  0.00000000  0.00000000  0.00000000  1
  Cu  Cu0  1  0.75000000  0.75000000  0.75000000  1
  Cu  Cu1  1  0.87131664  0.37622679  0.37622679  1
  Cu  Cu2  1  0.37622679  0.87131664  0.37622679  1
  Cu  Cu3  1  0.37622679  0.37622679  0.87131664  1
  Cu  Cu4  1  0.37622679  0.37622679  0.37622679  1
loop_
_geom_bond_atom_site_label_1
_geom_bond_atom_site_label_2
_geom_bond_distance
_geom_bond_site_symmetry_2
Cu0 Cu3 2.885398 1_565
Cu0 Cu1 2.885398 1_556
Cu0 Cu3 2.885398 1_655
Cu0 Cu2 2.885398 1_556
Cu0 Cu1 2.885398 1_565
Cu0 Cu2 2.885398 1_655
Cu0 Cu4 2.885404 1_556
Cu0 Cu4 2.885404 1_655
Cu0 Cu4 2.885404 1_565
Cu0 Cu1 2.885410 1_555
Cu0 Cu2 2.885410 1_555
Cu0 Cu3 2.885410 1_555
Cu0 Tb0 3.016359 1_566
Cu0 Tb0 3.016359 1_666
Cu0 Tb0 3.016359 1_665
Cu0 Tb0 3.016359 1_656
Cu1 Cu3 2.438661 1_555
Cu1 Cu4 2.438661 1_555
Cu1 Cu2 2.438661 1_555
Cu1 Cu2 2.487033 1_645
Cu1 Cu3 2.487033 1_654
Cu1 Cu4 2.487033 1_655
Cu1 Tb0 2.890551 1_655
Cu1 Tb0 2.890564 1_656
Cu1 Tb0 2.890564 1_665
Cu2 Cu3 2.438661 1_555
Cu2 Cu4 2.438661 1_555
Cu2 Cu3 2.487033 1_564
Cu2 Cu4 2.487033 1_565
Cu2 Tb0 2.890551 1_565
Cu2 Tb0 2.890564 1_665
Cu2 Tb0 2.890564 1_566
Cu3 Cu4 2.438661 1_555
Cu3 Cu4 2.487033 1_556
Cu3 Tb0 2.890551 1_556
Cu3 Tb0 2.890564 1_566
Cu3 Tb0 2.890564 1_656
Cu4 Tb0 2.890557 1_655
Cu4 Tb0 2.890557 1_565
Cu4 Tb0 2.890557 1_556
