# generated using pymatgen
data_YbSeF
_symmetry_space_group_name_H-M   'P 1'
_cell_length_a   4.02316467
_cell_length_b   4.02316467
_cell_length_c   19.78343500
_cell_angle_alpha   90.00000000
_cell_angle_beta   90.00000000
_cell_angle_gamma   120.00001100
_symmetry_Int_Tables_number   1
_chemical_formula_structural   YbSeF
_chemical_formula_sum   'Yb4 Se4 F4'
_cell_volume   277.31151365
_cell_formula_units_Z   4
loop_
 _symmetry_equiv_pos_site_id
 _symmetry_equiv_pos_as_xyz
  1  'x, y, z'
loop_
 _atom_site_type_symbol
 _atom_site_label
 _atom_site_symmetry_multiplicity
 _atom_site_fract_x
 _atom_site_fract_y
 _atom_site_fract_z
 _atom_site_occupancy
  Yb  Yb0  1  0.33333300  0.66666700  0.25000000  1
  Yb  Yb1  1  0.66666700  0.33333300  0.75000000  1
  Yb  Yb2  1  0.00000000  0.00000000  0.00000000  1
  Yb  Yb3  1  0.00000000  0.00000000  0.50000000  1
  Se  Se0  1  0.33333300  0.66666700  0.08391900  1
  Se  Se1  1  0.66666700  0.33333300  0.91608100  1
  Se  Se2  1  0.66666700  0.33333300  0.58391900  1
  Se  Se3  1  0.33333300  0.66666700  0.41608100  1
  F  F0  1  0.33333300  0.66666700  0.75000000  1
  F  F1  1  0.66666700  0.33333300  0.25000000  1
  F  F2  1  0.00000000  0.00000000  0.25000000  1
  F  F3  1  0.00000000  0.00000000  0.75000000  1
loop_
_geom_bond_atom_site_label_1
_geom_bond_atom_site_label_2
_geom_bond_distance
_geom_bond_site_symmetry_2
Se0 Yb2 2.855093 1_565
Se0 Yb2 2.855096 1_665
Se0 Yb2 2.855096 1_555
Se0 Yb0 3.285653 1_555
Se1 Yb2 2.855093 1_656
Se1 Yb2 2.855096 1_556
Se1 Yb2 2.855096 1_666
Se1 Yb1 3.285653 1_555
Se2 Yb3 2.855093 1_655
Se2 Yb3 2.855096 1_665
Se2 Yb3 2.855096 1_555
Se2 Yb1 3.285653 1_555
Se3 Yb3 2.855093 1_565
Se3 Yb3 2.855096 1_665
Se3 Yb3 2.855096 1_555
Se3 Yb0 3.285653 1_555
F0 Yb1 2.322773 1_455
F0 Yb1 2.322773 1_565
F0 Yb1 2.322780 1_555
F1 Yb0 2.322773 1_655
F1 Yb0 2.322773 1_545
F1 Yb0 2.322780 1_555
F2 Yb0 2.322773 1_545
F2 Yb0 2.322776 1_555
F2 Yb0 2.322776 1_445
F3 Yb1 2.322773 1_455
F3 Yb1 2.322776 1_555
F3 Yb1 2.322776 1_445
