# generated using pymatgen
data_LiH7(SO4)4
_symmetry_space_group_name_H-M   'P 1'
_cell_length_a   5.06767527
_cell_length_b   7.33441900
_cell_length_c   8.81570715
_cell_angle_alpha   81.85157420
_cell_angle_beta   87.15683483
_cell_angle_gamma   80.99925350
_symmetry_Int_Tables_number   1
_chemical_formula_structural   LiH7(SO4)4
_chemical_formula_sum   'Li1 H7 S4 O16'
_cell_volume   320.23802629
_cell_formula_units_Z   1
loop_
 _symmetry_equiv_pos_site_id
 _symmetry_equiv_pos_as_xyz
  1  'x, y, z'
loop_
 _atom_site_type_symbol
 _atom_site_label
 _atom_site_symmetry_multiplicity
 _atom_site_fract_x
 _atom_site_fract_y
 _atom_site_fract_z
 _atom_site_occupancy
  Li  Li0  1  0.49923100  0.50261400  0.51436600  1
  H  H0  1  0.81031200  0.07165800  0.82424600  1
  H  H1  1  0.18469700  0.92023500  0.16972100  1
  H  H2  1  0.05864800  0.57918700  0.76706600  1
  H  H3  1  0.92898200  0.42429300  0.23912600  1
  H  H4  1  0.63168100  0.97703200  0.32343500  1
  H  H5  1  0.37206200  0.01751400  0.67958700  1
  H  H6  1  0.47183400  0.47822800  0.00381700  1
  S  S0  1  0.97026400  0.75842100  0.33713900  1
  S  S1  1  0.03256500  0.23730000  0.66303200  1
  S  S2  1  0.66867000  0.72352900  0.81595900  1
  S  S3  1  0.31493500  0.27439100  0.18809100  1
  O  O0  1  0.19562400  0.71717600  0.43556700  1
  O  O1  1  0.81000700  0.28180000  0.56216900  1
  O  O2  1  0.98359000  0.69084000  0.81802500  1
  O  O3  1  0.00311800  0.30957300  0.18974900  1
  O  O4  1  0.60243000  0.93062700  0.79491900  1
  O  O5  1  0.38498100  0.07037100  0.20651400  1
  O  O6  1  0.81330900  0.61156000  0.32444900  1
  O  O7  1  0.18720800  0.38444600  0.67974500  1
  O  O8  1  0.58607400  0.63911100  0.69057500  1
  O  O9  1  0.41322500  0.36835900  0.30150000  1
  O  O10  1  0.78701100  0.92691100  0.39358300  1
  O  O11  1  0.21886700  0.07133600  0.60594300  1
  O  O12  1  0.57096200  0.64707200  0.96843200  1
  O  O13  1  0.40400800  0.34421800  0.02552200  1
  O  O14  1  0.05673100  0.82740300  0.16885200  1
  O  O15  1  0.93897300  0.16479500  0.82887100  1
loop_
_geom_bond_atom_site_label_1
_geom_bond_atom_site_label_2
_geom_bond_distance
_geom_bond_site_symmetry_2
Li0 O8 2.062895 1_555
Li0 O1 2.086898 1_555
Li0 O0 2.089218 1_555
Li0 O7 2.284498 1_555
Li0 O9 2.328153 1_555
Li0 O6 2.393593 1_555
H0 O15 1.021425 1_555
H0 O4 1.640241 1_545
H1 O14 1.012080 1_555
H1 O5 1.682721 1_565
H2 O2 1.003485 1_455
H2 O7 1.740081 1_555
H3 O3 1.013549 1_655
H3 O6 1.671254 1_555
H4 O10 1.015131 1_555
H4 O5 1.659544 1_565
H5 O11 1.030286 1_555
H5 O4 1.582417 1_545
H6 O13 1.080134 1_555
H6 O12 1.397436 1_554
O0 S0 1.436843 1_455
O1 S1 1.439185 1_655
O2 S2 1.576919 1_555
O3 S3 1.560444 1_555
O4 S2 1.490318 1_555
O5 S3 1.470417 1_555
O6 S0 1.454807 1_555
O7 S1 1.456629 1_555
O8 S2 1.449602 1_555
O9 S3 1.440420 1_555
O10 S0 1.551306 1_555
O11 S1 1.547024 1_555
O12 S2 1.474305 1_555
O13 S3 1.523182 1_555
O14 S0 1.562390 1_455
O15 S1 1.560415 1_655
