# generated using pymatgen
data_LaVH2I4O15
_symmetry_space_group_name_H-M   'P 1'
_cell_length_a   14.28386500
_cell_length_b   7.25407500
_cell_length_c   7.35905674
_cell_angle_alpha   64.51842892
_cell_angle_beta   90.00000000
_cell_angle_gamma   90.00000000
_symmetry_Int_Tables_number   1
_chemical_formula_structural   LaVH2I4O15
_chemical_formula_sum   'La2 V2 H4 I8 O30'
_cell_volume   688.34280777
_cell_formula_units_Z   2
loop_
 _symmetry_equiv_pos_site_id
 _symmetry_equiv_pos_as_xyz
  1  'x, y, z'
loop_
 _atom_site_type_symbol
 _atom_site_label
 _atom_site_symmetry_multiplicity
 _atom_site_fract_x
 _atom_site_fract_y
 _atom_site_fract_z
 _atom_site_occupancy
  La  La0  1  0.74384500  0.08536500  0.56908500  1
  La  La1  1  0.24384500  0.91463500  0.43091500  1
  V  V0  1  0.57162100  0.57090700  0.21646000  1
  V  V1  1  0.07162100  0.42909300  0.78354000  1
  H  H0  1  0.94325900  0.83015700  0.37514600  1
  H  H1  1  0.44325900  0.16984300  0.62485400  1
  H  H2  1  0.03069900  0.77058600  0.28529900  1
  H  H3  1  0.53069900  0.22941400  0.71470100  1
  I  I0  1  0.61010900  0.14575300  0.07070100  1
  I  I1  1  0.11010900  0.85424700  0.92929900  1
  I  I2  1  0.49784700  0.74896400  0.69771200  1
  I  I3  1  0.99784700  0.25103600  0.30228800  1
  I  I4  1  0.83507700  0.47450800  0.76627700  1
  I  I5  1  0.33507700  0.52549200  0.23372300  1
  I  I6  1  0.80137000  0.74434800  0.13275400  1
  I  I7  1  0.30137000  0.25565200  0.86724600  1
  O  O0  1  0.65392800  0.19906500  0.81926900  1
  O  O1  1  0.15392800  0.80093500  0.18073100  1
  O  O2  1  0.71978700  0.08901300  0.21324300  1
  O  O3  1  0.21978700  0.91098700  0.78675700  1
  O  O4  1  0.59134200  0.41634300  0.00959400  1
  O  O5  1  0.09134200  0.58365700  0.99040600  1
  O  O6  1  0.58932300  0.94011700  0.58415600  1
  O  O7  1  0.08932300  0.05988300  0.41584400  1
  O  O8  1  0.49323700  0.75729300  0.94535800  1
  O  O9  1  0.99323700  0.24270700  0.05464200  1
  O  O10  1  0.89916800  0.08030900  0.41804500  1
  O  O11  1  0.39916800  0.91969100  0.58195500  1
  O  O12  1  0.77138700  0.71237000  0.64361000  1
  O  O13  1  0.27138700  0.28763000  0.35639000  1
  O  O14  1  0.95416100  0.59219700  0.71775400  1
  O  O15  1  0.45416100  0.40780300  0.28224600  1
  O  O16  1  0.82916800  0.39184200  0.56330300  1
  O  O17  1  0.32916800  0.60815800  0.43669700  1
  O  O18  1  0.84376700  0.52111600  0.10413900  1
  O  O19  1  0.34376700  0.47888400  0.89586100  1
  O  O20  1  0.67613100  0.74887700  0.04879400  1
  O  O21  1  0.17613100  0.25112300  0.95120600  1
  O  O22  1  0.83723600  0.94933900  0.89462600  1
  O  O23  1  0.33723600  0.05066100  0.10537400  1
  O  O24  1  0.64140100  0.38719000  0.38349500  1
  O  O25  1  0.14140100  0.61281000  0.61650500  1
  O  O26  1  0.54183800  0.72300100  0.32386600  1
  O  O27  1  0.04183800  0.27699900  0.67613400  1
  O  O28  1  0.96157800  0.76471900  0.28790300  1
  O  O29  1  0.46157800  0.23528100  0.71209700  1
loop_
_geom_bond_atom_site_label_1
_geom_bond_atom_site_label_2
_geom_bond_distance
_geom_bond_site_symmetry_2
La0 O6 2.427656 1_545
La0 O10 2.488800 1_555
La0 O24 2.495460 1_555
La0 O16 2.519603 1_555
La0 O22 2.541343 1_545
La0 O12 2.549455 1_545
La0 O2 2.629934 1_555
La0 O0 2.650696 1_555
La1 O7 2.427656 1_565
La1 O11 2.488800 1_555
La1 O25 2.495460 1_555
La1 O17 2.519603 1_555
La1 O23 2.541343 1_565
La1 O13 2.549455 1_565
La1 O3 2.629934 1_555
La1 O1 2.650696 1_555
H0 O28 0.983988 1_555
H1 O29 0.983988 1_555
H2 O28 0.988063 1_455
H3 O29 0.988063 1_555
I0 O0 1.830091 1_554
I0 O2 1.831004 1_555
I0 O4 1.835069 1_555
I1 O1 1.830091 1_556
I1 O3 1.831004 1_555
I1 O5 1.835069 1_555
I2 O6 1.825195 1_555
I2 O11 1.827140 1_555
I2 O8 1.850411 1_555
I3 O7 1.825195 1_655
I3 O10 1.827140 1_555
I3 O9 1.850411 1_555
I4 O12 1.810948 1_555
I4 O16 1.835366 1_555
I4 O14 1.867453 1_555
I5 O13 1.810948 1_555
I5 O17 1.835366 1_555
I5 O15 1.867453 1_555
I6 O22 1.817251 1_554
I6 O18 1.823942 1_555
I6 O20 1.888260 1_555
I6 O28 2.589851 1_555
I7 O23 1.817251 1_556
I7 O19 1.823942 1_555
I7 O21 1.888260 1_555
I7 O29 2.589851 1_555
O4 V0 2.263330 1_555
O5 V1 2.263330 1_555
O8 V0 2.177358 1_556
O9 V1 2.177358 1_654
O14 V1 1.989060 1_655
O15 V0 1.989060 1_555
O20 V0 2.011709 1_555
O21 V1 2.011709 1_555
O24 V0 1.694395 1_555
O25 V1 1.694395 1_555
O26 V0 1.665338 1_555
O27 V1 1.665338 1_555
