# generated using pymatgen
data_La2CuIrO6
_symmetry_space_group_name_H-M   'P 1'
_cell_length_a   5.91655800
_cell_length_b   5.56680900
_cell_length_c   9.54031249
_cell_angle_alpha   54.67117344
_cell_angle_beta   90.00000000
_cell_angle_gamma   90.00000000
_symmetry_Int_Tables_number   1
_chemical_formula_structural   La2CuIrO6
_chemical_formula_sum   'La4 Cu2 Ir2 O12'
_cell_volume   256.35786044
_cell_formula_units_Z   2
loop_
 _symmetry_equiv_pos_site_id
 _symmetry_equiv_pos_as_xyz
  1  'x, y, z'
loop_
 _atom_site_type_symbol
 _atom_site_label
 _atom_site_symmetry_multiplicity
 _atom_site_fract_x
 _atom_site_fract_y
 _atom_site_fract_z
 _atom_site_occupancy
  La  La0  1  0.06687500  0.73272300  0.75020200  1
  La  La1  1  0.93312500  0.26727700  0.24979800  1
  La  La2  1  0.56687500  0.26727700  0.74979800  1
  La  La3  1  0.43312500  0.73272300  0.25020200  1
  Cu  Cu0  1  0.50000000  0.50000000  0.00000000  1
  Cu  Cu1  1  0.00000000  0.50000000  0.50000000  1
  Ir  Ir0  1  0.50000000  0.00000000  0.50000000  1
  Ir  Ir1  1  0.00000000  0.00000000  0.00000000  1
  O  O0  1  0.46990300  0.84797700  0.75095300  1
  O  O1  1  0.53009700  0.15202300  0.24904700  1
  O  O2  1  0.96990300  0.15202300  0.74904700  1
  O  O3  1  0.03009700  0.84797700  0.25095300  1
  O  O4  1  0.78701700  0.76320100  0.55536800  1
  O  O5  1  0.21298300  0.23679900  0.44463200  1
  O  O6  1  0.28701700  0.23679900  0.94463200  1
  O  O7  1  0.71298300  0.76320100  0.05536800  1
  O  O8  1  0.31086300  0.65331000  0.54846000  1
  O  O9  1  0.68913700  0.34669000  0.45154000  1
  O  O10  1  0.81086300  0.34669000  0.95154000  1
  O  O11  1  0.18913700  0.65331000  0.04846000  1
loop_
_geom_bond_atom_site_label_1
_geom_bond_atom_site_label_2
_geom_bond_distance
_geom_bond_site_symmetry_2
La0 O2 2.397472 1_465
La0 O10 2.414135 1_455
La0 O4 2.420901 1_455
La0 O0 2.470433 1_555
La0 O6 2.614617 1_555
La0 O8 2.639654 1_555
La0 O11 2.713041 1_556
La0 O5 2.767505 1_565
La1 O3 2.397472 1_645
La1 O11 2.414135 1_655
La1 O5 2.420901 1_655
La1 O1 2.470433 1_555
La1 O7 2.614617 1_555
La1 O9 2.639654 1_555
La1 O10 2.713041 1_554
La1 O4 2.767505 1_545
La2 O0 2.397472 1_545
La2 O8 2.414135 1_555
La2 O6 2.420901 1_555
La2 O2 2.470433 1_555
La2 O4 2.614617 1_555
La2 O10 2.639654 1_555
La2 O9 2.713041 1_555
La2 O7 2.767505 1_546
La3 O1 2.397472 1_565
La3 O9 2.414135 1_555
La3 O7 2.420901 1_555
La3 O3 2.470433 1_555
La3 O5 2.614617 1_555
La3 O11 2.639654 1_555
La3 O8 2.713041 1_555
La3 O6 2.767505 1_564
Cu0 O1 2.026429 1_555
Cu0 O0 2.026429 1_554
Cu0 O11 2.186607 1_555
Cu0 O10 2.186607 1_554
Cu0 O6 2.215588 1_554
Cu0 O7 2.215588 1_555
Cu1 O3 2.026429 1_555
Cu1 O2 2.026429 1_455
Cu1 O8 2.186607 1_555
Cu1 O9 2.186607 1_455
Cu1 O5 2.215588 1_555
Cu1 O4 2.215588 1_455
Ir0 O5 2.023640 1_555
Ir0 O4 2.023640 1_545
Ir0 O1 2.033874 1_555
Ir0 O0 2.033874 1_545
Ir0 O9 2.039311 1_555
Ir0 O8 2.039311 1_545
Ir1 O7 2.023640 1_445
Ir1 O6 2.023640 1_554
Ir1 O3 2.033874 1_545
Ir1 O2 2.033874 1_454
Ir1 O10 2.039311 1_454
Ir1 O11 2.039311 1_545
