# generated using pymatgen
data_MgFeSiO4
_symmetry_space_group_name_H-M   'P 1'
_cell_length_a   4.81819900
_cell_length_b   6.14530700
_cell_length_c   10.51627800
_cell_angle_alpha   90.00009565
_cell_angle_beta   89.99988606
_cell_angle_gamma   89.99978109
_symmetry_Int_Tables_number   1
_chemical_formula_structural   MgFeSiO4
_chemical_formula_sum   'Mg4 Fe4 Si4 O16'
_cell_volume   311.37975682
_cell_formula_units_Z   4
loop_
 _symmetry_equiv_pos_site_id
 _symmetry_equiv_pos_as_xyz
  1  'x, y, z'
loop_
 _atom_site_type_symbol
 _atom_site_label
 _atom_site_symmetry_multiplicity
 _atom_site_fract_x
 _atom_site_fract_y
 _atom_site_fract_z
 _atom_site_occupancy
  Mg  Mg0  1  0.49999700  0.99999900  0.50000000  1
  Mg  Mg1  1  0.99999700  0.50000100  0.99999900  1
  Mg  Mg2  1  0.49999700  0.50000100  0.49999800  1
  Mg  Mg3  1  0.99999900  0.99999800  0.99999900  1
  Fe  Fe0  1  0.51205600  0.24999400  0.77826700  1
  Fe  Fe1  1  0.98799700  0.25001100  0.27824000  1
  Fe  Fe2  1  0.48797200  0.74999000  0.22176600  1
  Fe  Fe3  1  0.01203500  0.75000800  0.72175100  1
  Si  Si0  1  0.92693600  0.74999800  0.40652200  1
  Si  Si1  1  0.57305900  0.74999700  0.90652200  1
  Si  Si2  1  0.07306000  0.24999600  0.59348000  1
  Si  Si3  1  0.42693500  0.24999900  0.09348000  1
  O  O0  1  0.26547500  0.75000000  0.41293200  1
  O  O1  1  0.23452000  0.75000000  0.91293200  1
  O  O2  1  0.73451800  0.25000100  0.58706700  1
  O  O3  1  0.76547600  0.24999900  0.08706700  1
  O  O4  1  0.72755100  0.75000000  0.04909200  1
  O  O5  1  0.77244300  0.75000000  0.54909200  1
  O  O6  1  0.27244800  0.24999900  0.95090400  1
  O  O7  1  0.22754700  0.25000100  0.45090400  1
  O  O8  1  0.78253900  0.96517200  0.33797200  1
  O  O9  1  0.71745300  0.53483000  0.83797300  1
  O  O10  1  0.21746500  0.46517300  0.66202500  1
  O  O11  1  0.28253200  0.03483100  0.16202300  1
  O  O12  1  0.21745100  0.03481700  0.66202200  1
  O  O13  1  0.28254300  0.46518600  0.16202300  1
  O  O14  1  0.78255300  0.53481400  0.33797500  1
  O  O15  1  0.71744400  0.96518900  0.83797200  1
loop_
_geom_bond_atom_site_label_1
_geom_bond_atom_site_label_2
_geom_bond_distance
_geom_bond_site_symmetry_2
Mg0 O5 2.085660 1_555
Mg0 O7 2.085697 1_565
Mg0 O0 2.115541 1_555
Mg0 O2 2.115548 1_565
Mg0 O12 2.191403 1_565
Mg0 O8 2.191445 1_555
Mg1 O4 2.085660 1_556
Mg1 O6 2.085694 1_655
Mg1 O1 2.115540 1_655
Mg1 O3 2.115552 1_556
Mg1 O13 2.191422 1_656
Mg1 O9 2.191441 1_555
Mg2 O5 2.085672 1_555
Mg2 O7 2.085688 1_555
Mg2 O0 2.115528 1_555
Mg2 O2 2.115544 1_555
Mg2 O10 2.191409 1_555
Mg2 O14 2.191439 1_555
Mg3 O4 2.085671 1_556
Mg3 O6 2.085692 1_665
Mg3 O1 2.115521 1_655
Mg3 O3 2.115545 1_566
Mg3 O11 2.191394 1_666
Mg3 O15 2.191470 1_555
Fe0 O15 2.106366 1_545
Fe0 O9 2.106552 1_555
Fe0 O6 2.151476 1_555
Fe0 O2 2.278564 1_555
Fe0 O10 2.292950 1_555
Fe0 O12 2.293005 1_555
Fe1 O14 2.106574 1_555
Fe1 O8 2.106788 1_545
Fe1 O7 2.151570 1_655
Fe1 O3 2.278451 1_555
Fe1 O11 2.292641 1_655
Fe1 O13 2.292664 1_655
Fe2 O13 2.106577 1_555
Fe2 O11 2.106787 1_565
Fe2 O4 2.151729 1_555
Fe2 O0 2.278328 1_555
Fe2 O8 2.292691 1_555
Fe2 O14 2.292724 1_555
Fe3 O12 2.106530 1_565
Fe3 O10 2.106677 1_555
Fe3 O5 2.151634 1_455
Fe3 O1 2.278443 1_555
Fe3 O9 2.292810 1_455
Fe3 O15 2.292834 1_455
O0 Si0 1.632541 1_455
O1 Si1 1.632540 1_555
O2 Si2 1.632556 1_655
O3 Si3 1.632551 1_555
O4 Si1 1.673922 1_554
O5 Si0 1.673921 1_555
O6 Si3 1.673967 1_556
O7 Si2 1.673965 1_555
O8 Si0 1.658985 1_555
O9 Si1 1.658937 1_555
O10 Si2 1.658995 1_555
O11 Si3 1.658939 1_555
O12 Si2 1.658961 1_555
O13 Si3 1.659004 1_555
O14 Si0 1.658994 1_555
O15 Si1 1.659052 1_555
