# generated using pymatgen
data_CsHo2Cu3Se5
_symmetry_space_group_name_H-M   'P 1'
_cell_length_a   7.62723441
_cell_length_b   7.62723441
_cell_length_c   17.35813700
_cell_angle_alpha   90.00000000
_cell_angle_beta   90.00000000
_cell_angle_gamma   148.39987928
_symmetry_Int_Tables_number   1
_chemical_formula_structural   CsHo2Cu3Se5
_chemical_formula_sum   'Cs2 Ho4 Cu6 Se10'
_cell_volume   529.12513485
_cell_formula_units_Z   2
loop_
 _symmetry_equiv_pos_site_id
 _symmetry_equiv_pos_as_xyz
  1  'x, y, z'
loop_
 _atom_site_type_symbol
 _atom_site_label
 _atom_site_symmetry_multiplicity
 _atom_site_fract_x
 _atom_site_fract_y
 _atom_site_fract_z
 _atom_site_occupancy
  Cs  Cs0  1  0.06110800  0.93889200  0.25000000  1
  Cs  Cs1  1  0.93889200  0.06110800  0.75000000  1
  Ho  Ho0  1  0.80730700  0.19269300  0.09104900  1
  Ho  Ho1  1  0.19269300  0.80730700  0.90895100  1
  Ho  Ho2  1  0.80730700  0.19269300  0.40895100  1
  Ho  Ho3  1  0.19269300  0.80730700  0.59104900  1
  Cu  Cu0  1  0.34323100  0.65676900  0.25000000  1
  Cu  Cu1  1  0.65676900  0.34323100  0.75000000  1
  Cu  Cu2  1  0.58287500  0.41712500  0.46747300  1
  Cu  Cu3  1  0.41712500  0.58287500  0.53252700  1
  Cu  Cu4  1  0.58287500  0.41712500  0.03252700  1
  Cu  Cu5  1  0.41712500  0.58287500  0.96747300  1
  Se  Se0  1  0.76282900  0.23717100  0.25000000  1
  Se  Se1  1  0.23717100  0.76282900  0.75000000  1
  Se  Se2  1  0.56195400  0.43804600  0.88854600  1
  Se  Se3  1  0.43804600  0.56195400  0.11145400  1
  Se  Se4  1  0.56195400  0.43804600  0.61145400  1
  Se  Se5  1  0.43804600  0.56195400  0.38854600  1
  Se  Se6  1  0.83069500  0.16930500  0.92967300  1
  Se  Se7  1  0.16930500  0.83069500  0.07032700  1
  Se  Se8  1  0.83069500  0.16930500  0.57032700  1
  Se  Se9  1  0.16930500  0.83069500  0.42967300  1
loop_
_geom_bond_atom_site_label_1
_geom_bond_atom_site_label_2
_geom_bond_distance
_geom_bond_site_symmetry_2
Cs0 Se9 3.499856 1_555
Cs0 Se7 3.499856 1_555
Cs0 Se0 3.616593 1_455
Cs0 Se0 3.616593 1_565
Cs0 Se5 3.655029 1_455
Cs0 Se3 3.655029 1_455
Cs0 Se3 3.655029 1_565
Cs0 Se5 3.655029 1_565
Cs0 Cu0 3.813170 1_565
Cs0 Cu0 3.813170 1_455
Cs1 Se8 3.499856 1_555
Cs1 Se6 3.499856 1_555
Cs1 Se1 3.616593 1_545
Cs1 Se1 3.616593 1_655
Cs1 Se2 3.655029 1_545
Cs1 Se2 3.655029 1_655
Cs1 Se4 3.655029 1_545
Cs1 Se4 3.655029 1_655
Cs1 Cu1 3.813170 1_655
Cs1 Cu1 3.813170 1_545
Ho0 Se6 2.822144 1_554
Ho0 Se0 2.835280 1_555
Ho0 Se3 2.849724 1_655
Ho0 Se3 2.849724 1_545
Ho0 Se7 2.923248 1_655
Ho0 Se7 2.923248 1_545
Ho1 Se7 2.822144 1_556
Ho1 Se1 2.835280 1_555
Ho1 Se2 2.849724 1_565
Ho1 Se2 2.849724 1_455
Ho1 Se6 2.923248 1_565
Ho1 Se6 2.923248 1_455
Ho2 Se8 2.822144 1_555
Ho2 Se0 2.835280 1_555
Ho2 Se5 2.849724 1_655
Ho2 Se5 2.849724 1_545
Ho2 Se9 2.923248 1_655
Ho2 Se9 2.923248 1_545
Ho3 Se9 2.822144 1_555
Ho3 Se1 2.835280 1_555
Ho3 Se4 2.849724 1_565
Ho3 Se4 2.849724 1_455
Ho3 Se8 2.923248 1_565
Ho3 Se8 2.923248 1_455
Cu0 Se0 2.388652 1_455
Cu0 Se0 2.388652 1_565
Cu0 Se5 2.778559 1_555
Cu0 Se3 2.778559 1_555
Cu1 Se1 2.388652 1_545
Cu1 Se1 2.388652 1_655
Cu1 Se2 2.778559 1_555
Cu1 Se4 2.778559 1_555
Cu2 Se4 2.518037 1_555
Cu2 Se9 2.520484 1_545
Cu2 Se9 2.520484 1_655
Cu2 Se5 2.529045 1_555
Cu3 Se5 2.518037 1_555
Cu3 Se8 2.520484 1_455
Cu3 Se8 2.520484 1_565
Cu3 Se4 2.529045 1_555
Cu4 Se2 2.518037 1_554
Cu4 Se7 2.520484 1_545
Cu4 Se7 2.520484 1_655
Cu4 Se3 2.529045 1_555
Cu5 Se3 2.518037 1_556
Cu5 Se6 2.520484 1_455
Cu5 Se6 2.520484 1_565
Cu5 Se2 2.529045 1_555
