# generated using pymatgen
data_KAlSiO4
_symmetry_space_group_name_H-M   'P 1'
_cell_length_a   5.21854395
_cell_length_b   5.23984270
_cell_length_c   8.84935958
_cell_angle_alpha   90.63551512
_cell_angle_beta   89.60867328
_cell_angle_gamma   119.78880192
_symmetry_Int_Tables_number   1
_chemical_formula_structural   KAlSiO4
_chemical_formula_sum   'K2 Al2 Si2 O8'
_cell_volume   209.99220576
_cell_formula_units_Z   2
loop_
 _symmetry_equiv_pos_site_id
 _symmetry_equiv_pos_as_xyz
  1  'x, y, z'
loop_
 _atom_site_type_symbol
 _atom_site_label
 _atom_site_symmetry_multiplicity
 _atom_site_fract_x
 _atom_site_fract_y
 _atom_site_fract_z
 _atom_site_occupancy
  K  K0  1  0.00312600  0.00259300  0.25891900  1
  K  K1  1  0.00193700  0.99946200  0.75905000  1
  Al  Al0  1  0.33967900  0.67043600  0.45319300  1
  Al  Al1  1  0.67481000  0.33643300  0.95307100  1
  Si  Si0  1  0.34122800  0.67196300  0.07118400  1
  Si  Si1  1  0.67303000  0.33518900  0.57081500  1
  O  O0  1  0.60527700  0.98588200  0.00739500  1
  O  O1  1  0.01642500  0.61888300  0.02025500  1
  O  O2  1  0.38840500  0.40111500  0.01109400  1
  O  O3  1  0.40002900  0.01522600  0.51768500  1
  O  O4  1  0.98681500  0.38347200  0.50294900  1
  O  O5  1  0.61821300  0.60294800  0.51824900  1
  O  O6  1  0.35696600  0.68466900  0.25530900  1
  O  O7  1  0.69115700  0.34112900  0.75543300  1
loop_
_geom_bond_atom_site_label_1
_geom_bond_atom_site_label_2
_geom_bond_distance
_geom_bond_site_symmetry_2
K0 O1 2.924096 1_545
K0 O6 2.926684 1_445
K0 O4 2.953710 1_455
K0 O2 3.013699 1_555
K0 O0 3.025014 1_445
K0 O6 3.039779 1_545
K0 O3 3.076261 1_555
K0 O5 3.090427 1_445
K0 O6 3.102970 1_555
K1 O3 2.942387 1_565
K1 O5 2.948508 1_455
K1 O7 2.953534 1_465
K1 O0 2.985757 1_456
K1 O7 2.995037 1_455
K1 O2 3.035048 1_566
K1 O4 3.074510 1_465
K1 O1 3.095144 1_556
K1 O7 3.121581 1_565
Al0 O6 1.753359 1_555
Al0 O5 1.759529 1_555
Al0 O4 1.760156 1_455
Al0 O3 1.761563 1_565
Al1 O7 1.750317 1_555
Al1 O0 1.758316 1_546
Al1 O1 1.759369 1_656
Al1 O2 1.761073 1_556
O0 Si0 1.637357 1_555
O1 Si0 1.640955 1_555
O2 Si0 1.638947 1_555
O3 Si1 1.637061 1_555
O4 Si1 1.638416 1_555
O5 Si1 1.637607 1_555
O6 Si0 1.630973 1_555
O7 Si1 1.636190 1_555
