# generated using pymatgen
data_CsYCdSe3
_symmetry_space_group_name_H-M   'P 1'
_cell_length_a   8.46932576
_cell_length_b   8.46932576
_cell_length_c   11.22843500
_cell_angle_alpha   90.00000000
_cell_angle_beta   90.00000000
_cell_angle_gamma   150.52977012
_symmetry_Int_Tables_number   1
_chemical_formula_structural   CsYCdSe3
_chemical_formula_sum   'Cs2 Y2 Cd2 Se6'
_cell_volume   396.23847646
_cell_formula_units_Z   2
loop_
 _symmetry_equiv_pos_site_id
 _symmetry_equiv_pos_as_xyz
  1  'x, y, z'
loop_
 _atom_site_type_symbol
 _atom_site_label
 _atom_site_symmetry_multiplicity
 _atom_site_fract_x
 _atom_site_fract_y
 _atom_site_fract_z
 _atom_site_occupancy
  Cs  Cs0  1  0.74418400  0.25581600  0.25000000  1
  Cs  Cs1  1  0.25581600  0.74418400  0.75000000  1
  Y  Y0  1  0.00000000  0.00000000  0.50000000  1
  Y  Y1  1  0.00000000  0.00000000  0.00000000  1
  Cd  Cd0  1  0.46057500  0.53942500  0.25000000  1
  Cd  Cd1  1  0.53942500  0.46057500  0.75000000  1
  Se  Se0  1  0.06042600  0.93957400  0.25000000  1
  Se  Se1  1  0.93957400  0.06042600  0.75000000  1
  Se  Se2  1  0.61684100  0.38315900  0.54533200  1
  Se  Se3  1  0.61684100  0.38315900  0.95466800  1
  Se  Se4  1  0.38315900  0.61684100  0.04533200  1
  Se  Se5  1  0.38315900  0.61684100  0.45466800  1
loop_
_geom_bond_atom_site_label_1
_geom_bond_atom_site_label_2
_geom_bond_distance
_geom_bond_site_symmetry_2
Cs0 Se0 3.701630 1_655
Cs0 Se0 3.701630 1_545
Cs0 Se4 3.886489 1_655
Cs0 Se5 3.886489 1_655
Cs0 Se5 3.886489 1_545
Cs0 Se4 3.886489 1_545
Cs0 Se2 3.917697 1_555
Cs0 Se3 3.917697 1_554
Cs1 Se1 3.701630 1_565
Cs1 Se1 3.701630 1_455
Cs1 Se3 3.886489 1_565
Cs1 Se2 3.886489 1_565
Cs1 Se3 3.886489 1_455
Cs1 Se2 3.886489 1_455
Cs1 Se4 3.917697 1_556
Cs1 Se5 3.917697 1_555
Cd0 Se5 2.624803 1_555
Cd0 Se4 2.624803 1_555
Cd0 Se0 2.704821 1_545
Cd0 Se0 2.704821 1_655
Cd1 Se2 2.624803 1_555
Cd1 Se3 2.624803 1_555
Cd1 Se1 2.704821 1_455
Cd1 Se1 2.704821 1_565
Se0 Y0 2.976526 1_565
Se0 Y1 2.976526 1_565
Se1 Y0 2.976526 1_655
Se1 Y1 2.976526 1_656
Se2 Y0 2.926281 1_665
Se2 Y0 2.926281 1_555
Se3 Y1 2.926281 1_666
Se3 Y1 2.926281 1_556
Se4 Y1 2.926281 1_555
Se4 Y1 2.926281 1_665
Se5 Y0 2.926281 1_555
Se5 Y0 2.926281 1_665
