# generated using pymatgen
data_Mg14TiFeO16
_symmetry_space_group_name_H-M   'P 1'
_cell_length_a   8.59764100
_cell_length_b   8.54590200
_cell_length_c   4.27671700
_cell_angle_alpha   90.00000000
_cell_angle_beta   90.00000000
_cell_angle_gamma   90.00000000
_symmetry_Int_Tables_number   1
_chemical_formula_structural   Mg14TiFeO16
_chemical_formula_sum   'Mg14 Ti1 Fe1 O16'
_cell_volume   314.23005984
_cell_formula_units_Z   1
loop_
 _symmetry_equiv_pos_site_id
 _symmetry_equiv_pos_as_xyz
  1  'x, y, z'
loop_
 _atom_site_type_symbol
 _atom_site_label
 _atom_site_symmetry_multiplicity
 _atom_site_fract_x
 _atom_site_fract_y
 _atom_site_fract_z
 _atom_site_occupancy
  Mg  Mg0  1  0.50000000  0.00000000  0.00000000  1
  Mg  Mg1  1  0.50000000  0.50000000  0.00000000  1
  Mg  Mg2  1  0.00000000  0.24626000  0.50000000  1
  Mg  Mg3  1  0.00000000  0.75374000  0.50000000  1
  Mg  Mg4  1  0.50000000  0.24911300  0.50000000  1
  Mg  Mg5  1  0.50000000  0.75088700  0.50000000  1
  Mg  Mg6  1  0.24996200  0.00000000  0.50000000  1
  Mg  Mg7  1  0.25312600  0.50000000  0.50000000  1
  Mg  Mg8  1  0.75003800  0.00000000  0.50000000  1
  Mg  Mg9  1  0.74687400  0.50000000  0.50000000  1
  Mg  Mg10  1  0.25169500  0.24872400  0.00000000  1
  Mg  Mg11  1  0.25169500  0.75127600  0.00000000  1
  Mg  Mg12  1  0.74830500  0.24872400  0.00000000  1
  Mg  Mg13  1  0.74830500  0.75127600  0.00000000  1
  Ti  Ti0  1  0.00000000  0.50000000  0.00000000  1
  Fe  Fe0  1  0.00000000  0.00000000  0.00000000  1
  O  O0  1  0.25858900  0.00000000  0.00000000  1
  O  O1  1  0.25598100  0.50000000  0.00000000  1
  O  O2  1  0.74141100  0.00000000  0.00000000  1
  O  O3  1  0.74401900  0.50000000  0.00000000  1
  O  O4  1  0.24901600  0.25077200  0.50000000  1
  O  O5  1  0.24901600  0.74922800  0.50000000  1
  O  O6  1  0.75098400  0.25077200  0.50000000  1
  O  O7  1  0.75098400  0.74922800  0.50000000  1
  O  O8  1  0.00000000  0.00000000  0.50000000  1
  O  O9  1  0.00000000  0.50000000  0.50000000  1
  O  O10  1  0.50000000  0.00000000  0.50000000  1
  O  O11  1  0.50000000  0.50000000  0.50000000  1
  O  O12  1  0.00000000  0.24594800  0.00000000  1
  O  O13  1  0.00000000  0.75405200  0.00000000  1
  O  O14  1  0.50000000  0.25074500  0.00000000  1
  O  O15  1  0.50000000  0.74925500  0.00000000  1
loop_
_geom_bond_atom_site_label_1
_geom_bond_atom_site_label_2
_geom_bond_distance
_geom_bond_site_symmetry_2
Mg0 O2 2.075565 1_555
Mg0 O0 2.075565 1_555
Mg0 O10 2.138358 1_555
Mg0 O10 2.138358 1_554
Mg0 O14 2.142842 1_555
Mg0 O15 2.142842 1_545
Mg1 O3 2.097988 1_555
Mg1 O1 2.097988 1_555
Mg1 O15 2.130109 1_555
Mg1 O14 2.130109 1_555
Mg1 O11 2.138358 1_554
Mg1 O11 2.138358 1_555
Mg2 O8 2.104514 1_555
Mg2 O12 2.138360 1_556
Mg2 O12 2.138360 1_555
Mg2 O4 2.141297 1_555
Mg2 O6 2.141297 1_455
Mg2 O9 2.168437 1_555
Mg3 O8 2.104514 1_565
Mg3 O13 2.138360 1_555
Mg3 O13 2.138360 1_556
Mg3 O5 2.141297 1_555
Mg3 O7 2.141297 1_455
Mg3 O9 2.168437 1_555
Mg4 O10 2.128895 1_555
Mg4 O14 2.138404 1_556
Mg4 O14 2.138404 1_555
Mg4 O11 2.144056 1_555
Mg4 O4 2.157917 1_555
Mg4 O6 2.157917 1_555
Mg5 O10 2.128895 1_565
Mg5 O15 2.138404 1_556
Mg5 O15 2.138404 1_555
Mg5 O11 2.144056 1_555
Mg5 O5 2.157917 1_555
Mg5 O7 2.157917 1_555
Mg6 O0 2.139644 1_555
Mg6 O0 2.139644 1_556
Mg6 O4 2.143088 1_555
Mg6 O5 2.143088 1_545
Mg6 O8 2.149084 1_555
Mg6 O10 2.149737 1_555
Mg7 O11 2.122534 1_555
Mg7 O5 2.130171 1_555
Mg7 O4 2.130171 1_555
Mg7 O1 2.138499 1_556
Mg7 O1 2.138499 1_555
Mg7 O9 2.176286 1_555
Mg8 O2 2.139644 1_555
Mg8 O2 2.139644 1_556
Mg8 O6 2.143088 1_555
Mg8 O7 2.143088 1_545
Mg8 O8 2.149084 1_655
Mg8 O10 2.149737 1_555
Mg9 O11 2.122534 1_555
Mg9 O6 2.130171 1_555
Mg9 O7 2.130171 1_555
Mg9 O3 2.138499 1_556
Mg9 O3 2.138499 1_555
Mg9 O9 2.176286 1_655
Mg10 O0 2.126397 1_555
Mg10 O14 2.134907 1_555
Mg10 O4 2.138554 1_554
Mg10 O4 2.138554 1_555
Mg10 O1 2.147696 1_555
Mg10 O12 2.164113 1_555
Mg11 O0 2.126397 1_565
Mg11 O15 2.134907 1_555
Mg11 O5 2.138554 1_555
Mg11 O5 2.138554 1_554
Mg11 O1 2.147696 1_555
Mg11 O13 2.164113 1_555
Mg12 O2 2.126397 1_555
Mg12 O14 2.134907 1_555
Mg12 O6 2.138554 1_555
Mg12 O6 2.138554 1_554
Mg12 O3 2.147696 1_555
Mg12 O12 2.164113 1_655
Mg13 O2 2.126397 1_565
Mg13 O15 2.134907 1_555
Mg13 O7 2.138554 1_555
Mg13 O7 2.138554 1_554
Mg13 O3 2.147696 1_555
Mg13 O13 2.164113 1_655
Fe0 O12 2.101848 1_555
Fe0 O13 2.101848 1_545
Fe0 O8 2.138358 1_554
Fe0 O8 2.138358 1_555
Fe0 O0 2.223255 1_555
Fe0 O2 2.223255 1_455
O1 Ti0 2.200833 1_555
O3 Ti0 2.200833 1_655
O9 Ti0 2.138358 1_555
O9 Ti0 2.138358 1_556
O12 Ti0 2.171103 1_555
O13 Ti0 2.171103 1_555
