# generated using pymatgen
data_MnTlRh2
_symmetry_space_group_name_H-M   'P 1'
_cell_length_a   10.88452853
_cell_length_b   10.88452853
_cell_length_c   10.88452853
_cell_angle_alpha   127.57023096
_cell_angle_beta   116.75530511
_cell_angle_gamma   86.56509170
_symmetry_Int_Tables_number   1
_chemical_formula_structural   MnTlRh2
_chemical_formula_sum   'Mn1 Tl1 Rh2'
_cell_volume   869.70064036
_cell_formula_units_Z   1
loop_
 _symmetry_equiv_pos_site_id
 _symmetry_equiv_pos_as_xyz
  1  'x, y, z'
loop_
 _atom_site_type_symbol
 _atom_site_label
 _atom_site_symmetry_multiplicity
 _atom_site_fract_x
 _atom_site_fract_y
 _atom_site_fract_z
 _atom_site_occupancy
  Mn  Mn0  1  0.00000000  0.00000000  0.00000000  1
  Tl  Tl0  1  0.00000000  0.50000000  0.50000000  1
  Rh  Rh0  1  0.00000000  0.21847800  0.21847800  1
  Rh  Rh1  1  0.00000000  0.78152200  0.78152200  1
loop_
_geom_bond_atom_site_label_1
_geom_bond_atom_site_label_2
_geom_bond_distance
_geom_bond_site_symmetry_2
Mn0 Rh1 2.100937 1_544
Mn0 Rh0 2.100937 1_555
Rh0 Tl0 2.707183 1_555
Rh1 Tl0 2.707183 1_555
