# generated using pymatgen
data_Na2SiO8
_symmetry_space_group_name_H-M   'P 1'
_cell_length_a   5.04223500
_cell_length_b   7.11853231
_cell_length_c   9.12509467
_cell_angle_alpha   101.93809913
_cell_angle_beta   89.17831179
_cell_angle_gamma   104.52172334
_symmetry_Int_Tables_number   1
_chemical_formula_structural   Na2SiO8
_chemical_formula_sum   'Na4 Si2 O16'
_cell_volume   309.96493831
_cell_formula_units_Z   2
loop_
 _symmetry_equiv_pos_site_id
 _symmetry_equiv_pos_as_xyz
  1  'x, y, z'
loop_
 _atom_site_type_symbol
 _atom_site_label
 _atom_site_symmetry_multiplicity
 _atom_site_fract_x
 _atom_site_fract_y
 _atom_site_fract_z
 _atom_site_occupancy
  Na  Na0  1  0.39678400  0.82768500  0.09140400  1
  Na  Na1  1  0.60321600  0.17231500  0.90859600  1
  Na  Na2  1  0.74830800  0.58601800  0.40084000  1
  Na  Na3  1  0.25169200  0.41398200  0.59916000  1
  Si  Si0  1  0.17966400  0.26653900  0.21729900  1
  Si  Si1  1  0.82033600  0.73346100  0.78270100  1
  O  O0  1  0.97421700  0.32904600  0.08661700  1
  O  O1  1  0.02578300  0.67095400  0.91338300  1
  O  O2  1  0.91006700  0.10670600  0.30551100  1
  O  O3  1  0.08993300  0.89329400  0.69448900  1
  O  O4  1  0.34150200  0.13578000  0.11090200  1
  O  O5  1  0.65849800  0.86422000  0.88909800  1
  O  O6  1  0.27910200  0.45253900  0.35026600  1
  O  O7  1  0.72089800  0.54746100  0.64973400  1
  O  O8  1  0.18309600  0.88930400  0.37767900  1
  O  O9  1  0.81690400  0.11069600  0.62232100  1
  O  O10  1  0.27827700  0.06938600  0.42859500  1
  O  O11  1  0.72172300  0.93061400  0.57140500  1
  O  O12  1  0.82424400  0.45924600  0.14284700  1
  O  O13  1  0.17575600  0.54075400  0.85715300  1
  O  O14  1  0.86136700  0.91075800  0.25757600  1
  O  O15  1  0.13863300  0.08924200  0.74242400  1
loop_
_geom_bond_atom_site_label_1
_geom_bond_atom_site_label_2
_geom_bond_distance
_geom_bond_site_symmetry_2
Na0 O4 2.250141 1_565
Na0 O5 2.274562 1_554
Na0 O1 2.381962 1_554
Na0 O13 2.665264 1_554
Na0 O14 2.678181 1_555
Na0 O8 2.803500 1_555
Na1 O5 2.250141 1_545
Na1 O4 2.274562 1_556
Na1 O0 2.381962 1_556
Na1 O12 2.665264 1_556
Na1 O15 2.678181 1_555
Na1 O9 2.803500 1_555
Na2 O6 2.331437 1_555
Na2 O7 2.341488 1_555
Na2 O12 2.402454 1_555
Na2 O11 2.652757 1_555
Na2 O8 2.704404 1_655
Na2 O14 2.818835 1_555
Na3 O7 2.331437 1_555
Na3 O6 2.341488 1_555
Na3 O13 2.402454 1_555
Na3 O10 2.652757 1_555
Na3 O9 2.704404 1_455
Na3 O15 2.818835 1_555
O0 O12 1.355633 1_555
O0 Si0 1.783039 1_655
O1 O13 1.355633 1_555
O1 Si1 1.783039 1_455
O2 Si0 1.833638 1_655
O3 Si1 1.833638 1_455
O4 Si0 1.568197 1_555
O5 Si1 1.568197 1_555
O6 Si0 1.580054 1_555
O7 Si1 1.580054 1_555
O10 O8 1.241358 1_545
O11 O9 1.241358 1_565
O14 O2 1.332727 1_565
O14 O8 2.024983 1_655
O15 O3 1.332727 1_545
O15 O9 2.024983 1_455
