# generated using pymatgen
data_Nd3GaCoS7
_symmetry_space_group_name_H-M   'P 1'
_cell_length_a   9.92075401
_cell_length_b   9.92075401
_cell_length_c   6.11239500
_cell_angle_alpha   90.00000000
_cell_angle_beta   90.00000000
_cell_angle_gamma   120.00000007
_symmetry_Int_Tables_number   1
_chemical_formula_structural   Nd3GaCoS7
_chemical_formula_sum   'Nd6 Ga2 Co2 S14'
_cell_volume   520.99242108
_cell_formula_units_Z   2
loop_
 _symmetry_equiv_pos_site_id
 _symmetry_equiv_pos_as_xyz
  1  'x, y, z'
loop_
 _atom_site_type_symbol
 _atom_site_label
 _atom_site_symmetry_multiplicity
 _atom_site_fract_x
 _atom_site_fract_y
 _atom_site_fract_z
 _atom_site_occupancy
  Nd  Nd0  1  0.77759800  0.62757700  0.18024400  1
  Nd  Nd1  1  0.37242300  0.15002100  0.18024400  1
  Nd  Nd2  1  0.84997900  0.22240200  0.18024400  1
  Nd  Nd3  1  0.22240200  0.37242300  0.68024400  1
  Nd  Nd4  1  0.62757700  0.84997900  0.68024400  1
  Nd  Nd5  1  0.15002100  0.77759800  0.68024400  1
  Ga  Ga0  1  0.33333300  0.66666700  0.10410200  1
  Ga  Ga1  1  0.66666700  0.33333300  0.60410200  1
  Co  Co0  1  0.00000000  0.00000000  0.49064400  1
  Co  Co1  1  0.00000000  0.00000000  0.99064400  1
  S  S0  1  0.90952800  0.48115400  0.45513300  1
  S  S1  1  0.51884600  0.42837400  0.45513300  1
  S  S2  1  0.57162600  0.09047200  0.45513300  1
  S  S3  1  0.09047200  0.51884600  0.95513300  1
  S  S4  1  0.48115400  0.57162600  0.95513300  1
  S  S5  1  0.42837400  0.90952800  0.95513300  1
  S  S6  1  0.33333300  0.66666700  0.47231400  1
  S  S7  1  0.66666700  0.33333300  0.97231400  1
  S  S8  1  0.78117500  0.91050100  0.24817500  1
  S  S9  1  0.08949900  0.87067400  0.24817500  1
  S  S10  1  0.12932600  0.21882500  0.24817500  1
  S  S11  1  0.21882500  0.08949900  0.74817500  1
  S  S12  1  0.91050100  0.12932600  0.74817500  1
  S  S13  1  0.87067400  0.78117500  0.74817500  1
loop_
_geom_bond_atom_site_label_1
_geom_bond_atom_site_label_2
_geom_bond_distance
_geom_bond_site_symmetry_2
Nd0 S8 2.819982 1_555
Nd0 S9 2.846201 1_655
Nd0 S7 2.852224 1_554
Nd0 S1 2.871451 1_555
Nd0 S0 2.923634 1_555
Nd0 S13 2.956742 1_554
Nd0 S4 3.036136 1_554
Nd1 S9 2.819982 1_545
Nd1 S10 2.846201 1_555
Nd1 S7 2.852223 1_554
Nd1 S2 2.871451 1_555
Nd1 S1 2.923634 1_555
Nd1 S11 2.956742 1_554
Nd1 S5 3.036136 1_544
Nd2 S10 2.819982 1_655
Nd2 S8 2.846201 1_545
Nd2 S7 2.852216 1_554
Nd2 S0 2.871451 1_555
Nd2 S2 2.923634 1_555
Nd2 S12 2.956742 1_554
Nd2 S3 3.036136 1_654
Nd3 S11 2.819982 1_555
Nd3 S12 2.846201 1_455
Nd3 S6 2.852224 1_555
Nd3 S4 2.871451 1_555
Nd3 S3 2.923634 1_555
Nd3 S10 2.956742 1_555
Nd3 S1 3.036136 1_555
Nd4 S12 2.819982 1_565
Nd4 S13 2.846201 1_555
Nd4 S6 2.852223 1_555
Nd4 S5 2.871451 1_555
Nd4 S4 2.923634 1_555
Nd4 S8 2.956742 1_555
Nd4 S2 3.036136 1_565
Nd5 S13 2.819982 1_455
Nd5 S11 2.846201 1_565
Nd5 S6 2.852216 1_555
Nd5 S3 2.871451 1_555
Nd5 S5 2.923634 1_555
Nd5 S9 2.956742 1_555
Nd5 S0 3.036136 1_455
Ga0 S6 2.250657 1_555
Ga0 S5 2.291601 1_554
Ga0 S3 2.291602 1_554
Ga0 S4 2.291609 1_554
Ga1 S7 2.250657 1_555
Ga1 S2 2.291601 1_555
Ga1 S0 2.291602 1_555
Ga1 S1 2.291609 1_555
Co0 S10 2.402121 1_555
Co0 S8 2.402121 1_445
Co0 S9 2.402121 1_545
Co0 S13 2.459990 1_445
Co0 S11 2.459990 1_555
Co0 S12 2.459990 1_455
Co1 S13 2.402121 1_445
Co1 S11 2.402121 1_555
Co1 S12 2.402121 1_455
Co1 S10 2.459990 1_556
Co1 S8 2.459990 1_446
Co1 S9 2.459990 1_546
