# generated using pymatgen
data_InRhO3
_symmetry_space_group_name_H-M   'P 1'
_cell_length_a   7.70857200
_cell_length_b   7.70857900
_cell_length_c   10.79162661
_cell_angle_alpha   45.77266245
_cell_angle_beta   90.00000000
_cell_angle_gamma   90.00000000
_symmetry_Int_Tables_number   1
_chemical_formula_structural   InRhO3
_chemical_formula_sum   'In8 Rh8 O24'
_cell_volume   459.51381585
_cell_formula_units_Z   8
loop_
 _symmetry_equiv_pos_site_id
 _symmetry_equiv_pos_as_xyz
  1  'x, y, z'
loop_
 _atom_site_type_symbol
 _atom_site_label
 _atom_site_symmetry_multiplicity
 _atom_site_fract_x
 _atom_site_fract_y
 _atom_site_fract_z
 _atom_site_occupancy
  In  In0  1  0.74479400  0.54961900  0.73068000  1
  In  In1  1  0.75520600  0.54961900  0.23068000  1
  In  In2  1  0.25520600  0.45038100  0.26932000  1
  In  In3  1  0.24479400  0.45038100  0.76932000  1
  In  In4  1  0.73416300  0.04649600  0.22399000  1
  In  In5  1  0.76583700  0.04649600  0.72399000  1
  In  In6  1  0.26583700  0.95350400  0.77601000  1
  In  In7  1  0.23416300  0.95350400  0.27601000  1
  Rh  Rh0  1  0.50000000  0.00000000  0.50000000  1
  Rh  Rh1  1  0.00000000  0.00000000  0.00000000  1
  Rh  Rh2  1  0.50000000  0.50000000  0.00000000  1
  Rh  Rh3  1  0.00000000  0.50000000  0.50000000  1
  Rh  Rh4  1  0.50000000  0.00000000  0.00000000  1
  Rh  Rh5  1  0.00000000  0.00000000  0.50000000  1
  Rh  Rh6  1  0.50000000  0.50000000  0.50000000  1
  Rh  Rh7  1  0.00000000  0.50000000  0.00000000  1
  O  O0  1  0.97320300  0.34596700  0.89759900  1
  O  O1  1  0.52679700  0.34596700  0.39759900  1
  O  O2  1  0.02679700  0.65403300  0.10240100  1
  O  O3  1  0.47320300  0.65403300  0.60240100  1
  O  O4  1  0.03958800  0.14630400  0.75134000  1
  O  O5  1  0.46041200  0.14630400  0.25134000  1
  O  O6  1  0.96041200  0.85369600  0.24866000  1
  O  O7  1  0.53958800  0.85369600  0.74866000  1
  O  O8  1  0.75253600  0.92783400  0.47258100  1
  O  O9  1  0.74746400  0.92783400  0.97258100  1
  O  O10  1  0.24746400  0.07216600  0.52741900  1
  O  O11  1  0.25253600  0.07216600  0.02741900  1
  O  O12  1  0.09608800  0.22268200  0.24830000  1
  O  O13  1  0.40391200  0.22268200  0.74830000  1
  O  O14  1  0.90391200  0.77731800  0.75170000  1
  O  O15  1  0.59608800  0.77731800  0.25170000  1
  O  O16  1  0.74930300  0.42516700  0.60168700  1
  O  O17  1  0.75069700  0.42516700  0.10168700  1
  O  O18  1  0.25069700  0.57483300  0.39831300  1
  O  O19  1  0.24930300  0.57483300  0.89831300  1
  O  O20  1  0.90226700  0.28191000  0.46571900  1
  O  O21  1  0.59773300  0.28191000  0.96571900  1
  O  O22  1  0.09773300  0.71809000  0.53428100  1
  O  O23  1  0.40226700  0.71809000  0.03428100  1
loop_
_geom_bond_atom_site_label_1
_geom_bond_atom_site_label_2
_geom_bond_distance
_geom_bond_site_symmetry_2
In0 O21 2.162261 1_555
In0 O16 2.173091 1_555
In0 O0 2.205554 1_555
In0 O8 2.221112 1_555
In0 O14 2.278645 1_555
In0 O3 2.322269 1_555
In1 O20 2.162261 1_555
In1 O17 2.173091 1_555
In1 O1 2.205554 1_555
In1 O9 2.221112 1_554
In1 O15 2.278645 1_555
In1 O2 2.322269 1_655
In2 O23 2.162261 1_555
In2 O18 2.173091 1_555
In2 O2 2.205554 1_555
In2 O10 2.221112 1_555
In2 O12 2.278645 1_555
In2 O1 2.322269 1_555
In3 O22 2.162261 1_555
In3 O19 2.173091 1_555
In3 O3 2.205554 1_555
In3 O11 2.221112 1_556
In3 O13 2.278645 1_555
In3 O0 2.322269 1_455
In4 O8 2.151839 1_545
In4 O15 2.159220 1_545
In4 O6 2.183912 1_545
In4 O17 2.214584 1_555
In4 O21 2.260897 1_554
In4 O5 2.334290 1_555
In5 O9 2.151839 1_545
In5 O14 2.159220 1_545
In5 O7 2.183912 1_545
In5 O16 2.214584 1_555
In5 O20 2.260897 1_555
In5 O4 2.334290 1_655
In6 O10 2.151839 1_565
In6 O13 2.159220 1_565
In6 O4 2.183912 1_565
In6 O19 2.214584 1_555
In6 O23 2.260897 1_556
In6 O7 2.334290 1_555
In7 O11 2.151839 1_565
In7 O12 2.159220 1_565
In7 O5 2.183912 1_565
In7 O18 2.214584 1_555
In7 O22 2.260897 1_555
In7 O6 2.334290 1_455
O0 Rh1 2.065185 1_656
O0 Rh7 2.122302 1_656
O1 Rh0 2.065185 1_555
O1 Rh6 2.122302 1_555
O2 Rh1 2.065185 1_565
O2 Rh7 2.122302 1_555
O3 Rh0 2.065185 1_565
O3 Rh6 2.122302 1_555
O4 Rh1 2.084248 1_556
O4 Rh3 2.137136 1_555
O5 Rh0 2.084248 1_555
O5 Rh2 2.137136 1_555
O6 Rh1 2.084248 1_665
O6 Rh3 2.137136 1_655
O7 Rh0 2.084248 1_565
O7 Rh2 2.137136 1_556
O8 Rh5 2.065324 1_665
O8 Rh0 2.101489 1_565
O9 Rh4 2.065324 1_566
O9 Rh1 2.101489 1_666
O10 Rh5 2.065324 1_555
O10 Rh0 2.101489 1_555
O11 Rh4 2.065324 1_555
O11 Rh1 2.101489 1_555
O12 Rh7 2.075496 1_555
O12 Rh5 2.090176 1_555
O13 Rh6 2.075496 1_555
O13 Rh4 2.090176 1_556
O14 Rh7 2.075496 1_656
O14 Rh5 2.090176 1_665
O15 Rh6 2.075496 1_555
O15 Rh4 2.090176 1_565
O16 Rh6 2.084971 1_555
O16 Rh3 2.094880 1_655
O17 Rh7 2.084971 1_655
O17 Rh2 2.094880 1_555
O18 Rh6 2.084971 1_555
O18 Rh3 2.094880 1_555
O19 Rh7 2.084971 1_556
O19 Rh2 2.094880 1_556
O20 Rh5 2.074948 1_655
O20 Rh3 2.097231 1_655
O21 Rh4 2.074948 1_556
O21 Rh2 2.097231 1_556
O22 Rh5 2.074948 1_565
O22 Rh3 2.097231 1_555
O23 Rh4 2.074948 1_565
O23 Rh2 2.097231 1_555
