# generated using pymatgen
data_SrHfO3
_symmetry_space_group_name_H-M   'P 1'
_cell_length_a   5.76855927
_cell_length_b   5.76048345
_cell_length_c   5.76048417
_cell_angle_alpha   60.36996960
_cell_angle_beta   59.95360115
_cell_angle_gamma   59.95361180
_symmetry_Int_Tables_number   1
_chemical_formula_structural   SrHfO3
_chemical_formula_sum   'Sr2 Hf2 O6'
_cell_volume   135.63234606
_cell_formula_units_Z   2
loop_
 _symmetry_equiv_pos_site_id
 _symmetry_equiv_pos_as_xyz
  1  'x, y, z'
loop_
 _atom_site_type_symbol
 _atom_site_label
 _atom_site_symmetry_multiplicity
 _atom_site_fract_x
 _atom_site_fract_y
 _atom_site_fract_z
 _atom_site_occupancy
  Sr  Sr0  1  0.25000000  0.25774452  0.24225548  1
  Sr  Sr1  1  0.75000000  0.74225548  0.75774452  1
  Hf  Hf0  1  0.00000000  0.00000000  -0.00000000  1
  Hf  Hf1  1  0.50000000  0.50000000  0.50000000  1
  O  O0  1  0.71071941  0.28928059  0.78928059  1
  O  O1  1  0.78928059  0.71071941  0.21071941  1
  O  O2  1  0.28928059  0.71071941  0.21071941  1
  O  O3  1  0.21071941  0.28928059  0.78928059  1
  O  O4  1  0.25000000  0.82284997  0.67715003  1
  O  O5  1  0.75000000  0.17715003  0.32284997  1
loop_
_geom_bond_atom_site_label_1
_geom_bond_atom_site_label_2
_geom_bond_distance
_geom_bond_site_symmetry_2
Hf0 O1 2.068487 1_445
Hf0 O3 2.068487 1_554
Hf0 O0 2.068487 1_454
Hf0 O2 2.068487 1_545
Hf0 O4 2.072901 1_544
Hf0 O5 2.072901 1_455
Hf1 O3 2.068487 1_555
Hf1 O1 2.068487 1_555
Hf1 O2 2.068487 1_555
Hf1 O0 2.068487 1_555
Hf1 O4 2.072901 1_555
Hf1 O5 2.072901 1_555
O0 Sr0 2.641066 1_556
O0 Sr1 2.641066 1_555
O1 Sr0 2.641066 1_655
O1 Sr1 2.641067 1_554
O2 Sr1 2.641066 1_554
O2 Sr0 2.641066 1_555
O3 Sr1 2.641066 1_455
O3 Sr0 2.641067 1_556
O4 Sr0 2.519199 1_565
O5 Sr1 2.519199 1_545
