# generated using pymatgen
data_SrZnPb
_symmetry_space_group_name_H-M   'P 1'
_cell_length_a   4.79900094
_cell_length_b   4.79900094
_cell_length_c   9.08267800
_cell_angle_alpha   90.00000000
_cell_angle_beta   90.00000000
_cell_angle_gamma   120.00001298
_symmetry_Int_Tables_number   1
_chemical_formula_structural   SrZnPb
_chemical_formula_sum   'Sr2 Zn2 Pb2'
_cell_volume   181.15326378
_cell_formula_units_Z   2
loop_
 _symmetry_equiv_pos_site_id
 _symmetry_equiv_pos_as_xyz
  1  'x, y, z'
loop_
 _atom_site_type_symbol
 _atom_site_label
 _atom_site_symmetry_multiplicity
 _atom_site_fract_x
 _atom_site_fract_y
 _atom_site_fract_z
 _atom_site_occupancy
  Sr  Sr0  1  0.00000000  0.00000000  0.50000000  1
  Sr  Sr1  1  0.00000000  0.00000000  0.00000000  1
  Zn  Zn0  1  0.33333300  0.66666700  0.75000000  1
  Zn  Zn1  1  0.66666700  0.33333300  0.25000000  1
  Pb  Pb0  1  0.33333300  0.66666700  0.25000000  1
  Pb  Pb1  1  0.66666700  0.33333300  0.75000000  1
loop_
_geom_bond_atom_site_label_1
_geom_bond_atom_site_label_2
_geom_bond_distance
_geom_bond_site_symmetry_2
Sr0 Zn0 3.582280 1_545
Sr0 Zn1 3.582280 1_455
Sr0 Zn1 3.582283 1_555
Sr0 Zn0 3.582283 1_445
Sr0 Zn0 3.582283 1_555
Sr0 Zn1 3.582283 1_445
Sr1 Zn0 3.582280 1_544
Sr1 Zn1 3.582280 1_455
Sr1 Zn1 3.582283 1_445
Sr1 Zn0 3.582283 1_444
Sr1 Zn0 3.582283 1_554
Sr1 Zn1 3.582283 1_555
Pb0 Zn1 2.770701 1_455
Pb0 Zn1 2.770701 1_565
Pb0 Zn1 2.770710 1_555
Pb0 Sr0 3.582280 1_565
Pb0 Sr1 3.582280 1_565
Pb0 Sr1 3.582283 1_665
Pb0 Sr0 3.582283 1_555
Pb0 Sr0 3.582283 1_665
Pb0 Sr1 3.582283 1_555
Pb1 Zn0 2.770701 1_545
Pb1 Zn0 2.770701 1_655
Pb1 Zn0 2.770710 1_555
Pb1 Sr1 3.582280 1_656
Pb1 Sr0 3.582280 1_655
Pb1 Sr0 3.582283 1_555
Pb1 Sr0 3.582283 1_665
Pb1 Sr1 3.582283 1_556
Pb1 Sr1 3.582283 1_666
