# generated using pymatgen
data_LiFeSiO4
_symmetry_space_group_name_H-M   'P 1'
_cell_length_a   8.79424002
_cell_length_b   8.79024535
_cell_length_c   8.49967111
_cell_angle_alpha   90.00976772
_cell_angle_beta   90.00797603
_cell_angle_gamma   120.01284093
_symmetry_Int_Tables_number   1
_chemical_formula_structural   LiFeSiO4
_chemical_formula_sum   'Li6 Fe6 Si6 O24'
_cell_volume   568.95226939
_cell_formula_units_Z   6
loop_
 _symmetry_equiv_pos_site_id
 _symmetry_equiv_pos_as_xyz
  1  'x, y, z'
loop_
 _atom_site_type_symbol
 _atom_site_label
 _atom_site_symmetry_multiplicity
 _atom_site_fract_x
 _atom_site_fract_y
 _atom_site_fract_z
 _atom_site_occupancy
  Li  Li0  1  0.33331200  0.66669100  0.23454600  1
  Li  Li1  1  0.33336000  0.66665800  0.81043700  1
  Li  Li2  1  0.00011600  0.00010300  0.06822700  1
  Li  Li3  1  0.99994700  0.00001400  0.56826000  1
  Li  Li4  1  0.66665500  0.33326800  0.73449200  1
  Li  Li5  1  0.66668800  0.33339900  0.31042400  1
  Fe  Fe0  1  0.03503200  0.68987600  0.39831100  1
  Fe  Fe1  1  0.30984100  0.34512200  0.39826200  1
  Fe  Fe2  1  0.65457500  0.96469400  0.39836200  1
  Fe  Fe3  1  0.34537900  0.03524500  0.89837700  1
  Fe  Fe4  1  0.69008500  0.65475300  0.89829600  1
  Fe  Fe5  1  0.96482000  0.31008700  0.89835800  1
  Si  Si0  1  0.04025100  0.68386600  0.01952500  1
  Si  Si1  1  0.31625500  0.35639100  0.01948100  1
  Si  Si2  1  0.64366400  0.95982600  0.01955200  1
  Si  Si3  1  0.35632500  0.04012800  0.51949100  1
  Si  Si4  1  0.68371700  0.64356800  0.51948800  1
  Si  Si5  1  0.95984900  0.31624400  0.51954600  1
  O  O0  1  0.14097000  0.90951300  0.50861700  1
  O  O1  1  0.13478400  0.72000600  0.19388700  1
  O  O2  1  0.08477600  0.52537100  0.48488200  1
  O  O3  1  0.20362600  0.78345000  0.89148100  1
  O  O4  1  0.21649900  0.42018100  0.89159300  1
  O  O5  1  0.44051000  0.91519000  0.48497400  1
  O  O6  1  0.09049600  0.23158100  0.50876700  1
  O  O7  1  0.28016300  0.41479400  0.19385000  1
  O  O8  1  0.58500600  0.86530300  0.19386400  1
  O  O9  1  0.47466000  0.55935700  0.48484800  1
  O  O10  1  0.23160100  0.14096500  0.00867900  1
  O  O11  1  0.57989000  0.79621300  0.89163200  1
  O  O12  1  0.42008300  0.20361300  0.39150900  1
  O  O13  1  0.76837400  0.85899900  0.50878100  1
  O  O14  1  0.52533700  0.44060400  0.98500100  1
  O  O15  1  0.41481200  0.13470300  0.69387100  1
  O  O16  1  0.71986200  0.58508900  0.69380000  1
  O  O17  1  0.90958500  0.76851900  0.00865500  1
  O  O18  1  0.55952500  0.08474800  0.98490200  1
  O  O19  1  0.78343100  0.57983700  0.39149800  1
  O  O20  1  0.79619600  0.21648500  0.39171500  1
  O  O21  1  0.91528400  0.47466800  0.98501900  1
  O  O22  1  0.86547400  0.28031600  0.69391200  1
  O  O23  1  0.85899100  0.09056200  0.00882900  1
loop_
_geom_bond_atom_site_label_1
_geom_bond_atom_site_label_2
_geom_bond_distance
_geom_bond_site_symmetry_2
Li0 O8 2.049757 1_555
Li0 O7 2.050684 1_555
Li0 O1 2.050773 1_555
Li1 O4 1.999838 1_555
Li1 O3 2.000472 1_555
Li1 O11 2.000738 1_555
Li2 O10 1.847271 1_555
Li2 O17 1.847277 1_445
Li2 O23 1.847881 1_455
Li3 O6 1.847192 1_655
Li3 O13 1.847594 1_545
Li3 O0 1.847959 1_645
Li4 O16 2.050024 1_555
Li4 O15 2.050194 1_555
Li4 O22 2.051100 1_555
Li5 O19 1.998990 1_555
Li5 O20 2.000421 1_555
Li5 O12 2.001340 1_555
Fe0 O2 1.859286 1_555
Fe0 O1 1.904439 1_555
Fe0 O0 1.916820 1_555
Fe0 O19 1.921883 1_455
Fe1 O9 1.859435 1_555
Fe1 O7 1.903159 1_555
Fe1 O6 1.916796 1_555
Fe1 O12 1.922735 1_555
Fe2 O5 1.859099 1_555
Fe2 O8 1.903494 1_555
Fe2 O13 1.917233 1_555
Fe2 O20 1.922365 1_565
Fe3 O18 1.859180 1_555
Fe3 O15 1.904050 1_555
Fe3 O10 1.916751 1_556
Fe3 O3 1.922508 1_545
Fe4 O14 1.859608 1_555
Fe4 O16 1.903919 1_555
Fe4 O17 1.916810 1_556
Fe4 O11 1.921988 1_555
Fe5 O21 1.858899 1_555
Fe5 O22 1.903200 1_555
Fe5 O23 1.917221 1_556
Fe5 O4 1.922481 1_655
O0 Si3 1.654748 1_565
O1 Si0 1.650373 1_555
O2 Si5 1.628793 1_455
O3 Si0 1.660600 1_556
O4 Si1 1.660622 1_556
O5 Si3 1.629000 1_565
O6 Si5 1.654598 1_455
O7 Si1 1.650376 1_555
O8 Si2 1.650286 1_555
O9 Si4 1.628814 1_555
O10 Si1 1.654744 1_555
O11 Si2 1.660576 1_556
O12 Si3 1.660574 1_555
O13 Si4 1.654784 1_555
O14 Si1 1.628903 1_556
O15 Si3 1.650490 1_555
O16 Si4 1.650453 1_555
O17 Si0 1.654721 1_655
O18 Si2 1.628787 1_546
O19 Si4 1.660655 1_555
O20 Si5 1.660573 1_555
O21 Si0 1.628915 1_656
O22 Si5 1.650254 1_555
O23 Si2 1.654661 1_545
