# generated using pymatgen
data_Tm4C7
_symmetry_space_group_name_H-M   'P 1'
_cell_length_a   3.62616466
_cell_length_b   6.32868439
_cell_length_c   13.53619227
_cell_angle_alpha   90.00000000
_cell_angle_beta   90.00000000
_cell_angle_gamma   105.04173921
_symmetry_Int_Tables_number   1
_chemical_formula_structural   Tm4C7
_chemical_formula_sum   'Tm8 C14'
_cell_volume   299.99661499
_cell_formula_units_Z   2
loop_
 _symmetry_equiv_pos_site_id
 _symmetry_equiv_pos_as_xyz
  1  'x, y, z'
loop_
 _atom_site_type_symbol
 _atom_site_label
 _atom_site_symmetry_multiplicity
 _atom_site_fract_x
 _atom_site_fract_y
 _atom_site_fract_z
 _atom_site_occupancy
  Tm  Tm0  1  0.94351862  0.83899626  0.83880375  1
  Tm  Tm1  1  0.05648138  0.16100374  0.16119625  1
  Tm  Tm2  1  0.05648138  0.66100374  0.33880375  1
  Tm  Tm3  1  0.94351862  0.33899626  0.66119625  1
  Tm  Tm4  1  0.63346674  0.75969009  0.55480205  1
  Tm  Tm5  1  0.36653326  0.24030991  0.44519795  1
  Tm  Tm6  1  0.36653326  0.74030991  0.05480205  1
  Tm  Tm7  1  0.63346674  0.25969009  0.94519795  1
  C  C0  1  0.73267433  0.95029303  0.39622630  1
  C  C1  1  0.26732567  0.04970697  0.60377370  1
  C  C2  1  0.26732567  0.54970697  0.89622630  1
  C  C3  1  0.73267433  0.45029303  0.10377370  1
  C  C4  1  0.53456035  0.57557312  0.71457799  1
  C  C5  1  0.46543965  0.42442688  0.28542201  1
  C  C6  1  0.46543965  0.92442688  0.21457799  1
  C  C7  1  0.53456035  0.07557312  0.78542201  1
  C  C8  1  0.62201280  0.95491690  0.30297269  1
  C  C9  1  0.37798720  0.04508310  0.69702731  1
  C  C10  1  0.37798720  0.54508310  0.80297269  1
  C  C11  1  0.62201280  0.45491690  0.19702731  1
  C  C12  1  -0.00000000  -0.00000000  -0.00000000  1
  C  C13  1  -0.00000000  0.50000000  0.50000000  1
loop_
_geom_bond_atom_site_label_1
_geom_bond_atom_site_label_2
_geom_bond_distance
_geom_bond_site_symmetry_2
C0 C8 1.327167 1_555
C0 Tm4 2.442697 1_555
C0 Tm2 2.539796 1_655
C0 Tm5 2.614538 1_565
C0 Tm5 2.627074 1_665
C0 Tm2 2.763737 1_555
C1 C9 1.327167 1_555
C1 Tm5 2.442697 1_555
C1 Tm3 2.539796 1_455
C1 Tm4 2.614538 1_545
C1 Tm4 2.627074 1_445
C1 Tm3 2.763737 1_555
C2 Tm6 2.442697 1_556
C2 Tm0 2.539796 1_455
C2 Tm7 2.614538 1_555
C2 Tm7 2.627074 1_455
C2 Tm0 2.763737 1_555
C3 Tm7 2.442697 1_554
C3 Tm1 2.539796 1_655
C3 Tm6 2.614538 1_555
C3 Tm6 2.627074 1_655
C3 Tm1 2.763737 1_555
C4 Tm3 2.385712 1_455
C4 Tm4 2.438642 1_555
C4 Tm3 2.472929 1_555
C4 Tm0 2.553980 1_555
C5 Tm2 2.385712 1_655
C5 Tm5 2.438642 1_555
C5 Tm2 2.472929 1_555
C5 Tm1 2.553980 1_555
C6 C8 1.316966 1_555
C6 Tm1 2.385712 1_665
C6 Tm6 2.438642 1_555
C6 Tm1 2.472929 1_565
C6 Tm2 2.553980 1_555
C7 C9 1.316966 1_555
C7 Tm0 2.385712 1_445
C7 Tm7 2.438642 1_555
C7 Tm0 2.472929 1_545
C7 Tm3 2.553980 1_555
C8 Tm2 2.433243 1_555
C8 Tm1 2.607606 1_665
C8 Tm2 2.774574 1_655
C8 Tm5 2.948780 1_565
C9 Tm3 2.433243 1_555
C9 Tm0 2.607606 1_445
C9 Tm3 2.774574 1_455
C9 Tm4 2.948780 1_545
C10 C4 1.316966 1_555
C10 C2 1.327167 1_555
C10 Tm0 2.433243 1_555
C10 Tm3 2.607606 1_455
C10 Tm0 2.774574 1_455
C10 Tm7 2.948780 1_555
C11 C5 1.316966 1_555
C11 C3 1.327167 1_555
C11 Tm1 2.433243 1_555
C11 Tm2 2.607606 1_655
C11 Tm1 2.774574 1_655
C11 Tm6 2.948780 1_555
C12 Tm0 2.394352 1_444
C12 Tm1 2.394352 1_555
C12 Tm7 2.480261 1_454
C12 Tm6 2.480261 1_545
C12 Tm7 2.562874 1_554
C12 Tm6 2.562874 1_445
C13 Tm2 2.394352 1_555
C13 Tm3 2.394352 1_455
C13 Tm5 2.480261 1_555
C13 Tm4 2.480261 1_455
C13 Tm5 2.562874 1_455
C13 Tm4 2.562874 1_555
