# generated using pymatgen
data_Tl3Mo15Se19
_symmetry_space_group_name_H-M   'P 1'
_cell_length_a   19.76585800
_cell_length_b   9.95673400
_cell_length_c   10.06007168
_cell_angle_alpha   60.77219633
_cell_angle_beta   90.00000000
_cell_angle_gamma   90.00000000
_symmetry_Int_Tables_number   1
_chemical_formula_structural   Tl3Mo15Se19
_chemical_formula_sum   'Tl6 Mo30 Se38'
_cell_volume   1727.79128195
_cell_formula_units_Z   2
loop_
 _symmetry_equiv_pos_site_id
 _symmetry_equiv_pos_as_xyz
  1  'x, y, z'
loop_
 _atom_site_type_symbol
 _atom_site_label
 _atom_site_symmetry_multiplicity
 _atom_site_fract_x
 _atom_site_fract_y
 _atom_site_fract_z
 _atom_site_occupancy
  Tl  Tl0  1  0.62747600  0.66027600  0.66590200  1
  Tl  Tl1  1  0.12747600  0.33972400  0.33409800  1
  Tl  Tl2  1  0.37252400  0.33972400  0.33409800  1
  Tl  Tl3  1  0.87252400  0.66027600  0.66590200  1
  Tl  Tl4  1  0.75000000  0.94934500  0.81893700  1
  Tl  Tl5  1  0.25000000  0.05065500  0.18106300  1
  Mo  Mo0  1  0.75000000  0.48285100  0.34411200  1
  Mo  Mo1  1  0.75000000  0.33496800  0.17396600  1
  Mo  Mo2  1  0.75000000  0.16403000  0.49168100  1
  Mo  Mo3  1  0.25000000  0.51714900  0.65588800  1
  Mo  Mo4  1  0.25000000  0.66503200  0.82603400  1
  Mo  Mo5  1  0.25000000  0.83597000  0.50831900  1
  Mo  Mo6  1  0.63442100  0.49302400  0.18834800  1
  Mo  Mo7  1  0.63555000  0.19053000  0.31379200  1
  Mo  Mo8  1  0.63506800  0.32337300  0.48955600  1
  Mo  Mo9  1  0.13442100  0.50697600  0.81165200  1
  Mo  Mo10  1  0.13555000  0.80947000  0.68620800  1
  Mo  Mo11  1  0.13506800  0.67662700  0.51044400  1
  Mo  Mo12  1  0.36557900  0.50697600  0.81165200  1
  Mo  Mo13  1  0.36445000  0.80947000  0.68620800  1
  Mo  Mo14  1  0.36493200  0.67662700  0.51044400  1
  Mo  Mo15  1  0.86557900  0.49302400  0.18834800  1
  Mo  Mo16  1  0.86445000  0.19053000  0.31379200  1
  Mo  Mo17  1  0.86493200  0.32337300  0.48955600  1
  Mo  Mo18  1  0.55624300  0.83679900  0.14761300  1
  Mo  Mo19  1  0.55471300  0.14969500  0.01427600  1
  Mo  Mo20  1  0.55739300  0.01319500  0.84125800  1
  Mo  Mo21  1  0.05624300  0.16320100  0.85238700  1
  Mo  Mo22  1  0.05471300  0.85030500  0.98572400  1
  Mo  Mo23  1  0.05739300  0.98680500  0.15874200  1
  Mo  Mo24  1  0.44375700  0.16320100  0.85238700  1
  Mo  Mo25  1  0.44528700  0.85030500  0.98572400  1
  Mo  Mo26  1  0.44260700  0.98680500  0.15874200  1
  Mo  Mo27  1  0.94375700  0.83679900  0.14761300  1
  Mo  Mo28  1  0.94528700  0.14969500  0.01427600  1
  Mo  Mo29  1  0.94260700  0.01319500  0.84125800  1
  Se  Se0  1  0.75000000  0.63219100  0.05036100  1
  Se  Se1  1  0.75000000  0.03739600  0.31953300  1
  Se  Se2  1  0.75000000  0.32300800  0.63756900  1
  Se  Se3  1  0.25000000  0.36780900  0.94963900  1
  Se  Se4  1  0.25000000  0.96260400  0.68046700  1
  Se  Se5  1  0.25000000  0.67699200  0.36243100  1
  Se  Se6  1  0.65875100  0.99800500  0.01515700  1
  Se  Se7  1  0.15875100  0.00199500  0.98484300  1
  Se  Se8  1  0.34124900  0.00199500  0.98484300  1
  Se  Se9  1  0.84124900  0.99800500  0.01515700  1
  Se  Se10  1  0.55426600  0.71382200  0.96870600  1
  Se  Se11  1  0.54966900  0.97514800  0.31133900  1
  Se  Se12  1  0.55277700  0.31272200  0.71503900  1
  Se  Se13  1  0.05426600  0.28617800  0.03129400  1
  Se  Se14  1  0.04966900  0.02485200  0.68866100  1
  Se  Se15  1  0.05277700  0.68727800  0.28496100  1
  Se  Se16  1  0.44573400  0.28617800  0.03129400  1
  Se  Se17  1  0.45033100  0.02485200  0.68866100  1
  Se  Se18  1  0.44722300  0.68727800  0.28496100  1
  Se  Se19  1  0.94573400  0.71382200  0.96870600  1
  Se  Se20  1  0.95033100  0.97514800  0.31133900  1
  Se  Se21  1  0.94722300  0.31272200  0.71503900  1
  Se  Se22  1  0.64210400  0.62400000  0.36198900  1
  Se  Se23  1  0.64246400  0.36265600  0.01459700  1
  Se  Se24  1  0.63107000  0.02244800  0.60515900  1
  Se  Se25  1  0.14210400  0.37600000  0.63801100  1
  Se  Se26  1  0.14246400  0.63734400  0.98540300  1
  Se  Se27  1  0.13107000  0.97755200  0.39484100  1
  Se  Se28  1  0.35789600  0.37600000  0.63801100  1
  Se  Se29  1  0.35753600  0.63734400  0.98540300  1
  Se  Se30  1  0.36893000  0.97755200  0.39484100  1
  Se  Se31  1  0.85789600  0.62400000  0.36198900  1
  Se  Se32  1  0.85753600  0.36265600  0.01459700  1
  Se  Se33  1  0.86893000  0.02244800  0.60515900  1
  Se  Se34  1  0.03202900  0.66216200  0.66915600  1
  Se  Se35  1  0.53202900  0.33783800  0.33084400  1
  Se  Se36  1  0.96797100  0.33783800  0.33084400  1
  Se  Se37  1  0.46797100  0.66216200  0.66915600  1
loop_
_geom_bond_atom_site_label_1
_geom_bond_atom_site_label_2
_geom_bond_distance
_geom_bond_site_symmetry_2
Mo0 Se0 2.579296 1_555
Mo0 Se2 2.580703 1_555
Mo0 Se22 2.608160 1_555
Mo0 Se31 2.608160 1_555
Mo1 Se1 2.585692 1_555
Mo1 Se0 2.590450 1_555
Mo1 Se32 2.594754 1_555
Mo1 Se23 2.594754 1_555
Mo2 Se1 2.592565 1_555
Mo2 Se2 2.632157 1_555
Mo2 Se24 2.691641 1_555
Mo2 Se33 2.691641 1_555
Mo2 Tl4 2.921552 1_545
Mo3 Se3 2.579296 1_555
Mo3 Se5 2.580703 1_555
Mo3 Se28 2.608160 1_555
Mo3 Se25 2.608160 1_555
Mo4 Se4 2.585692 1_555
Mo4 Se3 2.590450 1_555
Mo4 Se26 2.594754 1_555
Mo4 Se29 2.594754 1_555
Mo5 Se4 2.592565 1_555
Mo5 Se5 2.632157 1_555
Mo5 Se30 2.691641 1_555
Mo5 Se27 2.691641 1_555
Mo5 Tl5 2.921552 1_565
Mo6 Se35 2.524955 1_555
Mo6 Se23 2.642203 1_555
Mo6 Se22 2.645720 1_555
Mo6 Se0 2.680971 1_555
Mo6 Se10 2.735277 1_554
Mo7 Se24 2.570967 1_555
Mo7 Se35 2.571619 1_555
Mo7 Se23 2.641572 1_555
Mo7 Se1 2.712868 1_555
Mo7 Se11 2.744580 1_545
Mo8 Se35 2.548223 1_555
Mo8 Se22 2.621940 1_555
Mo8 Se24 2.633110 1_555
Mo8 Se2 2.715266 1_555
Mo8 Se12 2.750913 1_555
Mo9 Se34 2.524955 1_555
Mo9 Se26 2.642203 1_555
Mo9 Se25 2.645720 1_555
Mo9 Se3 2.680971 1_555
Mo9 Se13 2.735277 1_556
Mo10 Se27 2.570967 1_555
Mo10 Se34 2.571619 1_555
Mo10 Se26 2.641572 1_555
Mo10 Se4 2.712868 1_555
Mo10 Se14 2.744580 1_565
Mo11 Se34 2.548223 1_555
Mo11 Se25 2.621940 1_555
Mo11 Se27 2.633110 1_555
Mo11 Se5 2.715266 1_555
Mo11 Se15 2.750913 1_555
Mo12 Se37 2.524955 1_555
Mo12 Se29 2.642203 1_555
Mo12 Se28 2.645720 1_555
Mo12 Se3 2.680971 1_555
Mo12 Se16 2.735277 1_556
Mo13 Se30 2.570967 1_555
Mo13 Se37 2.571619 1_555
Mo13 Se29 2.641572 1_555
Mo13 Se4 2.712868 1_555
Mo13 Se17 2.744580 1_565
Mo14 Se37 2.548223 1_555
Mo14 Se28 2.621940 1_555
Mo14 Se30 2.633110 1_555
Mo14 Se5 2.715266 1_555
Mo14 Se18 2.750913 1_555
Mo15 Se36 2.524955 1_555
Mo15 Se32 2.642203 1_555
Mo15 Se31 2.645720 1_555
Mo15 Se0 2.680971 1_555
Mo15 Se19 2.735277 1_554
Mo16 Se33 2.570967 1_555
Mo16 Se36 2.571619 1_555
Mo16 Se32 2.641572 1_555
Mo16 Se1 2.712868 1_555
Mo16 Se20 2.744580 1_545
Mo17 Se36 2.548223 1_555
Mo17 Se31 2.621940 1_555
Mo17 Se33 2.633110 1_555
Mo17 Se2 2.715266 1_555
Mo17 Se21 2.750913 1_555
Mo18 Se6 2.523596 1_555
Mo18 Se18 2.600034 1_555
Mo18 Se11 2.615920 1_555
Mo18 Se10 2.625317 1_554
Mo18 Se22 2.749211 1_555
Mo19 Se6 2.548903 1_545
Mo19 Se16 2.596763 1_555
Mo19 Se11 2.624741 1_545
Mo19 Se12 2.631832 1_554
Mo19 Se23 2.740652 1_555
Mo20 Se17 2.583467 1_555
Mo20 Se10 2.607781 1_545
Mo20 Se12 2.610882 1_555
Mo20 Se6 2.615098 1_546
Mo20 Se24 2.749003 1_555
Mo21 Se7 2.523596 1_555
Mo21 Se21 2.600034 1_455
Mo21 Se14 2.615920 1_555
Mo21 Se13 2.625317 1_556
Mo21 Se25 2.749211 1_555
Mo22 Se7 2.548903 1_565
Mo22 Se19 2.596763 1_455
Mo22 Se14 2.624741 1_565
Mo22 Se15 2.631832 1_556
Mo22 Se26 2.740652 1_555
Mo23 Se20 2.583467 1_455
Mo23 Se13 2.607781 1_565
Mo23 Se15 2.610882 1_555
Mo23 Se7 2.615098 1_564
Mo23 Se27 2.749003 1_555
Mo24 Se8 2.523596 1_555
Mo24 Se12 2.600034 1_555
Mo24 Se17 2.615920 1_555
Mo24 Se16 2.625317 1_556
Mo24 Se28 2.749211 1_555
Mo25 Se8 2.548903 1_565
Mo25 Se10 2.596763 1_555
Mo25 Se17 2.624741 1_565
Mo25 Se18 2.631832 1_556
Mo25 Se29 2.740652 1_555
Mo26 Se11 2.583467 1_555
Mo26 Se16 2.607781 1_565
Mo26 Se18 2.610882 1_555
Mo26 Se8 2.615098 1_564
Mo26 Se30 2.749003 1_555
Mo27 Se9 2.523596 1_555
Mo27 Se15 2.600034 1_655
Mo27 Se20 2.615920 1_555
Mo27 Se19 2.625317 1_554
Mo27 Se31 2.749211 1_555
Mo28 Se9 2.548903 1_545
Mo28 Se13 2.596763 1_655
Mo28 Se20 2.624741 1_545
Mo28 Se21 2.631832 1_554
Mo28 Se32 2.740652 1_555
Mo29 Se14 2.583467 1_655
Mo29 Se19 2.607781 1_545
Mo29 Se21 2.610882 1_555
Mo29 Se9 2.615098 1_546
Mo29 Se33 2.749003 1_555
Se0 Tl4 2.865744 1_554
Se2 Tl4 3.246803 1_545
Se3 Tl5 2.865744 1_556
Se5 Tl5 3.246803 1_565
Se6 Tl4 2.884157 1_554
Se7 Tl5 2.884157 1_556
Se8 Tl5 2.884157 1_556
Se9 Tl4 2.884157 1_554
Se22 Tl0 3.261915 1_555
Se23 Tl0 3.320083 1_554
Se24 Tl4 3.025281 1_545
Se24 Tl0 3.351137 1_545
Se25 Tl1 3.261915 1_555
Se26 Tl1 3.320083 1_556
Se27 Tl5 3.025281 1_565
Se27 Tl1 3.351137 1_565
Se28 Tl2 3.261915 1_555
Se29 Tl2 3.320083 1_556
Se30 Tl5 3.025281 1_565
Se30 Tl2 3.351137 1_565
Se31 Tl3 3.261915 1_555
Se32 Tl3 3.320083 1_554
Se33 Tl4 3.025281 1_545
Se33 Tl3 3.351137 1_545
Se34 Tl3 3.153074 1_455
Se35 Tl2 3.153074 1_555
Se36 Tl1 3.153074 1_655
Se37 Tl0 3.153074 1_555
