# generated using pymatgen
data_Tb3In
_symmetry_space_group_name_H-M   'P 1'
_cell_length_a   6.86102286
_cell_length_b   6.86102235
_cell_length_c   5.63953288
_cell_angle_alpha   90.00000000
_cell_angle_beta   90.00000000
_cell_angle_gamma   119.99997971
_symmetry_Int_Tables_number   1
_chemical_formula_structural   Tb3In
_chemical_formula_sum   'Tb6 In2'
_cell_volume   229.90666096
_cell_formula_units_Z   2
loop_
 _symmetry_equiv_pos_site_id
 _symmetry_equiv_pos_as_xyz
  1  'x, y, z'
loop_
 _atom_site_type_symbol
 _atom_site_label
 _atom_site_symmetry_multiplicity
 _atom_site_fract_x
 _atom_site_fract_y
 _atom_site_fract_z
 _atom_site_occupancy
  Tb  Tb0  1  0.82817455  0.17182545  0.75000000  1
  Tb  Tb1  1  0.34365189  0.17182545  0.75000000  1
  Tb  Tb2  1  0.82817455  0.65634811  0.75000000  1
  Tb  Tb3  1  0.17182545  0.82817455  0.25000000  1
  Tb  Tb4  1  0.65634811  0.82817455  0.25000000  1
  Tb  Tb5  1  0.17182545  0.34365189  0.25000000  1
  In  In0  1  0.66666700  0.33333300  0.25000000  1
  In  In1  1  0.33333300  0.66666700  0.75000000  1
loop_
_geom_bond_atom_site_label_1
_geom_bond_atom_site_label_2
_geom_bond_distance
_geom_bond_site_symmetry_2
Tb0 Tb2 3.324321 1_555
Tb0 Tb1 3.324321 1_555
Tb0 Tb4 3.481449 1_546
Tb0 Tb4 3.481449 1_545
Tb0 Tb5 3.481449 1_656
Tb0 Tb5 3.481449 1_655
Tb0 Tb2 3.536702 1_545
Tb0 Tb1 3.536702 1_655
Tb1 Tb2 3.324322 1_555
Tb1 Tb3 3.481449 1_546
Tb1 Tb3 3.481449 1_545
Tb1 Tb5 3.481456 1_555
Tb1 Tb5 3.481456 1_556
Tb1 Tb2 3.536703 1_445
Tb2 Tb3 3.481449 1_655
Tb2 Tb3 3.481449 1_656
Tb2 Tb4 3.481456 1_555
Tb2 Tb4 3.481456 1_556
Tb3 Tb5 3.324321 1_555
Tb3 Tb4 3.324321 1_555
Tb3 Tb5 3.536702 1_565
Tb3 Tb4 3.536702 1_455
Tb4 Tb5 3.324322 1_555
Tb4 Tb5 3.536703 1_665
In0 Tb0 3.410980 1_555
In0 Tb0 3.410980 1_554
In0 Tb2 3.410980 1_555
In0 Tb2 3.410980 1_554
In0 Tb1 3.410980 1_554
In0 Tb1 3.410980 1_555
In0 Tb4 3.431052 1_545
In0 Tb5 3.431053 1_655
In0 Tb3 3.431060 1_545
In0 Tb3 3.431060 1_655
In0 Tb4 3.431066 1_555
In0 Tb5 3.431066 1_555
In1 Tb3 3.410980 1_556
In1 Tb3 3.410980 1_555
In1 Tb5 3.410980 1_555
In1 Tb5 3.410980 1_556
In1 Tb4 3.410980 1_555
In1 Tb4 3.410980 1_556
In1 Tb1 3.431052 1_565
In1 Tb2 3.431053 1_455
In1 Tb0 3.431060 1_565
In1 Tb0 3.431060 1_455
In1 Tb1 3.431066 1_555
In1 Tb2 3.431066 1_555
