# generated using pymatgen
data_K2Nd4MgNb2O12
_symmetry_space_group_name_H-M   'P 1'
_cell_length_a   5.83313900
_cell_length_b   7.02022815
_cell_length_c   8.87554482
_cell_angle_alpha   102.24827646
_cell_angle_beta   90.00000000
_cell_angle_gamma   114.54779483
_symmetry_Int_Tables_number   1
_chemical_formula_structural   K2Nd4MgNb2O12
_chemical_formula_sum   'K2 Nd4 Mg1 Nb2 O12'
_cell_volume   321.48516863
_cell_formula_units_Z   1
loop_
 _symmetry_equiv_pos_site_id
 _symmetry_equiv_pos_as_xyz
  1  'x, y, z'
loop_
 _atom_site_type_symbol
 _atom_site_label
 _atom_site_symmetry_multiplicity
 _atom_site_fract_x
 _atom_site_fract_y
 _atom_site_fract_z
 _atom_site_occupancy
  K  K0  1  0.12544800  0.25089700  0.48300400  1
  K  K1  1  0.87455200  0.74910300  0.51699600  1
  Nd  Nd0  1  0.12029700  0.24059500  0.90593600  1
  Nd  Nd1  1  0.58118700  0.16237200  0.19408000  1
  Nd  Nd2  1  0.41881300  0.83762800  0.80592000  1
  Nd  Nd3  1  0.87970300  0.75940600  0.09406400  1
  Mg  Mg0  1  0.50000000  0.00000000  0.50000000  1
  Nb  Nb0  1  0.68413300  0.36826700  0.72932200  1
  Nb  Nb1  1  0.31586700  0.63173300  0.27067800  1
  O  O0  1  0.01637900  0.54053100  0.84066700  1
  O  O1  1  0.22070900  0.90192500  0.30604400  1
  O  O2  1  0.24596200  0.00000000  0.00000000  1
  O  O3  1  0.77929100  0.09807500  0.69395600  1
  O  O4  1  0.68121700  0.90192500  0.30604400  1
  O  O5  1  0.75403800  0.00000000  0.00000000  1
  O  O6  1  0.31878300  0.09807500  0.69395600  1
  O  O7  1  0.98362100  0.45946900  0.15933300  1
  O  O8  1  0.65787600  0.31575000  0.49660600  1
  O  O9  1  0.34212400  0.68425000  0.50339400  1
  O  O10  1  0.47584700  0.45946900  0.15933300  1
  O  O11  1  0.52415300  0.54053100  0.84066700  1
loop_
_geom_bond_atom_site_label_1
_geom_bond_atom_site_label_2
_geom_bond_distance
_geom_bond_site_symmetry_2
K0 O9 2.730733 1_555
K0 O6 2.790336 1_555
K0 O3 2.790336 1_455
K0 O4 2.876789 1_445
K0 O1 2.876796 1_545
K0 O8 2.944331 1_455
K0 O8 2.944348 1_555
K1 O8 2.730733 1_555
K1 O4 2.790336 1_555
K1 O1 2.790336 1_655
K1 O6 2.876789 1_665
K1 O3 2.876796 1_565
K1 O9 2.944331 1_655
K1 O9 2.944348 1_555
Nd0 O5 2.390437 1_456
Nd0 O2 2.390440 1_556
Nd0 O6 2.458691 1_555
Nd0 O3 2.458692 1_455
Nd0 O0 2.591281 1_555
Nd0 O11 2.591288 1_555
Nd0 O7 2.757961 1_456
Nd0 O10 2.757961 1_556
Nd1 O5 2.324870 1_555
Nd1 O2 2.324877 1_555
Nd1 O7 2.482037 1_555
Nd1 O10 2.482047 1_555
Nd1 O4 2.515630 1_545
Nd1 O1 2.515634 1_545
Nd1 O8 2.634813 1_555
Nd2 O2 2.324870 1_566
Nd2 O5 2.324877 1_566
Nd2 O0 2.482037 1_555
Nd2 O11 2.482047 1_555
Nd2 O6 2.515630 1_565
Nd2 O3 2.515634 1_565
Nd2 O9 2.634813 1_555
Nd3 O5 2.390434 1_565
Nd3 O2 2.390434 1_665
Nd3 O4 2.458688 1_555
Nd3 O1 2.458692 1_655
Nd3 O7 2.591288 1_555
Nd3 O10 2.591292 1_555
Nd3 O11 2.757962 1_554
Nd3 O0 2.757965 1_654
Mg0 O8 2.023524 1_555
Mg0 O9 2.023524 1_545
Mg0 O1 2.157937 1_545
Mg0 O3 2.157937 1_555
Mg0 O4 2.157940 1_545
Mg0 O6 2.157940 1_555
Nb0 O11 1.934055 1_555
Nb0 O0 1.934064 1_655
Nb0 O8 2.013846 1_555
Nb0 O3 2.150981 1_555
Nb0 O6 2.150982 1_555
Nb1 O10 1.934055 1_555
Nb1 O7 1.934064 1_455
Nb1 O9 2.013846 1_555
Nb1 O1 2.150981 1_555
Nb1 O4 2.150982 1_555
