# generated using pymatgen
data_V3Rh5
_symmetry_space_group_name_H-M   'P 1'
_cell_length_a   5.39326329
_cell_length_b   5.39326329
_cell_length_c   4.29389935
_cell_angle_alpha   90.00000000
_cell_angle_beta   90.00000000
_cell_angle_gamma   119.42841089
_symmetry_Int_Tables_number   1
_chemical_formula_structural   V3Rh5
_chemical_formula_sum   'V3 Rh5'
_cell_volume   108.78235144
_cell_formula_units_Z   1
loop_
 _symmetry_equiv_pos_site_id
 _symmetry_equiv_pos_as_xyz
  1  'x, y, z'
loop_
 _atom_site_type_symbol
 _atom_site_label
 _atom_site_symmetry_multiplicity
 _atom_site_fract_x
 _atom_site_fract_y
 _atom_site_fract_z
 _atom_site_occupancy
  V  V0  1  0.90922583  0.09077417  -0.00000000  1
  V  V1  1  0.58293241  0.41706759  0.50000000  1
  V  V2  1  0.08770132  0.91229868  0.50000000  1
  Rh  Rh0  1  0.41615259  0.58384741  -0.00000000  1
  Rh  Rh1  1  0.58955453  0.90989062  0.50000000  1
  Rh  Rh2  1  0.09010938  0.41044547  0.50000000  1
  Rh  Rh3  1  0.41381048  0.08948654  0.00000000  1
  Rh  Rh4  1  0.91051346  0.58618952  -0.00000000  1
loop_
_geom_bond_atom_site_label_1
_geom_bond_atom_site_label_2
_geom_bond_distance
_geom_bond_site_symmetry_2
Rh0 Rh2 2.638200 1_555
Rh0 Rh1 2.638200 1_554
Rh0 Rh2 2.638200 1_554
Rh0 Rh1 2.638200 1_555
Rh0 V1 2.650020 1_554
Rh0 V1 2.650020 1_555
Rh0 Rh4 2.660035 1_555
Rh0 Rh3 2.660035 1_555
Rh0 V0 2.720661 1_565
Rh0 V0 2.720661 1_455
Rh0 Rh3 2.733273 1_565
Rh0 Rh4 2.733273 1_455
Rh1 V0 2.623117 1_566
Rh1 V0 2.623117 1_565
Rh1 V1 2.640560 1_555
Rh1 V2 2.680280 1_655
Rh1 Rh3 2.710748 1_565
Rh1 Rh3 2.710748 1_566
Rh1 V2 2.713031 1_555
Rh1 Rh2 2.716877 1_555
Rh1 Rh2 2.722914 1_665
Rh1 V1 2.753063 1_565
Rh2 V0 2.623117 1_456
Rh2 V0 2.623117 1_455
Rh2 V1 2.640560 1_555
Rh2 V2 2.680280 1_545
Rh2 Rh4 2.710748 1_455
Rh2 Rh4 2.710748 1_456
Rh2 V2 2.713031 1_555
Rh2 V1 2.753063 1_455
Rh3 V2 2.639004 1_545
Rh3 V2 2.639004 1_544
Rh3 V1 2.641808 1_554
Rh3 V1 2.641808 1_555
Rh3 V0 2.668500 1_555
Rh3 Rh4 2.701961 1_555
Rh3 V0 2.724777 1_455
Rh3 Rh4 2.737831 1_445
Rh4 V2 2.639004 1_654
Rh4 V2 2.639004 1_655
Rh4 V1 2.641808 1_554
Rh4 V1 2.641808 1_555
Rh4 V0 2.668500 1_555
Rh4 V0 2.724777 1_565
