# generated using pymatgen
data_NaScP2O7
_symmetry_space_group_name_H-M   'P 1'
_cell_length_a   5.36276200
_cell_length_b   8.96783000
_cell_length_c   13.56626105
_cell_angle_alpha   64.19199083
_cell_angle_beta   90.00000000
_cell_angle_gamma   90.00000000
_symmetry_Int_Tables_number   1
_chemical_formula_structural   NaScP2O7
_chemical_formula_sum   'Na4 Sc4 P8 O28'
_cell_volume   587.35816771
_cell_formula_units_Z   4
loop_
 _symmetry_equiv_pos_site_id
 _symmetry_equiv_pos_as_xyz
  1  'x, y, z'
loop_
 _atom_site_type_symbol
 _atom_site_label
 _atom_site_symmetry_multiplicity
 _atom_site_fract_x
 _atom_site_fract_y
 _atom_site_fract_z
 _atom_site_occupancy
  Na  Na0  1  0.73104000  0.45073000  0.68981400  1
  Na  Na1  1  0.76896000  0.45073000  0.18981400  1
  Na  Na2  1  0.26896000  0.54927000  0.31018600  1
  Na  Na3  1  0.23104000  0.54927000  0.81018600  1
  Sc  Sc0  1  0.76161900  0.26011500  0.97252400  1
  Sc  Sc1  1  0.73838100  0.26011500  0.47252400  1
  Sc  Sc2  1  0.23838100  0.73988500  0.02747600  1
  Sc  Sc3  1  0.26161900  0.73988500  0.52747600  1
  P  P0  1  0.72381000  0.68105600  0.88352700  1
  P  P1  1  0.77619000  0.68105600  0.38352700  1
  P  P2  1  0.27619000  0.31894400  0.11647300  1
  P  P3  1  0.22381000  0.31894400  0.61647300  1
  P  P4  1  0.75405800  0.83171700  0.14701300  1
  P  P5  1  0.74594200  0.83171700  0.64701300  1
  P  P6  1  0.24594200  0.16828300  0.85298700  1
  P  P7  1  0.25405800  0.16828300  0.35298700  1
  O  O0  1  0.99522000  0.25474700  0.84690300  1
  O  O1  1  0.50478000  0.25474700  0.34690300  1
  O  O2  1  0.00478000  0.74525300  0.15309700  1
  O  O3  1  0.49522000  0.74525300  0.65309700  1
  O  O4  1  0.46199000  0.27220200  0.86522400  1
  O  O5  1  0.03801000  0.27220200  0.36522400  1
  O  O6  1  0.53801000  0.72779800  0.13477600  1
  O  O7  1  0.96199000  0.72779800  0.63477600  1
  O  O8  1  0.74578600  0.01143000  0.06364100  1
  O  O9  1  0.75421400  0.01143000  0.56364100  1
  O  O10  1  0.25421400  0.98857000  0.93635900  1
  O  O11  1  0.24578600  0.98857000  0.43635900  1
  O  O12  1  0.77284900  0.52396700  0.86734900  1
  O  O13  1  0.72715100  0.52396700  0.36734900  1
  O  O14  1  0.22715100  0.47603300  0.13265100  1
  O  O15  1  0.27284900  0.47603300  0.63265100  1
  O  O16  1  0.71891900  0.83464600  0.26522300  1
  O  O17  1  0.78108100  0.83464600  0.76522300  1
  O  O18  1  0.28108100  0.16535400  0.73477700  1
  O  O19  1  0.21891900  0.16535400  0.23477700  1
  O  O20  1  0.90526600  0.70223000  0.96217800  1
  O  O21  1  0.59473400  0.70223000  0.46217800  1
  O  O22  1  0.09473400  0.29777000  0.03782200  1
  O  O23  1  0.40526600  0.29777000  0.53782200  1
  O  O24  1  0.44975100  0.69101500  0.91230100  1
  O  O25  1  0.05024900  0.69101500  0.41230100  1
  O  O26  1  0.55024900  0.30898500  0.08769900  1
  O  O27  1  0.94975100  0.30898500  0.58769900  1
loop_
_geom_bond_atom_site_label_1
_geom_bond_atom_site_label_2
_geom_bond_distance
_geom_bond_site_symmetry_2
Na0 O0 2.525163 1_555
Na0 O27 2.538479 1_555
Na0 O15 2.556821 1_555
Na0 O7 2.578724 1_555
Na0 O4 2.643961 1_555
Na0 O12 2.767627 1_555
Na0 O3 2.770923 1_555
Na0 O15 2.990338 1_655
Na0 O21 3.015525 1_555
Na1 O1 2.525163 1_555
Na1 O26 2.538479 1_555
Na1 O14 2.556821 1_655
Na1 O6 2.578724 1_555
Na1 O5 2.643961 1_655
Na1 O13 2.767627 1_555
Na1 O2 2.770923 1_655
Na1 O14 2.990338 1_555
Na1 O20 3.015525 1_554
Na2 O2 2.525163 1_555
Na2 O25 2.538479 1_555
Na2 O13 2.556821 1_555
Na2 O5 2.578724 1_555
Na2 O6 2.643961 1_555
Na2 O14 2.767627 1_555
Na2 O1 2.770923 1_555
Na2 O13 2.990338 1_455
Na2 O23 3.015525 1_555
Na3 O3 2.525163 1_555
Na3 O24 2.538479 1_555
Na3 O12 2.556821 1_455
Na3 O4 2.578724 1_555
Na3 O7 2.643961 1_455
Na3 O15 2.767627 1_555
Na3 O0 2.770923 1_455
Na3 O12 2.990338 1_555
Na3 O22 3.015525 1_556
O0 P6 1.536285 1_655
O0 Sc0 2.132474 1_555
O1 P7 1.536285 1_555
O1 Sc1 2.132474 1_555
O2 P4 1.536285 1_455
O2 Sc2 2.132474 1_555
O3 P5 1.536285 1_555
O3 Sc3 2.132474 1_555
O4 P6 1.540501 1_555
O4 Sc0 2.138981 1_555
O5 P7 1.540501 1_555
O5 Sc1 2.138981 1_455
O6 P4 1.540501 1_555
O6 Sc2 2.138981 1_555
O7 P5 1.540501 1_555
O7 Sc3 2.138981 1_655
O8 P4 1.513749 1_545
O8 Sc0 2.026942 1_554
O9 P5 1.513749 1_545
O9 Sc1 2.026942 1_555
O10 P6 1.513749 1_565
O10 Sc2 2.026942 1_556
O11 P7 1.513749 1_565
O11 Sc3 2.026942 1_555
O12 P0 1.539841 1_555
O12 Sc0 2.167632 1_555
O13 P1 1.539841 1_555
O13 Sc1 2.167632 1_555
O14 P2 1.539841 1_555
O14 Sc2 2.167632 1_555
O15 P3 1.539841 1_555
O15 Sc3 2.167632 1_555
O16 P1 1.625582 1_555
O16 P4 1.626231 1_555
O17 P0 1.625582 1_555
O17 P5 1.626231 1_555
O18 P3 1.625582 1_555
O18 P6 1.626231 1_555
O19 P2 1.625582 1_555
O19 P7 1.626231 1_555
O20 P0 1.515880 1_555
O20 Sc2 2.085787 1_656
O21 P1 1.515880 1_555
O21 Sc3 2.085787 1_555
O22 P2 1.515880 1_555
O22 Sc0 2.085787 1_454
O23 P3 1.515880 1_555
O23 Sc1 2.085787 1_555
O24 P0 1.533221 1_555
O24 Sc2 2.124755 1_556
O25 P1 1.533221 1_455
O25 Sc3 2.124755 1_555
O26 P2 1.533221 1_555
O26 Sc0 2.124755 1_554
O27 P3 1.533221 1_655
O27 Sc1 2.124755 1_555
