# generated using pymatgen
data_Al14(CuSe8)3
_symmetry_space_group_name_H-M   'P 1'
_cell_length_a   7.46974539
_cell_length_b   7.46974539
_cell_length_c   18.45657322
_cell_angle_alpha   89.88327385
_cell_angle_beta   89.88327385
_cell_angle_gamma   60.28430617
_symmetry_Int_Tables_number   1
_chemical_formula_structural   Al14(CuSe8)3
_chemical_formula_sum   'Al14 Cu3 Se24'
_cell_volume   894.39460449
_cell_formula_units_Z   1
loop_
 _symmetry_equiv_pos_site_id
 _symmetry_equiv_pos_as_xyz
  1  'x, y, z'
loop_
 _atom_site_type_symbol
 _atom_site_label
 _atom_site_symmetry_multiplicity
 _atom_site_fract_x
 _atom_site_fract_y
 _atom_site_fract_z
 _atom_site_occupancy
  Al  Al0  1  0.67205000  0.67205000  0.08399200  1
  Al  Al1  1  0.33528500  0.33528500  0.41442800  1
  Al  Al2  1  0.00025100  0.00025100  0.74967400  1
  Al  Al3  1  0.15977600  0.68080900  0.20952400  1
  Al  Al4  1  0.82539300  0.34911600  0.54359100  1
  Al  Al5  1  0.49185400  0.01624900  0.87742200  1
  Al  Al6  1  0.33149600  0.33149600  0.03866200  1
  Al  Al7  1  0.00165300  0.00165300  0.36795600  1
  Al  Al8  1  0.66667100  0.66667100  0.70180200  1
  Al  Al9  1  0.68080900  0.15977600  0.20952400  1
  Al  Al10  1  0.34911600  0.82539300  0.54359100  1
  Al  Al11  1  0.01624900  0.49185400  0.87742200  1
  Al  Al12  1  0.82544600  0.82544600  0.54362900  1
  Al  Al13  1  0.49178900  0.49178900  0.87751400  1
  Cu  Cu0  1  0.99970900  0.99970900  0.00166600  1
  Cu  Cu1  1  0.66419800  0.66419800  0.33249000  1
  Cu  Cu2  1  0.33316600  0.33316600  0.66682800  1
  Se  Se0  1  0.48892300  0.48892300  0.12767700  1
  Se  Se1  1  0.15520800  0.15520800  0.46170600  1
  Se  Se2  1  0.82167700  0.82167700  0.79440300  1
  Se  Se3  1  0.02178300  0.48834400  0.12759500  1
  Se  Se4  1  0.69129400  0.15365900  0.46216300  1
  Se  Se5  1  0.35651500  0.82175300  0.79426500  1
  Se  Se6  1  0.33289300  0.33289300  0.28425800  1
  Se  Se7  1  0.00008700  0.00008700  0.61677400  1
  Se  Se8  1  0.66616200  0.66616200  0.94837300  1
  Se  Se9  1  0.48834400  0.02178300  0.12759500  1
  Se  Se10  1  0.15365900  0.69129400  0.46216300  1
  Se  Se11  1  0.82175300  0.35651500  0.79426500  1
  Se  Se12  1  0.84171700  0.31682300  0.28929900  1
  Se  Se13  1  0.50831300  0.98350100  0.62293800  1
  Se  Se14  1  0.17618200  0.64949800  0.95629300  1
  Se  Se15  1  0.99904600  0.99904600  0.13029300  1
  Se  Se16  1  0.66704000  0.66704000  0.46455100  1
  Se  Se17  1  0.33329200  0.33329200  0.79775800  1
  Se  Se18  1  0.31682300  0.84171700  0.28929900  1
  Se  Se19  1  0.98350100  0.50831300  0.62293800  1
  Se  Se20  1  0.64949800  0.17618200  0.95629300  1
  Se  Se21  1  0.84157000  0.84157000  0.29015000  1
  Se  Se22  1  0.50822600  0.50822600  0.62281100  1
  Se  Se23  1  0.17438800  0.17438800  0.95572400  1
loop_
_geom_bond_atom_site_label_1
_geom_bond_atom_site_label_2
_geom_bond_distance
_geom_bond_site_symmetry_2
Al0 Se9 2.409453 1_565
Al0 Se3 2.409453 1_655
Al0 Se0 2.497706 1_555
Al0 Se8 2.504397 1_554
Al1 Se6 2.402764 1_555
Al1 Se10 2.473168 1_555
Al1 Se4 2.473168 1_555
Al1 Se1 2.482820 1_555
Al2 Se2 2.448494 1_445
Al2 Se7 2.452884 1_555
Al2 Se5 2.454347 1_545
Al2 Se11 2.454347 1_455
Al3 Se15 2.528685 1_455
Al3 Se18 2.529985 1_555
Al3 Se21 2.543477 1_455
Al3 Se0 2.623223 1_555
Al3 Se3 2.626835 1_555
Al3 Se6 2.643800 1_555
Al4 Se19 2.521923 1_555
Al4 Se22 2.522839 1_555
Al4 Se16 2.524882 1_555
Al4 Se4 2.618899 1_555
Al4 Se1 2.628229 1_655
Al4 Se7 2.635238 1_655
Al5 Se23 2.514618 1_555
Al5 Se20 2.518260 1_555
Al5 Se17 2.526913 1_555
Al5 Se8 2.620317 1_545
Al5 Se5 2.638152 1_545
Al5 Se2 2.640780 1_545
Al6 Se23 2.545131 1_554
Al6 Se20 2.561246 1_554
Al6 Se14 2.561246 1_554
Al6 Se3 2.593113 1_555
Al6 Se9 2.593113 1_555
Al6 Se0 2.617538 1_555
Al7 Se12 2.506399 1_455
Al7 Se18 2.506399 1_545
Al7 Se21 2.520623 1_445
Al7 Se1 2.635478 1_555
Al7 Se4 2.658749 1_455
Al7 Se10 2.658749 1_545
Al8 Se22 2.515912 1_555
Al8 Se19 2.517233 1_555
Al8 Se13 2.517233 1_555
Al8 Se2 2.635809 1_555
Al8 Se5 2.636851 1_555
Al8 Se11 2.636851 1_555
Al9 Se15 2.528685 1_545
Al9 Se12 2.529985 1_555
Al9 Se21 2.543477 1_545
Al9 Se0 2.623223 1_555
Al9 Se9 2.626835 1_555
Al9 Se6 2.643800 1_555
Al10 Se13 2.521923 1_555
Al10 Se22 2.522839 1_555
Al10 Se16 2.524882 1_555
Al10 Se10 2.618899 1_555
Al10 Se1 2.628229 1_565
Al10 Se7 2.635238 1_565
Al11 Se23 2.514618 1_555
Al11 Se14 2.518260 1_555
Al11 Se17 2.526913 1_555
Al11 Se8 2.620317 1_455
Al11 Se11 2.638152 1_455
Al11 Se2 2.640780 1_455
Al12 Se16 2.516436 1_555
Al12 Se13 2.523570 1_555
Al12 Se19 2.523570 1_555
Al12 Se4 2.613637 1_565
Al12 Se10 2.613637 1_655
Al12 Se7 2.632027 1_665
Al13 Se14 2.509855 1_555
Al13 Se20 2.509855 1_555
Al13 Se17 2.524693 1_555
Al13 Se8 2.607556 1_555
Al13 Se11 2.641707 1_555
Al13 Se5 2.641707 1_555
Cu0 Se15 2.374009 1_555
Cu0 Se23 2.408918 1_664
Cu0 Se20 2.422404 1_564
Cu0 Se14 2.422404 1_654
Cu1 Se18 2.391603 1_555
Cu1 Se12 2.391603 1_555
Cu1 Se21 2.419378 1_555
Cu1 Se16 2.437757 1_555
Cu2 Se22 2.401353 1_555
Cu2 Se19 2.409661 1_455
Cu2 Se13 2.409661 1_545
Cu2 Se17 2.416524 1_555
