# generated using pymatgen
data_Li4MnCo2O7
_symmetry_space_group_name_H-M   'P 1'
_cell_length_a   2.97488937
_cell_length_b   2.97488937
_cell_length_c   34.44203864
_cell_angle_alpha   86.27741402
_cell_angle_beta   86.27741402
_cell_angle_gamma   57.21779902
_symmetry_Int_Tables_number   1
_chemical_formula_structural   Li4MnCo2O7
_chemical_formula_sum   'Li8 Mn2 Co4 O14'
_cell_volume   255.56338258
_cell_formula_units_Z   2
loop_
 _symmetry_equiv_pos_site_id
 _symmetry_equiv_pos_as_xyz
  1  'x, y, z'
loop_
 _atom_site_type_symbol
 _atom_site_label
 _atom_site_symmetry_multiplicity
 _atom_site_fract_x
 _atom_site_fract_y
 _atom_site_fract_z
 _atom_site_occupancy
  Li  Li0  1  0.72423700  0.72423700  0.92466000  1
  Li  Li1  1  0.13598400  0.13598400  0.78746700  1
  Li  Li2  1  0.57089200  0.57089200  0.64320100  1
  Li  Li3  1  0.99811700  0.99811700  0.50174800  1
  Li  Li4  1  0.43026100  0.43026100  0.35561400  1
  Li  Li5  1  0.85715400  0.85715400  0.21433900  1
  Li  Li6  1  0.28390500  0.28390500  0.07313800  1
  Li  Li7  1  0.42768000  0.42768000  0.85700400  1
  Mn  Mn0  1  0.00218300  0.00218300  0.00051000  1
  Mn  Mn1  1  0.71426400  0.71426400  0.42859900  1
  Co  Co0  1  0.85485500  0.85485500  0.71372400  1
  Co  Co1  1  0.28487100  0.28487100  0.57192200  1
  Co  Co2  1  0.14330900  0.14330900  0.28516100  1
  Co  Co3  1  0.57108000  0.57108000  0.14345400  1
  O  O0  1  0.36989800  0.36989800  0.96960900  1
  O  O1  1  0.78719800  0.78719800  0.81976000  1
  O  O2  1  0.22730800  0.22730800  0.68253400  1
  O  O3  1  0.64278400  0.64278400  0.53813500  1
  O  O4  1  0.09331700  0.09331700  0.39571100  1
  O  O5  1  0.49956800  0.49956800  0.25208600  1
  O  O6  1  0.92808200  0.92808200  0.10959200  1
  O  O7  1  0.06956500  0.06956500  0.89352600  1
  O  O8  1  0.48990300  0.48990300  0.74310400  1
  O  O9  1  0.93004700  0.93004700  0.60527700  1
  O  O10  1  0.33563600  0.33563600  0.46140000  1
  O  O11  1  0.78577500  0.78577500  0.31896900  1
  O  O12  1  0.21517000  0.21517000  0.17655600  1
  O  O13  1  0.62695500  0.62695500  0.03319800  1
loop_
_geom_bond_atom_site_label_1
_geom_bond_atom_site_label_2
_geom_bond_distance
_geom_bond_site_symmetry_2
Li0 O7 1.989927 1_565
Li0 O7 1.989927 1_655
Li0 O7 2.029131 1_665
Li0 O0 2.275722 1_565
Li0 O0 2.275722 1_655
Li0 O0 2.323472 1_555
Li1 O1 2.004982 1_455
Li1 O1 2.004982 1_545
Li1 O1 2.063115 1_445
Li1 O8 2.262387 1_545
Li1 O8 2.262387 1_455
Li1 O8 2.309619 1_555
Li2 O9 2.102037 1_455
Li2 O9 2.102037 1_545
Li2 O2 2.166922 1_655
Li2 O2 2.166922 1_565
Li2 O2 2.167129 1_555
Li2 O9 2.205228 1_555
Li3 O3 2.076242 1_565
Li3 O3 2.076242 1_655
Li3 O3 2.161349 1_555
Li3 O10 2.162617 1_665
Li3 O10 2.203406 1_565
Li3 O10 2.203406 1_655
Li4 O11 2.081471 1_545
Li4 O11 2.081471 1_455
Li4 O4 2.155284 1_555
Li4 O11 2.166720 1_555
Li4 O4 2.199018 1_655
Li4 O4 2.199018 1_565
Li5 O12 2.101262 1_565
Li5 O12 2.101262 1_655
Li5 O5 2.101359 1_655
Li5 O5 2.101359 1_565
Li5 O5 2.195388 1_555
Li5 O12 2.197857 1_665
Li6 O6 2.076654 1_455
Li6 O6 2.076654 1_545
Li6 O6 2.164628 1_445
Li6 O13 2.176819 1_555
Li6 O13 2.181809 1_455
Li6 O13 2.181809 1_545
Li7 O7 2.073288 1_655
Li7 O7 2.073288 1_565
Li7 O1 2.086200 1_545
Li7 O1 2.086200 1_455
Li7 O7 2.175609 1_555
Li7 O1 2.194460 1_555
Mn0 O0 1.935982 1_544
Mn0 O0 1.935982 1_454
Mn0 O13 1.957010 1_545
Mn0 O13 1.957010 1_455
Mn0 O0 2.125908 1_554
Mn0 O13 2.186905 1_445
Mn1 O10 1.952752 1_655
Mn1 O10 1.952752 1_565
Mn1 O4 1.953745 1_565
Mn1 O4 1.953745 1_655
Mn1 O10 2.203898 1_555
Mn1 O4 2.207143 1_665
Co0 O8 1.912124 1_565
Co0 O8 1.912124 1_655
Co0 O2 1.932048 1_655
Co0 O2 1.932048 1_565
Co0 O8 2.091060 1_555
Co0 O2 2.151672 1_665
Co1 O9 2.013143 1_545
Co1 O9 2.013143 1_455
Co1 O3 2.015399 1_545
Co1 O3 2.015399 1_455
Co1 O9 2.107093 1_445
Co1 O3 2.127784 1_555
Co2 O5 2.004251 1_545
Co2 O5 2.004251 1_455
Co2 O11 2.016651 1_545
Co2 O11 2.016651 1_455
Co2 O5 2.108791 1_555
Co2 O11 2.126474 1_445
Co3 O12 2.005566 1_565
Co3 O12 2.005566 1_655
Co3 O6 2.018921 1_545
Co3 O6 2.018921 1_455
Co3 O12 2.107697 1_555
Co3 O6 2.125046 1_555
