# generated using pymatgen
data_Lu5Ni2Bi
_symmetry_space_group_name_H-M   'P 1'
_cell_length_a   8.53577074
_cell_length_b   8.53574341
_cell_length_c   8.53599911
_cell_angle_alpha   128.70292060
_cell_angle_beta   128.70364954
_cell_angle_gamma   75.49207002
_symmetry_Int_Tables_number   1
_chemical_formula_structural   Lu5Ni2Bi
_chemical_formula_sum   'Lu10 Ni4 Bi2'
_cell_volume   368.54966747
_cell_formula_units_Z   2
loop_
 _symmetry_equiv_pos_site_id
 _symmetry_equiv_pos_as_xyz
  1  'x, y, z'
loop_
 _atom_site_type_symbol
 _atom_site_label
 _atom_site_symmetry_multiplicity
 _atom_site_fract_x
 _atom_site_fract_y
 _atom_site_fract_z
 _atom_site_occupancy
  Lu  Lu0  1  -0.00001690  -0.00003590  -0.00004403  1
  Lu  Lu1  1  0.49996504  0.49999880  0.99995814  1
  Lu  Lu2  1  0.78833693  0.28832966  0.81250045  1
  Lu  Lu3  1  0.21176838  0.71174772  0.18761750  1
  Lu  Lu4  1  0.47592182  0.97592707  0.18763554  1
  Lu  Lu5  1  0.28830763  0.47597379  0.49995705  1
  Lu  Lu6  1  0.02397289  0.21166684  0.49999161  1
  Lu  Lu7  1  0.52414343  0.02414989  0.81250908  1
  Lu  Lu8  1  0.71167877  0.52396953  0.49997809  1
  Lu  Lu9  1  0.97599154  0.78828537  0.49998220  1
  Ni  Ni0  1  0.13377420  0.63377567  0.76754919  1
  Ni  Ni1  1  0.86622123  0.36623370  0.23246978  1
  Ni  Ni2  1  0.63396142  0.86605820  0.50000274  1
  Ni  Ni3  1  0.36601291  0.13395119  0.49996166  1
  Bi  Bi0  1  0.24995273  0.24999589  -0.00004662  1
  Bi  Bi1  1  0.75000699  0.74997358  -0.00002337  1
loop_
_geom_bond_atom_site_label_1
_geom_bond_atom_site_label_2
_geom_bond_distance
_geom_bond_site_symmetry_2
Lu0 Ni2 2.880077 1_444
Lu0 Ni3 2.880165 1_555
Lu0 Ni0 2.880966 1_544
Lu0 Ni1 2.881447 1_455
Lu1 Ni3 2.880263 1_555
Lu1 Ni2 2.880419 1_556
Lu1 Ni0 2.880889 1_555
Lu1 Ni1 2.881369 1_556
Lu2 Ni2 2.793502 1_545
Lu2 Ni3 2.793806 1_555
Lu2 Ni1 2.827596 1_556
Lu3 Ni2 2.792977 1_555
Lu3 Ni3 2.793002 1_565
Lu3 Ni0 2.827662 1_554
Lu4 Ni2 2.793528 1_555
Lu4 Ni3 2.793554 1_565
Lu4 Ni0 2.827930 1_554
Lu5 Ni1 2.792804 1_455
Lu5 Ni0 2.793175 1_555
Lu5 Ni3 2.827165 1_555
Lu6 Ni0 2.792939 1_555
Lu6 Ni1 2.792971 1_455
Lu6 Ni3 2.827425 1_555
Lu7 Ni2 2.794136 1_545
Lu7 Ni3 2.794233 1_555
Lu7 Ni1 2.827371 1_556
Lu8 Ni1 2.792744 1_555
Lu8 Ni0 2.792812 1_655
Lu8 Ni2 2.827587 1_555
Lu9 Ni1 2.792556 1_555
Lu9 Ni0 2.792824 1_655
Lu9 Ni2 2.827291 1_555
Bi0 Lu6 3.211869 1_554
Bi0 Lu9 3.211986 1_444
Bi0 Lu2 3.212016 1_454
Bi0 Lu5 3.212084 1_555
Bi0 Lu8 3.212118 1_555
Bi0 Lu7 3.212353 1_554
Bi0 Lu3 3.212554 1_555
Bi0 Lu4 3.212687 1_545
Bi0 Lu0 3.374775 1_555
Bi0 Lu1 3.374818 1_554
Bi1 Lu6 3.211949 1_665
Bi1 Lu5 3.212027 1_554
Bi1 Lu8 3.212131 1_554
Bi1 Lu2 3.212195 1_554
Bi1 Lu9 3.212278 1_555
Bi1 Lu7 3.212348 1_564
Bi1 Lu3 3.212695 1_655
Bi1 Lu4 3.212709 1_555
Bi1 Lu0 3.374662 1_665
Bi1 Lu1 3.374736 1_554
