# generated using pymatgen
data_Sc2Nb3Ge4
_symmetry_space_group_name_H-M   'P 1'
_cell_length_a   6.78029900
_cell_length_b   7.00624100
_cell_length_c   13.34818000
_cell_angle_alpha   90.00000000
_cell_angle_beta   90.00000000
_cell_angle_gamma   90.00000000
_symmetry_Int_Tables_number   1
_chemical_formula_structural   Sc2Nb3Ge4
_chemical_formula_sum   'Sc8 Nb12 Ge16'
_cell_volume   634.09740007
_cell_formula_units_Z   4
loop_
 _symmetry_equiv_pos_site_id
 _symmetry_equiv_pos_as_xyz
  1  'x, y, z'
loop_
 _atom_site_type_symbol
 _atom_site_label
 _atom_site_symmetry_multiplicity
 _atom_site_fract_x
 _atom_site_fract_y
 _atom_site_fract_z
 _atom_site_occupancy
  Sc  Sc0  1  0.34326600  0.33344100  0.62440800  1
  Sc  Sc1  1  0.65673400  0.66655900  0.37559200  1
  Sc  Sc2  1  0.15673400  0.83344100  0.37559200  1
  Sc  Sc3  1  0.65673400  0.66655900  0.12440800  1
  Sc  Sc4  1  0.84326600  0.16655900  0.62440800  1
  Sc  Sc5  1  0.34326600  0.33344100  0.87559200  1
  Sc  Sc6  1  0.84326600  0.16655900  0.87559200  1
  Sc  Sc7  1  0.15673400  0.83344100  0.12440800  1
  Nb  Nb0  1  0.16835200  0.99722200  0.75000000  1
  Nb  Nb1  1  0.83164800  0.00277800  0.25000000  1
  Nb  Nb2  1  0.33164800  0.49722200  0.25000000  1
  Nb  Nb3  1  0.66835200  0.50277800  0.75000000  1
  Nb  Nb4  1  0.00863900  0.67808800  0.59149500  1
  Nb  Nb5  1  0.99136100  0.32191200  0.40850500  1
  Nb  Nb6  1  0.49136100  0.17808800  0.40850500  1
  Nb  Nb7  1  0.99136100  0.32191200  0.09149500  1
  Nb  Nb8  1  0.50863900  0.82191200  0.59149500  1
  Nb  Nb9  1  0.00863900  0.67808800  0.90850500  1
  Nb  Nb10  1  0.50863900  0.82191200  0.90850500  1
  Nb  Nb11  1  0.49136100  0.17808800  0.09149500  1
  Ge  Ge0  1  0.18856800  0.03449500  0.54100800  1
  Ge  Ge1  1  0.81143200  0.96550500  0.45899200  1
  Ge  Ge2  1  0.31143200  0.53449500  0.45899200  1
  Ge  Ge3  1  0.81143200  0.96550500  0.04100800  1
  Ge  Ge4  1  0.68856800  0.46550500  0.54100800  1
  Ge  Ge5  1  0.18856800  0.03449500  0.95899200  1
  Ge  Ge6  1  0.68856800  0.46550500  0.95899200  1
  Ge  Ge7  1  0.31143200  0.53449500  0.04100800  1
  Ge  Ge8  1  0.03643600  0.39752100  0.75000000  1
  Ge  Ge9  1  0.96356400  0.60247900  0.25000000  1
  Ge  Ge10  1  0.46356400  0.89752100  0.25000000  1
  Ge  Ge11  1  0.53643600  0.10247900  0.75000000  1
  Ge  Ge12  1  0.30890800  0.65161400  0.75000000  1
  Ge  Ge13  1  0.69109200  0.34838600  0.25000000  1
  Ge  Ge14  1  0.19109200  0.15161400  0.25000000  1
  Ge  Ge15  1  0.80890800  0.84838600  0.75000000  1
loop_
_geom_bond_atom_site_label_1
_geom_bond_atom_site_label_2
_geom_bond_distance
_geom_bond_site_symmetry_2
Nb0 Sc6 3.012705 1_465
Nb0 Sc4 3.012705 1_465
Nb0 Sc5 3.125047 1_565
Nb0 Sc0 3.125047 1_565
Nb1 Sc2 3.012705 1_645
Nb1 Sc7 3.012705 1_645
Nb1 Sc1 3.125047 1_545
Nb1 Sc3 3.125047 1_545
Nb2 Sc1 3.012705 1_555
Nb2 Sc3 3.012705 1_555
Nb2 Sc2 3.125047 1_555
Nb2 Sc7 3.125047 1_555
Nb3 Sc5 3.012705 1_555
Nb3 Sc0 3.012705 1_555
Nb3 Sc6 3.125047 1_555
Nb3 Sc4 3.125047 1_555
Ge0 Sc0 2.593524 1_555
Ge0 Sc2 2.627948 1_545
Ge0 Nb8 2.717013 1_545
Ge0 Sc4 2.752614 1_455
Ge0 Nb0 2.805210 1_545
Ge0 Ge1 2.823275 1_445
Ge0 Nb4 2.859696 1_545
Ge0 Nb6 2.890546 1_555
Ge0 Nb5 2.995187 1_455
Ge1 Sc1 2.593524 1_555
Ge1 Sc4 2.627948 1_565
Ge1 Nb6 2.717013 1_565
Ge1 Sc2 2.752614 1_655
Ge1 Nb1 2.805210 1_565
Ge1 Nb5 2.859696 1_565
Ge1 Nb8 2.890546 1_555
Ge1 Nb4 2.995187 1_655
Ge2 Sc2 2.593524 1_555
Ge2 Sc0 2.627948 1_555
Ge2 Nb5 2.717013 1_455
Ge2 Sc1 2.752614 1_555
Ge2 Nb2 2.805210 1_555
Ge2 Ge4 2.823275 1_555
Ge2 Nb6 2.859696 1_555
Ge2 Nb4 2.890546 1_555
Ge2 Nb8 2.995187 1_555
Ge3 Sc3 2.593524 1_555
Ge3 Sc6 2.627948 1_564
Ge3 Nb11 2.717013 1_565
Ge3 Sc7 2.752614 1_655
Ge3 Nb1 2.805210 1_565
Ge3 Ge5 2.823275 1_664
Ge3 Nb7 2.859696 1_565
Ge3 Nb10 2.890546 1_554
Ge3 Nb9 2.995187 1_654
Ge4 Sc4 2.593524 1_555
Ge4 Sc1 2.627948 1_555
Ge4 Nb4 2.717013 1_655
Ge4 Sc0 2.752614 1_555
Ge4 Nb3 2.805210 1_555
Ge4 Nb8 2.859696 1_555
Ge4 Nb5 2.890546 1_555
Ge4 Nb6 2.995187 1_555
Ge5 Sc5 2.593524 1_555
Ge5 Sc7 2.627948 1_546
Ge5 Nb10 2.717013 1_545
Ge5 Sc6 2.752614 1_455
Ge5 Nb0 2.805210 1_545
Ge5 Nb9 2.859696 1_545
Ge5 Nb11 2.890546 1_556
Ge5 Nb7 2.995187 1_456
Ge6 Sc6 2.593524 1_555
Ge6 Sc3 2.627948 1_556
Ge6 Nb9 2.717013 1_655
Ge6 Sc5 2.752614 1_555
Ge6 Nb3 2.805210 1_555
Ge6 Ge7 2.823275 1_556
Ge6 Nb10 2.859696 1_555
Ge6 Nb7 2.890546 1_556
Ge6 Nb11 2.995187 1_556
Ge7 Sc7 2.593524 1_555
Ge7 Sc5 2.627948 1_554
Ge7 Nb7 2.717013 1_455
Ge7 Sc3 2.752614 1_555
Ge7 Nb2 2.805210 1_555
Ge7 Nb11 2.859696 1_555
Ge7 Nb9 2.890546 1_554
Ge7 Nb10 2.995187 1_554
Ge8 Nb3 2.602395 1_455
Ge8 Sc6 2.672889 1_455
Ge8 Sc4 2.672889 1_455
Ge8 Sc5 2.709248 1_555
Ge8 Sc0 2.709248 1_555
Ge8 Nb4 2.894130 1_555
Ge8 Nb9 2.894130 1_555
Ge8 Nb0 2.943762 1_545
Ge9 Nb2 2.602395 1_655
Ge9 Sc2 2.672889 1_655
Ge9 Sc7 2.672889 1_655
Ge9 Sc1 2.709248 1_555
Ge9 Sc3 2.709248 1_555
Ge9 Nb5 2.894130 1_555
Ge9 Nb7 2.894130 1_555
Ge9 Nb1 2.943762 1_565
Ge10 Ge14 2.565596 1_565
Ge10 Nb1 2.602395 1_565
Ge10 Sc1 2.672889 1_555
Ge10 Sc3 2.672889 1_555
Ge10 Sc2 2.709248 1_555
Ge10 Sc7 2.709248 1_555
Ge10 Nb6 2.894130 1_565
Ge10 Nb11 2.894130 1_565
Ge10 Nb2 2.943762 1_555
Ge11 Ge15 2.565596 1_545
Ge11 Nb0 2.602395 1_545
Ge11 Sc5 2.672889 1_555
Ge11 Sc0 2.672889 1_555
Ge11 Sc6 2.709248 1_555
Ge11 Sc4 2.709248 1_555
Ge11 Nb8 2.894130 1_545
Ge11 Nb10 2.894130 1_545
Ge11 Nb3 2.943762 1_555
Ge12 Ge8 2.565596 1_555
Ge12 Nb0 2.602205 1_555
Ge12 Nb3 2.650855 1_555
Ge12 Nb10 2.781002 1_555
Ge12 Nb8 2.781002 1_555
Ge12 Sc5 2.798926 1_555
Ge12 Sc0 2.798926 1_555
Ge12 Nb9 2.942067 1_555
Ge12 Nb4 2.942067 1_555
Ge13 Ge9 2.565596 1_555
Ge13 Nb1 2.602205 1_555
Ge13 Nb2 2.650855 1_555
Ge13 Nb6 2.781002 1_555
Ge13 Nb11 2.781002 1_555
Ge13 Sc1 2.798926 1_555
Ge13 Sc3 2.798926 1_555
Ge13 Nb5 2.942067 1_555
Ge13 Nb7 2.942067 1_555
Ge14 Nb2 2.602205 1_555
Ge14 Nb1 2.650855 1_455
Ge14 Nb5 2.781002 1_455
Ge14 Nb7 2.781002 1_455
Ge14 Sc2 2.798926 1_545
Ge14 Sc7 2.798926 1_545
Ge14 Nb6 2.942067 1_555
Ge14 Nb11 2.942067 1_555
Ge15 Nb3 2.602205 1_555
Ge15 Nb0 2.650855 1_655
Ge15 Nb9 2.781002 1_655
Ge15 Nb4 2.781002 1_655
Ge15 Sc6 2.798926 1_565
Ge15 Sc4 2.798926 1_565
Ge15 Nb10 2.942067 1_555
Ge15 Nb8 2.942067 1_555
