# generated using pymatgen
data_Li9Fe4(BO3)8
_symmetry_space_group_name_H-M   'P 1'
_cell_length_a   5.25444100
_cell_length_b   8.95329956
_cell_length_c   9.99408539
_cell_angle_alpha   89.99683757
_cell_angle_beta   92.65169355
_cell_angle_gamma   90.22585474
_symmetry_Int_Tables_number   1
_chemical_formula_structural   Li9Fe4(BO3)8
_chemical_formula_sum   'Li9 Fe4 B8 O24'
_cell_volume   469.66050120
_cell_formula_units_Z   1
loop_
 _symmetry_equiv_pos_site_id
 _symmetry_equiv_pos_as_xyz
  1  'x, y, z'
loop_
 _atom_site_type_symbol
 _atom_site_label
 _atom_site_symmetry_multiplicity
 _atom_site_fract_x
 _atom_site_fract_y
 _atom_site_fract_z
 _atom_site_occupancy
  Li  Li0  1  0.81887400  0.66436400  0.36631600  1
  Li  Li1  1  0.82802000  0.98978300  0.89507700  1
  Li  Li2  1  0.67869700  0.16584100  0.13371300  1
  Li  Li3  1  0.66957200  0.49094300  0.61370600  1
  Li  Li4  1  0.33249100  0.51088400  0.38862100  1
  Li  Li5  1  0.33296500  0.82737900  0.87684200  1
  Li  Li6  1  0.17012100  0.00798700  0.11644100  1
  Li  Li7  1  0.18202300  0.34766600  0.63211700  1
  Li  Li8  1  0.15552900  0.01881400  0.66323000  1
  Fe  Fe0  1  0.84921800  0.32808500  0.87368100  1
  Fe  Fe1  1  0.64776400  0.82197300  0.62474700  1
  Fe  Fe2  1  0.34740400  0.17203700  0.37663900  1
  Fe  Fe3  1  0.15031600  0.67173400  0.12617100  1
  B  B0  1  0.83189300  0.33082100  0.38492900  1
  B  B1  1  0.83497500  0.66432000  0.87050000  1
  B  B2  1  0.67195500  0.83242300  0.11840100  1
  B  B3  1  0.66069000  0.15982500  0.63222900  1
  B  B4  1  0.33338000  0.83577100  0.36812300  1
  B  B5  1  0.32981400  0.17170800  0.87619000  1
  B  B6  1  0.16743100  0.33502000  0.12877400  1
  B  B7  1  0.17098800  0.67535900  0.61790400  1
  O  O0  1  0.93016400  0.31216600  0.06673400  1
  O  O1  1  0.90757200  0.67158400  0.59571800  1
  O  O2  1  0.80806700  0.95794200  0.09390900  1
  O  O3  1  0.79271900  0.28859800  0.67149200  1
  O  O4  1  0.78949800  0.70155700  0.16224600  1
  O  O5  1  0.78205500  0.02320200  0.64705300  1
  O  O6  1  0.70636600  0.20080300  0.34324500  1
  O  O7  1  0.73485700  0.52575300  0.84603500  1
  O  O8  1  0.70317200  0.79089100  0.82562900  1
  O  O9  1  0.69669900  0.45669100  0.40664700  1
  O  O10  1  0.56841800  0.81268800  0.43156200  1
  O  O11  1  0.59117400  0.17275600  0.90245800  1
  O  O12  1  0.40869100  0.82939000  0.09627200  1
  O  O13  1  0.40956300  0.16772300  0.58038200  1
  O  O14  1  0.31316900  0.55298200  0.59585400  1
  O  O15  1  0.30001800  0.20834300  0.17173700  1
  O  O16  1  0.26630900  0.47386200  0.15366000  1
  O  O17  1  0.28089800  0.81203000  0.65931000  1
  O  O18  1  0.23013700  0.97399700  0.34696700  1
  O  O19  1  0.21143100  0.30539500  0.84141400  1
  O  O20  1  0.20151800  0.70822300  0.32436800  1
  O  O21  1  0.19479400  0.04103000  0.87922400  1
  O  O22  1  0.09511600  0.32724100  0.40626200  1
  O  O23  1  0.06984300  0.68667300  0.93494900  1
loop_
_geom_bond_atom_site_label_1
_geom_bond_atom_site_label_2
_geom_bond_distance
_geom_bond_site_symmetry_2
Li0 O10 2.003473 1_555
Li0 O9 2.011528 1_555
Li0 O4 2.065296 1_555
Li0 O20 2.108112 1_655
Li0 O1 2.319182 1_555
Li1 O21 1.992729 1_665
Li1 O8 2.007961 1_555
Li1 O2 2.014940 1_556
Li1 O11 2.064588 1_565
Li1 O5 2.497452 1_565
Li2 O0 1.994594 1_555
Li2 O2 2.029816 1_545
Li2 O15 2.079485 1_555
Li2 O6 2.115618 1_555
Li2 O11 2.336397 1_554
Li3 O14 1.955667 1_555
Li3 O3 2.002216 1_555
Li3 O1 2.053485 1_555
Li3 O9 2.103412 1_555
Li3 O7 2.351944 1_555
Li4 O9 1.976253 1_555
Li4 O20 1.994051 1_555
Li4 O22 2.072281 1_555
Li4 O14 2.112271 1_555
Li4 O16 2.380874 1_555
Li5 O23 1.973890 1_555
Li5 O21 2.049226 1_565
Li5 O8 2.061496 1_555
Li5 O17 2.182855 1_555
Li5 O12 2.210682 1_556
Li6 O2 1.955561 1_445
Li6 O15 1.986128 1_555
Li6 O12 2.051377 1_545
Li6 O18 2.330976 1_545
Li6 O21 2.398526 1_554
Li7 O14 1.999608 1_555
Li7 O13 2.089222 1_555
Li7 O19 2.124364 1_555
Li7 O3 2.164451 1_455
Li7 O22 2.289323 1_555
Li8 O5 1.962125 1_455
Li8 O17 1.968545 1_545
Li8 O13 2.081557 1_555
Li8 O21 2.168056 1_555
Fe0 O7 1.887463 1_555
Fe0 O19 1.956369 1_655
Fe0 O0 1.961701 1_556
Fe0 O11 1.968846 1_555
Fe0 O3 2.059143 1_555
Fe1 O5 1.941407 1_565
Fe1 O1 1.952428 1_555
Fe1 O10 1.957965 1_555
Fe1 O17 1.975711 1_555
Fe1 O8 2.034523 1_555
Fe2 O18 1.893692 1_545
Fe2 O6 1.946706 1_555
Fe2 O22 1.956217 1_555
Fe2 O13 2.047665 1_555
Fe2 O15 2.077152 1_555
Fe3 O16 1.891692 1_555
Fe3 O23 1.942831 1_554
Fe3 O4 1.965441 1_455
Fe3 O12 1.986767 1_555
Fe3 O20 2.013142 1_555
B0 O9 1.357336 1_555
B0 O6 1.390061 1_555
B0 O22 1.390138 1_655
B1 O7 1.363334 1_555
B1 O23 1.379293 1_655
B1 O8 1.393675 1_555
B2 O2 1.358011 1_555
B2 O4 1.388134 1_555
B2 O12 1.390891 1_555
B3 O5 1.386466 1_555
B3 O3 1.390354 1_555
B3 O13 1.397185 1_555
B4 O18 1.365740 1_555
B4 O10 1.378203 1_555
B4 O20 1.393259 1_555
B5 O21 1.366962 1_555
B5 O11 1.386182 1_555
B5 O19 1.387879 1_555
B6 O16 1.363839 1_555
B6 O0 1.380964 1_455
B6 O15 1.390888 1_555
B7 O14 1.352375 1_555
B7 O1 1.391864 1_455
B7 O17 1.405160 1_555
