# generated using pymatgen
data_MgCr3(SO4)6
_symmetry_space_group_name_H-M   'P 1'
_cell_length_a   8.89455473
_cell_length_b   9.14489690
_cell_length_c   8.91957541
_cell_angle_alpha   55.78118310
_cell_angle_beta   55.69434784
_cell_angle_gamma   55.10554517
_symmetry_Int_Tables_number   1
_chemical_formula_structural   MgCr3(SO4)6
_chemical_formula_sum   'Mg1 Cr3 S6 O24'
_cell_volume   459.70118019
_cell_formula_units_Z   1
loop_
 _symmetry_equiv_pos_site_id
 _symmetry_equiv_pos_as_xyz
  1  'x, y, z'
loop_
 _atom_site_type_symbol
 _atom_site_label
 _atom_site_symmetry_multiplicity
 _atom_site_fract_x
 _atom_site_fract_y
 _atom_site_fract_z
 _atom_site_occupancy
  Mg  Mg0  1  0.66360600  0.12333300  0.39755600  1
  Cr  Cr0  1  0.15152900  0.16081200  0.15695200  1
  Cr  Cr1  1  0.64329300  0.63676100  0.65118500  1
  Cr  Cr2  1  0.85583300  0.84252900  0.84278400  1
  S  S0  1  0.03063800  0.77575600  0.44784700  1
  S  S1  1  0.44974900  0.01903500  0.77321800  1
  S  S2  1  0.76905800  0.46225900  0.02823000  1
  S  S3  1  0.25689600  0.53135300  0.96194900  1
  S  S4  1  0.54992700  0.94329400  0.25600400  1
  S  S5  1  0.95505800  0.24992300  0.54403200  1
  O  O0  1  0.11560400  0.27725800  0.51523000  1
  O  O1  1  0.29444100  0.50074300  0.11780500  1
  O  O2  1  0.97499200  0.99539800  0.33426100  1
  O  O3  1  0.55752300  0.07783900  0.29011200  1
  O  O4  1  0.03516200  0.73031500  0.63556400  1
  O  O5  1  0.21346800  0.66863400  0.33823300  1
  O  O6  1  0.38681200  0.19917000  0.62209600  1
  O  O7  1  0.32883500  0.01180000  0.97397800  1
  O  O8  1  0.64510200  0.38233000  0.22562600  1
  O  O9  1  0.04957800  0.66491500  0.97766500  1
  O  O10  1  0.28993800  0.34271400  0.97661400  1
  O  O11  1  0.34348800  0.98852000  0.29434800  1
  O  O12  1  0.65841300  0.99906200  0.71471900  1
  O  O13  1  0.72996600  0.65360500  0.00568400  1
  O  O14  1  0.98023900  0.33492300  0.99538800  1
  O  O15  1  0.38800300  0.61051600  0.76362700  1
  O  O16  1  0.67335700  0.95780200  0.05103300  1
  O  O17  1  0.62054700  0.74532900  0.39088400  1
  O  O18  1  0.75745900  0.38291100  0.62757500  1
  O  O19  1  0.96421900  0.29049900  0.34915600  1
  O  O20  1  0.46543600  0.85845600  0.75493300  1
  O  O21  1  0.96575300  0.05041500  0.67280400  1
  O  O22  1  0.72251600  0.47654700  0.88394700  1
  O  O23  1  0.85137100  0.75734300  0.48820500  1
loop_
_geom_bond_atom_site_label_1
_geom_bond_atom_site_label_2
_geom_bond_distance
_geom_bond_site_symmetry_2
Mg0 O8 1.934417 1_555
Mg0 O3 1.974516 1_555
Mg0 O6 2.145700 1_555
Mg0 O2 2.152061 1_545
Mg0 O12 2.365063 1_545
Mg0 O23 2.593857 1_545
Cr0 O19 1.981878 1_455
Cr0 O10 1.992873 1_554
Cr0 O11 2.002141 1_545
Cr0 O14 2.012911 1_454
Cr0 O7 2.036891 1_554
Cr0 O2 2.117237 1_445
Cr1 O22 2.000047 1_555
Cr1 O15 2.001313 1_555
Cr1 O18 2.018974 1_555
Cr1 O17 2.030847 1_555
Cr1 O23 2.062497 1_555
Cr1 O20 2.063886 1_555
Cr2 O13 1.976220 1_556
Cr2 O4 1.987667 1_655
Cr2 O12 1.995830 1_555
Cr2 O9 1.997998 1_655
Cr2 O16 2.010527 1_556
Cr2 O21 2.020552 1_565
O0 S5 1.445784 1_455
O1 S3 1.449525 1_554
O2 S0 1.563628 1_655
O3 S4 1.466387 1_545
O4 S0 1.500677 1_555
O5 S0 1.422122 1_555
O6 S1 1.463578 1_555
O7 S1 1.464556 1_555
O8 S2 1.461607 1_555
O9 S3 1.495365 1_555
O10 S3 1.512903 1_555
O11 S4 1.497304 1_555
O12 S1 1.542068 1_565
O13 S2 1.486673 1_555
O14 S2 1.493621 1_556
O15 S3 1.487769 1_555
O16 S4 1.482141 1_555
O17 S4 1.490140 1_555
O18 S5 1.490219 1_555
O19 S5 1.521586 1_555
O20 S1 1.487208 1_565
O21 S5 1.491545 1_555
O22 S2 1.481278 1_556
O23 S0 1.514061 1_655
