# generated using pymatgen
data_Mg2Si3
_symmetry_space_group_name_H-M   'P 1'
_cell_length_a   4.66194200
_cell_length_b   5.61420898
_cell_length_c   14.88664479
_cell_angle_alpha   99.77837652
_cell_angle_beta   97.61939209
_cell_angle_gamma   94.49404452
_symmetry_Int_Tables_number   1
_chemical_formula_structural   Mg2Si3
_chemical_formula_sum   'Mg8 Si12'
_cell_volume   378.54424201
_cell_formula_units_Z   4
loop_
 _symmetry_equiv_pos_site_id
 _symmetry_equiv_pos_as_xyz
  1  'x, y, z'
loop_
 _atom_site_type_symbol
 _atom_site_label
 _atom_site_symmetry_multiplicity
 _atom_site_fract_x
 _atom_site_fract_y
 _atom_site_fract_z
 _atom_site_occupancy
  Mg  Mg0  1  0.84062000  0.32268500  0.84264300  1
  Mg  Mg1  1  0.44809400  0.89602700  0.22365800  1
  Mg  Mg2  1  0.45729600  0.73956400  0.92457700  1
  Mg  Mg3  1  0.00548600  0.05006000  0.00084300  1
  Mg  Mg4  1  0.60591900  0.43222400  0.27231300  1
  Mg  Mg5  1  0.24817300  0.53983500  0.70969500  1
  Mg  Mg6  1  0.26467000  0.24391100  0.40702400  1
  Mg  Mg7  1  0.85914200  0.55134600  0.50980300  1
  Si  Si0  1  0.50811900  0.33689100  0.00292400  1
  Si  Si1  1  0.84440800  0.71561200  0.09228700  1
  Si  Si2  1  0.93457400  0.81859700  0.82025900  1
  Si  Si3  1  0.20414400  0.45055700  0.12545500  1
  Si  Si4  1  0.75587000  0.98284300  0.41710500  1
  Si  Si5  1  0.65958300  0.86744200  0.66731200  1
  Si  Si6  1  0.39026300  0.81466600  0.50322700  1
  Si  Si7  1  0.03961900  0.07063900  0.58509600  1
  Si  Si8  1  0.11012900  0.69975000  0.35211000  1
  Si  Si9  1  0.56990600  0.25626400  0.60165000  1
  Si  Si10  1  0.27294000  0.07956200  0.74476900  1
  Si  Si11  1  0.98138900  0.13156700  0.19734100  1
loop_
_geom_bond_atom_site_label_1
_geom_bond_atom_site_label_2
_geom_bond_distance
_geom_bond_site_symmetry_2
Mg0 Si2 2.866554 1_555
Mg0 Si2 2.867880 1_545
Mg0 Si10 2.929558 1_655
Mg0 Si10 2.953933 1_555
Mg0 Si0 3.006316 1_556
Mg1 Si11 2.652708 1_465
Mg1 Si3 2.748975 1_555
Mg1 Si11 2.828842 1_565
Mg1 Si8 2.931878 1_555
Mg1 Si1 2.973684 1_555
Mg1 Si4 2.984513 1_555
Mg1 Si1 3.192495 1_455
Mg1 Mg6 3.326689 1_565
Mg2 Si0 2.726435 1_556
Mg2 Si2 2.819032 1_455
Mg2 Si1 2.909544 1_556
Mg2 Si2 2.924889 1_555
Mg3 Si1 2.619348 1_445
Mg3 Si3 2.675044 1_555
Mg3 Si0 2.730823 1_555
Mg3 Si2 2.745038 1_444
Mg3 Si11 2.901605 1_455
Mg3 Si0 2.925357 1_455
Mg4 Si8 2.700464 1_655
Mg4 Si3 2.705407 1_555
Mg4 Si11 2.738606 1_555
Mg4 Mg6 2.995475 1_555
Mg4 Si8 3.110527 1_555
Mg4 Si11 3.209361 1_455
Mg5 Si2 2.723504 1_455
Mg5 Si10 2.729915 1_555
Mg5 Si9 2.741433 1_555
Mg5 Si5 2.760764 1_555
Mg5 Si7 2.964015 1_555
Mg5 Si10 2.976487 1_565
Mg6 Si4 2.724229 1_445
Mg6 Si4 2.814992 1_545
Mg6 Si8 2.929183 1_555
Mg6 Si8 3.028390 1_545
Mg6 Si9 3.040919 1_555
Mg6 Mg7 3.045599 1_455
Mg6 Si6 3.061436 1_545
Mg6 Si11 3.161179 1_455
Mg6 Mg7 3.198376 1_555
Mg6 Si7 3.244666 1_555
Mg6 Si6 3.253683 1_555
Mg7 Si9 2.709322 1_555
Mg7 Si6 2.733491 1_555
Mg7 Si6 2.804587 1_655
Mg7 Si7 2.952869 1_665
Mg7 Si8 2.968859 1_655
Mg7 Si5 2.989415 1_555
Mg7 Si4 3.024365 1_555
Mg7 Si7 3.221950 1_655
Mg7 Si4 3.226444 1_545
Si0 Si3 2.484854 1_555
Si0 Si1 2.590787 1_555
Si1 Si3 2.385749 1_655
Si1 Si11 2.562802 1_565
Si2 Si5 2.529023 1_555
Si4 Si6 2.485709 1_555
Si4 Si8 2.549999 1_655
Si4 Si7 2.617016 1_665
Si5 Si6 2.552143 1_555
Si5 Si9 2.579705 1_565
Si5 Si7 2.582806 1_665
Si6 Si8 2.403846 1_555
Si6 Si7 2.554271 1_565
Si6 Si9 2.666467 1_565
Si7 Si9 2.520988 1_455
Si7 Si9 2.570187 1_555
Si10 Si7 2.470049 1_555
Si10 Si5 2.533366 1_545
Si10 Si2 2.562221 1_445
Si11 Si3 2.466800 1_655
