# generated using pymatgen
data_Np(PS3)4
_symmetry_space_group_name_H-M   'P 1'
_cell_length_a   10.51611265
_cell_length_b   10.51610052
_cell_length_c   10.51607988
_cell_angle_alpha   102.66674026
_cell_angle_beta   102.66665651
_cell_angle_gamma   124.15559053
_symmetry_Int_Tables_number   1
_chemical_formula_structural   Np(PS3)4
_chemical_formula_sum   'Np2 P8 S24'
_cell_volume   850.33107222
_cell_formula_units_Z   2
loop_
 _symmetry_equiv_pos_site_id
 _symmetry_equiv_pos_as_xyz
  1  'x, y, z'
loop_
 _atom_site_type_symbol
 _atom_site_label
 _atom_site_symmetry_multiplicity
 _atom_site_fract_x
 _atom_site_fract_y
 _atom_site_fract_z
 _atom_site_occupancy
  Np  Np0  1  0.50000031  0.50000020  0.00000056  1
  Np  Np1  1  0.74999949  0.25000037  0.50000030  1
  P  P0  1  0.93938223  0.76199987  0.19011831  1
  P  P1  1  0.57188223  0.74926489  0.80988278  1
  P  P2  1  0.99914115  0.68945698  0.67725594  1
  P  P3  1  0.01220224  0.32188641  0.32274439  1
  P  P4  1  0.31054178  0.98779761  0.30968224  1
  P  P5  1  0.67811355  0.00085787  0.69031607  1
  P  P6  1  0.25073395  0.06061704  0.82261607  1
  P  P7  1  0.23800101  0.42811723  0.17738396  1
  S  S0  1  0.98719560  0.88148980  0.76665924  1
  S  S1  1  0.11482895  0.22053522  0.23334029  1
  S  S2  1  0.47058512  0.73731915  0.60593164  1
  S  S3  1  0.13139041  0.86465485  0.39406891  1
  S  S4  1  0.26268109  0.86861199  0.73326635  1
  S  S5  1  0.13534643  0.52941532  0.26673379  1
  S  S6  1  0.77946569  0.01280498  0.89429448  1
  S  S7  1  0.11850846  0.88516938  0.10570481  1
  S  S8  1  0.85577500  0.55507107  0.46664798  1
  S  S9  1  0.08842094  0.38912102  0.53335097  1
  S  S10  1  0.63888211  0.60566564  0.80058508  1
  S  S11  1  0.80508078  0.83829736  0.19941625  1
  S  S12  1  0.39433428  0.19491878  0.03321736  1
  S  S13  1  0.16170233  0.36111711  0.96678297  1
  S  S14  1  0.61087981  0.14422985  0.69930049  1
  S  S15  1  0.44492960  0.91157962  0.30069943  1
  S  S16  1  0.78001524  0.51003955  0.08693631  1
  S  S17  1  0.42310407  0.69307979  0.91306480  1
  S  S18  1  0.94293985  0.53009218  0.76988438  1
  S  S19  1  0.76020907  0.17306072  0.23011897  1
  S  S20  1  0.46990952  0.23979153  0.41284848  1
  S  S21  1  0.82693644  0.05705592  0.58714595  1
  S  S22  1  0.30692087  0.21998486  0.73002413  1
  S  S23  1  0.48996040  0.57689583  0.26997634  1
loop_
_geom_bond_atom_site_label_1
_geom_bond_atom_site_label_2
_geom_bond_distance
_geom_bond_site_symmetry_2
Np0 S23 2.818855 1_555
Np0 S22 2.818859 1_554
Np0 S16 2.818861 1_555
Np0 S17 2.818861 1_554
Np0 S10 2.882416 1_554
Np0 S11 2.882416 1_555
Np0 S13 2.882423 1_554
Np0 S12 2.882424 1_555
Np1 S19 2.818698 1_555
Np1 S21 2.818699 1_555
Np1 S20 2.818706 1_555
Np1 S18 2.818722 1_555
Np1 S14 2.882710 1_555
Np1 S15 2.882715 1_545
Np1 S8 2.882716 1_555
Np1 S9 2.882726 1_655
P0 S11 1.986604 1_555
P0 S16 1.990483 1_555
P0 S3 2.116647 1_655
P0 S7 2.124137 1_655
P1 S10 1.986605 1_555
P1 S17 1.990483 1_555
P1 S2 2.116639 1_555
P1 S6 2.124142 1_565
P2 S8 1.986425 1_555
P2 S18 1.990727 1_555
P2 S0 2.117032 1_555
P2 S4 2.124054 1_655
P3 S9 1.986421 1_555
P3 S19 1.990731 1_455
P3 S1 2.117027 1_555
P3 S5 2.124047 1_555
P4 S15 1.986419 1_555
P4 S20 1.990733 1_565
P4 S7 2.117030 1_555
P4 S3 2.124037 1_555
P5 S14 1.986419 1_555
P5 S21 1.990729 1_555
P5 S6 2.117031 1_555
P5 S2 2.124042 1_545
P6 S12 1.986619 1_556
P6 S22 1.990478 1_555
P6 S4 2.116644 1_545
P6 S0 2.124129 1_445
P7 S13 1.986617 1_554
P7 S23 1.990479 1_555
P7 S5 2.116647 1_555
P7 S1 2.124128 1_555
