# generated using pymatgen
data_La9Ni5S21
_symmetry_space_group_name_H-M   'P 1'
_cell_length_a   11.77082575
_cell_length_b   11.77082575
_cell_length_c   11.77082594
_cell_angle_alpha   100.40601208
_cell_angle_beta   100.40601208
_cell_angle_gamma   100.40601543
_symmetry_Int_Tables_number   1
_chemical_formula_structural   La9Ni5S21
_chemical_formula_sum   'La18 Ni10 S42'
_cell_volume   1538.85978986
_cell_formula_units_Z   2
loop_
 _symmetry_equiv_pos_site_id
 _symmetry_equiv_pos_as_xyz
  1  'x, y, z'
loop_
 _atom_site_type_symbol
 _atom_site_label
 _atom_site_symmetry_multiplicity
 _atom_site_fract_x
 _atom_site_fract_y
 _atom_site_fract_z
 _atom_site_occupancy
  La  La0  1  0.87613200  0.23550400  0.10347800  1
  La  La1  1  0.54039200  0.91016000  0.77253800  1
  La  La2  1  0.21408300  0.57291800  0.43786800  1
  La  La3  1  0.57291800  0.43786800  0.21408300  1
  La  La4  1  0.23550400  0.10347800  0.87613200  1
  La  La5  1  0.91016000  0.77253800  0.54039200  1
  La  La6  1  0.77253800  0.54039200  0.91016000  1
  La  La7  1  0.43786800  0.21408300  0.57291800  1
  La  La8  1  0.10347800  0.87613200  0.23550400  1
  La  La9  1  0.76584900  0.40992800  0.54100300  1
  La  La10  1  0.44027100  0.07195100  0.20931800  1
  La  La11  1  0.10176900  0.74511100  0.87741400  1
  La  La12  1  0.07195100  0.20931800  0.44027100  1
  La  La13  1  0.74511100  0.87741400  0.10176900  1
  La  La14  1  0.40992800  0.54100300  0.76584900  1
  La  La15  1  0.87741400  0.10176900  0.74511100  1
  La  La16  1  0.54100300  0.76584900  0.40992800  1
  La  La17  1  0.20931800  0.44027100  0.07195100  1
  Ni  Ni0  1  0.31392300  0.98412300  0.64798200  1
  Ni  Ni1  1  0.98412300  0.64798200  0.31392300  1
  Ni  Ni2  1  0.64798200  0.31392300  0.98412300  1
  Ni  Ni3  1  0.14819500  0.48252500  0.81222400  1
  Ni  Ni4  1  0.81222400  0.14819500  0.48252500  1
  Ni  Ni5  1  0.48252500  0.81222400  0.14819500  1
  Ni  Ni6  1  0.15389600  0.15389600  0.15389600  1
  Ni  Ni7  1  0.82983900  0.82983900  0.82983900  1
  Ni  Ni8  1  0.32971900  0.32971900  0.32971900  1
  Ni  Ni9  1  0.65403100  0.65403100  0.65403100  1
  S  S0  1  0.12753800  0.79168700  0.45464500  1
  S  S1  1  0.79168700  0.45464500  0.12753800  1
  S  S2  1  0.45464500  0.12753800  0.79168700  1
  S  S3  1  0.29226200  0.62721300  0.95376400  1
  S  S4  1  0.95376400  0.29226200  0.62721300  1
  S  S5  1  0.62721300  0.95376400  0.29226200  1
  S  S6  1  0.45223500  0.68385600  0.60092500  1
  S  S7  1  0.11888700  0.34077600  0.25950800  1
  S  S8  1  0.77700200  0.00771000  0.92255300  1
  S  S9  1  0.00771000  0.92255300  0.77700200  1
  S  S10  1  0.68385600  0.60092500  0.45223500  1
  S  S11  1  0.34077600  0.25950800  0.11888700  1
  S  S12  1  0.25950800  0.11888700  0.34077600  1
  S  S13  1  0.92255300  0.77700200  0.00771000  1
  S  S14  1  0.60092500  0.45223500  0.68385600  1
  S  S15  1  0.85892400  0.63986100  0.71955200  1
  S  S16  1  0.52678900  0.29768900  0.38271900  1
  S  S17  1  0.20455600  0.97585200  0.05663100  1
  S  S18  1  0.29768900  0.38271900  0.52678900  1
  S  S19  1  0.97585200  0.05663100  0.20455600  1
  S  S20  1  0.63986100  0.71955200  0.85892400  1
  S  S21  1  0.05663100  0.20455600  0.97585200  1
  S  S22  1  0.71955200  0.85892400  0.63986100  1
  S  S23  1  0.38271900  0.52678900  0.29768900  1
  S  S24  1  0.43314700  0.95850400  0.53013500  1
  S  S25  1  0.10011400  0.62053100  0.19690600  1
  S  S26  1  0.76829900  0.28550600  0.86872700  1
  S  S27  1  0.28550600  0.86872700  0.76829900  1
  S  S28  1  0.95850400  0.53013500  0.43314700  1
  S  S29  1  0.62053100  0.19690500  0.10011400  1
  S  S30  1  0.19690600  0.10011400  0.62053100  1
  S  S31  1  0.86872700  0.76829900  0.28550600  1
  S  S32  1  0.53013500  0.43314700  0.95850400  1
  S  S33  1  0.01228100  0.49629700  0.91132800  1
  S  S34  1  0.67778000  0.15983800  0.58429300  1
  S  S35  1  0.34554500  0.82419300  0.24954900  1
  S  S36  1  0.15983800  0.58429300  0.67778000  1
  S  S37  1  0.82419300  0.24954900  0.34554500  1
  S  S38  1  0.49629700  0.91132800  0.01228100  1
  S  S39  1  0.24954900  0.34554500  0.82419300  1
  S  S40  1  0.91132800  0.01228100  0.49629700  1
  S  S41  1  0.58429300  0.67778000  0.15983800  1
loop_
_geom_bond_atom_site_label_1
_geom_bond_atom_site_label_2
_geom_bond_distance
_geom_bond_site_symmetry_2
La0 S21 2.852791 1_654
La0 S1 2.913056 1_555
La0 S19 2.918837 1_555
La0 S29 2.952379 1_555
La0 S8 2.999280 1_554
La0 S37 3.002565 1_555
La0 S7 3.012717 1_655
La0 S26 3.030382 1_554
La1 S2 2.902298 1_565
La1 S8 2.920445 1_565
La1 S6 2.924629 1_555
La1 S22 2.925563 1_555
La1 S27 2.941124 1_555
La1 S38 2.958174 1_556
La1 S20 2.963379 1_555
La1 S24 3.098948 1_555
La2 S23 2.864688 1_555
La2 S18 2.889037 1_555
La2 S0 2.923092 1_555
La2 S28 2.947751 1_455
La2 S36 2.990994 1_555
La2 S6 3.012606 1_555
La2 S7 3.016879 1_555
La2 S25 3.103189 1_555
La3 S16 2.864688 1_555
La3 S23 2.889037 1_555
La3 S1 2.923092 1_555
La3 S32 2.947751 1_554
La3 S41 2.990994 1_555
La3 S10 3.012606 1_555
La3 S11 3.016879 1_555
La3 S29 3.103199 1_555
La4 S17 2.852791 1_546
La4 S2 2.913056 1_555
La4 S21 2.918837 1_555
La4 S30 2.952379 1_555
La4 S9 2.999280 1_545
La4 S39 3.002565 1_555
La4 S11 3.012717 1_556
La4 S27 3.030382 1_545
La5 S0 2.902297 1_655
La5 S9 2.920445 1_655
La5 S10 2.924629 1_555
La5 S15 2.925563 1_555
La5 S31 2.941124 1_555
La5 S40 2.958174 1_565
La5 S22 2.963379 1_555
La5 S28 3.098948 1_555
La6 S1 2.902298 1_556
La6 S13 2.920445 1_556
La6 S14 2.924629 1_555
La6 S20 2.925563 1_555
La6 S26 2.941124 1_555
La6 S33 2.958174 1_655
La6 S15 2.963379 1_555
La6 S32 3.098948 1_555
La7 S18 2.864688 1_555
La7 S16 2.889037 1_555
La7 S2 2.923092 1_555
La7 S24 2.947751 1_545
La7 S34 2.990994 1_555
La7 S14 3.012606 1_555
La7 S12 3.016879 1_555
La7 S30 3.103189 1_555
La8 S19 2.852791 1_465
La8 S0 2.913056 1_555
La8 S17 2.918837 1_555
La8 S25 2.952379 1_555
La8 S13 2.999280 1_455
La8 S35 3.002565 1_555
La8 S12 3.012717 1_565
La8 S31 3.030382 1_455
La9 S14 2.840771 1_555
La9 S10 2.888896 1_555
La9 S4 2.940099 1_555
La9 S37 2.966271 1_555
La9 S15 2.997447 1_555
La9 S16 3.001473 1_555
La9 S28 3.047316 1_555
La9 S34 3.103280 1_555
La10 S12 2.920959 1_555
La10 S17 2.922035 1_545
La10 S5 2.924202 1_545
La10 S16 2.928450 1_555
La10 S11 2.951465 1_555
La10 S38 2.967743 1_545
La10 S29 2.976330 1_555
La10 S35 3.080155 1_545
La11 S13 2.861824 1_456
La11 S9 2.870467 1_555
La11 S3 2.933929 1_555
La11 S27 2.997667 1_555
La11 S36 3.002178 1_555
La11 S17 3.018582 1_556
La11 S15 3.021406 1_455
La11 S33 3.050617 1_555
La12 S7 2.920958 1_555
La12 S19 2.922035 1_455
La12 S4 2.924202 1_455
La12 S18 2.928450 1_555
La12 S12 2.951465 1_555
La12 S40 2.967743 1_455
La12 S30 2.976336 1_555
La12 S37 3.080155 1_455
La13 S8 2.861824 1_564
La13 S13 2.870467 1_555
La13 S5 2.933929 1_555
La13 S31 2.997667 1_555
La13 S41 3.002178 1_555
La13 S19 3.018582 1_565
La13 S20 3.021406 1_554
La13 S38 3.050617 1_555
La14 S6 2.840771 1_555
La14 S14 2.888896 1_555
La14 S3 2.940099 1_555
La14 S39 2.966271 1_555
La14 S20 2.997447 1_555
La14 S18 3.001473 1_555
La14 S32 3.047316 1_555
La14 S36 3.103280 1_555
La15 S9 2.861824 1_645
La15 S8 2.870467 1_555
La15 S4 2.933929 1_555
La15 S26 2.997667 1_555
La15 S34 3.002178 1_555
La15 S21 3.018582 1_655
La15 S22 3.021406 1_545
La15 S40 3.050617 1_555
La16 S10 2.840771 1_555
La16 S6 2.888896 1_555
La16 S5 2.940099 1_555
La16 S35 2.966271 1_555
La16 S22 2.997447 1_555
La16 S23 3.001473 1_555
La16 S24 3.047316 1_555
La16 S41 3.103280 1_555
La17 S11 2.920959 1_555
La17 S21 2.922035 1_554
La17 S3 2.924202 1_554
La17 S23 2.928450 1_555
La17 S7 2.951465 1_555
La17 S33 2.967743 1_554
La17 S25 2.976336 1_555
La17 S39 3.080155 1_554
Ni0 S30 2.131573 1_565
Ni0 S27 2.159747 1_555
Ni0 S24 2.165541 1_555
Ni0 S2 2.323981 1_565
Ni1 S25 2.131573 1_655
Ni1 S31 2.159747 1_555
Ni1 S28 2.165541 1_555
Ni1 S0 2.323981 1_655
Ni2 S29 2.131582 1_556
Ni2 S26 2.159747 1_555
Ni2 S32 2.165541 1_555
Ni2 S1 2.323981 1_556
Ni3 S33 2.155471 1_555
Ni3 S36 2.159152 1_555
Ni3 S39 2.181537 1_555
Ni3 S3 2.337308 1_555
Ni4 S40 2.155471 1_555
Ni4 S34 2.159152 1_555
Ni4 S37 2.181537 1_555
Ni4 S4 2.337308 1_555
Ni5 S38 2.155471 1_555
Ni5 S41 2.159152 1_555
Ni5 S35 2.181537 1_555
Ni5 S5 2.337308 1_555
Ni6 S19 2.426877 1_455
Ni6 S17 2.426877 1_545
Ni6 S21 2.426877 1_554
Ni6 S11 2.465502 1_555
Ni6 S7 2.465502 1_555
Ni6 S12 2.465502 1_555
Ni7 S9 2.418985 1_655
Ni7 S8 2.418986 1_565
Ni7 S13 2.418986 1_556
Ni7 S20 2.488264 1_555
Ni7 S15 2.488264 1_555
Ni7 S22 2.488264 1_555
Ni8 S23 2.406317 1_555
Ni8 S16 2.406317 1_555
Ni8 S18 2.406317 1_555
Ni8 S12 2.504646 1_555
Ni8 S7 2.504646 1_555
Ni8 S11 2.504646 1_555
Ni9 S22 2.441120 1_555
Ni9 S15 2.441120 1_555
Ni9 S20 2.441120 1_555
Ni9 S14 2.449532 1_555
Ni9 S6 2.449532 1_555
Ni9 S10 2.449532 1_555
