# generated using pymatgen
data_MgFe(SiO3)2
_symmetry_space_group_name_H-M   'P 1'
_cell_length_a   5.31425105
_cell_length_b   9.59372388
_cell_length_c   9.25547147
_cell_angle_alpha   90.02141727
_cell_angle_beta   90.01077737
_cell_angle_gamma   103.34145110
_symmetry_Int_Tables_number   1
_chemical_formula_structural   MgFe(SiO3)2
_chemical_formula_sum   'Mg4 Fe4 Si8 O24'
_cell_volume   459.14098361
_cell_formula_units_Z   4
loop_
 _symmetry_equiv_pos_site_id
 _symmetry_equiv_pos_as_xyz
  1  'x, y, z'
loop_
 _atom_site_type_symbol
 _atom_site_label
 _atom_site_symmetry_multiplicity
 _atom_site_fract_x
 _atom_site_fract_y
 _atom_site_fract_z
 _atom_site_occupancy
  Mg  Mg0  1  0.24997900  0.49995900  0.25556700  1
  Mg  Mg1  1  0.75000800  0.99993600  0.75554400  1
  Mg  Mg2  1  0.75007600  0.50002000  0.74447300  1
  Mg  Mg3  1  0.24995100  0.00004400  0.24440000  1
  Fe  Fe0  1  0.25001700  0.99998300  0.89891500  1
  Fe  Fe1  1  0.75000200  0.00004900  0.10102300  1
  Fe  Fe2  1  0.75002400  0.50002600  0.39898400  1
  Fe  Fe3  1  0.24995500  0.49998800  0.60105800  1
  Si  Si0  1  0.54053000  0.29913600  0.08700400  1
  Si  Si1  1  0.04050400  0.79913000  0.58705100  1
  Si  Si2  1  0.95945900  0.70084700  0.08706500  1
  Si  Si3  1  0.45958900  0.20087400  0.58700400  1
  Si  Si4  1  0.04053800  0.29919600  0.91291500  1
  Si  Si5  1  0.54036600  0.79908900  0.41303600  1
  Si  Si6  1  0.45955400  0.70084600  0.91301600  1
  Si  Si7  1  0.95947200  0.20088100  0.41295500  1
  O  O0  1  0.84492900  0.35071400  0.03196500  1
  O  O1  1  0.34496400  0.85071800  0.53212700  1
  O  O2  1  0.65502900  0.64921600  0.03202500  1
  O  O3  1  0.15507300  0.14926600  0.53193700  1
  O  O4  1  0.15506500  0.64930200  0.96800800  1
  O  O5  1  0.65507700  0.14927200  0.46794600  1
  O  O6  1  0.34500200  0.35076200  0.96800300  1
  O  O7  1  0.84490400  0.85074000  0.46804700  1
  O  O8  1  0.50746000  0.38036800  0.23647100  1
  O  O9  1  0.00754400  0.88043200  0.73654200  1
  O  O10  1  0.99254200  0.61959700  0.23647800  1
  O  O11  1  0.49266300  0.11964300  0.73645300  1
  O  O12  1  0.49258200  0.61961300  0.76353900  1
  O  O13  1  0.99239000  0.11961500  0.26340000  1
  O  O14  1  0.00752400  0.38049000  0.76348400  1
  O  O15  1  0.50713600  0.88022300  0.26357500  1
  O  O16  1  0.96447900  0.12305600  0.90827000  1
  O  O17  1  0.46419800  0.62291500  0.40861000  1
  O  O18  1  0.53589800  0.87704300  0.90853900  1
  O  O19  1  0.03572000  0.37701400  0.40847100  1
  O  O20  1  0.46436100  0.12299300  0.09154600  1
  O  O21  1  0.96418200  0.62299800  0.59151300  1
  O  O22  1  0.03547000  0.87699200  0.09151400  1
  O  O23  1  0.53578100  0.37701700  0.59152300  1
loop_
_geom_bond_atom_site_label_1
_geom_bond_atom_site_label_2
_geom_bond_distance
_geom_bond_site_symmetry_2
Mg0 O8 1.986038 1_555
Mg0 O10 1.986202 1_455
Mg0 O17 2.017989 1_555
Mg0 O19 2.018049 1_555
Mg1 O9 1.985586 1_655
Mg1 O11 1.986290 1_565
Mg1 O16 2.017223 1_565
Mg1 O18 2.018074 1_555
Mg2 O14 1.985423 1_655
Mg2 O12 1.986084 1_555
Mg2 O23 2.017764 1_555
Mg2 O21 2.018208 1_555
Mg3 O13 1.986167 1_455
Mg3 O15 1.986467 1_545
Mg3 O22 2.017987 1_545
Mg3 O20 2.018087 1_555
Fe0 O16 2.128619 1_465
Fe0 O18 2.129351 1_555
Fe0 O9 2.133145 1_555
Fe0 O11 2.135528 1_565
Fe0 O20 2.290452 1_566
Fe0 O22 2.291577 1_556
Fe1 O20 2.128249 1_555
Fe1 O22 2.128254 1_645
Fe1 O13 2.133011 1_555
Fe1 O15 2.137311 1_545
Fe1 O18 2.288896 1_544
Fe1 O16 2.292607 1_554
Fe2 O17 2.128741 1_555
Fe2 O19 2.128967 1_655
Fe2 O8 2.134698 1_555
Fe2 O10 2.135149 1_555
Fe2 O21 2.289198 1_555
Fe2 O23 2.290602 1_555
Fe3 O23 2.129271 1_555
Fe3 O21 2.129320 1_455
Fe3 O14 2.134126 1_555
Fe3 O12 2.134524 1_555
Fe3 O17 2.289632 1_555
Fe3 O19 2.289778 1_555
O0 Si0 1.658986 1_555
O0 Si4 1.666168 1_654
O1 Si1 1.658960 1_555
O1 Si5 1.666127 1_555
O2 Si2 1.658875 1_555
O2 Si6 1.665884 1_554
O3 Si3 1.659350 1_555
O3 Si7 1.666119 1_455
O4 Si6 1.659262 1_555
O4 Si2 1.666314 1_456
O5 Si7 1.658852 1_555
O5 Si3 1.666127 1_555
O6 Si4 1.659130 1_555
O6 Si0 1.666013 1_556
O7 Si5 1.659327 1_555
O7 Si1 1.666228 1_655
O8 Si0 1.616934 1_555
O9 Si1 1.617336 1_555
O10 Si2 1.617051 1_555
O11 Si3 1.617233 1_555
O12 Si6 1.616969 1_555
O13 Si7 1.617618 1_555
O14 Si4 1.617327 1_555
O15 Si5 1.617038 1_555
O16 Si4 1.644839 1_655
O17 Si5 1.645110 1_555
O18 Si6 1.645380 1_555
O19 Si7 1.644781 1_455
O20 Si0 1.644884 1_555
O21 Si1 1.644770 1_655
O22 Si2 1.644837 1_455
O23 Si3 1.644843 1_555
