# generated using pymatgen
data_MgAlB4
_symmetry_space_group_name_H-M   'P 1'
_cell_length_a   3.02732221
_cell_length_b   3.02732221
_cell_length_c   6.72194200
_cell_angle_alpha   90.00000000
_cell_angle_beta   90.00000000
_cell_angle_gamma   120.00000459
_symmetry_Int_Tables_number   1
_chemical_formula_structural   MgAlB4
_chemical_formula_sum   'Mg1 Al1 B4'
_cell_volume   53.35101260
_cell_formula_units_Z   1
loop_
 _symmetry_equiv_pos_site_id
 _symmetry_equiv_pos_as_xyz
  1  'x, y, z'
loop_
 _atom_site_type_symbol
 _atom_site_label
 _atom_site_symmetry_multiplicity
 _atom_site_fract_x
 _atom_site_fract_y
 _atom_site_fract_z
 _atom_site_occupancy
  Mg  Mg0  1  0.00000000  0.00000000  0.50000000  1
  Al  Al0  1  0.00000000  0.00000000  0.00000000  1
  B  B0  1  0.33333300  0.66666700  0.23369200  1
  B  B1  1  0.66666700  0.33333300  0.76630800  1
  B  B2  1  0.66666700  0.33333300  0.23369200  1
  B  B3  1  0.33333300  0.66666700  0.76630800  1
loop_
_geom_bond_atom_site_label_1
_geom_bond_atom_site_label_2
_geom_bond_distance
_geom_bond_site_symmetry_2
Al0 B1 2.350000 1_454
Al0 B2 2.350000 1_455
Al0 B0 2.350000 1_545
Al0 B3 2.350000 1_544
Al0 B3 2.350002 1_444
Al0 B1 2.350002 1_554
Al0 B0 2.350002 1_445
Al0 B2 2.350002 1_555
Al0 B3 2.350002 1_554
Al0 B0 2.350002 1_555
Al0 B2 2.350002 1_445
Al0 B1 2.350002 1_444
B0 B2 1.747823 1_455
B0 B2 1.747823 1_565
B0 B2 1.747829 1_555
B0 Mg0 2.501873 1_565
B0 Mg0 2.501875 1_665
B0 Mg0 2.501875 1_555
B1 B3 1.747823 1_545
B1 B3 1.747823 1_655
B1 B3 1.747829 1_555
B1 Mg0 2.501873 1_655
B1 Mg0 2.501875 1_555
B1 Mg0 2.501875 1_665
B2 Mg0 2.501873 1_655
B2 Mg0 2.501875 1_555
B2 Mg0 2.501875 1_665
B3 Mg0 2.501873 1_565
B3 Mg0 2.501875 1_665
B3 Mg0 2.501875 1_555
