# generated using pymatgen
data_CsTi3AlO8
_symmetry_space_group_name_H-M   'P 1'
_cell_length_a   3.03898000
_cell_length_b   7.37441633
_cell_length_c   7.38981516
_cell_angle_alpha   87.51746371
_cell_angle_beta   78.37023537
_cell_angle_gamma   78.19834130
_symmetry_Int_Tables_number   1
_chemical_formula_structural   CsTi3AlO8
_chemical_formula_sum   'Cs1 Ti3 Al1 O8'
_cell_volume   158.78179487
_cell_formula_units_Z   1
loop_
 _symmetry_equiv_pos_site_id
 _symmetry_equiv_pos_as_xyz
  1  'x, y, z'
loop_
 _atom_site_type_symbol
 _atom_site_label
 _atom_site_symmetry_multiplicity
 _atom_site_fract_x
 _atom_site_fract_y
 _atom_site_fract_z
 _atom_site_occupancy
  Cs  Cs0  1  0.07682500  0.99487600  0.99544100  1
  Ti  Ti0  1  0.82932700  0.49269900  0.83147600  1
  Ti  Ti1  1  0.65976800  0.19626900  0.48187200  1
  Ti  Ti2  1  0.32363200  0.81365500  0.50537500  1
  Al  Al0  1  0.17122700  0.51122100  0.18577800  1
  O  O0  1  0.35560300  0.63119000  0.70862600  1
  O  O1  1  0.68458000  0.37685100  0.29431700  1
  O  O2  1  0.99236700  0.69860200  0.36741800  1
  O  O3  1  0.06099400  0.29238500  0.62949600  1
  O  O4  1  0.36437200  0.36468900  0.95469500  1
  O  O5  1  0.68420100  0.63009000  0.05506800  1
  O  O6  1  0.74291800  0.94428400  0.62825600  1
  O  O7  1  0.31918500  0.05318900  0.36218200  1
loop_
_geom_bond_atom_site_label_1
_geom_bond_atom_site_label_2
_geom_bond_distance
_geom_bond_site_symmetry_2
Cs0 O5 3.005303 1_556
Cs0 O4 3.014838 1_565
Cs0 O7 3.017878 1_566
Cs0 O6 3.027168 1_555
Cs0 O5 3.138896 1_456
Cs0 O6 3.143922 1_455
Cs0 O4 3.161051 1_465
Cs0 O7 3.164059 1_466
Al0 O2 1.888363 1_455
Al0 O1 1.965284 1_555
Al0 O5 1.965791 1_455
Al0 O1 1.965894 1_455
Al0 O4 1.981060 1_554
Al0 O5 2.002541 1_555
O0 Ti0 1.945496 1_555
O0 Ti2 1.976423 1_555
O0 Ti0 2.104170 1_455
O1 Ti1 1.881252 1_555
O2 Ti2 1.900200 1_655
O2 Ti2 2.103243 1_555
O3 Ti1 1.934613 1_555
O3 Ti1 2.033721 1_455
O3 Ti0 2.060957 1_455
O4 Ti0 1.915521 1_555
O4 Ti0 2.063664 1_455
O5 Ti0 1.902522 1_554
O6 Ti2 1.897705 1_655
O6 Ti2 2.102502 1_555
O6 Ti1 2.105017 1_565
O7 Ti1 1.965592 1_555
O7 Ti2 2.018473 1_545
O7 Ti1 2.100662 1_455
