# generated using pymatgen
data_AgN2ClO4
_symmetry_space_group_name_H-M   'P 1'
_cell_length_a   7.40071400
_cell_length_b   6.40493700
_cell_length_c   11.25834929
_cell_angle_alpha   90.00000000
_cell_angle_beta   98.09238044
_cell_angle_gamma   90.00000000
_symmetry_Int_Tables_number   1
_chemical_formula_structural   AgN2ClO4
_chemical_formula_sum   'Ag4 N8 Cl4 O16'
_cell_volume   528.34425626
_cell_formula_units_Z   4
loop_
 _symmetry_equiv_pos_site_id
 _symmetry_equiv_pos_as_xyz
  1  'x, y, z'
loop_
 _atom_site_type_symbol
 _atom_site_label
 _atom_site_symmetry_multiplicity
 _atom_site_fract_x
 _atom_site_fract_y
 _atom_site_fract_z
 _atom_site_occupancy
  Ag  Ag0  1  0.50000000  0.00000000  0.50000000  1
  Ag  Ag1  1  0.50000000  0.50000000  0.50000000  1
  Ag  Ag2  1  0.00000000  0.00000000  0.00000000  1
  Ag  Ag3  1  0.00000000  0.50000000  0.00000000  1
  N  N0  1  0.04496100  0.00000000  0.81668500  1
  N  N1  1  0.95503900  0.00000000  0.18331500  1
  N  N2  1  0.70721000  0.50000000  0.98936300  1
  N  N3  1  0.29279000  0.50000000  0.01063700  1
  N  N4  1  0.22735100  0.00000000  0.54546700  1
  N  N5  1  0.77264900  0.00000000  0.45453300  1
  N  N6  1  0.58063500  0.50000000  0.68687900  1
  N  N7  1  0.41936500  0.50000000  0.31312100  1
  Cl  Cl0  1  0.53604400  0.00000000  0.82374400  1
  Cl  Cl1  1  0.46395600  0.00000000  0.17625600  1
  Cl  Cl2  1  0.02893400  0.50000000  0.66970100  1
  Cl  Cl3  1  0.97106600  0.50000000  0.33029900  1
  O  O0  1  0.42794700  0.18713200  0.82712800  1
  O  O1  1  0.42794700  0.81286800  0.82712800  1
  O  O2  1  0.57205300  0.81286800  0.17287200  1
  O  O3  1  0.57205300  0.18713200  0.17287200  1
  O  O4  1  0.62820000  0.00000000  0.71339700  1
  O  O5  1  0.37180000  0.00000000  0.28660300  1
  O  O6  1  0.68373300  0.00000000  0.92828200  1
  O  O7  1  0.31626700  0.00000000  0.07171800  1
  O  O8  1  0.07569000  0.50000000  0.80383000  1
  O  O9  1  0.92431000  0.50000000  0.19617000  1
  O  O10  1  0.92460500  0.31293200  0.63260100  1
  O  O11  1  0.92460500  0.68706800  0.63260100  1
  O  O12  1  0.07539500  0.68706800  0.36739900  1
  O  O13  1  0.07539500  0.31293200  0.36739900  1
  O  O14  1  0.20250500  0.50000000  0.62285600  1
  O  O15  1  0.79749500  0.50000000  0.37714400  1
loop_
_geom_bond_atom_site_label_1
_geom_bond_atom_site_label_2
_geom_bond_distance
_geom_bond_site_symmetry_2
Ag0 N5 2.150425 1_555
Ag0 N4 2.150425 1_555
Ag0 O4 2.455691 1_555
Ag0 O5 2.455691 1_555
Ag1 N6 2.104575 1_555
Ag1 N7 2.104575 1_555
Ag2 N0 2.136218 1_554
Ag2 N1 2.136218 1_455
Ag2 O6 2.366069 1_454
Ag2 O7 2.366069 1_555
Ag3 N2 2.153264 1_454
Ag3 N3 2.153264 1_555
Ag3 O8 2.353673 1_554
Ag3 O9 2.353673 1_455
Cl0 O1 1.444504 1_545
Cl0 O0 1.444504 1_555
Cl0 O6 1.489175 1_555
Cl0 O4 1.499023 1_555
Cl1 O2 1.444504 1_545
Cl1 O3 1.444504 1_555
Cl1 O7 1.489175 1_555
Cl1 O5 1.499023 1_555
Cl2 O11 1.454442 1_455
Cl2 O10 1.454442 1_455
Cl2 O14 1.455661 1_555
Cl2 O8 1.500979 1_555
Cl3 O13 1.454442 1_655
Cl3 O12 1.454442 1_655
Cl3 O15 1.455661 1_555
Cl3 O9 1.500979 1_555
