# generated using pymatgen
data_PmS2
_symmetry_space_group_name_H-M   'P 1'
_cell_length_a   5.57353446
_cell_length_b   5.57514528
_cell_length_c   5.58028594
_cell_angle_alpha   60.03356831
_cell_angle_beta   60.03058780
_cell_angle_gamma   60.00588166
_symmetry_Int_Tables_number   1
_chemical_formula_structural   PmS2
_chemical_formula_sum   'Pm2 S4'
_cell_volume   122.67556191
_cell_formula_units_Z   2
loop_
 _symmetry_equiv_pos_site_id
 _symmetry_equiv_pos_as_xyz
  1  'x, y, z'
loop_
 _atom_site_type_symbol
 _atom_site_label
 _atom_site_symmetry_multiplicity
 _atom_site_fract_x
 _atom_site_fract_y
 _atom_site_fract_z
 _atom_site_occupancy
  Pm  Pm0  1  0.74999500  0.74998700  0.74998000  1
  Pm  Pm1  1  0.00000500  0.00001300  0.00002000  1
  S  S0  1  0.87500000  0.37500000  0.37500000  1
  S  S1  1  0.37500000  0.87500000  0.37500000  1
  S  S2  1  0.37500000  0.37500000  0.87500000  1
  S  S3  1  0.37500000  0.37500000  0.37500000  1
loop_
_geom_bond_atom_site_label_1
_geom_bond_atom_site_label_2
_geom_bond_distance
_geom_bond_site_symmetry_2
Pm0 S2 3.268110 1_555
Pm0 S2 3.268286 1_655
Pm0 S1 3.269107 1_655
Pm0 S2 3.269129 1_565
Pm0 S1 3.269345 1_555
Pm0 S3 3.269596 1_655
Pm0 S0 3.269847 1_555
Pm0 S3 3.269966 1_565
Pm0 S0 3.269979 1_565
Pm0 S3 3.271881 1_556
Pm0 S1 3.272278 1_556
Pm0 S0 3.272307 1_556
Pm1 S2 3.268110 1_554
Pm1 S2 3.268286 1_454
Pm1 S1 3.269107 1_445
Pm1 S2 3.269129 1_544
Pm1 S1 3.269345 1_545
Pm1 S3 3.269596 1_455
Pm1 S0 3.269847 1_455
Pm1 S3 3.269966 1_545
Pm1 S0 3.269979 1_445
Pm1 S3 3.271881 1_554
Pm1 S1 3.272278 1_544
Pm1 S0 3.272307 1_454
S0 S3 2.786767 1_655
S0 S3 2.786767 1_555
S0 S1 2.787418 1_645
S0 S1 2.787418 1_555
S0 S2 2.789746 1_654
S0 S2 2.789746 1_555
S1 S3 2.787573 1_555
S1 S3 2.787573 1_565
S1 S2 2.790274 1_555
S1 S2 2.790274 1_564
S2 S3 2.790143 1_555
S2 S3 2.790143 1_556
