# generated using pymatgen
data_LaNiP
_symmetry_space_group_name_H-M   'P 1'
_cell_length_a   4.01210724
_cell_length_b   4.01210724
_cell_length_c   16.45916914
_cell_angle_alpha   90.00000000
_cell_angle_beta   90.00000000
_cell_angle_gamma   120.00001814
_symmetry_Int_Tables_number   1
_chemical_formula_structural   LaNiP
_chemical_formula_sum   'La4 Ni4 P4'
_cell_volume   229.44760356
_cell_formula_units_Z   4
loop_
 _symmetry_equiv_pos_site_id
 _symmetry_equiv_pos_as_xyz
  1  'x, y, z'
loop_
 _atom_site_type_symbol
 _atom_site_label
 _atom_site_symmetry_multiplicity
 _atom_site_fract_x
 _atom_site_fract_y
 _atom_site_fract_z
 _atom_site_occupancy
  La  La0  1  -0.00000000  -0.00000000  0.50000000  1
  La  La1  1  -0.00000000  -0.00000000  0.00000000  1
  La  La2  1  -0.00000000  -0.00000000  0.25000000  1
  La  La3  1  -0.00000000  -0.00000000  0.75000000  1
  Ni  Ni0  1  0.33333300  0.66666700  0.37630083  1
  Ni  Ni1  1  0.66666700  0.33333300  0.62369917  1
  Ni  Ni2  1  0.66666700  0.33333300  0.87630083  1
  Ni  Ni3  1  0.33333300  0.66666700  0.12369917  1
  P  P0  1  0.33333300  0.66666700  0.87448728  1
  P  P1  1  0.66666700  0.33333300  0.12551272  1
  P  P2  1  0.66666700  0.33333300  0.37448728  1
  P  P3  1  0.33333300  0.66666700  0.62551272  1
loop_
_geom_bond_atom_site_label_1
_geom_bond_atom_site_label_2
_geom_bond_distance
_geom_bond_site_symmetry_2
La0 Ni1 3.083974 1_455
La0 Ni0 3.083974 1_545
La0 Ni1 3.083976 1_445
La0 Ni1 3.083976 1_555
La0 Ni0 3.083976 1_555
La0 Ni0 3.083976 1_445
La0 P2 3.103761 1_455
La0 P3 3.103761 1_545
La0 P3 3.103763 1_445
La0 P2 3.103763 1_555
La0 P3 3.103763 1_555
La0 P2 3.103763 1_445
La1 Ni2 3.083974 1_454
La1 Ni3 3.083974 1_545
La1 Ni2 3.083976 1_554
La1 Ni2 3.083976 1_444
La1 Ni3 3.083976 1_555
La1 Ni3 3.083976 1_445
La1 P1 3.103761 1_455
La1 P0 3.103761 1_544
La1 P0 3.103763 1_444
La1 P1 3.103763 1_445
La1 P1 3.103763 1_555
La1 P0 3.103763 1_554
La2 P2 3.092553 1_455
La2 P1 3.092553 1_455
La2 P2 3.092555 1_555
La2 P2 3.092555 1_445
La2 P1 3.092555 1_555
La2 P1 3.092555 1_445
La2 Ni0 3.112410 1_545
La2 Ni3 3.112410 1_545
La2 Ni0 3.112412 1_555
La2 Ni0 3.112412 1_445
La2 Ni3 3.112412 1_555
La2 Ni3 3.112412 1_445
La3 P3 3.092553 1_545
La3 P0 3.092553 1_545
La3 P3 3.092555 1_445
La3 P0 3.092555 1_445
La3 P3 3.092555 1_555
La3 P0 3.092555 1_555
La3 Ni2 3.112410 1_455
La3 Ni1 3.112410 1_455
La3 Ni2 3.112412 1_555
La3 Ni1 3.112412 1_555
La3 Ni2 3.112412 1_445
La3 Ni1 3.112412 1_445
Ni0 P2 2.316581 1_455
Ni0 P2 2.316581 1_565
Ni0 P2 2.316588 1_555
Ni1 P3 2.316581 1_545
Ni1 P3 2.316581 1_655
Ni1 P3 2.316588 1_555
Ni2 P0 2.316581 1_545
Ni2 P0 2.316581 1_655
Ni2 P0 2.316588 1_555
Ni3 P1 2.316581 1_455
Ni3 P1 2.316581 1_565
Ni3 P1 2.316588 1_555
