# generated using pymatgen
data_CrBiN2
_symmetry_space_group_name_H-M   'P 1'
_cell_length_a   3.66003100
_cell_length_b   3.66003100
_cell_length_c   10.10113000
_cell_angle_alpha   90.00000000
_cell_angle_beta   90.00000000
_cell_angle_gamma   90.00000000
_symmetry_Int_Tables_number   1
_chemical_formula_structural   CrBiN2
_chemical_formula_sum   'Cr2 Bi2 N4'
_cell_volume   135.31298919
_cell_formula_units_Z   2
loop_
 _symmetry_equiv_pos_site_id
 _symmetry_equiv_pos_as_xyz
  1  'x, y, z'
loop_
 _atom_site_type_symbol
 _atom_site_label
 _atom_site_symmetry_multiplicity
 _atom_site_fract_x
 _atom_site_fract_y
 _atom_site_fract_z
 _atom_site_occupancy
  Cr  Cr0  1  0.75000000  0.75000000  0.56262800  1
  Cr  Cr1  1  0.25000000  0.25000000  0.43737200  1
  Bi  Bi0  1  0.75000000  0.75000000  0.10121600  1
  Bi  Bi1  1  0.25000000  0.25000000  0.89878400  1
  N  N0  1  0.75000000  0.25000000  0.50000000  1
  N  N1  1  0.25000000  0.75000000  0.50000000  1
  N  N2  1  0.75000000  0.75000000  0.72040200  1
  N  N3  1  0.25000000  0.25000000  0.27959800  1
loop_
_geom_bond_atom_site_label_1
_geom_bond_atom_site_label_2
_geom_bond_distance
_geom_bond_site_symmetry_2
Cr0 N2 1.593696 1_555
Cr0 N0 1.936274 1_555
Cr0 N1 1.936274 1_655
Cr0 N1 1.936274 1_555
Cr0 N0 1.936274 1_565
Cr1 N3 1.593696 1_555
Cr1 N0 1.936274 1_555
Cr1 N0 1.936274 1_455
Cr1 N1 1.936274 1_555
Cr1 N1 1.936274 1_545
