# generated using pymatgen
data_YMgCu4
_symmetry_space_group_name_H-M   'P 1'
_cell_length_a   5.06787084
_cell_length_b   5.06787141
_cell_length_c   5.06787067
_cell_angle_alpha   59.99999157
_cell_angle_beta   59.99998773
_cell_angle_gamma   59.99999562
_symmetry_Int_Tables_number   1
_chemical_formula_structural   YMgCu4
_chemical_formula_sum   'Y1 Mg1 Cu4'
_cell_volume   92.03681220
_cell_formula_units_Z   1
loop_
 _symmetry_equiv_pos_site_id
 _symmetry_equiv_pos_as_xyz
  1  'x, y, z'
loop_
 _atom_site_type_symbol
 _atom_site_label
 _atom_site_symmetry_multiplicity
 _atom_site_fract_x
 _atom_site_fract_y
 _atom_site_fract_z
 _atom_site_occupancy
  Y  Y0  1  0.25000000  0.25000000  0.25000000  1
  Mg  Mg0  1  0.00000000  0.00000000  -0.00000000  1
  Cu  Cu0  1  0.62635398  0.62635398  0.62635398  1
  Cu  Cu1  1  0.62635398  0.62635398  0.12093805  1
  Cu  Cu2  1  0.12093805  0.62635398  0.62635398  1
  Cu  Cu3  1  0.62635398  0.12093805  0.62635398  1
loop_
_geom_bond_atom_site_label_1
_geom_bond_atom_site_label_2
_geom_bond_distance
_geom_bond_site_symmetry_2
Mg0 Y0 3.103424 1_554
Mg0 Y0 3.103424 1_455
Mg0 Y0 3.103425 1_545
Mg0 Y0 3.103425 1_555
Cu0 Cu1 2.506488 1_556
Cu0 Cu2 2.506488 1_655
Cu0 Cu3 2.506488 1_565
Cu0 Cu1 2.561383 1_555
Cu0 Cu2 2.561383 1_555
Cu0 Cu3 2.561383 1_555
Cu0 Mg0 2.968422 1_665
Cu0 Mg0 2.968423 1_566
Cu0 Mg0 2.968423 1_656
Cu0 Y0 2.974274 1_556
Cu0 Y0 2.974274 1_655
Cu0 Y0 2.974275 1_565
Cu1 Cu2 2.506488 1_654
Cu1 Cu3 2.506488 1_564
Cu1 Cu2 2.561382 1_555
Cu1 Cu3 2.561382 1_555
Cu1 Mg0 2.968423 1_565
Cu1 Mg0 2.968423 1_655
Cu1 Mg0 2.968423 1_665
Cu1 Y0 2.974275 1_655
Cu1 Y0 2.974275 1_555
Cu1 Y0 2.974275 1_565
Cu2 Cu3 2.506488 1_465
Cu2 Cu3 2.561383 1_555
Cu2 Mg0 2.968423 1_565
Cu2 Mg0 2.968423 1_556
Cu2 Mg0 2.968423 1_566
Cu2 Y0 2.974274 1_556
Cu2 Y0 2.974275 1_565
Cu2 Y0 2.974275 1_555
Cu3 Mg0 2.968423 1_655
Cu3 Mg0 2.968423 1_556
Cu3 Mg0 2.968423 1_656
Cu3 Y0 2.974274 1_556
Cu3 Y0 2.974274 1_655
Cu3 Y0 2.974275 1_555
