# generated using pymatgen
data_VF5
_symmetry_space_group_name_H-M   'P 1'
_cell_length_a   5.17534100
_cell_length_b   7.38122200
_cell_length_c   10.19727663
_cell_angle_alpha   69.27614493
_cell_angle_beta   90.00000000
_cell_angle_gamma   90.00000000
_symmetry_Int_Tables_number   1
_chemical_formula_structural   VF5
_chemical_formula_sum   'V4 F20'
_cell_volume   364.33498682
_cell_formula_units_Z   4
loop_
 _symmetry_equiv_pos_site_id
 _symmetry_equiv_pos_as_xyz
  1  'x, y, z'
loop_
 _atom_site_type_symbol
 _atom_site_label
 _atom_site_symmetry_multiplicity
 _atom_site_fract_x
 _atom_site_fract_y
 _atom_site_fract_z
 _atom_site_occupancy
  V  V0  1  0.50000000  0.00000000  0.50000000  1
  V  V1  1  0.00000000  0.00000000  0.00000000  1
  V  V2  1  0.50000000  0.50000000  0.50000000  1
  V  V3  1  0.00000000  0.50000000  0.00000000  1
  F  F0  1  0.64411600  0.95912000  0.66512600  1
  F  F1  1  0.21362200  0.88453500  0.58394800  1
  F  F2  1  0.27508100  0.61879700  0.90474000  1
  F  F3  1  0.85588400  0.95912000  0.16512600  1
  F  F4  1  0.63205900  0.74912800  0.50192000  1
  F  F5  1  0.83362500  0.53692200  0.84123400  1
  F  F6  1  0.28637800  0.88453500  0.08394800  1
  F  F7  1  0.22491900  0.61879700  0.40474000  1
  F  F8  1  0.33362500  0.46307800  0.65876600  1
  F  F9  1  0.86794100  0.74912800  0.00192000  1
  F  F10  1  0.13205900  0.25087200  0.99808000  1
  F  F11  1  0.66637500  0.53692200  0.34123400  1
  F  F12  1  0.77508100  0.38120300  0.59526000  1
  F  F13  1  0.71362200  0.11546500  0.91605200  1
  F  F14  1  0.16637500  0.46307800  0.15876600  1
  F  F15  1  0.36794100  0.25087200  0.49808000  1
  F  F16  1  0.14411600  0.04088000  0.83487400  1
  F  F17  1  0.72491900  0.38120300  0.09526000  1
  F  F18  1  0.78637800  0.11546500  0.41605200  1
  F  F19  1  0.35588400  0.04088000  0.33487400  1
loop_
_geom_bond_atom_site_label_1
_geom_bond_atom_site_label_2
_geom_bond_distance
_geom_bond_site_symmetry_2
F0 V0 1.767217 1_565
F1 V0 1.771853 1_565
F2 V3 1.770992 1_556
F3 V1 1.767217 1_665
F4 V0 1.967429 1_565
F4 V2 1.968351 1_555
F5 V3 1.767628 1_656
F6 V1 1.771853 1_565
F7 V2 1.770992 1_555
F8 V2 1.767628 1_555
F9 V1 1.967429 1_665
F9 V3 1.968351 1_655
F10 V1 1.967429 1_556
F10 V3 1.968351 1_556
F11 V2 1.767628 1_555
F12 V2 1.770992 1_555
F13 V1 1.771853 1_656
F14 V3 1.767628 1_555
F15 V0 1.967429 1_555
F15 V2 1.968351 1_555
F16 V1 1.767217 1_556
F17 V3 1.770992 1_655
F18 V0 1.771853 1_555
F19 V0 1.767217 1_555
