# generated using pymatgen
data_LiNb2O
_symmetry_space_group_name_H-M   'P 1'
_cell_length_a   5.75262355
_cell_length_b   5.75262355
_cell_length_c   33.52283000
_cell_angle_alpha   90.00000000
_cell_angle_beta   90.00000000
_cell_angle_gamma   119.99999480
_symmetry_Int_Tables_number   1
_chemical_formula_structural   LiNb2O
_chemical_formula_sum   'Li16 Nb32 O16'
_cell_volume   960.73417255
_cell_formula_units_Z   16
loop_
 _symmetry_equiv_pos_site_id
 _symmetry_equiv_pos_as_xyz
  1  'x, y, z'
loop_
 _atom_site_type_symbol
 _atom_site_label
 _atom_site_symmetry_multiplicity
 _atom_site_fract_x
 _atom_site_fract_y
 _atom_site_fract_z
 _atom_site_occupancy
  Li  Li0_0  1  0.16666650  0.33333350  0.12500000  1
  Li  Li0_1  1  0.16666650  0.33333350  0.62500000  1
  Li  Li0_2  1  0.16666650  0.83333350  0.12500000  1
  Li  Li0_3  1  0.16666650  0.83333350  0.62500000  1
  Li  Li0_4  1  0.66666650  0.33333350  0.12500000  1
  Li  Li0_5  1  0.66666650  0.33333350  0.62500000  1
  Li  Li0_6  1  0.66666650  0.83333350  0.12500000  1
  Li  Li0_7  1  0.66666650  0.83333350  0.62500000  1
  Li  Li1_0  1  0.33333350  0.16666650  0.37500000  1
  Li  Li1_1  1  0.33333350  0.16666650  0.87500000  1
  Li  Li1_2  1  0.33333350  0.66666650  0.37500000  1
  Li  Li1_3  1  0.33333350  0.66666650  0.87500000  1
  Li  Li1_4  1  0.83333350  0.16666650  0.37500000  1
  Li  Li1_5  1  0.83333350  0.16666650  0.87500000  1
  Li  Li1_6  1  0.83333350  0.66666650  0.37500000  1
  Li  Li1_7  1  0.83333350  0.66666650  0.87500000  1
  Nb  Nb0_0  1  0.16666650  0.33333350  0.29724650  1
  Nb  Nb0_1  1  0.16666650  0.33333350  0.79724650  1
  Nb  Nb0_2  1  0.16666650  0.83333350  0.29724650  1
  Nb  Nb0_3  1  0.16666650  0.83333350  0.79724650  1
  Nb  Nb0_4  1  0.66666650  0.33333350  0.29724650  1
  Nb  Nb0_5  1  0.66666650  0.33333350  0.79724650  1
  Nb  Nb0_6  1  0.66666650  0.83333350  0.29724650  1
  Nb  Nb0_7  1  0.66666650  0.83333350  0.79724650  1
  Nb  Nb1_0  1  0.33333350  0.16666650  0.20275350  1
  Nb  Nb1_1  1  0.33333350  0.16666650  0.70275350  1
  Nb  Nb1_2  1  0.33333350  0.66666650  0.20275350  1
  Nb  Nb1_3  1  0.33333350  0.66666650  0.70275350  1
  Nb  Nb1_4  1  0.83333350  0.16666650  0.20275350  1
  Nb  Nb1_5  1  0.83333350  0.16666650  0.70275350  1
  Nb  Nb1_6  1  0.83333350  0.66666650  0.20275350  1
  Nb  Nb1_7  1  0.83333350  0.66666650  0.70275350  1
  Nb  Nb2_0  1  0.33333350  0.16666650  0.04724650  1
  Nb  Nb2_1  1  0.33333350  0.16666650  0.54724650  1
  Nb  Nb2_2  1  0.33333350  0.66666650  0.04724650  1
  Nb  Nb2_3  1  0.33333350  0.66666650  0.54724650  1
  Nb  Nb2_4  1  0.83333350  0.16666650  0.04724650  1
  Nb  Nb2_5  1  0.83333350  0.16666650  0.54724650  1
  Nb  Nb2_6  1  0.83333350  0.66666650  0.04724650  1
  Nb  Nb2_7  1  0.83333350  0.66666650  0.54724650  1
  Nb  Nb3_0  1  0.16666650  0.33333350  0.45275350  1
  Nb  Nb3_1  1  0.16666650  0.33333350  0.95275350  1
  Nb  Nb3_2  1  0.16666650  0.83333350  0.45275350  1
  Nb  Nb3_3  1  0.16666650  0.83333350  0.95275350  1
  Nb  Nb3_4  1  0.66666650  0.33333350  0.45275350  1
  Nb  Nb3_5  1  0.66666650  0.33333350  0.95275350  1
  Nb  Nb3_6  1  0.66666650  0.83333350  0.45275350  1
  Nb  Nb3_7  1  0.66666650  0.83333350  0.95275350  1
  O  O0_0  1  0.00000000  0.00000000  0.00000000  1
  O  O0_1  1  0.00000000  0.00000000  0.50000000  1
  O  O0_2  1  0.00000000  0.50000000  0.00000000  1
  O  O0_3  1  0.00000000  0.50000000  0.50000000  1
  O  O0_4  1  0.50000000  0.00000000  0.00000000  1
  O  O0_5  1  0.50000000  0.00000000  0.50000000  1
  O  O0_6  1  0.50000000  0.50000000  0.00000000  1
  O  O0_7  1  0.50000000  0.50000000  0.50000000  1
  O  O1_0  1  0.00000000  0.00000000  0.25000000  1
  O  O1_1  1  0.00000000  0.00000000  0.75000000  1
  O  O1_2  1  0.00000000  0.50000000  0.25000000  1
  O  O1_3  1  0.00000000  0.50000000  0.75000000  1
  O  O1_4  1  0.50000000  0.00000000  0.25000000  1
  O  O1_5  1  0.50000000  0.00000000  0.75000000  1
  O  O1_6  1  0.50000000  0.50000000  0.25000000  1
  O  O1_7  1  0.50000000  0.50000000  0.75000000  1
loop_
_geom_bond_atom_site_label_1
_geom_bond_atom_site_label_2
_geom_bond_distance
_geom_bond_site_symmetry_2
Li0_0 Li0_2 2.876312 1_545
Li0_0 Li0_4 2.876312 1_555
Li0_0 Li0_2 2.876312 1_555
Li0_0 Li0_4 2.876312 1_455
Li0_0 Li0_6 2.876312 1_555
Li0_0 Li0_6 2.876312 1_445
Li0_0 Nb2_2 3.090574 1_555
Li0_0 Nb1_2 3.090574 1_555
Li0_0 Nb2_4 3.090574 1_455
Li0_0 Nb1_4 3.090574 1_455
Li0_0 Nb2_0 3.090577 1_555
Li0_0 Nb1_0 3.090577 1_555
Li0_1 Li0_5 2.876312 1_555
Li0_1 Li0_3 2.876312 1_545
Li0_1 Li0_3 2.876312 1_555
Li0_1 Li0_5 2.876312 1_455
Li0_1 Li0_7 2.876312 1_555
Li0_1 Li0_7 2.876312 1_445
Li0_1 Nb2_3 3.090574 1_555
Li0_1 Nb2_5 3.090574 1_455
Li0_1 Nb1_3 3.090574 1_555
Li0_1 Nb1_5 3.090574 1_455
Li0_1 Nb2_1 3.090577 1_555
Li0_1 Nb1_1 3.090577 1_555
Li0_2 Li0_6 2.876312 1_555
Li0_2 Li0_6 2.876312 1_455
Li0_2 Li0_4 2.876312 1_565
Li0_2 Li0_4 2.876312 1_455
Li0_2 Nb1_0 3.090574 1_565
Li0_2 Nb1_6 3.090574 1_455
Li0_2 Nb2_0 3.090574 1_565
Li0_2 Nb2_6 3.090574 1_455
Li0_2 Nb2_2 3.090577 1_555
Li0_2 Nb1_2 3.090577 1_555
Li0_3 Li0_7 2.876312 1_555
Li0_3 Li0_7 2.876312 1_455
Li0_3 Li0_5 2.876312 1_565
Li0_3 Li0_5 2.876312 1_455
Li0_3 Nb2_7 3.090574 1_455
Li0_3 Nb1_1 3.090574 1_565
Li0_3 Nb1_7 3.090574 1_455
Li0_3 Nb2_1 3.090574 1_565
Li0_3 Nb2_3 3.090577 1_555
Li0_3 Nb1_3 3.090577 1_555
Li0_4 Li0_6 2.876312 1_545
Li0_4 Li0_6 2.876312 1_555
Li0_4 Nb1_0 3.090574 1_555
Li0_4 Nb2_6 3.090574 1_555
Li0_4 Nb2_0 3.090574 1_555
Li0_4 Nb1_6 3.090574 1_555
Li0_4 Nb1_4 3.090577 1_555
Li0_4 Nb2_4 3.090577 1_555
Li0_5 Li0_7 2.876312 1_545
Li0_5 Li0_7 2.876312 1_555
Li0_5 Nb1_1 3.090574 1_555
Li0_5 Nb2_1 3.090574 1_555
Li0_5 Nb2_7 3.090574 1_555
Li0_5 Nb1_7 3.090574 1_555
Li0_5 Nb2_5 3.090577 1_555
Li0_5 Nb1_5 3.090577 1_555
Li0_6 Nb2_2 3.090574 1_555
Li0_6 Nb1_2 3.090574 1_555
Li0_6 Nb1_4 3.090574 1_565
Li0_6 Nb2_4 3.090574 1_565
Li0_6 Nb1_6 3.090577 1_555
Li0_6 Nb2_6 3.090577 1_555
Li0_7 Nb2_3 3.090574 1_555
Li0_7 Nb1_5 3.090574 1_565
Li0_7 Nb1_3 3.090574 1_555
Li0_7 Nb2_5 3.090574 1_565
Li0_7 Nb1_7 3.090577 1_555
Li0_7 Nb2_7 3.090577 1_555
Li1_0 Li1_2 2.876312 1_555
Li1_0 Li1_4 2.876312 1_455
Li1_0 Li1_4 2.876312 1_555
Li1_0 Li1_2 2.876312 1_545
Li1_0 Li1_6 2.876312 1_445
Li1_0 Li1_6 2.876312 1_555
Li1_0 Nb3_2 3.090574 1_545
Li1_0 Nb3_4 3.090574 1_555
Li1_0 Nb0_4 3.090574 1_555
Li1_0 Nb0_2 3.090574 1_545
Li1_0 Nb3_0 3.090577 1_555
Li1_0 Nb0_0 3.090577 1_555
Li1_1 Li1_3 2.876312 1_555
Li1_1 Li1_5 2.876312 1_455
Li1_1 Li1_3 2.876312 1_545
Li1_1 Li1_5 2.876312 1_555
Li1_1 Li1_7 2.876312 1_445
Li1_1 Li1_7 2.876312 1_555
Li1_1 Nb3_5 3.090574 1_555
Li1_1 Nb3_3 3.090574 1_545
Li1_1 Nb0_5 3.090574 1_555
Li1_1 Nb0_3 3.090574 1_545
Li1_1 Nb3_1 3.090577 1_555
Li1_1 Nb0_1 3.090577 1_555
Li1_2 Li1_6 2.876312 1_455
Li1_2 Li1_6 2.876312 1_555
Li1_2 Li1_4 2.876312 1_455
Li1_2 Li1_4 2.876312 1_565
Li1_2 Nb3_6 3.090574 1_555
Li1_2 Nb3_0 3.090574 1_555
Li1_2 Nb0_0 3.090574 1_555
Li1_2 Nb0_6 3.090574 1_555
Li1_2 Nb3_2 3.090577 1_555
Li1_2 Nb0_2 3.090577 1_555
Li1_3 Li1_7 2.876312 1_455
Li1_3 Li1_7 2.876312 1_555
Li1_3 Li1_5 2.876312 1_455
Li1_3 Li1_5 2.876312 1_565
Li1_3 Nb3_7 3.090574 1_555
Li1_3 Nb3_1 3.090574 1_555
Li1_3 Nb0_7 3.090574 1_555
Li1_3 Nb0_1 3.090574 1_555
Li1_3 Nb3_3 3.090577 1_555
Li1_3 Nb0_3 3.090577 1_555
Li1_4 Li1_6 2.876312 1_555
Li1_4 Li1_6 2.876312 1_545
Li1_4 Nb3_6 3.090574 1_545
Li1_4 Nb3_0 3.090574 1_655
Li1_4 Nb0_6 3.090574 1_545
Li1_4 Nb0_0 3.090574 1_655
Li1_4 Nb3_4 3.090577 1_555
Li1_4 Nb0_4 3.090577 1_555
Li1_5 Li1_7 2.876312 1_555
Li1_5 Li1_7 2.876312 1_545
Li1_5 Nb3_7 3.090574 1_545
Li1_5 Nb3_1 3.090574 1_655
Li1_5 Nb0_7 3.090574 1_545
Li1_5 Nb0_1 3.090574 1_655
Li1_5 Nb3_5 3.090577 1_555
Li1_5 Nb0_5 3.090577 1_555
Li1_6 Nb3_4 3.090574 1_555
Li1_6 Nb3_2 3.090574 1_655
Li1_6 Nb0_4 3.090574 1_555
Li1_6 Nb0_2 3.090574 1_655
Li1_6 Nb3_6 3.090577 1_555
Li1_6 Nb0_6 3.090577 1_555
Li1_7 Nb3_5 3.090574 1_555
Li1_7 Nb3_3 3.090574 1_655
Li1_7 Nb0_3 3.090574 1_655
Li1_7 Nb0_5 3.090574 1_555
Li1_7 Nb3_7 3.090577 1_555
Li1_7 Nb0_7 3.090577 1_555
Nb0_0 O1_2 2.294832 1_555
Nb0_0 O1_6 2.294834 1_555
Nb0_0 O1_0 2.294834 1_555
Nb0_1 O1_3 2.294832 1_555
Nb0_1 O1_1 2.294834 1_555
Nb0_1 O1_7 2.294834 1_555
Nb0_2 O1_0 2.294832 1_565
Nb0_2 O1_4 2.294834 1_565
Nb0_2 O1_2 2.294834 1_555
Nb0_3 O1_1 2.294832 1_565
Nb0_3 O1_5 2.294834 1_565
Nb0_3 O1_3 2.294834 1_555
Nb0_4 O1_6 2.294832 1_555
Nb0_4 O1_4 2.294834 1_555
Nb0_4 O1_2 2.294834 1_655
Nb0_5 O1_7 2.294832 1_555
Nb0_5 O1_5 2.294834 1_555
Nb0_5 O1_3 2.294834 1_655
Nb0_6 O1_4 2.294832 1_565
Nb0_6 O1_0 2.294834 1_665
Nb0_6 O1_6 2.294834 1_555
Nb0_7 O1_5 2.294832 1_565
Nb0_7 O1_1 2.294834 1_665
Nb0_7 O1_7 2.294834 1_555
Nb1_0 O1_4 2.294832 1_555
Nb1_0 O1_0 2.294834 1_555
Nb1_0 O1_6 2.294834 1_555
Nb1_1 O1_5 2.294832 1_555
Nb1_1 O1_7 2.294834 1_555
Nb1_1 O1_1 2.294834 1_555
Nb1_2 O1_6 2.294832 1_555
Nb1_2 O1_2 2.294834 1_555
Nb1_2 O1_4 2.294834 1_565
Nb1_3 O1_7 2.294832 1_555
Nb1_3 O1_3 2.294834 1_555
Nb1_3 O1_5 2.294834 1_565
Nb1_4 O1_0 2.294832 1_655
Nb1_4 O1_2 2.294834 1_655
Nb1_4 O1_4 2.294834 1_555
Nb1_5 O1_1 2.294832 1_655
Nb1_5 O1_3 2.294834 1_655
Nb1_5 O1_5 2.294834 1_555
Nb1_6 O1_2 2.294832 1_655
Nb1_6 O1_6 2.294834 1_555
Nb1_6 O1_0 2.294834 1_665
Nb1_7 O1_3 2.294832 1_655
Nb1_7 O1_1 2.294834 1_665
Nb1_7 O1_7 2.294834 1_555
Nb2_0 O0_4 2.294832 1_555
Nb2_0 O0_0 2.294834 1_555
Nb2_0 O0_6 2.294834 1_555
Nb2_1 O0_5 2.294832 1_555
Nb2_1 O0_7 2.294834 1_555
Nb2_1 O0_1 2.294834 1_555
Nb2_2 O0_6 2.294832 1_555
Nb2_2 O0_2 2.294834 1_555
Nb2_2 O0_4 2.294834 1_565
Nb2_3 O0_7 2.294832 1_555
Nb2_3 O0_3 2.294834 1_555
Nb2_3 O0_5 2.294834 1_565
Nb2_4 O0_0 2.294832 1_655
Nb2_4 O0_2 2.294834 1_655
Nb2_4 O0_4 2.294834 1_555
Nb2_5 O0_1 2.294832 1_655
Nb2_5 O0_3 2.294834 1_655
Nb2_5 O0_5 2.294834 1_555
Nb2_6 O0_2 2.294832 1_655
Nb2_6 O0_0 2.294834 1_665
Nb2_6 O0_6 2.294834 1_555
Nb2_7 O0_3 2.294832 1_655
Nb2_7 O0_7 2.294834 1_555
Nb2_7 O0_1 2.294834 1_665
Nb3_0 O0_3 2.294832 1_555
Nb3_0 O0_7 2.294834 1_555
Nb3_0 O0_1 2.294834 1_555
Nb3_1 O0_2 2.294832 1_556
Nb3_1 O0_0 2.294834 1_556
Nb3_1 O0_6 2.294834 1_556
Nb3_2 O0_1 2.294832 1_565
Nb3_2 O0_5 2.294834 1_565
Nb3_2 O0_3 2.294834 1_555
Nb3_3 O0_0 2.294832 1_566
Nb3_3 O0_4 2.294834 1_566
Nb3_3 O0_2 2.294834 1_556
Nb3_4 O0_7 2.294832 1_555
Nb3_4 O0_5 2.294834 1_555
Nb3_4 O0_3 2.294834 1_655
Nb3_5 O0_6 2.294832 1_556
Nb3_5 O0_4 2.294834 1_556
Nb3_5 O0_2 2.294834 1_656
Nb3_6 O0_5 2.294832 1_565
Nb3_6 O0_1 2.294834 1_665
Nb3_6 O0_7 2.294834 1_555
Nb3_7 O0_4 2.294832 1_566
Nb3_7 O0_0 2.294834 1_666
Nb3_7 O0_6 2.294834 1_556
