# generated using pymatgen
data_Y2InCu2
_symmetry_space_group_name_H-M   'P 1'
_cell_length_a   7.46671944
_cell_length_b   7.46671944
_cell_length_c   3.79072383
_cell_angle_alpha   90.00000000
_cell_angle_beta   90.00000000
_cell_angle_gamma   90.00001105
_symmetry_Int_Tables_number   1
_chemical_formula_structural   Y2InCu2
_chemical_formula_sum   'Y4 In2 Cu4'
_cell_volume   211.34005285
_cell_formula_units_Z   2
loop_
 _symmetry_equiv_pos_site_id
 _symmetry_equiv_pos_as_xyz
  1  'x, y, z'
loop_
 _atom_site_type_symbol
 _atom_site_label
 _atom_site_symmetry_multiplicity
 _atom_site_fract_x
 _atom_site_fract_y
 _atom_site_fract_z
 _atom_site_occupancy
  Y  Y0  1  0.67276283  0.17276283  0.50000000  1
  Y  Y1  1  0.32723717  0.82723717  0.50000000  1
  Y  Y2  1  0.17275072  0.32724928  0.50000000  1
  Y  Y3  1  0.82724928  0.67275072  0.50000000  1
  In  In0  1  0.50000000  0.50000000  -0.00000000  1
  In  In1  1  -0.00000000  0.00000000  -0.00000000  1
  Cu  Cu0  1  0.11989854  0.61989854  0.00000000  1
  Cu  Cu1  1  0.88010146  0.38010146  -0.00000000  1
  Cu  Cu2  1  0.61993536  0.88006464  -0.00000000  1
  Cu  Cu3  1  0.38006464  0.11993536  -0.00000000  1
loop_
_geom_bond_atom_site_label_1
_geom_bond_atom_site_label_2
_geom_bond_distance
_geom_bond_site_symmetry_2
In0 Y1 3.350607 1_554
In0 Y1 3.350607 1_555
In0 Y0 3.350607 1_554
In0 Y0 3.350607 1_555
In0 Y2 3.350638 1_555
In0 Y3 3.350638 1_554
In0 Y3 3.350638 1_555
In0 Y2 3.350638 1_554
In1 Y0 3.350607 1_455
In1 Y0 3.350607 1_454
In1 Y1 3.350607 1_544
In1 Y1 3.350607 1_545
In1 Y2 3.350638 1_555
In1 Y3 3.350638 1_444
In1 Y3 3.350638 1_445
In1 Y2 3.350638 1_554
Cu0 Cu1 2.532146 1_455
Cu0 Y1 2.895836 1_554
Cu0 Y1 2.895836 1_555
Cu0 Y3 2.919405 1_454
Cu0 Y2 2.919405 1_554
Cu0 Y3 2.919405 1_455
Cu0 Y2 2.919405 1_555
Cu0 In0 2.975961 1_555
Cu0 In1 2.975961 1_565
Cu1 Y0 2.895836 1_555
Cu1 Y0 2.895836 1_554
Cu1 Y2 2.919405 1_655
Cu1 Y3 2.919405 1_555
Cu1 Y2 2.919405 1_654
Cu1 Y3 2.919405 1_554
Cu1 In0 2.975961 1_555
Cu1 In1 2.975961 1_655
Cu2 Cu3 2.532924 1_565
Cu2 Y3 2.895639 1_554
Cu2 Y3 2.895639 1_555
Cu2 Y1 2.919653 1_554
Cu2 Y0 2.919653 1_565
Cu2 Y0 2.919653 1_564
Cu2 Y1 2.919653 1_555
Cu2 In1 2.975781 1_665
Cu2 In0 2.975781 1_555
Cu3 Y2 2.895639 1_554
Cu3 Y2 2.895639 1_555
Cu3 Y1 2.919653 1_545
Cu3 Y0 2.919653 1_554
Cu3 Y0 2.919653 1_555
Cu3 Y1 2.919653 1_544
Cu3 In0 2.975781 1_555
Cu3 In1 2.975781 1_555
