# generated using pymatgen
data_Fe4CoSiB2
_symmetry_space_group_name_H-M   'P 1'
_cell_length_a   5.47548200
_cell_length_b   5.47548200
_cell_length_c   6.43907945
_cell_angle_alpha   115.16179390
_cell_angle_beta   115.16179390
_cell_angle_gamma   90.00000000
_symmetry_Int_Tables_number   1
_chemical_formula_structural   Fe4CoSiB2
_chemical_formula_sum   'Fe8 Co2 Si2 B4'
_cell_volume   154.25252612
_cell_formula_units_Z   2
loop_
 _symmetry_equiv_pos_site_id
 _symmetry_equiv_pos_as_xyz
  1  'x, y, z'
loop_
 _atom_site_type_symbol
 _atom_site_label
 _atom_site_symmetry_multiplicity
 _atom_site_fract_x
 _atom_site_fract_y
 _atom_site_fract_z
 _atom_site_occupancy
  Fe  Fe0  1  0.02914200  0.52914200  0.72620200  1
  Fe  Fe1  1  0.69706000  0.19706000  0.72620200  1
  Fe  Fe2  1  0.19706000  0.02914200  0.72620200  1
  Fe  Fe3  1  0.52914200  0.69706000  0.72620200  1
  Fe  Fe4  1  0.97085800  0.47085800  0.27379800  1
  Fe  Fe5  1  0.30294000  0.80294000  0.27379800  1
  Fe  Fe6  1  0.80294000  0.97085800  0.27379800  1
  Fe  Fe7  1  0.47085800  0.30294000  0.27379800  1
  Co  Co0  1  0.50000000  0.50000000  0.00000000  1
  Co  Co1  1  0.00000000  0.00000000  0.00000000  1
  Si  Si0  1  0.25000000  0.25000000  0.50000000  1
  Si  Si1  1  0.75000000  0.75000000  0.50000000  1
  B  B0  1  0.37900000  0.87900000  0.00000000  1
  B  B1  1  0.62100000  0.12100000  0.00000000  1
  B  B2  1  0.12100000  0.37900000  0.00000000  1
  B  B3  1  0.87900000  0.62100000  0.00000000  1
loop_
_geom_bond_atom_site_label_1
_geom_bond_atom_site_label_2
_geom_bond_distance
_geom_bond_site_symmetry_2
Fe0 Si1 2.350480 1_455
Fe0 Si0 2.350480 1_555
Fe1 Si0 2.350480 1_555
Fe1 Si1 2.350480 1_545
Fe2 Si1 2.350480 1_445
Fe2 Si0 2.350480 1_555
Fe3 Si1 2.350480 1_555
Fe3 Si0 2.350480 1_555
Fe4 Si0 2.350480 1_655
Fe4 Si1 2.350480 1_555
Fe5 Si0 2.350480 1_565
Fe5 Si1 2.350480 1_555
Fe6 Si0 2.350480 1_665
Fe6 Si1 2.350480 1_555
Fe7 Si1 2.350480 1_555
Fe7 Si0 2.350480 1_555
Co0 Si1 2.572513 1_555
Co0 Si0 2.572513 1_554
Co1 Si1 2.572513 1_444
Co1 Si0 2.572513 1_555
B0 B1 1.873927 1_565
B0 Fe2 2.124960 1_564
B0 Fe7 2.124960 1_565
B0 Fe3 2.124960 1_554
B0 Fe6 2.124960 1_555
B0 Fe5 2.168822 1_555
B0 Fe0 2.168822 1_554
B0 Co1 2.178402 1_565
B0 Co0 2.178402 1_555
B1 Fe2 2.124960 1_554
B1 Fe6 2.124960 1_545
B1 Fe3 2.124960 1_544
B1 Fe7 2.124960 1_555
B1 Fe1 2.168822 1_554
B1 Fe4 2.168822 1_555
B1 Co1 2.178402 1_655
B1 Co0 2.178402 1_555
B2 B3 1.873927 1_455
B2 Fe0 2.124960 1_554
B2 Fe1 2.124960 1_454
B2 Fe4 2.124960 1_455
B2 Fe5 2.124960 1_555
B2 Fe7 2.168822 1_555
B2 Fe2 2.168822 1_554
B2 Co0 2.178402 1_555
B2 Co1 2.178402 1_555
B3 Fe0 2.124960 1_654
B3 Fe4 2.124960 1_555
B3 Fe5 2.124960 1_655
B3 Fe1 2.124960 1_554
B3 Fe6 2.168822 1_555
B3 Fe3 2.168822 1_554
B3 Co0 2.178402 1_555
B3 Co1 2.178402 1_665
