# generated using pymatgen
data_LiSc4(FeO3)4
_symmetry_space_group_name_H-M   'P 1'
_cell_length_a   5.12081684
_cell_length_b   5.51377616
_cell_length_c   7.89559818
_cell_angle_alpha   89.57339316
_cell_angle_beta   91.21534901
_cell_angle_gamma   91.26531040
_symmetry_Int_Tables_number   1
_chemical_formula_structural   LiSc4(FeO3)4
_chemical_formula_sum   'Li1 Sc4 Fe4 O12'
_cell_volume   222.82258554
_cell_formula_units_Z   1
loop_
 _symmetry_equiv_pos_site_id
 _symmetry_equiv_pos_as_xyz
  1  'x, y, z'
loop_
 _atom_site_type_symbol
 _atom_site_label
 _atom_site_symmetry_multiplicity
 _atom_site_fract_x
 _atom_site_fract_y
 _atom_site_fract_z
 _atom_site_occupancy
  Li  Li0  1  0.93839200  0.28377400  0.72641100  1
  Sc  Sc0  1  0.04946700  0.88077600  0.74254500  1
  Sc  Sc1  1  0.45593200  0.43105500  0.74829300  1
  Sc  Sc2  1  0.54011800  0.57031200  0.25286300  1
  Sc  Sc3  1  0.97360000  0.06237200  0.25876400  1
  Fe  Fe0  1  0.00188300  0.50414100  0.01650100  1
  Fe  Fe1  1  0.01356500  0.51164600  0.46716600  1
  Fe  Fe2  1  0.50230600  0.00417500  0.00076100  1
  Fe  Fe3  1  0.49997400  0.00709100  0.49995100  1
  O  O0  1  0.16923100  0.41881200  0.23599900  1
  O  O1  1  0.18496100  0.17648000  0.57302600  1
  O  O2  1  0.19015200  0.19826800  0.90651400  1
  O  O3  1  0.31181400  0.69388900  0.58318900  1
  O  O4  1  0.30421900  0.69712100  0.91946900  1
  O  O5  1  0.34427000  0.92405800  0.24766600  1
  O  O6  1  0.65982500  0.07252800  0.75447900  1
  O  O7  1  0.69770200  0.29781500  0.08892900  1
  O  O8  1  0.67884100  0.31861200  0.43148600  1
  O  O9  1  0.80391200  0.80102600  0.09124400  1
  O  O10  1  0.80103900  0.82287500  0.42880600  1
  O  O11  1  0.82879500  0.57317400  0.77594200  1
loop_
_geom_bond_atom_site_label_1
_geom_bond_atom_site_label_2
_geom_bond_distance
_geom_bond_site_symmetry_2
Li0 O11 1.752794 1_555
Li0 O6 1.837620 1_555
Li0 O1 1.876016 1_655
Li0 O2 1.961018 1_655
Fe0 O0 1.975328 1_555
Fe0 O7 1.999342 1_455
Fe0 O4 2.020276 1_554
Fe0 O9 2.041736 1_455
Fe0 O11 2.114421 1_454
Fe0 O2 2.158027 1_554
Fe1 O8 2.013358 1_455
Fe1 O3 2.016944 1_555
Fe1 O10 2.069232 1_455
Fe1 O0 2.079050 1_555
Fe1 O1 2.213972 1_555
Fe2 O7 2.005703 1_555
Fe2 O9 2.041598 1_545
Fe2 O4 2.054256 1_544
Fe2 O2 2.065773 1_554
Fe2 O6 2.148519 1_554
Fe2 O5 2.165359 1_545
Fe3 O10 1.959201 1_545
Fe3 O1 1.980256 1_555
Fe3 O8 2.004798 1_555
Fe3 O3 2.068592 1_545
Fe3 O5 2.177902 1_545
Fe3 O6 2.183323 1_555
O0 Sc2 2.059978 1_555
O0 Sc3 2.194047 1_455
O1 Sc0 2.210919 1_545
O1 Sc1 2.381630 1_555
O1 Sc3 2.757416 1_455
O2 Sc1 2.243108 1_555
O2 Sc0 2.279934 1_545
O3 Sc1 2.079062 1_555
O3 Sc0 2.145200 1_555
O4 Sc0 2.153742 1_555
O4 Sc1 2.169514 1_555
O5 Sc3 2.064989 1_465
O5 Sc2 2.212534 1_555
O6 Sc1 2.255653 1_555
O6 Sc0 2.282653 1_645
O7 Sc2 2.170444 1_555
O7 Sc3 2.335422 1_555
O8 Sc2 2.095617 1_555
O8 Sc3 2.518818 1_555
O9 Sc3 2.122577 1_565
O9 Sc2 2.245987 1_555
O10 Sc3 2.073541 1_565
O10 Sc2 2.349938 1_555
O10 Sc0 2.777907 1_655
O11 Sc0 2.035779 1_655
O11 Sc1 2.055763 1_555
