# generated using pymatgen
data_HoZnCr2O6
_symmetry_space_group_name_H-M   'P 1'
_cell_length_a   5.20011700
_cell_length_b   5.39106600
_cell_length_c   7.61614500
_cell_angle_alpha   90.00000000
_cell_angle_beta   90.00000000
_cell_angle_gamma   90.00000000
_symmetry_Int_Tables_number   1
_chemical_formula_structural   HoZnCr2O6
_chemical_formula_sum   'Ho2 Zn2 Cr4 O12'
_cell_volume   213.51233379
_cell_formula_units_Z   2
loop_
 _symmetry_equiv_pos_site_id
 _symmetry_equiv_pos_as_xyz
  1  'x, y, z'
loop_
 _atom_site_type_symbol
 _atom_site_label
 _atom_site_symmetry_multiplicity
 _atom_site_fract_x
 _atom_site_fract_y
 _atom_site_fract_z
 _atom_site_occupancy
  Ho  Ho0  1  0.01337600  0.68087000  0.00000000  1
  Ho  Ho1  1  0.51337600  0.31913000  0.50000000  1
  Zn  Zn0  1  0.49595000  0.21999200  0.00000000  1
  Zn  Zn1  1  0.99595000  0.78000800  0.50000000  1
  Cr  Cr0  1  0.99807400  0.23948600  0.74878600  1
  Cr  Cr1  1  0.99807400  0.23948600  0.25121400  1
  Cr  Cr2  1  0.49807400  0.76051400  0.24878600  1
  Cr  Cr3  1  0.49807400  0.76051400  0.75121400  1
  O  O0  1  0.10734200  0.18651100  0.50000000  1
  O  O1  1  0.19752200  0.94173000  0.81118200  1
  O  O2  1  0.19752200  0.94173000  0.18881800  1
  O  O3  1  0.31929500  0.44388800  0.80872800  1
  O  O4  1  0.31929500  0.44388800  0.19127200  1
  O  O5  1  0.37704800  0.71584700  0.50000000  1
  O  O6  1  0.60734200  0.81348900  0.00000000  1
  O  O7  1  0.69752200  0.05827000  0.31118200  1
  O  O8  1  0.69752200  0.05827000  0.68881800  1
  O  O9  1  0.81929500  0.55611200  0.69127200  1
  O  O10  1  0.81929500  0.55611200  0.30872800  1
  O  O11  1  0.87704800  0.28415300  0.00000000  1
loop_
_geom_bond_atom_site_label_1
_geom_bond_atom_site_label_2
_geom_bond_distance
_geom_bond_site_symmetry_2
Ho0 O2 2.227714 1_555
Ho0 O1 2.227714 1_554
Ho0 O6 2.229188 1_455
Ho0 O11 2.253159 1_455
Ho0 O3 2.507001 1_554
Ho0 O4 2.507001 1_555
Ho0 O9 2.645681 1_454
Ho0 O10 2.645681 1_455
Ho1 O8 2.227714 1_555
Ho1 O7 2.227714 1_555
Ho1 O0 2.229188 1_555
Ho1 O5 2.253159 1_555
Ho1 O9 2.507001 1_555
Ho1 O10 2.507001 1_555
Ho1 O4 2.645681 1_555
Ho1 O3 2.645681 1_555
Cr0 O8 1.898867 1_555
Cr0 O1 1.969329 1_645
Cr0 O9 1.992448 1_555
Cr0 O0 1.998662 1_655
Cr0 O11 2.028476 1_556
Cr0 O3 2.052533 1_655
Cr1 O7 1.898867 1_555
Cr1 O2 1.969329 1_645
Cr1 O10 1.992448 1_555
Cr1 O0 1.998662 1_655
Cr1 O11 2.028476 1_555
Cr1 O4 2.052533 1_655
Cr2 O2 1.898867 1_555
Cr2 O7 1.969329 1_565
Cr2 O4 1.992448 1_555
Cr2 O6 1.998662 1_555
Cr2 O5 2.028476 1_555
Cr2 O10 2.052533 1_555
Cr3 O1 1.898867 1_555
Cr3 O8 1.969329 1_565
Cr3 O3 1.992448 1_555
Cr3 O6 1.998662 1_556
Cr3 O5 2.028476 1_555
Cr3 O9 2.052533 1_555
O0 Zn1 2.266746 1_445
O3 Zn0 2.103082 1_556
O4 Zn0 2.103082 1_555
O5 Zn1 2.011714 1_455
O6 Zn0 2.266746 1_565
O9 Zn1 2.103082 1_555
O10 Zn1 2.103082 1_555
O11 Zn0 2.011714 1_555
