# generated using pymatgen
data_EuCoO3
_symmetry_space_group_name_H-M   'P 1'
_cell_length_a   5.29294207
_cell_length_b   5.27999014
_cell_length_c   7.57930649
_cell_angle_alpha   90.00000000
_cell_angle_beta   90.00000000
_cell_angle_gamma   90.00000000
_symmetry_Int_Tables_number   1
_chemical_formula_structural   EuCoO3
_chemical_formula_sum   'Eu4 Co4 O12'
_cell_volume   211.81646781
_cell_formula_units_Z   4
loop_
 _symmetry_equiv_pos_site_id
 _symmetry_equiv_pos_as_xyz
  1  'x, y, z'
loop_
 _atom_site_type_symbol
 _atom_site_label
 _atom_site_symmetry_multiplicity
 _atom_site_fract_x
 _atom_site_fract_y
 _atom_site_fract_z
 _atom_site_occupancy
  Eu  Eu0  1  0.00297669  0.46689039  0.25000000  1
  Eu  Eu1  1  0.99702331  0.53310961  0.75000000  1
  Eu  Eu2  1  0.50297669  0.03310961  0.75000000  1
  Eu  Eu3  1  0.49702331  0.96689039  0.25000000  1
  Co  Co0  1  0.00000000  0.00000000  -0.00000000  1
  Co  Co1  1  0.50000000  0.50000000  -0.00000000  1
  Co  Co2  1  0.00000000  0.00000000  0.50000000  1
  Co  Co3  1  0.50000000  0.50000000  0.50000000  1
  O  O0  1  0.29676501  0.20333324  0.03130561  1
  O  O1  1  0.70323499  0.79666676  0.96869439  1
  O  O2  1  0.79676501  0.29666676  0.96869439  1
  O  O3  1  0.70323499  0.79666676  0.53130561  1
  O  O4  1  0.20323499  0.70333324  0.03130561  1
  O  O5  1  0.29676501  0.20333324  0.46869439  1
  O  O6  1  0.20323499  0.70333324  0.46869439  1
  O  O7  1  0.79676501  0.29666676  0.53130561  1
  O  O8  1  0.56215565  0.50823504  0.25000000  1
  O  O9  1  0.43784435  0.49176496  0.75000000  1
  O  O10  1  0.06215565  0.99176496  0.75000000  1
  O  O11  1  0.93784435  0.00823504  0.25000000  1
loop_
_geom_bond_atom_site_label_1
_geom_bond_atom_site_label_2
_geom_bond_distance
_geom_bond_site_symmetry_2
Eu0 O4 2.330134 1_555
Eu0 O6 2.330134 1_555
Eu0 O8 2.343430 1_455
Eu0 O11 2.446111 1_455
Eu0 O7 2.558312 1_455
Eu0 O2 2.558312 1_454
Eu0 O5 2.664960 1_555
Eu0 O0 2.664960 1_555
Eu1 O2 2.330134 1_555
Eu1 O7 2.330134 1_555
Eu1 O9 2.343430 1_655
Eu1 O10 2.446111 1_655
Eu1 O4 2.558312 1_656
Eu1 O6 2.558312 1_655
Eu1 O3 2.664960 1_555
Eu1 O1 2.664960 1_555
Eu2 O3 2.330134 1_545
Eu2 O1 2.330134 1_545
Eu2 O10 2.343430 1_545
Eu2 O9 2.446111 1_555
Eu2 O0 2.558312 1_556
Eu2 O5 2.558312 1_555
Eu2 O7 2.664960 1_555
Eu2 O2 2.664960 1_555
Eu3 O0 2.330134 1_565
Eu3 O5 2.330134 1_565
Eu3 O11 2.343430 1_565
Eu3 O8 2.446111 1_555
Eu3 O1 2.558312 1_554
Eu3 O3 2.558312 1_555
Eu3 O6 2.664960 1_555
Eu3 O4 2.664960 1_555
Co0 O2 1.914956 1_454
Co0 O4 1.914956 1_545
Co0 O0 1.917341 1_555
Co0 O1 1.917341 1_444
Co0 O11 1.923666 1_455
Co0 O10 1.923666 1_544
Co1 O1 1.914956 1_554
Co1 O0 1.914956 1_555
Co1 O4 1.917341 1_555
Co1 O2 1.917341 1_554
Co1 O8 1.923666 1_555
Co1 O9 1.923666 1_554
Co2 O7 1.914956 1_455
Co2 O6 1.914956 1_545
Co2 O5 1.917341 1_555
Co2 O3 1.917341 1_445
Co2 O11 1.923666 1_455
Co2 O10 1.923666 1_545
Co3 O5 1.914956 1_555
Co3 O3 1.914956 1_555
Co3 O6 1.917341 1_555
Co3 O7 1.917341 1_555
Co3 O9 1.923666 1_555
Co3 O8 1.923666 1_555
