# generated using pymatgen
data_Mg6GaSb
_symmetry_space_group_name_H-M   'P 1'
_cell_length_a   5.26615400
_cell_length_b   6.15304800
_cell_length_c   11.02035600
_cell_angle_alpha   90.00000000
_cell_angle_beta   90.00000000
_cell_angle_gamma   90.00000000
_symmetry_Int_Tables_number   1
_chemical_formula_structural   Mg6GaSb
_chemical_formula_sum   'Mg12 Ga2 Sb2'
_cell_volume   357.09147511
_cell_formula_units_Z   2
loop_
 _symmetry_equiv_pos_site_id
 _symmetry_equiv_pos_as_xyz
  1  'x, y, z'
loop_
 _atom_site_type_symbol
 _atom_site_label
 _atom_site_symmetry_multiplicity
 _atom_site_fract_x
 _atom_site_fract_y
 _atom_site_fract_z
 _atom_site_occupancy
  Mg  Mg0  1  0.00000000  0.25031800  0.08463400  1
  Mg  Mg1  1  0.00000000  0.74968200  0.08463400  1
  Mg  Mg2  1  0.00000000  0.00000000  0.33210400  1
  Mg  Mg3  1  0.50000000  0.74583200  0.41187700  1
  Mg  Mg4  1  0.50000000  0.25416800  0.41187700  1
  Mg  Mg5  1  0.50000000  0.00000000  0.16735300  1
  Mg  Mg6  1  0.00000000  0.75031800  0.58463400  1
  Mg  Mg7  1  0.00000000  0.24968200  0.58463400  1
  Mg  Mg8  1  0.00000000  0.50000000  0.83210400  1
  Mg  Mg9  1  0.50000000  0.24583200  0.91187700  1
  Mg  Mg10  1  0.50000000  0.75416800  0.91187700  1
  Mg  Mg11  1  0.50000000  0.50000000  0.66735300  1
  Ga  Ga0  1  0.00000000  0.50000000  0.34701400  1
  Ga  Ga1  1  0.00000000  0.00000000  0.84701400  1
  Sb  Sb0  1  0.50000000  0.50000000  0.16050700  1
  Sb  Sb1  1  0.50000000  0.00000000  0.66050700  1
loop_
_geom_bond_atom_site_label_1
_geom_bond_atom_site_label_2
_geom_bond_distance
_geom_bond_site_symmetry_2
Mg0 Mg1 3.072611 1_555
Mg0 Mg1 3.080437 1_545
Mg0 Mg2 3.132081 1_555
Mg0 Sb0 3.161087 1_455
Mg0 Sb0 3.161087 1_555
Mg0 Mg8 3.178861 1_554
Mg0 Mg5 3.183767 1_555
Mg0 Mg5 3.183767 1_455
Mg0 Mg9 3.249381 1_554
Mg0 Mg9 3.249381 1_454
Mg1 Mg2 3.132081 1_565
Mg1 Sb0 3.161087 1_455
Mg1 Sb0 3.161087 1_555
Mg1 Mg8 3.178861 1_554
Mg1 Mg5 3.183767 1_565
Mg1 Mg5 3.183767 1_465
Mg1 Mg10 3.249381 1_554
Mg1 Mg10 3.249381 1_454
Mg2 Mg6 3.178861 1_545
Mg2 Mg7 3.178861 1_555
Mg2 Mg3 3.186184 1_445
Mg2 Mg3 3.186184 1_545
Mg2 Mg4 3.186184 1_555
Mg2 Mg4 3.186184 1_455
Mg2 Mg5 3.198367 1_455
Mg2 Mg5 3.198367 1_555
Mg3 Mg4 3.025232 1_555
Mg3 Mg5 3.115676 1_565
Mg3 Mg4 3.127816 1_565
Mg3 Sb1 3.154894 1_565
Mg3 Sb0 3.156255 1_555
Mg3 Mg6 3.249381 1_555
Mg3 Mg6 3.249381 1_655
Mg4 Mg5 3.115676 1_555
Mg4 Sb1 3.154894 1_555
Mg4 Sb0 3.156255 1_555
Mg4 Mg7 3.249381 1_555
Mg4 Mg7 3.249381 1_655
Mg5 Sb0 3.077449 1_545
Mg5 Sb0 3.077449 1_555
Mg5 Mg9 3.196043 1_554
Mg6 Mg7 3.072611 1_565
Mg6 Mg7 3.080437 1_555
Mg6 Mg8 3.132081 1_555
Mg6 Sb1 3.161087 1_465
Mg6 Sb1 3.161087 1_565
Mg7 Mg8 3.132081 1_555
Mg7 Sb1 3.161087 1_455
Mg7 Sb1 3.161087 1_555
Mg8 Mg9 3.186184 1_455
Mg8 Mg9 3.186184 1_555
Mg9 Sb0 3.154894 1_556
Mg9 Sb1 3.156255 1_555
Mg10 Mg9 3.025232 1_565
Mg10 Mg11 3.115676 1_555
Mg10 Mg9 3.127816 1_555
Mg10 Sb0 3.154894 1_556
Mg10 Sb1 3.156255 1_565
Mg10 Mg8 3.186184 1_655
Mg10 Mg8 3.186184 1_555
Mg10 Mg5 3.196043 1_566
Mg11 Sb1 3.077449 1_565
Mg11 Sb1 3.077449 1_555
Mg11 Mg9 3.115676 1_555
Mg11 Mg7 3.183767 1_555
Mg11 Mg7 3.183767 1_655
Mg11 Mg6 3.183767 1_555
Mg11 Mg6 3.183767 1_655
Mg11 Mg3 3.196043 1_555
Mg11 Mg4 3.196043 1_555
Mg11 Mg8 3.198367 1_655
Mg11 Mg8 3.198367 1_555
Ga0 Mg6 3.038032 1_555
Ga0 Mg7 3.038032 1_555
Ga0 Mg2 3.080909 1_555
Ga0 Mg2 3.080909 1_565
Ga0 Mg4 3.119625 1_455
Ga0 Mg3 3.119625 1_555
Ga0 Mg4 3.119625 1_555
Ga0 Mg3 3.119625 1_455
Ga0 Mg1 3.274313 1_555
Ga0 Mg0 3.274313 1_555
Ga0 Sb0 3.340308 1_455
Ga0 Sb0 3.340308 1_555
Ga1 Mg1 3.038032 1_546
Ga1 Mg0 3.038032 1_556
Ga1 Mg8 3.080909 1_555
Ga1 Mg8 3.080909 1_545
Ga1 Mg9 3.119625 1_555
Ga1 Mg10 3.119625 1_445
Ga1 Mg10 3.119625 1_545
Ga1 Mg9 3.119625 1_455
Ga1 Mg6 3.274313 1_545
Ga1 Mg7 3.274313 1_555
Ga1 Sb1 3.340308 1_455
Ga1 Sb1 3.340308 1_555
