# generated using pymatgen
data_Ba3NbGa3(SiO7)2
_symmetry_space_group_name_H-M   'P 1'
_cell_length_a   8.65367938
_cell_length_b   8.65367938
_cell_length_c   5.27118500
_cell_angle_alpha   90.00000000
_cell_angle_beta   90.00000000
_cell_angle_gamma   119.99999526
_symmetry_Int_Tables_number   1
_chemical_formula_structural   Ba3NbGa3(SiO7)2
_chemical_formula_sum   'Ba3 Nb1 Ga3 Si2 O14'
_cell_volume   341.85387893
_cell_formula_units_Z   1
loop_
 _symmetry_equiv_pos_site_id
 _symmetry_equiv_pos_as_xyz
  1  'x, y, z'
loop_
 _atom_site_type_symbol
 _atom_site_label
 _atom_site_symmetry_multiplicity
 _atom_site_fract_x
 _atom_site_fract_y
 _atom_site_fract_z
 _atom_site_occupancy
  Ba  Ba0  1  0.57168900  0.57168900  0.00000000  1
  Ba  Ba1  1  0.00000000  0.42831100  0.00000000  1
  Ba  Ba2  1  0.42831100  0.00000000  0.00000000  1
  Nb  Nb0  1  0.00000000  0.00000000  0.00000000  1
  Ga  Ga0  1  0.25812800  0.25812800  0.50000000  1
  Ga  Ga1  1  0.00000000  0.74187200  0.50000000  1
  Ga  Ga2  1  0.74187200  0.00000000  0.50000000  1
  Si  Si0  1  0.66666700  0.33333300  0.51939100  1
  Si  Si1  1  0.33333300  0.66666700  0.48060900  1
  O  O0  1  0.10970700  0.21755300  0.77338100  1
  O  O1  1  0.78244700  0.89215400  0.77338100  1
  O  O2  1  0.10784600  0.89029300  0.77338100  1
  O  O3  1  0.89215400  0.78244700  0.22661900  1
  O  O4  1  0.89029300  0.10784600  0.22661900  1
  O  O5  1  0.21755300  0.10970700  0.22661900  1
  O  O6  1  0.30180100  0.47657900  0.35381800  1
  O  O7  1  0.52342100  0.82522100  0.35381800  1
  O  O8  1  0.17477900  0.69819900  0.35381800  1
  O  O9  1  0.33333300  0.66666700  0.78606700  1
  O  O10  1  0.66666700  0.33333300  0.21393300  1
  O  O11  1  0.47657900  0.30180100  0.64618200  1
  O  O12  1  0.69819900  0.17477900  0.64618200  1
  O  O13  1  0.82522100  0.52342100  0.64618200  1
loop_
_geom_bond_atom_site_label_1
_geom_bond_atom_site_label_2
_geom_bond_distance
_geom_bond_site_symmetry_2
Ba0 O3 2.717739 1_555
Ba0 O1 2.717739 1_554
Ba0 O11 2.772761 1_554
Ba0 O6 2.772761 1_555
Ba0 O10 2.810172 1_555
Ba0 O9 2.810172 1_554
Ba0 O7 3.063141 1_555
Ba0 O13 3.063141 1_554
Ba1 O0 2.717739 1_554
Ba1 O4 2.717739 1_455
Ba1 O8 2.772762 1_555
Ba1 O13 2.772767 1_454
Ba1 O10 2.810164 1_455
Ba1 O9 2.810166 1_554
Ba1 O12 3.063145 1_454
Ba1 O6 3.063148 1_555
Ba2 O5 2.717739 1_555
Ba2 O2 2.717739 1_544
Ba2 O12 2.772762 1_554
Ba2 O7 2.772767 1_545
Ba2 O9 2.810164 1_544
Ba2 O10 2.810166 1_555
Ba2 O8 3.063145 1_545
Ba2 O11 3.063148 1_554
Nb0 O2 2.021200 1_544
Nb0 O4 2.021200 1_455
Nb0 O3 2.021200 1_445
Nb0 O1 2.021200 1_444
Nb0 O5 2.021200 1_555
Nb0 O0 2.021200 1_554
Ga0 O5 1.843519 1_555
Ga0 O0 1.843519 1_555
Ga0 O6 1.896251 1_555
Ga0 O11 1.896251 1_555
Ga1 O3 1.843519 1_455
Ga1 O2 1.843519 1_555
Ga1 O13 1.896254 1_455
Ga1 O8 1.896259 1_555
Ga2 O1 1.843519 1_545
Ga2 O4 1.843519 1_555
Ga2 O7 1.896254 1_545
Ga2 O12 1.896259 1_555
O6 Si1 1.666785 1_555
O7 Si1 1.666779 1_555
O8 Si1 1.666769 1_555
O9 Si1 1.610126 1_555
O10 Si0 1.610126 1_555
O11 Si0 1.666785 1_555
O12 Si0 1.666769 1_555
O13 Si0 1.666779 1_555
