# generated using pymatgen
data_Zn3SbAs2Pb3O14
_symmetry_space_group_name_H-M   'P 1'
_cell_length_a   8.67683789
_cell_length_b   8.67683789
_cell_length_c   5.38009000
_cell_angle_alpha   90.00000000
_cell_angle_beta   90.00000000
_cell_angle_gamma   119.99999912
_symmetry_Int_Tables_number   1
_chemical_formula_structural   Zn3SbAs2Pb3O14
_chemical_formula_sum   'Zn3 Sb1 As2 Pb3 O14'
_cell_volume   350.78671948
_cell_formula_units_Z   1
loop_
 _symmetry_equiv_pos_site_id
 _symmetry_equiv_pos_as_xyz
  1  'x, y, z'
loop_
 _atom_site_type_symbol
 _atom_site_label
 _atom_site_symmetry_multiplicity
 _atom_site_fract_x
 _atom_site_fract_y
 _atom_site_fract_z
 _atom_site_occupancy
  Zn  Zn0  1  0.23719200  0.00000000  0.50000000  1
  Zn  Zn1  1  0.00000000  0.23719200  0.50000000  1
  Zn  Zn2  1  0.76280800  0.76280800  0.50000000  1
  Sb  Sb0  1  0.00000000  0.00000000  0.00000000  1
  As  As0  1  0.33333300  0.66666700  0.53777000  1
  As  As1  1  0.66666700  0.33333300  0.46223000  1
  Pb  Pb0  1  0.60467500  0.00000000  0.00000000  1
  Pb  Pb1  1  0.00000000  0.60467500  0.00000000  1
  Pb  Pb2  1  0.39532500  0.39532500  0.00000000  1
  O  O0  1  0.12504600  0.21745600  0.21433400  1
  O  O1  1  0.78254400  0.90759000  0.21433400  1
  O  O2  1  0.21745600  0.12504600  0.78566600  1
  O  O3  1  0.09241000  0.87495400  0.21433400  1
  O  O4  1  0.90759000  0.78254400  0.78566600  1
  O  O5  1  0.87495400  0.09241000  0.78566600  1
  O  O6  1  0.45861000  0.19617900  0.33289500  1
  O  O7  1  0.80382100  0.26243100  0.33289500  1
  O  O8  1  0.19617900  0.45861000  0.66710500  1
  O  O9  1  0.73756900  0.54139000  0.33289500  1
  O  O10  1  0.26243100  0.80382100  0.66710500  1
  O  O11  1  0.54139000  0.73756900  0.66710500  1
  O  O12  1  0.33333300  0.66666700  0.21920100  1
  O  O13  1  0.66666700  0.33333300  0.78079900  1
loop_
_geom_bond_atom_site_label_1
_geom_bond_atom_site_label_2
_geom_bond_distance
_geom_bond_site_symmetry_2
As0 O12 1.713930 1_555
As0 O10 1.735236 1_555
As0 O8 1.735242 1_555
As0 O11 1.735244 1_555
As1 O13 1.713930 1_555
As1 O7 1.735236 1_555
As1 O6 1.735242 1_555
As1 O9 1.735244 1_555
O0 Zn1 1.937640 1_555
O0 Sb0 2.004961 1_555
O0 Pb2 2.364750 1_555
O1 Zn2 1.937640 1_555
O1 Sb0 2.004961 1_665
O1 Pb0 2.364750 1_565
O2 Zn0 1.937640 1_555
O2 Sb0 2.004961 1_556
O2 Pb2 2.364750 1_556
O3 Zn0 1.937640 1_565
O3 Sb0 2.004961 1_565
O3 Pb1 2.364750 1_555
O4 Zn2 1.937640 1_555
O4 Sb0 2.004961 1_666
O4 Pb1 2.364750 1_656
O5 Zn1 1.937640 1_655
O5 Sb0 2.004961 1_656
O5 Pb0 2.364750 1_556
O6 Zn0 2.031388 1_555
O6 Pb2 2.728353 1_555
O7 Zn1 2.031388 1_655
O7 Pb0 2.728353 1_555
O8 Zn1 2.031388 1_555
O8 Pb2 2.728353 1_556
O9 Zn2 2.031388 1_555
O9 Pb1 2.728353 1_655
O10 Zn0 2.031388 1_565
O10 Pb1 2.728353 1_556
O11 Zn2 2.031388 1_555
O11 Pb0 2.728353 1_566
