# generated using pymatgen
data_HoMnAl
_symmetry_space_group_name_H-M   'P 1'
_cell_length_a   5.41722607
_cell_length_b   5.41722607
_cell_length_c   5.41722607
_cell_angle_alpha   119.52359283
_cell_angle_beta   118.93146954
_cell_angle_gamma   91.34399212
_symmetry_Int_Tables_number   1
_chemical_formula_structural   HoMnAl
_chemical_formula_sum   'Ho2 Mn2 Al2'
_cell_volume   113.68780681
_cell_formula_units_Z   2
loop_
 _symmetry_equiv_pos_site_id
 _symmetry_equiv_pos_as_xyz
  1  'x, y, z'
loop_
 _atom_site_type_symbol
 _atom_site_label
 _atom_site_symmetry_multiplicity
 _atom_site_fract_x
 _atom_site_fract_y
 _atom_site_fract_z
 _atom_site_occupancy
  Ho  Ho0  1  0.12991700  0.87991700  0.25000000  1
  Ho  Ho1  1  0.87008300  0.12008300  0.75000000  1
  Mn  Mn0  1  0.50000000  0.00000000  0.00000000  1
  Mn  Mn1  1  0.50000000  0.50000000  0.50000000  1
  Al  Al0  1  0.00000000  0.50000000  0.50000000  1
  Al  Al1  1  0.50000000  0.50000000  0.00000000  1
loop_
_geom_bond_atom_site_label_1
_geom_bond_atom_site_label_2
_geom_bond_distance
_geom_bond_site_symmetry_2
Ho0 Mn1 3.116201 1_565
Ho0 Mn0 3.116201 1_565
Ho0 Mn1 3.225346 1_555
Ho0 Mn0 3.225346 1_465
Ho0 Mn0 3.225346 1_566
Ho0 Mn1 3.225346 1_454
Ho0 Ho1 3.298606 1_464
Ho0 Ho1 3.298606 1_565
Ho0 Ho1 3.363349 1_465
Ho0 Ho1 3.363349 1_454
Ho1 Mn1 3.116201 1_545
Ho1 Mn0 3.116201 1_556
Ho1 Mn0 3.225346 1_656
Ho1 Mn1 3.225346 1_555
Ho1 Mn0 3.225346 1_555
Ho1 Mn1 3.225346 1_656
Mn0 Mn1 2.728094 1_555
Mn0 Mn1 2.728094 1_544
Al0 Mn0 2.708613 1_455
Al0 Mn1 2.708613 1_455
Al0 Mn0 2.708613 1_566
Al0 Mn1 2.708613 1_555
Al0 Al1 2.752241 1_556
Al0 Al1 2.752241 1_455
Al0 Ho1 3.187899 1_465
Al0 Ho1 3.187899 1_454
Al0 Ho0 3.187899 1_556
Al0 Ho0 3.187899 1_545
Al0 Ho1 3.188500 1_455
Al0 Ho0 3.188500 1_555
Al1 Mn0 2.708613 1_555
Al1 Mn1 2.708613 1_554
Al1 Mn1 2.708613 1_555
Al1 Mn0 2.708613 1_565
Al1 Ho1 3.187899 1_565
Al1 Ho0 3.187899 1_555
Al1 Ho0 3.187899 1_544
Al1 Ho1 3.187899 1_554
Al1 Ho1 3.188500 1_454
Al1 Ho0 3.188500 1_655
