# generated using pymatgen
data_Ba(TmTe2)2
_symmetry_space_group_name_H-M   'P 1'
_cell_length_a   4.44038476
_cell_length_b   13.71403505
_cell_length_c   16.11871490
_cell_angle_alpha   90.00000000
_cell_angle_beta   90.00000000
_cell_angle_gamma   90.00000000
_symmetry_Int_Tables_number   1
_chemical_formula_structural   Ba(TmTe2)2
_chemical_formula_sum   'Ba4 Tm8 Te16'
_cell_volume   981.55868989
_cell_formula_units_Z   4
loop_
 _symmetry_equiv_pos_site_id
 _symmetry_equiv_pos_as_xyz
  1  'x, y, z'
loop_
 _atom_site_type_symbol
 _atom_site_label
 _atom_site_symmetry_multiplicity
 _atom_site_fract_x
 _atom_site_fract_y
 _atom_site_fract_z
 _atom_site_occupancy
  Ba  Ba0  1  0.75000000  0.26151648  0.83021492  1
  Ba  Ba1  1  0.25000000  0.73848352  0.16978508  1
  Ba  Ba2  1  0.75000000  0.76151648  0.66978508  1
  Ba  Ba3  1  0.25000000  0.23848352  0.33021492  1
  Tm  Tm0  1  0.25000000  0.08107451  0.59671659  1
  Tm  Tm1  1  0.75000000  0.91892549  0.40328341  1
  Tm  Tm2  1  0.25000000  0.58107451  0.90328341  1
  Tm  Tm3  1  0.75000000  0.41892549  0.09671659  1
  Tm  Tm4  1  0.75000000  0.94187154  0.88998115  1
  Tm  Tm5  1  0.25000000  0.05812846  0.11001885  1
  Tm  Tm6  1  0.75000000  0.44187154  0.61001885  1
  Tm  Tm7  1  0.25000000  0.55812846  0.38998115  1
  Te  Te0  1  0.25000000  0.47225348  0.21562838  1
  Te  Te1  1  0.75000000  0.52774652  0.78437162  1
  Te  Te2  1  0.25000000  0.97225348  0.28437162  1
  Te  Te3  1  0.75000000  0.02774652  0.71562838  1
  Te  Te4  1  0.25000000  0.37514186  0.97219850  1
  Te  Te5  1  0.75000000  0.62485814  0.02780150  1
  Te  Te6  1  0.25000000  0.87514186  0.52780150  1
  Te  Te7  1  0.75000000  0.12485814  0.47219850  1
  Te  Te8  1  0.25000000  0.29585708  0.65756361  1
  Te  Te9  1  0.75000000  0.70414292  0.34243639  1
  Te  Te10  1  0.25000000  0.79585708  0.84243639  1
  Te  Te11  1  0.75000000  0.20414292  0.15756361  1
  Te  Te12  1  0.75000000  0.41087300  0.42494593  1
  Te  Te13  1  0.25000000  0.58912700  0.57505407  1
  Te  Te14  1  0.75000000  0.91087300  0.07505407  1
  Te  Te15  1  0.25000000  0.08912700  0.92494593  1
loop_
_geom_bond_atom_site_label_1
_geom_bond_atom_site_label_2
_geom_bond_distance
_geom_bond_site_symmetry_2
Ba0 Te4 3.548957 1_555
Ba0 Te4 3.548957 1_655
Ba0 Te15 3.584695 1_555
Ba0 Te15 3.584695 1_655
Ba0 Te8 3.591055 1_555
Ba0 Te8 3.591055 1_655
Ba0 Te3 3.699912 1_555
Ba0 Te1 3.725113 1_555
Ba1 Te5 3.548957 1_555
Ba1 Te5 3.548957 1_455
Ba1 Te14 3.584695 1_555
Ba1 Te14 3.584695 1_455
Ba1 Te9 3.591055 1_555
Ba1 Te9 3.591055 1_455
Ba1 Te2 3.699912 1_555
Ba1 Te0 3.725113 1_555
Ba2 Te6 3.548957 1_555
Ba2 Te6 3.548957 1_655
Ba2 Te13 3.584695 1_555
Ba2 Te13 3.584695 1_655
Ba2 Te10 3.591055 1_555
Ba2 Te10 3.591055 1_655
Ba2 Te1 3.699912 1_555
Ba2 Te3 3.725113 1_565
Ba3 Te7 3.548957 1_555
Ba3 Te7 3.548957 1_455
Ba3 Te12 3.584695 1_455
Ba3 Te12 3.584695 1_555
Ba3 Te11 3.591055 1_455
Ba3 Te11 3.591055 1_555
Ba3 Te0 3.699912 1_555
Ba3 Te2 3.725113 1_545
Te0 Tm3 3.022892 1_555
Te0 Tm3 3.022892 1_455
Te0 Tm7 3.047127 1_555
Te1 Tm2 3.022892 1_555
Te1 Tm2 3.022892 1_655
Te1 Tm6 3.047127 1_555
Te2 Tm1 3.022892 1_455
Te2 Tm1 3.022892 1_555
Te2 Tm5 3.047127 1_565
Te3 Tm0 3.022892 1_655
Te3 Tm0 3.022892 1_555
Te3 Tm4 3.047127 1_545
Te4 Tm2 3.034773 1_555
Te4 Tm3 3.052561 1_556
Te4 Tm3 3.052561 1_456
Te5 Tm3 3.034773 1_555
Te5 Tm2 3.052561 1_654
Te5 Tm2 3.052561 1_554
Te6 Tm0 3.034773 1_565
Te6 Tm1 3.052561 1_555
Te6 Tm1 3.052561 1_455
Te7 Tm1 3.034773 1_545
Te7 Tm0 3.052561 1_555
Te7 Tm0 3.052561 1_655
Te8 Tm6 3.086480 1_555
Te8 Tm6 3.086480 1_455
Te8 Tm0 3.104529 1_555
Te9 Tm7 3.086480 1_655
Te9 Tm7 3.086480 1_555
Te9 Tm1 3.104529 1_555
Te10 Tm4 3.086480 1_455
Te10 Tm4 3.086480 1_555
Te10 Tm2 3.104529 1_555
Te11 Tm5 3.086480 1_555
Te11 Tm5 3.086480 1_655
Te11 Tm3 3.104529 1_555
Te12 Tm6 3.013276 1_555
Te12 Tm7 3.053708 1_655
Te12 Tm7 3.053708 1_555
Te13 Tm7 3.013276 1_555
Te13 Tm6 3.053708 1_455
Te13 Tm6 3.053708 1_555
Te14 Tm4 3.013276 1_554
Te14 Tm5 3.053708 1_565
Te14 Tm5 3.053708 1_665
Te15 Tm5 3.013276 1_556
Te15 Tm4 3.053708 1_545
Te15 Tm4 3.053708 1_445
