# generated using pymatgen
data_Nd5S8
_symmetry_space_group_name_H-M   'P 1'
_cell_length_a   8.36354304
_cell_length_b   8.36354304
_cell_length_c   8.36354304
_cell_angle_alpha   60.00000000
_cell_angle_beta   60.00000000
_cell_angle_gamma   60.00000000
_symmetry_Int_Tables_number   1
_chemical_formula_structural   Nd5S8
_chemical_formula_sum   'Nd5 S8'
_cell_volume   413.67177623
_cell_formula_units_Z   1
loop_
 _symmetry_equiv_pos_site_id
 _symmetry_equiv_pos_as_xyz
  1  'x, y, z'
loop_
 _atom_site_type_symbol
 _atom_site_label
 _atom_site_symmetry_multiplicity
 _atom_site_fract_x
 _atom_site_fract_y
 _atom_site_fract_z
 _atom_site_occupancy
  Nd  Nd0  1  0.11322500  0.62892500  0.62892500  1
  Nd  Nd1  1  0.62892500  0.11322500  0.62892500  1
  Nd  Nd2  1  0.62892500  0.62892500  0.11322500  1
  Nd  Nd3  1  0.62892500  0.62892500  0.62892500  1
  Nd  Nd4  1  0.25000000  0.25000000  0.25000000  1
  S  S0  1  0.85000000  0.38333300  0.38333300  1
  S  S1  1  0.38333300  0.85000000  0.38333300  1
  S  S2  1  0.38333300  0.38333300  0.85000000  1
  S  S3  1  0.38333300  0.38333300  0.38333300  1
  S  S4  1  0.40844700  0.86385100  0.86385100  1
  S  S5  1  0.86385100  0.40844700  0.86385100  1
  S  S6  1  0.86385100  0.86385100  0.40844700  1
  S  S7  1  0.86385100  0.86385100  0.86385100  1
loop_
_geom_bond_atom_site_label_1
_geom_bond_atom_site_label_2
_geom_bond_distance
_geom_bond_site_symmetry_2
Nd0 S7 2.781292 1_455
Nd0 S5 2.781292 1_455
Nd0 S6 2.781292 1_455
Nd0 S1 2.912044 1_555
Nd0 S2 2.912044 1_555
Nd0 S3 2.912049 1_555
Nd1 S7 2.781292 1_545
Nd1 S4 2.781292 1_545
Nd1 S6 2.781292 1_545
Nd1 S0 2.912044 1_555
Nd1 S2 2.912044 1_555
Nd1 S3 2.912049 1_555
Nd2 S7 2.781292 1_554
Nd2 S4 2.781292 1_554
Nd2 S5 2.781292 1_554
Nd2 S0 2.912044 1_555
Nd2 S1 2.912044 1_555
Nd2 S3 2.912049 1_555
Nd3 S6 2.781292 1_555
Nd3 S4 2.781292 1_555
Nd3 S5 2.781292 1_555
Nd3 S1 2.912050 1_555
Nd3 S2 2.912050 1_555
Nd3 S0 2.912050 1_555
Nd4 S3 2.731515 1_555
Nd4 S1 2.731522 1_545
Nd4 S2 2.731522 1_554
Nd4 S0 2.731522 1_455
