# generated using pymatgen
data_Cd4CN4
_symmetry_space_group_name_H-M   'P 1'
_cell_length_a   10.83512600
_cell_length_b   3.42094000
_cell_length_c   14.85919100
_cell_angle_alpha   90.00000000
_cell_angle_beta   90.00000000
_cell_angle_gamma   90.00000000
_symmetry_Int_Tables_number   1
_chemical_formula_structural   Cd4CN4
_chemical_formula_sum   'Cd16 C4 N16'
_cell_volume   550.77546820
_cell_formula_units_Z   4
loop_
 _symmetry_equiv_pos_site_id
 _symmetry_equiv_pos_as_xyz
  1  'x, y, z'
loop_
 _atom_site_type_symbol
 _atom_site_label
 _atom_site_symmetry_multiplicity
 _atom_site_fract_x
 _atom_site_fract_y
 _atom_site_fract_z
 _atom_site_occupancy
  Cd  Cd0  1  0.10049700  0.25000000  0.16983900  1
  Cd  Cd1  1  0.60049700  0.25000000  0.33016100  1
  Cd  Cd2  1  0.89950300  0.75000000  0.83016100  1
  Cd  Cd3  1  0.39950300  0.75000000  0.66983900  1
  Cd  Cd4  1  0.87432300  0.25000000  0.02475200  1
  Cd  Cd5  1  0.37432300  0.25000000  0.47524800  1
  Cd  Cd6  1  0.12567700  0.75000000  0.97524800  1
  Cd  Cd7  1  0.62567700  0.75000000  0.52475200  1
  Cd  Cd8  1  0.39513500  0.25000000  0.86578700  1
  Cd  Cd9  1  0.89513500  0.25000000  0.63421300  1
  Cd  Cd10  1  0.60486500  0.75000000  0.13421300  1
  Cd  Cd11  1  0.10486500  0.75000000  0.36578700  1
  Cd  Cd12  1  0.14692500  0.25000000  0.77604400  1
  Cd  Cd13  1  0.64692500  0.25000000  0.72395600  1
  Cd  Cd14  1  0.85307500  0.75000000  0.22395600  1
  Cd  Cd15  1  0.35307500  0.75000000  0.27604400  1
  C  C0  1  0.36657400  0.25000000  0.06604800  1
  C  C1  1  0.86657400  0.25000000  0.43395200  1
  C  C2  1  0.63342600  0.75000000  0.93395200  1
  C  C3  1  0.13342600  0.75000000  0.56604800  1
  N  N0  1  0.71424000  0.25000000  0.20990500  1
  N  N1  1  0.21424000  0.25000000  0.29009500  1
  N  N2  1  0.28576000  0.75000000  0.79009500  1
  N  N3  1  0.78576000  0.75000000  0.70990500  1
  N  N4  1  0.01036600  0.25000000  0.89618700  1
  N  N5  1  0.51036600  0.25000000  0.60381300  1
  N  N6  1  0.98963400  0.75000000  0.10381300  1
  N  N7  1  0.48963400  0.75000000  0.39618700  1
  N  N8  1  0.28654800  0.25000000  0.00587500  1
  N  N9  1  0.78654800  0.25000000  0.49412500  1
  N  N10  1  0.71345200  0.75000000  0.99412500  1
  N  N11  1  0.21345200  0.75000000  0.50587500  1
  N  N12  1  0.44553400  0.25000000  0.12621800  1
  N  N13  1  0.94553400  0.25000000  0.37378200  1
  N  N14  1  0.55446600  0.75000000  0.87378200  1
  N  N15  1  0.05446600  0.75000000  0.62621800  1
loop_
_geom_bond_atom_site_label_1
_geom_bond_atom_site_label_2
_geom_bond_distance
_geom_bond_site_symmetry_2
Cd0 N1 2.170690 1_555
Cd0 N6 2.308932 1_455
Cd0 N6 2.308932 1_445
Cd1 N0 2.170690 1_555
Cd1 N7 2.308932 1_555
Cd1 N7 2.308932 1_545
Cd2 N3 2.170690 1_555
Cd2 N4 2.308932 1_665
Cd2 N4 2.308932 1_655
Cd3 N2 2.170690 1_555
Cd3 N5 2.308932 1_555
Cd3 N5 2.308932 1_565
Cd4 N4 2.412949 1_654
Cd4 N6 2.422157 1_555
Cd4 N6 2.422157 1_545
Cd4 N10 2.484163 1_554
Cd4 N10 2.484163 1_544
Cd5 N5 2.412949 1_555
Cd5 N7 2.422157 1_545
Cd5 N7 2.422157 1_555
Cd5 N11 2.484163 1_545
Cd5 N11 2.484163 1_555
Cd6 N6 2.412949 1_456
Cd6 N4 2.422157 1_565
Cd6 N4 2.422157 1_555
Cd6 N8 2.484163 1_556
Cd6 N8 2.484163 1_566
Cd7 N7 2.412949 1_555
Cd7 N5 2.422157 1_565
Cd7 N5 2.422157 1_555
Cd7 N9 2.484163 1_565
Cd7 N9 2.484163 1_555
Cd8 N2 2.365407 1_545
Cd8 N2 2.365407 1_555
Cd8 N8 2.391091 1_556
Cd8 N14 2.433142 1_555
Cd8 N14 2.433142 1_545
Cd9 N3 2.365407 1_545
Cd9 N3 2.365407 1_555
Cd9 N9 2.391091 1_555
Cd9 N15 2.433142 1_655
Cd9 N15 2.433142 1_645
Cd10 N0 2.365407 1_555
Cd10 N0 2.365407 1_565
Cd10 N10 2.391091 1_554
Cd10 N12 2.433142 1_565
Cd10 N12 2.433142 1_555
Cd11 N1 2.365407 1_555
Cd11 N1 2.365407 1_565
Cd11 N11 2.391091 1_555
Cd11 N13 2.433142 1_455
Cd11 N13 2.433142 1_465
Cd12 N2 2.287401 1_545
Cd12 N2 2.287401 1_555
Cd12 N4 2.318697 1_555
Cd13 N3 2.287401 1_545
Cd13 N3 2.287401 1_555
Cd13 N5 2.318697 1_555
Cd14 N0 2.287401 1_565
Cd14 N0 2.287401 1_555
Cd14 N6 2.318697 1_555
Cd15 N1 2.287401 1_565
Cd15 N1 2.287401 1_555
Cd15 N7 2.318697 1_555
C0 N12 1.237468 1_555
C0 N8 1.245513 1_555
C1 N13 1.237468 1_555
C1 N9 1.245513 1_555
C2 N14 1.237468 1_555
C2 N10 1.245513 1_555
C3 N15 1.237468 1_555
C3 N11 1.245513 1_555
