# generated using pymatgen
data_CeSe2
_symmetry_space_group_name_H-M   'P 1'
_cell_length_a   7.19173816
_cell_length_b   6.82359508
_cell_length_c   7.02592588
_cell_angle_alpha   78.82650483
_cell_angle_beta   90.00000000
_cell_angle_gamma   90.00000000
_symmetry_Int_Tables_number   1
_chemical_formula_structural   CeSe2
_chemical_formula_sum   'Ce4 Se8'
_cell_volume   338.25136959
_cell_formula_units_Z   4
loop_
 _symmetry_equiv_pos_site_id
 _symmetry_equiv_pos_as_xyz
  1  'x, y, z'
loop_
 _atom_site_type_symbol
 _atom_site_label
 _atom_site_symmetry_multiplicity
 _atom_site_fract_x
 _atom_site_fract_y
 _atom_site_fract_z
 _atom_site_occupancy
  Ce  Ce0  1  0.55550878  0.71068203  0.69531931  1
  Ce  Ce1  1  0.05550878  0.28931797  0.80468069  1
  Ce  Ce2  1  0.44449122  0.28931797  0.30468069  1
  Ce  Ce3  1  0.94449122  0.71068203  0.19531931  1
  Se  Se0  1  0.86324616  0.92431713  0.80888730  1
  Se  Se1  1  0.36324616  0.07568287  0.69111270  1
  Se  Se2  1  0.13675384  0.07568287  0.19111270  1
  Se  Se3  1  0.63675384  0.92431713  0.30888730  1
  Se  Se4  1  0.26279795  0.57381188  0.98832849  1
  Se  Se5  1  0.76279795  0.42618812  0.51167151  1
  Se  Se6  1  0.73720205  0.42618812  0.01167151  1
  Se  Se7  1  0.23720205  0.57381188  0.48832849  1
loop_
_geom_bond_atom_site_label_1
_geom_bond_atom_site_label_2
_geom_bond_distance
_geom_bond_site_symmetry_2
Ce0 Se1 2.843833 1_565
Ce0 Se0 2.847920 1_555
Ce0 Se3 2.881666 1_555
Ce0 Se5 2.937101 1_555
Ce0 Se6 2.957021 1_556
Ce0 Se7 2.958714 1_555
Ce0 Se4 2.965911 1_555
Ce1 Se0 2.843833 1_445
Ce1 Se1 2.847920 1_555
Ce1 Se2 2.881666 1_556
Ce1 Se4 2.937101 1_555
Ce1 Se7 2.957021 1_555
Ce1 Se6 2.958714 1_456
Ce1 Se5 2.965911 1_455
Ce2 Se3 2.843833 1_545
Ce2 Se2 2.847920 1_555
Ce2 Se1 2.881666 1_555
Ce2 Se7 2.937101 1_555
Ce2 Se4 2.957021 1_554
Ce2 Se5 2.958714 1_555
Ce2 Se6 2.965911 1_555
Ce3 Se2 2.843833 1_665
Ce3 Se3 2.847920 1_555
Ce3 Se0 2.881666 1_554
Ce3 Se6 2.937101 1_555
Ce3 Se5 2.957021 1_555
Ce3 Se4 2.958714 1_654
Ce3 Se7 2.965911 1_655
