# generated using pymatgen
data_BaTiNbGaO6
_symmetry_space_group_name_H-M   'P 1'
_cell_length_a   5.71715084
_cell_length_b   5.71715084
_cell_length_c   5.71715084
_cell_angle_alpha   60.00000000
_cell_angle_beta   60.00000000
_cell_angle_gamma   60.00000000
_symmetry_Int_Tables_number   1
_chemical_formula_structural   BaTiNbGaO6
_chemical_formula_sum   'Ba1 Ti1 Nb1 Ga1 O6'
_cell_volume   132.13685164
_cell_formula_units_Z   1
loop_
 _symmetry_equiv_pos_site_id
 _symmetry_equiv_pos_as_xyz
  1  'x, y, z'
loop_
 _atom_site_type_symbol
 _atom_site_label
 _atom_site_symmetry_multiplicity
 _atom_site_fract_x
 _atom_site_fract_y
 _atom_site_fract_z
 _atom_site_occupancy
  Ba  Ba0  1  0.25000000  0.25000000  0.25000000  1
  Ti  Ti0  1  0.50000000  0.50000000  0.50000000  1
  Nb  Nb0  1  0.00000000  0.00000000  0.00000000  1
  Ga  Ga0  1  0.75000000  0.75000000  0.75000000  1
  O  O0  1  0.74823984  0.25176016  0.25176016  1
  O  O1  1  0.25176016  0.74823984  0.74823984  1
  O  O2  1  0.74823984  0.25176016  0.74823984  1
  O  O3  1  0.25176016  0.74823984  0.25176016  1
  O  O4  1  0.74823984  0.74823984  0.25176016  1
  O  O5  1  0.25176016  0.25176016  0.74823984  1
loop_
_geom_bond_atom_site_label_1
_geom_bond_atom_site_label_2
_geom_bond_distance
_geom_bond_site_symmetry_2
Ba0 O4 2.858611 1_455
Ba0 O1 2.858611 1_554
Ba0 O3 2.858611 1_545
Ba0 O2 2.858611 1_455
Ba0 O5 2.858611 1_555
Ba0 O5 2.858611 1_554
Ba0 O0 2.858611 1_455
Ba0 O2 2.858611 1_554
Ba0 O4 2.858611 1_545
Ba0 O3 2.858611 1_555
Ba0 O1 2.858611 1_545
Ba0 O0 2.858611 1_555
Nb0 O2 2.035549 1_454
Nb0 O4 2.035549 1_445
Nb0 O5 2.035549 1_554
Nb0 O1 2.035549 1_544
Nb0 O0 2.035549 1_455
Nb0 O3 2.035549 1_545
O0 Ti0 2.007087 1_555
O1 Ti0 2.007087 1_555
O2 Ti0 2.007087 1_555
O3 Ti0 2.007087 1_555
O4 Ti0 2.007087 1_555
O5 Ti0 2.007087 1_555
