# generated using pymatgen
data_Ba2CuTeO6
_symmetry_space_group_name_H-M   'P 1'
_cell_length_a   5.59716541
_cell_length_b   5.59727642
_cell_length_c   5.89571359
_cell_angle_alpha   118.34855050
_cell_angle_beta   118.34793103
_cell_angle_gamma   89.98263460
_symmetry_Int_Tables_number   1
_chemical_formula_structural   Ba2CuTeO6
_chemical_formula_sum   'Ba2 Cu1 Te1 O6'
_cell_volume   136.88339784
_cell_formula_units_Z   1
loop_
 _symmetry_equiv_pos_site_id
 _symmetry_equiv_pos_as_xyz
  1  'x, y, z'
loop_
 _atom_site_type_symbol
 _atom_site_label
 _atom_site_symmetry_multiplicity
 _atom_site_fract_x
 _atom_site_fract_y
 _atom_site_fract_z
 _atom_site_occupancy
  Ba  Ba0  1  0.74999983  0.24999983  0.49999965  1
  Ba  Ba1  1  0.25000017  0.75000017  0.50000035  1
  Cu  Cu0  1  -0.00000000  -0.00000000  -0.00000000  1
  Te  Te0  1  0.50000000  0.50000000  -0.00000000  1
  O  O0  1  0.73857819  0.75601080  0.00000000  1
  O  O1  1  0.24400623  0.73856071  -0.00000000  1
  O  O2  1  0.75599377  0.26143929  0.00000000  1
  O  O3  1  0.26142181  0.24398920  -0.00000000  1
  O  O4  1  0.28108839  0.28108839  0.56217578  1
  O  O5  1  0.71891161  0.71891161  0.43782422  1
loop_
_geom_bond_atom_site_label_1
_geom_bond_atom_site_label_2
_geom_bond_distance
_geom_bond_site_symmetry_2
Ba0 O4 2.811734 1_555
Ba0 O4 2.811740 1_655
Ba0 O5 2.811789 1_555
Ba0 O5 2.811795 1_545
Ba0 O0 2.901674 1_545
Ba0 O3 2.901674 1_555
Ba0 O2 2.902056 1_556
Ba0 O1 2.902057 1_656
Ba0 O0 2.994278 1_556
Ba0 O3 2.994278 1_656
Ba0 O2 2.994702 1_555
Ba0 O1 2.994703 1_545
Ba1 O5 2.811734 1_555
Ba1 O5 2.811740 1_455
Ba1 O4 2.811789 1_555
Ba1 O4 2.811795 1_565
Ba1 O3 2.901674 1_566
Ba1 O0 2.901674 1_556
Ba1 O1 2.902056 1_555
Ba1 O2 2.902057 1_455
Ba1 O3 2.994278 1_555
Ba1 O0 2.994278 1_455
Ba1 O1 2.994702 1_556
Ba1 O2 2.994703 1_566
Cu0 O2 2.001357 1_455
Cu0 O1 2.001357 1_545
Cu0 O3 2.001823 1_555
Cu0 O0 2.001823 1_445
Cu0 O5 2.456281 1_444
Cu0 O4 2.456281 1_555
O0 Te0 1.959014 1_555
O1 Te0 1.958282 1_555
O2 Te0 1.958282 1_555
O3 Te0 1.959014 1_555
O4 Te0 1.912959 1_556
O5 Te0 1.912959 1_555
