# generated using pymatgen
data_Te3WCl4O
_symmetry_space_group_name_H-M   'P 1'
_cell_length_a   9.44329244
_cell_length_b   16.96684241
_cell_length_c   28.05644207
_cell_angle_alpha   90.00000000
_cell_angle_beta   100.58268275
_cell_angle_gamma   90.00000000
_symmetry_Int_Tables_number   1
_chemical_formula_structural   Te3WCl4O
_chemical_formula_sum   'Te48 W16 Cl64 O16'
_cell_volume   4418.82252664
_cell_formula_units_Z   16
loop_
 _symmetry_equiv_pos_site_id
 _symmetry_equiv_pos_as_xyz
  1  'x, y, z'
loop_
 _atom_site_type_symbol
 _atom_site_label
 _atom_site_symmetry_multiplicity
 _atom_site_fract_x
 _atom_site_fract_y
 _atom_site_fract_z
 _atom_site_occupancy
  Te  Te0  1  0.61616807  0.09807875  0.81979395  1
  Te  Te1  1  0.38383193  0.59807875  0.68020605  1
  Te  Te2  1  0.38383193  0.90192125  0.18020605  1
  Te  Te3  1  0.61616807  0.40192125  0.31979395  1
  Te  Te4  1  0.82941272  0.00014101  0.80033963  1
  Te  Te5  1  0.17058728  0.50014101  0.69966037  1
  Te  Te6  1  0.17058728  0.99985899  0.19966037  1
  Te  Te7  1  0.82941272  0.49985899  0.30033963  1
  Te  Te8  1  0.00090938  0.99631004  0.89105168  1
  Te  Te9  1  0.99909062  0.49631004  0.60894832  1
  Te  Te10  1  0.99909062  0.00368996  0.10894832  1
  Te  Te11  1  0.00090938  0.50368996  0.39105168  1
  Te  Te12  1  0.84274622  0.09314532  0.93994160  1
  Te  Te13  1  0.15725378  0.59314532  0.56005840  1
  Te  Te14  1  0.15725378  0.90685468  0.06005840  1
  Te  Te15  1  0.84274622  0.40685468  0.43994160  1
  Te  Te16  1  0.72156889  0.94627655  0.93927044  1
  Te  Te17  1  0.27843111  0.44627655  0.56072956  1
  Te  Te18  1  0.27843111  0.05372345  0.06072956  1
  Te  Te19  1  0.72156889  0.55372345  0.43927044  1
  Te  Te20  1  0.54842899  0.95035961  0.84847556  1
  Te  Te21  1  0.45157101  0.45035961  0.65152444  1
  Te  Te22  1  0.45157101  0.04964039  0.15152444  1
  Te  Te23  1  0.54842899  0.54964039  0.34847556  1
  Te  Te24  1  0.25360708  0.97806740  0.53876640  1
  Te  Te25  1  0.74639292  0.47806740  0.96123360  1
  Te  Te26  1  0.74639292  0.02193260  0.46123360  1
  Te  Te27  1  0.25360708  0.52193260  0.03876640  1
  Te  Te28  1  0.15293485  0.11088161  0.57733411  1
  Te  Te29  1  0.84706515  0.61088161  0.92266589  1
  Te  Te30  1  0.84706515  0.88911839  0.42266589  1
  Te  Te31  1  0.15293485  0.38911839  0.07733411  1
  Te  Te32  1  0.32669150  0.10747242  0.66786835  1
  Te  Te33  1  0.67330850  0.60747242  0.83213165  1
  Te  Te34  1  0.67330850  0.89252758  0.33213165  1
  Te  Te35  1  0.32669150  0.39252758  0.16786835  1
  Te  Te36  1  0.48907040  0.97735601  0.65564309  1
  Te  Te37  1  0.51092960  0.47735601  0.84435691  1
  Te  Te38  1  0.51092960  0.02264399  0.34435691  1
  Te  Te39  1  0.48907040  0.52264399  0.15564309  1
  Te  Te40  1  0.24135007  0.92594275  0.68361415  1
  Te  Te41  1  0.75864993  0.42594275  0.81638585  1
  Te  Te42  1  0.75864993  0.07405725  0.31638585  1
  Te  Te43  1  0.24135007  0.57405725  0.18361415  1
  Te  Te44  1  0.06321098  0.92214764  0.59357143  1
  Te  Te45  1  0.93678902  0.42214764  0.90642857  1
  Te  Te46  1  0.93678902  0.07785236  0.40642857  1
  Te  Te47  1  0.06321098  0.57785236  0.09357143  1
  W  W0  1  0.35125543  0.75060461  0.43980697  1
  W  W1  1  0.64874457  0.25060461  0.06019303  1
  W  W2  1  0.64874457  0.24939539  0.56019303  1
  W  W3  1  0.35125543  0.74939539  0.93980697  1
  W  W4  1  0.61696736  0.75229859  0.56151239  1
  W  W5  1  0.38303264  0.25229859  0.93848761  1
  W  W6  1  0.38303264  0.24770141  0.43848761  1
  W  W7  1  0.61696736  0.74770141  0.06151239  1
  W  W8  1  0.84222803  0.75080207  0.69063169  1
  W  W9  1  0.15777197  0.25080207  0.80936831  1
  W  W10  1  0.15777197  0.24919793  0.30936831  1
  W  W11  1  0.84222803  0.74919793  0.19063169  1
  W  W12  1  0.10139909  0.74789040  0.81415636  1
  W  W13  1  0.89860091  0.24789040  0.68584364  1
  W  W14  1  0.89860091  0.25210960  0.18584364  1
  W  W15  1  0.10139909  0.75210960  0.31415636  1
  Cl  Cl0  1  0.31626373  0.61175614  0.45132633  1
  Cl  Cl1  1  0.68373627  0.11175614  0.04867367  1
  Cl  Cl2  1  0.68373627  0.38824386  0.54867367  1
  Cl  Cl3  1  0.31626373  0.88824386  0.95132633  1
  Cl  Cl4  1  0.16056561  0.77821750  0.48264354  1
  Cl  Cl5  1  0.83943439  0.27821750  0.01735646  1
  Cl  Cl6  1  0.83943439  0.22178250  0.51735646  1
  Cl  Cl7  1  0.16056561  0.72178250  0.98264354  1
  Cl  Cl8  1  0.38873493  0.88980351  0.43153572  1
  Cl  Cl9  1  0.61126507  0.38980351  0.06846428  1
  Cl  Cl10  1  0.61126507  0.11019649  0.56846428  1
  Cl  Cl11  1  0.38873493  0.61019649  0.93153572  1
  Cl  Cl12  1  0.55051004  0.71890672  0.39824712  1
  Cl  Cl13  1  0.44948996  0.21890672  0.10175288  1
  Cl  Cl14  1  0.44948996  0.28109328  0.60175288  1
  Cl  Cl15  1  0.55051004  0.78109328  0.89824712  1
  Cl  Cl16  1  0.58647340  0.61277342  0.56861767  1
  Cl  Cl17  1  0.41352660  0.11277342  0.93138233  1
  Cl  Cl18  1  0.41352660  0.38722658  0.43138233  1
  Cl  Cl19  1  0.58647340  0.88722658  0.06861767  1
  Cl  Cl20  1  0.41040470  0.77895427  0.59833481  1
  Cl  Cl21  1  0.58959530  0.27895427  0.90166519  1
  Cl  Cl22  1  0.58959530  0.22104573  0.40166519  1
  Cl  Cl23  1  0.41040470  0.72104573  0.09833481  1
  Cl  Cl24  1  0.66020404  0.89207870  0.55559147  1
  Cl  Cl25  1  0.33979596  0.39207870  0.94440853  1
  Cl  Cl26  1  0.33979596  0.10792130  0.44440853  1
  Cl  Cl27  1  0.66020404  0.60792130  0.05559147  1
  Cl  Cl28  1  0.82819629  0.72818611  0.52729358  1
  Cl  Cl29  1  0.17180371  0.22818611  0.97270642  1
  Cl  Cl30  1  0.17180371  0.27181389  0.47270642  1
  Cl  Cl31  1  0.82819629  0.77181389  0.02729358  1
  Cl  Cl32  1  0.79153523  0.61458265  0.70030622  1
  Cl  Cl33  1  0.20846477  0.11458265  0.79969378  1
  Cl  Cl34  1  0.20846477  0.38541735  0.29969378  1
  Cl  Cl35  1  0.79153523  0.88541735  0.20030622  1
  Cl  Cl36  1  0.63982572  0.78317196  0.72745088  1
  Cl  Cl37  1  0.36017428  0.28317196  0.77254912  1
  Cl  Cl38  1  0.36017428  0.21682804  0.27254912  1
  Cl  Cl39  1  0.63982572  0.71682804  0.22745088  1
  Cl  Cl40  1  0.89114220  0.89216935  0.68473624  1
  Cl  Cl41  1  0.10885780  0.39216935  0.81526376  1
  Cl  Cl42  1  0.10885780  0.10783065  0.31526376  1
  Cl  Cl43  1  0.89114220  0.60783065  0.18473624  1
  Cl  Cl44  1  0.05212682  0.72181475  0.65609977  1
  Cl  Cl45  1  0.94787318  0.22181475  0.84390023  1
  Cl  Cl46  1  0.94787318  0.27818525  0.34390023  1
  Cl  Cl47  1  0.05212682  0.77818525  0.15609977  1
  Cl  Cl48  1  0.07950152  0.60904045  0.81969707  1
  Cl  Cl49  1  0.92049848  0.10904045  0.68030293  1
  Cl  Cl50  1  0.92049848  0.39095955  0.18030293  1
  Cl  Cl51  1  0.07950152  0.89095955  0.31969707  1
  Cl  Cl52  1  0.89652909  0.76647145  0.85502321  1
  Cl  Cl53  1  0.10347091  0.26647145  0.64497679  1
  Cl  Cl54  1  0.10347091  0.23352855  0.14497679  1
  Cl  Cl55  1  0.89652909  0.73352855  0.35502321  1
  Cl  Cl56  1  0.13415481  0.89159560  0.81016729  1
  Cl  Cl57  1  0.86584519  0.39159560  0.68983271  1
  Cl  Cl58  1  0.86584519  0.10840440  0.18983271  1
  Cl  Cl59  1  0.13415481  0.60840440  0.31016729  1
  Cl  Cl60  1  0.30673538  0.73177355  0.77662981  1
  Cl  Cl61  1  0.69326462  0.23177355  0.72337019  1
  Cl  Cl62  1  0.69326462  0.26822645  0.22337019  1
  Cl  Cl63  1  0.30673538  0.76822645  0.27662981  1
  O  O0  1  0.22485083  0.74873388  0.37810044  1
  O  O1  1  0.77514917  0.24873388  0.12189956  1
  O  O2  1  0.77514917  0.25126612  0.62189956  1
  O  O3  1  0.22485083  0.75126612  0.87810044  1
  O  O4  1  0.49211143  0.75220763  0.49934129  1
  O  O5  1  0.50788857  0.25220763  0.00065871  1
  O  O6  1  0.50788857  0.24779237  0.50065871  1
  O  O7  1  0.49211143  0.74779237  0.99934129  1
  O  O8  1  0.73144532  0.75350879  0.62702884  1
  O  O9  1  0.26855468  0.25350879  0.87297116  1
  O  O10  1  0.26855468  0.24649121  0.37297116  1
  O  O11  1  0.73144532  0.74649121  0.12702884  1
  O  O12  1  0.97122789  0.75210171  0.75410109  1
  O  O13  1  0.02877211  0.25210171  0.74589891  1
  O  O14  1  0.02877211  0.24789829  0.24589891  1
  O  O15  1  0.97122789  0.74789829  0.25410109  1
loop_
_geom_bond_atom_site_label_1
_geom_bond_atom_site_label_2
_geom_bond_distance
_geom_bond_site_symmetry_2
Te0 Te4 2.741894 1_555
Te0 Te20 2.743627 1_545
Te1 Te5 2.741894 1_555
Te1 Te21 2.743627 1_555
Te2 Te6 2.741894 1_555
Te2 Te22 2.743627 1_565
Te3 Te7 2.741894 1_555
Te4 Te8 2.755061 1_645
Te5 Te9 2.755061 1_455
Te10 Te14 2.750310 1_645
Te10 Te6 2.755061 1_645
Te10 Te18 3.289397 1_655
Te11 Te15 2.750310 1_455
Te11 Te7 2.755061 1_455
Te11 Te19 3.289397 1_455
Te12 Te16 2.740703 1_545
Te12 Te8 2.750310 1_645
Te13 Te17 2.740703 1_555
Te13 Te9 2.750310 1_455
Te14 Te18 2.740703 1_565
Te15 Te19 2.740703 1_555
Te16 Te20 2.763580 1_555
Te16 Te8 3.289397 1_655
Te17 Te21 2.763580 1_555
Te17 Te9 3.289397 1_455
Te18 Te22 2.763580 1_555
Te19 Te23 2.763580 1_555
Te20 Te4 3.300630 1_565
Te21 Te5 3.300630 1_555
Te22 Te6 3.300630 1_545
Te23 Te3 2.743627 1_555
Te23 Te7 3.300630 1_555
Te24 Te44 2.740922 1_555
Te24 Te28 2.744176 1_565
Te25 Te45 2.740922 1_555
Te25 Te29 2.744176 1_555
Te26 Te46 2.740922 1_555
Te26 Te30 2.744176 1_545
Te27 Te47 2.740922 1_555
Te27 Te31 2.744176 1_555
Te28 Te32 2.759847 1_555
Te29 Te33 2.759847 1_555
Te30 Te34 2.759847 1_555
Te31 Te35 2.759847 1_555
Te32 Te36 2.745160 1_545
Te32 Te40 3.234459 1_545
Te33 Te37 2.745160 1_555
Te33 Te41 3.234459 1_555
Te34 Te38 2.745160 1_565
Te34 Te42 3.234459 1_565
Te35 Te39 2.745160 1_555
Te35 Te43 3.234459 1_555
Te36 Te40 2.742884 1_555
Te37 Te41 2.742884 1_555
Te38 Te42 2.742884 1_555
Te39 Te43 2.742884 1_555
Te40 Te44 2.766789 1_555
Te41 Te45 2.766789 1_555
Te42 Te46 2.766789 1_555
Te43 Te47 2.766789 1_555
Cl0 W0 2.408891 1_555
Cl1 W1 2.408891 1_555
Cl2 W2 2.408891 1_555
Cl3 W3 2.408891 1_555
Cl4 W0 2.387784 1_555
Cl5 W1 2.387784 1_555
Cl6 W2 2.387784 1_555
Cl7 W3 2.387784 1_555
Cl8 W0 2.405665 1_555
Cl9 W1 2.405665 1_555
Cl10 W2 2.405665 1_555
Cl11 W3 2.405665 1_555
Cl12 W0 2.448514 1_555
Cl12 Te23 3.191892 1_555
Cl13 W1 2.448514 1_555
Cl13 Te22 3.191892 1_555
Cl14 W2 2.448514 1_555
Cl14 Te21 3.191892 1_555
Cl15 W3 2.448514 1_555
Cl15 Te20 3.191892 1_555
Cl16 W4 2.397471 1_555
Cl17 W5 2.397471 1_555
Cl18 W6 2.397471 1_555
Cl19 W7 2.397471 1_555
Cl20 W4 2.411849 1_555
Cl21 W5 2.411849 1_555
Cl22 W6 2.411849 1_555
Cl23 W7 2.411849 1_555
Cl24 W4 2.417402 1_555
Cl25 W5 2.417402 1_555
Cl26 W6 2.417402 1_555
Cl27 W7 2.417402 1_555
Cl28 W4 2.402354 1_555
Cl29 W5 2.402354 1_555
Cl30 W6 2.402354 1_555
Cl31 W7 2.402354 1_555
Cl32 W8 2.385848 1_555
Cl33 W9 2.385848 1_555
Cl34 W10 2.385848 1_555
Cl35 W11 2.385848 1_555
Cl36 W8 2.397337 1_555
Cl37 W9 2.397337 1_555
Cl38 W10 2.397337 1_555
Cl39 W11 2.397337 1_555
Cl40 W8 2.453947 1_555
Cl41 W9 2.453947 1_555
Cl42 W10 2.453947 1_555
Cl43 W11 2.453947 1_555
Cl44 W8 2.411385 1_455
Cl45 W9 2.411385 1_655
Cl46 W10 2.411385 1_655
Cl47 W11 2.411385 1_455
Cl48 W12 2.372496 1_555
Cl49 W13 2.372496 1_555
Cl50 W14 2.372496 1_555
Cl51 W15 2.372496 1_555
Cl52 W12 2.443699 1_655
Cl53 W13 2.443699 1_455
Cl54 W14 2.443699 1_455
Cl55 W15 2.443699 1_655
Cl56 W12 2.462896 1_555
Cl57 W13 2.462896 1_555
Cl58 W14 2.462896 1_555
Cl59 W15 2.462896 1_555
Cl60 W12 2.386020 1_555
Cl61 W13 2.386020 1_555
Cl62 W14 2.386020 1_555
Cl63 W15 2.386020 1_555
O0 W0 1.914179 1_555
O0 W15 1.952619 1_555
O1 W1 1.914179 1_555
O1 W14 1.952619 1_555
O2 W2 1.914179 1_555
O2 W13 1.952619 1_555
O3 W3 1.914179 1_555
O3 W12 1.952619 1_555
O4 W4 1.917637 1_555
O4 W0 1.934922 1_555
O5 W5 1.917637 1_554
O5 W1 1.934922 1_555
O6 W6 1.917637 1_555
O6 W2 1.934922 1_555
O7 W7 1.917637 1_556
O7 W3 1.934922 1_555
O8 W8 1.896095 1_555
O8 W4 1.953976 1_555
O9 W9 1.896095 1_555
O9 W5 1.953976 1_555
O10 W10 1.896095 1_555
O10 W6 1.953976 1_555
O11 W11 1.896095 1_555
O11 W7 1.953976 1_555
O12 W12 1.895888 1_655
O12 W8 1.964346 1_555
O13 W13 1.895888 1_455
O13 W9 1.964346 1_555
O14 W14 1.895888 1_455
O14 W10 1.964346 1_555
O15 W15 1.895888 1_655
O15 W11 1.964346 1_555
