# generated using pymatgen
data_Ca4ZrTi3(GeO5)4
_symmetry_space_group_name_H-M   'P 1'
_cell_length_a   6.83270900
_cell_length_b   8.07183812
_cell_length_c   8.08078236
_cell_angle_alpha   68.05942867
_cell_angle_beta   86.76720096
_cell_angle_gamma   87.05296284
_symmetry_Int_Tables_number   1
_chemical_formula_structural   Ca4ZrTi3(GeO5)4
_chemical_formula_sum   'Ca4 Zr1 Ti3 Ge4 O20'
_cell_volume   412.51664905
_cell_formula_units_Z   1
loop_
 _symmetry_equiv_pos_site_id
 _symmetry_equiv_pos_as_xyz
  1  'x, y, z'
loop_
 _atom_site_type_symbol
 _atom_site_label
 _atom_site_symmetry_multiplicity
 _atom_site_fract_x
 _atom_site_fract_y
 _atom_site_fract_z
 _atom_site_occupancy
  Ca  Ca0  1  0.62707600  0.19959400  0.54427400  1
  Ca  Ca1  1  0.11918300  0.69554900  0.05274300  1
  Ca  Ca2  1  0.88081700  0.30445100  0.94725700  1
  Ca  Ca3  1  0.37292400  0.80040600  0.45572600  1
  Zr  Zr0  1  0.50000000  0.00000000  0.00000000  1
  Ti  Ti0  1  0.00000000  0.50000000  0.50000000  1
  Ti  Ti1  1  0.75183400  0.74935600  0.74601600  1
  Ti  Ti2  1  0.24816600  0.25064400  0.25398400  1
  Ge  Ge0  1  0.88298000  0.94375300  0.30838400  1
  Ge  Ge1  1  0.37416100  0.44904700  0.80398000  1
  Ge  Ge2  1  0.62583900  0.55095300  0.19602000  1
  Ge  Ge3  1  0.11702000  0.05624700  0.69161600  1
  O  O0  1  0.44708300  0.72605500  0.16373100  1
  O  O1  1  0.94676600  0.23887100  0.65506100  1
  O  O2  1  0.70317600  0.90413500  0.48460900  1
  O  O3  1  0.20192300  0.40750300  0.98794400  1
  O  O4  1  0.05323400  0.76112900  0.34493900  1
  O  O5  1  0.55291700  0.27394500  0.83626900  1
  O  O6  1  0.79807700  0.59249700  0.01205600  1
  O  O7  1  0.29682400  0.09586500  0.51539100  1
  O  O8  1  0.48294500  0.65591700  0.76242700  1
  O  O9  1  0.98227700  0.15520500  0.26828900  1
  O  O10  1  0.21850500  0.01255300  0.90105400  1
  O  O11  1  0.73552700  0.51269200  0.40125500  1
  O  O12  1  0.01772300  0.84479500  0.73171100  1
  O  O13  1  0.51705500  0.34408300  0.23757300  1
  O  O14  1  0.26447300  0.48730800  0.59874500  1
  O  O15  1  0.78149500  0.98744700  0.09894600  1
  O  O16  1  0.87598200  0.55900800  0.68894900  1
  O  O17  1  0.36615400  0.05725800  0.20639100  1
  O  O18  1  0.63384600  0.94274200  0.79360900  1
  O  O19  1  0.12401800  0.44099200  0.31105100  1
loop_
_geom_bond_atom_site_label_1
_geom_bond_atom_site_label_2
_geom_bond_distance
_geom_bond_site_symmetry_2
Ca0 O18 2.288910 1_545
Ca0 O13 2.455130 1_555
Ca0 O1 2.485402 1_555
Ca0 O11 2.487004 1_555
Ca0 O7 2.499418 1_555
Ca0 O2 2.625652 1_545
Ca0 O5 2.660170 1_555
Ca1 O19 2.318563 1_555
Ca1 O6 2.467216 1_455
Ca1 O10 2.500280 1_564
Ca1 O0 2.516545 1_555
Ca1 O12 2.538351 1_554
Ca1 O3 2.596334 1_554
Ca1 O4 2.616849 1_555
Ca2 O16 2.318563 1_555
Ca2 O3 2.467216 1_655
Ca2 O15 2.500280 1_546
Ca2 O5 2.516545 1_555
Ca2 O9 2.538351 1_556
Ca2 O6 2.596334 1_556
Ca2 O1 2.616849 1_555
Ca3 O17 2.288910 1_565
Ca3 O8 2.455130 1_555
Ca3 O4 2.485402 1_555
Ca3 O14 2.487004 1_555
Ca3 O2 2.499418 1_555
Ca3 O7 2.625652 1_565
Ca3 O0 2.660170 1_555
Ge0 O15 1.769370 1_555
Ge0 O2 1.772638 1_555
Ge0 O4 1.774978 1_655
Ge0 O9 1.777501 1_565
Ge1 O8 1.770312 1_555
Ge1 O5 1.772117 1_555
Ge1 O14 1.772343 1_555
Ge1 O3 1.782714 1_555
Ge2 O13 1.770312 1_555
Ge2 O0 1.772117 1_555
Ge2 O11 1.772343 1_555
Ge2 O6 1.782714 1_555
Ge3 O10 1.769370 1_555
Ge3 O7 1.772638 1_555
Ge3 O1 1.774978 1_455
Ge3 O12 1.777501 1_545
O0 Zr0 2.147742 1_565
O1 Ti0 2.049121 1_655
O2 Ti1 2.048868 1_555
O3 Ti2 2.079908 1_556
O4 Ti0 2.049121 1_555
O5 Zr0 2.147742 1_556
O6 Ti1 2.079908 1_554
O7 Ti2 2.048868 1_555
O8 Ti1 2.000538 1_555
O9 Ti2 1.990241 1_655
O10 Zr0 2.107557 1_556
O11 Ti0 1.998798 1_655
O12 Ti1 1.990241 1_455
O13 Ti2 2.000538 1_555
O14 Ti0 1.998798 1_555
O15 Zr0 2.107557 1_565
O16 Ti0 1.905844 1_655
O16 Ti1 1.908995 1_555
O17 Ti2 1.875833 1_555
O17 Zr0 2.047454 1_555
O18 Ti1 1.875833 1_555
O18 Zr0 2.047454 1_566
O19 Ti0 1.905844 1_555
O19 Ti2 1.908995 1_555
