# generated using pymatgen
data_Al4(NiO4)3
_symmetry_space_group_name_H-M   'P 1'
_cell_length_a   5.72444989
_cell_length_b   5.62935985
_cell_length_c   17.32580315
_cell_angle_alpha   60.29585345
_cell_angle_beta   58.68247001
_cell_angle_gamma   61.16535991
_symmetry_Int_Tables_number   1
_chemical_formula_structural   Al4(NiO4)3
_chemical_formula_sum   'Al8 Ni6 O24'
_cell_volume   394.84410516
_cell_formula_units_Z   2
loop_
 _symmetry_equiv_pos_site_id
 _symmetry_equiv_pos_as_xyz
  1  'x, y, z'
loop_
 _atom_site_type_symbol
 _atom_site_label
 _atom_site_symmetry_multiplicity
 _atom_site_fract_x
 _atom_site_fract_y
 _atom_site_fract_z
 _atom_site_occupancy
  Al  Al0  1  0.11936000  0.09101800  0.05505000  1
  Al  Al1  1  0.12981800  0.11509000  0.36783000  1
  Al  Al2  1  0.50315200  0.49468800  0.33330900  1
  Al  Al3  1  0.49684800  0.50531200  0.66669000  1
  Al  Al4  1  0.50611800  0.49760900  0.15111300  1
  Al  Al5  1  0.49388200  0.50239100  0.84888700  1
  Al  Al6  1  0.87018200  0.88491000  0.63217000  1
  Al  Al7  1  0.88064000  0.90898200  0.94495000  1
  Ni  Ni0  1  0.50920800  0.99038100  0.16003200  1
  Ni  Ni1  1  0.50000000  0.00000000  0.50000000  1
  Ni  Ni2  1  0.49079200  0.00961900  0.83996800  1
  Ni  Ni3  1  0.99461300  0.50271300  0.16102000  1
  Ni  Ni4  1  0.00000000  0.50000000  0.50000000  1
  Ni  Ni5  1  0.00538700  0.49728700  0.83898000  1
  O  O0  1  0.24390700  0.22620500  0.09614500  1
  O  O1  1  0.26005900  0.25299200  0.40738100  1
  O  O2  1  0.26372100  0.24993600  0.76561600  1
  O  O3  1  0.25055900  0.71725600  0.09178600  1
  O  O4  1  0.24973200  0.73355100  0.40621400  1
  O  O5  1  0.28734800  0.67592300  0.76601400  1
  O  O6  1  0.28069800  0.23513000  0.23697500  1
  O  O7  1  0.24993000  0.26007500  0.56262900  1
  O  O8  1  0.27001200  0.23429700  0.92351700  1
  O  O9  1  0.74249100  0.23853500  0.08661300  1
  O  O10  1  0.74717600  0.24278100  0.40097300  1
  O  O11  1  0.67780300  0.28634900  0.76297400  1
  O  O12  1  0.32219700  0.71365100  0.23702600  1
  O  O13  1  0.25282400  0.75722000  0.59902700  1
  O  O14  1  0.25750900  0.76146500  0.91338700  1
  O  O15  1  0.71265300  0.32407700  0.23398600  1
  O  O16  1  0.75026800  0.26644900  0.59378600  1
  O  O17  1  0.74944200  0.28274400  0.90821400  1
  O  O18  1  0.72998800  0.76570300  0.07648300  1
  O  O19  1  0.75007000  0.73992500  0.43737100  1
  O  O20  1  0.71930200  0.76487000  0.76302500  1
  O  O21  1  0.73627900  0.75006400  0.23438400  1
  O  O22  1  0.73994100  0.74700800  0.59261900  1
  O  O23  1  0.75609300  0.77379500  0.90385500  1
loop_
_geom_bond_atom_site_label_1
_geom_bond_atom_site_label_2
_geom_bond_distance
_geom_bond_site_symmetry_2
Al0 O3 1.744041 1_545
Al0 O9 1.771568 1_455
Al0 O0 1.783948 1_555
Al0 O8 1.842269 1_554
Al1 O4 1.778617 1_545
Al1 O10 1.796426 1_455
Al1 O1 1.801289 1_555
Al1 O6 1.830764 1_555
Al2 O4 1.845235 1_555
Al2 O10 1.865683 1_555
Al2 O1 1.916755 1_555
Al2 O15 1.924459 1_555
Al2 O21 1.953488 1_555
Al2 O12 1.975392 1_555
Al3 O16 1.845224 1_555
Al3 O13 1.865673 1_555
Al3 O22 1.916756 1_555
Al3 O5 1.924474 1_555
Al3 O2 1.953491 1_555
Al3 O11 1.975406 1_555
Al4 O3 1.812309 1_555
Al4 O9 1.829350 1_555
Al4 O15 1.916873 1_555
Al4 O6 1.930435 1_555
Al4 O12 1.932116 1_555
Al4 O18 1.949593 1_555
Al5 O17 1.812313 1_555
Al5 O14 1.829350 1_555
Al5 O5 1.916868 1_555
Al5 O20 1.930435 1_555
Al5 O11 1.932116 1_555
Al5 O8 1.949593 1_555
Al6 O16 1.778617 1_565
Al6 O13 1.796426 1_655
Al6 O22 1.801289 1_555
Al6 O20 1.830764 1_555
Al7 O17 1.744040 1_565
Al7 O14 1.771568 1_655
Al7 O23 1.783948 1_555
Al7 O18 1.842269 1_556
Ni0 O12 1.848482 1_555
Ni0 O21 1.869945 1_555
Ni0 O9 1.904030 1_565
Ni0 O0 1.908034 1_565
Ni0 O6 1.911961 1_565
Ni0 O18 1.913936 1_555
Ni1 O19 1.818847 1_545
Ni1 O7 1.818847 1_555
Ni1 O13 1.957384 1_545
Ni1 O10 1.957387 1_555
Ni1 O1 2.151622 1_555
Ni1 O22 2.151622 1_545
Ni2 O11 1.848482 1_555
Ni2 O2 1.869945 1_555
Ni2 O14 1.904030 1_545
Ni2 O23 1.908034 1_545
Ni2 O20 1.911961 1_545
Ni2 O8 1.913936 1_555
Ni3 O15 1.843673 1_555
Ni3 O3 1.867680 1_655
Ni3 O21 1.885529 1_555
Ni3 O0 1.909614 1_655
Ni3 O6 2.139912 1_655
Ni3 O18 2.150837 1_555
Ni4 O19 1.829241 1_455
Ni4 O7 1.829241 1_555
Ni4 O4 1.921841 1_555
Ni4 O16 1.921841 1_455
Ni4 O22 2.110924 1_455
Ni4 O1 2.110924 1_555
Ni5 O5 1.843678 1_555
Ni5 O17 1.867675 1_455
Ni5 O2 1.885529 1_555
Ni5 O23 1.909614 1_455
Ni5 O20 2.139912 1_455
Ni5 O8 2.150837 1_555
