# generated using pymatgen
data_CsBe2P2HO8
_symmetry_space_group_name_H-M   'P 1'
_cell_length_a   4.96878875
_cell_length_b   10.84832743
_cell_length_c   13.25761069
_cell_angle_alpha   92.96091900
_cell_angle_beta   92.85504537
_cell_angle_gamma   91.04318265
_symmetry_Int_Tables_number   1
_chemical_formula_structural   CsBe2P2HO8
_chemical_formula_sum   'Cs4 Be8 P8 H4 O32'
_cell_volume   712.63105375
_cell_formula_units_Z   4
loop_
 _symmetry_equiv_pos_site_id
 _symmetry_equiv_pos_as_xyz
  1  'x, y, z'
loop_
 _atom_site_type_symbol
 _atom_site_label
 _atom_site_symmetry_multiplicity
 _atom_site_fract_x
 _atom_site_fract_y
 _atom_site_fract_z
 _atom_site_occupancy
  Cs  Cs0  1  0.25502500  0.72141800  0.84432600  1
  Cs  Cs1  1  0.74497500  0.27858200  0.15567400  1
  Cs  Cs2  1  0.26906900  0.25770900  0.67211100  1
  Cs  Cs3  1  0.73093100  0.74229100  0.32788900  1
  Be  Be0  1  0.72460100  0.45366300  0.87217500  1
  Be  Be1  1  0.27539900  0.54633700  0.12782500  1
  Be  Be2  1  0.18604200  0.56450900  0.53732600  1
  Be  Be3  1  0.81395800  0.43549100  0.46267400  1
  Be  Be4  1  0.78453100  0.83149200  0.66486400  1
  Be  Be5  1  0.21546900  0.16850800  0.33513600  1
  Be  Be6  1  0.33236600  0.06746300  0.95830700  1
  Be  Be7  1  0.66763400  0.93253700  0.04169300  1
  P  P0  1  0.22728800  0.34575800  0.95673400  1
  P  P1  1  0.77271200  0.65424200  0.04326600  1
  P  P2  1  0.68961700  0.55534300  0.66219800  1
  P  P3  1  0.31038300  0.44465700  0.33780200  1
  P  P4  1  0.27410600  0.83123200  0.54549300  1
  P  P5  1  0.72589400  0.16876800  0.45450700  1
  P  P6  1  0.82394100  0.01803100  0.84238600  1
  P  P7  1  0.17605900  0.98196900  0.15761400  1
  H  H0  1  0.26295600  0.99464400  0.45225200  1
  H  H1  1  0.73704400  0.00535600  0.54774800  1
  H  H2  1  0.83814500  0.22358200  0.84639600  1
  H  H3  1  0.16185500  0.77641800  0.15360400  1
  O  O0  1  0.41959600  0.40181000  0.88334300  1
  O  O1  1  0.58040400  0.59819000  0.11665700  1
  O  O2  1  0.93552600  0.34187100  0.90493500  1
  O  O3  1  0.06447400  0.65812900  0.09506500  1
  O  O4  1  0.30468900  0.21144300  0.97787900  1
  O  O5  1  0.69531100  0.78855700  0.02212100  1
  O  O6  1  0.22336600  0.41836100  0.05948500  1
  O  O7  1  0.77663400  0.58163900  0.94051500  1
  O  O8  1  0.87092900  0.52853000  0.56882500  1
  O  O9  1  0.12907100  0.47147000  0.43117500  1
  O  O10  1  0.39648600  0.52381800  0.62329400  1
  O  O11  1  0.60351400  0.47618200  0.37670600  1
  O  O12  1  0.72894600  0.69162700  0.69697600  1
  O  O13  1  0.27105400  0.30837300  0.30302400  1
  O  O14  1  0.76948300  0.47334400  0.74923600  1
  O  O15  1  0.23051700  0.52665600  0.25076400  1
  O  O16  1  0.09651000  0.85609800  0.63473500  1
  O  O17  1  0.90349000  0.14390200  0.36526500  1
  O  O18  1  0.57407600  0.86731600  0.57098100  1
  O  O19  1  0.42592400  0.13268400  0.42901900  1
  O  O20  1  0.23791900  0.69865700  0.50025600  1
  O  O21  1  0.76208100  0.30134300  0.49974400  1
  O  O22  1  0.18384000  0.90948000  0.45173700  1
  O  O23  1  0.81616000  0.09052000  0.54826300  1
  O  O24  1  0.72855900  0.91924300  0.76406900  1
  O  O25  1  0.27144100  0.08075700  0.23593100  1
  O  O26  1  0.64388800  0.01435600  0.93610200  1
  O  O27  1  0.35611200  0.98564400  0.06389800  1
  O  O28  1  0.11824800  0.00295600  0.87842300  1
  O  O29  1  0.88175200  0.99704400  0.12157700  1
  O  O30  1  0.77916400  0.14862600  0.79782300  1
  O  O31  1  0.22083600  0.85137400  0.20217700  1
loop_
_geom_bond_atom_site_label_1
_geom_bond_atom_site_label_2
_geom_bond_distance
_geom_bond_site_symmetry_2
Cs0 O12 3.144287 1_555
Cs0 O7 3.153782 1_455
Cs0 O28 3.155632 1_565
Cs0 O5 3.181741 1_556
Cs0 O12 3.185723 1_455
Cs0 O7 3.264425 1_555
Cs0 O16 3.274044 1_555
Cs0 O24 3.402246 1_555
Cs0 O3 3.597749 1_556
Cs0 O0 3.633755 1_555
Cs0 O10 3.645173 1_555
Cs1 O13 3.144287 1_555
Cs1 O6 3.153782 1_655
Cs1 O29 3.155632 1_545
Cs1 O4 3.181741 1_554
Cs1 O13 3.185723 1_655
Cs1 O6 3.264425 1_555
Cs1 O17 3.274044 1_555
Cs1 O25 3.402246 1_555
Cs1 O2 3.597749 1_554
Cs1 O1 3.633755 1_555
Cs1 O11 3.645173 1_555
Cs2 O10 3.053000 1_555
Cs2 O0 3.184666 1_555
Cs2 O23 3.197732 1_455
Cs2 O30 3.239471 1_555
Cs2 O30 3.256772 1_455
Cs2 H2 3.257748 1_455
Cs2 O21 3.372497 1_455
Cs2 O14 3.462368 1_555
Cs2 O21 3.474791 1_555
Cs2 O19 3.559594 1_555
Cs2 O14 3.591226 1_455
Cs2 O23 3.700217 1_555
Cs3 O11 3.053000 1_555
Cs3 O1 3.184666 1_555
Cs3 O22 3.197732 1_655
Cs3 O31 3.239471 1_555
Cs3 O31 3.256772 1_655
Cs3 H3 3.257748 1_655
Cs3 O20 3.372497 1_655
Cs3 O15 3.462368 1_555
Cs3 O20 3.474791 1_555
Cs3 O18 3.559594 1_555
Cs3 O15 3.591226 1_655
Cs3 O22 3.700217 1_555
Be0 O0 1.623275 1_555
Be0 O7 1.627519 1_555
Be0 O2 1.677246 1_555
Be0 O14 1.679954 1_555
Be1 O1 1.623275 1_555
Be1 O6 1.627519 1_555
Be1 O3 1.677246 1_555
Be1 O15 1.679954 1_555
Be2 O20 1.580718 1_555
Be2 O10 1.592889 1_555
Be2 O8 1.684627 1_455
Be2 O9 1.697804 1_555
Be3 O21 1.580718 1_555
Be3 O11 1.592889 1_555
Be3 O9 1.684627 1_655
Be3 O8 1.697804 1_555
Be4 O12 1.619542 1_555
Be4 O24 1.621758 1_555
Be4 O16 1.640556 1_655
Be4 O18 1.651919 1_555
Be5 O13 1.619542 1_555
Be5 O25 1.621758 1_555
Be5 O17 1.640556 1_455
Be5 O19 1.651919 1_555
Be6 O4 1.579687 1_555
Be6 O28 1.589754 1_555
Be6 O26 1.695546 1_555
Be6 O27 1.696218 1_546
Be7 O5 1.579687 1_555
Be7 O29 1.589754 1_555
Be7 O27 1.695546 1_555
Be7 O26 1.696218 1_564
H0 O22 0.996999 1_555
H1 O23 0.996999 1_555
H2 O30 1.039331 1_555
H2 O2 1.523231 1_555
H3 O31 1.039331 1_555
H3 O3 1.523231 1_555
O0 P0 1.536911 1_555
O1 P1 1.536911 1_555
O2 P0 1.571822 1_655
O3 P1 1.571822 1_455
O4 P0 1.549670 1_555
O5 P1 1.549670 1_555
O6 P0 1.539079 1_554
O7 P1 1.539079 1_556
O8 P2 1.584953 1_555
O9 P3 1.584953 1_555
O10 P2 1.546996 1_555
O11 P3 1.546996 1_555
O12 P2 1.531888 1_555
O13 P3 1.531888 1_555
O14 P2 1.534140 1_555
O15 P3 1.534140 1_555
O16 P4 1.526753 1_555
O17 P5 1.526753 1_555
O18 P4 1.550447 1_555
O19 P5 1.550447 1_555
O20 P4 1.533366 1_555
O21 P5 1.533366 1_555
O22 P4 1.591872 1_555
O23 P5 1.591872 1_555
O24 P6 1.506224 1_565
O25 P7 1.506224 1_545
O26 P6 1.568506 1_555
O27 P7 1.568506 1_555
O28 P6 1.529918 1_455
O29 P7 1.529918 1_655
O30 P6 1.578145 1_555
O31 P7 1.578145 1_555
