# generated using pymatgen
data_Te4Mo(WSe)2
_symmetry_space_group_name_H-M   'P 1'
_cell_length_a   3.48092124
_cell_length_b   3.48092124
_cell_length_c   32.03509500
_cell_angle_alpha   90.00000000
_cell_angle_beta   90.00000000
_cell_angle_gamma   119.99998551
_symmetry_Int_Tables_number   1
_chemical_formula_structural   Te4Mo(WSe)2
_chemical_formula_sum   'Te4 Mo1 W2 Se2'
_cell_volume   336.15927981
_cell_formula_units_Z   1
loop_
 _symmetry_equiv_pos_site_id
 _symmetry_equiv_pos_as_xyz
  1  'x, y, z'
loop_
 _atom_site_type_symbol
 _atom_site_label
 _atom_site_symmetry_multiplicity
 _atom_site_fract_x
 _atom_site_fract_y
 _atom_site_fract_z
 _atom_site_occupancy
  Te  Te0  1  0.66666700  0.33333300  0.71101200  1
  Te  Te1  1  0.66666700  0.33333300  0.17365600  1
  Te  Te2  1  0.66666700  0.33333300  0.82634400  1
  Te  Te3  1  0.66666700  0.33333300  0.28898800  1
  Mo  Mo0  1  0.66666700  0.33333300  0.00000000  1
  W  W0  1  0.33333300  0.66666700  0.76866900  1
  W  W1  1  0.33333300  0.66666700  0.23133100  1
  Se  Se0  1  0.33333300  0.66666700  0.05070900  1
  Se  Se1  1  0.33333300  0.66666700  0.94929100  1
loop_
_geom_bond_atom_site_label_1
_geom_bond_atom_site_label_2
_geom_bond_distance
_geom_bond_site_symmetry_2
Te0 W0 2.729563 1_545
Te0 W0 2.729563 1_655
Te0 W0 2.729567 1_555
Te1 W1 2.729953 1_545
Te1 W1 2.729953 1_655
Te1 W1 2.729957 1_555
Te2 W0 2.729953 1_545
Te2 W0 2.729953 1_655
Te2 W0 2.729957 1_555
Te3 W1 2.729563 1_545
Te3 W1 2.729563 1_655
Te3 W1 2.729567 1_555
Mo0 Se0 2.584149 1_545
Mo0 Se0 2.584149 1_655
Mo0 Se1 2.584149 1_544
Mo0 Se1 2.584149 1_654
Mo0 Se0 2.584153 1_555
Mo0 Se1 2.584153 1_554
