# generated using pymatgen
data_NaGd3Ti2(SbO7)2
_symmetry_space_group_name_H-M   'P 1'
_cell_length_a   7.31691429
_cell_length_b   7.31691429
_cell_length_c   7.27712478
_cell_angle_alpha   60.68895352
_cell_angle_beta   60.68895352
_cell_angle_gamma   60.89459354
_symmetry_Int_Tables_number   1
_chemical_formula_structural   NaGd3Ti2(SbO7)2
_chemical_formula_sum   'Na1 Gd3 Ti2 Sb2 O14'
_cell_volume   280.19259806
_cell_formula_units_Z   1
loop_
 _symmetry_equiv_pos_site_id
 _symmetry_equiv_pos_as_xyz
  1  'x, y, z'
loop_
 _atom_site_type_symbol
 _atom_site_label
 _atom_site_symmetry_multiplicity
 _atom_site_fract_x
 _atom_site_fract_y
 _atom_site_fract_z
 _atom_site_occupancy
  Na  Na0  1  0.00000000  0.00000000  0.00000000  1
  Gd  Gd0  1  0.00000000  0.00000000  0.50000000  1
  Gd  Gd1  1  0.50000000  0.00000000  0.00000000  1
  Gd  Gd2  1  0.00000000  0.50000000  0.00000000  1
  Ti  Ti0  1  0.50000000  0.50000000  0.50000000  1
  Ti  Ti1  1  0.50000000  0.50000000  0.00000000  1
  Sb  Sb0  1  0.00000000  0.50000000  0.50000000  1
  Sb  Sb1  1  0.50000000  0.00000000  0.50000000  1
  O  O0  1  0.86809100  0.86809100  0.87080800  1
  O  O1  1  0.13190900  0.13190900  0.12919200  1
  O  O2  1  0.57091800  0.57091800  0.18175000  1
  O  O3  1  0.17142700  0.17142700  0.57202400  1
  O  O4  1  0.17587300  0.57711900  0.57699000  1
  O  O5  1  0.56286500  0.17859200  0.17745900  1
  O  O6  1  0.17859200  0.56286500  0.17745900  1
  O  O7  1  0.57711900  0.17587300  0.57699000  1
  O  O8  1  0.42908200  0.42908200  0.81825000  1
  O  O9  1  0.82857300  0.82857300  0.42797600  1
  O  O10  1  0.82412700  0.42288100  0.42301000  1
  O  O11  1  0.43713500  0.82140800  0.82254100  1
  O  O12  1  0.82140800  0.43713500  0.82254100  1
  O  O13  1  0.42288100  0.82412700  0.42301000  1
loop_
_geom_bond_atom_site_label_1
_geom_bond_atom_site_label_2
_geom_bond_distance
_geom_bond_site_symmetry_2
Na0 O1 2.330253 1_555
Na0 O0 2.330253 1_444
Na0 O9 2.593685 1_445
Na0 O3 2.593685 1_554
Na0 O5 2.673493 1_455
Na0 O6 2.673493 1_545
Na0 O11 2.673493 1_544
Na0 O12 2.673493 1_454
Gd0 O0 2.225040 1_445
Gd0 O1 2.225040 1_555
Gd0 O3 2.497853 1_555
Gd0 O9 2.497853 1_445
Gd0 O13 2.584345 1_545
Gd0 O10 2.584345 1_455
Gd0 O4 2.584345 1_545
Gd0 O7 2.584345 1_455
Gd1 O0 2.224778 1_544
Gd1 O1 2.224778 1_555
Gd1 O5 2.530897 1_555
Gd1 O11 2.530897 1_544
Gd1 O13 2.564661 1_545
Gd1 O7 2.564661 1_554
Gd1 O8 2.626183 1_554
Gd1 O2 2.626183 1_545
Gd2 O0 2.224778 1_454
Gd2 O1 2.224778 1_555
Gd2 O6 2.530897 1_555
Gd2 O12 2.530897 1_454
Gd2 O10 2.564661 1_455
Gd2 O4 2.564661 1_554
Gd2 O8 2.626183 1_554
Gd2 O2 2.626183 1_455
O2 Ti0 1.952127 1_555
O2 Ti1 1.973248 1_555
O3 Sb0 2.025886 1_555
O3 Sb1 2.025886 1_555
O4 Ti0 1.990860 1_555
O4 Sb0 2.002532 1_555
O5 Sb1 1.988210 1_555
O5 Ti1 1.991372 1_555
O6 Sb0 1.988210 1_555
O6 Ti1 1.991372 1_555
O7 Ti0 1.990860 1_555
O7 Sb1 2.002532 1_555
O8 Ti0 1.952127 1_555
O8 Ti1 1.973248 1_556
O9 Sb1 2.025886 1_565
O9 Sb0 2.025886 1_655
O10 Ti0 1.990860 1_555
O10 Sb0 2.002532 1_655
O11 Sb1 1.988210 1_565
O11 Ti1 1.991372 1_556
O12 Sb0 1.988210 1_655
O12 Ti1 1.991372 1_556
O13 Ti0 1.990860 1_555
O13 Sb1 2.002532 1_565
