# generated using pymatgen
data_Li2CrPO4F
_symmetry_space_group_name_H-M   'P 1'
_cell_length_a   7.43190159
_cell_length_b   7.87887230
_cell_length_c   7.62300318
_cell_angle_alpha   88.96168992
_cell_angle_beta   65.41912586
_cell_angle_gamma   88.94932972
_symmetry_Int_Tables_number   1
_chemical_formula_structural   Li2CrPO4F
_chemical_formula_sum   'Li8 Cr4 P4 O16 F4'
_cell_volume   405.81788448
_cell_formula_units_Z   4
loop_
 _symmetry_equiv_pos_site_id
 _symmetry_equiv_pos_as_xyz
  1  'x, y, z'
loop_
 _atom_site_type_symbol
 _atom_site_label
 _atom_site_symmetry_multiplicity
 _atom_site_fract_x
 _atom_site_fract_y
 _atom_site_fract_z
 _atom_site_occupancy
  Li  Li0  1  0.59508100  0.82873000  0.15592400  1
  Li  Li1  1  0.09508400  0.32875300  0.15594500  1
  Li  Li2  1  0.69231900  0.17570400  0.84602100  1
  Li  Li3  1  0.19229600  0.67573200  0.84604400  1
  Li  Li4  1  0.25354600  0.74762800  0.47094100  1
  Li  Li5  1  0.75353000  0.24764200  0.47097300  1
  Li  Li6  1  0.36922600  0.17310200  0.81972300  1
  Li  Li7  1  0.86921900  0.67311600  0.81973200  1
  Cr  Cr0  1  0.49668800  0.50057000  0.01182100  1
  Cr  Cr1  1  0.01785500  0.99951900  0.49706300  1
  Cr  Cr2  1  0.99664700  0.00064600  0.01193200  1
  Cr  Cr3  1  0.51769600  0.49956300  0.49715700  1
  P  P0  1  0.50067000  0.14645900  0.23136800  1
  P  P1  1  0.00065800  0.64641500  0.23132600  1
  P  P2  1  0.50334100  0.85385700  0.78024100  1
  P  P3  1  0.00337700  0.35384200  0.78021300  1
  O  O0  1  0.46676200  0.72977200  0.64243100  1
  O  O1  1  0.96677600  0.22975500  0.64241800  1
  O  O2  1  0.53999600  0.26425300  0.37024300  1
  O  O3  1  0.04000800  0.76420600  0.37017400  1
  O  O4  1  0.64104700  0.00402100  0.68234000  1
  O  O5  1  0.14105800  0.50402200  0.68233300  1
  O  O6  1  0.59251800  0.74714500  0.90300300  1
  O  O7  1  0.09253000  0.24714700  0.90300100  1
  O  O8  1  0.41500700  0.25091700  0.10268600  1
  O  O9  1  0.91500700  0.75092800  0.10268200  1
  O  O10  1  0.70052500  0.06518300  0.08144300  1
  O  O11  1  0.20053200  0.56517300  0.08142900  1
  O  O12  1  0.36735600  0.99611600  0.33433600  1
  O  O13  1  0.86732100  0.49612100  0.33433300  1
  O  O14  1  0.29779300  0.93120100  0.91173200  1
  O  O15  1  0.79782100  0.43118800  0.91171600  1
  F  F0  1  0.55026200  0.35391400  0.70836000  1
  F  F1  1  0.05027100  0.85391200  0.70835300  1
  F  F2  1  0.47032600  0.62999700  0.29169100  1
  F  F3  1  0.97033600  0.12999900  0.29168900  1
loop_
_geom_bond_atom_site_label_1
_geom_bond_atom_site_label_2
_geom_bond_distance
_geom_bond_site_symmetry_2
Li0 O10 2.013012 1_565
Li0 O6 2.051029 1_554
Li0 O12 2.126375 1_555
Li0 O9 2.312243 1_555
Li1 O11 2.012807 1_555
Li1 O7 2.051223 1_554
Li1 O13 2.126375 1_455
Li1 O8 2.312257 1_555
Li2 O4 2.001847 1_555
Li2 O10 2.003777 1_556
Li2 O1 2.030982 1_555
Li2 O8 2.251510 1_556
Li2 O15 2.310528 1_555
Li3 O5 2.002040 1_555
Li3 O11 2.003736 1_556
Li3 O0 2.031036 1_555
Li3 O9 2.251280 1_456
Li3 O14 2.310387 1_555
Li4 O3 2.031898 1_555
Li4 O12 2.210627 1_555
Li4 O5 2.409457 1_555
Li4 O0 2.438904 1_555
Li5 O2 2.031684 1_555
Li5 O13 2.210615 1_555
Li5 O4 2.409450 1_555
Li5 O1 2.438831 1_555
Li6 O7 1.963516 1_555
Li6 O14 2.021172 1_545
Li6 O4 2.268081 1_555
Li6 O8 2.410513 1_556
Li7 O6 1.963520 1_555
Li7 O15 2.021295 1_555
Li7 O5 2.268245 1_655
Li7 O9 2.410439 1_556
Cr0 O8 2.088518 1_555
Cr0 O11 2.093350 1_555
Cr0 O15 2.106937 1_554
Cr0 O6 2.114326 1_554
Cr0 F2 2.313792 1_555
Cr0 F0 2.481670 1_554
Cr1 F3 2.005221 1_465
Cr1 F1 2.052830 1_555
Cr1 O3 2.078787 1_555
Cr1 O1 2.088087 1_465
Cr1 O12 2.367341 1_555
Cr1 O4 2.558498 1_465
Cr2 O9 2.088778 1_545
Cr2 O10 2.093126 1_555
Cr2 O14 2.107093 1_644
Cr2 O7 2.114069 1_654
Cr2 F3 2.312872 1_555
Cr2 F1 2.482663 1_644
Cr3 F2 2.005090 1_555
Cr3 F0 2.052947 1_555
Cr3 O2 2.078709 1_555
Cr3 O0 2.087670 1_555
Cr3 O13 2.368202 1_555
Cr3 O5 2.557330 1_555
O0 P2 1.554951 1_555
O1 P3 1.554951 1_655
O2 P0 1.539629 1_555
O3 P1 1.539541 1_555
O4 P2 1.543083 1_545
O5 P3 1.543060 1_555
O6 P2 1.577634 1_555
O7 P3 1.577598 1_555
O8 P0 1.586188 1_555
O9 P1 1.586122 1_655
O10 P0 1.581690 1_555
O11 P1 1.581599 1_555
O12 P0 1.537273 1_565
O13 P1 1.537119 1_655
O14 P2 1.556845 1_555
O15 P3 1.556915 1_655
F0 Li6 1.906981 1_555
F0 Li5 1.998014 1_555
F0 Li2 2.236352 1_555
F1 Li7 1.906966 1_455
F1 Li4 1.998187 1_555
F1 Li3 2.236202 1_555
F2 Li4 1.865831 1_555
F2 Li0 1.891734 1_555
F3 Li5 1.866083 1_555
F3 Li1 1.891799 1_655
