# generated using pymatgen
data_La(Al10V)2
_symmetry_space_group_name_H-M   'P 1'
_cell_length_a   10.32438267
_cell_length_b   10.32438267
_cell_length_c   10.32438267
_cell_angle_alpha   60.00000000
_cell_angle_beta   60.00000000
_cell_angle_gamma   60.00000000
_symmetry_Int_Tables_number   1
_chemical_formula_structural   La(Al10V)2
_chemical_formula_sum   'La2 Al40 V4'
_cell_volume   778.17501386
_cell_formula_units_Z   2
loop_
 _symmetry_equiv_pos_site_id
 _symmetry_equiv_pos_as_xyz
  1  'x, y, z'
loop_
 _atom_site_type_symbol
 _atom_site_label
 _atom_site_symmetry_multiplicity
 _atom_site_fract_x
 _atom_site_fract_y
 _atom_site_fract_z
 _atom_site_occupancy
  La  La0  1  0.50000000  0.50000000  0.50000000  1
  La  La1  1  0.75000000  0.75000000  0.75000000  1
  Al  Al0  1  0.86303600  0.86303600  0.13696400  1
  Al  Al1  1  0.13696400  0.13696400  0.86303600  1
  Al  Al2  1  0.86303600  0.13696400  0.86303600  1
  Al  Al3  1  0.13696400  0.86303600  0.13696400  1
  Al  Al4  1  0.13696400  0.86303600  0.86303600  1
  Al  Al5  1  0.86303600  0.13696400  0.13696400  1
  Al  Al6  1  0.38696400  0.38696400  0.11303600  1
  Al  Al7  1  0.11303600  0.11303600  0.38696400  1
  Al  Al8  1  0.38696400  0.11303600  0.38696400  1
  Al  Al9  1  0.11303600  0.38696400  0.11303600  1
  Al  Al10  1  0.11303600  0.38696400  0.38696400  1
  Al  Al11  1  0.38696400  0.11303600  0.11303600  1
  Al  Al12  1  0.56915900  0.29840400  0.29840400  1
  Al  Al13  1  0.29840400  0.56915900  0.83403400  1
  Al  Al14  1  0.29840400  0.83403400  0.56915900  1
  Al  Al15  1  0.83403400  0.29840400  0.29840400  1
  Al  Al16  1  0.29840400  0.29840400  0.56915900  1
  Al  Al17  1  0.56915900  0.83403400  0.29840400  1
  Al  Al18  1  0.83403400  0.56915900  0.29840400  1
  Al  Al19  1  0.29840400  0.29840400  0.83403400  1
  Al  Al20  1  0.29840400  0.56915900  0.29840400  1
  Al  Al21  1  0.83403400  0.29840400  0.56915900  1
  Al  Al22  1  0.56915900  0.29840400  0.83403400  1
  Al  Al23  1  0.29840400  0.83403400  0.29840400  1
  Al  Al24  1  0.68084100  0.95159600  0.95159600  1
  Al  Al25  1  0.95159600  0.68084100  0.41596600  1
  Al  Al26  1  0.95159600  0.41596600  0.68084100  1
  Al  Al27  1  0.41596600  0.95159600  0.95159600  1
  Al  Al28  1  0.95159600  0.95159600  0.68084100  1
  Al  Al29  1  0.68084100  0.41596600  0.95159600  1
  Al  Al30  1  0.41596600  0.68084100  0.95159600  1
  Al  Al31  1  0.95159600  0.95159600  0.41596600  1
  Al  Al32  1  0.95159600  0.68084100  0.95159600  1
  Al  Al33  1  0.41596600  0.95159600  0.68084100  1
  Al  Al34  1  0.68084100  0.95159600  0.41596600  1
  Al  Al35  1  0.95159600  0.41596600  0.95159600  1
  Al  Al36  1  0.12500000  0.62500000  0.62500000  1
  Al  Al37  1  0.62500000  0.12500000  0.62500000  1
  Al  Al38  1  0.62500000  0.62500000  0.12500000  1
  Al  Al39  1  0.62500000  0.62500000  0.62500000  1
  V  V0  1  0.62500000  0.12500000  0.12500000  1
  V  V1  1  0.12500000  0.62500000  0.12500000  1
  V  V2  1  0.12500000  0.12500000  0.62500000  1
  V  V3  1  0.12500000  0.12500000  0.12500000  1
loop_
_geom_bond_atom_site_label_1
_geom_bond_atom_site_label_2
_geom_bond_distance
_geom_bond_site_symmetry_2
Al0 V1 2.587000 1_655
Al0 V0 2.587000 1_565
Al0 Al17 2.725033 1_555
Al0 Al18 2.725033 1_555
Al0 Al4 2.828137 1_654
Al0 Al2 2.828137 1_564
Al0 Al5 2.828137 1_565
Al0 Al3 2.828137 1_655
Al0 Al25 2.857831 1_555
Al0 Al34 2.857831 1_555
Al0 Al32 2.857839 1_554
Al0 Al24 2.857839 1_554
Al1 V2 2.587000 1_555
Al1 V3 2.587000 1_556
Al1 Al16 2.725037 1_555
Al1 Al19 2.725042 1_555
Al1 Al2 2.828137 1_455
Al1 Al4 2.828137 1_545
Al1 Al3 2.828137 1_546
Al1 Al5 2.828137 1_456
Al1 Al35 2.857831 1_455
Al1 Al27 2.857831 1_545
Al1 Al33 2.857836 1_545
Al1 Al26 2.857836 1_455
Al2 V2 2.587000 1_655
Al2 V0 2.587000 1_556
Al2 Al22 2.725033 1_555
Al2 Al21 2.725033 1_555
Al2 Al4 2.828137 1_645
Al2 Al5 2.828137 1_556
Al2 Al29 2.857831 1_555
Al2 Al26 2.857831 1_555
Al2 Al28 2.857839 1_545
Al2 Al24 2.857839 1_545
Al3 V1 2.587000 1_555
Al3 V3 2.587000 1_565
Al3 Al4 2.828137 1_554
Al3 Al5 2.828137 1_465
Al3 Al31 2.857831 1_455
Al3 Al30 2.857836 1_554
Al4 V2 2.587000 1_565
Al4 V1 2.587000 1_556
Al5 V0 2.587000 1_555
Al5 V3 2.587000 1_655
Al6 V1 2.587000 1_555
Al6 V0 2.587000 1_555
Al6 Al8 2.828137 1_555
Al6 Al9 2.828137 1_555
Al7 V3 2.587000 1_555
Al7 V2 2.587000 1_555
Al7 Al8 2.828137 1_555
Al7 Al9 2.828137 1_555
Al8 V2 2.587000 1_555
Al8 V0 2.587000 1_555
Al9 V3 2.587000 1_555
Al9 V1 2.587000 1_555
Al10 V1 2.587000 1_555
Al10 V2 2.587000 1_555
Al10 Al25 2.725033 1_455
Al10 Al26 2.725033 1_455
Al10 Al7 2.828137 1_555
Al10 Al8 2.828137 1_555
Al10 Al9 2.828137 1_555
Al10 Al6 2.828137 1_555
Al10 Al21 2.857831 1_455
Al10 Al18 2.857831 1_455
Al10 Al20 2.857839 1_555
Al10 Al16 2.857839 1_555
Al11 V3 2.587000 1_555
Al11 V0 2.587000 1_555
Al11 Al24 2.725037 1_544
Al11 Al27 2.725042 1_544
Al11 Al7 2.828137 1_555
Al11 Al9 2.828137 1_555
Al11 Al8 2.828137 1_555
Al11 Al6 2.828137 1_555
Al11 Al23 2.857831 1_545
Al11 Al19 2.857831 1_554
Al11 Al22 2.857836 1_554
Al11 Al17 2.857836 1_545
Al12 Al5 2.725037 1_555
Al12 Al15 2.734671 1_555
Al12 Al16 2.795378 1_555
Al12 Al20 2.795378 1_555
Al12 V0 2.807757 1_555
Al12 Al8 2.857839 1_555
Al12 Al6 2.857839 1_555
Al12 Al34 2.923740 1_545
Al12 Al29 2.923740 1_554
Al12 Al38 3.127682 1_555
Al12 Al37 3.127682 1_555
Al12 La0 3.245561 1_555
Al13 Al4 2.725033 1_555
Al13 Al14 2.734671 1_555
Al13 Al19 2.795378 1_555
Al13 Al22 2.795378 1_555
Al13 V1 2.807748 1_556
Al13 Al6 2.857831 1_556
Al13 Al9 2.857836 1_556
Al13 Al30 2.923723 1_555
Al13 Al32 2.923740 1_455
Al13 Al39 3.127683 1_555
Al13 Al36 3.127691 1_555
Al13 La0 3.245569 1_555
Al14 Al4 2.725033 1_555
Al14 Al23 2.795378 1_555
Al14 Al17 2.795378 1_555
Al14 V2 2.807748 1_565
Al14 Al8 2.857831 1_565
Al14 Al7 2.857836 1_565
Al14 Al33 2.923723 1_555
Al14 Al28 2.923740 1_455
Al14 Al39 3.127683 1_555
Al14 Al36 3.127691 1_555
Al14 La0 3.245569 1_555
Al15 Al5 2.725042 1_555
Al15 Al18 2.795378 1_555
Al15 Al21 2.795378 1_555
Al15 V3 2.807752 1_655
Al15 Al9 2.857831 1_655
Al15 Al7 2.857831 1_655
Al15 Al35 2.923740 1_554
Al15 Al31 2.923740 1_545
Al15 Al37 3.127687 1_555
Al15 Al38 3.127687 1_555
Al15 La0 3.245565 1_555
Al16 Al19 2.734671 1_555
Al16 Al20 2.795378 1_555
Al16 V2 2.807757 1_555
Al16 Al8 2.857839 1_555
Al16 Al26 2.923740 1_455
Al16 Al33 2.923740 1_545
Al16 Al36 3.127682 1_555
Al16 Al37 3.127682 1_555
Al16 La0 3.245561 1_555
Al17 Al18 2.734671 1_555
Al17 Al23 2.795378 1_555
Al17 V0 2.807748 1_565
Al17 Al8 2.857831 1_565
Al17 Al34 2.923723 1_555
Al17 Al24 2.923740 1_554
Al17 Al39 3.127683 1_555
Al17 Al38 3.127691 1_555
Al17 La0 3.245569 1_555
Al18 Al21 2.795378 1_555
Al18 V1 2.807748 1_655
Al18 Al9 2.857836 1_655
Al18 Al25 2.923723 1_555
Al18 Al32 2.923740 1_554
Al18 Al39 3.127683 1_555
Al18 Al38 3.127691 1_555
Al18 La0 3.245569 1_555
Al19 Al22 2.795378 1_555
Al19 V3 2.807752 1_556
Al19 Al9 2.857831 1_556
Al19 Al35 2.923740 1_455
Al19 Al27 2.923740 1_545
Al19 Al37 3.127687 1_555
Al19 Al36 3.127687 1_555
Al19 La0 3.245565 1_555
Al20 Al3 2.725037 1_555
Al20 Al23 2.734671 1_555
Al20 V1 2.807757 1_555
Al20 Al6 2.857839 1_555
Al20 Al30 2.923740 1_554
Al20 Al25 2.923740 1_455
Al20 Al36 3.127682 1_555
Al20 Al38 3.127682 1_555
Al20 La0 3.245561 1_555
Al21 Al22 2.734671 1_555
Al21 V2 2.807748 1_655
Al21 Al7 2.857836 1_655
Al21 Al26 2.923723 1_555
Al21 Al28 2.923740 1_545
Al21 Al39 3.127683 1_555
Al21 Al37 3.127691 1_555
Al21 La0 3.245569 1_555
Al22 V0 2.807748 1_556
Al22 Al6 2.857831 1_556
Al22 Al29 2.923723 1_555
Al22 Al24 2.923740 1_545
Al22 Al39 3.127683 1_555
Al22 Al37 3.127691 1_555
Al22 La0 3.245569 1_555
Al23 Al3 2.725042 1_555
Al23 V3 2.807752 1_565
Al23 Al7 2.857831 1_565
Al23 Al27 2.923740 1_554
Al23 Al31 2.923740 1_455
Al23 Al36 3.127687 1_555
Al23 Al38 3.127687 1_555
Al23 La0 3.245565 1_555
Al24 Al27 2.734671 1_555
Al24 Al28 2.795378 1_555
Al24 Al32 2.795378 1_555
Al24 V0 2.807757 1_566
Al24 Al37 3.127682 1_565
Al24 Al38 3.127682 1_556
Al24 La1 3.245561 1_555
Al25 Al26 2.734671 1_555
Al25 Al34 2.795378 1_555
Al25 Al31 2.795378 1_555
Al25 V1 2.807748 1_655
Al25 Al3 2.857836 1_655
Al25 Al39 3.127683 1_555
Al25 Al36 3.127691 1_655
Al25 La1 3.245569 1_555
Al26 Al35 2.795378 1_555
Al26 Al29 2.795378 1_555
Al26 V2 2.807748 1_655
Al26 Al39 3.127683 1_555
Al26 Al36 3.127691 1_655
Al26 La1 3.245569 1_555
Al27 Al30 2.795378 1_555
Al27 Al33 2.795378 1_555
Al27 V3 2.807752 1_566
Al27 Al3 2.857831 1_556
Al27 Al37 3.127687 1_565
Al27 Al38 3.127687 1_556
Al27 La1 3.245565 1_555
Al28 Al7 2.725037 1_665
Al28 Al31 2.734671 1_555
Al28 Al32 2.795378 1_555
Al28 V2 2.807757 1_665
Al28 Al4 2.857839 1_655
Al28 Al36 3.127682 1_655
Al28 Al37 3.127682 1_565
Al28 La1 3.245561 1_555
Al29 Al6 2.725033 1_556
Al29 Al30 2.734671 1_555
Al29 Al35 2.795378 1_555
Al29 V0 2.807748 1_556
Al29 Al5 2.857836 1_556
Al29 Al39 3.127683 1_555
Al29 Al38 3.127691 1_556
Al29 La1 3.245569 1_555
Al30 Al6 2.725033 1_556
Al30 Al33 2.795378 1_555
Al30 V1 2.807748 1_556
Al30 Al4 2.857831 1_555
Al30 Al39 3.127683 1_555
Al30 Al38 3.127691 1_556
Al30 La1 3.245569 1_555
Al31 Al7 2.725042 1_665
Al31 Al34 2.795378 1_555
Al31 V3 2.807752 1_665
Al31 Al5 2.857831 1_565
Al31 Al36 3.127687 1_655
Al31 Al37 3.127687 1_565
Al31 La1 3.245565 1_555
Al32 Al9 2.725037 1_656
Al32 Al35 2.734671 1_555
Al32 V1 2.807757 1_656
Al32 Al4 2.857839 1_655
Al32 Al36 3.127682 1_655
Al32 Al38 3.127682 1_556
Al32 La1 3.245561 1_555
Al33 Al8 2.725033 1_565
Al33 Al34 2.734671 1_555
Al33 V2 2.807748 1_565
Al33 Al4 2.857831 1_555
Al33 Al39 3.127683 1_555
Al33 Al37 3.127691 1_565
Al33 La1 3.245569 1_555
Al34 Al8 2.725033 1_565
Al34 V0 2.807748 1_565
Al34 Al5 2.857836 1_565
Al34 Al39 3.127683 1_555
Al34 Al37 3.127691 1_565
Al34 La1 3.245569 1_555
Al35 Al9 2.725042 1_656
Al35 V3 2.807752 1_656
Al35 Al5 2.857831 1_556
Al35 Al38 3.127687 1_556
Al35 Al36 3.127687 1_655
Al35 La1 3.245565 1_555
Al36 La0 3.161184 1_555
Al36 La1 3.161184 1_455
Al37 La0 3.161184 1_555
Al37 La1 3.161184 1_545
Al38 La0 3.161184 1_555
Al38 La1 3.161184 1_554
Al39 La0 3.161184 1_555
Al39 La1 3.161184 1_555
