# generated using pymatgen
data_Cr3Si6N11
_symmetry_space_group_name_H-M   'P 1'
_cell_length_a   9.74854735
_cell_length_b   9.74854735
_cell_length_c   4.77304071
_cell_angle_alpha   90.00000000
_cell_angle_beta   90.00000000
_cell_angle_gamma   90.00000000
_symmetry_Int_Tables_number   1
_chemical_formula_structural   Cr3Si6N11
_chemical_formula_sum   'Cr6 Si12 N22'
_cell_volume   453.60198819
_cell_formula_units_Z   2
loop_
 _symmetry_equiv_pos_site_id
 _symmetry_equiv_pos_as_xyz
  1  'x, y, z'
loop_
 _atom_site_type_symbol
 _atom_site_label
 _atom_site_symmetry_multiplicity
 _atom_site_fract_x
 _atom_site_fract_y
 _atom_site_fract_z
 _atom_site_occupancy
  Cr  Cr0  1  0.28773321  0.78759351  0.93910037  1
  Cr  Cr1  1  0.71226679  0.21240649  0.93910037  1
  Cr  Cr2  1  0.21240649  0.28773321  0.93910037  1
  Cr  Cr3  1  0.78759351  0.71226679  0.93910037  1
  Cr  Cr4  1  0.50000000  0.50000000  0.91796598  1
  Cr  Cr5  1  -0.00000000  -0.00000000  0.91788936  1
  Si  Si0  1  0.41741177  0.29653333  0.52965853  1
  Si  Si1  1  0.58258823  0.70346667  0.52965853  1
  Si  Si2  1  0.08259182  0.79653320  0.52966996  1
  Si  Si3  1  0.91740818  0.20346680  0.52966996  1
  Si  Si4  1  0.29653333  0.58258823  0.52965853  1
  Si  Si5  1  0.70346667  0.41741177  0.52965853  1
  Si  Si6  1  0.79653320  0.91740818  0.52966996  1
  Si  Si7  1  0.20346680  0.08259182  0.52966996  1
  Si  Si8  1  0.88315494  0.38315856  0.05822020  1
  Si  Si9  1  0.11684506  0.61684144  0.05822020  1
  Si  Si10  1  0.61684144  0.88315494  0.05822020  1
  Si  Si11  1  0.38315856  0.11684506  0.05822020  1
  N  N0  1  0.31953229  0.42482475  0.67677492  1
  N  N1  1  0.68046771  0.57517425  0.67677492  1
  N  N2  1  0.18049148  0.92481138  0.67676431  1
  N  N3  1  0.81950852  0.07518862  0.67676431  1
  N  N4  1  0.42482475  0.68046771  0.67677492  1
  N  N5  1  0.57517425  0.31953229  0.67677492  1
  N  N6  1  0.92481138  0.81950852  0.67676431  1
  N  N7  1  0.07518862  0.18049148  0.67676431  1
  N  N8  1  0.40516439  0.28505639  0.17677493  1
  N  N9  1  0.59483561  0.71494361  0.17677493  1
  N  N10  1  0.09486166  0.78502932  0.17678664  1
  N  N11  1  0.90513834  0.21497068  0.17678664  1
  N  N12  1  0.28505639  0.59483561  0.17677493  1
  N  N13  1  0.71494361  0.40516439  0.17677493  1
  N  N14  1  0.78502932  0.90513834  0.17678664  1
  N  N15  1  0.21497068  0.09486166  0.17678664  1
  N  N16  1  0.84075985  0.34077837  0.70800433  1
  N  N17  1  0.15924015  0.65922163  0.70800433  1
  N  N18  1  0.65922163  0.84075985  0.70800433  1
  N  N19  1  0.34077837  0.15924015  0.70800433  1
  N  N20  1  0.50000000  -0.00000000  0.10710091  1
  N  N21  1  -0.00000000  0.50000000  0.10710091  1
loop_
_geom_bond_atom_site_label_1
_geom_bond_atom_site_label_2
_geom_bond_distance
_geom_bond_site_symmetry_2
Cr0 N17 2.086105 1_555
Cr0 N4 2.108179 1_555
Cr0 N2 2.109549 1_555
Cr0 N12 2.195146 1_556
Cr0 N10 2.196111 1_556
Cr1 N16 2.086105 1_555
Cr1 N5 2.108185 1_555
Cr1 N3 2.109549 1_555
Cr1 N13 2.195146 1_556
Cr1 N11 2.196111 1_556
Cr2 N19 2.086105 1_555
Cr2 N0 2.108179 1_555
Cr2 N7 2.109549 1_555
Cr2 N8 2.195146 1_556
Cr2 N15 2.196111 1_556
Cr3 N18 2.086105 1_555
Cr3 N1 2.108185 1_555
Cr3 N6 2.109549 1_555
Cr3 N9 2.195146 1_556
Cr3 N14 2.196111 1_556
Cr4 N1 2.226540 1_555
Cr4 N5 2.226540 1_555
Cr4 N4 2.226543 1_555
Cr4 N0 2.226543 1_555
Cr4 N9 2.602181 1_556
Cr4 N13 2.602181 1_556
Cr4 N12 2.602181 1_556
Cr4 N8 2.602181 1_556
Cr5 N7 2.226606 1_555
Cr5 N6 2.226606 1_445
Cr5 N3 2.226606 1_455
Cr5 N2 2.226606 1_545
Cr5 N10 2.602684 1_546
Cr5 N14 2.602684 1_446
Cr5 N11 2.602684 1_456
Cr5 N15 2.602684 1_556
N0 Si4 1.705485 1_555
N0 Si0 1.722695 1_555
N1 Si5 1.705476 1_555
N1 Si1 1.722702 1_555
N2 Si7 1.705560 1_565
N2 Si2 1.722667 1_555
N3 Si6 1.705560 1_545
N3 Si3 1.722667 1_555
N4 Si1 1.705485 1_555
N4 Si4 1.722695 1_555
N5 Si0 1.705476 1_555
N5 Si5 1.722702 1_555
N6 Si2 1.705560 1_655
N6 Si6 1.722667 1_555
N7 Si3 1.705560 1_455
N7 Si7 1.722667 1_555
N8 Si0 1.692257 1_555
N8 Si11 1.747920 1_555
N9 Si1 1.692257 1_555
N9 Si10 1.747920 1_555
N10 Si2 1.692288 1_555
N10 Si9 1.747696 1_555
N11 Si3 1.692288 1_555
N11 Si8 1.747696 1_555
N12 Si4 1.692257 1_555
N12 Si9 1.747920 1_555
N13 Si5 1.692257 1_555
N13 Si8 1.747920 1_555
N14 Si6 1.692288 1_555
N14 Si10 1.747696 1_555
N15 Si7 1.692288 1_555
N15 Si11 1.747696 1_555
N16 Si5 1.753304 1_555
N16 Si3 1.753476 1_555
N16 Si8 1.770798 1_556
N17 Si4 1.753304 1_555
N17 Si2 1.753476 1_555
N17 Si9 1.770798 1_556
N18 Si1 1.753304 1_555
N18 Si6 1.753476 1_555
N18 Si10 1.770798 1_556
N19 Si0 1.753304 1_555
N19 Si7 1.753476 1_555
N19 Si11 1.770798 1_556
N20 Si10 1.627671 1_545
N20 Si11 1.627671 1_555
N21 Si9 1.627671 1_555
N21 Si8 1.627671 1_455
