# generated using pymatgen
data_Sr2YCo2O7
_symmetry_space_group_name_H-M   'P 1'
_cell_length_a   12.62294698
_cell_length_b   12.62294698
_cell_length_c   12.62294698
_cell_angle_alpha   155.60812398
_cell_angle_beta   155.33931745
_cell_angle_gamma   34.96153373
_symmetry_Int_Tables_number   1
_chemical_formula_structural   Sr2YCo2O7
_chemical_formula_sum   'Sr4 Y2 Co4 O14'
_cell_volume   346.18699277
_cell_formula_units_Z   2
loop_
 _symmetry_equiv_pos_site_id
 _symmetry_equiv_pos_as_xyz
  1  'x, y, z'
loop_
 _atom_site_type_symbol
 _atom_site_label
 _atom_site_symmetry_multiplicity
 _atom_site_fract_x
 _atom_site_fract_y
 _atom_site_fract_z
 _atom_site_occupancy
  Sr  Sr0  1  0.82623800  0.78377100  0.95753300  1
  Sr  Sr1  1  0.17376200  0.21622900  0.04246700  1
  Sr  Sr2  1  0.67376200  0.63129600  0.95753300  1
  Sr  Sr3  1  0.32623800  0.36870400  0.04246700  1
  Y  Y0  1  0.50000000  0.50000000  0.00000000  1
  Y  Y1  1  0.00000000  0.00000000  0.00000000  1
  Co  Co0  1  0.41687600  0.92722800  0.51035200  1
  Co  Co1  1  0.58312400  0.07277200  0.48964800  1
  Co  Co2  1  0.08312400  0.59347600  0.51035200  1
  Co  Co3  1  0.91687600  0.40652400  0.48964800  1
  O  O0  1  0.00000000  0.50000000  0.00000000  1
  O  O1  1  0.50000000  0.50000000  0.50000000  1
  O  O2  1  0.19472200  0.19472200  0.50000000  1
  O  O3  1  0.30527800  0.80527800  0.00000000  1
  O  O4  1  0.80527800  0.80527800  0.50000000  1
  O  O5  1  0.69472200  0.19472200  0.00000000  1
  O  O6  1  0.68688300  0.68688300  0.50000000  1
  O  O7  1  0.81311700  0.31311700  0.00000000  1
  O  O8  1  0.31311700  0.31311700  0.50000000  1
  O  O9  1  0.18688300  0.68688300  0.00000000  1
  O  O10  1  0.84389700  0.30529900  0.46140200  1
  O  O11  1  0.15610300  0.69470100  0.53859800  1
  O  O12  1  0.65610300  0.11750600  0.46140200  1
  O  O13  1  0.34389700  0.88249400  0.53859800  1
loop_
_geom_bond_atom_site_label_1
_geom_bond_atom_site_label_2
_geom_bond_distance
_geom_bond_site_symmetry_2
Co0 O13 1.763790 1_555
Co0 O5 1.974785 1_566
Co0 O2 1.974785 1_565
Co0 O9 1.994172 1_555
Co0 O6 1.994172 1_555
Co1 O12 1.763790 1_555
Co1 O4 1.974785 1_545
Co1 O3 1.974785 1_545
Co1 O7 1.994172 1_556
Co1 O8 1.994172 1_555
Co2 O11 1.763778 1_555
Co2 O4 1.974785 1_455
Co2 O3 1.974785 1_556
Co2 O7 1.994172 1_455
Co2 O8 1.994172 1_555
Co3 O10 1.763778 1_555
Co3 O5 1.974785 1_555
Co3 O2 1.974785 1_655
Co3 O9 1.994172 1_656
Co3 O6 1.994172 1_555
O0 Sr3 2.532160 1_555
O0 Sr2 2.532160 1_454
O0 Sr1 2.532166 1_555
O0 Sr0 2.532166 1_454
O1 Sr3 2.532157 1_555
O1 Sr2 2.532157 1_555
O1 Sr1 2.532166 1_555
O1 Sr0 2.532166 1_555
O2 Y0 2.316496 1_556
O2 Y1 2.316496 1_555
O3 Y1 2.316496 1_565
O3 Y0 2.316496 1_555
O4 Y0 2.316496 1_555
O4 Y1 2.316496 1_666
O5 Y0 2.316496 1_555
O5 Y1 2.316496 1_655
O6 Y1 2.429878 1_666
O6 Y0 2.429878 1_555
O7 Y0 2.429878 1_555
O7 Y1 2.429878 1_655
O8 Y0 2.429878 1_556
O8 Y1 2.429878 1_555
O9 Y0 2.429878 1_555
O9 Y1 2.429878 1_565
O10 Sr0 2.679983 1_555
O10 Sr0 2.720737 1_544
O10 Sr3 2.762971 1_555
O10 Sr3 2.762976 1_656
O11 Sr1 2.679983 1_555
O11 Sr1 2.720737 1_566
O11 Sr2 2.762971 1_555
O11 Sr2 2.762976 1_454
O12 Sr2 2.679983 1_555
O12 Sr2 2.720737 1_544
O12 Sr1 2.762967 1_555
O12 Sr1 2.762972 1_656
O13 Sr3 2.679983 1_555
O13 Sr3 2.720737 1_566
O13 Sr0 2.762967 1_555
O13 Sr0 2.762972 1_454
