# generated using pymatgen
data_CdSn2H12(OF)6
_symmetry_space_group_name_H-M   'P 1'
_cell_length_a   6.71054200
_cell_length_b   7.03809627
_cell_length_c   7.06424729
_cell_angle_alpha   78.00704895
_cell_angle_beta   79.17735820
_cell_angle_gamma   70.34404026
_symmetry_Int_Tables_number   1
_chemical_formula_structural   CdSn2H12(OF)6
_chemical_formula_sum   'Cd1 Sn2 H12 O6 F6'
_cell_volume   304.81445424
_cell_formula_units_Z   1
loop_
 _symmetry_equiv_pos_site_id
 _symmetry_equiv_pos_as_xyz
  1  'x, y, z'
loop_
 _atom_site_type_symbol
 _atom_site_label
 _atom_site_symmetry_multiplicity
 _atom_site_fract_x
 _atom_site_fract_y
 _atom_site_fract_z
 _atom_site_occupancy
  Cd  Cd0  1  0.00000000  0.00000000  0.00000000  1
  Sn  Sn0  1  0.65531500  0.66546400  0.62204400  1
  Sn  Sn1  1  0.34468500  0.33453600  0.37795600  1
  H  H0  1  0.63680800  0.89833300  0.19652400  1
  H  H1  1  0.27032500  0.89940800  0.29695200  1
  H  H2  1  0.09421400  0.78514700  0.38183400  1
  H  H3  1  0.73805900  0.73151400  0.05350300  1
  H  H4  1  0.13126400  0.70851000  0.73242000  1
  H  H5  1  0.26352200  0.61501600  0.91520200  1
  H  H6  1  0.73647800  0.38498400  0.08479800  1
  H  H7  1  0.86873600  0.29149000  0.26758000  1
  H  H8  1  0.26194100  0.26848600  0.94649700  1
  H  H9  1  0.90578600  0.21485300  0.61816600  1
  H  H10  1  0.72967500  0.10059200  0.70304800  1
  H  H11  1  0.36319200  0.10166700  0.80347600  1
  O  O0  1  0.18844000  0.81962900  0.26267800  1
  O  O1  1  0.77346500  0.80850400  0.13884000  1
  O  O2  1  0.22271300  0.73771600  0.81226000  1
  O  O3  1  0.77728700  0.26228400  0.18774000  1
  O  O4  1  0.22653500  0.19149600  0.86116000  1
  O  O5  1  0.81156000  0.18037100  0.73732200  1
  F  F0  1  0.57657700  0.97327800  0.67763700  1
  F  F1  1  0.97646300  0.68586700  0.58600700  1
  F  F2  1  0.68422900  0.59094000  0.92440900  1
  F  F3  1  0.31577100  0.40906000  0.07559100  1
  F  F4  1  0.02353700  0.31413300  0.41399300  1
  F  F5  1  0.42342300  0.02672200  0.32236300  1
loop_
_geom_bond_atom_site_label_1
_geom_bond_atom_site_label_2
_geom_bond_distance
_geom_bond_site_symmetry_2
Cd0 O4 2.314829 1_554
Cd0 O1 2.314829 1_445
Cd0 O0 2.340132 1_545
Cd0 O5 2.340132 1_454
Cd0 O3 2.411895 1_455
Cd0 O2 2.411895 1_544
H0 O1 0.991674 1_555
H1 O0 0.994919 1_555
H2 O0 0.992829 1_555
H3 O1 0.994805 1_555
H4 O2 0.999988 1_555
H5 O2 1.002143 1_555
H6 O3 1.002143 1_555
H7 O3 0.999988 1_555
H8 O4 0.994805 1_555
H9 O5 0.992829 1_555
H10 O5 0.994919 1_555
H11 O4 0.991674 1_555
F0 H11 1.625580 1_565
F0 H10 1.626662 1_565
F0 Sn0 2.152297 1_555
F1 H2 1.648495 1_655
F1 H4 1.660612 1_655
F1 Sn0 2.171809 1_555
F2 H6 1.622523 1_556
F2 H3 1.637104 1_556
F2 Sn0 2.120555 1_555
F3 H5 1.622523 1_554
F3 H8 1.637104 1_554
F3 Sn1 2.120555 1_555
F4 H9 1.648495 1_455
F4 H7 1.660612 1_455
F4 Sn1 2.171809 1_555
F5 H0 1.625580 1_545
F5 H1 1.626662 1_545
F5 Sn1 2.152297 1_555
