# generated using pymatgen
data_NaZnPO4
_symmetry_space_group_name_H-M   'P 1'
_cell_length_a   8.06322019
_cell_length_b   8.61145832
_cell_length_c   15.20521528
_cell_angle_alpha   90.22984307
_cell_angle_beta   90.00000000
_cell_angle_gamma   90.00000000
_symmetry_Int_Tables_number   1
_chemical_formula_structural   NaZnPO4
_chemical_formula_sum   'Na12 Zn12 P12 O48'
_cell_volume   1055.78211996
_cell_formula_units_Z   12
loop_
 _symmetry_equiv_pos_site_id
 _symmetry_equiv_pos_as_xyz
  1  'x, y, z'
loop_
 _atom_site_type_symbol
 _atom_site_label
 _atom_site_symmetry_multiplicity
 _atom_site_fract_x
 _atom_site_fract_y
 _atom_site_fract_z
 _atom_site_occupancy
  Na  Na0  1  0.03005697  0.77218044  0.56532637  1
  Na  Na1  1  0.53005697  0.72781956  0.93467363  1
  Na  Na2  1  0.96994303  0.22781956  0.43467363  1
  Na  Na3  1  0.46994303  0.27218044  0.06532637  1
  Na  Na4  1  0.96672705  0.76326735  0.90775183  1
  Na  Na5  1  0.46672705  0.73673265  0.59224817  1
  Na  Na6  1  0.03327295  0.23673265  0.09224817  1
  Na  Na7  1  0.53327295  0.26326735  0.40775183  1
  Na  Na8  1  0.96178873  0.24177280  0.74764363  1
  Na  Na9  1  0.46178873  0.25822720  0.75235637  1
  Na  Na10  1  0.03821127  0.75822720  0.25235637  1
  Na  Na11  1  0.53821127  0.74177280  0.24764363  1
  Zn  Zn0  1  0.27927136  0.58424293  0.76584025  1
  Zn  Zn1  1  0.77927136  0.91575707  0.73415975  1
  Zn  Zn2  1  0.72072864  0.41575707  0.23415975  1
  Zn  Zn3  1  0.22072864  0.08424293  0.26584025  1
  Zn  Zn4  1  0.78498554  0.38997470  0.92123058  1
  Zn  Zn5  1  0.28498554  0.11002530  0.57876942  1
  Zn  Zn6  1  0.21501446  0.61002530  0.07876942  1
  Zn  Zn7  1  0.71501446  0.88997470  0.42123058  1
  Zn  Zn8  1  0.28039280  0.06209691  0.90659133  1
  Zn  Zn9  1  0.78039280  0.43790309  0.59340867  1
  Zn  Zn10  1  0.71960720  0.93790309  0.09340867  1
  Zn  Zn11  1  0.21960720  0.56209691  0.40659133  1
  P  P0  1  0.67306577  0.57601778  0.76723646  1
  P  P1  1  0.17306577  0.92398222  0.73276354  1
  P  P2  1  0.32693423  0.42398222  0.23276354  1
  P  P3  1  0.82693423  0.07601778  0.26723646  1
  P  P4  1  0.17445276  0.39729487  0.92170483  1
  P  P5  1  0.67445276  0.10270513  0.57829517  1
  P  P6  1  0.82554724  0.60270513  0.07829517  1
  P  P7  1  0.32554724  0.89729487  0.42170483  1
  P  P8  1  0.67348521  0.05673041  0.90801561  1
  P  P9  1  0.17348521  0.44326959  0.59198439  1
  P  P10  1  0.32651479  0.94326959  0.09198439  1
  P  P11  1  0.82651479  0.55673041  0.40801561  1
  O  O0  1  0.14952146  0.92416445  0.83297989  1
  O  O1  1  0.64952146  0.57583555  0.66702011  1
  O  O2  1  0.85047854  0.07583555  0.16702011  1
  O  O3  1  0.35047854  0.42416445  0.33297989  1
  O  O4  1  0.26187640  0.77578000  0.70149685  1
  O  O5  1  0.76187640  0.72422000  0.79850315  1
  O  O6  1  0.73812360  0.22422000  0.29850315  1
  O  O7  1  0.23812360  0.27578000  0.20149685  1
  O  O8  1  0.27302339  0.06745726  0.70458899  1
  O  O9  1  0.77302339  0.43254274  0.79541101  1
  O  O10  1  0.72697661  0.93254274  0.29541101  1
  O  O11  1  0.22697661  0.56745726  0.20458899  1
  O  O12  1  0.00347700  0.93271659  0.68691478  1
  O  O13  1  0.50347700  0.56728341  0.81308522  1
  O  O14  1  0.99652300  0.06728341  0.31308522  1
  O  O15  1  0.49652300  0.43271659  0.18691478  1
  O  O16  1  0.26870718  0.27706446  0.86585217  1
  O  O17  1  0.76870718  0.22293554  0.63414783  1
  O  O18  1  0.73129282  0.72293554  0.13414783  1
  O  O19  1  0.23129282  0.77706446  0.36585217  1
  O  O20  1  0.27089791  0.41866427  0.67752592  1
  O  O21  1  0.27519016  0.43418079  0.00535526  1
  O  O22  1  0.72480984  0.56581921  0.99464474  1
  O  O23  1  0.22480984  0.93418079  0.50535526  1
  O  O24  1  0.14409214  0.54552583  0.86796648  1
  O  O25  1  0.64409214  0.95447417  0.63203352  1
  O  O26  1  0.85590786  0.45447417  0.13203352  1
  O  O27  1  0.35590786  0.04552583  0.36796648  1
  O  O28  1  0.00823606  0.32585802  0.94919267  1
  O  O29  1  0.50823606  0.17414198  0.55080733  1
  O  O30  1  0.99176394  0.67414198  0.05080733  1
  O  O31  1  0.49176394  0.82585802  0.44919267  1
  O  O32  1  0.14926097  0.28601052  0.54565235  1
  O  O33  1  0.64926097  0.21398948  0.95434765  1
  O  O34  1  0.85073903  0.71398948  0.45434765  1
  O  O35  1  0.35073903  0.78601052  0.04565235  1
  O  O36  1  0.50393056  0.98553603  0.88578450  1
  O  O37  1  0.00393056  0.51446397  0.61421550  1
  O  O38  1  0.49606944  0.01446397  0.11421550  1
  O  O39  1  0.99606944  0.48553603  0.38578450  1
  O  O40  1  0.23279684  0.05750955  0.03184021  1
  O  O41  1  0.73279684  0.44249045  0.46815979  1
  O  O42  1  0.76720316  0.94249045  0.96815979  1
  O  O43  1  0.26720316  0.55750955  0.53184021  1
  O  O44  1  0.22910309  0.91866427  0.17752592  1
  O  O45  1  0.72910209  0.58133573  0.32247408  1
  O  O46  1  0.77089791  0.08133573  0.82247408  1
  O  O47  1  0.77519016  0.06581921  0.49464474  1
loop_
_geom_bond_atom_site_label_1
_geom_bond_atom_site_label_2
_geom_bond_distance
_geom_bond_site_symmetry_2
Na0 O34 2.276489 1_455
Na0 O23 2.292131 1_555
Na0 O12 2.313996 1_555
Na0 O37 2.352779 1_555
Na0 O43 2.706564 1_555
Na0 O4 2.789511 1_555
Na1 O35 2.276489 1_556
Na1 O22 2.292131 1_555
Na1 O13 2.313996 1_555
Na1 O36 2.352779 1_555
Na1 O42 2.706564 1_555
Na1 O5 2.789511 1_555
Na2 O32 2.276489 1_655
Na2 O47 2.292131 1_555
Na2 O14 2.313996 1_555
Na2 O39 2.352779 1_555
Na2 O41 2.706564 1_555
Na2 O6 2.789511 1_555
Na3 O33 2.276489 1_554
Na3 O21 2.292131 1_555
Na3 O15 2.313996 1_555
Na3 O38 2.352779 1_555
Na3 O40 2.706564 1_555
Na3 O7 2.789511 1_555
Na4 O30 2.318330 1_556
Na4 O0 2.323235 1_655
Na4 O5 2.365650 1_555
Na4 O42 2.408848 1_555
Na4 O24 2.432701 1_655
Na5 O31 2.318330 1_555
Na5 O1 2.323235 1_555
Na5 O4 2.365650 1_555
Na5 O43 2.408848 1_555
Na5 O25 2.432701 1_555
Na6 O28 2.318330 1_554
Na6 O2 2.323235 1_455
Na6 O7 2.365650 1_555
Na6 O40 2.408848 1_555
Na6 O26 2.432701 1_455
Na7 O29 2.318330 1_555
Na7 O3 2.323235 1_555
Na7 O6 2.365650 1_555
Na7 O41 2.408848 1_555
Na7 O27 2.432701 1_555
Na8 O17 2.329381 1_555
Na8 O9 2.352324 1_555
Na8 O46 2.363295 1_555
Na9 O16 2.329381 1_555
Na9 O8 2.352324 1_555
Na9 O20 2.363295 1_555
Na10 O19 2.329381 1_555
Na10 O11 2.352324 1_555
Na10 O44 2.363300 1_555
Na11 O18 2.329381 1_555
Na11 O10 2.352324 1_555
Na11 O45 2.363295 1_555
O0 P1 1.535586 1_555
O0 Zn8 1.940754 1_565
O1 P0 1.535586 1_555
O1 Zn9 1.940754 1_555
O2 P3 1.535586 1_555
O2 Zn10 1.940754 1_545
O3 P2 1.535586 1_555
O3 Zn11 1.940754 1_555
O4 P1 1.537119 1_555
O4 Zn0 1.926230 1_555
O5 P0 1.537119 1_555
O5 Zn1 1.926230 1_555
O6 P3 1.537119 1_555
O6 Zn2 1.926230 1_555
O7 P2 1.537119 1_555
O7 Zn3 1.926230 1_555
O8 P1 1.537501 1_545
O8 Zn5 1.951745 1_555
O9 P0 1.537501 1_555
O9 Zn4 1.951745 1_555
O10 P3 1.537501 1_565
O10 Zn7 1.951745 1_555
O11 P2 1.537501 1_555
O11 Zn6 1.951745 1_555
O12 P1 1.536864 1_555
O12 Zn1 1.951009 1_455
O13 P0 1.536864 1_555
O13 Zn0 1.951009 1_555
O14 P3 1.536864 1_555
O14 Zn3 1.951009 1_655
O15 P2 1.536864 1_555
O15 Zn2 1.951009 1_555
O16 P4 1.537444 1_555
O16 Zn8 1.956700 1_555
O17 P5 1.537444 1_555
O17 Zn9 1.956700 1_555
O18 P6 1.537444 1_555
O18 Zn10 1.956700 1_555
O19 P7 1.537444 1_555
O19 Zn11 1.956700 1_555
O20 P9 1.534867 1_555
O20 Zn0 1.955896 1_555
O21 P4 1.541175 1_554
O21 Zn6 1.939325 1_555
O22 P6 1.541175 1_556
O22 Zn4 1.939325 1_555
O23 P7 1.541175 1_555
O23 Zn5 1.939325 1_565
O24 P4 1.537975 1_555
O24 Zn0 1.927361 1_555
O25 P5 1.537975 1_565
O25 Zn1 1.927361 1_555
O26 P6 1.537975 1_555
O26 Zn2 1.927361 1_555
O27 P7 1.537975 1_545
O27 Zn3 1.927361 1_555
O28 P4 1.533441 1_555
O28 Zn4 1.930786 1_455
O29 P5 1.533441 1_555
O29 Zn5 1.930786 1_555
O30 P6 1.533441 1_555
O30 Zn6 1.930786 1_655
O31 P7 1.533441 1_555
O31 Zn7 1.930786 1_555
O32 P9 1.536470 1_555
O32 Zn5 1.937539 1_555
O33 P8 1.536470 1_555
O33 Zn4 1.937539 1_555
O34 P11 1.536470 1_555
O34 Zn7 1.937539 1_555
O35 P10 1.536470 1_555
O35 Zn6 1.937539 1_555
O36 P8 1.535446 1_565
O36 Zn8 1.944702 1_565
O37 P9 1.535446 1_555
O37 Zn9 1.944702 1_455
O38 P10 1.535446 1_545
O38 Zn10 1.944702 1_545
O39 P11 1.535446 1_555
O39 Zn11 1.944702 1_655
O40 P10 1.543496 1_545
O40 Zn8 1.943277 1_554
O41 P11 1.543496 1_555
O41 Zn9 1.943277 1_555
O42 P8 1.543496 1_565
O42 Zn10 1.943277 1_556
O43 P9 1.543496 1_555
O43 Zn11 1.943277 1_555
O44 P10 1.534863 1_555
O44 Zn3 1.955896 1_565
O45 P11 1.534867 1_555
O45 Zn2 1.955896 1_555
O46 P8 1.534867 1_555
O46 Zn1 1.955896 1_545
O47 P5 1.541175 1_555
O47 Zn7 1.939325 1_545
