# generated using pymatgen
data_Li4TiNi3O8
_symmetry_space_group_name_H-M   'P 1'
_cell_length_a   5.84046744
_cell_length_b   10.19687174
_cell_length_c   5.94194753
_cell_angle_alpha   106.96566848
_cell_angle_beta   119.92010502
_cell_angle_gamma   90.64662076
_symmetry_Int_Tables_number   1
_chemical_formula_structural   Li4TiNi3O8
_chemical_formula_sum   'Li8 Ti2 Ni6 O16'
_cell_volume   288.06117643
_cell_formula_units_Z   2
loop_
 _symmetry_equiv_pos_site_id
 _symmetry_equiv_pos_as_xyz
  1  'x, y, z'
loop_
 _atom_site_type_symbol
 _atom_site_label
 _atom_site_symmetry_multiplicity
 _atom_site_fract_x
 _atom_site_fract_y
 _atom_site_fract_z
 _atom_site_occupancy
  Li  Li0  1  0.24993600  0.75001200  0.50004300  1
  Li  Li1  1  0.75000300  0.24996200  0.49998000  1
  Li  Li2  1  0.99574900  0.99595600  0.49337200  1
  Li  Li3  1  0.50416100  0.50397800  0.50658100  1
  Li  Li4  1  0.49838400  0.99985900  0.49696800  1
  Li  Li5  1  0.00151100  0.50008600  0.50294200  1
  Li  Li6  1  0.75000600  0.75000100  0.50001000  1
  Li  Li7  1  0.24994300  0.24994800  0.49994400  1
  Ti  Ti0  1  0.49346300  0.50427600  0.01256900  1
  Ti  Ti1  1  0.00643600  0.99572100  0.98724700  1
  Ni  Ni0  1  0.25007800  0.75006700  0.00012500  1
  Ni  Ni1  1  0.74987900  0.74996100  0.99983700  1
  Ni  Ni2  1  0.24998700  0.25003900  0.00002800  1
  Ni  Ni3  1  0.75011900  0.25003600  0.00006900  1
  Ni  Ni4  1  0.99591100  0.49946500  0.00165000  1
  Ni  Ni5  1  0.50429400  0.00056600  0.99860100  1
  O  O0  1  0.87432000  0.63092900  0.78442100  1
  O  O1  1  0.39277300  0.13773900  0.78758900  1
  O  O2  1  0.10716400  0.36222200  0.21228700  1
  O  O3  1  0.62580700  0.86902300  0.21541900  1
  O  O4  1  0.64025400  0.88570400  0.75577200  1
  O  O5  1  0.13739400  0.38545100  0.76129600  1
  O  O6  1  0.36268400  0.11455700  0.23876500  1
  O  O7  1  0.85959500  0.61432700  0.24418400  1
  O  O8  1  0.86958700  0.12907500  0.21638200  1
  O  O9  1  0.37514300  0.61896100  0.23902700  1
  O  O10  1  0.12472300  0.88107700  0.76101000  1
  O  O11  1  0.63063100  0.37098300  0.78383500  1
  O  O12  1  0.40081500  0.62291700  0.77537400  1
  O  O13  1  0.90559900  0.12605300  0.76802600  1
  O  O14  1  0.59451300  0.37396700  0.23205400  1
  O  O15  1  0.09914000  0.87708200  0.22459000  1
loop_
_geom_bond_atom_site_label_1
_geom_bond_atom_site_label_2
_geom_bond_distance
_geom_bond_site_symmetry_2
Li0 O4 2.160178 1_555
Li0 O7 2.160234 1_455
Li0 O10 2.160860 1_555
Li0 O9 2.160982 1_555
Li0 O12 2.226550 1_555
Li0 O15 2.226841 1_555
Li1 O6 2.146828 1_555
Li1 O5 2.147483 1_655
Li1 O13 2.171499 1_555
Li1 O14 2.171751 1_555
Li1 O8 2.197315 1_555
Li1 O11 2.198069 1_555
Li2 O3 2.049591 1_555
Li2 O15 2.057530 1_655
Li2 O13 2.076028 1_565
Li2 O10 2.093011 1_655
Li2 O1 2.220050 1_665
Li2 O8 2.282738 1_565
Li3 O0 2.050415 1_555
Li3 O12 2.057641 1_555
Li3 O14 2.075889 1_555
Li3 O9 2.093470 1_555
Li3 O2 2.219871 1_555
Li3 O11 2.282812 1_555
Li4 O4 2.049791 1_555
Li4 O6 2.050601 1_565
Li4 O15 2.147273 1_555
Li4 O13 2.192356 1_565
Li4 O1 2.237059 1_565
Li4 O3 2.257071 1_555
Li5 O7 2.050300 1_455
Li5 O5 2.050760 1_555
Li5 O12 2.147726 1_555
Li5 O14 2.191156 1_455
Li5 O2 2.237303 1_555
Li5 O0 2.255836 1_455
Li6 O10 2.078363 1_655
Li6 O9 2.078783 1_555
Li6 O7 2.097045 1_555
Li6 O4 2.097561 1_555
Li6 O0 2.202414 1_555
Li6 O3 2.202866 1_555
Li7 O8 2.070084 1_455
Li7 O11 2.072141 1_555
Li7 O6 2.130144 1_555
Li7 O5 2.130597 1_555
Li7 O1 2.160275 1_555
Li7 O2 2.160836 1_555
Ni0 O3 2.038930 1_555
Ni0 O0 2.039599 1_454
Ni0 O15 2.103343 1_555
Ni0 O12 2.104199 1_554
Ni0 O9 2.105004 1_555
Ni0 O10 2.105086 1_554
Ni1 O3 1.917864 1_556
Ni1 O0 1.918615 1_555
Ni1 O12 1.957772 1_555
Ni1 O15 1.958871 1_656
Ni1 O4 2.166600 1_555
Ni1 O7 2.166840 1_556
Ni2 O13 1.924534 1_454
Ni2 O14 1.924826 1_555
Ni2 O2 1.955540 1_555
Ni2 O1 1.956590 1_554
Ni2 O5 2.141080 1_554
Ni2 O6 2.141692 1_555
Ni3 O11 1.925756 1_554
Ni3 O8 1.926188 1_555
Ni3 O2 1.930891 1_655
Ni3 O1 1.932555 1_554
Ni3 O13 2.140469 1_554
Ni3 O14 2.140571 1_555
Ni4 O0 2.020951 1_554
Ni4 O11 2.033660 1_554
Ni4 O2 2.044158 1_655
Ni4 O9 2.049264 1_655
Ni4 O7 2.064717 1_555
Ni4 O5 2.074626 1_654
Ni5 O3 2.020017 1_546
Ni5 O8 2.033853 1_556
Ni5 O1 2.045028 1_555
Ni5 O10 2.050653 1_545
Ni5 O4 2.064449 1_545
Ni5 O6 2.074279 1_556
O4 Ti1 1.958342 1_655
O5 Ti0 1.952426 1_556
O6 Ti1 1.953253 1_544
O7 Ti0 1.958243 1_555
O8 Ti1 2.090744 1_644
O9 Ti0 1.919185 1_555
O10 Ti1 1.917953 1_555
O11 Ti0 2.090234 1_556
O12 Ti0 1.997945 1_556
O13 Ti1 2.018031 1_645
O14 Ti0 2.018889 1_555
O15 Ti1 1.998561 1_554
