# generated using pymatgen
data_SrCrHO2
_symmetry_space_group_name_H-M   'P 1'
_cell_length_a   5.39329906
_cell_length_b   5.39329906
_cell_length_c   5.39330709
_cell_angle_alpha   63.45372175
_cell_angle_beta   116.54627825
_cell_angle_gamma   83.90607222
_symmetry_Int_Tables_number   1
_chemical_formula_structural   SrCrHO2
_chemical_formula_sum   'Sr2 Cr2 H2 O4'
_cell_volume   116.01039744
_cell_formula_units_Z   2
loop_
 _symmetry_equiv_pos_site_id
 _symmetry_equiv_pos_as_xyz
  1  'x, y, z'
loop_
 _atom_site_type_symbol
 _atom_site_label
 _atom_site_symmetry_multiplicity
 _atom_site_fract_x
 _atom_site_fract_y
 _atom_site_fract_z
 _atom_site_occupancy
  Sr  Sr0  1  0.74999800  0.75000000  0.50000000  1
  Sr  Sr1  1  0.24999800  0.25000100  0.49999900  1
  Cr  Cr0  1  0.50001300  0.49999300  0.00001600  1
  Cr  Cr1  1  0.99999800  0.00000200  0.99998500  1
  H  H0  1  0.24999300  0.75000500  0.00000000  1
  H  H1  1  0.75000300  0.24999600  0.99999900  1
  O  O0  1  0.24999800  0.75000000  0.49999600  1
  O  O1  1  0.75000000  0.25000000  0.50000300  1
  O  O2  1  0.24999800  0.25000200  0.00000000  1
  O  O3  1  0.75000000  0.75000100  0.00000200  1
loop_
_geom_bond_atom_site_label_1
_geom_bond_atom_site_label_2
_geom_bond_distance
_geom_bond_site_symmetry_2
Cr0 H1 1.802782 1_554
Cr0 H0 1.802825 1_555
Cr0 O1 2.005431 1_555
Cr0 O3 2.005459 1_555
Cr0 O2 2.005504 1_555
Cr0 O0 2.005563 1_554
Cr1 H0 1.802685 1_646
Cr1 H1 1.802778 1_555
Cr1 O1 2.005411 1_555
Cr1 O3 2.005475 1_546
Cr1 O2 2.005480 1_656
Cr1 O0 2.005527 1_646
H0 Sr1 2.836173 1_555
H0 Sr0 2.836179 1_555
H0 Sr0 2.836179 1_454
H0 Sr1 2.836184 1_564
H1 Sr0 2.836173 1_555
H1 Sr1 2.836179 1_555
H1 Sr1 2.836179 1_656
H1 Sr0 2.836184 1_546
O0 Sr1 2.696637 1_555
O0 Sr0 2.696640 1_555
O0 Sr0 2.696659 1_455
O0 Sr1 2.696662 1_565
O1 Sr0 2.696641 1_555
O1 Sr1 2.696649 1_655
O1 Sr1 2.696650 1_555
O1 Sr0 2.696658 1_545
O2 Sr1 2.696646 1_555
O2 Sr0 2.696646 1_454
O2 Sr0 2.696656 1_545
O2 Sr1 2.696661 1_554
O3 Sr1 2.696644 1_655
O3 Sr0 2.696645 1_555
O3 Sr1 2.696657 1_564
O3 Sr0 2.696662 1_554
