# generated using pymatgen
data_TeW2SeS2
_symmetry_space_group_name_H-M   'P 1'
_cell_length_a   3.30645833
_cell_length_b   3.30645833
_cell_length_c   39.07754000
_cell_angle_alpha   90.00000000
_cell_angle_beta   90.00000000
_cell_angle_gamma   120.00000651
_symmetry_Int_Tables_number   1
_chemical_formula_structural   TeW2SeS2
_chemical_formula_sum   'Te2 W4 Se2 S4'
_cell_volume   369.98483706
_cell_formula_units_Z   2
loop_
 _symmetry_equiv_pos_site_id
 _symmetry_equiv_pos_as_xyz
  1  'x, y, z'
loop_
 _atom_site_type_symbol
 _atom_site_label
 _atom_site_symmetry_multiplicity
 _atom_site_fract_x
 _atom_site_fract_y
 _atom_site_fract_z
 _atom_site_occupancy
  Te  Te0  1  0.66666700  0.33333300  0.41965300  1
  Te  Te1  1  0.66666700  0.33333300  0.51808000  1
  W  W0  1  0.33333300  0.66666700  0.09391700  1
  W  W1  1  0.33333300  0.66666700  0.46886400  1
  W  W2  1  0.66666700  0.33333300  0.28112600  1
  W  W3  1  0.66666700  0.33333300  0.65900900  1
  Se  Se0  1  0.33333300  0.66666700  0.70219600  1
  Se  Se1  1  0.33333300  0.66666700  0.61579100  1
  S  S0  1  0.33333300  0.66666700  0.32037300  1
  S  S1  1  0.66666700  0.33333300  0.05469500  1
  S  S2  1  0.66666700  0.33333300  0.13314300  1
  S  S3  1  0.33333300  0.66666700  0.24190200  1
loop_
_geom_bond_atom_site_label_1
_geom_bond_atom_site_label_2
_geom_bond_distance
_geom_bond_site_symmetry_2
Te0 W1 2.709671 1_655
Te0 W1 2.709671 1_545
Te0 W1 2.709675 1_555
Te1 W1 2.709809 1_655
Te1 W1 2.709809 1_545
Te1 W1 2.709814 1_555
Se0 W3 2.548009 1_455
Se0 W3 2.548009 1_565
Se0 W3 2.548013 1_555
Se1 W3 2.548811 1_455
Se1 W3 2.548811 1_565
Se1 W3 2.548816 1_555
S0 W2 2.448750 1_455
S0 W2 2.448750 1_565
S0 W2 2.448755 1_555
S1 W0 2.448138 1_655
S1 W0 2.448138 1_545
S1 W0 2.448143 1_555
S2 W0 2.448236 1_545
S2 W0 2.448236 1_655
S2 W0 2.448241 1_555
S3 W2 2.448187 1_455
S3 W2 2.448187 1_565
S3 W2 2.448192 1_555
