# generated using pymatgen
data_Ba3Au2
_symmetry_space_group_name_H-M   'P 1'
_cell_length_a   8.77634716
_cell_length_b   8.77634771
_cell_length_c   8.77634763
_cell_angle_alpha   70.40301456
_cell_angle_beta   70.40301414
_cell_angle_gamma   70.40300365
_symmetry_Int_Tables_number   1
_chemical_formula_structural   Ba3Au2
_chemical_formula_sum   'Ba9 Au6'
_cell_volume   580.71519429
_cell_formula_units_Z   3
loop_
 _symmetry_equiv_pos_site_id
 _symmetry_equiv_pos_as_xyz
  1  'x, y, z'
loop_
 _atom_site_type_symbol
 _atom_site_label
 _atom_site_symmetry_multiplicity
 _atom_site_fract_x
 _atom_site_fract_y
 _atom_site_fract_z
 _atom_site_occupancy
  Ba  Ba0  1  -0.00000000  -0.00000000  0.00000000  1
  Ba  Ba1  1  0.80319419  0.80319419  0.80319419  1
  Ba  Ba2  1  0.19680581  0.19680581  0.19680581  1
  Ba  Ba3  1  0.59661439  0.32727570  0.85137699  1
  Ba  Ba4  1  0.32727570  0.85137699  0.59661439  1
  Ba  Ba5  1  0.85137699  0.59661439  0.32727570  1
  Ba  Ba6  1  0.40338561  0.67272430  0.14862301  1
  Ba  Ba7  1  0.67272430  0.14862301  0.40338561  1
  Ba  Ba8  1  0.14862301  0.40338561  0.67272430  1
  Au  Au0  1  0.95308524  0.16956018  0.59305393  1
  Au  Au1  1  0.16956018  0.59305393  0.95308524  1
  Au  Au2  1  0.59305393  0.95308524  0.16956018  1
  Au  Au3  1  0.04691476  0.83043982  0.40694607  1
  Au  Au4  1  0.83043982  0.40694607  0.04691476  1
  Au  Au5  1  0.40694607  0.04691476  0.83043982  1
loop_
_geom_bond_atom_site_label_1
_geom_bond_atom_site_label_2
_geom_bond_distance
_geom_bond_site_symmetry_2
Ba0 Ba1 3.867008 1_444
Ba0 Ba2 3.867008 1_555
Ba0 Ba3 4.030891 1_454
Ba0 Ba6 4.030891 1_545
Ba0 Ba4 4.030892 1_544
Ba0 Ba7 4.030892 1_455
Ba0 Ba5 4.030892 1_445
Ba0 Ba8 4.030892 1_554
Ba1 Ba8 4.005592 1_655
Ba1 Ba7 4.005593 1_565
Ba1 Ba6 4.005593 1_556
Ba2 Ba5 4.005592 1_455
Ba2 Ba4 4.005593 1_545
Ba2 Ba3 4.005593 1_554
Au0 Ba3 3.359427 1_555
Au0 Ba2 3.394358 1_655
Au0 Ba8 3.431469 1_655
Au0 Ba7 3.480644 1_555
Au0 Ba0 3.485666 1_656
Au0 Ba4 3.527380 1_645
Au0 Ba1 3.564044 1_545
Au0 Ba5 3.684156 1_555
Au1 Ba4 3.359428 1_555
Au1 Ba2 3.394358 1_556
Au1 Ba6 3.431468 1_556
Au1 Ba8 3.480644 1_555
Au1 Ba0 3.485665 1_566
Au1 Ba5 3.527380 1_456
Au1 Ba1 3.564044 1_455
Au1 Ba3 3.684156 1_555
Au2 Ba5 3.359427 1_555
Au2 Ba2 3.394357 1_565
Au2 Ba7 3.431469 1_565
Au2 Ba6 3.480644 1_555
Au2 Ba0 3.485665 1_665
Au2 Ba3 3.527380 1_564
Au2 Ba1 3.564044 1_554
Au2 Ba4 3.684156 1_555
Au3 Ba6 3.359427 1_555
Au3 Ba1 3.394358 1_455
Au3 Ba5 3.431469 1_455
Au3 Ba4 3.480644 1_555
Au3 Ba0 3.485666 1_565
Au3 Ba7 3.527380 1_465
Au3 Ba2 3.564044 1_565
Au3 Ba8 3.684156 1_555
Au4 Ba7 3.359428 1_555
Au4 Ba1 3.394358 1_554
Au4 Ba3 3.431468 1_554
Au4 Ba5 3.480644 1_555
Au4 Ba0 3.485665 1_655
Au4 Ba8 3.527380 1_654
Au4 Ba2 3.564044 1_655
Au4 Ba6 3.684156 1_555
Au5 Ba8 3.359427 1_555
Au5 Ba1 3.394357 1_545
Au5 Ba4 3.431469 1_545
Au5 Ba3 3.480644 1_555
Au5 Ba0 3.485665 1_556
Au5 Ba6 3.527380 1_546
Au5 Ba2 3.564044 1_556
Au5 Ba7 3.684156 1_555
