# generated using pymatgen
data_Ca2Al3H3O8
_symmetry_space_group_name_H-M   'P 1'
_cell_length_a   7.85472382
_cell_length_b   7.85472382
_cell_length_c   12.55094300
_cell_angle_alpha   90.00000000
_cell_angle_beta   90.00000000
_cell_angle_gamma   110.76314503
_symmetry_Int_Tables_number   1
_chemical_formula_structural   Ca2Al3H3O8
_chemical_formula_sum   'Ca8 Al12 H12 O32'
_cell_volume   724.06047910
_cell_formula_units_Z   4
loop_
 _symmetry_equiv_pos_site_id
 _symmetry_equiv_pos_as_xyz
  1  'x, y, z'
loop_
 _atom_site_type_symbol
 _atom_site_label
 _atom_site_symmetry_multiplicity
 _atom_site_fract_x
 _atom_site_fract_y
 _atom_site_fract_z
 _atom_site_occupancy
  Ca  Ca0  1  0.64170200  0.35829800  0.50000000  1
  Ca  Ca1  1  0.14170200  0.85829800  0.00000000  1
  Ca  Ca2  1  0.35829800  0.64170200  0.50000000  1
  Ca  Ca3  1  0.85829800  0.14170200  0.00000000  1
  Ca  Ca4  1  0.28803600  0.28803600  0.84942400  1
  Ca  Ca5  1  0.71196400  0.71196400  0.15057600  1
  Ca  Ca6  1  0.21196400  0.21196400  0.34942400  1
  Ca  Ca7  1  0.78803600  0.78803600  0.65057600  1
  Al  Al0  1  0.25953900  0.01410500  0.62905100  1
  Al  Al1  1  0.98589500  0.74046100  0.37094900  1
  Al  Al2  1  0.48589500  0.24046100  0.12905100  1
  Al  Al3  1  0.75953900  0.51410500  0.87094900  1
  Al  Al4  1  0.74046100  0.98589500  0.37094900  1
  Al  Al5  1  0.01410500  0.25953900  0.62905100  1
  Al  Al6  1  0.51410500  0.75953900  0.87094900  1
  Al  Al7  1  0.24046100  0.48589500  0.12905100  1
  Al  Al8  1  0.63905000  0.13905000  0.75000000  1
  Al  Al9  1  0.86095000  0.36095000  0.25000000  1
  Al  Al10  1  0.36095000  0.86095000  0.25000000  1
  Al  Al11  1  0.13905000  0.63905000  0.75000000  1
  H  H0  1  0.51463500  0.16829300  0.95160800  1
  H  H1  1  0.83170700  0.48536500  0.04839200  1
  H  H2  1  0.33170700  0.98536500  0.45160800  1
  H  H3  1  0.01463500  0.66829300  0.54839200  1
  H  H4  1  0.48536500  0.83170700  0.04839200  1
  H  H5  1  0.16829300  0.51463500  0.95160800  1
  H  H6  1  0.66829300  0.01463500  0.54839200  1
  H  H7  1  0.98536500  0.33170700  0.45160800  1
  H  H8  1  0.48284300  0.48284300  0.67838500  1
  H  H9  1  0.51715700  0.51715700  0.32161500  1
  H  H10  1  0.01715700  0.01715700  0.17838500  1
  H  H11  1  0.98284300  0.98284300  0.82161500  1
  O  O0  1  0.71620100  0.27517600  0.86695300  1
  O  O1  1  0.72482400  0.28379900  0.13304700  1
  O  O2  1  0.22482400  0.78379900  0.36695300  1
  O  O3  1  0.21620100  0.77517600  0.63304700  1
  O  O4  1  0.28379900  0.72482400  0.13304700  1
  O  O5  1  0.27517600  0.71620100  0.86695300  1
  O  O6  1  0.77517600  0.21620100  0.63304700  1
  O  O7  1  0.78379900  0.22482400  0.36695300  1
  O  O8  1  0.41780100  0.14131300  0.72441500  1
  O  O9  1  0.85868700  0.58219900  0.27558500  1
  O  O10  1  0.35868700  0.08219900  0.22441500  1
  O  O11  1  0.91780100  0.64131300  0.77558500  1
  O  O12  1  0.58219900  0.85868700  0.27558500  1
  O  O13  1  0.14131300  0.41780100  0.72441500  1
  O  O14  1  0.64131300  0.91780100  0.77558500  1
  O  O15  1  0.08219900  0.35868700  0.22441500  1
  O  O16  1  0.35383000  0.09328400  0.49817000  1
  O  O17  1  0.90671600  0.64617000  0.50183000  1
  O  O18  1  0.40671600  0.14617000  0.99817000  1
  O  O19  1  0.85383000  0.59328400  0.00183000  1
  O  O20  1  0.64617000  0.90671600  0.50183000  1
  O  O21  1  0.09328400  0.35383000  0.49817000  1
  O  O22  1  0.59328400  0.85383000  0.00183000  1
  O  O23  1  0.14617000  0.40671600  0.99817000  1
  O  O24  1  0.05233800  0.05233800  0.64404600  1
  O  O25  1  0.94766200  0.94766200  0.35595400  1
  O  O26  1  0.44766200  0.44766200  0.14404600  1
  O  O27  1  0.55233800  0.55233800  0.85595400  1
  O  O28  1  0.03555100  0.03555100  0.88975100  1
  O  O29  1  0.96444900  0.96444900  0.11024900  1
  O  O30  1  0.46444900  0.46444900  0.38975100  1
  O  O31  1  0.53555100  0.53555100  0.61024900  1
loop_
_geom_bond_atom_site_label_1
_geom_bond_atom_site_label_2
_geom_bond_distance
_geom_bond_site_symmetry_2
Ca0 O30 2.317627 1_555
Ca0 O31 2.317627 1_555
Ca0 O6 2.441926 1_555
Ca0 O7 2.441926 1_555
Ca0 O17 2.471690 1_555
Ca0 O16 2.471690 1_555
Ca1 O29 2.317627 1_455
Ca1 O28 2.317627 1_564
Ca1 O4 2.441926 1_555
Ca1 O5 2.441926 1_554
Ca1 O18 2.471690 1_564
Ca1 O19 2.471690 1_455
Ca2 O30 2.317627 1_555
Ca2 O31 2.317627 1_555
Ca2 O3 2.441926 1_555
Ca2 O2 2.441926 1_555
Ca2 O21 2.471690 1_555
Ca2 O20 2.471690 1_555
Ca3 O28 2.317627 1_654
Ca3 O29 2.317627 1_545
Ca3 O1 2.441926 1_555
Ca3 O0 2.441926 1_554
Ca3 O22 2.471690 1_545
Ca3 O23 2.471690 1_654
Ca4 O28 2.309490 1_555
Ca4 O27 2.360232 1_555
Ca4 O8 2.379422 1_555
Ca4 O13 2.379422 1_555
Ca4 O23 2.516450 1_555
Ca4 O18 2.516450 1_555
Ca5 O29 2.309490 1_555
Ca5 O26 2.360232 1_555
Ca5 O12 2.379422 1_555
Ca5 O9 2.379422 1_555
Ca5 O22 2.516450 1_555
Ca5 O19 2.516450 1_555
Ca6 O30 2.309490 1_555
Ca6 O25 2.360232 1_445
Ca6 O15 2.379422 1_555
Ca6 O10 2.379422 1_555
Ca6 O21 2.516450 1_555
Ca6 O16 2.516450 1_555
Ca7 O31 2.309490 1_555
Ca7 O24 2.360232 1_665
Ca7 O14 2.379422 1_555
Ca7 O11 2.379422 1_555
Ca7 O17 2.516450 1_555
Ca7 O20 2.516450 1_555
Al0 O8 1.759435 1_555
Al0 O24 1.766612 1_555
Al0 O3 1.785364 1_545
Al0 O16 1.818555 1_555
Al1 O9 1.759435 1_555
Al1 O25 1.766612 1_555
Al1 O2 1.785364 1_655
Al1 O17 1.818555 1_555
Al2 O10 1.759435 1_555
Al2 O26 1.766612 1_555
Al2 O1 1.785364 1_555
Al2 O18 1.818555 1_554
Al3 O11 1.759435 1_555
Al3 O27 1.766612 1_555
Al3 O0 1.785364 1_555
Al3 O19 1.818555 1_556
Al4 O12 1.759435 1_555
Al4 O25 1.766612 1_555
Al4 O7 1.785364 1_565
Al4 O20 1.818555 1_555
Al5 O13 1.759435 1_555
Al5 O24 1.766612 1_555
Al5 O6 1.785364 1_455
Al5 O21 1.818555 1_555
Al6 O14 1.759435 1_555
Al6 O27 1.766612 1_555
Al6 O5 1.785364 1_555
Al6 O22 1.818555 1_556
Al7 O15 1.759435 1_555
Al7 O26 1.766612 1_555
Al7 O4 1.785364 1_555
Al7 O23 1.818555 1_554
Al8 O8 1.773543 1_555
Al8 O14 1.773543 1_545
Al8 O6 1.790455 1_555
Al8 O0 1.790455 1_555
Al9 O15 1.773543 1_655
Al9 O9 1.773543 1_555
Al9 O7 1.790455 1_555
Al9 O1 1.790455 1_555
Al10 O10 1.773543 1_565
Al10 O12 1.773543 1_555
Al10 O2 1.790455 1_555
Al10 O4 1.790455 1_555
Al11 O13 1.773543 1_555
Al11 O11 1.773543 1_455
Al11 O5 1.790455 1_555
Al11 O3 1.790455 1_555
H0 O18 0.992889 1_555
H1 O19 0.992889 1_555
H2 O16 0.992889 1_565
H3 O17 0.992889 1_455
H4 O22 0.992889 1_555
H5 O23 0.992889 1_555
H6 O20 0.992889 1_545
H7 O21 0.992889 1_655
H8 O31 0.976010 1_555
H9 O30 0.976010 1_555
H10 O29 0.976010 1_445
H11 O28 0.976010 1_665
