# generated using pymatgen
data_Li(TmGe2)2
_symmetry_space_group_name_H-M   'P 1'
_cell_length_a   3.98650800
_cell_length_b   4.04886806
_cell_length_c   8.64518379
_cell_angle_alpha   103.37661039
_cell_angle_beta   90.00000000
_cell_angle_gamma   90.00000000
_symmetry_Int_Tables_number   1
_chemical_formula_structural   Li(TmGe2)2
_chemical_formula_sum   'Li1 Tm2 Ge4'
_cell_volume   135.75489122
_cell_formula_units_Z   1
loop_
 _symmetry_equiv_pos_site_id
 _symmetry_equiv_pos_as_xyz
  1  'x, y, z'
loop_
 _atom_site_type_symbol
 _atom_site_label
 _atom_site_symmetry_multiplicity
 _atom_site_fract_x
 _atom_site_fract_y
 _atom_site_fract_z
 _atom_site_occupancy
  Li  Li0  1  0.25000000  0.19903800  0.85920900  1
  Tm  Tm0  1  0.25000000  0.40118500  0.28934400  1
  Tm  Tm1  1  0.75000000  0.61224300  0.71190800  1
  Ge  Ge0  1  0.25000000  0.78023700  0.02775700  1
  Ge  Ge1  1  0.75000000  0.25610500  0.02087500  1
  Ge  Ge2  1  0.25000000  0.04262200  0.57970900  1
  Ge  Ge3  1  0.75000000  0.94857100  0.39119800  1
loop_
_geom_bond_atom_site_label_1
_geom_bond_atom_site_label_2
_geom_bond_distance
_geom_bond_site_symmetry_2
Li0 Tm1 3.062592 1_555
Li0 Tm1 3.062592 1_455
Li0 Tm1 3.136798 1_445
Li0 Tm1 3.136798 1_545
Ge0 Li0 2.464590 1_554
Ge0 Li0 2.478259 1_564
Ge0 Tm0 2.967215 1_565
Ge0 Tm0 3.012566 1_555
Ge0 Tm1 3.321501 1_554
Ge0 Tm1 3.321501 1_454
Ge1 Li0 2.414623 1_554
Ge1 Li0 2.414623 1_654
Ge1 Tm0 3.012334 1_655
Ge1 Tm0 3.012334 1_555
Ge1 Tm1 3.272419 1_544
Ge1 Tm1 3.316024 1_554
Ge2 Li0 2.351948 1_555
Ge2 Ge3 2.546936 1_445
Ge2 Ge3 2.546936 1_545
Ge2 Tm1 3.039277 1_545
Ge2 Tm1 3.039277 1_445
Ge2 Tm1 3.062474 1_455
Ge2 Tm1 3.062474 1_555
Ge2 Tm0 3.166981 1_545
Ge2 Tm0 3.177308 1_555
Ge3 Tm0 2.959290 1_655
Ge3 Tm0 2.959290 1_555
Ge3 Tm0 2.975466 1_565
Ge3 Tm0 2.975466 1_665
Ge3 Tm1 3.359854 1_555
Ge3 Tm1 3.385357 1_565
