# generated using pymatgen
data_Ba3(InN2)2
_symmetry_space_group_name_H-M   'P 1'
_cell_length_a   7.78618977
_cell_length_b   9.66834357
_cell_length_c   6.39984985
_cell_angle_alpha   90.00000178
_cell_angle_beta   91.59254949
_cell_angle_gamma   128.37931371
_symmetry_Int_Tables_number   1
_chemical_formula_structural   Ba3(InN2)2
_chemical_formula_sum   'Ba6 In4 N8'
_cell_volume   377.43676437
_cell_formula_units_Z   2
loop_
 _symmetry_equiv_pos_site_id
 _symmetry_equiv_pos_as_xyz
  1  'x, y, z'
loop_
 _atom_site_type_symbol
 _atom_site_label
 _atom_site_symmetry_multiplicity
 _atom_site_fract_x
 _atom_site_fract_y
 _atom_site_fract_z
 _atom_site_occupancy
  Ba  Ba0  1  0.23537400  0.97756200  0.06622500  1
  Ba  Ba1  1  0.76462600  0.74218800  0.43377500  1
  Ba  Ba2  1  0.76462600  0.02243800  0.93377500  1
  Ba  Ba3  1  0.23537400  0.25781200  0.56622500  1
  Ba  Ba4  1  0.00000000  0.60276900  0.75000000  1
  Ba  Ba5  1  0.00000000  0.39723100  0.25000000  1
  In  In0  1  0.58448700  0.17478300  0.58892600  1
  In  In1  1  0.41551300  0.59029700  0.91107400  1
  In  In2  1  0.41551300  0.82521700  0.41107400  1
  In  In3  1  0.58448700  0.40970300  0.08892600  1
  N  N0  1  0.23829800  0.93590000  0.50995200  1
  N  N1  1  0.76170200  0.69760200  0.99004800  1
  N  N2  1  0.76170200  0.06410000  0.49004800  1
  N  N3  1  0.23829800  0.30239800  0.00995200  1
  N  N4  1  0.67194200  0.25597900  0.92694900  1
  N  N5  1  0.32805800  0.58403700  0.57305100  1
  N  N6  1  0.32805800  0.74402100  0.07305100  1
  N  N7  1  0.67194200  0.41596300  0.42694900  1
loop_
_geom_bond_atom_site_label_1
_geom_bond_atom_site_label_2
_geom_bond_distance
_geom_bond_site_symmetry_2
Ba0 N6 2.764535 1_555
Ba0 N0 2.869660 1_555
Ba0 N4 2.898536 1_564
Ba0 N1 2.944558 1_454
Ba0 N3 3.147288 1_565
Ba1 N7 2.764536 1_555
Ba1 N1 2.869660 1_554
Ba1 N5 2.898536 1_555
Ba1 N0 2.944558 1_655
Ba1 N2 3.147288 1_565
Ba2 N4 2.764535 1_555
Ba2 N2 2.869660 1_555
Ba2 N6 2.898536 1_546
Ba2 N3 2.944558 1_656
Ba2 N1 3.147288 1_545
Ba3 N5 2.764536 1_555
Ba3 N3 2.869660 1_556
Ba3 N7 2.898536 1_555
Ba3 N2 2.944558 1_455
Ba3 N0 3.147288 1_545
Ba4 N6 2.835303 1_556
Ba4 N7 2.835303 1_455
Ba4 N5 2.928312 1_555
Ba4 N4 2.928312 1_455
Ba4 N1 2.985683 1_455
Ba4 N0 2.985683 1_555
Ba5 N4 2.835303 1_454
Ba5 N5 2.835303 1_555
Ba5 N7 2.928312 1_455
Ba5 N6 2.928312 1_555
Ba5 N3 2.985683 1_555
Ba5 N2 2.985683 1_455
In0 N4 2.239229 1_555
In0 N7 2.245709 1_555
In0 N0 2.247057 1_545
In0 N2 2.309022 1_555
In1 N5 2.239228 1_555
In1 N6 2.245700 1_556
In1 N1 2.247060 1_555
In1 N3 2.309030 1_556
In2 N6 2.239229 1_555
In2 N5 2.245709 1_555
In2 N2 2.247057 1_565
In2 N0 2.309022 1_555
In3 N7 2.239228 1_555
In3 N4 2.245700 1_554
In3 N3 2.247060 1_555
In3 N1 2.309030 1_554
