# generated using pymatgen
data_Al2Zn(SeS)2
_symmetry_space_group_name_H-M   'P 1'
_cell_length_a   3.78590500
_cell_length_b   6.33911100
_cell_length_c   6.93530671
_cell_angle_alpha   89.56301394
_cell_angle_beta   90.00000000
_cell_angle_gamma   90.00000000
_symmetry_Int_Tables_number   1
_chemical_formula_structural   Al2Zn(SeS)2
_chemical_formula_sum   'Al2 Zn1 Se2 S2'
_cell_volume   166.43747145
_cell_formula_units_Z   1
loop_
 _symmetry_equiv_pos_site_id
 _symmetry_equiv_pos_as_xyz
  1  'x, y, z'
loop_
 _atom_site_type_symbol
 _atom_site_label
 _atom_site_symmetry_multiplicity
 _atom_site_fract_x
 _atom_site_fract_y
 _atom_site_fract_z
 _atom_site_occupancy
  Al  Al0  1  0.50000000  0.52926500  0.16908900  1
  Al  Al1  1  0.50000000  0.96399300  0.84853700  1
  Zn  Zn0  1  0.00000000  0.51894400  0.65363600  1
  Se  Se0  1  0.50000000  0.36237400  0.84351500  1
  Se  Se1  1  0.00000000  0.36271700  0.33016900  1
  S  S0  1  0.00000000  0.88797300  0.66823500  1
  S  S1  1  0.50000000  0.87473400  0.15347000  1
loop_
_geom_bond_atom_site_label_1
_geom_bond_atom_site_label_2
_geom_bond_distance
_geom_bond_site_symmetry_2
Al0 S1 2.191818 1_555
Al0 Se1 2.434732 1_555
Al0 Se1 2.434732 1_655
Al0 Se0 2.500808 1_554
Al1 S1 2.185017 1_556
Al1 S0 2.321274 1_555
Al1 S0 2.321274 1_655
Al1 Se0 2.525356 1_565
Se0 Zn0 2.506504 1_555
Se0 Zn0 2.506504 1_655
Se1 Zn0 2.459116 1_555
S0 Zn0 2.342277 1_555
