# generated using pymatgen
data_La5Sm3Co7CuO24
_symmetry_space_group_name_H-M   'P 1'
_cell_length_a   7.63239995
_cell_length_b   7.65897053
_cell_length_c   7.65897053
_cell_angle_alpha   89.84434592
_cell_angle_beta   90.04023968
_cell_angle_gamma   90.04023968
_symmetry_Int_Tables_number   1
_chemical_formula_structural   La5Sm3Co7CuO24
_chemical_formula_sum   'La5 Sm3 Co7 Cu1 O24'
_cell_volume   447.71340816
_cell_formula_units_Z   1
loop_
 _symmetry_equiv_pos_site_id
 _symmetry_equiv_pos_as_xyz
  1  'x, y, z'
loop_
 _atom_site_type_symbol
 _atom_site_label
 _atom_site_symmetry_multiplicity
 _atom_site_fract_x
 _atom_site_fract_y
 _atom_site_fract_z
 _atom_site_occupancy
  La  La0  1  0.24830300  0.24872900  0.25138100  1
  La  La1  1  0.24837000  0.24914400  0.74914400  1
  La  La2  1  0.24796400  0.75083700  0.25083700  1
  La  La3  1  0.24830300  0.75138100  0.74872900  1
  La  La4  1  0.75117800  0.75080800  0.25080800  1
  Sm  Sm0  1  0.75233700  0.24849800  0.25157700  1
  Sm  Sm1  1  0.75210400  0.24883200  0.74883200  1
  Sm  Sm2  1  0.75233700  0.75157700  0.74849800  1
  Co  Co0  1  0.99864800  0.00026100  0.99966400  1
  Co  Co1  1  0.99925800  0.00036600  0.50036600  1
  Co  Co2  1  0.99797500  0.49937600  0.99937600  1
  Co  Co3  1  0.99864800  0.49966400  0.50026100  1
  Co  Co4  1  0.50066100  0.00035600  0.00004300  1
  Co  Co5  1  0.50181200  0.00082200  0.50082200  1
  Co  Co6  1  0.50066100  0.50004300  0.50035600  1
  Cu  Cu0  1  0.50051500  0.49968600  0.99968600  1
  O  O0  1  0.24960400  0.99988700  0.99987400  1
  O  O1  1  0.24516000  0.99975200  0.49975200  1
  O  O2  1  0.24448900  0.49926300  0.99926300  1
  O  O3  1  0.24960400  0.49987400  0.49988700  1
  O  O4  1  0.75012600  0.00300300  0.99737300  1
  O  O5  1  0.75530700  0.00263000  0.50263000  1
  O  O6  1  0.75463100  0.49846000  0.99846000  1
  O  O7  1  0.75012600  0.49737300  0.50300300  1
  O  O8  1  0.99527500  0.24514700  0.99974300  1
  O  O9  1  0.99388200  0.24987800  0.50010200  1
  O  O10  1  0.99684500  0.75469600  0.99718000  1
  O  O11  1  0.99693000  0.75014300  0.50314000  1
  O  O12  1  0.50686500  0.24739600  0.00000500  1
  O  O13  1  0.50364600  0.25315500  0.50165400  1
  O  O14  1  0.50398700  0.75257400  0.99636800  1
  O  O15  1  0.50351000  0.74731800  0.50087900  1
  O  O16  1  0.99693000  0.00314000  0.25014300  1
  O  O17  1  0.99388200  0.00010200  0.74987800  1
  O  O18  1  0.99684500  0.49718000  0.25469600  1
  O  O19  1  0.99527500  0.49974300  0.74514700  1
  O  O20  1  0.50351000  0.00087900  0.24731800  1
  O  O21  1  0.50364600  0.00165400  0.75315500  1
  O  O22  1  0.50398700  0.49636800  0.25257400  1
  O  O23  1  0.50686500  0.50000500  0.74739600  1
loop_
_geom_bond_atom_site_label_1
_geom_bond_atom_site_label_2
_geom_bond_distance
_geom_bond_site_symmetry_2
La0 O16 2.685897 1_455
La0 O1 2.689940 1_545
La0 O18 2.703792 1_455
La0 O3 2.709684 1_555
La0 O0 2.713490 1_544
La0 O2 2.718687 1_554
La0 O22 2.720396 1_555
La0 O20 2.721049 1_555
La0 O9 2.721206 1_455
La0 O8 2.727591 1_454
La0 O13 2.732864 1_555
La0 O12 2.758040 1_555
La1 O0 2.704132 1_545
La1 O3 2.704132 1_555
La1 O1 2.705023 1_545
La1 O2 2.713012 1_555
La1 O13 2.719349 1_555
La1 O21 2.719349 1_555
La1 O9 2.721345 1_455
La1 O17 2.721345 1_455
La1 O8 2.724174 1_455
La1 O19 2.724174 1_455
La1 O23 2.752956 1_555
La1 O12 2.752956 1_556
La2 O1 2.699869 1_555
La2 O0 2.704294 1_554
La2 O3 2.704294 1_555
La2 O16 2.722183 1_465
La2 O11 2.722183 1_455
La2 O18 2.728224 1_455
La2 O10 2.728224 1_454
La2 O2 2.728705 1_554
La2 O15 2.732566 1_555
La2 O20 2.732566 1_565
La2 O14 2.760838 1_554
La2 O22 2.760838 1_555
La3 O11 2.685897 1_455
La3 O1 2.689940 1_555
La3 O10 2.703792 1_455
La3 O0 2.709684 1_555
La3 O3 2.713490 1_555
La3 O2 2.718687 1_555
La3 O14 2.720396 1_555
La3 O15 2.721049 1_555
La3 O17 2.721206 1_465
La3 O19 2.727591 1_455
La3 O21 2.732864 1_565
La3 O23 2.758040 1_555
La4 O15 2.692027 1_555
La4 O20 2.692027 1_565
La4 O16 2.692214 1_565
La4 O11 2.692214 1_555
La4 O18 2.700882 1_555
La4 O10 2.700882 1_554
La4 O14 2.711461 1_554
La4 O22 2.711461 1_555
La4 O5 2.731443 1_565
La4 O7 2.734643 1_555
La4 O4 2.734643 1_564
La4 O6 2.737150 1_554
Co0 O8 1.875771 1_555
Co0 O10 1.880964 1_545
Co0 O4 1.897019 1_555
Co0 O17 1.913428 1_555
Co0 O0 1.915400 1_645
Co0 O16 1.918652 1_556
Co1 O5 1.862118 1_555
Co1 O1 1.876841 1_645
Co1 O9 1.911470 1_555
Co1 O17 1.911470 1_555
Co1 O16 1.916581 1_555
Co1 O11 1.916581 1_545
Co2 O6 1.857315 1_555
Co2 O2 1.881495 1_655
Co2 O8 1.947221 1_555
Co2 O19 1.947221 1_555
Co2 O18 1.955540 1_556
Co2 O10 1.955540 1_555
Co3 O19 1.875771 1_555
Co3 O18 1.880964 1_555
Co3 O7 1.897019 1_555
Co3 O9 1.913428 1_555
Co3 O3 1.915400 1_655
Co3 O11 1.918652 1_555
Co4 O21 1.891060 1_554
Co4 O12 1.892630 1_555
Co4 O20 1.893997 1_555
Co4 O14 1.898228 1_544
Co4 O4 1.904234 1_554
Co4 O0 1.916168 1_544
Co5 O13 1.932680 1_555
Co5 O21 1.932680 1_555
Co5 O5 1.934855 1_555
Co5 O15 1.941631 1_545
Co5 O20 1.941631 1_555
Co5 O1 1.958894 1_545
Co6 O13 1.891060 1_555
Co6 O23 1.892630 1_555
Co6 O15 1.893997 1_555
Co6 O22 1.898228 1_555
Co6 O7 1.904234 1_555
Co6 O3 1.916168 1_555
Cu0 O23 1.932918 1_555
Cu0 O12 1.932918 1_556
Cu0 O14 1.937122 1_555
Cu0 O22 1.937122 1_556
Cu0 O6 1.939574 1_555
Cu0 O2 1.954094 1_555
O4 Sm1 2.673808 1_555
O4 Sm0 2.710343 1_556
O4 Sm2 2.713267 1_545
O5 Sm1 2.670473 1_555
O5 Sm2 2.687764 1_545
O5 Sm0 2.687764 1_555
O6 Sm1 2.707545 1_555
O6 Sm0 2.720937 1_556
O6 Sm2 2.720937 1_555
O7 Sm1 2.673808 1_555
O7 Sm2 2.710343 1_555
O7 Sm0 2.713267 1_555
O8 Sm1 2.670811 1_555
O8 Sm0 2.676622 1_556
O9 Sm0 2.648983 1_555
O9 Sm1 2.653165 1_555
O10 Sm2 2.665724 1_555
O11 Sm2 2.649831 1_555
O12 Sm1 2.685005 1_554
O12 Sm0 2.686580 1_555
O13 Sm1 2.678770 1_555
O13 Sm0 2.697807 1_555
O14 Sm2 2.683690 1_555
O15 Sm2 2.683235 1_555
O16 Sm0 2.649831 1_555
O17 Sm2 2.648983 1_545
O17 Sm1 2.653165 1_555
O18 Sm0 2.665724 1_555
O19 Sm1 2.670811 1_555
O19 Sm2 2.676622 1_555
O20 Sm0 2.683235 1_555
O21 Sm1 2.678770 1_555
O21 Sm2 2.697807 1_545
O22 Sm0 2.683690 1_555
O23 Sm1 2.685005 1_555
O23 Sm2 2.686580 1_555
