# generated using pymatgen
data_Te4MoW
_symmetry_space_group_name_H-M   'P 1'
_cell_length_a   3.55890153
_cell_length_b   3.55890153
_cell_length_c   40.11263800
_cell_angle_alpha   90.00000000
_cell_angle_beta   90.00000000
_cell_angle_gamma   119.99999128
_symmetry_Int_Tables_number   1
_chemical_formula_structural   Te4MoW
_chemical_formula_sum   'Te8 Mo2 W2'
_cell_volume   439.99104545
_cell_formula_units_Z   2
loop_
 _symmetry_equiv_pos_site_id
 _symmetry_equiv_pos_as_xyz
  1  'x, y, z'
loop_
 _atom_site_type_symbol
 _atom_site_label
 _atom_site_symmetry_multiplicity
 _atom_site_fract_x
 _atom_site_fract_y
 _atom_site_fract_z
 _atom_site_occupancy
  Te  Te0  1  0.00000000  0.00000000  0.32697700  1
  Te  Te1  1  0.00000000  0.00000000  0.70281300  1
  Te  Te2  1  0.33333300  0.66666700  0.04876000  1
  Te  Te3  1  0.33333300  0.66666700  0.42435200  1
  Te  Te4  1  0.33333300  0.66666700  0.13911200  1
  Te  Te5  1  0.33333300  0.66666700  0.51496500  1
  Te  Te6  1  0.00000000  0.00000000  0.23661300  1
  Te  Te7  1  0.00000000  0.00000000  0.61222400  1
  Mo  Mo0  1  0.00000000  0.00000000  0.09391600  1
  Mo  Mo1  1  0.33333300  0.66666700  0.28180200  1
  W  W0  1  0.00000000  0.00000000  0.46966600  1
  W  W1  1  0.33333300  0.66666700  0.65754700  1
loop_
_geom_bond_atom_site_label_1
_geom_bond_atom_site_label_2
_geom_bond_distance
_geom_bond_site_symmetry_2
Te1 W1 2.742048 1_545
Te1 W1 2.742050 1_445
Te1 W1 2.742050 1_555
Te3 W0 2.743323 1_565
Te3 W0 2.743325 1_665
Te3 W0 2.743325 1_555
Te5 W0 2.742924 1_565
Te5 W0 2.742927 1_665
Te5 W0 2.742927 1_555
Te7 W1 2.743562 1_545
Te7 W1 2.743565 1_555
Te7 W1 2.743565 1_445
Mo0 Te2 2.739128 1_545
Mo0 Te2 2.739130 1_555
Mo0 Te2 2.739130 1_445
Mo0 Te4 2.740189 1_545
Mo0 Te4 2.740192 1_445
Mo0 Te4 2.740192 1_555
Mo1 Te0 2.739632 1_565
Mo1 Te0 2.739634 1_665
Mo1 Te0 2.739634 1_555
Mo1 Te6 2.740003 1_565
Mo1 Te6 2.740006 1_665
Mo1 Te6 2.740006 1_555
