# generated using pymatgen
data_LiEr4Zr4O14
_symmetry_space_group_name_H-M   'P 1'
_cell_length_a   3.88347231
_cell_length_b   15.00353579
_cell_length_c   13.18953011
_cell_angle_alpha   28.68199807
_cell_angle_beta   53.92297961
_cell_angle_gamma   58.82360665
_symmetry_Int_Tables_number   1
_chemical_formula_structural   LiEr4Zr4O14
_chemical_formula_sum   'Li1 Er4 Zr4 O14'
_cell_volume   298.10447929
_cell_formula_units_Z   1
loop_
 _symmetry_equiv_pos_site_id
 _symmetry_equiv_pos_as_xyz
  1  'x, y, z'
loop_
 _atom_site_type_symbol
 _atom_site_label
 _atom_site_symmetry_multiplicity
 _atom_site_fract_x
 _atom_site_fract_y
 _atom_site_fract_z
 _atom_site_occupancy
  Li  Li0  1  0.50000000  0.25000000  0.00000000  1
  Er  Er0  1  0.00000000  0.25000000  0.00000000  1
  Er  Er1  1  0.94256600  0.99491000  0.53380700  1
  Er  Er2  1  0.00000000  0.75000000  0.50000000  1
  Er  Er3  1  0.05743400  0.50509000  0.46619300  1
  Zr  Zr0  1  0.01434900  0.99728300  0.99554200  1
  Zr  Zr1  1  0.98565100  0.50271700  0.00445800  1
  Zr  Zr2  1  0.00000000  0.25000000  0.50000000  1
  Zr  Zr3  1  0.00000000  0.75000000  0.00000000  1
  O  O0  1  0.23522600  0.00474800  0.12763900  1
  O  O1  1  0.20775500  0.22449200  0.17163100  1
  O  O2  1  0.23677300  0.99809700  0.63351500  1
  O  O3  1  0.27127900  0.50150700  0.11285300  1
  O  O4  1  0.27505500  0.22726800  0.63520400  1
  O  O5  1  0.27468000  0.77190100  0.09076000  1
  O  O6  1  0.72494500  0.27273200  0.36479600  1
  O  O7  1  0.72872100  0.99849300  0.88714700  1
  O  O8  1  0.76322700  0.50190300  0.36648500  1
  O  O9  1  0.79224500  0.27550800  0.82836900  1
  O  O10  1  0.76401100  0.72255500  0.39544000  1
  O  O11  1  0.23598900  0.77744500  0.60456000  1
  O  O12  1  0.76477400  0.49525200  0.87236100  1
  O  O13  1  0.72532000  0.72809900  0.90924000  1
loop_
_geom_bond_atom_site_label_1
_geom_bond_atom_site_label_2
_geom_bond_distance
_geom_bond_site_symmetry_2
Li0 O1 1.569327 1_555
Li0 O9 1.569327 1_554
Er0 Li0 1.941736 1_455
Er0 Li0 1.941736 1_555
Er0 O0 2.161099 1_555
Er0 O12 2.161099 1_454
Er0 O9 2.496619 1_554
Er0 O1 2.496619 1_455
Er0 O9 2.496626 1_454
Er0 O1 2.496626 1_555
Er1 O1 2.180060 1_665
Er1 O11 2.208058 1_655
Er1 O2 2.230184 1_655
Er1 O2 2.230203 1_555
Er1 O13 2.247841 1_555
Er1 O6 2.307877 1_565
Er2 O0 2.226745 1_565
Er2 O12 2.226745 1_455
Er2 O10 2.405616 1_455
Er2 O11 2.405616 1_555
Er2 O10 2.405622 1_555
Er2 O11 2.405622 1_455
Er3 O9 2.180060 1_455
Er3 O10 2.208058 1_455
Er3 O8 2.230184 1_455
Er3 O8 2.230203 1_555
Er3 O5 2.247841 1_555
Er3 O4 2.307877 1_555
O0 Zr0 2.446603 1_644
O0 Zr0 2.446610 1_544
O1 Zr1 2.322376 1_455
O2 Zr3 2.192108 1_556
O2 Zr2 2.204971 1_565
O3 Zr1 2.253004 1_455
O3 Zr1 2.253016 1_555
O3 Zr3 2.295359 1_555
O3 Zr2 2.322729 1_555
O4 Zr0 2.166789 1_545
O4 Zr2 2.288331 1_555
O4 Zr2 2.288337 1_655
O5 Zr0 2.130372 1_554
O5 Zr3 2.288182 1_655
O5 Zr3 2.288196 1_555
O6 Zr1 2.166789 1_555
O6 Zr2 2.288331 1_655
O6 Zr2 2.288337 1_555
O7 Zr0 2.253004 1_655
O7 Zr0 2.253016 1_555
O7 Zr3 2.295359 1_656
O7 Zr2 2.322729 1_665
O8 Zr3 2.192108 1_655
O8 Zr2 2.204971 1_655
O9 Zr0 2.322376 1_645
O10 Zr0 2.391359 1_654
O11 Zr1 2.391359 1_456
O12 Zr1 2.446603 1_456
O12 Zr1 2.446610 1_556
O13 Zr1 2.130372 1_556
O13 Zr3 2.288182 1_556
O13 Zr3 2.288196 1_656
