# generated using pymatgen
data_Ba3Er(BO3)3
_symmetry_space_group_name_H-M   'P 1'
_cell_length_a   9.47977887
_cell_length_b   9.47977887
_cell_length_c   18.00277600
_cell_angle_alpha   90.00000000
_cell_angle_beta   90.00000000
_cell_angle_gamma   119.99999213
_symmetry_Int_Tables_number   1
_chemical_formula_structural   Ba3Er(BO3)3
_chemical_formula_sum   'Ba18 Er6 B18 O54'
_cell_volume   1401.09169219
_cell_formula_units_Z   6
loop_
 _symmetry_equiv_pos_site_id
 _symmetry_equiv_pos_as_xyz
  1  'x, y, z'
loop_
 _atom_site_type_symbol
 _atom_site_label
 _atom_site_symmetry_multiplicity
 _atom_site_fract_x
 _atom_site_fract_y
 _atom_site_fract_z
 _atom_site_occupancy
  Ba  Ba0  1  0.00000000  0.00000000  0.72129200  1
  Ba  Ba1  1  0.00000000  0.00000000  0.22129200  1
  Ba  Ba2  1  0.34405700  0.34405700  0.62920000  1
  Ba  Ba3  1  0.00000000  0.65594300  0.62920000  1
  Ba  Ba4  1  0.65594300  0.65594300  0.12920000  1
  Ba  Ba5  1  0.00000000  0.34405700  0.12920000  1
  Ba  Ba6  1  0.65594300  0.00000000  0.62920000  1
  Ba  Ba7  1  0.34405700  0.00000000  0.12920000  1
  Ba  Ba8  1  0.32135800  0.32135800  0.87026100  1
  Ba  Ba9  1  0.00000000  0.67864200  0.87026100  1
  Ba  Ba10  1  0.67864200  0.67864200  0.37026100  1
  Ba  Ba11  1  0.00000000  0.32135800  0.37026100  1
  Ba  Ba12  1  0.67864200  0.00000000  0.87026100  1
  Ba  Ba13  1  0.32135800  0.00000000  0.37026100  1
  Ba  Ba14  1  0.66666700  0.33333300  0.77212600  1
  Ba  Ba15  1  0.33333300  0.66666700  0.27212600  1
  Ba  Ba16  1  0.66666700  0.33333300  0.27212600  1
  Ba  Ba17  1  0.33333300  0.66666700  0.77212600  1
  Er  Er0  1  0.00000000  0.00000000  0.00366300  1
  Er  Er1  1  0.00000000  0.00000000  0.50366300  1
  Er  Er2  1  0.66666700  0.33333300  0.99821300  1
  Er  Er3  1  0.33333300  0.66666700  0.49821300  1
  Er  Er4  1  0.66666700  0.33333300  0.49821300  1
  Er  Er5  1  0.33333300  0.66666700  0.99821300  1
  B  B0  1  0.66638200  0.66638200  0.74827300  1
  B  B1  1  0.00000000  0.33361800  0.74827300  1
  B  B2  1  0.33361800  0.33361800  0.24827300  1
  B  B3  1  0.00000000  0.66638200  0.24827300  1
  B  B4  1  0.33361800  0.00000000  0.74827300  1
  B  B5  1  0.66638200  0.00000000  0.24827300  1
  B  B6  1  0.67220100  0.67220100  0.57405600  1
  B  B7  1  0.00000000  0.32779900  0.57405600  1
  B  B8  1  0.32779900  0.32779900  0.07405600  1
  B  B9  1  0.00000000  0.67220100  0.07405600  1
  B  B10  1  0.32779900  0.00000000  0.57405600  1
  B  B11  1  0.67220100  0.00000000  0.07405600  1
  B  B12  1  0.66176800  0.66176800  0.92384800  1
  B  B13  1  0.00000000  0.33823200  0.92384800  1
  B  B14  1  0.33823200  0.33823200  0.42384700  1
  B  B15  1  0.00000000  0.66176800  0.42384700  1
  B  B16  1  0.33823200  0.00000000  0.92384800  1
  B  B17  1  0.66176800  0.00000000  0.42384700  1
  O  O0  1  0.85278000  0.18656200  0.74874900  1
  O  O1  1  0.33378100  0.14722000  0.74874900  1
  O  O2  1  0.14722000  0.81343800  0.24874900  1
  O  O3  1  0.33378100  0.18656200  0.24874900  1
  O  O4  1  0.81343800  0.66621900  0.74874900  1
  O  O5  1  0.66621900  0.85278000  0.24874900  1
  O  O6  1  0.81343800  0.14722000  0.24874900  1
  O  O7  1  0.66621900  0.81343800  0.74874900  1
  O  O8  1  0.18656200  0.33378100  0.24874900  1
  O  O9  1  0.18656200  0.85278000  0.74874900  1
  O  O10  1  0.85278000  0.66621900  0.24874900  1
  O  O11  1  0.14722000  0.33378100  0.74874900  1
  O  O12  1  0.80789900  0.80789900  0.93165800  1
  O  O13  1  0.00000000  0.19210100  0.93165800  1
  O  O14  1  0.19210100  0.19210100  0.43165800  1
  O  O15  1  0.00000000  0.80789900  0.43165800  1
  O  O16  1  0.19210100  0.00000000  0.93165800  1
  O  O17  1  0.80789900  0.00000000  0.43165800  1
  O  O18  1  0.51917100  0.51917100  0.74821200  1
  O  O19  1  0.00000000  0.48082900  0.74821200  1
  O  O20  1  0.48082900  0.48082900  0.24821200  1
  O  O21  1  0.00000000  0.51917100  0.24821200  1
  O  O22  1  0.48082900  0.00000000  0.74821200  1
  O  O23  1  0.51917100  0.00000000  0.24821200  1
  O  O24  1  0.85310900  0.33751200  0.91928800  1
  O  O25  1  0.48440300  0.14689100  0.91928800  1
  O  O26  1  0.14689100  0.66248800  0.41928800  1
  O  O27  1  0.48440300  0.33751200  0.41928800  1
  O  O28  1  0.66248800  0.51559700  0.91928800  1
  O  O29  1  0.51559700  0.85310900  0.41928800  1
  O  O30  1  0.66248800  0.14689100  0.41928800  1
  O  O31  1  0.51559700  0.66248800  0.91928800  1
  O  O32  1  0.33751200  0.48440300  0.41928800  1
  O  O33  1  0.33751200  0.85310900  0.91928800  1
  O  O34  1  0.85310900  0.51559700  0.41928800  1
  O  O35  1  0.14689100  0.48440300  0.91928800  1
  O  O36  1  0.81785100  0.81785100  0.58303800  1
  O  O37  1  0.00000000  0.18214900  0.58303800  1
  O  O38  1  0.18214900  0.18214900  0.08303800  1
  O  O39  1  0.00000000  0.81785100  0.08303800  1
  O  O40  1  0.18214900  0.00000000  0.58303800  1
  O  O41  1  0.81785100  0.00000000  0.08303800  1
  O  O42  1  0.85373600  0.32785200  0.56981800  1
  O  O43  1  0.47411600  0.14626400  0.56981800  1
  O  O44  1  0.14626400  0.67214800  0.06981800  1
  O  O45  1  0.47411600  0.32785200  0.06981800  1
  O  O46  1  0.67214800  0.52588400  0.56981800  1
  O  O47  1  0.52588400  0.85373600  0.06981800  1
  O  O48  1  0.67214800  0.14626400  0.06981800  1
  O  O49  1  0.52588400  0.67214800  0.56981800  1
  O  O50  1  0.32785200  0.47411600  0.06981800  1
  O  O51  1  0.32785200  0.85373600  0.56981800  1
  O  O52  1  0.85373600  0.52588400  0.06981800  1
  O  O53  1  0.14626400  0.47411600  0.56981800  1
loop_
_geom_bond_atom_site_label_1
_geom_bond_atom_site_label_2
_geom_bond_distance
_geom_bond_site_symmetry_2
Ba0 O1 2.790714 1_555
Ba0 O11 2.790714 1_555
Ba0 O4 2.790715 1_445
Ba0 O7 2.790715 1_445
Ba0 O0 2.790722 1_455
Ba0 O9 2.790722 1_545
Ba0 O37 3.029275 1_555
Ba0 O40 3.029275 1_555
Ba0 O36 3.029275 1_445
Ba1 O10 2.790714 1_445
Ba1 O5 2.790714 1_445
Ba1 O8 2.790715 1_555
Ba1 O3 2.790715 1_555
Ba1 O6 2.790722 1_455
Ba1 O2 2.790722 1_545
Ba1 O39 3.029275 1_545
Ba1 O41 3.029275 1_455
Ba1 O38 3.029275 1_555
Ba2 O18 2.710396 1_555
Ba2 O1 2.818083 1_555
Ba2 O11 2.818083 1_555
Ba2 O49 2.902828 1_555
Ba2 O46 2.902828 1_555
Ba2 O43 2.913847 1_555
Ba2 O53 2.913847 1_555
Ba2 O37 2.945894 1_555
Ba2 O40 2.945894 1_555
Ba3 O19 2.710396 1_555
Ba3 O9 2.818086 1_555
Ba3 O4 2.818089 1_455
Ba3 O53 2.902828 1_555
Ba3 O42 2.902828 1_455
Ba3 O46 2.913847 1_455
Ba3 O51 2.913847 1_555
Ba3 O36 2.945893 1_455
Ba3 O40 2.945894 1_565
Ba4 O20 2.710396 1_555
Ba4 O10 2.818083 1_555
Ba4 O5 2.818083 1_555
Ba4 O45 2.902828 1_555
Ba4 O50 2.902828 1_555
Ba4 O47 2.913847 1_555
Ba4 O52 2.913847 1_555
Ba4 O39 2.945894 1_655
Ba4 O41 2.945894 1_565
Ba5 O21 2.710396 1_555
Ba5 O6 2.818086 1_455
Ba5 O8 2.818089 1_555
Ba5 O52 2.902828 1_455
Ba5 O44 2.902828 1_555
Ba5 O50 2.913847 1_555
Ba5 O48 2.913847 1_455
Ba5 O38 2.945893 1_555
Ba5 O41 2.945894 1_455
Ba6 O22 2.710396 1_555
Ba6 O0 2.818086 1_555
Ba6 O7 2.818089 1_545
Ba6 O43 2.902828 1_555
Ba6 O51 2.902828 1_545
Ba6 O49 2.913847 1_545
Ba6 O42 2.913847 1_555
Ba6 O36 2.945893 1_545
Ba6 O37 2.945894 1_655
Ba7 O23 2.710396 1_555
Ba7 O2 2.818086 1_545
Ba7 O3 2.818089 1_555
Ba7 O47 2.902828 1_545
Ba7 O48 2.902828 1_555
Ba7 O45 2.913847 1_555
Ba7 O44 2.913847 1_545
Ba7 O38 2.945893 1_555
Ba7 O39 2.945894 1_545
Ba8 O11 2.778268 1_555
Ba8 O1 2.778268 1_555
Ba8 O16 2.875914 1_555
Ba8 O13 2.875914 1_555
Ba8 O18 2.888640 1_555
Ba8 O25 2.908563 1_555
Ba8 O35 2.908563 1_555
Ba8 O28 2.944939 1_555
Ba8 O31 2.944939 1_555
Ba9 O9 2.778272 1_555
Ba9 O4 2.778274 1_455
Ba9 O12 2.875914 1_455
Ba9 O16 2.875914 1_565
Ba9 O19 2.888640 1_555
Ba9 O28 2.908564 1_455
Ba9 O33 2.908564 1_555
Ba9 O35 2.944939 1_555
Ba9 O24 2.944939 1_455
Ba10 O10 2.778268 1_555
Ba10 O5 2.778268 1_555
Ba10 O17 2.875914 1_565
Ba10 O15 2.875914 1_655
Ba10 O20 2.888640 1_555
Ba10 O34 2.908563 1_555
Ba10 O29 2.908563 1_555
Ba10 O27 2.944939 1_555
Ba10 O32 2.944939 1_555
Ba11 O6 2.778272 1_455
Ba11 O8 2.778274 1_555
Ba11 O14 2.875914 1_555
Ba11 O17 2.875914 1_455
Ba11 O21 2.888640 1_555
Ba11 O32 2.908564 1_555
Ba11 O30 2.908564 1_455
Ba11 O34 2.944939 1_455
Ba11 O26 2.944939 1_555
Ba12 O0 2.778272 1_555
Ba12 O7 2.778274 1_545
Ba12 O12 2.875914 1_545
Ba12 O13 2.875914 1_655
Ba12 O22 2.888640 1_555
Ba12 O31 2.908564 1_545
Ba12 O24 2.908564 1_555
Ba12 O25 2.944939 1_555
Ba12 O33 2.944939 1_545
Ba13 O2 2.778272 1_545
Ba13 O3 2.778274 1_555
Ba13 O14 2.875914 1_555
Ba13 O15 2.875914 1_545
Ba13 O23 2.888640 1_555
Ba13 O27 2.908564 1_555
Ba13 O26 2.908564 1_545
Ba13 O29 2.944939 1_545
Ba13 O30 2.944939 1_555
Ba14 O0 2.771383 1_555
Ba14 O1 2.771399 1_555
Ba14 O4 2.771400 1_555
Ba14 O19 2.776186 1_655
Ba14 O22 2.776187 1_555
Ba14 O18 2.776194 1_555
Ba14 O24 3.174000 1_555
Ba14 O25 3.174003 1_555
Ba14 O28 3.174005 1_555
Ba15 O2 2.771383 1_555
Ba15 O5 2.771399 1_555
Ba15 O8 2.771400 1_555
Ba15 O21 2.776186 1_555
Ba15 O23 2.776187 1_565
Ba15 O20 2.776194 1_555
Ba15 O26 3.174000 1_555
Ba15 O29 3.174003 1_555
Ba15 O32 3.174005 1_555
Ba16 O6 2.771383 1_555
Ba16 O10 2.771399 1_555
Ba16 O3 2.771400 1_555
Ba16 O23 2.776186 1_555
Ba16 O21 2.776187 1_655
Ba16 O20 2.776194 1_555
Ba16 O30 3.174000 1_555
Ba16 O34 3.174003 1_555
Ba16 O27 3.174005 1_555
Ba17 O9 2.771383 1_555
Ba17 O11 2.771399 1_555
Ba17 O7 2.771400 1_555
Ba17 O22 2.776186 1_565
Ba17 O19 2.776187 1_555
Ba17 O18 2.776194 1_555
Ba17 O33 3.174000 1_555
Ba17 O35 3.174003 1_555
Ba17 O31 3.174005 1_555
Er0 O13 2.235326 1_554
Er0 O16 2.235326 1_554
Er0 O12 2.235326 1_444
Er0 O39 2.241330 1_545
Er0 O41 2.241330 1_455
Er0 O38 2.241330 1_555
Er1 O15 2.235326 1_545
Er1 O17 2.235326 1_455
Er1 O14 2.235326 1_555
Er1 O37 2.241330 1_555
Er1 O40 2.241330 1_555
Er1 O36 2.241330 1_445
Er2 O48 2.213920 1_556
Er2 O52 2.213924 1_556
Er2 O45 2.213928 1_556
Er2 O24 2.252604 1_555
Er2 O25 2.252608 1_555
Er2 O28 2.252611 1_555
Er3 O51 2.213920 1_555
Er3 O53 2.213924 1_555
Er3 O49 2.213928 1_555
Er3 O26 2.252604 1_555
Er3 O29 2.252608 1_555
Er3 O32 2.252611 1_555
Er4 O42 2.213920 1_555
Er4 O43 2.213924 1_555
Er4 O46 2.213928 1_555
Er4 O30 2.252604 1_555
Er4 O34 2.252608 1_555
Er4 O27 2.252611 1_555
Er5 O44 2.213920 1_556
Er5 O47 2.213924 1_556
Er5 O50 2.213928 1_556
Er5 O33 2.252604 1_555
Er5 O35 2.252608 1_555
Er5 O31 2.252611 1_555
B0 O7 1.394858 1_555
B0 O4 1.394858 1_555
B0 O18 1.395528 1_555
B1 O0 1.394863 1_455
B1 O11 1.394867 1_555
B1 O19 1.395528 1_555
B2 O8 1.394858 1_555
B2 O3 1.394858 1_555
B2 O20 1.395528 1_555
B3 O2 1.394863 1_555
B3 O10 1.394867 1_455
B3 O21 1.395528 1_555
B4 O9 1.394863 1_545
B4 O1 1.394867 1_555
B4 O22 1.395528 1_555
B5 O6 1.394863 1_555
B5 O5 1.394867 1_545
B5 O23 1.395528 1_555
B6 O49 1.388899 1_555
B6 O46 1.388899 1_555
B6 O36 1.390166 1_555
B7 O42 1.388899 1_455
B7 O53 1.388899 1_555
B7 O37 1.390166 1_555
B8 O50 1.388899 1_555
B8 O45 1.388899 1_555
B8 O38 1.390166 1_555
B9 O44 1.388899 1_555
B9 O52 1.388899 1_455
B9 O39 1.390166 1_555
B10 O51 1.388899 1_545
B10 O43 1.388899 1_555
B10 O40 1.390166 1_555
B11 O48 1.388899 1_555
B11 O47 1.388899 1_545
B11 O41 1.390166 1_555
B12 O28 1.391518 1_555
B12 O31 1.391518 1_555
B12 O12 1.392407 1_555
B13 O24 1.391518 1_455
B13 O35 1.391518 1_555
B13 O13 1.392407 1_555
B14 O27 1.391517 1_555
B14 O32 1.391517 1_555
B14 O14 1.392409 1_555
B15 O26 1.391517 1_555
B15 O34 1.391517 1_455
B15 O15 1.392408 1_555
B16 O33 1.391518 1_545
B16 O25 1.391518 1_555
B16 O16 1.392407 1_555
B17 O30 1.391517 1_555
B17 O29 1.391517 1_545
B17 O17 1.392408 1_555
