# generated using pymatgen
data_Sm4Ge9Ir13
_symmetry_space_group_name_H-M   'P 1'
_cell_length_a   4.04619500
_cell_length_b   11.34498200
_cell_length_c   19.61540400
_cell_angle_alpha   90.00000000
_cell_angle_beta   90.00000000
_cell_angle_gamma   90.00000000
_symmetry_Int_Tables_number   1
_chemical_formula_structural   Sm4Ge9Ir13
_chemical_formula_sum   'Sm8 Ge18 Ir26'
_cell_volume   900.42569045
_cell_formula_units_Z   2
loop_
 _symmetry_equiv_pos_site_id
 _symmetry_equiv_pos_as_xyz
  1  'x, y, z'
loop_
 _atom_site_type_symbol
 _atom_site_label
 _atom_site_symmetry_multiplicity
 _atom_site_fract_x
 _atom_site_fract_y
 _atom_site_fract_z
 _atom_site_occupancy
  Sm  Sm0  1  0.50000000  0.80906400  0.29200300  1
  Sm  Sm1  1  0.50000000  0.19093600  0.29200300  1
  Sm  Sm2  1  0.00000000  0.69093600  0.70799700  1
  Sm  Sm3  1  0.00000000  0.30906400  0.70799700  1
  Sm  Sm4  1  0.50000000  0.00000000  0.47805700  1
  Sm  Sm5  1  0.00000000  0.50000000  0.52194300  1
  Sm  Sm6  1  0.50000000  0.50000000  0.98035000  1
  Sm  Sm7  1  0.00000000  0.00000000  0.01965000  1
  Ge  Ge0  1  0.50000000  0.31230700  0.58107700  1
  Ge  Ge1  1  0.50000000  0.68769300  0.58107700  1
  Ge  Ge2  1  0.00000000  0.18769300  0.41892300  1
  Ge  Ge3  1  0.00000000  0.81230700  0.41892300  1
  Ge  Ge4  1  0.50000000  0.81865800  0.08454000  1
  Ge  Ge5  1  0.50000000  0.18134200  0.08454000  1
  Ge  Ge6  1  0.00000000  0.68134200  0.91546000  1
  Ge  Ge7  1  0.00000000  0.31865800  0.91546000  1
  Ge  Ge8  1  0.50000000  0.87103000  0.76958600  1
  Ge  Ge9  1  0.50000000  0.12897000  0.76958600  1
  Ge  Ge10  1  0.00000000  0.62897000  0.23041400  1
  Ge  Ge11  1  0.00000000  0.37103000  0.23041400  1
  Ge  Ge12  1  0.50000000  0.00000000  0.89871500  1
  Ge  Ge13  1  0.00000000  0.50000000  0.10128500  1
  Ge  Ge14  1  0.50000000  0.50000000  0.76724700  1
  Ge  Ge15  1  0.00000000  0.00000000  0.23275300  1
  Ge  Ge16  1  0.50000000  0.50000000  0.39892500  1
  Ge  Ge17  1  0.00000000  0.00000000  0.60107500  1
  Ir  Ir0  1  0.50000000  0.29917000  0.45340900  1
  Ir  Ir1  1  0.50000000  0.70083000  0.45340900  1
  Ir  Ir2  1  0.00000000  0.20083000  0.54659100  1
  Ir  Ir3  1  0.00000000  0.79917000  0.54659100  1
  Ir  Ir4  1  0.50000000  0.31666000  0.83664300  1
  Ir  Ir5  1  0.50000000  0.68334000  0.83664300  1
  Ir  Ir6  1  0.00000000  0.18334000  0.16335700  1
  Ir  Ir7  1  0.00000000  0.81666000  0.16335700  1
  Ir  Ir8  1  0.50000000  0.37309800  0.14544700  1
  Ir  Ir9  1  0.50000000  0.62690200  0.14544700  1
  Ir  Ir10  1  0.00000000  0.12690200  0.85455300  1
  Ir  Ir11  1  0.00000000  0.87309800  0.85455300  1
  Ir  Ir12  1  0.50000000  0.80819600  0.95980500  1
  Ir  Ir13  1  0.50000000  0.19180400  0.95980500  1
  Ir  Ir14  1  0.00000000  0.69180400  0.04019500  1
  Ir  Ir15  1  0.00000000  0.30819600  0.04019500  1
  Ir  Ir16  1  0.50000000  0.87739700  0.64216200  1
  Ir  Ir17  1  0.50000000  0.12260300  0.64216200  1
  Ir  Ir18  1  0.00000000  0.62260300  0.35783800  1
  Ir  Ir19  1  0.00000000  0.37739700  0.35783800  1
  Ir  Ir20  1  0.50000000  0.00000000  0.15706700  1
  Ir  Ir21  1  0.00000000  0.50000000  0.84293300  1
  Ir  Ir22  1  0.50000000  0.50000000  0.64194500  1
  Ir  Ir23  1  0.00000000  0.00000000  0.35805500  1
  Ir  Ir24  1  0.50000000  0.50000000  0.27261600  1
  Ir  Ir25  1  0.00000000  0.00000000  0.72738400  1
loop_
_geom_bond_atom_site_label_1
_geom_bond_atom_site_label_2
_geom_bond_distance
_geom_bond_site_symmetry_2
Ge0 Ir22 2.441260 1_555
Ge0 Ir17 2.463253 1_555
Ge0 Ir2 2.479918 1_655
Ge0 Ir2 2.479918 1_555
Ge0 Ir0 2.508690 1_555
Ge0 Sm5 3.157944 1_655
Ge0 Sm5 3.157944 1_555
Ge0 Sm3 3.208165 1_555
Ge0 Sm3 3.208165 1_655
Ge1 Ir22 2.441260 1_555
Ge1 Ir16 2.463253 1_555
Ge1 Ir3 2.479918 1_655
Ge1 Ir3 2.479918 1_555
Ge1 Ir1 2.508690 1_555
Ge1 Sm5 3.157944 1_655
Ge1 Sm5 3.157944 1_555
Ge1 Sm2 3.208165 1_555
Ge1 Sm2 3.208165 1_655
Ge2 Ir23 2.441260 1_555
Ge2 Ir19 2.463253 1_555
Ge2 Ir0 2.479918 1_555
Ge2 Ir0 2.479918 1_455
Ge2 Ir2 2.508690 1_555
Ge2 Sm4 3.157944 1_455
Ge2 Sm4 3.157944 1_555
Ge2 Sm1 3.208165 1_555
Ge2 Sm1 3.208165 1_455
Ge3 Ir23 2.441260 1_565
Ge3 Ir18 2.463253 1_555
Ge3 Ir1 2.479918 1_555
Ge3 Ir1 2.479918 1_455
Ge3 Ir3 2.508690 1_555
Ge3 Sm4 3.157944 1_565
Ge3 Sm4 3.157944 1_465
Ge3 Sm0 3.208165 1_455
Ge3 Sm0 3.208165 1_555
Ge4 Ir12 2.449605 1_554
Ge4 Ir9 2.481936 1_555
Ge4 Ir20 2.501299 1_565
Ge4 Ir7 2.546299 1_655
Ge4 Ir7 2.546299 1_555
Ge4 Ir14 2.630727 1_655
Ge4 Ir14 2.630727 1_555
Ge4 Sm7 3.153669 1_665
Ge4 Sm7 3.153669 1_565
Ge5 Ir13 2.449605 1_554
Ge5 Ir8 2.481936 1_555
Ge5 Ir20 2.501299 1_555
Ge5 Ir6 2.546299 1_655
Ge5 Ir6 2.546299 1_555
Ge5 Ir15 2.630727 1_555
Ge5 Ir15 2.630727 1_655
Ge5 Sm7 3.153669 1_555
Ge5 Sm7 3.153669 1_655
Ge6 Ir14 2.449605 1_556
Ge6 Ir11 2.481936 1_555
Ge6 Ir21 2.501299 1_555
Ge6 Ir5 2.546299 1_455
Ge6 Ir5 2.546299 1_555
Ge6 Ir12 2.630727 1_455
Ge6 Ir12 2.630727 1_555
Ge6 Sm6 3.153669 1_455
Ge6 Sm6 3.153669 1_555
Ge7 Ir15 2.449605 1_556
Ge7 Ir10 2.481936 1_555
Ge7 Ir21 2.501299 1_555
Ge7 Ir4 2.546299 1_555
Ge7 Ir4 2.546299 1_455
Ge7 Ir13 2.630727 1_455
Ge7 Ir13 2.630727 1_555
Ge7 Sm6 3.153669 1_455
Ge7 Sm6 3.153669 1_555
Ge8 Ir16 2.500517 1_555
Ge8 Ir5 2.502845 1_555
Ge8 Ir11 2.621304 1_655
Ge8 Ir11 2.621304 1_555
Ge8 Ir25 2.630406 1_665
Ge8 Ir25 2.630406 1_565
Ge8 Sm2 3.118802 1_555
Ge8 Sm2 3.118802 1_655
Ge9 Ir17 2.500517 1_555
Ge9 Ir4 2.502845 1_555
Ge9 Ir10 2.621304 1_655
Ge9 Ir10 2.621304 1_555
Ge9 Ir25 2.630406 1_555
Ge9 Ir25 2.630406 1_655
Ge9 Sm3 3.118802 1_555
Ge9 Sm3 3.118802 1_655
Ge10 Ir18 2.500517 1_555
Ge10 Ir7 2.502845 1_555
Ge10 Ir9 2.621304 1_555
Ge10 Ir9 2.621304 1_455
Ge10 Ir24 2.630406 1_455
Ge10 Ir24 2.630406 1_555
Ge10 Sm0 3.118802 1_555
Ge10 Sm0 3.118802 1_455
Ge11 Ir19 2.500517 1_555
Ge11 Ir6 2.502845 1_555
Ge11 Ir8 2.621304 1_455
Ge11 Ir8 2.621304 1_555
Ge11 Ir24 2.630406 1_455
Ge11 Ir24 2.630406 1_555
Ge11 Sm1 3.118802 1_555
Ge11 Sm1 3.118802 1_455
Ge12 Ir12 2.484143 1_545
Ge12 Ir13 2.484143 1_555
Ge12 Ir10 2.629840 1_655
Ge12 Ir11 2.629840 1_645
Ge12 Ir10 2.629840 1_555
Ge12 Ir11 2.629840 1_545
Ge12 Sm7 3.117724 1_556
Ge12 Sm7 3.117724 1_656
Ge13 Ir15 2.484143 1_555
Ge13 Ir14 2.484143 1_555
Ge13 Ir9 2.629840 1_555
Ge13 Ir9 2.629840 1_455
Ge13 Ir8 2.629840 1_555
Ge13 Ir8 2.629840 1_455
Ge13 Sm6 3.117724 1_554
Ge13 Sm6 3.117724 1_454
Ge14 Ir22 2.457849 1_555
Ge14 Ir4 2.485820 1_555
Ge14 Ir5 2.485820 1_555
Ge14 Ir21 2.509381 1_655
Ge14 Ir21 2.509381 1_555
Ge14 Sm2 3.183698 1_555
Ge14 Sm2 3.183698 1_655
Ge14 Sm3 3.183698 1_555
Ge14 Sm3 3.183698 1_655
Ge15 Ir23 2.457849 1_555
Ge15 Ir7 2.485820 1_545
Ge15 Ir6 2.485820 1_555
Ge15 Ir20 2.509381 1_455
Ge15 Ir20 2.509381 1_555
Ge15 Sm0 3.183698 1_445
Ge15 Sm0 3.183698 1_545
Ge15 Sm1 3.183698 1_555
Ge15 Sm1 3.183698 1_455
Ge16 Ir24 2.477602 1_555
Ge16 Ir1 2.516613 1_555
Ge16 Ir0 2.516613 1_555
Ge16 Ir18 2.584017 1_655
Ge16 Ir18 2.584017 1_555
Ge16 Ir19 2.584017 1_555
Ge16 Ir19 2.584017 1_655
Ge16 Sm5 3.148924 1_555
Ge16 Sm5 3.148924 1_655
Ge17 Ir25 2.477602 1_555
Ge17 Ir3 2.516613 1_545
Ge17 Ir2 2.516613 1_555
Ge17 Ir17 2.584017 1_555
Ge17 Ir17 2.584017 1_455
Ge17 Ir16 2.584017 1_545
Ge17 Ir16 2.584017 1_445
Ge17 Sm4 3.148924 1_555
Ge17 Sm4 3.148924 1_455
Ir0 Sm5 3.330359 1_555
Ir0 Sm5 3.330359 1_655
Ir0 Sm1 3.395822 1_555
Ir0 Sm4 3.428341 1_555
Ir1 Sm5 3.330359 1_555
Ir1 Sm5 3.330359 1_655
Ir1 Sm0 3.395822 1_555
Ir1 Sm4 3.428341 1_565
Ir2 Sm4 3.330359 1_555
Ir2 Sm4 3.330359 1_455
Ir2 Sm3 3.395822 1_555
Ir2 Sm5 3.428341 1_555
Ir3 Sm4 3.330359 1_565
Ir3 Sm4 3.330359 1_465
Ir3 Sm2 3.395822 1_555
Ir3 Sm5 3.428341 1_555
Ir4 Sm3 3.235447 1_555
Ir4 Sm3 3.235447 1_655
Ir4 Sm6 3.503197 1_555
Ir5 Sm2 3.235447 1_555
Ir5 Sm2 3.235447 1_655
Ir5 Sm6 3.503197 1_555
Ir6 Sm1 3.235447 1_555
Ir6 Sm1 3.235447 1_455
Ir6 Sm7 3.503197 1_555
Ir7 Sm0 3.235447 1_455
Ir7 Sm0 3.235447 1_555
Ir7 Sm7 3.503197 1_565
Ir8 Sm1 3.540502 1_555
Ir8 Sm6 3.544046 1_554
Ir9 Sm0 3.540502 1_555
Ir9 Sm6 3.544046 1_554
Ir10 Sm3 3.540502 1_555
Ir10 Sm7 3.544046 1_556
Ir11 Sm2 3.540502 1_555
Ir11 Sm7 3.544046 1_566
Ir12 Sm7 3.194677 1_566
Ir12 Sm7 3.194677 1_666
Ir12 Sm6 3.519626 1_555
Ir13 Sm7 3.194677 1_556
Ir13 Sm7 3.194677 1_656
Ir13 Sm6 3.519626 1_555
Ir14 Sm6 3.194677 1_554
Ir14 Sm6 3.194677 1_454
Ir14 Sm7 3.519626 1_565
Ir15 Sm6 3.194677 1_554
Ir15 Sm6 3.194677 1_454
Ir15 Sm7 3.519626 1_555
Ir16 Sm2 3.199295 1_555
Ir16 Sm2 3.199295 1_655
Ir16 Sm4 3.506644 1_565
Ir17 Sm3 3.199295 1_555
Ir17 Sm3 3.199295 1_655
Ir17 Sm4 3.506644 1_555
Ir18 Sm0 3.199295 1_455
Ir18 Sm0 3.199295 1_555
Ir18 Sm5 3.506644 1_555
Ir19 Sm1 3.199295 1_555
Ir19 Sm1 3.199295 1_455
Ir19 Sm5 3.506644 1_555
Ir20 Sm7 3.370251 1_655
Ir20 Sm7 3.370251 1_555
Ir20 Sm1 3.420227 1_555
Ir20 Sm0 3.420227 1_545
Ir21 Sm6 3.370251 1_455
Ir21 Sm6 3.370251 1_555
Ir21 Sm2 3.420227 1_555
Ir21 Sm3 3.420227 1_555
Ir22 Sm5 3.103822 1_555
Ir22 Sm5 3.103822 1_655
Ir22 Sm2 3.234791 1_555
Ir22 Sm2 3.234791 1_655
Ir22 Sm3 3.234791 1_555
Ir22 Sm3 3.234791 1_655
Ir23 Sm4 3.103822 1_555
Ir23 Sm4 3.103822 1_455
Ir23 Sm1 3.234791 1_555
Ir23 Sm1 3.234791 1_455
Ir23 Sm0 3.234791 1_445
Ir23 Sm0 3.234791 1_545
Ir24 Sm1 3.526887 1_555
Ir24 Sm0 3.526887 1_555
Ir25 Sm3 3.526887 1_555
Ir25 Sm2 3.526887 1_545
