# generated using pymatgen
data_MgV2O4
_symmetry_space_group_name_H-M   'P 1'
_cell_length_a   6.05262088
_cell_length_b   6.05262088
_cell_length_c   14.83510556
_cell_angle_alpha   89.67470558
_cell_angle_beta   89.67470558
_cell_angle_gamma   59.92659331
_symmetry_Int_Tables_number   1
_chemical_formula_structural   MgV2O4
_chemical_formula_sum   'Mg6 V12 O24'
_cell_volume   470.30237183
_cell_formula_units_Z   6
loop_
 _symmetry_equiv_pos_site_id
 _symmetry_equiv_pos_as_xyz
  1  'x, y, z'
loop_
 _atom_site_type_symbol
 _atom_site_label
 _atom_site_symmetry_multiplicity
 _atom_site_fract_x
 _atom_site_fract_y
 _atom_site_fract_z
 _atom_site_occupancy
  Mg  Mg0  1  0.33614900  0.33614900  0.04133100  1
  Mg  Mg1  1  0.66531800  0.66531800  0.33319500  1
  Mg  Mg2  1  0.83276500  0.83276500  0.16748200  1
  Mg  Mg3  1  0.33013600  0.33013600  0.66595200  1
  Mg  Mg4  1  0.49823200  0.49823200  0.49998900  1
  Mg  Mg5  1  0.16661800  0.16661800  0.83270800  1
  V  V0  1  0.83603100  0.32807000  0.16699400  1
  V  V1  1  0.00278000  0.00278000  0.37762500  1
  V  V2  1  0.99855700  0.99855700  0.00310100  1
  V  V3  1  0.32807000  0.83603100  0.16699400  1
  V  V4  1  0.49964200  0.99723400  0.49977500  1
  V  V5  1  0.66860200  0.66860200  0.70906100  1
  V  V6  1  0.99723400  0.49964200  0.49977500  1
  V  V7  1  0.16676200  0.66093700  0.83306100  1
  V  V8  1  0.32733500  0.32733500  0.28974600  1
  V  V9  1  0.66093700  0.16676100  0.83306100  1
  V  V10  1  0.99379800  0.99379800  0.62416700  1
  V  V11  1  0.66231500  0.66231500  0.95989100  1
  O  O0  1  0.69748900  0.15895600  0.08575200  1
  O  O1  1  0.00109500  0.00109500  0.24540300  1
  O  O2  1  0.15895600  0.69748900  0.08575200  1
  O  O3  1  0.15502500  0.15502500  0.08860200  1
  O  O4  1  0.35396200  0.82250500  0.41983600  1
  O  O5  1  0.50551100  0.50551100  0.24482900  1
  O  O6  1  0.66729500  0.66729500  0.57635500  1
  O  O7  1  0.50614400  0.98009500  0.24634700  1
  O  O8  1  0.82250500  0.35396200  0.41983600  1
  O  O9  1  0.66345900  0.66345900  0.09054900  1
  O  O10  1  0.82427100  0.82427100  0.42098300  1
  O  O11  1  0.98009500  0.50614400  0.24634700  1
  O  O12  1  0.01720400  0.49548600  0.75261200  1
  O  O13  1  0.17178100  0.17178100  0.57909300  1
  O  O14  1  0.16707000  0.64214000  0.57866500  1
  O  O15  1  0.49548600  0.01720400  0.75261200  1
  O  O16  1  0.33352100  0.33352100  0.90661700  1
  O  O17  1  0.32925300  0.32925300  0.42336600  1
  O  O18  1  0.49110600  0.49110600  0.75464500  1
  O  O19  1  0.64214000  0.16707000  0.57866500  1
  O  O20  1  0.84010900  0.84010900  0.91355800  1
  O  O21  1  0.83866600  0.30746900  0.91582200  1
  O  O22  1  0.99765600  0.99765600  0.75733700  1
  O  O23  1  0.30746900  0.83866600  0.91582200  1
loop_
_geom_bond_atom_site_label_1
_geom_bond_atom_site_label_2
_geom_bond_distance
_geom_bond_site_symmetry_2
Mg0 O16 1.998867 1_554
Mg0 O2 2.006303 1_555
Mg0 O0 2.006303 1_555
Mg0 O3 2.020506 1_555
Mg1 O4 2.073190 1_555
Mg1 O8 2.073190 1_555
Mg1 O11 2.089175 1_555
Mg1 O7 2.089175 1_555
Mg1 O10 2.122125 1_555
Mg1 O5 2.134503 1_555
Mg2 O7 2.071473 1_555
Mg2 O11 2.071473 1_555
Mg2 O0 2.098184 1_565
Mg2 O2 2.098184 1_655
Mg2 O1 2.116459 1_665
Mg2 O9 2.117022 1_555
Mg3 O15 2.080633 1_555
Mg3 O12 2.080633 1_555
Mg3 O14 2.082281 1_555
Mg3 O19 2.082281 1_555
Mg3 O13 2.108656 1_555
Mg3 O18 2.147136 1_555
Mg4 O4 2.072737 1_555
Mg4 O8 2.072737 1_555
Mg4 O19 2.091363 1_555
Mg4 O14 2.091363 1_555
Mg4 O6 2.110303 1_555
Mg4 O17 2.111630 1_555
Mg5 O16 2.071505 1_555
Mg5 O12 2.091201 1_555
Mg5 O15 2.091201 1_555
Mg5 O22 2.101437 1_445
Mg5 O23 2.115505 1_545
Mg5 O21 2.115505 1_455
O0 V2 1.995406 1_545
O0 V0 2.022169 1_555
O1 V1 1.961723 1_555
O1 V3 2.067197 1_545
O1 V0 2.067197 1_455
O2 V2 1.995406 1_455
O2 V3 2.022169 1_555
O3 V3 2.034424 1_545
O3 V0 2.034424 1_455
O3 V2 2.080580 1_445
O4 V1 1.945170 1_565
O4 V4 2.064699 1_555
O5 V8 1.979729 1_555
O5 V3 2.079271 1_555
O5 V0 2.079271 1_555
O6 V5 1.968845 1_555
O6 V6 2.065128 1_555
O6 V4 2.065128 1_555
O7 V8 1.931529 1_565
O7 V3 2.067799 1_555
O8 V1 1.945170 1_655
O8 V6 2.064699 1_555
O9 V11 1.938441 1_554
O9 V3 2.088112 1_555
O9 V0 2.088112 1_555
O10 V1 1.975510 1_665
O10 V6 2.061359 1_555
O10 V4 2.061359 1_555
O11 V8 1.931529 1_655
O11 V0 2.067799 1_555
O12 V5 1.938891 1_455
O12 V7 2.044740 1_555
O13 V10 1.978594 1_445
O13 V4 2.079692 1_545
O13 V6 2.079692 1_455
O14 V10 1.963914 1_455
O14 V6 2.020879 1_455
O15 V5 1.938891 1_545
O15 V9 2.044735 1_555
O16 V7 2.029784 1_555
O16 V9 2.029784 1_555
O17 V8 1.982501 1_555
O17 V6 2.072979 1_455
O17 V4 2.072979 1_545
O18 V5 1.976318 1_555
O18 V7 2.056459 1_555
O18 V9 2.056463 1_555
O19 V10 1.963914 1_545
O19 V4 2.020879 1_545
O20 V11 1.983010 1_555
O20 V9 2.085690 1_565
O20 V7 2.085694 1_655
O20 V2 2.134187 1_556
O21 V11 1.972310 1_555
O21 V2 2.069349 1_546
O21 V9 2.082057 1_555
O22 V10 1.976270 1_555
O22 V9 2.087966 1_565
O22 V7 2.087966 1_655
O23 V11 1.972310 1_555
O23 V2 2.069349 1_456
O23 V7 2.082053 1_555
