# generated using pymatgen
data_PrAl7Au3
_symmetry_space_group_name_H-M   'P 1'
_cell_length_a   8.52567210
_cell_length_b   8.52567210
_cell_length_c   8.52567208
_cell_angle_alpha   57.29135674
_cell_angle_beta   57.29135674
_cell_angle_gamma   57.29135430
_symmetry_Int_Tables_number   1
_chemical_formula_structural   PrAl7Au3
_chemical_formula_sum   'Pr2 Al14 Au6'
_cell_volume   410.87068805
_cell_formula_units_Z   2
loop_
 _symmetry_equiv_pos_site_id
 _symmetry_equiv_pos_as_xyz
  1  'x, y, z'
loop_
 _atom_site_type_symbol
 _atom_site_label
 _atom_site_symmetry_multiplicity
 _atom_site_fract_x
 _atom_site_fract_y
 _atom_site_fract_z
 _atom_site_occupancy
  Pr  Pr0  1  0.00000000  0.00000000  0.00000000  1
  Pr  Pr1  1  0.50000000  0.50000000  0.50000000  1
  Al  Al0  1  0.93120300  0.14724800  0.33161500  1
  Al  Al1  1  0.33161500  0.93120300  0.14724800  1
  Al  Al2  1  0.14724800  0.33161500  0.93120300  1
  Al  Al3  1  0.56879700  0.16838500  0.35275200  1
  Al  Al4  1  0.35275200  0.56879700  0.16838500  1
  Al  Al5  1  0.16838500  0.35275200  0.56879700  1
  Al  Al6  1  0.06879700  0.85275200  0.66838500  1
  Al  Al7  1  0.66838500  0.06879700  0.85275200  1
  Al  Al8  1  0.75000000  0.75000000  0.75000000  1
  Al  Al9  1  0.25000000  0.25000000  0.25000000  1
  Al  Al10  1  0.83161500  0.64724800  0.43120300  1
  Al  Al11  1  0.64724800  0.43120300  0.83161500  1
  Al  Al12  1  0.43120300  0.83161500  0.64724800  1
  Al  Al13  1  0.85275200  0.66838500  0.06879700  1
  Au  Au0  1  0.25000000  0.57049800  0.92950200  1
  Au  Au1  1  0.92950200  0.25000000  0.57049800  1
  Au  Au2  1  0.57049800  0.92950200  0.25000000  1
  Au  Au3  1  0.75000000  0.42950200  0.07049800  1
  Au  Au4  1  0.07049800  0.75000000  0.42950200  1
  Au  Au5  1  0.42950200  0.07049800  0.75000000  1
loop_
_geom_bond_atom_site_label_1
_geom_bond_atom_site_label_2
_geom_bond_distance
_geom_bond_site_symmetry_2
Al0 Au1 2.607313 1_555
Al0 Au3 2.653841 1_555
Al0 Au4 2.692008 1_645
Al0 Pr0 3.340838 1_655
Al0 Pr1 3.410897 1_555
Al1 Au2 2.607313 1_555
Al1 Au4 2.653842 1_555
Al1 Au5 2.692008 1_564
Al1 Pr0 3.340838 1_565
Al1 Pr1 3.410897 1_555
Al2 Au0 2.607313 1_555
Al2 Au5 2.653841 1_555
Al2 Au3 2.692008 1_456
Al2 Pr0 3.340838 1_556
Al2 Pr1 3.410897 1_555
Al3 Au2 2.607313 1_545
Al3 Au3 2.653842 1_555
Al3 Au5 2.692008 1_555
Al3 Pr1 3.340838 1_555
Al3 Pr0 3.410897 1_655
Al4 Au0 2.607313 1_554
Al4 Au4 2.653841 1_555
Al4 Au3 2.692008 1_555
Al4 Pr1 3.340838 1_555
Al4 Pr0 3.410897 1_565
Al5 Au1 2.607313 1_455
Al5 Au5 2.653841 1_555
Al5 Au4 2.692008 1_555
Al5 Pr1 3.340838 1_555
Al5 Pr0 3.410897 1_556
Al6 Au4 2.607313 1_555
Al6 Au0 2.653841 1_555
Al6 Au1 2.692008 1_465
Al6 Pr0 3.340838 1_566
Al6 Pr1 3.410897 1_555
Al7 Au5 2.607313 1_555
Al7 Au1 2.653842 1_555
Al7 Au2 2.692008 1_546
Al7 Pr0 3.340838 1_656
Al7 Pr1 3.410897 1_555
Al8 Au5 2.619838 1_565
Al8 Au4 2.619838 1_655
Al8 Au3 2.619838 1_556
Al9 Au2 2.619838 1_545
Al9 Au0 2.619838 1_554
Al9 Au1 2.619838 1_455
Al10 Au4 2.607313 1_655
Al10 Au2 2.653841 1_555
Al10 Au1 2.692008 1_555
Al10 Pr1 3.340838 1_555
Al10 Pr0 3.410897 1_665
Al11 Au3 2.607313 1_556
Al11 Au1 2.653841 1_555
Al11 Au0 2.692008 1_555
Al11 Pr1 3.340838 1_555
Al11 Pr0 3.410897 1_656
Al12 Au5 2.607313 1_565
Al12 Au0 2.653842 1_555
Al12 Au2 2.692008 1_555
Al12 Pr1 3.340838 1_555
Al12 Pr0 3.410897 1_566
Al13 Au3 2.607313 1_555
Al13 Au2 2.653841 1_555
Al13 Au0 2.692008 1_654
Al13 Pr0 3.340838 1_665
Al13 Pr1 3.410897 1_555
Au0 Pr0 3.297283 1_566
Au0 Pr1 3.297283 1_555
Au1 Pr1 3.297283 1_555
Au1 Pr0 3.297283 1_656
Au2 Pr1 3.297283 1_555
Au2 Pr0 3.297283 1_665
Au3 Pr0 3.297283 1_655
Au3 Pr1 3.297283 1_555
Au4 Pr1 3.297283 1_555
Au4 Pr0 3.297283 1_565
Au5 Pr0 3.297283 1_556
Au5 Pr1 3.297283 1_555
