# generated using pymatgen
data_Li9Mn2Co5O16
_symmetry_space_group_name_H-M   'P 1'
_cell_length_a   2.91201600
_cell_length_b   5.11494524
_cell_length_c   19.29518003
_cell_angle_alpha   94.31089315
_cell_angle_beta   92.61579884
_cell_angle_gamma   90.76107306
_symmetry_Int_Tables_number   1
_chemical_formula_structural   Li9Mn2Co5O16
_chemical_formula_sum   'Li9 Mn2 Co5 O16'
_cell_volume   286.24589102
_cell_formula_units_Z   1
loop_
 _symmetry_equiv_pos_site_id
 _symmetry_equiv_pos_as_xyz
  1  'x, y, z'
loop_
 _atom_site_type_symbol
 _atom_site_label
 _atom_site_symmetry_multiplicity
 _atom_site_fract_x
 _atom_site_fract_y
 _atom_site_fract_z
 _atom_site_occupancy
  Li  Li0  1  0.50000000  0.50000000  0.50000000  1
  Li  Li1  1  0.99588700  0.63072800  0.37869900  1
  Li  Li2  1  0.50137100  0.74430400  0.24908000  1
  Li  Li3  1  0.99987000  0.87611800  0.12513000  1
  Li  Li4  1  0.50000000  0.00000000  0.00000000  1
  Li  Li5  1  0.00013000  0.12388200  0.87487000  1
  Li  Li6  1  0.49862900  0.25569600  0.75092000  1
  Li  Li7  1  0.00411300  0.36927200  0.62130100  1
  Li  Li8  1  0.00000000  0.00000000  0.50000000  1
  Mn  Mn0  1  0.50515300  0.88103700  0.62165700  1
  Mn  Mn1  1  0.49484700  0.11896300  0.37834300  1
  Co  Co0  1  0.98888200  0.24821300  0.25039500  1
  Co  Co1  1  0.50238800  0.36948800  0.12594300  1
  Co  Co2  1  0.00000000  0.50000000  0.00000000  1
  Co  Co3  1  0.49761200  0.63051200  0.87405700  1
  Co  Co4  1  0.01111800  0.75178700  0.74960500  1
  O  O0  1  0.98951500  0.70681500  0.56977300  1
  O  O1  1  0.50629900  0.83430700  0.42976500  1
  O  O2  1  0.97534200  0.96869400  0.31599600  1
  O  O3  1  0.52500100  0.07538800  0.19085800  1
  O  O4  1  0.01670200  0.20302200  0.06614000  1
  O  O5  1  0.51490700  0.32982800  0.94038600  1
  O  O6  1  0.00900100  0.46119700  0.81339200  1
  O  O7  1  0.54155700  0.59062900  0.68934600  1
  O  O8  1  0.01048500  0.29318500  0.43022700  1
  O  O9  1  0.45844300  0.40937100  0.31065400  1
  O  O10  1  0.99099900  0.53880300  0.18660800  1
  O  O11  1  0.48509300  0.67017200  0.05961400  1
  O  O12  1  0.98329800  0.79697800  0.93386000  1
  O  O13  1  0.47499900  0.92461200  0.80914200  1
  O  O14  1  0.02465800  0.03130600  0.68400400  1
  O  O15  1  0.49370100  0.16569300  0.57023500  1
loop_
_geom_bond_atom_site_label_1
_geom_bond_atom_site_label_2
_geom_bond_distance
_geom_bond_site_symmetry_2
Li0 O8 2.129358 1_555
Li0 O0 2.129358 1_555
Li0 O1 2.260682 1_555
Li0 O15 2.260682 1_555
Li0 O0 2.269728 1_455
Li0 O8 2.269728 1_655
Li1 O1 1.983758 1_655
Li1 O1 2.025134 1_555
Li1 O8 2.056047 1_655
Li1 O2 2.183173 1_555
Li1 O9 2.190557 1_655
Li1 O9 2.235399 1_555
Li2 O10 2.090741 1_455
Li2 O3 2.103474 1_565
Li2 O2 2.112309 1_555
Li2 O10 2.144062 1_555
Li2 O9 2.162395 1_555
Li2 O2 2.309820 1_455
Li3 O4 2.093537 1_665
Li3 O11 2.130661 1_555
Li3 O3 2.136046 1_565
Li3 O3 2.138448 1_665
Li3 O10 2.166548 1_555
Li3 O11 2.169471 1_655
Li4 O5 2.113169 1_554
Li4 O11 2.113169 1_545
Li4 O12 2.134235 1_444
Li4 O4 2.134235 1_655
Li4 O12 2.165927 1_544
Li4 O4 2.165927 1_555
Li5 O12 2.093537 1_445
Li5 O5 2.130661 1_555
Li5 O13 2.136046 1_545
Li5 O13 2.138448 1_445
Li5 O6 2.166548 1_555
Li5 O5 2.169471 1_455
Li6 O6 2.090741 1_655
Li6 O13 2.103474 1_545
Li6 O14 2.112309 1_555
Li6 O6 2.144062 1_555
Li6 O7 2.162395 1_555
Li6 O14 2.309820 1_655
Li7 O15 1.983758 1_455
Li7 O15 2.025134 1_555
Li7 O0 2.056047 1_455
Li7 O14 2.183173 1_555
Li7 O7 2.190557 1_455
Li7 O7 2.235399 1_555
Li8 O1 2.058845 1_445
Li8 O15 2.058845 1_555
Li8 O0 2.090057 1_445
Li8 O8 2.090057 1_555
Li8 O1 2.184364 1_545
Li8 O15 2.184364 1_455
Mn0 O15 1.822348 1_565
Mn0 O0 1.934971 1_455
Mn0 O0 1.952929 1_555
Mn0 O14 1.997635 1_665
Mn0 O14 2.009717 1_565
Mn0 O7 2.051035 1_555
Mn1 O1 1.822348 1_545
Mn1 O8 1.934971 1_655
Mn1 O8 1.952929 1_555
Mn1 O2 1.997635 1_445
Mn1 O2 2.009717 1_545
Mn1 O9 2.051035 1_555
Co0 O9 1.892600 1_655
Co0 O3 1.897322 1_555
Co0 O2 1.980656 1_545
Co0 O10 1.999894 1_555
Co0 O9 2.114471 1_555
Co0 O3 2.141525 1_655
Co1 O4 1.930842 1_555
Co1 O10 1.951285 1_555
Co1 O3 2.028426 1_555
Co1 O11 2.073157 1_555
Co1 O4 2.084104 1_655
Co1 O10 2.092557 1_455
Co2 O5 1.935117 1_454
Co2 O11 1.935117 1_555
Co2 O12 2.055768 1_454
Co2 O4 2.055768 1_555
Co2 O5 2.090591 1_554
Co2 O11 2.090591 1_455
Co3 O12 1.930842 1_555
Co3 O6 1.951285 1_555
Co3 O13 2.028426 1_555
Co3 O5 2.073157 1_555
Co3 O12 2.084104 1_455
Co3 O6 2.092557 1_655
Co4 O7 1.892600 1_455
Co4 O13 1.897322 1_555
Co4 O14 1.980656 1_565
Co4 O6 1.999894 1_555
Co4 O7 2.114471 1_555
Co4 O13 2.141525 1_455
