# generated using pymatgen
data_Ba2V2O5
_symmetry_space_group_name_H-M   'P 1'
_cell_length_a   4.03122183
_cell_length_b   8.09926439
_cell_length_c   9.24548410
_cell_angle_alpha   63.93864741
_cell_angle_beta   89.93356386
_cell_angle_gamma   89.93943636
_symmetry_Int_Tables_number   1
_chemical_formula_structural   Ba2V2O5
_chemical_formula_sum   'Ba4 V4 O10'
_cell_volume   271.17185899
_cell_formula_units_Z   2
loop_
 _symmetry_equiv_pos_site_id
 _symmetry_equiv_pos_as_xyz
  1  'x, y, z'
loop_
 _atom_site_type_symbol
 _atom_site_label
 _atom_site_symmetry_multiplicity
 _atom_site_fract_x
 _atom_site_fract_y
 _atom_site_fract_z
 _atom_site_occupancy
  Ba  Ba0  1  0.00408500  0.99974500  0.99931500  1
  Ba  Ba1  1  0.99695000  0.50060700  0.99932400  1
  Ba  Ba2  1  0.99984100  0.74932400  0.49886900  1
  Ba  Ba3  1  0.00167600  0.24949800  0.50057900  1
  V  V0  1  0.51155900  0.61938500  0.26090200  1
  V  V1  1  0.51235500  0.37938500  0.73959800  1
  V  V2  1  0.48822700  0.11996700  0.26036200  1
  V  V3  1  0.49069800  0.87977000  0.73794700  1
  O  O0  1  0.50557900  0.00010100  0.50044900  1
  O  O1  1  0.49338800  0.50000100  0.50021600  1
  O  O2  1  0.49992200  0.88430600  0.23137800  1
  O  O3  1  0.49891800  0.38445200  0.23096300  1
  O  O4  1  0.49793200  0.61590600  0.76931800  1
  O  O5  1  0.50079300  0.11612800  0.77008300  1
  O  O6  1  0.00747400  0.13566600  0.22829700  1
  O  O7  1  0.99187000  0.63563800  0.22864400  1
  O  O8  1  0.00695500  0.86522700  0.77232300  1
  O  O9  1  0.99178600  0.36489500  0.77143600  1
loop_
_geom_bond_atom_site_label_1
_geom_bond_atom_site_label_2
_geom_bond_distance
_geom_bond_site_symmetry_2
Ba0 O8 2.756889 1_555
Ba0 O5 2.761952 1_565
Ba0 O7 2.774994 1_456
Ba0 O9 2.777196 1_465
Ba0 O2 2.777802 1_556
Ba0 O6 2.782423 1_566
Ba0 O5 2.783371 1_465
Ba0 O2 2.799893 1_456
Ba1 O8 2.771572 1_655
Ba1 O9 2.771788 1_555
Ba1 O4 2.775238 1_555
Ba1 O6 2.778803 1_656
Ba1 O4 2.778838 1_655
Ba1 O3 2.779576 1_556
Ba1 O7 2.780086 1_556
Ba1 O3 2.793208 1_656
Ba2 O1 2.829457 1_655
Ba2 O0 2.848340 1_565
Ba2 O1 2.869260 1_555
Ba2 O0 2.883918 1_665
Ba2 O2 2.998798 1_655
Ba2 O2 3.000660 1_555
Ba2 O4 3.014052 1_655
Ba2 O7 3.018645 1_555
Ba2 O4 3.021984 1_555
Ba2 O9 3.025182 1_555
Ba2 O6 3.028552 1_665
Ba2 O8 3.059326 1_655
Ba3 O1 2.836904 1_555
Ba3 O0 2.844348 1_455
Ba3 O0 2.863554 1_555
Ba3 O1 2.880996 1_455
Ba3 O3 3.004233 1_555
Ba3 O5 3.010947 1_555
Ba3 O5 3.013372 1_455
Ba3 O8 3.021335 1_545
Ba3 O3 3.021430 1_455
Ba3 O7 3.032264 1_455
Ba3 O9 3.033542 1_455
Ba3 O6 3.037576 1_555
O0 V3 1.973417 1_545
O0 V2 1.995314 1_555
O1 V0 1.988908 1_555
O1 V1 1.989707 1_555
O2 V0 2.041024 1_555
O2 V2 2.041148 1_565
O3 V2 2.037901 1_555
O3 V0 2.040301 1_555
O4 V3 2.026682 1_555
O4 V1 2.052027 1_555
O5 V1 2.024840 1_555
O5 V3 2.062651 1_545
O6 V2 1.956444 1_555
O6 V2 2.109868 1_455
O7 V0 1.954483 1_555
O7 V0 2.112249 1_655
O8 V3 1.970745 1_555
O8 V3 2.100995 1_455
O9 V1 1.950950 1_555
O9 V1 2.114942 1_655
