# generated using pymatgen
data_Ca2Al4Si8O33
_symmetry_space_group_name_H-M   'P 1'
_cell_length_a   7.58200100
_cell_length_b   10.00311126
_cell_length_c   10.10682446
_cell_angle_alpha   82.96878062
_cell_angle_beta   74.83107400
_cell_angle_gamma   75.37138509
_symmetry_Int_Tables_number   1
_chemical_formula_structural   Ca2Al4Si8O33
_chemical_formula_sum   'Ca2 Al4 Si8 O33'
_cell_volume   714.54443460
_cell_formula_units_Z   1
loop_
 _symmetry_equiv_pos_site_id
 _symmetry_equiv_pos_as_xyz
  1  'x, y, z'
loop_
 _atom_site_type_symbol
 _atom_site_label
 _atom_site_symmetry_multiplicity
 _atom_site_fract_x
 _atom_site_fract_y
 _atom_site_fract_z
 _atom_site_occupancy
  Ca  Ca0  1  0.72700000  0.25950800  0.26233100  1
  Ca  Ca1  1  0.27683800  0.74571500  0.74105800  1
  Al  Al0  1  0.73101300  0.17791900  0.56737500  1
  Al  Al1  1  0.73400800  0.56689100  0.17675400  1
  Al  Al2  1  0.26838200  0.82183600  0.43476700  1
  Al  Al3  1  0.26621900  0.43447200  0.82332200  1
  Si  Si0  1  0.14592900  0.14676200  0.38106700  1
  Si  Si1  1  0.14721100  0.38023400  0.14548400  1
  Si  Si2  1  0.85467200  0.85243800  0.61952300  1
  Si  Si3  1  0.85447400  0.61982500  0.85435300  1
  Si  Si4  1  0.31650100  0.30385900  0.53917900  1
  Si  Si5  1  0.31825800  0.53852500  0.30206700  1
  Si  Si6  1  0.68341200  0.69605700  0.46164100  1
  Si  Si7  1  0.68146400  0.46184900  0.69878800  1
  O  O0  1  0.26423000  0.45013100  0.44890900  1
  O  O1  1  0.73583500  0.54924200  0.55108200  1
  O  O2  1  0.72547900  0.29931800  0.67740300  1
  O  O3  1  0.72880900  0.67420700  0.30049500  1
  O  O4  1  0.27399300  0.70096400  0.32391300  1
  O  O5  1  0.26987500  0.32720300  0.69988300  1
  O  O6  1  0.24992800  0.98731000  0.35655900  1
  O  O7  1  0.25063300  0.35465000  0.98710200  1
  O  O8  1  0.75023300  0.01185100  0.64349900  1
  O  O9  1  0.74905800  0.64624400  0.01273400  1
  O  O10  1  0.21566500  0.24014000  0.24013600  1
  O  O11  1  0.78302500  0.75961100  0.76039400  1
  O  O12  1  0.91526900  0.17295200  0.41191400  1
  O  O13  1  0.91669300  0.41018200  0.17069100  1
  O  O14  1  0.08489100  0.82699900  0.59021400  1
  O  O15  1  0.08403800  0.59164400  0.83018000  1
  O  O16  1  0.19741200  0.19851600  0.51119700  1
  O  O17  1  0.19894500  0.51149200  0.19774900  1
  O  O18  1  0.80439600  0.80046100  0.48888900  1
  O  O19  1  0.80158100  0.48889000  0.80270800  1
  O  O20  1  0.01155600  0.02667000  0.14032200  1
  O  O21  1  0.98402800  0.97219400  0.86205300  1
  O  O22  1  0.54368000  0.23472000  0.47997200  1
  O  O23  1  0.54516700  0.47823100  0.23330800  1
  O  O24  1  0.45675600  0.76550100  0.52094600  1
  O  O25  1  0.45515200  0.52302700  0.76756200  1
  O  O26  1  0.38794600  0.92778600  0.82481600  1
  O  O27  1  0.41070000  0.86813700  0.94571100  1
  O  O28  1  0.60114600  0.07229300  0.16088000  1
  O  O29  1  0.62492900  0.16181600  0.06589100  1
  O  O30  1  0.47480500  0.93042700  0.01636900  1
  O  O31  1  0.99144000  0.09430900  0.83247800  1
  O  O32  1  0.00733000  0.90398900  0.16933500  1
loop_
_geom_bond_atom_site_label_1
_geom_bond_atom_site_label_2
_geom_bond_distance
_geom_bond_site_symmetry_2
Ca0 O13 2.292189 1_555
Ca0 O12 2.292922 1_555
Ca0 O22 2.296176 1_555
Ca0 O23 2.303176 1_555
Ca0 O29 2.675207 1_555
Ca0 O28 2.711785 1_555
Ca0 O20 2.893579 1_655
Ca1 O24 2.299883 1_555
Ca1 O14 2.315893 1_555
Ca1 O25 2.320330 1_555
Ca1 O15 2.330775 1_555
Ca1 O26 2.503790 1_555
Ca1 O21 2.876398 1_455
Al0 O2 1.730180 1_555
Al0 O8 1.730966 1_555
Al0 O22 1.801861 1_555
Al0 O12 1.805049 1_555
Al1 O3 1.731913 1_555
Al1 O9 1.736592 1_555
Al1 O23 1.803410 1_555
Al1 O13 1.806095 1_555
Al2 O4 1.731964 1_555
Al2 O6 1.733440 1_555
Al2 O24 1.800117 1_555
Al2 O14 1.801715 1_555
Al3 O5 1.732977 1_555
Al3 O7 1.735866 1_555
Al3 O25 1.802931 1_555
Al3 O15 1.806729 1_555
O0 Si5 1.641870 1_555
O0 Si4 1.643115 1_555
O1 Si6 1.643202 1_555
O1 Si7 1.644143 1_555
O2 Si7 1.604864 1_555
O3 Si6 1.604557 1_555
O4 Si5 1.604765 1_555
O5 Si4 1.602566 1_555
O6 Si0 1.608239 1_565
O7 Si1 1.607726 1_556
O8 Si2 1.607783 1_545
O9 Si3 1.611930 1_554
O10 Si0 1.646352 1_555
O10 Si1 1.647006 1_555
O11 Si2 1.646442 1_555
O11 Si3 1.646818 1_555
O12 Si0 1.651542 1_655
O13 Si1 1.652453 1_655
O14 Si2 1.650105 1_455
O15 Si3 1.647778 1_455
O16 Si0 1.639381 1_555
O16 Si4 1.640995 1_555
O17 Si1 1.641705 1_555
O17 Si5 1.641822 1_555
O18 Si2 1.640235 1_555
O18 Si6 1.641488 1_555
O19 Si3 1.640418 1_555
O19 Si7 1.643257 1_555
O20 O32 1.232824 1_545
O21 O31 1.233342 1_565
O22 Si4 1.662377 1_555
O23 Si5 1.661135 1_555
O24 Si6 1.659811 1_555
O25 Si7 1.658771 1_555
O26 O27 1.326112 1_555
O27 O30 1.256193 1_556
O28 O29 1.239602 1_555
