# generated using pymatgen
data_Sr7Ca(IrO6)2
_symmetry_space_group_name_H-M   'P 1'
_cell_length_a   6.91145974
_cell_length_b   6.91145974
_cell_length_c   6.91146040
_cell_angle_alpha   90.95029015
_cell_angle_beta   90.95029015
_cell_angle_gamma   90.95029401
_symmetry_Int_Tables_number   1
_chemical_formula_structural   Sr7Ca(IrO6)2
_chemical_formula_sum   'Sr7 Ca1 Ir2 O12'
_cell_volume   330.01079455
_cell_formula_units_Z   1
loop_
 _symmetry_equiv_pos_site_id
 _symmetry_equiv_pos_as_xyz
  1  'x, y, z'
loop_
 _atom_site_type_symbol
 _atom_site_label
 _atom_site_symmetry_multiplicity
 _atom_site_fract_x
 _atom_site_fract_y
 _atom_site_fract_z
 _atom_site_occupancy
  Sr  Sr0  1  0.13762700  0.86237300  0.50000000  1
  Sr  Sr1  1  0.50000000  0.13762700  0.86237300  1
  Sr  Sr2  1  0.86237300  0.50000000  0.13762700  1
  Sr  Sr3  1  0.00000000  0.36550600  0.63449400  1
  Sr  Sr4  1  0.63449400  0.00000000  0.36550600  1
  Sr  Sr5  1  0.36550600  0.63449400  0.00000000  1
  Sr  Sr6  1  0.00000000  0.00000000  0.00000000  1
  Ca  Ca0  1  0.50000000  0.50000000  0.50000000  1
  Ir  Ir0  1  0.74659200  0.74659200  0.74659200  1
  Ir  Ir1  1  0.25340800  0.25340800  0.25340800  1
  O  O0  1  0.46217700  0.79842600  0.66904500  1
  O  O1  1  0.66904500  0.46217700  0.79842600  1
  O  O2  1  0.79842600  0.66904500  0.46217700  1
  O  O3  1  0.17822400  0.30885200  0.96725100  1
  O  O4  1  0.96725100  0.17822400  0.30885200  1
  O  O5  1  0.30885200  0.96725100  0.17822400  1
  O  O6  1  0.03274900  0.69114800  0.82177600  1
  O  O7  1  0.82177600  0.03274900  0.69114800  1
  O  O8  1  0.69114800  0.82177600  0.03274900  1
  O  O9  1  0.33095500  0.20157400  0.53782300  1
  O  O10  1  0.53782300  0.33095500  0.20157400  1
  O  O11  1  0.20157400  0.53782300  0.33095500  1
loop_
_geom_bond_atom_site_label_1
_geom_bond_atom_site_label_2
_geom_bond_distance
_geom_bond_site_symmetry_2
Ca0 O9 2.373943 1_555
Ca0 O2 2.373943 1_555
Ca0 O11 2.373943 1_555
Ca0 O0 2.373943 1_555
Ca0 O10 2.373943 1_555
Ca0 O1 2.373943 1_555
Ir0 O1 2.067473 1_555
Ir0 O0 2.067473 1_555
Ir0 O2 2.067474 1_555
Ir0 O7 2.079918 1_565
Ir0 O6 2.079918 1_655
Ir0 O8 2.079918 1_556
Ir1 O10 2.067473 1_555
Ir1 O11 2.067473 1_555
Ir1 O9 2.067474 1_555
Ir1 O4 2.079918 1_455
Ir1 O5 2.079918 1_545
Ir1 O3 2.079918 1_554
O0 Sr0 2.560277 1_555
O0 Sr5 2.659659 1_556
O0 Sr1 2.685886 1_565
O0 Sr4 2.808073 1_565
O1 Sr1 2.560276 1_555
O1 Sr3 2.659658 1_655
O1 Sr2 2.685886 1_556
O1 Sr5 2.808073 1_556
O2 Sr2 2.560277 1_555
O2 Sr4 2.659658 1_565
O2 Sr0 2.685885 1_655
O2 Sr3 2.808073 1_655
O3 Sr6 2.462354 1_556
O3 Sr5 2.582424 1_556
O3 Sr3 2.629025 1_555
O3 Sr1 2.642750 1_555
O3 Sr2 2.833149 1_456
O4 Sr6 2.462354 1_655
O4 Sr3 2.582424 1_655
O4 Sr4 2.629025 1_555
O4 Sr2 2.642750 1_555
O4 Sr0 2.833149 1_645
O5 Sr6 2.462354 1_565
O5 Sr4 2.582424 1_565
O5 Sr5 2.629025 1_555
O5 Sr0 2.642750 1_555
O5 Sr1 2.833149 1_564
O6 Sr6 2.462354 1_566
O6 Sr3 2.582424 1_555
O6 Sr5 2.629025 1_556
O6 Sr0 2.642750 1_555
O6 Sr2 2.833149 1_456
O7 Sr6 2.462354 1_656
O7 Sr4 2.582424 1_555
O7 Sr3 2.629025 1_655
O7 Sr1 2.642750 1_555
O7 Sr0 2.833149 1_645
O8 Sr6 2.462354 1_665
O8 Sr5 2.582424 1_555
O8 Sr4 2.629025 1_565
O8 Sr2 2.642750 1_555
O8 Sr1 2.833149 1_564
O9 Sr1 2.560277 1_555
O9 Sr3 2.659658 1_555
O9 Sr0 2.685885 1_545
O9 Sr4 2.808073 1_555
O10 Sr2 2.560276 1_555
O10 Sr4 2.659658 1_555
O10 Sr1 2.685886 1_554
O10 Sr5 2.808073 1_555
O11 Sr0 2.560277 1_555
O11 Sr5 2.659659 1_555
O11 Sr2 2.685886 1_455
O11 Sr3 2.808073 1_555
