# generated using pymatgen
data_AgIO2
_symmetry_space_group_name_H-M   'P 1'
_cell_length_a   7.61008808
_cell_length_b   7.61008808
_cell_length_c   7.61008808
_cell_angle_alpha   128.83134825
_cell_angle_beta   128.83134825
_cell_angle_gamma   75.28209326
_symmetry_Int_Tables_number   1
_chemical_formula_structural   AgIO2
_chemical_formula_sum   'Ag4 I4 O8'
_cell_volume   260.32567968
_cell_formula_units_Z   4
loop_
 _symmetry_equiv_pos_site_id
 _symmetry_equiv_pos_as_xyz
  1  'x, y, z'
loop_
 _atom_site_type_symbol
 _atom_site_label
 _atom_site_symmetry_multiplicity
 _atom_site_fract_x
 _atom_site_fract_y
 _atom_site_fract_z
 _atom_site_occupancy
  Ag  Ag0  1  0.87500000  0.62500000  0.25000000  1
  Ag  Ag1  1  0.37500000  0.62500000  0.75000000  1
  Ag  Ag2  1  0.37500000  0.62500000  0.25000000  1
  Ag  Ag3  1  0.37500000  0.12500000  0.75000000  1
  I  I0  1  0.37500000  0.12500000  0.25000000  1
  I  I1  1  0.87500000  0.12500000  0.75000000  1
  I  I2  1  0.87500000  0.12500000  0.25000000  1
  I  I3  1  0.87500000  0.62500000  0.75000000  1
  O  O0  1  0.17860700  0.38929100  0.21068400  1
  O  O1  1  0.17860700  0.96792300  0.78931600  1
  O  O2  1  0.13929100  0.42860700  0.71068400  1
  O  O3  1  0.57139300  0.86070900  0.28931600  1
  O  O4  1  0.71792300  0.42860700  0.28931600  1
  O  O5  1  0.57139300  0.28207700  0.71068400  1
  O  O6  1  0.61070900  0.82139300  0.78931600  1
  O  O7  1  0.03207700  0.82139300  0.21068400  1
loop_
_geom_bond_atom_site_label_1
_geom_bond_atom_site_label_2
_geom_bond_distance
_geom_bond_site_symmetry_2
Ag0 O4 2.381019 1_555
Ag0 O7 2.381019 1_655
Ag0 O1 2.594882 1_655
Ag0 O5 2.594882 1_554
Ag0 O3 2.594882 1_555
Ag0 O0 2.594882 1_655
Ag1 O6 2.381019 1_555
Ag1 O2 2.381019 1_555
Ag1 O3 2.594882 1_556
Ag1 O1 2.594882 1_555
Ag1 O5 2.594882 1_555
Ag1 O0 2.594882 1_555
Ag2 O3 2.381019 1_555
Ag2 O0 2.381019 1_555
Ag2 O4 2.594882 1_555
Ag2 O6 2.594882 1_555
Ag2 O7 2.594882 1_555
Ag2 O2 2.594882 1_554
Ag3 O5 2.381019 1_555
Ag3 O1 2.381019 1_545
Ag3 O4 2.594882 1_556
Ag3 O6 2.594882 1_545
Ag3 O7 2.594882 1_545
Ag3 O2 2.594882 1_555
I0 O1 2.243872 1_544
I0 O5 2.243872 1_555
I0 O0 2.243872 1_555
I0 O3 2.243872 1_545
I1 O3 2.243872 1_545
I1 O1 2.243872 1_645
I1 O5 2.243872 1_555
I1 O0 2.243872 1_656
I2 O7 2.243872 1_645
I2 O2 2.243872 1_655
I2 O4 2.243872 1_555
I2 O6 2.243872 1_544
I3 O4 2.243872 1_555
I3 O2 2.243872 1_655
I3 O6 2.243872 1_555
I3 O7 2.243872 1_656
