# generated using pymatgen
data_HgHC3NCl3
_symmetry_space_group_name_H-M   'P 1'
_cell_length_a   10.92687180
_cell_length_b   10.92687180
_cell_length_c   14.06412348
_cell_angle_alpha   51.40408031
_cell_angle_beta   51.40408031
_cell_angle_gamma   49.42056000
_symmetry_Int_Tables_number   1
_chemical_formula_structural   HgHC3NCl3
_chemical_formula_sum   'Hg4 H4 C12 N4 Cl12'
_cell_volume   927.11203134
_cell_formula_units_Z   4
loop_
 _symmetry_equiv_pos_site_id
 _symmetry_equiv_pos_as_xyz
  1  'x, y, z'
loop_
 _atom_site_type_symbol
 _atom_site_label
 _atom_site_symmetry_multiplicity
 _atom_site_fract_x
 _atom_site_fract_y
 _atom_site_fract_z
 _atom_site_occupancy
  Hg  Hg0  1  0.00000000  0.50000000  0.00000000  1
  Hg  Hg1  1  0.50000000  0.00000000  0.50000000  1
  Hg  Hg2  1  0.18161900  0.81838100  0.75000000  1
  Hg  Hg3  1  0.81838100  0.18161900  0.25000000  1
  H  H0  1  0.97892000  0.26931500  0.68894400  1
  H  H1  1  0.26931500  0.97892000  0.18894400  1
  H  H2  1  0.02108000  0.73068500  0.31105600  1
  H  H3  1  0.73068500  0.02108000  0.81105600  1
  C  C0  1  0.96922300  0.33371400  0.81099700  1
  C  C1  1  0.33371400  0.96922300  0.31099700  1
  C  C2  1  0.03077700  0.66628600  0.18900300  1
  C  C3  1  0.66628600  0.03077700  0.68900300  1
  C  C4  1  0.81259500  0.48340100  0.82832600  1
  C  C5  1  0.48340100  0.81259500  0.32832600  1
  C  C6  1  0.18740500  0.51659900  0.17167400  1
  C  C7  1  0.51659900  0.18740500  0.67167400  1
  C  C8  1  0.76255700  0.38584800  0.83511700  1
  C  C9  1  0.38584800  0.76255700  0.33511700  1
  C  C10  1  0.23744300  0.61415200  0.16488300  1
  C  C11  1  0.61415200  0.23744300  0.66488300  1
  N  N0  1  0.92830500  0.26490300  0.78097000  1
  N  N1  1  0.26490300  0.92830500  0.28097000  1
  N  N2  1  0.07169500  0.73509700  0.21903000  1
  N  N3  1  0.73509700  0.07169500  0.71903000  1
  Cl  Cl0  1  0.28465300  0.39257500  0.08916200  1
  Cl  Cl1  1  0.39257500  0.28465300  0.58916200  1
  Cl  Cl2  1  0.71534700  0.60742500  0.91083800  1
  Cl  Cl3  1  0.60742500  0.71534700  0.41083800  1
  Cl  Cl4  1  0.18777300  0.10736400  0.53966600  1
  Cl  Cl5  1  0.10736400  0.18777300  0.03966600  1
  Cl  Cl6  1  0.81222700  0.89263600  0.46033400  1
  Cl  Cl7  1  0.89263600  0.81222700  0.96033400  1
  Cl  Cl8  1  0.19029400  0.59100000  0.74204500  1
  Cl  Cl9  1  0.59100000  0.19029400  0.24204500  1
  Cl  Cl10  1  0.80970600  0.40900000  0.25795500  1
  Cl  Cl11  1  0.40900000  0.80970600  0.75795500  1
loop_
_geom_bond_atom_site_label_1
_geom_bond_atom_site_label_2
_geom_bond_distance
_geom_bond_site_symmetry_2
H0 N0 1.023272 1_555
H1 N1 1.023272 1_555
H2 N2 1.023272 1_555
H3 N3 1.023272 1_555
C0 C4 1.413779 1_555
C0 N0 1.418689 1_555
C1 C5 1.413779 1_555
C1 N1 1.418689 1_555
C2 C6 1.413779 1_555
C2 N2 1.418689 1_555
C3 C7 1.413779 1_555
C3 N3 1.418689 1_555
C4 C8 1.417882 1_555
C4 Cl2 1.691882 1_555
C5 C9 1.417882 1_555
C5 Cl3 1.691882 1_555
C6 Cl0 1.691882 1_555
C7 Cl1 1.691882 1_555
C8 N0 1.423897 1_555
C9 N1 1.423897 1_555
C10 C6 1.417882 1_555
C10 N2 1.423897 1_555
C11 C7 1.417882 1_555
C11 N3 1.423897 1_555
Cl4 Hg1 2.561594 1_555
Cl4 Hg2 2.664595 1_545
Cl5 Hg0 2.561594 1_555
Cl5 Hg3 2.664595 1_455
Cl6 Hg1 2.561594 1_565
Cl6 Hg3 2.664595 1_565
Cl7 Hg0 2.561594 1_656
Cl7 Hg2 2.664595 1_655
Cl8 Hg2 2.494340 1_555
Cl8 Hg0 2.692849 1_556
Cl9 Hg3 2.494340 1_555
Cl9 Hg1 2.692849 1_555
Cl10 Hg3 2.494340 1_555
Cl10 Hg0 2.692849 1_655
Cl11 Hg2 2.494340 1_555
Cl11 Hg1 2.692849 1_565
