# generated using pymatgen
data_Ca3Au4
_symmetry_space_group_name_H-M   'P 1'
_cell_length_a   8.17454651
_cell_length_b   8.17454643
_cell_length_c   8.17454672
_cell_angle_alpha   114.22879421
_cell_angle_beta   114.22880095
_cell_angle_gamma   114.22879654
_symmetry_Int_Tables_number   1
_chemical_formula_structural   Ca3Au4
_chemical_formula_sum   'Ca6 Au8'
_cell_volume   326.16820265
_cell_formula_units_Z   2
loop_
 _symmetry_equiv_pos_site_id
 _symmetry_equiv_pos_as_xyz
  1  'x, y, z'
loop_
 _atom_site_type_symbol
 _atom_site_label
 _atom_site_symmetry_multiplicity
 _atom_site_fract_x
 _atom_site_fract_y
 _atom_site_fract_z
 _atom_site_occupancy
  Ca  Ca0  1  0.59981119  0.97098084  0.71677915  1
  Ca  Ca1  1  0.97098084  0.71677915  0.59981119  1
  Ca  Ca2  1  0.71677915  0.59981119  0.97098084  1
  Ca  Ca3  1  0.40018881  0.02901916  0.28322085  1
  Ca  Ca4  1  0.02901916  0.28322085  0.40018881  1
  Ca  Ca5  1  0.28322085  0.40018881  0.02901916  1
  Au  Au0  1  0.94532494  0.44329467  0.77859868  1
  Au  Au1  1  0.77859868  0.94532494  0.44329467  1
  Au  Au2  1  0.44329467  0.77859868  0.94532494  1
  Au  Au3  1  0.22140132  0.05467506  0.55670533  1
  Au  Au4  1  0.05467506  0.55670533  0.22140132  1
  Au  Au5  1  0.55670533  0.22140132  0.05467506  1
  Au  Au6  1  0.50000000  0.50000000  0.50000000  1
  Au  Au7  1  0.00000000  -0.00000000  0.00000000  1
loop_
_geom_bond_atom_site_label_1
_geom_bond_atom_site_label_2
_geom_bond_distance
_geom_bond_site_symmetry_2
Au0 Au4 2.944604 1_656
Au0 Ca5 2.948586 1_656
Au0 Au2 3.027111 1_655
Au0 Au1 3.027111 1_545
Au0 Ca3 3.044989 1_555
Au0 Ca1 3.118721 1_555
Au0 Ca2 3.212863 1_555
Au0 Ca3 3.217911 1_666
Au0 Ca4 3.301303 1_655
Au0 Ca0 3.378816 1_545
Au1 Au3 2.944603 1_665
Au1 Ca4 2.948586 1_665
Au1 Au2 3.027111 1_554
Au1 Ca5 3.044989 1_555
Au1 Ca0 3.118722 1_555
Au1 Ca1 3.212863 1_555
Au1 Ca5 3.217911 1_666
Au1 Ca3 3.301303 1_565
Au1 Ca2 3.378816 1_554
Au2 Au5 2.944604 1_566
Au2 Ca3 2.948587 1_566
Au2 Ca4 3.044989 1_555
Au2 Ca2 3.118721 1_555
Au2 Ca0 3.212863 1_555
Au2 Ca4 3.217911 1_666
Au2 Ca5 3.301303 1_556
Au2 Ca1 3.378816 1_455
Au3 Ca1 2.948586 1_445
Au3 Au5 3.027111 1_556
Au3 Au4 3.027111 1_545
Au3 Ca2 3.044989 1_555
Au3 Ca3 3.118722 1_555
Au3 Ca4 3.212863 1_555
Au3 Ca2 3.217911 1_444
Au3 Ca0 3.301303 1_545
Au3 Ca5 3.378816 1_556
Au4 Ca2 2.948586 1_454
Au4 Au5 3.027111 1_455
Au4 Ca0 3.044989 1_555
Au4 Ca4 3.118721 1_555
Au4 Ca5 3.212863 1_555
Au4 Ca0 3.217911 1_444
Au4 Ca1 3.301303 1_455
Au4 Ca3 3.378816 1_565
Au5 Ca0 2.948587 1_544
Au5 Ca1 3.044989 1_555
Au5 Ca5 3.118721 1_555
Au5 Ca3 3.212863 1_555
Au5 Ca1 3.217911 1_444
Au5 Ca2 3.301303 1_554
Au5 Ca4 3.378816 1_655
Au6 Ca1 3.043713 1_555
Au6 Ca4 3.043713 1_555
Au6 Ca2 3.043713 1_555
Au6 Ca5 3.043713 1_555
Au6 Ca0 3.043713 1_555
Au6 Ca3 3.043713 1_555
Au7 Ca0 2.968870 1_444
Au7 Ca3 2.968870 1_555
Au7 Ca2 2.968870 1_444
Au7 Ca5 2.968870 1_555
Au7 Ca1 2.968871 1_444
Au7 Ca4 2.968871 1_555
