# generated using pymatgen
data_CsTaCl6
_symmetry_space_group_name_H-M   'P 1'
_cell_length_a   6.94578231
_cell_length_b   6.94578231
_cell_length_c   12.44299929
_cell_angle_alpha   79.24770845
_cell_angle_beta   79.24770845
_cell_angle_gamma   55.44270328
_symmetry_Int_Tables_number   1
_chemical_formula_structural   CsTaCl6
_chemical_formula_sum   'Cs2 Ta2 Cl12'
_cell_volume   483.27743146
_cell_formula_units_Z   2
loop_
 _symmetry_equiv_pos_site_id
 _symmetry_equiv_pos_as_xyz
  1  'x, y, z'
loop_
 _atom_site_type_symbol
 _atom_site_label
 _atom_site_symmetry_multiplicity
 _atom_site_fract_x
 _atom_site_fract_y
 _atom_site_fract_z
 _atom_site_occupancy
  Cs  Cs0  1  0.88422907  0.11577093  0.75000000  1
  Cs  Cs1  1  0.11577093  0.88422907  0.25000000  1
  Ta  Ta0  1  0.50000000  -0.00000000  0.50000000  1
  Ta  Ta1  1  -0.00000000  0.50000000  -0.00000000  1
  Cl  Cl0  1  0.46328643  0.69910095  0.60445218  1
  Cl  Cl1  1  0.53671357  0.30089905  0.39554782  1
  Cl  Cl2  1  0.30089905  0.53671357  0.89554782  1
  Cl  Cl3  1  0.69910095  0.46328643  0.10445218  1
  Cl  Cl4  1  0.37100571  0.20001031  0.65869845  1
  Cl  Cl5  1  0.62899429  0.79998969  0.34130155  1
  Cl  Cl6  1  0.79998969  0.62899429  0.84130155  1
  Cl  Cl7  1  0.20001031  0.37100571  0.15869845  1
  Cl  Cl8  1  0.79789738  0.89308499  0.03946030  1
  Cl  Cl9  1  0.20210262  0.10691501  0.96053970  1
  Cl  Cl10  1  0.10691501  0.20210262  0.46053970  1
  Cl  Cl11  1  0.89308499  0.79789738  0.53946030  1
loop_
_geom_bond_atom_site_label_1
_geom_bond_atom_site_label_2
_geom_bond_distance
_geom_bond_site_symmetry_2
Cl0 Ta0 2.364248 1_565
Cl0 Cs0 3.723554 1_465
Cl0 Cs0 3.747435 1_555
Cl1 Ta0 2.364248 1_555
Cl1 Cs1 3.723554 1_645
Cl1 Cs1 3.747435 1_555
Cl2 Ta1 2.364248 1_556
Cl2 Cs0 3.723554 1_465
Cl2 Cs0 3.747435 1_555
Cl3 Ta1 2.364248 1_655
Cl3 Cs1 3.723554 1_645
Cl3 Cs1 3.747435 1_555
Cl4 Ta0 2.362936 1_555
Cl4 Cs0 3.638296 1_555
Cl4 Cs0 3.691544 1_455
Cl5 Ta0 2.362936 1_565
Cl5 Cs1 3.638296 1_555
Cl5 Cs1 3.691544 1_655
Cl6 Ta1 2.362936 1_656
Cl6 Cs0 3.638296 1_555
Cl6 Cs0 3.691544 1_565
Cl7 Ta1 2.362936 1_555
Cl7 Cs1 3.638296 1_555
Cl7 Cs1 3.691544 1_545
Cl8 Ta1 2.358198 1_655
Cl8 Cs1 3.699403 1_655
Cl8 Cs0 3.727229 1_564
Cl9 Ta1 2.358198 1_556
Cl9 Cs0 3.699403 1_455
Cl9 Cs1 3.727229 1_546
Cl10 Ta0 2.358198 1_555
Cl10 Cs1 3.699403 1_545
Cl10 Cs0 3.727229 1_455
Cl11 Ta0 2.358198 1_565
Cl11 Cs0 3.699403 1_565
Cl11 Cs1 3.727229 1_655
