# generated using pymatgen
data_Cu2NO6
_symmetry_space_group_name_H-M   'P 1'
_cell_length_a   5.87099100
_cell_length_b   5.36942500
_cell_length_c   7.12002003
_cell_angle_alpha   85.68766139
_cell_angle_beta   90.00000000
_cell_angle_gamma   90.00000000
_symmetry_Int_Tables_number   1
_chemical_formula_structural   Cu2NO6
_chemical_formula_sum   'Cu4 N2 O12'
_cell_volume   223.81498677
_cell_formula_units_Z   2
loop_
 _symmetry_equiv_pos_site_id
 _symmetry_equiv_pos_as_xyz
  1  'x, y, z'
loop_
 _atom_site_type_symbol
 _atom_site_label
 _atom_site_symmetry_multiplicity
 _atom_site_fract_x
 _atom_site_fract_y
 _atom_site_fract_z
 _atom_site_occupancy
  Cu  Cu0  1  0.73269800  0.99957100  0.00250500  1
  Cu  Cu1  1  0.23269800  0.00042900  0.99749500  1
  Cu  Cu2  1  0.98346900  0.50557700  0.00149600  1
  Cu  Cu3  1  0.48346900  0.49442300  0.99850400  1
  N  N0  1  0.50192100  0.76281700  0.41854000  1
  N  N1  1  0.00192100  0.23718300  0.58146000  1
  O  O0  1  0.98491400  0.88796700  0.12992500  1
  O  O1  1  0.48491400  0.11203300  0.87007500  1
  O  O2  1  0.72868300  0.68985600  0.89741700  1
  O  O3  1  0.22868300  0.31014400  0.10258300  1
  O  O4  1  0.61965800  0.91357700  0.49851900  1
  O  O5  1  0.11965800  0.08642300  0.50148100  1
  O  O6  1  0.49526400  0.78475800  0.23549100  1
  O  O7  1  0.99526400  0.21524200  0.76450900  1
  O  O8  1  0.73950500  0.31119500  0.10275300  1
  O  O9  1  0.23950500  0.68880500  0.89724700  1
  O  O10  1  0.89088700  0.40651300  0.49698700  1
  O  O11  1  0.39088700  0.59348700  0.50301300  1
loop_
_geom_bond_atom_site_label_1
_geom_bond_atom_site_label_2
_geom_bond_distance
_geom_bond_site_symmetry_2
Cu0 O1 1.812276 1_564
Cu0 O0 1.814678 1_555
Cu0 O8 1.868263 1_565
Cu0 O2 1.874318 1_554
Cu0 O6 2.395335 1_555
Cu0 O7 2.508719 1_564
Cu1 O0 1.812276 1_446
Cu1 O1 1.814678 1_555
Cu1 O9 1.868263 1_545
Cu1 O3 1.874318 1_556
Cu1 O7 2.395335 1_455
Cu1 O6 2.508719 1_546
Cu2 O8 1.883474 1_555
Cu2 O3 1.891612 1_655
Cu2 O2 1.911933 1_554
Cu2 O9 1.915361 1_654
Cu2 O0 2.309604 1_555
Cu2 O7 2.382815 1_554
Cu3 O9 1.883474 1_555
Cu3 O2 1.891612 1_555
Cu3 O3 1.911933 1_556
Cu3 O8 1.915361 1_556
Cu3 O1 2.309604 1_555
Cu3 O6 2.382815 1_556
N0 O4 1.235590 1_555
N0 O11 1.237378 1_555
N0 O6 1.300361 1_555
N1 O5 1.235590 1_555
N1 O10 1.237378 1_455
N1 O7 1.300361 1_455
