# generated using pymatgen
data_La9Ni6O19
_symmetry_space_group_name_H-M   'P 1'
_cell_length_a   8.74850276
_cell_length_b   8.74850276
_cell_length_c   10.36517302
_cell_angle_alpha   75.87095135
_cell_angle_beta   75.87095135
_cell_angle_gamma   36.75126834
_symmetry_Int_Tables_number   1
_chemical_formula_structural   La9Ni6O19
_chemical_formula_sum   'La9 Ni6 O19'
_cell_volume   458.70049217
_cell_formula_units_Z   1
loop_
 _symmetry_equiv_pos_site_id
 _symmetry_equiv_pos_as_xyz
  1  'x, y, z'
loop_
 _atom_site_type_symbol
 _atom_site_label
 _atom_site_symmetry_multiplicity
 _atom_site_fract_x
 _atom_site_fract_y
 _atom_site_fract_z
 _atom_site_occupancy
  La  La0  1  0.15523500  0.15523500  0.00460200  1
  La  La1  1  0.84476500  0.84476500  0.99539800  1
  La  La2  1  0.50000000  0.50000000  0.00000000  1
  La  La3  1  0.23301800  0.23301800  0.64394500  1
  La  La4  1  0.89164400  0.89164400  0.63672700  1
  La  La5  1  0.55509400  0.55509400  0.65045200  1
  La  La6  1  0.76698200  0.76698200  0.35605500  1
  La  La7  1  0.44490600  0.44490600  0.34954800  1
  La  La8  1  0.10835600  0.10835600  0.36327300  1
  Ni  Ni0  1  0.30109800  0.30109800  0.17481600  1
  Ni  Ni1  1  0.96760000  0.96760000  0.19682900  1
  Ni  Ni2  1  0.64098200  0.64098200  0.16752100  1
  Ni  Ni3  1  0.69890200  0.69890200  0.82518400  1
  Ni  Ni4  1  0.35901800  0.35901800  0.83247900  1
  Ni  Ni5  1  0.03240000  0.03240000  0.80317100  1
  O  O0  1  0.24282400  0.24282400  0.42098900  1
  O  O1  1  0.94020500  0.94020500  0.40564300  1
  O  O2  1  0.60835600  0.60835600  0.42476900  1
  O  O3  1  0.75717600  0.75717600  0.57901100  1
  O  O4  1  0.39164400  0.39164400  0.57523100  1
  O  O5  1  0.05979500  0.05979500  0.59435700  1
  O  O6  1  0.14160000  0.62267300  0.18841900  1
  O  O7  1  0.79802600  0.31273600  0.18585700  1
  O  O8  1  0.47270800  0.97543300  0.15765700  1
  O  O9  1  0.97543300  0.47270800  0.15765700  1
  O  O10  1  0.62267300  0.14160000  0.18841900  1
  O  O11  1  0.31273600  0.79802600  0.18585700  1
  O  O12  1  0.85840000  0.37732700  0.81158100  1
  O  O13  1  0.52729200  0.02456700  0.84234300  1
  O  O14  1  0.20197400  0.68726400  0.81414300  1
  O  O15  1  0.02456700  0.52729200  0.84234300  1
  O  O16  1  0.68726400  0.20197400  0.81414300  1
  O  O17  1  0.37732700  0.85840000  0.81158100  1
  O  O18  1  0.00000000  0.00000000  0.00000000  1
loop_
_geom_bond_atom_site_label_1
_geom_bond_atom_site_label_2
_geom_bond_distance
_geom_bond_site_symmetry_2
La0 O8 2.576231 1_545
La0 O9 2.576231 1_455
La0 O11 2.586768 1_545
La0 O7 2.586768 1_455
La0 O18 2.590332 1_555
La0 O15 2.652055 1_554
La0 O13 2.652055 1_554
La0 O12 2.659847 1_454
La0 O17 2.659847 1_544
La1 O13 2.576231 1_565
La1 O15 2.576231 1_655
La1 O14 2.586768 1_655
La1 O16 2.586768 1_565
La1 O18 2.590332 1_666
La1 O9 2.652055 1_556
La1 O8 2.652055 1_556
La1 O6 2.659847 1_656
La1 O10 2.659847 1_566
La2 O7 2.694342 1_555
La2 O11 2.694342 1_555
La2 O16 2.694342 1_554
La2 O14 2.694342 1_554
La2 O6 2.727349 1_555
La2 O10 2.727349 1_555
La2 O17 2.727349 1_554
La2 O12 2.727349 1_554
La2 O18 2.757926 1_565
La2 O18 2.757926 1_655
La3 O0 2.274544 1_555
La3 O4 2.545569 1_555
La3 O17 2.648468 1_545
La3 O12 2.648468 1_455
La3 O15 2.722636 1_555
La3 O13 2.722636 1_555
La3 O3 2.842741 1_545
La3 O3 2.842741 1_455
La3 O5 3.049274 1_555
La4 O1 2.322437 1_555
La4 O3 2.455716 1_555
La4 O14 2.646269 1_655
La4 O16 2.646269 1_565
La4 O5 2.712560 1_665
La4 O15 2.829889 1_655
La4 O13 2.829889 1_565
La4 O4 2.830628 1_655
La4 O4 2.830628 1_565
La5 O2 2.278142 1_555
La5 O14 2.536525 1_555
La5 O16 2.536525 1_555
La5 O12 2.555678 1_555
La5 O17 2.555678 1_555
La5 O5 2.815487 1_655
La5 O5 2.815487 1_565
La5 O4 3.010421 1_555
La5 O3 3.244950 1_555
La6 O3 2.274544 1_555
La6 O2 2.545569 1_555
La6 O10 2.648468 1_565
La6 O6 2.648468 1_655
La6 O9 2.722636 1_555
La6 O8 2.722636 1_555
La6 O0 2.842741 1_565
La6 O0 2.842741 1_655
La6 O1 3.049274 1_555
La7 O4 2.278142 1_555
La7 O7 2.536525 1_555
La7 O11 2.536525 1_555
La7 O6 2.555678 1_555
La7 O10 2.555678 1_555
La7 O1 2.815487 1_455
La7 O1 2.815487 1_545
La7 O2 3.010421 1_555
La7 O0 3.244950 1_555
La8 O5 2.322437 1_555
La8 O0 2.455716 1_555
La8 O7 2.646269 1_455
La8 O11 2.646269 1_545
La8 O1 2.712560 1_445
La8 O8 2.829889 1_545
La8 O9 2.829889 1_455
La8 O2 2.830628 1_455
La8 O2 2.830628 1_545
Ni0 O9 1.914535 1_455
Ni0 O8 1.914535 1_545
Ni0 O6 1.920550 1_555
Ni0 O10 1.920550 1_555
Ni0 O0 2.485341 1_555
Ni1 O18 1.971564 1_665
Ni1 O7 2.016753 1_565
Ni1 O11 2.016753 1_655
Ni1 O10 2.033059 1_565
Ni1 O6 2.033059 1_655
Ni1 O1 2.094044 1_555
Ni2 O11 1.925824 1_555
Ni2 O7 1.925824 1_555
Ni2 O8 1.940026 1_555
Ni2 O9 1.940026 1_555
Ni2 O2 2.580728 1_555
Ni3 O15 1.914535 1_655
Ni3 O13 1.914535 1_565
Ni3 O17 1.920550 1_555
Ni3 O12 1.920550 1_555
Ni3 O3 2.485341 1_555
Ni4 O14 1.925824 1_555
Ni4 O16 1.925824 1_555
Ni4 O15 1.940026 1_555
Ni4 O13 1.940026 1_555
Ni4 O4 2.580728 1_555
Ni5 O18 1.971564 1_556
Ni5 O14 2.016753 1_545
Ni5 O16 2.016753 1_455
Ni5 O12 2.033059 1_455
Ni5 O17 2.033059 1_545
Ni5 O5 2.094044 1_555
