# generated using pymatgen
data_Y6CoBr10
_symmetry_space_group_name_H-M   'P 1'
_cell_length_a   7.27905608
_cell_length_b   8.95733221
_cell_length_c   9.12443000
_cell_angle_alpha   108.23856773
_cell_angle_beta   97.11726199
_cell_angle_gamma   105.35792098
_symmetry_Int_Tables_number   1
_chemical_formula_structural   Y6CoBr10
_chemical_formula_sum   'Y6 Co1 Br10'
_cell_volume   530.78544768
_cell_formula_units_Z   1
loop_
 _symmetry_equiv_pos_site_id
 _symmetry_equiv_pos_as_xyz
  1  'x, y, z'
loop_
 _atom_site_type_symbol
 _atom_site_label
 _atom_site_symmetry_multiplicity
 _atom_site_fract_x
 _atom_site_fract_y
 _atom_site_fract_z
 _atom_site_occupancy
  Y  Y0  1  0.46943998  0.78616168  0.58719478  1
  Y  Y1  1  0.53056002  0.21383832  0.41280522  1
  Y  Y2  1  0.37649471  0.45349820  0.74696181  1
  Y  Y3  1  0.62350529  0.54650180  0.25303819  1
  Y  Y4  1  0.86090657  0.63526480  0.67878068  1
  Y  Y5  1  0.13909343  0.36473520  0.32121932  1
  Co  Co0  1  0.50000000  0.50000000  0.50000000  1
  Br  Br0  1  0.41272429  0.12618544  0.67592419  1
  Br  Br1  1  0.58727571  0.87381456  0.32407581  1
  Br  Br2  1  0.04904132  0.68384557  0.41370044  1
  Br  Br3  1  0.95095868  0.31615443  0.58629956  1
  Br  Br4  1  0.28789005  0.76153684  0.85087498  1
  Br  Br5  1  0.71210995  0.23846316  0.14912502  1
  Br  Br6  1  0.24238628  0.41289894  0.03750092  1
  Br  Br7  1  0.75761372  0.58710106  0.96249908  1
  Br  Br8  1  0.85360433  0.95991779  0.77484946  1
  Br  Br9  1  0.14639567  0.04008221  0.22515054  1
loop_
_geom_bond_atom_site_label_1
_geom_bond_atom_site_label_2
_geom_bond_distance
_geom_bond_site_symmetry_2
Co0 Y1 2.514371 1_555
Co0 Y0 2.514371 1_555
Co0 Y3 2.636402 1_555
Co0 Y2 2.636402 1_555
Co0 Y5 2.654313 1_555
Co0 Y4 2.654313 1_555
Br0 Y2 2.889256 1_555
Br0 Y1 2.906801 1_555
Br0 Y0 3.050835 1_545
Br1 Y3 2.889256 1_555
Br1 Y0 2.906801 1_555
Br1 Y1 3.050835 1_565
Br2 Y5 2.988611 1_555
Br2 Y3 2.997403 1_455
Br2 Y4 3.013108 1_455
Br2 Y0 3.019286 1_555
Br3 Y4 2.988611 1_555
Br3 Y2 2.997403 1_655
Br3 Y5 3.013108 1_655
Br3 Y1 3.019286 1_555
Br4 Y2 2.895646 1_555
Br4 Y0 2.923903 1_555
Br4 Y4 3.036731 1_455
Br5 Y3 2.895646 1_555
Br5 Y1 2.923903 1_555
Br5 Y5 3.036731 1_655
Br6 Y3 2.900391 1_555
Br6 Y5 2.909081 1_555
Br6 Y2 3.028150 1_554
Br7 Y2 2.900391 1_555
Br7 Y4 2.909081 1_555
Br7 Y3 3.028150 1_556
Br8 Y4 2.779502 1_555
Br8 Y0 2.830863 1_555
Br9 Y5 2.779502 1_555
Br9 Y1 2.830863 1_555
