# generated using pymatgen
data_K3W2N5
_symmetry_space_group_name_H-M   'P 1'
_cell_length_a   10.38646607
_cell_length_b   10.38646607
_cell_length_c   10.38646607
_cell_angle_alpha   102.23332499
_cell_angle_beta   102.23332499
_cell_angle_gamma   125.18465788
_symmetry_Int_Tables_number   1
_chemical_formula_structural   K3W2N5
_chemical_formula_sum   'K12 W8 N20'
_cell_volume   812.97469415
_cell_formula_units_Z   4
loop_
 _symmetry_equiv_pos_site_id
 _symmetry_equiv_pos_as_xyz
  1  'x, y, z'
loop_
 _atom_site_type_symbol
 _atom_site_label
 _atom_site_symmetry_multiplicity
 _atom_site_fract_x
 _atom_site_fract_y
 _atom_site_fract_z
 _atom_site_occupancy
  K  K0  1  0.86689800  0.54878300  0.87883400  1
  K  K1  1  0.66994900  0.98806400  0.12116600  1
  K  K2  1  0.79878300  0.41994900  0.18188500  1
  K  K3  1  0.23806400  0.61689800  0.81811500  1
  K  K4  1  0.51901600  0.71441600  0.35479600  1
  K  K5  1  0.35962000  0.16422000  0.64520400  1
  K  K6  1  0.96441600  0.10962000  0.69540000  1
  K  K7  1  0.41422000  0.26901600  0.30460000  1
  K  K8  1  0.94883700  0.94883700  0.00000000  1
  K  K9  1  0.19883700  0.69883700  0.50000000  1
  K  K10  1  0.74414800  0.24414800  0.50000000  1
  K  K11  1  0.49414800  0.49414800  0.00000000  1
  W  W0  1  0.62811900  0.05539700  0.79544200  1
  W  W1  1  0.25995500  0.83267700  0.20455800  1
  W  W2  1  0.30539700  0.00995500  0.92727800  1
  W  W3  1  0.08267700  0.37811900  0.07272200  1
  W  W4  1  0.92734000  0.74483900  0.62816400  1
  W  W5  1  0.11667400  0.29917600  0.37183600  1
  W  W6  1  0.99483900  0.86667400  0.31749800  1
  W  W7  1  0.54917600  0.67734000  0.68250200  1
  N  N0  1  0.64613200  0.19963100  0.71955600  1
  N  N1  1  0.48007500  0.92657700  0.28044400  1
  N  N2  1  0.44963100  0.23007500  0.05349900  1
  N  N3  1  0.17657700  0.39613200  0.94650100  1
  N  N4  1  0.85197000  0.70955600  0.13467000  1
  N  N5  1  0.57488500  0.71730000  0.86533000  1
  N  N6  1  0.95955600  0.32488500  0.35758600  1
  N  N7  1  0.96730000  0.60197000  0.64241400  1
  N  N8  1  0.83917100  0.18350000  0.96397400  1
  N  N9  1  0.21952600  0.87519700  0.03602600  1
  N  N10  1  0.43350000  0.96952600  0.84432900  1
  N  N11  1  0.12519700  0.58917100  0.15567100  1
  N  N12  1  0.91763400  0.76244000  0.44628000  1
  N  N13  1  0.31616000  0.47135400  0.55372000  1
  N  N14  1  0.01244000  0.06616000  0.34480600  1
  N  N15  1  0.72135400  0.66763400  0.65519400  1
  N  N16  1  0.11978400  0.97276800  0.78156200  1
  N  N17  1  0.19120600  0.33822200  0.21843800  1
  N  N18  1  0.22276800  0.94120600  0.35298400  1
  N  N19  1  0.58822200  0.86978400  0.64701600  1
loop_
_geom_bond_atom_site_label_1
_geom_bond_atom_site_label_2
_geom_bond_distance
_geom_bond_site_symmetry_2
K0 N0 2.722656 1_555
K0 N9 2.895562 1_656
K0 N7 2.901491 1_555
K0 N4 2.909624 1_556
K0 N11 3.250218 1_656
K0 N15 3.328994 1_555
K1 N1 2.722656 1_555
K1 N8 2.895562 1_564
K1 N6 2.901486 1_565
K1 N5 2.909619 1_554
K1 N10 3.250218 1_554
K1 N14 3.328994 1_665
K2 N2 2.722656 1_555
K2 N11 2.895562 1_655
K2 N4 2.901491 1_555
K2 N6 2.909632 1_555
K2 N8 3.250218 1_554
K2 N12 3.328994 1_555
K3 N3 2.722657 1_555
K3 N10 2.895562 1_555
K3 N5 2.901481 1_555
K3 N7 2.909624 1_455
K3 N9 3.250218 1_556
K3 N13 3.328994 1_555
K4 N1 2.689193 1_555
K4 N19 2.827693 1_555
K4 N17 3.024144 1_555
K5 N0 2.689183 1_555
K5 N18 2.827693 1_545
K5 N16 3.024144 1_545
K6 N3 2.689183 1_655
K6 N16 2.827693 1_645
K6 N19 3.024144 1_545
K7 N2 2.689183 1_555
K7 N17 2.827693 1_555
K7 N18 3.024144 1_545
K8 N4 2.886757 1_555
K8 N5 2.886765 1_554
K8 N17 3.130383 1_665
K8 N16 3.130383 1_654
K8 N8 3.283779 1_564
K8 N9 3.283779 1_655
K8 N15 3.311704 1_554
K8 N14 3.311704 1_665
K9 N7 2.886757 1_455
K9 N6 2.886765 1_455
K9 N18 3.130383 1_555
K9 N19 3.130383 1_555
K9 N10 3.283779 1_555
K9 N11 3.283779 1_555
K9 N13 3.311704 1_555
K9 N12 3.311704 1_455
K10 N1 2.708996 1_545
K10 N0 2.709001 1_555
K10 N7 2.768178 1_555
K10 N6 2.768179 1_555
K11 N3 2.708991 1_554
K11 N2 2.709001 1_555
K11 N4 2.768178 1_555
K11 N5 2.768179 1_554
N0 W0 1.772111 1_555
N1 W1 1.772108 1_555
N2 W2 1.772111 1_554
N3 W3 1.772118 1_556
N4 W6 1.781266 1_555
N5 W7 1.781267 1_555
N6 W5 1.781258 1_655
N7 W4 1.781275 1_555
N8 W0 1.914491 1_555
N8 W3 1.920567 1_656
N9 W1 1.914491 1_555
N9 W2 1.920567 1_564
N10 W2 1.914491 1_565
N10 W0 1.920567 1_565
N11 W3 1.914491 1_555
N11 W1 1.920567 1_555
N12 W6 1.916249 1_555
N12 W4 1.923354 1_555
N13 W7 1.916247 1_555
N13 W5 1.923357 1_555
N14 W5 1.916247 1_555
N14 W6 1.923363 1_445
N15 W4 1.916245 1_555
N15 W7 1.923357 1_555
N16 W4 1.933114 1_455
N16 W2 1.952967 1_565
N17 W5 1.933118 1_555
N17 W3 1.952967 1_555
N18 W6 1.933108 1_455
N18 W1 1.952967 1_555
N19 W7 1.933118 1_555
N19 W0 1.952967 1_565
