# generated using pymatgen
data_Ba2Li(NiO3)2
_symmetry_space_group_name_H-M   'P 1'
_cell_length_a   6.07315299
_cell_length_b   5.54520304
_cell_length_c   5.09590414
_cell_angle_alpha   89.99999827
_cell_angle_beta   104.06184202
_cell_angle_gamma   117.16368614
_symmetry_Int_Tables_number   1
_chemical_formula_structural   Ba2Li(NiO3)2
_chemical_formula_sum   'Ba2 Li1 Ni2 O6'
_cell_volume   146.88227128
_cell_formula_units_Z   1
loop_
 _symmetry_equiv_pos_site_id
 _symmetry_equiv_pos_as_xyz
  1  'x, y, z'
loop_
 _atom_site_type_symbol
 _atom_site_label
 _atom_site_symmetry_multiplicity
 _atom_site_fract_x
 _atom_site_fract_y
 _atom_site_fract_z
 _atom_site_occupancy
  Ba  Ba0  1  0.63341800  0.31670900  0.80783100  1
  Ba  Ba1  1  0.39741800  0.69870800  0.19613800  1
  Li  Li0  1  0.01609200  0.50804600  0.50242500  1
  Ni  Ni0  1  0.01493100  0.00746500  0.50310700  1
  Ni  Ni1  1  0.01490600  0.00745300  0.00301700  1
  O  O0  1  0.86704000  0.16865100  0.23677600  1
  O  O1  1  0.74359600  0.87179900  0.68279400  1
  O  O2  1  0.16310000  0.31646200  0.76894200  1
  O  O3  1  0.86703900  0.69838800  0.23677600  1
  O  O4  1  0.16310000  0.84663900  0.76894200  1
  O  O5  1  0.28602600  0.14301400  0.32325400  1
loop_
_geom_bond_atom_site_label_1
_geom_bond_atom_site_label_2
_geom_bond_distance
_geom_bond_site_symmetry_2
Ba0 O3 2.649837 1_556
Ba0 O0 2.649840 1_556
Ba0 O5 2.662611 1_555
Ba0 O4 2.814098 1_545
Ba0 O2 2.814101 1_555
Ba0 O1 2.941917 1_545
Ba0 O1 2.941928 1_555
Ba1 O2 2.645279 1_554
Ba1 O4 2.645289 1_554
Ba1 O1 2.667466 1_555
Ba1 O3 2.809780 1_555
Ba1 O0 2.809788 1_565
Ba1 O5 2.946537 1_555
Ba1 O5 2.946558 1_565
Li0 O3 2.010709 1_455
Li0 O0 2.010710 1_455
Li0 O2 2.011740 1_555
Li0 O4 2.011744 1_555
Ni0 O4 1.892240 1_545
Ni0 O2 1.892248 1_555
Ni0 O3 1.894261 1_445
Ni0 O0 1.894262 1_455
Ni0 O5 1.928453 1_555
Ni0 O1 1.929029 1_445
Ni1 O5 1.871749 1_555
Ni1 O1 1.872261 1_444
Ni1 O0 2.068135 1_455
Ni1 O3 2.068139 1_445
Ni1 O4 2.069428 1_544
Ni1 O2 2.069432 1_554
