# generated using pymatgen
data_CrGa(BiO3)2
_symmetry_space_group_name_H-M   'P 1'
_cell_length_a   7.94082854
_cell_length_b   9.68454738
_cell_length_c   7.94119413
_cell_angle_alpha   66.00914746
_cell_angle_beta   90.47759466
_cell_angle_gamma   113.98735333
_symmetry_Int_Tables_number   1
_chemical_formula_structural   CrGa(BiO3)2
_chemical_formula_sum   'Cr4 Ga4 Bi8 O24'
_cell_volume   500.66554013
_cell_formula_units_Z   4
loop_
 _symmetry_equiv_pos_site_id
 _symmetry_equiv_pos_as_xyz
  1  'x, y, z'
loop_
 _atom_site_type_symbol
 _atom_site_label
 _atom_site_symmetry_multiplicity
 _atom_site_fract_x
 _atom_site_fract_y
 _atom_site_fract_z
 _atom_site_occupancy
  Cr  Cr0  1  0.58135900  0.72090900  0.91863300  1
  Cr  Cr1  1  0.33134300  0.22089300  0.66868500  1
  Cr  Cr2  1  0.83149800  0.22100200  0.16849500  1
  Cr  Cr3  1  0.08135900  0.72089100  0.41864000  1
  Ga  Ga0  1  0.58776500  0.72519400  0.41217300  1
  Ga  Ga1  1  0.33776300  0.22520800  0.16218900  1
  Ga  Ga2  1  0.08781800  0.72518300  0.91221800  1
  Ga  Ga3  1  0.83781500  0.22518400  0.66224100  1
  Bi  Bi0  1  0.00267000  0.00180300  0.49736900  1
  Bi  Bi1  1  0.75263300  0.50178400  0.24733900  1
  Bi  Bi2  1  0.50261400  0.00175300  0.99740000  1
  Bi  Bi3  1  0.25261100  0.50174800  0.74742500  1
  Bi  Bi4  1  0.99897800  0.99931500  0.00103500  1
  Bi  Bi5  1  0.74891500  0.49927600  0.75108700  1
  Bi  Bi6  1  0.49892600  0.99928700  0.50103600  1
  Bi  Bi7  1  0.24897000  0.49933000  0.25099100  1
  O  O0  1  0.55193000  0.17015800  0.17516300  1
  O  O1  1  0.30195900  0.67014100  0.92517800  1
  O  O2  1  0.05193000  0.17012300  0.67518600  1
  O  O3  1  0.80188200  0.67012700  0.42518600  1
  O  O4  1  0.72322600  0.96683200  0.34637900  1
  O  O5  1  0.47322700  0.46685700  0.09643300  1
  O  O6  1  0.22322300  0.96684300  0.84640600  1
  O  O7  1  0.97317400  0.46681000  0.59646400  1
  O  O8  1  0.54005100  0.73977300  0.16325900  1
  O  O9  1  0.29004600  0.23973800  0.91327100  1
  O  O10  1  0.04001500  0.73977000  0.66327400  1
  O  O11  1  0.79007500  0.23976100  0.41328400  1
  O  O12  1  0.15303600  0.96848700  0.27555800  1
  O  O13  1  0.90303000  0.46849300  0.02545800  1
  O  O14  1  0.65306100  0.96855300  0.77548800  1
  O  O15  1  0.40307200  0.46852700  0.52545700  1
  O  O16  1  0.82465600  0.16884400  0.94710900  1
  O  O17  1  0.57463900  0.66879700  0.69706000  1
  O  O18  1  0.32466400  0.16881400  0.44709800  1
  O  O19  1  0.07458600  0.66877300  0.19714400  1
  O  O20  1  0.08860000  0.24027800  0.21103200  1
  O  O21  1  0.83863100  0.74023700  0.96105600  1
  O  O22  1  0.58864600  0.24027200  0.71103200  1
  O  O23  1  0.33860400  0.74023100  0.46106900  1
loop_
_geom_bond_atom_site_label_1
_geom_bond_atom_site_label_2
_geom_bond_distance
_geom_bond_site_symmetry_2
Cr0 O21 2.012727 1_555
Cr0 O14 2.012924 1_555
Cr0 O17 2.013017 1_555
Cr0 O1 2.064251 1_555
Cr0 O5 2.064441 1_556
Cr0 O8 2.064630 1_556
Cr1 O22 2.012724 1_555
Cr1 O15 2.012855 1_555
Cr1 O18 2.012962 1_555
Cr1 O9 2.064203 1_555
Cr1 O6 2.064306 1_545
Cr1 O2 2.064370 1_555
Cr2 O20 2.011715 1_655
Cr2 O16 2.011753 1_554
Cr2 O13 2.011865 1_555
Cr2 O0 2.065341 1_555
Cr2 O4 2.065358 1_545
Cr2 O11 2.065537 1_555
Cr3 O19 2.012420 1_555
Cr3 O23 2.012498 1_555
Cr3 O12 2.012529 1_555
Cr3 O7 2.064663 1_455
Cr3 O10 2.064828 1_555
Cr3 O3 2.064857 1_455
Ga0 O4 1.968449 1_555
Ga0 O8 1.968450 1_555
Ga0 O3 1.968629 1_555
Ga0 O15 2.092478 1_555
Ga0 O23 2.092768 1_555
Ga0 O17 2.092896 1_555
Ga1 O5 1.968606 1_555
Ga1 O9 1.968608 1_554
Ga1 O0 1.968937 1_555
Ga1 O20 2.092859 1_555
Ga1 O12 2.092887 1_545
Ga1 O18 2.093082 1_555
Ga2 O6 1.968572 1_555
Ga2 O1 1.968696 1_555
Ga2 O10 1.968812 1_555
Ga2 O13 2.092824 1_456
Ga2 O21 2.092954 1_455
Ga2 O19 2.093133 1_556
Ga3 O7 1.968325 1_555
Ga3 O2 1.968614 1_655
Ga3 O11 1.968831 1_555
Ga3 O14 2.092346 1_545
Ga3 O16 2.092846 1_555
Ga3 O22 2.092906 1_555
Bi0 O18 2.332936 1_555
Bi0 O12 2.333014 1_545
Bi0 O20 2.333243 1_555
Bi0 O2 2.479591 1_555
Bi0 O10 2.479939 1_545
Bi0 O4 2.480173 1_445
Bi1 O19 2.332694 1_655
Bi1 O21 2.332841 1_554
Bi1 O13 2.333451 1_555
Bi1 O5 2.479579 1_555
Bi1 O3 2.479983 1_555
Bi1 O11 2.480302 1_555
Bi2 O14 2.333304 1_545
Bi2 O16 2.333369 1_555
Bi2 O22 2.333505 1_555
Bi2 O8 2.479846 1_546
Bi2 O6 2.479856 1_545
Bi2 O0 2.479861 1_556
Bi3 O17 2.333146 1_555
Bi3 O23 2.333316 1_555
Bi3 O15 2.333863 1_555
Bi3 O1 2.479669 1_555
Bi3 O7 2.480014 1_455
Bi3 O9 2.480074 1_555
Bi4 O2 2.362376 1_664
Bi4 O9 2.362398 1_664
Bi4 O6 2.362915 1_654
Bi4 O21 2.461884 1_554
Bi4 O16 2.461982 1_564
Bi4 O12 2.462017 1_655
Bi5 O3 2.362776 1_555
Bi5 O10 2.362829 1_655
Bi5 O7 2.362940 1_555
Bi5 O13 2.461272 1_556
Bi5 O22 2.461529 1_555
Bi5 O17 2.461532 1_555
Bi6 O0 2.362602 1_565
Bi6 O11 2.363011 1_565
Bi6 O4 2.363291 1_555
Bi6 O18 2.461560 1_565
Bi6 O23 2.461629 1_555
Bi6 O14 2.461910 1_555
Bi7 O1 2.362120 1_554
Bi7 O8 2.362573 1_555
Bi7 O5 2.362672 1_555
Bi7 O20 2.461600 1_555
Bi7 O19 2.461769 1_555
Bi7 O15 2.461837 1_555
