# generated using pymatgen
data_Yb5(Co2Ge5)2
_symmetry_space_group_name_H-M   'P 1'
_cell_length_a   12.55992005
_cell_length_b   12.55992005
_cell_length_c   4.10519865
_cell_angle_alpha   90.00000000
_cell_angle_beta   90.00000000
_cell_angle_gamma   90.00000000
_symmetry_Int_Tables_number   1
_chemical_formula_structural   Yb5(Co2Ge5)2
_chemical_formula_sum   'Yb10 Co8 Ge20'
_cell_volume   647.60162128
_cell_formula_units_Z   2
loop_
 _symmetry_equiv_pos_site_id
 _symmetry_equiv_pos_as_xyz
  1  'x, y, z'
loop_
 _atom_site_type_symbol
 _atom_site_label
 _atom_site_symmetry_multiplicity
 _atom_site_fract_x
 _atom_site_fract_y
 _atom_site_fract_z
 _atom_site_occupancy
  Yb  Yb0  1  0.50000000  0.50000000  0.00000000  1
  Yb  Yb1  1  0.00000000  0.00000000  0.00000000  1
  Yb  Yb2  1  0.67663205  0.17663205  0.50000000  1
  Yb  Yb3  1  0.32336795  0.82336795  0.50000000  1
  Yb  Yb4  1  0.17663205  0.32336795  0.50000000  1
  Yb  Yb5  1  0.82336795  0.67663205  0.50000000  1
  Yb  Yb6  1  0.11008461  0.61008461  0.50000000  1
  Yb  Yb7  1  0.88991539  0.38991539  0.50000000  1
  Yb  Yb8  1  0.61008461  0.88991539  0.50000000  1
  Yb  Yb9  1  0.38991539  0.11008461  0.50000000  1
  Co  Co0  1  0.74483539  0.52541513  0.00000000  1
  Co  Co1  1  0.25516461  0.47458487  0.00000000  1
  Co  Co2  1  0.24483539  0.97458487  0.00000000  1
  Co  Co3  1  0.75516461  0.02541513  0.00000000  1
  Co  Co4  1  0.47458487  0.74483539  0.00000000  1
  Co  Co5  1  0.52541513  0.25516461  0.00000000  1
  Co  Co6  1  0.02541513  0.24483539  0.00000000  1
  Co  Co7  1  0.97458487  0.75516461  0.00000000  1
  Ge  Ge0  1  0.56961935  0.06961935  0.00000000  1
  Ge  Ge1  1  0.43038065  0.93038065  0.00000000  1
  Ge  Ge2  1  0.06961935  0.43038065  0.00000000  1
  Ge  Ge3  1  0.93038065  0.56961935  0.00000000  1
  Ge  Ge4  1  0.65510007  0.69987885  0.00000000  1
  Ge  Ge5  1  0.34489993  0.30012115  0.00000000  1
  Ge  Ge6  1  0.15510007  0.80012115  0.00000000  1
  Ge  Ge7  1  0.84489993  0.19987885  0.00000000  1
  Ge  Ge8  1  0.30012115  0.65510007  0.00000000  1
  Ge  Ge9  1  0.69987885  0.34489993  0.00000000  1
  Ge  Ge10  1  0.19987885  0.15510007  0.00000000  1
  Ge  Ge11  1  0.80012115  0.84489993  0.00000000  1
  Ge  Ge12  1  0.66490883  0.50561875  0.50000000  1
  Ge  Ge13  1  0.33509117  0.49438125  0.50000000  1
  Ge  Ge14  1  0.16490883  0.99438125  0.50000000  1
  Ge  Ge15  1  0.83509117  0.00561875  0.50000000  1
  Ge  Ge16  1  0.49438125  0.66490883  0.50000000  1
  Ge  Ge17  1  0.50561875  0.33509117  0.50000000  1
  Ge  Ge18  1  0.00561875  0.16490883  0.50000000  1
  Ge  Ge19  1  0.99438125  0.83509117  0.50000000  1
loop_
_geom_bond_atom_site_label_1
_geom_bond_atom_site_label_2
_geom_bond_distance
_geom_bond_site_symmetry_2
Co0 Ge12 2.298422 1_555
Co0 Ge12 2.298422 1_554
Co0 Ge9 2.336511 1_555
Co0 Ge3 2.395656 1_555
Co0 Ge4 2.464115 1_555
Co0 Yb5 2.965352 1_554
Co0 Yb5 2.965352 1_555
Co0 Yb0 3.091636 1_555
Co0 Yb7 3.229535 1_554
Co0 Yb7 3.229535 1_555
Co1 Ge13 2.298422 1_554
Co1 Ge13 2.298422 1_555
Co1 Ge8 2.336511 1_555
Co1 Ge2 2.395656 1_555
Co1 Ge5 2.464115 1_555
Co1 Yb4 2.965352 1_555
Co1 Yb4 2.965352 1_554
Co1 Yb0 3.091636 1_555
Co1 Yb6 3.229535 1_554
Co1 Yb6 3.229535 1_555
Co2 Ge14 2.298422 1_555
Co2 Ge14 2.298422 1_554
Co2 Ge10 2.336511 1_565
Co2 Ge1 2.395656 1_555
Co2 Ge6 2.464115 1_555
Co2 Yb3 2.965352 1_554
Co2 Yb3 2.965352 1_555
Co2 Yb1 3.091636 1_565
Co2 Yb9 3.229535 1_564
Co2 Yb9 3.229535 1_565
Co3 Ge15 2.298422 1_555
Co3 Ge15 2.298422 1_554
Co3 Ge11 2.336511 1_545
Co3 Ge0 2.395656 1_555
Co3 Ge7 2.464115 1_555
Co3 Yb2 2.965352 1_555
Co3 Yb2 2.965352 1_554
Co3 Yb1 3.091636 1_655
Co3 Yb8 3.229535 1_545
Co3 Yb8 3.229535 1_544
Co4 Ge16 2.298422 1_554
Co4 Ge16 2.298422 1_555
Co4 Ge4 2.336511 1_555
Co4 Ge1 2.395656 1_555
Co4 Ge8 2.464115 1_555
Co4 Yb3 2.965352 1_554
Co4 Yb3 2.965352 1_555
Co4 Yb0 3.091636 1_555
Co4 Yb8 3.229535 1_555
Co4 Yb8 3.229535 1_554
Co5 Ge17 2.298422 1_554
Co5 Ge17 2.298422 1_555
Co5 Ge5 2.336511 1_555
Co5 Ge0 2.395656 1_555
Co5 Ge9 2.464115 1_555
Co5 Yb2 2.965352 1_555
Co5 Yb2 2.965352 1_554
Co5 Yb0 3.091636 1_555
Co5 Yb9 3.229535 1_554
Co5 Yb9 3.229535 1_555
Co6 Ge18 2.298422 1_555
Co6 Ge18 2.298422 1_554
Co6 Ge7 2.336511 1_455
Co6 Ge2 2.395656 1_555
Co6 Ge10 2.464115 1_555
Co6 Yb4 2.965352 1_555
Co6 Yb4 2.965352 1_554
Co6 Yb1 3.091636 1_555
Co6 Yb7 3.229535 1_455
Co6 Yb7 3.229535 1_454
Co7 Ge19 2.298422 1_555
Co7 Ge19 2.298422 1_554
Co7 Ge6 2.336511 1_655
Co7 Ge3 2.395656 1_555
Co7 Ge11 2.464115 1_555
Co7 Yb5 2.965352 1_554
Co7 Yb5 2.965352 1_555
Co7 Yb1 3.091636 1_665
Co7 Yb6 3.229535 1_655
Co7 Yb6 3.229535 1_654
Ge0 Ge1 2.473215 1_545
Ge0 Yb2 2.797538 1_555
Ge0 Yb2 2.797538 1_554
Ge0 Yb8 3.092867 1_545
Ge0 Yb8 3.092867 1_544
Ge0 Yb9 3.092867 1_554
Ge0 Yb9 3.092867 1_555
Ge1 Yb3 2.797538 1_554
Ge1 Yb3 2.797538 1_555
Ge1 Yb9 3.092867 1_564
Ge1 Yb9 3.092867 1_565
Ge1 Yb8 3.092867 1_555
Ge1 Yb8 3.092867 1_554
Ge2 Ge3 2.473215 1_455
Ge2 Yb4 2.797538 1_555
Ge2 Yb4 2.797538 1_554
Ge2 Yb7 3.092867 1_455
Ge2 Yb7 3.092867 1_454
Ge2 Yb6 3.092867 1_555
Ge2 Yb6 3.092867 1_554
Ge3 Yb5 2.797538 1_555
Ge3 Yb5 2.797538 1_554
Ge3 Yb6 3.092867 1_655
Ge3 Yb6 3.092867 1_654
Ge3 Yb7 3.092867 1_555
Ge3 Yb7 3.092867 1_554
Ge4 Yb5 2.960575 1_554
Ge4 Yb5 2.960575 1_555
Ge4 Yb0 3.177625 1_555
Ge4 Yb8 3.198414 1_554
Ge4 Yb8 3.198414 1_555
Ge5 Yb4 2.960575 1_554
Ge5 Yb4 2.960575 1_555
Ge5 Yb0 3.177625 1_555
Ge5 Yb9 3.198414 1_554
Ge5 Yb9 3.198414 1_555
Ge6 Ge8 2.575924 1_555
Ge6 Yb3 2.960575 1_554
Ge6 Yb3 2.960575 1_555
Ge6 Yb1 3.177625 1_565
Ge6 Yb6 3.198414 1_555
Ge6 Yb6 3.198414 1_554
Ge7 Ge9 2.575924 1_555
Ge7 Yb2 2.960575 1_554
Ge7 Yb2 2.960575 1_555
Ge7 Yb1 3.177625 1_655
Ge7 Yb7 3.198414 1_555
Ge7 Yb7 3.198414 1_554
Ge8 Yb3 2.960575 1_554
Ge8 Yb3 2.960575 1_555
Ge8 Yb0 3.177625 1_555
Ge8 Yb6 3.198414 1_554
Ge8 Yb6 3.198414 1_555
Ge9 Yb2 2.960575 1_554
Ge9 Yb2 2.960575 1_555
Ge9 Yb0 3.177625 1_555
Ge9 Yb7 3.198414 1_555
Ge9 Yb7 3.198414 1_554
Ge10 Ge5 2.575924 1_555
Ge10 Ge14 2.912196 1_544
Ge10 Ge14 2.912196 1_545
Ge10 Yb4 2.960575 1_554
Ge10 Yb4 2.960575 1_555
Ge10 Yb1 3.177625 1_555
Ge10 Yb9 3.198414 1_555
Ge10 Yb9 3.198414 1_554
Ge11 Ge4 2.575924 1_555
Ge11 Ge15 2.912196 1_565
Ge11 Ge15 2.912196 1_564
Ge11 Yb5 2.960575 1_555
Ge11 Yb5 2.960575 1_554
Ge11 Yb1 3.177625 1_665
Ge11 Yb8 3.198414 1_554
Ge11 Yb8 3.198414 1_555
Ge12 Ge9 2.912196 1_556
Ge12 Ge9 2.912196 1_555
Ge12 Yb0 2.916880 1_555
Ge12 Yb0 2.916880 1_556
Ge12 Yb5 2.928235 1_555
Ge12 Ge17 2.930878 1_555
Ge12 Ge16 2.930878 1_555
Ge12 Yb7 3.177814 1_555
Ge13 Ge8 2.912196 1_555
Ge13 Ge8 2.912196 1_556
Ge13 Yb0 2.916880 1_556
Ge13 Yb0 2.916880 1_555
Ge13 Yb4 2.928235 1_555
Ge13 Ge17 2.930878 1_555
Ge13 Ge16 2.930878 1_555
Ge13 Yb6 3.177814 1_555
Ge14 Yb1 2.916880 1_566
Ge14 Yb1 2.916880 1_565
Ge14 Yb3 2.928235 1_555
Ge14 Ge18 2.930878 1_565
Ge14 Ge19 2.930878 1_455
Ge14 Yb9 3.177814 1_565
Ge15 Yb1 2.916880 1_655
Ge15 Yb1 2.916880 1_656
Ge15 Yb2 2.928235 1_555
Ge15 Ge18 2.930878 1_655
Ge15 Ge19 2.930878 1_545
Ge15 Yb8 3.177814 1_545
Ge16 Ge4 2.912196 1_556
Ge16 Ge4 2.912196 1_555
Ge16 Yb0 2.916880 1_555
Ge16 Yb0 2.916880 1_556
Ge16 Yb3 2.928235 1_555
Ge16 Yb8 3.177814 1_555
Ge17 Ge5 2.912196 1_556
Ge17 Ge5 2.912196 1_555
Ge17 Yb0 2.916880 1_556
Ge17 Yb0 2.916880 1_555
Ge17 Yb2 2.928235 1_555
Ge17 Yb9 3.177814 1_555
Ge18 Ge7 2.912196 1_456
Ge18 Ge7 2.912196 1_455
Ge18 Yb1 2.916880 1_556
Ge18 Yb1 2.916880 1_555
Ge18 Yb4 2.928235 1_555
Ge18 Yb7 3.177814 1_455
Ge19 Ge6 2.912196 1_655
Ge19 Ge6 2.912196 1_656
Ge19 Yb1 2.916880 1_665
Ge19 Yb1 2.916880 1_666
Ge19 Yb5 2.928235 1_555
Ge19 Yb6 3.177814 1_655
