# generated using pymatgen
data_CsTm(WO4)2
_symmetry_space_group_name_H-M   'P 1'
_cell_length_a   5.98727096
_cell_length_b   5.98727096
_cell_length_c   8.13606619
_cell_angle_alpha   90.00000000
_cell_angle_beta   90.00000000
_cell_angle_gamma   119.99999888
_symmetry_Int_Tables_number   1
_chemical_formula_structural   CsTm(WO4)2
_chemical_formula_sum   'Cs1 Tm1 W2 O8'
_cell_volume   252.58231275
_cell_formula_units_Z   1
loop_
 _symmetry_equiv_pos_site_id
 _symmetry_equiv_pos_as_xyz
  1  'x, y, z'
loop_
 _atom_site_type_symbol
 _atom_site_label
 _atom_site_symmetry_multiplicity
 _atom_site_fract_x
 _atom_site_fract_y
 _atom_site_fract_z
 _atom_site_occupancy
  Cs  Cs0  1  -0.00000000  -0.00000000  -0.00000000  1
  Tm  Tm0  1  -0.00000000  -0.00000000  0.50000000  1
  W  W0  1  0.33333300  0.66666700  0.26682827  1
  W  W1  1  0.66666700  0.33333300  0.73317173  1
  O  O0  1  0.16897129  0.83102871  0.33724341  1
  O  O1  1  0.83102871  0.16897129  0.66275659  1
  O  O2  1  0.16897129  0.33794157  0.33724341  1
  O  O3  1  0.83102871  0.66205843  0.66275659  1
  O  O4  1  0.66205843  0.83102871  0.33724341  1
  O  O5  1  0.33794157  0.16897129  0.66275659  1
  O  O6  1  0.33333300  0.66666700  0.05181755  1
  O  O7  1  0.66666700  0.33333300  0.94818245  1
loop_
_geom_bond_atom_site_label_1
_geom_bond_atom_site_label_2
_geom_bond_distance
_geom_bond_site_symmetry_2
Cs0 O4 3.255623 1_445
Cs0 O5 3.255623 1_554
Cs0 O3 3.255623 1_444
Cs0 O2 3.255623 1_555
Cs0 O0 3.255626 1_545
Cs0 O1 3.255626 1_454
Cs0 O7 3.482363 1_454
Cs0 O6 3.482363 1_545
Cs0 O7 3.482368 1_554
Cs0 O6 3.482368 1_445
Cs0 O7 3.482368 1_444
Cs0 O6 3.482368 1_555
O0 W0 1.798179 1_555
O0 Tm0 2.196354 1_565
O1 W1 1.798179 1_555
O1 Tm0 2.196354 1_655
O2 W0 1.798188 1_555
O2 Tm0 2.196350 1_555
O3 W1 1.798188 1_555
O3 Tm0 2.196350 1_665
O4 W0 1.798188 1_555
O4 Tm0 2.196350 1_665
O5 W1 1.798188 1_555
O5 Tm0 2.196350 1_555
O6 W0 1.749341 1_555
O7 W1 1.749341 1_555
