# generated using pymatgen
data_Cr2NiO4
_symmetry_space_group_name_H-M   'P 1'
_cell_length_a   5.84643643
_cell_length_b   5.90706573
_cell_length_c   5.89599660
_cell_angle_alpha   119.78182434
_cell_angle_beta   119.48136526
_cell_angle_gamma   90.48982215
_symmetry_Int_Tables_number   1
_chemical_formula_structural   Cr2NiO4
_chemical_formula_sum   'Cr4 Ni2 O8'
_cell_volume   144.96188696
_cell_formula_units_Z   2
loop_
 _symmetry_equiv_pos_site_id
 _symmetry_equiv_pos_as_xyz
  1  'x, y, z'
loop_
 _atom_site_type_symbol
 _atom_site_label
 _atom_site_symmetry_multiplicity
 _atom_site_fract_x
 _atom_site_fract_y
 _atom_site_fract_z
 _atom_site_occupancy
  Cr  Cr0  1  -0.00070161  0.49822089  -0.00164515  1
  Cr  Cr1  1  -0.00011616  0.00077655  0.50050512  1
  Cr  Cr2  1  0.49946291  0.00030499  0.49952893  1
  Cr  Cr3  1  0.00097711  -0.00013922  0.00165426  1
  Ni  Ni0  1  0.62824249  0.38097003  0.25257967  1
  Ni  Ni1  1  0.37499017  0.62825047  0.74715266  1
  O  O0  1  0.23162723  0.75813775  0.46878798  1
  O  O1  1  0.78307288  0.75764219  0.02620638  1
  O  O2  1  0.24236528  0.76010100  0.02400021  1
  O  O3  1  0.76127617  0.23984310  0.52064802  1
  O  O4  1  0.76272323  0.78921241  0.53127109  1
  O  O5  1  0.21851353  0.23635747  0.97625079  1
  O  O6  1  0.24061918  0.21915283  0.47949946  1
  O  O7  1  0.75694760  0.23116854  0.97356055  1
loop_
_geom_bond_atom_site_label_1
_geom_bond_atom_site_label_2
_geom_bond_distance
_geom_bond_site_symmetry_2
Cr0 O0 1.980197 1_555
Cr0 O2 1.988443 1_555
Cr0 O1 1.990179 1_455
Cr0 O3 2.008576 1_454
Cr0 O7 2.011531 1_454
Cr0 O5 2.012540 1_554
Cr1 O0 1.985265 1_545
Cr1 O6 1.989843 1_555
Cr1 O4 1.990063 1_445
Cr1 O1 1.994926 1_445
Cr1 O3 1.996133 1_455
Cr1 O5 2.000321 1_555
Cr2 O4 1.984926 1_545
Cr2 O0 1.988958 1_545
Cr2 O3 1.990212 1_555
Cr2 O7 1.993662 1_555
Cr2 O6 1.996113 1_555
Cr2 O2 1.999249 1_545
Cr3 O4 1.979898 1_444
Cr3 O7 1.988815 1_454
Cr3 O5 1.989103 1_554
Cr3 O6 2.009181 1_555
Cr3 O1 2.011775 1_445
Cr3 O2 2.012804 1_545
Ni0 O7 1.959404 1_554
Ni0 O5 1.965545 1_554
Ni0 O4 1.973115 1_555
Ni0 O3 1.976864 1_555
Ni1 O1 1.959405 1_556
Ni1 O2 1.966054 1_556
Ni1 O0 1.973012 1_555
Ni1 O6 1.976419 1_555
