# generated using pymatgen
data_Cr(NO2)2
_symmetry_space_group_name_H-M   'P 1'
_cell_length_a   5.71694400
_cell_length_b   5.94490000
_cell_length_c   7.95023757
_cell_angle_alpha   70.25947315
_cell_angle_beta   90.00000000
_cell_angle_gamma   90.00000000
_symmetry_Int_Tables_number   1
_chemical_formula_structural   Cr(NO2)2
_chemical_formula_sum   'Cr2 N4 O8'
_cell_volume   254.32275744
_cell_formula_units_Z   2
loop_
 _symmetry_equiv_pos_site_id
 _symmetry_equiv_pos_as_xyz
  1  'x, y, z'
loop_
 _atom_site_type_symbol
 _atom_site_label
 _atom_site_symmetry_multiplicity
 _atom_site_fract_x
 _atom_site_fract_y
 _atom_site_fract_z
 _atom_site_occupancy
  Cr  Cr0  1  0.00000000  0.97805300  0.00956300  1
  Cr  Cr1  1  0.50000000  0.35829100  0.36767600  1
  N  N0  1  0.00000000  0.37046500  0.37981400  1
  N  N1  1  0.00000000  0.74477800  0.74333800  1
  N  N2  1  0.50000000  0.11593900  0.96022300  1
  N  N3  1  0.50000000  0.08159600  0.42394100  1
  O  O0  1  0.24211900  0.94638900  0.13260200  1
  O  O1  1  0.75788100  0.94638900  0.13260200  1
  O  O2  1  0.00000000  0.73628300  0.89881200  1
  O  O3  1  0.00000000  0.22310700  0.84278000  1
  O  O4  1  0.18553500  0.41769800  0.45144800  1
  O  O5  1  0.81446500  0.41769800  0.45144800  1
  O  O6  1  0.50000000  0.46369800  0.15228500  1
  O  O7  1  0.50000000  0.05261600  0.83946600  1
loop_
_geom_bond_atom_site_label_1
_geom_bond_atom_site_label_2
_geom_bond_distance
_geom_bond_site_symmetry_2
Cr0 O3 1.604870 1_564
Cr0 O1 1.668490 1_455
Cr0 O0 1.668490 1_555
Cr0 O2 1.922498 1_554
Cr1 N3 1.552036 1_555
Cr1 O6 1.612497 1_555
Cr1 O5 1.989772 1_555
Cr1 O4 1.989772 1_555
N0 O4 1.279172 1_555
N0 O5 1.279172 1_455
N1 O2 1.219924 1_555
N2 O7 1.143479 1_555
N2 O1 2.033352 1_546
N2 O0 2.033352 1_546
