# generated using pymatgen
data_YCu3(WO4)6
_symmetry_space_group_name_H-M   'P 1'
_cell_length_a   6.13584200
_cell_length_b   6.30486379
_cell_length_c   13.19500381
_cell_angle_alpha   102.84492888
_cell_angle_beta   92.16076867
_cell_angle_gamma   110.99179332
_symmetry_Int_Tables_number   1
_chemical_formula_structural   YCu3(WO4)6
_chemical_formula_sum   'Y1 Cu3 W6 O24'
_cell_volume   460.77587983
_cell_formula_units_Z   1
loop_
 _symmetry_equiv_pos_site_id
 _symmetry_equiv_pos_as_xyz
  1  'x, y, z'
loop_
 _atom_site_type_symbol
 _atom_site_label
 _atom_site_symmetry_multiplicity
 _atom_site_fract_x
 _atom_site_fract_y
 _atom_site_fract_z
 _atom_site_occupancy
  Y  Y0  1  0.50000000  0.00000000  0.00000000  1
  Cu  Cu0  1  0.66331600  0.66732800  0.83154600  1
  Cu  Cu1  1  0.00000000  0.00000000  0.50000000  1
  Cu  Cu2  1  0.33668400  0.33267200  0.16845400  1
  W  W0  1  0.41125700  0.73500000  0.58300200  1
  W  W1  1  0.75946500  0.08021000  0.26217800  1
  W  W2  1  0.08115800  0.40428300  0.91320100  1
  W  W3  1  0.24053500  0.91979000  0.73782200  1
  W  W4  1  0.58874300  0.26500000  0.41699800  1
  W  W5  1  0.91884200  0.59571700  0.08679900  1
  O  O0  1  0.95861900  0.20182400  0.83272300  1
  O  O1  1  0.29904500  0.53173800  0.50159000  1
  O  O2  1  0.64611600  0.89811100  0.16259600  1
  O  O3  1  0.57663000  0.58203300  0.69895100  1
  O  O4  1  0.92344800  0.92048400  0.36787200  1
  O  O5  1  0.26183200  0.25253200  0.02534500  1
  O  O6  1  0.97288700  0.68245200  0.82321800  1
  O  O7  1  0.31230100  0.02363600  0.49089300  1
  O  O8  1  0.64459400  0.35957700  0.15547600  1
  O  O9  1  0.52218400  0.98817200  0.69138300  1
  O  O10  1  0.86169500  0.32675800  0.35603300  1
  O  O11  1  0.19150700  0.66747700  0.02117300  1
  O  O12  1  0.07655200  0.07951600  0.63212800  1
  O  O13  1  0.42337000  0.41796700  0.30104900  1
  O  O14  1  0.73816800  0.74746800  0.97465500  1
  O  O15  1  0.35388400  0.10188900  0.83740400  1
  O  O16  1  0.70095500  0.46826200  0.49841000  1
  O  O17  1  0.04138100  0.79817600  0.16727700  1
  O  O18  1  0.35540600  0.64042300  0.84452400  1
  O  O19  1  0.68769900  0.97636400  0.50910700  1
  O  O20  1  0.02711300  0.31754800  0.17678200  1
  O  O21  1  0.13830500  0.67324200  0.64396700  1
  O  O22  1  0.47781600  0.01182800  0.30861700  1
  O  O23  1  0.80849300  0.33252300  0.97882700  1
loop_
_geom_bond_atom_site_label_1
_geom_bond_atom_site_label_2
_geom_bond_distance
_geom_bond_site_symmetry_2
Cu0 O3 1.714563 1_555
Cu0 O14 1.837421 1_555
Cu0 O18 1.853430 1_555
Cu0 O6 1.876117 1_555
Cu1 O4 1.700712 1_445
Cu1 O12 1.700712 1_555
Cu1 O7 1.878647 1_555
Cu1 O19 1.878647 1_445
Cu2 O13 1.714563 1_555
Cu2 O5 1.837421 1_555
Cu2 O8 1.853430 1_555
Cu2 O20 1.876117 1_555
O0 W2 1.404218 1_655
O1 W0 1.403677 1_555
O2 W1 1.488840 1_565
O2 Y0 2.588404 1_565
O3 W0 2.353857 1_555
O4 W1 2.283891 1_565
O5 W2 2.366374 1_554
O5 Y0 2.499920 1_555
O6 W3 2.309628 1_655
O6 W2 2.574514 1_655
O7 W4 2.253592 1_555
O7 W0 2.622392 1_545
O8 W5 2.188448 1_555
O8 Y0 2.547395 1_555
O9 W0 1.785933 1_555
O9 W3 1.792029 1_555
O10 W1 1.652378 1_555
O10 W4 1.837739 1_555
O11 W2 1.820141 1_554
O11 W5 1.869408 1_455
O11 Y0 2.348065 1_565
O12 W3 2.283891 1_545
O13 W4 2.353857 1_555
O14 W5 2.366374 1_556
O14 Y0 2.499920 1_566
O15 W3 1.488840 1_545
O15 Y0 2.588404 1_556
O16 W4 1.403677 1_555
O17 W5 1.404218 1_455
O18 W2 2.188448 1_555
O18 Y0 2.547395 1_566
O19 W0 2.253592 1_555
O19 W4 2.622392 1_565
O20 W1 2.309628 1_455
O20 W5 2.574514 1_455
O21 W3 1.652378 1_555
O21 W0 1.837739 1_555
O22 W4 1.785933 1_555
O22 W1 1.792029 1_555
O23 W5 1.820141 1_556
O23 W2 1.869408 1_655
O23 Y0 2.348065 1_556
