# generated using pymatgen
data_Rb(RuO2)4
_symmetry_space_group_name_H-M   'P 1'
_cell_length_a   7.19264346
_cell_length_b   7.19264346
_cell_length_c   7.19264346
_cell_angle_alpha   92.76080538
_cell_angle_beta   92.76080538
_cell_angle_gamma   154.64434454
_symmetry_Int_Tables_number   1
_chemical_formula_structural   Rb(RuO2)4
_chemical_formula_sum   'Rb1 Ru4 O8'
_cell_volume   155.46374465
_cell_formula_units_Z   1
loop_
 _symmetry_equiv_pos_site_id
 _symmetry_equiv_pos_as_xyz
  1  'x, y, z'
loop_
 _atom_site_type_symbol
 _atom_site_label
 _atom_site_symmetry_multiplicity
 _atom_site_fract_x
 _atom_site_fract_y
 _atom_site_fract_z
 _atom_site_occupancy
  Rb  Rb0  1  -0.00000000  0.00000000  -0.00000000  1
  Ru  Ru0  1  0.33543498  0.14878901  0.48422500  1
  Ru  Ru1  1  0.66456502  0.85121099  0.51577500  1
  Ru  Ru2  1  0.85121099  0.33543498  0.18664497  1
  Ru  Ru3  1  0.14878901  0.66456502  0.81335503  1
  O  O0  1  0.29668736  0.34758245  0.64427081  1
  O  O1  1  0.70331264  0.65241755  0.35572919  1
  O  O2  1  0.65241755  0.29668736  0.94910591  1
  O  O3  1  0.34758245  0.70331264  0.05089409  1
  O  O4  1  0.04465214  0.34399123  0.38864437  1
  O  O5  1  0.95534786  0.65600877  0.61135563  1
  O  O6  1  0.65600877  0.04465214  0.70066092  1
  O  O7  1  0.34399123  0.95534786  0.29933908  1
loop_
_geom_bond_atom_site_label_1
_geom_bond_atom_site_label_2
_geom_bond_distance
_geom_bond_site_symmetry_2
O0 Ru0 2.009939 1_555
O0 Ru1 2.052399 1_445
O0 Ru1 2.052404 1_555
O0 Rb0 2.975009 1_556
O0 Rb0 2.975010 1_666
O1 Ru1 2.009939 1_555
O1 Ru0 2.052399 1_665
O1 Ru0 2.052404 1_555
O1 Rb0 2.975009 1_665
O1 Rb0 2.975010 1_555
O2 Ru2 2.009928 1_556
O2 Ru3 2.052395 1_545
O2 Ru3 2.052395 1_655
O2 Rb0 2.975014 1_556
O2 Rb0 2.975015 1_666
O3 Ru3 2.009928 1_554
O3 Ru2 2.052395 1_455
O3 Ru2 2.052395 1_565
O3 Rb0 2.975014 1_665
O3 Rb0 2.975015 1_555
O4 Ru2 1.921585 1_455
O4 Ru1 1.978148 1_445
O4 Ru1 1.978153 1_555
O5 Ru3 1.921585 1_655
O5 Ru0 1.978148 1_665
O5 Ru0 1.978153 1_555
O6 Ru1 1.921580 1_545
O6 Ru3 1.978158 1_655
O6 Ru3 1.978161 1_545
O7 Ru0 1.921580 1_565
O7 Ru2 1.978158 1_455
O7 Ru2 1.978161 1_565
