# generated using pymatgen
data_Li(BiO2)2
_symmetry_space_group_name_H-M   'P 1'
_cell_length_a   5.51597600
_cell_length_b   6.12331400
_cell_length_c   11.59319500
_cell_angle_alpha   90.00000000
_cell_angle_beta   90.00000000
_cell_angle_gamma   90.00000000
_symmetry_Int_Tables_number   1
_chemical_formula_structural   Li(BiO2)2
_chemical_formula_sum   'Li4 Bi8 O16'
_cell_volume   391.57236951
_cell_formula_units_Z   4
loop_
 _symmetry_equiv_pos_site_id
 _symmetry_equiv_pos_as_xyz
  1  'x, y, z'
loop_
 _atom_site_type_symbol
 _atom_site_label
 _atom_site_symmetry_multiplicity
 _atom_site_fract_x
 _atom_site_fract_y
 _atom_site_fract_z
 _atom_site_occupancy
  Li  Li0  1  0.00000000  0.00000000  0.00000000  1
  Li  Li1  1  0.00000000  0.50000000  0.50000000  1
  Li  Li2  1  0.50000000  0.50000000  0.00000000  1
  Li  Li3  1  0.50000000  0.00000000  0.50000000  1
  Bi  Bi0  1  0.00893400  0.59784000  0.13966300  1
  Bi  Bi1  1  0.00893400  0.90216000  0.63966300  1
  Bi  Bi2  1  0.49106600  0.40216000  0.63966300  1
  Bi  Bi3  1  0.49106600  0.09784000  0.13966300  1
  Bi  Bi4  1  0.50893400  0.90216000  0.86033700  1
  Bi  Bi5  1  0.50893400  0.59784000  0.36033700  1
  Bi  Bi6  1  0.99106600  0.09784000  0.36033700  1
  Bi  Bi7  1  0.99106600  0.40216000  0.86033700  1
  O  O0  1  0.17807200  0.32384700  0.03538000  1
  O  O1  1  0.17807200  0.17615300  0.53538000  1
  O  O2  1  0.15927100  0.05905600  0.81219100  1
  O  O3  1  0.15927100  0.44094400  0.31219100  1
  O  O4  1  0.34072900  0.55905600  0.81219100  1
  O  O5  1  0.34072900  0.94094400  0.31219100  1
  O  O6  1  0.32192800  0.82384700  0.03538000  1
  O  O7  1  0.32192800  0.67615300  0.53538000  1
  O  O8  1  0.67807200  0.32384700  0.46462000  1
  O  O9  1  0.67807200  0.17615300  0.96462000  1
  O  O10  1  0.65927100  0.44094400  0.18780900  1
  O  O11  1  0.65927100  0.05905600  0.68780900  1
  O  O12  1  0.84072900  0.94094400  0.18780900  1
  O  O13  1  0.84072900  0.55905600  0.68780900  1
  O  O14  1  0.82192800  0.82384700  0.46462000  1
  O  O15  1  0.82192800  0.67615300  0.96462000  1
loop_
_geom_bond_atom_site_label_1
_geom_bond_atom_site_label_2
_geom_bond_distance
_geom_bond_site_symmetry_2
Li0 O9 2.117777 1_454
Li0 O6 2.117777 1_545
Li0 O15 2.250642 1_444
Li0 O0 2.250642 1_555
Li0 O12 2.375554 1_445
Li0 O2 2.375554 1_554
Li1 O8 2.117777 1_455
Li1 O7 2.117777 1_555
Li1 O14 2.250642 1_455
Li1 O1 2.250642 1_555
Li1 O13 2.375554 1_455
Li1 O3 2.375554 1_555
Li2 O0 2.117777 1_555
Li2 O15 2.117777 1_554
Li2 O6 2.250642 1_555
Li2 O9 2.250642 1_554
Li2 O4 2.375554 1_554
Li2 O10 2.375554 1_555
Li3 O14 2.117777 1_545
Li3 O1 2.117777 1_555
Li3 O8 2.250642 1_555
Li3 O7 2.250642 1_545
Li3 O11 2.375554 1_555
Li3 O5 2.375554 1_545
Bi0 O10 2.225882 1_455
Bi0 O0 2.268670 1_555
Bi0 O15 2.326387 1_454
Bi0 O12 2.363538 1_455
Bi0 O3 2.368809 1_555
Bi0 O6 2.521412 1_555
Bi1 O11 2.225882 1_465
Bi1 O1 2.268670 1_565
Bi1 O14 2.326387 1_455
Bi1 O13 2.363538 1_455
Bi1 O2 2.368809 1_565
Bi1 O7 2.521412 1_555
Bi2 O13 2.225882 1_555
Bi2 O7 2.268670 1_555
Bi2 O8 2.326387 1_555
Bi2 O11 2.363538 1_555
Bi2 O4 2.368809 1_555
Bi2 O1 2.521412 1_555
Bi3 O12 2.225882 1_545
Bi3 O6 2.268670 1_545
Bi3 O9 2.326387 1_554
Bi3 O10 2.363538 1_555
Bi3 O5 2.368809 1_545
Bi3 O0 2.521412 1_555
Bi4 O2 2.225882 1_565
Bi4 O9 2.268670 1_565
Bi4 O6 2.326387 1_556
Bi4 O4 2.363538 1_555
Bi4 O11 2.368809 1_565
Bi4 O15 2.521412 1_555
Bi5 O3 2.225882 1_555
Bi5 O8 2.268670 1_555
Bi5 O7 2.326387 1_555
Bi5 O5 2.363538 1_555
Bi5 O10 2.368809 1_555
Bi5 O14 2.521412 1_555
Bi6 O5 2.225882 1_645
Bi6 O14 2.268670 1_545
Bi6 O1 2.326387 1_655
Bi6 O3 2.363538 1_655
Bi6 O12 2.368809 1_545
Bi6 O8 2.521412 1_555
Bi7 O4 2.225882 1_655
Bi7 O15 2.268670 1_555
Bi7 O0 2.326387 1_656
Bi7 O2 2.363538 1_655
Bi7 O13 2.368809 1_555
Bi7 O9 2.521412 1_555
