# generated using pymatgen
data_MgV4(PO5)4
_symmetry_space_group_name_H-M   'P 1'
_cell_length_a   5.28056187
_cell_length_b   10.20374013
_cell_length_c   7.33979722
_cell_angle_alpha   70.12736070
_cell_angle_beta   69.37574749
_cell_angle_gamma   75.45140479
_symmetry_Int_Tables_number   1
_chemical_formula_structural   MgV4(PO5)4
_chemical_formula_sum   'Mg1 V4 P4 O20'
_cell_volume   344.18720851
_cell_formula_units_Z   1
loop_
 _symmetry_equiv_pos_site_id
 _symmetry_equiv_pos_as_xyz
  1  'x, y, z'
loop_
 _atom_site_type_symbol
 _atom_site_label
 _atom_site_symmetry_multiplicity
 _atom_site_fract_x
 _atom_site_fract_y
 _atom_site_fract_z
 _atom_site_occupancy
  Mg  Mg0  1  0.50000000  0.75000000  0.25000000  1
  V  V0  1  0.02216500  0.49169400  0.99808200  1
  V  V1  1  0.00000000  0.75000000  0.25000000  1
  V  V2  1  0.50000000  0.24999900  0.75000000  1
  V  V3  1  0.97783600  0.00830600  0.50191800  1
  P  P0  1  0.60586900  0.06470800  0.19341300  1
  P  P1  1  0.39413200  0.43529300  0.30658700  1
  P  P2  1  0.37698300  0.93735200  0.79937600  1
  P  P3  1  0.62301800  0.56264900  0.70062400  1
  O  O0  1  0.29642900  0.07969100  0.31351500  1
  O  O1  1  0.22271100  0.40557700  0.19889800  1
  O  O2  1  0.09565400  0.84053900  0.38569100  1
  O  O3  1  0.32563600  0.82849600  0.01071200  1
  O  O4  1  0.29868500  0.59000300  0.32176700  1
  O  O5  1  0.32479600  0.08922800  0.82073300  1
  O  O6  1  0.35516800  0.33236500  0.51718200  1
  O  O7  1  0.17187200  0.35097000  0.90122600  1
  O  O8  1  0.77729000  0.09442300  0.30110200  1
  O  O9  1  0.18798400  0.92013700  0.69263800  1
  O  O10  1  0.70357200  0.42030900  0.18648600  1
  O  O11  1  0.31806300  0.59482200  0.82003600  1
  O  O12  1  0.82812700  0.14903000  0.59877500  1
  O  O13  1  0.64483100  0.16763500  0.98281900  1
  O  O14  1  0.81201600  0.57986400  0.80736200  1
  O  O15  1  0.70131600  0.90999600  0.17823300  1
  O  O16  1  0.67436400  0.67150500  0.48928800  1
  O  O17  1  0.90434700  0.65946000  0.11430900  1
  O  O18  1  0.68193800  0.90517700  0.67996300  1
  O  O19  1  0.67520500  0.41077200  0.67926700  1
loop_
_geom_bond_atom_site_label_1
_geom_bond_atom_site_label_2
_geom_bond_distance
_geom_bond_site_symmetry_2
Mg0 O15 1.991381 1_555
Mg0 O4 1.991387 1_555
Mg0 O3 2.094349 1_555
Mg0 O16 2.094349 1_555
Mg0 O2 2.130913 1_555
Mg0 O17 2.130920 1_555
O0 P0 1.556227 1_555
O0 V3 1.888136 1_455
O1 P1 1.530018 1_555
O1 V0 1.953894 1_554
O2 V1 1.820680 1_555
O2 V3 2.032024 1_465
O3 P2 1.548232 1_554
O3 V1 2.071477 1_555
O4 P1 1.561656 1_555
O4 V1 2.034052 1_555
O5 P2 1.556362 1_545
O5 V2 1.913563 1_555
O6 P1 1.521662 1_555
O6 V2 1.957737 1_555
O7 V0 1.708790 1_555
O7 V2 1.954862 1_555
O8 P0 1.530013 1_555
O8 V3 1.953894 1_555
O9 P2 1.540496 1_555
O9 V3 1.933118 1_465
O10 P1 1.556226 1_555
O10 V0 1.888138 1_654
O11 P3 1.550760 1_555
O11 V0 1.925925 1_555
O12 V3 1.708795 1_555
O12 V2 1.954846 1_555
O13 P0 1.521653 1_556
O13 V2 1.957739 1_555
O14 P3 1.540491 1_555
O14 V0 1.933123 1_655
O15 P0 1.561676 1_565
O15 V1 2.034043 1_655
O16 P3 1.548232 1_555
O16 V1 2.071474 1_655
O17 V1 1.820685 1_655
O17 V0 2.032015 1_654
O18 P2 1.550765 1_555
O18 V3 1.925929 1_565
O19 P3 1.556372 1_555
O19 V2 1.913584 1_555
