# generated using pymatgen
data_SrCdGa
_symmetry_space_group_name_H-M   'P 1'
_cell_length_a   6.26742535
_cell_length_b   6.26742535
_cell_length_c   7.96054557
_cell_angle_alpha   50.77538963
_cell_angle_beta   50.77538963
_cell_angle_gamma   46.00577652
_symmetry_Int_Tables_number   1
_chemical_formula_structural   SrCdGa
_chemical_formula_sum   'Sr2 Cd2 Ga2'
_cell_volume   163.46851715
_cell_formula_units_Z   2
loop_
 _symmetry_equiv_pos_site_id
 _symmetry_equiv_pos_as_xyz
  1  'x, y, z'
loop_
 _atom_site_type_symbol
 _atom_site_label
 _atom_site_symmetry_multiplicity
 _atom_site_fract_x
 _atom_site_fract_y
 _atom_site_fract_z
 _atom_site_occupancy
  Sr  Sr0  1  0.54340900  0.54340900  0.70851400  1
  Sr  Sr1  1  0.45659100  0.45659100  0.29148600  1
  Cd  Cd0  1  0.82625400  0.82625400  0.11309100  1
  Cd  Cd1  1  0.17374600  0.17374600  0.88690900  1
  Ga  Ga0  1  0.15197400  0.15197400  0.29967600  1
  Ga  Ga1  1  0.84802600  0.84802600  0.70032400  1
loop_
_geom_bond_atom_site_label_1
_geom_bond_atom_site_label_2
_geom_bond_distance
_geom_bond_site_symmetry_2
Cd0 Ga0 2.853844 1_565
Cd0 Ga0 2.853844 1_655
Cd0 Cd1 3.065693 1_664
Cd0 Ga1 3.118620 1_554
Cd0 Sr0 3.400224 1_654
Cd0 Sr0 3.400224 1_564
Cd0 Sr0 3.444340 1_555
Cd0 Sr1 3.447685 1_555
Cd0 Sr1 3.634702 1_565
Cd0 Sr1 3.634702 1_655
Cd1 Ga1 2.853844 1_455
Cd1 Ga1 2.853844 1_545
Cd1 Ga0 3.118620 1_556
Cd1 Sr1 3.400224 1_546
Cd1 Sr1 3.400224 1_456
Cd1 Sr1 3.444340 1_555
Cd1 Sr0 3.447685 1_555
Cd1 Sr0 3.634702 1_545
Cd1 Sr0 3.634702 1_455
Ga0 Ga1 2.665154 1_445
Ga0 Sr1 3.359576 1_455
Ga0 Sr1 3.359576 1_545
Ga0 Sr1 3.470249 1_555
Ga0 Sr0 3.543776 1_455
Ga0 Sr0 3.543776 1_545
Ga0 Sr0 3.652612 1_554
Ga1 Sr0 3.359576 1_565
Ga1 Sr0 3.359576 1_655
Ga1 Sr0 3.470249 1_555
Ga1 Sr1 3.543776 1_655
Ga1 Sr1 3.543776 1_565
Ga1 Sr1 3.652612 1_556
