# generated using pymatgen
data_EuMg2Cu9
_symmetry_space_group_name_H-M   'P 1'
_cell_length_a   5.07074253
_cell_length_b   5.07074253
_cell_length_c   16.08856100
_cell_angle_alpha   90.00000000
_cell_angle_beta   90.00000000
_cell_angle_gamma   120.00000691
_symmetry_Int_Tables_number   1
_chemical_formula_structural   EuMg2Cu9
_chemical_formula_sum   'Eu2 Mg4 Cu18'
_cell_volume   358.25389597
_cell_formula_units_Z   2
loop_
 _symmetry_equiv_pos_site_id
 _symmetry_equiv_pos_as_xyz
  1  'x, y, z'
loop_
 _atom_site_type_symbol
 _atom_site_label
 _atom_site_symmetry_multiplicity
 _atom_site_fract_x
 _atom_site_fract_y
 _atom_site_fract_z
 _atom_site_occupancy
  Eu  Eu0  1  0.66666700  0.33333300  0.25000000  1
  Eu  Eu1  1  0.33333300  0.66666700  0.75000000  1
  Mg  Mg0  1  0.66666700  0.33333300  0.46805800  1
  Mg  Mg1  1  0.33333300  0.66666700  0.96805800  1
  Mg  Mg2  1  0.66666700  0.33333300  0.03194200  1
  Mg  Mg3  1  0.33333300  0.66666700  0.53194200  1
  Cu  Cu0  1  0.33333300  0.66666700  0.25000000  1
  Cu  Cu1  1  0.66666700  0.33333300  0.75000000  1
  Cu  Cu2  1  0.16841500  0.83158500  0.37794900  1
  Cu  Cu3  1  0.16841500  0.33683000  0.37794900  1
  Cu  Cu4  1  0.00000000  0.00000000  0.75000000  1
  Cu  Cu5  1  0.00000000  0.00000000  0.25000000  1
  Cu  Cu6  1  0.00000000  0.00000000  0.00000000  1
  Cu  Cu7  1  0.00000000  0.00000000  0.50000000  1
  Cu  Cu8  1  0.16841500  0.33683000  0.12205100  1
  Cu  Cu9  1  0.83158500  0.16841500  0.62205100  1
  Cu  Cu10  1  0.33683000  0.16841500  0.62205100  1
  Cu  Cu11  1  0.66317000  0.83158500  0.12205100  1
  Cu  Cu12  1  0.16841500  0.83158500  0.12205100  1
  Cu  Cu13  1  0.83158500  0.66317000  0.87794900  1
  Cu  Cu14  1  0.83158500  0.16841500  0.87794900  1
  Cu  Cu15  1  0.83158500  0.66317000  0.62205100  1
  Cu  Cu16  1  0.33683000  0.16841500  0.87794900  1
  Cu  Cu17  1  0.66317000  0.83158500  0.37794900  1
loop_
_geom_bond_atom_site_label_1
_geom_bond_atom_site_label_2
_geom_bond_distance
_geom_bond_site_symmetry_2
Eu0 Mg0 3.508239 1_555
Eu0 Mg2 3.508239 1_555
Eu1 Mg1 3.508239 1_555
Eu1 Mg3 3.508239 1_555
Mg0 Mg3 3.102768 1_545
Mg0 Mg3 3.102768 1_655
Mg0 Mg3 3.102776 1_555
Mg1 Mg2 3.102768 1_456
Mg1 Mg2 3.102768 1_566
Mg1 Mg2 3.102776 1_556
Cu0 Cu2 2.517034 1_555
Cu0 Cu12 2.517034 1_555
Cu0 Cu3 2.517037 1_555
Cu0 Cu17 2.517037 1_555
Cu0 Cu8 2.517037 1_555
Cu0 Cu11 2.517037 1_555
Cu0 Eu0 2.927591 1_455
Cu0 Eu0 2.927591 1_565
Cu0 Cu5 2.927592 1_565
Cu0 Cu5 2.927596 1_665
Cu0 Cu5 2.927596 1_555
Cu0 Eu0 2.927601 1_555
Cu1 Cu9 2.517034 1_555
Cu1 Cu14 2.517034 1_555
Cu1 Cu15 2.517037 1_555
Cu1 Cu10 2.517037 1_555
Cu1 Cu13 2.517037 1_555
Cu1 Cu16 2.517037 1_555
Cu1 Eu1 2.927591 1_545
Cu1 Eu1 2.927591 1_655
Cu1 Cu4 2.927592 1_655
Cu1 Cu4 2.927596 1_555
Cu1 Cu4 2.927596 1_665
Cu1 Eu1 2.927601 1_555
Cu2 Cu7 2.458397 1_565
Cu2 Cu3 2.508775 1_555
Cu2 Cu5 2.534833 1_565
Cu2 Cu3 2.561967 1_565
Cu2 Mg3 2.869862 1_555
Cu2 Mg0 2.920624 1_455
Cu2 Mg0 2.920624 1_565
Cu2 Eu0 3.265858 1_455
Cu2 Eu0 3.265858 1_565
Cu3 Cu7 2.458397 1_555
Cu3 Cu5 2.534833 1_555
Cu3 Mg3 2.869865 1_555
Cu3 Mg0 2.920622 1_455
Cu3 Mg0 2.920626 1_555
Cu3 Eu0 3.265856 1_455
Cu3 Eu0 3.265860 1_555
Cu4 Cu9 2.534833 1_455
Cu4 Eu1 2.927592 1_545
Cu4 Eu1 2.927596 1_555
Cu4 Eu1 2.927596 1_445
Cu5 Cu8 2.534833 1_555
Cu5 Eu0 2.927592 1_455
Cu5 Eu0 2.927596 1_445
Cu5 Eu0 2.927596 1_555
Cu6 Cu8 2.458397 1_555
Cu6 Mg2 2.972354 1_455
Cu6 Mg1 2.972354 1_544
Cu6 Mg2 2.972358 1_555
Cu6 Mg2 2.972358 1_445
Cu6 Mg1 2.972358 1_444
Cu6 Mg1 2.972358 1_554
Cu7 Cu9 2.458397 1_455
Cu7 Mg3 2.972354 1_545
Cu7 Mg0 2.972354 1_455
Cu7 Mg3 2.972358 1_445
Cu7 Mg0 2.972358 1_555
Cu7 Mg3 2.972358 1_555
Cu7 Mg0 2.972358 1_445
Cu8 Mg1 2.869865 1_554
Cu8 Mg2 2.920622 1_455
Cu8 Mg2 2.920626 1_555
Cu8 Eu0 3.265856 1_455
Cu8 Eu0 3.265860 1_555
Cu9 Mg0 2.869862 1_555
Cu9 Mg3 2.920624 1_545
Cu9 Mg3 2.920624 1_655
Cu9 Eu1 3.265858 1_545
Cu9 Eu1 3.265858 1_655
Cu10 Cu7 2.458397 1_555
Cu10 Cu15 2.508775 1_555
Cu10 Cu9 2.508775 1_555
Cu10 Cu4 2.534833 1_555
Cu10 Cu15 2.561967 1_445
Cu10 Cu9 2.561967 1_455
Cu10 Mg0 2.869865 1_555
Cu10 Mg3 2.920622 1_545
Cu10 Mg3 2.920626 1_555
Cu10 Eu1 3.265856 1_545
Cu10 Eu1 3.265860 1_555
Cu11 Cu6 2.458397 1_665
Cu11 Cu8 2.508775 1_555
Cu11 Cu12 2.508775 1_555
Cu11 Cu5 2.534833 1_665
Cu11 Cu8 2.561967 1_665
Cu11 Cu12 2.561967 1_655
Cu11 Mg1 2.869865 1_554
Cu11 Mg2 2.920622 1_565
Cu11 Mg2 2.920626 1_555
Cu11 Eu0 3.265856 1_565
Cu11 Eu0 3.265860 1_555
Cu12 Cu6 2.458397 1_565
Cu12 Cu8 2.508775 1_555
Cu12 Cu5 2.534833 1_565
Cu12 Cu8 2.561967 1_565
Cu12 Mg1 2.869862 1_554
Cu12 Mg2 2.920624 1_455
Cu12 Mg2 2.920624 1_565
Cu12 Eu0 3.265858 1_455
Cu12 Eu0 3.265858 1_565
Cu13 Cu6 2.458397 1_666
Cu13 Cu16 2.508775 1_555
Cu13 Cu14 2.508775 1_555
Cu13 Cu4 2.534833 1_665
Cu13 Cu16 2.561967 1_665
Cu13 Cu14 2.561967 1_565
Cu13 Mg2 2.869865 1_556
Cu13 Mg1 2.920622 1_655
Cu13 Mg1 2.920626 1_555
Cu13 Eu1 3.265856 1_655
Cu13 Eu1 3.265860 1_555
Cu14 Cu6 2.458397 1_656
Cu14 Cu16 2.508775 1_555
Cu14 Cu4 2.534833 1_655
Cu14 Cu16 2.561967 1_655
Cu14 Mg2 2.869862 1_556
Cu14 Mg1 2.920624 1_545
Cu14 Mg1 2.920624 1_655
Cu14 Eu1 3.265858 1_545
Cu14 Eu1 3.265858 1_655
Cu15 Cu7 2.458397 1_665
Cu15 Cu9 2.508775 1_555
Cu15 Cu4 2.534833 1_665
Cu15 Cu9 2.561967 1_565
Cu15 Mg0 2.869865 1_555
Cu15 Mg3 2.920622 1_655
Cu15 Mg3 2.920626 1_555
Cu15 Eu1 3.265856 1_655
Cu15 Eu1 3.265860 1_555
Cu16 Cu6 2.458397 1_556
Cu16 Cu4 2.534833 1_555
Cu16 Mg2 2.869865 1_556
Cu16 Mg1 2.920622 1_545
Cu16 Mg1 2.920626 1_555
Cu16 Eu1 3.265856 1_545
Cu16 Eu1 3.265860 1_555
Cu17 Cu7 2.458397 1_665
Cu17 Cu3 2.508775 1_555
Cu17 Cu2 2.508775 1_555
Cu17 Cu5 2.534833 1_665
Cu17 Cu3 2.561967 1_665
Cu17 Cu2 2.561967 1_655
Cu17 Mg3 2.869865 1_555
Cu17 Mg0 2.920622 1_565
Cu17 Mg0 2.920626 1_555
Cu17 Eu0 3.265856 1_565
Cu17 Eu0 3.265860 1_555
