# generated using pymatgen
data_Mg7Si4
_symmetry_space_group_name_H-M   'P 1'
_cell_length_a   5.27158300
_cell_length_b   6.14211346
_cell_length_c   13.85811138
_cell_angle_alpha   91.31204766
_cell_angle_beta   100.36132828
_cell_angle_gamma   91.77177320
_symmetry_Int_Tables_number   1
_chemical_formula_structural   Mg7Si4
_chemical_formula_sum   'Mg14 Si8'
_cell_volume   440.99420121
_cell_formula_units_Z   2
loop_
 _symmetry_equiv_pos_site_id
 _symmetry_equiv_pos_as_xyz
  1  'x, y, z'
loop_
 _atom_site_type_symbol
 _atom_site_label
 _atom_site_symmetry_multiplicity
 _atom_site_fract_x
 _atom_site_fract_y
 _atom_site_fract_z
 _atom_site_occupancy
  Mg  Mg0  1  0.93912900  0.94740500  0.83410200  1
  Mg  Mg1  1  0.13937300  0.40052600  0.75493900  1
  Mg  Mg2  1  0.60839400  0.17710000  0.62439300  1
  Mg  Mg3  1  0.58972200  0.67045000  0.65479100  1
  Mg  Mg4  1  0.02598500  0.43508900  0.98993900  1
  Mg  Mg5  1  0.83233300  0.18551000  0.44304800  1
  Mg  Mg6  1  0.27173100  0.66774200  0.23386900  1
  Mg  Mg7  1  0.78792900  0.68138500  0.39213700  1
  Mg  Mg8  1  0.49939000  0.68055100  0.91852300  1
  Mg  Mg9  1  0.49332500  0.16491400  0.96729600  1
  Mg  Mg10  1  0.02958700  0.94263200  0.05730500  1
  Mg  Mg11  1  0.40165100  0.18102100  0.23615700  1
  Mg  Mg12  1  0.31051600  0.92417200  0.44507700  1
  Mg  Mg13  1  0.32901800  0.42775800  0.43425800  1
  Si  Si0  1  0.56413700  0.85842000  0.11378900  1
  Si  Si1  1  0.40329900  0.99007100  0.77605400  1
  Si  Si2  1  0.66127800  0.35335400  0.80622800  1
  Si  Si3  1  0.92222800  0.36150200  0.26484100  1
  Si  Si4  1  0.65044500  0.47199500  0.11364200  1
  Si  Si5  1  0.07483700  0.95289200  0.61564700  1
  Si  Si6  1  0.06578000  0.56303700  0.57258500  1
  Si  Si7  1  0.89994000  0.96992300  0.25509000  1
loop_
_geom_bond_atom_site_label_1
_geom_bond_atom_site_label_2
_geom_bond_distance
_geom_bond_site_symmetry_2
Mg0 Si1 2.716839 1_655
Mg0 Si1 2.816493 1_555
Mg0 Si2 2.928821 1_565
Mg0 Si5 3.234216 1_655
Mg1 Si6 2.705509 1_555
Mg1 Si2 2.741150 1_555
Mg1 Si2 2.747688 1_455
Mg1 Si1 2.912275 1_545
Mg1 Si5 3.296071 1_545
Mg2 Si2 2.683885 1_555
Mg2 Si1 2.785142 1_545
Mg2 Si5 2.875105 1_645
Mg2 Si5 3.074502 1_545
Mg3 Si6 2.843028 1_555
Mg3 Si1 2.864614 1_555
Mg3 Si2 2.878836 1_555
Mg3 Si6 3.021164 1_655
Mg3 Si5 3.179849 1_655
Mg3 Si5 3.236603 1_555
Mg4 Si4 2.853081 1_456
Mg4 Si2 2.924212 1_455
Mg5 Si3 2.829062 1_555
Mg5 Si5 2.926831 1_645
Mg5 Si7 2.978298 1_545
Mg5 Si6 2.992012 1_655
Mg6 Si3 2.687738 1_455
Mg6 Si0 2.723445 1_555
Mg6 Si7 2.789251 1_455
Mg6 Si4 3.075771 1_555
Mg7 Si7 2.754869 1_555
Mg7 Si6 2.785439 1_655
Mg7 Si3 2.801788 1_555
Mg8 Si2 2.762140 1_555
Mg8 Si1 2.764155 1_555
Mg8 Si0 2.853400 1_556
Mg8 Si4 3.005608 1_556
Mg9 Si4 2.735067 1_556
Mg9 Si0 2.783968 1_546
Mg9 Si1 2.790709 1_545
Mg9 Si2 2.805637 1_555
Mg10 Si0 2.744381 1_455
Mg10 Si0 2.852400 1_555
Mg10 Si7 2.944105 1_455
Mg11 Si0 2.830038 1_545
Mg11 Si3 2.878999 1_455
Mg11 Si3 2.883949 1_555
Mg11 Si4 2.931181 1_555
Mg11 Si7 2.937377 1_545
Mg11 Si7 2.966167 1_445
Mg12 Si5 2.865827 1_555
Mg12 Si7 3.117236 1_455
Mg13 Si6 2.691836 1_555
Mg13 Si3 2.892679 1_455
Si0 Si4 2.430482 1_555
Si0 Si7 2.460454 1_555
Si1 Si5 2.561153 1_555
Si1 Si2 2.562854 1_565
Si3 Si7 2.403874 1_545
Si3 Si4 2.439075 1_555
Si5 Si6 2.451415 1_555
