# generated using pymatgen
data_LaSmNi2O5
_symmetry_space_group_name_H-M   'P 1'
_cell_length_a   10.80663937
_cell_length_b   11.34739301
_cell_length_c   17.46379854
_cell_angle_alpha   108.96168627
_cell_angle_beta   108.04915228
_cell_angle_gamma   90.00282506
_symmetry_Int_Tables_number   1
_chemical_formula_structural   LaSmNi2O5
_chemical_formula_sum   'La16 Sm16 Ni32 O80'
_cell_volume   1913.54453164
_cell_formula_units_Z   16
loop_
 _symmetry_equiv_pos_site_id
 _symmetry_equiv_pos_as_xyz
  1  'x, y, z'
loop_
 _atom_site_type_symbol
 _atom_site_label
 _atom_site_symmetry_multiplicity
 _atom_site_fract_x
 _atom_site_fract_y
 _atom_site_fract_z
 _atom_site_occupancy
  La  La0  1  0.30863900  0.06094800  0.60820800  1
  La  La1  1  0.30962600  0.56372000  0.61074100  1
  La  La2  1  0.80617600  0.06126600  0.60873800  1
  La  La3  1  0.80790500  0.56359400  0.61097900  1
  La  La4  1  0.19855100  0.43753800  0.38877100  1
  La  La5  1  0.19730500  0.44115500  0.89236100  1
  La  La6  1  0.69621800  0.43769400  0.38893000  1
  La  La7  1  0.69460400  0.93579800  0.38766300  1
  La  La8  1  0.05790100  0.29669100  0.60918800  1
  La  La9  1  0.05713400  0.79833200  0.61018100  1
  La  La10  1  0.55880000  0.29813300  0.61085600  1
  La  La11  1  0.44571400  0.20089100  0.38794400  1
  La  La12  1  0.44927400  0.20292300  0.89146900  1
  La  La13  1  0.94806300  0.20091500  0.38770900  1
  La  La14  1  0.94746400  0.20244600  0.89153500  1
  La  La15  1  0.94788000  0.70296200  0.38884900  1
  Sm  Sm0  1  0.30372700  0.06410600  0.10663400  1
  Sm  Sm1  1  0.30483600  0.56454000  0.11021900  1
  Sm  Sm2  1  0.80289000  0.06279000  0.10550700  1
  Sm  Sm3  1  0.80426700  0.56356100  0.10752700  1
  Sm  Sm4  1  0.19849200  0.93377400  0.39029400  1
  Sm  Sm5  1  0.19773800  0.93597200  0.89445200  1
  Sm  Sm6  1  0.69848000  0.43856900  0.89381000  1
  Sm  Sm7  1  0.69633500  0.93524500  0.89220900  1
  Sm  Sm8  1  0.05369300  0.29385000  0.10803300  1
  Sm  Sm9  1  0.05451600  0.79483500  0.10857000  1
  Sm  Sm10  1  0.55431400  0.29409600  0.10771800  1
  Sm  Sm11  1  0.55313700  0.79342000  0.10679100  1
  Sm  Sm12  1  0.55559700  0.79325600  0.60715400  1
  Sm  Sm13  1  0.44750600  0.70718000  0.39224500  1
  Sm  Sm14  1  0.44888000  0.70762800  0.89461500  1
  Sm  Sm15  1  0.94671100  0.70818100  0.89518700  1
  Ni  Ni0  1  0.00684600  0.00016400  0.00137700  1
  Ni  Ni1  1  0.00576400  0.99946600  0.49852800  1
  Ni  Ni2  1  0.00708600  0.50095300  0.00173800  1
  Ni  Ni3  1  0.00550800  0.49966600  0.49926100  1
  Ni  Ni4  1  0.50706500  0.00007700  0.00121700  1
  Ni  Ni5  1  0.50532900  0.99911600  0.49934800  1
  Ni  Ni6  1  0.50741800  0.50066500  0.00145400  1
  Ni  Ni7  1  0.50518400  0.50006700  0.49889400  1
  Ni  Ni8  1  0.25738000  0.25177400  0.00208300  1
  Ni  Ni9  1  0.25568800  0.24859400  0.49878700  1
  Ni  Ni10  1  0.25708200  0.75144500  0.00177700  1
  Ni  Ni11  1  0.25643000  0.74959100  0.49939600  1
  Ni  Ni12  1  0.75703000  0.25097400  0.00134300  1
  Ni  Ni13  1  0.75497500  0.24988900  0.49909000  1
  Ni  Ni14  1  0.75729000  0.74989000  0.00099600  1
  Ni  Ni15  1  0.75457500  0.74965600  0.49923200  1
  Ni  Ni16  1  0.10628300  0.09277600  0.24678300  1
  Ni  Ni17  1  0.11024500  0.09478200  0.75211500  1
  Ni  Ni18  1  0.10882500  0.59615100  0.24714300  1
  Ni  Ni19  1  0.11005000  0.60020900  0.75302900  1
  Ni  Ni20  1  0.60598300  0.09359700  0.24597700  1
  Ni  Ni21  1  0.60949700  0.09443200  0.75157500  1
  Ni  Ni22  1  0.60428200  0.59555300  0.24683000  1
  Ni  Ni23  1  0.61019400  0.60071800  0.75328900  1
  Ni  Ni24  1  0.35660200  0.40448700  0.24704500  1
  Ni  Ni25  1  0.36228800  0.40707700  0.75236400  1
  Ni  Ni26  1  0.35471900  0.90031400  0.24744800  1
  Ni  Ni27  1  0.36214800  0.90224700  0.75250200  1
  Ni  Ni28  1  0.85646900  0.40242500  0.24618100  1
  Ni  Ni29  1  0.85777700  0.40759900  0.75310600  1
  Ni  Ni30  1  0.85803000  0.90163900  0.24610800  1
  Ni  Ni31  1  0.85693200  0.90177800  0.75211100  1
  O  O0  1  0.12101200  0.11540100  0.48062100  1
  O  O1  1  0.12145800  0.11866900  0.98411600  1
  O  O2  1  0.12083700  0.61987500  0.48410700  1
  O  O3  1  0.11635400  0.62353900  0.98300400  1
  O  O4  1  0.61924800  0.11904900  0.48341700  1
  O  O5  1  0.62120200  0.11793600  0.98321300  1
  O  O6  1  0.61625000  0.62227500  0.48286000  1
  O  O7  1  0.61814300  0.61859200  0.98010700  1
  O  O8  1  0.13971100  0.38369100  0.02396700  1
  O  O9  1  0.13640500  0.37999000  0.51595200  1
  O  O10  1  0.13723300  0.88118400  0.01977400  1
  O  O11  1  0.13658200  0.87982800  0.51382700  1
  O  O12  1  0.63949600  0.38305100  0.02195700  1
  O  O13  1  0.63654400  0.38184900  0.51677500  1
  O  O14  1  0.63647500  0.87928400  0.01884700  1
  O  O15  1  0.63297800  0.87742600  0.51707900  1
  O  O16  1  0.36578100  0.10879600  0.48002800  1
  O  O17  1  0.36653100  0.10996200  0.98265300  1
  O  O18  1  0.37278000  0.61723400  0.48256000  1
  O  O19  1  0.37217400  0.61621200  0.98366900  1
  O  O20  1  0.86977700  0.11392300  0.48316800  1
  O  O21  1  0.86564400  0.10893100  0.98172400  1
  O  O22  1  0.86967300  0.61457200  0.48393600  1
  O  O23  1  0.86755200  0.61100100  0.98063100  1
  O  O24  1  0.38940400  0.39092700  0.02333000  1
  O  O25  1  0.38631000  0.38614200  0.51649400  1
  O  O26  1  0.38703300  0.88884600  0.01943700  1
  O  O27  1  0.38828600  0.88247500  0.51509000  1
  O  O28  1  0.88744000  0.38991400  0.02112300  1
  O  O29  1  0.88603200  0.38589500  0.51616000  1
  O  O30  1  0.88776000  0.88769700  0.01956200  1
  O  O31  1  0.88562900  0.88501300  0.51481800  1
  O  O32  1  0.09242500  0.10807900  0.13690500  1
  O  O33  1  0.08550100  0.10181000  0.63849400  1
  O  O34  1  0.09223300  0.61060900  0.13667000  1
  O  O35  1  0.08417100  0.60562600  0.63891000  1
  O  O36  1  0.59194400  0.10839000  0.13613600  1
  O  O37  1  0.58421400  0.10397000  0.63841200  1
  O  O38  1  0.59174200  0.61006800  0.13687600  1
  O  O39  1  0.58333600  0.60699400  0.63875000  1
  O  O40  1  0.44451000  0.39565300  0.36109800  1
  O  O41  1  0.45525900  0.39479200  0.86371700  1
  O  O42  1  0.44485300  0.89388900  0.36181600  1
  O  O43  1  0.45698000  0.89262400  0.86413600  1
  O  O44  1  0.94500300  0.39709600  0.36073000  1
  O  O45  1  0.94821200  0.39426200  0.86448100  1
  O  O46  1  0.95194000  0.89621500  0.36011700  1
  O  O47  1  0.95474200  0.89310500  0.86390500  1
  O  O48  1  0.34373700  0.27844500  0.13755900  1
  O  O49  1  0.33581700  0.28530300  0.63853300  1
  O  O50  1  0.34104100  0.77780400  0.13674000  1
  O  O51  1  0.34087400  0.78566100  0.63804800  1
  O  O52  1  0.84296900  0.27734400  0.13641700  1
  O  O53  1  0.83343700  0.28649200  0.63955900  1
  O  O54  1  0.84222000  0.77699700  0.13563800  1
  O  O55  1  0.83229600  0.78444500  0.63777300  1
  O  O56  1  0.19466500  0.21609400  0.36044200  1
  O  O57  1  0.19813600  0.22088600  0.86378200  1
  O  O58  1  0.20154300  0.71671600  0.36121600  1
  O  O59  1  0.20666700  0.72127400  0.86444800  1
  O  O60  1  0.69395400  0.21429200  0.36056600  1
  O  O61  1  0.69770300  0.22163400  0.86321600  1
  O  O62  1  0.69413200  0.71519800  0.36140600  1
  O  O63  1  0.70641100  0.72296000  0.86419000  1
  O  O64  1  0.41647900  0.06723000  0.24387800  1
  O  O65  1  0.42262400  0.06918000  0.75096500  1
  O  O66  1  0.41629900  0.57567100  0.24960400  1
  O  O67  1  0.42412800  0.57766400  0.75634800  1
  O  O68  1  0.91629900  0.06912900  0.24301900  1
  O  O69  1  0.92222300  0.06773700  0.75059200  1
  O  O70  1  0.91849300  0.56985600  0.24445100  1
  O  O71  1  0.92430500  0.57695300  0.75716600  1
  O  O72  1  0.16645300  0.42523200  0.24383900  1
  O  O73  1  0.17404300  0.43237800  0.75101300  1
  O  O74  1  0.16650500  0.92407500  0.24920400  1
  O  O75  1  0.17583000  0.92926700  0.75659200  1
  O  O76  1  0.66653900  0.42553800  0.24387400  1
  O  O77  1  0.67162800  0.43300900  0.75580000  1
  O  O78  1  0.66796200  0.92446600  0.24424600  1
  O  O79  1  0.66844100  0.92492900  0.75150200  1
loop_
_geom_bond_atom_site_label_1
_geom_bond_atom_site_label_2
_geom_bond_distance
_geom_bond_site_symmetry_2
La0 O65 2.384778 1_555
La0 O49 2.423923 1_555
La0 O27 2.492796 1_545
La0 O11 2.509387 1_545
La0 O33 2.634484 1_555
La0 O16 2.708031 1_555
La0 O0 2.748272 1_555
La0 O37 2.871304 1_555
La1 O51 2.409082 1_555
La1 O67 2.410598 1_555
La1 O25 2.479150 1_555
La1 O9 2.535274 1_555
La1 O35 2.644810 1_555
La1 O2 2.753037 1_555
La1 O18 2.770484 1_555
La1 O39 2.859490 1_555
La2 O69 2.381555 1_555
La2 O53 2.432270 1_555
La2 O31 2.483653 1_545
La2 O15 2.527908 1_545
La2 O37 2.619951 1_555
La2 O20 2.724673 1_555
La2 O4 2.737443 1_555
La2 O33 2.909625 1_655
La3 O55 2.393807 1_555
La3 O71 2.425176 1_555
La3 O29 2.493464 1_555
La3 O13 2.509164 1_555
La3 O39 2.634676 1_555
La3 O22 2.730262 1_555
La3 O6 2.799281 1_555
La3 O35 2.885296 1_655
La4 O56 2.395822 1_555
La4 O72 2.402575 1_555
La4 O18 2.510741 1_555
La4 O2 2.527092 1_555
La4 O44 2.642043 1_455
La4 O25 2.733755 1_555
La4 O9 2.770819 1_555
La4 O40 2.858532 1_555
La5 O73 2.371113 1_555
La5 O57 2.385089 1_555
La5 O19 2.476619 1_555
La5 O3 2.506693 1_555
La5 O45 2.604926 1_455
La5 O24 2.787615 1_556
La5 O8 2.820508 1_556
La5 O41 2.998505 1_555
La6 O76 2.410101 1_555
La6 O60 2.418424 1_555
La6 O22 2.490624 1_555
La6 O6 2.543702 1_555
La6 O40 2.625411 1_555
La6 O29 2.741285 1_555
La6 O13 2.759312 1_555
La6 O44 2.890692 1_555
La7 O78 2.390885 1_555
La7 O62 2.393548 1_555
La7 O20 2.510603 1_565
La7 O4 2.523436 1_565
La7 O42 2.611472 1_555
La7 O31 2.741504 1_555
La7 O15 2.809946 1_555
La7 O46 2.975813 1_555
La8 O73 2.382371 1_555
La8 O33 2.425310 1_555
La8 O9 2.473961 1_555
La8 O29 2.512520 1_455
La8 O53 2.648745 1_455
La8 O20 2.745654 1_455
La8 O0 2.772304 1_555
La8 O49 2.896324 1_555
La9 O35 2.396038 1_555
La9 O75 2.426764 1_555
La9 O31 2.515580 1_455
La9 O11 2.516002 1_555
La9 O55 2.633531 1_455
La9 O2 2.732056 1_555
La9 O22 2.749014 1_455
La9 O51 2.963172 1_555
La10 O37 2.401770 1_555
La10 O77 2.409577 1_555
La10 O13 2.485432 1_555
La10 O25 2.520682 1_555
La10 O49 2.613214 1_555
La10 O4 2.733373 1_555
La10 O16 2.836077 1_555
La10 O53 2.863277 1_555
La11 O64 2.399519 1_555
La11 O40 2.402881 1_555
La11 O4 2.495628 1_555
La11 O16 2.525316 1_555
La11 O56 2.620542 1_555
La11 O13 2.766467 1_555
La11 O25 2.774385 1_555
La11 O60 2.879288 1_555
La12 O65 2.355629 1_555
La12 O41 2.384216 1_555
La12 O5 2.471594 1_555
La12 O17 2.534162 1_555
La12 O57 2.625234 1_555
La12 O12 2.768822 1_556
La12 O24 2.829033 1_556
La12 O61 2.895670 1_555
La13 O68 2.397048 1_555
La13 O44 2.418837 1_555
La13 O0 2.492340 1_655
La13 O20 2.532315 1_555
La13 O60 2.651188 1_555
La13 O9 2.739530 1_655
La13 O29 2.785572 1_555
La13 O56 2.863204 1_655
La14 O69 2.368182 1_555
La14 O45 2.373100 1_555
La14 O1 2.483653 1_655
La14 O21 2.517472 1_555
La14 O61 2.611492 1_555
La14 O8 2.797485 1_656
La14 O28 2.801575 1_556
La14 O57 2.914856 1_655
La15 O70 2.402036 1_555
La15 O46 2.406512 1_555
La15 O2 2.498509 1_655
La15 O22 2.535704 1_555
La15 O62 2.645249 1_555
La15 O11 2.710164 1_655
La15 O31 2.742894 1_555
La15 O58 2.939438 1_655
Ni0 O30 1.975401 1_445
Ni0 O10 1.978128 1_545
Ni0 O21 1.980019 1_454
Ni0 O1 1.981875 1_554
Ni0 O32 2.171796 1_555
Ni0 O47 2.196250 1_444
Ni1 O0 1.971845 1_565
Ni1 O20 1.975031 1_465
Ni1 O11 1.978589 1_555
Ni1 O31 1.980389 1_455
Ni1 O46 2.200465 1_455
Ni1 O33 2.217191 1_565
Ni2 O28 1.980473 1_455
Ni2 O23 1.980886 1_454
Ni2 O8 1.991608 1_555
Ni2 O3 1.992819 1_554
Ni2 O34 2.167604 1_555
Ni2 O45 2.187513 1_454
Ni3 O29 1.975948 1_455
Ni3 O22 1.977386 1_455
Ni3 O2 1.980612 1_555
Ni3 O9 1.982943 1_555
Ni3 O44 2.196563 1_455
Ni3 O35 2.219383 1_555
Ni4 O26 1.973201 1_545
Ni4 O5 1.980472 1_554
Ni4 O17 1.980942 1_554
Ni4 O14 1.984180 1_545
Ni4 O36 2.163863 1_555
Ni4 O43 2.193342 1_544
Ni5 O27 1.969523 1_555
Ni5 O16 1.973527 1_565
Ni5 O4 1.975658 1_565
Ni5 O15 1.979632 1_555
Ni5 O42 2.187494 1_555
Ni5 O37 2.208973 1_565
Ni6 O24 1.983426 1_555
Ni6 O19 1.983741 1_554
Ni6 O12 1.985117 1_555
Ni6 O7 1.990450 1_554
Ni6 O38 2.172817 1_555
Ni6 O41 2.197451 1_554
Ni7 O18 1.972332 1_555
Ni7 O6 1.975477 1_555
Ni7 O13 1.977353 1_555
Ni7 O25 1.979566 1_555
Ni7 O40 2.189508 1_555
Ni7 O39 2.224111 1_555
Ni8 O8 1.983266 1_555
Ni8 O1 1.985823 1_554
Ni8 O24 1.989357 1_555
Ni8 O17 1.997338 1_554
Ni8 O48 2.174066 1_555
Ni8 O57 2.204055 1_554
Ni9 O0 1.976157 1_555
Ni9 O9 1.980850 1_555
Ni9 O25 1.984933 1_555
Ni9 O16 1.985763 1_555
Ni9 O56 2.200393 1_555
Ni9 O49 2.215658 1_555
Ni10 O10 1.973661 1_555
Ni10 O3 1.976982 1_554
Ni10 O26 1.979167 1_555
Ni10 O19 1.982500 1_554
Ni10 O50 2.164403 1_555
Ni10 O59 2.196025 1_554
Ni11 O18 1.966062 1_555
Ni11 O27 1.966837 1_555
Ni11 O11 1.971139 1_555
Ni11 O2 1.971535 1_555
Ni11 O58 2.200515 1_555
Ni11 O51 2.202286 1_555
Ni12 O12 1.980395 1_555
Ni12 O5 1.983678 1_554
Ni12 O28 1.983762 1_555
Ni12 O21 1.995881 1_554
Ni12 O52 2.167996 1_555
Ni12 O61 2.204638 1_554
Ni13 O29 1.978818 1_555
Ni13 O4 1.979271 1_555
Ni13 O13 1.979943 1_555
Ni13 O20 1.982936 1_555
Ni13 O60 2.196981 1_555
Ni13 O53 2.226694 1_555
Ni14 O14 1.978025 1_555
Ni14 O7 1.980062 1_554
Ni14 O30 1.981258 1_555
Ni14 O23 1.982094 1_554
Ni14 O54 2.158362 1_555
Ni14 O63 2.194369 1_554
Ni15 O6 1.967722 1_555
Ni15 O15 1.971364 1_555
Ni15 O22 1.976882 1_555
Ni15 O31 1.981973 1_555
Ni15 O62 2.187953 1_555
Ni15 O55 2.198878 1_555
Ni16 O32 1.942469 1_555
Ni16 O56 1.957119 1_555
Ni16 O74 2.031158 1_545
Ni16 O68 2.048499 1_455
Ni17 O33 1.946582 1_555
Ni17 O57 1.947142 1_555
Ni17 O75 2.024146 1_545
Ni17 O69 2.045628 1_455
Ni18 O34 1.942298 1_555
Ni18 O58 1.958587 1_555
Ni18 O72 2.025445 1_555
Ni18 O70 2.062225 1_455
Ni19 O59 1.940956 1_555
Ni19 O35 1.946300 1_555
Ni19 O73 2.019414 1_555
Ni19 O71 2.050910 1_455
Ni20 O36 1.939012 1_555
Ni20 O60 1.955508 1_555
Ni20 O78 2.026773 1_545
Ni20 O64 2.056953 1_555
Ni21 O37 1.948426 1_555
Ni21 O61 1.952606 1_555
Ni21 O79 2.025912 1_545
Ni21 O65 2.035953 1_555
Ni22 O38 1.943453 1_555
Ni22 O62 1.954554 1_555
Ni22 O76 2.033262 1_555
Ni22 O66 2.061100 1_555
Ni23 O63 1.939681 1_555
Ni23 O39 1.955320 1_555
Ni23 O77 2.025002 1_555
Ni23 O67 2.046947 1_555
Ni24 O48 1.943939 1_555
Ni24 O40 1.958834 1_555
Ni24 O66 2.029052 1_555
Ni24 O72 2.053866 1_555
Ni25 O41 1.943193 1_555
Ni25 O49 1.950769 1_555
Ni25 O67 2.020391 1_555
Ni25 O73 2.048429 1_555
Ni26 O50 1.941288 1_555
Ni26 O42 1.957649 1_555
Ni26 O64 2.034503 1_565
Ni26 O74 2.060089 1_555
Ni27 O43 1.939907 1_555
Ni27 O51 1.948078 1_555
Ni27 O65 2.014902 1_565
Ni27 O75 2.056240 1_555
Ni28 O52 1.941358 1_555
Ni28 O44 1.952816 1_555
Ni28 O70 2.027201 1_555
Ni28 O76 2.058850 1_555
Ni29 O45 1.942824 1_555
Ni29 O53 1.948252 1_555
Ni29 O71 2.023528 1_555
Ni29 O77 2.044983 1_555
Ni30 O54 1.942677 1_555
Ni30 O46 1.955879 1_555
Ni30 O68 2.024640 1_565
Ni30 O78 2.061842 1_555
Ni31 O55 1.942552 1_555
Ni31 O47 1.945433 1_555
Ni31 O69 2.022109 1_565
Ni31 O79 2.051037 1_555
O0 Sm4 2.478494 1_545
O1 Sm5 2.473812 1_545
O1 Sm0 2.662821 1_556
O1 Sm8 2.712474 1_556
O3 Sm15 2.418796 1_455
O3 Sm9 2.677983 1_556
O3 Sm1 2.774055 1_556
O5 Sm7 2.478165 1_545
O5 Sm2 2.660475 1_556
O5 Sm10 2.719465 1_556
O6 Sm13 2.441442 1_555
O6 Sm12 2.655279 1_555
O7 Sm14 2.425670 1_555
O7 Sm6 2.451167 1_555
O7 Sm11 2.726663 1_556
O7 Sm3 2.741702 1_556
O8 Sm8 2.424245 1_555
O8 Sm1 2.447392 1_555
O10 Sm9 2.451564 1_555
O10 Sm0 2.471627 1_565
O10 Sm15 2.697185 1_454
O10 Sm5 2.715690 1_554
O11 Sm4 2.688700 1_555
O12 Sm10 2.438470 1_555
O12 Sm3 2.441497 1_555
O12 Sm6 2.758926 1_554
O14 Sm11 2.438997 1_555
O14 Sm2 2.475021 1_565
O14 Sm14 2.671842 1_554
O14 Sm7 2.740790 1_554
O15 Sm12 2.424344 1_555
O15 Sm13 2.656512 1_555
O16 Sm4 2.426914 1_545
O17 Sm5 2.424897 1_545
O17 Sm0 2.657468 1_556
O17 Sm10 2.746184 1_556
O18 Sm13 2.452936 1_555
O18 Sm12 2.671816 1_555
O19 Sm14 2.455423 1_555
O19 Sm11 2.659944 1_556
O19 Sm1 2.756138 1_556
O21 Sm7 2.429162 1_545
O21 Sm2 2.655374 1_556
O21 Sm8 2.759050 1_656
O23 Sm6 2.412618 1_555
O23 Sm15 2.456553 1_555
O23 Sm3 2.717155 1_556
O23 Sm9 2.756658 1_656
O24 Sm1 2.436318 1_555
O24 Sm10 2.445452 1_555
O26 Sm0 2.442548 1_565
O26 Sm11 2.469564 1_555
O26 Sm5 2.688246 1_554
O26 Sm14 2.723408 1_554
O27 Sm12 2.477032 1_555
O27 Sm13 2.654500 1_555
O27 Sm4 2.711103 1_555
O28 Sm3 2.424000 1_555
O28 Sm8 2.470922 1_655
O28 Sm6 2.720756 1_554
O30 Sm2 2.440644 1_565
O30 Sm9 2.470406 1_655
O30 Sm15 2.693585 1_554
O30 Sm7 2.728719 1_554
O32 Sm8 2.330926 1_555
O32 Sm0 2.513836 1_555
O32 Sm2 3.018006 1_455
O34 Sm9 2.306491 1_555
O34 Sm1 2.503222 1_555
O34 Sm3 3.011655 1_455
O36 Sm10 2.325288 1_555
O36 Sm2 2.515226 1_555
O36 Sm0 3.009361 1_555
O38 Sm11 2.313764 1_555
O38 Sm3 2.523832 1_555
O38 Sm1 3.007622 1_555
O39 Sm12 2.348842 1_555
O41 Sm6 2.530949 1_555
O42 Sm13 2.343965 1_555
O42 Sm4 2.866099 1_555
O43 Sm14 2.335106 1_555
O43 Sm7 2.494966 1_555
O43 Sm5 3.020074 1_555
O45 Sm6 2.913381 1_555
O46 Sm4 2.557775 1_655
O47 Sm15 2.341716 1_555
O47 Sm5 2.525883 1_655
O47 Sm7 2.995491 1_555
O48 Sm0 2.322870 1_555
O48 Sm10 2.505313 1_555
O48 Sm8 3.029526 1_555
O50 Sm1 2.320165 1_555
O50 Sm11 2.522194 1_555
O50 Sm9 2.997468 1_555
O51 Sm12 2.547334 1_555
O52 Sm2 2.325368 1_555
O52 Sm8 2.495253 1_655
O52 Sm10 3.018460 1_555
O54 Sm3 2.318937 1_555
O54 Sm9 2.502393 1_655
O54 Sm11 3.022223 1_555
O55 Sm12 2.877693 1_555
O58 Sm4 2.350125 1_555
O58 Sm13 2.552664 1_555
O59 Sm5 2.328304 1_555
O59 Sm14 2.520203 1_555
O59 Sm15 3.031241 1_455
O61 Sm6 2.342590 1_555
O62 Sm13 2.884942 1_555
O63 Sm7 2.306736 1_555
O63 Sm15 2.500533 1_555
O63 Sm14 3.005706 1_555
O64 Sm0 2.316392 1_555
O66 Sm1 2.318497 1_555
O66 Sm13 2.368451 1_555
O67 Sm14 2.315722 1_555
O68 Sm2 2.310466 1_555
O70 Sm3 2.303618 1_555
O71 Sm15 2.321996 1_555
O72 Sm8 2.289877 1_555
O74 Sm9 2.337647 1_555
O74 Sm4 2.344934 1_555
O75 Sm5 2.320761 1_555
O76 Sm10 2.292918 1_555
O77 Sm6 2.316234 1_555
O78 Sm11 2.312488 1_555
O79 Sm7 2.344536 1_555
O79 Sm12 2.391957 1_555
