# generated using pymatgen
data_Na3CuPHClO5
_symmetry_space_group_name_H-M   'P 1'
_cell_length_a   6.88704500
_cell_length_b   8.55276200
_cell_length_c   11.20373500
_cell_angle_alpha   90.00000000
_cell_angle_beta   90.00000000
_cell_angle_gamma   90.00000000
_symmetry_Int_Tables_number   1
_chemical_formula_structural   Na3CuPHClO5
_chemical_formula_sum   'Na12 Cu4 P4 H4 Cl4 O20'
_cell_volume   659.93647947
_cell_formula_units_Z   4
loop_
 _symmetry_equiv_pos_site_id
 _symmetry_equiv_pos_as_xyz
  1  'x, y, z'
loop_
 _atom_site_type_symbol
 _atom_site_label
 _atom_site_symmetry_multiplicity
 _atom_site_fract_x
 _atom_site_fract_y
 _atom_site_fract_z
 _atom_site_occupancy
  Na  Na0  1  0.95929700  0.09110200  0.24622100  1
  Na  Na1  1  0.54070300  0.40889800  0.74622100  1
  Na  Na2  1  0.45929700  0.90889800  0.75377900  1
  Na  Na3  1  0.04070300  0.59110200  0.25377900  1
  Na  Na4  1  0.04070300  0.90889800  0.75377900  1
  Na  Na5  1  0.45929700  0.59110200  0.25377900  1
  Na  Na6  1  0.54070300  0.09110200  0.24622100  1
  Na  Na7  1  0.95929700  0.40889800  0.74622100  1
  Na  Na8  1  0.25000000  0.78267500  0.48174600  1
  Na  Na9  1  0.25000000  0.71732500  0.98174600  1
  Na  Na10  1  0.75000000  0.21732500  0.51825400  1
  Na  Na11  1  0.75000000  0.28267500  0.01825400  1
  Cu  Cu0  1  0.00000000  0.50000000  0.50000000  1
  Cu  Cu1  1  0.50000000  0.00000000  0.00000000  1
  Cu  Cu2  1  0.50000000  0.50000000  0.50000000  1
  Cu  Cu3  1  0.00000000  0.00000000  0.00000000  1
  P  P0  1  0.25000000  0.18159600  0.54034700  1
  P  P1  1  0.25000000  0.31840400  0.04034700  1
  P  P2  1  0.75000000  0.81840400  0.45965300  1
  P  P3  1  0.75000000  0.68159600  0.95965300  1
  H  H0  1  0.25000000  0.04064600  0.37386100  1
  H  H1  1  0.25000000  0.45935400  0.87386100  1
  H  H2  1  0.75000000  0.95935400  0.62613900  1
  H  H3  1  0.75000000  0.54064600  0.12613900  1
  Cl  Cl0  1  0.25000000  0.63174500  0.72472300  1
  Cl  Cl1  1  0.25000000  0.86825500  0.22472300  1
  Cl  Cl2  1  0.75000000  0.36825500  0.27527700  1
  Cl  Cl3  1  0.75000000  0.13174500  0.77527700  1
  O  O0  1  0.75000000  0.47605100  0.57631800  1
  O  O1  1  0.75000000  0.02394900  0.07631800  1
  O  O2  1  0.25000000  0.52394900  0.42368200  1
  O  O3  1  0.25000000  0.97605100  0.92368200  1
  O  O4  1  0.06482000  0.27521400  0.56840700  1
  O  O5  1  0.43518000  0.22478600  0.06840700  1
  O  O6  1  0.56482000  0.72478600  0.43159300  1
  O  O7  1  0.93518000  0.77521400  0.93159300  1
  O  O8  1  0.93518000  0.72478600  0.43159300  1
  O  O9  1  0.56482000  0.77521400  0.93159300  1
  O  O10  1  0.43518000  0.27521400  0.56840700  1
  O  O11  1  0.06482000  0.22478600  0.06840700  1
  O  O12  1  0.25000000  0.15256200  0.39406000  1
  O  O13  1  0.25000000  0.34743800  0.89406000  1
  O  O14  1  0.75000000  0.84743800  0.60594000  1
  O  O15  1  0.75000000  0.65256200  0.10594000  1
  O  O16  1  0.25000000  0.01765800  0.59680400  1
  O  O17  1  0.25000000  0.48234200  0.09680400  1
  O  O18  1  0.75000000  0.98234200  0.40319600  1
  O  O19  1  0.75000000  0.51765800  0.90319600  1
loop_
_geom_bond_atom_site_label_1
_geom_bond_atom_site_label_2
_geom_bond_distance
_geom_bond_site_symmetry_2
Na0 O11 2.409196 1_655
Na0 O1 2.455832 1_555
Na0 O18 2.456839 1_545
Na0 O12 2.651065 1_655
Na1 O10 2.409196 1_555
Na1 O0 2.455832 1_555
Na1 O19 2.456839 1_555
Na1 O13 2.651065 1_555
Na2 O9 2.409196 1_555
Na2 O3 2.455832 1_555
Na2 O16 2.456839 1_565
Na2 O14 2.651065 1_555
Na3 O8 2.409196 1_455
Na3 O2 2.455832 1_555
Na3 O17 2.456839 1_555
Na3 O15 2.651065 1_455
Na4 O7 2.409196 1_455
Na4 O3 2.455832 1_555
Na4 O16 2.456839 1_565
Na4 O14 2.651065 1_455
Na5 O6 2.409196 1_555
Na5 O2 2.455832 1_555
Na5 O17 2.456839 1_555
Na5 O15 2.651065 1_555
Na6 O5 2.409196 1_555
Na6 O1 2.455832 1_555
Na6 O18 2.456839 1_545
Na6 O12 2.651065 1_555
Na7 O4 2.409196 1_655
Na7 O0 2.455832 1_555
Na7 O19 2.456839 1_555
Na7 O13 2.651065 1_655
Na8 O8 2.293877 1_455
Na8 O6 2.293877 1_555
Na8 O2 2.306464 1_555
Na8 O16 2.387642 1_565
Na9 O7 2.293877 1_455
Na9 O9 2.293877 1_555
Na9 O3 2.306464 1_555
Na9 O17 2.387642 1_556
Na10 O10 2.293877 1_555
Na10 O4 2.293877 1_655
Na10 O0 2.306464 1_555
Na10 O18 2.387642 1_545
Na11 O5 2.293877 1_555
Na11 O11 2.293877 1_655
Na11 O1 2.306464 1_555
Na11 O19 2.387642 1_554
Cu0 O0 1.933267 1_455
Cu0 O2 1.933267 1_555
Cu0 O8 2.117273 1_455
Cu0 O4 2.117273 1_555
Cu1 O1 1.933267 1_555
Cu1 O3 1.933267 1_544
Cu1 O5 2.117273 1_555
Cu1 O9 2.117273 1_544
Cu2 O2 1.933267 1_555
Cu2 O0 1.933267 1_555
Cu2 O6 2.117273 1_555
Cu2 O10 2.117273 1_555
Cu3 O1 1.933267 1_455
Cu3 O3 1.933267 1_544
Cu3 O11 2.117273 1_555
Cu3 O7 2.117273 1_444
H0 O12 0.983579 1_555
H0 Na6 2.497918 1_555
H0 Na0 2.497918 1_455
H0 Na8 2.515758 1_545
H1 O13 0.983579 1_555
H1 Na1 2.497918 1_555
H1 Na7 2.497918 1_455
H1 Na9 2.515758 1_555
H2 O14 0.983579 1_555
H2 Na4 2.497918 1_655
H2 Na2 2.497918 1_555
H2 Na10 2.515758 1_565
H3 O15 0.983579 1_555
H3 Na3 2.497918 1_655
H3 Na5 2.497918 1_555
H3 Na11 2.515758 1_555
Cl0 Na1 2.774712 1_555
Cl0 Na7 2.774712 1_455
Cl0 Na2 2.793318 1_555
Cl0 Na4 2.793318 1_555
Cl0 Na9 2.971185 1_555
Cl0 Na8 3.012804 1_555
Cl1 Na6 2.774712 1_565
Cl1 Na0 2.774712 1_465
Cl1 Na5 2.793318 1_555
Cl1 Na3 2.793318 1_555
Cl1 Na8 2.971185 1_555
Cl1 Na9 3.012804 1_554
Cl2 Na3 2.774712 1_655
Cl2 Na5 2.774712 1_555
Cl2 Na0 2.793318 1_555
Cl2 Na6 2.793318 1_555
Cl2 Na11 2.971185 1_555
Cl2 Na10 3.012804 1_555
Cl3 Na4 2.774712 1_645
Cl3 Na2 2.774712 1_545
Cl3 Na7 2.793318 1_555
Cl3 Na1 2.793318 1_555
Cl3 Na10 2.971185 1_555
Cl3 Na11 3.012804 1_556
O4 P0 1.538324 1_555
O5 P1 1.538324 1_555
O6 P2 1.538324 1_555
O7 P3 1.538324 1_555
O8 P2 1.538324 1_555
O9 P3 1.538324 1_555
O10 P0 1.538324 1_555
O11 P1 1.538324 1_555
O12 P0 1.657666 1_555
O13 P1 1.657666 1_556
O14 P2 1.657666 1_555
O15 P3 1.657666 1_554
O16 P0 1.538194 1_555
O17 P1 1.538194 1_555
O18 P2 1.538194 1_555
O19 P3 1.538194 1_555
