# generated using pymatgen
data_CsMg6Ga
_symmetry_space_group_name_H-M   'P 1'
_cell_length_a   9.37792485
_cell_length_b   9.37792485
_cell_length_c   4.94214000
_cell_angle_alpha   90.00000000
_cell_angle_beta   90.00000000
_cell_angle_gamma   140.83203139
_symmetry_Int_Tables_number   1
_chemical_formula_structural   CsMg6Ga
_chemical_formula_sum   'Cs1 Mg6 Ga1'
_cell_volume   274.51614398
_cell_formula_units_Z   1
loop_
 _symmetry_equiv_pos_site_id
 _symmetry_equiv_pos_as_xyz
  1  'x, y, z'
loop_
 _atom_site_type_symbol
 _atom_site_label
 _atom_site_symmetry_multiplicity
 _atom_site_fract_x
 _atom_site_fract_y
 _atom_site_fract_z
 _atom_site_occupancy
  Cs  Cs0  1  0.79181800  0.20818200  0.50000000  1
  Mg  Mg0  1  0.30676700  0.17378200  0.50000000  1
  Mg  Mg1  1  0.82621800  0.69323300  0.50000000  1
  Mg  Mg2  1  0.20382800  0.29682400  0.00000000  1
  Mg  Mg3  1  0.70317600  0.79617200  0.00000000  1
  Mg  Mg4  1  0.60940500  0.39059500  0.00000000  1
  Mg  Mg5  1  0.12086800  0.87913200  0.00000000  1
  Ga  Ga0  1  0.43792800  0.56207200  0.50000000  1
loop_
_geom_bond_atom_site_label_1
_geom_bond_atom_site_label_2
_geom_bond_distance
_geom_bond_site_symmetry_2
Cs0 Mg4 4.061581 1_556
Cs0 Mg4 4.061581 1_555
Cs0 Ga0 4.067790 1_655
Cs0 Ga0 4.067790 1_545
Cs0 Mg3 4.092164 1_545
Cs0 Mg3 4.092164 1_546
Cs0 Mg2 4.092164 1_656
Cs0 Mg2 4.092164 1_655
Cs0 Mg0 4.303486 1_555
Cs0 Mg1 4.303486 1_555
Mg0 Mg5 3.051423 1_545
Mg0 Mg5 3.051423 1_546
Mg0 Mg4 3.057340 1_556
Mg0 Mg4 3.057340 1_555
Mg1 Mg5 3.051423 1_656
Mg1 Mg5 3.051423 1_655
Mg1 Mg4 3.057340 1_556
Mg1 Mg4 3.057340 1_555
Mg2 Mg4 3.170716 1_555
Mg2 Mg5 3.350140 1_545
Mg3 Mg4 3.170716 1_555
Mg3 Mg5 3.350140 1_655
Mg4 Mg5 3.149890 1_545
Mg4 Mg5 3.149890 1_655
Ga0 Mg0 2.797748 1_555
Ga0 Mg1 2.797748 1_555
Ga0 Mg2 2.940354 1_555
Ga0 Mg3 2.940354 1_555
Ga0 Mg3 2.940354 1_556
Ga0 Mg2 2.940354 1_556
