# generated using pymatgen
data_Dy4InIr
_symmetry_space_group_name_H-M   'P 1'
_cell_length_a   9.62234815
_cell_length_b   9.62236386
_cell_length_c   9.62232580
_cell_angle_alpha   60.00003593
_cell_angle_beta   59.99997892
_cell_angle_gamma   60.00011311
_symmetry_Int_Tables_number   1
_chemical_formula_structural   Dy4InIr
_chemical_formula_sum   'Dy16 In4 Ir4'
_cell_volume   629.98226171
_cell_formula_units_Z   4
loop_
 _symmetry_equiv_pos_site_id
 _symmetry_equiv_pos_as_xyz
  1  'x, y, z'
loop_
 _atom_site_type_symbol
 _atom_site_label
 _atom_site_symmetry_multiplicity
 _atom_site_fract_x
 _atom_site_fract_y
 _atom_site_fract_z
 _atom_site_occupancy
  Dy  Dy0  1  0.59861855  0.59863055  0.59860756  1
  Dy  Dy1  1  0.59861729  0.59862935  0.20414470  1
  Dy  Dy2  1  0.59862717  0.20413831  0.59861617  1
  Dy  Dy3  1  0.20414120  0.59863418  0.59861116  1
  Dy  Dy4  1  0.05875414  0.44124357  0.44123765  1
  Dy  Dy5  1  0.44124156  0.05874377  0.05877483  1
  Dy  Dy6  1  0.44124199  0.05874601  0.44123937  1
  Dy  Dy7  1  0.05875192  0.44124325  0.05876672  1
  Dy  Dy8  1  0.44123900  0.44124242  0.05876167  1
  Dy  Dy9  1  0.05876664  0.05875208  0.44124027  1
  Dy  Dy10  1  0.19038317  0.80961833  0.80961348  1
  Dy  Dy11  1  0.80961854  0.19037934  0.19038558  1
  Dy  Dy12  1  0.80961911  0.19037948  0.80961690  1
  Dy  Dy13  1  0.19038302  0.80961782  0.19038596  1
  Dy  Dy14  1  0.80961311  0.80961575  0.19038620  1
  Dy  Dy15  1  0.19038255  0.19037922  0.80961885  1
  In  In0  1  0.83298568  0.83298644  0.83298381  1
  In  In1  1  0.83298609  0.83298668  0.50104333  1
  In  In2  1  0.83298600  0.50104610  0.83298404  1
  In  In3  1  0.50104424  0.83298708  0.83298449  1
  Ir  Ir0  1  0.39095069  0.39095168  0.39095068  1
  Ir  Ir1  1  0.39095078  0.39095192  0.82714713  1
  Ir  Ir2  1  0.39095008  0.82714911  0.39095043  1
  Ir  Ir3  1  0.82714847  0.39095159  0.39095002  1
loop_
_geom_bond_atom_site_label_1
_geom_bond_atom_site_label_2
_geom_bond_distance
_geom_bond_site_symmetry_2
Dy0 Ir2 2.833005 1_555
Dy0 Ir3 2.833082 1_555
Dy0 Ir1 2.833152 1_555
Dy0 Dy14 3.441699 1_555
Dy0 Dy10 3.441823 1_555
Dy0 Dy12 3.441961 1_555
Dy0 In1 3.450181 1_555
Dy0 In3 3.450220 1_555
Dy0 In2 3.450266 1_555
Dy1 Ir2 2.833005 1_555
Dy1 Ir3 2.833083 1_555
Dy1 Ir0 2.833138 1_555
Dy1 Dy14 3.441725 1_555
Dy1 Dy13 3.441817 1_555
Dy1 Dy11 3.441955 1_555
Dy1 In0 3.450189 1_554
Dy1 In3 3.450220 1_554
Dy1 In2 3.450267 1_554
Dy2 Ir3 2.833063 1_555
Dy2 Ir0 2.833116 1_555
Dy2 Ir1 2.833133 1_555
Dy2 In1 3.450161 1_545
Dy2 In0 3.450168 1_545
Dy2 In3 3.450200 1_545
Dy3 Ir2 2.832990 1_555
Dy3 Ir0 2.833126 1_555
Dy3 Ir1 2.833144 1_555
Dy3 In1 3.450164 1_455
Dy3 In0 3.450172 1_455
Dy3 In2 3.450250 1_455
Dy4 Ir3 2.797492 1_455
Dy4 Ir0 2.797601 1_555
Dy4 In2 3.462633 1_455
Dy4 In1 3.462634 1_455
Dy5 Ir2 2.797395 1_545
Dy5 Ir1 2.797708 1_554
Dy5 In3 3.462623 1_544
Dy5 In0 3.462630 1_544
Dy6 Ir2 2.797421 1_545
Dy6 Ir0 2.797689 1_555
Dy6 In3 3.462623 1_545
Dy6 In1 3.462631 1_545
Dy7 Ir3 2.797468 1_455
Dy7 Ir1 2.797619 1_554
Dy7 In2 3.462633 1_454
Dy7 In0 3.462634 1_454
Dy8 Ir0 2.797522 1_555
Dy8 Ir1 2.797565 1_554
Dy8 In3 3.462642 1_554
Dy8 In2 3.462649 1_554
Dy9 Ir2 2.797478 1_545
Dy9 Ir3 2.797629 1_455
Dy9 In0 3.462614 1_445
Dy9 In1 3.462615 1_445
Dy10 In0 3.229830 1_455
Dy10 In3 3.229856 1_555
Dy10 Dy3 3.441761 1_555
Dy10 Ir2 3.442853 1_555
Dy10 Ir1 3.442893 1_555
Dy10 Dy6 3.587572 1_565
Dy10 Dy9 3.587585 1_565
Dy10 Dy8 3.587672 1_556
Dy10 Dy7 3.587679 1_556
Dy10 Dy12 3.663840 1_465
Dy10 Dy15 3.663843 1_565
Dy10 Dy14 3.663909 1_456
Dy10 Dy13 3.663914 1_556
Dy11 In1 3.229801 1_545
Dy11 In2 3.229883 1_554
Dy11 Dy2 3.441775 1_555
Dy11 Ir3 3.442892 1_555
Dy11 Ir0 3.442905 1_555
Dy11 Dy7 3.587643 1_655
Dy11 Dy9 3.587657 1_655
Dy11 Dy8 3.587679 1_555
Dy11 Dy6 3.587696 1_555
Dy11 Dy13 3.663843 1_645
Dy11 Dy15 3.663852 1_654
Dy11 Dy14 3.663869 1_545
Dy11 Dy12 3.663877 1_554
Dy12 In0 3.229814 1_545
Dy12 In2 3.229883 1_555
Dy12 Dy2 3.441806 1_555
Dy12 Ir3 3.442891 1_555
Dy12 Ir1 3.442912 1_555
Dy12 Dy4 3.587650 1_655
Dy12 Dy9 3.587663 1_655
Dy12 Dy8 3.587699 1_556
Dy12 Dy5 3.587716 1_556
Dy12 Dy15 3.663847 1_655
Dy12 Dy14 3.663869 1_546
Dy13 In1 3.229816 1_455
Dy13 In3 3.229855 1_554
Dy13 Dy3 3.441729 1_555
Dy13 Ir2 3.442856 1_555
Dy13 Ir0 3.442889 1_555
Dy13 Dy5 3.587565 1_565
Dy13 Dy9 3.587578 1_565
Dy13 Dy8 3.587650 1_555
Dy13 Dy4 3.587661 1_555
Dy13 Dy15 3.663847 1_564
Dy13 Dy14 3.663909 1_455
Dy14 In1 3.229835 1_555
Dy14 In0 3.229849 1_554
Dy14 Ir2 3.442855 1_555
Dy14 Ir3 3.442868 1_555
Dy14 Dy6 3.587552 1_565
Dy14 Dy5 3.587553 1_565
Dy14 Dy4 3.587603 1_655
Dy14 Dy7 3.587603 1_655
Dy15 In3 3.229821 1_545
Dy15 In2 3.229865 1_455
Dy15 Dy2 3.441899 1_555
Dy15 Dy3 3.441992 1_555
Dy15 Ir0 3.442907 1_555
Dy15 Ir1 3.442920 1_555
Dy15 Dy4 3.587707 1_555
Dy15 Dy6 3.587714 1_555
Dy15 Dy7 3.587721 1_556
Dy15 Dy5 3.587729 1_556
In0 In1 3.194036 1_555
In0 In2 3.194048 1_555
In0 In3 3.194050 1_555
In1 In2 3.194049 1_555
In1 In3 3.194052 1_555
In2 In3 3.194063 1_555
