# generated using pymatgen
data_InH10N3O14
_symmetry_space_group_name_H-M   'P 1'
_cell_length_a   7.06097399
_cell_length_b   7.06097399
_cell_length_c   11.63130130
_cell_angle_alpha   88.50203355
_cell_angle_beta   88.50203355
_cell_angle_gamma   83.18249356
_symmetry_Int_Tables_number   1
_chemical_formula_structural   InH10N3O14
_chemical_formula_sum   'In2 H20 N6 O28'
_cell_volume   575.45370778
_cell_formula_units_Z   2
loop_
 _symmetry_equiv_pos_site_id
 _symmetry_equiv_pos_as_xyz
  1  'x, y, z'
loop_
 _atom_site_type_symbol
 _atom_site_label
 _atom_site_symmetry_multiplicity
 _atom_site_fract_x
 _atom_site_fract_y
 _atom_site_fract_z
 _atom_site_occupancy
  In  In0  1  0.81537500  0.18462500  0.25000000  1
  In  In1  1  0.18462500  0.81537500  0.75000000  1
  H  H0  1  0.08504300  0.41500900  0.29997800  1
  H  H1  1  0.58499100  0.91495700  0.20002200  1
  H  H2  1  0.91495700  0.58499100  0.70002200  1
  H  H3  1  0.41500900  0.08504300  0.79997800  1
  H  H4  1  0.08865800  0.41175300  0.16257900  1
  H  H5  1  0.58824700  0.91134200  0.33742100  1
  H  H6  1  0.91134200  0.58824700  0.83742100  1
  H  H7  1  0.41175300  0.08865800  0.66257900  1
  H  H8  1  0.76077200  0.10508800  0.01653900  1
  H  H9  1  0.89491200  0.23922800  0.48346100  1
  H  H10  1  0.23922800  0.89491200  0.98346100  1
  H  H11  1  0.10508800  0.76077200  0.51653900  1
  H  H12  1  0.75504000  0.33894500  0.01937200  1
  H  H13  1  0.66105500  0.24496000  0.48062800  1
  H  H14  1  0.24496000  0.66105500  0.98062800  1
  H  H15  1  0.33894500  0.75504000  0.51937200  1
  H  H16  1  0.47162300  0.43132300  0.30654300  1
  H  H17  1  0.56867700  0.52837700  0.19345700  1
  H  H18  1  0.52837700  0.56867700  0.69345700  1
  H  H19  1  0.43132300  0.47162300  0.80654300  1
  N  N0  1  0.10967600  0.89032400  0.25000000  1
  N  N1  1  0.89032400  0.10967600  0.75000000  1
  N  N2  1  0.27604500  0.29279100  0.49607800  1
  N  N3  1  0.70720900  0.72395500  0.00392200  1
  N  N4  1  0.72395500  0.70720900  0.50392200  1
  N  N5  1  0.29279100  0.27604500  0.99607800  1
  O  O0  1  0.00233000  0.41080600  0.23247700  1
  O  O1  1  0.58919400  0.99767000  0.26752300  1
  O  O2  1  0.99767000  0.58919400  0.76752300  1
  O  O3  1  0.41080600  0.00233000  0.73247700  1
  O  O4  1  0.76034000  0.21774200  0.06519600  1
  O  O5  1  0.78225800  0.23966000  0.43480400  1
  O  O6  1  0.23966000  0.78225800  0.93480400  1
  O  O7  1  0.21774200  0.76034000  0.56519600  1
  O  O8  1  0.57876500  0.42123500  0.25000000  1
  O  O9  1  0.42123500  0.57876500  0.75000000  1
  O  O10  1  0.24099800  0.75900200  0.25000000  1
  O  O11  1  0.75900200  0.24099800  0.75000000  1
  O  O12  1  0.98033400  0.90791700  0.17296800  1
  O  O13  1  0.09208300  0.01966600  0.32703200  1
  O  O14  1  0.01966600  0.09208300  0.82703200  1
  O  O15  1  0.90791700  0.98033400  0.67296800  1
  O  O16  1  0.12414200  0.25869400  0.54555400  1
  O  O17  1  0.74130600  0.87585800  0.95444600  1
  O  O18  1  0.87585800  0.74130600  0.45444600  1
  O  O19  1  0.25869400  0.12414200  0.04555400  1
  O  O20  1  0.27597700  0.39033800  0.40262500  1
  O  O21  1  0.60966200  0.72402300  0.09737500  1
  O  O22  1  0.72402300  0.60966200  0.59737500  1
  O  O23  1  0.39033800  0.27597700  0.90262500  1
  O  O24  1  0.43560400  0.23031700  0.54184900  1
  O  O25  1  0.76968300  0.56439600  0.95815100  1
  O  O26  1  0.56439600  0.76968300  0.45815100  1
  O  O27  1  0.23031700  0.43560400  0.04184900  1
loop_
_geom_bond_atom_site_label_1
_geom_bond_atom_site_label_2
_geom_bond_distance
_geom_bond_site_symmetry_2
In0 O0 2.191849 1_655
In0 O1 2.191849 1_545
In0 O4 2.195884 1_555
In0 O5 2.195884 1_555
In0 O8 2.218057 1_555
In0 O13 2.339569 1_655
In0 O12 2.339569 1_545
In1 O3 2.191849 1_565
In1 O2 2.191849 1_455
In1 O7 2.195884 1_555
In1 O6 2.195884 1_555
In1 O9 2.218057 1_555
In1 O14 2.339569 1_565
In1 O15 2.339569 1_455
H0 O0 0.993833 1_555
H1 O1 0.993833 1_555
H2 O2 0.993833 1_555
H3 O3 0.993833 1_555
H4 O0 1.003672 1_555
H4 O27 1.719001 1_555
H5 O1 1.003672 1_555
H5 O26 1.719001 1_555
H6 O2 1.003672 1_555
H6 O25 1.719001 1_555
H7 O3 1.003672 1_555
H7 O24 1.719001 1_555
H8 O4 0.987881 1_555
H9 O5 0.987881 1_555
H10 O6 0.987881 1_555
H11 O7 0.987881 1_555
H12 O4 0.993723 1_555
H12 O25 1.740077 1_554
H13 O5 0.993723 1_555
H13 O24 1.740077 1_555
H14 O6 0.993723 1_555
H14 O27 1.740077 1_556
H15 O7 0.993723 1_555
H15 O26 1.740077 1_555
H16 O8 0.986700 1_555
H17 O8 0.986700 1_555
H18 O9 0.986700 1_555
H19 O9 0.986700 1_555
N0 O10 1.231054 1_555
N0 O13 1.289312 1_565
N0 O12 1.289312 1_455
N1 O11 1.231054 1_555
N1 O14 1.289312 1_655
N1 O15 1.289312 1_545
N2 O16 1.249543 1_555
N2 O20 1.271513 1_555
N2 O24 1.283911 1_555
N3 O17 1.249543 1_554
N3 O21 1.271513 1_555
N3 O25 1.283911 1_554
N4 O18 1.249543 1_555
N4 O22 1.271513 1_555
N4 O26 1.283911 1_555
N5 O19 1.249543 1_556
N5 O23 1.271513 1_555
N5 O27 1.283911 1_556
