# generated using pymatgen
data_Na(VSe2)2
_symmetry_space_group_name_H-M   'P 1'
_cell_length_a   3.57090742
_cell_length_b   6.14232820
_cell_length_c   7.80497637
_cell_angle_alpha   68.40351148
_cell_angle_beta   90.00000000
_cell_angle_gamma   90.00000000
_symmetry_Int_Tables_number   1
_chemical_formula_structural   Na(VSe2)2
_chemical_formula_sum   'Na1 V2 Se4'
_cell_volume   159.17406140
_cell_formula_units_Z   1
loop_
 _symmetry_equiv_pos_site_id
 _symmetry_equiv_pos_as_xyz
  1  'x, y, z'
loop_
 _atom_site_type_symbol
 _atom_site_label
 _atom_site_symmetry_multiplicity
 _atom_site_fract_x
 _atom_site_fract_y
 _atom_site_fract_z
 _atom_site_occupancy
  Na  Na0  1  0.50000000  0.65080782  0.50447319  1
  V  V0  1  -0.00000000  0.97807362  0.99349649  1
  V  V1  1  0.50000000  0.53064339  0.00653279  1
  Se  Se0  1  -0.00000000  0.56564324  0.22081508  1
  Se  Se1  1  0.50000000  0.08508128  0.18600759  1
  Se  Se2  1  -0.00000000  0.42034516  0.81424559  1
  Se  Se3  1  0.50000000  0.93450650  0.77912827  1
loop_
_geom_bond_atom_site_label_1
_geom_bond_atom_site_label_2
_geom_bond_distance
_geom_bond_site_symmetry_2
Na0 Se1 2.900485 1_565
Na0 Se2 2.918535 1_555
Na0 Se2 2.918535 1_655
Na0 Se0 3.035718 1_655
Na0 Se0 3.035718 1_555
Na0 Se3 3.222070 1_555
Se0 V0 2.501347 1_554
Se0 V1 2.509161 1_455
Se0 V1 2.509161 1_555
Se1 V0 2.569921 1_644
Se1 V0 2.569921 1_544
Se1 V1 2.574905 1_555
Se2 V0 2.557216 1_545
Se2 V1 2.578315 1_456
Se2 V1 2.578315 1_556
Se3 V1 2.462270 1_556
Se3 V0 2.527538 1_555
Se3 V0 2.527538 1_655
