# generated using pymatgen
data_KCaNi2H3(SeO5)2
_symmetry_space_group_name_H-M   'P 1'
_cell_length_a   5.70451066
_cell_length_b   5.80732637
_cell_length_c   9.36159098
_cell_angle_alpha   83.89093875
_cell_angle_beta   75.76432811
_cell_angle_gamma   64.96323154
_symmetry_Int_Tables_number   1
_chemical_formula_structural   KCaNi2H3(SeO5)2
_chemical_formula_sum   'K1 Ca1 Ni2 H3 Se2 O10'
_cell_volume   272.35992190
_cell_formula_units_Z   1
loop_
 _symmetry_equiv_pos_site_id
 _symmetry_equiv_pos_as_xyz
  1  'x, y, z'
loop_
 _atom_site_type_symbol
 _atom_site_label
 _atom_site_symmetry_multiplicity
 _atom_site_fract_x
 _atom_site_fract_y
 _atom_site_fract_z
 _atom_site_occupancy
  K  K0  1  0.44352300  0.48300400  0.51395300  1
  Ca  Ca0  1  0.06242100  0.02203100  0.13245200  1
  Ni  Ni0  1  0.00890300  0.60729400  0.92959300  1
  Ni  Ni1  1  0.56973200  0.07055000  0.92549400  1
  H  H0  1  0.67733000  0.67950400  0.77636100  1
  H  H1  1  0.29389000  0.50628100  0.13193500  1
  H  H2  1  0.47927200  0.54135700  0.96531700  1
  Se  Se0  1  0.85040400  0.78033900  0.39196900  1
  Se  Se1  1  0.09837200  0.07501200  0.73815100  1
  O  O0  1  0.90137900  0.72018400  0.56321100  1
  O  O1  1  0.25822800  0.12405300  0.57669500  1
  O  O2  1  0.18014400  0.64962000  0.27315400  1
  O  O3  1  0.80063200  0.09535800  0.35530900  1
  O  O4  1  0.76705200  0.21194200  0.75658700  1
  O  O5  1  0.21146100  0.76057700  0.77075200  1
  O  O6  1  0.65518200  0.70316300  0.88210600  1
  O  O7  1  0.36053200  0.45086300  0.01932100  1
  O  O8  1  0.80943100  0.90999000  0.05173600  1
  O  O9  1  0.16987500  0.20664200  0.87690200  1
loop_
_geom_bond_atom_site_label_1
_geom_bond_atom_site_label_2
_geom_bond_distance
_geom_bond_site_symmetry_2
K0 O3 2.601060 1_555
K0 O1 2.665824 1_555
K0 O0 2.739109 1_455
K0 O5 2.753862 1_555
K0 O2 2.871642 1_555
K0 O4 3.144089 1_555
K0 Se0 3.367769 1_555
Ca0 O8 2.124355 1_445
Ca0 O3 2.209672 1_455
Ca0 O2 2.337251 1_545
Ca0 O9 2.556868 1_554
Ni0 O8 1.946079 1_456
Ni0 O6 2.004191 1_455
Ni0 O5 2.020529 1_555
Ni0 O7 2.162943 1_556
Ni0 O9 2.171008 1_555
Ni1 O8 1.901820 1_546
Ni1 O4 2.017946 1_555
Ni1 O6 2.039949 1_545
Ni1 O7 2.177182 1_556
Ni1 O9 2.223158 1_555
H0 O6 0.983650 1_555
H1 O7 1.063522 1_555
H1 O2 1.488922 1_555
H2 O7 1.032909 1_556
O0 Se0 1.673502 1_555
O1 Se1 1.627133 1_555
O2 Se0 1.814877 1_455
O3 Se0 1.737764 1_545
O4 Se1 1.682555 1_655
O5 Se1 1.680730 1_565
O9 Se1 1.781502 1_555
