# generated using pymatgen
data_TiPd3
_symmetry_space_group_name_H-M   'P 1'
_cell_length_a   5.51447462
_cell_length_b   5.51447462
_cell_length_c   8.98957295
_cell_angle_alpha   89.99991736
_cell_angle_beta   90.00008264
_cell_angle_gamma   120.00019718
_symmetry_Int_Tables_number   1
_chemical_formula_structural   TiPd3
_chemical_formula_sum   'Ti4 Pd12'
_cell_volume   236.74298197
_cell_formula_units_Z   4
loop_
 _symmetry_equiv_pos_site_id
 _symmetry_equiv_pos_as_xyz
  1  'x, y, z'
loop_
 _atom_site_type_symbol
 _atom_site_label
 _atom_site_symmetry_multiplicity
 _atom_site_fract_x
 _atom_site_fract_y
 _atom_site_fract_z
 _atom_site_occupancy
  Ti  Ti0  1  0.99999983  0.00000017  0.50001977  1
  Ti  Ti1  1  0.99999984  0.00000016  0.99998052  1
  Ti  Ti2  1  0.66668071  0.33331929  0.75000124  1
  Ti  Ti3  1  0.33331898  0.66668102  0.24999816  1
  Pd  Pd0  1  0.50000123  0.00000388  0.49999518  1
  Pd  Pd1  1  0.50000118  0.49999882  0.49999513  1
  Pd  Pd2  1  0.99999512  0.49999877  0.49999518  1
  Pd  Pd3  1  0.50000124  0.00000392  0.00000511  1
  Pd  Pd4  1  0.50000120  0.49999880  0.00000515  1
  Pd  Pd5  1  0.99999508  0.49999876  0.00000511  1
  Pd  Pd6  1  0.16651660  0.33302970  0.75000169  1
  Pd  Pd7  1  0.16651518  0.83348482  0.75000169  1
  Pd  Pd8  1  0.66697030  0.83348340  0.75000169  1
  Pd  Pd9  1  0.83348079  0.66696628  0.24999738  1
  Pd  Pd10  1  0.83348399  0.16651601  0.24999861  1
  Pd  Pd11  1  0.33303372  0.16651921  0.24999738  1
loop_
_geom_bond_atom_site_label_1
_geom_bond_atom_site_label_2
_geom_bond_distance
_geom_bond_site_symmetry_2
Pd0 Ti3 2.754017 1_545
Pd0 Ti2 2.754063 1_555
Pd0 Pd10 2.754456 1_555
Pd0 Pd11 2.754465 1_555
Pd0 Pd7 2.754538 1_545
Pd0 Pd8 2.754547 1_545
Pd0 Pd2 2.757198 1_555
Pd0 Pd1 2.757210 1_555
Pd0 Ti0 2.757235 1_455
Pd0 Ti0 2.757240 1_555
Pd0 Pd2 2.757260 1_445
Pd0 Pd1 2.757265 1_545
Pd1 Ti3 2.754131 1_555
Pd1 Ti2 2.754183 1_555
Pd1 Pd11 2.754456 1_555
Pd1 Pd9 2.754456 1_555
Pd1 Pd8 2.754534 1_555
Pd1 Pd6 2.754534 1_555
Pd1 Pd2 2.757204 1_555
Pd1 Ti0 2.757229 1_565
Pd1 Ti0 2.757229 1_455
Pd1 Pd2 2.757271 1_455
Pd2 Ti3 2.754020 1_655
Pd2 Ti2 2.754060 1_555
Pd2 Pd9 2.754462 1_555
Pd2 Pd7 2.754538 1_655
Pd2 Pd6 2.754550 1_655
Pd2 Ti0 2.757232 1_565
Pd2 Ti0 2.757243 1_555
Pd3 Ti3 2.753986 1_545
Pd3 Ti2 2.754045 1_554
Pd3 Pd7 2.754513 1_544
Pd3 Pd8 2.754529 1_544
Pd3 Pd5 2.757198 1_555
Pd3 Pd4 2.757209 1_555
Pd3 Ti1 2.757235 1_454
Pd3 Ti1 2.757240 1_554
Pd3 Pd5 2.757260 1_445
Pd3 Pd4 2.757265 1_545
Pd4 Ti3 2.754107 1_555
Pd4 Ti2 2.754172 1_554
Pd4 Pd9 2.754413 1_555
Pd4 Pd8 2.754509 1_554
Pd4 Pd6 2.754509 1_554
Pd4 Pd5 2.757204 1_555
Pd4 Ti1 2.757229 1_564
Pd4 Ti1 2.757229 1_454
Pd4 Pd5 2.757271 1_455
Pd5 Ti3 2.753989 1_655
Pd5 Ti2 2.754042 1_554
Pd5 Pd9 2.754425 1_555
Pd5 Pd7 2.754513 1_654
Pd5 Pd6 2.754531 1_654
Pd5 Ti1 2.757232 1_564
Pd5 Ti1 2.757243 1_554
Pd6 Ti1 2.753072 1_455
Pd6 Ti0 2.753097 1_455
Pd6 Pd7 2.754724 1_545
Pd6 Pd8 2.754727 1_445
Pd6 Ti2 2.757131 1_455
Pd6 Ti2 2.757344 1_555
Pd6 Pd8 2.759731 1_555
Pd6 Pd7 2.759751 1_555
Pd7 Ti1 2.753081 1_465
Pd7 Ti0 2.753100 1_465
Pd7 Pd8 2.754724 1_455
Pd7 Ti2 2.757230 1_565
Pd7 Ti2 2.757230 1_455
Pd7 Pd8 2.759751 1_555
Pd8 Ti1 2.753072 1_565
Pd8 Ti0 2.753097 1_565
Pd8 Ti2 2.757131 1_565
Pd8 Ti2 2.757344 1_555
Pd9 Ti1 2.753363 1_564
Pd9 Ti0 2.753406 1_565
Pd9 Ti3 2.757132 1_655
Pd9 Ti3 2.757343 1_555
Pd10 Ti1 2.753372 1_554
Pd10 Ti0 2.753390 1_555
Pd10 Pd3 2.754431 1_555
Pd10 Pd5 2.754431 1_555
Pd10 Pd2 2.754456 1_555
Pd10 Pd11 2.754745 1_655
Pd10 Pd9 2.754745 1_545
Pd10 Ti3 2.757230 1_545
Pd10 Ti3 2.757230 1_655
Pd10 Pd9 2.759729 1_555
Pd10 Pd11 2.759729 1_555
Pd11 Ti1 2.753363 1_454
Pd11 Ti0 2.753406 1_455
Pd11 Pd4 2.754413 1_555
Pd11 Pd3 2.754428 1_555
Pd11 Pd9 2.754764 1_445
Pd11 Ti3 2.757132 1_545
Pd11 Ti3 2.757343 1_555
Pd11 Pd9 2.759694 1_555
