# generated using pymatgen
data_Li24TiCr11O36
_symmetry_space_group_name_H-M   'P 1'
_cell_length_a   13.20807337
_cell_length_b   13.20807337
_cell_length_c   9.71117313
_cell_angle_alpha   88.23827156
_cell_angle_beta   88.23827156
_cell_angle_gamma   157.86216195
_symmetry_Int_Tables_number   1
_chemical_formula_structural   Li24TiCr11O36
_chemical_formula_sum   'Li24 Ti1 Cr11 O36'
_cell_volume   630.17696774
_cell_formula_units_Z   1
loop_
 _symmetry_equiv_pos_site_id
 _symmetry_equiv_pos_as_xyz
  1  'x, y, z'
loop_
 _atom_site_type_symbol
 _atom_site_label
 _atom_site_symmetry_multiplicity
 _atom_site_fract_x
 _atom_site_fract_y
 _atom_site_fract_z
 _atom_site_occupancy
  Li  Li0  1  0.72145200  0.78180000  0.75107500  1
  Li  Li1  1  0.66567100  0.83260100  0.24943100  1
  Li  Li2  1  0.21820000  0.27854800  0.24892500  1
  Li  Li3  1  0.41686700  0.58313300  0.00000000  1
  Li  Li4  1  0.60702200  0.88049600  0.75104100  1
  Li  Li5  1  0.16739900  0.33432900  0.75056900  1
  Li  Li6  1  0.91616600  0.08383400  0.50000000  1
  Li  Li7  1  0.11950400  0.39297800  0.24895900  1
  Li  Li8  1  0.55051600  0.94480200  0.25086300  1
  Li  Li9  1  0.05519800  0.44948400  0.74913700  1
  Li  Li10  1  0.49893800  0.99928200  0.74983700  1
  Li  Li11  1  0.24911000  0.75089000  0.50000000  1
  Li  Li12  1  0.00071800  0.50106200  0.25016300  1
  Li  Li13  1  0.74950900  0.25049100  0.00000000  1
  Li  Li14  1  0.94935500  0.55566300  0.74871600  1
  Li  Li15  1  0.44433700  0.05064500  0.25128400  1
  Li  Li16  1  0.88755800  0.61426200  0.25166200  1
  Li  Li17  1  0.08353500  0.91646500  0.00000000  1
  Li  Li18  1  0.38573800  0.11244200  0.74833800  1
  Li  Li19  1  0.83345400  0.66628500  0.74950100  1
  Li  Li20  1  0.58376300  0.41623700  0.50000000  1
  Li  Li21  1  0.78162400  0.71991500  0.24869700  1
  Li  Li22  1  0.33371500  0.16654600  0.25049900  1
  Li  Li23  1  0.28008500  0.21837600  0.75130300  1
  Ti  Ti0  1  0.86183000  0.13817000  0.00000000  1
  Cr  Cr0  1  0.47388400  0.52611600  0.50000000  1
  Cr  Cr1  1  0.97478300  0.02521700  0.00000000  1
  Cr  Cr2  1  0.35944400  0.64055600  0.50000000  1
  Cr  Cr3  1  0.30495200  0.69504800  0.00000000  1
  Cr  Cr4  1  0.80728000  0.19272000  0.50000000  1
  Cr  Cr5  1  0.19223700  0.80776300  0.00000000  1
  Cr  Cr6  1  0.13908300  0.86091700  0.50000000  1
  Cr  Cr7  1  0.69426100  0.30573900  0.50000000  1
  Cr  Cr8  1  0.64017000  0.35983000  0.00000000  1
  Cr  Cr9  1  0.02592000  0.97408000  0.50000000  1
  Cr  Cr10  1  0.52663400  0.47336600  0.00000000  1
  O  O0  1  0.84166700  0.88753700  0.38622700  1
  O  O1  1  0.61290800  0.65840900  0.11317200  1
  O  O2  1  0.11246300  0.15833300  0.61377300  1
  O  O3  1  0.81264600  0.97691000  0.88430400  1
  O  O4  1  0.34159100  0.38709200  0.88682800  1
  O  O5  1  0.52276300  0.68901500  0.61265800  1
  O  O6  1  0.31098500  0.47723700  0.38734200  1
  O  O7  1  0.49945200  0.78468000  0.11449000  1
  O  O8  1  0.02309000  0.18735400  0.11569600  1
  O  O9  1  0.44542600  0.82461900  0.61340100  1
  O  O10  1  0.99050700  0.27773000  0.61377100  1
  O  O11  1  0.21532000  0.50054800  0.88551000  1
  O  O12  1  0.17538100  0.55457400  0.38659900  1
  O  O13  1  0.72227000  0.00949300  0.38622900  1
  O  O14  1  0.95737600  0.34090000  0.11272700  1
  O  O15  1  0.35740400  0.85868400  0.11392900  1
  O  O16  1  0.14131600  0.64259600  0.88607100  1
  O  O17  1  0.65910000  0.04262400  0.88727300  1
  O  O18  1  0.33087600  0.94942900  0.61380600  1
  O  O19  1  0.85478900  0.35476900  0.61366500  1
  O  O20  1  0.64523100  0.14521100  0.38633500  1
  O  O21  1  0.05057100  0.66912400  0.38619400  1
  O  O22  1  0.27931500  0.99275400  0.11350000  1
  O  O23  1  0.82476600  0.44651400  0.11353000  1
  O  O24  1  0.78783000  0.50210100  0.61136900  1
  O  O25  1  0.00724600  0.72068500  0.88650000  1
  O  O26  1  0.55348600  0.17523400  0.88647000  1
  O  O27  1  0.97623400  0.81043800  0.38582200  1
  O  O28  1  0.49789900  0.21217000  0.38863100  1
  O  O29  1  0.68893000  0.52248800  0.11379500  1
  O  O30  1  0.47751200  0.31107000  0.88620500  1
  O  O31  1  0.65855800  0.61214200  0.61329900  1
  O  O32  1  0.18956200  0.02376600  0.61417800  1
  O  O33  1  0.88830200  0.84053900  0.88638300  1
  O  O34  1  0.38785800  0.34144200  0.38670100  1
  O  O35  1  0.15946100  0.11169800  0.11361700  1
loop_
_geom_bond_atom_site_label_1
_geom_bond_atom_site_label_2
_geom_bond_distance
_geom_bond_site_symmetry_2
Li0 O33 2.063593 1_555
Li0 O31 2.075046 1_555
Li0 O3 2.077563 1_555
Li0 O5 2.134438 1_555
Li0 O2 2.184083 1_665
Li0 O4 2.191727 1_555
Li1 O8 2.048937 1_665
Li1 O6 2.064813 1_555
Li1 O7 2.142752 1_555
Li1 O13 2.190586 1_565
Li1 O1 2.191702 1_555
Li1 O0 2.195293 1_555
Li2 O35 2.063593 1_555
Li2 O34 2.075046 1_555
Li2 O8 2.077563 1_555
Li2 O6 2.134438 1_555
Li2 O0 2.184083 1_445
Li2 O1 2.191727 1_555
Li3 O1 2.091379 1_555
Li3 O4 2.091379 1_554
Li3 O11 2.095162 1_554
Li3 O7 2.095162 1_555
Li3 O3 2.133370 1_554
Li3 O8 2.133370 1_555
Li4 O9 2.050541 1_555
Li4 O17 2.076145 1_565
Li4 O5 2.127792 1_555
Li4 O3 2.140756 1_555
Li4 O11 2.176933 1_555
Li4 O10 2.209758 1_565
Li5 O3 2.048937 1_445
Li5 O5 2.064813 1_555
Li5 O11 2.142752 1_555
Li5 O10 2.190586 1_455
Li5 O4 2.191702 1_555
Li5 O2 2.195293 1_555
Li6 O13 2.079822 1_555
Li6 O10 2.079822 1_555
Li6 O0 2.104242 1_545
Li6 O2 2.104242 1_655
Li6 O5 2.119451 1_545
Li6 O6 2.119451 1_655
Li7 O12 2.050541 1_555
Li7 O14 2.076145 1_455
Li7 O6 2.127792 1_555
Li7 O8 2.140756 1_555
Li7 O7 2.176933 1_555
Li7 O13 2.209758 1_455
Li8 O13 2.065419 1_565
Li8 O7 2.065481 1_555
Li8 O20 2.117354 1_565
Li8 O15 2.120080 1_555
Li8 O12 2.173308 1_555
Li8 O14 2.256133 1_565
Li9 O10 2.065419 1_455
Li9 O11 2.065481 1_555
Li9 O19 2.117354 1_455
Li9 O16 2.120080 1_555
Li9 O9 2.173308 1_555
Li9 O17 2.256133 1_455
Li10 O19 2.058780 1_565
Li10 O16 2.064941 1_555
Li10 O17 2.135698 1_565
Li10 O18 2.152227 1_555
Li10 O9 2.191341 1_555
Li10 O26 2.197061 1_565
Li11 O21 2.066257 1_555
Li11 O18 2.066257 1_555
Li11 O12 2.109072 1_555
Li11 O9 2.109072 1_555
Li11 O20 2.127924 1_565
Li11 O19 2.127924 1_455
Li12 O20 2.058780 1_455
Li12 O15 2.064941 1_555
Li12 O14 2.135698 1_455
Li12 O21 2.152227 1_555
Li12 O12 2.191341 1_555
Li12 O23 2.197061 1_455
Li13 O14 2.086570 1_555
Li13 O17 2.086570 1_554
Li13 O23 2.093362 1_555
Li13 O26 2.093362 1_554
Li13 O15 2.114548 1_545
Li13 O16 2.114548 1_654
Li14 O24 2.065905 1_555
Li14 O25 2.068942 1_655
Li14 O16 2.105932 1_655
Li14 O19 2.120304 1_555
Li14 O18 2.186743 1_655
Li14 O26 2.204867 1_555
Li15 O28 2.065905 1_555
Li15 O22 2.068942 1_545
Li15 O15 2.105932 1_545
Li15 O20 2.120304 1_555
Li15 O21 2.186743 1_545
Li15 O23 2.204867 1_555
Li16 O21 2.051478 1_655
Li16 O23 2.059910 1_555
Li16 O27 2.112413 1_555
Li16 O29 2.137525 1_555
Li16 O22 2.192145 1_655
Li16 O28 2.229561 1_555
Li17 O35 2.079623 1_565
Li17 O33 2.079623 1_454
Li17 O25 2.081695 1_554
Li17 O22 2.081695 1_555
Li17 O29 2.124228 1_455
Li17 O30 2.124228 1_564
Li18 O18 2.051478 1_545
Li18 O26 2.059910 1_555
Li18 O32 2.112413 1_555
Li18 O30 2.137525 1_555
Li18 O25 2.192145 1_545
Li18 O24 2.229561 1_555
Li19 O32 2.059155 1_665
Li19 O30 2.061040 1_555
Li19 O24 2.161677 1_555
Li19 O25 2.178642 1_655
Li19 O33 2.178869 1_555
Li19 O31 2.186968 1_555
Li20 O24 2.076653 1_555
Li20 O28 2.076653 1_555
Li20 O34 2.094796 1_555
Li20 O31 2.094796 1_555
Li20 O32 2.121557 1_555
Li20 O27 2.121557 1_555
Li21 O1 2.061621 1_555
Li21 O0 2.075708 1_555
Li21 O29 2.099809 1_555
Li21 O27 2.103522 1_555
Li21 O35 2.177696 1_665
Li21 O34 2.197646 1_555
Li22 O27 2.059155 1_445
Li22 O29 2.061040 1_555
Li22 O28 2.161677 1_555
Li22 O22 2.178642 1_545
Li22 O35 2.178869 1_555
Li22 O34 2.186968 1_555
Li23 O4 2.061621 1_555
Li23 O2 2.075708 1_555
Li23 O30 2.099809 1_555
Li23 O32 2.103522 1_555
Li23 O33 2.177696 1_445
Li23 O31 2.197646 1_555
Cr0 O31 1.886472 1_555
Cr0 O34 1.886472 1_555
Cr0 O5 1.964149 1_555
Cr0 O6 1.964149 1_555
Cr0 O2 1.998124 1_555
Cr0 O0 1.998124 1_555
Cr1 O33 1.885034 1_544
Cr1 O35 1.885034 1_655
Cr1 O8 1.978956 1_655
Cr1 O3 1.978956 1_544
Cr1 O1 1.993981 1_545
Cr1 O4 1.993981 1_654
Cr2 O9 1.881374 1_555
Cr2 O12 1.881374 1_555
Cr2 O5 1.972355 1_555
Cr2 O6 1.972355 1_555
Cr2 O13 2.003419 1_565
Cr2 O10 2.003419 1_455
Cr3 O17 1.936028 1_564
Cr3 O14 1.936028 1_455
Cr3 O15 1.948225 1_555
Cr3 O16 1.948225 1_554
Cr3 O7 1.964599 1_555
Cr3 O11 1.964599 1_554
Cr4 O10 1.882788 1_555
Cr4 O13 1.882788 1_555
Cr4 O20 1.973074 1_555
Cr4 O19 1.973074 1_555
Cr4 O9 1.998199 1_545
Cr4 O12 1.998199 1_655
Cr5 O22 1.882879 1_555
Cr5 O25 1.882879 1_554
Cr5 O15 1.977767 1_555
Cr5 O16 1.977767 1_554
Cr5 O26 1.996068 1_564
Cr5 O23 1.996068 1_455
Cr6 O18 1.941793 1_555
Cr6 O21 1.941793 1_555
Cr6 O24 1.948795 1_455
Cr6 O28 1.948795 1_565
Cr6 O27 1.958521 1_455
Cr6 O32 1.958521 1_565
Cr7 O24 1.933980 1_555
Cr7 O28 1.933980 1_555
Cr7 O19 1.943576 1_555
Cr7 O20 1.943576 1_555
Cr7 O21 1.978527 1_655
Cr7 O18 1.978527 1_545
Cr8 O26 1.882138 1_554
Cr8 O23 1.882138 1_555
Cr8 O29 1.969286 1_555
Cr8 O30 1.969286 1_554
Cr8 O25 1.994275 1_654
Cr8 O22 1.994275 1_545
Cr9 O2 1.881332 1_565
Cr9 O0 1.881332 1_455
Cr9 O32 1.973858 1_565
Cr9 O27 1.973858 1_455
Cr9 O31 1.996004 1_455
Cr9 O34 1.996004 1_565
Cr10 O4 1.887461 1_554
Cr10 O1 1.887461 1_555
Cr10 O29 1.962260 1_555
Cr10 O30 1.962260 1_554
Cr10 O35 1.996313 1_555
Cr10 O33 1.996313 1_554
O3 Ti0 1.962062 1_566
O7 Ti0 1.974437 1_565
O8 Ti0 1.962062 1_455
O11 Ti0 1.974437 1_456
O14 Ti0 1.991478 1_555
O17 Ti0 1.991478 1_556
