# generated using pymatgen
data_FeCu2SiSe4
_symmetry_space_group_name_H-M   'P 1'
_cell_length_a   6.78778727
_cell_length_b   6.78778727
_cell_length_c   6.78778727
_cell_angle_alpha   131.39527521
_cell_angle_beta   131.39527521
_cell_angle_gamma   71.18581736
_symmetry_Int_Tables_number   1
_chemical_formula_structural   FeCu2SiSe4
_chemical_formula_sum   'Fe1 Cu2 Si1 Se4'
_cell_volume   172.29663904
_cell_formula_units_Z   1
loop_
 _symmetry_equiv_pos_site_id
 _symmetry_equiv_pos_as_xyz
  1  'x, y, z'
loop_
 _atom_site_type_symbol
 _atom_site_label
 _atom_site_symmetry_multiplicity
 _atom_site_fract_x
 _atom_site_fract_y
 _atom_site_fract_z
 _atom_site_occupancy
  Fe  Fe0  1  0.00000000  0.00000000  0.00000000  1
  Cu  Cu0  1  0.25000000  0.75000000  0.50000000  1
  Cu  Cu1  1  0.75000000  0.25000000  0.50000000  1
  Si  Si0  1  0.50000000  0.50000000  0.00000000  1
  Se  Se0  1  0.86625700  0.38111500  0.00000000  1
  Se  Se1  1  0.38111500  0.86625700  0.00000000  1
  Se  Se2  1  0.61888500  0.61888500  0.48514300  1
  Se  Se3  1  0.13374300  0.13374300  0.51485700  1
loop_
_geom_bond_atom_site_label_1
_geom_bond_atom_site_label_2
_geom_bond_distance
_geom_bond_site_symmetry_2
Fe0 Se3 2.449804 1_555
Fe0 Se2 2.449810 1_444
Fe0 Se1 2.449810 1_545
Fe0 Se0 2.449810 1_455
Cu0 Se2 2.418620 1_555
Cu0 Se0 2.418624 1_455
Cu0 Se1 2.418624 1_556
Cu0 Se3 2.418627 1_565
Cu1 Se2 2.418620 1_555
Cu1 Se0 2.418624 1_556
Cu1 Se1 2.418624 1_545
Cu1 Se3 2.418627 1_655
Se0 Si0 2.353248 1_555
Se1 Si0 2.353248 1_555
Se2 Si0 2.353254 1_555
Se3 Si0 2.353248 1_556
