# generated using pymatgen
data_Li9Mn2Co5O16
_symmetry_space_group_name_H-M   'P 1'
_cell_length_a   5.16146600
_cell_length_b   5.89742127
_cell_length_c   10.05012113
_cell_angle_alpha   89.15414838
_cell_angle_beta   100.04834586
_cell_angle_gamma   107.68852704
_symmetry_Int_Tables_number   1
_chemical_formula_structural   Li9Mn2Co5O16
_chemical_formula_sum   'Li9 Mn2 Co5 O16'
_cell_volume   286.74655895
_cell_formula_units_Z   1
loop_
 _symmetry_equiv_pos_site_id
 _symmetry_equiv_pos_as_xyz
  1  'x, y, z'
loop_
 _atom_site_type_symbol
 _atom_site_label
 _atom_site_symmetry_multiplicity
 _atom_site_fract_x
 _atom_site_fract_y
 _atom_site_fract_z
 _atom_site_occupancy
  Li  Li0  1  0.49875100  0.87212900  0.13268700  1
  Li  Li1  1  0.50567600  0.13001300  0.37641100  1
  Li  Li2  1  0.51261300  0.36976200  0.61499000  1
  Li  Li3  1  0.49930800  0.61983100  0.87575900  1
  Li  Li4  1  0.49056400  0.38124800  0.12772500  1
  Li  Li5  1  0.50039600  0.62232400  0.38099200  1
  Li  Li6  1  0.49405600  0.87097600  0.61731500  1
  Li  Li7  1  0.50306700  0.13313100  0.87031400  1
  Li  Li8  1  0.00106400  0.49900500  0.50224600  1
  Mn  Mn0  1  0.99824400  0.00318700  0.00043800  1
  Mn  Mn1  1  0.00222600  0.74651600  0.74737300  1
  Co  Co0  1  0.99183600  0.25648200  0.25826200  1
  Co  Co1  1  0.99620500  0.50359100  0.99901700  1
  Co  Co2  1  0.00445900  0.74934900  0.26030800  1
  Co  Co3  1  0.99967500  0.00594300  0.49838600  1
  Co  Co4  1  0.00593000  0.24913600  0.74750500  1
  O  O0  1  0.76869300  0.71545500  0.06407800  1
  O  O1  1  0.75792900  0.93476500  0.31622900  1
  O  O2  1  0.78039700  0.18859900  0.57765900  1
  O  O3  1  0.77316300  0.46121400  0.82059000  1
  O  O4  1  0.78018100  0.19132200  0.05185300  1
  O  O5  1  0.75902100  0.42609400  0.30041900  1
  O  O6  1  0.77518200  0.70229900  0.57448900  1
  O  O7  1  0.78879800  0.94117200  0.81526000  1
  O  O8  1  0.21868300  0.06665600  0.17632800  1
  O  O9  1  0.24046600  0.29196400  0.43605700  1
  O  O10  1  0.22121700  0.56163600  0.70054400  1
  O  O11  1  0.21370800  0.81100500  0.93773300  1
  O  O12  1  0.21866100  0.55661200  0.17382400  1
  O  O13  1  0.23594600  0.81119000  0.42539900  1
  O  O14  1  0.23910900  0.03504200  0.68989400  1
  O  O15  1  0.22477500  0.29235100  0.92991600  1
loop_
_geom_bond_atom_site_label_1
_geom_bond_atom_site_label_2
_geom_bond_distance
_geom_bond_site_symmetry_2
Li0 O1 2.046302 1_555
Li0 O12 2.067466 1_555
Li0 O0 2.099244 1_555
Li0 O11 2.196827 1_554
Li0 O8 2.200446 1_565
Li0 O4 2.240200 1_565
Li1 O9 2.059876 1_555
Li1 O5 2.064875 1_555
Li1 O13 2.082556 1_545
Li1 O1 2.143194 1_545
Li1 O2 2.223264 1_555
Li1 O8 2.241389 1_555
Li2 O9 2.041750 1_555
Li2 O2 2.069478 1_555
Li2 O6 2.098131 1_555
Li2 O3 2.234165 1_555
Li2 O14 2.256043 1_555
Li2 O10 2.407502 1_555
Li3 O10 2.028643 1_555
Li3 O3 2.067053 1_555
Li3 O0 2.114251 1_556
Li3 O15 2.146877 1_555
Li3 O7 2.180808 1_555
Li3 O11 2.276650 1_555
Li4 O5 1.988432 1_555
Li4 O8 2.068877 1_555
Li4 O12 2.092087 1_555
Li4 O15 2.179686 1_554
Li4 O0 2.217765 1_555
Li4 O4 2.347558 1_555
Li5 O1 2.088976 1_555
Li5 O13 2.110448 1_555
Li5 O9 2.130924 1_555
Li5 O6 2.161912 1_555
Li5 O5 2.262850 1_555
Li5 O12 2.285740 1_555
Li6 O14 2.080708 1_565
Li6 O2 2.086395 1_565
Li6 O6 2.094751 1_555
Li6 O13 2.111230 1_555
Li6 O10 2.194480 1_555
Li6 O7 2.242507 1_555
Li7 O14 2.041721 1_555
Li7 O4 2.074101 1_556
Li7 O15 2.107180 1_555
Li7 O3 2.124210 1_555
Li7 O11 2.211238 1_545
Li7 O7 2.254001 1_545
Li8 O2 2.053291 1_455
Li8 O10 2.091841 1_555
Li8 O13 2.093855 1_555
Li8 O6 2.119982 1_455
Li8 O5 2.162178 1_455
Li8 O9 2.165154 1_555
Mn0 O8 1.902200 1_655
Mn0 O0 1.924296 1_545
Mn0 O4 1.934831 1_555
Mn0 O15 1.954324 1_654
Mn0 O7 1.960546 1_544
Mn0 O11 1.987481 1_644
Mn1 O6 1.891394 1_455
Mn1 O10 1.907247 1_555
Mn1 O14 1.917580 1_565
Mn1 O3 1.956640 1_455
Mn1 O11 2.009161 1_555
Mn1 O7 2.012643 1_455
Co0 O5 1.882729 1_555
Co0 O9 1.982720 1_655
Co0 O1 2.053669 1_545
Co0 O12 2.065615 1_655
Co0 O8 2.112444 1_655
Co0 O4 2.149886 1_555
Co1 O12 1.896502 1_656
Co1 O3 1.929092 1_555
Co1 O4 1.961265 1_556
Co1 O11 1.974323 1_655
Co1 O0 2.133382 1_556
Co1 O15 2.151890 1_655
Co2 O13 1.837053 1_555
Co2 O5 2.022259 1_455
Co2 O1 2.060079 1_455
Co2 O12 2.097129 1_555
Co2 O0 2.106295 1_455
Co2 O8 2.111480 1_565
Co3 O9 1.936184 1_655
Co3 O1 1.997965 1_545
Co3 O6 2.035237 1_545
Co3 O2 2.038853 1_555
Co3 O14 2.076527 1_655
Co3 O13 2.128987 1_645
Co4 O2 1.862349 1_455
Co4 O10 1.940829 1_555
Co4 O15 1.953950 1_555
Co4 O7 2.002784 1_445
Co4 O14 2.136848 1_555
Co4 O3 2.189838 1_455
