# generated using pymatgen
data_Hf2CuGe4
_symmetry_space_group_name_H-M   'P 1'
_cell_length_a   16.68011338
_cell_length_b   16.68011338
_cell_length_c   3.79489300
_cell_angle_alpha   90.00000000
_cell_angle_beta   90.00000000
_cell_angle_gamma   166.84956212
_symmetry_Int_Tables_number   1
_chemical_formula_structural   Hf2CuGe4
_chemical_formula_sum   'Hf4 Cu2 Ge8'
_cell_volume   240.21237825
_cell_formula_units_Z   2
loop_
 _symmetry_equiv_pos_site_id
 _symmetry_equiv_pos_as_xyz
  1  'x, y, z'
loop_
 _atom_site_type_symbol
 _atom_site_label
 _atom_site_symmetry_multiplicity
 _atom_site_fract_x
 _atom_site_fract_y
 _atom_site_fract_z
 _atom_site_occupancy
  Hf  Hf0  1  0.32225400  0.67774600  0.25000000  1
  Hf  Hf1  1  0.67774600  0.32225400  0.75000000  1
  Hf  Hf2  1  0.04734400  0.95265600  0.25000000  1
  Hf  Hf3  1  0.95265600  0.04734400  0.75000000  1
  Cu  Cu0  1  0.25010700  0.74989300  0.75000000  1
  Cu  Cu1  1  0.74989300  0.25010700  0.25000000  1
  Ge  Ge0  1  0.88673500  0.11326500  0.25000000  1
  Ge  Ge1  1  0.11326500  0.88673500  0.75000000  1
  Ge  Ge2  1  0.20140000  0.79860000  0.25000000  1
  Ge  Ge3  1  0.79860000  0.20140000  0.75000000  1
  Ge  Ge4  1  0.52789200  0.47210800  0.75000000  1
  Ge  Ge5  1  0.47210800  0.52789200  0.25000000  1
  Ge  Ge6  1  0.38705800  0.61294200  0.75000000  1
  Ge  Ge7  1  0.61294200  0.38705800  0.25000000  1
loop_
_geom_bond_atom_site_label_1
_geom_bond_atom_site_label_2
_geom_bond_distance
_geom_bond_site_symmetry_2
Cu0 Ge2 2.491166 1_555
Cu0 Ge2 2.491166 1_556
Cu0 Ge3 2.496167 1_455
Cu0 Ge3 2.496167 1_565
Cu0 Cu1 2.692294 1_455
Cu0 Cu1 2.692294 1_456
Cu0 Cu1 2.692294 1_565
Cu0 Cu1 2.692294 1_566
Cu0 Hf0 3.052413 1_556
Cu0 Hf0 3.052413 1_555
Cu0 Hf1 3.065776 1_455
Cu0 Hf1 3.065776 1_565
Cu1 Ge3 2.491166 1_554
Cu1 Ge3 2.491166 1_555
Cu1 Ge2 2.496167 1_545
Cu1 Ge2 2.496167 1_655
Cu1 Hf1 3.052413 1_554
Cu1 Hf1 3.052413 1_555
Cu1 Hf0 3.065776 1_545
Cu1 Hf0 3.065776 1_655
Ge0 Ge6 2.692306 1_545
Ge0 Ge6 2.692306 1_544
Ge0 Ge6 2.692306 1_655
Ge0 Ge6 2.692306 1_654
Ge0 Hf0 2.866122 1_545
Ge0 Hf0 2.866122 1_655
Ge0 Hf3 2.893632 1_554
Ge0 Hf3 2.893632 1_555
Ge1 Ge7 2.692306 1_455
Ge1 Ge7 2.692306 1_456
Ge1 Ge7 2.692306 1_565
Ge1 Ge7 2.692306 1_566
Ge1 Hf1 2.866122 1_455
Ge1 Hf1 2.866122 1_565
Ge1 Hf2 2.893632 1_556
Ge1 Hf2 2.893632 1_555
Ge2 Hf1 2.804089 1_565
Ge2 Hf1 2.804089 1_564
Ge2 Hf1 2.804089 1_454
Ge2 Hf1 2.804089 1_455
Ge3 Hf0 2.804089 1_545
Ge3 Hf0 2.804089 1_656
Ge3 Hf0 2.804089 1_655
Ge3 Hf0 2.804089 1_546
Ge4 Ge5 2.649168 1_555
Ge4 Ge5 2.649168 1_556
Ge4 Hf2 2.768389 1_545
Ge4 Hf2 2.768389 1_546
Ge4 Hf2 2.768389 1_656
Ge4 Hf2 2.768389 1_655
Ge4 Hf3 3.140866 1_455
Ge4 Hf3 3.140866 1_565
Ge5 Hf3 2.768389 1_455
Ge5 Hf3 2.768389 1_454
Ge5 Hf3 2.768389 1_565
Ge5 Hf3 2.768389 1_564
Ge5 Hf2 3.140866 1_545
Ge5 Hf2 3.140866 1_655
Ge6 Hf0 2.865786 1_555
Ge6 Hf0 2.865786 1_556
Ge6 Hf3 2.893828 1_455
Ge6 Hf3 2.893828 1_565
Ge7 Hf1 2.865786 1_554
Ge7 Hf1 2.865786 1_555
Ge7 Hf2 2.893828 1_545
Ge7 Hf2 2.893828 1_655
