# generated using pymatgen
data_CaMn6O5F7
_symmetry_space_group_name_H-M   'P 1'
_cell_length_a   7.15210211
_cell_length_b   6.65815815
_cell_length_c   6.04681933
_cell_angle_alpha   89.20728386
_cell_angle_beta   77.33381438
_cell_angle_gamma   73.56743913
_symmetry_Int_Tables_number   1
_chemical_formula_structural   CaMn6O5F7
_chemical_formula_sum   'Ca1 Mn6 O5 F7'
_cell_volume   269.10794449
_cell_formula_units_Z   1
loop_
 _symmetry_equiv_pos_site_id
 _symmetry_equiv_pos_as_xyz
  1  'x, y, z'
loop_
 _atom_site_type_symbol
 _atom_site_label
 _atom_site_symmetry_multiplicity
 _atom_site_fract_x
 _atom_site_fract_y
 _atom_site_fract_z
 _atom_site_occupancy
  Ca  Ca0  1  0.65071800  0.84769900  0.35995500  1
  Mn  Mn0  1  0.84284300  0.59045900  0.75733900  1
  Mn  Mn1  1  0.67283400  0.35757700  0.33180400  1
  Mn  Mn2  1  0.32049400  0.62355500  0.74656300  1
  Mn  Mn3  1  0.15931300  0.31247700  0.32292600  1
  Mn  Mn4  1  0.49648800  0.07867700  0.95478800  1
  Mn  Mn5  1  0.99324800  0.04193500  0.94375600  1
  O  O0  1  0.61132000  0.58475400  0.59297500  1
  O  O1  1  0.97114600  0.24607200  0.18760800  1
  O  O2  1  0.70847600  0.10268900  0.09313900  1
  O  O3  1  0.02196800  0.76408000  0.83207400  1
  O  O4  1  0.35536800  0.04619000  0.24617900  1
  F  F0  1  0.65376800  0.06642800  0.64256100  1
  F  F1  1  0.33107300  0.39253700  0.98444100  1
  F  F2  1  0.30358000  0.96624000  0.82645900  1
  F  F3  1  0.35308000  0.40747300  0.45975200  1
  F  F4  1  0.65113100  0.61666500  0.08726800  1
  F  F5  1  0.00293600  0.27195900  0.68082800  1
  F  F6  1  0.98354800  0.60961600  0.38708400  1
loop_
_geom_bond_atom_site_label_1
_geom_bond_atom_site_label_2
_geom_bond_distance
_geom_bond_site_symmetry_2
Ca0 F0 2.268213 1_565
Ca0 F4 2.269486 1_555
Ca0 O0 2.273005 1_555
Ca0 O2 2.384280 1_565
Ca0 O4 2.390551 1_565
Ca0 F6 2.497069 1_555
Mn0 O3 2.070763 1_655
Mn0 O0 2.118849 1_555
Mn1 O1 2.041916 1_555
Mn1 O0 2.088157 1_555
Mn1 O2 2.165520 1_555
Mn2 O3 2.024943 1_555
Mn2 O0 2.027608 1_555
Mn3 O1 1.872359 1_455
Mn3 O4 1.912026 1_555
Mn4 O4 1.871674 1_556
Mn4 O2 1.929056 1_556
Mn5 O3 1.918202 1_645
Mn5 O2 1.965952 1_556
Mn5 O1 1.969331 1_556
F0 Mn4 1.964048 1_555
F0 Mn1 2.691434 1_555
F1 Mn4 2.077823 1_555
F1 Mn2 2.088377 1_555
F1 Mn3 2.284753 1_556
F2 Mn4 2.033743 1_565
F2 Mn5 2.090456 1_465
F2 Mn2 2.302754 1_555
F3 Mn3 2.004587 1_555
F3 Mn1 2.177214 1_555
F3 Mn2 2.198648 1_555
F4 Mn0 2.136645 1_554
F4 Mn1 2.250537 1_555
F5 Mn0 2.107887 1_455
F5 Mn5 2.196012 1_455
F5 Mn3 2.258398 1_555
F6 Mn3 2.011247 1_655
F6 Mn0 2.262336 1_555
