# generated using pymatgen
data_SrTi7N10
_symmetry_space_group_name_H-M   'P 1'
_cell_length_a   7.37799460
_cell_length_b   7.39239700
_cell_length_c   10.95928478
_cell_angle_alpha   90.00000000
_cell_angle_beta   102.47490051
_cell_angle_gamma   90.00000000
_symmetry_Int_Tables_number   1
_chemical_formula_structural   SrTi7N10
_chemical_formula_sum   'Sr2 Ti14 N20'
_cell_volume   583.61907075
_cell_formula_units_Z   2
loop_
 _symmetry_equiv_pos_site_id
 _symmetry_equiv_pos_as_xyz
  1  'x, y, z'
loop_
 _atom_site_type_symbol
 _atom_site_label
 _atom_site_symmetry_multiplicity
 _atom_site_fract_x
 _atom_site_fract_y
 _atom_site_fract_z
 _atom_site_occupancy
  Sr  Sr0  1  0.90410900  0.99661900  0.61557000  1
  Sr  Sr1  1  0.90410900  0.00338100  0.11557000  1
  Ti  Ti0  1  0.55386400  0.98384500  0.82542900  1
  Ti  Ti1  1  0.55386400  0.01615500  0.32542900  1
  Ti  Ti2  1  0.37034100  0.01739500  0.02711200  1
  Ti  Ti3  1  0.37034100  0.98260500  0.52711200  1
  Ti  Ti4  1  0.11850400  0.40344700  0.07559700  1
  Ti  Ti5  1  0.11850400  0.59655300  0.57559700  1
  Ti  Ti6  1  0.66214500  0.37220500  0.99137300  1
  Ti  Ti7  1  0.66214500  0.62779500  0.49137300  1
  Ti  Ti8  1  0.85750900  0.63035900  0.80310900  1
  Ti  Ti9  1  0.85750900  0.36964100  0.30310900  1
  Ti  Ti10  1  0.30055300  0.61375500  0.88815900  1
  Ti  Ti11  1  0.30055300  0.38624500  0.38815900  1
  Ti  Ti12  1  0.47563100  0.38289300  0.69198900  1
  Ti  Ti13  1  0.47563100  0.61710700  0.19198900  1
  N  N0  1  0.77646000  0.86381400  0.82181400  1
  N  N1  1  0.77646000  0.13618600  0.32181400  1
  N  N2  1  0.59026600  0.12481800  0.97854100  1
  N  N3  1  0.59026600  0.87518200  0.47854100  1
  N  N4  1  0.34840500  0.86699400  0.88014700  1
  N  N5  1  0.34840500  0.13300600  0.38014700  1
  N  N6  1  0.16841300  0.16195200  0.04301900  1
  N  N7  1  0.16841300  0.83804800  0.54301900  1
  N  N8  1  0.26464000  0.49369000  0.72990100  1
  N  N9  1  0.26464000  0.50631000  0.22990100  1
  N  N10  1  0.46161500  0.12312600  0.67624600  1
  N  N11  1  0.46161500  0.87687400  0.17624600  1
  N  N12  1  0.88032700  0.37008800  0.12507500  1
  N  N13  1  0.88032700  0.62991200  0.62507500  1
  N  N14  1  0.07089300  0.57981600  0.93631400  1
  N  N15  1  0.07089300  0.42018400  0.43631400  1
  N  N16  1  0.67450900  0.45328200  0.82676800  1
  N  N17  1  0.67450900  0.54671800  0.32676800  1
  N  N18  1  0.46411800  0.50569300  0.03313600  1
  N  N19  1  0.46411800  0.49430700  0.53313600  1
loop_
_geom_bond_atom_site_label_1
_geom_bond_atom_site_label_2
_geom_bond_distance
_geom_bond_site_symmetry_2
N0 Ti8 1.852274 1_555
N0 Ti0 1.874620 1_555
N0 Sr0 2.807019 1_555
N1 Ti9 1.852274 1_555
N1 Ti1 1.874620 1_555
N1 Sr1 2.807019 1_555
N2 Ti6 1.900854 1_555
N2 Ti0 1.944002 1_545
N2 Ti2 1.979889 1_556
N2 Sr1 2.630686 1_556
N3 Ti7 1.900854 1_555
N3 Ti1 1.944002 1_565
N3 Ti3 1.979889 1_555
N3 Sr0 2.630686 1_555
N4 Ti10 1.910574 1_555
N4 Ti2 1.934906 1_566
N4 Ti0 1.948427 1_555
N5 Ti11 1.910574 1_555
N5 Ti3 1.934906 1_545
N5 Ti1 1.948427 1_555
N6 Ti2 1.871931 1_555
N6 Ti4 1.872671 1_555
N6 Sr1 2.545343 1_455
N7 Ti3 1.871931 1_555
N7 Ti5 1.872671 1_555
N7 Sr0 2.545343 1_455
N8 Ti12 1.883134 1_555
N8 Ti10 1.915090 1_555
N8 Ti5 1.952612 1_555
N9 Ti13 1.883134 1_555
N9 Ti11 1.915090 1_555
N9 Ti4 1.952612 1_555
N10 Ti0 1.927599 1_545
N10 Ti12 1.928810 1_555
N10 Ti3 1.930891 1_545
N11 Ti1 1.927599 1_565
N11 Ti13 1.928810 1_555
N11 Ti2 1.930891 1_565
N12 Ti6 1.928611 1_554
N12 Ti4 1.963287 1_655
N12 Ti9 1.994280 1_555
N12 Sr1 2.719965 1_555
N13 Ti7 1.928611 1_555
N13 Ti5 1.963287 1_655
N13 Ti8 1.994280 1_555
N13 Sr0 2.719965 1_555
N14 Ti10 1.897072 1_555
N14 Ti8 1.938134 1_455
N14 Ti4 1.980312 1_556
N15 Ti11 1.897072 1_555
N15 Ti9 1.938134 1_455
N15 Ti5 1.980312 1_555
N16 Ti12 1.915518 1_555
N16 Ti6 1.921688 1_555
N16 Ti8 1.937778 1_555
N17 Ti13 1.915518 1_555
N17 Ti7 1.921688 1_555
N17 Ti9 1.937778 1_555
N18 Ti6 1.899155 1_554
N18 Ti13 1.911141 1_555
N18 Ti10 1.946929 1_554
N19 Ti7 1.899155 1_555
N19 Ti12 1.911141 1_555
N19 Ti11 1.946929 1_555
