# generated using pymatgen
data_Rb4Sb2O5
_symmetry_space_group_name_H-M   'P 1'
_cell_length_a   10.03786090
_cell_length_b   10.03786090
_cell_length_c   6.72624000
_cell_angle_alpha   90.00000000
_cell_angle_beta   90.00000000
_cell_angle_gamma   157.02011413
_symmetry_Int_Tables_number   1
_chemical_formula_structural   Rb4Sb2O5
_chemical_formula_sum   'Rb4 Sb2 O5'
_cell_volume   264.58996146
_cell_formula_units_Z   1
loop_
 _symmetry_equiv_pos_site_id
 _symmetry_equiv_pos_as_xyz
  1  'x, y, z'
loop_
 _atom_site_type_symbol
 _atom_site_label
 _atom_site_symmetry_multiplicity
 _atom_site_fract_x
 _atom_site_fract_y
 _atom_site_fract_z
 _atom_site_occupancy
  Rb  Rb0  1  0.90713700  0.09286300  0.50000000  1
  Rb  Rb1  1  0.09169000  0.90831000  0.00000000  1
  Rb  Rb2  1  0.23760000  0.76240000  0.50000000  1
  Rb  Rb3  1  0.76254700  0.23745300  0.00000000  1
  Sb  Sb0  1  0.58917200  0.41082800  0.50000000  1
  Sb  Sb1  1  0.41343900  0.58656100  0.00000000  1
  O  O0  1  0.65114600  0.34885400  0.27646200  1
  O  O1  1  0.34939200  0.65060800  0.22150400  1
  O  O2  1  0.65114600  0.34885400  0.72353800  1
  O  O3  1  0.34939200  0.65060800  0.77849600  1
  O  O4  1  0.05353900  0.94646100  0.50000000  1
loop_
_geom_bond_atom_site_label_1
_geom_bond_atom_site_label_2
_geom_bond_distance
_geom_bond_site_symmetry_2
O0 Sb0 1.935786 1_555
O0 Rb3 2.874229 1_555
O0 Rb1 2.970544 1_545
O0 Rb1 2.970544 1_655
O0 Rb2 3.025161 1_545
O0 Rb2 3.025161 1_655
O1 Sb1 1.951262 1_555
O1 Rb2 2.888951 1_555
O1 Rb0 2.966073 1_455
O1 Rb0 2.966073 1_565
O1 Rb3 3.022726 1_565
O1 Rb3 3.022726 1_455
O2 Sb0 1.935786 1_555
O2 Rb3 2.874229 1_556
O2 Rb1 2.970544 1_546
O2 Rb1 2.970544 1_656
O2 Rb2 3.025161 1_545
O2 Rb2 3.025161 1_655
O3 Sb1 1.951262 1_556
O3 Rb2 2.888951 1_555
O3 Rb0 2.966073 1_455
O3 Rb0 2.966073 1_565
O3 Rb3 3.022726 1_566
O3 Rb3 3.022726 1_456
O4 Sb0 2.118829 1_565
O4 Sb0 2.118829 1_455
O4 Rb0 2.880225 1_465
