# generated using pymatgen
data_SmPt
_symmetry_space_group_name_H-M   'P 1'
_cell_length_a   4.54495118
_cell_length_b   7.24419316
_cell_length_c   5.64596888
_cell_angle_alpha   90.00000000
_cell_angle_beta   90.00000000
_cell_angle_gamma   90.00000000
_symmetry_Int_Tables_number   1
_chemical_formula_structural   SmPt
_chemical_formula_sum   'Sm4 Pt4'
_cell_volume   185.89072639
_cell_formula_units_Z   4
loop_
 _symmetry_equiv_pos_site_id
 _symmetry_equiv_pos_as_xyz
  1  'x, y, z'
loop_
 _atom_site_type_symbol
 _atom_site_label
 _atom_site_symmetry_multiplicity
 _atom_site_fract_x
 _atom_site_fract_y
 _atom_site_fract_z
 _atom_site_occupancy
  Sm  Sm0  1  0.75000000  0.81742362  0.36139407  1
  Sm  Sm1  1  0.25000000  0.18257638  0.63860593  1
  Sm  Sm2  1  0.25000000  0.68257638  0.86139407  1
  Sm  Sm3  1  0.75000000  0.31742362  0.13860593  1
  Pt  Pt0  1  0.75000000  0.95595972  0.84687815  1
  Pt  Pt1  1  0.25000000  0.04404028  0.15312185  1
  Pt  Pt2  1  0.25000000  0.54404028  0.34687815  1
  Pt  Pt3  1  0.75000000  0.45595972  0.65312185  1
loop_
_geom_bond_atom_site_label_1
_geom_bond_atom_site_label_2
_geom_bond_distance
_geom_bond_site_symmetry_2
Pt0 Sm0 2.918974 1_555
Pt0 Sm2 3.015462 1_555
Pt0 Sm2 3.015462 1_655
Pt0 Sm1 3.040052 1_565
Pt0 Sm1 3.040052 1_665
Pt0 Sm0 3.073412 1_556
Pt0 Sm3 3.093462 1_566
Pt1 Sm1 2.918974 1_555
Pt1 Sm3 3.015462 1_455
Pt1 Sm3 3.015462 1_555
Pt1 Sm0 3.040052 1_445
Pt1 Sm0 3.040052 1_545
Pt1 Sm1 3.073412 1_554
Pt1 Sm2 3.093462 1_544
Pt2 Sm2 2.918974 1_554
Pt2 Sm0 3.015462 1_555
Pt2 Sm0 3.015462 1_455
Pt2 Sm3 3.040052 1_555
Pt2 Sm3 3.040052 1_455
Pt2 Sm2 3.073412 1_555
Pt2 Sm1 3.093462 1_555
Pt3 Sm3 2.918974 1_556
Pt3 Sm1 3.015462 1_655
Pt3 Sm1 3.015462 1_555
Pt3 Sm2 3.040052 1_555
Pt3 Sm2 3.040052 1_655
Pt3 Sm3 3.073412 1_555
Pt3 Sm0 3.093462 1_555
