# generated using pymatgen
data_KFe6H12S4O29
_symmetry_space_group_name_H-M   'P 1'
_cell_length_a   7.41637100
_cell_length_b   7.16685400
_cell_length_c   10.36864976
_cell_angle_alpha   87.68316284
_cell_angle_beta   90.00000000
_cell_angle_gamma   90.00000000
_symmetry_Int_Tables_number   1
_chemical_formula_structural   KFe6H12S4O29
_chemical_formula_sum   'K1 Fe6 H12 S4 O29'
_cell_volume   550.66446746
_cell_formula_units_Z   1
loop_
 _symmetry_equiv_pos_site_id
 _symmetry_equiv_pos_as_xyz
  1  'x, y, z'
loop_
 _atom_site_type_symbol
 _atom_site_label
 _atom_site_symmetry_multiplicity
 _atom_site_fract_x
 _atom_site_fract_y
 _atom_site_fract_z
 _atom_site_occupancy
  K  K0  1  0.00000000  0.00000000  0.00000000  1
  Fe  Fe0  1  0.50000000  0.00000000  0.50000000  1
  Fe  Fe1  1  0.00000000  0.50000000  0.00000000  1
  Fe  Fe2  1  0.25174000  0.74856100  0.25278600  1
  Fe  Fe3  1  0.74826000  0.25143900  0.74721400  1
  Fe  Fe4  1  0.74826000  0.74856100  0.25278600  1
  Fe  Fe5  1  0.25174000  0.25143900  0.74721400  1
  H  H0  1  0.00000000  0.02172500  0.69881600  1
  H  H1  1  0.50000000  0.51761100  0.20428200  1
  H  H2  1  0.78124600  0.81027400  0.49186800  1
  H  H3  1  0.29006400  0.31224900  0.98800100  1
  H  H4  1  0.21875400  0.81027400  0.49186800  1
  H  H5  1  0.70993600  0.31224900  0.98800100  1
  H  H6  1  0.00000000  0.97827500  0.30118400  1
  H  H7  1  0.50000000  0.48238900  0.79571800  1
  H  H8  1  0.21875400  0.18972600  0.50813200  1
  H  H9  1  0.70993600  0.68775100  0.01199900  1
  H  H10  1  0.78124600  0.18972600  0.50813200  1
  H  H11  1  0.29006400  0.68775100  0.01199900  1
  S  S0  1  0.00000000  0.61419400  0.69375100  1
  S  S1  1  0.50000000  0.11555700  0.19221800  1
  S  S2  1  0.00000000  0.38580600  0.30624900  1
  S  S3  1  0.50000000  0.88444300  0.80778200  1
  O  O0  1  0.00000000  0.66797300  0.83219800  1
  O  O1  1  0.50000000  0.17147900  0.32840100  1
  O  O2  1  0.83558500  0.50105500  0.66819500  1
  O  O3  1  0.33524700  0.00032100  0.16646200  1
  O  O4  1  0.16441500  0.50105500  0.66819500  1
  O  O5  1  0.66475300  0.00032100  0.16646200  1
  O  O6  1  0.00000000  0.33202700  0.16780200  1
  O  O7  1  0.50000000  0.82852100  0.67159900  1
  O  O8  1  0.16441500  0.49894500  0.33180500  1
  O  O9  1  0.66475300  0.99967900  0.83353800  1
  O  O10  1  0.83558500  0.49894500  0.33180500  1
  O  O11  1  0.33524700  0.99967900  0.83353800  1
  O  O12  1  0.00000000  0.78413700  0.60889600  1
  O  O13  1  0.50000000  0.28305600  0.10475500  1
  O  O14  1  0.00000000  0.21586300  0.39110400  1
  O  O15  1  0.50000000  0.71694400  0.89524500  1
  O  O16  1  0.00000000  0.14536500  0.73682300  1
  O  O17  1  0.50000000  0.64561700  0.23517600  1
  O  O18  1  0.68687700  0.84097800  0.42781400  1
  O  O19  1  0.18935200  0.33439600  0.92721300  1
  O  O20  1  0.31312300  0.84097800  0.42781400  1
  O  O21  1  0.81064800  0.33439600  0.92721300  1
  O  O22  1  0.00000000  0.85463500  0.26317700  1
  O  O23  1  0.50000000  0.35438300  0.76482400  1
  O  O24  1  0.31312300  0.15902200  0.57218600  1
  O  O25  1  0.81064800  0.66560400  0.07278700  1
  O  O26  1  0.68687700  0.15902200  0.57218600  1
  O  O27  1  0.18935200  0.66560400  0.07278700  1
  O  O28  1  0.50000000  0.50000000  0.50000000  1
loop_
_geom_bond_atom_site_label_1
_geom_bond_atom_site_label_2
_geom_bond_distance
_geom_bond_site_symmetry_2
K0 O19 2.852884 1_554
K0 O27 2.852884 1_545
K0 O21 2.852884 1_454
K0 O25 2.852884 1_445
K0 O16 2.881287 1_554
K0 O22 2.881287 1_545
K0 O6 3.004058 1_555
K0 O0 3.004058 1_544
K0 O3 3.026735 1_555
K0 O11 3.026735 1_544
K0 O5 3.026735 1_455
K0 O9 3.026735 1_444
Fe0 O26 1.961866 1_555
Fe0 O24 1.961866 1_555
Fe0 O18 1.961866 1_545
Fe0 O20 1.961866 1_545
Fe0 O1 2.121154 1_555
Fe0 O7 2.121154 1_545
Fe1 O27 2.005668 1_555
Fe1 O25 2.005668 1_455
Fe1 O19 2.005668 1_554
Fe1 O21 2.005668 1_454
Fe1 O6 2.075347 1_555
Fe1 O0 2.075347 1_554
Fe2 O17 1.994626 1_555
Fe2 O20 2.009137 1_555
Fe2 O22 2.020356 1_555
Fe2 O27 2.034828 1_555
Fe2 O8 2.042693 1_555
Fe2 O3 2.075986 1_565
Fe3 O23 1.994626 1_555
Fe3 O26 2.009137 1_555
Fe3 O16 2.020356 1_655
Fe3 O21 2.034828 1_555
Fe3 O2 2.042693 1_555
Fe3 O9 2.075986 1_545
Fe4 O17 1.994626 1_555
Fe4 O18 2.009137 1_555
Fe4 O22 2.020356 1_655
Fe4 O25 2.034828 1_555
Fe4 O10 2.042693 1_555
Fe4 O5 2.075986 1_565
Fe5 O23 1.994626 1_555
Fe5 O24 2.009137 1_555
Fe5 O16 2.020356 1_555
Fe5 O19 2.034828 1_555
Fe5 O4 2.042693 1_555
Fe5 O11 2.075986 1_545
H0 O16 0.984238 1_555
H1 O17 0.983867 1_555
H2 O18 0.983632 1_555
H3 O19 0.986030 1_555
H4 O20 0.983632 1_555
H5 O21 0.986030 1_555
H6 O22 0.984238 1_555
H7 O23 0.983867 1_555
H8 O24 0.983632 1_555
H9 O25 0.986030 1_555
H10 O26 0.983632 1_555
H11 O27 0.986030 1_555
O0 S0 1.501323 1_555
O1 S1 1.483315 1_555
O2 S0 1.493958 1_655
O3 S1 1.504723 1_555
O4 S0 1.493958 1_555
O5 S1 1.504723 1_555
O6 S2 1.501323 1_555
O7 S3 1.483315 1_555
O8 S2 1.493958 1_555
O9 S3 1.504723 1_555
O10 S2 1.493958 1_655
O11 S3 1.504723 1_555
O12 S0 1.473392 1_555
O13 S1 1.474944 1_555
O14 S2 1.473392 1_555
O15 S3 1.474944 1_555
