# generated using pymatgen
data_Na7U5(SiO6)4
_symmetry_space_group_name_H-M   'P 1'
_cell_length_a   6.87474581
_cell_length_b   7.01120755
_cell_length_c   12.02572737
_cell_angle_alpha   95.59931951
_cell_angle_beta   98.35183384
_cell_angle_gamma   90.84196671
_symmetry_Int_Tables_number   1
_chemical_formula_structural   Na7U5(SiO6)4
_chemical_formula_sum   'Na7 U5 Si4 O24'
_cell_volume   570.51434165
_cell_formula_units_Z   1
loop_
 _symmetry_equiv_pos_site_id
 _symmetry_equiv_pos_as_xyz
  1  'x, y, z'
loop_
 _atom_site_type_symbol
 _atom_site_label
 _atom_site_symmetry_multiplicity
 _atom_site_fract_x
 _atom_site_fract_y
 _atom_site_fract_z
 _atom_site_occupancy
  Na  Na0  1  0.50000000  0.00000000  0.00000000  1
  Na  Na1  1  0.25019400  0.51032100  0.99058900  1
  Na  Na2  1  0.74980600  0.48967900  0.00941100  1
  Na  Na3  1  0.23548700  0.98676200  0.44663500  1
  Na  Na4  1  0.76451300  0.01323800  0.55336500  1
  Na  Na5  1  0.24079300  0.48991900  0.44211600  1
  Na  Na6  1  0.75920700  0.51008100  0.55788400  1
  U  U0  1  0.00000000  0.00000000  0.00000000  1
  U  U1  1  0.82868800  0.21378800  0.28020000  1
  U  U2  1  0.17131200  0.78621200  0.71980000  1
  U  U3  1  0.55785900  0.70922400  0.27259200  1
  U  U4  1  0.44214100  0.29077600  0.72740800  1
  Si  Si0  1  0.35072000  0.19542000  0.23598200  1
  Si  Si1  1  0.64928000  0.80458000  0.76401800  1
  Si  Si2  1  0.01120700  0.71726300  0.23033800  1
  Si  Si3  1  0.98879300  0.28273700  0.76966200  1
  O  O0  1  0.16611000  0.21585300  0.30686600  1
  O  O1  1  0.83389000  0.78414700  0.69313400  1
  O  O2  1  0.50870900  0.03394400  0.27910900  1
  O  O3  1  0.49129100  0.96605600  0.72089100  1
  O  O4  1  0.50114300  0.38380700  0.25920700  1
  O  O5  1  0.49885700  0.61619300  0.74079300  1
  O  O6  1  0.73662000  0.85559900  0.89932200  1
  O  O7  1  0.26338000  0.14440100  0.10067800  1
  O  O8  1  0.98492700  0.26346000  0.90560500  1
  O  O9  1  0.01507300  0.73654000  0.09439500  1
  O  O10  1  0.87351600  0.52940600  0.24646100  1
  O  O11  1  0.12648400  0.47059400  0.75353900  1
  O  O12  1  0.23212500  0.71217000  0.29888500  1
  O  O13  1  0.76787500  0.28783000  0.70111500  1
  O  O14  1  0.88332500  0.89295700  0.28384100  1
  O  O15  1  0.11667500  0.10704300  0.71615900  1
  O  O16  1  0.80722100  0.15203800  0.10528800  1
  O  O17  1  0.19277900  0.84796200  0.89471200  1
  O  O18  1  0.85805600  0.25710400  0.44158400  1
  O  O19  1  0.14194400  0.74289600  0.55841600  1
  O  O20  1  0.51093700  0.69266400  0.11107200  1
  O  O21  1  0.48906300  0.30733600  0.88892800  1
  O  O22  1  0.60930100  0.72600200  0.43348600  1
  O  O23  1  0.39069900  0.27399800  0.56651400  1
loop_
_geom_bond_atom_site_label_1
_geom_bond_atom_site_label_2
_geom_bond_distance
_geom_bond_site_symmetry_2
Na0 O7 2.349121 1_555
Na0 O6 2.349121 1_544
Na0 O17 2.468577 1_544
Na0 O16 2.468577 1_555
Na0 O21 2.640113 1_554
Na0 O20 2.640113 1_545
Na1 O20 2.400752 1_556
Na1 O8 2.527138 1_455
Na1 O21 2.555213 1_555
Na1 O9 2.638535 1_556
Na1 O17 2.741722 1_555
Na1 O11 2.839217 1_555
Na1 O7 2.996282 1_556
Na2 O21 2.400752 1_554
Na2 O9 2.527138 1_655
Na2 O20 2.555213 1_555
Na2 O8 2.638535 1_554
Na2 O16 2.741722 1_555
Na2 O10 2.839217 1_555
Na2 O6 2.996282 1_554
Na3 O19 2.410661 1_555
Na3 O0 2.439058 1_565
Na3 O12 2.486618 1_555
Na3 O23 2.489173 1_565
Na3 O14 2.907167 1_455
Na4 O18 2.410661 1_555
Na4 O1 2.439058 1_545
Na4 O13 2.486618 1_555
Na4 O22 2.489173 1_545
Na4 O15 2.907167 1_655
Na5 O19 2.321903 1_555
Na5 O23 2.373126 1_555
Na5 O0 2.391623 1_555
Na5 O12 2.428008 1_555
Na6 O18 2.321903 1_555
Na6 O22 2.373126 1_555
Na6 O1 2.391623 1_555
Na6 O13 2.428008 1_555
O0 Si0 1.629016 1_555
O0 U1 2.294781 1_455
O1 Si1 1.629016 1_555
O1 U2 2.294781 1_655
O2 Si0 1.648481 1_555
O2 U3 2.301970 1_545
O2 U1 2.517137 1_555
O3 Si1 1.648481 1_555
O3 U4 2.301970 1_565
O3 U2 2.517137 1_555
O4 Si0 1.641932 1_555
O4 U3 2.295090 1_555
O4 U1 2.554938 1_555
O5 Si1 1.641932 1_555
O5 U4 2.295090 1_555
O5 U2 2.554938 1_555
O6 Si1 1.652973 1_555
O6 U0 2.199879 1_666
O7 Si0 1.652973 1_555
O7 U0 2.199879 1_555
O8 Si3 1.657475 1_555
O8 U0 2.256553 1_656
O9 Si2 1.657475 1_555
O9 U0 2.256553 1_565
O10 Si2 1.653754 1_655
O10 U1 2.312542 1_555
O10 U3 2.568770 1_555
O11 Si3 1.653754 1_455
O11 U2 2.312542 1_555
O11 U4 2.568770 1_555
O12 Si2 1.622051 1_555
O12 U3 2.306690 1_555
O13 Si3 1.622051 1_555
O13 U4 2.306690 1_555
O14 Si2 1.657040 1_655
O14 U1 2.289571 1_565
O14 U3 2.545089 1_555
O15 Si3 1.657040 1_455
O15 U2 2.289571 1_545
O15 U4 2.545089 1_555
O16 U1 2.089002 1_555
O16 U0 2.182091 1_655
O17 U2 2.089002 1_555
O17 U0 2.182091 1_566
O18 U1 1.915436 1_555
O19 U2 1.915436 1_555
O20 U3 1.913976 1_555
O21 U4 1.913976 1_555
O22 U3 1.907406 1_555
O23 U4 1.907406 1_555
