# generated using pymatgen
data_Zn3As2
_symmetry_space_group_name_H-M   'P 1'
_cell_length_a   8.32681239
_cell_length_b   8.32681239
_cell_length_c   11.73578054
_cell_angle_alpha   90.00000000
_cell_angle_beta   90.00000000
_cell_angle_gamma   90.00000000
_symmetry_Int_Tables_number   1
_chemical_formula_structural   Zn3As2
_chemical_formula_sum   'Zn24 As16'
_cell_volume   813.70978609
_cell_formula_units_Z   8
loop_
 _symmetry_equiv_pos_site_id
 _symmetry_equiv_pos_as_xyz
  1  'x, y, z'
loop_
 _atom_site_type_symbol
 _atom_site_label
 _atom_site_symmetry_multiplicity
 _atom_site_fract_x
 _atom_site_fract_y
 _atom_site_fract_z
 _atom_site_occupancy
  Zn  Zn0  1  0.25000000  0.97198648  0.86005347  1
  Zn  Zn1  1  0.52801352  0.25000000  0.36005347  1
  Zn  Zn2  1  0.97198648  0.25000000  0.36005347  1
  Zn  Zn3  1  0.75000000  0.02801352  0.13994653  1
  Zn  Zn4  1  0.75000000  0.47198648  0.13994653  1
  Zn  Zn5  1  0.25000000  0.52801352  0.86005347  1
  Zn  Zn6  1  0.47198648  0.75000000  0.63994653  1
  Zn  Zn7  1  0.02801352  0.75000000  0.63994653  1
  Zn  Zn8  1  0.25000000  0.03042745  0.13616654  1
  Zn  Zn9  1  0.46957255  0.25000000  0.63616654  1
  Zn  Zn10  1  0.03042745  0.25000000  0.63616654  1
  Zn  Zn11  1  0.75000000  0.96957255  0.86383346  1
  Zn  Zn12  1  0.75000000  0.53042745  0.86383346  1
  Zn  Zn13  1  0.25000000  0.46957255  0.13616654  1
  Zn  Zn14  1  0.53042745  0.75000000  0.36383346  1
  Zn  Zn15  1  0.96957255  0.75000000  0.36383346  1
  Zn  Zn16  1  0.25000000  0.99675958  0.39619305  1
  Zn  Zn17  1  0.50324042  0.25000000  0.89619305  1
  Zn  Zn18  1  0.99675958  0.25000000  0.89619305  1
  Zn  Zn19  1  0.75000000  0.00324042  0.60380695  1
  Zn  Zn20  1  0.75000000  0.49675958  0.60380695  1
  Zn  Zn21  1  0.25000000  0.50324042  0.39619305  1
  Zn  Zn22  1  0.49675958  0.75000000  0.10380695  1
  Zn  Zn23  1  0.00324042  0.75000000  0.10380695  1
  As  As0  1  0.25000000  0.75000000  0.99674895  1
  As  As1  1  0.75000000  0.25000000  0.49674895  1
  As  As2  1  0.75000000  0.25000000  0.00325105  1
  As  As3  1  0.25000000  0.75000000  0.50325105  1
  As  As4  1  0.25000000  0.25000000  0.99632960  1
  As  As5  1  0.25000000  0.25000000  0.49632960  1
  As  As6  1  0.75000000  0.75000000  0.00367040  1
  As  As7  1  0.75000000  0.75000000  0.50367040  1
  As  As8  1  0.50231554  0.00231554  0.75000000  1
  As  As9  1  0.49768446  0.50231554  0.25000000  1
  As  As10  1  0.00231554  0.99768446  0.25000000  1
  As  As11  1  0.99768446  0.49768446  0.75000000  1
  As  As12  1  0.49768446  0.99768446  0.25000000  1
  As  As13  1  0.50231554  0.49768446  0.75000000  1
  As  As14  1  0.99768446  0.00231554  0.75000000  1
  As  As15  1  0.00231554  0.50231554  0.25000000  1
loop_
_geom_bond_atom_site_label_1
_geom_bond_atom_site_label_2
_geom_bond_distance
_geom_bond_site_symmetry_2
As0 Zn22 2.408411 1_556
As0 Zn23 2.408411 1_556
As0 Zn5 2.447504 1_555
As0 Zn0 2.447504 1_555
As0 Zn8 2.851246 1_566
As0 Zn13 2.851246 1_556
As1 Zn19 2.408411 1_555
As1 Zn20 2.408411 1_555
As1 Zn1 2.447504 1_555
As1 Zn2 2.447504 1_555
As1 Zn10 2.851246 1_655
As1 Zn9 2.851246 1_555
As2 Zn17 2.408411 1_554
As2 Zn18 2.408411 1_554
As2 Zn4 2.447504 1_555
As2 Zn3 2.447504 1_555
As2 Zn12 2.851246 1_554
As2 Zn11 2.851246 1_544
As3 Zn21 2.408411 1_555
As3 Zn16 2.408411 1_555
As3 Zn6 2.447504 1_555
As3 Zn7 2.447504 1_555
As3 Zn14 2.851246 1_555
As3 Zn15 2.851246 1_455
As4 Zn18 2.414043 1_455
As4 Zn17 2.414043 1_555
As4 Zn13 2.456831 1_556
As4 Zn8 2.456831 1_556
As4 Zn0 2.813690 1_545
As4 Zn5 2.813690 1_555
As5 Zn16 2.414043 1_545
As5 Zn21 2.414043 1_555
As5 Zn9 2.456831 1_555
As5 Zn10 2.456831 1_555
As5 Zn1 2.813690 1_555
As5 Zn2 2.813690 1_455
As6 Zn22 2.414043 1_555
As6 Zn23 2.414043 1_655
As6 Zn11 2.456831 1_554
As6 Zn12 2.456831 1_554
As6 Zn4 2.813690 1_555
As6 Zn3 2.813690 1_565
As7 Zn20 2.414043 1_555
As7 Zn19 2.414043 1_565
As7 Zn14 2.456831 1_555
As7 Zn15 2.456831 1_555
As7 Zn6 2.813690 1_555
As7 Zn7 2.813690 1_655
As8 Zn9 2.472370 1_555
As8 Zn11 2.472370 1_545
As8 Zn6 2.479123 1_545
As8 Zn0 2.479123 1_545
As8 Zn19 2.682766 1_555
As8 Zn17 2.682766 1_555
As9 Zn13 2.472370 1_555
As9 Zn14 2.472370 1_555
As9 Zn1 2.479123 1_555
As9 Zn4 2.479123 1_555
As9 Zn21 2.682766 1_555
As9 Zn22 2.682766 1_555
As10 Zn8 2.472370 1_565
As10 Zn15 2.472370 1_455
As10 Zn2 2.479123 1_465
As10 Zn3 2.479123 1_465
As10 Zn16 2.682766 1_555
As10 Zn23 2.682766 1_555
As11 Zn10 2.472370 1_655
As11 Zn12 2.472370 1_555
As11 Zn7 2.479123 1_655
As11 Zn5 2.479123 1_655
As11 Zn20 2.682766 1_555
As11 Zn18 2.682766 1_555
As12 Zn8 2.472370 1_565
As12 Zn14 2.472370 1_555
As12 Zn1 2.479123 1_565
As12 Zn3 2.479123 1_565
As12 Zn16 2.682766 1_555
As12 Zn22 2.682766 1_555
As13 Zn9 2.472370 1_555
As13 Zn12 2.472370 1_555
As13 Zn6 2.479123 1_555
As13 Zn5 2.479123 1_555
As13 Zn20 2.682766 1_555
As13 Zn17 2.682766 1_555
As14 Zn10 2.472370 1_655
As14 Zn11 2.472370 1_545
As14 Zn7 2.479123 1_645
As14 Zn0 2.479123 1_645
As14 Zn19 2.682766 1_555
As14 Zn18 2.682766 1_555
As15 Zn13 2.472370 1_555
As15 Zn15 2.472370 1_455
As15 Zn2 2.479123 1_455
As15 Zn4 2.479123 1_455
As15 Zn21 2.682766 1_555
As15 Zn23 2.682766 1_555
