# generated using pymatgen
data_LaTaZnFeO6
_symmetry_space_group_name_H-M   'P 1'
_cell_length_a   7.93268957
_cell_length_b   8.09851301
_cell_length_c   8.08665502
_cell_angle_alpha   95.22317307
_cell_angle_beta   89.55884252
_cell_angle_gamma   89.56572169
_symmetry_Int_Tables_number   1
_chemical_formula_structural   LaTaZnFeO6
_chemical_formula_sum   'La4 Ta4 Zn4 Fe4 O24'
_cell_volume   517.32048931
_cell_formula_units_Z   4
loop_
 _symmetry_equiv_pos_site_id
 _symmetry_equiv_pos_as_xyz
  1  'x, y, z'
loop_
 _atom_site_type_symbol
 _atom_site_label
 _atom_site_symmetry_multiplicity
 _atom_site_fract_x
 _atom_site_fract_y
 _atom_site_fract_z
 _atom_site_occupancy
  La  La0  1  0.25259400  0.52268700  0.45360000  1
  La  La1  1  0.25279100  0.02263400  0.95363300  1
  La  La2  1  0.75270200  0.45334100  0.02230800  1
  La  La3  1  0.75333600  0.95346900  0.52253400  1
  Ta  Ta0  1  0.49653500  0.26742300  0.73081700  1
  Ta  Ta1  1  0.49665100  0.76723200  0.23083800  1
  Ta  Ta2  1  0.99672100  0.73107500  0.76775300  1
  Ta  Ta3  1  0.99670200  0.23131100  0.26732900  1
  Zn  Zn0  1  0.24794900  0.43402900  0.04732100  1
  Zn  Zn1  1  0.24823500  0.93380100  0.54755600  1
  Zn  Zn2  1  0.74801900  0.54743600  0.43373400  1
  Zn  Zn3  1  0.74814500  0.04747500  0.93355100  1
  Fe  Fe0  1  0.00555600  0.25490300  0.73249800  1
  Fe  Fe1  1  0.50557800  0.23193200  0.25481600  1
  Fe  Fe2  1  0.00541800  0.75513500  0.23356800  1
  Fe  Fe3  1  0.50569100  0.73301000  0.75471600  1
  O  O0  1  0.76143700  0.33376900  0.29873300  1
  O  O1  1  0.76152200  0.83381100  0.79871600  1
  O  O2  1  0.26139300  0.29848500  0.83393100  1
  O  O3  1  0.26157300  0.79883200  0.33382000  1
  O  O4  1  0.93962400  0.19135000  0.01552200  1
  O  O5  1  0.93961800  0.69123900  0.51555100  1
  O  O6  1  0.43918200  0.51614400  0.19139200  1
  O  O7  1  0.43936300  0.01607700  0.69139000  1
  O  O8  1  0.55351500  0.19956300  0.99187700  1
  O  O9  1  0.55330700  0.69939800  0.49215200  1
  O  O10  1  0.05300000  0.49174400  0.19939800  1
  O  O11  1  0.05327000  0.99136600  0.69957300  1
  O  O12  1  0.73687300  0.69939000  0.20840300  1
  O  O13  1  0.73691200  0.19944000  0.70833700  1
  O  O14  1  0.23698200  0.20877000  0.19968200  1
  O  O15  1  0.23691100  0.70835000  0.69966100  1
  O  O16  1  0.55258600  0.49139100  0.80856600  1
  O  O17  1  0.55308600  0.99128400  0.30866300  1
  O  O18  1  0.05248500  0.80888600  0.99203500  1
  O  O19  1  0.05260700  0.30887500  0.49187400  1
  O  O20  1  0.95299800  0.50931000  0.80831900  1
  O  O21  1  0.95367900  0.00943700  0.30829600  1
  O  O22  1  0.45308700  0.80812100  0.00873000  1
  O  O23  1  0.45237100  0.30807700  0.50880700  1
loop_
_geom_bond_atom_site_label_1
_geom_bond_atom_site_label_2
_geom_bond_distance
_geom_bond_site_symmetry_2
La0 O15 2.384164 1_555
La0 O19 2.396357 1_555
La0 O23 2.417010 1_555
La0 O3 2.518009 1_555
La0 O6 2.572877 1_555
La0 O10 2.599559 1_555
La0 O9 2.796003 1_555
La0 O5 2.843102 1_455
La1 O14 2.386255 1_556
La1 O18 2.397858 1_545
La1 O22 2.418894 1_546
La1 O2 2.515423 1_555
La1 O7 2.573030 1_555
La1 O11 2.598377 1_545
La1 O8 2.796799 1_555
La1 O4 2.844962 1_456
La2 O12 2.387122 1_555
La2 O16 2.394652 1_554
La2 O20 2.415754 1_554
La2 O0 2.516903 1_555
La2 O4 2.575523 1_555
La2 O8 2.596982 1_554
La2 O10 2.793734 1_655
La2 O6 2.848781 1_555
La3 O13 2.385524 1_565
La3 O17 2.395772 1_555
La3 O21 2.417463 1_565
La3 O1 2.515280 1_555
La3 O5 2.574128 1_555
La3 O9 2.602952 1_555
La3 O11 2.790759 1_655
La3 O7 2.850857 1_565
Fe0 O19 2.064657 1_555
Fe0 O20 2.132538 1_455
Fe0 O11 2.156838 1_545
Fe0 O13 2.187767 1_455
Fe0 O2 2.213581 1_555
Fe0 O4 2.444749 1_456
Fe1 O17 2.067781 1_545
Fe1 O23 2.128186 1_555
Fe1 O8 2.149189 1_554
Fe1 O14 2.186152 1_555
Fe1 O0 2.215610 1_555
Fe1 O6 2.457434 1_555
Fe2 O18 2.071206 1_554
Fe2 O21 2.128805 1_465
Fe2 O10 2.155855 1_555
Fe2 O12 2.188118 1_455
Fe2 O3 2.212583 1_555
Fe2 O5 2.437332 1_455
Fe3 O16 2.074490 1_555
Fe3 O22 2.125800 1_556
Fe3 O9 2.146132 1_555
Fe3 O15 2.188387 1_555
Fe3 O1 2.212450 1_555
Fe3 O7 2.448242 1_565
O0 Zn2 1.961851 1_555
O0 Ta3 2.041291 1_555
O1 Zn3 1.961178 1_565
O1 Ta2 2.041406 1_555
O2 Zn0 1.960759 1_556
O2 Ta0 2.041740 1_555
O3 Zn1 1.960817 1_555
O3 Ta1 2.041212 1_555
O4 Zn3 2.001481 1_554
O4 Ta3 2.086289 1_555
O5 Zn2 2.001532 1_555
O5 Ta2 2.089344 1_555
O6 Zn0 2.000574 1_555
O6 Ta1 2.083903 1_555
O7 Zn1 1.999240 1_545
O7 Ta0 2.085372 1_555
O8 Zn3 1.994355 1_555
O8 Ta0 2.277114 1_555
O9 Zn2 1.994383 1_555
O9 Ta1 2.278476 1_555
O10 Zn0 1.994375 1_555
O10 Ta3 2.273995 1_455
O11 Zn1 1.993977 1_555
O11 Ta2 2.273958 1_455
O12 Ta1 1.981608 1_555
O12 Zn2 2.291641 1_555
O13 Ta0 1.983107 1_555
O13 Zn3 2.290924 1_555
O14 Ta3 1.981452 1_455
O14 Zn0 2.294241 1_555
O15 Ta2 1.981796 1_455
O15 Zn1 2.294408 1_555
O16 Ta0 1.921405 1_555
O17 Ta1 1.922914 1_555
O18 Ta2 1.921130 1_455
O19 Ta3 1.922861 1_455
O20 Ta2 1.889012 1_555
O21 Ta3 1.889665 1_555
O22 Ta1 1.889763 1_555
O23 Ta0 1.889407 1_555
