# generated using pymatgen
data_EuICl
_symmetry_space_group_name_H-M   'P 1'
_cell_length_a   4.68513089
_cell_length_b   8.21567869
_cell_length_c   9.48260020
_cell_angle_alpha   90.00000000
_cell_angle_beta   90.00000000
_cell_angle_gamma   90.00000000
_symmetry_Int_Tables_number   1
_chemical_formula_structural   EuICl
_chemical_formula_sum   'Eu4 I4 Cl4'
_cell_volume   364.99979020
_cell_formula_units_Z   4
loop_
 _symmetry_equiv_pos_site_id
 _symmetry_equiv_pos_as_xyz
  1  'x, y, z'
loop_
 _atom_site_type_symbol
 _atom_site_label
 _atom_site_symmetry_multiplicity
 _atom_site_fract_x
 _atom_site_fract_y
 _atom_site_fract_z
 _atom_site_occupancy
  Eu  Eu0  1  0.25000000  0.71359554  0.62312939  1
  Eu  Eu1  1  0.75000000  0.28640446  0.37687061  1
  Eu  Eu2  1  0.75000000  0.78640446  0.12312939  1
  Eu  Eu3  1  0.25000000  0.21359554  0.87687061  1
  I  I0  1  0.25000000  0.47430737  0.16839673  1
  I  I1  1  0.75000000  0.52569263  0.83160327  1
  I  I2  1  0.75000000  0.02569263  0.66839673  1
  I  I3  1  0.25000000  0.97430737  0.33160327  1
  Cl  Cl0  1  0.25000000  0.85686140  0.93737668  1
  Cl  Cl1  1  0.75000000  0.14313860  0.06262332  1
  Cl  Cl2  1  0.75000000  0.64313860  0.43737668  1
  Cl  Cl3  1  0.25000000  0.35686140  0.56262332  1
loop_
_geom_bond_atom_site_label_1
_geom_bond_atom_site_label_2
_geom_bond_distance
_geom_bond_site_symmetry_2
Eu0 I1 3.432027 1_455
Eu0 I1 3.432027 1_555
Eu0 I3 3.497126 1_555
Eu0 I2 3.499489 1_565
Eu0 I2 3.499489 1_465
Eu1 I0 3.432027 1_655
Eu1 I0 3.432027 1_555
Eu1 I2 3.497126 1_555
Eu1 I3 3.499489 1_545
Eu1 I3 3.499489 1_645
Eu2 I3 3.432027 1_655
Eu2 I3 3.432027 1_555
Eu2 I1 3.497126 1_554
Eu2 I0 3.499489 1_655
Eu2 I0 3.499489 1_555
Eu3 I2 3.432027 1_455
Eu3 I2 3.432027 1_555
Eu3 I0 3.497126 1_556
Eu3 I1 3.499489 1_455
Eu3 I1 3.499489 1_555
Cl0 Eu3 2.986446 1_565
Cl0 Eu2 2.987520 1_556
Cl0 Eu2 2.987520 1_456
Cl0 Eu0 3.203917 1_555
Cl1 Eu2 2.986446 1_545
Cl1 Eu3 2.987520 1_554
Cl1 Eu3 2.987520 1_654
Cl1 Eu1 3.203917 1_555
Cl2 Eu1 2.986446 1_555
Cl2 Eu0 2.987520 1_655
Cl2 Eu0 2.987520 1_555
Cl2 Eu2 3.203917 1_555
Cl3 Eu0 2.986446 1_555
Cl3 Eu1 2.987520 1_555
Cl3 Eu1 2.987520 1_455
Cl3 Eu3 3.203917 1_555
