# generated using pymatgen
data_Sr5Zr2N6
_symmetry_space_group_name_H-M   'P 1'
_cell_length_a   6.66299365
_cell_length_b   7.17298130
_cell_length_c   13.88035723
_cell_angle_alpha   89.99999848
_cell_angle_beta   102.11991635
_cell_angle_gamma   122.56595842
_symmetry_Int_Tables_number   1
_chemical_formula_structural   Sr5Zr2N6
_chemical_formula_sum   'Sr10 Zr4 N12'
_cell_volume   541.46004776
_cell_formula_units_Z   2
loop_
 _symmetry_equiv_pos_site_id
 _symmetry_equiv_pos_as_xyz
  1  'x, y, z'
loop_
 _atom_site_type_symbol
 _atom_site_label
 _atom_site_symmetry_multiplicity
 _atom_site_fract_x
 _atom_site_fract_y
 _atom_site_fract_z
 _atom_site_occupancy
  Sr  Sr0  1  0.04622100  0.76910600  0.01120400  1
  Sr  Sr1  1  0.95377900  0.72288400  0.48879600  1
  Sr  Sr2  1  0.95377900  0.23089400  0.98879600  1
  Sr  Sr3  1  0.04622100  0.27711600  0.51120400  1
  Sr  Sr4  1  0.31197100  0.00261300  0.72309000  1
  Sr  Sr5  1  0.68802900  0.69064200  0.77691000  1
  Sr  Sr6  1  0.68802900  0.99738700  0.27691000  1
  Sr  Sr7  1  0.31197100  0.30935800  0.22309000  1
  Sr  Sr8  1  0.00000000  0.34752300  0.75000000  1
  Sr  Sr9  1  0.00000000  0.65247700  0.25000000  1
  Zr  Zr0  1  0.54747200  0.85212600  0.56518500  1
  Zr  Zr1  1  0.45252800  0.30465400  0.93481500  1
  Zr  Zr2  1  0.45252800  0.14787400  0.43481500  1
  Zr  Zr3  1  0.54747200  0.69534600  0.06518500  1
  N  N0  1  0.90313600  0.93229000  0.61964600  1
  N  N1  1  0.09686400  0.02915300  0.88035400  1
  N  N2  1  0.09686400  0.06771000  0.38035400  1
  N  N3  1  0.90313600  0.97084700  0.11964600  1
  N  N4  1  0.28566600  0.64005400  0.64141200  1
  N  N5  1  0.71433400  0.35438800  0.85858800  1
  N  N6  1  0.71433400  0.35994600  0.35858800  1
  N  N7  1  0.28566600  0.64561200  0.14141200  1
  N  N8  1  0.58579200  0.15805200  0.58974200  1
  N  N9  1  0.41420800  0.57225900  0.91025800  1
  N  N10  1  0.41420800  0.84194800  0.41025800  1
  N  N11  1  0.58579200  0.42774100  0.08974200  1
loop_
_geom_bond_atom_site_label_1
_geom_bond_atom_site_label_2
_geom_bond_distance
_geom_bond_site_symmetry_2
N0 Zr0 2.073347 1_555
N0 Sr1 2.543973 1_555
N0 Sr4 2.571949 1_665
N0 Sr3 2.712277 1_665
N0 Sr5 2.909114 1_555
N0 Sr8 3.162552 1_665
N1 Zr1 2.073350 1_555
N1 Sr0 2.543964 1_546
N1 Sr5 2.571946 1_445
N1 Sr2 2.712277 1_455
N1 Sr4 2.909112 1_555
N1 Sr8 3.162558 1_555
N2 Zr2 2.073347 1_555
N2 Sr3 2.543973 1_555
N2 Sr6 2.571949 1_445
N2 Sr1 2.712277 1_445
N2 Sr7 2.909114 1_555
N2 Sr9 3.162552 1_545
N3 Zr3 2.073350 1_555
N3 Sr2 2.543964 1_564
N3 Sr7 2.571946 1_665
N3 Sr0 2.712277 1_655
N3 Sr6 2.909112 1_555
N3 Sr9 3.162558 1_655
N4 Zr0 2.096384 1_555
N4 Sr3 2.628134 1_555
N4 Sr8 2.683781 1_555
N4 Sr4 2.739557 1_565
N4 Sr5 2.773408 1_555
N4 Sr1 3.029507 1_455
N5 Zr1 2.096384 1_555
N5 Sr2 2.628139 1_555
N5 Sr8 2.683781 1_655
N5 Sr5 2.739557 1_555
N5 Sr4 2.773408 1_555
N5 Sr0 3.029512 1_656
N6 Zr2 2.096384 1_555
N6 Sr1 2.628134 1_555
N6 Sr9 2.683781 1_655
N6 Sr6 2.739557 1_545
N6 Sr7 2.773408 1_555
N6 Sr3 3.029507 1_655
N7 Zr3 2.096384 1_555
N7 Sr0 2.628139 1_555
N7 Sr9 2.683781 1_555
N7 Sr7 2.739557 1_555
N7 Sr6 2.773408 1_555
N7 Sr2 3.029512 1_454
N8 Zr0 2.087356 1_545
N8 Zr2 2.132267 1_555
N8 Sr4 2.688093 1_555
N8 Sr8 2.792164 1_655
N8 Sr3 3.148515 1_655
N9 Zr1 2.087349 1_555
N9 Zr3 2.132269 1_556
N9 Sr5 2.688092 1_555
N9 Sr8 2.792164 1_555
N9 Sr2 3.148515 1_455
N10 Zr2 2.087356 1_565
N10 Zr0 2.132267 1_555
N10 Sr6 2.688093 1_555
N10 Sr9 2.792164 1_555
N10 Sr1 3.148515 1_455
N11 Zr3 2.087349 1_555
N11 Zr1 2.132269 1_554
N11 Sr7 2.688092 1_555
N11 Sr9 2.792164 1_655
N11 Sr0 3.148515 1_655
