# generated using pymatgen
data_Sc2Ge4Mo3
_symmetry_space_group_name_H-M   'P 1'
_cell_length_a   6.73433700
_cell_length_b   6.93193000
_cell_length_c   12.90821200
_cell_angle_alpha   90.00000000
_cell_angle_beta   90.00000000
_cell_angle_gamma   90.00000000
_symmetry_Int_Tables_number   1
_chemical_formula_structural   Sc2Ge4Mo3
_chemical_formula_sum   'Sc8 Ge16 Mo12'
_cell_volume   602.58054177
_cell_formula_units_Z   4
loop_
 _symmetry_equiv_pos_site_id
 _symmetry_equiv_pos_as_xyz
  1  'x, y, z'
loop_
 _atom_site_type_symbol
 _atom_site_label
 _atom_site_symmetry_multiplicity
 _atom_site_fract_x
 _atom_site_fract_y
 _atom_site_fract_z
 _atom_site_occupancy
  Sc  Sc0  1  0.48974200  0.67357700  0.59226700  1
  Sc  Sc1  1  0.98974200  0.82642300  0.90773300  1
  Sc  Sc2  1  0.51025800  0.32642300  0.09226700  1
  Sc  Sc3  1  0.01025800  0.17357700  0.40773300  1
  Sc  Sc4  1  0.51025800  0.32642300  0.40773300  1
  Sc  Sc5  1  0.01025800  0.17357700  0.09226700  1
  Sc  Sc6  1  0.48974200  0.67357700  0.90773300  1
  Sc  Sc7  1  0.98974200  0.82642300  0.59226700  1
  Ge  Ge0  1  0.67814500  0.96045100  0.45536000  1
  Ge  Ge1  1  0.17814500  0.53954900  0.04464000  1
  Ge  Ge2  1  0.32185500  0.03954900  0.95536000  1
  Ge  Ge3  1  0.82185500  0.46045100  0.54464000  1
  Ge  Ge4  1  0.32185500  0.03954900  0.54464000  1
  Ge  Ge5  1  0.82185500  0.46045100  0.95536000  1
  Ge  Ge6  1  0.67814500  0.96045100  0.04464000  1
  Ge  Ge7  1  0.17814500  0.53954900  0.45536000  1
  Ge  Ge8  1  0.46446700  0.37775200  0.75000000  1
  Ge  Ge9  1  0.96446700  0.12224800  0.75000000  1
  Ge  Ge10  1  0.53553300  0.62224800  0.25000000  1
  Ge  Ge11  1  0.03553300  0.87775200  0.25000000  1
  Ge  Ge12  1  0.68948900  0.85214900  0.75000000  1
  Ge  Ge13  1  0.18948900  0.64785100  0.75000000  1
  Ge  Ge14  1  0.31051100  0.14785100  0.25000000  1
  Ge  Ge15  1  0.81051100  0.35214900  0.25000000  1
  Mo  Mo0  1  0.66358700  0.16144800  0.62546000  1
  Mo  Mo1  1  0.16358700  0.33855200  0.87454000  1
  Mo  Mo2  1  0.33641300  0.83855200  0.12546000  1
  Mo  Mo3  1  0.83641300  0.66144800  0.37454000  1
  Mo  Mo4  1  0.33641300  0.83855200  0.37454000  1
  Mo  Mo5  1  0.83641300  0.66144800  0.12546000  1
  Mo  Mo6  1  0.66358700  0.16144800  0.87454000  1
  Mo  Mo7  1  0.16358700  0.33855200  0.62546000  1
  Mo  Mo8  1  0.83137500  0.50003800  0.75000000  1
  Mo  Mo9  1  0.33137500  0.99996200  0.75000000  1
  Mo  Mo10  1  0.16862500  0.49996200  0.25000000  1
  Mo  Mo11  1  0.66862500  0.00003800  0.25000000  1
loop_
_geom_bond_atom_site_label_1
_geom_bond_atom_site_label_2
_geom_bond_distance
_geom_bond_site_symmetry_2
Ge0 Mo3 2.553488 1_555
Ge0 Mo0 2.602293 1_565
Ge0 Mo4 2.664306 1_555
Ge0 Mo11 2.665767 1_565
Ge0 Ge4 2.717678 1_565
Ge0 Sc3 2.750053 1_665
Ge0 Sc4 2.844653 1_565
Ge0 Sc7 2.896470 1_555
Ge0 Sc0 2.947431 1_555
Ge1 Mo2 2.553488 1_555
Ge1 Mo1 2.602293 1_554
Ge1 Mo5 2.664306 1_455
Ge1 Mo10 2.665767 1_555
Ge1 Ge5 2.717678 1_454
Ge1 Sc2 2.750053 1_555
Ge1 Sc5 2.844653 1_555
Ge1 Sc6 2.896470 1_554
Ge1 Sc1 2.947431 1_454
Ge2 Mo1 2.553488 1_555
Ge2 Mo2 2.602293 1_546
Ge2 Mo6 2.664306 1_555
Ge2 Mo9 2.665767 1_545
Ge2 Ge6 2.717678 1_546
Ge2 Sc1 2.750053 1_445
Ge2 Sc6 2.844653 1_545
Ge2 Sc5 2.896470 1_556
Ge2 Sc2 2.947431 1_556
Ge3 Mo0 2.553488 1_555
Ge3 Mo3 2.602293 1_555
Ge3 Mo7 2.664306 1_655
Ge3 Mo8 2.665767 1_555
Ge3 Ge7 2.717678 1_655
Ge3 Sc0 2.750053 1_555
Ge3 Sc7 2.844653 1_555
Ge3 Sc4 2.896470 1_555
Ge3 Sc3 2.947431 1_655
Ge4 Mo7 2.553488 1_555
Ge4 Mo4 2.602293 1_545
Ge4 Mo0 2.664306 1_555
Ge4 Mo9 2.665767 1_545
Ge4 Sc7 2.750053 1_445
Ge4 Sc0 2.844653 1_545
Ge4 Sc3 2.896470 1_555
Ge4 Sc4 2.947431 1_555
Ge5 Mo6 2.553488 1_555
Ge5 Mo5 2.602293 1_556
Ge5 Mo1 2.664306 1_655
Ge5 Mo8 2.665767 1_555
Ge5 Sc6 2.750053 1_555
Ge5 Sc1 2.844653 1_555
Ge5 Sc2 2.896470 1_556
Ge5 Sc5 2.947431 1_656
Ge6 Mo5 2.553488 1_555
Ge6 Mo6 2.602293 1_564
Ge6 Mo2 2.664306 1_555
Ge6 Mo11 2.665767 1_565
Ge6 Sc5 2.750053 1_665
Ge6 Sc2 2.844653 1_565
Ge6 Sc1 2.896470 1_554
Ge6 Sc6 2.947431 1_554
Ge7 Mo4 2.553488 1_555
Ge7 Mo7 2.602293 1_555
Ge7 Mo3 2.664306 1_455
Ge7 Mo10 2.665767 1_555
Ge7 Sc4 2.750053 1_555
Ge7 Sc3 2.844653 1_555
Ge7 Sc0 2.896470 1_555
Ge7 Sc7 2.947431 1_455
Ge8 Mo0 2.575010 1_555
Ge8 Mo6 2.575010 1_555
Ge8 Mo7 2.600726 1_555
Ge8 Mo1 2.600726 1_555
Ge8 Mo8 2.612244 1_555
Ge8 Mo9 2.767944 1_545
Ge8 Sc0 2.894753 1_555
Ge8 Sc6 2.894753 1_555
Ge9 Mo7 2.575010 1_655
Ge9 Mo1 2.575010 1_655
Ge9 Mo0 2.600726 1_555
Ge9 Mo6 2.600726 1_555
Ge9 Mo9 2.612244 1_645
Ge9 Mo8 2.767944 1_555
Ge9 Sc1 2.894753 1_545
Ge9 Sc7 2.894753 1_545
Ge10 Mo2 2.575010 1_555
Ge10 Mo4 2.575010 1_555
Ge10 Mo5 2.600726 1_555
Ge10 Mo3 2.600726 1_555
Ge10 Mo10 2.612244 1_555
Ge10 Ge15 2.633378 1_555
Ge10 Mo11 2.767944 1_565
Ge10 Sc4 2.894753 1_555
Ge10 Sc2 2.894753 1_555
Ge11 Mo5 2.575010 1_455
Ge11 Mo3 2.575010 1_455
Ge11 Mo2 2.600726 1_555
Ge11 Mo4 2.600726 1_555
Ge11 Mo11 2.612244 1_465
Ge11 Ge14 2.633378 1_565
Ge11 Mo10 2.767944 1_555
Ge11 Sc3 2.894753 1_565
Ge11 Sc5 2.894753 1_565
Ge12 Mo9 2.620300 1_555
Ge12 Mo8 2.621172 1_555
Ge12 Ge9 2.633378 1_565
Ge12 Mo0 2.685456 1_565
Ge12 Mo6 2.685456 1_565
Ge12 Sc0 2.736282 1_555
Ge12 Sc6 2.736282 1_555
Ge12 Sc1 2.875032 1_555
Ge12 Sc7 2.875032 1_555
Ge13 Mo8 2.620300 1_455
Ge13 Mo9 2.621172 1_555
Ge13 Ge8 2.633378 1_555
Ge13 Mo7 2.685456 1_555
Ge13 Mo1 2.685456 1_555
Ge13 Sc1 2.736282 1_455
Ge13 Sc7 2.736282 1_455
Ge13 Sc0 2.875032 1_555
Ge13 Sc6 2.875032 1_555
Ge14 Mo11 2.620300 1_555
Ge14 Mo10 2.621172 1_555
Ge14 Mo2 2.685456 1_545
Ge14 Mo4 2.685456 1_545
Ge14 Sc4 2.736282 1_555
Ge14 Sc2 2.736282 1_555
Ge14 Sc3 2.875032 1_555
Ge14 Sc5 2.875032 1_555
Ge15 Mo10 2.620300 1_655
Ge15 Mo11 2.621172 1_555
Ge15 Mo5 2.685456 1_555
Ge15 Mo3 2.685456 1_555
Ge15 Sc3 2.736282 1_655
Ge15 Sc5 2.736282 1_655
Ge15 Sc4 2.875032 1_555
Ge15 Sc2 2.875032 1_555
