# generated using pymatgen
data_Mg6TiCo
_symmetry_space_group_name_H-M   'P 1'
_cell_length_a   4.71660500
_cell_length_b   6.03673800
_cell_length_c   10.99967900
_cell_angle_alpha   90.00000000
_cell_angle_beta   90.00000000
_cell_angle_gamma   90.00000000
_symmetry_Int_Tables_number   1
_chemical_formula_structural   Mg6TiCo
_chemical_formula_sum   'Mg12 Ti2 Co2'
_cell_volume   313.19285518
_cell_formula_units_Z   2
loop_
 _symmetry_equiv_pos_site_id
 _symmetry_equiv_pos_as_xyz
  1  'x, y, z'
loop_
 _atom_site_type_symbol
 _atom_site_label
 _atom_site_symmetry_multiplicity
 _atom_site_fract_x
 _atom_site_fract_y
 _atom_site_fract_z
 _atom_site_occupancy
  Mg  Mg0  1  0.00000000  0.23996700  0.58408600  1
  Mg  Mg1  1  0.00000000  0.76003300  0.58408600  1
  Mg  Mg2  1  0.00000000  0.50000000  0.82897100  1
  Mg  Mg3  1  0.50000000  0.76043500  0.92164600  1
  Mg  Mg4  1  0.50000000  0.23956500  0.92164600  1
  Mg  Mg5  1  0.50000000  0.50000000  0.66699900  1
  Mg  Mg6  1  0.00000000  0.73996700  0.08408600  1
  Mg  Mg7  1  0.00000000  0.26003300  0.08408600  1
  Mg  Mg8  1  0.00000000  0.00000000  0.32897100  1
  Mg  Mg9  1  0.50000000  0.26043500  0.42164600  1
  Mg  Mg10  1  0.50000000  0.73956500  0.42164600  1
  Mg  Mg11  1  0.50000000  0.00000000  0.16699900  1
  Ti  Ti0  1  0.50000000  0.00000000  0.69253400  1
  Ti  Ti1  1  0.50000000  0.50000000  0.19253400  1
  Co  Co0  1  0.00000000  0.00000000  0.80003400  1
  Co  Co1  1  0.00000000  0.50000000  0.30003400  1
loop_
_geom_bond_atom_site_label_1
_geom_bond_atom_site_label_2
_geom_bond_distance
_geom_bond_site_symmetry_2
Mg0 Mg1 2.897236 1_545
Mg0 Mg9 2.961329 1_455
Mg0 Mg9 2.961329 1_555
Mg0 Mg5 2.976152 1_455
Mg0 Mg5 2.976152 1_555
Mg0 Ti0 3.013815 1_555
Mg0 Ti0 3.013815 1_455
Mg0 Mg2 3.117676 1_555
Mg0 Mg1 3.139502 1_555
Mg0 Mg8 3.158031 1_555
Mg1 Mg10 2.961329 1_455
Mg1 Mg10 2.961329 1_555
Mg1 Mg5 2.976152 1_455
Mg1 Mg5 2.976152 1_555
Mg1 Ti0 3.013815 1_565
Mg1 Ti0 3.013815 1_465
Mg1 Mg2 3.117676 1_555
Mg1 Mg8 3.158031 1_565
Mg2 Mg5 2.955644 1_555
Mg2 Mg5 2.955644 1_455
Mg2 Mg3 3.012059 1_555
Mg2 Mg4 3.012059 1_455
Mg2 Mg3 3.012059 1_455
Mg2 Mg4 3.012059 1_555
Mg2 Mg6 3.158031 1_556
Mg2 Mg7 3.158031 1_556
Mg3 Mg4 2.892382 1_565
Mg3 Ti0 2.905627 1_565
Mg3 Mg6 2.961329 1_556
Mg3 Mg6 2.961329 1_656
Mg3 Mg4 3.144356 1_555
Mg3 Mg5 3.212093 1_555
Mg3 Ti1 3.369012 1_556
Mg4 Ti0 2.905627 1_555
Mg4 Mg7 2.961329 1_556
Mg4 Mg7 2.961329 1_656
Mg4 Mg5 3.212093 1_555
Mg4 Ti1 3.369012 1_556
Mg5 Ti0 3.031409 1_565
Mg5 Ti0 3.031409 1_555
Mg5 Mg9 3.061864 1_555
Mg6 Mg7 2.897236 1_555
Mg6 Ti1 3.013815 1_455
Mg6 Ti1 3.013815 1_555
Mg6 Mg8 3.117676 1_565
Mg6 Mg7 3.139502 1_565
Mg7 Ti1 3.013815 1_455
Mg7 Ti1 3.013815 1_555
Mg7 Mg8 3.117676 1_555
Mg8 Mg9 3.012059 1_455
Mg8 Mg9 3.012059 1_555
Mg9 Ti1 2.905627 1_555
Mg9 Ti0 3.369012 1_555
Mg10 Mg9 2.892382 1_555
Mg10 Ti1 2.905627 1_555
Mg10 Mg8 3.012059 1_665
Mg10 Mg8 3.012059 1_565
Mg10 Mg5 3.061864 1_555
Mg10 Mg9 3.144356 1_565
Mg10 Mg11 3.212093 1_565
Mg10 Ti0 3.369012 1_565
Mg11 Mg8 2.955644 1_555
Mg11 Mg8 2.955644 1_655
Mg11 Mg7 2.976152 1_655
Mg11 Mg7 2.976152 1_555
Mg11 Mg6 2.976152 1_645
Mg11 Mg6 2.976152 1_545
Mg11 Ti1 3.031409 1_545
Mg11 Ti1 3.031409 1_555
Mg11 Mg4 3.061864 1_554
Mg11 Mg3 3.061864 1_544
Mg11 Mg9 3.212093 1_555
Co0 Ti0 2.638146 1_455
Co0 Ti0 2.638146 1_555
Co0 Mg0 2.782233 1_555
Co0 Mg1 2.782233 1_545
Co0 Mg2 3.035105 1_555
Co0 Mg2 3.035105 1_545
Co0 Mg4 3.072862 1_455
Co0 Mg4 3.072862 1_555
Co0 Mg3 3.072862 1_445
Co0 Mg3 3.072862 1_545
Co1 Ti1 2.638146 1_555
Co1 Ti1 2.638146 1_455
Co1 Mg6 2.782233 1_555
Co1 Mg7 2.782233 1_555
Co1 Mg8 3.035105 1_565
Co1 Mg8 3.035105 1_555
Co1 Mg10 3.072862 1_455
Co1 Mg10 3.072862 1_555
Co1 Mg9 3.072862 1_555
Co1 Mg9 3.072862 1_455
