# generated using pymatgen
data_NaMg14BO15
_symmetry_space_group_name_H-M   'P 1'
_cell_length_a   4.34282600
_cell_length_b   8.49356900
_cell_length_c   8.55351000
_cell_angle_alpha   90.00000000
_cell_angle_beta   90.00000000
_cell_angle_gamma   90.00000000
_symmetry_Int_Tables_number   1
_chemical_formula_structural   NaMg14BO15
_chemical_formula_sum   'Na1 Mg14 B1 O15'
_cell_volume   315.50555923
_cell_formula_units_Z   1
loop_
 _symmetry_equiv_pos_site_id
 _symmetry_equiv_pos_as_xyz
  1  'x, y, z'
loop_
 _atom_site_type_symbol
 _atom_site_label
 _atom_site_symmetry_multiplicity
 _atom_site_fract_x
 _atom_site_fract_y
 _atom_site_fract_z
 _atom_site_occupancy
  Na  Na0  1  0.00000000  0.00000000  0.99617000  1
  Mg  Mg0  1  0.00000000  0.50000000  0.00206600  1
  Mg  Mg1  1  0.00000000  0.00000000  0.51171100  1
  Mg  Mg2  1  0.50000000  0.75307900  0.00033100  1
  Mg  Mg3  1  0.50000000  0.24692100  0.00033100  1
  Mg  Mg4  1  0.50000000  0.73332600  0.49936300  1
  Mg  Mg5  1  0.50000000  0.26667400  0.49936300  1
  Mg  Mg6  1  0.50000000  0.00000000  0.75017900  1
  Mg  Mg7  1  0.50000000  0.50000000  0.74646700  1
  Mg  Mg8  1  0.50000000  0.00000000  0.24991900  1
  Mg  Mg9  1  0.50000000  0.50000000  0.24917000  1
  Mg  Mg10  1  0.00000000  0.73035300  0.75457300  1
  Mg  Mg11  1  0.00000000  0.26964700  0.75457300  1
  Mg  Mg12  1  0.00000000  0.75689500  0.24392800  1
  Mg  Mg13  1  0.00000000  0.24310500  0.24392800  1
  B  B0  1  0.00000000  0.50000000  0.44053200  1
  O  O0  1  0.00000000  0.50000000  0.77123800  1
  O  O1  1  0.00000000  0.00000000  0.27799200  1
  O  O2  1  0.00000000  0.50000000  0.26800000  1
  O  O3  1  0.50000000  0.74725000  0.74580900  1
  O  O4  1  0.50000000  0.25275000  0.74580900  1
  O  O5  1  0.50000000  0.75156100  0.25331900  1
  O  O6  1  0.50000000  0.24843900  0.25331900  1
  O  O7  1  0.50000000  0.00000000  0.99619400  1
  O  O8  1  0.50000000  0.50000000  0.01030100  1
  O  O9  1  0.50000000  0.00000000  0.50138400  1
  O  O10  1  0.50000000  0.50000000  0.48816500  1
  O  O11  1  0.00000000  0.73743400  0.00597100  1
  O  O12  1  0.00000000  0.26256600  0.00597100  1
  O  O13  1  0.00000000  0.66857300  0.49196400  1
  O  O14  1  0.00000000  0.33142700  0.49196400  1
loop_
_geom_bond_atom_site_label_1
_geom_bond_atom_site_label_2
_geom_bond_distance
_geom_bond_site_symmetry_2
Na0 O7 2.171413 1_555
Na0 O7 2.171413 1_455
Na0 O12 2.231698 1_556
Na0 O11 2.231698 1_546
Na0 O1 2.410567 1_556
Mg0 O0 1.974390 1_554
Mg0 O11 2.016939 1_555
Mg0 O12 2.016939 1_555
Mg0 O8 2.172555 1_555
Mg0 O8 2.172555 1_455
Mg0 O2 2.274669 1_555
Mg1 O1 1.999118 1_555
Mg1 O9 2.173209 1_555
Mg1 O9 2.173209 1_455
Mg2 O7 2.097539 1_564
Mg2 O8 2.151235 1_555
Mg2 O5 2.163974 1_555
Mg2 O11 2.176010 1_555
Mg2 O11 2.176010 1_655
Mg2 O3 2.177619 1_554
Mg3 O7 2.097539 1_554
Mg3 O8 2.151235 1_555
Mg3 O6 2.163974 1_555
Mg3 O12 2.176010 1_655
Mg3 O12 2.176010 1_555
Mg3 O4 2.177619 1_554
Mg4 O10 1.984084 1_555
Mg4 O5 2.110231 1_555
Mg4 O3 2.111293 1_555
Mg4 O13 2.240875 1_555
Mg4 O13 2.240875 1_655
Mg4 O9 2.265080 1_565
Mg5 O10 1.984084 1_555
Mg5 O6 2.110231 1_555
Mg5 O4 2.111293 1_555
Mg5 O14 2.240875 1_555
Mg5 O14 2.240875 1_655
Mg5 O9 2.265080 1_555
Mg6 O7 2.104292 1_555
Mg6 O9 2.128071 1_555
Mg6 O3 2.147075 1_545
Mg6 O4 2.147075 1_555
Mg7 O4 2.100042 1_555
Mg7 O3 2.100042 1_555
Mg7 O0 2.181726 1_555
Mg7 O0 2.181726 1_655
Mg7 O10 2.209389 1_555
Mg7 O8 2.256707 1_556
Mg8 O6 2.110334 1_555
Mg8 O5 2.110334 1_545
Mg8 O9 2.150908 1_555
Mg8 O7 2.170239 1_554
Mg8 O1 2.184649 1_655
Mg8 O1 2.184649 1_555
Mg9 O8 2.043168 1_555
Mg9 O10 2.044246 1_555
Mg9 O5 2.136945 1_555
Mg9 O6 2.136945 1_555
Mg9 O2 2.177378 1_555
Mg9 O2 2.177378 1_655
Mg10 O0 1.961705 1_555
Mg10 O11 2.151176 1_556
Mg10 O3 2.177441 1_455
Mg10 O3 2.177441 1_555
Mg10 O13 2.306705 1_555
Mg11 O0 1.961705 1_555
Mg11 O12 2.151176 1_556
Mg11 O4 2.177441 1_555
Mg11 O4 2.177441 1_455
Mg11 O14 2.306705 1_555
Mg12 O11 2.042068 1_555
Mg12 O1 2.085285 1_565
Mg12 O5 2.173370 1_455
Mg12 O5 2.173370 1_555
Mg12 O2 2.191649 1_555
Mg12 O13 2.250300 1_555
Mg13 O12 2.042068 1_555
Mg13 O1 2.085285 1_555
Mg13 O6 2.173370 1_455
Mg13 O6 2.173370 1_555
Mg13 O2 2.191649 1_555
Mg13 O14 2.250300 1_555
B0 O2 1.475754 1_555
B0 O13 1.497847 1_555
B0 O14 1.497847 1_555
B0 O10 2.209306 1_455
B0 O10 2.209306 1_555
