# generated using pymatgen
data_LaZn2Ni3
_symmetry_space_group_name_H-M   'P 1'
_cell_length_a   3.85733155
_cell_length_b   5.23155425
_cell_length_c   5.23155398
_cell_angle_alpha   60.00718574
_cell_angle_beta   90.00000000
_cell_angle_gamma   90.00000000
_symmetry_Int_Tables_number   1
_chemical_formula_structural   LaZn2Ni3
_chemical_formula_sum   'La1 Zn2 Ni3'
_cell_volume   91.43458278
_cell_formula_units_Z   1
loop_
 _symmetry_equiv_pos_site_id
 _symmetry_equiv_pos_as_xyz
  1  'x, y, z'
loop_
 _atom_site_type_symbol
 _atom_site_label
 _atom_site_symmetry_multiplicity
 _atom_site_fract_x
 _atom_site_fract_y
 _atom_site_fract_z
 _atom_site_occupancy
  La  La0  1  0.00000000  0.99997715  0.00002285  1
  Zn  Zn0  1  0.00000000  0.33329271  0.33333941  1
  Zn  Zn1  1  0.00000000  0.66666059  0.66670729  1
  Ni  Ni0  1  0.50000000  0.49999121  0.50000879  1
  Ni  Ni1  1  0.50000000  0.49999096  0.00001363  1
  Ni  Ni2  1  0.50000000  0.99998637  0.50000904  1
loop_
_geom_bond_atom_site_label_1
_geom_bond_atom_site_label_2
_geom_bond_distance
_geom_bond_site_symmetry_2
La0 Zn0 3.020173 1_565
La0 Zn1 3.020173 1_554
La0 Zn0 3.020734 1_564
La0 Zn1 3.020734 1_564
La0 Zn1 3.020738 1_555
La0 Zn0 3.020738 1_555
La0 Ni2 3.249891 1_555
La0 Ni2 3.249891 1_455
La0 Ni1 3.249891 1_555
La0 Ni1 3.249891 1_455
La0 Ni2 3.249968 1_554
La0 Ni2 3.249968 1_454
La0 Ni1 3.249968 1_565
La0 Ni1 3.249968 1_465
La0 Ni0 3.250099 1_555
La0 Ni0 3.250099 1_455
La0 Ni0 3.250217 1_564
La0 Ni0 3.250217 1_464
Ni0 Zn1 2.449658 1_555
Ni0 Zn1 2.449658 1_655
Ni0 Zn0 2.449658 1_655
Ni0 Zn0 2.449658 1_555
Ni1 Zn1 2.449587 1_554
Ni1 Zn1 2.449587 1_654
Ni1 Zn0 2.449641 1_555
Ni1 Zn0 2.449641 1_655
Ni2 Zn0 2.449587 1_565
Ni2 Zn0 2.449587 1_665
Ni2 Zn1 2.449641 1_655
Ni2 Zn1 2.449641 1_555
