# generated using pymatgen
data_TaCr3(CuS4)2
_symmetry_space_group_name_H-M   'P 1'
_cell_length_a   3.44876000
_cell_length_b   11.06346700
_cell_length_c   12.55341500
_cell_angle_alpha   90.00000000
_cell_angle_beta   90.00000000
_cell_angle_gamma   90.00000000
_symmetry_Int_Tables_number   1
_chemical_formula_structural   TaCr3(CuS4)2
_chemical_formula_sum   'Ta2 Cr6 Cu4 S16'
_cell_volume   478.97859291
_cell_formula_units_Z   2
loop_
 _symmetry_equiv_pos_site_id
 _symmetry_equiv_pos_as_xyz
  1  'x, y, z'
loop_
 _atom_site_type_symbol
 _atom_site_label
 _atom_site_symmetry_multiplicity
 _atom_site_fract_x
 _atom_site_fract_y
 _atom_site_fract_z
 _atom_site_occupancy
  Ta  Ta0  1  0.50000000  0.71328300  0.88395600  1
  Ta  Ta1  1  0.00000000  0.28671700  0.38395600  1
  Cr  Cr0  1  0.00000000  0.79372900  0.12880100  1
  Cr  Cr1  1  0.50000000  0.20627100  0.62880100  1
  Cr  Cr2  1  0.50000000  0.65606800  0.41431200  1
  Cr  Cr3  1  0.00000000  0.84983100  0.58828500  1
  Cr  Cr4  1  0.00000000  0.34393200  0.91431200  1
  Cr  Cr5  1  0.50000000  0.15016900  0.08828500  1
  Cu  Cu0  1  0.50000000  0.49319600  0.62727700  1
  Cu  Cu1  1  0.00000000  0.95668100  0.30090200  1
  Cu  Cu2  1  0.00000000  0.50680400  0.12727700  1
  Cu  Cu3  1  0.50000000  0.04331900  0.80090200  1
  S  S0  1  0.00000000  0.67607600  0.28888400  1
  S  S1  1  0.50000000  0.81451800  0.71728100  1
  S  S2  1  0.50000000  0.32392400  0.78888400  1
  S  S3  1  0.00000000  0.18548200  0.21728100  1
  S  S4  1  0.50000000  0.65168400  0.07468000  1
  S  S5  1  0.00000000  0.85603300  0.94697000  1
  S  S6  1  0.00000000  0.34831600  0.57468000  1
  S  S7  1  0.50000000  0.14396700  0.44697000  1
  S  S8  1  0.00000000  0.63631600  0.55367300  1
  S  S9  1  0.50000000  0.86547200  0.45530200  1
  S  S10  1  0.50000000  0.36368400  0.05367300  1
  S  S11  1  0.00000000  0.13452800  0.95530200  1
  S  S12  1  0.00000000  0.56126200  0.84917900  1
  S  S13  1  0.50000000  0.94050700  0.17049800  1
  S  S14  1  0.50000000  0.43873800  0.34917900  1
  S  S15  1  0.00000000  0.05949300  0.67049800  1
loop_
_geom_bond_atom_site_label_1
_geom_bond_atom_site_label_2
_geom_bond_distance
_geom_bond_site_symmetry_2
Cr0 S5 2.384407 1_554
Cr0 S0 2.394314 1_555
Cr0 S13 2.425787 1_455
Cr0 S13 2.425787 1_555
Cr0 S4 2.429963 1_455
Cr0 S4 2.429963 1_555
Cr1 S7 2.384407 1_555
Cr1 S2 2.394314 1_555
Cr1 S15 2.425787 1_655
Cr1 S15 2.425787 1_555
Cr1 S6 2.429963 1_655
Cr1 S6 2.429963 1_555
Cr2 S0 2.345569 1_555
Cr2 S0 2.345569 1_655
Cr2 S9 2.373191 1_555
Cr2 S8 2.466138 1_555
Cr2 S8 2.466138 1_655
Cr2 S14 2.539643 1_555
Cr3 S1 2.397579 1_555
Cr3 S1 2.397579 1_455
Cr3 S8 2.401844 1_555
Cr3 S9 2.406303 1_455
Cr3 S9 2.406303 1_555
Cr3 S15 2.538824 1_565
Cr4 S2 2.345569 1_455
Cr4 S2 2.345569 1_555
Cr4 S11 2.373191 1_555
Cr4 S10 2.466138 1_556
Cr4 S10 2.466138 1_456
Cr4 S12 2.539643 1_555
Cr5 S3 2.397579 1_655
Cr5 S3 2.397579 1_555
Cr5 S10 2.401844 1_555
Cr5 S11 2.406303 1_554
Cr5 S11 2.406303 1_654
Cr5 S13 2.538824 1_545
Cu0 S6 2.445129 1_655
Cu0 S6 2.445129 1_555
Cu0 S8 2.516822 1_655
Cu0 S8 2.516822 1_555
Cu0 S2 2.760949 1_555
Cu1 S13 2.384392 1_555
Cu1 S13 2.384392 1_455
Cu1 S3 2.740360 1_565
Cu1 S9 2.783621 1_455
Cu1 S9 2.783621 1_555
Cu2 S4 2.445129 1_455
Cu2 S4 2.445129 1_555
Cu2 S10 2.516822 1_555
Cu2 S10 2.516822 1_455
Cu2 S0 2.760949 1_555
Cu3 S15 2.384392 1_655
Cu3 S15 2.384392 1_555
Cu3 S1 2.740360 1_545
Cu3 S11 2.783621 1_555
Cu3 S11 2.783621 1_655
S1 Ta0 2.373249 1_555
S3 Ta1 2.373249 1_555
S4 Ta0 2.489340 1_554
S5 Ta0 2.468492 1_455
S5 Ta0 2.468492 1_555
S6 Ta1 2.489340 1_555
S7 Ta1 2.468492 1_655
S7 Ta1 2.468492 1_555
S12 Ta0 2.448019 1_555
S12 Ta0 2.448019 1_455
S14 Ta1 2.448019 1_655
S14 Ta1 2.448019 1_555
