# generated using pymatgen
data_Sr2GaNi2O7
_symmetry_space_group_name_H-M   'P 1'
_cell_length_a   13.03958166
_cell_length_b   13.03958166
_cell_length_c   5.03929654
_cell_angle_alpha   78.92969980
_cell_angle_beta   78.92969980
_cell_angle_gamma   147.02763529
_symmetry_Int_Tables_number   1
_chemical_formula_structural   Sr2GaNi2O7
_chemical_formula_sum   'Sr4 Ga2 Ni4 O14'
_cell_volume   343.36699379
_cell_formula_units_Z   2
loop_
 _symmetry_equiv_pos_site_id
 _symmetry_equiv_pos_as_xyz
  1  'x, y, z'
loop_
 _atom_site_type_symbol
 _atom_site_label
 _atom_site_symmetry_multiplicity
 _atom_site_fract_x
 _atom_site_fract_y
 _atom_site_fract_z
 _atom_site_occupancy
  Sr  Sr0  1  0.83217700  0.63984100  0.02227200  1
  Sr  Sr1  1  0.16806300  0.35997200  0.99226300  1
  Sr  Sr2  1  0.35997200  0.16806300  0.99226300  1
  Sr  Sr3  1  0.63984100  0.83217700  0.02227200  1
  Ga  Ga0  1  0.18208400  0.18208400  0.52372700  1
  Ga  Ga1  1  0.81837800  0.81837800  0.38607000  1
  Ni  Ni0  1  0.06477500  0.42988000  0.50998700  1
  Ni  Ni1  1  0.42988000  0.06477500  0.50998700  1
  Ni  Ni2  1  0.56427800  0.93868000  0.50711400  1
  Ni  Ni3  1  0.93868000  0.56427800  0.50711400  1
  O  O0  1  0.67091400  0.31071400  0.03248600  1
  O  O1  1  0.14840800  0.14840800  0.17859400  1
  O  O2  1  0.67666000  0.31924400  0.51120500  1
  O  O3  1  0.64445800  0.78455900  0.55284100  1
  O  O4  1  0.83452400  0.18506700  0.98486800  1
  O  O5  1  0.83127500  0.17596000  0.50275800  1
  O  O6  1  0.85129100  0.85129100  0.97544400  1
  O  O7  1  0.31071400  0.67091400  0.03248600  1
  O  O8  1  0.31924400  0.67666000  0.51120500  1
  O  O9  1  0.21826300  0.35657600  0.48089000  1
  O  O10  1  0.35657600  0.21826300  0.48089000  1
  O  O11  1  0.78455900  0.64445800  0.55284100  1
  O  O12  1  0.17596000  0.83127500  0.50275800  1
  O  O13  1  0.18506700  0.83452400  0.98486800  1
loop_
_geom_bond_atom_site_label_1
_geom_bond_atom_site_label_2
_geom_bond_distance
_geom_bond_site_symmetry_2
Ga0 O10 1.848626 1_555
Ga0 O9 1.848626 1_555
Ga0 O6 1.906258 1_445
Ga0 O1 1.916668 1_555
Ga1 O3 1.868586 1_555
Ga1 O11 1.868586 1_555
Ga1 O1 1.898205 1_665
Ga1 O6 1.912880 1_554
Ni0 O4 1.776905 1_455
Ni0 O7 1.781387 1_555
Ni0 O5 1.846247 1_455
Ni0 O8 1.861478 1_555
Ni1 O13 1.776905 1_545
Ni1 O0 1.781387 1_555
Ni1 O12 1.846247 1_545
Ni1 O2 1.861478 1_555
Ni2 O8 1.874499 1_555
Ni2 O5 1.888178 1_565
Ni2 O7 1.962365 1_556
Ni2 O4 1.965055 1_564
Ni3 O2 1.874499 1_555
Ni3 O12 1.888178 1_655
Ni3 O0 1.962365 1_556
Ni3 O13 1.965055 1_654
O0 Sr0 2.752189 1_555
O0 Sr2 2.783267 1_554
O1 Sr1 2.506856 1_554
O1 Sr2 2.506856 1_554
O2 Sr2 2.734423 1_555
O2 Sr0 2.749701 1_555
O3 Sr1 2.539318 1_555
O3 Sr3 2.560731 1_556
O3 Sr3 2.650435 1_555
O3 Sr1 3.064690 1_664
O4 Sr3 2.745439 1_546
O4 Sr1 2.751427 1_655
O5 Sr1 2.696660 1_654
O5 Sr3 2.718171 1_546
O6 Sr3 2.508899 1_556
O6 Sr0 2.508899 1_556
O7 Sr3 2.752189 1_555
O7 Sr1 2.783267 1_554
O8 Sr1 2.734423 1_555
O8 Sr3 2.749701 1_555
O9 Sr3 2.537023 1_555
O9 Sr1 2.552613 1_555
O9 Sr1 2.668199 1_554
O9 Sr3 3.080076 1_446
O10 Sr0 2.537023 1_555
O10 Sr2 2.552613 1_555
O10 Sr2 2.668199 1_554
O10 Sr0 3.080076 1_446
O11 Sr2 2.539318 1_555
O11 Sr0 2.560731 1_556
O11 Sr0 2.650435 1_555
O11 Sr2 3.064690 1_664
O12 Sr2 2.696660 1_564
O12 Sr0 2.718171 1_456
O13 Sr0 2.745439 1_456
O13 Sr2 2.751427 1_565
