# generated using pymatgen
data_Li7Mn2(CoO4)3
_symmetry_space_group_name_H-M   'P 1'
_cell_length_a   2.98301100
_cell_length_b   5.99541012
_cell_length_c   12.49127110
_cell_angle_alpha   76.82867396
_cell_angle_beta   88.79267979
_cell_angle_gamma   86.99806234
_symmetry_Int_Tables_number   1
_chemical_formula_structural   Li7Mn2(CoO4)3
_chemical_formula_sum   'Li7 Mn2 Co3 O12'
_cell_volume   217.21355408
_cell_formula_units_Z   1
loop_
 _symmetry_equiv_pos_site_id
 _symmetry_equiv_pos_as_xyz
  1  'x, y, z'
loop_
 _atom_site_type_symbol
 _atom_site_label
 _atom_site_symmetry_multiplicity
 _atom_site_fract_x
 _atom_site_fract_y
 _atom_site_fract_z
 _atom_site_occupancy
  Li  Li0  1  0.99461400  0.50876100  0.99358800  1
  Li  Li1  1  0.49733200  0.32457900  0.82790600  1
  Li  Li2  1  0.50415400  0.67128100  0.16746000  1
  Li  Li3  1  0.00094000  0.83236100  0.33397900  1
  Li  Li4  1  0.50090100  0.99607200  0.50398400  1
  Li  Li5  1  0.00043900  0.15679000  0.67282100  1
  Li  Li6  1  0.51053500  0.84662400  0.82929100  1
  Mn  Mn0  1  0.00563200  0.99836200  0.99364900  1
  Mn  Mn1  1  0.98899600  0.33562100  0.33417600  1
  Co  Co0  1  0.00742400  0.67168800  0.67462800  1
  Co  Co1  1  0.50187400  0.50080500  0.50271000  1
  Co  Co2  1  0.49048300  0.16115100  0.16897000  1
  O  O0  1  0.48712400  0.22215600  0.00409300  1
  O  O1  1  0.00625900  0.08011400  0.84471700  1
  O  O2  1  0.97272000  0.39879400  0.17028400  1
  O  O3  1  0.53066800  0.57581500  0.34160400  1
  O  O4  1  0.03137200  0.72819100  0.51373000  1
  O  O5  1  0.53727300  0.89556100  0.66596100  1
  O  O6  1  0.52318000  0.78226200  0.00047600  1
  O  O7  1  0.00187500  0.58729100  0.81683400  1
  O  O8  1  0.00737100  0.93395000  0.15911800  1
  O  O9  1  0.45456300  0.08970000  0.32755900  1
  O  O10  1  0.97152300  0.26688400  0.49433500  1
  O  O11  1  0.47274700  0.43519000  0.65812800  1
loop_
_geom_bond_atom_site_label_1
_geom_bond_atom_site_label_2
_geom_bond_distance
_geom_bond_site_symmetry_2
Li0 O6 2.119320 1_556
Li0 O7 2.149931 1_655
Li0 O2 2.155402 1_556
Li0 O0 2.183854 1_656
Li0 O0 2.328709 1_556
Li0 O6 2.350114 1_656
Li1 O1 2.033994 1_655
Li1 O11 2.074425 1_555
Li1 O7 2.085624 1_555
Li1 O1 2.099951 1_555
Li1 O0 2.145873 1_556
Li1 O7 2.214815 1_655
Li2 O6 2.040383 1_555
Li2 O2 2.088168 1_555
Li2 O8 2.091465 1_555
Li2 O3 2.121509 1_555
Li2 O8 2.215944 1_655
Li2 O2 2.329346 1_455
Li3 O9 2.091790 1_565
Li3 O3 2.120458 1_455
Li3 O8 2.129648 1_555
Li3 O3 2.134670 1_555
Li3 O9 2.174621 1_465
Li3 O4 2.191651 1_555
Li4 O5 1.978737 1_555
Li4 O9 2.152154 1_565
Li4 O4 2.166856 1_555
Li4 O4 2.179692 1_655
Li4 O10 2.182654 1_565
Li4 O10 2.189675 1_465
Li5 O1 2.091170 1_555
Li5 O5 2.159153 1_445
Li5 O10 2.178383 1_455
Li5 O5 2.194848 1_545
Li5 O11 2.212432 1_455
Li5 O11 2.213697 1_555
Li6 O5 1.994406 1_555
Li6 O1 2.037086 1_565
Li6 O6 2.085323 1_556
Li6 O7 2.109928 1_655
Li6 O1 2.129604 1_665
Li6 O7 2.260809 1_555
Mn0 O1 1.812607 1_565
Mn0 O6 1.953214 1_556
Mn0 O6 1.974038 1_456
Mn0 O8 2.014396 1_556
Mn0 O0 2.015815 1_466
Mn0 O0 2.041993 1_566
Mn1 O10 1.948598 1_555
Mn1 O3 1.949601 1_555
Mn1 O9 1.986367 1_655
Mn1 O2 1.996451 1_555
Mn1 O3 2.236999 1_655
Mn1 O9 2.242654 1_555
Co0 O7 1.732538 1_555
Co0 O5 1.877012 1_455
Co0 O4 1.960980 1_555
Co0 O11 1.973482 1_555
Co0 O5 2.111904 1_555
Co0 O11 2.231745 1_455
Co1 O11 1.891994 1_555
Co1 O4 1.929840 1_555
Co1 O10 1.948185 1_555
Co1 O3 1.960554 1_555
Co1 O4 2.166216 1_655
Co1 O10 2.187899 1_455
Co2 O9 1.930905 1_555
Co2 O0 2.008161 1_555
Co2 O8 2.023969 1_645
Co2 O2 2.048120 1_455
Co2 O8 2.058388 1_545
Co2 O2 2.079877 1_555
