# generated using pymatgen
data_Mg6NiSb
_symmetry_space_group_name_H-M   'P 1'
_cell_length_a   6.15216437
_cell_length_b   6.15216437
_cell_length_c   5.03296700
_cell_angle_alpha   90.00000000
_cell_angle_beta   90.00000000
_cell_angle_gamma   119.87511242
_symmetry_Int_Tables_number   1
_chemical_formula_structural   Mg6NiSb
_chemical_formula_sum   'Mg6 Ni1 Sb1'
_cell_volume   165.17934443
_cell_formula_units_Z   1
loop_
 _symmetry_equiv_pos_site_id
 _symmetry_equiv_pos_as_xyz
  1  'x, y, z'
loop_
 _atom_site_type_symbol
 _atom_site_label
 _atom_site_symmetry_multiplicity
 _atom_site_fract_x
 _atom_site_fract_y
 _atom_site_fract_z
 _atom_site_occupancy
  Mg  Mg0  1  0.82750400  0.66260100  0.50000000  1
  Mg  Mg1  1  0.33739900  0.17249600  0.50000000  1
  Mg  Mg2  1  0.83277000  0.16723000  0.50000000  1
  Mg  Mg3  1  0.65710100  0.82969500  0.00000000  1
  Mg  Mg4  1  0.17030500  0.34289900  0.00000000  1
  Mg  Mg5  1  0.66806700  0.33193300  0.00000000  1
  Ni  Ni0  1  0.33551500  0.66448500  0.50000000  1
  Sb  Sb0  1  0.17134000  0.82866000  0.00000000  1
loop_
_geom_bond_atom_site_label_1
_geom_bond_atom_site_label_2
_geom_bond_distance
_geom_bond_site_symmetry_2
Mg0 Mg1 3.020896 1_555
Mg0 Ni0 3.032587 1_555
Mg0 Mg2 3.063870 1_555
Mg0 Mg5 3.073337 1_556
Mg0 Mg5 3.073337 1_555
Mg0 Mg2 3.088551 1_565
Mg0 Mg3 3.092265 1_555
Mg0 Mg3 3.092265 1_556
Mg0 Sb0 3.114183 1_655
Mg0 Sb0 3.114183 1_656
Mg0 Ni0 3.119610 1_655
Mg0 Mg1 3.142878 1_665
Mg1 Ni0 3.032587 1_555
Mg1 Mg2 3.063870 1_555
Mg1 Mg5 3.073337 1_556
Mg1 Mg5 3.073337 1_555
Mg1 Mg2 3.088551 1_455
Mg1 Mg4 3.092265 1_555
Mg1 Mg4 3.092265 1_556
Mg1 Sb0 3.114183 1_545
Mg1 Sb0 3.114183 1_546
Mg1 Ni0 3.119610 1_545
Mg2 Mg5 3.067412 1_556
Mg2 Mg5 3.067412 1_555
Mg2 Ni0 3.082026 1_545
Mg2 Ni0 3.082026 1_655
Mg2 Mg4 3.094686 1_655
Mg2 Mg3 3.094686 1_545
Mg2 Mg3 3.094686 1_546
Mg2 Mg4 3.094686 1_656
Mg3 Sb0 2.985315 1_555
Mg3 Mg4 3.000501 1_555
Mg3 Ni0 3.045771 1_554
Mg3 Ni0 3.045771 1_555
Mg3 Mg5 3.056806 1_565
Mg3 Mg5 3.096471 1_555
Mg3 Mg4 3.163273 1_665
Mg3 Sb0 3.166859 1_655
Mg4 Sb0 2.985315 1_555
Mg4 Ni0 3.045771 1_554
Mg4 Ni0 3.045771 1_555
Mg4 Mg5 3.056806 1_455
Mg4 Mg5 3.096471 1_555
Mg4 Sb0 3.166859 1_545
Mg5 Sb0 3.082084 1_655
Mg5 Sb0 3.082084 1_545
Ni0 Sb0 3.064201 1_555
Ni0 Sb0 3.064201 1_556
