# generated using pymatgen
data_Mg5Mn3Zn4(SiO6)4
_symmetry_space_group_name_H-M   'P 1'
_cell_length_a   5.16252288
_cell_length_b   5.16252288
_cell_length_c   18.23781480
_cell_angle_alpha   89.77027087
_cell_angle_beta   90.22972913
_cell_angle_gamma   108.25807368
_symmetry_Int_Tables_number   1
_chemical_formula_structural   Mg5Mn3Zn4(SiO6)4
_chemical_formula_sum   'Mg5 Mn3 Zn4 Si4 O24'
_cell_volume   461.59098364
_cell_formula_units_Z   1
loop_
 _symmetry_equiv_pos_site_id
 _symmetry_equiv_pos_as_xyz
  1  'x, y, z'
loop_
 _atom_site_type_symbol
 _atom_site_label
 _atom_site_symmetry_multiplicity
 _atom_site_fract_x
 _atom_site_fract_y
 _atom_site_fract_z
 _atom_site_occupancy
  Mg  Mg0  1  0.99501500  0.49229000  0.99839700  1
  Mg  Mg1  1  0.50771000  0.00498500  0.99839700  1
  Mg  Mg2  1  0.00026700  0.49954200  0.49999500  1
  Mg  Mg3  1  0.50045800  0.99973300  0.49999500  1
  Mg  Mg4  1  0.00268100  0.99731900  0.10287100  1
  Mn  Mn0  1  0.98378300  0.01621700  0.91112300  1
  Mn  Mn1  1  0.48318500  0.51681500  0.58347000  1
  Mn  Mn2  1  0.51727400  0.48272600  0.41671300  1
  Zn  Zn0  1  0.15471900  0.35274500  0.25224800  1
  Zn  Zn1  1  0.34963600  0.15115300  0.74924500  1
  Zn  Zn2  1  0.84884700  0.65036400  0.74924500  1
  Zn  Zn3  1  0.64725500  0.84528100  0.25224800  1
  Si  Si0  1  0.64209400  0.35790600  0.15407600  1
  Si  Si1  1  0.35748100  0.64251900  0.84681400  1
  Si  Si2  1  0.85623100  0.14376900  0.65258300  1
  Si  Si3  1  0.14277200  0.85722800  0.34840400  1
  O  O0  1  0.81258500  0.80282200  0.99272300  1
  O  O1  1  0.29579700  0.29576800  0.50021200  1
  O  O2  1  0.19717800  0.18741500  0.99272300  1
  O  O3  1  0.70423300  0.70420300  0.50021200  1
  O  O4  1  0.23089000  0.76911000  0.06738700  1
  O  O5  1  0.77124900  0.22875100  0.92266400  1
  O  O6  1  0.27131900  0.72868100  0.57365400  1
  O  O7  1  0.72917800  0.27082200  0.42677500  1
  O  O8  1  0.75047100  0.24952900  0.07857300  1
  O  O9  1  0.24345100  0.75654900  0.91960400  1
  O  O10  1  0.73936900  0.26063100  0.57932400  1
  O  O11  1  0.26081400  0.73918600  0.42131800  1
  O  O12  1  0.74844100  0.69240100  0.16131600  1
  O  O13  1  0.69833000  0.75674900  0.84225600  1
  O  O14  1  0.19712300  0.25749700  0.65625100  1
  O  O15  1  0.25898000  0.19832100  0.34539800  1
  O  O16  1  0.24325100  0.30167000  0.84225600  1
  O  O17  1  0.30759900  0.25155900  0.16131600  1
  O  O18  1  0.80167900  0.74102000  0.34539800  1
  O  O19  1  0.74250300  0.80287700  0.65625100  1
  O  O20  1  0.77153900  0.22846100  0.22330400  1
  O  O21  1  0.23763700  0.76236300  0.77441100  1
  O  O22  1  0.73842500  0.26157500  0.72507700  1
  O  O23  1  0.25855300  0.74144700  0.27577300  1
loop_
_geom_bond_atom_site_label_1
_geom_bond_atom_site_label_2
_geom_bond_distance
_geom_bond_site_symmetry_2
Mg0 O4 2.004986 1_656
Mg0 O5 2.027488 1_555
Mg0 O8 2.076371 1_556
Mg0 O0 2.100393 1_555
Mg0 O9 2.115138 1_655
Mg0 O2 2.146777 1_655
Mg1 O4 2.004986 1_546
Mg1 O5 2.027488 1_555
Mg1 O8 2.076371 1_556
Mg1 O2 2.100393 1_555
Mg1 O9 2.115138 1_545
Mg1 O0 2.146777 1_545
Mg2 O7 2.024417 1_455
Mg2 O6 2.030406 1_555
Mg2 O11 2.087411 1_555
Mg2 O10 2.094980 1_455
Mg2 O1 2.107130 1_555
Mg2 O3 2.112785 1_455
Mg3 O7 2.024417 1_565
Mg3 O6 2.030406 1_555
Mg3 O11 2.087411 1_555
Mg3 O10 2.094980 1_565
Mg3 O3 2.107134 1_555
Mg3 O1 2.112790 1_565
Mg4 O12 2.009966 1_455
Mg4 O17 2.009966 1_565
Mg4 O4 2.019095 1_555
Mg4 O8 2.154068 1_465
Mg4 O0 2.321581 1_454
Mg4 O2 2.321581 1_564
Mn0 O5 1.791674 1_555
Mn0 O0 1.896534 1_545
Mn0 O2 1.896534 1_655
Mn0 O16 2.074900 1_655
Mn0 O13 2.074900 1_545
Mn0 O9 2.177322 1_645
Mn1 O6 1.780773 1_555
Mn1 O1 1.963200 1_555
Mn1 O3 1.963203 1_555
Mn1 O19 2.120782 1_555
Mn1 O14 2.120782 1_555
Mn1 O10 2.145143 1_555
Mn2 O7 1.781523 1_555
Mn2 O1 1.966878 1_555
Mn2 O3 1.966880 1_555
Mn2 O18 2.097644 1_555
Mn2 O15 2.097644 1_555
Mn2 O11 2.147804 1_555
O8 Si0 1.652495 1_555
O9 Si1 1.638630 1_555
O10 Si2 1.651728 1_555
O11 Si3 1.652503 1_555
O12 Si0 1.645606 1_555
O12 Zn3 1.980368 1_555
O13 Si1 1.673792 1_555
O13 Zn2 2.017023 1_555
O14 Si2 1.672795 1_455
O14 Zn1 2.012572 1_555
O15 Si3 1.673689 1_545
O15 Zn0 2.015452 1_555
O16 Si1 1.673792 1_555
O16 Zn1 2.017023 1_555
O17 Si0 1.645606 1_555
O17 Zn0 1.980368 1_555
O18 Si3 1.673689 1_655
O18 Zn3 2.015452 1_555
O19 Si2 1.672795 1_565
O19 Zn2 2.012572 1_555
O20 Si0 1.659372 1_555
O20 Zn0 1.950013 1_655
O20 Zn3 1.950013 1_545
O21 Si1 1.654077 1_555
O21 Zn2 1.959881 1_455
O21 Zn1 1.959881 1_565
O22 Si2 1.653012 1_555
O22 Zn1 1.958562 1_555
O22 Zn2 1.958562 1_555
O23 Si3 1.644917 1_555
O23 Zn0 1.956847 1_555
O23 Zn3 1.956847 1_555
