# generated using pymatgen
data_Mg14CdMo
_symmetry_space_group_name_H-M   'P 1'
_cell_length_a   6.30428218
_cell_length_b   6.30428169
_cell_length_c   9.96235096
_cell_angle_alpha   90.00000000
_cell_angle_beta   90.00000000
_cell_angle_gamma   120.00000259
_symmetry_Int_Tables_number   1
_chemical_formula_structural   Mg14CdMo
_chemical_formula_sum   'Mg14 Cd1 Mo1'
_cell_volume   342.89702053
_cell_formula_units_Z   1
loop_
 _symmetry_equiv_pos_site_id
 _symmetry_equiv_pos_as_xyz
  1  'x, y, z'
loop_
 _atom_site_type_symbol
 _atom_site_label
 _atom_site_symmetry_multiplicity
 _atom_site_fract_x
 _atom_site_fract_y
 _atom_site_fract_z
 _atom_site_occupancy
  Mg  Mg0  1  0.16763399  0.83381650  0.12500000  1
  Mg  Mg1  1  0.16694078  0.83346989  0.62500000  1
  Mg  Mg2  1  0.66618350  0.33236601  0.12500000  1
  Mg  Mg3  1  0.66653011  0.33305922  0.62500000  1
  Mg  Mg4  1  0.66618350  0.83381650  0.12500000  1
  Mg  Mg5  1  0.66653011  0.83346989  0.62500000  1
  Mg  Mg6  1  0.32688240  0.17311760  0.36786314  1
  Mg  Mg7  1  0.32688240  0.17311760  0.88213686  1
  Mg  Mg8  1  0.32688240  0.65376580  0.36786314  1
  Mg  Mg9  1  0.32688240  0.65376580  0.88213686  1
  Mg  Mg10  1  0.84623420  0.17311760  0.36786314  1
  Mg  Mg11  1  0.84623420  0.17311760  0.88213686  1
  Mg  Mg12  1  0.83333300  0.66666700  0.37408598  1
  Mg  Mg13  1  0.83333300  0.66666700  0.87591402  1
  Cd  Cd0  1  0.16666700  0.33333300  0.62500000  1
  Mo  Mo0  1  0.16666700  0.33333300  0.12500000  1
loop_
_geom_bond_atom_site_label_1
_geom_bond_atom_site_label_2
_geom_bond_distance
_geom_bond_site_symmetry_2
Mg0 Mg8 3.047922 1_555
Mg0 Mg9 3.047922 1_554
Mg0 Mg7 3.047929 1_564
Mg0 Mg6 3.047929 1_565
Mg0 Mg12 3.080423 1_455
Mg0 Mg13 3.080423 1_454
Mg0 Mg2 3.142997 1_565
Mg0 Mg4 3.142997 1_555
Mg0 Mo0 3.152145 1_565
Mg0 Mo0 3.152145 1_555
Mg0 Mg2 3.161285 1_455
Mg0 Mg4 3.161285 1_455
Mg1 Mg13 3.092882 1_455
Mg1 Mg12 3.092882 1_455
Mg1 Mg3 3.149552 1_565
Mg1 Mg5 3.149552 1_555
Mg1 Mg3 3.154730 1_455
Mg1 Mg5 3.154730 1_455
Mg1 Mg8 3.163028 1_555
Mg1 Mg9 3.163028 1_555
Mg1 Mg6 3.163035 1_565
Mg1 Mg7 3.163035 1_565
Mg2 Mg7 3.047929 1_554
Mg2 Mg6 3.047929 1_555
Mg2 Mg4 3.142997 1_545
Mg2 Mo0 3.152145 1_555
Mg2 Mo0 3.152146 1_655
Mg2 Mg4 3.161285 1_555
Mg3 Mg5 3.149552 1_545
Mg3 Mg5 3.154730 1_555
Mg3 Mg7 3.163035 1_555
Mg3 Mg6 3.163035 1_555
Mg4 Mg9 3.047929 1_554
Mg4 Mg8 3.047929 1_555
Mg4 Mo0 3.152145 1_555
Mg4 Mo0 3.152145 1_665
Mg5 Mg8 3.163035 1_555
Mg5 Mg9 3.163035 1_555
Mg6 Mo0 2.985713 1_555
Mg6 Mg8 3.030142 1_555
Mg6 Mg8 3.274140 1_545
Mg7 Mo0 2.985713 1_556
Mg7 Mg9 3.030142 1_555
Mg7 Mg9 3.274140 1_545
Mg8 Mo0 2.985719 1_555
Mg9 Mo0 2.985719 1_556
Mg10 Mo0 2.985719 1_655
Mg10 Mg8 3.030142 1_655
Mg10 Mg6 3.030142 1_655
Mg10 Mg2 3.047922 1_555
Mg10 Mg4 3.047929 1_545
Mg10 Mg12 3.153537 1_545
Mg10 Mg12 3.153537 1_555
Mg10 Mg3 3.163028 1_555
Mg10 Mg5 3.163035 1_545
Mg10 Mg8 3.274140 1_545
Mg10 Mg6 3.274140 1_555
Mg11 Mo0 2.985719 1_656
Mg11 Mg9 3.030142 1_655
Mg11 Mg7 3.030142 1_655
Mg11 Mg2 3.047922 1_556
Mg11 Mg4 3.047929 1_546
Mg11 Mg13 3.153537 1_545
Mg11 Mg13 3.153537 1_555
Mg11 Mg3 3.163028 1_555
Mg11 Mg5 3.163035 1_545
Mg11 Mg9 3.274140 1_545
Mg11 Mg7 3.274140 1_555
Mg12 Mg4 3.080417 1_555
Mg12 Mg2 3.080423 1_555
Mg12 Mg5 3.092876 1_555
Mg12 Mg3 3.092882 1_555
Mg12 Mg6 3.153537 1_665
Mg12 Mg6 3.153537 1_555
Mg12 Mg8 3.153537 1_555
Mg12 Mg8 3.153537 1_655
Mg13 Mg4 3.080417 1_556
Mg13 Mg2 3.080423 1_556
Mg13 Mg5 3.092876 1_555
Mg13 Mg3 3.092882 1_555
Mg13 Mg7 3.153537 1_665
Mg13 Mg7 3.153537 1_555
Mg13 Mg9 3.153537 1_555
Mg13 Mg9 3.153537 1_655
Cd0 Mg6 3.102065 1_555
Cd0 Mg7 3.102065 1_555
Cd0 Mg9 3.102071 1_555
Cd0 Mg8 3.102071 1_555
Cd0 Mg11 3.102071 1_455
Cd0 Mg10 3.102071 1_455
Cd0 Mg5 3.152141 1_555
Cd0 Mg1 3.152141 1_555
Cd0 Mg1 3.152141 1_545
Cd0 Mg5 3.152141 1_445
Cd0 Mg3 3.152141 1_555
Cd0 Mg3 3.152141 1_455
