# generated using pymatgen
data_ErAlNi4
_symmetry_space_group_name_H-M   'P 1'
_cell_length_a   4.82863186
_cell_length_b   4.82863186
_cell_length_c   3.97802059
_cell_angle_alpha   90.00000000
_cell_angle_beta   90.00000000
_cell_angle_gamma   118.53588457
_symmetry_Int_Tables_number   1
_chemical_formula_structural   ErAlNi4
_chemical_formula_sum   'Er1 Al1 Ni4'
_cell_volume   81.48279706
_cell_formula_units_Z   1
loop_
 _symmetry_equiv_pos_site_id
 _symmetry_equiv_pos_as_xyz
  1  'x, y, z'
loop_
 _atom_site_type_symbol
 _atom_site_label
 _atom_site_symmetry_multiplicity
 _atom_site_fract_x
 _atom_site_fract_y
 _atom_site_fract_z
 _atom_site_occupancy
  Er  Er0  1  0.50000000  0.50000000  0.00000000  1
  Al  Al0  1  -0.00000000  0.00000000  0.50000000  1
  Ni  Ni0  1  0.16838317  0.83161683  0.00000000  1
  Ni  Ni1  1  0.83161683  0.16838317  -0.00000000  1
  Ni  Ni2  1  -0.00000000  0.50000000  0.50000000  1
  Ni  Ni3  1  0.50000000  0.00000000  0.50000000  1
loop_
_geom_bond_atom_site_label_1
_geom_bond_atom_site_label_2
_geom_bond_distance
_geom_bond_site_symmetry_2
Er0 Ni0 2.752771 1_555
Er0 Ni1 2.752771 1_555
Er0 Ni1 2.835933 1_455
Er0 Ni1 2.835933 1_565
Er0 Ni0 2.835933 1_545
Er0 Ni0 2.835933 1_655
Er0 Ni2 3.128112 1_555
Er0 Ni3 3.128112 1_554
Er0 Ni3 3.128112 1_555
Er0 Ni3 3.128112 1_564
Er0 Ni2 3.128112 1_554
Er0 Ni2 3.128112 1_654
Er0 Ni2 3.128112 1_655
Er0 Ni3 3.128112 1_565
Al0 Ni2 2.414316 1_555
Al0 Ni2 2.414316 1_545
Al0 Ni3 2.414316 1_555
Al0 Ni3 2.414316 1_455
Al0 Ni1 2.431027 1_456
Al0 Ni0 2.431027 1_546
Al0 Ni1 2.431027 1_455
Al0 Ni0 2.431027 1_545
Al0 Er0 3.169377 1_445
Al0 Er0 3.169377 1_556
Al0 Er0 3.169377 1_555
Al0 Er0 3.169377 1_446
Ni0 Ni3 2.436673 1_565
Ni0 Ni2 2.436673 1_555
Ni0 Ni3 2.436673 1_564
Ni0 Ni2 2.436673 1_554
Ni1 Ni2 2.436673 1_655
Ni1 Ni3 2.436673 1_554
Ni1 Ni3 2.436673 1_555
Ni1 Ni2 2.436673 1_654
Ni2 Ni3 2.467546 1_455
Ni2 Ni3 2.467546 1_565
