# generated using pymatgen
data_Tm6Ta4Al43
_symmetry_space_group_name_H-M   'P 1'
_cell_length_a   11.10700792
_cell_length_b   11.10700792
_cell_length_c   17.64478700
_cell_angle_alpha   90.00000000
_cell_angle_beta   90.00000000
_cell_angle_gamma   119.99999955
_symmetry_Int_Tables_number   1
_chemical_formula_structural   Tm6Ta4Al43
_chemical_formula_sum   'Tm12 Ta8 Al86'
_cell_volume   1885.12961948
_cell_formula_units_Z   2
loop_
 _symmetry_equiv_pos_site_id
 _symmetry_equiv_pos_as_xyz
  1  'x, y, z'
loop_
 _atom_site_type_symbol
 _atom_site_label
 _atom_site_symmetry_multiplicity
 _atom_site_fract_x
 _atom_site_fract_y
 _atom_site_fract_z
 _atom_site_occupancy
  Tm  Tm0  1  0.53034600  0.00000000  0.59646900  1
  Tm  Tm1  1  0.46965400  0.00000000  0.40353100  1
  Tm  Tm2  1  0.00000000  0.53034600  0.59646900  1
  Tm  Tm3  1  0.46965400  0.00000000  0.09646900  1
  Tm  Tm4  1  0.00000000  0.53034600  0.90353100  1
  Tm  Tm5  1  0.00000000  0.46965400  0.40353100  1
  Tm  Tm6  1  0.53034600  0.00000000  0.90353100  1
  Tm  Tm7  1  0.00000000  0.46965400  0.09646900  1
  Tm  Tm8  1  0.46965400  0.46965400  0.59646900  1
  Tm  Tm9  1  0.53034600  0.53034600  0.40353100  1
  Tm  Tm10  1  0.53034600  0.53034600  0.09646900  1
  Tm  Tm11  1  0.46965400  0.46965400  0.90353100  1
  Ta  Ta0  1  0.00000000  0.00000000  0.50000000  1
  Ta  Ta1  1  0.00000000  0.00000000  0.00000000  1
  Ta  Ta2  1  0.72495400  0.00000000  0.75000000  1
  Ta  Ta3  1  0.27504600  0.00000000  0.25000000  1
  Ta  Ta4  1  0.00000000  0.72495400  0.75000000  1
  Ta  Ta5  1  0.00000000  0.27504600  0.25000000  1
  Ta  Ta6  1  0.27504600  0.27504600  0.75000000  1
  Ta  Ta7  1  0.72495400  0.72495400  0.25000000  1
  Al  Al0  1  0.14989600  0.59533500  0.75000000  1
  Al  Al1  1  0.85010400  0.40466500  0.25000000  1
  Al  Al2  1  0.40466500  0.55456100  0.75000000  1
  Al  Al3  1  0.59533500  0.14989600  0.75000000  1
  Al  Al4  1  0.59533500  0.44543900  0.25000000  1
  Al  Al5  1  0.40466500  0.85010400  0.25000000  1
  Al  Al6  1  0.44543900  0.85010400  0.75000000  1
  Al  Al7  1  0.55456100  0.40466500  0.75000000  1
  Al  Al8  1  0.55456100  0.14989600  0.25000000  1
  Al  Al9  1  0.44543900  0.59533500  0.25000000  1
  Al  Al10  1  0.85010400  0.44543900  0.75000000  1
  Al  Al11  1  0.14989600  0.55456100  0.25000000  1
  Al  Al12  1  0.15938100  0.00000000  0.11503400  1
  Al  Al13  1  0.84061900  0.00000000  0.88496600  1
  Al  Al14  1  0.00000000  0.15938100  0.11503400  1
  Al  Al15  1  0.84061900  0.00000000  0.61503400  1
  Al  Al16  1  0.00000000  0.15938100  0.38496600  1
  Al  Al17  1  0.00000000  0.84061900  0.88496600  1
  Al  Al18  1  0.15938100  0.00000000  0.38496600  1
  Al  Al19  1  0.00000000  0.84061900  0.61503400  1
  Al  Al20  1  0.84061900  0.84061900  0.11503400  1
  Al  Al21  1  0.15938100  0.15938100  0.88496600  1
  Al  Al22  1  0.15938100  0.15938100  0.61503400  1
  Al  Al23  1  0.84061900  0.84061900  0.38496600  1
  Al  Al24  1  0.24705600  0.49411300  0.50000000  1
  Al  Al25  1  0.75294400  0.50588700  0.50000000  1
  Al  Al26  1  0.50588700  0.75294400  0.50000000  1
  Al  Al27  1  0.75294400  0.50588700  0.00000000  1
  Al  Al28  1  0.49411300  0.24705600  0.00000000  1
  Al  Al29  1  0.49411300  0.24705600  0.50000000  1
  Al  Al30  1  0.24705600  0.49411300  0.00000000  1
  Al  Al31  1  0.50588700  0.75294400  0.00000000  1
  Al  Al32  1  0.24705600  0.75294400  0.50000000  1
  Al  Al33  1  0.75294400  0.24705600  0.50000000  1
  Al  Al34  1  0.75294400  0.24705600  0.00000000  1
  Al  Al35  1  0.24705600  0.75294400  0.00000000  1
  Al  Al36  1  0.14728600  0.00000000  0.75000000  1
  Al  Al37  1  0.85271400  0.00000000  0.25000000  1
  Al  Al38  1  0.00000000  0.14728600  0.75000000  1
  Al  Al39  1  0.00000000  0.85271400  0.25000000  1
  Al  Al40  1  0.85271400  0.85271400  0.75000000  1
  Al  Al41  1  0.14728600  0.14728600  0.25000000  1
  Al  Al42  1  0.33333300  0.66666700  0.62621400  1
  Al  Al43  1  0.66666700  0.33333300  0.37378600  1
  Al  Al44  1  0.66666700  0.33333300  0.12621400  1
  Al  Al45  1  0.66666700  0.33333300  0.87378600  1
  Al  Al46  1  0.33333300  0.66666700  0.87378600  1
  Al  Al47  1  0.33333300  0.66666700  0.12621400  1
  Al  Al48  1  0.33333300  0.66666700  0.37378600  1
  Al  Al49  1  0.66666700  0.33333300  0.62621400  1
  Al  Al50  1  0.25680300  0.00000000  0.53030600  1
  Al  Al51  1  0.74319700  0.00000000  0.46969400  1
  Al  Al52  1  0.00000000  0.25680300  0.53030600  1
  Al  Al53  1  0.74319700  0.00000000  0.03030600  1
  Al  Al54  1  0.00000000  0.25680300  0.96969400  1
  Al  Al55  1  0.00000000  0.74319700  0.46969400  1
  Al  Al56  1  0.25680300  0.00000000  0.96969400  1
  Al  Al57  1  0.00000000  0.74319700  0.03030600  1
  Al  Al58  1  0.74319700  0.74319700  0.53030600  1
  Al  Al59  1  0.25680300  0.25680300  0.46969400  1
  Al  Al60  1  0.25680300  0.25680300  0.03030600  1
  Al  Al61  1  0.74319700  0.74319700  0.96969400  1
  Al  Al62  1  0.15712900  0.39489500  0.66309100  1
  Al  Al63  1  0.84287100  0.60510500  0.33690900  1
  Al  Al64  1  0.60510500  0.76223400  0.66309100  1
  Al  Al65  1  0.84287100  0.60510500  0.16309100  1
  Al  Al66  1  0.39489500  0.15712900  0.83690900  1
  Al  Al67  1  0.39489500  0.23776600  0.33690900  1
  Al  Al68  1  0.15712900  0.39489500  0.83690900  1
  Al  Al69  1  0.60510500  0.84287100  0.16309100  1
  Al  Al70  1  0.23776600  0.84287100  0.66309100  1
  Al  Al71  1  0.39489500  0.23776600  0.16309100  1
  Al  Al72  1  0.76223400  0.60510500  0.83690900  1
  Al  Al73  1  0.76223400  0.15712900  0.33690900  1
  Al  Al74  1  0.60510500  0.76223400  0.83690900  1
  Al  Al75  1  0.23776600  0.39489500  0.16309100  1
  Al  Al76  1  0.60510500  0.84287100  0.33690900  1
  Al  Al77  1  0.39489500  0.15712900  0.66309100  1
  Al  Al78  1  0.76223400  0.15712900  0.16309100  1
  Al  Al79  1  0.23776600  0.39489500  0.33690900  1
  Al  Al80  1  0.23776600  0.84287100  0.83690900  1
  Al  Al81  1  0.76223400  0.60510500  0.66309100  1
  Al  Al82  1  0.84287100  0.23776600  0.83690900  1
  Al  Al83  1  0.15712900  0.76223400  0.16309100  1
  Al  Al84  1  0.15712900  0.76223400  0.33690900  1
  Al  Al85  1  0.84287100  0.23776600  0.66309100  1
loop_
_geom_bond_atom_site_label_1
_geom_bond_atom_site_label_2
_geom_bond_distance
_geom_bond_site_symmetry_2
Tm0 Tm1 3.470449 1_555
Tm2 Tm5 3.470449 1_555
Tm3 Tm6 3.470449 1_554
Tm4 Tm7 3.470449 1_556
Tm8 Tm9 3.470449 1_555
Tm10 Tm11 3.470449 1_554
Ta2 Tm6 3.465680 1_555
Ta2 Tm0 3.465680 1_555
Ta3 Tm1 3.465680 1_555
Ta3 Tm3 3.465680 1_555
Ta4 Tm4 3.465680 1_555
Ta4 Tm2 3.465680 1_555
Ta5 Tm5 3.465680 1_555
Ta5 Tm7 3.465680 1_555
Ta6 Tm8 3.465680 1_555
Ta6 Tm11 3.465680 1_555
Ta7 Tm9 3.465680 1_555
Ta7 Tm10 3.465680 1_555
Al0 Ta4 2.690998 1_555
Al0 Al68 2.737382 1_555
Al0 Al62 2.737382 1_555
Al0 Al46 2.816960 1_555
Al0 Al42 2.816960 1_555
Al0 Al70 2.860054 1_555
Al0 Al80 2.860054 1_555
Al0 Al10 2.883685 1_455
Al0 Tm4 3.070821 1_555
Al0 Tm2 3.070821 1_555
Al1 Ta5 2.690998 1_655
Al1 Al65 2.737382 1_555
Al1 Al63 2.737382 1_555
Al1 Al43 2.816960 1_555
Al1 Al44 2.816960 1_555
Al1 Al78 2.860054 1_555
Al1 Al73 2.860054 1_555
Al1 Al11 2.883685 1_655
Al1 Tm5 3.070821 1_655
Al1 Tm7 3.070821 1_655
Al2 Ta6 2.690998 1_555
Al2 Al74 2.737382 1_555
Al2 Al64 2.737382 1_555
Al2 Al42 2.816966 1_555
Al2 Al46 2.816966 1_555
Al2 Al62 2.860054 1_555
Al2 Al68 2.860054 1_555
Al2 Al7 2.883685 1_555
Al2 Tm11 3.070821 1_555
Al2 Tm8 3.070821 1_555
Al3 Ta2 2.690998 1_555
Al3 Al77 2.737382 1_555
Al3 Al66 2.737382 1_555
Al3 Al45 2.816960 1_555
Al3 Al49 2.816960 1_555
Al3 Al85 2.860054 1_555
Al3 Al82 2.860054 1_555
Al3 Al6 2.883685 1_545
Al3 Tm0 3.070821 1_555
Al3 Tm6 3.070821 1_555
Al4 Ta7 2.690998 1_555
Al4 Al71 2.737382 1_555
Al4 Al67 2.737382 1_555
Al4 Al43 2.816966 1_555
Al4 Al44 2.816966 1_555
Al4 Al65 2.860054 1_555
Al4 Al63 2.860054 1_555
Al4 Al9 2.883685 1_555
Al4 Tm9 3.070821 1_555
Al4 Tm10 3.070821 1_555
Al5 Ta3 2.690998 1_565
Al5 Al69 2.737382 1_555
Al5 Al76 2.737382 1_555
Al5 Al83 2.860054 1_555
Al5 Al84 2.860054 1_555
Al5 Al8 2.883685 1_565
Al5 Tm1 3.070821 1_565
Al5 Tm3 3.070821 1_565
Al6 Ta2 2.690998 1_565
Al6 Al80 2.737382 1_555
Al6 Al70 2.737382 1_555
Al6 Al74 2.860054 1_555
Al6 Al64 2.860054 1_555
Al6 Tm0 3.070821 1_565
Al6 Tm6 3.070821 1_565
Al7 Ta6 2.690998 1_555
Al7 Al81 2.737382 1_555
Al7 Al72 2.737382 1_555
Al7 Al77 2.860054 1_555
Al7 Tm8 3.070821 1_555
Al7 Tm11 3.070821 1_555
Al8 Ta3 2.690998 1_555
Al8 Tm1 3.070821 1_555
Al8 Tm3 3.070821 1_555
Al9 Ta7 2.690998 1_555
Al9 Tm9 3.070821 1_555
Al9 Tm10 3.070821 1_555
Al10 Ta4 2.690998 1_655
Al10 Al85 2.737382 1_555
Al10 Al82 2.737382 1_555
Al10 Al49 2.816961 1_555
Al10 Al45 2.816961 1_555
Al10 Al72 2.860054 1_555
Al10 Al81 2.860054 1_555
Al10 Tm2 3.070821 1_655
Al10 Tm4 3.070821 1_655
Al11 Ta5 2.690998 1_555
Al11 Al83 2.737382 1_555
Al11 Al84 2.737382 1_555
Al11 Al47 2.816961 1_555
Al11 Al48 2.816961 1_555
Al11 Al75 2.860054 1_555
Al11 Al79 2.860054 1_555
Al11 Tm5 3.070821 1_555
Al11 Tm7 3.070821 1_555
Al12 Ta1 2.693262 1_555
Al12 Ta3 2.705868 1_555
Al12 Al83 2.761845 1_545
Al12 Al71 2.761845 1_555
Al12 Al56 2.783432 1_554
Al12 Al60 2.907785 1_555
Al12 Al57 2.907785 1_545
Al12 Al41 2.930067 1_555
Al12 Al39 2.930067 1_545
Al12 Al14 3.066156 1_555
Al12 Al20 3.066156 1_445
Al12 Tm3 3.461738 1_555
Al13 Ta1 2.693262 1_656
Al13 Ta2 2.705868 1_555
Al13 Al82 2.761845 1_555
Al13 Al74 2.761845 1_545
Al13 Al53 2.783432 1_556
Al13 Al61 2.907785 1_545
Al13 Al54 2.907785 1_655
Al13 Al40 2.930067 1_545
Al13 Al38 2.930067 1_655
Al13 Al17 3.066156 1_645
Al13 Al21 3.066156 1_655
Al13 Tm6 3.461738 1_555
Al14 Ta1 2.693262 1_555
Al14 Ta5 2.705868 1_555
Al14 Al78 2.761845 1_455
Al14 Al75 2.761845 1_555
Al14 Al54 2.783432 1_554
Al14 Al60 2.907785 1_555
Al14 Al53 2.907785 1_455
Al14 Al41 2.930067 1_555
Al14 Al37 2.930067 1_455
Al14 Al20 3.066156 1_445
Al14 Tm7 3.461738 1_555
Al15 Ta0 2.693262 1_655
Al15 Ta2 2.705868 1_555
Al15 Al85 2.761845 1_555
Al15 Al64 2.761845 1_545
Al15 Al51 2.783432 1_555
Al15 Al58 2.907785 1_545
Al15 Al52 2.907785 1_655
Al15 Al40 2.930067 1_545
Al15 Al38 2.930067 1_655
Al15 Al19 3.066156 1_645
Al15 Al22 3.066156 1_655
Al15 Tm0 3.461738 1_555
Al16 Ta0 2.693262 1_555
Al16 Ta5 2.705868 1_555
Al16 Al73 2.761845 1_455
Al16 Al79 2.761845 1_555
Al16 Al52 2.783432 1_555
Al16 Al59 2.907785 1_555
Al16 Al51 2.907785 1_455
Al16 Al41 2.930067 1_555
Al16 Al37 2.930067 1_455
Al16 Al18 3.066156 1_555
Al16 Al23 3.066156 1_445
Al16 Tm5 3.461738 1_555
Al17 Ta1 2.693262 1_566
Al17 Ta4 2.705868 1_555
Al17 Al80 2.761845 1_555
Al17 Al72 2.761845 1_455
Al17 Al57 2.783432 1_556
Al17 Al61 2.907785 1_455
Al17 Al56 2.907785 1_565
Al17 Al40 2.930067 1_455
Al17 Al36 2.930067 1_565
Al17 Al21 3.066156 1_565
Al17 Tm4 3.461738 1_555
Al18 Ta0 2.693262 1_555
Al18 Ta3 2.705868 1_555
Al18 Al84 2.761845 1_545
Al18 Al67 2.761845 1_555
Al18 Al50 2.783432 1_555
Al18 Al59 2.907785 1_555
Al18 Al55 2.907785 1_545
Al18 Al41 2.930067 1_555
Al18 Al39 2.930067 1_545
Al18 Al23 3.066156 1_445
Al18 Tm1 3.461738 1_555
Al19 Ta0 2.693262 1_565
Al19 Ta4 2.705868 1_555
Al19 Al70 2.761845 1_555
Al19 Al81 2.761845 1_455
Al19 Al55 2.783432 1_555
Al19 Al58 2.907785 1_455
Al19 Al50 2.907785 1_565
Al19 Al40 2.930067 1_455
Al19 Al36 2.930067 1_565
Al19 Al22 3.066156 1_565
Al19 Tm2 3.461738 1_555
Al20 Ta1 2.693262 1_665
Al20 Ta7 2.705868 1_555
Al20 Al69 2.761845 1_555
Al20 Al65 2.761845 1_555
Al20 Al61 2.783432 1_554
Al20 Al57 2.907785 1_655
Al20 Al53 2.907785 1_565
Al20 Al39 2.930067 1_655
Al20 Al37 2.930067 1_565
Al20 Tm10 3.461738 1_555
Al21 Ta1 2.693262 1_556
Al21 Ta6 2.705868 1_555
Al21 Al68 2.761845 1_555
Al21 Al66 2.761845 1_555
Al21 Al60 2.783432 1_556
Al21 Al54 2.907785 1_555
Al21 Al56 2.907785 1_555
Al21 Al38 2.930067 1_555
Al21 Al36 2.930067 1_555
Al21 Tm11 3.461738 1_555
Al22 Ta0 2.693262 1_555
Al22 Ta6 2.705868 1_555
Al22 Al77 2.761845 1_555
Al22 Al62 2.761845 1_555
Al22 Al59 2.783432 1_555
Al22 Al50 2.907785 1_555
Al22 Al52 2.907785 1_555
Al22 Al38 2.930067 1_555
Al22 Al36 2.930067 1_555
Al22 Tm8 3.461738 1_555
Al23 Ta0 2.693262 1_665
Al23 Ta7 2.705868 1_555
Al23 Al63 2.761845 1_555
Al23 Al76 2.761845 1_555
Al23 Al58 2.783432 1_555
Al23 Al51 2.907785 1_565
Al23 Al55 2.907785 1_655
Al23 Al37 2.930067 1_565
Al23 Al39 2.930067 1_655
Al23 Tm9 3.461738 1_555
Al24 Al52 2.744167 1_555
Al24 Al59 2.744173 1_555
Al24 Al48 2.777501 1_555
Al24 Al42 2.777501 1_555
Al24 Al32 2.874838 1_555
Al24 Al26 2.874838 1_555
Al24 Al62 3.064728 1_555
Al24 Al79 3.064729 1_555
Al24 Tm5 3.123390 1_555
Al24 Tm8 3.123399 1_555
Al24 Tm2 3.419576 1_555
Al24 Tm9 3.419586 1_555
Al25 Al55 2.744167 1_655
Al25 Al58 2.744173 1_555
Al25 Al43 2.777501 1_555
Al25 Al49 2.777501 1_555
Al25 Al33 2.874838 1_555
Al25 Al29 2.874838 1_555
Al25 Al63 3.064728 1_555
Al25 Al81 3.064729 1_555
Al25 Tm2 3.123390 1_655
Al25 Tm9 3.123399 1_555
Al25 Tm5 3.419576 1_655
Al25 Tm8 3.419586 1_555
Al26 Al51 2.744167 1_565
Al26 Al58 2.744173 1_555
Al26 Al48 2.777501 1_555
Al26 Al42 2.777501 1_555
Al26 Al32 2.874838 1_555
Al26 Al76 3.064728 1_555
Al26 Al64 3.064729 1_555
Al26 Tm0 3.123390 1_565
Al26 Tm9 3.123399 1_555
Al26 Tm1 3.419576 1_565
Al26 Tm8 3.419586 1_555
Al27 Al57 2.744167 1_655
Al27 Al61 2.744173 1_554
Al27 Al44 2.777501 1_555
Al27 Al45 2.777501 1_554
Al27 Al34 2.874838 1_555
Al27 Al28 2.874838 1_555
Al27 Al65 3.064728 1_555
Al27 Al72 3.064729 1_554
Al27 Tm4 3.123390 1_654
Al27 Tm10 3.123399 1_555
Al27 Tm7 3.419576 1_655
Al27 Tm11 3.419586 1_554
Al28 Al56 2.744167 1_554
Al28 Al60 2.744173 1_555
Al28 Al44 2.777501 1_555
Al28 Al45 2.777501 1_554
Al28 Al34 2.874838 1_555
Al28 Al66 3.064728 1_554
Al28 Al71 3.064729 1_555
Al28 Tm3 3.123390 1_555
Al28 Tm11 3.123399 1_554
Al28 Tm6 3.419576 1_554
Al28 Tm10 3.419586 1_555
Al29 Al50 2.744167 1_555
Al29 Al59 2.744173 1_555
Al29 Al43 2.777501 1_555
Al29 Al49 2.777501 1_555
Al29 Al33 2.874838 1_555
Al29 Al77 3.064728 1_555
Al29 Al67 3.064729 1_555
Al29 Tm1 3.123390 1_555
Al29 Tm8 3.123399 1_555
Al29 Tm0 3.419576 1_555
Al29 Tm9 3.419586 1_555
Al30 Al54 2.744167 1_554
Al30 Al60 2.744173 1_555
Al30 Al47 2.777501 1_555
Al30 Al46 2.777501 1_554
Al30 Al35 2.874838 1_555
Al30 Al31 2.874838 1_555
Al30 Al68 3.064728 1_554
Al30 Al75 3.064729 1_555
Al30 Tm7 3.123390 1_555
Al30 Tm11 3.123399 1_554
Al30 Tm4 3.419576 1_554
Al30 Tm10 3.419586 1_555
Al31 Al53 2.744167 1_565
Al31 Al61 2.744173 1_554
Al31 Al47 2.777501 1_555
Al31 Al46 2.777501 1_554
Al31 Al35 2.874838 1_555
Al31 Al69 3.064728 1_555
Al31 Al74 3.064729 1_554
Al31 Tm6 3.123390 1_564
Al31 Tm10 3.123399 1_555
Al31 Tm3 3.419576 1_565
Al31 Tm11 3.419586 1_554
Al32 Al50 2.744162 1_565
Al32 Al55 2.744162 1_555
Al32 Al48 2.777501 1_555
Al32 Al42 2.777501 1_555
Al32 Al70 3.064725 1_555
Al32 Al84 3.064725 1_555
Al32 Tm2 3.123393 1_555
Al32 Tm1 3.123393 1_565
Al32 Tm5 3.419582 1_555
Al32 Tm0 3.419582 1_565
Al33 Al51 2.744162 1_555
Al33 Al52 2.744162 1_655
Al33 Al43 2.777501 1_555
Al33 Al49 2.777501 1_555
Al33 Al73 3.064725 1_555
Al33 Al85 3.064725 1_555
Al33 Tm0 3.123393 1_555
Al33 Tm5 3.123393 1_655
Al33 Tm1 3.419582 1_555
Al33 Tm2 3.419582 1_655
Al34 Al53 2.744162 1_555
Al34 Al54 2.744162 1_654
Al34 Al44 2.777501 1_555
Al34 Al45 2.777501 1_554
Al34 Al78 3.064725 1_555
Al34 Al82 3.064725 1_554
Al34 Tm6 3.123393 1_554
Al34 Tm7 3.123393 1_655
Al34 Tm3 3.419582 1_555
Al34 Tm4 3.419582 1_654
Al35 Al57 2.744162 1_555
Al35 Al56 2.744162 1_564
Al35 Al47 2.777501 1_555
Al35 Al46 2.777501 1_554
Al35 Al83 3.064725 1_555
Al35 Al80 3.064725 1_554
Al35 Tm3 3.123393 1_565
Al35 Tm4 3.123393 1_554
Al35 Tm7 3.419582 1_555
Al35 Tm6 3.419582 1_564
Al36 Ta6 2.647875 1_555
Al36 Ta4 2.647875 1_545
Al36 Al38 2.833474 1_555
Al36 Al40 2.833474 1_445
Al36 Al70 2.856794 1_545
Al36 Al80 2.856794 1_545
Al36 Al77 2.856794 1_555
Al36 Al66 2.856794 1_555
Al37 Ta7 2.647875 1_545
Al37 Ta5 2.647875 1_655
Al37 Al39 2.833474 1_645
Al37 Al41 2.833474 1_655
Al37 Al78 2.856794 1_555
Al37 Al73 2.856794 1_555
Al37 Al69 2.856794 1_545
Al37 Al76 2.856794 1_545
Al38 Ta6 2.647875 1_555
Al38 Ta2 2.647875 1_455
Al38 Al40 2.833474 1_445
Al38 Al82 2.856794 1_455
Al38 Al85 2.856794 1_455
Al38 Al68 2.856794 1_555
Al38 Al62 2.856794 1_555
Al39 Ta7 2.647875 1_455
Al39 Ta3 2.647875 1_565
Al39 Al41 2.833474 1_565
Al39 Al83 2.856794 1_555
Al39 Al84 2.856794 1_555
Al39 Al65 2.856794 1_455
Al39 Al63 2.856794 1_455
Al40 Ta4 2.647875 1_655
Al40 Ta2 2.647875 1_565
Al40 Al64 2.856794 1_555
Al40 Al81 2.856794 1_555
Al40 Al74 2.856794 1_555
Al40 Al72 2.856794 1_555
Al41 Ta3 2.647875 1_555
Al41 Ta5 2.647875 1_555
Al41 Al75 2.856794 1_555
Al41 Al71 2.856794 1_555
Al41 Al79 2.856794 1_555
Al41 Al67 2.856794 1_555
Al42 Al70 2.730883 1_555
Al42 Al62 2.730892 1_555
Al42 Al64 2.730894 1_555
Al42 Al6 2.816961 1_555
Al42 Tm2 3.266422 1_555
Al42 Tm0 3.266423 1_565
Al42 Tm8 3.266432 1_555
Al43 Al73 2.730883 1_555
Al43 Al63 2.730892 1_555
Al43 Al67 2.730894 1_555
Al43 Al8 2.816961 1_555
Al43 Tm5 3.266422 1_655
Al43 Tm1 3.266423 1_555
Al43 Tm9 3.266432 1_555
Al44 Al78 2.730883 1_555
Al44 Al65 2.730892 1_555
Al44 Al71 2.730894 1_555
Al44 Al8 2.816961 1_555
Al44 Tm7 3.266422 1_655
Al44 Tm3 3.266423 1_555
Al44 Tm10 3.266432 1_555
Al45 Al82 2.730883 1_555
Al45 Al66 2.730892 1_555
Al45 Al72 2.730894 1_555
Al45 Al7 2.816966 1_555
Al45 Tm6 3.266422 1_555
Al45 Tm4 3.266423 1_655
Al45 Tm11 3.266432 1_555
Al46 Al80 2.730883 1_555
Al46 Al68 2.730892 1_555
Al46 Al74 2.730894 1_555
Al46 Al6 2.816961 1_555
Al46 Tm4 3.266422 1_555
Al46 Tm6 3.266423 1_565
Al46 Tm11 3.266432 1_555
Al47 Al83 2.730883 1_555
Al47 Al69 2.730892 1_555
Al47 Al75 2.730894 1_555
Al47 Al5 2.816960 1_555
Al47 Al9 2.816966 1_555
Al47 Tm3 3.266422 1_565
Al47 Tm7 3.266423 1_555
Al47 Tm10 3.266432 1_555
Al48 Al84 2.730883 1_555
Al48 Al76 2.730892 1_555
Al48 Al79 2.730894 1_555
Al48 Al5 2.816960 1_555
Al48 Al9 2.816966 1_555
Al48 Tm1 3.266422 1_565
Al48 Tm5 3.266423 1_555
Al48 Tm9 3.266432 1_555
Al49 Al85 2.730883 1_555
Al49 Al77 2.730892 1_555
Al49 Al81 2.730894 1_555
Al49 Al7 2.816966 1_555
Al49 Tm0 3.266422 1_555
Al49 Tm2 3.266423 1_655
Al49 Tm8 3.266432 1_555
Al50 Al70 2.865485 1_545
Al50 Al77 2.865485 1_555
Al50 Ta0 2.902006 1_555
Al50 Al59 3.046225 1_555
Al50 Al55 3.046225 1_545
Al50 Tm1 3.254681 1_555
Al50 Tm0 3.254816 1_555
Al51 Al73 2.865485 1_555
Al51 Al76 2.865485 1_545
Al51 Ta0 2.902006 1_655
Al51 Al58 3.046225 1_545
Al51 Al52 3.046225 1_655
Al51 Tm0 3.254681 1_555
Al51 Tm1 3.254816 1_555
Al52 Al85 2.865485 1_455
Al52 Al62 2.865485 1_555
Al52 Ta0 2.902006 1_555
Al52 Al59 3.046225 1_555
Al52 Tm5 3.254681 1_555
Al52 Tm2 3.254816 1_555
Al53 Al78 2.865485 1_555
Al53 Al69 2.865485 1_545
Al53 Ta1 2.902006 1_655
Al53 Al61 3.046225 1_544
Al53 Al54 3.046225 1_654
Al53 Tm6 3.254681 1_554
Al53 Tm3 3.254816 1_555
Al54 Al82 2.865485 1_455
Al54 Al68 2.865485 1_555
Al54 Ta1 2.902006 1_556
Al54 Al60 3.046225 1_556
Al54 Tm7 3.254681 1_556
Al54 Tm4 3.254816 1_555
Al55 Al84 2.865485 1_555
Al55 Al63 2.865485 1_455
Al55 Ta0 2.902006 1_565
Al55 Al58 3.046225 1_455
Al55 Tm2 3.254681 1_555
Al55 Tm5 3.254816 1_555
Al56 Al80 2.865485 1_545
Al56 Al66 2.865485 1_555
Al56 Ta1 2.902006 1_556
Al56 Al60 3.046225 1_556
Al56 Al57 3.046225 1_546
Al56 Tm3 3.254681 1_556
Al56 Tm6 3.254816 1_555
Al57 Al83 2.865485 1_555
Al57 Al65 2.865485 1_455
Al57 Ta1 2.902006 1_565
Al57 Al61 3.046225 1_454
Al57 Tm4 3.254681 1_554
Al57 Tm7 3.254816 1_555
Al58 Al81 2.865485 1_555
Al58 Al64 2.865485 1_555
Al58 Ta0 2.902006 1_665
Al58 Tm9 3.254681 1_555
Al58 Tm8 3.254816 1_555
Al59 Al79 2.865485 1_555
Al59 Al67 2.865485 1_555
Al59 Ta0 2.902006 1_555
Al59 Tm8 3.254681 1_555
Al59 Tm9 3.254816 1_555
Al60 Al71 2.865485 1_555
Al60 Al75 2.865485 1_555
Al60 Ta1 2.902006 1_555
Al60 Tm11 3.254681 1_554
Al60 Tm10 3.254816 1_555
Al61 Al72 2.865485 1_555
Al61 Al74 2.865485 1_555
Al61 Ta1 2.902006 1_666
Al61 Tm10 3.254681 1_556
Al61 Tm11 3.254816 1_555
Al62 Ta6 2.753607 1_555
Al62 Al85 3.022832 1_455
Al62 Tm2 3.052331 1_555
Al62 Al68 3.066982 1_555
Al62 Tm8 3.352370 1_555
Al63 Ta7 2.753607 1_555
Al63 Al84 3.022832 1_655
Al63 Tm5 3.052331 1_655
Al63 Al65 3.066982 1_555
Al63 Tm9 3.352370 1_555
Al64 Ta2 2.753607 1_565
Al64 Al81 3.022832 1_555
Al64 Tm8 3.052331 1_555
Al64 Al74 3.066982 1_555
Al64 Tm0 3.352370 1_565
Al65 Ta7 2.753607 1_555
Al65 Al83 3.022832 1_655
Al65 Tm7 3.052331 1_655
Al65 Tm10 3.352370 1_555
Al66 Ta6 2.753607 1_555
Al66 Al7 2.860054 1_555
Al66 Al80 3.022832 1_545
Al66 Tm6 3.052331 1_555
Al66 Al77 3.066982 1_555
Al66 Tm11 3.352370 1_555
Al67 Ta3 2.753607 1_555
Al67 Al8 2.860054 1_555
Al67 Al79 3.022832 1_555
Al67 Tm9 3.052331 1_555
Al67 Al71 3.066982 1_555
Al67 Tm1 3.352370 1_555
Al68 Ta6 2.753607 1_555
Al68 Al82 3.022832 1_455
Al68 Tm4 3.052331 1_555
Al68 Tm11 3.352370 1_555
Al69 Ta7 2.753607 1_555
Al69 Al9 2.860054 1_555
Al69 Al78 3.022832 1_565
Al69 Tm3 3.052331 1_565
Al69 Al76 3.066982 1_555
Al69 Tm10 3.352370 1_555
Al70 Ta4 2.753607 1_555
Al70 Al77 3.022832 1_565
Al70 Tm0 3.052331 1_565
Al70 Al80 3.066982 1_555
Al70 Tm2 3.352370 1_555
Al71 Ta3 2.753607 1_555
Al71 Al8 2.860054 1_555
Al71 Al75 3.022832 1_555
Al71 Tm10 3.052331 1_555
Al71 Tm3 3.352370 1_555
Al72 Ta4 2.753607 1_655
Al72 Al74 3.022832 1_555
Al72 Tm11 3.052331 1_555
Al72 Al81 3.066982 1_555
Al72 Tm4 3.352370 1_655
Al73 Al8 2.737382 1_555
Al73 Ta5 2.753607 1_655
Al73 Al76 3.022832 1_545
Al73 Tm1 3.052331 1_555
Al73 Al78 3.066982 1_555
Al73 Tm5 3.352370 1_655
Al74 Ta2 2.753607 1_565
Al74 Tm11 3.052331 1_555
Al74 Tm6 3.352370 1_565
Al75 Al9 2.737382 1_555
Al75 Ta5 2.753607 1_555
Al75 Tm10 3.052331 1_555
Al75 Al79 3.066982 1_555
Al75 Tm7 3.352370 1_555
Al76 Ta7 2.753607 1_555
Al76 Al9 2.860054 1_555
Al76 Tm1 3.052331 1_565
Al76 Tm9 3.352370 1_555
Al77 Ta6 2.753607 1_555
Al77 Tm0 3.052331 1_555
Al77 Tm8 3.352370 1_555
Al78 Al8 2.737382 1_555
Al78 Ta5 2.753607 1_655
Al78 Tm3 3.052331 1_555
Al78 Tm7 3.352370 1_655
Al79 Al9 2.737382 1_555
Al79 Ta5 2.753607 1_555
Al79 Tm9 3.052331 1_555
Al79 Tm5 3.352370 1_555
Al80 Ta4 2.753607 1_555
Al80 Tm6 3.052331 1_565
Al80 Tm4 3.352370 1_555
Al81 Ta4 2.753607 1_655
Al81 Tm8 3.052331 1_555
Al81 Tm2 3.352370 1_655
Al82 Ta2 2.753607 1_555
Al82 Tm4 3.052331 1_655
Al82 Al85 3.066982 1_555
Al82 Tm6 3.352370 1_555
Al83 Ta3 2.753607 1_565
Al83 Tm7 3.052331 1_555
Al83 Al84 3.066982 1_555
Al83 Tm3 3.352370 1_565
Al84 Ta3 2.753607 1_565
Al84 Tm5 3.052331 1_555
Al84 Tm1 3.352370 1_565
Al85 Ta2 2.753607 1_555
Al85 Tm2 3.052331 1_655
Al85 Tm0 3.352370 1_555
