# generated using pymatgen
data_Fe9Se8
_symmetry_space_group_name_H-M   'P 1'
_cell_length_a   7.19898900
_cell_length_b   7.19898900
_cell_length_c   6.06291100
_cell_angle_alpha   90.00000000
_cell_angle_beta   90.00000000
_cell_angle_gamma   90.00000000
_symmetry_Int_Tables_number   1
_chemical_formula_structural   Fe9Se8
_chemical_formula_sum   'Fe9 Se8'
_cell_volume   314.21304615
_cell_formula_units_Z   1
loop_
 _symmetry_equiv_pos_site_id
 _symmetry_equiv_pos_as_xyz
  1  'x, y, z'
loop_
 _atom_site_type_symbol
 _atom_site_label
 _atom_site_symmetry_multiplicity
 _atom_site_fract_x
 _atom_site_fract_y
 _atom_site_fract_z
 _atom_site_occupancy
  Fe  Fe0  1  0.00000000  0.24275200  0.23215400  1
  Fe  Fe1  1  0.00000000  0.75724800  0.23215400  1
  Fe  Fe2  1  0.75724800  0.00000000  0.23215400  1
  Fe  Fe3  1  0.24275200  0.00000000  0.23215400  1
  Fe  Fe4  1  0.75142300  0.50000000  0.24932500  1
  Fe  Fe5  1  0.24857700  0.50000000  0.24932500  1
  Fe  Fe6  1  0.50000000  0.24857700  0.24932500  1
  Fe  Fe7  1  0.50000000  0.75142300  0.24932500  1
  Fe  Fe8  1  0.00000000  0.00000000  0.56309700  1
  Se  Se0  1  0.75228500  0.24771500  0.49328200  1
  Se  Se1  1  0.24771500  0.75228500  0.49328200  1
  Se  Se2  1  0.24771500  0.24771500  0.49328200  1
  Se  Se3  1  0.75228500  0.75228500  0.49328200  1
  Se  Se4  1  0.00000000  0.00000000  0.95785100  1
  Se  Se5  1  0.00000000  0.50000000  0.99863000  1
  Se  Se6  1  0.50000000  0.00000000  0.99863000  1
  Se  Se7  1  0.50000000  0.50000000  0.00934600  1
loop_
_geom_bond_atom_site_label_1
_geom_bond_atom_site_label_2
_geom_bond_distance
_geom_bond_site_symmetry_2
Fe0 Se5 2.331141 1_554
Fe0 Se0 2.384939 1_455
Fe0 Se2 2.384939 1_555
Fe0 Se4 2.412429 1_554
Fe1 Se5 2.331141 1_554
Fe1 Se3 2.384939 1_455
Fe1 Se1 2.384939 1_555
Fe1 Se4 2.412429 1_564
Fe2 Se6 2.331141 1_554
Fe2 Se0 2.384939 1_555
Fe2 Se3 2.384939 1_545
Fe2 Se4 2.412429 1_654
Fe3 Se6 2.331141 1_554
Fe3 Se2 2.384939 1_555
Fe3 Se1 2.384939 1_545
Fe3 Se4 2.412429 1_554
Fe4 Se7 2.322286 1_555
Fe4 Se0 2.342289 1_555
Fe4 Se3 2.342289 1_555
Fe4 Se5 2.347881 1_654
Fe5 Se7 2.322286 1_555
Fe5 Se2 2.342289 1_555
Fe5 Se1 2.342289 1_555
Fe5 Se5 2.347881 1_554
Fe6 Se7 2.322286 1_555
Fe6 Se0 2.342289 1_555
Fe6 Se2 2.342289 1_555
Fe6 Se6 2.347881 1_554
Fe7 Se7 2.322286 1_555
Fe7 Se3 2.342289 1_555
Fe7 Se1 2.342289 1_555
Fe7 Se6 2.347881 1_564
Fe8 Se4 2.393358 1_555
Fe8 Se0 2.557238 1_455
Fe8 Se2 2.557238 1_555
Fe8 Se1 2.557238 1_545
Fe8 Se3 2.557238 1_445
