# generated using pymatgen
data_Li3Mn(CoO3)2
_symmetry_space_group_name_H-M   'P 1'
_cell_length_a   5.08624557
_cell_length_b   7.82984962
_cell_length_c   5.90189159
_cell_angle_alpha   79.32796829
_cell_angle_beta   106.16936953
_cell_angle_gamma   102.02338288
_symmetry_Int_Tables_number   1
_chemical_formula_structural   Li3Mn(CoO3)2
_chemical_formula_sum   'Li6 Mn2 Co4 O12'
_cell_volume   218.75756276
_cell_formula_units_Z   2
loop_
 _symmetry_equiv_pos_site_id
 _symmetry_equiv_pos_as_xyz
  1  'x, y, z'
loop_
 _atom_site_type_symbol
 _atom_site_label
 _atom_site_symmetry_multiplicity
 _atom_site_fract_x
 _atom_site_fract_y
 _atom_site_fract_z
 _atom_site_occupancy
  Li  Li0  1  0.99974000  0.66658400  0.83332000  1
  Li  Li1  1  0.49947500  0.16637500  0.33340900  1
  Li  Li2  1  0.50114000  0.83710600  0.66406100  1
  Li  Li3  1  0.00103600  0.33242100  0.16470500  1
  Li  Li4  1  0.49906500  0.49627800  0.00260100  1
  Li  Li5  1  0.99911400  0.00091900  0.50172300  1
  Mn  Mn0  1  0.49986900  0.16685900  0.83331900  1
  Mn  Mn1  1  0.00017200  0.66681000  0.33322400  1
  Co  Co0  1  0.49984600  0.49617400  0.50361600  1
  Co  Co1  1  0.50065900  0.83723000  0.16279300  1
  Co  Co2  1  0.99973500  0.00331500  0.99684400  1
  Co  Co3  1  0.00003000  0.32988100  0.66995500  1
  O  O0  1  0.26107100  0.24375900  0.98723700  1
  O  O1  1  0.76122900  0.74319900  0.48726000  1
  O  O2  1  0.23889900  0.58992800  0.17925200  1
  O  O3  1  0.73881600  0.08964900  0.67969400  1
  O  O4  1  0.24554200  0.58514300  0.63512400  1
  O  O5  1  0.72589200  0.08452200  0.14732600  1
  O  O6  1  0.27420200  0.24884000  0.51966500  1
  O  O7  1  0.75424200  0.74804700  0.03105000  1
  O  O8  1  0.24314200  0.89393200  0.32196700  1
  O  O9  1  0.72376800  0.40205300  0.82655100  1
  O  O10  1  0.27599100  0.93128000  0.84041000  1
  O  O11  1  0.75732400  0.43969700  0.34489400  1
loop_
_geom_bond_atom_site_label_1
_geom_bond_atom_site_label_2
_geom_bond_distance
_geom_bond_site_symmetry_2
Li0 O1 2.114806 1_555
Li0 O2 2.115511 1_656
Li0 O7 2.178745 1_556
Li0 O4 2.181930 1_655
Li0 O9 2.247232 1_555
Li0 O10 2.248894 1_655
Li1 O6 2.052011 1_555
Li1 O5 2.053214 1_555
Li1 O0 2.116464 1_554
Li1 O3 2.117540 1_555
Li1 O8 2.258425 1_545
Li1 O11 2.267020 1_555
Li2 O10 2.058695 1_555
Li2 O3 2.095105 1_565
Li2 O8 2.105051 1_555
Li2 O4 2.131648 1_555
Li2 O1 2.199466 1_555
Li2 O7 2.257520 1_556
Li3 O2 2.127506 1_555
Li3 O5 2.144437 1_455
Li3 O9 2.149151 1_454
Li3 O0 2.179821 1_554
Li3 O11 2.207224 1_455
Li3 O6 2.235476 1_555
Li4 O9 2.055889 1_554
Li4 O0 2.095453 1_554
Li4 O11 2.106147 1_555
Li4 O7 2.129334 1_555
Li4 O2 2.198057 1_555
Li4 O4 2.260070 1_554
Li5 O1 2.128913 1_545
Li5 O6 2.144557 1_655
Li5 O10 2.150469 1_645
Li5 O3 2.183288 1_555
Li5 O8 2.205333 1_645
Li5 O5 2.233281 1_555
Mn0 O0 1.945441 1_555
Mn0 O3 1.946133 1_555
Mn0 O9 1.952970 1_555
Mn0 O10 1.955410 1_545
Mn0 O6 1.959516 1_555
Mn0 O5 1.962493 1_556
Mn1 O11 1.944107 1_455
Mn1 O8 1.944341 1_555
Mn1 O1 1.944430 1_455
Mn1 O2 1.945294 1_555
Mn1 O4 1.952732 1_555
Mn1 O7 1.954135 1_455
Co0 O11 1.966231 1_555
Co0 O4 1.973694 1_555
Co0 O9 2.023186 1_555
Co0 O6 2.035472 1_555
Co0 O2 2.106069 1_555
Co0 O1 2.109220 1_555
Co1 O8 1.969073 1_555
Co1 O7 1.972454 1_555
Co1 O10 2.022113 1_554
Co1 O5 2.034319 1_565
Co1 O1 2.106291 1_555
Co1 O2 2.111804 1_555
Co2 O3 2.059936 1_555
Co2 O0 2.067424 1_655
Co2 O10 2.095332 1_645
Co2 O5 2.097648 1_556
Co2 O8 2.111436 1_646
Co2 O7 2.132110 1_546
Co3 O0 2.060255 1_555
Co3 O3 2.065887 1_455
Co3 O9 2.096532 1_455
Co3 O6 2.097635 1_555
Co3 O11 2.110924 1_455
Co3 O4 2.132427 1_555
