# generated using pymatgen
data_TbTa5Ag2O15
_symmetry_space_group_name_H-M   'P 1'
_cell_length_a   12.61404000
_cell_length_b   12.61404000
_cell_length_c   3.92003500
_cell_angle_alpha   90.00000000
_cell_angle_beta   90.00000000
_cell_angle_gamma   90.00000000
_symmetry_Int_Tables_number   1
_chemical_formula_structural   TbTa5Ag2O15
_chemical_formula_sum   'Tb2 Ta10 Ag4 O30'
_cell_volume   623.73246907
_cell_formula_units_Z   2
loop_
 _symmetry_equiv_pos_site_id
 _symmetry_equiv_pos_as_xyz
  1  'x, y, z'
loop_
 _atom_site_type_symbol
 _atom_site_label
 _atom_site_symmetry_multiplicity
 _atom_site_fract_x
 _atom_site_fract_y
 _atom_site_fract_z
 _atom_site_occupancy
  Tb  Tb0  1  0.00000000  0.00000000  0.50000000  1
  Tb  Tb1  1  0.50000000  0.50000000  0.50000000  1
  Ta  Ta0  1  0.50000000  0.00000000  0.00000000  1
  Ta  Ta1  1  0.00000000  0.50000000  0.00000000  1
  Ta  Ta2  1  0.21108900  0.07855100  0.00000000  1
  Ta  Ta3  1  0.78891100  0.92144900  0.00000000  1
  Ta  Ta4  1  0.07855100  0.78891100  0.00000000  1
  Ta  Ta5  1  0.71108900  0.42144900  0.00000000  1
  Ta  Ta6  1  0.92144900  0.21108900  0.00000000  1
  Ta  Ta7  1  0.28891100  0.57855100  0.00000000  1
  Ta  Ta8  1  0.57855100  0.71108900  0.00000000  1
  Ta  Ta9  1  0.42144900  0.28891100  0.00000000  1
  Ag  Ag0  1  0.67164200  0.17164200  0.50000000  1
  Ag  Ag1  1  0.32835800  0.82835800  0.50000000  1
  Ag  Ag2  1  0.17164200  0.32835800  0.50000000  1
  Ag  Ag3  1  0.82835800  0.67164200  0.50000000  1
  O  O0  1  0.18898300  0.07983200  0.50000000  1
  O  O1  1  0.81101700  0.92016800  0.50000000  1
  O  O2  1  0.07983200  0.81101700  0.50000000  1
  O  O3  1  0.68898300  0.42016800  0.50000000  1
  O  O4  1  0.92016800  0.18898300  0.50000000  1
  O  O5  1  0.31101700  0.57983200  0.50000000  1
  O  O6  1  0.57983200  0.68898300  0.50000000  1
  O  O7  1  0.42016800  0.31101700  0.50000000  1
  O  O8  1  0.22413000  0.72413000  0.00000000  1
  O  O9  1  0.77587000  0.27587000  0.00000000  1
  O  O10  1  0.72413000  0.77587000  0.00000000  1
  O  O11  1  0.27587000  0.22413000  0.00000000  1
  O  O12  1  0.50000000  0.00000000  0.50000000  1
  O  O13  1  0.00000000  0.50000000  0.50000000  1
  O  O14  1  0.05704600  0.13026900  0.00000000  1
  O  O15  1  0.94295400  0.86973100  0.00000000  1
  O  O16  1  0.13026900  0.94295400  0.00000000  1
  O  O17  1  0.55704600  0.36973100  0.00000000  1
  O  O18  1  0.86973100  0.05704600  0.00000000  1
  O  O19  1  0.44295400  0.63026900  0.00000000  1
  O  O20  1  0.63026900  0.55704600  0.00000000  1
  O  O21  1  0.36973100  0.44295400  0.00000000  1
  O  O22  1  0.34118800  0.99951800  0.00000000  1
  O  O23  1  0.65881200  0.00048200  0.00000000  1
  O  O24  1  0.99951800  0.65881200  0.00000000  1
  O  O25  1  0.84118800  0.50048200  0.00000000  1
  O  O26  1  0.00048200  0.34118800  0.00000000  1
  O  O27  1  0.15881200  0.49951800  0.00000000  1
  O  O28  1  0.49951800  0.84118800  0.00000000  1
  O  O29  1  0.50048200  0.15881200  0.00000000  1
loop_
_geom_bond_atom_site_label_1
_geom_bond_atom_site_label_2
_geom_bond_distance
_geom_bond_site_symmetry_2
Ag0 O9 2.701616 1_555
Ag0 O9 2.701616 1_556
Ag1 O8 2.701616 1_555
Ag1 O8 2.701616 1_556
Ag2 O11 2.701616 1_556
Ag2 O11 2.701616 1_555
Ag3 O10 2.701616 1_555
Ag3 O10 2.701616 1_556
O0 Ta2 1.979819 1_555
O0 Ta2 1.979819 1_556
O0 Tb0 2.587807 1_555
O1 Ta3 1.979819 1_556
O1 Ta3 1.979819 1_555
O1 Tb0 2.587807 1_665
O2 Ta4 1.979819 1_555
O2 Ta4 1.979819 1_556
O2 Tb0 2.587807 1_565
O3 Ta5 1.979819 1_555
O3 Ta5 1.979819 1_556
O3 Tb1 2.587807 1_555
O4 Ta6 1.979819 1_556
O4 Ta6 1.979819 1_555
O4 Tb0 2.587807 1_655
O5 Ta7 1.979819 1_555
O5 Ta7 1.979819 1_556
O5 Tb1 2.587807 1_555
O6 Ta8 1.979819 1_555
O6 Ta8 1.979819 1_556
O6 Tb1 2.587807 1_555
O7 Ta9 1.979819 1_555
O7 Ta9 1.979819 1_556
O7 Tb1 2.587807 1_555
O8 Ta4 2.009944 1_555
O8 Ta7 2.009944 1_555
O9 Ta5 2.009944 1_555
O9 Ta6 2.009944 1_555
O10 Ta8 2.009944 1_555
O10 Ta3 2.009944 1_555
O11 Ta2 2.009944 1_555
O11 Ta9 2.009944 1_555
O12 Ta0 1.960017 1_555
O12 Ta0 1.960017 1_556
O13 Ta1 1.960017 1_555
O13 Ta1 1.960017 1_556
O14 Ta6 1.991198 1_455
O14 Ta2 2.049694 1_555
O14 Tb0 2.656997 1_554
O14 Tb0 2.656997 1_555
O15 Ta4 1.991198 1_655
O15 Ta3 2.049694 1_555
O15 Tb0 2.656997 1_665
O15 Tb0 2.656997 1_664
O16 Ta2 1.991198 1_565
O16 Ta4 2.049694 1_555
O16 Tb0 2.656997 1_565
O16 Tb0 2.656997 1_564
O17 Ta9 1.991198 1_555
O17 Ta5 2.049694 1_555
O17 Tb1 2.656997 1_554
O17 Tb1 2.656997 1_555
O18 Ta3 1.991198 1_545
O18 Ta6 2.049694 1_555
O18 Tb0 2.656997 1_655
O18 Tb0 2.656997 1_654
O19 Ta8 1.991198 1_555
O19 Ta7 2.049694 1_555
O19 Tb1 2.656997 1_554
O19 Tb1 2.656997 1_555
O20 Ta5 1.991198 1_555
O20 Ta8 2.049694 1_555
O20 Tb1 2.656997 1_554
O20 Tb1 2.656997 1_555
O21 Ta7 1.991198 1_555
O21 Ta9 2.049694 1_555
O21 Tb1 2.656997 1_554
O21 Tb1 2.656997 1_555
O22 Ta2 1.920152 1_565
O22 Ta0 2.003270 1_565
O23 Ta3 1.920152 1_545
O23 Ta0 2.003270 1_555
O24 Ta4 1.920152 1_655
O24 Ta1 2.003270 1_655
O25 Ta5 1.920152 1_555
O25 Ta1 2.003270 1_655
O26 Ta6 1.920152 1_455
O26 Ta1 2.003270 1_555
O27 Ta7 1.920152 1_555
O27 Ta1 2.003270 1_555
O28 Ta8 1.920152 1_555
O28 Ta0 2.003270 1_565
O29 Ta9 1.920152 1_555
O29 Ta0 2.003270 1_555
