# generated using pymatgen
data_Zn2SbWO6
_symmetry_space_group_name_H-M   'P 1'
_cell_length_a   5.46274700
_cell_length_b   5.47123100
_cell_length_c   9.74326470
_cell_angle_alpha   57.14939434
_cell_angle_beta   90.00000000
_cell_angle_gamma   90.00000000
_symmetry_Int_Tables_number   1
_chemical_formula_structural   Zn2SbWO6
_chemical_formula_sum   'Zn4 Sb2 W2 O12'
_cell_volume   244.63879455
_cell_formula_units_Z   2
loop_
 _symmetry_equiv_pos_site_id
 _symmetry_equiv_pos_as_xyz
  1  'x, y, z'
loop_
 _atom_site_type_symbol
 _atom_site_label
 _atom_site_symmetry_multiplicity
 _atom_site_fract_x
 _atom_site_fract_y
 _atom_site_fract_z
 _atom_site_occupancy
  Zn  Zn0  1  0.48240900  0.22395500  0.75382900  1
  Zn  Zn1  1  0.98240900  0.77604500  0.74617100  1
  Zn  Zn2  1  0.51759100  0.77604500  0.24617100  1
  Zn  Zn3  1  0.01759100  0.22395500  0.25382900  1
  Sb  Sb0  1  0.50000000  0.00000000  0.50000000  1
  Sb  Sb1  1  0.00000000  0.00000000  0.00000000  1
  W  W0  1  0.50000000  0.50000000  0.00000000  1
  W  W1  1  0.00000000  0.50000000  0.50000000  1
  O  O0  1  0.18267300  0.44568800  0.91669100  1
  O  O1  1  0.68267300  0.55431200  0.58330900  1
  O  O2  1  0.81732700  0.55431200  0.08330900  1
  O  O3  1  0.31732700  0.44568800  0.41669100  1
  O  O4  1  0.35534200  0.75637100  0.06425000  1
  O  O5  1  0.85534200  0.24362900  0.43575000  1
  O  O6  1  0.64465800  0.24362900  0.93575000  1
  O  O7  1  0.14465800  0.75637100  0.56425000  1
  O  O8  1  0.11827900  0.15017300  0.72752100  1
  O  O9  1  0.61827900  0.84982700  0.77247900  1
  O  O10  1  0.38172100  0.15017300  0.22752100  1
  O  O11  1  0.88172100  0.84982700  0.27247900  1
loop_
_geom_bond_atom_site_label_1
_geom_bond_atom_site_label_2
_geom_bond_distance
_geom_bond_site_symmetry_2
O0 Zn1 1.991518 1_455
O0 W0 2.003442 1_556
O0 Sb1 2.335253 1_556
O1 Zn0 1.991518 1_555
O1 W1 2.003442 1_655
O1 Sb0 2.335253 1_565
O2 Zn3 1.991518 1_655
O2 W0 2.003442 1_555
O2 Sb1 2.335253 1_665
O3 Zn2 1.991518 1_555
O3 W1 2.003442 1_555
O3 Sb0 2.335253 1_555
O4 W0 1.984046 1_555
O4 Zn2 2.036154 1_555
O4 Sb1 2.243078 1_565
O5 W1 1.984046 1_655
O5 Zn3 2.036154 1_655
O5 Sb0 2.243078 1_555
O6 W0 1.984046 1_556
O6 Zn0 2.036154 1_555
O6 Sb1 2.243078 1_656
O7 W1 1.984046 1_555
O7 Zn1 2.036154 1_455
O7 Sb0 2.243078 1_565
O8 Zn0 2.073074 1_555
O8 Zn1 2.090538 1_445
O8 W1 2.095678 1_555
O8 Sb1 2.402961 1_556
O9 Zn1 2.073074 1_555
O9 Zn0 2.090538 1_565
O9 W0 2.095678 1_556
O9 Sb0 2.402961 1_565
O10 Zn3 2.073074 1_555
O10 Zn2 2.090538 1_545
O10 W0 2.095678 1_555
O10 Sb0 2.402961 1_555
O11 Zn2 2.073074 1_555
O11 Zn3 2.090538 1_665
O11 W1 2.095678 1_655
O11 Sb1 2.402961 1_665
