# generated using pymatgen
data_Eu2CoPtO6
_symmetry_space_group_name_H-M   'P 1'
_cell_length_a   5.77793400
_cell_length_b   5.48633600
_cell_length_c   9.49080834
_cell_angle_alpha   54.87085318
_cell_angle_beta   90.00000000
_cell_angle_gamma   90.00000000
_symmetry_Int_Tables_number   1
_chemical_formula_structural   Eu2CoPtO6
_chemical_formula_sum   'Eu4 Co2 Pt2 O12'
_cell_volume   246.05693536
_cell_formula_units_Z   2
loop_
 _symmetry_equiv_pos_site_id
 _symmetry_equiv_pos_as_xyz
  1  'x, y, z'
loop_
 _atom_site_type_symbol
 _atom_site_label
 _atom_site_symmetry_multiplicity
 _atom_site_fract_x
 _atom_site_fract_y
 _atom_site_fract_z
 _atom_site_occupancy
  Eu  Eu0  1  0.06066700  0.73149900  0.75166200  1
  Eu  Eu1  1  0.93933300  0.26850100  0.24833800  1
  Eu  Eu2  1  0.56066700  0.26850100  0.74833800  1
  Eu  Eu3  1  0.43933300  0.73149900  0.25166200  1
  Co  Co0  1  0.50000000  0.50000000  0.00000000  1
  Co  Co1  1  0.00000000  0.50000000  0.50000000  1
  Pt  Pt0  1  0.50000000  0.00000000  0.50000000  1
  Pt  Pt1  1  0.00000000  0.00000000  0.00000000  1
  O  O0  1  0.46352600  0.85094200  0.75019900  1
  O  O1  1  0.53647400  0.14905800  0.24980100  1
  O  O2  1  0.96352600  0.14905800  0.74980100  1
  O  O3  1  0.03647400  0.85094200  0.25019900  1
  O  O4  1  0.79399100  0.75470900  0.55393000  1
  O  O5  1  0.20600900  0.24529100  0.44607000  1
  O  O6  1  0.29399100  0.24529100  0.94607000  1
  O  O7  1  0.70600900  0.75470900  0.05393000  1
  O  O8  1  0.30642500  0.64974100  0.54686000  1
  O  O9  1  0.69357500  0.35025900  0.45314000  1
  O  O10  1  0.80642500  0.35025900  0.95314000  1
  O  O11  1  0.19357500  0.64974100  0.04686000  1
loop_
_geom_bond_atom_site_label_1
_geom_bond_atom_site_label_2
_geom_bond_distance
_geom_bond_site_symmetry_2
Eu0 O2 2.348799 1_465
Eu0 O10 2.363554 1_455
Eu0 O4 2.374267 1_455
Eu0 O0 2.416050 1_555
Eu0 O6 2.583250 1_555
Eu0 O8 2.645565 1_555
Eu0 O11 2.682164 1_556
Eu0 O5 2.766615 1_565
Eu1 O3 2.348799 1_645
Eu1 O11 2.363554 1_655
Eu1 O5 2.374267 1_655
Eu1 O1 2.416050 1_555
Eu1 O7 2.583250 1_555
Eu1 O9 2.645565 1_555
Eu1 O10 2.682164 1_554
Eu1 O4 2.766615 1_545
Eu2 O0 2.348799 1_545
Eu2 O8 2.363554 1_555
Eu2 O6 2.374267 1_555
Eu2 O2 2.416050 1_555
Eu2 O4 2.583250 1_555
Eu2 O10 2.645565 1_555
Eu2 O9 2.682164 1_555
Eu2 O7 2.766615 1_546
Eu3 O1 2.348799 1_565
Eu3 O9 2.363554 1_555
Eu3 O7 2.374267 1_555
Eu3 O3 2.416050 1_555
Eu3 O5 2.583250 1_555
Eu3 O11 2.645565 1_555
Eu3 O8 2.682164 1_555
Eu3 O6 2.766615 1_564
Co0 O1 2.029530 1_555
Co0 O0 2.029530 1_554
Co0 O10 2.104249 1_554
Co0 O11 2.104249 1_555
Co0 O7 2.110624 1_555
Co0 O6 2.110624 1_554
Co1 O2 2.029530 1_455
Co1 O3 2.029530 1_555
Co1 O8 2.104249 1_555
Co1 O9 2.104249 1_455
Co1 O4 2.110624 1_455
Co1 O5 2.110624 1_555
O0 Pt0 2.029050 1_565
O1 Pt0 2.029050 1_555
O2 Pt1 2.029050 1_656
O3 Pt1 2.029050 1_565
O4 Pt0 2.041019 1_565
O5 Pt0 2.041019 1_555
O6 Pt1 2.041019 1_556
O7 Pt1 2.041019 1_665
O8 Pt0 2.039094 1_565
O9 Pt0 2.039094 1_555
O10 Pt1 2.039094 1_656
O11 Pt1 2.039094 1_565
