# generated using pymatgen
data_Li4Mn5CuO12
_symmetry_space_group_name_H-M   'P 1'
_cell_length_a   5.15589976
_cell_length_b   5.15589976
_cell_length_c   10.30300139
_cell_angle_alpha   89.20257307
_cell_angle_beta   89.20257307
_cell_angle_gamma   120.82292067
_symmetry_Int_Tables_number   1
_chemical_formula_structural   Li4Mn5CuO12
_chemical_formula_sum   'Li4 Mn5 Cu1 O12'
_cell_volume   235.10906916
_cell_formula_units_Z   1
loop_
 _symmetry_equiv_pos_site_id
 _symmetry_equiv_pos_as_xyz
  1  'x, y, z'
loop_
 _atom_site_type_symbol
 _atom_site_label
 _atom_site_symmetry_multiplicity
 _atom_site_fract_x
 _atom_site_fract_y
 _atom_site_fract_z
 _atom_site_occupancy
  Li  Li0  1  0.33632900  0.84077000  0.75025200  1
  Li  Li1  1  0.15923000  0.66367100  0.24974800  1
  Li  Li2  1  0.84077000  0.33632900  0.75025200  1
  Li  Li3  1  0.66367000  0.15923000  0.24974800  1
  Mn  Mn0  1  0.16400600  0.83599400  0.50000000  1
  Mn  Mn1  1  0.66439900  0.33560100  0.00000000  1
  Mn  Mn2  1  0.33560100  0.66439900  0.00000000  1
  Mn  Mn3  1  0.83599400  0.16400600  0.50000000  1
  Mn  Mn4  1  0.50000000  0.50000000  0.50000000  1
  Cu  Cu0  1  0.00000000  0.00000000  0.00000000  1
  O  O0  1  0.36651000  0.99353000  0.10663600  1
  O  O1  1  0.00647000  0.63349000  0.89336400  1
  O  O2  1  0.48247300  0.84510600  0.39307400  1
  O  O3  1  0.84510600  0.48247300  0.39307400  1
  O  O4  1  0.15489400  0.51752700  0.60692600  1
  O  O5  1  0.82431100  0.82431100  0.59330500  1
  O  O6  1  0.51752700  0.15489400  0.60692600  1
  O  O7  1  0.99353000  0.36651000  0.10663600  1
  O  O8  1  0.66034800  0.66034800  0.09244700  1
  O  O9  1  0.63349000  0.00647000  0.89336400  1
  O  O10  1  0.33965200  0.33965200  0.90755300  1
  O  O11  1  0.17568900  0.17568900  0.40669500  1
loop_
_geom_bond_atom_site_label_1
_geom_bond_atom_site_label_2
_geom_bond_distance
_geom_bond_site_symmetry_2
Li0 O9 2.001994 1_565
Li0 O6 2.005230 1_565
Li0 O1 2.057286 1_555
Li0 O4 2.083881 1_555
Li1 O7 2.001994 1_455
Li1 O3 2.005230 1_455
Li1 O0 2.057286 1_555
Li1 O2 2.083881 1_555
Li2 O1 2.001994 1_655
Li2 O4 2.005230 1_655
Li2 O9 2.057286 1_555
Li2 O6 2.083881 1_555
Li3 O0 2.001991 1_545
Li3 O2 2.005230 1_545
Li3 O7 2.057289 1_555
Li3 O3 2.083882 1_555
Mn0 O4 1.944512 1_555
Mn0 O2 1.944512 1_555
Mn0 O5 1.959259 1_455
Mn0 O11 1.959259 1_565
Mn0 O3 2.067493 1_455
Mn0 O6 2.067493 1_565
Mn1 O8 1.947004 1_555
Mn1 O10 1.947004 1_554
Mn1 O0 1.949302 1_545
Mn1 O1 1.949302 1_654
Mn1 O7 1.972765 1_555
Mn1 O9 1.972765 1_554
Mn2 O8 1.947004 1_555
Mn2 O10 1.947004 1_554
Mn2 O7 1.949302 1_455
Mn2 O9 1.949302 1_564
Mn2 O0 1.972765 1_555
Mn2 O1 1.972765 1_554
Mn3 O6 1.944512 1_555
Mn3 O3 1.944512 1_555
Mn3 O5 1.959259 1_545
Mn3 O11 1.959259 1_655
Mn3 O2 2.067493 1_545
Mn3 O4 2.067493 1_655
Mn4 O5 1.933993 1_555
Mn4 O11 1.933993 1_555
Mn4 O2 2.121515 1_555
Mn4 O3 2.121515 1_555
Mn4 O4 2.121515 1_555
Mn4 O6 2.121515 1_555
Cu0 O10 1.950676 1_554
Cu0 O8 1.950676 1_445
Cu0 O7 2.213703 1_455
Cu0 O0 2.213703 1_545
Cu0 O1 2.213703 1_544
Cu0 O9 2.213703 1_454
