# generated using pymatgen
data_Cd2B6PbO12
_symmetry_space_group_name_H-M   'P 1'
_cell_length_a   7.08654400
_cell_length_b   6.64770600
_cell_length_c   20.57122235
_cell_angle_alpha   71.35196511
_cell_angle_beta   90.00000000
_cell_angle_gamma   90.00000000
_symmetry_Int_Tables_number   1
_chemical_formula_structural   Cd2B6PbO12
_chemical_formula_sum   'Cd8 B24 Pb4 O48'
_cell_volume   918.21824347
_cell_formula_units_Z   4
loop_
 _symmetry_equiv_pos_site_id
 _symmetry_equiv_pos_as_xyz
  1  'x, y, z'
loop_
 _atom_site_type_symbol
 _atom_site_label
 _atom_site_symmetry_multiplicity
 _atom_site_fract_x
 _atom_site_fract_y
 _atom_site_fract_z
 _atom_site_occupancy
  Cd  Cd0  1  0.26854700  0.54673000  0.52596900  1
  Cd  Cd1  1  0.23145300  0.54673000  0.02596900  1
  Cd  Cd2  1  0.73145300  0.45327000  0.47403100  1
  Cd  Cd3  1  0.76854700  0.45327000  0.97403100  1
  Cd  Cd4  1  0.24724600  0.04705300  0.73565900  1
  Cd  Cd5  1  0.25275400  0.04705300  0.23565900  1
  Cd  Cd6  1  0.75275400  0.95294700  0.26434100  1
  Cd  Cd7  1  0.74724600  0.95294700  0.76434100  1
  B  B0  1  0.93725000  0.26290300  0.62613100  1
  B  B1  1  0.56275000  0.26290300  0.12613100  1
  B  B2  1  0.06275000  0.73709700  0.37386900  1
  B  B3  1  0.43725000  0.73709700  0.87386900  1
  B  B4  1  0.30957000  0.11618300  0.53511300  1
  B  B5  1  0.19043000  0.11618300  0.03511300  1
  B  B6  1  0.69043000  0.88381700  0.46488700  1
  B  B7  1  0.80957000  0.88381700  0.96488700  1
  B  B8  1  0.43137600  0.78359900  0.62271500  1
  B  B9  1  0.06862400  0.78359900  0.12271500  1
  B  B10  1  0.56862400  0.21640100  0.37728500  1
  B  B11  1  0.93137600  0.21640100  0.87728500  1
  B  B12  1  0.59299800  0.13890100  0.60880900  1
  B  B13  1  0.90700200  0.13890100  0.10880900  1
  B  B14  1  0.40700200  0.86109900  0.39119100  1
  B  B15  1  0.09299800  0.86109900  0.89119100  1
  B  B16  1  0.52979300  0.40500400  0.67683900  1
  B  B17  1  0.97020700  0.40500400  0.17683900  1
  B  B18  1  0.47020700  0.59499600  0.32316100  1
  B  B19  1  0.02979300  0.59499600  0.82316100  1
  B  B20  1  0.30776000  0.56511700  0.74104400  1
  B  B21  1  0.19224000  0.56511700  0.24104400  1
  B  B22  1  0.69224000  0.43488300  0.25895600  1
  B  B23  1  0.80776000  0.43488300  0.75895600  1
  Pb  Pb0  1  0.92575800  0.77148100  0.61170300  1
  Pb  Pb1  1  0.57424200  0.77148100  0.11170300  1
  Pb  Pb2  1  0.07424200  0.22851900  0.38829700  1
  Pb  Pb3  1  0.42575800  0.22851900  0.88829700  1
  O  O0  1  0.60095600  0.90925000  0.62411400  1
  O  O1  1  0.89904400  0.90925000  0.12411400  1
  O  O2  1  0.39904400  0.09075000  0.37588600  1
  O  O3  1  0.10095600  0.09075000  0.87588600  1
  O  O4  1  0.47143800  0.57614900  0.61587100  1
  O  O5  1  0.02856200  0.57614900  0.11587100  1
  O  O6  1  0.52856200  0.42385100  0.38412900  1
  O  O7  1  0.97143800  0.42385100  0.88412900  1
  O  O8  1  0.52883200  0.19093800  0.66999900  1
  O  O9  1  0.97116800  0.19093800  0.16999900  1
  O  O10  1  0.47116800  0.80906200  0.33000100  1
  O  O11  1  0.02883200  0.80906200  0.83000100  1
  O  O12  1  0.39636700  0.38589800  0.73529300  1
  O  O13  1  0.10363300  0.38589800  0.23529300  1
  O  O14  1  0.60363300  0.61410200  0.26470700  1
  O  O15  1  0.89636700  0.61410200  0.76470700  1
  O  O16  1  0.22062900  0.53911200  0.80305100  1
  O  O17  1  0.27937100  0.53911200  0.30305100  1
  O  O18  1  0.77937100  0.46088800  0.19694900  1
  O  O19  1  0.72062900  0.46088800  0.69694900  1
  O  O20  1  0.05254900  0.43553600  0.60733500  1
  O  O21  1  0.44745100  0.43553600  0.10733500  1
  O  O22  1  0.94745100  0.56446400  0.39266500  1
  O  O23  1  0.55254900  0.56446400  0.89266500  1
  O  O24  1  0.30525900  0.89656600  0.56470800  1
  O  O25  1  0.19474100  0.89656600  0.06470800  1
  O  O26  1  0.69474100  0.10343400  0.43529200  1
  O  O27  1  0.80525900  0.10343400  0.93529200  1
  O  O28  1  0.77996700  0.24459600  0.58468300  1
  O  O29  1  0.72003300  0.24459600  0.08468300  1
  O  O30  1  0.22003300  0.75540400  0.41531700  1
  O  O31  1  0.27996700  0.75540400  0.91531700  1
  O  O32  1  0.46182900  0.23239600  0.55003400  1
  O  O33  1  0.03817100  0.23239600  0.05003400  1
  O  O34  1  0.53817100  0.76760400  0.44996600  1
  O  O35  1  0.96182900  0.76760400  0.94996600  1
  O  O36  1  0.31774100  0.75607200  0.68941700  1
  O  O37  1  0.18225900  0.75607200  0.18941700  1
  O  O38  1  0.68225900  0.24392800  0.31058300  1
  O  O39  1  0.81774100  0.24392800  0.81058300  1
  O  O40  1  0.16810900  0.22992800  0.49687100  1
  O  O41  1  0.33189100  0.22992800  0.99687100  1
  O  O42  1  0.83189100  0.77007200  0.50312900  1
  O  O43  1  0.66810900  0.77007200  0.00312900  1
  O  O44  1  0.97021300  0.09297300  0.68477900  1
  O  O45  1  0.52978700  0.09297300  0.18477900  1
  O  O46  1  0.02978700  0.90702700  0.31522100  1
  O  O47  1  0.47021300  0.90702700  0.81522100  1
loop_
_geom_bond_atom_site_label_1
_geom_bond_atom_site_label_2
_geom_bond_distance
_geom_bond_site_symmetry_2
Cd0 O20 2.213537 1_555
Cd0 O30 2.281339 1_555
Cd0 O4 2.399388 1_555
Cd0 O32 2.413720 1_555
Cd0 O40 2.471100 1_555
Cd0 O34 2.604432 1_555
Cd0 O24 2.701183 1_555
Cd1 O21 2.213537 1_555
Cd1 O31 2.281339 1_554
Cd1 O5 2.399388 1_555
Cd1 O33 2.413720 1_555
Cd1 O41 2.471100 1_554
Cd1 O35 2.604432 1_454
Cd1 O25 2.701183 1_555
Cd2 O22 2.213537 1_555
Cd2 O28 2.281339 1_555
Cd2 O6 2.399388 1_555
Cd2 O34 2.413720 1_555
Cd2 O42 2.471100 1_555
Cd2 O32 2.604432 1_555
Cd2 O26 2.701183 1_555
Cd3 O23 2.213537 1_555
Cd3 O29 2.281339 1_556
Cd3 O7 2.399388 1_555
Cd3 O35 2.413720 1_555
Cd3 O43 2.471100 1_556
Cd3 O33 2.604432 1_656
Cd3 O27 2.701183 1_555
Cd4 O44 2.199669 1_455
Cd4 O47 2.251120 1_545
Cd4 O8 2.427962 1_555
Cd4 O36 2.464330 1_545
Cd4 O12 2.485937 1_555
Cd4 O11 2.588742 1_545
Cd5 O45 2.199669 1_555
Cd5 O46 2.251120 1_545
Cd5 O9 2.427962 1_455
Cd5 O37 2.464330 1_545
Cd5 O13 2.485937 1_555
Cd5 O10 2.588742 1_545
Cd6 O46 2.199669 1_655
Cd6 O45 2.251120 1_565
Cd6 O10 2.427962 1_555
Cd6 O38 2.464330 1_565
Cd6 O14 2.485937 1_555
Cd6 O9 2.588742 1_565
Cd7 O47 2.199669 1_555
Cd7 O44 2.251120 1_565
Cd7 O11 2.427962 1_655
Cd7 O39 2.464330 1_565
Cd7 O15 2.485937 1_555
Cd7 O8 2.588742 1_565
B0 O20 1.360278 1_655
B0 O44 1.383707 1_555
B0 O28 1.431948 1_555
B1 O21 1.360278 1_555
B1 O45 1.383707 1_555
B1 O29 1.431948 1_555
B2 O22 1.360278 1_455
B2 O46 1.383707 1_555
B2 O30 1.431948 1_555
B3 O23 1.360278 1_555
B3 O47 1.383707 1_555
B3 O31 1.431948 1_555
B4 O40 1.347280 1_555
B4 O24 1.390906 1_545
B4 O32 1.416655 1_555
B5 O41 1.347280 1_554
B5 O25 1.390906 1_545
B5 O33 1.416655 1_555
B6 O42 1.347280 1_555
B6 O26 1.390906 1_565
B6 O34 1.416655 1_555
B7 O43 1.347280 1_556
B7 O27 1.390906 1_565
B7 O35 1.416655 1_555
B8 O4 1.458222 1_555
B8 O0 1.469041 1_555
B8 O24 1.487801 1_555
B8 O36 1.550535 1_555
B9 O5 1.458222 1_555
B9 O1 1.469041 1_455
B9 O25 1.487801 1_555
B9 O37 1.550535 1_555
B10 O6 1.458222 1_555
B10 O2 1.469041 1_555
B10 O26 1.487801 1_555
B10 O38 1.550535 1_555
B11 O7 1.458222 1_555
B11 O3 1.469041 1_655
B11 O27 1.487801 1_555
B11 O39 1.550535 1_555
B12 O0 1.457941 1_545
B12 O8 1.479647 1_555
B12 O32 1.493860 1_555
B12 O28 1.507490 1_555
B13 O1 1.457941 1_545
B13 O9 1.479647 1_555
B13 O33 1.493860 1_655
B13 O29 1.507490 1_555
B14 O2 1.457941 1_565
B14 O10 1.479647 1_555
B14 O34 1.493860 1_555
B14 O30 1.507490 1_555
B15 O3 1.457941 1_565
B15 O11 1.479647 1_555
B15 O35 1.493860 1_455
B15 O31 1.507490 1_555
B16 O4 1.458041 1_555
B16 O8 1.474097 1_555
B16 O19 1.495437 1_555
B16 O12 1.502805 1_555
B17 O5 1.458041 1_655
B17 O9 1.474097 1_555
B17 O18 1.495437 1_555
B17 O13 1.502805 1_655
B18 O6 1.458041 1_555
B18 O10 1.474097 1_555
B18 O17 1.495437 1_555
B18 O14 1.502805 1_555
B19 O7 1.458041 1_455
B19 O11 1.474097 1_555
B19 O16 1.495437 1_555
B19 O15 1.502805 1_455
B20 O36 1.371920 1_555
B20 O16 1.377379 1_555
B20 O12 1.384860 1_555
B21 O37 1.371920 1_555
B21 O17 1.377379 1_555
B21 O13 1.384860 1_555
B22 O38 1.371920 1_555
B22 O18 1.377379 1_555
B22 O14 1.384860 1_555
B23 O39 1.371920 1_555
B23 O19 1.377379 1_555
B23 O15 1.384860 1_555
O0 Pb0 2.520203 1_555
O1 Pb1 2.520203 1_555
O2 Pb2 2.520203 1_555
O3 Pb3 2.520203 1_555
O16 Pb3 2.671311 1_555
O17 Pb2 2.671311 1_555
O18 Pb1 2.671311 1_555
O19 Pb0 2.671311 1_555
O20 Pb0 2.435404 1_455
O21 Pb1 2.435404 1_555
O22 Pb2 2.435404 1_655
O23 Pb3 2.435404 1_555
O40 Pb2 2.333339 1_555
O41 Pb3 2.333339 1_555
O42 Pb0 2.333339 1_555
O43 Pb1 2.333339 1_555
