# generated using pymatgen
data_UIrO3
_symmetry_space_group_name_H-M   'P 1'
_cell_length_a   4.00932800
_cell_length_b   4.00932800
_cell_length_c   4.00932800
_cell_angle_alpha   90.00000000
_cell_angle_beta   90.00000000
_cell_angle_gamma   90.00000000
_symmetry_Int_Tables_number   1
_chemical_formula_structural   UIrO3
_chemical_formula_sum   'U1 Ir1 O3'
_cell_volume   64.44878895
_cell_formula_units_Z   1
loop_
 _symmetry_equiv_pos_site_id
 _symmetry_equiv_pos_as_xyz
  1  'x, y, z'
loop_
 _atom_site_type_symbol
 _atom_site_label
 _atom_site_symmetry_multiplicity
 _atom_site_fract_x
 _atom_site_fract_y
 _atom_site_fract_z
 _atom_site_occupancy
  U  U0  1  0.00000000  0.00000000  0.00000000  1
  Ir  Ir0  1  0.50000000  0.50000000  0.50000000  1
  O  O0  1  0.50000000  0.50000000  0.00000000  1
  O  O1  1  0.50000000  0.00000000  0.50000000  1
  O  O2  1  0.00000000  0.50000000  0.50000000  1
loop_
_geom_bond_atom_site_label_1
_geom_bond_atom_site_label_2
_geom_bond_distance
_geom_bond_site_symmetry_2
Ir0 O1 2.004664 1_555
Ir0 O0 2.004664 1_555
Ir0 O2 2.004664 1_555
Ir0 O1 2.004664 1_565
Ir0 O2 2.004664 1_655
Ir0 O0 2.004664 1_556
O0 U0 2.835023 1_655
O0 U0 2.835023 1_565
O0 U0 2.835023 1_555
O0 U0 2.835023 1_665
O1 U0 2.835023 1_655
O1 U0 2.835023 1_555
O1 U0 2.835023 1_656
O1 U0 2.835023 1_556
O2 U0 2.835023 1_565
O2 U0 2.835023 1_566
O2 U0 2.835023 1_555
O2 U0 2.835023 1_556
