# generated using pymatgen
data_Rb3Pr(Cl3O)2
_symmetry_space_group_name_H-M   'P 1'
_cell_length_a   12.30939768
_cell_length_b   12.30939768
_cell_length_c   16.91910500
_cell_angle_alpha   90.00000000
_cell_angle_beta   90.00000000
_cell_angle_gamma   119.99999826
_symmetry_Int_Tables_number   1
_chemical_formula_structural   Rb3Pr(Cl3O)2
_chemical_formula_sum   'Rb18 Pr6 Cl36 O12'
_cell_volume   2220.14648494
_cell_formula_units_Z   6
loop_
 _symmetry_equiv_pos_site_id
 _symmetry_equiv_pos_as_xyz
  1  'x, y, z'
loop_
 _atom_site_type_symbol
 _atom_site_label
 _atom_site_symmetry_multiplicity
 _atom_site_fract_x
 _atom_site_fract_y
 _atom_site_fract_z
 _atom_site_occupancy
  Rb  Rb0  1  0.66666700  0.33333300  0.88869500  1
  Rb  Rb1  1  0.33333300  0.66666700  0.11130500  1
  Rb  Rb2  1  0.33333300  0.66666700  0.38869500  1
  Rb  Rb3  1  0.66666700  0.33333300  0.61130500  1
  Rb  Rb4  1  0.55484200  0.93444600  0.88273100  1
  Rb  Rb5  1  0.44515800  0.06555400  0.11726900  1
  Rb  Rb6  1  0.37960400  0.44515800  0.88273100  1
  Rb  Rb7  1  0.44515800  0.06555400  0.38273100  1
  Rb  Rb8  1  0.62039600  0.55484200  0.11726900  1
  Rb  Rb9  1  0.55484200  0.93444600  0.61726900  1
  Rb  Rb10  1  0.06555400  0.62039600  0.88273100  1
  Rb  Rb11  1  0.62039600  0.55484200  0.38273100  1
  Rb  Rb12  1  0.93444600  0.37960400  0.11726900  1
  Rb  Rb13  1  0.37960400  0.44515800  0.61726900  1
  Rb  Rb14  1  0.93444600  0.37960400  0.38273100  1
  Rb  Rb15  1  0.06555400  0.62039600  0.61726900  1
  Rb  Rb16  1  0.00000000  0.00000000  0.00000000  1
  Rb  Rb17  1  0.00000000  0.00000000  0.50000000  1
  Pr  Pr0  1  0.97000100  0.19914000  0.75000000  1
  Pr  Pr1  1  0.02999900  0.80086000  0.25000000  1
  Pr  Pr2  1  0.22914000  0.02999900  0.75000000  1
  Pr  Pr3  1  0.77086000  0.97000100  0.25000000  1
  Pr  Pr4  1  0.80086000  0.77086000  0.75000000  1
  Pr  Pr5  1  0.19914000  0.22914000  0.25000000  1
  Cl  Cl0  1  0.82607200  0.97548100  0.84751900  1
  Cl  Cl1  1  0.17392800  0.02451900  0.15248100  1
  Cl  Cl2  1  0.14940900  0.17392800  0.84751900  1
  Cl  Cl3  1  0.17392800  0.02451900  0.34751900  1
  Cl  Cl4  1  0.85059100  0.82607200  0.15248100  1
  Cl  Cl5  1  0.82607200  0.97548100  0.65248100  1
  Cl  Cl6  1  0.02451900  0.85059100  0.84751900  1
  Cl  Cl7  1  0.85059100  0.82607200  0.34751900  1
  Cl  Cl8  1  0.97548100  0.14940900  0.15248100  1
  Cl  Cl9  1  0.14940900  0.17392800  0.65248100  1
  Cl  Cl10  1  0.97548100  0.14940900  0.34751900  1
  Cl  Cl11  1  0.02451900  0.85059100  0.65248100  1
  Cl  Cl12  1  0.57882900  0.70338400  0.96753700  1
  Cl  Cl13  1  0.42117100  0.29661600  0.03246300  1
  Cl  Cl14  1  0.12455500  0.42117100  0.96753700  1
  Cl  Cl15  1  0.42117100  0.29661600  0.46753700  1
  Cl  Cl16  1  0.87544500  0.57882900  0.03246300  1
  Cl  Cl17  1  0.57882900  0.70338400  0.53246300  1
  Cl  Cl18  1  0.29661600  0.87544500  0.96753700  1
  Cl  Cl19  1  0.87544500  0.57882900  0.46753700  1
  Cl  Cl20  1  0.70338400  0.12455500  0.03246300  1
  Cl  Cl21  1  0.12455500  0.42117100  0.53246300  1
  Cl  Cl22  1  0.70338400  0.12455500  0.46753700  1
  Cl  Cl23  1  0.29661600  0.87544500  0.53246300  1
  Cl  Cl24  1  0.72825600  0.17886100  0.75000000  1
  Cl  Cl25  1  0.27174400  0.82113900  0.25000000  1
  Cl  Cl26  1  0.45060500  0.27174400  0.75000000  1
  Cl  Cl27  1  0.54939500  0.72825600  0.25000000  1
  Cl  Cl28  1  0.82113900  0.54939500  0.75000000  1
  Cl  Cl29  1  0.17886100  0.45060500  0.25000000  1
  Cl  Cl30  1  0.53470500  0.68124500  0.75000000  1
  Cl  Cl31  1  0.46529500  0.31875500  0.25000000  1
  Cl  Cl32  1  0.14654000  0.46529500  0.75000000  1
  Cl  Cl33  1  0.85346000  0.53470500  0.25000000  1
  Cl  Cl34  1  0.31875500  0.85346000  0.75000000  1
  Cl  Cl35  1  0.68124500  0.14654000  0.25000000  1
  O  O0  1  0.98092900  0.34451400  0.85416700  1
  O  O1  1  0.01907100  0.65548600  0.14583300  1
  O  O2  1  0.36358600  0.01907100  0.85416700  1
  O  O3  1  0.01907100  0.65548600  0.35416700  1
  O  O4  1  0.63641400  0.98092900  0.14583300  1
  O  O5  1  0.98092900  0.34451400  0.64583300  1
  O  O6  1  0.65548600  0.63641400  0.85416700  1
  O  O7  1  0.63641400  0.98092900  0.35416700  1
  O  O8  1  0.34451400  0.36358600  0.14583300  1
  O  O9  1  0.36358600  0.01907100  0.64583300  1
  O  O10  1  0.34451400  0.36358600  0.35416700  1
  O  O11  1  0.65548600  0.63641400  0.64583300  1
loop_
_geom_bond_atom_site_label_1
_geom_bond_atom_site_label_2
_geom_bond_distance
_geom_bond_site_symmetry_2
Cl0 Pr4 2.895008 1_555
Cl0 Pr0 2.926279 1_565
Cl0 Rb4 3.173392 1_555
Cl0 Rb16 3.268665 1_666
Cl1 Pr5 2.895008 1_555
Cl1 Pr1 2.926279 1_545
Cl1 Rb5 3.173392 1_555
Cl1 Rb16 3.268665 1_555
Cl2 Pr0 2.894998 1_455
Cl2 Pr2 2.926287 1_555
Cl2 Rb6 3.173392 1_555
Cl2 Rb16 3.268665 1_556
Cl3 Pr5 2.895008 1_555
Cl3 Pr1 2.926279 1_545
Cl3 Rb7 3.173392 1_555
Cl3 Rb17 3.268665 1_555
Cl4 Pr1 2.894998 1_655
Cl4 Pr3 2.926287 1_555
Cl4 Rb8 3.173392 1_555
Cl4 Rb16 3.268665 1_665
Cl5 Pr4 2.895008 1_555
Cl5 Pr0 2.926279 1_565
Cl5 Rb9 3.173392 1_555
Cl5 Rb17 3.268665 1_665
Cl6 Pr2 2.895004 1_565
Cl6 Pr4 2.926277 1_455
Cl6 Rb10 3.173392 1_555
Cl6 Rb16 3.268665 1_566
Cl7 Pr1 2.894998 1_655
Cl7 Pr3 2.926287 1_555
Cl7 Rb11 3.173392 1_555
Cl7 Rb17 3.268665 1_665
Cl8 Pr3 2.895004 1_545
Cl8 Pr5 2.926277 1_655
Cl8 Rb12 3.173392 1_555
Cl8 Rb16 3.268665 1_655
Cl9 Pr0 2.894998 1_455
Cl9 Pr2 2.926287 1_555
Cl9 Rb13 3.173392 1_555
Cl9 Rb17 3.268665 1_555
Cl10 Pr3 2.895004 1_545
Cl10 Pr5 2.926277 1_655
Cl10 Rb14 3.173392 1_555
Cl10 Rb17 3.268665 1_655
Cl11 Pr2 2.895004 1_565
Cl11 Pr4 2.926277 1_455
Cl11 Rb15 3.173392 1_555
Cl11 Rb17 3.268665 1_565
Cl12 O6 2.454995 1_555
Cl12 Rb6 3.221996 1_555
Cl12 Rb8 3.310348 1_556
Cl12 Rb4 3.327976 1_555
Cl12 Rb1 3.726540 1_556
Cl13 O8 2.454995 1_555
Cl13 Rb8 3.221996 1_555
Cl13 Rb6 3.310348 1_554
Cl13 Rb5 3.327976 1_555
Cl13 Rb0 3.726540 1_554
Cl14 O0 2.454989 1_455
Cl14 Rb10 3.221996 1_555
Cl14 Rb12 3.310348 1_456
Cl14 Rb6 3.327976 1_555
Cl14 Rb1 3.726537 1_556
Cl15 O10 2.454995 1_555
Cl15 Rb11 3.221996 1_555
Cl15 Rb13 3.310348 1_555
Cl15 Rb7 3.327976 1_555
Cl15 Rb3 3.726540 1_555
Cl16 O1 2.454989 1_655
Cl16 Rb12 3.221996 1_555
Cl16 Rb10 3.310348 1_654
Cl16 Rb8 3.327976 1_555
Cl16 Rb0 3.726537 1_554
Cl17 O11 2.454995 1_555
Cl17 Rb13 3.221996 1_555
Cl17 Rb11 3.310348 1_555
Cl17 Rb9 3.327976 1_555
Cl17 Rb2 3.726540 1_555
Cl18 O2 2.454988 1_565
Cl18 Rb4 3.221996 1_555
Cl18 Rb5 3.310348 1_566
Cl18 Rb10 3.327976 1_555
Cl18 Rb1 3.726531 1_556
Cl19 O3 2.454989 1_655
Cl19 Rb14 3.221996 1_555
Cl19 Rb15 3.310348 1_655
Cl19 Rb11 3.327976 1_555
Cl19 Rb3 3.726537 1_555
Cl20 O4 2.454988 1_545
Cl20 Rb5 3.221996 1_555
Cl20 Rb4 3.310348 1_544
Cl20 Rb12 3.327976 1_555
Cl20 Rb0 3.726531 1_554
Cl21 O5 2.454989 1_455
Cl21 Rb15 3.221996 1_555
Cl21 Rb14 3.310348 1_455
Cl21 Rb13 3.327976 1_555
Cl21 Rb2 3.726537 1_555
Cl22 O7 2.454988 1_545
Cl22 Rb7 3.221996 1_555
Cl22 Rb9 3.310348 1_545
Cl22 Rb14 3.327976 1_555
Cl22 Rb3 3.726531 1_555
Cl23 O9 2.454988 1_565
Cl23 Rb9 3.221996 1_555
Cl23 Rb7 3.310348 1_565
Cl23 Rb15 3.327976 1_555
Cl23 Rb2 3.726531 1_555
Cl24 Pr0 2.859109 1_555
Cl24 Rb3 3.337415 1_555
Cl24 Rb0 3.337415 1_555
Cl24 Rb4 3.497026 1_545
Cl24 Rb9 3.497026 1_545
Cl25 Pr1 2.859109 1_555
Cl25 Rb2 3.337415 1_555
Cl25 Rb1 3.337415 1_555
Cl25 Rb5 3.497026 1_565
Cl25 Rb7 3.497026 1_565
Cl26 Pr2 2.859103 1_555
Cl26 Rb0 3.337424 1_555
Cl26 Rb3 3.337424 1_555
Cl26 Rb6 3.497026 1_555
Cl26 Rb13 3.497026 1_555
Cl27 Pr3 2.859103 1_555
Cl27 Rb2 3.337424 1_555
Cl27 Rb1 3.337424 1_555
Cl27 Rb8 3.497026 1_555
Cl27 Rb11 3.497026 1_555
Cl28 Pr4 2.859096 1_555
Cl28 Rb3 3.337421 1_555
Cl28 Rb0 3.337421 1_555
Cl28 Rb10 3.497026 1_655
Cl28 Rb15 3.497026 1_655
Cl29 Pr5 2.859096 1_555
Cl29 Rb2 3.337421 1_555
Cl29 Rb1 3.337421 1_555
Cl29 Rb14 3.497026 1_455
Cl29 Rb12 3.497026 1_455
Cl30 Pr4 2.887278 1_555
Cl30 Rb6 3.403706 1_555
Cl30 Rb13 3.403706 1_555
Cl30 Rb4 3.747818 1_555
Cl30 Rb9 3.747818 1_555
Cl31 Pr5 2.887278 1_555
Cl31 Rb8 3.403706 1_555
Cl31 Rb11 3.403706 1_555
Cl31 Rb5 3.747818 1_555
Cl31 Rb7 3.747818 1_555
Cl32 Pr0 2.887276 1_455
Cl32 Rb10 3.403706 1_555
Cl32 Rb15 3.403706 1_555
Cl32 Rb6 3.747818 1_555
Cl32 Rb13 3.747818 1_555
Cl33 Pr1 2.887276 1_655
Cl33 Rb12 3.403706 1_555
Cl33 Rb14 3.403706 1_555
Cl33 Rb8 3.747818 1_555
Cl33 Rb11 3.747818 1_555
Cl34 Pr2 2.887266 1_565
Cl34 Rb4 3.403706 1_555
Cl34 Rb9 3.403706 1_555
Cl34 Rb10 3.747818 1_555
Cl34 Rb15 3.747818 1_555
Cl35 Pr3 2.887266 1_545
Cl35 Rb5 3.403706 1_555
Cl35 Rb7 3.403706 1_555
Cl35 Rb14 3.747818 1_555
Cl35 Rb12 3.747818 1_555
O0 Pr0 2.466915 1_555
O0 Rb10 3.051816 1_655
O1 Pr1 2.466915 1_555
O1 Rb12 3.051816 1_455
O2 Pr2 2.466915 1_555
O2 Rb4 3.051805 1_545
O3 Pr1 2.466915 1_555
O3 Rb14 3.051816 1_455
O4 Pr3 2.466915 1_555
O4 Rb5 3.051805 1_565
O5 Pr0 2.466915 1_555
O5 Rb15 3.051816 1_655
O6 Pr4 2.466915 1_555
O6 Rb6 3.051814 1_555
O7 Pr3 2.466915 1_555
O7 Rb7 3.051805 1_565
O8 Pr5 2.466915 1_555
O8 Rb8 3.051814 1_555
O9 Pr2 2.466915 1_555
O9 Rb9 3.051805 1_545
O10 Pr5 2.466915 1_555
O10 Rb11 3.051814 1_555
O11 Pr4 2.466915 1_555
O11 Rb13 3.051814 1_555
