# generated using pymatgen
data_Li11Fe5(OF11)2
_symmetry_space_group_name_H-M   'P 1'
_cell_length_a   5.16196100
_cell_length_b   8.76569767
_cell_length_c   9.56349962
_cell_angle_alpha   90.40093575
_cell_angle_beta   90.59588448
_cell_angle_gamma   90.42896588
_symmetry_Int_Tables_number   1
_chemical_formula_structural   Li11Fe5(OF11)2
_chemical_formula_sum   'Li11 Fe5 O2 F22'
_cell_volume   432.68468062
_cell_formula_units_Z   1
loop_
 _symmetry_equiv_pos_site_id
 _symmetry_equiv_pos_as_xyz
  1  'x, y, z'
loop_
 _atom_site_type_symbol
 _atom_site_label
 _atom_site_symmetry_multiplicity
 _atom_site_fract_x
 _atom_site_fract_y
 _atom_site_fract_z
 _atom_site_occupancy
  Li  Li0  1  0.79311100  0.14219500  0.44154300  1
  Li  Li1  1  0.18799700  0.15516500  0.13700200  1
  Li  Li2  1  0.31286300  0.35887900  0.86168500  1
  Li  Li3  1  0.68496800  0.33541200  0.14417800  1
  Li  Li4  1  0.28669000  0.34809900  0.43545300  1
  Li  Li5  1  0.69237200  0.65368500  0.93959400  1
  Li  Li6  1  0.31149600  0.66599700  0.63271800  1
  Li  Li7  1  0.68790200  0.65692500  0.36019600  1
  Li  Li8  1  0.20136800  0.85136300  0.35467300  1
  Li  Li9  1  0.81680800  0.84049100  0.63465700  1
  Li  Li10  1  0.19476400  0.85220900  0.93845300  1
  Fe  Fe0  1  0.33367000  0.01495100  0.63296800  1
  Fe  Fe1  1  0.81548000  0.13652000  0.86350200  1
  Fe  Fe2  1  0.81440300  0.48457500  0.63368500  1
  Fe  Fe3  1  0.18015300  0.52013000  0.13551100  1
  Fe  Fe4  1  0.70728100  0.97330300  0.13680300  1
  O  O0  1  0.64219000  0.01059700  0.73803700  1
  O  O1  1  0.97415200  0.01669900  0.00509600  1
  F  F0  1  0.15197600  0.17267500  0.76021800  1
  F  F1  1  0.44705100  0.16931400  0.50075000  1
  F  F2  1  0.53361900  0.16947300  0.01060600  1
  F  F3  1  0.84367400  0.15613200  0.24606300  1
  F  F4  1  0.33637800  0.34527600  0.23786300  1
  F  F5  1  0.02219200  0.34338900  0.01321500  1
  F  F6  1  0.94719300  0.32978100  0.51159900  1
  F  F7  1  0.66724100  0.33656900  0.77058700  1
  F  F8  1  0.48197300  0.49136500  0.01279900  1
  F  F9  1  0.13375200  0.50008400  0.73838600  1
  F  F10  1  0.86856200  0.50054800  0.24252700  1
  F  F11  1  0.50536900  0.50747700  0.51371700  1
  F  F12  1  0.34717100  0.66141500  0.26130200  1
  F  F13  1  0.03752000  0.66529600  0.00663000  1
  F  F14  1  0.96175700  0.65374300  0.52008000  1
  F  F15  1  0.65504600  0.65250500  0.74193400  1
  F  F16  1  0.15954900  0.84501200  0.73863700  1
  F  F17  1  0.47015300  0.83794800  0.51373100  1
  F  F18  1  0.53132200  0.82936200  0.01190200  1
  F  F19  1  0.85786200  0.82999600  0.26396900  1
  F  F20  1  0.02056600  0.98675400  0.50928300  1
  F  F21  1  0.38240500  0.99869000  0.23644700  1
loop_
_geom_bond_atom_site_label_1
_geom_bond_atom_site_label_2
_geom_bond_distance
_geom_bond_site_symmetry_2
Li1 O1 2.052458 1_455
Li9 O0 2.007822 1_565
Li10 O1 1.951629 1_466
Fe0 O0 1.874985 1_555
Fe1 O0 1.844619 1_555
Fe1 O1 1.901950 1_556
Fe4 O1 1.914135 1_565
F0 Fe1 2.031016 1_455
F0 Li2 2.058211 1_555
F0 Fe0 2.071646 1_555
F1 Li4 1.885095 1_555
F1 Li0 1.895699 1_555
F1 Fe0 1.949301 1_555
F2 Fe1 2.054916 1_554
F2 Li3 2.072234 1_555
F2 Li1 2.168754 1_555
F2 Fe4 2.290568 1_545
F2 Li2 2.472060 1_554
F3 Li0 1.894953 1_555
F3 Fe4 2.024919 1_545
F3 Li3 2.028378 1_555
F3 Li1 2.070188 1_655
F4 Li4 1.909635 1_555
F4 Fe3 1.995186 1_555
F4 Li3 2.020609 1_555
F4 Li1 2.058441 1_555
F5 Fe3 2.090182 1_555
F5 Li2 2.101123 1_554
F5 Li3 2.156032 1_455
F5 Li1 2.209892 1_555
F5 Fe1 2.525811 1_454
F6 Li4 1.910814 1_655
F6 Fe2 1.919007 1_555
F6 Li0 1.933699 1_555
F7 Fe2 2.001028 1_555
F7 Li2 2.044424 1_555
F7 Fe1 2.116104 1_555
F8 Li5 1.923746 1_554
F8 Fe3 1.976839 1_555
F8 Li2 2.033310 1_554
F8 Li3 2.136243 1_555
F9 Fe2 1.923265 1_455
F9 Li2 1.947356 1_555
F9 Li6 1.999508 1_555
F10 Fe3 1.922626 1_655
F10 Li3 1.954485 1_555
F10 Li7 2.008576 1_555
F11 Li4 1.931422 1_555
F11 Fe2 1.967565 1_555
F11 Li6 2.061534 1_555
F11 Li7 2.190149 1_555
F12 Fe3 1.914648 1_555
F12 Li7 1.989098 1_555
F12 Li8 2.036680 1_555
F13 Li5 1.888974 1_454
F13 Fe3 1.922911 1_555
F13 Li10 1.942789 1_554
F14 Fe2 1.995177 1_555
F14 Li7 2.072040 1_555
F14 Li6 2.094326 1_655
F14 Li9 2.109621 1_555
F15 Li5 1.898069 1_555
F15 Fe2 1.982360 1_555
F15 Li6 2.053339 1_555
F15 Li9 2.118021 1_555
F16 Li10 1.918237 1_555
F16 Fe0 2.016932 1_565
F16 Li9 2.020484 1_455
F16 Li6 2.028878 1_555
F17 Fe0 2.052395 1_565
F17 Li8 2.052758 1_555
F17 Li6 2.064555 1_555
F17 Li9 2.120366 1_555
F17 Li7 2.442486 1_555
F18 Li10 1.879766 1_554
F18 Li5 1.885981 1_554
F18 Fe4 1.944989 1_555
F19 Fe4 1.917695 1_555
F19 Li8 1.972921 1_655
F19 Li7 1.983571 1_555
F20 Li0 1.917096 1_465
F20 Fe0 2.005646 1_565
F20 Li9 2.053101 1_455
F20 Li8 2.118147 1_555
F21 Fe4 1.950848 1_555
F21 Li1 1.952404 1_565
F21 Li8 1.960561 1_555
