# generated using pymatgen
data_H5NO
_symmetry_space_group_name_H-M   'P 1'
_cell_length_a   6.94419400
_cell_length_b   6.99803500
_cell_length_c   19.29290600
_cell_angle_alpha   90.00000000
_cell_angle_beta   90.00000000
_cell_angle_gamma   90.00000000
_symmetry_Int_Tables_number   1
_chemical_formula_structural   H5NO
_chemical_formula_sum   'H80 N16 O16'
_cell_volume   937.55251633
_cell_formula_units_Z   16
loop_
 _symmetry_equiv_pos_site_id
 _symmetry_equiv_pos_as_xyz
  1  'x, y, z'
loop_
 _atom_site_type_symbol
 _atom_site_label
 _atom_site_symmetry_multiplicity
 _atom_site_fract_x
 _atom_site_fract_y
 _atom_site_fract_z
 _atom_site_occupancy
  H  H0  1  0.47121600  0.33585300  0.53609600  1
  H  H1  1  0.52878400  0.16414700  0.03609600  1
  H  H2  1  0.02878400  0.83585300  0.46390400  1
  H  H3  1  0.97121600  0.66414700  0.96390400  1
  H  H4  1  0.52878400  0.66414700  0.46390400  1
  H  H5  1  0.47121600  0.83585300  0.96390400  1
  H  H6  1  0.97121600  0.16414700  0.53609600  1
  H  H7  1  0.02878400  0.33585300  0.03609600  1
  H  H8  1  0.63508600  0.17058400  0.54505800  1
  H  H9  1  0.36491400  0.32941600  0.04505800  1
  H  H10  1  0.86491400  0.67058400  0.45494200  1
  H  H11  1  0.13508600  0.82941600  0.95494200  1
  H  H12  1  0.36491400  0.82941600  0.45494200  1
  H  H13  1  0.63508600  0.67058400  0.95494200  1
  H  H14  1  0.13508600  0.32941600  0.54505800  1
  H  H15  1  0.86491400  0.17058400  0.04505800  1
  H  H16  1  0.65749100  0.33299500  0.48286100  1
  H  H17  1  0.34250900  0.16700500  0.98286100  1
  H  H18  1  0.84250900  0.83299500  0.51713900  1
  H  H19  1  0.15749100  0.66700500  0.01713900  1
  H  H20  1  0.34250900  0.66700500  0.51713900  1
  H  H21  1  0.65749100  0.83299500  0.01713900  1
  H  H22  1  0.15749100  0.16700500  0.48286100  1
  H  H23  1  0.84250900  0.33299500  0.98286100  1
  H  H24  1  0.75443400  0.66655100  0.62561000  1
  H  H25  1  0.24556600  0.83344900  0.12561000  1
  H  H26  1  0.74556600  0.16655100  0.37439000  1
  H  H27  1  0.25443400  0.33344900  0.87439000  1
  H  H28  1  0.24556600  0.33344900  0.37439000  1
  H  H29  1  0.75443400  0.16655100  0.87439000  1
  H  H30  1  0.25443400  0.83344900  0.62561000  1
  H  H31  1  0.74556600  0.66655100  0.12561000  1
  H  H32  1  0.73629400  0.45591300  0.59335800  1
  H  H33  1  0.26370600  0.04408700  0.09335800  1
  H  H34  1  0.76370600  0.95591300  0.40664200  1
  H  H35  1  0.23629400  0.54408700  0.90664200  1
  H  H36  1  0.26370600  0.54408700  0.40664200  1
  H  H37  1  0.73629400  0.95591300  0.90664200  1
  H  H38  1  0.23629400  0.04408700  0.59335800  1
  H  H39  1  0.76370600  0.45591300  0.09335800  1
  H  H40  1  0.54178000  0.41161700  0.69588800  1
  H  H41  1  0.45822000  0.08838300  0.19588800  1
  H  H42  1  0.95822000  0.91161700  0.30411200  1
  H  H43  1  0.04178000  0.58838300  0.80411200  1
  H  H44  1  0.45822000  0.58838300  0.30411200  1
  H  H45  1  0.54178000  0.91161700  0.80411200  1
  H  H46  1  0.04178000  0.08838300  0.69588800  1
  H  H47  1  0.95822000  0.41161700  0.19588800  1
  H  H48  1  0.37475100  0.38722900  0.75658400  1
  H  H49  1  0.62524900  0.11277100  0.25658400  1
  H  H50  1  0.12524900  0.88722900  0.24341600  1
  H  H51  1  0.87475100  0.61277100  0.74341600  1
  H  H52  1  0.62524900  0.61277100  0.24341600  1
  H  H53  1  0.37475100  0.88722900  0.74341600  1
  H  H54  1  0.87475100  0.11277100  0.75658400  1
  H  H55  1  0.12524900  0.38722900  0.25658400  1
  H  H56  1  0.38615900  0.23368100  0.69142700  1
  H  H57  1  0.61384100  0.26631900  0.19142700  1
  H  H58  1  0.11384100  0.73368100  0.30857300  1
  H  H59  1  0.88615900  0.76631900  0.80857300  1
  H  H60  1  0.61384100  0.76631900  0.30857300  1
  H  H61  1  0.38615900  0.73368100  0.80857300  1
  H  H62  1  0.88615900  0.26631900  0.69142700  1
  H  H63  1  0.11384100  0.23368100  0.19142700  1
  H  H64  1  0.05519300  0.57122200  0.62076800  1
  H  H65  1  0.94480700  0.92877800  0.12076800  1
  H  H66  1  0.44480700  0.07122200  0.37923200  1
  H  H67  1  0.55519300  0.42877800  0.87923200  1
  H  H68  1  0.94480700  0.42877800  0.37923200  1
  H  H69  1  0.05519300  0.07122200  0.87923200  1
  H  H70  1  0.55519300  0.92877800  0.62076800  1
  H  H71  1  0.44480700  0.57122200  0.12076800  1
  H  H72  1  0.26492100  0.51473900  0.65072200  1
  H  H73  1  0.73507900  0.98526100  0.15072200  1
  H  H74  1  0.23507900  0.01473900  0.34927800  1
  H  H75  1  0.76492100  0.48526100  0.84927800  1
  H  H76  1  0.73507900  0.48526100  0.34927800  1
  H  H77  1  0.26492100  0.01473900  0.84927800  1
  H  H78  1  0.76492100  0.98526100  0.65072200  1
  H  H79  1  0.23507900  0.51473900  0.15072200  1
  N  N0  1  0.61615900  0.31244300  0.53341900  1
  N  N1  1  0.38384100  0.18755700  0.03341900  1
  N  N2  1  0.88384100  0.81244300  0.46658100  1
  N  N3  1  0.11615900  0.68755700  0.96658100  1
  N  N4  1  0.38384100  0.68755700  0.46658100  1
  N  N5  1  0.61615900  0.81244300  0.96658100  1
  N  N6  1  0.11615900  0.18755700  0.53341900  1
  N  N7  1  0.88384100  0.31244300  0.03341900  1
  N  N8  1  0.40116300  0.37465400  0.70452900  1
  N  N9  1  0.59883700  0.12534600  0.20452900  1
  N  N10  1  0.09883700  0.87465400  0.29547100  1
  N  N11  1  0.90116300  0.62534600  0.79547100  1
  N  N12  1  0.59883700  0.62534600  0.29547100  1
  N  N13  1  0.40116300  0.87465400  0.79547100  1
  N  N14  1  0.90116300  0.12534600  0.70452900  1
  N  N15  1  0.09883700  0.37465400  0.20452900  1
  O  O0  1  0.80251400  0.53267500  0.63133100  1
  O  O1  1  0.19748600  0.96732500  0.13133100  1
  O  O2  1  0.69748600  0.03267500  0.36866900  1
  O  O3  1  0.30251400  0.46732500  0.86866900  1
  O  O4  1  0.19748600  0.46732500  0.36866900  1
  O  O5  1  0.80251400  0.03267500  0.86866900  1
  O  O6  1  0.30251400  0.96732500  0.63133100  1
  O  O7  1  0.69748600  0.53267500  0.13133100  1
  O  O8  1  0.19562900  0.59275100  0.61355900  1
  O  O9  1  0.80437100  0.90724900  0.11355900  1
  O  O10  1  0.30437100  0.09275100  0.38644100  1
  O  O11  1  0.69562900  0.40724900  0.88644100  1
  O  O12  1  0.80437100  0.40724900  0.38644100  1
  O  O13  1  0.19562900  0.09275100  0.88644100  1
  O  O14  1  0.69562900  0.90724900  0.61355900  1
  O  O15  1  0.30437100  0.59275100  0.11355900  1
loop_
_geom_bond_atom_site_label_1
_geom_bond_atom_site_label_2
_geom_bond_distance
_geom_bond_site_symmetry_2
H0 N0 1.021065 1_555
H1 N1 1.021065 1_555
H2 N2 1.021065 1_455
H3 N3 1.021065 1_655
H4 N4 1.021065 1_555
H5 N5 1.021065 1_555
H6 N6 1.021065 1_655
H7 N7 1.021065 1_455
H8 N0 1.026264 1_555
H9 N1 1.026264 1_555
H10 N2 1.026264 1_555
H11 N3 1.026264 1_555
H12 N4 1.026264 1_555
H13 N5 1.026264 1_555
H14 N6 1.026264 1_555
H15 N7 1.026264 1_555
H16 N0 1.026884 1_555
H17 N1 1.026884 1_556
H18 N2 1.026884 1_555
H19 N3 1.026884 1_554
H20 N4 1.026884 1_555
H21 N5 1.026884 1_554
H22 N6 1.026884 1_555
H23 N7 1.026884 1_556
H24 O0 1.000690 1_555
H25 O1 1.000690 1_555
H26 O2 1.000690 1_555
H27 O3 1.000690 1_555
H28 O4 1.000690 1_555
H29 O5 1.000690 1_555
H30 O6 1.000690 1_555
H31 O7 1.000690 1_555
H32 O0 1.018204 1_555
H33 O1 1.018204 1_545
H34 O2 1.018204 1_565
H35 O3 1.018204 1_555
H36 O4 1.018204 1_555
H37 O5 1.018204 1_565
H38 O6 1.018204 1_545
H39 O7 1.018204 1_555
H40 N8 1.023816 1_555
H41 N9 1.023816 1_555
H42 N10 1.023816 1_655
H43 N11 1.023816 1_455
H44 N12 1.023816 1_555
H45 N13 1.023816 1_555
H46 N14 1.023816 1_455
H47 N15 1.023816 1_655
H48 N8 1.024688 1_555
H49 N9 1.024688 1_555
H50 N10 1.024688 1_555
H51 N11 1.024688 1_555
H52 N12 1.024688 1_555
H53 N13 1.024688 1_555
H54 N14 1.024688 1_555
H55 N15 1.024688 1_555
H56 N8 1.023719 1_555
H57 N9 1.023719 1_555
H58 N10 1.023719 1_555
H59 N11 1.023719 1_555
H60 N12 1.023719 1_555
H61 N13 1.023719 1_555
H62 N14 1.023719 1_555
H63 N15 1.023719 1_555
H64 O8 0.996537 1_555
H65 O9 0.996537 1_555
H66 O10 0.996537 1_555
H67 O11 0.996537 1_555
H68 O12 0.996537 1_555
H69 O13 0.996537 1_555
H70 O14 0.996537 1_555
H71 O15 0.996537 1_555
H72 O8 1.021585 1_555
H73 O9 1.021585 1_555
H74 O10 1.021585 1_555
H75 O11 1.021585 1_555
H76 O12 1.021585 1_555
H77 O13 1.021585 1_555
H78 O14 1.021585 1_555
H79 O15 1.021585 1_555
