# generated using pymatgen
data_ZnNiTe3O8
_symmetry_space_group_name_H-M   'P 1'
_cell_length_a   5.19382889
_cell_length_b   6.75686629
_cell_length_c   11.59189676
_cell_angle_alpha   98.05373120
_cell_angle_beta   90.00713384
_cell_angle_gamma   67.41473118
_symmetry_Int_Tables_number   1
_chemical_formula_structural   ZnNiTe3O8
_chemical_formula_sum   'Zn2 Ni2 Te6 O16'
_cell_volume   371.26142655
_cell_formula_units_Z   2
loop_
 _symmetry_equiv_pos_site_id
 _symmetry_equiv_pos_as_xyz
  1  'x, y, z'
loop_
 _atom_site_type_symbol
 _atom_site_label
 _atom_site_symmetry_multiplicity
 _atom_site_fract_x
 _atom_site_fract_y
 _atom_site_fract_z
 _atom_site_occupancy
  Zn  Zn0  1  0.53464369  0.53903835  0.15214361  1
  Zn  Zn1  1  0.07359629  0.46106587  0.34779549  1
  Ni  Ni0  1  0.45501620  0.46872316  0.85471162  1
  Ni  Ni1  1  0.92357137  0.53141090  0.64527813  1
  Te  Te0  1  0.82860564  0.72661564  0.94021913  1
  Te  Te1  1  0.55494039  0.27331232  0.55985501  1
  Te  Te2  1  0.17738670  0.26696577  0.05052288  1
  Te  Te3  1  0.44511859  0.73299698  0.44936470  1
  Te  Te4  1  0.32740434  -0.00001123  0.75006868  1
  Te  Te5  1  0.66275924  0.00026073  0.24992309  1
  O  O0  1  0.23459832  0.52536023  0.02310006  1
  O  O1  1  0.76025968  0.47463323  0.47692541  1
  O  O2  1  0.78887939  0.46295118  0.96417852  1
  O  O3  1  0.25193283  0.53708885  0.53587724  1
  O  O4  1  0.51545988  0.83862493  0.14491266  1
  O  O5  1  0.35397224  0.16127887  0.35498164  1
  O  O6  1  0.47646025  0.16352491  0.85342790  1
  O  O7  1  0.63996599  0.83662665  0.64668827  1
  O  O8  1  0.47517219  0.77315983  0.86564981  1
  O  O9  1  0.24802125  0.22680614  0.63443082  1
  O  O10  1  0.51809282  0.22664734  0.13508440  1
  O  O11  1  0.74529335  0.77336348  0.36480416  1
  O  O12  1  0.05795468  0.60275513  0.80161879  1
  O  O13  1  0.66071975  0.39712340  0.69843486  1
  O  O14  1  0.94472769  0.40013045  0.18779780  1
  O  O15  1  0.34544824  0.59954688  0.31220433  1
loop_
_geom_bond_atom_site_label_1
_geom_bond_atom_site_label_2
_geom_bond_distance
_geom_bond_site_symmetry_2
Ni0 O13 2.003769 1_555
Ni0 O6 2.019953 1_555
Ni0 O12 2.042837 1_555
Ni0 O8 2.085849 1_555
Ni0 O2 2.140077 1_555
Ni0 O0 2.172983 1_556
Ni1 O12 2.004307 1_655
Ni1 O7 2.019971 1_555
Ni1 O13 2.043318 1_555
Ni1 O9 2.086877 1_655
Ni1 O3 2.140727 1_655
Ni1 O1 2.171372 1_555
O0 Te2 1.947223 1_555
O0 Zn0 2.178534 1_555
O0 Te0 2.319850 1_454
O1 Te3 1.946807 1_555
O1 Zn1 2.178312 1_655
O1 Te1 2.322205 1_555
O2 Te0 1.927336 1_555
O2 Te2 2.268368 1_656
O2 Zn0 2.433268 1_556
O3 Te1 1.927380 1_555
O3 Te3 2.270931 1_555
O3 Zn1 2.434406 1_555
O4 Te5 1.878534 1_565
O4 Zn0 2.001806 1_555
O4 Te0 2.720376 1_554
O5 Te5 1.878266 1_555
O5 Zn1 2.003038 1_555
O5 Te1 2.721236 1_555
O6 Te4 1.881954 1_555
O6 Te2 2.615483 1_556
O7 Te4 1.882377 1_565
O7 Te3 2.615603 1_555
O8 Te0 1.961664 1_555
O8 Te4 2.098746 1_565
O9 Te1 1.961732 1_555
O9 Te4 2.098990 1_555
O10 Te2 1.967369 1_555
O10 Te5 2.089022 1_555
O10 Zn0 2.127044 1_555
O11 Te3 1.966672 1_555
O11 Te5 2.091583 1_565
O11 Zn1 2.125766 1_655
O12 Te0 1.886432 1_455
O13 Te1 1.886395 1_555
O14 Te2 1.888411 1_655
O14 Zn1 2.013638 1_655
O14 Zn0 2.039901 1_555
O15 Te3 1.888284 1_555
O15 Zn0 2.013603 1_555
O15 Zn1 2.040214 1_555
