# generated using pymatgen
data_BaLa2TiCr2O9
_symmetry_space_group_name_H-M   'P 1'
_cell_length_a   5.64101364
_cell_length_b   8.82028785
_cell_length_c   7.91752400
_cell_angle_alpha   89.99995791
_cell_angle_beta   90.00000512
_cell_angle_gamma   71.35186282
_symmetry_Int_Tables_number   1
_chemical_formula_structural   BaLa2TiCr2O9
_chemical_formula_sum   'Ba2 La4 Ti2 Cr4 O18'
_cell_volume   373.25751646
_cell_formula_units_Z   2
loop_
 _symmetry_equiv_pos_site_id
 _symmetry_equiv_pos_as_xyz
  1  'x, y, z'
loop_
 _atom_site_type_symbol
 _atom_site_label
 _atom_site_symmetry_multiplicity
 _atom_site_fract_x
 _atom_site_fract_y
 _atom_site_fract_z
 _atom_site_occupancy
  Ba  Ba0  1  0.00000100  0.00000100  0.00000200  1
  Ba  Ba1  1  0.00000100  0.00000200  0.49999800  1
  La  La0  1  0.32848600  0.34299000  0.00000100  1
  La  La1  1  0.32849700  0.34298900  0.49999100  1
  La  La2  1  0.67150300  0.65701500  0.00000200  1
  La  La3  1  0.67148600  0.65701900  0.50001200  1
  Ti  Ti0  1  0.50000100  0.00000600  0.24999900  1
  Ti  Ti1  1  0.50000100  0.99999800  0.74999900  1
  Cr  Cr0  1  0.83297200  0.33402300  0.74999900  1
  Cr  Cr1  1  0.16703000  0.66597200  0.25000300  1
  Cr  Cr2  1  0.83297800  0.33405100  0.25000600  1
  Cr  Cr3  1  0.16701700  0.66595800  0.74999800  1
  O  O0  1  0.50000300  0.99999700  0.00000000  1
  O  O1  1  0.50000100  0.99999700  0.50000000  1
  O  O2  1  0.00001100  0.50000600  0.25000000  1
  O  O3  1  0.99999000  0.49999500  0.74999700  1
  O  O4  1  0.49999400  0.50000400  0.24999800  1
  O  O5  1  0.50000100  0.49999500  0.74999600  1
  O  O6  1  0.17480400  0.65042400  0.00000000  1
  O  O7  1  0.17481200  0.65042500  0.49999800  1
  O  O8  1  0.82519100  0.34957600  0.00000100  1
  O  O9  1  0.82519500  0.34957200  0.50000100  1
  O  O10  1  0.35020600  0.82716700  0.25000000  1
  O  O11  1  0.35020500  0.82716300  0.75000000  1
  O  O12  1  0.64980300  0.17283300  0.25000000  1
  O  O13  1  0.64979900  0.17282500  0.74999800  1
  O  O14  1  0.82260400  0.82714900  0.25000200  1
  O  O15  1  0.82260600  0.82715000  0.74999900  1
  O  O16  1  0.17739700  0.17285200  0.25000000  1
  O  O17  1  0.17740300  0.17284800  0.75000100  1
loop_
_geom_bond_atom_site_label_1
_geom_bond_atom_site_label_2
_geom_bond_distance
_geom_bond_site_symmetry_2
Ba0 O0 2.820507 1_445
Ba0 O0 2.820507 1_545
Ba0 O12 2.866775 1_455
Ba0 O13 2.866795 1_454
Ba0 O10 2.866799 1_545
Ba0 O11 2.866830 1_544
Ba0 O16 2.866939 1_555
Ba0 O17 2.866949 1_554
Ba0 O14 2.866957 1_445
Ba0 O15 2.866964 1_444
Ba0 O8 2.921476 1_455
Ba0 O6 2.921493 1_545
Ba1 O1 2.820493 1_545
Ba1 O1 2.820521 1_445
Ba1 O12 2.866770 1_455
Ba1 O13 2.866772 1_455
Ba1 O10 2.866803 1_545
Ba1 O11 2.866831 1_545
Ba1 O16 2.866932 1_555
Ba1 O14 2.866943 1_445
Ba1 O17 2.866956 1_555
Ba1 O15 2.866957 1_445
Ba1 O9 2.921435 1_455
Ba1 O7 2.921493 1_545
La0 O6 2.569295 1_555
La0 O2 2.761920 1_555
La0 O3 2.761980 1_454
La0 O4 2.762012 1_555
La0 O5 2.762027 1_554
La0 O16 2.777456 1_555
La0 O17 2.777469 1_554
La0 O12 2.777783 1_555
La0 O13 2.777820 1_554
La0 O8 2.821031 1_555
La0 O8 2.821056 1_455
La0 O0 2.866469 1_545
La1 O7 2.569311 1_555
La1 O2 2.761907 1_555
La1 O4 2.761961 1_555
La1 O5 2.762002 1_555
La1 O3 2.762027 1_455
La1 O16 2.777436 1_555
La1 O17 2.777548 1_555
La1 O12 2.777707 1_555
La1 O13 2.777808 1_555
La1 O9 2.820983 1_555
La1 O9 2.821104 1_455
La1 O1 2.866461 1_545
La2 O8 2.569336 1_555
La2 O2 2.761990 1_655
La2 O4 2.761991 1_555
La2 O3 2.761999 1_554
La2 O5 2.762078 1_554
La2 O14 2.777473 1_555
La2 O15 2.777499 1_554
La2 O10 2.777710 1_555
La2 O11 2.777722 1_554
La2 O6 2.821012 1_555
La2 O6 2.821077 1_655
La2 O0 2.866377 1_555
La3 O9 2.569403 1_555
La3 O5 2.761924 1_555
La3 O3 2.761943 1_555
La3 O4 2.762067 1_555
La3 O2 2.762130 1_655
La3 O15 2.777434 1_555
La3 O14 2.777551 1_555
La3 O11 2.777587 1_555
La3 O10 2.777730 1_555
La3 O7 2.820880 1_555
La3 O7 2.821210 1_655
La3 O1 2.866344 1_555
Cr0 O5 1.978031 1_555
Cr0 O3 1.978067 1_555
Cr0 O9 1.983626 1_555
Cr0 O8 1.983660 1_556
Cr0 O13 2.007174 1_555
Cr0 O17 2.007385 1_655
Cr1 O4 1.977987 1_555
Cr1 O2 1.978023 1_555
Cr1 O7 1.983601 1_555
Cr1 O6 1.983665 1_555
Cr1 O10 2.007164 1_555
Cr1 O14 2.007371 1_455
Cr2 O2 1.977993 1_655
Cr2 O4 1.978010 1_555
Cr2 O9 1.983587 1_555
Cr2 O8 1.983668 1_555
Cr2 O12 2.007337 1_555
Cr2 O16 2.007419 1_655
Cr3 O3 1.978032 1_455
Cr3 O5 1.978048 1_555
Cr3 O7 1.983633 1_555
Cr3 O6 1.983649 1_556
Cr3 O11 2.007291 1_555
Cr3 O15 2.007361 1_455
O0 Ti0 1.979373 1_565
O0 Ti1 1.979389 1_554
O1 Ti1 1.979373 1_555
O1 Ti0 1.979389 1_565
O10 Ti0 1.965171 1_565
O11 Ti1 1.965142 1_555
O12 Ti0 1.965101 1_555
O13 Ti1 1.965086 1_545
O14 Ti0 1.965169 1_565
O15 Ti1 1.965138 1_555
O16 Ti0 1.965126 1_555
O17 Ti1 1.965120 1_545
