# generated using pymatgen
data_LaSbSe3
_symmetry_space_group_name_H-M   'P 1'
_cell_length_a   4.11809900
_cell_length_b   11.18400800
_cell_length_c   12.25545800
_cell_angle_alpha   90.00000000
_cell_angle_beta   90.00000000
_cell_angle_gamma   90.00000000
_symmetry_Int_Tables_number   1
_chemical_formula_structural   LaSbSe3
_chemical_formula_sum   'La4 Sb4 Se12'
_cell_volume   564.44781727
_cell_formula_units_Z   4
loop_
 _symmetry_equiv_pos_site_id
 _symmetry_equiv_pos_as_xyz
  1  'x, y, z'
loop_
 _atom_site_type_symbol
 _atom_site_label
 _atom_site_symmetry_multiplicity
 _atom_site_fract_x
 _atom_site_fract_y
 _atom_site_fract_z
 _atom_site_occupancy
  La  La0  1  0.75000000  0.50287400  0.68187200  1
  La  La1  1  0.75000000  0.99712600  0.18187200  1
  La  La2  1  0.25000000  0.49712600  0.31812800  1
  La  La3  1  0.25000000  0.00287400  0.81812800  1
  Sb  Sb0  1  0.25000000  0.19191800  0.53441000  1
  Sb  Sb1  1  0.25000000  0.30808200  0.03441000  1
  Sb  Sb2  1  0.75000000  0.80808200  0.46559000  1
  Sb  Sb3  1  0.75000000  0.69191800  0.96559000  1
  Se  Se0  1  0.25000000  0.30519500  0.72141200  1
  Se  Se1  1  0.25000000  0.19480500  0.22141200  1
  Se  Se2  1  0.75000000  0.69480500  0.27858800  1
  Se  Se3  1  0.75000000  0.80519500  0.77858800  1
  Se  Se4  1  0.25000000  0.63416300  0.53960700  1
  Se  Se5  1  0.25000000  0.86583700  0.03960700  1
  Se  Se6  1  0.75000000  0.36583700  0.46039300  1
  Se  Se7  1  0.75000000  0.13416300  0.96039300  1
  Se  Se8  1  0.75000000  0.04474600  0.62505400  1
  Se  Se9  1  0.75000000  0.45525400  0.12505400  1
  Se  Se10  1  0.25000000  0.95525400  0.37494600  1
  Se  Se11  1  0.25000000  0.54474600  0.87494600  1
loop_
_geom_bond_atom_site_label_1
_geom_bond_atom_site_label_2
_geom_bond_distance
_geom_bond_site_symmetry_2
La0 Se0 3.059793 1_555
La0 Se0 3.059793 1_655
La0 Se4 3.071737 1_555
La0 Se4 3.071737 1_655
La0 Se6 3.117130 1_555
La0 Se11 3.171425 1_555
La0 Se11 3.171425 1_655
La0 Se3 3.582901 1_555
La1 Se1 3.059793 1_565
La1 Se1 3.059793 1_665
La1 Se5 3.071737 1_655
La1 Se5 3.071737 1_555
La1 Se7 3.117130 1_564
La1 Se10 3.171425 1_655
La1 Se10 3.171425 1_555
La1 Se2 3.582901 1_555
La2 Se2 3.059793 1_455
La2 Se2 3.059793 1_555
La2 Se6 3.071737 1_455
La2 Se6 3.071737 1_555
La2 Se4 3.117130 1_555
La2 Se9 3.171425 1_455
La2 Se9 3.171425 1_555
La2 Se1 3.582901 1_555
La3 Se3 3.059793 1_545
La3 Se3 3.059793 1_445
La3 Se7 3.071737 1_455
La3 Se7 3.071737 1_555
La3 Se5 3.117130 1_546
La3 Se8 3.171425 1_555
La3 Se8 3.171425 1_455
La3 Se0 3.582901 1_555
Sb0 Se0 2.618652 1_555
Sb0 Se8 2.860590 1_455
Sb0 Se8 2.860590 1_555
Sb0 Se6 2.974222 1_555
Sb0 Se6 2.974222 1_455
Sb1 Se1 2.618652 1_555
Sb1 Se9 2.860590 1_455
Sb1 Se9 2.860590 1_555
Sb1 Se7 2.974222 1_554
Sb1 Se7 2.974222 1_454
Sb2 Se2 2.618652 1_555
Sb2 Se10 2.860590 1_555
Sb2 Se10 2.860590 1_655
Sb2 Se4 2.974222 1_655
Sb2 Se4 2.974222 1_555
Sb3 Se3 2.618652 1_555
Sb3 Se11 2.860590 1_555
Sb3 Se11 2.860590 1_655
Sb3 Se5 2.974222 1_656
Sb3 Se5 2.974222 1_556
