# generated using pymatgen
data_Tb(P3Ru)4
_symmetry_space_group_name_H-M   'P 1'
_cell_length_a   6.99947885
_cell_length_b   6.99947885
_cell_length_c   6.99947885
_cell_angle_alpha   109.47122063
_cell_angle_beta   109.47122063
_cell_angle_gamma   109.47122063
_symmetry_Int_Tables_number   1
_chemical_formula_structural   Tb(P3Ru)4
_chemical_formula_sum   'Tb1 P12 Ru4'
_cell_volume   263.98255417
_cell_formula_units_Z   1
loop_
 _symmetry_equiv_pos_site_id
 _symmetry_equiv_pos_as_xyz
  1  'x, y, z'
loop_
 _atom_site_type_symbol
 _atom_site_label
 _atom_site_symmetry_multiplicity
 _atom_site_fract_x
 _atom_site_fract_y
 _atom_site_fract_z
 _atom_site_occupancy
  Tb  Tb0  1  0.00000000  0.00000000  0.00000000  1
  P  P0  1  0.14288300  0.78579300  0.64291000  1
  P  P1  1  0.14288300  0.49997300  0.35709000  1
  P  P2  1  0.85711700  0.50002700  0.64291000  1
  P  P3  1  0.35709000  0.14288300  0.49997300  1
  P  P4  1  0.78579300  0.64291000  0.14288300  1
  P  P5  1  0.85711700  0.21420700  0.35709000  1
  P  P6  1  0.64291000  0.14288300  0.78579300  1
  P  P7  1  0.50002700  0.64291000  0.85711700  1
  P  P8  1  0.64291000  0.85711700  0.50002700  1
  P  P9  1  0.49997300  0.35709000  0.14288300  1
  P  P10  1  0.35709000  0.85711700  0.21420700  1
  P  P11  1  0.21420700  0.35709000  0.85711700  1
  Ru  Ru0  1  0.50000000  0.00000000  0.00000000  1
  Ru  Ru1  1  0.50000000  0.50000000  0.50000000  1
  Ru  Ru2  1  0.00000000  0.50000000  0.00000000  1
  Ru  Ru3  1  0.00000000  0.00000000  0.50000000  1
loop_
_geom_bond_atom_site_label_1
_geom_bond_atom_site_label_2
_geom_bond_distance
_geom_bond_site_symmetry_2
P0 P2 2.309647 1_455
P0 P1 2.310084 1_555
P0 Ru3 2.362499 1_565
P0 Ru0 2.362499 1_566
P0 Tb0 3.108576 1_566
P1 P5 2.309647 1_455
P1 Ru2 2.362499 1_555
P1 Ru1 2.362499 1_555
P1 Tb0 3.108576 1_555
P2 P5 2.310084 1_555
P2 Ru1 2.362499 1_555
P2 Ru2 2.362499 1_656
P2 Tb0 3.108576 1_666
P3 P6 2.310084 1_555
P3 Ru3 2.362499 1_555
P3 Ru1 2.362499 1_555
P3 Tb0 3.108576 1_555
P4 P7 2.309647 1_554
P4 P9 2.310084 1_555
P4 Ru2 2.362499 1_655
P4 Ru3 2.362499 1_665
P4 Tb0 3.108576 1_665
P5 Ru3 2.362499 1_655
P5 Ru0 2.362499 1_555
P5 Tb0 3.108576 1_655
P6 P8 2.309647 1_545
P6 Ru0 2.362499 1_556
P6 Ru2 2.362499 1_656
P6 Tb0 3.108576 1_656
P7 Ru1 2.362499 1_555
P7 Ru0 2.362499 1_566
P7 Tb0 3.108576 1_666
P8 Ru1 2.362499 1_555
P8 Ru3 2.362499 1_665
P8 Tb0 3.108576 1_666
P9 Ru0 2.362499 1_555
P9 Ru1 2.362499 1_555
P9 Tb0 3.108576 1_555
P10 P3 2.309647 1_565
P10 P8 2.310084 1_555
P10 Ru0 2.362499 1_565
P10 Ru2 2.362499 1_555
P10 Tb0 3.108576 1_565
P11 P9 2.309647 1_556
P11 P7 2.310084 1_555
P11 Ru3 2.362499 1_555
P11 Ru2 2.362499 1_556
P11 Tb0 3.108576 1_556
