# generated using pymatgen
data_CeSi2Ni9
_symmetry_space_group_name_H-M   'P 1'
_cell_length_a   7.56353826
_cell_length_b   7.56353826
_cell_length_c   7.56353826
_cell_angle_alpha   99.52670495
_cell_angle_beta   99.52670495
_cell_angle_gamma   131.98880800
_symmetry_Int_Tables_number   1
_chemical_formula_structural   CeSi2Ni9
_chemical_formula_sum   'Ce2 Si4 Ni18'
_cell_volume   293.78940282
_cell_formula_units_Z   2
loop_
 _symmetry_equiv_pos_site_id
 _symmetry_equiv_pos_as_xyz
  1  'x, y, z'
loop_
 _atom_site_type_symbol
 _atom_site_label
 _atom_site_symmetry_multiplicity
 _atom_site_fract_x
 _atom_site_fract_y
 _atom_site_fract_z
 _atom_site_occupancy
  Ce  Ce0  1  0.50000000  0.50000000  0.00000000  1
  Ce  Ce1  1  0.75000000  0.25000000  0.50000000  1
  Si  Si0  1  0.62500000  0.87500000  0.75000000  1
  Si  Si1  1  0.12500000  0.37500000  0.25000000  1
  Si  Si2  1  0.12500000  0.87500000  0.75000000  1
  Si  Si3  1  0.12500000  0.87500000  0.25000000  1
  Ni  Ni0  1  0.25000000  0.75000000  0.50000000  1
  Ni  Ni1  1  0.00000000  0.00000000  0.00000000  1
  Ni  Ni2  1  0.68750000  0.01431700  0.07866900  1
  Ni  Ni3  1  0.68750000  0.60883200  0.67318300  1
  Ni  Ni4  1  0.26431700  0.43750000  0.57866900  1
  Ni  Ni5  1  0.26431700  0.68564800  0.82681700  1
  Ni  Ni6  1  0.93564800  0.01431700  0.32681700  1
  Ni  Ni7  1  0.93564800  0.60883200  0.92133100  1
  Ni  Ni8  1  0.85883200  0.43750000  0.17318300  1
  Ni  Ni9  1  0.85883200  0.68564800  0.42133100  1
  Ni  Ni10  1  0.56250000  0.73568300  0.42133100  1
  Ni  Ni11  1  0.56250000  0.14116800  0.82681700  1
  Ni  Ni12  1  0.98568300  0.31250000  0.92133100  1
  Ni  Ni13  1  0.98568300  0.06435200  0.67318300  1
  Ni  Ni14  1  0.31435200  0.73568300  0.17318300  1
  Ni  Ni15  1  0.31435200  0.14116800  0.57866900  1
  Ni  Ni16  1  0.39116800  0.31250000  0.32681700  1
  Ni  Ni17  1  0.39116800  0.06435200  0.07866900  1
loop_
_geom_bond_atom_site_label_1
_geom_bond_atom_site_label_2
_geom_bond_distance
_geom_bond_site_symmetry_2
Ce0 Ni17 3.011813 1_555
Ce0 Ni7 3.011813 1_554
Ce0 Ni2 3.011816 1_565
Ce0 Ni6 3.011816 1_565
Ce0 Ni13 3.011816 1_454
Ce0 Ni12 3.011816 1_454
Ce0 Ni3 3.011817 1_554
Ce0 Ni16 3.011817 1_555
Ce0 Ni1 3.077043 1_665
Ce0 Ni1 3.077043 1_555
Ce0 Ni10 3.170173 1_555
Ce0 Ni4 3.170173 1_554
Ce0 Ni5 3.170173 1_554
Ce0 Ni14 3.170173 1_555
Ce0 Ni9 3.170176 1_555
Ce0 Ni15 3.170176 1_554
Ce0 Ni11 3.170179 1_554
Ce0 Ni8 3.170179 1_555
Ce0 Si0 3.360539 1_554
Ce0 Si1 3.360539 1_555
Ce0 Si2 3.360539 1_544
Ce0 Si3 3.360539 1_655
Ce1 Ni15 3.011813 1_555
Ce1 Ni9 3.011813 1_555
Ce1 Ni14 3.011816 1_545
Ce1 Ni10 3.011816 1_545
Ce1 Ni5 3.011816 1_655
Ce1 Ni4 3.011816 1_655
Ce1 Ni11 3.011817 1_555
Ce1 Ni8 3.011817 1_555
Ce1 Ni0 3.077043 1_545
Ce1 Ni0 3.077043 1_655
Ce1 Ni13 3.170173 1_555
Ce1 Ni6 3.170173 1_555
Ce1 Ni2 3.170173 1_555
Ce1 Ni12 3.170173 1_555
Ce1 Ni7 3.170176 1_555
Ce1 Ni17 3.170176 1_555
Ce1 Ni16 3.170179 1_555
Ce1 Ni3 3.170179 1_555
Ce1 Si1 3.360539 1_655
Ce1 Si2 3.360539 1_655
Ce1 Si0 3.360539 1_545
Ce1 Si3 3.360539 1_545
Ni0 Si2 2.561079 1_555
Ni0 Si0 2.561079 1_555
Ni0 Si3 2.561079 1_555
Ni0 Si1 2.561079 1_555
Ni0 Ni9 2.595962 1_455
Ni0 Ni15 2.595962 1_565
Ni0 Ni8 2.595967 1_455
Ni0 Ni11 2.595967 1_565
Ni0 Ni4 2.595970 1_555
Ni0 Ni5 2.595970 1_555
Ni0 Ni10 2.595970 1_555
Ni0 Ni14 2.595970 1_555
Ni1 Si3 2.561079 1_545
Ni1 Si0 2.561079 1_444
Ni1 Si1 2.561079 1_555
Ni1 Si2 2.561079 1_544
Ni1 Ni7 2.595962 1_444
Ni1 Ni17 2.595962 1_555
Ni1 Ni16 2.595967 1_555
Ni1 Ni3 2.595967 1_444
Ni1 Ni2 2.595970 1_455
Ni1 Ni12 2.595970 1_454
Ni1 Ni13 2.595970 1_454
Ni1 Ni6 2.595970 1_455
Ni2 Si1 2.324545 1_655
Ni2 Si0 2.364524 1_544
Ni2 Ni8 2.412785 1_555
Ni2 Ni5 2.412788 1_544
Ni2 Ni6 2.424723 1_555
Ni3 Si2 2.324546 1_655
Ni3 Si0 2.364517 1_555
Ni3 Ni4 2.412785 1_555
Ni3 Ni9 2.412792 1_555
Ni3 Ni7 2.424723 1_555
Ni4 Si0 2.324545 1_555
Ni4 Si1 2.364524 1_555
Ni4 Ni6 2.412788 1_455
Ni4 Ni5 2.424723 1_555
Ni5 Si0 2.324545 1_555
Ni5 Si2 2.364524 1_555
Ni5 Ni7 2.412791 1_455
Ni6 Si1 2.324545 1_655
Ni6 Si3 2.364524 1_645
Ni6 Ni9 2.412791 1_545
Ni7 Si2 2.324541 1_655
Ni7 Si3 2.364522 1_656
Ni7 Ni8 2.412792 1_556
Ni8 Si3 2.324546 1_655
Ni8 Si1 2.364517 1_655
Ni8 Ni9 2.424723 1_555
Ni9 Si3 2.324541 1_655
Ni9 Si2 2.364522 1_655
Ni10 Si1 2.324545 1_555
Ni10 Si0 2.364524 1_555
Ni10 Ni16 2.412785 1_555
Ni10 Ni13 2.412788 1_565
Ni10 Ni14 2.424723 1_555
Ni10 Ni6 2.475132 1_565
Ni10 Ni9 2.510300 1_555
Ni10 Ni4 2.561324 1_555
Ni10 Ni3 2.581764 1_555
Ni11 Si2 2.324546 1_545
Ni11 Si0 2.364517 1_545
Ni11 Ni12 2.412785 1_555
Ni11 Ni17 2.412792 1_556
Ni11 Ni15 2.424723 1_555
Ni11 Ni7 2.475141 1_555
Ni11 Ni8 2.510294 1_556
Ni11 Ni5 2.561319 1_545
Ni11 Ni2 2.581764 1_556
Ni12 Si0 2.324545 1_545
Ni12 Si1 2.364524 1_656
Ni12 Ni14 2.412788 1_656
Ni12 Ni13 2.424723 1_555
Ni12 Ni5 2.475132 1_655
Ni12 Ni7 2.510300 1_555
Ni12 Ni2 2.561324 1_556
Ni12 Ni8 2.581764 1_556
Ni13 Si0 2.324545 1_545
Ni13 Si2 2.364524 1_645
Ni13 Ni15 2.412791 1_655
Ni13 Ni4 2.475132 1_655
Ni13 Ni6 2.510292 1_555
Ni13 Ni3 2.561319 1_545
Ni13 Ni9 2.581773 1_545
Ni14 Si1 2.324545 1_555
Ni14 Si3 2.364524 1_555
Ni14 Ni17 2.412791 1_565
Ni14 Ni2 2.475132 1_565
Ni14 Ni5 2.510292 1_554
Ni14 Ni8 2.561319 1_455
Ni14 Ni7 2.581773 1_454
Ni15 Si2 2.324541 1_545
Ni15 Si3 2.364522 1_545
Ni15 Ni16 2.412792 1_555
Ni15 Ni3 2.475141 1_555
Ni15 Ni4 2.510300 1_555
Ni15 Ni9 2.561319 1_445
Ni15 Ni6 2.581773 1_455
Ni16 Si3 2.324546 1_545
Ni16 Si1 2.364517 1_555
Ni16 Ni17 2.424723 1_555
Ni16 Ni9 2.475141 1_555
Ni16 Ni3 2.510294 1_555
Ni16 Ni6 2.561319 1_455
Ni16 Ni4 2.581764 1_555
Ni17 Si3 2.324541 1_545
Ni17 Si2 2.364522 1_544
Ni17 Ni8 2.475141 1_555
Ni17 Ni2 2.510300 1_555
Ni17 Ni7 2.561319 1_444
Ni17 Ni5 2.581773 1_544
