# generated using pymatgen
data_Sr2MnGaO5F
_symmetry_space_group_name_H-M   'P 1'
_cell_length_a   3.88232100
_cell_length_b   4.02042200
_cell_length_c   7.79322300
_cell_angle_alpha   90.00000000
_cell_angle_beta   90.00000000
_cell_angle_gamma   90.00000000
_symmetry_Int_Tables_number   1
_chemical_formula_structural   Sr2MnGaO5F
_chemical_formula_sum   'Sr2 Mn1 Ga1 O5 F1'
_cell_volume   121.64105705
_cell_formula_units_Z   1
loop_
 _symmetry_equiv_pos_site_id
 _symmetry_equiv_pos_as_xyz
  1  'x, y, z'
loop_
 _atom_site_type_symbol
 _atom_site_label
 _atom_site_symmetry_multiplicity
 _atom_site_fract_x
 _atom_site_fract_y
 _atom_site_fract_z
 _atom_site_occupancy
  Sr  Sr0  1  0.50000000  0.50000000  0.76375400  1
  Sr  Sr1  1  0.50000000  0.50000000  0.23624600  1
  Mn  Mn0  1  0.00000000  0.00000000  0.00000000  1
  Ga  Ga0  1  0.00000000  0.00000000  0.50000000  1
  O  O0  1  0.50000000  0.00000000  0.00000000  1
  O  O1  1  0.00000000  0.50000000  0.00000000  1
  O  O2  1  0.00000000  0.00000000  0.75121600  1
  O  O3  1  0.00000000  0.00000000  0.24878400  1
  O  O4  1  0.50000000  0.00000000  0.50000000  1
  F  F0  1  0.00000000  0.50000000  0.50000000  1
loop_
_geom_bond_atom_site_label_1
_geom_bond_atom_site_label_2
_geom_bond_distance
_geom_bond_site_symmetry_2
Mn0 O2 1.938829 1_554
Mn0 O3 1.938829 1_555
Mn0 O0 1.941161 1_555
Mn0 O0 1.941161 1_455
Mn0 O1 2.010211 1_545
Mn0 O1 2.010211 1_555
Ga0 O4 1.941161 1_555
Ga0 O4 1.941161 1_455
Ga0 O2 1.957782 1_555
Ga0 O3 1.957782 1_555
O0 Sr0 2.725924 1_554
O0 Sr0 2.725924 1_544
O0 Sr1 2.725924 1_555
O0 Sr1 2.725924 1_545
O1 Sr0 2.675410 1_554
O1 Sr0 2.675410 1_454
O1 Sr1 2.675410 1_555
O1 Sr1 2.675410 1_455
O2 Sr0 2.796176 1_445
O2 Sr0 2.796176 1_545
O2 Sr0 2.796176 1_455
O2 Sr0 2.796176 1_555
O3 Sr1 2.796176 1_555
O3 Sr1 2.796176 1_445
O3 Sr1 2.796176 1_545
O3 Sr1 2.796176 1_455
O4 Sr1 2.875066 1_555
O4 Sr1 2.875066 1_545
O4 Sr0 2.875066 1_555
O4 Sr0 2.875066 1_545
F0 Ga0 2.010211 1_555
F0 Ga0 2.010211 1_565
F0 Sr1 2.827217 1_555
F0 Sr1 2.827217 1_455
F0 Sr0 2.827217 1_455
F0 Sr0 2.827217 1_555
