# generated using pymatgen
data_Sm23Mg4Ni7
_symmetry_space_group_name_H-M   'P 1'
_cell_length_a   9.88849117
_cell_length_b   9.88849117
_cell_length_c   22.38926210
_cell_angle_alpha   90.00000000
_cell_angle_beta   90.00000000
_cell_angle_gamma   120.00000370
_symmetry_Int_Tables_number   1
_chemical_formula_structural   Sm23Mg4Ni7
_chemical_formula_sum   'Sm46 Mg8 Ni14'
_cell_volume   1895.96561304
_cell_formula_units_Z   2
loop_
 _symmetry_equiv_pos_site_id
 _symmetry_equiv_pos_as_xyz
  1  'x, y, z'
loop_
 _atom_site_type_symbol
 _atom_site_label
 _atom_site_symmetry_multiplicity
 _atom_site_fract_x
 _atom_site_fract_y
 _atom_site_fract_z
 _atom_site_occupancy
  Sm  Sm0  1  0.20756799  0.41513598  0.71914944  1
  Sm  Sm1  1  0.20756799  0.79243201  0.71914944  1
  Sm  Sm2  1  0.79243201  0.58486402  0.21914944  1
  Sm  Sm3  1  0.58486402  0.79243201  0.71914944  1
  Sm  Sm4  1  0.79243201  0.20756799  0.21914944  1
  Sm  Sm5  1  0.41513598  0.20756799  0.21914944  1
  Sm  Sm6  1  0.79213675  0.58427350  0.94780006  1
  Sm  Sm7  1  0.79213675  0.20786325  0.94780006  1
  Sm  Sm8  1  0.20786325  0.41572650  0.44780006  1
  Sm  Sm9  1  0.41572650  0.20786325  0.94780006  1
  Sm  Sm10  1  0.20786325  0.79213675  0.44780006  1
  Sm  Sm11  1  0.58427350  0.79213675  0.44780006  1
  Sm  Sm12  1  0.21124688  0.42249376  0.99095383  1
  Sm  Sm13  1  0.21124688  0.78875312  0.99095383  1
  Sm  Sm14  1  0.78875312  0.57750624  0.49095383  1
  Sm  Sm15  1  0.57750624  0.78875312  0.99095383  1
  Sm  Sm16  1  0.78875312  0.21124688  0.49095383  1
  Sm  Sm17  1  0.42249376  0.21124688  0.49095383  1
  Sm  Sm18  1  0.87130624  0.74261249  0.63394947  1
  Sm  Sm19  1  0.87130624  0.12869376  0.63394947  1
  Sm  Sm20  1  0.12869376  0.25738751  0.13394947  1
  Sm  Sm21  1  0.25738751  0.12869376  0.63394947  1
  Sm  Sm22  1  0.12869376  0.87130624  0.13394947  1
  Sm  Sm23  1  0.74261249  0.87130624  0.13394947  1
  Sm  Sm24  1  0.45731341  0.91462683  0.85620222  1
  Sm  Sm25  1  0.45731341  0.54268659  0.85620222  1
  Sm  Sm26  1  0.54268659  0.08537317  0.35620222  1
  Sm  Sm27  1  0.08537317  0.54268659  0.85620222  1
  Sm  Sm28  1  0.54268659  0.45731341  0.35620222  1
  Sm  Sm29  1  0.91462683  0.45731341  0.35620222  1
  Sm  Sm30  1  0.00000000  0.00000000  0.00054868  1
  Sm  Sm31  1  0.00000000  0.00000000  0.50054868  1
  Sm  Sm32  1  0.46039147  0.92078294  0.58538766  1
  Sm  Sm33  1  0.46039147  0.53960853  0.58538766  1
  Sm  Sm34  1  0.53960853  0.07921706  0.08538766  1
  Sm  Sm35  1  0.07921706  0.53960853  0.58538766  1
  Sm  Sm36  1  0.53960853  0.46039147  0.08538766  1
  Sm  Sm37  1  0.92078294  0.46039147  0.08538766  1
  Sm  Sm38  1  0.79503267  0.59006534  0.78181584  1
  Sm  Sm39  1  0.79503267  0.20496733  0.78181584  1
  Sm  Sm40  1  0.20496733  0.40993466  0.28181584  1
  Sm  Sm41  1  0.40993466  0.20496733  0.78181584  1
  Sm  Sm42  1  0.20496733  0.79503267  0.28181584  1
  Sm  Sm43  1  0.59006534  0.79503267  0.28181584  1
  Sm  Sm44  1  0.66666700  0.33333300  0.64467743  1
  Sm  Sm45  1  0.33333300  0.66666700  0.14467743  1
  Mg  Mg0  1  0.00000000  0.00000000  0.74987957  1
  Mg  Mg1  1  0.00000000  0.00000000  0.24987957  1
  Mg  Mg2  1  0.10579955  0.21159911  0.86299635  1
  Mg  Mg3  1  0.10579955  0.89420045  0.86299635  1
  Mg  Mg4  1  0.89420045  0.78840089  0.36299635  1
  Mg  Mg5  1  0.78840089  0.89420045  0.86299635  1
  Mg  Mg6  1  0.89420045  0.10579955  0.36299635  1
  Mg  Mg7  1  0.21159911  0.10579955  0.36299635  1
  Ni  Ni0  1  0.52122662  0.04245324  0.71002364  1
  Ni  Ni1  1  0.52122662  0.47877338  0.71002364  1
  Ni  Ni2  1  0.47877338  0.95754676  0.21002364  1
  Ni  Ni3  1  0.95754676  0.47877338  0.71002364  1
  Ni  Ni4  1  0.47877338  0.52122662  0.21002364  1
  Ni  Ni5  1  0.04245324  0.52122662  0.21002364  1
  Ni  Ni6  1  0.66666700  0.33333300  0.86340558  1
  Ni  Ni7  1  0.33333300  0.66666700  0.36340558  1
  Ni  Ni8  1  0.14330954  0.28661908  0.56445774  1
  Ni  Ni9  1  0.14330954  0.85669046  0.56445774  1
  Ni  Ni10  1  0.85669046  0.71338092  0.06445774  1
  Ni  Ni11  1  0.71338092  0.85669046  0.56445774  1
  Ni  Ni12  1  0.85669046  0.14330954  0.06445774  1
  Ni  Ni13  1  0.28661908  0.14330954  0.06445774  1
loop_
_geom_bond_atom_site_label_1
_geom_bond_atom_site_label_2
_geom_bond_distance
_geom_bond_site_symmetry_2
Sm0 Sm25 3.740411 1_555
Sm0 Sm27 3.740411 1_555
Sm1 Sm27 3.740411 1_555
Sm1 Sm24 3.740411 1_555
Sm2 Sm28 3.740411 1_555
Sm2 Sm29 3.740411 1_555
Sm10 Sm14 3.717238 1_455
Sm10 Sm17 3.717238 1_565
Sm10 Sm29 3.738371 1_455
Sm10 Sm26 3.738371 1_565
Sm11 Sm16 3.717238 1_565
Sm11 Sm14 3.717238 1_555
Sm11 Sm26 3.738372 1_565
Sm11 Sm28 3.738372 1_555
Sm12 Sm20 3.499885 1_556
Sm12 Sm15 3.621752 1_555
Sm12 Sm13 3.621752 1_555
Sm12 Sm30 3.624475 1_556
Sm12 Sm25 3.680143 1_555
Sm12 Sm27 3.680144 1_555
Sm12 Sm7 3.717238 1_455
Sm12 Sm9 3.717238 1_555
Sm12 Sm36 3.733218 1_556
Sm12 Sm37 3.733218 1_456
Sm12 Sm45 4.027167 1_556
Sm13 Sm22 3.499885 1_556
Sm13 Sm15 3.621752 1_555
Sm13 Sm30 3.624475 1_566
Sm13 Sm27 3.680143 1_555
Sm13 Sm24 3.680143 1_555
Sm13 Sm9 3.717238 1_565
Sm13 Sm6 3.717238 1_455
Sm13 Sm34 3.733218 1_566
Sm13 Sm37 3.733218 1_456
Sm13 Sm45 4.027163 1_556
Sm14 Sm18 3.499885 1_555
Sm14 Sm17 3.621752 1_555
Sm14 Sm16 3.621752 1_555
Sm14 Sm31 3.624475 1_665
Sm14 Sm28 3.680143 1_555
Sm14 Sm29 3.680144 1_555
Sm14 Sm33 3.733218 1_555
Sm14 Sm35 3.733218 1_655
Sm14 Sm44 4.027167 1_555
Sm15 Sm23 3.499885 1_556
Sm15 Sm30 3.624475 1_666
Sm15 Sm25 3.680143 1_555
Sm15 Sm24 3.680144 1_555
Sm15 Sm7 3.717238 1_565
Sm15 Sm6 3.717238 1_555
Sm15 Sm36 3.733218 1_556
Sm15 Sm34 3.733218 1_566
Sm15 Sm45 4.027167 1_556
Sm16 Sm19 3.499885 1_555
Sm16 Sm17 3.621752 1_555
Sm16 Sm31 3.624475 1_655
Sm16 Sm29 3.680143 1_555
Sm16 Sm26 3.680143 1_555
Sm16 Sm8 3.717238 1_655
Sm16 Sm32 3.733218 1_545
Sm16 Sm35 3.733218 1_655
Sm16 Sm44 4.027163 1_555
Sm17 Sm21 3.499885 1_555
Sm17 Sm31 3.624475 1_555
Sm17 Sm28 3.680143 1_555
Sm17 Sm26 3.680144 1_555
Sm17 Sm8 3.717238 1_555
Sm17 Sm33 3.733218 1_555
Sm17 Sm32 3.733218 1_545
Sm17 Sm44 4.027167 1_555
Sm24 Sm39 3.546990 1_565
Sm24 Sm41 3.546990 1_565
Sm24 Sm27 3.677928 1_555
Sm24 Sm25 3.677928 1_555
Sm24 Sm7 3.738371 1_565
Sm24 Sm9 3.738372 1_565
Sm24 Sm3 3.740411 1_555
Sm25 Sm41 3.546990 1_555
Sm25 Sm38 3.546990 1_555
Sm25 Sm27 3.677928 1_555
Sm25 Sm6 3.738372 1_555
Sm25 Sm9 3.738372 1_555
Sm25 Sm3 3.740411 1_555
Sm26 Sm42 3.546990 1_545
Sm26 Sm43 3.546990 1_545
Sm26 Sm29 3.677928 1_555
Sm26 Sm28 3.677928 1_555
Sm26 Sm4 3.740411 1_555
Sm26 Sm5 3.740411 1_555
Sm27 Sm39 3.546990 1_455
Sm27 Sm38 3.546990 1_455
Sm27 Sm7 3.738371 1_455
Sm27 Sm6 3.738372 1_455
Sm28 Sm40 3.546990 1_555
Sm28 Sm43 3.546990 1_555
Sm28 Sm29 3.677928 1_555
Sm28 Sm8 3.738372 1_555
Sm28 Sm5 3.740411 1_555
Sm29 Sm42 3.546990 1_655
Sm29 Sm40 3.546990 1_655
Sm29 Sm8 3.738372 1_655
Sm29 Sm4 3.740411 1_555
Mg0 Mg5 3.114107 1_445
Mg0 Mg2 3.114107 1_555
Mg0 Mg3 3.114107 1_545
Mg0 Sm21 3.405219 1_555
Mg0 Sm18 3.405219 1_445
Mg0 Sm19 3.405219 1_455
Mg0 Sm41 3.582630 1_555
Mg0 Sm38 3.582630 1_445
Mg0 Sm39 3.582630 1_455
Mg0 Sm0 3.621059 1_555
Mg0 Sm3 3.621059 1_445
Mg0 Sm1 3.621059 1_545
Mg1 Mg4 3.114107 1_445
Mg1 Mg7 3.114107 1_555
Mg1 Mg6 3.114107 1_455
Mg1 Sm20 3.405219 1_555
Mg1 Sm23 3.405219 1_445
Mg1 Sm22 3.405219 1_545
Mg1 Sm43 3.582630 1_445
Mg1 Sm40 3.582630 1_555
Mg1 Sm42 3.582630 1_545
Mg1 Sm2 3.621059 1_445
Mg1 Sm5 3.621059 1_555
Mg1 Sm4 3.621059 1_455
Mg2 Mg5 3.138594 1_445
Mg2 Mg3 3.138594 1_545
Mg2 Sm25 3.382900 1_555
Mg2 Sm27 3.382901 1_555
Mg2 Sm12 3.386630 1_555
Mg2 Sm39 3.542565 1_455
Mg2 Sm41 3.542565 1_555
Mg2 Sm30 3.573250 1_556
Mg2 Sm7 3.621058 1_455
Mg2 Sm9 3.621058 1_555
Mg2 Sm0 3.662045 1_555
Mg3 Mg5 3.138594 1_455
Mg3 Sm24 3.382901 1_555
Mg3 Sm27 3.382901 1_555
Mg3 Sm13 3.386630 1_555
Mg3 Sm41 3.542565 1_565
Mg3 Sm38 3.542565 1_455
Mg3 Sm30 3.573250 1_566
Mg3 Sm9 3.621058 1_565
Mg3 Sm6 3.621058 1_455
Mg3 Sm1 3.662045 1_555
Mg4 Mg7 3.138594 1_665
Mg4 Mg6 3.138594 1_565
Mg4 Sm28 3.382900 1_555
Mg4 Sm29 3.382901 1_555
Mg4 Sm14 3.386630 1_555
Mg4 Sm42 3.542565 1_655
Mg4 Sm43 3.542565 1_555
Mg4 Sm31 3.573250 1_665
Mg4 Sm10 3.621058 1_655
Mg4 Sm11 3.621058 1_555
Mg4 Sm2 3.662045 1_555
Mg5 Sm25 3.382900 1_555
Mg5 Sm24 3.382901 1_555
Mg5 Sm15 3.386630 1_555
Mg5 Sm39 3.542565 1_565
Mg5 Sm38 3.542565 1_555
Mg5 Sm30 3.573250 1_666
Mg5 Sm7 3.621058 1_565
Mg5 Sm6 3.621058 1_555
Mg5 Sm3 3.662045 1_555
Mg6 Mg7 3.138594 1_655
Mg6 Sm29 3.382901 1_555
Mg6 Sm26 3.382901 1_555
Mg6 Sm16 3.386630 1_555
Mg6 Sm40 3.542565 1_655
Mg6 Sm43 3.542565 1_545
Mg6 Sm31 3.573250 1_655
Mg6 Sm8 3.621058 1_655
Mg6 Sm11 3.621058 1_545
Mg6 Sm4 3.662045 1_555
Mg7 Sm28 3.382900 1_555
Mg7 Sm26 3.382901 1_555
Mg7 Sm17 3.386630 1_555
Mg7 Sm42 3.542565 1_545
Mg7 Sm40 3.542565 1_555
Mg7 Sm31 3.573250 1_555
Mg7 Sm10 3.621058 1_545
Mg7 Sm8 3.621058 1_555
Mg7 Sm5 3.662045 1_555
Ni0 Sm1 2.847095 1_545
Ni0 Sm3 2.847095 1_545
Ni0 Sm39 2.854089 1_555
Ni0 Sm41 2.854089 1_555
Ni0 Sm44 2.888878 1_555
Ni0 Sm32 2.978688 1_545
Ni0 Sm24 3.451045 1_545
Ni0 Sm19 3.558078 1_555
Ni0 Sm21 3.558078 1_555
Ni1 Sm3 2.847095 1_555
Ni1 Sm0 2.847095 1_555
Ni1 Sm38 2.854089 1_555
Ni1 Sm41 2.854089 1_555
Ni1 Sm44 2.888886 1_555
Ni1 Sm33 2.978688 1_555
Ni1 Sm25 3.451045 1_555
Ni1 Sm18 3.558078 1_555
Ni1 Sm21 3.558078 1_555
Ni2 Sm4 2.847095 1_565
Ni2 Sm5 2.847095 1_565
Ni2 Sm42 2.854089 1_555
Ni2 Sm43 2.854089 1_555
Ni2 Sm45 2.888878 1_555
Ni2 Sm34 2.978688 1_565
Ni2 Sm26 3.451045 1_565
Ni2 Sm22 3.558078 1_555
Ni2 Sm23 3.558078 1_555
Ni3 Sm1 2.847095 1_655
Ni3 Sm0 2.847095 1_655
Ni3 Sm39 2.854089 1_555
Ni3 Sm38 2.854089 1_555
Ni3 Sm44 2.888878 1_555
Ni3 Sm35 2.978688 1_655
Ni3 Sm27 3.451045 1_655
Ni3 Sm19 3.558078 1_555
Ni3 Sm18 3.558078 1_555
Ni4 Sm2 2.847095 1_555
Ni4 Sm5 2.847095 1_555
Ni4 Sm40 2.854089 1_555
Ni4 Sm43 2.854089 1_555
Ni4 Sm45 2.888886 1_555
Ni4 Sm36 2.978688 1_555
Ni4 Sm28 3.451045 1_555
Ni4 Sm20 3.558078 1_555
Ni4 Sm23 3.558078 1_555
Ni5 Sm4 2.847095 1_455
Ni5 Sm2 2.847095 1_455
Ni5 Sm42 2.854089 1_555
Ni5 Sm40 2.854089 1_555
Ni5 Sm45 2.888878 1_555
Ni5 Sm37 2.978688 1_455
Ni5 Sm29 3.451045 1_455
Ni5 Sm22 3.558078 1_555
Ni5 Sm20 3.558078 1_555
Ni6 Sm39 2.858435 1_555
Ni6 Sm38 2.858442 1_555
Ni6 Sm41 2.858442 1_555
Ni6 Sm7 2.861535 1_555
Ni6 Sm6 2.861541 1_555
Ni6 Sm9 2.861541 1_555
Ni6 Sm24 3.589293 1_545
Ni6 Sm27 3.589293 1_655
Ni6 Sm25 3.589301 1_555
Ni7 Sm42 2.858435 1_555
Ni7 Sm43 2.858442 1_555
Ni7 Sm40 2.858442 1_555
Ni7 Sm10 2.861535 1_555
Ni7 Sm8 2.861541 1_555
Ni7 Sm11 2.861541 1_555
Ni7 Sm26 3.589293 1_565
Ni7 Sm29 3.589293 1_455
Ni7 Sm28 3.589301 1_555
Ni8 Sm19 2.809555 1_455
Ni8 Sm21 2.809555 1_555
Ni8 Sm8 2.836255 1_555
Ni8 Sm31 2.841136 1_555
Ni8 Sm33 2.909502 1_555
Ni8 Sm35 2.909502 1_555
Ni8 Sm16 3.597631 1_455
Ni8 Sm17 3.597631 1_555
Ni9 Sm21 2.809555 1_565
Ni9 Sm18 2.809555 1_455
Ni9 Sm10 2.836255 1_555
Ni9 Sm31 2.841136 1_565
Ni9 Sm32 2.909502 1_555
Ni9 Sm35 2.909502 1_555
Ni9 Sm17 3.597631 1_565
Ni9 Sm14 3.597631 1_455
Ni10 Sm22 2.809555 1_655
Ni10 Sm23 2.809555 1_555
Ni10 Sm6 2.836255 1_554
Ni10 Sm30 2.841136 1_665
Ni10 Sm36 2.909502 1_555
Ni10 Sm37 2.909502 1_555
Ni10 Sm13 3.597631 1_654
Ni10 Sm15 3.597631 1_554
Ni11 Sm19 2.809555 1_565
Ni11 Sm18 2.809555 1_555
Ni11 Sm11 2.836255 1_555
Ni11 Sm31 2.841136 1_665
Ni11 Sm33 2.909502 1_555
Ni11 Sm32 2.909502 1_555
Ni11 Sm16 3.597631 1_565
Ni11 Sm14 3.597631 1_555
Ni12 Sm20 2.809555 1_655
Ni12 Sm23 2.809555 1_545
Ni12 Sm7 2.836255 1_554
Ni12 Sm30 2.841136 1_655
Ni12 Sm37 2.909502 1_555
Ni12 Sm34 2.909502 1_555
Ni12 Sm12 3.597631 1_654
Ni12 Sm15 3.597631 1_544
Ni13 Sm22 2.809555 1_545
Ni13 Sm20 2.809555 1_555
Ni13 Sm9 2.836255 1_554
Ni13 Sm30 2.841136 1_555
Ni13 Sm36 2.909502 1_555
Ni13 Sm34 2.909502 1_555
Ni13 Sm13 3.597631 1_544
Ni13 Sm12 3.597631 1_554
