# generated using pymatgen
data_Mg14TiCO16
_symmetry_space_group_name_H-M   'P 1'
_cell_length_a   8.51302859
_cell_length_b   8.51302859
_cell_length_c   4.29742861
_cell_angle_alpha   90.00000000
_cell_angle_beta   90.00000000
_cell_angle_gamma   90.00000000
_symmetry_Int_Tables_number   1
_chemical_formula_structural   Mg14TiCO16
_chemical_formula_sum   'Mg14 Ti1 C1 O16'
_cell_volume   311.44176694
_cell_formula_units_Z   1
loop_
 _symmetry_equiv_pos_site_id
 _symmetry_equiv_pos_as_xyz
  1  'x, y, z'
loop_
 _atom_site_type_symbol
 _atom_site_label
 _atom_site_symmetry_multiplicity
 _atom_site_fract_x
 _atom_site_fract_y
 _atom_site_fract_z
 _atom_site_occupancy
  Mg  Mg0  1  -0.00000000  0.50000000  0.00000000  1
  Mg  Mg1  1  0.50000000  0.00000000  0.00000000  1
  Mg  Mg2  1  -0.00000000  0.25405072  0.50000000  1
  Mg  Mg3  1  -0.00000000  0.74594928  0.50000000  1
  Mg  Mg4  1  0.50000000  0.25735627  0.50000000  1
  Mg  Mg5  1  0.50000000  0.74264373  0.50000000  1
  Mg  Mg6  1  0.25405072  -0.00000000  0.50000000  1
  Mg  Mg7  1  0.25735627  0.50000000  0.50000000  1
  Mg  Mg8  1  0.74594928  0.00000000  0.50000000  1
  Mg  Mg9  1  0.74264373  0.50000000  0.50000000  1
  Mg  Mg10  1  0.25687692  0.25687692  0.00000000  1
  Mg  Mg11  1  0.25687692  0.74312308  -0.00000000  1
  Mg  Mg12  1  0.74312308  0.25687692  0.00000000  1
  Mg  Mg13  1  0.74312308  0.74312308  -0.00000000  1
  Ti  Ti0  1  -0.00000000  0.00000000  0.00000000  1
  C  C0  1  0.50000000  0.50000000  0.00000000  1
  O  O0  1  0.24687631  0.00000000  0.00000000  1
  O  O1  1  0.24067397  0.50000000  0.00000000  1
  O  O2  1  0.75312369  0.00000000  -0.00000000  1
  O  O3  1  0.75932603  0.50000000  0.00000000  1
  O  O4  1  0.24942952  0.24942952  0.50000000  1
  O  O5  1  0.24942952  0.75057048  0.50000000  1
  O  O6  1  0.75057048  0.24942952  0.50000000  1
  O  O7  1  0.75057048  0.75057048  0.50000000  1
  O  O8  1  -0.00000000  0.00000000  0.50000000  1
  O  O9  1  -0.00000000  0.50000000  0.50000000  1
  O  O10  1  0.50000000  0.00000000  0.50000000  1
  O  O11  1  0.50000000  0.50000000  0.50000000  1
  O  O12  1  -0.00000000  0.24687631  0.00000000  1
  O  O13  1  -0.00000000  0.75312369  0.00000000  1
  O  O14  1  0.50000000  0.24067397  0.00000000  1
  O  O15  1  0.50000000  0.75932603  0.00000000  1
loop_
_geom_bond_atom_site_label_1
_geom_bond_atom_site_label_2
_geom_bond_distance
_geom_bond_site_symmetry_2
Mg0 O1 2.048864 1_555
Mg0 O3 2.048864 1_455
Mg0 O9 2.148714 1_554
Mg0 O9 2.148714 1_555
Mg0 O12 2.154849 1_555
Mg0 O13 2.154849 1_555
Mg1 O14 2.048864 1_555
Mg1 O15 2.048864 1_545
Mg1 O10 2.148714 1_555
Mg1 O10 2.148714 1_554
Mg1 O0 2.154849 1_555
Mg1 O2 2.154849 1_555
Mg2 O9 2.093773 1_555
Mg2 O6 2.123765 1_455
Mg2 O4 2.123765 1_555
Mg2 O12 2.149582 1_556
Mg2 O12 2.149582 1_555
Mg2 O8 2.162741 1_555
Mg3 O9 2.093773 1_555
Mg3 O5 2.123765 1_555
Mg3 O7 2.123765 1_455
Mg3 O13 2.149582 1_555
Mg3 O13 2.149582 1_556
Mg3 O8 2.162741 1_565
Mg4 O11 2.065633 1_555
Mg4 O4 2.134181 1_555
Mg4 O6 2.134181 1_555
Mg4 O14 2.153402 1_556
Mg4 O14 2.153402 1_555
Mg4 O10 2.190881 1_555
Mg5 O11 2.065633 1_555
Mg5 O5 2.134181 1_555
Mg5 O7 2.134181 1_555
Mg5 O15 2.153402 1_556
Mg5 O15 2.153402 1_555
Mg5 O10 2.190881 1_565
Mg6 O10 2.093773 1_555
Mg6 O5 2.123765 1_545
Mg6 O4 2.123765 1_555
Mg6 O0 2.149582 1_555
Mg6 O0 2.149582 1_556
Mg6 O8 2.162741 1_555
Mg7 O11 2.065633 1_555
Mg7 O4 2.134181 1_555
Mg7 O5 2.134181 1_555
Mg7 O1 2.153402 1_556
Mg7 O1 2.153402 1_555
Mg7 O9 2.190881 1_555
Mg8 O10 2.093773 1_555
Mg8 O6 2.123765 1_555
Mg8 O7 2.123765 1_545
Mg8 O2 2.149582 1_556
Mg8 O2 2.149582 1_555
Mg8 O8 2.162741 1_655
Mg9 O11 2.065633 1_555
Mg9 O6 2.134181 1_555
Mg9 O7 2.134181 1_555
Mg9 O3 2.153402 1_556
Mg9 O3 2.153402 1_555
Mg9 O9 2.190881 1_655
Mg10 O1 2.074305 1_555
Mg10 O14 2.074305 1_555
Mg10 O4 2.150584 1_554
Mg10 O4 2.150584 1_555
Mg10 O12 2.188457 1_555
Mg10 O0 2.188457 1_555
Mg11 O15 2.074305 1_555
Mg11 O1 2.074305 1_555
Mg11 O5 2.150584 1_554
Mg11 O5 2.150584 1_555
Mg11 O0 2.188457 1_565
Mg11 O13 2.188457 1_555
Mg12 O3 2.074305 1_555
Mg12 O14 2.074305 1_555
Mg12 O6 2.150584 1_555
Mg12 O6 2.150584 1_554
Mg12 O2 2.188457 1_555
Mg12 O12 2.188457 1_655
Mg13 O15 2.074305 1_555
Mg13 O3 2.074305 1_555
Mg13 O7 2.150584 1_555
Mg13 O7 2.150584 1_554
Mg13 O2 2.188457 1_565
Mg13 O13 2.188457 1_655
O0 Ti0 2.101665 1_555
O2 Ti0 2.101665 1_655
O8 Ti0 2.148714 1_555
O8 Ti0 2.148714 1_556
O12 Ti0 2.101665 1_555
O13 Ti0 2.101665 1_565
