# generated using pymatgen
data_Te2N2O7
_symmetry_space_group_name_H-M   'P 1'
_cell_length_a   9.33249000
_cell_length_b   6.79229900
_cell_length_c   11.26586696
_cell_angle_alpha   89.85726729
_cell_angle_beta   90.00000000
_cell_angle_gamma   90.00000000
_symmetry_Int_Tables_number   1
_chemical_formula_structural   Te2N2O7
_chemical_formula_sum   'Te8 N8 O28'
_cell_volume   714.13052870
_cell_formula_units_Z   4
loop_
 _symmetry_equiv_pos_site_id
 _symmetry_equiv_pos_as_xyz
  1  'x, y, z'
loop_
 _atom_site_type_symbol
 _atom_site_label
 _atom_site_symmetry_multiplicity
 _atom_site_fract_x
 _atom_site_fract_y
 _atom_site_fract_z
 _atom_site_occupancy
  Te  Te0  1  0.38725000  0.54098500  0.83438900  1
  Te  Te1  1  0.88725000  0.95901500  0.16561100  1
  Te  Te2  1  0.61275000  0.45901500  0.16561100  1
  Te  Te3  1  0.11275000  0.04098500  0.83438900  1
  Te  Te4  1  0.60123500  0.93821500  0.31755300  1
  Te  Te5  1  0.10123500  0.56178500  0.68244700  1
  Te  Te6  1  0.39876500  0.06178500  0.68244700  1
  Te  Te7  1  0.89876500  0.43821500  0.31755300  1
  N  N0  1  0.74613800  0.43064200  0.88642400  1
  N  N1  1  0.24613800  0.06935800  0.11357600  1
  N  N2  1  0.25386200  0.56935800  0.11357600  1
  N  N3  1  0.75386200  0.93064200  0.88642400  1
  N  N4  1  0.81953400  0.17086800  0.52964400  1
  N  N5  1  0.31953400  0.32913200  0.47035600  1
  N  N6  1  0.18046600  0.82913200  0.47035600  1
  N  N7  1  0.68046600  0.67086800  0.52964400  1
  O  O0  1  0.19471700  0.43744900  0.84295400  1
  O  O1  1  0.69471700  0.06255100  0.15704600  1
  O  O2  1  0.80528300  0.56255100  0.15704600  1
  O  O3  1  0.30528300  0.93744900  0.84295400  1
  O  O4  1  0.14042600  0.61863200  0.07145800  1
  O  O5  1  0.64042600  0.88136800  0.92854200  1
  O  O6  1  0.85957400  0.38136800  0.92854200  1
  O  O7  1  0.35957400  0.11863200  0.07145800  1
  O  O8  1  0.86493000  0.95883900  0.96253800  1
  O  O9  1  0.36493000  0.54116100  0.03746200  1
  O  O10  1  0.13507000  0.04116100  0.03746200  1
  O  O11  1  0.63507000  0.45883900  0.96253800  1
  O  O12  1  0.19905200  0.13138100  0.66983700  1
  O  O13  1  0.69905200  0.36861900  0.33016300  1
  O  O14  1  0.80094800  0.86861900  0.33016300  1
  O  O15  1  0.30094800  0.63138100  0.66983700  1
  O  O16  1  0.66634300  0.63646700  0.63360500  1
  O  O17  1  0.16634300  0.86353300  0.36639500  1
  O  O18  1  0.33365700  0.36353300  0.36639500  1
  O  O19  1  0.83365700  0.13646700  0.63360500  1
  O  O20  1  0.03382900  0.79140900  0.76728600  1
  O  O21  1  0.53382900  0.70859100  0.23271400  1
  O  O22  1  0.96617100  0.20859100  0.23271400  1
  O  O23  1  0.46617100  0.29140900  0.76728600  1
  O  O24  1  0.92220400  0.30819500  0.48891400  1
  O  O25  1  0.42220400  0.19180500  0.51108600  1
  O  O26  1  0.07779600  0.69180500  0.51108600  1
  O  O27  1  0.57779600  0.80819500  0.48891400  1
loop_
_geom_bond_atom_site_label_1
_geom_bond_atom_site_label_2
_geom_bond_distance
_geom_bond_site_symmetry_2
N0 O6 1.207099 1_555
N0 O11 1.359119 1_555
N1 O7 1.207099 1_555
N1 O10 1.359119 1_555
N2 O4 1.207099 1_555
N2 O9 1.359119 1_555
N3 O5 1.207099 1_555
N3 O8 1.359119 1_555
N4 O19 1.200975 1_555
N4 O24 1.412995 1_555
N5 O18 1.200975 1_555
N5 O25 1.412995 1_555
N6 O17 1.200975 1_555
N6 O26 1.412995 1_555
N7 O16 1.200975 1_555
N7 O27 1.412995 1_555
O0 Te0 1.931855 1_555
O0 Te5 2.176351 1_555
O1 Te1 1.931855 1_545
O1 Te4 2.176351 1_545
O2 Te2 1.931855 1_555
O2 Te7 2.176351 1_555
O3 Te3 1.931855 1_565
O3 Te6 2.176351 1_565
O8 Te1 2.297260 1_556
O9 Te0 2.297260 1_554
O10 Te3 2.297260 1_554
O11 Te2 2.297260 1_556
O12 Te6 1.927986 1_555
O12 Te3 2.111081 1_555
O13 Te7 1.927986 1_555
O13 Te2 2.111081 1_555
O14 Te4 1.927986 1_555
O14 Te1 2.111081 1_555
O15 Te5 1.927986 1_555
O15 Te0 2.111081 1_555
O20 Te5 1.936301 1_555
O20 Te3 1.998510 1_565
O21 Te4 1.936301 1_555
O21 Te2 1.998510 1_555
O22 Te7 1.936301 1_555
O22 Te1 1.998510 1_545
O23 Te6 1.936301 1_555
O23 Te0 1.998510 1_555
O24 Te7 2.132189 1_555
O25 Te6 2.132189 1_555
O26 Te5 2.132189 1_555
O27 Te4 2.132189 1_555
