# generated using pymatgen
data_Ba2Cr3O7
_symmetry_space_group_name_H-M   'P 1'
_cell_length_a   3.78759700
_cell_length_b   3.80246900
_cell_length_c   13.24454400
_cell_angle_alpha   90.00000000
_cell_angle_beta   90.00000000
_cell_angle_gamma   90.00000000
_symmetry_Int_Tables_number   1
_chemical_formula_structural   Ba2Cr3O7
_chemical_formula_sum   'Ba2 Cr3 O7'
_cell_volume   190.75083883
_cell_formula_units_Z   1
loop_
 _symmetry_equiv_pos_site_id
 _symmetry_equiv_pos_as_xyz
  1  'x, y, z'
loop_
 _atom_site_type_symbol
 _atom_site_label
 _atom_site_symmetry_multiplicity
 _atom_site_fract_x
 _atom_site_fract_y
 _atom_site_fract_z
 _atom_site_occupancy
  Ba  Ba0  1  0.50591500  0.00000000  0.30589000  1
  Ba  Ba1  1  0.50591500  0.00000000  0.69411000  1
  Cr  Cr0  1  0.00500000  0.50000000  0.13620800  1
  Cr  Cr1  1  0.00500000  0.50000000  0.86379200  1
  Cr  Cr2  1  0.99704300  0.50000000  0.50000000  1
  O  O0  1  0.98045200  0.00000000  0.50000000  1
  O  O1  1  0.50475600  0.50000000  0.14920300  1
  O  O2  1  0.50475600  0.50000000  0.85079700  1
  O  O3  1  0.00454700  0.00000000  0.14565600  1
  O  O4  1  0.00454700  0.00000000  0.85434400  1
  O  O5  1  0.00660600  0.50000000  0.35681300  1
  O  O6  1  0.00660600  0.50000000  0.64318700  1
loop_
_geom_bond_atom_site_label_1
_geom_bond_atom_site_label_2
_geom_bond_distance
_geom_bond_site_symmetry_2
Ba0 O5 2.765166 1_555
Ba0 O5 2.765166 1_545
Ba0 O5 2.768749 1_655
Ba0 O5 2.768749 1_645
Ba0 O1 2.814492 1_545
Ba0 O1 2.814492 1_555
Ba0 O3 2.840901 1_655
Ba0 O3 2.847801 1_555
Ba0 O0 3.136878 1_555
Ba0 O0 3.251243 1_455
Ba1 O6 2.765166 1_555
Ba1 O6 2.765166 1_545
Ba1 O6 2.768749 1_645
Ba1 O6 2.768749 1_655
Ba1 O2 2.814492 1_555
Ba1 O2 2.814492 1_545
Ba1 O4 2.840901 1_655
Ba1 O4 2.847801 1_555
Ba1 O0 3.136878 1_555
Ba1 O0 3.251243 1_455
Cr0 O1 1.900683 1_555
Cr0 O1 1.902524 1_455
Cr0 O3 1.905349 1_555
Cr0 O3 1.905349 1_565
Cr1 O2 1.900683 1_555
Cr1 O2 1.902524 1_455
Cr1 O4 1.905349 1_565
Cr1 O4 1.905349 1_555
Cr2 O6 1.896792 1_655
Cr2 O5 1.896792 1_655
Cr2 O0 1.902273 1_555
Cr2 O0 1.902273 1_565
