# generated using pymatgen
data_SbIrSe
_symmetry_space_group_name_H-M   'P 1'
_cell_length_a   6.22806333
_cell_length_b   6.22806333
_cell_length_c   6.22806333
_cell_angle_alpha   90.00000000
_cell_angle_beta   90.00000000
_cell_angle_gamma   90.00000000
_symmetry_Int_Tables_number   1
_chemical_formula_structural   SbIrSe
_chemical_formula_sum   'Sb4 Ir4 Se4'
_cell_volume   241.57893376
_cell_formula_units_Z   4
loop_
 _symmetry_equiv_pos_site_id
 _symmetry_equiv_pos_as_xyz
  1  'x, y, z'
loop_
 _atom_site_type_symbol
 _atom_site_label
 _atom_site_symmetry_multiplicity
 _atom_site_fract_x
 _atom_site_fract_y
 _atom_site_fract_z
 _atom_site_occupancy
  Sb  Sb0  1  0.87598172  0.37598172  0.12401828  1
  Sb  Sb1  1  0.37598172  0.12401828  0.87598172  1
  Sb  Sb2  1  0.12401828  0.87598172  0.37598172  1
  Sb  Sb3  1  0.62401828  0.62401828  0.62401828  1
  Ir  Ir0  1  0.50413714  0.00413714  0.49586286  1
  Ir  Ir1  1  0.00413714  0.49586286  0.50413714  1
  Ir  Ir2  1  0.49586286  0.50413714  0.00413714  1
  Ir  Ir3  1  0.99586286  0.99586286  0.99586286  1
  Se  Se0  1  0.12029802  0.62029802  0.87970198  1
  Se  Se1  1  0.62029802  0.87970198  0.12029802  1
  Se  Se2  1  0.87970198  0.12029802  0.62029802  1
  Se  Se3  1  0.37970198  0.37970198  0.37970198  1
loop_
_geom_bond_atom_site_label_1
_geom_bond_atom_site_label_2
_geom_bond_distance
_geom_bond_site_symmetry_2
Sb0 Se0 2.635519 1_654
Sb1 Se1 2.635519 1_546
Sb2 Se2 2.635519 1_465
Sb3 Se3 2.635519 1_555
Ir0 Se2 2.568096 1_555
Ir0 Se1 2.568096 1_545
Ir0 Se3 2.568096 1_555
Ir0 Sb1 2.607511 1_555
Ir0 Sb2 2.607511 1_545
Ir0 Sb3 2.607511 1_545
Ir1 Se2 2.568096 1_455
Ir1 Se3 2.568096 1_555
Ir1 Se0 2.568096 1_555
Ir1 Sb3 2.607511 1_455
Ir1 Sb2 2.607511 1_555
Ir1 Sb0 2.607511 1_455
Ir2 Se0 2.568096 1_554
Ir2 Se3 2.568096 1_555
Ir2 Se1 2.568096 1_555
Ir2 Sb1 2.607511 1_554
Ir2 Sb3 2.607511 1_554
Ir2 Sb0 2.607511 1_555
Ir3 Se2 2.568096 1_565
Ir3 Se1 2.568096 1_556
Ir3 Se0 2.568096 1_655
Ir3 Sb2 2.607511 1_656
Ir3 Sb0 2.607511 1_566
Ir3 Sb1 2.607511 1_665
