# generated using pymatgen
data_Al2VNi9
_symmetry_space_group_name_H-M   'P 1'
_cell_length_a   3.52362207
_cell_length_b   3.52362106
_cell_length_c   10.51673913
_cell_angle_alpha   90.00000000
_cell_angle_beta   90.00000000
_cell_angle_gamma   90.00000000
_symmetry_Int_Tables_number   1
_chemical_formula_structural   Al2VNi9
_chemical_formula_sum   'Al2 V1 Ni9'
_cell_volume   130.57487531
_cell_formula_units_Z   1
loop_
 _symmetry_equiv_pos_site_id
 _symmetry_equiv_pos_as_xyz
  1  'x, y, z'
loop_
 _atom_site_type_symbol
 _atom_site_label
 _atom_site_symmetry_multiplicity
 _atom_site_fract_x
 _atom_site_fract_y
 _atom_site_fract_z
 _atom_site_occupancy
  Al  Al0  1  0.00000000  -0.00000000  0.33526330  1
  Al  Al1  1  0.00000000  -0.00000000  0.66473670  1
  V  V0  1  0.00000000  0.00000000  -0.00000000  1
  Ni  Ni0  1  0.50000000  0.50000000  -0.00000000  1
  Ni  Ni1  1  0.50000000  0.50000000  0.33276849  1
  Ni  Ni2  1  0.50000000  0.50000000  0.66723151  1
  Ni  Ni3  1  0.50000000  0.00000000  0.16351939  1
  Ni  Ni4  1  0.50000000  0.00000000  0.50000000  1
  Ni  Ni5  1  0.50000000  -0.00000000  0.83648061  1
  Ni  Ni6  1  0.00000000  0.50000000  0.16351939  1
  Ni  Ni7  1  0.00000000  0.50000000  0.50000000  1
  Ni  Ni8  1  0.00000000  0.50000000  0.83648061  1
loop_
_geom_bond_atom_site_label_1
_geom_bond_atom_site_label_2
_geom_bond_distance
_geom_bond_site_symmetry_2
Al0 Ni7 2.470933 1_545
Al0 Ni7 2.470933 1_555
Al0 Ni4 2.470933 1_455
Al0 Ni4 2.470933 1_555
Al0 Ni1 2.491715 1_455
Al0 Ni1 2.491715 1_555
Al0 Ni1 2.491715 1_545
Al0 Ni1 2.491715 1_445
Al0 Ni6 2.523150 1_555
Al0 Ni6 2.523150 1_545
Al0 Ni3 2.523150 1_555
Al0 Ni3 2.523150 1_455
Al1 Ni7 2.470933 1_555
Al1 Ni7 2.470933 1_545
Al1 Ni4 2.470933 1_455
Al1 Ni4 2.470933 1_555
Al1 Ni2 2.491715 1_545
Al1 Ni2 2.491715 1_455
Al1 Ni2 2.491715 1_445
Al1 Ni2 2.491715 1_555
Al1 Ni8 2.523150 1_555
Al1 Ni8 2.523150 1_545
Al1 Ni5 2.523150 1_555
Al1 Ni5 2.523150 1_455
Ni0 Ni5 2.461973 1_554
Ni0 Ni5 2.461973 1_564
Ni0 Ni3 2.461973 1_555
Ni0 Ni3 2.461973 1_565
Ni0 Ni8 2.461974 1_654
Ni0 Ni8 2.461974 1_554
Ni0 Ni6 2.461974 1_655
Ni0 Ni6 2.461974 1_555
Ni0 V0 2.491577 1_555
Ni0 V0 2.491577 1_655
Ni0 V0 2.491577 1_565
Ni0 V0 2.491577 1_665
Ni1 Ni4 2.489399 1_555
Ni1 Ni4 2.489399 1_565
Ni1 Ni7 2.489400 1_555
Ni1 Ni7 2.489400 1_655
Ni1 Ni3 2.504435 1_555
Ni1 Ni3 2.504435 1_565
Ni1 Ni6 2.504435 1_655
Ni1 Ni6 2.504435 1_555
Ni2 Ni4 2.489399 1_555
Ni2 Ni4 2.489399 1_565
Ni2 Ni7 2.489400 1_655
Ni2 Ni7 2.489400 1_555
Ni2 Ni5 2.504435 1_565
Ni2 Ni5 2.504435 1_555
Ni2 Ni8 2.504435 1_555
Ni2 Ni8 2.504435 1_655
Ni3 V0 2.461974 1_555
Ni3 V0 2.461974 1_655
Ni3 Ni6 2.491577 1_545
Ni3 Ni6 2.491577 1_645
Ni3 Ni6 2.491577 1_555
Ni3 Ni6 2.491577 1_655
Ni4 Ni7 2.491577 1_545
Ni4 Ni7 2.491577 1_555
Ni4 Ni7 2.491577 1_655
Ni4 Ni7 2.491577 1_645
Ni5 V0 2.461974 1_656
Ni5 V0 2.461974 1_556
Ni5 Ni8 2.491577 1_555
Ni5 Ni8 2.491577 1_545
Ni5 Ni8 2.491577 1_645
Ni5 Ni8 2.491577 1_655
Ni6 V0 2.461973 1_565
Ni6 V0 2.461973 1_555
Ni8 V0 2.461973 1_566
Ni8 V0 2.461973 1_556
