# generated using pymatgen
data_Li5Mn2CoO8
_symmetry_space_group_name_H-M   'P 1'
_cell_length_a   2.89286200
_cell_length_b   5.22971100
_cell_length_c   9.68590134
_cell_angle_alpha   80.82265325
_cell_angle_beta   90.00000000
_cell_angle_gamma   90.00000000
_symmetry_Int_Tables_number   1
_chemical_formula_structural   Li5Mn2CoO8
_chemical_formula_sum   'Li5 Mn2 Co1 O8'
_cell_volume   144.66062289
_cell_formula_units_Z   1
loop_
 _symmetry_equiv_pos_site_id
 _symmetry_equiv_pos_as_xyz
  1  'x, y, z'
loop_
 _atom_site_type_symbol
 _atom_site_label
 _atom_site_symmetry_multiplicity
 _atom_site_fract_x
 _atom_site_fract_y
 _atom_site_fract_z
 _atom_site_occupancy
  Li  Li0  1  0.50000000  0.74019800  0.26108500  1
  Li  Li1  1  0.50000000  0.25980200  0.73891500  1
  Li  Li2  1  0.00000000  0.23945300  0.26324000  1
  Li  Li3  1  0.00000000  0.76054700  0.73676000  1
  Li  Li4  1  0.00000000  0.50000000  0.50000000  1
  Mn  Mn0  1  0.00000000  0.00000000  0.00000000  1
  Mn  Mn1  1  0.50000000  0.50000000  0.00000000  1
  Co  Co0  1  0.50000000  0.00000000  0.50000000  1
  O  O0  1  0.50000000  0.10078500  0.11748900  1
  O  O1  1  0.50000000  0.68266900  0.60521600  1
  O  O2  1  0.00000000  0.59838000  0.12024500  1
  O  O3  1  0.00000000  0.11011600  0.61035400  1
  O  O4  1  0.50000000  0.31733100  0.39478400  1
  O  O5  1  0.50000000  0.89921500  0.88251100  1
  O  O6  1  0.00000000  0.88988400  0.38964600  1
  O  O7  1  0.00000000  0.40162000  0.87975500  1
loop_
_geom_bond_atom_site_label_1
_geom_bond_atom_site_label_2
_geom_bond_distance
_geom_bond_site_symmetry_2
Li0 O6 2.136936 1_555
Li0 O6 2.136936 1_655
Li0 O0 2.157304 1_565
Li0 O2 2.196794 1_655
Li0 O2 2.196794 1_555
Li0 O4 2.377837 1_555
Li1 O3 2.136936 1_555
Li1 O3 2.136936 1_655
Li1 O5 2.157304 1_545
Li1 O7 2.196794 1_655
Li1 O7 2.196794 1_555
Li1 O1 2.377837 1_555
Li2 O4 2.011704 1_455
Li2 O4 2.011704 1_555
Li2 O6 2.031547 1_545
Li2 O2 2.147667 1_555
Li2 O0 2.222075 1_455
Li2 O0 2.222075 1_555
Li3 O1 2.011704 1_455
Li3 O1 2.011704 1_555
Li3 O3 2.031547 1_565
Li3 O7 2.147667 1_555
Li3 O5 2.222075 1_555
Li3 O5 2.222075 1_455
Li4 O4 2.086603 1_455
Li4 O1 2.086603 1_455
Li4 O4 2.086603 1_555
Li4 O1 2.086603 1_555
Li4 O3 2.145867 1_555
Li4 O6 2.145867 1_555
Mn0 O5 1.963750 1_544
Mn0 O5 1.963750 1_444
Mn0 O0 1.963750 1_455
Mn0 O0 1.963750 1_555
Mn0 O2 2.233310 1_545
Mn0 O7 2.233310 1_554
Mn1 O2 1.975980 1_655
Mn1 O2 1.975980 1_555
Mn1 O7 1.975980 1_654
Mn1 O7 1.975980 1_554
Mn1 O5 2.212686 1_554
Mn1 O0 2.212686 1_555
Co0 O4 1.803666 1_555
Co0 O1 1.803666 1_545
Co0 O3 1.939753 1_555
Co0 O3 1.939753 1_655
Co0 O6 1.939753 1_545
Co0 O6 1.939753 1_645
