# generated using pymatgen
data_Lu6Te2Au
_symmetry_space_group_name_H-M   'P 1'
_cell_length_a   4.01646400
_cell_length_b   11.35872700
_cell_length_c   21.23374200
_cell_angle_alpha   90.00000000
_cell_angle_beta   90.00000000
_cell_angle_gamma   90.00000000
_symmetry_Int_Tables_number   1
_chemical_formula_structural   Lu6Te2Au
_chemical_formula_sum   'Lu24 Te8 Au4'
_cell_volume   968.72403808
_cell_formula_units_Z   4
loop_
 _symmetry_equiv_pos_site_id
 _symmetry_equiv_pos_as_xyz
  1  'x, y, z'
loop_
 _atom_site_type_symbol
 _atom_site_label
 _atom_site_symmetry_multiplicity
 _atom_site_fract_x
 _atom_site_fract_y
 _atom_site_fract_z
 _atom_site_occupancy
  Lu  Lu0  1  0.25000000  0.18628500  0.60858500  1
  Lu  Lu1  1  0.25000000  0.31371500  0.10858500  1
  Lu  Lu2  1  0.75000000  0.81371500  0.39141500  1
  Lu  Lu3  1  0.75000000  0.68628500  0.89141500  1
  Lu  Lu4  1  0.25000000  0.46995300  0.65773200  1
  Lu  Lu5  1  0.25000000  0.03004700  0.15773200  1
  Lu  Lu6  1  0.75000000  0.53004700  0.34226800  1
  Lu  Lu7  1  0.75000000  0.96995300  0.84226800  1
  Lu  Lu8  1  0.25000000  0.76008300  0.76753300  1
  Lu  Lu9  1  0.25000000  0.73991700  0.26753300  1
  Lu  Lu10  1  0.75000000  0.23991700  0.23246700  1
  Lu  Lu11  1  0.75000000  0.26008300  0.73246700  1
  Lu  Lu12  1  0.25000000  0.12200000  0.97454600  1
  Lu  Lu13  1  0.25000000  0.37800000  0.47454600  1
  Lu  Lu14  1  0.75000000  0.87800000  0.02545400  1
  Lu  Lu15  1  0.75000000  0.62200000  0.52545400  1
  Lu  Lu16  1  0.25000000  0.43801400  0.86011600  1
  Lu  Lu17  1  0.25000000  0.06198600  0.36011600  1
  Lu  Lu18  1  0.75000000  0.56198600  0.13988400  1
  Lu  Lu19  1  0.75000000  0.93801400  0.63988400  1
  Lu  Lu20  1  0.25000000  0.88907800  0.50684300  1
  Lu  Lu21  1  0.25000000  0.61092200  0.00684300  1
  Lu  Lu22  1  0.75000000  0.11092200  0.49315700  1
  Lu  Lu23  1  0.75000000  0.38907800  0.99315700  1
  Te  Te0  1  0.25000000  0.04337300  0.73664800  1
  Te  Te1  1  0.25000000  0.45662700  0.23664800  1
  Te  Te2  1  0.75000000  0.95662700  0.26335200  1
  Te  Te3  1  0.75000000  0.54337300  0.76335200  1
  Te  Te4  1  0.25000000  0.73227400  0.62595000  1
  Te  Te5  1  0.25000000  0.76772600  0.12595000  1
  Te  Te6  1  0.75000000  0.26772600  0.37405000  1
  Te  Te7  1  0.75000000  0.23227400  0.87405000  1
  Au  Au0  1  0.25000000  0.86805100  0.92425000  1
  Au  Au1  1  0.25000000  0.63194900  0.42425000  1
  Au  Au2  1  0.75000000  0.13194900  0.07575000  1
  Au  Au3  1  0.75000000  0.36805100  0.57575000  1
loop_
_geom_bond_atom_site_label_1
_geom_bond_atom_site_label_2
_geom_bond_distance
_geom_bond_site_symmetry_2
Lu0 Te0 3.166931 1_555
Lu1 Te1 3.166931 1_555
Lu2 Te2 3.166931 1_555
Lu3 Te3 3.166931 1_555
Lu4 Te4 3.055100 1_555
Lu4 Te3 3.123815 1_555
Lu4 Te3 3.123815 1_455
Lu5 Te5 3.055100 1_545
Lu5 Te2 3.123815 1_445
Lu5 Te2 3.123815 1_545
Lu6 Te6 3.055100 1_555
Lu6 Te1 3.123815 1_555
Lu6 Te1 3.123815 1_655
Lu7 Te7 3.055100 1_565
Lu7 Te0 3.123815 1_665
Lu7 Te0 3.123815 1_565
Lu8 Te4 3.022886 1_555
Lu8 Te3 3.178066 1_455
Lu8 Te3 3.178066 1_555
Lu8 Te0 3.283962 1_565
Lu9 Te5 3.022886 1_555
Lu9 Te2 3.178066 1_555
Lu9 Te2 3.178066 1_455
Lu9 Te1 3.283962 1_555
Lu10 Te6 3.022886 1_555
Lu10 Te1 3.178066 1_655
Lu10 Te1 3.178066 1_555
Lu10 Te2 3.283962 1_545
Lu11 Te7 3.022886 1_555
Lu11 Te0 3.178066 1_555
Lu11 Te0 3.178066 1_655
Lu11 Te3 3.283962 1_555
Lu12 Te7 3.186768 1_455
Lu12 Te7 3.186768 1_555
Lu13 Te6 3.186768 1_555
Lu13 Te6 3.186768 1_455
Lu14 Te5 3.186768 1_555
Lu14 Te5 3.186768 1_655
Lu15 Te4 3.186768 1_655
Lu15 Te4 3.186768 1_555
Lu16 Te7 3.095456 1_555
Lu16 Te7 3.095456 1_455
Lu16 Te3 3.112367 1_455
Lu16 Te3 3.112367 1_555
Lu17 Te6 3.095456 1_555
Lu17 Te6 3.095456 1_455
Lu17 Te2 3.112367 1_445
Lu17 Te2 3.112367 1_545
Lu18 Te5 3.095456 1_555
Lu18 Te5 3.095456 1_655
Lu18 Te1 3.112367 1_655
Lu18 Te1 3.112367 1_555
Lu19 Te4 3.095456 1_655
Lu19 Te4 3.095456 1_555
Lu19 Te0 3.112367 1_665
Lu19 Te0 3.112367 1_565
Lu20 Te4 3.093312 1_555
Lu21 Te5 3.093312 1_555
Lu22 Te6 3.093312 1_555
Lu23 Te7 3.093312 1_555
Au0 Lu7 2.898807 1_455
Au0 Lu7 2.898807 1_555
Au0 Lu14 2.943418 1_456
Au0 Lu14 2.943418 1_556
Au0 Lu3 2.963410 1_455
Au0 Lu3 2.963410 1_555
Au0 Lu12 3.075893 1_565
Au0 Lu21 3.406745 1_556
Au0 Lu8 3.546479 1_555
Au1 Lu6 2.898807 1_555
Au1 Lu6 2.898807 1_455
Au1 Lu15 2.943418 1_455
Au1 Lu15 2.943418 1_555
Au1 Lu2 2.963410 1_455
Au1 Lu2 2.963410 1_555
Au1 Lu13 3.075893 1_555
Au1 Lu20 3.406745 1_555
Au1 Lu9 3.546479 1_555
Au2 Lu5 2.898807 1_655
Au2 Lu5 2.898807 1_555
Au2 Lu12 2.943418 1_654
Au2 Lu12 2.943418 1_554
Au2 Lu1 2.963410 1_655
Au2 Lu1 2.963410 1_555
Au2 Lu14 3.075893 1_545
Au2 Lu23 3.406745 1_554
Au2 Lu10 3.546479 1_555
Au3 Lu4 2.898807 1_655
Au3 Lu4 2.898807 1_555
Au3 Lu13 2.943418 1_655
Au3 Lu13 2.943418 1_555
Au3 Lu0 2.963410 1_555
Au3 Lu0 2.963410 1_655
Au3 Lu15 3.075893 1_555
Au3 Lu22 3.406745 1_555
Au3 Lu11 3.546479 1_555
