# generated using pymatgen
data_MgSn2
_symmetry_space_group_name_H-M   'P 1'
_cell_length_a   5.65820414
_cell_length_b   5.65820414
_cell_length_c   6.73603203
_cell_angle_alpha   59.92154249
_cell_angle_beta   59.92154249
_cell_angle_gamma   62.19541111
_symmetry_Int_Tables_number   1
_chemical_formula_structural   MgSn2
_chemical_formula_sum   'Mg2 Sn4'
_cell_volume   154.66900305
_cell_formula_units_Z   2
loop_
 _symmetry_equiv_pos_site_id
 _symmetry_equiv_pos_as_xyz
  1  'x, y, z'
loop_
 _atom_site_type_symbol
 _atom_site_label
 _atom_site_symmetry_multiplicity
 _atom_site_fract_x
 _atom_site_fract_y
 _atom_site_fract_z
 _atom_site_occupancy
  Mg  Mg0  1  0.08624300  0.91375700  0.25000000  1
  Mg  Mg1  1  0.91375700  0.08624300  0.75000000  1
  Sn  Sn0  1  0.24167900  0.42841000  0.74232000  1
  Sn  Sn1  1  0.57159000  0.75832100  0.75768000  1
  Sn  Sn2  1  0.42841000  0.24167900  0.24232000  1
  Sn  Sn3  1  0.75832100  0.57159000  0.25768000  1
loop_
_geom_bond_atom_site_label_1
_geom_bond_atom_site_label_2
_geom_bond_distance
_geom_bond_site_symmetry_2
Mg0 Sn1 3.215672 1_455
Mg0 Sn0 3.215672 1_564
Mg0 Sn3 3.216879 1_455
Mg0 Sn2 3.216879 1_565
Mg0 Sn0 3.294601 1_555
Mg0 Sn1 3.294601 1_554
Mg0 Sn2 3.309627 1_465
Mg0 Sn3 3.309627 1_465
Mg0 Sn3 3.382349 1_555
Mg0 Sn2 3.382349 1_555
Mg0 Mg1 3.515669 1_464
Mg0 Mg1 3.515669 1_465
Mg1 Sn3 3.215672 1_546
Mg1 Sn2 3.215672 1_655
Mg1 Sn1 3.216879 1_545
Mg1 Sn0 3.216879 1_655
Mg1 Sn2 3.294601 1_556
Mg1 Sn3 3.294601 1_555
Mg1 Sn0 3.309627 1_645
Mg1 Sn1 3.309627 1_645
Mg1 Sn1 3.382349 1_555
Mg1 Sn0 3.382349 1_555
Sn0 Sn3 3.138741 1_555
Sn0 Sn1 3.258510 1_555
Sn0 Sn1 3.326911 1_455
Sn0 Sn1 3.326911 1_545
Sn0 Sn3 3.379736 1_456
Sn1 Sn2 3.138741 1_556
Sn1 Sn2 3.379736 1_565
Sn2 Sn3 3.258510 1_555
Sn2 Sn3 3.326911 1_545
Sn2 Sn3 3.326911 1_455
