# generated using pymatgen
data_BaSrEuBiO6
_symmetry_space_group_name_H-M   'P 1'
_cell_length_a   8.69227652
_cell_length_b   8.69822500
_cell_length_c   8.68806005
_cell_angle_alpha   90.00000000
_cell_angle_beta   90.00000000
_cell_angle_gamma   90.00000000
_symmetry_Int_Tables_number   1
_chemical_formula_structural   BaSrEuBiO6
_chemical_formula_sum   'Ba4 Sr4 Eu4 Bi4 O24'
_cell_volume   656.88143102
_cell_formula_units_Z   4
loop_
 _symmetry_equiv_pos_site_id
 _symmetry_equiv_pos_as_xyz
  1  'x, y, z'
loop_
 _atom_site_type_symbol
 _atom_site_label
 _atom_site_symmetry_multiplicity
 _atom_site_fract_x
 _atom_site_fract_y
 _atom_site_fract_z
 _atom_site_occupancy
  Ba  Ba0  1  0.00000000  -0.00000000  -0.00000000  1
  Ba  Ba1  1  0.50000000  0.50000000  0.50000000  1
  Ba  Ba2  1  0.00000000  0.50000000  -0.00000000  1
  Ba  Ba3  1  0.00000000  -0.00000000  0.50000000  1
  Sr  Sr0  1  0.00000000  0.50000000  0.50000000  1
  Sr  Sr1  1  0.50000000  -0.00000000  0.50000000  1
  Sr  Sr2  1  0.50000000  0.50000000  -0.00000000  1
  Sr  Sr3  1  0.50000000  -0.00000000  -0.00000000  1
  Eu  Eu0  1  0.25255037  0.25040533  0.25018145  1
  Eu  Eu1  1  0.74744963  0.74959467  0.25018145  1
  Eu  Eu2  1  0.74744963  0.25040533  0.74981855  1
  Eu  Eu3  1  0.25255037  0.74959467  0.74981855  1
  Bi  Bi0  1  0.74686062  0.74960068  0.75010863  1
  Bi  Bi1  1  0.25313938  0.25039932  0.75010863  1
  Bi  Bi2  1  0.25313938  0.74960068  0.24989137  1
  Bi  Bi3  1  0.74686062  0.25039932  0.24989137  1
  O  O0  1  0.99064719  0.21748496  0.27628510  1
  O  O1  1  0.00935281  0.78251504  0.27628510  1
  O  O2  1  0.00935281  0.21748496  0.72371490  1
  O  O3  1  0.99064719  0.78251504  0.72371490  1
  O  O4  1  0.28847583  0.99092193  0.20962986  1
  O  O5  1  0.28847583  0.00907807  0.79037014  1
  O  O6  1  0.71152417  0.00907807  0.20962986  1
  O  O7  1  0.71152417  0.99092193  0.79037014  1
  O  O8  1  0.21940312  0.27872005  0.99203415  1
  O  O9  1  0.78059688  0.27872005  0.00796585  1
  O  O10  1  0.21940312  0.72127995  0.00796585  1
  O  O11  1  0.78059688  0.72127995  0.99203415  1
  O  O12  1  0.50826603  0.29633882  0.21238353  1
  O  O13  1  0.49173397  0.70366118  0.21238353  1
  O  O14  1  0.49173397  0.29633882  0.78761647  1
  O  O15  1  0.50826603  0.70366118  0.78761647  1
  O  O16  1  0.21436424  0.50954937  0.29485939  1
  O  O17  1  0.21436424  0.49045063  0.70514061  1
  O  O18  1  0.78563576  0.49045063  0.29485939  1
  O  O19  1  0.78563576  0.50954937  0.70514061  1
  O  O20  1  0.29476699  0.21107172  0.50949450  1
  O  O21  1  0.70523301  0.21107172  0.49050550  1
  O  O22  1  0.29476699  0.78892828  0.49050550  1
  O  O23  1  0.70523301  0.78892828  0.50949450  1
loop_
_geom_bond_atom_site_label_1
_geom_bond_atom_site_label_2
_geom_bond_distance
_geom_bond_site_symmetry_2
Ba0 O3 3.057302 1_444
Ba0 O1 3.057302 1_545
Ba0 O0 3.057302 1_455
Ba0 O2 3.057302 1_554
Ba0 O9 3.085358 1_455
Ba0 O11 3.085358 1_444
Ba0 O8 3.085358 1_554
Ba0 O10 3.085358 1_545
Ba0 O5 3.100145 1_554
Ba0 O7 3.100145 1_444
Ba0 O6 3.100145 1_455
Ba0 O4 3.100145 1_545
Ba1 O19 3.057420 1_555
Ba1 O17 3.057420 1_555
Ba1 O18 3.057420 1_555
Ba1 O16 3.057420 1_555
Ba1 O15 3.063901 1_555
Ba1 O14 3.063901 1_555
Ba1 O12 3.063901 1_555
Ba1 O13 3.063901 1_555
Ba1 O20 3.083057 1_555
Ba1 O22 3.083057 1_555
Ba1 O23 3.083057 1_555
Ba1 O21 3.083057 1_555
Ba2 O9 2.710443 1_455
Ba2 O11 2.710443 1_454
Ba2 O10 2.710443 1_555
Ba2 O8 2.710443 1_554
Ba2 O16 3.168822 1_555
Ba2 O18 3.168822 1_455
Ba2 O19 3.168822 1_454
Ba2 O17 3.168822 1_554
Ba3 O1 2.713491 1_545
Ba3 O0 2.713491 1_455
Ba3 O2 2.713491 1_555
Ba3 O3 2.713491 1_445
Ba3 O23 3.153151 1_445
Ba3 O21 3.153151 1_455
Ba3 O20 3.153151 1_555
Ba3 O22 3.153151 1_545
Eu0 O8 2.274604 1_554
Eu0 O12 2.282125 1_555
Eu0 O4 2.305622 1_545
Eu0 O0 2.305654 1_455
Eu0 O20 2.308115 1_555
Eu0 O16 2.311229 1_555
Eu1 O11 2.274604 1_554
Eu1 O13 2.282125 1_555
Eu1 O6 2.305622 1_565
Eu1 O1 2.305654 1_655
Eu1 O23 2.308115 1_555
Eu1 O18 2.311229 1_555
Eu2 O9 2.274604 1_556
Eu2 O14 2.282125 1_555
Eu2 O7 2.305622 1_545
Eu2 O2 2.305654 1_655
Eu2 O21 2.308115 1_555
Eu2 O19 2.311229 1_555
Eu3 O10 2.274604 1_556
Eu3 O15 2.282125 1_555
Eu3 O5 2.305622 1_565
Eu3 O3 2.305654 1_455
Eu3 O22 2.308115 1_555
Eu3 O17 2.311229 1_555
Bi0 O11 2.136470 1_555
Bi0 O15 2.137066 1_555
Bi0 O23 2.148956 1_555
Bi0 O7 2.150065 1_555
Bi0 O3 2.150573 1_555
Bi0 O19 2.150828 1_555
Bi1 O8 2.136470 1_555
Bi1 O14 2.137066 1_555
Bi1 O20 2.148956 1_555
Bi1 O5 2.150065 1_555
Bi1 O2 2.150573 1_555
Bi1 O17 2.150828 1_555
Bi2 O10 2.136470 1_555
Bi2 O13 2.137066 1_555
Bi2 O22 2.148956 1_555
Bi2 O4 2.150065 1_555
Bi2 O1 2.150573 1_555
Bi2 O16 2.150828 1_555
Bi3 O9 2.136470 1_555
Bi3 O12 2.137066 1_555
Bi3 O21 2.148956 1_555
Bi3 O6 2.150065 1_555
Bi3 O0 2.150573 1_555
Bi3 O18 2.150828 1_555
O0 Sr0 3.134181 1_655
O1 Sr0 3.134181 1_555
O2 Sr0 3.134181 1_555
O3 Sr0 3.134181 1_655
O4 Sr3 2.589176 1_565
O4 Sr1 3.122670 1_565
O5 Sr3 2.589176 1_556
O5 Sr1 3.122670 1_555
O6 Sr3 2.589176 1_555
O6 Sr1 3.122670 1_555
O7 Sr3 2.589176 1_566
O7 Sr1 3.122670 1_565
O8 Sr2 3.107776 1_556
O9 Sr2 3.107776 1_555
O10 Sr2 3.107776 1_555
O11 Sr2 3.107776 1_556
O12 Sr2 2.558927 1_555
O12 Sr3 3.170814 1_555
O13 Sr2 2.558927 1_555
O13 Sr3 3.170814 1_565
O14 Sr2 2.558927 1_556
O14 Sr3 3.170814 1_556
O15 Sr2 2.558927 1_556
O15 Sr3 3.170814 1_566
O16 Sr0 2.579794 1_555
O17 Sr0 2.579794 1_555
O18 Sr0 2.579794 1_655
O19 Sr0 2.579794 1_655
O20 Sr1 2.561243 1_555
O21 Sr1 2.561243 1_555
O22 Sr1 2.561243 1_565
O23 Sr1 2.561243 1_565
