# generated using pymatgen
data_NaIO2
_symmetry_space_group_name_H-M   'P 1'
_cell_length_a   7.70299518
_cell_length_b   7.70299518
_cell_length_c   7.70299518
_cell_angle_alpha   130.67283975
_cell_angle_beta   130.67283975
_cell_angle_gamma   72.33338612
_symmetry_Int_Tables_number   1
_chemical_formula_structural   NaIO2
_chemical_formula_sum   'Na4 I4 O8'
_cell_volume   257.01035360
_cell_formula_units_Z   4
loop_
 _symmetry_equiv_pos_site_id
 _symmetry_equiv_pos_as_xyz
  1  'x, y, z'
loop_
 _atom_site_type_symbol
 _atom_site_label
 _atom_site_symmetry_multiplicity
 _atom_site_fract_x
 _atom_site_fract_y
 _atom_site_fract_z
 _atom_site_occupancy
  Na  Na0  1  0.87500000  0.62500000  0.25000000  1
  Na  Na1  1  0.37500000  0.62500000  0.75000000  1
  Na  Na2  1  0.37500000  0.62500000  0.25000000  1
  Na  Na3  1  0.37500000  0.12500000  0.75000000  1
  I  I0  1  0.37500000  0.12500000  0.25000000  1
  I  I1  1  0.87500000  0.12500000  0.75000000  1
  I  I2  1  0.87500000  0.12500000  0.25000000  1
  I  I3  1  0.87500000  0.62500000  0.75000000  1
  O  O0  1  0.16838400  0.38979300  0.22140900  1
  O  O1  1  0.16838400  0.94697500  0.77859100  1
  O  O2  1  0.13979300  0.41838400  0.72140900  1
  O  O3  1  0.58161600  0.86020700  0.27859100  1
  O  O4  1  0.69697500  0.41838400  0.27859100  1
  O  O5  1  0.58161600  0.30302500  0.72140900  1
  O  O6  1  0.61020700  0.83161600  0.77859100  1
  O  O7  1  0.05302500  0.83161600  0.22140900  1
loop_
_geom_bond_atom_site_label_1
_geom_bond_atom_site_label_2
_geom_bond_distance
_geom_bond_site_symmetry_2
Na0 O3 2.466144 1_555
Na0 O1 2.466144 1_655
Na0 O5 2.466144 1_554
Na0 O0 2.466144 1_655
Na0 O7 2.576312 1_655
Na0 O4 2.576312 1_555
Na1 O0 2.466144 1_555
Na1 O5 2.466144 1_555
Na1 O3 2.466144 1_556
Na1 O1 2.466144 1_555
Na1 O6 2.576312 1_555
Na1 O2 2.576312 1_555
Na2 O6 2.466144 1_555
Na2 O2 2.466144 1_554
Na2 O4 2.466144 1_555
Na2 O7 2.466144 1_555
Na2 O3 2.576312 1_555
Na2 O0 2.576312 1_555
Na3 O4 2.466144 1_556
Na3 O2 2.466144 1_555
Na3 O6 2.466144 1_545
Na3 O7 2.466144 1_545
Na3 O1 2.576312 1_545
Na3 O5 2.576312 1_555
I0 O5 2.213646 1_555
I0 O0 2.213646 1_555
I0 O1 2.213646 1_544
I0 O3 2.213646 1_545
I1 O5 2.213646 1_555
I1 O0 2.213646 1_656
I1 O3 2.213646 1_545
I1 O1 2.213646 1_645
I2 O2 2.213646 1_655
I2 O4 2.213646 1_555
I2 O7 2.213646 1_645
I2 O6 2.213646 1_544
I3 O4 2.213646 1_555
I3 O2 2.213646 1_655
I3 O6 2.213646 1_555
I3 O7 2.213646 1_656
