# generated using pymatgen
data_Sc2Si2Ru
_symmetry_space_group_name_H-M   'P 1'
_cell_length_a   4.07924896
_cell_length_b   5.43196264
_cell_length_c   8.63849272
_cell_angle_alpha   81.48101126
_cell_angle_beta   76.34300170
_cell_angle_gamma   67.94566222
_symmetry_Int_Tables_number   1
_chemical_formula_structural   Sc2Si2Ru
_chemical_formula_sum   'Sc4 Si4 Ru2'
_cell_volume   172.01606909
_cell_formula_units_Z   2
loop_
 _symmetry_equiv_pos_site_id
 _symmetry_equiv_pos_as_xyz
  1  'x, y, z'
loop_
 _atom_site_type_symbol
 _atom_site_label
 _atom_site_symmetry_multiplicity
 _atom_site_fract_x
 _atom_site_fract_y
 _atom_site_fract_z
 _atom_site_occupancy
  Sc  Sc0  1  0.81757346  0.25699573  0.10785434  1
  Sc  Sc1  1  0.00390600  0.66827507  0.32391393  1
  Sc  Sc2  1  0.18242654  0.74300427  0.89214566  1
  Sc  Sc3  1  0.99609400  0.33172493  0.67608607  1
  Si  Si0  1  0.48903735  0.14384354  0.87808277  1
  Si  Si1  1  0.36012348  0.71578208  0.56397097  1
  Si  Si2  1  0.51096265  0.85615646  0.12191723  1
  Si  Si3  1  0.63987652  0.28421792  0.43602903  1
  Ru  Ru0  1  0.73016772  0.91066423  0.62899933  1
  Ru  Ru1  1  0.26983228  0.08933577  0.37100067  1
loop_
_geom_bond_atom_site_label_1
_geom_bond_atom_site_label_2
_geom_bond_distance
_geom_bond_site_symmetry_2
Sc0 Si3 2.767214 1_555
Sc0 Si2 2.866172 1_545
Sc0 Si2 2.866177 1_645
Sc0 Si0 2.889603 1_554
Sc0 Si0 2.889614 1_654
Sc0 Si2 3.026562 1_555
Sc1 Si2 2.778129 1_555
Sc1 Si2 2.778135 1_455
Sc1 Si1 2.888175 1_555
Sc1 Si1 2.888177 1_455
Sc1 Si3 2.923006 1_555
Sc1 Si3 2.923009 1_455
Sc2 Si1 2.767214 1_555
Sc2 Si0 2.866172 1_565
Sc2 Si0 2.866177 1_465
Sc2 Si2 2.889603 1_556
Sc2 Si2 2.889614 1_456
Sc2 Si0 3.026562 1_555
Sc3 Si0 2.778129 1_555
Sc3 Si0 2.778135 1_655
Sc3 Si3 2.888175 1_555
Sc3 Si3 2.888177 1_655
Sc3 Si1 2.923006 1_555
Sc3 Si1 2.923009 1_655
Si0 Si2 2.428083 1_546
Si1 Si3 2.486425 1_555
Ru0 Si1 2.343372 1_555
Ru0 Si1 2.343376 1_655
Ru0 Si3 2.399657 1_565
Ru0 Si0 2.464568 1_565
Ru0 Sc1 2.908692 1_655
Ru0 Sc3 2.915363 1_555
Ru0 Sc3 2.986745 1_465
Ru0 Sc3 2.986745 1_565
Ru0 Sc2 3.083106 1_555
Ru0 Sc2 3.083117 1_655
Ru1 Si3 2.343372 1_555
Ru1 Si3 2.343376 1_455
Ru1 Si1 2.399657 1_545
Ru1 Si2 2.464568 1_545
Ru1 Sc3 2.908692 1_455
Ru1 Sc1 2.915363 1_555
Ru1 Sc1 2.986745 1_645
Ru1 Sc1 2.986745 1_545
Ru1 Sc0 3.083106 1_555
Ru1 Sc0 3.083117 1_455
