# generated using pymatgen
data_La(GaPd)2
_symmetry_space_group_name_H-M   'P 1'
_cell_length_a   4.42218617
_cell_length_b   4.42218617
_cell_length_c   10.02456095
_cell_angle_alpha   90.00000000
_cell_angle_beta   90.00000000
_cell_angle_gamma   90.00000000
_symmetry_Int_Tables_number   1
_chemical_formula_structural   La(GaPd)2
_chemical_formula_sum   'La2 Ga4 Pd4'
_cell_volume   196.03761254
_cell_formula_units_Z   2
loop_
 _symmetry_equiv_pos_site_id
 _symmetry_equiv_pos_as_xyz
  1  'x, y, z'
loop_
 _atom_site_type_symbol
 _atom_site_label
 _atom_site_symmetry_multiplicity
 _atom_site_fract_x
 _atom_site_fract_y
 _atom_site_fract_z
 _atom_site_occupancy
  La  La0  1  0.00000000  0.50000000  0.25077483  1
  La  La1  1  0.50000000  0.00000000  0.74916627  1
  Ga  Ga0  1  -0.00000000  -0.00000000  0.50000244  1
  Ga  Ga1  1  0.50000000  0.50000000  0.50000244  1
  Ga  Ga2  1  -0.00000000  0.50000000  0.87623253  1
  Ga  Ga3  1  0.50000000  -0.00000000  0.12359602  1
  Pd  Pd0  1  -0.00000000  -0.00000000  -0.00002655  1
  Pd  Pd1  1  0.50000000  0.50000000  -0.00002655  1
  Pd  Pd2  1  0.00000000  0.50000000  0.62799097  1
  Pd  Pd3  1  0.50000000  0.00000000  0.37228860  1
loop_
_geom_bond_atom_site_label_1
_geom_bond_atom_site_label_2
_geom_bond_distance
_geom_bond_site_symmetry_2
La0 Pd0 3.348134 1_555
La0 Pd1 3.348134 1_455
La0 Pd0 3.348134 1_565
La0 Pd1 3.348134 1_555
La0 Pd3 3.355844 1_455
La0 Pd3 3.355844 1_465
La0 Pd3 3.355844 1_555
La0 Pd3 3.355844 1_565
La1 Pd0 3.348178 1_556
La1 Pd1 3.348178 1_546
La1 Pd0 3.348178 1_656
La1 Pd1 3.348178 1_556
La1 Pd2 3.354614 1_555
La1 Pd2 3.354614 1_645
La1 Pd2 3.354614 1_655
La1 Pd2 3.354614 1_545
Ga0 Pd3 2.555002 1_455
Ga0 Pd3 2.555002 1_555
Ga0 Pd2 2.556383 1_545
Ga0 Pd2 2.556383 1_555
Ga0 La1 3.335825 1_455
Ga0 La1 3.335825 1_555
Ga0 La0 3.336304 1_545
Ga0 La0 3.336304 1_555
Ga1 Pd3 2.555002 1_565
Ga1 Pd3 2.555002 1_555
Ga1 Pd2 2.556383 1_655
Ga1 Pd2 2.556383 1_555
Ga1 La1 3.335825 1_565
Ga1 La1 3.335825 1_555
Ga1 La0 3.336304 1_555
Ga1 La0 3.336304 1_655
Ga2 Pd2 2.488513 1_555
Ga2 Pd0 2.535280 1_566
Ga2 Pd1 2.535280 1_556
Ga2 Pd0 2.535280 1_556
Ga2 Pd1 2.535280 1_456
Ga2 La1 3.376446 1_465
Ga2 La1 3.376446 1_565
Ga2 La1 3.376446 1_555
Ga2 La1 3.376446 1_455
Ga3 Pd3 2.493034 1_555
Ga3 Pd0 2.534700 1_655
Ga3 Pd1 2.534700 1_555
Ga3 Pd1 2.534700 1_545
Ga3 Pd0 2.534700 1_555
Ga3 La0 3.376872 1_545
Ga3 La0 3.376872 1_645
Ga3 La0 3.376872 1_555
Ga3 La0 3.376872 1_655
