# generated using pymatgen
data_TiZnBiO5
_symmetry_space_group_name_H-M   'P 1'
_cell_length_a   5.18774400
_cell_length_b   10.78634700
_cell_length_c   15.66662400
_cell_angle_alpha   90.00000000
_cell_angle_beta   90.00000000
_cell_angle_gamma   90.00000000
_symmetry_Int_Tables_number   1
_chemical_formula_structural   TiZnBiO5
_chemical_formula_sum   'Ti8 Zn8 Bi8 O40'
_cell_volume   876.65425443
_cell_formula_units_Z   8
loop_
 _symmetry_equiv_pos_site_id
 _symmetry_equiv_pos_as_xyz
  1  'x, y, z'
loop_
 _atom_site_type_symbol
 _atom_site_label
 _atom_site_symmetry_multiplicity
 _atom_site_fract_x
 _atom_site_fract_y
 _atom_site_fract_z
 _atom_site_occupancy
  Ti  Ti0  1  0.89235900  0.34736400  0.39032100  1
  Ti  Ti1  1  0.60764100  0.84736400  0.60967900  1
  Ti  Ti2  1  0.10764100  0.65263600  0.60967900  1
  Ti  Ti3  1  0.39235900  0.15263600  0.39032100  1
  Ti  Ti4  1  0.10764100  0.15263600  0.89032100  1
  Ti  Ti5  1  0.89235900  0.84736400  0.10967900  1
  Ti  Ti6  1  0.60764100  0.34736400  0.89032100  1
  Ti  Ti7  1  0.39235900  0.65263600  0.10967900  1
  Zn  Zn0  1  0.46425700  0.36679800  0.52527000  1
  Zn  Zn1  1  0.96425700  0.13320200  0.52527000  1
  Zn  Zn2  1  0.96425700  0.63320200  0.97473000  1
  Zn  Zn3  1  0.03574300  0.36679800  0.02527000  1
  Zn  Zn4  1  0.53574300  0.13320200  0.02527000  1
  Zn  Zn5  1  0.03574300  0.86679800  0.47473000  1
  Zn  Zn6  1  0.53574300  0.63320200  0.47473000  1
  Zn  Zn7  1  0.46425700  0.86679800  0.97473000  1
  Bi  Bi0  1  0.17615700  0.86013200  0.78299200  1
  Bi  Bi1  1  0.82384300  0.13986800  0.21700800  1
  Bi  Bi2  1  0.32384300  0.36013200  0.21700800  1
  Bi  Bi3  1  0.82384300  0.63986800  0.28299200  1
  Bi  Bi4  1  0.67615700  0.13986800  0.71700800  1
  Bi  Bi5  1  0.67615700  0.63986800  0.78299200  1
  Bi  Bi6  1  0.32384300  0.86013200  0.28299200  1
  Bi  Bi7  1  0.17615700  0.36013200  0.71700800  1
  O  O0  1  0.62980600  0.28548000  0.30454100  1
  O  O1  1  0.29711600  0.03695800  0.94462800  1
  O  O2  1  0.20288400  0.53695800  0.05537200  1
  O  O3  1  0.50979300  0.80301300  0.85826700  1
  O  O4  1  0.99020700  0.30301300  0.14173300  1
  O  O5  1  0.62980600  0.78548000  0.19545900  1
  O  O6  1  0.99020700  0.80301300  0.35826700  1
  O  O7  1  0.87019400  0.78548000  0.69545900  1
  O  O8  1  0.29711600  0.53695800  0.55537200  1
  O  O9  1  0.37019400  0.71452000  0.69545900  1
  O  O10  1  0.87019400  0.28548000  0.80454100  1
  O  O11  1  0.67809100  0.20733300  0.45709400  1
  O  O12  1  0.79711600  0.96304200  0.55537200  1
  O  O13  1  0.49020700  0.69698700  0.35826700  1
  O  O14  1  0.05667200  0.96317400  0.18834300  1
  O  O15  1  0.79711600  0.46304200  0.94462800  1
  O  O16  1  0.37019400  0.21452000  0.80454100  1
  O  O17  1  0.00979300  0.19698700  0.64173300  1
  O  O18  1  0.17809100  0.79266700  0.04290600  1
  O  O19  1  0.20288400  0.03695800  0.44462800  1
  O  O20  1  0.32190900  0.79266700  0.54290600  1
  O  O21  1  0.94332800  0.03682600  0.81165700  1
  O  O22  1  0.49020700  0.19698700  0.14173300  1
  O  O23  1  0.55667200  0.03682600  0.31165700  1
  O  O24  1  0.32190900  0.29266700  0.95709400  1
  O  O25  1  0.17809100  0.29266700  0.45709400  1
  O  O26  1  0.70288400  0.46304200  0.44462800  1
  O  O27  1  0.70288400  0.96304200  0.05537200  1
  O  O28  1  0.55667200  0.53682600  0.18834300  1
  O  O29  1  0.82190900  0.70733300  0.54290600  1
  O  O30  1  0.82190900  0.20733300  0.95709400  1
  O  O31  1  0.67809100  0.70733300  0.04290600  1
  O  O32  1  0.94332800  0.53682600  0.68834300  1
  O  O33  1  0.00979300  0.69698700  0.85826700  1
  O  O34  1  0.50979300  0.30301300  0.64173300  1
  O  O35  1  0.05667200  0.46317400  0.31165700  1
  O  O36  1  0.44332800  0.46317400  0.81165700  1
  O  O37  1  0.12980600  0.21452000  0.30454100  1
  O  O38  1  0.44332800  0.96317400  0.68834300  1
  O  O39  1  0.12980600  0.71452000  0.19545900  1
loop_
_geom_bond_atom_site_label_1
_geom_bond_atom_site_label_2
_geom_bond_distance
_geom_bond_site_symmetry_2
Bi0 O3 2.183135 1_555
Bi0 O7 2.246856 1_455
Bi0 O33 2.287423 1_555
Bi0 O21 2.300649 1_465
Bi0 O38 2.314117 1_555
Bi0 O9 2.315322 1_555
Bi1 O22 2.183135 1_555
Bi1 O37 2.246856 1_655
Bi1 O4 2.287423 1_555
Bi1 O14 2.300649 1_645
Bi1 O23 2.314117 1_555
Bi1 O0 2.315322 1_555
Bi2 O4 2.183135 1_455
Bi2 O0 2.246856 1_555
Bi2 O22 2.287423 1_555
Bi2 O28 2.300649 1_555
Bi2 O35 2.314117 1_555
Bi2 O37 2.315322 1_555
Bi3 O13 2.183135 1_555
Bi3 O39 2.246856 1_655
Bi3 O6 2.287423 1_555
Bi3 O35 2.300649 1_655
Bi3 O28 2.314117 1_555
Bi3 O5 2.315322 1_555
Bi4 O17 2.183135 1_655
Bi4 O16 2.246856 1_555
Bi4 O34 2.287423 1_555
Bi4 O38 2.300649 1_545
Bi4 O21 2.314117 1_555
Bi4 O10 2.315322 1_555
Bi5 O33 2.183135 1_655
Bi5 O9 2.246856 1_555
Bi5 O3 2.287423 1_555
Bi5 O36 2.300649 1_555
Bi5 O32 2.314117 1_555
Bi5 O7 2.315322 1_555
Bi6 O6 2.183135 1_455
Bi6 O5 2.246856 1_555
Bi6 O13 2.287423 1_555
Bi6 O23 2.300649 1_565
Bi6 O14 2.314117 1_555
Bi6 O39 2.315322 1_555
Bi7 O34 2.183135 1_555
Bi7 O10 2.246856 1_455
Bi7 O17 2.287423 1_555
Bi7 O32 2.300649 1_455
Bi7 O36 2.314117 1_555
Bi7 O16 2.315322 1_555
O0 Ti0 2.026520 1_555
O0 Ti3 2.318748 1_555
O1 Ti4 1.801922 1_555
O1 Zn4 2.050934 1_556
O1 Zn7 2.083975 1_545
O2 Ti7 1.801922 1_555
O2 Zn2 2.050934 1_454
O2 Zn3 2.083975 1_555
O3 Zn7 1.964245 1_555
O4 Zn3 1.964245 1_655
O5 Ti5 2.026520 1_555
O5 Ti7 2.318748 1_555
O6 Zn5 1.964245 1_655
O7 Ti1 2.026520 1_555
O7 Ti2 2.318748 1_655
O8 Ti2 1.801922 1_555
O8 Zn6 2.050934 1_555
O8 Zn0 2.083975 1_555
O9 Ti2 2.026520 1_555
O9 Ti1 2.318748 1_555
O10 Ti6 2.026520 1_555
O10 Ti4 2.318748 1_655
O11 Ti3 1.907785 1_555
O11 Zn1 1.996017 1_555
O11 Ti0 2.147394 1_555
O11 Zn0 2.308668 1_555
O12 Ti1 1.801922 1_555
O12 Zn5 2.050934 1_655
O12 Zn1 2.083975 1_565
O13 Zn6 1.964245 1_555
O14 Ti5 1.950855 1_455
O15 Ti6 1.801922 1_555
O15 Zn3 2.050934 1_656
O15 Zn2 2.083975 1_555
O16 Ti4 2.026520 1_555
O16 Ti6 2.318748 1_555
O17 Zn1 1.964245 1_455
O18 Ti5 1.907785 1_455
O18 Zn7 1.996017 1_554
O18 Ti7 2.147394 1_555
O18 Zn2 2.308668 1_454
O19 Ti3 1.801922 1_555
O19 Zn1 2.050934 1_455
O19 Zn5 2.083975 1_545
O20 Ti1 1.907785 1_555
O20 Zn5 1.996017 1_555
O20 Ti2 2.147394 1_555
O20 Zn6 2.308668 1_555
O21 Ti4 1.950855 1_655
O22 Zn4 1.964245 1_555
O23 Ti3 1.950855 1_555
O24 Ti6 1.907785 1_555
O24 Zn3 1.996017 1_556
O24 Ti4 2.147394 1_555
O24 Zn4 2.308668 1_556
O25 Ti0 1.907785 1_455
O25 Zn0 1.996017 1_555
O25 Ti3 2.147394 1_555
O25 Zn1 2.308668 1_455
O26 Ti0 1.801922 1_555
O26 Zn0 2.050934 1_555
O26 Zn6 2.083975 1_555
O27 Ti5 1.801922 1_555
O27 Zn7 2.050934 1_554
O27 Zn4 2.083975 1_565
O28 Ti7 1.950855 1_555
O29 Ti2 1.907785 1_655
O29 Zn6 1.996017 1_555
O29 Ti1 2.147394 1_555
O29 Zn5 2.308668 1_655
O30 Ti4 1.907785 1_655
O30 Zn4 1.996017 1_556
O30 Ti6 2.147394 1_555
O30 Zn3 2.308668 1_656
O31 Ti7 1.907785 1_555
O31 Zn2 1.996017 1_554
O31 Ti5 2.147394 1_555
O31 Zn7 2.308668 1_554
O32 Ti2 1.950855 1_655
O33 Zn2 1.964245 1_455
O34 Zn0 1.964245 1_555
O35 Ti0 1.950855 1_455
O36 Ti6 1.950855 1_555
O37 Ti3 2.026520 1_555
O37 Ti0 2.318748 1_455
O38 Ti1 1.950855 1_555
O39 Ti7 2.026520 1_555
O39 Ti5 2.318748 1_455
