# generated using pymatgen
data_Mg3Si4
_symmetry_space_group_name_H-M   'P 1'
_cell_length_a   6.03556205
_cell_length_b   7.88368880
_cell_length_c   6.88338981
_cell_angle_alpha   114.91176196
_cell_angle_beta   97.31246502
_cell_angle_gamma   116.00622142
_symmetry_Int_Tables_number   1
_chemical_formula_structural   Mg3Si4
_chemical_formula_sum   'Mg6 Si8'
_cell_volume   246.64930952
_cell_formula_units_Z   2
loop_
 _symmetry_equiv_pos_site_id
 _symmetry_equiv_pos_as_xyz
  1  'x, y, z'
loop_
 _atom_site_type_symbol
 _atom_site_label
 _atom_site_symmetry_multiplicity
 _atom_site_fract_x
 _atom_site_fract_y
 _atom_site_fract_z
 _atom_site_occupancy
  Mg  Mg0  1  0.79564300  0.52321900  0.54157200  1
  Mg  Mg1  1  0.17967200  0.60841400  0.93050800  1
  Mg  Mg2  1  0.72888300  0.06093200  0.27716300  1
  Mg  Mg3  1  0.81239600  0.97179800  0.78518100  1
  Mg  Mg4  1  0.41895400  0.41972800  0.11853000  1
  Mg  Mg5  1  0.23123100  0.06362800  0.22870700  1
  Si  Si0  1  0.94264200  0.79327600  0.37737600  1
  Si  Si1  1  0.34798200  0.79112800  0.40447100  1
  Si  Si2  1  0.17250800  0.21193200  0.64623600  1
  Si  Si3  1  0.61807700  0.27990800  0.75250000  1
  Si  Si4  1  0.70474000  0.67809000  0.95295100  1
  Si  Si5  1  0.93617800  0.39069200  0.15376000  1
  Si  Si6  1  0.29200800  0.50344900  0.53031400  1
  Si  Si7  1  0.31905700  0.95044800  0.80096300  1
loop_
_geom_bond_atom_site_label_1
_geom_bond_atom_site_label_2
_geom_bond_distance
_geom_bond_site_symmetry_2
Mg0 Si0 2.687632 1_555
Mg0 Si3 2.806347 1_555
Mg0 Si4 2.807218 1_555
Mg0 Si5 2.817979 1_555
Mg0 Mg1 2.920821 1_655
Mg0 Si7 2.946056 1_655
Mg0 Si6 2.963881 1_555
Mg0 Mg4 3.000108 1_555
Mg0 Si6 3.076322 1_655
Mg0 Mg2 3.113666 1_555
Mg0 Mg3 3.158490 1_555
Mg0 Mg5 3.178920 1_555
Mg1 Si1 2.768518 1_556
Mg1 Si6 2.789243 1_555
Mg1 Si5 2.837688 1_456
Mg1 Si3 2.875577 1_455
Mg1 Si2 2.882414 1_555
Mg1 Si4 2.940407 1_555
Mg1 Si7 3.000205 1_555
Mg1 Mg4 3.000590 1_556
Mg1 Si4 3.156636 1_455
Mg2 Si2 2.822369 1_655
Mg2 Si4 2.822820 1_544
Mg2 Si5 2.885135 1_555
Mg2 Si1 2.893501 1_545
Mg2 Si6 3.119603 1_655
Mg2 Si0 3.159109 1_545
Mg2 Mg3 3.310079 1_544
Mg3 Si2 2.769278 1_665
Mg3 Si5 2.862936 1_566
Mg3 Si1 2.870101 1_555
Mg3 Si4 2.870836 1_555
Mg3 Si7 2.926491 1_555
Mg3 Si0 2.946553 1_555
Mg3 Si6 3.089708 1_555
Mg3 Si7 3.126276 1_655
Mg3 Si3 3.196530 1_565
Mg3 Mg5 3.286872 1_666
Mg3 Mg4 3.291827 1_666
Mg4 Si2 2.758731 1_554
Mg4 Si4 2.792522 1_554
Mg4 Si0 2.796585 1_555
Mg4 Si5 2.871114 1_455
Mg4 Si6 2.911554 1_555
Mg4 Si3 2.932627 1_554
Mg4 Mg5 2.993874 1_555
Mg4 Si1 3.014987 1_555
Mg4 Si7 3.118436 1_544
Mg4 Si5 3.215147 1_555
Mg5 Si2 2.746715 1_555
Mg5 Si0 2.767581 1_445
Mg5 Si4 2.841350 1_444
Mg5 Si7 2.888781 1_544
Mg5 Si6 3.015611 1_555
Mg5 Si1 3.142551 1_545
Si0 Si1 2.437838 1_655
Si0 Si2 2.535430 1_665
Si0 Si4 2.641051 1_554
Si0 Si7 2.828367 1_655
Si0 Si5 2.864369 1_555
Si1 Si7 2.546052 1_555
Si1 Si5 2.561152 1_455
Si1 Si6 2.658159 1_555
Si2 Si3 2.441217 1_555
Si2 Si6 2.583905 1_555
Si3 Si4 2.599825 1_555
Si3 Si7 2.624341 1_545
Si3 Si5 2.687949 1_556
Si4 Si6 2.887484 1_555
Si5 Si6 2.662433 1_655
