# generated using pymatgen
data_Ca3PbSe4
_symmetry_space_group_name_H-M   'P 1'
_cell_length_a   4.24459285
_cell_length_b   6.02583352
_cell_length_c   8.52272525
_cell_angle_alpha   90.00000000
_cell_angle_beta   90.00000000
_cell_angle_gamma   90.00000000
_symmetry_Int_Tables_number   1
_chemical_formula_structural   Ca3PbSe4
_chemical_formula_sum   'Ca3 Pb1 Se4'
_cell_volume   217.98753242
_cell_formula_units_Z   1
loop_
 _symmetry_equiv_pos_site_id
 _symmetry_equiv_pos_as_xyz
  1  'x, y, z'
loop_
 _atom_site_type_symbol
 _atom_site_label
 _atom_site_symmetry_multiplicity
 _atom_site_fract_x
 _atom_site_fract_y
 _atom_site_fract_z
 _atom_site_occupancy
  Ca  Ca0  1  0.50000000  0.00000000  0.25190159  1
  Ca  Ca1  1  0.00000000  0.50000000  0.50000000  1
  Ca  Ca2  1  0.50000000  0.00000000  0.74809841  1
  Pb  Pb0  1  0.00000000  0.50000000  0.00000000  1
  Se  Se0  1  -0.00000000  0.00000000  0.50000000  1
  Se  Se1  1  0.50000000  0.50000000  0.74031095  1
  Se  Se2  1  -0.00000000  0.00000000  -0.00000000  1
  Se  Se3  1  0.50000000  0.50000000  0.25968905  1
loop_
_geom_bond_atom_site_label_1
_geom_bond_atom_site_label_2
_geom_bond_distance
_geom_bond_site_symmetry_2
Ca0 Se0 2.995855 1_555
Ca0 Se0 2.995855 1_655
Ca0 Se3 3.013648 1_545
Ca0 Se3 3.013648 1_555
Ca0 Se2 3.018819 1_555
Ca0 Se2 3.018819 1_655
Ca1 Se3 2.949385 1_455
Ca1 Se3 2.949385 1_555
Ca1 Se1 2.949385 1_455
Ca1 Se1 2.949385 1_555
Ca1 Se0 3.012917 1_555
Ca1 Se0 3.012917 1_565
Ca2 Se0 2.995855 1_555
Ca2 Se0 2.995855 1_655
Ca2 Se1 3.013648 1_555
Ca2 Se1 3.013648 1_545
Ca2 Se2 3.018819 1_556
Ca2 Se2 3.018819 1_656
Pb0 Se2 3.012917 1_565
Pb0 Se2 3.012917 1_555
Pb0 Se1 3.066375 1_554
Pb0 Se1 3.066375 1_454
Pb0 Se3 3.066375 1_455
Pb0 Se3 3.066375 1_555
