# generated using pymatgen
data_Cs3Rh9(CO)19
_symmetry_space_group_name_H-M   'P 1'
_cell_length_a   9.56964342
_cell_length_b   19.48570553
_cell_length_c   19.67824572
_cell_angle_alpha   90.00000000
_cell_angle_beta   90.00000000
_cell_angle_gamma   90.52447396
_symmetry_Int_Tables_number   1
_chemical_formula_structural   Cs3Rh9(CO)19
_chemical_formula_sum   'Cs12 Rh36 C76 O76'
_cell_volume   3669.27341604
_cell_formula_units_Z   4
loop_
 _symmetry_equiv_pos_site_id
 _symmetry_equiv_pos_as_xyz
  1  'x, y, z'
loop_
 _atom_site_type_symbol
 _atom_site_label
 _atom_site_symmetry_multiplicity
 _atom_site_fract_x
 _atom_site_fract_y
 _atom_site_fract_z
 _atom_site_occupancy
  Cs  Cs0  1  0.23126463  0.95301388  0.08772113  1
  Cs  Cs1  1  0.73126463  0.45301388  0.41227887  1
  Cs  Cs2  1  0.76873537  0.04698612  0.91227887  1
  Cs  Cs3  1  0.26873537  0.54698612  0.58772113  1
  Cs  Cs4  1  0.78567904  0.81522609  0.43302243  1
  Cs  Cs5  1  0.28567904  0.31522609  0.06697757  1
  Cs  Cs6  1  0.21432096  0.18477391  0.56697757  1
  Cs  Cs7  1  0.71432096  0.68477391  0.93302243  1
  Cs  Cs8  1  0.73369017  0.10746039  0.66889925  1
  Cs  Cs9  1  0.23369017  0.60746039  0.83110075  1
  Cs  Cs10  1  0.26630983  0.89253961  0.33110075  1
  Cs  Cs11  1  0.76630983  0.39253961  0.16889925  1
  Rh  Rh0  1  0.73470740  0.07348385  0.41430587  1
  Rh  Rh1  1  0.23470740  0.57348385  0.08569413  1
  Rh  Rh2  1  0.26529260  0.92651615  0.58569413  1
  Rh  Rh3  1  0.76529260  0.42651615  0.91430587  1
  Rh  Rh4  1  0.87907017  0.19917444  0.38141724  1
  Rh  Rh5  1  0.37907017  0.69917444  0.11858276  1
  Rh  Rh6  1  0.12092983  0.80082556  0.61858276  1
  Rh  Rh7  1  0.62092983  0.30082556  0.88141724  1
  Rh  Rh8  1  0.58392862  0.18600873  0.35566962  1
  Rh  Rh9  1  0.08392862  0.68600873  0.14433038  1
  Rh  Rh10  1  0.41607138  0.81399127  0.64433038  1
  Rh  Rh11  1  0.91607138  0.31399127  0.85566962  1
  Rh  Rh12  1  0.77257507  0.19125162  0.24968897  1
  Rh  Rh13  1  0.27257507  0.69125162  0.25031103  1
  Rh  Rh14  1  0.22742493  0.80874838  0.75031103  1
  Rh  Rh15  1  0.72742493  0.30874838  0.74968897  1
  Rh  Rh16  1  0.92261264  0.08320340  0.30408370  1
  Rh  Rh17  1  0.42261264  0.58320340  0.19591630  1
  Rh  Rh18  1  0.07738736  0.91679660  0.69591630  1
  Rh  Rh19  1  0.57738736  0.41679660  0.80408370  1
  Rh  Rh20  1  0.63811718  0.06903977  0.27925537  1
  Rh  Rh21  1  0.13811718  0.56903977  0.22074463  1
  Rh  Rh22  1  0.36188282  0.93096023  0.72074463  1
  Rh  Rh23  1  0.86188282  0.43096023  0.77925537  1
  Rh  Rh24  1  0.82334920  0.99567808  0.19973176  1
  Rh  Rh25  1  0.32334920  0.49567808  0.30026824  1
  Rh  Rh26  1  0.17665080  0.00432192  0.80026824  1
  Rh  Rh27  1  0.67665080  0.50432192  0.69973176  1
  Rh  Rh28  1  0.96958697  0.12345427  0.16996937  1
  Rh  Rh29  1  0.46958697  0.62345427  0.33003063  1
  Rh  Rh30  1  0.03041303  0.87654573  0.83003063  1
  Rh  Rh31  1  0.53041303  0.37654573  0.66996937  1
  Rh  Rh32  1  0.68358215  0.10792007  0.14341903  1
  Rh  Rh33  1  0.18358215  0.60792007  0.35658097  1
  Rh  Rh34  1  0.31641785  0.89207993  0.85658097  1
  Rh  Rh35  1  0.81641785  0.39207993  0.64341903  1
  C  C0  1  0.71835101  0.01962778  0.49369299  1
  C  C1  1  0.21835101  0.51962778  0.00630701  1
  C  C2  1  0.28164899  0.98037222  0.50630701  1
  C  C3  1  0.78164899  0.48037222  0.99369299  1
  C  C4  1  0.96156808  0.28100408  0.41224833  1
  C  C5  1  0.46156808  0.78100408  0.08775167  1
  C  C6  1  0.03843192  0.71899592  0.58775167  1
  C  C7  1  0.53843192  0.21899592  0.91224833  1
  C  C8  1  0.45398469  0.25347307  0.38027617  1
  C  C9  1  0.95398469  0.75347307  0.11972383  1
  C  C10  1  0.54601531  0.74652693  0.61972383  1
  C  C11  1  0.04601531  0.24652693  0.88027617  1
  C  C12  1  0.84253251  0.97335519  0.10741228  1
  C  C13  1  0.34253251  0.47335519  0.39258772  1
  C  C14  1  0.15746749  0.02664481  0.89258772  1
  C  C15  1  0.65746749  0.52664481  0.60741228  1
  C  C16  1  0.84216261  0.90850695  0.24059998  1
  C  C17  1  0.34216261  0.40850695  0.25940002  1
  C  C18  1  0.15783739  0.09149305  0.75940002  1
  C  C19  1  0.65783739  0.59149305  0.74059998  1
  C  C20  1  0.14099380  0.13648445  0.12613253  1
  C  C21  1  0.64099380  0.63648445  0.37386747  1
  C  C22  1  0.85900620  0.86351555  0.87386747  1
  C  C23  1  0.35900620  0.36351555  0.62613253  1
  C  C24  1  0.55403483  0.08339960  0.07633987  1
  C  C25  1  0.05403483  0.58339960  0.42366013  1
  C  C26  1  0.44596517  0.91660040  0.92366013  1
  C  C27  1  0.94596517  0.41660040  0.57633987  1
  C  C28  1  0.85252391  0.15215932  0.46928238  1
  C  C29  1  0.35252391  0.65215932  0.03071762  1
  C  C30  1  0.14747609  0.84784068  0.53071762  1
  C  C31  1  0.64747609  0.34784068  0.96928238  1
  C  C32  1  0.56281657  0.13777480  0.44482289  1
  C  C33  1  0.06281657  0.63777480  0.05517711  1
  C  C34  1  0.43718343  0.86222520  0.55517711  1
  C  C35  1  0.93718343  0.36222520  0.94482289  1
  C  C36  1  0.91539862  0.01500903  0.37614744  1
  C  C37  1  0.41539862  0.51500903  0.12385256  1
  C  C38  1  0.08460138  0.98499097  0.62385256  1
  C  C39  1  0.58460138  0.48499097  0.87614744  1
  C  C40  1  0.61435568  0.00282648  0.35390969  1
  C  C41  1  0.11435568  0.50282648  0.14609031  1
  C  C42  1  0.38564432  0.99717352  0.64609031  1
  C  C43  1  0.88564432  0.49717352  0.85390969  1
  C  C44  1  0.05709066  0.14452068  0.36069016  1
  C  C45  1  0.55709066  0.64452068  0.13930984  1
  C  C46  1  0.94290934  0.85547932  0.63930984  1
  C  C47  1  0.44290934  0.35547932  0.86069016  1
  C  C48  1  0.46230170  0.12863762  0.28719620  1
  C  C49  1  0.96230170  0.62863762  0.21280380  1
  C  C50  1  0.53769830  0.87136238  0.71280380  1
  C  C51  1  0.03769830  0.37136238  0.78719620  1
  C  C52  1  0.94594854  0.22286172  0.19882081  1
  C  C53  1  0.44594854  0.72286172  0.30117919  1
  C  C54  1  0.05405146  0.77713828  0.80117919  1
  C  C55  1  0.55405146  0.27713828  0.69882081  1
  C  C56  1  0.63260786  0.20341903  0.16816950  1
  C  C57  1  0.13260786  0.70341903  0.33183050  1
  C  C58  1  0.36739214  0.79658097  0.83183050  1
  C  C59  1  0.86739214  0.29658097  0.66816950  1
  C  C60  1  0.84941525  0.13408109  0.08464222  1
  C  C61  1  0.34941525  0.63408109  0.41535778  1
  C  C62  1  0.15058475  0.86591891  0.91535778  1
  C  C63  1  0.65058475  0.36591891  0.58464222  1
  C  C64  1  0.72553061  0.26592425  0.31441409  1
  C  C65  1  0.22553061  0.76592425  0.18558591  1
  C  C66  1  0.27446939  0.73407575  0.68558591  1
  C  C67  1  0.77446939  0.23407575  0.81441409  1
  C  C68  1  0.04659902  0.03721021  0.23776271  1
  C  C69  1  0.54659902  0.53721021  0.26223729  1
  C  C70  1  0.95340098  0.96278979  0.76223729  1
  C  C71  1  0.45340098  0.46278979  0.73776271  1
  C  C72  1  0.58537379  0.00403877  0.20727336  1
  C  C73  1  0.08537379  0.50403877  0.29272664  1
  C  C74  1  0.41462621  0.99596123  0.79272664  1
  C  C75  1  0.91462621  0.49596123  0.70727336  1
  O  O0  1  0.70774959  0.98769177  0.54346139  1
  O  O1  1  0.20774959  0.48769177  0.95653861  1
  O  O2  1  0.29225041  0.01230823  0.45653861  1
  O  O3  1  0.79225041  0.51230823  0.04346139  1
  O  O4  1  0.01545969  0.33215371  0.42959040  1
  O  O5  1  0.51545969  0.83215371  0.07040960  1
  O  O6  1  0.98454031  0.66784629  0.57040960  1
  O  O7  1  0.48454031  0.16784629  0.92959040  1
  O  O8  1  0.37299207  0.29392841  0.39802267  1
  O  O9  1  0.87299207  0.79392841  0.10197733  1
  O  O10  1  0.62700793  0.70607159  0.60197733  1
  O  O11  1  0.12700793  0.20607159  0.89802267  1
  O  O12  1  0.85769205  0.95703800  0.05052545  1
  O  O13  1  0.35769205  0.45703800  0.44947455  1
  O  O14  1  0.14230795  0.04296200  0.94947455  1
  O  O15  1  0.64230795  0.54296200  0.55052545  1
  O  O16  1  0.85094892  0.85450738  0.26562989  1
  O  O17  1  0.35094892  0.35450738  0.23437011  1
  O  O18  1  0.14905108  0.14549262  0.73437011  1
  O  O19  1  0.64905108  0.64549262  0.76562989  1
  O  O20  1  0.24351652  0.15141653  0.09676211  1
  O  O21  1  0.74351652  0.65141653  0.40323789  1
  O  O22  1  0.75648348  0.84858347  0.90323789  1
  O  O23  1  0.25648348  0.34858347  0.59676211  1
  O  O24  1  0.47232763  0.06368302  0.03630655  1
  O  O25  1  0.97232763  0.56368302  0.46369345  1
  O  O26  1  0.52767237  0.93631698  0.96369345  1
  O  O27  1  0.02767237  0.43631698  0.53630655  1
  O  O28  1  0.88169190  0.15797275  0.52804414  1
  O  O29  1  0.38169190  0.65797275  0.97195586  1
  O  O30  1  0.11830810  0.84202725  0.47195586  1
  O  O31  1  0.61830810  0.34202725  0.02804414  1
  O  O32  1  0.50001468  0.14158193  0.49697129  1
  O  O33  1  0.00001468  0.64158193  0.00302871  1
  O  O34  1  0.49998532  0.85841807  0.50302871  1
  O  O35  1  0.99998532  0.35841807  0.99697129  1
  O  O36  1  0.96513718  0.96263677  0.39547092  1
  O  O37  1  0.46513718  0.46263677  0.10452908  1
  O  O38  1  0.03486282  0.03736323  0.60452908  1
  O  O39  1  0.53486282  0.53736323  0.89547092  1
  O  O40  1  0.56949166  0.94651265  0.36466911  1
  O  O41  1  0.06949166  0.44651265  0.13533089  1
  O  O42  1  0.43050834  0.05348735  0.63533089  1
  O  O43  1  0.93050834  0.55348735  0.86466911  1
  O  O44  1  0.17277170  0.14422031  0.38179927  1
  O  O45  1  0.67277170  0.64422031  0.11820073  1
  O  O46  1  0.82722830  0.85577969  0.61820073  1
  O  O47  1  0.32722830  0.35577969  0.88179927  1
  O  O48  1  0.35264878  0.13447846  0.26087026  1
  O  O49  1  0.85264878  0.63447846  0.23912974  1
  O  O50  1  0.64735122  0.86552154  0.73912974  1
  O  O51  1  0.14735122  0.36552154  0.76087026  1
  O  O52  1  0.00426368  0.27633157  0.18839678  1
  O  O53  1  0.50426368  0.77633157  0.31160322  1
  O  O54  1  0.99573632  0.72366843  0.81160322  1
  O  O55  1  0.49573632  0.22366843  0.68839678  1
  O  O56  1  0.56179775  0.25057297  0.15183168  1
  O  O57  1  0.06179775  0.75057297  0.34816832  1
  O  O58  1  0.43820225  0.74942703  0.84816832  1
  O  O59  1  0.93820225  0.24942703  0.65183168  1
  O  O60  1  0.86816340  0.14800047  0.02611535  1
  O  O61  1  0.36816340  0.64800047  0.47388465  1
  O  O62  1  0.13183660  0.85199953  0.97388465  1
  O  O63  1  0.63183660  0.35199953  0.52611535  1
  O  O64  1  0.71538358  0.32761348  0.31424260  1
  O  O65  1  0.21538358  0.82761348  0.18575740  1
  O  O66  1  0.28461642  0.67238652  0.68575740  1
  O  O67  1  0.78461642  0.17238652  0.81424260  1
  O  O68  1  0.15251457  0.00464041  0.23440951  1
  O  O69  1  0.65251457  0.50464041  0.26559049  1
  O  O70  1  0.84748543  0.99535959  0.76559049  1
  O  O71  1  0.34748543  0.49535959  0.73440951  1
  O  O72  1  0.49757000  0.96503509  0.18752678  1
  O  O73  1  0.99757000  0.46503509  0.31247322  1
  O  O74  1  0.50243000  0.03496491  0.81247322  1
  O  O75  1  0.00243000  0.53496491  0.68752678  1
loop_
_geom_bond_atom_site_label_1
_geom_bond_atom_site_label_2
_geom_bond_distance
_geom_bond_site_symmetry_2
Cs0 O65 3.115896 1_555
Cs0 O62 3.124652 1_554
Cs0 O68 3.150569 1_565
Cs0 O72 3.224255 1_555
Cs0 O24 3.302217 1_565
Cs0 O14 3.350345 1_564
Cs1 O64 3.115896 1_555
Cs1 O63 3.124652 1_555
Cs1 O69 3.150569 1_555
Cs1 O73 3.224255 1_555
Cs1 O25 3.302217 1_555
Cs1 O15 3.350345 1_555
Cs2 O67 3.115896 1_555
Cs2 O60 3.124652 1_556
Cs2 O70 3.150569 1_545
Cs2 O74 3.224255 1_555
Cs2 O26 3.302217 1_545
Cs2 O12 3.350345 1_546
Cs3 O66 3.115896 1_555
Cs3 O61 3.124652 1_555
Cs3 O71 3.150569 1_555
Cs3 O75 3.224255 1_555
Cs3 O27 3.302217 1_555
Cs3 O13 3.350345 1_555
Cs4 O34 3.181655 1_555
Cs4 O21 3.266688 1_555
Cs4 O30 3.310840 1_655
Cs4 O57 3.379096 1_655
Cs4 O36 3.414047 1_555
Cs4 O16 3.437679 1_555
Cs4 O40 3.568003 1_555
Cs4 O53 3.674010 1_555
Cs4 O46 3.749054 1_555
Cs5 O35 3.181655 1_454
Cs5 O20 3.266688 1_555
Cs5 O31 3.310840 1_555
Cs5 O56 3.379096 1_555
Cs5 O37 3.414047 1_555
Cs5 O17 3.437679 1_555
Cs5 O41 3.568003 1_555
Cs5 O52 3.674010 1_555
Cs5 O47 3.749054 1_554
Cs6 O32 3.181655 1_555
Cs6 O23 3.266688 1_555
Cs6 O28 3.310840 1_455
Cs6 O59 3.379096 1_455
Cs6 O38 3.414047 1_555
Cs6 O18 3.437679 1_555
Cs6 O42 3.568003 1_555
Cs6 O55 3.674010 1_555
Cs6 O44 3.749054 1_555
Cs7 O33 3.181655 1_656
Cs7 O22 3.266688 1_555
Cs7 O29 3.310840 1_555
Cs7 O58 3.379096 1_555
Cs7 O39 3.414047 1_555
Cs7 O19 3.437679 1_555
Cs7 O43 3.568003 1_555
Cs7 O54 3.674010 1_555
Cs7 O45 3.749054 1_556
Cs8 O70 3.101804 1_545
Cs8 O42 3.147118 1_555
Cs8 O67 3.163378 1_555
Cs8 O55 3.248758 1_555
Cs8 O28 3.260676 1_555
Cs8 O59 3.390647 1_555
Cs8 O0 3.404484 1_545
Cs8 O38 3.442213 1_655
Cs9 O71 3.101804 1_555
Cs9 O43 3.147118 1_455
Cs9 O66 3.163378 1_555
Cs9 O54 3.248758 1_455
Cs9 O29 3.260676 1_555
Cs9 O58 3.390647 1_555
Cs9 O1 3.404484 1_555
Cs9 O39 3.442213 1_555
Cs10 O68 3.101804 1_565
Cs10 O40 3.147118 1_555
Cs10 O65 3.163378 1_555
Cs10 O53 3.248758 1_555
Cs10 O30 3.260676 1_555
Cs10 O57 3.390647 1_555
Cs10 O2 3.404484 1_565
Cs10 O36 3.442213 1_455
Cs11 O69 3.101804 1_555
Cs11 O41 3.147118 1_655
Cs11 O64 3.163378 1_555
Cs11 O52 3.248758 1_655
Cs11 O31 3.260676 1_555
Cs11 O56 3.390647 1_555
Cs11 O3 3.404484 1_555
Cs11 O37 3.442213 1_555
C0 O0 1.164270 1_545
C0 Rh0 1.887657 1_555
C1 O1 1.164270 1_554
C1 Rh1 1.887657 1_555
C2 O2 1.164270 1_565
C2 Rh2 1.887657 1_555
C3 O3 1.164270 1_556
C3 Rh3 1.887657 1_555
C4 O4 1.168933 1_655
C4 Rh4 1.873705 1_555
C5 O5 1.168933 1_555
C5 Rh5 1.873705 1_555
C6 O6 1.168933 1_455
C6 Rh6 1.873705 1_555
C7 O7 1.168933 1_555
C7 Rh7 1.873705 1_555
C8 O8 1.164170 1_555
C8 Rh8 1.881189 1_555
C9 O9 1.164170 1_555
C9 Rh9 1.881189 1_655
C10 O10 1.164170 1_555
C10 Rh10 1.881189 1_555
C11 O11 1.164170 1_555
C11 Rh11 1.881189 1_455
C12 O12 1.173079 1_555
C12 Rh24 1.877422 1_555
C13 O13 1.173079 1_555
C13 Rh25 1.877422 1_555
C14 O14 1.173079 1_555
C14 Rh26 1.877422 1_555
C15 O15 1.173079 1_555
C15 Rh27 1.877422 1_555
C16 O16 1.165528 1_555
C16 Rh24 1.889440 1_555
C17 O17 1.165528 1_555
C17 Rh25 1.889440 1_555
C18 O18 1.165528 1_555
C18 Rh26 1.889440 1_555
C19 O19 1.165528 1_555
C19 Rh27 1.889440 1_555
C20 O20 1.173046 1_555
C20 Rh28 1.868574 1_455
C21 O21 1.173046 1_555
C21 Rh29 1.868574 1_555
C22 O22 1.173046 1_555
C22 Rh30 1.868574 1_655
C23 O23 1.173046 1_555
C23 Rh31 1.868574 1_555
C24 O24 1.172216 1_555
C24 Rh32 1.869962 1_555
C25 O25 1.172216 1_455
C25 Rh33 1.869962 1_555
C26 O26 1.172216 1_555
C26 Rh34 1.869962 1_555
C27 O27 1.172216 1_655
C27 Rh35 1.869962 1_555
C28 O28 1.194680 1_555
C28 Rh4 1.972082 1_555
C28 Rh0 2.181775 1_555
C29 O29 1.194680 1_554
C29 Rh5 1.972082 1_555
C29 Rh1 2.181775 1_555
C30 O30 1.194680 1_555
C30 Rh6 1.972082 1_555
C30 Rh2 2.181775 1_555
C31 O31 1.194680 1_556
C31 Rh7 1.972082 1_555
C31 Rh3 2.181775 1_555
C32 O32 1.191879 1_555
C32 Rh8 1.999638 1_555
C32 Rh0 2.161840 1_555
C33 O33 1.191879 1_555
C33 Rh9 1.999638 1_555
C33 Rh1 2.161840 1_555
C34 O34 1.191879 1_555
C34 Rh10 1.999638 1_555
C34 Rh2 2.161840 1_555
C35 O35 1.191879 1_555
C35 Rh11 1.999638 1_555
C35 Rh3 2.161840 1_555
C36 O36 1.192260 1_545
C36 Rh16 1.944173 1_555
C36 Rh0 2.210917 1_555
C37 O37 1.192260 1_555
C37 Rh17 1.944173 1_555
C37 Rh1 2.210917 1_555
C38 O38 1.192260 1_565
C38 Rh18 1.944173 1_555
C38 Rh2 2.210917 1_555
C39 O39 1.192260 1_555
C39 Rh19 1.944173 1_555
C39 Rh3 2.210917 1_555
C40 O40 1.193578 1_545
C40 Rh20 1.967013 1_555
C40 Rh0 2.146054 1_555
C41 O41 1.193578 1_555
C41 Rh21 1.967013 1_555
C41 Rh1 2.146054 1_555
C42 O42 1.193578 1_565
C42 Rh22 1.967013 1_555
C42 Rh2 2.146054 1_555
C43 O43 1.193578 1_555
C43 Rh23 1.967013 1_555
C43 Rh3 2.146054 1_555
C44 O44 1.182459 1_555
C44 Rh4 2.058144 1_455
C44 Rh16 2.072766 1_455
C45 O45 1.182459 1_555
C45 Rh5 2.058144 1_555
C45 Rh17 2.072766 1_555
C46 O46 1.182459 1_555
C46 Rh6 2.058144 1_655
C46 Rh18 2.072766 1_655
C47 O47 1.182459 1_555
C47 Rh7 2.058144 1_555
C47 Rh19 2.072766 1_555
C48 O48 1.176702 1_555
C48 Rh20 2.059028 1_555
C48 Rh8 2.096718 1_555
C49 O49 1.176702 1_555
C49 Rh21 2.059028 1_655
C49 Rh9 2.096718 1_655
C50 O50 1.176702 1_555
C50 Rh22 2.059028 1_555
C50 Rh10 2.096718 1_555
C51 O51 1.176702 1_555
C51 Rh23 2.059028 1_455
C51 Rh11 2.096718 1_455
C52 O52 1.195161 1_655
C52 Rh12 2.028635 1_555
C52 Rh28 2.033124 1_555
C53 O53 1.195161 1_555
C53 Rh13 2.028635 1_555
C53 Rh29 2.033124 1_555
C54 O54 1.195161 1_455
C54 Rh14 2.028635 1_555
C54 Rh30 2.033124 1_555
C55 O55 1.195161 1_555
C55 Rh15 2.028635 1_555
C55 Rh31 2.033124 1_555
C56 O56 1.190875 1_555
C56 Rh32 1.988619 1_555
C56 Rh12 2.104625 1_555
C57 O57 1.190875 1_555
C57 Rh33 1.988619 1_555
C57 Rh13 2.104625 1_555
C58 O58 1.190875 1_555
C58 Rh34 1.988619 1_555
C58 Rh14 2.104625 1_555
C59 O59 1.190875 1_555
C59 Rh35 1.988619 1_555
C59 Rh15 2.104625 1_555
C60 O60 1.196365 1_555
C60 Rh32 2.025163 1_555
C60 Rh28 2.046724 1_555
C61 O61 1.196365 1_555
C61 Rh33 2.025163 1_555
C61 Rh29 2.046724 1_555
C62 O62 1.196365 1_555
C62 Rh34 2.025163 1_555
C62 Rh30 2.046724 1_555
C63 O63 1.196365 1_555
C63 Rh35 2.025163 1_555
C63 Rh31 2.046724 1_555
C64 O64 1.206864 1_555
C64 Rh12 1.988490 1_555
C64 Rh8 2.209433 1_555
C64 Rh4 2.371513 1_555
C65 O65 1.206864 1_555
C65 Rh13 1.988490 1_555
C65 Rh9 2.209433 1_555
C65 Rh5 2.371513 1_555
C66 O66 1.206864 1_555
C66 Rh14 1.988490 1_555
C66 Rh10 2.209433 1_555
C66 Rh6 2.371513 1_555
C67 O67 1.206864 1_555
C67 Rh15 1.988490 1_555
C67 Rh11 2.209433 1_555
C67 Rh7 2.371513 1_555
C68 O68 1.202596 1_555
C68 Rh16 1.983353 1_455
C68 Rh28 2.273693 1_455
C68 Rh24 2.397427 1_445
C69 O69 1.202596 1_555
C69 Rh17 1.983353 1_555
C69 Rh29 2.273693 1_555
C69 Rh25 2.397427 1_555
C70 O70 1.202596 1_555
C70 Rh18 1.983353 1_655
C70 Rh30 2.273693 1_655
C70 Rh26 2.397427 1_665
C71 O71 1.202596 1_555
C71 Rh19 1.983353 1_555
C71 Rh31 2.273693 1_555
C71 Rh27 2.397427 1_555
C72 O72 1.192873 1_545
C72 Rh20 1.963089 1_555
C72 Rh24 2.289462 1_545
C73 O73 1.192873 1_455
C73 Rh21 1.963089 1_555
C73 Rh25 2.289462 1_555
C74 O74 1.192873 1_565
C74 Rh22 1.963089 1_555
C74 Rh26 2.289462 1_565
C75 O75 1.192873 1_655
C75 Rh23 1.963089 1_555
C75 Rh27 2.289462 1_555
