# generated using pymatgen
data_Sc2S3
_symmetry_space_group_name_H-M   'P 1'
_cell_length_a   6.19630000
_cell_length_b   6.74855300
_cell_length_c   9.55926000
_cell_angle_alpha   90.00000000
_cell_angle_beta   90.00000000
_cell_angle_gamma   90.00000000
_symmetry_Int_Tables_number   1
_chemical_formula_structural   Sc2S3
_chemical_formula_sum   'Sc8 S12'
_cell_volume   399.73057972
_cell_formula_units_Z   4
loop_
 _symmetry_equiv_pos_site_id
 _symmetry_equiv_pos_as_xyz
  1  'x, y, z'
loop_
 _atom_site_type_symbol
 _atom_site_label
 _atom_site_symmetry_multiplicity
 _atom_site_fract_x
 _atom_site_fract_y
 _atom_site_fract_z
 _atom_site_occupancy
  Sc  Sc0  1  0.54503800  0.39671600  0.99147000  1
  Sc  Sc1  1  0.45496200  0.60328400  0.49147000  1
  Sc  Sc2  1  0.04503800  0.10328400  0.49147000  1
  Sc  Sc3  1  0.95496200  0.89671600  0.99147000  1
  Sc  Sc4  1  0.00368000  0.49689500  0.23875000  1
  Sc  Sc5  1  0.99632000  0.50310500  0.73875000  1
  Sc  Sc6  1  0.50368000  0.00310500  0.73875000  1
  Sc  Sc7  1  0.49632000  0.99689500  0.23875000  1
  S  S0  1  0.82811200  0.18313600  0.82635300  1
  S  S1  1  0.17188800  0.81686400  0.32635300  1
  S  S2  1  0.32811200  0.31686400  0.32635300  1
  S  S3  1  0.67188800  0.68313600  0.82635300  1
  S  S4  1  0.82565200  0.17848200  0.15848200  1
  S  S5  1  0.17434800  0.82151800  0.65848200  1
  S  S6  1  0.32565200  0.32151800  0.65848200  1
  S  S7  1  0.67434800  0.67848200  0.15848200  1
  S  S8  1  0.83922700  0.43897400  0.48994500  1
  S  S9  1  0.16077300  0.56102600  0.98994500  1
  S  S10  1  0.33922700  0.06102600  0.98994500  1
  S  S11  1  0.66077300  0.93897400  0.48994500  1
loop_
_geom_bond_atom_site_label_1
_geom_bond_atom_site_label_2
_geom_bond_distance
_geom_bond_site_symmetry_2
S0 Sc6 2.493710 1_555
S0 Sc5 2.539742 1_555
S0 Sc3 2.616355 1_545
S0 Sc0 2.765031 1_555
S1 Sc7 2.493710 1_555
S1 Sc4 2.539742 1_555
S1 Sc2 2.616355 1_565
S1 Sc1 2.765031 1_555
S2 Sc4 2.493710 1_555
S2 Sc7 2.539742 1_545
S2 Sc1 2.616355 1_555
S2 Sc2 2.765031 1_555
S3 Sc5 2.493710 1_555
S3 Sc6 2.539742 1_565
S3 Sc0 2.616355 1_555
S3 Sc3 2.765031 1_555
S4 Sc7 2.500938 1_545
S4 Sc4 2.534378 1_655
S4 Sc3 2.608944 1_544
S4 Sc0 2.782301 1_554
S5 Sc6 2.500938 1_565
S5 Sc5 2.534378 1_455
S5 Sc2 2.608944 1_565
S5 Sc1 2.782301 1_555
S6 Sc5 2.500938 1_455
S6 Sc6 2.534378 1_555
S6 Sc1 2.608944 1_555
S6 Sc2 2.782301 1_555
S7 Sc4 2.500938 1_655
S7 Sc7 2.534378 1_555
S7 Sc0 2.608944 1_554
S7 Sc3 2.782301 1_554
S8 Sc2 2.599741 1_655
S8 Sc5 2.606061 1_555
S8 Sc1 2.626601 1_555
S8 Sc4 2.637631 1_655
S9 Sc3 2.599741 1_455
S9 Sc4 2.606061 1_556
S9 Sc0 2.626601 1_555
S9 Sc5 2.637631 1_455
S10 Sc0 2.599741 1_555
S10 Sc7 2.606061 1_546
S10 Sc3 2.626601 1_445
S10 Sc6 2.637631 1_555
S11 Sc1 2.599741 1_555
S11 Sc6 2.606061 1_565
S11 Sc2 2.626601 1_665
S11 Sc7 2.637631 1_555
