# generated using pymatgen
data_Al4Ni3
_symmetry_space_group_name_H-M   'P 1'
_cell_length_a   9.79617161
_cell_length_b   9.79617098
_cell_length_c   9.79617100
_cell_angle_alpha   109.47122481
_cell_angle_beta   109.47122351
_cell_angle_gamma   109.47121613
_symmetry_Int_Tables_number   1
_chemical_formula_structural   Al4Ni3
_chemical_formula_sum   'Al32 Ni24'
_cell_volume   723.68103903
_cell_formula_units_Z   8
loop_
 _symmetry_equiv_pos_site_id
 _symmetry_equiv_pos_as_xyz
  1  'x, y, z'
loop_
 _atom_site_type_symbol
 _atom_site_label
 _atom_site_symmetry_multiplicity
 _atom_site_fract_x
 _atom_site_fract_y
 _atom_site_fract_z
 _atom_site_occupancy
  Al  Al0  1  0.00000000  0.00000000  0.00000000  1
  Al  Al1  1  0.00000000  0.50000000  0.00000000  1
  Al  Al2  1  0.00000000  0.00000000  0.50000000  1
  Al  Al3  1  0.50000000  0.00000000  0.00000000  1
  Al  Al4  1  0.00000000  0.50000000  0.50000000  1
  Al  Al5  1  0.50000000  0.00000000  0.50000000  1
  Al  Al6  1  0.50000000  0.50000000  0.00000000  1
  Al  Al7  1  0.50000000  0.50000000  0.50000000  1
  Al  Al8  1  0.25000000  0.25832200  0.00832200  1
  Al  Al9  1  0.25832200  0.75000000  0.00832200  1
  Al  Al10  1  0.24167800  0.25000000  0.49167800  1
  Al  Al11  1  0.49167800  0.24167800  0.25000000  1
  Al  Al12  1  0.00832200  0.25832200  0.75000000  1
  Al  Al13  1  0.75000000  0.00832200  0.25832200  1
  Al  Al14  1  0.24167800  0.49167800  0.75000000  1
  Al  Al15  1  0.49167800  0.75000000  0.24167800  1
  Al  Al16  1  0.25832200  0.00832200  0.25000000  1
  Al  Al17  1  0.00832200  0.25000000  0.25832200  1
  Al  Al18  1  0.75000000  0.24167800  0.49167800  1
  Al  Al19  1  0.25000000  0.49167800  0.24167800  1
  Al  Al20  1  0.75000000  0.74167800  0.99167800  1
  Al  Al21  1  0.74167800  0.25000000  0.99167800  1
  Al  Al22  1  0.75832200  0.75000000  0.50832200  1
  Al  Al23  1  0.50832200  0.75832200  0.75000000  1
  Al  Al24  1  0.99167800  0.74167800  0.25000000  1
  Al  Al25  1  0.25000000  0.99167800  0.74167800  1
  Al  Al26  1  0.75832200  0.50832200  0.25000000  1
  Al  Al27  1  0.50832200  0.25000000  0.75832200  1
  Al  Al28  1  0.74167800  0.99167800  0.75000000  1
  Al  Al29  1  0.99167800  0.75000000  0.74167800  1
  Al  Al30  1  0.25000000  0.75832200  0.50832200  1
  Al  Al31  1  0.75000000  0.50832200  0.75832200  1
  Ni  Ni0  1  0.25000000  0.74388300  0.75611700  1
  Ni  Ni1  1  0.74388300  0.48776600  0.49388300  1
  Ni  Ni2  1  0.49388300  0.25000000  0.00611700  1
  Ni  Ni3  1  0.00611700  0.49388300  0.25000000  1
  Ni  Ni4  1  0.75611700  0.00611700  0.01223400  1
  Ni  Ni5  1  0.01223400  0.75611700  0.00611700  1
  Ni  Ni6  1  0.48776600  0.49388300  0.74388300  1
  Ni  Ni7  1  0.49388300  0.74388300  0.48776600  1
  Ni  Ni8  1  0.00611700  0.01223400  0.75611700  1
  Ni  Ni9  1  0.75611700  0.25000000  0.74388300  1
  Ni  Ni10  1  0.74388300  0.75611700  0.25000000  1
  Ni  Ni11  1  0.25000000  0.00611700  0.49388300  1
  Ni  Ni12  1  0.75000000  0.25611700  0.24388300  1
  Ni  Ni13  1  0.25611700  0.51223400  0.50611700  1
  Ni  Ni14  1  0.50611700  0.75000000  0.99388300  1
  Ni  Ni15  1  0.99388300  0.50611700  0.75000000  1
  Ni  Ni16  1  0.24388300  0.99388300  0.98776600  1
  Ni  Ni17  1  0.98776600  0.24388300  0.99388300  1
  Ni  Ni18  1  0.51223400  0.50611700  0.25611700  1
  Ni  Ni19  1  0.50611700  0.25611700  0.51223400  1
  Ni  Ni20  1  0.99388300  0.98776600  0.24388300  1
  Ni  Ni21  1  0.24388300  0.75000000  0.25611700  1
  Ni  Ni22  1  0.25611700  0.24388300  0.75000000  1
  Ni  Ni23  1  0.75000000  0.99388300  0.50611700  1
loop_
_geom_bond_atom_site_label_1
_geom_bond_atom_site_label_2
_geom_bond_distance
_geom_bond_site_symmetry_2
Al0 Ni17 2.450997 1_454
Al0 Ni5 2.450997 1_545
Al0 Ni20 2.450997 1_445
Al0 Ni8 2.450997 1_554
Al0 Ni16 2.450997 1_544
Al0 Ni4 2.450997 1_455
Al1 Ni21 2.450997 1_555
Al1 Ni9 2.450997 1_454
Al1 Ni5 2.450997 1_555
Al1 Ni17 2.450997 1_454
Al1 Ni15 2.450997 1_454
Al1 Ni3 2.450997 1_555
Al2 Ni22 2.450997 1_555
Al2 Ni10 2.450997 1_445
Al2 Ni8 2.450997 1_555
Al2 Ni20 2.450997 1_445
Al2 Ni23 2.450997 1_445
Al2 Ni11 2.450997 1_555
Al3 Ni12 2.450997 1_555
Al3 Ni0 2.450997 1_544
Al3 Ni14 2.450997 1_544
Al3 Ni2 2.450997 1_555
Al3 Ni4 2.450997 1_555
Al3 Ni16 2.450997 1_544
Al4 Ni0 2.450997 1_555
Al4 Ni12 2.450997 1_455
Al4 Ni3 2.450997 1_555
Al4 Ni15 2.450997 1_455
Al4 Ni1 2.450997 1_455
Al4 Ni13 2.450997 1_555
Al5 Ni9 2.450997 1_555
Al5 Ni21 2.450997 1_545
Al5 Ni7 2.450997 1_545
Al5 Ni19 2.450997 1_555
Al5 Ni11 2.450997 1_555
Al5 Ni23 2.450997 1_545
Al6 Ni10 2.450997 1_555
Al6 Ni22 2.450997 1_554
Al6 Ni6 2.450997 1_554
Al6 Ni18 2.450997 1_555
Al6 Ni2 2.450997 1_555
Al6 Ni14 2.450997 1_554
Al7 Ni19 2.450997 1_555
Al7 Ni7 2.450997 1_555
Al7 Ni18 2.450997 1_555
Al7 Ni6 2.450997 1_555
Al7 Ni13 2.450997 1_555
Al7 Ni1 2.450997 1_555
Al8 Ni8 2.424476 1_554
Al8 Ni2 2.424476 1_555
Al8 Ni18 2.478182 1_555
Al8 Ni17 2.478182 1_454
Al8 Ni16 2.509080 1_544
Al8 Ni22 2.509080 1_554
Al9 Ni0 2.424476 1_554
Al9 Ni5 2.424476 1_555
Al9 Ni21 2.478182 1_555
Al9 Ni14 2.478182 1_554
Al9 Ni15 2.509080 1_454
Al9 Ni16 2.509080 1_554
Al10 Ni6 2.424476 1_555
Al10 Ni11 2.424476 1_555
Al10 Ni20 2.478182 1_445
Al10 Ni13 2.478182 1_555
Al10 Ni22 2.509080 1_555
Al10 Ni19 2.509080 1_555
Al11 Ni1 2.424476 1_555
Al11 Ni2 2.424476 1_555
Al11 Ni16 2.478182 1_544
Al11 Ni19 2.478182 1_555
Al11 Ni18 2.509080 1_555
Al11 Ni12 2.509080 1_555
Al12 Ni8 2.424476 1_555
Al12 Ni9 2.424476 1_455
Al12 Ni15 2.478182 1_455
Al12 Ni22 2.478182 1_555
Al12 Ni23 2.509080 1_445
Al12 Ni17 2.509080 1_455
Al13 Ni10 2.424476 1_545
Al13 Ni4 2.424476 1_555
Al13 Ni12 2.478182 1_555
Al13 Ni23 2.478182 1_545
Al13 Ni14 2.509080 1_544
Al13 Ni20 2.509080 1_545
Al14 Ni0 2.424476 1_555
Al14 Ni6 2.424476 1_555
Al14 Ni22 2.478182 1_555
Al14 Ni15 2.478182 1_455
Al14 Ni14 2.509080 1_555
Al14 Ni13 2.509080 1_555
Al15 Ni7 2.424476 1_555
Al15 Ni10 2.424476 1_555
Al15 Ni14 2.478182 1_554
Al15 Ni21 2.478182 1_555
Al15 Ni23 2.509080 1_555
Al15 Ni18 2.509080 1_555
Al16 Ni5 2.424476 1_545
Al16 Ni11 2.424476 1_555
Al16 Ni19 2.478182 1_555
Al16 Ni16 2.478182 1_544
Al16 Ni21 2.509080 1_545
Al16 Ni20 2.509080 1_445
Al17 Ni4 2.424476 1_455
Al17 Ni3 2.424476 1_555
Al17 Ni13 2.478182 1_555
Al17 Ni20 2.478182 1_445
Al17 Ni17 2.509080 1_454
Al17 Ni12 2.509080 1_455
Al18 Ni1 2.424476 1_555
Al18 Ni9 2.424476 1_555
Al18 Ni23 2.478182 1_545
Al18 Ni12 2.478182 1_555
Al18 Ni15 2.509080 1_555
Al18 Ni19 2.509080 1_555
Al19 Ni7 2.424476 1_555
Al19 Ni3 2.424476 1_555
Al19 Ni17 2.478182 1_454
Al19 Ni18 2.478182 1_555
Al19 Ni21 2.509080 1_555
Al19 Ni13 2.509080 1_555
Al20 Ni20 2.424476 1_556
Al20 Ni14 2.424476 1_555
Al20 Ni6 2.478182 1_555
Al20 Ni5 2.478182 1_656
Al20 Ni4 2.509080 1_566
Al20 Ni10 2.509080 1_556
Al21 Ni12 2.424476 1_556
Al21 Ni17 2.424476 1_555
Al21 Ni9 2.478182 1_555
Al21 Ni2 2.478182 1_556
Al21 Ni3 2.509080 1_656
Al21 Ni4 2.509080 1_556
Al22 Ni18 2.424476 1_555
Al22 Ni23 2.424476 1_555
Al22 Ni8 2.478182 1_665
Al22 Ni1 2.478182 1_555
Al22 Ni10 2.509080 1_555
Al22 Ni7 2.509080 1_555
Al23 Ni13 2.424476 1_555
Al23 Ni14 2.424476 1_555
Al23 Ni4 2.478182 1_566
Al23 Ni7 2.478182 1_555
Al23 Ni6 2.509080 1_555
Al23 Ni0 2.509080 1_555
Al24 Ni20 2.424476 1_555
Al24 Ni21 2.424476 1_655
Al24 Ni3 2.478182 1_655
Al24 Ni10 2.478182 1_555
Al24 Ni11 2.509080 1_665
Al24 Ni5 2.509080 1_655
Al25 Ni22 2.424476 1_565
Al25 Ni16 2.424476 1_555
Al25 Ni0 2.478182 1_555
Al25 Ni11 2.478182 1_565
Al25 Ni2 2.509080 1_566
Al25 Ni8 2.509080 1_565
Al26 Ni12 2.424476 1_555
Al26 Ni18 2.424476 1_555
Al26 Ni10 2.478182 1_555
Al26 Ni3 2.478182 1_655
Al26 Ni2 2.509080 1_555
Al26 Ni1 2.509080 1_555
Al27 Ni19 2.424476 1_555
Al27 Ni22 2.424476 1_555
Al27 Ni2 2.478182 1_556
Al27 Ni9 2.478182 1_555
Al27 Ni11 2.509080 1_555
Al27 Ni6 2.509080 1_555
Al28 Ni17 2.424476 1_565
Al28 Ni23 2.424476 1_555
Al28 Ni7 2.478182 1_555
Al28 Ni4 2.478182 1_566
Al28 Ni9 2.509080 1_565
Al28 Ni8 2.509080 1_665
Al29 Ni16 2.424476 1_655
Al29 Ni15 2.424476 1_555
Al29 Ni1 2.478182 1_555
Al29 Ni8 2.478182 1_665
Al29 Ni5 2.509080 1_656
Al29 Ni0 2.509080 1_655
Al30 Ni13 2.424476 1_555
Al30 Ni21 2.424476 1_555
Al30 Ni11 2.478182 1_565
Al30 Ni0 2.478182 1_555
Al30 Ni3 2.509080 1_555
Al30 Ni7 2.509080 1_555
Al31 Ni19 2.424476 1_555
Al31 Ni15 2.424476 1_555
Al31 Ni5 2.478182 1_656
Al31 Ni6 2.478182 1_555
Al31 Ni9 2.509080 1_555
Al31 Ni1 2.509080 1_555
