# generated using pymatgen
data_LiVCO5
_symmetry_space_group_name_H-M   'P 1'
_cell_length_a   6.04207900
_cell_length_b   9.90310446
_cell_length_c   11.72129487
_cell_angle_alpha   87.76078251
_cell_angle_beta   88.90445338
_cell_angle_gamma   88.77280702
_symmetry_Int_Tables_number   1
_chemical_formula_structural   LiVCO5
_chemical_formula_sum   'Li8 V8 C8 O40'
_cell_volume   700.53402511
_cell_formula_units_Z   8
loop_
 _symmetry_equiv_pos_site_id
 _symmetry_equiv_pos_as_xyz
  1  'x, y, z'
loop_
 _atom_site_type_symbol
 _atom_site_label
 _atom_site_symmetry_multiplicity
 _atom_site_fract_x
 _atom_site_fract_y
 _atom_site_fract_z
 _atom_site_occupancy
  Li  Li0  1  0.48976300  0.99802500  0.49552500  1
  Li  Li1  1  0.73951400  0.01059000  0.27107800  1
  Li  Li2  1  0.79325700  0.49858700  0.77053300  1
  Li  Li3  1  0.00075600  0.50714900  0.00272400  1
  Li  Li4  1  0.48955100  0.50558800  0.00017800  1
  Li  Li5  1  0.21345200  0.50363200  0.23480200  1
  Li  Li6  1  0.75614700  0.99133400  0.71970000  1
  Li  Li7  1  0.25226500  0.98746200  0.72608100  1
  V  V0  1  0.55668100  0.75187700  0.10640600  1
  V  V1  1  0.06679900  0.78574000  0.10932900  1
  V  V2  1  0.95796000  0.76170900  0.59621300  1
  V  V3  1  0.45129500  0.70876600  0.61286100  1
  V  V4  1  0.04566200  0.22676200  0.40098100  1
  V  V5  1  0.54785200  0.28921000  0.38519300  1
  V  V6  1  0.93767400  0.21679400  0.89336200  1
  V  V7  1  0.44173800  0.25143400  0.89535500  1
  C  C0  1  0.50957500  0.74433600  0.85739600  1
  C  C1  1  0.99806500  0.75178900  0.85862100  1
  C  C2  1  0.99768300  0.76407000  0.35054200  1
  C  C3  1  0.50140800  0.75847200  0.36029700  1
  C  C4  1  0.99938400  0.23488200  0.64855500  1
  C  C5  1  0.50196500  0.23468200  0.64072400  1
  C  C6  1  0.00016700  0.25713800  0.14308700  1
  C  C7  1  0.49429700  0.26302200  0.14174500  1
  O  O0  1  0.76148200  0.86610800  0.13647300  1
  O  O1  1  0.25625600  0.89652800  0.13495200  1
  O  O2  1  0.78252400  0.88719400  0.56643100  1
  O  O3  1  0.25913100  0.84612000  0.58277600  1
  O  O4  1  0.97093200  0.88798700  0.34298500  1
  O  O5  1  0.51285400  0.88437500  0.36165700  1
  O  O6  1  0.51019800  0.81721300  0.94871900  1
  O  O7  1  0.01321400  0.82533800  0.94884100  1
  O  O8  1  0.99209100  0.82472200  0.76142600  1
  O  O9  1  0.49019600  0.81623500  0.75982700  1
  O  O10  1  0.02605200  0.68764100  0.26088300  1
  O  O11  1  0.49483100  0.69185800  0.26514400  1
  O  O12  1  0.00384500  0.69309500  0.44958000  1
  O  O13  1  0.49540200  0.67864400  0.45313300  1
  O  O14  1  0.98973600  0.62521300  0.86302900  1
  O  O15  1  0.52427000  0.61788000  0.85906300  1
  O  O16  1  0.71825200  0.62101300  0.07275000  1
  O  O17  1  0.24635700  0.64743900  0.07996400  1
  O  O18  1  0.75576600  0.63987400  0.64190500  1
  O  O19  1  0.26817100  0.59571900  0.64870000  1
  O  O20  1  0.71940600  0.40892100  0.35413400  1
  O  O21  1  0.24561300  0.35395900  0.35916100  1
  O  O22  1  0.75040200  0.35381100  0.91602100  1
  O  O23  1  0.27598500  0.38197100  0.92416900  1
  O  O24  1  0.00989600  0.38366600  0.13719600  1
  O  O25  1  0.46874000  0.38890100  0.13845500  1
  O  O26  1  0.00152300  0.30268900  0.55063800  1
  O  O27  1  0.49596300  0.31096600  0.54841800  1
  O  O28  1  0.98026000  0.31023700  0.73899200  1
  O  O29  1  0.50965400  0.30121800  0.73511600  1
  O  O30  1  0.52745000  0.19243300  0.23717000  1
  O  O31  1  0.99941800  0.18414700  0.23807600  1
  O  O32  1  0.98883800  0.18350100  0.05121300  1
  O  O33  1  0.49253400  0.18929800  0.04975900  1
  O  O34  1  0.01023200  0.10775600  0.65823700  1
  O  O35  1  0.50151800  0.10560700  0.64181700  1
  O  O36  1  0.74445700  0.15299400  0.41743000  1
  O  O37  1  0.21934300  0.10443600  0.43465800  1
  O  O38  1  0.75441300  0.10032800  0.86556800  1
  O  O39  1  0.23988700  0.13436000  0.86357000  1
loop_
_geom_bond_atom_site_label_1
_geom_bond_atom_site_label_2
_geom_bond_distance
_geom_bond_site_symmetry_2
Li0 O5 1.967533 1_555
Li0 O37 2.049680 1_565
Li0 O35 2.056957 1_565
Li0 O2 2.219490 1_555
Li0 O3 2.272845 1_555
Li0 O36 2.344954 1_565
Li1 O4 2.007988 1_545
Li1 O5 2.116379 1_545
Li1 O0 2.171269 1_545
Li1 O30 2.215251 1_555
Li1 O36 2.263890 1_555
Li1 O31 2.368588 1_555
Li2 O18 2.028984 1_555
Li2 O14 2.091997 1_555
Li2 O22 2.199697 1_555
Li2 O28 2.200027 1_555
Li2 O15 2.250089 1_555
Li3 O24 1.957710 1_555
Li3 O14 1.975802 1_454
Li3 O16 2.189762 1_455
Li3 O23 2.256614 1_554
Li3 O17 2.278133 1_555
Li3 O22 2.429943 1_454
Li4 O25 1.957079 1_555
Li4 O15 1.967107 1_554
Li4 O16 2.031803 1_555
Li4 O23 2.038218 1_554
Li4 O17 2.229076 1_555
Li4 O22 2.381432 1_554
Li5 O21 2.046743 1_555
Li5 O24 2.110826 1_555
Li5 O10 2.153619 1_555
Li5 O25 2.214516 1_555
Li5 O17 2.271104 1_555
Li5 O11 2.588845 1_555
Li6 O34 2.042974 1_665
Li6 O38 2.057060 1_565
Li6 O35 2.092693 1_565
Li6 O2 2.107900 1_555
Li6 O8 2.203811 1_555
Li6 O9 2.415967 1_555
Li7 O34 2.021364 1_565
Li7 O35 2.130909 1_565
Li7 O39 2.211990 1_565
Li7 O3 2.227327 1_555
Li7 O9 2.227866 1_555
Li7 O8 2.295994 1_455
C0 O15 1.252968 1_555
C0 O6 1.314277 1_555
C0 O9 1.329100 1_555
C1 O14 1.254589 1_555
C1 O7 1.312987 1_655
C1 O8 1.325525 1_555
C2 O4 1.234284 1_555
C2 O10 1.325292 1_655
C2 O12 1.334080 1_655
C3 O5 1.250964 1_555
C3 O11 1.319472 1_555
C3 O13 1.320175 1_555
C4 O34 1.260038 1_655
C4 O26 1.306869 1_655
C4 O28 1.321877 1_555
C5 O35 1.277867 1_555
C5 O27 1.295793 1_555
C5 O29 1.311748 1_555
C6 O24 1.254799 1_555
C6 O31 1.303541 1_455
C6 O32 1.327580 1_455
C7 O25 1.252019 1_555
C7 O30 1.311990 1_555
C7 O33 1.325875 1_555
O0 V0 1.744396 1_555
O0 V1 2.017976 1_655
O1 V1 1.642252 1_555
O1 V0 2.315549 1_555
O2 V2 1.647290 1_555
O3 V3 1.798107 1_555
O3 V2 2.019604 1_455
O6 V0 1.957636 1_556
O7 V1 1.938413 1_556
O8 V2 2.072974 1_555
O9 V3 2.079628 1_555
O10 V1 2.004667 1_555
O11 V0 1.962480 1_555
O12 V2 1.886152 1_455
O13 V3 1.919991 1_555
O16 V0 1.661079 1_555
O17 V1 1.769245 1_555
O17 V0 2.193564 1_555
O18 V2 1.795185 1_555
O18 V3 1.979308 1_555
O19 V3 1.628665 1_555
O19 V2 2.535112 1_455
O20 V5 1.617674 1_555
O21 V4 1.811306 1_555
O21 V5 1.948064 1_555
O22 V6 1.772830 1_555
O22 V7 2.163827 1_555
O23 V7 1.659491 1_555
O26 V4 1.946847 1_555
O27 V5 1.952296 1_555
O28 V6 2.014465 1_555
O29 V7 1.961111 1_555
O30 V5 2.021680 1_555
O31 V4 1.997654 1_655
O32 V6 1.896685 1_554
O33 V7 1.916871 1_554
O36 V5 1.811707 1_555
O36 V4 1.978744 1_655
O37 V4 1.627444 1_555
O38 V6 1.661424 1_555
O38 V7 2.413459 1_555
O39 V7 1.755597 1_555
O39 V6 2.014118 1_455
