# generated using pymatgen
data_Pr(ClO)3
_symmetry_space_group_name_H-M   'P 1'
_cell_length_a   3.98363073
_cell_length_b   8.46121985
_cell_length_c   19.96390968
_cell_angle_alpha   90.00000000
_cell_angle_beta   90.00000000
_cell_angle_gamma   90.00000000
_symmetry_Int_Tables_number   1
_chemical_formula_structural   Pr(ClO)3
_chemical_formula_sum   'Pr4 Cl12 O12'
_cell_volume   672.91103428
_cell_formula_units_Z   4
loop_
 _symmetry_equiv_pos_site_id
 _symmetry_equiv_pos_as_xyz
  1  'x, y, z'
loop_
 _atom_site_type_symbol
 _atom_site_label
 _atom_site_symmetry_multiplicity
 _atom_site_fract_x
 _atom_site_fract_y
 _atom_site_fract_z
 _atom_site_occupancy
  Pr  Pr0  1  0.74968106  0.75000000  0.00372030  1
  Pr  Pr1  1  0.25031894  0.25000000  0.99627970  1
  Pr  Pr2  1  0.24968106  0.25000000  0.49627970  1
  Pr  Pr3  1  0.75031894  0.75000000  0.50372030  1
  Cl  Cl0  1  0.75102793  0.05640852  0.56903776  1
  Cl  Cl1  1  0.24897207  0.94359148  0.43096224  1
  Cl  Cl2  1  0.25102793  0.94359148  0.93096224  1
  Cl  Cl3  1  0.24897207  0.55640852  0.43096224  1
  Cl  Cl4  1  0.74897207  0.05640852  0.06903776  1
  Cl  Cl5  1  0.75102793  0.44359148  0.56903776  1
  Cl  Cl6  1  0.74897207  0.44359148  0.06903776  1
  Cl  Cl7  1  0.25102793  0.55640852  0.93096224  1
  Cl  Cl8  1  0.27306991  0.75000000  0.65010629  1
  Cl  Cl9  1  0.72693009  0.25000000  0.34989371  1
  Cl  Cl10  1  0.77306991  0.25000000  0.84989371  1
  Cl  Cl11  1  0.22693009  0.75000000  0.15010629  1
  O  O0  1  0.78954759  0.67763153  0.78963732  1
  O  O1  1  0.21045241  0.32236847  0.21036268  1
  O  O2  1  0.28954759  0.32236847  0.71036268  1
  O  O3  1  0.21045241  0.17763153  0.21036268  1
  O  O4  1  0.71045241  0.67763153  0.28963732  1
  O  O5  1  0.78954759  0.82236847  0.78963732  1
  O  O6  1  0.71045241  0.82236847  0.28963732  1
  O  O7  1  0.28954759  0.17763153  0.71036268  1
  O  O8  1  0.24993907  0.75000000  0.56665971  1
  O  O9  1  0.75006093  0.25000000  0.43334029  1
  O  O10  1  0.74993907  0.25000000  0.93334029  1
  O  O11  1  0.25006093  0.75000000  0.06665971  1
loop_
_geom_bond_atom_site_label_1
_geom_bond_atom_site_label_2
_geom_bond_distance
_geom_bond_site_symmetry_2
Cl0 Pr3 2.902055 1_545
Cl0 Pr2 2.956172 1_655
Cl0 Pr2 2.963393 1_555
Cl1 Pr2 2.902055 1_565
Cl1 Pr3 2.956172 1_455
Cl1 Pr3 2.963393 1_555
Cl2 Pr1 2.902055 1_565
Cl2 Pr0 2.956172 1_556
Cl2 Pr0 2.963393 1_456
Cl3 Pr2 2.902055 1_555
Cl3 Pr3 2.956172 1_455
Cl3 Pr3 2.963393 1_555
Cl4 Pr0 2.902055 1_545
Cl4 Pr1 2.956172 1_554
Cl4 Pr1 2.963393 1_654
Cl5 Pr3 2.902055 1_555
Cl5 Pr2 2.956172 1_655
Cl5 Pr2 2.963393 1_555
Cl6 Pr0 2.902055 1_555
Cl6 Pr1 2.956172 1_554
Cl6 Pr1 2.963393 1_654
Cl7 Pr1 2.902055 1_555
Cl7 Pr0 2.956172 1_556
Cl7 Pr0 2.963393 1_456
Cl8 O8 1.668466 1_555
Cl9 O9 1.668466 1_555
Cl10 O10 1.668466 1_555
Cl11 O11 1.668466 1_555
O0 O5 1.224651 1_555
O1 O3 1.224651 1_555
O2 O7 1.224651 1_555
O4 O6 1.224651 1_555
O8 Pr3 2.353749 1_455
O8 Pr3 2.356309 1_555
O9 Pr2 2.353749 1_655
O9 Pr2 2.356309 1_555
O10 Pr1 2.353749 1_555
O10 Pr1 2.356309 1_655
O11 Pr0 2.353749 1_555
O11 Pr0 2.356309 1_455
