# generated using pymatgen
data_Mg6AlCrO8
_symmetry_space_group_name_H-M   'P 1'
_cell_length_a   8.80473884
_cell_length_b   4.27397779
_cell_length_c   4.27397779
_cell_angle_alpha   90.00000000
_cell_angle_beta   90.00000000
_cell_angle_gamma   90.00000000
_symmetry_Int_Tables_number   1
_chemical_formula_structural   Mg6AlCrO8
_chemical_formula_sum   'Mg6 Al1 Cr1 O8'
_cell_volume   160.83516197
_cell_formula_units_Z   1
loop_
 _symmetry_equiv_pos_site_id
 _symmetry_equiv_pos_as_xyz
  1  'x, y, z'
loop_
 _atom_site_type_symbol
 _atom_site_label
 _atom_site_symmetry_multiplicity
 _atom_site_fract_x
 _atom_site_fract_y
 _atom_site_fract_z
 _atom_site_occupancy
  Mg  Mg0  1  0.50000000  0.00000000  0.00000000  1
  Mg  Mg1  1  0.50000000  0.50000000  0.50000000  1
  Mg  Mg2  1  0.25101473  0.00000000  0.50000000  1
  Mg  Mg3  1  0.74898527  0.00000000  0.50000000  1
  Mg  Mg4  1  0.25101473  0.50000000  0.00000000  1
  Mg  Mg5  1  0.74898527  0.50000000  0.00000000  1
  Al  Al0  1  0.00000000  0.00000000  0.00000000  1
  Cr  Cr0  1  0.00000000  0.50000000  0.50000000  1
  O  O0  1  0.22692648  0.00000000  0.00000000  1
  O  O1  1  0.77307352  0.00000000  0.00000000  1
  O  O2  1  0.26930638  0.50000000  0.50000000  1
  O  O3  1  0.73069362  0.50000000  0.50000000  1
  O  O4  1  0.00000000  0.00000000  0.50000000  1
  O  O5  1  0.50000000  0.00000000  0.50000000  1
  O  O6  1  0.00000000  0.50000000  0.00000000  1
  O  O7  1  0.50000000  0.50000000  0.00000000  1
loop_
_geom_bond_atom_site_label_1
_geom_bond_atom_site_label_2
_geom_bond_distance
_geom_bond_site_symmetry_2
Mg0 O7 2.136989 1_555
Mg0 O5 2.136989 1_554
Mg0 O5 2.136989 1_555
Mg0 O7 2.136989 1_545
Mg0 O1 2.404341 1_555
Mg0 O0 2.404341 1_555
Mg1 O2 2.031197 1_555
Mg1 O3 2.031197 1_555
Mg1 O7 2.136989 1_555
Mg1 O7 2.136989 1_556
Mg1 O5 2.136989 1_555
Mg1 O5 2.136989 1_565
Mg2 O2 2.143049 1_555
Mg2 O2 2.143049 1_545
Mg2 O0 2.147488 1_555
Mg2 O0 2.147488 1_556
Mg2 O5 2.192250 1_555
Mg2 O4 2.210119 1_555
Mg3 O3 2.143049 1_545
Mg3 O3 2.143049 1_555
Mg3 O1 2.147488 1_555
Mg3 O1 2.147488 1_556
Mg3 O5 2.192250 1_555
Mg3 O4 2.210119 1_655
Mg4 O2 2.143049 1_554
Mg4 O2 2.143049 1_555
Mg4 O0 2.147488 1_555
Mg4 O0 2.147488 1_565
Mg4 O7 2.192250 1_555
Mg4 O6 2.210119 1_555
Mg5 O3 2.143049 1_555
Mg5 O3 2.143049 1_554
Mg5 O1 2.147488 1_555
Mg5 O1 2.147488 1_565
Mg5 O7 2.192250 1_555
Mg5 O6 2.210119 1_655
Al0 O0 1.998028 1_555
Al0 O1 1.998028 1_455
Al0 O6 2.136989 1_555
Al0 O4 2.136989 1_554
Al0 O4 2.136989 1_555
Al0 O6 2.136989 1_545
Cr0 O6 2.136989 1_555
Cr0 O4 2.136989 1_555
Cr0 O4 2.136989 1_565
Cr0 O6 2.136989 1_556
Cr0 O3 2.371172 1_455
Cr0 O2 2.371172 1_555
