# generated using pymatgen
data_Pr2FeCuO6
_symmetry_space_group_name_H-M   'P 1'
_cell_length_a   5.49174246
_cell_length_b   5.66436907
_cell_length_c   7.78032606
_cell_angle_alpha   89.99251913
_cell_angle_beta   89.99265440
_cell_angle_gamma   89.93475107
_symmetry_Int_Tables_number   1
_chemical_formula_structural   Pr2FeCuO6
_chemical_formula_sum   'Pr4 Fe2 Cu2 O12'
_cell_volume   242.02443467
_cell_formula_units_Z   2
loop_
 _symmetry_equiv_pos_site_id
 _symmetry_equiv_pos_as_xyz
  1  'x, y, z'
loop_
 _atom_site_type_symbol
 _atom_site_label
 _atom_site_symmetry_multiplicity
 _atom_site_fract_x
 _atom_site_fract_y
 _atom_site_fract_z
 _atom_site_occupancy
  Pr  Pr0  1  0.48796459  0.44492082  0.25014696  1
  Pr  Pr1  1  0.01181434  0.94533144  0.24976753  1
  Pr  Pr2  1  0.51203541  0.55507918  0.74985304  1
  Pr  Pr3  1  -0.01181434  0.05466856  0.75023247  1
  Fe  Fe0  1  0.50000000  -0.00000000  0.00000000  1
  Fe  Fe1  1  -0.00000000  0.50000000  0.50000000  1
  Cu  Cu0  1  -0.00000000  0.50000000  0.00000000  1
  Cu  Cu1  1  0.50000000  -0.00000000  0.50000000  1
  O  O0  1  0.21399525  0.20719728  0.04390579  1
  O  O1  1  0.28574480  0.70716798  0.45647265  1
  O  O2  1  0.78600475  0.79280272  -0.04390579  1
  O  O3  1  0.71425520  0.29283202  0.54352735  1
  O  O4  1  0.29188155  0.71018387  0.04426482  1
  O  O5  1  0.20809343  0.21034744  0.45514603  1
  O  O6  1  0.70811845  0.28981613  -0.04426482  1
  O  O7  1  0.79190657  0.78965256  0.54485397  1
  O  O8  1  0.58161378  0.01916701  0.24875955  1
  O  O9  1  -0.08240467  0.52035526  0.25119362  1
  O  O10  1  0.41838622  -0.01916701  0.75124045  1
  O  O11  1  0.08240467  0.47964474  0.74880638  1
loop_
_geom_bond_atom_site_label_1
_geom_bond_atom_site_label_2
_geom_bond_distance
_geom_bond_site_symmetry_2
Fe0 O2 1.989191 1_545
Fe0 O0 1.989191 1_555
Fe0 O8 1.989711 1_555
Fe0 O10 1.989711 1_554
Fe0 O6 2.030730 1_555
Fe0 O4 2.030730 1_545
Fe1 O3 1.989521 1_455
Fe1 O1 1.989521 1_555
Fe1 O11 1.991341 1_555
Fe1 O9 1.991341 1_555
Fe1 O7 2.028654 1_455
Fe1 O5 2.028654 1_555
Cu0 O9 2.009318 1_555
Cu0 O11 2.009318 1_554
Cu0 O4 2.027325 1_555
Cu0 O6 2.027325 1_455
Cu0 O2 2.060117 1_455
Cu0 O0 2.060117 1_555
Cu1 O10 2.008353 1_555
Cu1 O8 2.008353 1_555
Cu1 O7 2.026564 1_545
Cu1 O5 2.026564 1_555
Cu1 O1 2.062805 1_545
Cu1 O3 2.062805 1_555
O0 Pr1 2.449702 1_545
O0 Pr0 2.580223 1_555
O0 Pr3 2.740184 1_554
O1 Pr0 2.452190 1_555
O1 Pr1 2.581638 1_555
O1 Pr2 2.737618 1_555
O2 Pr3 2.449702 1_664
O2 Pr2 2.580223 1_554
O2 Pr1 2.740184 1_655
O3 Pr2 2.452190 1_555
O3 Pr3 2.581638 1_655
O3 Pr0 2.737618 1_555
O4 Pr0 2.445244 1_555
O4 Pr1 2.586777 1_555
O4 Pr2 2.734588 1_554
O5 Pr1 2.444058 1_545
O5 Pr0 2.583630 1_555
O5 Pr3 2.740127 1_555
O6 Pr2 2.445244 1_554
O6 Pr3 2.586777 1_654
O6 Pr0 2.734588 1_555
O7 Pr3 2.444058 1_665
O7 Pr2 2.583630 1_555
O7 Pr1 2.740127 1_655
O8 Pr1 2.398829 1_645
O8 Pr0 2.465308 1_555
O9 Pr0 2.398294 1_455
O9 Pr1 2.462803 1_555
O10 Pr3 2.398829 1_555
O10 Pr2 2.465308 1_545
O11 Pr2 2.398294 1_555
O11 Pr3 2.462803 1_555
