# generated using pymatgen
data_MgSi2
_symmetry_space_group_name_H-M   'P 1'
_cell_length_a   5.48144493
_cell_length_b   5.48144493
_cell_length_c   12.16077056
_cell_angle_alpha   77.50732010
_cell_angle_beta   77.50732010
_cell_angle_gamma   40.02666242
_symmetry_Int_Tables_number   1
_chemical_formula_structural   MgSi2
_chemical_formula_sum   'Mg4 Si8'
_cell_volume   228.68330437
_cell_formula_units_Z   4
loop_
 _symmetry_equiv_pos_site_id
 _symmetry_equiv_pos_as_xyz
  1  'x, y, z'
loop_
 _atom_site_type_symbol
 _atom_site_label
 _atom_site_symmetry_multiplicity
 _atom_site_fract_x
 _atom_site_fract_y
 _atom_site_fract_z
 _atom_site_occupancy
  Mg  Mg0  1  0.11179000  0.11179000  0.13089400  1
  Mg  Mg1  1  0.43848300  0.43848300  0.84327200  1
  Mg  Mg2  1  0.58759400  0.58759400  0.60339500  1
  Mg  Mg3  1  0.19030400  0.19030400  0.37957400  1
  Si  Si0  1  0.72926400  0.72926400  0.89667100  1
  Si  Si1  1  0.36644100  0.36644100  0.16419800  1
  Si  Si2  1  0.91534300  0.91534300  0.31966200  1
  Si  Si3  1  0.29455200  0.29455200  0.59400200  1
  Si  Si4  1  0.86949100  0.86949100  0.03525500  1
  Si  Si5  1  0.08967900  0.08967900  0.91327700  1
  Si  Si6  1  0.85892200  0.85892200  0.69548300  1
  Si  Si7  1  0.46890800  0.46890800  0.42409700  1
loop_
_geom_bond_atom_site_label_1
_geom_bond_atom_site_label_2
_geom_bond_distance
_geom_bond_site_symmetry_2
Mg0 Si2 2.688056 1_445
Mg0 Si5 2.707911 1_554
Mg0 Si1 2.744810 1_555
Mg0 Si4 2.986421 1_445
Mg0 Si1 3.098269 1_455
Mg0 Si1 3.098269 1_545
Mg0 Si4 3.239907 1_545
Mg0 Si4 3.239907 1_455
Mg1 Si5 2.698168 1_565
Mg1 Si5 2.698168 1_655
Mg1 Si0 2.818009 1_455
Mg1 Si0 2.818009 1_545
Mg1 Si6 2.845893 1_545
Mg1 Si6 2.845893 1_455
Mg1 Si4 2.951439 1_456
Mg1 Si4 2.951439 1_546
Mg1 Mg2 2.967426 1_555
Mg2 Si7 2.734265 1_555
Mg2 Si3 2.822223 1_565
Mg2 Si3 2.822223 1_655
Mg2 Si6 3.017822 1_455
Mg2 Si6 3.017822 1_545
Mg2 Si3 3.046914 1_555
Mg2 Si6 3.241414 1_555
Mg2 Mg3 3.274306 1_565
Mg2 Mg3 3.274306 1_655
Mg3 Si1 2.822019 1_555
Mg3 Si7 2.906005 1_455
Mg3 Si7 2.906005 1_545
Mg3 Si2 2.940410 1_455
Mg3 Si2 2.940410 1_545
Mg3 Si3 3.040077 1_555
Mg3 Si7 3.040512 1_555
Mg3 Si2 3.082711 1_445
Si0 Si5 2.343871 1_655
Si0 Si5 2.343871 1_565
Si0 Si4 2.459169 1_556
Si0 Si6 2.503022 1_555
Si1 Si4 2.440555 1_455
Si1 Si4 2.440555 1_545
Si1 Si2 2.790286 1_545
Si1 Si2 2.790286 1_455
Si2 Si7 2.399845 1_565
Si2 Si7 2.399845 1_655
Si3 Si7 2.405441 1_555
Si3 Si6 2.420461 1_545
Si3 Si6 2.420461 1_455
Si4 Si5 2.407412 1_664
