# generated using pymatgen
data_CeNbO2
_symmetry_space_group_name_H-M   'P 1'
_cell_length_a   6.26412200
_cell_length_b   6.26412200
_cell_length_c   7.39588566
_cell_angle_alpha   115.05492501
_cell_angle_beta   115.05493356
_cell_angle_gamma   90.00000000
_symmetry_Int_Tables_number   1
_chemical_formula_structural   CeNbO2
_chemical_formula_sum   'Ce4 Nb4 O8'
_cell_volume   232.40592150
_cell_formula_units_Z   4
loop_
 _symmetry_equiv_pos_site_id
 _symmetry_equiv_pos_as_xyz
  1  'x, y, z'
loop_
 _atom_site_type_symbol
 _atom_site_label
 _atom_site_symmetry_multiplicity
 _atom_site_fract_x
 _atom_site_fract_y
 _atom_site_fract_z
 _atom_site_occupancy
  Ce  Ce0  1  0.62500000  0.87500000  0.25000000  1
  Ce  Ce1  1  0.62500000  0.37500000  0.25000000  1
  Ce  Ce2  1  0.62500000  0.37500000  0.75000000  1
  Ce  Ce3  1  0.12500000  0.37500000  0.75000000  1
  Nb  Nb0  1  0.12500000  0.37500000  0.25000000  1
  Nb  Nb1  1  0.12500000  0.87500000  0.25000000  1
  Nb  Nb2  1  0.12500000  0.87500000  0.75000000  1
  Nb  Nb3  1  0.62500000  0.87500000  0.75000000  1
  O  O0  1  0.39974100  0.17758300  0.35506600  1
  O  O1  1  0.95532500  0.17748300  0.35506600  1
  O  O2  1  0.42748300  0.14974100  0.85506600  1
  O  O3  1  0.85025900  0.57241700  0.14493400  1
  O  O4  1  0.42758300  0.70532500  0.85506600  1
  O  O5  1  0.29467500  0.57251700  0.14493400  1
  O  O6  1  0.82251700  0.60025900  0.64493400  1
  O  O7  1  0.82241700  0.04467500  0.64493400  1
loop_
_geom_bond_atom_site_label_1
_geom_bond_atom_site_label_2
_geom_bond_distance
_geom_bond_site_symmetry_2
Ce0 O7 2.345583 1_565
Ce0 O4 2.345583 1_554
Ce0 O5 2.422135 1_555
Ce0 O1 2.422135 1_565
Ce0 O0 2.422540 1_565
Ce0 O3 2.422540 1_555
Ce1 O6 2.345583 1_555
Ce1 O2 2.345583 1_554
Ce1 O3 2.422135 1_555
Ce1 O0 2.422135 1_555
Ce1 O5 2.422540 1_555
Ce1 O1 2.422540 1_555
Ce2 O0 2.345583 1_555
Ce2 O3 2.345583 1_556
Ce2 O7 2.422135 1_555
Ce2 O4 2.422135 1_555
Ce2 O2 2.422540 1_555
Ce2 O6 2.422540 1_555
Ce3 O1 2.345583 1_455
Ce3 O5 2.345583 1_556
Ce3 O6 2.422135 1_455
Ce3 O2 2.422135 1_555
Ce3 O7 2.422540 1_455
Ce3 O4 2.422540 1_555
Nb0 O3 2.185452 1_455
Nb0 O0 2.185452 1_555
Nb0 O1 2.185901 1_455
Nb0 O5 2.185901 1_555
Nb1 O5 2.185452 1_555
Nb1 O1 2.185452 1_465
Nb1 O3 2.185901 1_455
Nb1 O0 2.185901 1_565
Nb2 O6 2.185452 1_455
Nb2 O2 2.185452 1_565
Nb2 O7 2.185901 1_465
Nb2 O4 2.185901 1_555
Nb3 O7 2.185452 1_565
Nb3 O4 2.185452 1_555
Nb3 O2 2.185901 1_565
Nb3 O6 2.185901 1_555
