# generated using pymatgen
data_Zr2FeS4
_symmetry_space_group_name_H-M   'P 1'
_cell_length_a   3.69719063
_cell_length_b   6.97845574
_cell_length_c   6.33423413
_cell_angle_alpha   63.14807086
_cell_angle_beta   90.00910906
_cell_angle_gamma   105.36917095
_symmetry_Int_Tables_number   1
_chemical_formula_structural   Zr2FeS4
_chemical_formula_sum   'Zr2 Fe1 S4'
_cell_volume   139.22768458
_cell_formula_units_Z   1
loop_
 _symmetry_equiv_pos_site_id
 _symmetry_equiv_pos_as_xyz
  1  'x, y, z'
loop_
 _atom_site_type_symbol
 _atom_site_label
 _atom_site_symmetry_multiplicity
 _atom_site_fract_x
 _atom_site_fract_y
 _atom_site_fract_z
 _atom_site_occupancy
  Zr  Zr0  1  0.49928895  0.99829972  0.49004180  1
  Zr  Zr1  1  0.99404213  0.98781310  0.01794926  1
  Fe  Fe0  1  0.31731330  0.63523419  0.34785292  1
  S  S0  1  0.62278090  0.24542094  0.04469774  1
  S  S1  1  0.12124966  0.24234889  0.54392713  1
  S  S2  1  0.37424704  0.74844155  0.95101004  1
  S  S3  1  0.86612703  0.73244260  0.47617111  1
loop_
_geom_bond_atom_site_label_1
_geom_bond_atom_site_label_2
_geom_bond_distance
_geom_bond_site_symmetry_2
Fe0 S3 2.236471 1_455
Fe0 S3 2.237385 1_555
Fe0 S2 2.259458 1_554
Fe0 S1 2.335748 1_555
S0 Zr0 2.515626 1_545
S0 Zr1 2.593062 1_445
S0 Zr1 2.593795 1_545
S1 Zr0 2.598790 1_445
S1 Zr0 2.599535 1_545
S1 Zr1 2.670457 1_446
S2 Zr0 2.598763 1_555
S2 Zr1 2.613589 1_456
S2 Zr1 2.613741 1_556
S3 Zr1 2.589387 1_555
S3 Zr0 2.601983 1_555
S3 Zr0 2.602828 1_655
