# generated using pymatgen
data_CdIn2(SeS)2
_symmetry_space_group_name_H-M   'P 1'
_cell_length_a   8.00789520
_cell_length_b   8.00789520
_cell_length_c   8.00789520
_cell_angle_alpha   60.00000000
_cell_angle_beta   60.00000000
_cell_angle_gamma   60.00000000
_symmetry_Int_Tables_number   1
_chemical_formula_structural   CdIn2(SeS)2
_chemical_formula_sum   'Cd2 In4 Se4 S4'
_cell_volume   363.11161826
_cell_formula_units_Z   2
loop_
 _symmetry_equiv_pos_site_id
 _symmetry_equiv_pos_as_xyz
  1  'x, y, z'
loop_
 _atom_site_type_symbol
 _atom_site_label
 _atom_site_symmetry_multiplicity
 _atom_site_fract_x
 _atom_site_fract_y
 _atom_site_fract_z
 _atom_site_occupancy
  Cd  Cd0  1  0.00000000  0.00000000  0.00000000  1
  Cd  Cd1  1  0.25000000  0.25000000  0.25000000  1
  In  In0  1  0.11512000  0.62829300  0.62829300  1
  In  In1  1  0.62829300  0.11512000  0.62829300  1
  In  In2  1  0.62829300  0.62829300  0.11512000  1
  In  In3  1  0.62829300  0.62829300  0.62829300  1
  Se  Se0  1  0.84720600  0.38426500  0.38426500  1
  Se  Se1  1  0.38426500  0.84720600  0.38426500  1
  Se  Se2  1  0.38426500  0.38426500  0.84720600  1
  Se  Se3  1  0.38426500  0.38426500  0.38426500  1
  S  S0  1  0.40570300  0.86476600  0.86476600  1
  S  S1  1  0.86476600  0.40570300  0.86476600  1
  S  S2  1  0.86476600  0.86476600  0.40570300  1
  S  S3  1  0.86476600  0.86476600  0.86476600  1
loop_
_geom_bond_atom_site_label_1
_geom_bond_atom_site_label_2
_geom_bond_distance
_geom_bond_site_symmetry_2
Cd0 S3 2.652650 1_444
Cd0 S2 2.652656 1_445
Cd0 S1 2.652656 1_454
Cd0 S0 2.652656 1_544
Cd1 Se0 2.633636 1_455
Cd1 Se1 2.633636 1_545
Cd1 Se2 2.633636 1_554
Cd1 Se3 2.633643 1_555
In0 S1 2.680322 1_455
In0 S2 2.680322 1_455
In0 S3 2.680333 1_455
In0 Se3 2.770896 1_555
In0 Se2 2.770907 1_555
In0 Se1 2.770907 1_555
In1 S0 2.680322 1_545
In1 S2 2.680322 1_545
In1 S3 2.680333 1_545
In1 Se3 2.770896 1_555
In1 Se0 2.770907 1_555
In1 Se2 2.770907 1_555
In2 S0 2.680322 1_554
In2 S1 2.680322 1_554
In2 S3 2.680333 1_554
In2 Se3 2.770896 1_555
In2 Se0 2.770907 1_555
In2 Se1 2.770907 1_555
In3 S2 2.680334 1_555
In3 S0 2.680334 1_555
In3 S1 2.680334 1_555
In3 Se0 2.770895 1_555
In3 Se1 2.770895 1_555
In3 Se2 2.770895 1_555
