# generated using pymatgen
data_Ba3In2(PO4)4
_symmetry_space_group_name_H-M   'P 1'
_cell_length_a   9.80208300
_cell_length_b   9.07536100
_cell_length_c   9.30199423
_cell_angle_alpha   64.80617763
_cell_angle_beta   90.00000000
_cell_angle_gamma   90.00000000
_symmetry_Int_Tables_number   1
_chemical_formula_structural   Ba3In2(PO4)4
_chemical_formula_sum   'Ba6 In4 P8 O32'
_cell_volume   748.76572920
_cell_formula_units_Z   2
loop_
 _symmetry_equiv_pos_site_id
 _symmetry_equiv_pos_as_xyz
  1  'x, y, z'
loop_
 _atom_site_type_symbol
 _atom_site_label
 _atom_site_symmetry_multiplicity
 _atom_site_fract_x
 _atom_site_fract_y
 _atom_site_fract_z
 _atom_site_occupancy
  Ba  Ba0  1  0.00000000  0.00000000  0.00000000  1
  Ba  Ba1  1  0.50000000  0.00000000  0.50000000  1
  Ba  Ba2  1  0.67647100  0.27242900  0.05397200  1
  Ba  Ba3  1  0.17647100  0.72757100  0.44602800  1
  Ba  Ba4  1  0.32352900  0.72757100  0.94602800  1
  Ba  Ba5  1  0.82352900  0.27242900  0.55397200  1
  In  In0  1  0.12691800  0.25803400  0.24152400  1
  In  In1  1  0.62691800  0.74196600  0.25847600  1
  In  In2  1  0.87308200  0.74196600  0.75847600  1
  In  In3  1  0.37308200  0.25803400  0.74152400  1
  P  P0  1  0.36145700  0.02955400  0.14523200  1
  P  P1  1  0.86145700  0.97044600  0.35476800  1
  P  P2  1  0.63854300  0.97044600  0.85476800  1
  P  P3  1  0.13854300  0.02955400  0.64523200  1
  P  P4  1  0.91376800  0.58423400  0.18472100  1
  P  P5  1  0.41376800  0.41576600  0.31527900  1
  P  P6  1  0.08623200  0.41576600  0.81527900  1
  P  P7  1  0.58623200  0.58423400  0.68472100  1
  O  O0  1  0.41017100  0.18002200  0.99555400  1
  O  O1  1  0.91017100  0.81997800  0.50444600  1
  O  O2  1  0.58982900  0.81997800  0.00444600  1
  O  O3  1  0.08982900  0.18002200  0.49555400  1
  O  O4  1  0.49281500  0.94190300  0.23843800  1
  O  O5  1  0.99281500  0.05809700  0.26156200  1
  O  O6  1  0.50718500  0.05809700  0.76156200  1
  O  O7  1  0.00718500  0.94190300  0.73843800  1
  O  O8  1  0.26879900  0.91252300  0.10955500  1
  O  O9  1  0.76879900  0.08747700  0.39044500  1
  O  O10  1  0.73120100  0.08747700  0.89044500  1
  O  O11  1  0.23120100  0.91252300  0.60955500  1
  O  O12  1  0.28734600  0.07848300  0.26768800  1
  O  O13  1  0.78734600  0.92151700  0.23231200  1
  O  O14  1  0.71265400  0.92151700  0.73231200  1
  O  O15  1  0.21265400  0.07848300  0.76768800  1
  O  O16  1  0.78354300  0.56593100  0.29143800  1
  O  O17  1  0.28354300  0.43406900  0.20856200  1
  O  O18  1  0.21645700  0.43406900  0.70856200  1
  O  O19  1  0.71645700  0.56593100  0.79143800  1
  O  O20  1  0.94514600  0.40475500  0.21538700  1
  O  O21  1  0.44514600  0.59524500  0.28461300  1
  O  O22  1  0.05485400  0.59524500  0.78461300  1
  O  O23  1  0.55485400  0.40475500  0.71538700  1
  O  O24  1  0.87894600  0.69246400  0.00865600  1
  O  O25  1  0.37894600  0.30753600  0.49134400  1
  O  O26  1  0.12105400  0.30753600  0.99134400  1
  O  O27  1  0.62105400  0.69246400  0.50865600  1
  O  O28  1  0.03187900  0.66478000  0.23442500  1
  O  O29  1  0.53187900  0.33522000  0.26557500  1
  O  O30  1  0.96812100  0.33522000  0.76557500  1
  O  O31  1  0.46812100  0.66478000  0.73442500  1
loop_
_geom_bond_atom_site_label_1
_geom_bond_atom_site_label_2
_geom_bond_distance
_geom_bond_site_symmetry_2
Ba0 O7 2.700894 1_544
Ba0 O5 2.700894 1_455
Ba0 O8 2.814625 1_545
Ba0 O10 2.814625 1_454
Ba0 O15 2.865594 1_554
Ba0 O13 2.865594 1_445
Ba0 O28 2.908619 1_545
Ba0 O30 2.908619 1_454
Ba0 O26 3.002135 1_554
Ba0 O24 3.002135 1_445
Ba1 O6 2.700894 1_555
Ba1 O4 2.700894 1_545
Ba1 O11 2.814625 1_545
Ba1 O9 2.814625 1_555
Ba1 O14 2.865594 1_545
Ba1 O12 2.865594 1_555
Ba1 O31 2.908619 1_545
Ba1 O29 2.908619 1_555
Ba1 O25 3.002135 1_555
Ba1 O27 3.002135 1_545
Ba2 O29 2.676329 1_555
Ba2 O10 2.755491 1_554
Ba2 O19 2.770271 1_554
Ba2 O0 2.863599 1_554
Ba2 O9 2.993303 1_555
Ba2 O23 3.092352 1_554
Ba2 O13 3.094730 1_545
Ba2 O4 3.286471 1_545
Ba2 O20 3.488189 1_555
Ba3 O28 2.676329 1_555
Ba3 O11 2.755491 1_555
Ba3 O18 2.770271 1_555
Ba3 O1 2.863599 1_455
Ba3 O8 2.993303 1_555
Ba3 O22 3.092352 1_555
Ba3 O12 3.094730 1_565
Ba3 O5 3.286471 1_465
Ba3 O21 3.488189 1_555
Ba4 O31 2.676329 1_555
Ba4 O8 2.755491 1_556
Ba4 O17 2.770271 1_556
Ba4 O2 2.863599 1_556
Ba4 O11 2.993303 1_555
Ba4 O21 3.092352 1_556
Ba4 O15 3.094730 1_565
Ba4 O6 3.286471 1_565
Ba4 O22 3.488189 1_555
Ba5 O30 2.676329 1_555
Ba5 O9 2.755491 1_555
Ba5 O16 2.770271 1_555
Ba5 O3 2.863599 1_655
Ba5 O10 2.993303 1_555
Ba5 O20 3.092352 1_555
Ba5 O14 3.094730 1_545
Ba5 O7 3.286471 1_645
Ba5 O23 3.488189 1_555
In0 O17 2.141552 1_555
In0 O26 2.175035 1_554
In0 O20 2.175114 1_455
In0 O5 2.183368 1_455
In0 O3 2.189250 1_555
In0 O12 2.202199 1_555
In1 O16 2.141552 1_555
In1 O27 2.175035 1_555
In1 O21 2.175114 1_555
In1 O4 2.183368 1_555
In1 O2 2.189250 1_555
In1 O13 2.202199 1_555
In2 O19 2.141552 1_555
In2 O24 2.175035 1_556
In2 O22 2.175114 1_655
In2 O7 2.183368 1_655
In2 O1 2.189250 1_555
In2 O14 2.202199 1_555
In3 O18 2.141552 1_555
In3 O25 2.175035 1_555
In3 O23 2.175114 1_555
In3 O6 2.183368 1_555
In3 O0 2.189250 1_555
In3 O15 2.202199 1_555
O0 P0 1.553248 1_556
O1 P1 1.553248 1_555
O2 P2 1.553248 1_554
O3 P3 1.553248 1_555
O4 P0 1.566896 1_565
O5 P1 1.566896 1_545
O6 P2 1.566896 1_545
O7 P3 1.566896 1_565
O8 P0 1.537263 1_565
O9 P1 1.537263 1_545
O10 P2 1.537263 1_545
O11 P3 1.537263 1_565
O12 P0 1.566218 1_555
O13 P1 1.566218 1_555
O14 P2 1.566218 1_555
O15 P3 1.566218 1_555
O16 P4 1.581776 1_555
O17 P5 1.581776 1_555
O18 P6 1.581776 1_555
O19 P7 1.581776 1_555
O20 P4 1.559970 1_555
O21 P5 1.559970 1_555
O22 P6 1.559970 1_555
O23 P7 1.559970 1_555
O24 P4 1.547247 1_555
O25 P5 1.547247 1_555
O26 P6 1.547247 1_555
O27 P7 1.547247 1_555
O28 P4 1.541487 1_455
O29 P5 1.541487 1_555
O30 P6 1.541487 1_655
O31 P7 1.541487 1_555
