# generated using pymatgen
data_Mg5Si6
_symmetry_space_group_name_H-M   'P 1'
_cell_length_a   15.38040981
_cell_length_b   15.38040981
_cell_length_c   6.95349446
_cell_angle_alpha   77.58348387
_cell_angle_beta   77.58348387
_cell_angle_gamma   14.85450101
_symmetry_Int_Tables_number   1
_chemical_formula_structural   Mg5Si6
_chemical_formula_sum   'Mg10 Si12'
_cell_volume   411.66177948
_cell_formula_units_Z   2
loop_
 _symmetry_equiv_pos_site_id
 _symmetry_equiv_pos_as_xyz
  1  'x, y, z'
loop_
 _atom_site_type_symbol
 _atom_site_label
 _atom_site_symmetry_multiplicity
 _atom_site_fract_x
 _atom_site_fract_y
 _atom_site_fract_z
 _atom_site_occupancy
  Mg  Mg0  1  0.27748300  0.27748300  0.86040800  1
  Mg  Mg1  1  0.01129700  0.01129700  0.00918400  1
  Mg  Mg2  1  0.58859700  0.58859700  0.12901300  1
  Mg  Mg3  1  0.43478700  0.43478700  0.89559600  1
  Mg  Mg4  1  0.84389900  0.84389900  0.99492500  1
  Mg  Mg5  1  0.17751300  0.17751300  0.03983300  1
  Mg  Mg6  1  0.54941300  0.54941300  0.66309800  1
  Mg  Mg7  1  0.47379900  0.47379900  0.35261800  1
  Mg  Mg8  1  0.80031500  0.80031500  0.48391300  1
  Mg  Mg9  1  0.21734800  0.21734800  0.51359700  1
  Si  Si0  1  0.72532500  0.72532500  0.79399400  1
  Si  Si1  1  0.29264500  0.29264500  0.22037400  1
  Si  Si2  1  0.98342700  0.98342700  0.65849800  1
  Si  Si3  1  0.03861100  0.03861100  0.36066000  1
  Si  Si4  1  0.66022800  0.66022800  0.35590000  1
  Si  Si5  1  0.36378900  0.36378900  0.64163600  1
  Si  Si6  1  0.91812300  0.91812300  0.19919300  1
  Si  Si7  1  0.10395300  0.10395300  0.81751300  1
  Si  Si8  1  0.65276000  0.65276000  0.71870400  1
  Si  Si9  1  0.36671900  0.36671900  0.28095300  1
  Si  Si10  1  0.91132900  0.91132900  0.56531600  1
  Si  Si11  1  0.11157800  0.11157800  0.44507600  1
loop_
_geom_bond_atom_site_label_1
_geom_bond_atom_site_label_2
_geom_bond_distance
_geom_bond_site_symmetry_2
Mg0 Si1 2.642163 1_556
Mg0 Si0 2.648759 1_545
Mg0 Si0 2.648759 1_455
Mg0 Si5 2.740039 1_555
Mg1 Si3 2.747774 1_555
Mg1 Si2 2.750988 1_444
Mg1 Si7 2.851405 1_554
Mg1 Si6 2.862605 1_445
Mg2 Si3 2.794114 1_655
Mg2 Si3 2.794114 1_565
Mg2 Si7 2.902395 1_654
Mg2 Si7 2.902395 1_564
Mg2 Si4 2.959371 1_555
Mg2 Si8 3.090132 1_554
Mg2 Si11 3.153162 1_655
Mg2 Si11 3.153162 1_565
Mg3 Si2 2.794888 1_545
Mg3 Si2 2.794888 1_455
Mg3 Si6 2.863994 1_456
Mg3 Si6 2.863994 1_546
Mg3 Si9 3.013014 1_556
Mg3 Si5 3.076833 1_555
Mg4 Si1 2.791368 1_566
Mg4 Si1 2.791368 1_656
Mg4 Si6 2.921971 1_556
Mg4 Si9 2.998911 1_656
Mg4 Si9 2.998911 1_566
Mg4 Si5 3.116000 1_565
Mg4 Si5 3.116000 1_655
Mg5 Si0 2.814394 1_454
Mg5 Si0 2.814394 1_544
Mg5 Si4 2.925496 1_545
Mg5 Si4 2.925496 1_455
Mg5 Si7 2.988080 1_554
Mg5 Si11 3.086663 1_555
Mg5 Si8 3.200040 1_544
Mg5 Si8 3.200040 1_454
Mg6 Si2 2.834253 1_455
Mg6 Si2 2.834253 1_545
Mg6 Si11 2.932591 1_655
Mg6 Si11 2.932591 1_565
Mg6 Si7 2.940754 1_565
Mg6 Si7 2.940754 1_655
Mg6 Si3 2.963874 1_565
Mg6 Si3 2.963874 1_655
Mg6 Si8 3.258145 1_555
Mg7 Si3 2.812871 1_565
Mg7 Si3 2.812871 1_655
Mg7 Si10 2.923877 1_545
Mg7 Si10 2.923877 1_455
Mg7 Si6 2.959875 1_455
Mg7 Si6 2.959875 1_545
Mg7 Si2 2.972181 1_455
Mg7 Si2 2.972181 1_545
Mg8 Si1 2.748027 1_565
Mg8 Si1 2.748027 1_655
Mg8 Si0 2.782500 1_555
Mg8 Si9 2.967756 1_655
Mg8 Si9 2.967756 1_565
Mg8 Si5 3.134508 1_565
Mg8 Si5 3.134508 1_655
Mg9 Si1 2.720566 1_555
Mg9 Si0 2.831836 1_455
Mg9 Si0 2.831836 1_545
Mg9 Si8 2.941046 1_545
Mg9 Si8 2.941046 1_455
Mg9 Si4 3.003247 1_455
Mg9 Si4 3.003247 1_545
Si0 Si8 2.382414 1_555
Si1 Si9 2.386493 1_555
Si2 Si3 2.368685 1_665
Si4 Si8 2.483338 1_555
Si5 Si9 2.490157 1_555
Si6 Si9 2.519525 1_655
Si6 Si9 2.519525 1_565
Si7 Si8 2.489520 1_455
Si7 Si8 2.489520 1_545
Si10 Si2 2.423676 1_555
Si10 Si5 2.450216 1_655
Si10 Si5 2.450216 1_565
Si10 Si6 2.509067 1_555
Si11 Si3 2.421742 1_555
Si11 Si4 2.477993 1_455
Si11 Si4 2.477993 1_545
Si11 Si7 2.549437 1_555
