# generated using pymatgen
data_ThGaPt
_symmetry_space_group_name_H-M   'P 1'
_cell_length_a   7.33556981
_cell_length_b   7.33556981
_cell_length_c   4.10371957
_cell_angle_alpha   90.00000000
_cell_angle_beta   90.00000000
_cell_angle_gamma   120.00000926
_symmetry_Int_Tables_number   1
_chemical_formula_structural   ThGaPt
_chemical_formula_sum   'Th3 Ga3 Pt3'
_cell_volume   191.23878467
_cell_formula_units_Z   3
loop_
 _symmetry_equiv_pos_site_id
 _symmetry_equiv_pos_as_xyz
  1  'x, y, z'
loop_
 _atom_site_type_symbol
 _atom_site_label
 _atom_site_symmetry_multiplicity
 _atom_site_fract_x
 _atom_site_fract_y
 _atom_site_fract_z
 _atom_site_occupancy
  Th  Th0  1  0.41501464  0.41501464  0.50000000  1
  Th  Th1  1  0.58498536  0.00000000  0.50000000  1
  Th  Th2  1  0.00000000  0.58498536  0.50000000  1
  Ga  Ga0  1  0.76063684  0.76063684  0.00000000  1
  Ga  Ga1  1  0.23936316  0.00000000  0.00000000  1
  Ga  Ga2  1  0.00000000  0.23936316  -0.00000000  1
  Pt  Pt0  1  0.66666700  0.33333300  -0.00000000  1
  Pt  Pt1  1  0.33333300  0.66666700  -0.00000000  1
  Pt  Pt2  1  0.00000000  -0.00000000  0.50000000  1
loop_
_geom_bond_atom_site_label_1
_geom_bond_atom_site_label_2
_geom_bond_distance
_geom_bond_site_symmetry_2
Ga0 Pt2 2.700591 1_665
Ga0 Pt2 2.700591 1_664
Ga0 Pt0 2.853011 1_555
Ga0 Pt1 2.853011 1_555
Ga0 Ga1 3.041247 1_665
Ga0 Ga2 3.041247 1_665
Ga0 Th0 3.261603 1_554
Ga0 Th0 3.261603 1_555
Ga0 Th2 3.349011 1_654
Ga0 Th1 3.349011 1_565
Ga0 Th2 3.349011 1_655
Ga0 Th1 3.349011 1_564
Ga1 Pt2 2.700591 1_555
Ga1 Pt2 2.700591 1_554
Ga1 Pt1 2.853004 1_545
Ga1 Pt0 2.853008 1_555
Ga1 Ga2 3.041248 1_555
Ga1 Th1 3.261603 1_555
Ga1 Th1 3.261603 1_554
Ga1 Th2 3.349010 1_545
Ga1 Th2 3.349010 1_544
Ga1 Th0 3.349010 1_555
Ga1 Th0 3.349010 1_554
Ga2 Pt2 2.700591 1_555
Ga2 Pt2 2.700591 1_554
Ga2 Pt0 2.853004 1_455
Ga2 Pt1 2.853008 1_555
Ga2 Th2 3.261603 1_555
Ga2 Th2 3.261603 1_554
Ga2 Th1 3.349010 1_455
Ga2 Th1 3.349010 1_454
Ga2 Th0 3.349010 1_555
Ga2 Th0 3.349010 1_554
Pt0 Th1 3.013798 1_555
Pt0 Th1 3.013798 1_554
Pt0 Th2 3.013799 1_655
Pt0 Th2 3.013799 1_654
Pt0 Th0 3.013803 1_554
Pt0 Th0 3.013803 1_555
Pt1 Th2 3.013798 1_555
Pt1 Th2 3.013798 1_554
Pt1 Th1 3.013799 1_565
Pt1 Th1 3.013799 1_564
Pt1 Th0 3.013803 1_554
Pt1 Th0 3.013803 1_555
Pt2 Th0 3.044368 1_555
Pt2 Th2 3.044369 1_545
Pt2 Th1 3.044369 1_455
