# generated using pymatgen
data_NbCr3(AgS4)2
_symmetry_space_group_name_H-M   'P 1'
_cell_length_a   11.88273500
_cell_length_b   3.47413700
_cell_length_c   12.23939900
_cell_angle_alpha   90.00000000
_cell_angle_beta   90.00000000
_cell_angle_gamma   90.00000000
_symmetry_Int_Tables_number   1
_chemical_formula_structural   NbCr3(AgS4)2
_chemical_formula_sum   'Nb2 Cr6 Ag4 S16'
_cell_volume   505.26992110
_cell_formula_units_Z   2
loop_
 _symmetry_equiv_pos_site_id
 _symmetry_equiv_pos_as_xyz
  1  'x, y, z'
loop_
 _atom_site_type_symbol
 _atom_site_label
 _atom_site_symmetry_multiplicity
 _atom_site_fract_x
 _atom_site_fract_y
 _atom_site_fract_z
 _atom_site_occupancy
  Nb  Nb0  1  0.85244200  0.75000000  0.28020700  1
  Nb  Nb1  1  0.64755800  0.25000000  0.78020700  1
  Cr  Cr0  1  0.10989800  0.25000000  0.07663300  1
  Cr  Cr1  1  0.89964000  0.75000000  0.92336600  1
  Cr  Cr2  1  0.39010200  0.75000000  0.57663300  1
  Cr  Cr3  1  0.60036000  0.25000000  0.42336600  1
  Cr  Cr4  1  0.15398100  0.25000000  0.70754700  1
  Cr  Cr5  1  0.34601900  0.75000000  0.20754700  1
  Ag  Ag0  1  0.14407400  0.75000000  0.41298800  1
  Ag  Ag1  1  0.87159500  0.25000000  0.58797000  1
  Ag  Ag2  1  0.35592600  0.25000000  0.91298800  1
  Ag  Ag3  1  0.62840500  0.75000000  0.08797000  1
  S  S0  1  0.05093900  0.75000000  0.62138600  1
  S  S1  1  0.95355900  0.25000000  0.38072100  1
  S  S2  1  0.44906100  0.25000000  0.12138600  1
  S  S3  1  0.54644100  0.75000000  0.88072100  1
  S  S4  1  0.03606800  0.25000000  0.88520700  1
  S  S5  1  0.96874500  0.75000000  0.11472900  1
  S  S6  1  0.46393200  0.75000000  0.38520700  1
  S  S7  1  0.53125500  0.25000000  0.61472900  1
  S  S8  1  0.20922800  0.25000000  0.25060600  1
  S  S9  1  0.79812000  0.75000000  0.75179900  1
  S  S10  1  0.29077200  0.75000000  0.75060600  1
  S  S11  1  0.70188000  0.25000000  0.25179900  1
  S  S12  1  0.23759700  0.75000000  0.04281800  1
  S  S13  1  0.76605600  0.25000000  0.96402300  1
  S  S14  1  0.26240300  0.25000000  0.54281800  1
  S  S15  1  0.73394400  0.75000000  0.46402300  1
loop_
_geom_bond_atom_site_label_1
_geom_bond_atom_site_label_2
_geom_bond_distance
_geom_bond_site_symmetry_2
Nb0 S1 2.444297 1_555
Nb0 S1 2.444297 1_565
Nb0 S5 2.451931 1_555
Nb0 S11 2.517764 1_555
Nb0 S11 2.517764 1_565
Nb0 S15 2.654106 1_555
Nb1 S3 2.444297 1_555
Nb1 S3 2.444297 1_545
Nb1 S7 2.451931 1_555
Nb1 S9 2.517764 1_545
Nb1 S9 2.517764 1_555
Nb1 S13 2.654106 1_555
Cr0 S12 2.343340 1_555
Cr0 S12 2.343340 1_545
Cr0 S8 2.434576 1_555
Cr0 S5 2.459288 1_445
Cr0 S5 2.459288 1_455
Cr0 S4 2.501804 1_554
Cr1 S13 2.405138 1_565
Cr1 S13 2.405138 1_555
Cr1 S4 2.421492 1_655
Cr1 S4 2.421492 1_665
Cr1 S9 2.421720 1_555
Cr1 S5 2.481945 1_556
Cr2 S14 2.343340 1_555
Cr2 S14 2.343340 1_565
Cr2 S10 2.434576 1_555
Cr2 S7 2.459288 1_565
Cr2 S7 2.459288 1_555
Cr2 S6 2.501804 1_555
Cr3 S15 2.405138 1_555
Cr3 S15 2.405138 1_545
Cr3 S6 2.421492 1_555
Cr3 S6 2.421492 1_545
Cr3 S11 2.421720 1_555
Cr3 S7 2.481945 1_555
Cr4 S0 2.372490 1_545
Cr4 S0 2.372490 1_555
Cr4 S14 2.392664 1_555
Cr4 S10 2.436646 1_545
Cr4 S10 2.436646 1_555
Cr4 S4 2.586774 1_555
Cr5 S2 2.372490 1_555
Cr5 S2 2.372490 1_565
Cr5 S12 2.392664 1_555
Cr5 S8 2.436646 1_555
Cr5 S8 2.436646 1_565
Cr5 S6 2.586774 1_555
Ag0 S14 2.742170 1_555
Ag0 S14 2.742170 1_565
Ag0 S8 2.750781 1_555
Ag0 S8 2.750781 1_565
Ag0 S0 2.780410 1_555
Ag0 S1 2.880685 1_455
Ag0 S1 2.880685 1_465
Ag1 S1 2.717158 1_555
Ag1 S0 2.779614 1_655
Ag1 S0 2.779614 1_645
Ag1 S9 2.792917 1_545
Ag1 S9 2.792917 1_555
Ag1 S15 2.827406 1_555
Ag1 S15 2.827406 1_545
Ag2 S12 2.742170 1_556
Ag2 S12 2.742170 1_546
Ag2 S10 2.750781 1_545
Ag2 S10 2.750781 1_555
Ag2 S2 2.780410 1_556
Ag2 S3 2.880685 1_545
Ag2 S3 2.880685 1_555
Ag3 S3 2.717158 1_554
Ag3 S2 2.779614 1_565
Ag3 S2 2.779614 1_555
Ag3 S11 2.792917 1_565
Ag3 S11 2.792917 1_555
Ag3 S13 2.827406 1_564
Ag3 S13 2.827406 1_554
