# generated using pymatgen
data_DyAlPd
_symmetry_space_group_name_H-M   'P 1'
_cell_length_a   4.42942333
_cell_length_b   6.88390447
_cell_length_c   7.73064367
_cell_angle_alpha   90.00000000
_cell_angle_beta   90.00000000
_cell_angle_gamma   90.00000000
_symmetry_Int_Tables_number   1
_chemical_formula_structural   DyAlPd
_chemical_formula_sum   'Dy4 Al4 Pd4'
_cell_volume   235.72067679
_cell_formula_units_Z   4
loop_
 _symmetry_equiv_pos_site_id
 _symmetry_equiv_pos_as_xyz
  1  'x, y, z'
loop_
 _atom_site_type_symbol
 _atom_site_label
 _atom_site_symmetry_multiplicity
 _atom_site_fract_x
 _atom_site_fract_y
 _atom_site_fract_z
 _atom_site_occupancy
  Dy  Dy0  1  0.75000000  0.46633060  0.17892829  1
  Dy  Dy1  1  0.75000000  0.96633060  0.32107171  1
  Dy  Dy2  1  0.25000000  0.53366940  0.82107171  1
  Dy  Dy3  1  0.25000000  0.03366940  0.67892829  1
  Al  Al0  1  0.75000000  0.35779229  0.56147863  1
  Al  Al1  1  0.75000000  0.85779229  0.93852137  1
  Al  Al2  1  0.25000000  0.64220771  0.43852137  1
  Al  Al3  1  0.25000000  0.14220771  0.06147863  1
  Pd  Pd0  1  0.75000000  0.22762195  0.88010376  1
  Pd  Pd1  1  0.75000000  0.72762195  0.61989624  1
  Pd  Pd2  1  0.25000000  0.77237805  0.11989624  1
  Pd  Pd3  1  0.25000000  0.27237805  0.38010376  1
loop_
_geom_bond_atom_site_label_1
_geom_bond_atom_site_label_2
_geom_bond_distance
_geom_bond_site_symmetry_2
Dy0 Pd0 2.834934 1_554
Dy0 Pd3 3.017660 1_555
Dy0 Pd3 3.017660 1_655
Dy0 Pd2 3.090602 1_655
Dy0 Pd2 3.090602 1_555
Dy1 Pd1 2.834934 1_555
Dy1 Pd2 3.017660 1_655
Dy1 Pd2 3.017660 1_555
Dy1 Pd3 3.090602 1_565
Dy1 Pd3 3.090602 1_665
Dy2 Pd2 2.834934 1_556
Dy2 Pd1 3.017660 1_455
Dy2 Pd1 3.017660 1_555
Dy2 Pd0 3.090602 1_555
Dy2 Pd0 3.090602 1_455
Dy3 Pd3 2.834934 1_555
Dy3 Pd0 3.017660 1_455
Dy3 Pd0 3.017660 1_555
Dy3 Pd1 3.090602 1_545
Dy3 Pd1 3.090602 1_445
Al0 Pd1 2.585616 1_555
Al0 Pd0 2.621107 1_555
Al0 Pd3 2.686388 1_555
Al0 Pd3 2.686388 1_655
Al0 Dy0 3.050285 1_555
Al0 Dy2 3.224613 1_655
Al0 Dy2 3.224613 1_555
Al0 Dy3 3.272267 1_655
Al0 Dy3 3.272267 1_555
Al0 Dy1 3.273513 1_545
Al1 Pd0 2.585616 1_565
Al1 Pd1 2.621107 1_555
Al1 Pd2 2.686388 1_656
Al1 Pd2 2.686388 1_556
Al1 Dy1 3.050285 1_556
Al1 Dy3 3.224613 1_665
Al1 Dy3 3.224613 1_565
Al1 Dy2 3.272267 1_555
Al1 Dy2 3.272267 1_655
Al1 Dy0 3.273513 1_556
Al2 Pd3 2.585616 1_555
Al2 Pd2 2.621107 1_555
Al2 Pd1 2.686388 1_455
Al2 Pd1 2.686388 1_555
Al2 Dy2 3.050285 1_555
Al2 Dy0 3.224613 1_555
Al2 Dy0 3.224613 1_455
Al2 Dy1 3.272267 1_455
Al2 Dy1 3.272267 1_555
Al2 Dy3 3.273513 1_565
Al3 Pd2 2.585616 1_545
Al3 Pd3 2.621107 1_555
Al3 Pd0 2.686388 1_454
Al3 Pd0 2.686388 1_554
Al3 Dy3 3.050285 1_554
Al3 Dy1 3.224613 1_445
Al3 Dy1 3.224613 1_545
Al3 Dy0 3.272267 1_455
Al3 Dy0 3.272267 1_555
Al3 Dy2 3.273513 1_554
