# generated using pymatgen
data_Ta4CoTe4
_symmetry_space_group_name_H-M   'P 1'
_cell_length_a   4.81369200
_cell_length_b   10.63844500
_cell_length_c   18.45826400
_cell_angle_alpha   90.00000000
_cell_angle_beta   90.00000000
_cell_angle_gamma   90.00000000
_symmetry_Int_Tables_number   1
_chemical_formula_structural   Ta4CoTe4
_chemical_formula_sum   'Ta16 Co4 Te16'
_cell_volume   945.25134659
_cell_formula_units_Z   4
loop_
 _symmetry_equiv_pos_site_id
 _symmetry_equiv_pos_as_xyz
  1  'x, y, z'
loop_
 _atom_site_type_symbol
 _atom_site_label
 _atom_site_symmetry_multiplicity
 _atom_site_fract_x
 _atom_site_fract_y
 _atom_site_fract_z
 _atom_site_occupancy
  Ta  Ta0  1  0.50000000  0.56576000  0.38065100  1
  Ta  Ta1  1  0.50000000  0.43424000  0.61934900  1
  Ta  Ta2  1  0.50000000  0.06576000  0.11934900  1
  Ta  Ta3  1  0.50000000  0.93424000  0.88065100  1
  Ta  Ta4  1  0.50000000  0.70833600  0.53712200  1
  Ta  Ta5  1  0.50000000  0.29166400  0.46287800  1
  Ta  Ta6  1  0.50000000  0.20833600  0.96287800  1
  Ta  Ta7  1  0.50000000  0.79166400  0.03712200  1
  Ta  Ta8  1  0.00000000  0.69369100  0.44124000  1
  Ta  Ta9  1  0.00000000  0.30630900  0.55876000  1
  Ta  Ta10  1  0.00000000  0.19369100  0.05876000  1
  Ta  Ta11  1  0.00000000  0.80630900  0.94124000  1
  Ta  Ta12  1  0.00000000  0.39897900  0.38925700  1
  Ta  Ta13  1  0.00000000  0.60102100  0.61074300  1
  Ta  Ta14  1  0.00000000  0.89897900  0.11074300  1
  Ta  Ta15  1  0.00000000  0.10102100  0.88925700  1
  Co  Co0  1  0.24944700  0.50000000  0.50000000  1
  Co  Co1  1  0.75055300  0.00000000  0.00000000  1
  Co  Co2  1  0.75055300  0.50000000  0.50000000  1
  Co  Co3  1  0.24944700  0.00000000  0.00000000  1
  Te  Te0  1  0.00000000  0.85868800  0.56519000  1
  Te  Te1  1  0.00000000  0.14131200  0.43481000  1
  Te  Te2  1  0.00000000  0.35868800  0.93481000  1
  Te  Te3  1  0.00000000  0.64131200  0.06519000  1
  Te  Te4  1  0.50000000  0.32750700  0.30894300  1
  Te  Te5  1  0.50000000  0.67249300  0.69105700  1
  Te  Te6  1  0.50000000  0.82750700  0.19105700  1
  Te  Te7  1  0.50000000  0.17249300  0.80894300  1
  Te  Te8  1  0.50000000  0.83482400  0.39969600  1
  Te  Te9  1  0.50000000  0.16517600  0.60030400  1
  Te  Te10  1  0.50000000  0.33482400  0.10030400  1
  Te  Te11  1  0.50000000  0.66517600  0.89969600  1
  Te  Te12  1  0.00000000  0.61049500  0.29340900  1
  Te  Te13  1  0.00000000  0.38950500  0.70659100  1
  Te  Te14  1  0.00000000  0.11049500  0.20659100  1
  Te  Te15  1  0.00000000  0.88950500  0.79340900  1
loop_
_geom_bond_atom_site_label_1
_geom_bond_atom_site_label_2
_geom_bond_distance
_geom_bond_site_symmetry_2
Ta0 Te4 2.859430 1_555
Ta0 Te8 2.883928 1_555
Ta0 Te12 2.934720 1_555
Ta0 Te12 2.934720 1_655
Ta1 Te5 2.859430 1_555
Ta1 Te9 2.883928 1_555
Ta1 Te13 2.934720 1_655
Ta1 Te13 2.934720 1_555
Ta2 Te6 2.859430 1_545
Ta2 Te10 2.883928 1_555
Ta2 Te14 2.934720 1_555
Ta2 Te14 2.934720 1_655
Ta3 Te7 2.859430 1_565
Ta3 Te11 2.883928 1_555
Ta3 Te15 2.934720 1_655
Ta3 Te15 2.934720 1_555
Ta4 Te5 2.866845 1_555
Ta4 Te8 2.871464 1_555
Ta4 Te0 2.935942 1_555
Ta4 Te0 2.935942 1_655
Ta5 Te4 2.866845 1_555
Ta5 Te9 2.871464 1_555
Ta5 Te1 2.935942 1_555
Ta5 Te1 2.935942 1_655
Ta6 Te7 2.866845 1_555
Ta6 Te10 2.871464 1_556
Ta6 Te2 2.935942 1_655
Ta6 Te2 2.935942 1_555
Ta7 Te6 2.866845 1_555
Ta7 Te11 2.871464 1_554
Ta7 Te3 2.935942 1_655
Ta7 Te3 2.935942 1_555
Ta8 Te12 2.868655 1_555
Ta8 Te0 2.883681 1_555
Ta8 Te8 2.938579 1_555
Ta8 Te8 2.938579 1_455
Ta9 Te13 2.868655 1_555
Ta9 Te1 2.883681 1_555
Ta9 Te9 2.938579 1_555
Ta9 Te9 2.938579 1_455
Ta10 Te14 2.868655 1_555
Ta10 Te2 2.883681 1_554
Ta10 Te10 2.938579 1_455
Ta10 Te10 2.938579 1_555
Ta11 Te15 2.868655 1_555
Ta11 Te3 2.883681 1_556
Ta11 Te11 2.938579 1_555
Ta11 Te11 2.938579 1_455
Ta12 Te12 2.862417 1_555
Ta12 Te1 2.867236 1_555
Ta12 Te4 2.927238 1_455
Ta12 Te4 2.927238 1_555
Ta13 Te13 2.862417 1_555
Ta13 Te0 2.867236 1_555
Ta13 Te5 2.927238 1_555
Ta13 Te5 2.927238 1_455
Ta14 Te14 2.862417 1_565
Ta14 Te3 2.867236 1_555
Ta14 Te6 2.927238 1_455
Ta14 Te6 2.927238 1_555
Ta15 Te15 2.862417 1_545
Ta15 Te2 2.867236 1_555
Ta15 Te7 2.927238 1_555
Ta15 Te7 2.927238 1_455
Co0 Co2 2.401522 1_455
Co0 Co2 2.412170 1_555
Co0 Ta12 2.602933 1_555
Co0 Ta13 2.602933 1_555
Co0 Ta0 2.607136 1_555
Co0 Ta1 2.607136 1_555
Co0 Ta4 2.614661 1_555
Co0 Ta5 2.614661 1_555
Co0 Ta8 2.619953 1_555
Co0 Ta9 2.619953 1_555
Co1 Co3 2.401522 1_655
Co1 Co3 2.412170 1_555
Co1 Ta14 2.602933 1_645
Co1 Ta15 2.602933 1_654
Co1 Ta2 2.607136 1_555
Co1 Ta3 2.607136 1_544
Co1 Ta7 2.614661 1_545
Co1 Ta6 2.614661 1_554
Co1 Ta10 2.619953 1_655
Co1 Ta11 2.619953 1_644
Co2 Ta12 2.602933 1_655
Co2 Ta13 2.602933 1_655
Co2 Ta0 2.607136 1_555
Co2 Ta1 2.607136 1_555
Co2 Ta4 2.614661 1_555
Co2 Ta5 2.614661 1_555
Co2 Ta8 2.619953 1_655
Co2 Ta9 2.619953 1_655
Co3 Ta14 2.602933 1_545
Co3 Ta15 2.602933 1_554
Co3 Ta2 2.607136 1_555
Co3 Ta3 2.607136 1_544
Co3 Ta7 2.614661 1_545
Co3 Ta6 2.614661 1_554
Co3 Ta10 2.619953 1_555
Co3 Ta11 2.619953 1_544
