# generated using pymatgen
data_LiMg30CrO32
_symmetry_space_group_name_H-M   'P 1'
_cell_length_a   8.50418616
_cell_length_b   8.50881024
_cell_length_c   8.50881024
_cell_angle_alpha   90.00000000
_cell_angle_beta   90.00000000
_cell_angle_gamma   90.00000000
_symmetry_Int_Tables_number   1
_chemical_formula_structural   LiMg30CrO32
_chemical_formula_sum   'Li1 Mg30 Cr1 O32'
_cell_volume   615.70181682
_cell_formula_units_Z   1
loop_
 _symmetry_equiv_pos_site_id
 _symmetry_equiv_pos_as_xyz
  1  'x, y, z'
loop_
 _atom_site_type_symbol
 _atom_site_label
 _atom_site_symmetry_multiplicity
 _atom_site_fract_x
 _atom_site_fract_y
 _atom_site_fract_z
 _atom_site_occupancy
  Li  Li0  1  0.00000000  0.00000000  0.00000000  1
  Mg  Mg0  1  0.00000000  0.00000000  0.50000000  1
  Mg  Mg1  1  0.00000000  0.50000000  0.00000000  1
  Mg  Mg2  1  0.50000000  0.00000000  0.00000000  1
  Mg  Mg3  1  0.50000000  0.00000000  0.50000000  1
  Mg  Mg4  1  0.50000000  0.50000000  0.00000000  1
  Mg  Mg5  1  0.50000000  0.50000000  0.50000000  1
  Mg  Mg6  1  0.00000000  0.24481624  0.24481624  1
  Mg  Mg7  1  0.00000000  0.24481624  0.75518376  1
  Mg  Mg8  1  0.00000000  0.75518376  0.24481624  1
  Mg  Mg9  1  0.00000000  0.75518376  0.75518376  1
  Mg  Mg10  1  0.50000000  0.24867803  0.24867803  1
  Mg  Mg11  1  0.50000000  0.24867803  0.75132197  1
  Mg  Mg12  1  0.50000000  0.75132197  0.24867803  1
  Mg  Mg13  1  0.50000000  0.75132197  0.75132197  1
  Mg  Mg14  1  0.24727161  0.00000000  0.24614526  1
  Mg  Mg15  1  0.24727161  0.00000000  0.75385474  1
  Mg  Mg16  1  0.25092147  0.50000000  0.24753373  1
  Mg  Mg17  1  0.25092147  0.50000000  0.75246627  1
  Mg  Mg18  1  0.75272839  0.00000000  0.24614526  1
  Mg  Mg19  1  0.75272839  0.00000000  0.75385474  1
  Mg  Mg20  1  0.74907853  0.50000000  0.24753373  1
  Mg  Mg21  1  0.74907853  0.50000000  0.75246627  1
  Mg  Mg22  1  0.24727161  0.24614526  0.00000000  1
  Mg  Mg23  1  0.25092147  0.24753373  0.50000000  1
  Mg  Mg24  1  0.24727161  0.75385474  0.00000000  1
  Mg  Mg25  1  0.25092147  0.75246627  0.50000000  1
  Mg  Mg26  1  0.75272839  0.24614526  0.00000000  1
  Mg  Mg27  1  0.74907853  0.24753373  0.50000000  1
  Mg  Mg28  1  0.75272839  0.75385474  0.00000000  1
  Mg  Mg29  1  0.74907853  0.75246627  0.50000000  1
  Cr  Cr0  1  0.00000000  0.50000000  0.50000000  1
  O  O0  1  0.25582594  0.00000000  0.00000000  1
  O  O1  1  0.24952937  0.00000000  0.50000000  1
  O  O2  1  0.24952937  0.50000000  0.00000000  1
  O  O3  1  0.24282599  0.50000000  0.50000000  1
  O  O4  1  0.74417406  0.00000000  0.00000000  1
  O  O5  1  0.75047063  0.00000000  0.50000000  1
  O  O6  1  0.75047063  0.50000000  0.00000000  1
  O  O7  1  0.75717401  0.50000000  0.50000000  1
  O  O8  1  0.24962248  0.25093054  0.25093054  1
  O  O9  1  0.24962248  0.25093054  0.74906946  1
  O  O10  1  0.24962248  0.74906946  0.25093054  1
  O  O11  1  0.24962248  0.74906946  0.74906946  1
  O  O12  1  0.75037752  0.25093054  0.25093054  1
  O  O13  1  0.75037752  0.25093054  0.74906946  1
  O  O14  1  0.75037752  0.74906946  0.25093054  1
  O  O15  1  0.75037752  0.74906946  0.74906946  1
  O  O16  1  0.00000000  0.00000000  0.25852751  1
  O  O17  1  0.00000000  0.00000000  0.74147249  1
  O  O18  1  0.00000000  0.50000000  0.25858838  1
  O  O19  1  0.00000000  0.50000000  0.74141162  1
  O  O20  1  0.50000000  0.00000000  0.25188365  1
  O  O21  1  0.50000000  0.00000000  0.74811635  1
  O  O22  1  0.50000000  0.50000000  0.25252844  1
  O  O23  1  0.50000000  0.50000000  0.74747156  1
  O  O24  1  0.00000000  0.25852751  0.00000000  1
  O  O25  1  0.00000000  0.25858838  0.50000000  1
  O  O26  1  0.00000000  0.74147249  0.00000000  1
  O  O27  1  0.00000000  0.74141162  0.50000000  1
  O  O28  1  0.50000000  0.25188365  0.00000000  1
  O  O29  1  0.50000000  0.25252844  0.50000000  1
  O  O30  1  0.50000000  0.74811635  0.00000000  1
  O  O31  1  0.50000000  0.74747156  0.50000000  1
loop_
_geom_bond_atom_site_label_1
_geom_bond_atom_site_label_2
_geom_bond_distance
_geom_bond_site_symmetry_2
Li0 O0 2.175591 1_555
Li0 O4 2.175591 1_455
Li0 O17 2.199762 1_554
Li0 O26 2.199762 1_545
Li0 O24 2.199762 1_555
Li0 O16 2.199762 1_555
Mg0 O16 2.054644 1_555
Mg0 O17 2.054644 1_555
Mg0 O5 2.122044 1_455
Mg0 O1 2.122044 1_555
Mg0 O27 2.200279 1_545
Mg0 O25 2.200279 1_555
Mg1 O24 2.054644 1_555
Mg1 O26 2.054644 1_555
Mg1 O6 2.122044 1_455
Mg1 O2 2.122044 1_555
Mg1 O19 2.200279 1_554
Mg1 O18 2.200279 1_555
Mg2 O4 2.076502 1_555
Mg2 O0 2.076502 1_555
Mg2 O21 2.143230 1_554
Mg2 O20 2.143230 1_555
Mg2 O28 2.143230 1_555
Mg2 O30 2.143230 1_545
Mg3 O21 2.111175 1_555
Mg3 O20 2.111175 1_555
Mg3 O1 2.130049 1_555
Mg3 O5 2.130049 1_555
Mg3 O31 2.148717 1_545
Mg3 O29 2.148717 1_555
Mg4 O28 2.111175 1_555
Mg4 O30 2.111175 1_555
Mg4 O6 2.130049 1_555
Mg4 O2 2.130049 1_555
Mg4 O23 2.148717 1_554
Mg4 O22 2.148717 1_555
Mg5 O22 2.105689 1_555
Mg5 O29 2.105689 1_555
Mg5 O31 2.105689 1_555
Mg5 O23 2.105689 1_555
Mg5 O7 2.187056 1_555
Mg5 O3 2.187056 1_555
Mg6 O24 2.086359 1_555
Mg6 O16 2.086359 1_555
Mg6 O12 2.124111 1_455
Mg6 O8 2.124111 1_555
Mg6 O25 2.174470 1_555
Mg6 O18 2.174470 1_555
Mg7 O17 2.086359 1_555
Mg7 O24 2.086359 1_556
Mg7 O9 2.124111 1_555
Mg7 O13 2.124111 1_455
Mg7 O25 2.174470 1_555
Mg7 O19 2.174470 1_555
Mg8 O26 2.086359 1_555
Mg8 O16 2.086359 1_565
Mg8 O10 2.124111 1_555
Mg8 O14 2.124111 1_455
Mg8 O27 2.174470 1_555
Mg8 O18 2.174470 1_555
Mg9 O26 2.086359 1_556
Mg9 O17 2.086359 1_565
Mg9 O15 2.124111 1_455
Mg9 O11 2.124111 1_555
Mg9 O27 2.174470 1_555
Mg9 O19 2.174470 1_555
Mg10 O20 2.116130 1_555
Mg10 O28 2.116130 1_555
Mg10 O12 2.129430 1_555
Mg10 O8 2.129430 1_555
Mg10 O29 2.138702 1_555
Mg10 O22 2.138702 1_555
Mg11 O21 2.116130 1_555
Mg11 O28 2.116130 1_556
Mg11 O9 2.129430 1_555
Mg11 O13 2.129430 1_555
Mg11 O29 2.138702 1_555
Mg11 O23 2.138702 1_555
Mg12 O30 2.116130 1_555
Mg12 O20 2.116130 1_565
Mg12 O14 2.129430 1_555
Mg12 O10 2.129430 1_555
Mg12 O31 2.138702 1_555
Mg12 O22 2.138702 1_555
Mg13 O30 2.116130 1_556
Mg13 O21 2.116130 1_565
Mg13 O11 2.129430 1_555
Mg13 O15 2.129430 1_555
Mg13 O31 2.138702 1_555
Mg13 O23 2.138702 1_555
Mg14 O0 2.095666 1_555
Mg14 O16 2.105482 1_555
Mg14 O8 2.135602 1_555
Mg14 O10 2.135602 1_545
Mg14 O20 2.149804 1_555
Mg14 O1 2.160087 1_555
Mg15 O0 2.095666 1_556
Mg15 O17 2.105482 1_555
Mg15 O9 2.135602 1_555
Mg15 O11 2.135602 1_545
Mg15 O21 2.149804 1_555
Mg15 O1 2.160087 1_555
Mg16 O2 2.106251 1_555
Mg16 O22 2.118636 1_555
Mg16 O8 2.119511 1_555
Mg16 O10 2.119511 1_555
Mg16 O18 2.135955 1_555
Mg16 O3 2.149290 1_555
Mg17 O2 2.106251 1_556
Mg17 O23 2.118636 1_555
Mg17 O11 2.119511 1_555
Mg17 O9 2.119511 1_555
Mg17 O19 2.135955 1_555
Mg17 O3 2.149290 1_555
Mg18 O4 2.095666 1_555
Mg18 O16 2.105482 1_655
Mg18 O12 2.135602 1_555
Mg18 O14 2.135602 1_545
Mg18 O20 2.149804 1_555
Mg18 O5 2.160087 1_555
Mg19 O4 2.095666 1_556
Mg19 O17 2.105482 1_655
Mg19 O13 2.135602 1_555
Mg19 O15 2.135602 1_545
Mg19 O21 2.149804 1_555
Mg19 O5 2.160087 1_555
Mg20 O6 2.106251 1_555
Mg20 O22 2.118636 1_555
Mg20 O12 2.119511 1_555
Mg20 O14 2.119511 1_555
Mg20 O18 2.135955 1_655
Mg20 O7 2.149290 1_555
Mg21 O6 2.106251 1_556
Mg21 O23 2.118636 1_555
Mg21 O15 2.119511 1_555
Mg21 O13 2.119511 1_555
Mg21 O19 2.135955 1_655
Mg21 O7 2.149290 1_555
Mg22 O0 2.095666 1_555
Mg22 O24 2.105482 1_555
Mg22 O8 2.135602 1_555
Mg22 O9 2.135602 1_554
Mg22 O28 2.149804 1_555
Mg22 O2 2.160087 1_555
Mg23 O1 2.106251 1_555
Mg23 O29 2.118636 1_555
Mg23 O9 2.119511 1_555
Mg23 O8 2.119511 1_555
Mg23 O25 2.135955 1_555
Mg23 O3 2.149290 1_555
Mg24 O0 2.095666 1_565
Mg24 O26 2.105482 1_555
Mg24 O10 2.135602 1_555
Mg24 O11 2.135602 1_554
Mg24 O30 2.149804 1_555
Mg24 O2 2.160087 1_555
Mg25 O1 2.106251 1_565
Mg25 O31 2.118636 1_555
Mg25 O11 2.119511 1_555
Mg25 O10 2.119511 1_555
Mg25 O27 2.135955 1_555
Mg25 O3 2.149290 1_555
Mg26 O4 2.095666 1_555
Mg26 O24 2.105482 1_655
Mg26 O12 2.135602 1_555
Mg26 O13 2.135602 1_554
Mg26 O28 2.149804 1_555
Mg26 O6 2.160087 1_555
Mg27 O5 2.106251 1_555
Mg27 O29 2.118636 1_555
Mg27 O13 2.119511 1_555
Mg27 O12 2.119511 1_555
Mg27 O25 2.135955 1_655
Mg27 O7 2.149290 1_555
Mg28 O4 2.095666 1_565
Mg28 O26 2.105482 1_655
Mg28 O14 2.135602 1_555
Mg28 O15 2.135602 1_554
Mg28 O30 2.149804 1_555
Mg28 O6 2.160087 1_555
Mg29 O5 2.106251 1_565
Mg29 O31 2.118636 1_555
Mg29 O15 2.119511 1_555
Mg29 O14 2.119511 1_555
Mg29 O27 2.135955 1_655
Mg29 O7 2.149290 1_555
Cr0 O25 2.054126 1_555
Cr0 O18 2.054126 1_555
Cr0 O19 2.054126 1_555
Cr0 O27 2.054126 1_555
Cr0 O3 2.065037 1_555
Cr0 O7 2.065037 1_455
