# generated using pymatgen
data_Tm3Ge13Rh4
_symmetry_space_group_name_H-M   'P 1'
_cell_length_a   8.97681800
_cell_length_b   8.97681800
_cell_length_c   8.97681800
_cell_angle_alpha   90.00000000
_cell_angle_beta   90.00000000
_cell_angle_gamma   90.00000000
_symmetry_Int_Tables_number   1
_chemical_formula_structural   Tm3Ge13Rh4
_chemical_formula_sum   'Tm6 Ge26 Rh8'
_cell_volume   723.38127148
_cell_formula_units_Z   2
loop_
 _symmetry_equiv_pos_site_id
 _symmetry_equiv_pos_as_xyz
  1  'x, y, z'
loop_
 _atom_site_type_symbol
 _atom_site_label
 _atom_site_symmetry_multiplicity
 _atom_site_fract_x
 _atom_site_fract_y
 _atom_site_fract_z
 _atom_site_occupancy
  Tm  Tm0  1  0.00000000  0.50000000  0.75000000  1
  Tm  Tm1  1  0.50000000  0.25000000  0.00000000  1
  Tm  Tm2  1  0.75000000  0.00000000  0.50000000  1
  Tm  Tm3  1  0.00000000  0.50000000  0.25000000  1
  Tm  Tm4  1  0.50000000  0.75000000  0.00000000  1
  Tm  Tm5  1  0.25000000  0.00000000  0.50000000  1
  Ge  Ge0  1  0.50000000  0.50000000  0.50000000  1
  Ge  Ge1  1  0.00000000  0.00000000  0.00000000  1
  Ge  Ge2  1  0.81054500  0.35250100  0.50000000  1
  Ge  Ge3  1  0.64749900  0.50000000  0.81054500  1
  Ge  Ge4  1  0.50000000  0.18945500  0.64749900  1
  Ge  Ge5  1  0.18945500  0.64749900  0.50000000  1
  Ge  Ge6  1  0.35250100  0.50000000  0.18945500  1
  Ge  Ge7  1  0.50000000  0.81054500  0.35250100  1
  Ge  Ge8  1  0.81054500  0.64749900  0.50000000  1
  Ge  Ge9  1  0.64749900  0.50000000  0.18945500  1
  Ge  Ge10  1  0.18945500  0.35250100  0.50000000  1
  Ge  Ge11  1  0.35250100  0.50000000  0.81054500  1
  Ge  Ge12  1  0.50000000  0.81054500  0.64749900  1
  Ge  Ge13  1  0.50000000  0.18945500  0.35250100  1
  Ge  Ge14  1  0.31054500  0.00000000  0.85250100  1
  Ge  Ge15  1  0.14749900  0.31054500  0.00000000  1
  Ge  Ge16  1  0.00000000  0.14749900  0.68945500  1
  Ge  Ge17  1  0.68945500  0.00000000  0.14749900  1
  Ge  Ge18  1  0.85250100  0.68945500  0.00000000  1
  Ge  Ge19  1  0.00000000  0.85250100  0.31054500  1
  Ge  Ge20  1  0.31054500  0.00000000  0.14749900  1
  Ge  Ge21  1  0.14749900  0.68945500  0.00000000  1
  Ge  Ge22  1  0.68945500  0.00000000  0.85250100  1
  Ge  Ge23  1  0.85250100  0.31054500  0.00000000  1
  Ge  Ge24  1  0.00000000  0.14749900  0.31054500  1
  Ge  Ge25  1  0.00000000  0.85250100  0.68945500  1
  Rh  Rh0  1  0.75000000  0.25000000  0.75000000  1
  Rh  Rh1  1  0.25000000  0.75000000  0.25000000  1
  Rh  Rh2  1  0.75000000  0.75000000  0.25000000  1
  Rh  Rh3  1  0.25000000  0.25000000  0.75000000  1
  Rh  Rh4  1  0.25000000  0.75000000  0.75000000  1
  Rh  Rh5  1  0.75000000  0.25000000  0.25000000  1
  Rh  Rh6  1  0.25000000  0.25000000  0.25000000  1
  Rh  Rh7  1  0.75000000  0.75000000  0.75000000  1
loop_
_geom_bond_atom_site_label_1
_geom_bond_atom_site_label_2
_geom_bond_distance
_geom_bond_site_symmetry_2
Ge0 Ge8 3.086174 1_555
Ge0 Ge12 3.086174 1_555
Ge0 Ge3 3.086174 1_555
Ge0 Ge2 3.086174 1_555
Ge0 Ge7 3.086174 1_555
Ge0 Ge11 3.086174 1_555
Ge0 Ge4 3.086174 1_555
Ge0 Ge9 3.086174 1_555
Ge0 Ge5 3.086174 1_555
Ge0 Ge10 3.086174 1_555
Ge0 Ge13 3.086174 1_555
Ge0 Ge6 3.086174 1_555
Ge1 Ge15 3.086174 1_555
Ge1 Ge20 3.086174 1_555
Ge1 Ge24 3.086174 1_555
Ge1 Ge14 3.086174 1_554
Ge1 Ge19 3.086174 1_545
Ge1 Ge23 3.086174 1_455
Ge1 Ge18 3.086174 1_445
Ge1 Ge22 3.086174 1_454
Ge1 Ge25 3.086174 1_544
Ge1 Ge17 3.086174 1_455
Ge1 Ge16 3.086174 1_554
Ge1 Ge21 3.086174 1_545
Ge2 Rh5 2.485657 1_555
Ge2 Rh0 2.485657 1_555
Ge2 Tm3 3.111593 1_655
Ge2 Tm0 3.111593 1_655
Ge2 Tm2 3.210674 1_555
Ge3 Rh7 2.485657 1_555
Ge3 Rh0 2.485657 1_555
Ge3 Tm4 3.111593 1_556
Ge3 Tm1 3.111593 1_556
Ge3 Tm0 3.210674 1_655
Ge4 Rh0 2.485657 1_555
Ge4 Rh3 2.485657 1_555
Ge4 Tm5 3.111593 1_555
Ge4 Tm2 3.111593 1_555
Ge4 Tm1 3.210674 1_556
Ge5 Rh4 2.485657 1_555
Ge5 Rh1 2.485657 1_555
Ge5 Tm0 3.111593 1_555
Ge5 Tm3 3.111593 1_555
Ge5 Tm5 3.210674 1_565
Ge6 Rh6 2.485657 1_555
Ge6 Rh1 2.485657 1_555
Ge6 Tm1 3.111593 1_555
Ge6 Tm4 3.111593 1_555
Ge6 Tm3 3.210674 1_555
Ge7 Rh1 2.485657 1_555
Ge7 Rh2 2.485657 1_555
Ge7 Tm5 3.111593 1_565
Ge7 Tm2 3.111593 1_565
Ge7 Tm4 3.210674 1_555
Ge8 Rh2 2.485657 1_555
Ge8 Rh7 2.485657 1_555
Ge8 Tm3 3.111593 1_655
Ge8 Tm0 3.111593 1_655
Ge8 Tm2 3.210674 1_565
Ge9 Rh5 2.485657 1_555
Ge9 Rh2 2.485657 1_555
Ge9 Tm1 3.111593 1_555
Ge9 Tm4 3.111593 1_555
Ge9 Tm3 3.210674 1_655
Ge10 Rh6 2.485657 1_555
Ge10 Rh3 2.485657 1_555
Ge10 Tm3 3.111593 1_555
Ge10 Tm0 3.111593 1_555
Ge10 Tm5 3.210674 1_555
Ge11 Rh4 2.485657 1_555
Ge11 Rh3 2.485657 1_555
Ge11 Tm1 3.111593 1_556
Ge11 Tm4 3.111593 1_556
Ge11 Tm0 3.210674 1_555
Ge12 Rh4 2.485657 1_555
Ge12 Rh7 2.485657 1_555
Ge12 Tm5 3.111593 1_565
Ge12 Tm2 3.111593 1_565
Ge12 Tm4 3.210674 1_556
Ge13 Rh6 2.485657 1_555
Ge13 Rh5 2.485657 1_555
Ge13 Tm2 3.111593 1_555
Ge13 Tm5 3.111593 1_555
Ge13 Tm1 3.210674 1_555
Ge14 Rh4 2.485657 1_545
Ge14 Rh3 2.485657 1_555
Ge14 Tm1 3.111593 1_556
Ge14 Tm4 3.111593 1_546
Ge14 Tm5 3.210674 1_555
Ge15 Rh3 2.485657 1_554
Ge15 Rh6 2.485657 1_555
Ge15 Tm0 3.111593 1_554
Ge15 Tm3 3.111593 1_555
Ge15 Tm1 3.210674 1_555
Ge16 Rh3 2.485657 1_555
Ge16 Rh0 2.485657 1_455
Ge16 Tm5 3.111593 1_555
Ge16 Tm2 3.111593 1_455
Ge16 Tm0 3.210674 1_555
Ge17 Rh2 2.485657 1_545
Ge17 Rh5 2.485657 1_555
Ge17 Tm1 3.111593 1_555
Ge17 Tm4 3.111593 1_545
Ge17 Tm2 3.210674 1_555
Ge18 Rh7 2.485657 1_554
Ge18 Rh2 2.485657 1_555
Ge18 Tm0 3.111593 1_654
Ge18 Tm3 3.111593 1_655
Ge18 Tm4 3.210674 1_555
Ge19 Rh1 2.485657 1_555
Ge19 Rh2 2.485657 1_455
Ge19 Tm5 3.111593 1_565
Ge19 Tm2 3.111593 1_465
Ge19 Tm3 3.210674 1_555
Ge20 Rh1 2.485657 1_545
Ge20 Rh6 2.485657 1_555
Ge20 Tm1 3.111593 1_555
Ge20 Tm4 3.111593 1_545
Ge20 Tm5 3.210674 1_555
Ge21 Rh4 2.485657 1_554
Ge21 Rh1 2.485657 1_555
Ge21 Tm0 3.111593 1_554
Ge21 Tm3 3.111593 1_555
Ge21 Tm4 3.210674 1_555
Ge22 Rh0 2.485657 1_555
Ge22 Rh7 2.485657 1_545
Ge22 Tm4 3.111593 1_546
Ge22 Tm1 3.111593 1_556
Ge22 Tm2 3.210674 1_555
Ge23 Rh0 2.485657 1_554
Ge23 Rh5 2.485657 1_555
Ge23 Tm3 3.111593 1_655
Ge23 Tm0 3.111593 1_654
Ge23 Tm1 3.210674 1_555
Ge24 Rh6 2.485657 1_555
Ge24 Rh5 2.485657 1_455
Ge24 Tm5 3.111593 1_555
Ge24 Tm2 3.111593 1_455
Ge24 Tm3 3.210674 1_555
Ge25 Rh4 2.485657 1_555
Ge25 Rh7 2.485657 1_455
Ge25 Tm5 3.111593 1_565
Ge25 Tm2 3.111593 1_465
Ge25 Tm0 3.210674 1_555
Rh0 Tm1 3.173784 1_556
Rh0 Tm2 3.173784 1_555
Rh0 Tm0 3.173784 1_655
Rh1 Tm3 3.173784 1_555
Rh1 Tm5 3.173784 1_565
Rh1 Tm4 3.173784 1_555
Rh2 Tm2 3.173784 1_565
Rh2 Tm4 3.173784 1_555
Rh2 Tm3 3.173784 1_655
Rh3 Tm1 3.173784 1_556
Rh3 Tm5 3.173784 1_555
Rh3 Tm0 3.173784 1_555
Rh4 Tm4 3.173784 1_556
Rh4 Tm5 3.173784 1_565
Rh4 Tm0 3.173784 1_555
Rh5 Tm1 3.173784 1_555
Rh5 Tm3 3.173784 1_655
Rh5 Tm2 3.173784 1_555
Rh6 Tm3 3.173784 1_555
Rh6 Tm1 3.173784 1_555
Rh6 Tm5 3.173784 1_555
Rh7 Tm4 3.173784 1_556
Rh7 Tm2 3.173784 1_565
Rh7 Tm0 3.173784 1_655
