# generated using pymatgen
data_Ce2Ga9CoGe2
_symmetry_space_group_name_H-M   'P 1'
_cell_length_a   5.94918800
_cell_length_b   5.94918800
_cell_length_c   15.20693300
_cell_angle_alpha   90.00000000
_cell_angle_beta   90.00000000
_cell_angle_gamma   90.00000000
_symmetry_Int_Tables_number   1
_chemical_formula_structural   Ce2Ga9CoGe2
_chemical_formula_sum   'Ce4 Ga18 Co2 Ge4'
_cell_volume   538.21651401
_cell_formula_units_Z   2
loop_
 _symmetry_equiv_pos_site_id
 _symmetry_equiv_pos_as_xyz
  1  'x, y, z'
loop_
 _atom_site_type_symbol
 _atom_site_label
 _atom_site_symmetry_multiplicity
 _atom_site_fract_x
 _atom_site_fract_y
 _atom_site_fract_z
 _atom_site_occupancy
  Ce  Ce0  1  0.00000000  0.00000000  0.75568400  1
  Ce  Ce1  1  0.50000000  0.50000000  0.75568400  1
  Ce  Ce2  1  0.50000000  0.50000000  0.24431600  1
  Ce  Ce3  1  0.00000000  0.00000000  0.24431600  1
  Ga  Ga0  1  0.76081400  0.26081400  0.91511300  1
  Ga  Ga1  1  0.23918600  0.26081400  0.91511300  1
  Ga  Ga2  1  0.76081400  0.73918600  0.91511300  1
  Ga  Ga3  1  0.23918600  0.73918600  0.91511300  1
  Ga  Ga4  1  0.73918600  0.23918600  0.08488700  1
  Ga  Ga5  1  0.26081400  0.23918600  0.08488700  1
  Ga  Ga6  1  0.73918600  0.76081400  0.08488700  1
  Ga  Ga7  1  0.26081400  0.76081400  0.08488700  1
  Ga  Ga8  1  0.78004700  0.28004700  0.58353000  1
  Ga  Ga9  1  0.21995300  0.28004700  0.58353000  1
  Ga  Ga10  1  0.78004700  0.71995300  0.58353000  1
  Ga  Ga11  1  0.21995300  0.71995300  0.58353000  1
  Ga  Ga12  1  0.71995300  0.21995300  0.41647000  1
  Ga  Ga13  1  0.28004700  0.21995300  0.41647000  1
  Ga  Ga14  1  0.71995300  0.78004700  0.41647000  1
  Ga  Ga15  1  0.28004700  0.78004700  0.41647000  1
  Ga  Ga16  1  0.00000000  0.50000000  0.34708900  1
  Ga  Ga17  1  0.50000000  0.00000000  0.65291100  1
  Co  Co0  1  0.00000000  0.00000000  0.00000000  1
  Co  Co1  1  0.50000000  0.50000000  0.00000000  1
  Ge  Ge0  1  0.00000000  0.50000000  0.18693400  1
  Ge  Ge1  1  0.50000000  0.00000000  0.81306600  1
  Ge  Ge2  1  0.00000000  0.50000000  0.77811800  1
  Ge  Ge3  1  0.50000000  0.00000000  0.22188200  1
loop_
_geom_bond_atom_site_label_1
_geom_bond_atom_site_label_2
_geom_bond_distance
_geom_bond_site_symmetry_2
Ce0 Ge2 2.994093 1_545
Ce0 Ge2 2.994093 1_555
Ce0 Ge1 3.099943 1_555
Ce0 Ge1 3.099943 1_455
Ce0 Ga0 3.210954 1_455
Ce0 Ga1 3.210954 1_555
Ce0 Ga2 3.210954 1_445
Ce0 Ga3 3.210954 1_545
Ce0 Ga17 3.360171 1_555
Ce0 Ga17 3.360171 1_455
Ce0 Ga11 3.367728 1_545
Ce0 Ga8 3.367728 1_455
Ce0 Ga9 3.367728 1_555
Ce0 Ga10 3.367728 1_445
Ce1 Ge2 2.994093 1_655
Ce1 Ge2 2.994093 1_555
Ce1 Ge1 3.099943 1_555
Ce1 Ge1 3.099943 1_565
Ce1 Ga3 3.210954 1_555
Ce1 Ga2 3.210954 1_555
Ce1 Ga1 3.210954 1_555
Ce1 Ga0 3.210954 1_555
Ce1 Ga17 3.360171 1_555
Ce1 Ga17 3.360171 1_565
Ce1 Ga8 3.367728 1_555
Ce1 Ga10 3.367728 1_555
Ce1 Ga9 3.367728 1_555
Ce1 Ga11 3.367728 1_555
Ce2 Ge3 2.994093 1_565
Ce2 Ge3 2.994093 1_555
Ce2 Ge0 3.099943 1_555
Ce2 Ge0 3.099943 1_655
Ce2 Ga6 3.210954 1_555
Ce2 Ga7 3.210954 1_555
Ce2 Ga4 3.210954 1_555
Ce2 Ga5 3.210954 1_555
Ce2 Ga16 3.360171 1_655
Ce2 Ga16 3.360171 1_555
Ce2 Ga15 3.367728 1_555
Ce2 Ga12 3.367728 1_555
Ce2 Ga14 3.367728 1_555
Ce2 Ga13 3.367728 1_555
Ce3 Ge3 2.994093 1_455
Ce3 Ge3 2.994093 1_555
Ce3 Ge0 3.099943 1_555
Ce3 Ge0 3.099943 1_545
Ce3 Ga7 3.210954 1_545
Ce3 Ga4 3.210954 1_455
Ce3 Ga5 3.210954 1_555
Ce3 Ga6 3.210954 1_445
Ce3 Ga16 3.360171 1_545
Ce3 Ga16 3.360171 1_555
Ce3 Ga15 3.367728 1_545
Ce3 Ga14 3.367728 1_445
Ce3 Ga12 3.367728 1_455
Ce3 Ga13 3.367728 1_555
Ga0 Ga4 2.588147 1_556
Ga0 Ge1 2.687615 1_555
Ga0 Ga2 2.845925 1_555
Ga0 Ga1 2.845925 1_655
Ga0 Ge2 2.896493 1_655
Ga1 Ga5 2.588147 1_556
Ga1 Ge1 2.687615 1_555
Ga1 Ga3 2.845925 1_555
Ga1 Ge2 2.896493 1_555
Ga2 Ga6 2.588147 1_556
Ga2 Ge1 2.687615 1_565
Ga2 Ga3 2.845925 1_655
Ga2 Ge2 2.896493 1_655
Ga3 Ga7 2.588147 1_556
Ga3 Ge1 2.687615 1_565
Ga3 Ge2 2.896493 1_555
Ga4 Ge0 2.687615 1_655
Ga4 Ga5 2.845925 1_555
Ga4 Ga6 2.845925 1_545
Ga4 Ge3 2.896493 1_555
Ga5 Ge0 2.687615 1_555
Ga5 Ga7 2.845925 1_545
Ga5 Ge3 2.896493 1_555
Ga6 Ge0 2.687615 1_655
Ga6 Ga7 2.845925 1_555
Ga6 Ge3 2.896493 1_565
Ga7 Ge0 2.687615 1_555
Ga7 Ge3 2.896493 1_565
Ga8 Ga9 2.617083 1_655
Ga10 Ga17 2.581596 1_565
Ga10 Ga14 2.590293 1_555
Ga10 Ga8 2.617083 1_555
Ga10 Ga11 2.617083 1_655
Ga11 Ga17 2.581596 1_565
Ga11 Ga15 2.590293 1_555
Ga11 Ga9 2.617083 1_555
Ga12 Ga16 2.581596 1_655
Ga12 Ga8 2.590293 1_555
Ga12 Ga13 2.617083 1_555
Ga12 Ga14 2.617083 1_545
Ga13 Ga16 2.581596 1_555
Ga13 Ga9 2.590293 1_555
Ga13 Ga15 2.617083 1_545
Ga14 Ga16 2.581596 1_655
Ga14 Ga15 2.617083 1_555
Ga15 Ga16 2.581596 1_555
Ga16 Ge0 2.435466 1_555
Ga17 Ge1 2.435466 1_555
Ga17 Ga9 2.581596 1_555
Ga17 Ga8 2.581596 1_555
Co0 Ga4 2.469561 1_455
Co0 Ga0 2.469561 1_454
Co0 Ga2 2.469561 1_444
Co0 Ga5 2.469561 1_555
Co0 Ga6 2.469561 1_445
Co0 Ga1 2.469561 1_554
Co0 Ga3 2.469561 1_544
Co0 Ga7 2.469561 1_545
Co1 Ga5 2.469561 1_555
Co1 Ga6 2.469561 1_555
Co1 Ga7 2.469561 1_555
Co1 Ga4 2.469561 1_555
Co1 Ga3 2.469561 1_554
Co1 Ga0 2.469561 1_554
Co1 Ga1 2.469561 1_554
Co1 Ga2 2.469561 1_554
