# generated using pymatgen
data_GdY3(FeO3)4
_symmetry_space_group_name_H-M   'P 1'
_cell_length_a   7.73113700
_cell_length_b   5.35679500
_cell_length_c   5.66059325
_cell_angle_alpha   89.96189116
_cell_angle_beta   90.00000000
_cell_angle_gamma   90.00000000
_symmetry_Int_Tables_number   1
_chemical_formula_structural   GdY3(FeO3)4
_chemical_formula_sum   'Gd1 Y3 Fe4 O12'
_cell_volume   234.42841386
_cell_formula_units_Z   1
loop_
 _symmetry_equiv_pos_site_id
 _symmetry_equiv_pos_as_xyz
  1  'x, y, z'
loop_
 _atom_site_type_symbol
 _atom_site_label
 _atom_site_symmetry_multiplicity
 _atom_site_fract_x
 _atom_site_fract_y
 _atom_site_fract_z
 _atom_site_occupancy
  Gd  Gd0  1  0.00000000  0.48246700  0.43372100  1
  Y  Y0  1  0.00000000  0.01881900  0.93234900  1
  Y  Y1  1  0.50000000  0.51843500  0.56862900  1
  Y  Y2  1  0.50000000  0.98218900  0.06818800  1
  Fe  Fe0  1  0.74954600  0.50000700  0.00095900  1
  Fe  Fe1  1  0.25066700  0.99983800  0.49977800  1
  Fe  Fe2  1  0.25045400  0.50000700  0.00095900  1
  Fe  Fe3  1  0.74933300  0.99983800  0.49977800  1
  O  O0  1  0.19266300  0.19001000  0.19248100  1
  O  O1  1  0.80713700  0.30654100  0.69591300  1
  O  O2  1  0.69087200  0.80736900  0.80545400  1
  O  O3  1  0.30954100  0.69212800  0.30581500  1
  O  O4  1  0.30912800  0.80736900  0.80545400  1
  O  O5  1  0.69045900  0.69212800  0.30581500  1
  O  O6  1  0.80733700  0.19001000  0.19248100  1
  O  O7  1  0.19286300  0.30654100  0.69591300  1
  O  O8  1  0.00000000  0.61437300  0.03805600  1
  O  O9  1  0.00000000  0.89114200  0.54184800  1
  O  O10  1  0.50000000  0.38570700  0.95828100  1
  O  O11  1  0.50000000  0.11508200  0.45812800  1
loop_
_geom_bond_atom_site_label_1
_geom_bond_atom_site_label_2
_geom_bond_distance
_geom_bond_site_symmetry_2
Gd0 O9 2.273532 1_555
Gd0 O7 2.304826 1_555
Gd0 O1 2.304826 1_455
Gd0 O8 2.348067 1_555
Gd0 O6 2.557452 1_455
Gd0 O0 2.557452 1_555
Gd0 O3 2.740703 1_555
Gd0 O5 2.740703 1_455
Fe0 O6 2.032270 1_555
Fe0 O2 2.034442 1_554
Fe0 O10 2.038516 1_554
Fe0 O8 2.041770 1_655
Fe0 O5 2.061096 1_555
Fe0 O1 2.063079 1_554
Fe1 O3 2.032754 1_555
Fe1 O7 2.033234 1_565
Fe1 O9 2.037442 1_555
Fe1 O11 2.037706 1_565
Fe1 O4 2.063701 1_555
Fe1 O0 2.064538 1_565
Fe2 O0 2.032270 1_555
Fe2 O4 2.034442 1_554
Fe2 O10 2.038516 1_554
Fe2 O8 2.041770 1_555
Fe2 O3 2.061096 1_555
Fe2 O7 2.063079 1_554
Fe3 O5 2.032754 1_555
Fe3 O1 2.033234 1_565
Fe3 O9 2.037442 1_655
Fe3 O11 2.037706 1_565
Fe3 O2 2.063701 1_555
Fe3 O6 2.064538 1_565
O0 Y0 2.286839 1_554
O0 Y2 2.716813 1_545
O1 Y0 2.527295 1_655
O1 Y1 2.728509 1_555
O2 Y2 2.295268 1_556
O2 Y1 2.524483 1_555
O2 Y0 2.740750 1_665
O3 Y1 2.290246 1_555
O3 Y2 2.527643 1_555
O4 Y2 2.295268 1_556
O4 Y1 2.524483 1_555
O4 Y0 2.740750 1_565
O5 Y1 2.290246 1_555
O5 Y2 2.527643 1_555
O6 Y0 2.286839 1_654
O6 Y2 2.716813 1_545
O7 Y0 2.527295 1_555
O7 Y1 2.728509 1_555
O8 Y0 2.247262 1_564
O9 Y0 2.314293 1_565
O10 Y2 2.248916 1_546
O10 Y1 2.316975 1_555
O11 Y1 2.249797 1_555
O11 Y2 2.319698 1_545
