# generated using pymatgen
data_Pr2Al3Ag
_symmetry_space_group_name_H-M   'P 1'
_cell_length_a   3.81636100
_cell_length_b   4.64068472
_cell_length_c   8.07618694
_cell_angle_alpha   90.00339024
_cell_angle_beta   90.00000000
_cell_angle_gamma   90.00000000
_symmetry_Int_Tables_number   1
_chemical_formula_structural   Pr2Al3Ag
_chemical_formula_sum   'Pr2 Al3 Ag1'
_cell_volume   143.03353631
_cell_formula_units_Z   1
loop_
 _symmetry_equiv_pos_site_id
 _symmetry_equiv_pos_as_xyz
  1  'x, y, z'
loop_
 _atom_site_type_symbol
 _atom_site_label
 _atom_site_symmetry_multiplicity
 _atom_site_fract_x
 _atom_site_fract_y
 _atom_site_fract_z
 _atom_site_occupancy
  Pr  Pr0  1  0.00000000  0.99996500  0.99244600  1
  Pr  Pr1  1  0.00000000  0.50004900  0.50652500  1
  Al  Al0  1  0.50000000  0.99993500  0.66434500  1
  Al  Al1  1  0.50000000  0.00014200  0.33355700  1
  Al  Al2  1  0.50000000  0.49998600  0.83427600  1
  Ag  Ag0  1  0.50000000  0.50012300  0.16885100  1
loop_
_geom_bond_atom_site_label_1
_geom_bond_atom_site_label_2
_geom_bond_distance
_geom_bond_site_symmetry_2
Al0 Al1 2.671506 1_565
Al0 Al2 2.695688 1_555
Al0 Al2 2.695956 1_565
Al0 Pr1 3.262959 1_655
Al0 Pr1 3.262959 1_555
Al0 Pr1 3.263818 1_565
Al0 Pr1 3.263818 1_665
Al0 Pr0 3.265367 1_555
Al0 Pr0 3.265367 1_655
Al1 Pr1 3.312725 1_655
Al1 Pr1 3.312725 1_555
Al1 Pr1 3.313445 1_545
Al1 Pr1 3.313445 1_645
Al1 Pr0 3.351193 1_644
Al1 Pr0 3.351193 1_544
Al2 Pr1 3.263073 1_655
Al2 Pr1 3.263073 1_555
Al2 Pr0 3.264371 1_555
Al2 Pr0 3.264371 1_655
Al2 Pr0 3.264617 1_545
Al2 Pr0 3.264617 1_645
Ag0 Al1 2.674578 1_555
Ag0 Al1 2.674594 1_565
Ag0 Al2 2.702090 1_554
Ag0 Pr0 3.324431 1_654
Ag0 Pr0 3.324431 1_554
Ag0 Pr0 3.325337 1_644
Ag0 Pr0 3.325337 1_544
Ag0 Pr1 3.328412 1_655
Ag0 Pr1 3.328412 1_555
