# generated using pymatgen
data_SrPb3S4
_symmetry_space_group_name_H-M   'P 1'
_cell_length_a   14.06680560
_cell_length_b   14.06680560
_cell_length_c   14.06680640
_cell_angle_alpha   17.36560509
_cell_angle_beta   17.36560509
_cell_angle_gamma   17.36560966
_symmetry_Int_Tables_number   1
_chemical_formula_structural   SrPb3S4
_chemical_formula_sum   'Sr1 Pb3 S4'
_cell_volume   216.38336444
_cell_formula_units_Z   1
loop_
 _symmetry_equiv_pos_site_id
 _symmetry_equiv_pos_as_xyz
  1  'x, y, z'
loop_
 _atom_site_type_symbol
 _atom_site_label
 _atom_site_symmetry_multiplicity
 _atom_site_fract_x
 _atom_site_fract_y
 _atom_site_fract_z
 _atom_site_occupancy
  Sr  Sr0  1  -0.00000000  -0.00000000  0.00000000  1
  Pb  Pb0  1  0.24962840  0.24962840  0.24962840  1
  Pb  Pb1  1  0.50000000  0.50000000  0.50000000  1
  Pb  Pb2  1  0.75037160  0.75037160  0.75037160  1
  S  S0  1  0.12513759  0.12513759  0.12513759  1
  S  S1  1  0.37480743  0.37480743  0.37480743  1
  S  S2  1  0.62519257  0.62519257  0.62519257  1
  S  S3  1  0.87486241  0.87486241  0.87486241  1
loop_
_geom_bond_atom_site_label_1
_geom_bond_atom_site_label_2
_geom_bond_distance
_geom_bond_site_symmetry_2
Pb0 S3 2.996176 1_445
Pb0 S3 2.996177 1_454
Pb0 S3 2.996177 1_544
Pb0 S2 3.015358 1_554
Pb0 S2 3.015359 1_545
Pb0 S2 3.015359 1_455
Pb1 S3 2.998480 1_554
Pb1 S0 2.998480 1_556
Pb1 S3 2.998481 1_545
Pb1 S0 2.998481 1_565
Pb1 S0 2.998481 1_655
Pb1 S3 2.998481 1_455
Pb2 S0 2.996176 1_665
Pb2 S0 2.996177 1_656
Pb2 S0 2.996177 1_566
Pb2 S1 3.015358 1_556
Pb2 S1 3.015359 1_565
Pb2 S1 3.015359 1_655
S1 Sr0 2.997166 1_556
S1 Sr0 2.997167 1_655
S1 Sr0 2.997167 1_565
S2 Sr0 2.997166 1_665
S2 Sr0 2.997167 1_656
S2 Sr0 2.997167 1_566
