# generated using pymatgen
data_BaWO2
_symmetry_space_group_name_H-M   'P 1'
_cell_length_a   8.09511502
_cell_length_b   8.09511502
_cell_length_c   8.09511502
_cell_angle_alpha   130.10229021
_cell_angle_beta   130.10229021
_cell_angle_gamma   73.24329000
_symmetry_Int_Tables_number   1
_chemical_formula_structural   BaWO2
_chemical_formula_sum   'Ba4 W4 O8'
_cell_volume   303.00921037
_cell_formula_units_Z   4
loop_
 _symmetry_equiv_pos_site_id
 _symmetry_equiv_pos_as_xyz
  1  'x, y, z'
loop_
 _atom_site_type_symbol
 _atom_site_label
 _atom_site_symmetry_multiplicity
 _atom_site_fract_x
 _atom_site_fract_y
 _atom_site_fract_z
 _atom_site_occupancy
  Ba  Ba0  1  0.87500000  0.62500000  0.25000000  1
  Ba  Ba1  1  0.37500000  0.62500000  0.75000000  1
  Ba  Ba2  1  0.37500000  0.62500000  0.25000000  1
  Ba  Ba3  1  0.37500000  0.12500000  0.75000000  1
  W  W0  1  0.37500000  0.12500000  0.25000000  1
  W  W1  1  0.87500000  0.12500000  0.75000000  1
  W  W2  1  0.87500000  0.12500000  0.25000000  1
  W  W3  1  0.87500000  0.62500000  0.75000000  1
  O  O0  1  0.16310500  0.36230300  0.19919800  1
  O  O1  1  0.16310500  0.96390800  0.80080200  1
  O  O2  1  0.11230300  0.41310500  0.69919800  1
  O  O3  1  0.58689500  0.88769700  0.30080200  1
  O  O4  1  0.71390800  0.41310500  0.30080200  1
  O  O5  1  0.58689500  0.28609200  0.69919800  1
  O  O6  1  0.63769700  0.83689500  0.80080200  1
  O  O7  1  0.03609200  0.83689500  0.19919800  1
loop_
_geom_bond_atom_site_label_1
_geom_bond_atom_site_label_2
_geom_bond_distance
_geom_bond_site_symmetry_2
Ba0 O0 2.716597 1_655
Ba0 O3 2.716597 1_555
Ba0 O1 2.716599 1_655
Ba0 O5 2.716599 1_554
Ba0 O7 2.775161 1_655
Ba0 O4 2.775161 1_555
Ba1 O0 2.716597 1_555
Ba1 O3 2.716597 1_556
Ba1 O5 2.716603 1_555
Ba1 O1 2.716603 1_555
Ba1 O6 2.775167 1_555
Ba1 O2 2.775167 1_555
Ba2 O6 2.716597 1_555
Ba2 O2 2.716597 1_554
Ba2 O7 2.716603 1_555
Ba2 O4 2.716603 1_555
Ba2 O3 2.775167 1_555
Ba2 O0 2.775167 1_555
Ba3 O6 2.716597 1_545
Ba3 O2 2.716597 1_555
Ba3 O7 2.716599 1_545
Ba3 O4 2.716599 1_556
Ba3 O5 2.775161 1_555
Ba3 O1 2.775161 1_545
O0 W1 2.238439 1_454
O0 W0 2.238439 1_555
O1 W1 2.238435 1_465
O1 W0 2.238440 1_566
O2 W2 2.238439 1_455
O2 W3 2.238439 1_455
O3 W1 2.238439 1_565
O3 W0 2.238439 1_565
O4 W2 2.238435 1_555
O4 W3 2.238440 1_555
O5 W1 2.238435 1_555
O5 W0 2.238440 1_555
O6 W2 2.238439 1_566
O6 W3 2.238439 1_555
O7 W2 2.238435 1_465
O7 W3 2.238440 1_454
