# generated using pymatgen
data_K4Mn3P6(HO3)8
_symmetry_space_group_name_H-M   'P 1'
_cell_length_a   6.66580000
_cell_length_b   9.05672000
_cell_length_c   20.13239196
_cell_angle_alpha   66.21980617
_cell_angle_beta   90.00000000
_cell_angle_gamma   90.00000000
_symmetry_Int_Tables_number   1
_chemical_formula_structural   K4Mn3P6(HO3)8
_chemical_formula_sum   'K8 Mn6 P12 H16 O48'
_cell_volume   1112.20983499
_cell_formula_units_Z   2
loop_
 _symmetry_equiv_pos_site_id
 _symmetry_equiv_pos_as_xyz
  1  'x, y, z'
loop_
 _atom_site_type_symbol
 _atom_site_label
 _atom_site_symmetry_multiplicity
 _atom_site_fract_x
 _atom_site_fract_y
 _atom_site_fract_z
 _atom_site_occupancy
  K  K0  1  0.00741300  0.58089800  0.88831700  1
  K  K1  1  0.49258700  0.58089800  0.38831700  1
  K  K2  1  0.99258700  0.41910200  0.11168300  1
  K  K3  1  0.50741300  0.41910200  0.61168300  1
  K  K4  1  0.98779900  0.79646200  0.18317300  1
  K  K5  1  0.51220100  0.79646200  0.68317300  1
  K  K6  1  0.01220100  0.20353800  0.81682700  1
  K  K7  1  0.48779900  0.20353800  0.31682700  1
  Mn  Mn0  1  0.50000000  0.50000000  0.00000000  1
  Mn  Mn1  1  0.00000000  0.50000000  0.50000000  1
  Mn  Mn2  1  0.67511700  0.13537200  0.00543100  1
  Mn  Mn3  1  0.82488300  0.13537200  0.50543100  1
  Mn  Mn4  1  0.32488300  0.86462800  0.99456900  1
  Mn  Mn5  1  0.17511700  0.86462800  0.49456900  1
  P  P0  1  0.57968100  0.40939800  0.84760700  1
  P  P1  1  0.92031900  0.40939800  0.34760700  1
  P  P2  1  0.42031900  0.59060200  0.15239300  1
  P  P3  1  0.07968100  0.59060200  0.65239300  1
  P  P4  1  0.60448000  0.12317500  0.15191500  1
  P  P5  1  0.89552000  0.12317500  0.65191500  1
  P  P6  1  0.39552000  0.87682500  0.84808500  1
  P  P7  1  0.10448000  0.87682500  0.34808500  1
  P  P8  1  0.16701300  0.19784700  0.01428900  1
  P  P9  1  0.33298700  0.19784700  0.51428900  1
  P  P10  1  0.83298700  0.80215300  0.98571100  1
  P  P11  1  0.66701300  0.80215300  0.48571100  1
  H  H0  1  0.22219100  0.11360900  0.13187700  1
  H  H1  1  0.27780900  0.11360900  0.63187700  1
  H  H2  1  0.77780900  0.88639100  0.86812300  1
  H  H3  1  0.72219100  0.88639100  0.36812300  1
  H  H4  1  0.82188300  0.04141200  0.24628100  1
  H  H5  1  0.67811700  0.04141200  0.74628100  1
  H  H6  1  0.17811700  0.95858800  0.75371900  1
  H  H7  1  0.32188300  0.95858800  0.25371900  1
  H  H8  1  0.30533600  0.47259500  0.77627600  1
  H  H9  1  0.19466400  0.47259500  0.27627600  1
  H  H10  1  0.69466400  0.52740500  0.22372400  1
  H  H11  1  0.80533600  0.52740500  0.72372400  1
  H  H12  1  0.49604500  0.15272000  0.85526100  1
  H  H13  1  0.00395500  0.15272000  0.35526100  1
  H  H14  1  0.50395500  0.84728000  0.14473900  1
  H  H15  1  0.99604500  0.84728000  0.64473900  1
  O  O0  1  0.22519100  0.37141900  0.00110500  1
  O  O1  1  0.27480900  0.37141900  0.50110500  1
  O  O2  1  0.77480900  0.62858100  0.99889500  1
  O  O3  1  0.72519100  0.62858100  0.49889500  1
  O  O4  1  0.65211000  0.97251000  0.13607500  1
  O  O5  1  0.84789000  0.97251000  0.63607500  1
  O  O6  1  0.34789000  0.02749000  0.86392500  1
  O  O7  1  0.15211000  0.02749000  0.36392500  1
  O  O8  1  0.10802200  0.10858100  0.09928500  1
  O  O9  1  0.39197800  0.10858100  0.59928500  1
  O  O10  1  0.89197800  0.89141900  0.90071500  1
  O  O11  1  0.60802200  0.89141900  0.40071500  1
  O  O12  1  0.61813300  0.39832300  0.92448500  1
  O  O13  1  0.88186700  0.39832300  0.42448500  1
  O  O14  1  0.38186700  0.60167700  0.07551500  1
  O  O15  1  0.11813300  0.60167700  0.57551500  1
  O  O16  1  0.97801300  0.19035800  0.97250300  1
  O  O17  1  0.52198700  0.19035800  0.47250300  1
  O  O18  1  0.02198700  0.80964200  0.02749700  1
  O  O19  1  0.47801300  0.80964200  0.52749700  1
  O  O20  1  0.72519900  0.52440900  0.79197000  1
  O  O21  1  0.77480100  0.52440900  0.29197000  1
  O  O22  1  0.27480100  0.47559100  0.20803000  1
  O  O23  1  0.22519900  0.47559100  0.70803000  1
  O  O24  1  0.39688600  0.11224000  0.18750700  1
  O  O25  1  0.10311400  0.11224000  0.68750700  1
  O  O26  1  0.60311400  0.88776000  0.81249300  1
  O  O27  1  0.89688600  0.88776000  0.31249300  1
  O  O28  1  0.76861900  0.14375500  0.20548000  1
  O  O29  1  0.73138100  0.14375500  0.70548000  1
  O  O30  1  0.23138100  0.85624500  0.79452000  1
  O  O31  1  0.26861900  0.85624500  0.29452000  1
  O  O32  1  0.63027500  0.27208800  0.07976800  1
  O  O33  1  0.86972500  0.27208800  0.57976800  1
  O  O34  1  0.36972500  0.72791200  0.92023200  1
  O  O35  1  0.13027500  0.72791200  0.42023200  1
  O  O36  1  0.35310000  0.46132000  0.82752700  1
  O  O37  1  0.14690000  0.46132000  0.32752700  1
  O  O38  1  0.64690000  0.53868000  0.17247300  1
  O  O39  1  0.85310000  0.53868000  0.67247300  1
  O  O40  1  0.65614900  0.89828700  0.99966000  1
  O  O41  1  0.84385100  0.89828700  0.49966000  1
  O  O42  1  0.34385100  0.10171300  0.00034000  1
  O  O43  1  0.15614900  0.10171300  0.50034000  1
  O  O44  1  0.61269200  0.23644700  0.84752000  1
  O  O45  1  0.88730800  0.23644700  0.34752000  1
  O  O46  1  0.38730800  0.76355300  0.15248000  1
  O  O47  1  0.11269200  0.76355300  0.65248000  1
loop_
_geom_bond_atom_site_label_1
_geom_bond_atom_site_label_2
_geom_bond_distance
_geom_bond_site_symmetry_2
K0 O0 2.718187 1_556
K0 O30 2.866321 1_555
K0 O2 2.884754 1_455
K0 O20 2.891937 1_455
K0 O34 2.950977 1_555
K0 O12 3.004445 1_455
K0 O36 3.008198 1_555
K0 O10 3.021509 1_455
K0 O16 3.253752 1_455
K1 O1 2.718187 1_555
K1 O31 2.866321 1_555
K1 O3 2.884754 1_555
K1 O21 2.891937 1_555
K1 O35 2.950977 1_555
K1 O13 3.004445 1_555
K1 O37 3.008198 1_555
K1 O11 3.021509 1_555
K1 O17 3.253752 1_555
K2 O2 2.718187 1_554
K2 O28 2.866321 1_555
K2 O0 2.884754 1_655
K2 O22 2.891937 1_655
K2 O32 2.950977 1_555
K2 O14 3.004445 1_655
K2 O38 3.008198 1_555
K2 O8 3.021509 1_655
K2 O18 3.253752 1_655
K3 O3 2.718187 1_555
K3 O29 2.866321 1_555
K3 O1 2.884754 1_555
K3 O23 2.891937 1_555
K3 O33 2.950977 1_555
K3 O15 3.004445 1_555
K3 O39 3.008198 1_555
K3 O9 3.021509 1_555
K3 O19 3.253752 1_555
K4 O4 2.688687 1_555
K4 O8 2.763163 1_665
K4 O46 2.776870 1_655
K4 O21 2.920957 1_555
K4 O27 3.092793 1_555
K4 O18 3.096328 1_655
K4 O31 3.130669 1_655
K5 O5 2.688687 1_555
K5 O9 2.763163 1_565
K5 O47 2.776870 1_555
K5 O20 2.920957 1_555
K5 O26 3.092793 1_555
K5 O19 3.096328 1_555
K5 O30 3.130669 1_555
K6 O6 2.688687 1_555
K6 O10 2.763163 1_445
K6 O44 2.776870 1_455
K6 O23 2.920957 1_555
K6 O25 3.092793 1_555
K6 O16 3.096328 1_455
K6 O29 3.130669 1_455
K7 O7 2.688687 1_555
K7 O11 2.763163 1_545
K7 O45 2.776870 1_555
K7 O22 2.920957 1_555
K7 O24 3.092793 1_555
K7 O17 3.096328 1_555
K7 O28 3.130669 1_555
Mn0 O2 2.165938 1_554
Mn0 O0 2.165938 1_555
Mn0 O14 2.215489 1_555
Mn0 O12 2.215489 1_554
Mn0 O34 2.218210 1_554
Mn0 O32 2.218210 1_555
Mn1 O3 2.165938 1_455
Mn1 O1 2.165938 1_555
Mn1 O15 2.215489 1_555
Mn1 O13 2.215489 1_455
Mn1 O33 2.218210 1_455
Mn1 O35 2.218210 1_555
Mn2 O16 2.120793 1_554
Mn2 O40 2.200272 1_544
Mn2 O42 2.237089 1_555
Mn2 O12 2.311190 1_554
Mn2 O32 2.314445 1_555
Mn2 O4 2.447102 1_545
Mn3 O17 2.120793 1_555
Mn3 O41 2.200272 1_545
Mn3 O43 2.237089 1_655
Mn3 O13 2.311190 1_555
Mn3 O33 2.314445 1_555
Mn3 O5 2.447102 1_545
Mn4 O18 2.120793 1_556
Mn4 O42 2.200272 1_566
Mn4 O40 2.237089 1_555
Mn4 O14 2.311190 1_556
Mn4 O34 2.314445 1_555
Mn4 O6 2.447102 1_565
Mn5 O19 2.120793 1_555
Mn5 O43 2.200272 1_565
Mn5 O41 2.237089 1_455
Mn5 O15 2.311190 1_555
Mn5 O35 2.314445 1_555
Mn5 O7 2.447102 1_565
H0 O8 1.017778 1_555
H0 O24 1.612233 1_555
H0 K2 3.042294 1_455
H1 O9 1.017778 1_555
H1 O25 1.612233 1_555
H1 K3 3.042294 1_555
H2 O10 1.017778 1_555
H2 O26 1.612233 1_555
H2 K0 3.042294 1_655
H3 O11 1.017778 1_555
H3 O27 1.612233 1_555
H3 K1 3.042294 1_555
H4 O28 1.022697 1_555
H4 O27 1.570794 1_545
H5 O29 1.022697 1_555
H5 O26 1.570794 1_545
H6 O30 1.022697 1_555
H6 O25 1.570794 1_565
H7 O31 1.022697 1_555
H7 O24 1.570794 1_565
H8 O36 1.044724 1_555
H8 O23 1.464162 1_555
H8 K6 2.969522 1_555
H9 O37 1.044724 1_555
H9 O22 1.464162 1_555
H9 K7 2.969522 1_555
H10 O38 1.044724 1_555
H10 O21 1.464162 1_555
H10 K4 2.969522 1_555
H11 O39 1.044724 1_555
H11 O20 1.464162 1_555
H11 K5 2.969522 1_555
H12 O44 1.052885 1_555
H12 O6 1.460318 1_555
H13 O45 1.052885 1_455
H13 O7 1.460318 1_555
H14 O46 1.052885 1_555
H14 O4 1.460318 1_555
H15 O47 1.052885 1_655
H15 O5 1.460318 1_555
O0 P8 1.534768 1_555
O1 P9 1.534768 1_555
O2 P10 1.534768 1_555
O3 P11 1.534768 1_555
O4 P4 1.554145 1_565
O5 P5 1.554145 1_565
O6 P6 1.554145 1_545
O7 P7 1.554145 1_545
O8 P8 1.618851 1_555
O9 P9 1.618851 1_555
O10 P10 1.618851 1_555
O11 P11 1.618851 1_555
O12 P0 1.531683 1_555
O13 P1 1.531683 1_555
O14 P2 1.531683 1_555
O15 P3 1.531683 1_555
O16 P8 1.531505 1_656
O17 P9 1.531505 1_555
O18 P10 1.531505 1_454
O19 P11 1.531505 1_555
O20 P0 1.529571 1_555
O21 P1 1.529571 1_555
O22 P2 1.529571 1_555
O23 P3 1.529571 1_555
O24 P4 1.543008 1_555
O25 P5 1.543008 1_455
O26 P6 1.543008 1_555
O27 P7 1.543008 1_655
O28 P4 1.599018 1_555
O29 P5 1.599018 1_555
O30 P6 1.599018 1_555
O31 P7 1.599018 1_555
O32 P4 1.542207 1_555
O33 P5 1.542207 1_555
O34 P6 1.542207 1_555
O35 P7 1.542207 1_555
O36 P0 1.585050 1_555
O37 P1 1.585050 1_455
O38 P2 1.585050 1_555
O39 P3 1.585050 1_655
O40 P10 1.556786 1_555
O41 P11 1.556786 1_555
O42 P8 1.556786 1_555
O43 P9 1.556786 1_555
O44 P0 1.582450 1_555
O45 P1 1.582450 1_555
O46 P2 1.582450 1_555
O47 P3 1.582450 1_555
