# generated using pymatgen
data_CdAg2SnS4
_symmetry_space_group_name_H-M   'P 1'
_cell_length_a   4.14278400
_cell_length_b   6.82898300
_cell_length_c   7.24521873
_cell_angle_alpha   89.88060370
_cell_angle_beta   90.00000000
_cell_angle_gamma   90.00000000
_symmetry_Int_Tables_number   1
_chemical_formula_structural   CdAg2SnS4
_chemical_formula_sum   'Cd1 Ag2 Sn1 S4'
_cell_volume   204.97404900
_cell_formula_units_Z   1
loop_
 _symmetry_equiv_pos_site_id
 _symmetry_equiv_pos_as_xyz
  1  'x, y, z'
loop_
 _atom_site_type_symbol
 _atom_site_label
 _atom_site_symmetry_multiplicity
 _atom_site_fract_x
 _atom_site_fract_y
 _atom_site_fract_z
 _atom_site_occupancy
  Cd  Cd0  1  0.00000000  0.11869700  0.16926400  1
  Ag  Ag0  1  0.50000000  0.12375900  0.65803300  1
  Ag  Ag1  1  0.50000000  0.64264000  0.32874600  1
  Sn  Sn0  1  0.00000000  0.63748300  0.84864500  1
  S  S0  1  0.50000000  0.50671000  0.67745700  1
  S  S1  1  0.00000000  0.50377600  0.15747600  1
  S  S2  1  0.50000000  0.01141400  0.33126700  1
  S  S3  1  0.00000000  0.99072000  0.82911100  1
loop_
_geom_bond_atom_site_label_1
_geom_bond_atom_site_label_2
_geom_bond_distance
_geom_bond_site_symmetry_2
Cd0 S2 2.490284 1_455
Cd0 S2 2.490284 1_555
Cd0 S3 2.616571 1_544
Cd0 S1 2.630907 1_555
Ag0 S2 2.490218 1_555
Ag0 S3 2.578320 1_645
Ag0 S3 2.578320 1_545
Ag0 S0 2.619243 1_555
Ag1 S2 2.518456 1_565
Ag1 S1 2.595120 1_655
Ag1 S1 2.595120 1_555
Ag1 S0 2.689803 1_555
S0 Sn0 2.575101 1_655
S0 Sn0 2.575101 1_555
S1 Sn0 2.414918 1_554
S3 Sn0 2.416103 1_555
