# generated using pymatgen
data_Pr23Cd4Rh7
_symmetry_space_group_name_H-M   'P 1'
_cell_length_a   10.06365622
_cell_length_b   10.06365622
_cell_length_c   22.83078900
_cell_angle_alpha   90.00000000
_cell_angle_beta   90.00000000
_cell_angle_gamma   120.00000142
_symmetry_Int_Tables_number   1
_chemical_formula_structural   Pr23Cd4Rh7
_chemical_formula_sum   'Pr46 Cd8 Rh14'
_cell_volume   2002.45668521
_cell_formula_units_Z   2
loop_
 _symmetry_equiv_pos_site_id
 _symmetry_equiv_pos_as_xyz
  1  'x, y, z'
loop_
 _atom_site_type_symbol
 _atom_site_label
 _atom_site_symmetry_multiplicity
 _atom_site_fract_x
 _atom_site_fract_y
 _atom_site_fract_z
 _atom_site_occupancy
  Pr  Pr0  1  0.20687900  0.41375800  0.72054200  1
  Pr  Pr1  1  0.20687900  0.79312100  0.72054200  1
  Pr  Pr2  1  0.79312100  0.58624200  0.22054200  1
  Pr  Pr3  1  0.58624200  0.79312100  0.72054200  1
  Pr  Pr4  1  0.79312100  0.20687900  0.22054200  1
  Pr  Pr5  1  0.41375800  0.20687900  0.22054200  1
  Pr  Pr6  1  0.79361400  0.58722900  0.94694000  1
  Pr  Pr7  1  0.79361400  0.20638600  0.94694000  1
  Pr  Pr8  1  0.20638600  0.41277100  0.44694000  1
  Pr  Pr9  1  0.41277100  0.20638600  0.94694000  1
  Pr  Pr10  1  0.20638600  0.79361400  0.44694000  1
  Pr  Pr11  1  0.58722900  0.79361400  0.44694000  1
  Pr  Pr12  1  0.20996000  0.41992100  0.98975800  1
  Pr  Pr13  1  0.20996000  0.79004000  0.98975800  1
  Pr  Pr14  1  0.79004000  0.58007900  0.48975800  1
  Pr  Pr15  1  0.58007900  0.79004000  0.98975800  1
  Pr  Pr16  1  0.79004000  0.20996000  0.48975800  1
  Pr  Pr17  1  0.41992100  0.20996000  0.48975800  1
  Pr  Pr18  1  0.87285400  0.74570900  0.63557800  1
  Pr  Pr19  1  0.87285400  0.12714600  0.63557800  1
  Pr  Pr20  1  0.12714600  0.25429100  0.13557800  1
  Pr  Pr21  1  0.25429100  0.12714600  0.63557800  1
  Pr  Pr22  1  0.12714600  0.87285400  0.13557800  1
  Pr  Pr23  1  0.74570900  0.87285400  0.13557800  1
  Pr  Pr24  1  0.45913800  0.91827500  0.85633600  1
  Pr  Pr25  1  0.45913800  0.54086200  0.85633600  1
  Pr  Pr26  1  0.54086200  0.08172500  0.35633600  1
  Pr  Pr27  1  0.08172500  0.54086200  0.85633600  1
  Pr  Pr28  1  0.54086200  0.45913800  0.35633600  1
  Pr  Pr29  1  0.91827500  0.45913800  0.35633600  1
  Pr  Pr30  1  0.00000000  0.00000000  0.99723900  1
  Pr  Pr31  1  0.00000000  0.00000000  0.49723800  1
  Pr  Pr32  1  0.46019600  0.92039300  0.58508100  1
  Pr  Pr33  1  0.46019600  0.53980400  0.58508100  1
  Pr  Pr34  1  0.53980400  0.07960700  0.08508100  1
  Pr  Pr35  1  0.07960700  0.53980400  0.58508100  1
  Pr  Pr36  1  0.53980400  0.46019600  0.08508100  1
  Pr  Pr37  1  0.92039300  0.46019600  0.08508100  1
  Pr  Pr38  1  0.79850400  0.59700900  0.78240600  1
  Pr  Pr39  1  0.79850400  0.20149600  0.78240600  1
  Pr  Pr40  1  0.20149600  0.40299100  0.28240600  1
  Pr  Pr41  1  0.40299100  0.20149600  0.78240600  1
  Pr  Pr42  1  0.20149600  0.79850400  0.28240600  1
  Pr  Pr43  1  0.59700900  0.79850400  0.28240600  1
  Pr  Pr44  1  0.66666700  0.33333300  0.64503500  1
  Pr  Pr45  1  0.33333300  0.66666700  0.14503500  1
  Cd  Cd0  1  0.00000000  0.00000000  0.74923800  1
  Cd  Cd1  1  0.00000000  0.00000000  0.24923800  1
  Cd  Cd2  1  0.10664700  0.21329500  0.86350100  1
  Cd  Cd3  1  0.10664700  0.89335300  0.86350100  1
  Cd  Cd4  1  0.89335300  0.78670500  0.36350100  1
  Cd  Cd5  1  0.78670500  0.89335300  0.86350100  1
  Cd  Cd6  1  0.89335300  0.10664700  0.36350100  1
  Cd  Cd7  1  0.21329500  0.10664700  0.36350100  1
  Rh  Rh0  1  0.52116100  0.04232100  0.71053200  1
  Rh  Rh1  1  0.52116100  0.47883900  0.71053200  1
  Rh  Rh2  1  0.47883900  0.95767900  0.21053200  1
  Rh  Rh3  1  0.95767900  0.47883900  0.71053200  1
  Rh  Rh4  1  0.47883900  0.52116100  0.21053200  1
  Rh  Rh5  1  0.04232100  0.52116100  0.21053200  1
  Rh  Rh6  1  0.66666700  0.33333300  0.86409000  1
  Rh  Rh7  1  0.33333300  0.66666700  0.36409000  1
  Rh  Rh8  1  0.14370500  0.28741100  0.56303300  1
  Rh  Rh9  1  0.14370500  0.85629500  0.56303300  1
  Rh  Rh10  1  0.85629500  0.71258900  0.06303300  1
  Rh  Rh11  1  0.71258900  0.85629500  0.56303300  1
  Rh  Rh12  1  0.85629500  0.14370500  0.06303300  1
  Rh  Rh13  1  0.28741100  0.14370500  0.06303300  1
loop_
_geom_bond_atom_site_label_1
_geom_bond_atom_site_label_2
_geom_bond_distance
_geom_bond_site_symmetry_2
Pr0 Rh3 2.900535 1_455
Pr0 Rh1 2.900545 1_555
Pr1 Rh3 2.900541 1_455
Pr1 Rh0 2.900541 1_565
Pr2 Rh5 2.900535 1_655
Pr2 Rh4 2.900545 1_555
Pr3 Rh0 2.900535 1_565
Pr3 Rh1 2.900545 1_555
Pr4 Rh2 2.900541 1_545
Pr4 Rh5 2.900541 1_655
Pr5 Rh2 2.900535 1_545
Pr5 Rh4 2.900545 1_555
Pr6 Rh10 2.866847 1_556
Pr6 Rh6 2.911078 1_555
Pr7 Rh12 2.866853 1_556
Pr7 Rh6 2.911065 1_555
Pr8 Rh8 2.866847 1_555
Pr8 Rh7 2.911078 1_555
Pr9 Rh13 2.866847 1_556
Pr9 Rh6 2.911078 1_555
Pr10 Rh9 2.866853 1_555
Pr10 Rh7 2.911065 1_555
Pr11 Rh11 2.866847 1_555
Pr11 Rh7 2.911078 1_555
Pr12 Rh12 3.646880 1_456
Pr12 Rh13 3.646892 1_556
Pr13 Rh13 3.646875 1_566
Pr13 Rh10 3.646875 1_456
Pr14 Rh9 3.646880 1_655
Pr14 Rh11 3.646892 1_555
Pr15 Rh12 3.646880 1_566
Pr15 Rh10 3.646892 1_556
Pr16 Rh8 3.646875 1_655
Pr16 Rh11 3.646875 1_545
Pr17 Rh9 3.646880 1_545
Pr17 Rh8 3.646892 1_555
Pr18 Rh9 2.894473 1_655
Pr18 Rh11 2.894473 1_555
Pr18 Rh1 3.628029 1_555
Pr18 Rh3 3.628041 1_555
Pr19 Rh11 2.894473 1_545
Pr19 Rh8 2.894473 1_655
Pr19 Rh0 3.628024 1_555
Pr19 Rh3 3.628024 1_555
Pr20 Rh12 2.894473 1_455
Pr20 Rh13 2.894473 1_555
Pr20 Rh4 3.628029 1_555
Pr20 Rh5 3.628041 1_555
Pr21 Rh9 2.894473 1_545
Pr21 Rh8 2.894473 1_555
Pr21 Rh1 3.628029 1_555
Pr21 Rh0 3.628041 1_555
Pr22 Rh10 2.894473 1_455
Pr22 Rh13 2.894473 1_565
Pr22 Rh5 3.628024 1_555
Pr22 Rh2 3.628024 1_555
Pr23 Rh12 2.894473 1_565
Pr23 Rh10 2.894473 1_555
Pr23 Rh4 3.628029 1_555
Pr23 Rh2 3.628041 1_555
Pr24 Rh0 3.499977 1_565
Pr24 Rh6 3.621718 1_565
Pr25 Rh1 3.499977 1_555
Pr25 Rh6 3.621718 1_555
Pr26 Rh2 3.499977 1_545
Pr26 Rh7 3.621718 1_545
Pr27 Rh3 3.499977 1_455
Pr27 Rh6 3.621718 1_455
Pr28 Rh4 3.499977 1_555
Pr28 Rh7 3.621718 1_555
Pr29 Rh5 3.499977 1_655
Pr29 Rh7 3.621718 1_655
Pr30 Rh12 2.920763 1_456
Pr30 Rh13 2.920770 1_556
Pr30 Rh10 2.920770 1_446
Pr31 Rh9 2.920774 1_545
Pr31 Rh8 2.920782 1_555
Pr31 Rh11 2.920782 1_445
Pr32 Rh9 2.959649 1_555
Pr32 Rh11 2.959649 1_555
Pr32 Rh0 3.054922 1_565
Pr33 Rh11 2.959649 1_555
Pr33 Rh8 2.959649 1_555
Pr33 Rh1 3.054929 1_555
Pr34 Rh12 2.959649 1_555
Pr34 Rh13 2.959649 1_555
Pr34 Rh2 3.054922 1_545
Pr35 Rh9 2.959649 1_555
Pr35 Rh8 2.959649 1_555
Pr35 Rh3 3.054922 1_455
Pr36 Rh10 2.959649 1_555
Pr36 Rh13 2.959649 1_555
Pr36 Rh4 3.054929 1_555
Pr37 Rh12 2.959649 1_555
Pr37 Rh10 2.959649 1_555
Pr37 Rh5 3.054922 1_655
Pr38 Rh1 2.928800 1_555
Pr38 Rh3 2.928815 1_555
Pr38 Rh6 2.959538 1_555
Pr39 Rh0 2.928801 1_555
Pr39 Rh3 2.928801 1_555
Pr39 Rh6 2.959524 1_555
Pr40 Rh4 2.928800 1_555
Pr40 Rh5 2.928815 1_555
Pr40 Rh7 2.959538 1_555
Pr41 Rh1 2.928800 1_555
Pr41 Rh0 2.928815 1_555
Pr41 Rh6 2.959538 1_555
Pr42 Rh5 2.928801 1_555
Pr42 Rh2 2.928801 1_555
Pr42 Rh7 2.959524 1_555
Pr43 Rh4 2.928800 1_555
Pr43 Rh2 2.928815 1_555
Pr43 Rh7 2.959538 1_555
Pr44 Rh3 2.944280 1_555
Pr44 Rh0 2.944280 1_555
Pr44 Rh1 2.944280 1_555
Pr45 Rh2 2.944280 1_555
Pr45 Rh5 2.944280 1_555
Pr45 Rh4 2.944280 1_555
Cd0 Cd3 3.203286 1_545
Cd0 Cd2 3.203291 1_555
Cd0 Cd5 3.203291 1_445
Cd0 Pr21 3.412548 1_555
Cd0 Pr18 3.412548 1_445
Cd0 Pr19 3.412554 1_455
Cd0 Pr41 3.592927 1_555
Cd0 Pr38 3.592927 1_445
Cd0 Pr39 3.592935 1_455
Cd0 Pr0 3.665090 1_555
Cd0 Pr3 3.665090 1_445
Cd0 Pr1 3.665090 1_545
Cd1 Cd6 3.203286 1_455
Cd1 Cd7 3.203291 1_555
Cd1 Cd4 3.203291 1_445
Cd1 Pr20 3.412548 1_555
Cd1 Pr23 3.412548 1_445
Cd1 Pr22 3.412554 1_545
Cd1 Pr43 3.592927 1_445
Cd1 Pr40 3.592927 1_555
Cd1 Pr42 3.592935 1_545
Cd1 Pr5 3.665090 1_555
Cd1 Pr2 3.665090 1_445
Cd1 Pr4 3.665090 1_455
Cd2 Cd5 3.219786 1_445
Cd2 Cd3 3.219786 1_545
Cd2 Pr12 3.398830 1_555
Cd2 Pr27 3.432711 1_555
Cd2 Pr25 3.432722 1_555
Cd2 Pr39 3.562341 1_455
Cd2 Pr41 3.562341 1_555
Cd2 Pr30 3.574716 1_555
Cd2 Pr7 3.652240 1_455
Cd2 Pr9 3.652240 1_555
Cd2 Pr0 3.702057 1_555
Cd3 Cd5 3.219786 1_455
Cd3 Pr13 3.398830 1_555
Cd3 Pr27 3.432731 1_555
Cd3 Pr24 3.432731 1_555
Cd3 Pr38 3.562341 1_455
Cd3 Pr41 3.562341 1_565
Cd3 Pr30 3.574712 1_565
Cd3 Pr6 3.652240 1_455
Cd3 Pr9 3.652240 1_565
Cd3 Pr1 3.702061 1_555
Cd4 Cd7 3.219786 1_665
Cd4 Cd6 3.219786 1_565
Cd4 Pr14 3.398830 1_555
Cd4 Pr29 3.432711 1_555
Cd4 Pr28 3.432722 1_555
Cd4 Pr42 3.562341 1_655
Cd4 Pr43 3.562341 1_555
Cd4 Pr31 3.574697 1_665
Cd4 Pr10 3.652240 1_655
Cd4 Pr11 3.652240 1_555
Cd4 Pr2 3.702057 1_555
Cd5 Pr15 3.398830 1_555
Cd5 Pr24 3.432711 1_555
Cd5 Pr25 3.432722 1_555
Cd5 Pr39 3.562341 1_565
Cd5 Pr38 3.562341 1_555
Cd5 Pr30 3.574716 1_665
Cd5 Pr7 3.652240 1_565
Cd5 Pr6 3.652240 1_555
Cd5 Pr3 3.702057 1_555
Cd6 Cd7 3.219786 1_655
Cd6 Pr16 3.398830 1_555
Cd6 Pr26 3.432731 1_555
Cd6 Pr29 3.432731 1_555
Cd6 Pr43 3.562341 1_545
Cd6 Pr40 3.562341 1_655
Cd6 Pr31 3.574692 1_655
Cd6 Pr11 3.652240 1_545
Cd6 Pr8 3.652240 1_655
Cd6 Pr4 3.702061 1_555
Cd7 Pr17 3.398830 1_555
Cd7 Pr26 3.432711 1_555
Cd7 Pr28 3.432722 1_555
Cd7 Pr42 3.562341 1_545
Cd7 Pr40 3.562341 1_555
Cd7 Pr31 3.574697 1_555
Cd7 Pr10 3.652240 1_545
Cd7 Pr8 3.652240 1_555
Cd7 Pr5 3.702057 1_555
