# generated using pymatgen
data_Y2CrSbO7
_symmetry_space_group_name_H-M   'P 1'
_cell_length_a   7.19780099
_cell_length_b   7.18670283
_cell_length_c   7.24825184
_cell_angle_alpha   89.99996166
_cell_angle_beta   59.76786094
_cell_angle_gamma   119.94908650
_symmetry_Int_Tables_number   1
_chemical_formula_structural   Y2CrSbO7
_chemical_formula_sum   'Y4 Cr2 Sb2 O14'
_cell_volume   264.39364457
_cell_formula_units_Z   2
loop_
 _symmetry_equiv_pos_site_id
 _symmetry_equiv_pos_as_xyz
  1  'x, y, z'
loop_
 _atom_site_type_symbol
 _atom_site_label
 _atom_site_symmetry_multiplicity
 _atom_site_fract_x
 _atom_site_fract_y
 _atom_site_fract_z
 _atom_site_occupancy
  Y  Y0  1  0.50000082  0.50000006  0.99999975  1
  Y  Y1  1  0.50000019  0.00000006  0.00000017  1
  Y  Y2  1  0.99999947  0.99999972  0.50000001  1
  Y  Y3  1  0.99999986  0.99999988  0.00000019  1
  Cr  Cr0  1  0.49999970  0.99999943  0.50000030  1
  Cr  Cr1  1  0.49999974  0.49999977  0.50000011  1
  Sb  Sb0  1  0.99999999  0.49999948  0.00000038  1
  Sb  Sb1  1  0.00000009  0.49999986  0.49999984  1
  O  O0  1  0.25555285  0.12777626  0.12222353  1
  O  O1  1  0.74444737  0.87222383  0.87777640  1
  O  O2  1  0.67644058  0.83822003  0.41178068  1
  O  O3  1  0.83860548  0.41930231  0.83069738  1
  O  O4  1  0.25214941  0.83024779  0.83503730  1
  O  O5  1  0.25215220  0.42190358  0.41281222  1
  O  O6  1  0.25214934  0.42190136  0.83503705  1
  O  O7  1  0.25214966  0.83024763  0.41281319  1
  O  O8  1  0.32355793  0.16177959  0.58822046  1
  O  O9  1  0.16139556  0.58069781  0.16930221  1
  O  O10  1  0.74785005  0.16975225  0.16496351  1
  O  O11  1  0.74784997  0.57809734  0.58718692  1
  O  O12  1  0.74785114  0.57809862  0.16496296  1
  O  O13  1  0.74784960  0.16975236  0.58718744  1
loop_
_geom_bond_atom_site_label_1
_geom_bond_atom_site_label_2
_geom_bond_distance
_geom_bond_site_symmetry_2
Cr0 O2 2.007498 1_555
Cr0 O8 2.007507 1_565
Cr0 O4 2.008106 1_555
Cr0 O10 2.008106 1_565
Cr0 O7 2.008108 1_555
Cr0 O13 2.008109 1_565
Cr1 O8 2.007493 1_555
Cr1 O2 2.007494 1_555
Cr1 O5 2.008099 1_555
Cr1 O6 2.008107 1_555
Cr1 O12 2.008109 1_555
Cr1 O11 2.008109 1_555
O0 Y0 2.183442 1_554
O0 Y1 2.183445 1_555
O0 Y2 2.228453 1_445
O0 Y3 2.228453 1_445
O1 Y0 2.183442 1_555
O1 Y1 2.183444 1_566
O1 Y2 2.228453 1_555
O1 Y3 2.228453 1_556
O2 Y2 2.445517 1_555
O2 Y3 2.445528 1_555
O3 Sb1 1.988624 1_655
O3 Sb0 1.988625 1_556
O3 Y1 2.486303 1_556
O3 Y0 2.486308 1_555
O4 Sb0 1.967342 1_456
O4 Y1 2.464869 1_566
O4 Y3 2.497467 1_456
O5 Sb1 1.967348 1_555
O5 Y0 2.464863 1_554
O5 Y2 2.497475 1_445
O6 Sb0 1.967342 1_456
O6 Y0 2.464873 1_555
O6 Y3 2.497462 1_446
O7 Sb1 1.967339 1_555
O7 Y1 2.464864 1_565
O7 Y2 2.497471 1_455
O8 Y2 2.445521 1_445
O8 Y3 2.445523 1_446
O9 Sb0 1.988623 1_455
O9 Sb1 1.988624 1_555
O9 Y1 2.486302 1_565
O9 Y0 2.486312 1_554
O10 Sb0 1.967336 1_555
O10 Y1 2.464867 1_555
O10 Y3 2.497471 1_545
O11 Sb1 1.967342 1_655
O11 Y0 2.464865 1_555
O11 Y2 2.497467 1_555
O12 Sb0 1.967344 1_555
O12 Y0 2.464869 1_554
O12 Y3 2.497461 1_555
O13 Sb1 1.967338 1_655
O13 Y1 2.464863 1_556
O13 Y2 2.497472 1_545
