# generated using pymatgen
data_MnFe2(PO8)2
_symmetry_space_group_name_H-M   'P 1'
_cell_length_a   7.90962200
_cell_length_b   10.20559270
_cell_length_c   10.23848982
_cell_angle_alpha   118.98391872
_cell_angle_beta   89.77845480
_cell_angle_gamma   91.23577694
_symmetry_Int_Tables_number   1
_chemical_formula_structural   MnFe2(PO8)2
_chemical_formula_sum   'Mn2 Fe4 P4 O32'
_cell_volume   722.77535714
_cell_formula_units_Z   2
loop_
 _symmetry_equiv_pos_site_id
 _symmetry_equiv_pos_as_xyz
  1  'x, y, z'
loop_
 _atom_site_type_symbol
 _atom_site_label
 _atom_site_symmetry_multiplicity
 _atom_site_fract_x
 _atom_site_fract_y
 _atom_site_fract_z
 _atom_site_occupancy
  Mn  Mn0  1  0.82908400  0.07392000  0.46157400  1
  Mn  Mn1  1  0.17091600  0.92608000  0.53842600  1
  Fe  Fe0  1  0.83038800  0.70225200  0.01396100  1
  Fe  Fe1  1  0.16961200  0.29774800  0.98603900  1
  Fe  Fe2  1  0.64954000  0.21077800  0.98283700  1
  Fe  Fe3  1  0.35046000  0.78922200  0.01716300  1
  P  P0  1  0.89324600  0.34658600  0.79758100  1
  P  P1  1  0.10675400  0.65341400  0.20241900  1
  P  P2  1  0.63170800  0.02908700  0.18331600  1
  P  P3  1  0.36829200  0.97091300  0.81668400  1
  O  O0  1  0.85291500  0.26003100  0.62817100  1
  O  O1  1  0.14708500  0.73996900  0.37182900  1
  O  O2  1  0.86872800  0.51306400  0.84398100  1
  O  O3  1  0.13127200  0.48693600  0.15601900  1
  O  O4  1  0.77345500  0.29861700  0.88576000  1
  O  O5  1  0.22654500  0.70138300  0.11424000  1
  O  O6  1  0.07914400  0.32119800  0.82832200  1
  O  O7  1  0.92085600  0.67880200  0.17167800  1
  O  O8  1  0.75819400  0.90320100  0.09312500  1
  O  O9  1  0.24180600  0.09679900  0.90687500  1
  O  O10  1  0.62613300  0.14024000  0.12316100  1
  O  O11  1  0.37386700  0.85976000  0.87683900  1
  O  O12  1  0.69283200  0.12442200  0.34966700  1
  O  O13  1  0.30716800  0.87557800  0.65033300  1
  O  O14  1  0.45415300  0.96288500  0.18186500  1
  O  O15  1  0.54584700  0.03711500  0.81813500  1
  O  O16  1  0.56334900  0.65997200  0.99422400  1
  O  O17  1  0.43665100  0.34002800  0.00577600  1
  O  O18  1  0.94927600  0.22233800  0.06004400  1
  O  O19  1  0.05072400  0.77766200  0.93995600  1
  O  O20  1  0.00239800  0.01955900  0.36477200  1
  O  O21  1  0.99760200  0.98044100  0.63522800  1
  O  O22  1  0.51329800  0.65994500  0.41174600  1
  O  O23  1  0.48670200  0.34005500  0.58825400  1
  O  O24  1  0.73097700  0.94345300  0.47799400  1
  O  O25  1  0.26902300  0.05654700  0.52200600  1
  O  O26  1  0.57665600  0.42966200  0.57131700  1
  O  O27  1  0.42334400  0.57033800  0.42868300  1
  O  O28  1  0.52490800  0.40792600  0.13502700  1
  O  O29  1  0.47509200  0.59207400  0.86497300  1
  O  O30  1  0.01172100  0.79854100  0.83071100  1
  O  O31  1  0.98827900  0.20145900  0.16928900  1
loop_
_geom_bond_atom_site_label_1
_geom_bond_atom_site_label_2
_geom_bond_distance
_geom_bond_site_symmetry_2
Mn0 O24 1.604573 1_545
Mn0 O20 1.630559 1_655
Mn0 O12 1.829111 1_555
Mn0 O0 1.843872 1_555
Mn1 O25 1.604573 1_565
Mn1 O21 1.630559 1_455
Mn1 O13 1.829111 1_555
Mn1 O1 1.843872 1_555
Fe0 O7 1.888831 1_555
Fe0 O2 1.900879 1_554
Fe0 O8 1.903902 1_555
Fe0 O16 2.137242 1_554
Fe0 O19 2.168115 1_654
Fe1 O6 1.888831 1_555
Fe1 O3 1.900879 1_556
Fe1 O9 1.903902 1_555
Fe1 O17 2.137242 1_556
Fe1 O18 2.168115 1_456
Fe2 O4 1.889497 1_555
Fe2 O10 1.900304 1_556
Fe2 O15 1.925885 1_555
Fe2 O17 2.103105 1_556
Fe2 O28 2.117381 1_556
Fe2 O18 2.484254 1_556
Fe3 O5 1.889497 1_555
Fe3 O11 1.900304 1_554
Fe3 O14 1.925885 1_555
Fe3 O16 2.103105 1_554
Fe3 O29 2.117381 1_554
Fe3 O19 2.484254 1_554
O0 P0 1.548490 1_555
O1 P1 1.548490 1_555
O2 P0 1.543113 1_555
O3 P1 1.543113 1_555
O4 P0 1.534345 1_555
O5 P1 1.534345 1_555
O6 P0 1.557968 1_455
O7 P1 1.557968 1_655
O8 P2 1.550078 1_565
O9 P3 1.550078 1_545
O10 P2 1.532174 1_555
O11 P3 1.532174 1_555
O12 P2 1.568863 1_555
O13 P3 1.568863 1_555
O14 P2 1.542246 1_565
O15 P3 1.542246 1_545
O16 O29 1.347699 1_555
O17 O28 1.347699 1_555
O18 O31 1.275973 1_555
O19 O30 1.275973 1_555
O22 O27 1.223629 1_555
O23 O26 1.223629 1_555
