# generated using pymatgen
data_Li5Mn2CoO8
_symmetry_space_group_name_H-M   'P 1'
_cell_length_a   4.98847918
_cell_length_b   5.87971459
_cell_length_c   5.87974108
_cell_angle_alpha   119.80751289
_cell_angle_beta   73.56913182
_cell_angle_gamma   106.43064312
_symmetry_Int_Tables_number   1
_chemical_formula_structural   Li5Mn2CoO8
_chemical_formula_sum   'Li5 Mn2 Co1 O8'
_cell_volume   141.41848061
_cell_formula_units_Z   1
loop_
 _symmetry_equiv_pos_site_id
 _symmetry_equiv_pos_as_xyz
  1  'x, y, z'
loop_
 _atom_site_type_symbol
 _atom_site_label
 _atom_site_symmetry_multiplicity
 _atom_site_fract_x
 _atom_site_fract_y
 _atom_site_fract_z
 _atom_site_occupancy
  Li  Li0  1  0.99999900  0.49924200  0.49924200  1
  Li  Li1  1  0.00203800  0.49640800  0.99690000  1
  Li  Li2  1  0.99795900  0.99690300  0.49640800  1
  Li  Li3  1  0.50439100  0.25255600  0.75016000  1
  Li  Li4  1  0.49561000  0.75016500  0.25255600  1
  Mn  Mn0  1  0.00000900  0.99752400  0.99754700  1
  Mn  Mn1  1  0.49999500  0.74528100  0.74527300  1
  Co  Co0  1  0.49999700  0.26419200  0.26418900  1
  O  O0  1  0.74788400  0.65397200  0.87698600  1
  O  O1  1  0.25211200  0.87699100  0.65397500  1
  O  O2  1  0.75275400  0.11979400  0.33856300  1
  O  O3  1  0.24724800  0.33855800  0.11979700  1
  O  O4  1  0.27866100  0.39984400  0.63135700  1
  O  O5  1  0.72134100  0.63135900  0.39984000  1
  O  O6  1  0.24578500  0.87487500  0.10233400  1
  O  O7  1  0.75421800  0.10233800  0.87487500  1
loop_
_geom_bond_atom_site_label_1
_geom_bond_atom_site_label_2
_geom_bond_distance
_geom_bond_site_symmetry_2
Li0 O3 2.097223 1_655
Li0 O2 2.097225 1_555
Li0 O4 2.097421 1_655
Li0 O5 2.097426 1_555
Li0 O0 2.097761 1_555
Li0 O1 2.097779 1_655
Li1 O6 2.083008 1_556
Li1 O4 2.097195 1_555
Li1 O7 2.154132 1_455
Li1 O3 2.165378 1_556
Li1 O0 2.186862 1_455
Li1 O5 2.255260 1_456
Li2 O7 2.082998 1_565
Li2 O5 2.097186 1_555
Li2 O6 2.154162 1_655
Li2 O2 2.165313 1_565
Li2 O1 2.186864 1_655
Li2 O4 2.255275 1_665
Li3 O4 2.025825 1_555
Li3 O3 2.078912 1_556
Li3 O1 2.090168 1_545
Li3 O7 2.157446 1_555
Li3 O0 2.177823 1_555
Li3 O2 2.230228 1_555
Li4 O5 2.025824 1_555
Li4 O2 2.078874 1_565
Li4 O0 2.090178 1_554
Li4 O6 2.157436 1_555
Li4 O1 2.177846 1_555
Li4 O3 2.230270 1_555
Mn0 O2 1.930803 1_466
Mn0 O3 1.930835 1_566
Mn0 O6 1.942184 1_556
Mn0 O7 1.942450 1_465
Mn0 O0 1.951482 1_455
Mn0 O1 1.951505 1_555
Mn1 O4 1.894787 1_555
Mn1 O5 1.894792 1_555
Mn1 O1 1.935848 1_555
Mn1 O0 1.935929 1_555
Mn1 O6 2.011578 1_556
Mn1 O7 2.011593 1_565
Co0 O3 1.946320 1_555
Co0 O2 1.946406 1_555
Co0 O4 1.988407 1_555
Co0 O5 1.988416 1_555
Co0 O6 2.151394 1_545
Co0 O7 2.151400 1_554
