# generated using pymatgen
data_RbNa2Si17
_symmetry_space_group_name_H-M   'P 1'
_cell_length_a   10.47920936
_cell_length_b   10.47920936
_cell_length_c   10.47920936
_cell_angle_alpha   60.00000000
_cell_angle_beta   60.00000000
_cell_angle_gamma   60.00000000
_symmetry_Int_Tables_number   1
_chemical_formula_structural   RbNa2Si17
_chemical_formula_sum   'Rb2 Na4 Si34'
_cell_volume   813.71168640
_cell_formula_units_Z   2
loop_
 _symmetry_equiv_pos_site_id
 _symmetry_equiv_pos_as_xyz
  1  'x, y, z'
loop_
 _atom_site_type_symbol
 _atom_site_label
 _atom_site_symmetry_multiplicity
 _atom_site_fract_x
 _atom_site_fract_y
 _atom_site_fract_z
 _atom_site_occupancy
  Rb  Rb0  1  0.75000000  0.75000000  0.75000000  1
  Rb  Rb1  1  0.50000000  0.50000000  0.50000000  1
  Na  Na0  1  0.62500000  0.12500000  0.12500000  1
  Na  Na1  1  0.12500000  0.12500000  0.62500000  1
  Na  Na2  1  0.12500000  0.62500000  0.12500000  1
  Na  Na3  1  0.12500000  0.12500000  0.12500000  1
  Si  Si0  1  0.88988200  0.49537000  0.11937800  1
  Si  Si1  1  0.88988200  0.49537000  0.49537000  1
  Si  Si2  1  0.11937800  0.49537000  0.49537000  1
  Si  Si3  1  0.36011800  0.13062200  0.75463000  1
  Si  Si4  1  0.75463000  0.13062200  0.75463000  1
  Si  Si5  1  0.13062200  0.75463000  0.36011800  1
  Si  Si6  1  0.75463000  0.75463000  0.36011800  1
  Si  Si7  1  0.13062200  0.36011800  0.75463000  1
  Si  Si8  1  0.36011800  0.75463000  0.13062200  1
  Si  Si9  1  0.75463000  0.75463000  0.13062200  1
  Si  Si10  1  0.75463000  0.36011800  0.75463000  1
  Si  Si11  1  0.11937800  0.49537000  0.88988200  1
  Si  Si12  1  0.49537000  0.49537000  0.88988200  1
  Si  Si13  1  0.49537000  0.88988200  0.11937800  1
  Si  Si14  1  0.49537000  0.11937800  0.88988200  1
  Si  Si15  1  0.88988200  0.11937800  0.49537000  1
  Si  Si16  1  0.49537000  0.11937800  0.49537000  1
  Si  Si17  1  0.36011800  0.75463000  0.75463000  1
  Si  Si18  1  0.13062200  0.75463000  0.75463000  1
  Si  Si19  1  0.75463000  0.36011800  0.13062200  1
  Si  Si20  1  0.90756900  0.27729400  0.90756900  1
  Si  Si21  1  0.34243100  0.34243100  0.97270600  1
  Si  Si22  1  0.97270600  0.34243100  0.34243100  1
  Si  Si23  1  0.34243100  0.34243100  0.34243100  1
  Si  Si24  1  0.27729400  0.90756900  0.90756900  1
  Si  Si25  1  0.90756900  0.90756900  0.90756900  1
  Si  Si26  1  0.90756900  0.90756900  0.27729400  1
  Si  Si27  1  0.34243100  0.97270600  0.34243100  1
  Si  Si28  1  0.00000000  0.00000000  0.00000000  1
  Si  Si29  1  0.25000000  0.25000000  0.25000000  1
  Si  Si30  1  0.11937800  0.88988200  0.49537000  1
  Si  Si31  1  0.49537000  0.49537000  0.11937800  1
  Si  Si32  1  0.75463000  0.13062200  0.36011800  1
  Si  Si33  1  0.49537000  0.88988200  0.49537000  1
loop_
_geom_bond_atom_site_label_1
_geom_bond_atom_site_label_2
_geom_bond_distance
_geom_bond_site_symmetry_2
Rb0 Si14 3.960531 1_565
Rb0 Si13 3.960531 1_556
Rb0 Si11 3.960531 1_655
Rb0 Si30 3.960531 1_655
Rb0 Si0 3.960531 1_556
Rb0 Si15 3.960531 1_565
Rb0 Si2 3.960531 1_655
Rb0 Si16 3.960531 1_565
Rb0 Si31 3.960531 1_556
Rb0 Si12 3.960531 1_555
Rb0 Si1 3.960531 1_555
Rb0 Si33 3.960531 1_555
Rb0 Si10 4.037719 1_555
Rb0 Si4 4.037719 1_565
Rb0 Si3 4.037719 1_565
Rb0 Si19 4.037719 1_556
Rb0 Si9 4.037719 1_556
Rb0 Si5 4.037719 1_655
Rb0 Si6 4.037719 1_555
Rb0 Si18 4.037719 1_655
Rb0 Si17 4.037719 1_555
Rb0 Si7 4.037719 1_655
Rb0 Si8 4.037719 1_556
Rb0 Si32 4.037719 1_565
Rb0 Si24 4.044585 1_555
Rb0 Si20 4.044585 1_555
Rb0 Si26 4.044585 1_555
Rb0 Si25 4.044594 1_555
Rb1 Si5 3.960531 1_555
Rb1 Si3 3.960531 1_555
Rb1 Si8 3.960531 1_555
Rb1 Si19 3.960531 1_555
Rb1 Si7 3.960531 1_555
Rb1 Si32 3.960531 1_555
Rb1 Si10 3.960531 1_555
Rb1 Si4 3.960531 1_555
Rb1 Si9 3.960531 1_555
Rb1 Si6 3.960531 1_555
Rb1 Si17 3.960531 1_555
Rb1 Si18 3.960531 1_555
Rb1 Si12 4.037719 1_555
Rb1 Si33 4.037719 1_555
Rb1 Si1 4.037719 1_555
Rb1 Si14 4.037719 1_555
Rb1 Si15 4.037719 1_555
Rb1 Si0 4.037719 1_555
Rb1 Si11 4.037719 1_555
Rb1 Si13 4.037719 1_555
Rb1 Si31 4.037719 1_555
Rb1 Si16 4.037719 1_555
Rb1 Si30 4.037719 1_555
Rb1 Si2 4.037719 1_555
Rb1 Si27 4.044585 1_555
Rb1 Si21 4.044585 1_555
Rb1 Si22 4.044585 1_555
Rb1 Si23 4.044594 1_555
Na0 Si28 3.208589 1_655
Na0 Si29 3.208589 1_555
Na0 Si23 3.293798 1_555
Na0 Si25 3.293798 1_544
Na0 Si26 3.293804 1_545
Na0 Si20 3.293804 1_554
Na0 Si27 3.293804 1_545
Na0 Si21 3.293804 1_554
Na0 Si6 3.389906 1_545
Na0 Si4 3.389906 1_554
Na0 Si9 3.389906 1_545
Na0 Si31 3.389906 1_555
Na0 Si16 3.389906 1_555
Na0 Si19 3.389906 1_555
Na0 Si32 3.389906 1_555
Na0 Si12 3.389906 1_554
Na0 Si10 3.389906 1_554
Na0 Si33 3.389906 1_545
Na0 Si13 3.389906 1_545
Na0 Si14 3.389906 1_554
Na1 Si28 3.208589 1_556
Na1 Si29 3.208589 1_555
Na1 Si23 3.293798 1_555
Na1 Si25 3.293798 1_445
Na1 Si24 3.293804 1_545
Na1 Si20 3.293804 1_455
Na1 Si27 3.293804 1_545
Na1 Si22 3.293804 1_455
Na1 Si2 3.389906 1_555
Na1 Si4 3.389906 1_455
Na1 Si10 3.389906 1_455
Na1 Si18 3.389906 1_545
Na1 Si16 3.389906 1_555
Na1 Si7 3.389906 1_555
Na1 Si1 3.389906 1_455
Na1 Si17 3.389906 1_545
Na1 Si3 3.389906 1_555
Na1 Si33 3.389906 1_545
Na1 Si30 3.389906 1_545
Na1 Si15 3.389906 1_455
Na2 Si29 3.208589 1_555
Na2 Si28 3.208589 1_565
Na2 Si23 3.293798 1_555
Na2 Si25 3.293798 1_454
Na2 Si24 3.293804 1_554
Na2 Si26 3.293804 1_455
Na2 Si21 3.293804 1_554
Na2 Si22 3.293804 1_455
Na2 Si9 3.389906 1_455
Na2 Si2 3.389906 1_555
Na2 Si6 3.389906 1_455
Na2 Si18 3.389906 1_554
Na2 Si31 3.389906 1_555
Na2 Si17 3.389906 1_554
Na2 Si1 3.389906 1_455
Na2 Si5 3.389906 1_555
Na2 Si12 3.389906 1_554
Na2 Si8 3.389906 1_555
Na2 Si0 3.389906 1_455
Na2 Si11 3.389906 1_554
Na3 Si29 3.208589 1_555
Na3 Si28 3.208589 1_555
Na3 Si22 3.293796 1_455
Na3 Si27 3.293796 1_545
Na3 Si21 3.293796 1_554
Na3 Si26 3.293796 1_445
Na3 Si20 3.293796 1_454
Na3 Si24 3.293796 1_544
Na3 Si15 3.389906 1_455
Na3 Si11 3.389906 1_554
Na3 Si7 3.389906 1_554
Na3 Si8 3.389906 1_545
Na3 Si5 3.389906 1_545
Na3 Si3 3.389906 1_554
Na3 Si14 3.389906 1_554
Na3 Si19 3.389906 1_455
Na3 Si32 3.389906 1_455
Na3 Si30 3.389906 1_545
Na3 Si0 3.389906 1_455
Na3 Si13 3.389906 1_545
Si0 Si22 2.382642 1_555
Si0 Si19 2.388804 1_555
Si0 Si9 2.388804 1_555
Si0 Si11 2.404937 1_654
Si1 Si22 2.382650 1_555
Si1 Si6 2.388804 1_555
Si1 Si10 2.388804 1_555
Si1 Si2 2.404937 1_655
Si2 Si23 2.382647 1_555
Si2 Si7 2.388804 1_555
Si2 Si5 2.388804 1_555
Si3 Si7 2.404937 1_555
Si5 Si8 2.404937 1_555
Si6 Si9 2.404937 1_555
Si10 Si20 2.382650 1_555
Si10 Si12 2.388804 1_555
Si10 Si4 2.404937 1_555
Si11 Si21 2.382642 1_555
Si11 Si7 2.388804 1_555
Si11 Si18 2.388804 1_555
Si12 Si21 2.382650 1_555
Si12 Si17 2.388804 1_555
Si12 Si31 2.404937 1_556
Si13 Si27 2.382642 1_555
Si13 Si8 2.388804 1_555
Si13 Si9 2.388804 1_555
Si13 Si14 2.404937 1_564
Si14 Si21 2.382642 1_555
Si14 Si3 2.388804 1_555
Si14 Si4 2.388804 1_555
Si15 Si22 2.382642 1_555
Si15 Si32 2.388804 1_555
Si15 Si4 2.388804 1_555
Si15 Si30 2.404937 1_645
Si16 Si23 2.382647 1_555
Si16 Si3 2.388804 1_555
Si16 Si32 2.388804 1_555
Si16 Si33 2.404937 1_545
Si17 Si24 2.382650 1_555
Si17 Si33 2.388804 1_555
Si17 Si18 2.404937 1_555
Si18 Si25 2.382647 1_455
Si18 Si30 2.388804 1_555
Si19 Si20 2.382642 1_554
Si19 Si31 2.388804 1_555
Si19 Si32 2.404937 1_555
Si20 Si28 2.372594 1_656
Si20 Si7 2.382642 1_655
Si21 Si29 2.372594 1_556
Si22 Si29 2.372594 1_655
Si23 Si29 2.372585 1_555
Si23 Si31 2.382647 1_555
Si24 Si28 2.372594 1_566
Si24 Si3 2.382642 1_565
Si24 Si8 2.382642 1_556
Si25 Si28 2.372585 1_666
Si25 Si9 2.382647 1_556
Si25 Si4 2.382647 1_565
Si26 Si28 2.372594 1_665
Si26 Si5 2.382642 1_655
Si26 Si32 2.382642 1_565
Si26 Si6 2.382650 1_555
Si27 Si29 2.372594 1_565
Si27 Si30 2.382642 1_555
Si27 Si33 2.382650 1_555
Si30 Si5 2.388804 1_555
Si31 Si8 2.388804 1_555
Si33 Si6 2.388804 1_555
