# generated using pymatgen
data_Sn3S7
_symmetry_space_group_name_H-M   'P 1'
_cell_length_a   13.34513319
_cell_length_b   13.34513319
_cell_length_c   16.28757632
_cell_angle_alpha   74.30374562
_cell_angle_beta   74.30374562
_cell_angle_gamma   59.92902425
_symmetry_Int_Tables_number   1
_chemical_formula_structural   Sn3S7
_chemical_formula_sum   'Sn12 S28'
_cell_volume   2384.74102119
_cell_formula_units_Z   4
loop_
 _symmetry_equiv_pos_site_id
 _symmetry_equiv_pos_as_xyz
  1  'x, y, z'
loop_
 _atom_site_type_symbol
 _atom_site_label
 _atom_site_symmetry_multiplicity
 _atom_site_fract_x
 _atom_site_fract_y
 _atom_site_fract_z
 _atom_site_occupancy
  Sn  Sn0  1  0.73462300  0.41401800  0.26118000  1
  Sn  Sn1  1  0.58598200  0.26537700  0.23882000  1
  Sn  Sn2  1  0.26537700  0.58598200  0.73882000  1
  Sn  Sn3  1  0.41401800  0.73462300  0.76118000  1
  Sn  Sn4  1  0.74724600  0.67786000  0.25924500  1
  Sn  Sn5  1  0.32214000  0.25275400  0.24075500  1
  Sn  Sn6  1  0.25275400  0.32214000  0.74075500  1
  Sn  Sn7  1  0.67786000  0.74724600  0.75924500  1
  Sn  Sn8  1  0.01077300  0.40069900  0.26152700  1
  Sn  Sn9  1  0.59930100  0.98922700  0.23847300  1
  Sn  Sn10  1  0.98922700  0.59930100  0.73847300  1
  Sn  Sn11  1  0.40069900  0.01077300  0.76152700  1
  S  S0  1  0.85465500  0.52026100  0.15487100  1
  S  S1  1  0.47973900  0.14534500  0.34512900  1
  S  S2  1  0.14534500  0.47973900  0.84512900  1
  S  S3  1  0.52026100  0.85465500  0.65487100  1
  S  S4  1  0.92906300  0.58169200  0.32182400  1
  S  S5  1  0.41830800  0.07093700  0.17817600  1
  S  S6  1  0.07093700  0.41830800  0.67817600  1
  S  S7  1  0.58169200  0.92906300  0.82182400  1
  S  S8  1  0.60931900  0.59560300  0.32394200  1
  S  S9  1  0.40439700  0.39068100  0.17605800  1
  S  S10  1  0.39068100  0.40439700  0.67605800  1
  S  S11  1  0.59560300  0.60931900  0.82394200  1
  S  S12  1  0.91491800  0.27409900  0.32248100  1
  S  S13  1  0.72590100  0.08508200  0.17751900  1
  S  S14  1  0.08508200  0.72590100  0.67751900  1
  S  S15  1  0.27409900  0.91491800  0.82248100  1
  S  S16  1  0.71117500  0.83810200  0.13541500  1
  S  S17  1  0.16189800  0.28882500  0.36458500  1
  S  S18  1  0.28882500  0.16189800  0.86458500  1
  S  S19  1  0.83810200  0.71117500  0.63541500  1
  S  S20  1  0.69073200  0.38054600  0.13699000  1
  S  S21  1  0.61945400  0.30926800  0.36301000  1
  S  S22  1  0.30926800  0.61945400  0.86301000  1
  S  S23  1  0.38054600  0.69073200  0.63699000  1
  S  S24  1  0.64732100  0.82917300  0.36207900  1
  S  S25  1  0.17082700  0.35267900  0.13792100  1
  S  S26  1  0.35267900  0.17082700  0.63792100  1
  S  S27  1  0.82917300  0.64732100  0.86207900  1
loop_
_geom_bond_atom_site_label_1
_geom_bond_atom_site_label_2
_geom_bond_distance
_geom_bond_site_symmetry_2
S0 Sn4 2.638734 1_555
S0 Sn0 2.649759 1_555
S0 Sn8 2.651678 1_655
S1 Sn5 2.638734 1_555
S1 Sn1 2.649759 1_555
S1 Sn9 2.651678 1_545
S2 Sn6 2.638734 1_555
S2 Sn2 2.649759 1_555
S2 Sn10 2.651678 1_455
S3 Sn7 2.638734 1_555
S3 Sn3 2.649759 1_555
S3 Sn11 2.651678 1_565
S4 Sn8 2.460120 1_655
S4 Sn4 2.466366 1_555
S5 Sn9 2.460120 1_545
S5 Sn5 2.466366 1_555
S6 Sn10 2.460120 1_455
S6 Sn6 2.466366 1_555
S7 Sn11 2.460120 1_565
S7 Sn7 2.466366 1_555
S8 Sn4 2.460274 1_555
S8 Sn0 2.463337 1_555
S9 Sn5 2.460274 1_555
S9 Sn1 2.463337 1_555
S10 Sn6 2.460274 1_555
S10 Sn2 2.463337 1_555
S11 Sn7 2.460274 1_555
S11 Sn3 2.463337 1_555
S12 Sn8 2.459166 1_655
S12 Sn0 2.461984 1_555
S13 Sn9 2.459166 1_545
S13 Sn1 2.461984 1_555
S14 Sn10 2.459166 1_455
S14 Sn2 2.461984 1_555
S15 Sn11 2.459166 1_565
S15 Sn3 2.461984 1_555
S16 Sn4 2.456133 1_555
S16 Sn9 2.563639 1_555
S17 Sn5 2.456133 1_555
S17 Sn8 2.563639 1_555
S18 Sn6 2.456133 1_555
S18 Sn11 2.563639 1_555
S19 Sn7 2.456133 1_555
S19 Sn10 2.563639 1_555
S20 Sn0 2.454850 1_555
S20 Sn1 2.566422 1_555
S21 Sn1 2.454850 1_555
S21 Sn0 2.566422 1_555
S22 Sn2 2.454850 1_555
S22 Sn3 2.566422 1_555
S23 Sn3 2.454850 1_555
S23 Sn2 2.566422 1_555
S24 Sn9 2.454729 1_555
S24 Sn4 2.565951 1_555
S25 Sn8 2.454729 1_555
S25 Sn5 2.565951 1_555
S26 Sn11 2.454729 1_555
S26 Sn6 2.565951 1_555
S27 Sn10 2.454729 1_555
S27 Sn7 2.565951 1_555
