# generated using pymatgen
data_Li2V5O10
_symmetry_space_group_name_H-M   'P 1'
_cell_length_a   5.13870005
_cell_length_b   7.76989142
_cell_length_c   10.36798054
_cell_angle_alpha   103.86539027
_cell_angle_beta   103.66744104
_cell_angle_gamma   77.59224890
_symmetry_Int_Tables_number   1
_chemical_formula_structural   Li2V5O10
_chemical_formula_sum   'Li4 V10 O20'
_cell_volume   384.98771125
_cell_formula_units_Z   2
loop_
 _symmetry_equiv_pos_site_id
 _symmetry_equiv_pos_as_xyz
  1  'x, y, z'
loop_
 _atom_site_type_symbol
 _atom_site_label
 _atom_site_symmetry_multiplicity
 _atom_site_fract_x
 _atom_site_fract_y
 _atom_site_fract_z
 _atom_site_occupancy
  Li  Li0  1  0.54453200  0.39831800  0.10720700  1
  Li  Li1  1  0.54450200  0.39829100  0.60717400  1
  Li  Li2  1  0.45655100  0.59945500  0.39635100  1
  Li  Li3  1  0.45668200  0.59933800  0.89627700  1
  V  V0  1  0.49827200  0.00388600  0.00125400  1
  V  V1  1  0.01646200  0.68582500  0.56849200  1
  V  V2  1  0.98676200  0.31485600  0.43562200  1
  V  V3  1  0.95629400  0.89344100  0.34582700  1
  V  V4  1  0.04049200  0.10372500  0.65267300  1
  V  V5  1  0.49804900  0.00404000  0.50120400  1
  V  V6  1  0.01657200  0.68580300  0.06851700  1
  V  V7  1  0.98677600  0.31486600  0.93562700  1
  V  V8  1  0.95640600  0.89347400  0.84580700  1
  V  V9  1  0.04060800  0.10370400  0.15267800  1
  O  O0  1  0.21579100  0.86509600  0.02453700  1
  O  O1  1  0.21560000  0.86509200  0.52453700  1
  O  O2  1  0.78163200  0.13022000  0.46750700  1
  O  O3  1  0.78162500  0.13021800  0.96753000  1
  O  O4  1  0.77948900  0.51153200  0.03301900  1
  O  O5  1  0.77942900  0.51152500  0.53298900  1
  O  O6  1  0.21980800  0.49596400  0.46932400  1
  O  O7  1  0.21989600  0.49595100  0.96931700  1
  O  O8  1  0.78572100  0.93268000  0.16091400  1
  O  O9  1  0.78556900  0.93273700  0.66092100  1
  O  O10  1  0.20719000  0.05403200  0.34011100  1
  O  O11  1  0.20713800  0.05408400  0.84011300  1
  O  O12  1  0.27231500  0.22295800  0.09085200  1
  O  O13  1  0.27229000  0.22296300  0.59088100  1
  O  O14  1  0.73394000  0.78294400  0.39990400  1
  O  O15  1  0.73412700  0.78295500  0.89991600  1
  O  O16  1  0.17062800  0.68958500  0.24370100  1
  O  O17  1  0.17065100  0.68959200  0.74367800  1
  O  O18  1  0.83412100  0.31541100  0.26275200  1
  O  O19  1  0.83408300  0.31543900  0.76278600  1
loop_
_geom_bond_atom_site_label_1
_geom_bond_atom_site_label_2
_geom_bond_distance
_geom_bond_site_symmetry_2
Li0 O4 2.010663 1_555
Li0 O18 2.045007 1_555
Li0 O7 2.061836 1_554
Li0 O12 2.106709 1_555
Li0 O3 2.493633 1_554
Li1 O5 2.010625 1_555
Li1 O19 2.045320 1_555
Li1 O6 2.061872 1_555
Li1 O13 2.106646 1_555
Li1 O2 2.493533 1_555
Li2 O6 1.961110 1_555
Li2 O5 2.023001 1_555
Li2 O16 2.035723 1_555
Li2 O14 2.211129 1_555
Li2 O1 2.433947 1_555
Li3 O7 1.961211 1_555
Li3 O4 2.023106 1_556
Li3 O17 2.035978 1_555
Li3 O15 2.211870 1_555
Li3 O0 2.434734 1_556
O0 V8 2.039953 1_454
O0 V0 2.071554 1_565
O0 V6 2.081956 1_555
O0 V9 2.163350 1_565
O1 V3 2.039581 1_455
O1 V5 2.072485 1_565
O1 V1 2.081375 1_555
O1 V4 2.163299 1_565
O2 V5 2.055613 1_555
O2 V2 2.078540 1_555
O2 V4 2.088628 1_655
O2 V3 2.120120 1_545
O3 V0 2.055525 1_556
O3 V7 2.078776 1_555
O3 V9 2.088759 1_656
O3 V8 2.120396 1_545
O4 V7 1.886407 1_554
O4 V6 1.926492 1_655
O5 V2 1.886419 1_555
O5 V1 1.926474 1_655
O6 V1 1.855685 1_555
O6 V2 1.956318 1_455
O7 V6 1.855753 1_556
O7 V7 1.956467 1_455
O8 V3 1.976861 1_555
O8 V0 2.039707 1_565
O8 V9 2.084187 1_665
O8 V6 2.164005 1_655
O9 V8 1.976909 1_555
O9 V5 2.040531 1_565
O9 V4 2.084154 1_665
O9 V1 2.164404 1_655
O10 V3 1.996390 1_445
O10 V5 2.013992 1_555
O10 V9 2.022253 1_555
O10 V2 2.225402 1_455
O11 V8 1.995765 1_445
O11 V0 2.015425 1_556
O11 V4 2.022291 1_555
O11 V7 2.225044 1_455
O12 V9 1.951060 1_555
O12 V0 2.002764 1_555
O12 V7 2.058543 1_454
O13 V4 1.951137 1_555
O13 V5 2.001863 1_555
O13 V2 2.058718 1_455
O14 V3 1.819899 1_555
O14 V5 2.089405 1_565
O14 V1 2.166685 1_655
O15 V8 1.819895 1_555
O15 V0 2.088743 1_566
O15 V6 2.166726 1_656
O16 V6 1.797623 1_555
O16 V3 1.959766 1_455
O17 V1 1.797797 1_555
O17 V8 1.959657 1_455
O18 V2 1.779195 1_555
O18 V9 2.014100 1_655
O19 V7 1.778999 1_555
O19 V4 2.014137 1_655
