# generated using pymatgen
data_SrMg14W
_symmetry_space_group_name_H-M   'P 1'
_cell_length_a   6.46564311
_cell_length_b   6.46564257
_cell_length_c   10.31186921
_cell_angle_alpha   90.00000000
_cell_angle_beta   90.00000000
_cell_angle_gamma   120.00000273
_symmetry_Int_Tables_number   1
_chemical_formula_structural   SrMg14W
_chemical_formula_sum   'Sr1 Mg14 W1'
_cell_volume   373.32875056
_cell_formula_units_Z   1
loop_
 _symmetry_equiv_pos_site_id
 _symmetry_equiv_pos_as_xyz
  1  'x, y, z'
loop_
 _atom_site_type_symbol
 _atom_site_label
 _atom_site_symmetry_multiplicity
 _atom_site_fract_x
 _atom_site_fract_y
 _atom_site_fract_z
 _atom_site_occupancy
  Sr  Sr0  1  0.16666700  0.33333300  0.12500000  1
  Mg  Mg0  1  0.17858693  0.83929297  0.12500000  1
  Mg  Mg1  1  0.16060413  0.83030156  0.62500000  1
  Mg  Mg2  1  0.66070703  0.32141307  0.12500000  1
  Mg  Mg3  1  0.66969844  0.33939587  0.62500000  1
  Mg  Mg4  1  0.66070703  0.83929297  0.12500000  1
  Mg  Mg5  1  0.66969844  0.83030156  0.62500000  1
  Mg  Mg6  1  0.33093340  0.16906660  0.39818552  1
  Mg  Mg7  1  0.33093340  0.16906660  0.85181448  1
  Mg  Mg8  1  0.33093340  0.66186781  0.39818552  1
  Mg  Mg9  1  0.33093340  0.66186781  0.85181448  1
  Mg  Mg10  1  0.83813219  0.16906660  0.39818552  1
  Mg  Mg11  1  0.83813219  0.16906660  0.85181448  1
  Mg  Mg12  1  0.83333300  0.66666700  0.36707645  1
  Mg  Mg13  1  0.83333300  0.66666700  0.88292355  1
  W  W0  1  0.16666700  0.33333300  0.62500000  1
loop_
_geom_bond_atom_site_label_1
_geom_bond_atom_site_label_2
_geom_bond_distance
_geom_bond_site_symmetry_2
Mg0 Mg2 3.117216 1_565
Mg0 Mg4 3.117217 1_555
Mg0 Mg13 3.157317 1_454
Mg0 Mg12 3.157317 1_455
Mg0 Sr0 3.233510 1_565
Mg0 Sr0 3.233510 1_555
Mg0 Mg2 3.348426 1_455
Mg0 Mg4 3.348427 1_455
Mg0 Mg9 3.369277 1_554
Mg0 Mg8 3.369277 1_555
Mg0 Mg7 3.369283 1_564
Mg0 Mg6 3.369283 1_565
Mg1 Mg8 3.011400 1_555
Mg1 Mg9 3.011400 1_555
Mg1 Mg7 3.011407 1_565
Mg1 Mg6 3.011407 1_565
Mg1 Mg3 3.174021 1_455
Mg1 Mg5 3.174021 1_455
Mg1 Mg12 3.229863 1_455
Mg1 Mg13 3.229863 1_455
Mg1 W0 3.232999 1_555
Mg1 W0 3.233000 1_565
Mg1 Mg3 3.291622 1_565
Mg1 Mg5 3.291622 1_555
Mg2 Mg4 3.117216 1_545
Mg2 Sr0 3.233510 1_555
Mg2 Sr0 3.233511 1_655
Mg2 Mg4 3.348426 1_555
Mg2 Mg7 3.369283 1_554
Mg2 Mg6 3.369283 1_555
Mg3 Mg6 3.011407 1_555
Mg3 Mg7 3.011407 1_555
Mg3 Mg5 3.174021 1_555
Mg3 W0 3.233000 1_655
Mg3 W0 3.233000 1_555
Mg3 Mg5 3.291622 1_545
Mg4 Sr0 3.233510 1_555
Mg4 Sr0 3.233510 1_665
Mg4 Mg9 3.369283 1_554
Mg4 Mg8 3.369283 1_555
Mg5 Mg8 3.011407 1_555
Mg5 Mg9 3.011407 1_555
Mg5 W0 3.233000 1_665
Mg5 W0 3.233000 1_555
Mg6 W0 2.975644 1_555
Mg6 Mg8 3.186276 1_555
Mg6 Mg8 3.279366 1_545
Mg6 Sr0 3.364503 1_555
Mg7 W0 2.975644 1_555
Mg7 Mg9 3.186276 1_555
Mg7 Mg9 3.279366 1_545
Mg7 Sr0 3.364503 1_556
Mg8 W0 2.975651 1_555
Mg8 Sr0 3.364509 1_555
Mg9 W0 2.975651 1_555
Mg9 Sr0 3.364509 1_556
Mg10 W0 2.975651 1_655
Mg10 Mg3 3.011400 1_555
Mg10 Mg5 3.011407 1_545
Mg10 Mg8 3.186276 1_655
Mg10 Mg6 3.186277 1_655
Mg10 Mg12 3.248810 1_555
Mg10 Mg12 3.248810 1_545
Mg10 Mg8 3.279366 1_545
Mg10 Mg6 3.279366 1_555
Mg10 Sr0 3.364509 1_655
Mg10 Mg2 3.369277 1_555
Mg10 Mg4 3.369282 1_545
Mg11 W0 2.975651 1_655
Mg11 Mg3 3.011400 1_555
Mg11 Mg5 3.011407 1_545
Mg11 Mg9 3.186276 1_655
Mg11 Mg7 3.186277 1_655
Mg11 Mg13 3.248810 1_555
Mg11 Mg13 3.248810 1_545
Mg11 Mg9 3.279366 1_545
Mg11 Mg7 3.279366 1_555
Mg11 Sr0 3.364509 1_656
Mg11 Mg2 3.369277 1_556
Mg11 Mg4 3.369282 1_546
Mg12 Mg4 3.157310 1_555
Mg12 Mg2 3.157317 1_555
Mg12 Mg5 3.229857 1_555
Mg12 Mg3 3.229863 1_555
Mg12 Mg6 3.248810 1_665
Mg12 Mg6 3.248810 1_555
Mg12 Mg8 3.248810 1_655
Mg12 Mg8 3.248810 1_555
Mg13 Mg4 3.157310 1_556
Mg13 Mg2 3.157317 1_556
Mg13 Mg5 3.229857 1_555
Mg13 Mg3 3.229863 1_555
Mg13 Mg7 3.248810 1_665
Mg13 Mg7 3.248810 1_555
Mg13 Mg9 3.248810 1_655
Mg13 Mg9 3.248810 1_555
