# generated using pymatgen
data_CeMg5
_symmetry_space_group_name_H-M   'P 1'
_cell_length_a   6.36620822
_cell_length_b   6.36620822
_cell_length_c   6.36620770
_cell_angle_alpha   52.37343934
_cell_angle_beta   52.37343934
_cell_angle_gamma   52.37343685
_symmetry_Int_Tables_number   1
_chemical_formula_structural   CeMg5
_chemical_formula_sum   'Ce1 Mg5'
_cell_volume   149.76586129
_cell_formula_units_Z   1
loop_
 _symmetry_equiv_pos_site_id
 _symmetry_equiv_pos_as_xyz
  1  'x, y, z'
loop_
 _atom_site_type_symbol
 _atom_site_label
 _atom_site_symmetry_multiplicity
 _atom_site_fract_x
 _atom_site_fract_y
 _atom_site_fract_z
 _atom_site_occupancy
  Ce  Ce0  1  0.50000000  0.50000000  0.50000000  1
  Mg  Mg0  1  0.00000000  0.66858000  0.33142000  1
  Mg  Mg1  1  0.16663700  0.16663700  0.16663700  1
  Mg  Mg2  1  0.33142000  0.00000000  0.66858000  1
  Mg  Mg3  1  0.66858000  0.33142000  0.00000000  1
  Mg  Mg4  1  0.83336300  0.83336300  0.83336300  1
loop_
_geom_bond_atom_site_label_1
_geom_bond_atom_site_label_2
_geom_bond_distance
_geom_bond_site_symmetry_2
Ce0 Mg4 3.244009 1_455
Ce0 Mg1 3.244009 1_565
Ce0 Mg4 3.244009 1_545
Ce0 Mg1 3.244009 1_655
Ce0 Mg1 3.244009 1_556
Ce0 Mg4 3.244009 1_554
Ce0 Mg3 3.321049 1_555
Ce0 Mg3 3.321049 1_556
Ce0 Mg0 3.321049 1_555
Ce0 Mg2 3.321049 1_565
Ce0 Mg2 3.321049 1_555
Ce0 Mg0 3.321049 1_655
Mg0 Mg3 3.225388 1_465
Mg0 Mg2 3.225388 1_564
Mg0 Mg3 3.253359 1_555
Mg0 Mg2 3.253359 1_465
Mg0 Mg2 3.253359 1_555
Mg0 Mg3 3.253359 1_456
Mg0 Mg4 3.311539 1_454
Mg0 Mg1 3.311539 1_565
Mg0 Mg4 3.321451 1_455
Mg0 Mg1 3.321451 1_555
Mg1 Mg4 3.244009 1_454
Mg1 Mg4 3.244009 1_544
Mg1 Mg4 3.244009 1_445
Mg1 Mg2 3.311539 1_554
Mg1 Mg3 3.311539 1_455
Mg1 Mg2 3.321451 1_555
Mg1 Mg3 3.321451 1_555
Mg2 Mg3 3.225388 1_456
Mg2 Mg3 3.253359 1_546
Mg2 Mg3 3.253359 1_555
Mg2 Mg4 3.311539 1_445
Mg2 Mg4 3.321451 1_545
Mg3 Mg4 3.311539 1_544
Mg3 Mg4 3.321451 1_554
