# generated using pymatgen
data_Ba2V3O8
_symmetry_space_group_name_H-M   'P 1'
_cell_length_a   3.88295200
_cell_length_b   3.88295200
_cell_length_c   12.16584900
_cell_angle_alpha   90.00000000
_cell_angle_beta   90.00000000
_cell_angle_gamma   90.00000000
_symmetry_Int_Tables_number   1
_chemical_formula_structural   Ba2V3O8
_chemical_formula_sum   'Ba2 V3 O8'
_cell_volume   183.42835263
_cell_formula_units_Z   1
loop_
 _symmetry_equiv_pos_site_id
 _symmetry_equiv_pos_as_xyz
  1  'x, y, z'
loop_
 _atom_site_type_symbol
 _atom_site_label
 _atom_site_symmetry_multiplicity
 _atom_site_fract_x
 _atom_site_fract_y
 _atom_site_fract_z
 _atom_site_occupancy
  Ba  Ba0  1  0.00000000  0.00000000  0.17653800  1
  Ba  Ba1  1  0.00000000  0.00000000  0.82346200  1
  V  V0  1  0.50000000  0.50000000  0.33382200  1
  V  V1  1  0.50000000  0.50000000  0.00000000  1
  V  V2  1  0.50000000  0.50000000  0.66617800  1
  O  O0  1  0.50000000  0.00000000  0.34528200  1
  O  O1  1  0.00000000  0.50000000  0.34528200  1
  O  O2  1  0.00000000  0.50000000  0.00000000  1
  O  O3  1  0.50000000  0.50000000  0.17643700  1
  O  O4  1  0.50000000  0.00000000  0.65471800  1
  O  O5  1  0.00000000  0.50000000  0.65471800  1
  O  O6  1  0.50000000  0.50000000  0.82356300  1
  O  O7  1  0.50000000  0.00000000  0.00000000  1
loop_
_geom_bond_atom_site_label_1
_geom_bond_atom_site_label_2
_geom_bond_distance
_geom_bond_site_symmetry_2
Ba0 O3 2.745662 1_555
Ba0 O3 2.745662 1_455
Ba0 O3 2.745662 1_445
Ba0 O3 2.745662 1_545
Ba0 O0 2.825559 1_555
Ba0 O1 2.825559 1_555
Ba0 O0 2.825559 1_455
Ba0 O1 2.825559 1_545
Ba0 O7 2.895184 1_555
Ba0 O2 2.895184 1_555
Ba0 O7 2.895184 1_455
Ba0 O2 2.895184 1_545
Ba1 O6 2.745662 1_555
Ba1 O6 2.745662 1_445
Ba1 O6 2.745662 1_545
Ba1 O6 2.745662 1_455
Ba1 O5 2.825559 1_555
Ba1 O5 2.825559 1_545
Ba1 O4 2.825559 1_555
Ba1 O4 2.825559 1_455
Ba1 O2 2.895184 1_546
Ba1 O7 2.895184 1_456
Ba1 O7 2.895184 1_556
Ba1 O2 2.895184 1_556
O0 V0 1.946476 1_555
O0 V0 1.946476 1_545
O1 V0 1.946476 1_455
O1 V0 1.946476 1_555
O2 V1 1.941476 1_455
O2 V1 1.941476 1_555
O3 V0 1.914722 1_555
O3 V1 2.146506 1_555
O4 V2 1.946476 1_545
O4 V2 1.946476 1_555
O5 V2 1.946476 1_455
O5 V2 1.946476 1_555
O6 V2 1.914722 1_555
O6 V1 2.146506 1_556
O7 V1 1.941476 1_545
O7 V1 1.941476 1_555
