# generated using pymatgen
data_BaMg6ZnO8
_symmetry_space_group_name_H-M   'P 1'
_cell_length_a   8.73730941
_cell_length_b   4.70635121
_cell_length_c   4.70635121
_cell_angle_alpha   90.00000000
_cell_angle_beta   90.00000000
_cell_angle_gamma   90.00000000
_symmetry_Int_Tables_number   1
_chemical_formula_structural   BaMg6ZnO8
_chemical_formula_sum   'Ba1 Mg6 Zn1 O8'
_cell_volume   193.52914669
_cell_formula_units_Z   1
loop_
 _symmetry_equiv_pos_site_id
 _symmetry_equiv_pos_as_xyz
  1  'x, y, z'
loop_
 _atom_site_type_symbol
 _atom_site_label
 _atom_site_symmetry_multiplicity
 _atom_site_fract_x
 _atom_site_fract_y
 _atom_site_fract_z
 _atom_site_occupancy
  Ba  Ba0  1  0.50000000  0.00000000  0.00000000  1
  Mg  Mg0  1  0.00000000  0.50000000  0.50000000  1
  Mg  Mg1  1  0.50000000  0.50000000  0.50000000  1
  Mg  Mg2  1  0.23340203  -0.00000000  0.50000000  1
  Mg  Mg3  1  0.76659797  0.00000000  0.50000000  1
  Mg  Mg4  1  0.23340203  0.50000000  -0.00000000  1
  Mg  Mg5  1  0.76659797  0.50000000  0.00000000  1
  Zn  Zn0  1  0.00000000  0.00000000  0.00000000  1
  O  O0  1  0.21752928  0.00000000  0.00000000  1
  O  O1  1  0.78247072  -0.00000000  -0.00000000  1
  O  O2  1  0.24801658  0.50000000  0.50000000  1
  O  O3  1  0.75198342  0.50000000  0.50000000  1
  O  O4  1  0.00000000  0.00000000  0.50000000  1
  O  O5  1  0.50000000  0.00000000  0.50000000  1
  O  O6  1  0.00000000  0.50000000  0.00000000  1
  O  O7  1  0.50000000  0.50000000  0.00000000  1
loop_
_geom_bond_atom_site_label_1
_geom_bond_atom_site_label_2
_geom_bond_distance
_geom_bond_site_symmetry_2
Ba0 O5 2.353176 1_554
Ba0 O5 2.353176 1_555
Ba0 O7 2.353176 1_545
Ba0 O7 2.353176 1_555
Ba0 O1 2.468034 1_555
Ba0 O0 2.468034 1_555
Mg0 O2 2.166998 1_555
Mg0 O3 2.166998 1_455
Mg0 O6 2.353176 1_556
Mg0 O6 2.353176 1_555
Mg0 O4 2.353176 1_555
Mg0 O4 2.353176 1_565
Mg1 O3 2.201657 1_555
Mg1 O2 2.201657 1_555
Mg1 O5 2.353176 1_555
Mg1 O5 2.353176 1_565
Mg1 O7 2.353176 1_555
Mg1 O7 2.353176 1_556
Mg2 O4 2.039306 1_555
Mg2 O5 2.329349 1_555
Mg2 O2 2.356638 1_555
Mg2 O2 2.356638 1_545
Mg2 O0 2.357259 1_555
Mg2 O0 2.357259 1_556
Mg3 O4 2.039306 1_655
Mg3 O5 2.329349 1_555
Mg3 O3 2.356638 1_555
Mg3 O3 2.356638 1_545
Mg3 O1 2.357259 1_555
Mg3 O1 2.357259 1_556
Mg4 O6 2.039306 1_555
Mg4 O7 2.329349 1_555
Mg4 O2 2.356638 1_555
Mg4 O2 2.356638 1_554
Mg4 O0 2.357259 1_555
Mg4 O0 2.357259 1_565
Mg5 O6 2.039306 1_655
Mg5 O7 2.329349 1_555
Mg5 O3 2.356638 1_555
Mg5 O3 2.356638 1_554
Mg5 O1 2.357259 1_555
Mg5 O1 2.357259 1_565
O0 Zn0 1.900621 1_555
O1 Zn0 1.900621 1_655
O4 Zn0 2.353176 1_556
O4 Zn0 2.353176 1_555
O6 Zn0 2.353176 1_555
O6 Zn0 2.353176 1_565
