# generated using pymatgen
data_Li6MnV3(PO4)6
_symmetry_space_group_name_H-M   'P 1'
_cell_length_a   8.70498300
_cell_length_b   8.69679300
_cell_length_c   15.02092937
_cell_angle_alpha   55.55830724
_cell_angle_beta   90.00000000
_cell_angle_gamma   90.00000000
_symmetry_Int_Tables_number   1
_chemical_formula_structural   Li6MnV3(PO4)6
_chemical_formula_sum   'Li12 Mn2 V6 P12 O48'
_cell_volume   937.82326047
_cell_formula_units_Z   2
loop_
 _symmetry_equiv_pos_site_id
 _symmetry_equiv_pos_as_xyz
  1  'x, y, z'
loop_
 _atom_site_type_symbol
 _atom_site_label
 _atom_site_symmetry_multiplicity
 _atom_site_fract_x
 _atom_site_fract_y
 _atom_site_fract_z
 _atom_site_occupancy
  Li  Li0  1  0.34201500  0.61576300  0.30287000  1
  Li  Li1  1  0.95486200  0.67542500  0.24313500  1
  Li  Li2  1  0.02535700  0.96852000  0.82199000  1
  Li  Li3  1  0.52442800  0.03256300  0.67770800  1
  Li  Li4  1  0.45146500  0.32556400  0.25756800  1
  Li  Li5  1  0.84553800  0.38164600  0.19759100  1
  Li  Li6  1  0.65798500  0.61576300  0.80287000  1
  Li  Li7  1  0.04513800  0.67542500  0.74313500  1
  Li  Li8  1  0.97464300  0.96852000  0.32199000  1
  Li  Li9  1  0.47557200  0.03256300  0.17770800  1
  Li  Li10  1  0.54853500  0.32556400  0.75756800  1
  Li  Li11  1  0.15446200  0.38164600  0.69759100  1
  Mn  Mn0  1  0.28528400  0.64158900  0.10500500  1
  Mn  Mn1  1  0.71471600  0.64158900  0.60500500  1
  V  V0  1  0.78183700  0.36154100  0.39070700  1
  V  V1  1  0.70900600  0.86543600  0.88835600  1
  V  V2  1  0.20723400  0.13567500  0.61128400  1
  V  V3  1  0.29099400  0.86543600  0.38835600  1
  V  V4  1  0.21816300  0.36154100  0.89070700  1
  V  V5  1  0.79276600  0.13567500  0.11128400  1
  P  P0  1  0.49810300  0.45578400  0.50596300  1
  P  P1  1  0.63751000  0.74751100  0.14625800  1
  P  P2  1  0.34873300  0.04835300  0.84754700  1
  P  P3  1  0.13871300  0.24934700  0.35660000  1
  P  P4  1  0.84720100  0.95433600  0.64844500  1
  P  P5  1  0.00038600  0.54701800  0.99411700  1
  P  P6  1  0.50189700  0.45578400  0.00596300  1
  P  P7  1  0.65126700  0.04835300  0.34754700  1
  P  P8  1  0.36249000  0.74751100  0.64625800  1
  P  P9  1  0.15279900  0.95433600  0.14844500  1
  P  P10  1  0.86128700  0.24934700  0.85660000  1
  P  P11  1  0.99961400  0.54701800  0.49411700  1
  O  O0  1  0.11384400  0.38628200  0.56595000  1
  O  O1  1  0.92325000  0.52963700  0.40700300  1
  O  O2  1  0.84416200  0.09558900  0.83485100  1
  O  O3  1  0.14487700  0.77193900  0.15084600  1
  O  O4  1  0.60983900  0.45980300  0.42561600  1
  O  O5  1  0.66449400  0.82198800  0.02802800  1
  O  O6  1  0.46907100  0.67027000  0.17974400  1
  O  O7  1  0.22616600  0.09381100  0.75876300  1
  O  O8  1  0.51205700  0.03308300  0.81093900  1
  O  O9  1  0.41598600  0.26444900  0.56960400  1
  O  O10  1  0.29701000  0.87639900  0.95272700  1
  O  O11  1  0.75678700  0.58939100  0.21766300  1
  O  O12  1  0.26014500  0.40412800  0.29142800  1
  O  O13  1  0.79841400  0.12735600  0.54190000  1
  O  O14  1  0.91911200  0.73850200  0.93137400  1
  O  O15  1  0.01026000  0.96775000  0.68682100  1
  O  O16  1  0.97152100  0.32856000  0.32045700  1
  O  O17  1  0.72600000  0.91093500  0.73732000  1
  O  O18  1  0.15882500  0.16759500  0.47676000  1
  O  O19  1  0.11267500  0.53494600  0.07772200  1
  O  O20  1  0.64388300  0.22988900  0.34520700  1
  O  O21  1  0.34563600  0.90330700  0.66601100  1
  O  O22  1  0.42446300  0.47127900  0.09413100  1
  O  O23  1  0.61503700  0.61704300  0.93399100  1
  O  O24  1  0.88615600  0.38628200  0.06595000  1
  O  O25  1  0.07675000  0.52963700  0.90700300  1
  O  O26  1  0.15583800  0.09558900  0.33485100  1
  O  O27  1  0.85512300  0.77193900  0.65084600  1
  O  O28  1  0.39016100  0.45980300  0.92561600  1
  O  O29  1  0.33550600  0.82198800  0.52802800  1
  O  O30  1  0.77383400  0.09381100  0.25876300  1
  O  O31  1  0.53092900  0.67027000  0.67974400  1
  O  O32  1  0.48794300  0.03308300  0.31093900  1
  O  O33  1  0.58401400  0.26444900  0.06960400  1
  O  O34  1  0.70299000  0.87639900  0.45272700  1
  O  O35  1  0.24321300  0.58939100  0.71766300  1
  O  O36  1  0.73985500  0.40412800  0.79142800  1
  O  O37  1  0.20158600  0.12735600  0.04190000  1
  O  O38  1  0.08088800  0.73850200  0.43137400  1
  O  O39  1  0.98974000  0.96775000  0.18682100  1
  O  O40  1  0.27400000  0.91093500  0.23732000  1
  O  O41  1  0.02847900  0.32856000  0.82045700  1
  O  O42  1  0.84117500  0.16759500  0.97676000  1
  O  O43  1  0.88732500  0.53494600  0.57772200  1
  O  O44  1  0.35611700  0.22988900  0.84520700  1
  O  O45  1  0.65436400  0.90330700  0.16601100  1
  O  O46  1  0.57553700  0.47127900  0.59413100  1
  O  O47  1  0.38496300  0.61704300  0.43399100  1
loop_
_geom_bond_atom_site_label_1
_geom_bond_atom_site_label_2
_geom_bond_distance
_geom_bond_site_symmetry_2
Li0 O6 1.968969 1_555
Li0 O47 2.010935 1_555
Li0 O12 2.069510 1_555
Li0 O40 2.247386 1_555
Li0 O3 2.548724 1_555
Li1 O11 2.000762 1_555
Li1 O3 2.011485 1_655
Li1 O1 2.052293 1_555
Li1 O39 2.199647 1_555
Li1 O16 2.550854 1_555
Li2 O14 1.959300 1_455
Li2 O7 1.993580 1_565
Li2 O2 1.996974 1_465
Li2 O15 2.038400 1_555
Li3 O9 1.972489 1_555
Li3 O17 1.981973 1_545
Li3 O21 1.985001 1_545
Li3 O8 2.006706 1_555
Li4 O12 1.972887 1_555
Li4 O20 1.997978 1_555
Li4 O22 2.041823 1_555
Li4 O32 2.215188 1_555
Li4 O6 2.532402 1_555
Li5 O16 1.964220 1_555
Li5 O24 1.986569 1_555
Li5 O11 2.137324 1_555
Li5 O30 2.213226 1_555
Li5 O20 2.535680 1_555
Li6 O31 1.968969 1_555
Li6 O23 2.010935 1_555
Li6 O36 2.069510 1_555
Li6 O17 2.247386 1_555
Li6 O27 2.548724 1_555
Li7 O35 2.000762 1_555
Li7 O27 2.011485 1_455
Li7 O25 2.052293 1_555
Li7 O15 2.199647 1_555
Li7 O41 2.550854 1_555
Li8 O38 1.959300 1_655
Li8 O30 1.993580 1_565
Li8 O26 1.996974 1_665
Li8 O39 2.038400 1_555
Li9 O33 1.972489 1_555
Li9 O40 1.981973 1_545
Li9 O45 1.985001 1_545
Li9 O32 2.006706 1_555
Li10 O36 1.972887 1_555
Li10 O44 1.997978 1_555
Li10 O46 2.041823 1_555
Li10 O8 2.215188 1_555
Li10 O31 2.532402 1_555
Li11 O41 1.964220 1_555
Li11 O0 1.986569 1_555
Li11 O35 2.137324 1_555
Li11 O7 2.213226 1_555
Li11 O44 2.535680 1_555
Mn0 O19 1.927622 1_555
Mn0 O22 1.990476 1_555
Mn0 O10 2.032004 1_554
Mn0 O3 2.033732 1_555
Mn0 O6 2.049113 1_555
Mn0 O12 2.369144 1_555
Mn1 O43 1.927622 1_555
Mn1 O46 1.990476 1_555
Mn1 O34 2.032004 1_555
Mn1 O27 2.033732 1_555
Mn1 O31 2.049113 1_555
Mn1 O36 2.369144 1_555
O0 P11 1.549512 1_455
O0 V2 2.048407 1_555
O1 P11 1.549429 1_555
O1 V0 2.029084 1_555
O2 P10 1.552802 1_555
O2 V1 2.053510 1_545
O3 P9 1.567672 1_555
O4 P0 1.534975 1_555
O4 V0 1.937481 1_555
O5 P1 1.525610 1_555
O5 V1 1.948802 1_554
O6 P1 1.572250 1_555
O7 P2 1.573795 1_555
O7 V2 2.038342 1_555
O8 P2 1.556899 1_555
O8 V1 2.121207 1_545
O9 P0 1.547391 1_555
O9 V2 2.038442 1_555
O10 P2 1.504224 1_565
O11 P1 1.565611 1_555
O11 V0 2.214575 1_555
O12 P3 1.548269 1_555
O13 P4 1.510591 1_545
O13 V0 2.023510 1_555
O14 P5 1.544894 1_655
O14 V1 2.043145 1_555
O15 P4 1.561003 1_455
O15 V2 2.117997 1_565
O16 P3 1.569864 1_655
O16 V0 2.065083 1_555
O17 P4 1.570931 1_555
O17 V1 2.076061 1_555
O18 P3 1.530465 1_555
O18 V2 1.924388 1_555
O19 P5 1.547397 1_554
O20 P7 1.560496 1_555
O20 V0 2.026150 1_555
O21 P8 1.549232 1_555
O21 V2 2.081357 1_565
O22 P6 1.558311 1_555
O23 P6 1.546154 1_556
O23 V1 2.032386 1_555
O24 P5 1.549512 1_654
O24 V5 2.048407 1_555
O25 P5 1.549429 1_555
O25 V4 2.029084 1_555
O26 P3 1.552802 1_555
O26 V3 2.053510 1_545
O27 P4 1.567672 1_555
O28 P6 1.534975 1_556
O28 V4 1.937481 1_555
O29 P8 1.525610 1_555
O29 V3 1.948802 1_555
O30 P7 1.573795 1_555
O30 V5 2.038342 1_555
O31 P8 1.572250 1_555
O32 P7 1.556899 1_555
O32 V3 2.121207 1_545
O33 P6 1.547391 1_555
O33 V5 2.038442 1_555
O34 P7 1.504224 1_565
O35 P8 1.565611 1_555
O35 V4 2.214575 1_555
O36 P10 1.548269 1_555
O37 P9 1.510591 1_545
O37 V4 2.023510 1_554
O38 P11 1.544894 1_455
O38 V3 2.043145 1_555
O39 P9 1.561003 1_655
O39 V5 2.117997 1_565
O40 P9 1.570931 1_555
O40 V3 2.076061 1_555
O41 P10 1.569864 1_455
O41 V4 2.065083 1_555
O42 P10 1.530465 1_555
O42 V5 1.924388 1_556
O43 P11 1.547397 1_555
O44 P2 1.560496 1_555
O44 V4 2.026150 1_555
O45 P1 1.549232 1_555
O45 V5 2.081357 1_565
O46 P0 1.558311 1_555
O47 P0 1.546154 1_555
O47 V3 2.032386 1_555
