# generated using pymatgen
data_Mg6FeSb
_symmetry_space_group_name_H-M   'P 1'
_cell_length_a   4.84661900
_cell_length_b   6.09104500
_cell_length_c   10.54171000
_cell_angle_alpha   90.00000000
_cell_angle_beta   90.00000000
_cell_angle_gamma   90.00000000
_symmetry_Int_Tables_number   1
_chemical_formula_structural   Mg6FeSb
_chemical_formula_sum   'Mg12 Fe2 Sb2'
_cell_volume   311.20155133
_cell_formula_units_Z   2
loop_
 _symmetry_equiv_pos_site_id
 _symmetry_equiv_pos_as_xyz
  1  'x, y, z'
loop_
 _atom_site_type_symbol
 _atom_site_label
 _atom_site_symmetry_multiplicity
 _atom_site_fract_x
 _atom_site_fract_y
 _atom_site_fract_z
 _atom_site_occupancy
  Mg  Mg0  1  0.00000000  0.24763300  0.58338600  1
  Mg  Mg1  1  0.00000000  0.75236700  0.58338600  1
  Mg  Mg2  1  0.50000000  0.26759700  0.41439700  1
  Mg  Mg3  1  0.50000000  0.73240300  0.41439700  1
  Mg  Mg4  1  0.50000000  0.00000000  0.67533200  1
  Mg  Mg5  1  0.50000000  0.00000000  0.16249900  1
  Mg  Mg6  1  0.00000000  0.74763300  0.08338600  1
  Mg  Mg7  1  0.00000000  0.25236700  0.08338600  1
  Mg  Mg8  1  0.50000000  0.76759700  0.91439700  1
  Mg  Mg9  1  0.50000000  0.23240300  0.91439700  1
  Mg  Mg10  1  0.50000000  0.50000000  0.17533200  1
  Mg  Mg11  1  0.50000000  0.50000000  0.66249900  1
  Fe  Fe0  1  0.00000000  0.00000000  0.83476600  1
  Fe  Fe1  1  0.00000000  0.50000000  0.33476600  1
  Sb  Sb0  1  0.00000000  0.00000000  0.33184000  1
  Sb  Sb1  1  0.00000000  0.50000000  0.83184000  1
loop_
_geom_bond_atom_site_label_1
_geom_bond_atom_site_label_2
_geom_bond_distance
_geom_bond_site_symmetry_2
Mg0 Mg11 2.988458 1_455
Mg0 Mg11 2.988458 1_555
Mg0 Mg2 3.010103 1_455
Mg0 Mg2 3.010103 1_555
Mg0 Mg4 3.014467 1_455
Mg0 Mg4 3.014467 1_555
Mg0 Mg1 3.016687 1_545
Mg0 Sb1 3.036900 1_555
Mg0 Sb0 3.050696 1_555
Mg0 Mg1 3.074358 1_555
Mg1 Mg11 2.988458 1_455
Mg1 Mg11 2.988458 1_555
Mg1 Mg3 3.010103 1_555
Mg1 Mg3 3.010103 1_455
Mg1 Mg4 3.014467 1_465
Mg1 Mg4 3.014467 1_565
Mg1 Sb1 3.036900 1_555
Mg1 Sb0 3.050696 1_565
Mg2 Mg3 2.831154 1_555
Mg2 Sb0 3.047386 1_555
Mg2 Sb0 3.047386 1_655
Mg2 Mg5 3.115776 1_555
Mg2 Mg4 3.197355 1_555
Mg2 Mg3 3.259891 1_545
Mg3 Sb0 3.047386 1_665
Mg3 Sb0 3.047386 1_565
Mg3 Mg5 3.115776 1_565
Mg3 Mg4 3.197355 1_565
Mg4 Mg9 2.890508 1_555
Mg4 Mg8 2.890508 1_545
Mg5 Mg8 2.973933 1_544
Mg5 Mg9 2.973933 1_554
Mg5 Mg7 2.988458 1_655
Mg5 Mg6 2.988458 1_645
Mg5 Mg6 2.988458 1_545
Mg5 Mg7 2.988458 1_555
Mg5 Sb0 3.009845 1_555
Mg5 Sb0 3.009845 1_655
Mg6 Mg8 3.010103 1_554
Mg6 Mg8 3.010103 1_454
Mg6 Mg7 3.016687 1_555
Mg6 Sb0 3.036900 1_565
Mg6 Sb1 3.050696 1_554
Mg6 Mg7 3.074358 1_565
Mg7 Mg9 3.010103 1_554
Mg7 Mg9 3.010103 1_454
Mg7 Sb0 3.036900 1_555
Mg7 Sb1 3.050696 1_554
Mg8 Mg9 2.831154 1_565
Mg8 Sb1 3.047386 1_555
Mg8 Sb1 3.047386 1_655
Mg8 Mg9 3.259891 1_555
Mg9 Sb1 3.047386 1_555
Mg9 Sb1 3.047386 1_655
Mg10 Mg2 2.890508 1_555
Mg10 Mg3 2.890508 1_555
Mg10 Mg7 3.014467 1_655
Mg10 Mg6 3.014467 1_555
Mg10 Mg7 3.014467 1_555
Mg10 Mg6 3.014467 1_655
Mg10 Mg5 3.048526 1_555
Mg10 Mg5 3.048526 1_565
Mg10 Mg9 3.197355 1_554
Mg10 Mg8 3.197355 1_554
Mg11 Mg3 2.973933 1_555
Mg11 Mg2 2.973933 1_555
Mg11 Sb1 3.009845 1_555
Mg11 Sb1 3.009845 1_655
Mg11 Mg4 3.048526 1_565
Mg11 Mg4 3.048526 1_555
Mg11 Mg8 3.115776 1_555
Mg11 Mg9 3.115776 1_555
Fe0 Mg8 2.929327 1_445
Fe0 Mg9 2.929327 1_555
Fe0 Mg8 2.929327 1_545
Fe0 Mg9 2.929327 1_455
Fe0 Mg4 2.949102 1_455
Fe0 Mg4 2.949102 1_555
Fe0 Mg6 3.038409 1_546
Fe0 Mg7 3.038409 1_556
Fe0 Sb1 3.045679 1_545
Fe0 Sb1 3.045679 1_555
Fe0 Mg1 3.049175 1_545
Fe0 Mg0 3.049175 1_555
Fe1 Mg2 2.929327 1_455
Fe1 Mg2 2.929327 1_555
Fe1 Mg3 2.929327 1_455
Fe1 Mg3 2.929327 1_555
Fe1 Mg10 2.949102 1_455
Fe1 Mg10 2.949102 1_555
Fe1 Mg0 3.038409 1_555
Fe1 Mg1 3.038409 1_555
Fe1 Sb0 3.045679 1_565
Fe1 Sb0 3.045679 1_555
Fe1 Mg6 3.049175 1_555
Fe1 Mg7 3.049175 1_555
