# generated using pymatgen
data_KLaPrSbO6
_symmetry_space_group_name_H-M   'P 1'
_cell_length_a   6.06942266
_cell_length_b   6.06942266
_cell_length_c   6.06942266
_cell_angle_alpha   60.00000000
_cell_angle_beta   60.00000000
_cell_angle_gamma   60.00000000
_symmetry_Int_Tables_number   1
_chemical_formula_structural   KLaPrSbO6
_chemical_formula_sum   'K1 La1 Pr1 Sb1 O6'
_cell_volume   158.09828076
_cell_formula_units_Z   1
loop_
 _symmetry_equiv_pos_site_id
 _symmetry_equiv_pos_as_xyz
  1  'x, y, z'
loop_
 _atom_site_type_symbol
 _atom_site_label
 _atom_site_symmetry_multiplicity
 _atom_site_fract_x
 _atom_site_fract_y
 _atom_site_fract_z
 _atom_site_occupancy
  K  K0  1  0.25000000  0.25000000  0.25000000  1
  La  La0  1  0.75000000  0.75000000  0.75000000  1
  Pr  Pr0  1  -0.00000000  0.00000000  0.00000000  1
  Sb  Sb0  1  0.50000000  0.50000000  0.50000000  1
  O  O0  1  0.73177607  0.26822393  0.26822393  1
  O  O1  1  0.26822393  0.73177607  0.73177607  1
  O  O2  1  0.73177607  0.26822393  0.73177607  1
  O  O3  1  0.26822393  0.73177607  0.26822393  1
  O  O4  1  0.73177607  0.73177607  0.26822393  1
  O  O5  1  0.26822393  0.26822393  0.73177607  1
loop_
_geom_bond_atom_site_label_1
_geom_bond_atom_site_label_2
_geom_bond_distance
_geom_bond_site_symmetry_2
K0 O5 3.038740 1_555
K0 O5 3.038740 1_554
K0 O4 3.038740 1_545
K0 O4 3.038740 1_455
K0 O1 3.038740 1_554
K0 O3 3.038740 1_545
K0 O2 3.038740 1_455
K0 O2 3.038740 1_554
K0 O1 3.038740 1_545
K0 O0 3.038740 1_455
K0 O0 3.038740 1_555
K0 O3 3.038740 1_555
La0 O5 3.038740 1_655
La0 O5 3.038740 1_565
La0 O4 3.038740 1_555
La0 O4 3.038740 1_556
La0 O1 3.038740 1_555
La0 O0 3.038740 1_565
La0 O3 3.038740 1_655
La0 O1 3.038740 1_655
La0 O0 3.038740 1_556
La0 O2 3.038740 1_565
La0 O2 3.038740 1_555
La0 O3 3.038740 1_556
O0 Sb0 1.989441 1_555
O0 Pr0 2.302289 1_655
O1 Sb0 1.989441 1_555
O1 Pr0 2.302289 1_566
O2 Sb0 1.989441 1_555
O2 Pr0 2.302289 1_656
O3 Sb0 1.989441 1_555
O3 Pr0 2.302289 1_565
O4 Sb0 1.989441 1_555
O4 Pr0 2.302289 1_665
O5 Sb0 1.989441 1_555
O5 Pr0 2.302289 1_556
