# generated using pymatgen
data_CoPtO2
_symmetry_space_group_name_H-M   'P 1'
_cell_length_a   5.01639413
_cell_length_b   5.92700279
_cell_length_c   7.03600126
_cell_angle_alpha   114.91080807
_cell_angle_beta   104.28705551
_cell_angle_gamma   90.00364432
_symmetry_Int_Tables_number   1
_chemical_formula_structural   CoPtO2
_chemical_formula_sum   'Co4 Pt4 O8'
_cell_volume   182.57294914
_cell_formula_units_Z   4
loop_
 _symmetry_equiv_pos_site_id
 _symmetry_equiv_pos_as_xyz
  1  'x, y, z'
loop_
 _atom_site_type_symbol
 _atom_site_label
 _atom_site_symmetry_multiplicity
 _atom_site_fract_x
 _atom_site_fract_y
 _atom_site_fract_z
 _atom_site_occupancy
  Co  Co0  1  0.50005900  0.24498100  0.50009600  1
  Co  Co1  1  0.00036800  0.50405700  0.49970400  1
  Co  Co2  1  0.49986100  0.74631000  0.50019900  1
  Co  Co3  1  0.99977200  0.00570600  0.50000100  1
  Pt  Pt0  1  0.00265800  0.99898000  0.99982300  1
  Pt  Pt1  1  0.50207000  0.25034400  0.99968800  1
  Pt  Pt2  1  0.99692900  0.49905400  0.99992800  1
  Pt  Pt3  1  0.49836100  0.75060300  0.00028100  1
  O  O0  1  0.88792000  0.34496400  0.67626000  1
  O  O1  1  0.38732400  0.58564100  0.67786200  1
  O  O2  1  0.89098800  0.83835600  0.67633300  1
  O  O3  1  0.38904300  0.08552200  0.67813800  1
  O  O4  1  0.11187200  0.16825300  0.32364800  1
  O  O5  1  0.61309700  0.40760600  0.32214300  1
  O  O6  1  0.10889800  0.66217600  0.32361700  1
  O  O7  1  0.61078000  0.90744700  0.32227900  1
loop_
_geom_bond_atom_site_label_1
_geom_bond_atom_site_label_2
_geom_bond_distance
_geom_bond_site_symmetry_2
Co0 O0 1.965684 1_555
Co0 O4 1.967522 1_555
Co0 O7 2.027474 1_545
Co0 O3 2.028367 1_555
Co0 O1 2.045184 1_555
Co0 O5 2.045804 1_555
Co1 O1 1.965046 1_555
Co1 O5 1.965200 1_455
Co1 O6 2.005161 1_555
Co1 O2 2.008424 1_455
Co1 O4 2.018377 1_555
Co1 O0 2.020663 1_455
Co2 O2 1.978201 1_555
Co2 O6 1.978384 1_555
Co2 O1 2.034494 1_555
Co2 O7 2.034637 1_555
Co2 O3 2.035150 1_565
Co2 O5 2.038368 1_555
Co3 O7 1.972962 1_545
Co3 O3 1.974921 1_655
Co3 O4 2.033566 1_655
Co3 O0 2.034437 1_555
Co3 O2 2.047355 1_545
Co3 O6 2.047518 1_645
O0 Pt2 1.988100 1_555
O1 Pt3 1.979967 1_556
O2 Pt0 1.986429 1_655
O3 Pt1 1.974668 1_555
O4 Pt0 1.989004 1_544
O5 Pt1 1.980204 1_554
O6 Pt2 1.987654 1_454
O7 Pt3 1.977416 1_555
