# generated using pymatgen
data_AsC2(OF3)2
_symmetry_space_group_name_H-M   'P 1'
_cell_length_a   5.73529500
_cell_length_b   7.22092726
_cell_length_c   9.84417630
_cell_angle_alpha   102.73187685
_cell_angle_beta   101.85467712
_cell_angle_gamma   109.33748855
_symmetry_Int_Tables_number   1
_chemical_formula_structural   AsC2(OF3)2
_chemical_formula_sum   'As2 C4 O4 F12'
_cell_volume   357.65088154
_cell_formula_units_Z   2
loop_
 _symmetry_equiv_pos_site_id
 _symmetry_equiv_pos_as_xyz
  1  'x, y, z'
loop_
 _atom_site_type_symbol
 _atom_site_label
 _atom_site_symmetry_multiplicity
 _atom_site_fract_x
 _atom_site_fract_y
 _atom_site_fract_z
 _atom_site_occupancy
  As  As0  1  0.81814500  0.92933000  0.86698300  1
  As  As1  1  0.18185500  0.07067000  0.13301700  1
  C  C0  1  0.87928900  0.76079300  0.63170000  1
  C  C1  1  0.12071100  0.23920700  0.36830000  1
  C  C2  1  0.82026800  0.18408500  0.80082800  1
  C  C3  1  0.17973200  0.81591500  0.19917200  1
  O  O0  1  0.85727900  0.05655000  0.06188900  1
  O  O1  1  0.14272100  0.94345000  0.93811100  1
  O  O2  1  0.55217300  0.71264700  0.80108200  1
  O  O3  1  0.44782700  0.28735300  0.19891800  1
  F  F0  1  0.90563300  0.58852500  0.64337500  1
  F  F1  1  0.09436700  0.41147500  0.35662500  1
  F  F2  1  0.09869100  0.89780100  0.62567200  1
  F  F3  1  0.90130900  0.10219900  0.37432800  1
  F  F4  1  0.68001800  0.72333800  0.51793300  1
  F  F5  1  0.31998200  0.27666200  0.48206700  1
  F  F6  1  0.76229400  0.13863800  0.65425500  1
  F  F7  1  0.23770600  0.86136200  0.34574500  1
  F  F8  1  0.64069700  0.24148200  0.84488300  1
  F  F9  1  0.35930300  0.75851800  0.15511700  1
  F  F10  1  0.05589300  0.33871900  0.86432900  1
  F  F11  1  0.94410700  0.66128100  0.13567100  1
loop_
_geom_bond_atom_site_label_1
_geom_bond_atom_site_label_2
_geom_bond_distance
_geom_bond_site_symmetry_2
As0 O2 1.661704 1_555
As0 O1 1.809226 1_655
As0 O0 1.866885 1_566
As1 O3 1.661704 1_555
As1 O0 1.809226 1_455
As1 O1 1.866885 1_544
C0 F0 1.328067 1_555
C0 F4 1.330221 1_555
C0 F2 1.340819 1_655
C1 F1 1.328067 1_555
C1 F5 1.330221 1_555
C1 F3 1.340819 1_455
C2 F8 1.344436 1_555
C2 F10 1.345259 1_655
C2 F6 1.349849 1_555
C3 F9 1.344436 1_555
C3 F11 1.345259 1_455
C3 F7 1.349849 1_555
