# generated using pymatgen
data_Ti5SiSb2
_symmetry_space_group_name_H-M   'P 1'
_cell_length_a   5.10307658
_cell_length_b   7.79412099
_cell_length_c   7.79412315
_cell_angle_alpha   83.84433016
_cell_angle_beta   70.89113381
_cell_angle_gamma   70.89117970
_symmetry_Int_Tables_number   1
_chemical_formula_structural   Ti5SiSb2
_chemical_formula_sum   'Ti10 Si2 Sb4'
_cell_volume   276.78128121
_cell_formula_units_Z   2
loop_
 _symmetry_equiv_pos_site_id
 _symmetry_equiv_pos_as_xyz
  1  'x, y, z'
loop_
 _atom_site_type_symbol
 _atom_site_label
 _atom_site_symmetry_multiplicity
 _atom_site_fract_x
 _atom_site_fract_y
 _atom_site_fract_z
 _atom_site_occupancy
  Ti  Ti0  1  0.24999445  0.50005004  0.49995120  1
  Ti  Ti1  1  0.75000465  0.49995163  0.50004953  1
  Ti  Ti2  1  0.07263303  0.13637178  0.71824380  1
  Ti  Ti3  1  0.92736847  0.86362806  0.28175740  1
  Ti  Ti4  1  0.79093153  0.28178731  0.13632803  1
  Ti  Ti5  1  0.42736035  0.28176553  0.86363435  1
  Ti  Ti6  1  0.20906940  0.71821139  0.86367077  1
  Ti  Ti7  1  0.57263852  0.71823600  0.13636550  1
  Ti  Ti8  1  0.70906987  0.86366368  0.71822004  1
  Ti  Ti9  1  0.29093371  0.13633502  0.28177828  1
  Si  Si0  1  0.25000081  0.99996559  0.00003353  1
  Si  Si1  1  0.75000090  0.00003380  0.99996553  1
  Sb  Sb0  1  0.16440478  0.50002583  0.17167921  1
  Sb  Sb1  1  0.83559342  0.49997317  0.82832130  1
  Sb  Sb2  1  0.33559088  0.82832469  0.49997437  1
  Sb  Sb3  1  0.66440622  0.17167647  0.50002516  1
loop_
_geom_bond_atom_site_label_1
_geom_bond_atom_site_label_2
_geom_bond_distance
_geom_bond_site_symmetry_2
Ti0 Ti1 2.551487 1_455
Ti0 Ti1 2.551590 1_555
Si0 Si1 2.551537 1_464
Si0 Si1 2.551539 1_564
Si0 Ti3 2.634287 1_455
Si0 Ti7 2.634306 1_555
Si0 Ti9 2.634729 1_565
Si0 Ti6 2.634765 1_554
Si0 Ti8 2.635001 1_554
Si0 Ti4 2.635028 1_465
Si0 Ti2 2.635157 1_564
Si0 Ti5 2.635196 1_564
Si1 Ti2 2.634279 1_655
Si1 Ti5 2.634319 1_555
Si1 Ti8 2.634733 1_545
Si1 Ti4 2.634757 1_556
Si1 Ti9 2.634992 1_556
Si1 Ti6 2.635030 1_645
Si1 Ti3 2.635171 1_546
Si1 Ti7 2.635190 1_546
Sb0 Ti0 2.732946 1_555
Sb0 Ti1 2.734817 1_455
Sb0 Ti6 2.779751 1_554
Sb0 Ti5 2.780473 1_554
Sb0 Ti3 2.797885 1_455
Sb0 Ti9 2.798444 1_555
Sb0 Ti7 3.025261 1_555
Sb0 Ti4 3.025641 1_555
Sb0 Ti4 3.027935 1_455
Sb0 Ti7 3.028007 1_455
Sb1 Ti1 2.732939 1_555
Sb1 Ti0 2.734822 1_655
Sb1 Ti4 2.779742 1_556
Sb1 Ti7 2.780480 1_556
Sb1 Ti2 2.797877 1_655
Sb1 Ti8 2.798447 1_555
Sb1 Ti5 3.025244 1_555
Sb1 Ti6 3.025631 1_555
Sb1 Ti6 3.027940 1_655
Sb1 Ti5 3.028003 1_655
Sb2 Ti0 2.732980 1_555
Sb2 Ti1 2.734867 1_555
Sb2 Ti9 2.779807 1_565
Sb2 Ti2 2.780526 1_565
Sb2 Ti7 2.797954 1_555
Sb2 Ti6 2.798514 1_555
Sb2 Ti3 3.025271 1_455
Sb2 Ti8 3.025646 1_455
Sb2 Ti8 3.027970 1_555
Sb2 Ti3 3.028037 1_555
Sb3 Ti1 2.732990 1_555
Sb3 Ti0 2.734863 1_555
Sb3 Ti8 2.779817 1_545
Sb3 Ti3 2.780526 1_545
Sb3 Ti5 2.797957 1_555
Sb3 Ti4 2.798514 1_555
Sb3 Ti2 3.025298 1_655
Sb3 Ti9 3.025672 1_655
Sb3 Ti9 3.027957 1_555
Sb3 Ti2 3.028025 1_555
