# generated using pymatgen
data_Ba2LaCrO6
_symmetry_space_group_name_H-M   'P 1'
_cell_length_a   6.03380339
_cell_length_b   6.03380339
_cell_length_c   6.03380339
_cell_angle_alpha   60.00000000
_cell_angle_beta   60.00000000
_cell_angle_gamma   60.00000000
_symmetry_Int_Tables_number   1
_chemical_formula_structural   Ba2LaCrO6
_chemical_formula_sum   'Ba2 La1 Cr1 O6'
_cell_volume   155.33111696
_cell_formula_units_Z   1
loop_
 _symmetry_equiv_pos_site_id
 _symmetry_equiv_pos_as_xyz
  1  'x, y, z'
loop_
 _atom_site_type_symbol
 _atom_site_label
 _atom_site_symmetry_multiplicity
 _atom_site_fract_x
 _atom_site_fract_y
 _atom_site_fract_z
 _atom_site_occupancy
  Ba  Ba0  1  0.25000000  0.25000000  0.25000000  1
  Ba  Ba1  1  0.75000000  0.75000000  0.75000000  1
  La  La0  1  0.50000000  0.50000000  0.50000000  1
  Cr  Cr0  1  -0.00000000  0.00000000  0.00000000  1
  O  O0  1  0.77604058  0.22395942  0.22395942  1
  O  O1  1  0.22395942  0.77604058  0.77604058  1
  O  O2  1  0.77604058  0.22395942  0.77604058  1
  O  O3  1  0.22395942  0.77604058  0.22395942  1
  O  O4  1  0.77604058  0.77604058  0.22395942  1
  O  O5  1  0.22395942  0.22395942  0.77604058  1
loop_
_geom_bond_atom_site_label_1
_geom_bond_atom_site_label_2
_geom_bond_distance
_geom_bond_site_symmetry_2
Ba0 O1 3.025074 1_554
Ba0 O5 3.025074 1_555
Ba0 O2 3.025074 1_455
Ba0 O5 3.025074 1_554
Ba0 O2 3.025074 1_554
Ba0 O3 3.025074 1_545
Ba0 O4 3.025074 1_545
Ba0 O1 3.025074 1_545
Ba0 O0 3.025074 1_455
Ba0 O0 3.025074 1_555
Ba0 O3 3.025074 1_555
Ba0 O4 3.025074 1_455
Ba1 O2 3.025074 1_565
Ba1 O4 3.025074 1_556
Ba1 O1 3.025074 1_655
Ba1 O3 3.025074 1_556
Ba1 O0 3.025074 1_556
Ba1 O3 3.025074 1_655
Ba1 O0 3.025074 1_565
Ba1 O4 3.025074 1_555
Ba1 O1 3.025074 1_555
Ba1 O5 3.025074 1_655
Ba1 O5 3.025074 1_565
Ba1 O2 3.025074 1_555
La0 O1 2.355478 1_555
La0 O4 2.355478 1_555
La0 O5 2.355478 1_555
La0 O3 2.355478 1_555
La0 O0 2.355478 1_555
La0 O2 2.355478 1_555
Cr0 O3 1.911065 1_545
Cr0 O5 1.911065 1_554
Cr0 O0 1.911065 1_455
Cr0 O4 1.911065 1_445
Cr0 O2 1.911065 1_454
Cr0 O1 1.911065 1_544
