# generated using pymatgen
data_LuCdNi4
_symmetry_space_group_name_H-M   'P 1'
_cell_length_a   4.92232445
_cell_length_b   4.92232445
_cell_length_c   4.92232445
_cell_angle_alpha   60.00000000
_cell_angle_beta   60.00000000
_cell_angle_gamma   60.00000000
_symmetry_Int_Tables_number   1
_chemical_formula_structural   LuCdNi4
_chemical_formula_sum   'Lu1 Cd1 Ni4'
_cell_volume   84.33264315
_cell_formula_units_Z   1
loop_
 _symmetry_equiv_pos_site_id
 _symmetry_equiv_pos_as_xyz
  1  'x, y, z'
loop_
 _atom_site_type_symbol
 _atom_site_label
 _atom_site_symmetry_multiplicity
 _atom_site_fract_x
 _atom_site_fract_y
 _atom_site_fract_z
 _atom_site_occupancy
  Lu  Lu0  1  0.25000000  0.25000000  0.25000000  1
  Cd  Cd0  1  0.00000000  0.00000000  0.00000000  1
  Ni  Ni0  1  0.62565800  0.62565800  0.12302600  1
  Ni  Ni1  1  0.62565800  0.12302600  0.62565800  1
  Ni  Ni2  1  0.12302600  0.62565800  0.62565800  1
  Ni  Ni3  1  0.62565800  0.62565800  0.62565800  1
loop_
_geom_bond_atom_site_label_1
_geom_bond_atom_site_label_2
_geom_bond_distance
_geom_bond_site_symmetry_2
Lu0 Ni1 2.887360 1_555
Lu0 Ni2 2.887360 1_555
Lu0 Ni0 2.887360 1_555
Lu0 Ni3 2.887360 1_545
Lu0 Ni3 2.887360 1_455
Lu0 Ni3 2.887360 1_554
Lu0 Ni1 2.887360 1_554
Lu0 Ni2 2.887360 1_545
Lu0 Ni2 2.887360 1_554
Lu0 Ni0 2.887360 1_545
Lu0 Ni1 2.887360 1_455
Lu0 Ni0 2.887360 1_455
Cd0 Ni1 2.884598 1_554
Cd0 Ni2 2.884598 1_545
Cd0 Ni0 2.884598 1_455
Cd0 Ni0 2.884598 1_545
Cd0 Ni1 2.884598 1_455
Cd0 Ni2 2.884598 1_554
Cd0 Ni3 2.884598 1_445
Cd0 Ni3 2.884598 1_544
Cd0 Ni3 2.884598 1_454
Cd0 Ni1 2.884598 1_454
Cd0 Ni0 2.884598 1_445
Cd0 Ni2 2.884598 1_544
Cd0 Lu0 3.014296 1_554
Cd0 Lu0 3.014296 1_555
Cd0 Lu0 3.014296 1_545
Cd0 Lu0 3.014296 1_455
Ni0 Ni2 2.448207 1_654
Ni0 Ni1 2.448207 1_564
Ni0 Ni3 2.448207 1_554
Ni0 Ni3 2.474118 1_555
Ni0 Ni1 2.474118 1_555
Ni0 Ni2 2.474118 1_555
Ni1 Ni3 2.448207 1_545
Ni1 Ni2 2.448207 1_645
Ni1 Ni3 2.474118 1_555
Ni1 Ni2 2.474118 1_555
Ni2 Ni3 2.448207 1_455
Ni2 Ni3 2.474118 1_555
