# generated using pymatgen
data_Nb2(Co7B2)3
_symmetry_space_group_name_H-M   'P 1'
_cell_length_a   7.39878906
_cell_length_b   7.39879293
_cell_length_c   7.39880102
_cell_angle_alpha   59.99951282
_cell_angle_beta   59.99957077
_cell_angle_gamma   59.99971468
_symmetry_Int_Tables_number   1
_chemical_formula_structural   Nb2(Co7B2)3
_chemical_formula_sum   'Nb2 Co21 B6'
_cell_volume   286.39400629
_cell_formula_units_Z   1
loop_
 _symmetry_equiv_pos_site_id
 _symmetry_equiv_pos_as_xyz
  1  'x, y, z'
loop_
 _atom_site_type_symbol
 _atom_site_label
 _atom_site_symmetry_multiplicity
 _atom_site_fract_x
 _atom_site_fract_y
 _atom_site_fract_z
 _atom_site_occupancy
  Nb  Nb0  1  0.25000490  0.24999415  0.24999809  1
  Nb  Nb1  1  0.74999615  0.75000347  0.75000254  1
  Co  Co0  1  0.00000359  -0.00000575  -0.00000481  1
  Co  Co1  1  0.84865106  0.38378485  0.38378450  1
  Co  Co2  1  0.38378234  0.84865178  0.38378535  1
  Co  Co3  1  0.38378251  0.38378731  0.84865237  1
  Co  Co4  1  0.38378212  0.38378506  0.38378075  1
  Co  Co5  1  0.15135071  0.61622248  0.61621810  1
  Co  Co6  1  0.61621726  0.15134707  0.61622168  1
  Co  Co7  1  0.61621356  0.61622388  0.15134821  1
  Co  Co8  1  0.61621043  0.61622048  0.61621898  1
  Co  Co9  1  0.65755813  -0.00000248  0.00000109  1
  Co  Co10  1  0.65755290  -0.00000347  0.34244313  1
  Co  Co11  1  0.65755171  0.34244501  -0.00000192  1
  Co  Co12  1  0.00000003  0.65755841  0.34243899  1
  Co  Co13  1  0.00000229  0.65756306  -0.00000499  1
  Co  Co14  1  0.34244283  0.65755945  -0.00000554  1
  Co  Co15  1  -0.00000075  0.34243901  0.65755761  1
  Co  Co16  1  0.34244232  -0.00000788  0.65755856  1
  Co  Co17  1  0.00000430  -0.00000556  0.65756049  1
  Co  Co18  1  0.34244481  -0.00000414  0.00000188  1
  Co  Co19  1  0.00000247  0.34244416  -0.00000062  1
  Co  Co20  1  0.00000546  -0.00000282  0.34244468  1
  B  B0  1  0.72549668  0.27450323  0.27450354  1
  B  B1  1  0.72549417  0.27450141  0.72549930  1
  B  B2  1  0.72549466  0.72550031  0.27450110  1
  B  B3  1  0.27450390  0.72549811  0.72549542  1
  B  B4  1  0.27450460  0.72549888  0.27450272  1
  B  B5  1  0.27450487  0.27450054  0.72549879  1
loop_
_geom_bond_atom_site_label_1
_geom_bond_atom_site_label_2
_geom_bond_distance
_geom_bond_site_symmetry_2
Co0 Co13 2.533583 1_545
Co0 Co17 2.533603 1_554
Co0 Co14 2.533609 1_545
Co0 Co16 2.533610 1_554
Co0 Co12 2.533624 1_545
Co0 Co15 2.533634 1_554
Co0 Co9 2.533648 1_455
Co0 Co18 2.533681 1_555
Co0 Co10 2.533696 1_455
Co0 Co11 2.533715 1_455
Co0 Co19 2.533727 1_555
Co0 Co20 2.533733 1_555
Co1 Nb0 2.424603 1_655
Co2 Nb0 2.424533 1_565
Co3 Nb0 2.424553 1_556
Co4 Nb0 2.424604 1_555
Co5 Nb1 2.424607 1_455
Co6 Nb1 2.424541 1_545
Co7 Nb1 2.424553 1_554
Co8 Nb1 2.424613 1_555
B0 Co4 2.065169 1_555
B0 Co6 2.065190 1_555
B0 Co1 2.065200 1_555
B0 Co7 2.065205 1_555
B0 Co19 2.092276 1_655
B0 Co20 2.092299 1_655
B0 Co11 2.092309 1_555
B0 Co10 2.092315 1_555
B1 Co3 2.065151 1_555
B1 Co6 2.065151 1_555
B1 Co1 2.065170 1_555
B1 Co8 2.065196 1_555
B1 Co9 2.092252 1_556
B1 Co11 2.092254 1_556
B1 Co15 2.092269 1_655
B1 Co17 2.092299 1_655
B2 Co2 2.065155 1_555
B2 Co7 2.065160 1_555
B2 Co1 2.065175 1_555
B2 Co8 2.065188 1_555
B2 Co9 2.092225 1_565
B2 Co10 2.092229 1_565
B2 Co12 2.092275 1_655
B2 Co13 2.092284 1_655
B3 Co8 2.065121 1_555
B3 Co5 2.065135 1_555
B3 Co2 2.065141 1_555
B3 Co3 2.065147 1_555
B3 Co16 2.092207 1_565
B3 Co17 2.092221 1_565
B3 Co13 2.092234 1_556
B3 Co14 2.092244 1_556
B4 Co7 2.065135 1_555
B4 Co4 2.065165 1_555
B4 Co5 2.065173 1_555
B4 Co2 2.065177 1_555
B4 Co18 2.092225 1_565
B4 Co20 2.092236 1_565
B4 Co12 2.092293 1_555
B4 Co14 2.092315 1_555
B5 Co6 2.065156 1_555
B5 Co4 2.065190 1_555
B5 Co3 2.065206 1_555
B5 Co5 2.065213 1_555
B5 Co19 2.092256 1_556
B5 Co18 2.092265 1_556
B5 Co15 2.092300 1_555
B5 Co16 2.092321 1_555
