# generated using pymatgen
data_Tb3(GaNi3)2
_symmetry_space_group_name_H-M   'P 1'
_cell_length_a   7.73126859
_cell_length_b   7.73126859
_cell_length_c   7.73126859
_cell_angle_alpha   109.47122063
_cell_angle_beta   109.47122063
_cell_angle_gamma   109.47122063
_symmetry_Int_Tables_number   1
_chemical_formula_structural   Tb3(GaNi3)2
_chemical_formula_sum   'Tb6 Ga4 Ni12'
_cell_volume   355.73810929
_cell_formula_units_Z   2
loop_
 _symmetry_equiv_pos_site_id
 _symmetry_equiv_pos_as_xyz
  1  'x, y, z'
loop_
 _atom_site_type_symbol
 _atom_site_label
 _atom_site_symmetry_multiplicity
 _atom_site_fract_x
 _atom_site_fract_y
 _atom_site_fract_z
 _atom_site_occupancy
  Tb  Tb0  1  0.71056200  0.71056200  0.00000000  1
  Tb  Tb1  1  0.28943800  0.00000000  0.28943800  1
  Tb  Tb2  1  0.00000000  0.28943800  0.28943800  1
  Tb  Tb3  1  0.28943800  0.28943800  0.00000000  1
  Tb  Tb4  1  0.71056200  0.00000000  0.71056200  1
  Tb  Tb5  1  0.00000000  0.71056200  0.71056200  1
  Ga  Ga0  1  0.00000000  0.00000000  0.50000000  1
  Ga  Ga1  1  0.00000000  0.50000000  0.00000000  1
  Ga  Ga2  1  0.50000000  0.00000000  0.00000000  1
  Ga  Ga3  1  0.50000000  0.50000000  0.50000000  1
  Ni  Ni0  1  0.33776000  0.33776000  0.67552000  1
  Ni  Ni1  1  0.66224000  0.00000000  0.33776000  1
  Ni  Ni2  1  0.00000000  0.66224000  0.33776000  1
  Ni  Ni3  1  0.66224000  0.33776000  0.00000000  1
  Ni  Ni4  1  0.33776000  0.67552000  0.33776000  1
  Ni  Ni5  1  0.00000000  0.33776000  0.66224000  1
  Ni  Ni6  1  0.33776000  0.66224000  0.00000000  1
  Ni  Ni7  1  0.33776000  0.00000000  0.66224000  1
  Ni  Ni8  1  0.67552000  0.33776000  0.33776000  1
  Ni  Ni9  1  0.66224000  0.66224000  0.32448000  1
  Ni  Ni10  1  0.66224000  0.32448000  0.66224000  1
  Ni  Ni11  1  0.32448000  0.66224000  0.66224000  1
loop_
_geom_bond_atom_site_label_1
_geom_bond_atom_site_label_2
_geom_bond_distance
_geom_bond_site_symmetry_2
Ga0 Ni2 2.491719 1_545
Ga0 Ni9 2.491719 1_445
Ga0 Ni1 2.491719 1_455
Ga0 Ni0 2.491719 1_555
Ga0 Ni7 2.491719 1_555
Ga0 Ni5 2.491719 1_555
Ga0 Tb3 3.175853 1_556
Ga0 Tb5 3.175853 1_545
Ga0 Tb0 3.175853 1_445
Ga0 Tb1 3.175853 1_555
Ga0 Tb2 3.175853 1_555
Ga0 Tb4 3.175853 1_455
Ga1 Ni5 2.491719 1_554
Ga1 Ni10 2.491719 1_454
Ga1 Ni3 2.491719 1_455
Ga1 Ni2 2.491719 1_555
Ga1 Ni6 2.491719 1_555
Ga1 Ni4 2.491719 1_555
Ga1 Tb0 3.175853 1_455
Ga1 Tb3 3.175853 1_555
Ga1 Tb4 3.175853 1_454
Ga1 Tb5 3.175853 1_554
Ga1 Tb1 3.175853 1_565
Ga1 Tb2 3.175853 1_555
Ga2 Ni11 2.491719 1_544
Ga2 Ni7 2.491719 1_554
Ga2 Ni6 2.491719 1_545
Ga2 Ni3 2.491719 1_555
Ga2 Ni1 2.491719 1_555
Ga2 Ni8 2.491719 1_555
Ga2 Tb0 3.175853 1_545
Ga2 Tb3 3.175853 1_555
Ga2 Tb1 3.175853 1_555
Ga2 Tb4 3.175853 1_554
Ga2 Tb2 3.175853 1_655
Ga2 Tb5 3.175853 1_544
Ga3 Ni0 2.491719 1_555
Ga3 Ni4 2.491719 1_555
Ga3 Ni8 2.491719 1_555
Ga3 Ni11 2.491719 1_555
Ga3 Ni9 2.491719 1_555
Ga3 Ni10 2.491719 1_555
Ga3 Tb3 3.175853 1_555
Ga3 Tb0 3.175853 1_556
Ga3 Tb1 3.175853 1_555
Ga3 Tb4 3.175853 1_565
Ga3 Tb2 3.175853 1_555
Ga3 Tb5 3.175853 1_655
Ni0 Ni10 2.578907 1_555
Ni0 Ni7 2.578907 1_555
Ni0 Ni11 2.578907 1_555
Ni0 Ni5 2.578907 1_555
Ni0 Tb3 2.780105 1_556
Ni0 Tb0 2.780105 1_556
Ni0 Ni6 2.896730 1_556
Ni0 Ni3 2.896730 1_556
Ni0 Tb2 3.045987 1_555
Ni0 Tb1 3.045987 1_555
Ni1 Ni9 2.578907 1_545
Ni1 Ni5 2.578907 1_655
Ni1 Ni6 2.578907 1_545
Ni1 Ni8 2.578907 1_555
Ni1 Tb4 2.780105 1_555
Ni1 Tb1 2.780105 1_555
Ni1 Ni10 2.896730 1_555
Ni1 Ni4 2.896730 1_545
Ni1 Tb0 3.045987 1_545
Ni1 Tb2 3.045987 1_655
Ni2 Ni7 2.578907 1_565
Ni2 Ni9 2.578907 1_455
Ni2 Ni4 2.578907 1_555
Ni2 Ni3 2.578907 1_455
Ni2 Tb5 2.780105 1_555
Ni2 Tb2 2.780105 1_555
Ni2 Ni8 2.896730 1_455
Ni2 Tb0 3.045987 1_455
Ni2 Tb1 3.045987 1_565
Ni3 Ni7 2.578907 1_554
Ni3 Ni8 2.578907 1_555
Ni3 Tb0 2.780105 1_555
Ni3 Tb3 2.780105 1_555
Ni3 Ni9 2.896730 1_555
Ni3 Tb4 3.045987 1_554
Ni3 Tb2 3.045987 1_655
Ni4 Ni6 2.578907 1_555
Ni4 Ni9 2.578907 1_555
Ni4 Tb4 2.780105 1_565
Ni4 Tb1 2.780105 1_565
Ni4 Ni7 2.896730 1_565
Ni4 Tb2 3.045987 1_555
Ni4 Tb3 3.045987 1_555
Ni5 Ni6 2.578907 1_556
Ni5 Tb5 2.780105 1_555
Ni5 Tb2 2.780105 1_555
Ni5 Ni8 2.896730 1_455
Ni5 Tb3 3.045987 1_556
Ni5 Tb4 3.045987 1_455
Ni6 Tb0 2.780105 1_555
Ni6 Tb3 2.780105 1_555
Ni6 Ni9 2.896730 1_555
Ni6 Tb5 3.045987 1_554
Ni6 Tb1 3.045987 1_565
Ni7 Tb4 2.780105 1_555
Ni7 Tb1 2.780105 1_555
Ni7 Tb3 3.045987 1_556
Ni7 Tb5 3.045987 1_545
Ni8 Ni9 2.578907 1_555
Ni8 Tb5 2.780105 1_655
Ni8 Tb2 2.780105 1_655
Ni8 Tb1 3.045987 1_555
Ni8 Tb3 3.045987 1_555
Ni9 Tb0 2.780105 1_555
Ni9 Tb3 2.780105 1_555
Ni9 Tb4 3.045987 1_565
Ni9 Tb5 3.045987 1_655
Ni10 Ni3 2.578907 1_556
Ni10 Ni5 2.578907 1_655
Ni10 Ni8 2.578907 1_555
Ni10 Tb4 2.780105 1_555
Ni10 Tb1 2.780105 1_555
Ni10 Ni7 2.896730 1_555
Ni10 Tb5 3.045987 1_655
Ni10 Tb0 3.045987 1_556
Ni11 Ni7 2.578907 1_565
Ni11 Ni6 2.578907 1_556
Ni11 Ni4 2.578907 1_555
Ni11 Tb5 2.780105 1_555
Ni11 Tb2 2.780105 1_555
Ni11 Ni2 2.896730 1_555
Ni11 Ni5 2.896730 1_555
Ni11 Tb4 3.045987 1_565
Ni11 Tb0 3.045987 1_556
