# generated using pymatgen
data_AlSiPt6
_symmetry_space_group_name_H-M   'P 1'
_cell_length_a   5.54260451
_cell_length_b   5.54260451
_cell_length_c   3.91671400
_cell_angle_alpha   90.00000000
_cell_angle_beta   90.00000000
_cell_angle_gamma   90.72865530
_symmetry_Int_Tables_number   1
_chemical_formula_structural   AlSiPt6
_chemical_formula_sum   'Al1 Si1 Pt6'
_cell_volume   120.31354431
_cell_formula_units_Z   1
loop_
 _symmetry_equiv_pos_site_id
 _symmetry_equiv_pos_as_xyz
  1  'x, y, z'
loop_
 _atom_site_type_symbol
 _atom_site_label
 _atom_site_symmetry_multiplicity
 _atom_site_fract_x
 _atom_site_fract_y
 _atom_site_fract_z
 _atom_site_occupancy
  Al  Al0  1  0.50000000  0.50000000  0.50000000  1
  Si  Si0  1  0.00000000  0.00000000  0.50000000  1
  Pt  Pt0  1  0.73537600  0.26462400  0.00000000  1
  Pt  Pt1  1  0.26462400  0.73537600  0.00000000  1
  Pt  Pt2  1  0.23423100  0.23423100  0.00000000  1
  Pt  Pt3  1  0.76576900  0.76576900  0.00000000  1
  Pt  Pt4  1  0.00000000  0.50000000  0.50000000  1
  Pt  Pt5  1  0.50000000  0.00000000  0.50000000  1
loop_
_geom_bond_atom_site_label_1
_geom_bond_atom_site_label_2
_geom_bond_distance
_geom_bond_site_symmetry_2
Al0 Pt1 2.698591 1_556
Al0 Pt0 2.698591 1_555
Al0 Pt0 2.698591 1_556
Al0 Pt1 2.698591 1_555
Al0 Pt5 2.771302 1_565
Al0 Pt4 2.771302 1_555
Al0 Pt4 2.771302 1_655
Al0 Pt5 2.771302 1_555
Al0 Pt3 2.849516 1_555
Al0 Pt3 2.849516 1_556
Al0 Pt2 2.849516 1_556
Al0 Pt2 2.849516 1_555
Pt0 Pt5 2.763999 1_555
Pt0 Pt5 2.763999 1_554
Pt0 Pt4 2.763999 1_655
Pt0 Pt4 2.763999 1_654
Pt0 Pt3 2.772220 1_545
Pt0 Pt2 2.772220 1_655
Pt0 Pt2 2.780613 1_555
Pt0 Pt3 2.780613 1_555
Pt0 Si0 2.862225 1_655
Pt0 Si0 2.862225 1_654
Pt1 Pt4 2.763999 1_554
Pt1 Pt4 2.763999 1_555
Pt1 Pt5 2.763999 1_565
Pt1 Pt5 2.763999 1_564
Pt1 Pt3 2.772220 1_455
Pt1 Pt2 2.772220 1_565
Pt1 Pt2 2.780613 1_555
Pt1 Pt3 2.780613 1_555
Pt1 Si0 2.862225 1_564
Pt1 Si0 2.862225 1_565
Pt2 Si0 2.676415 1_555
Pt2 Si0 2.676415 1_554
Pt2 Pt4 2.781931 1_554
Pt2 Pt4 2.781931 1_555
Pt2 Pt5 2.781931 1_555
Pt2 Pt5 2.781931 1_554
Pt3 Si0 2.676415 1_664
Pt3 Si0 2.676415 1_665
Pt3 Pt4 2.781931 1_655
Pt3 Pt4 2.781931 1_654
Pt3 Pt5 2.781931 1_565
Pt3 Pt5 2.781931 1_564
Pt4 Si0 2.771302 1_565
Pt4 Si0 2.771302 1_555
Pt5 Si0 2.771302 1_555
Pt5 Si0 2.771302 1_655
