# generated using pymatgen
data_Si2H2O3
_symmetry_space_group_name_H-M   'P 1'
_cell_length_a   10.29234696
_cell_length_b   10.29234696
_cell_length_c   14.30752245
_cell_angle_alpha   60.49835229
_cell_angle_beta   60.49835229
_cell_angle_gamma   50.41359471
_symmetry_Int_Tables_number   1
_chemical_formula_structural   Si2H2O3
_chemical_formula_sum   'Si20 H20 O30'
_cell_volume   979.87765626
_cell_formula_units_Z   10
loop_
 _symmetry_equiv_pos_site_id
 _symmetry_equiv_pos_as_xyz
  1  'x, y, z'
loop_
 _atom_site_type_symbol
 _atom_site_label
 _atom_site_symmetry_multiplicity
 _atom_site_fract_x
 _atom_site_fract_y
 _atom_site_fract_z
 _atom_site_occupancy
  Si  Si0  1  0.28876800  0.69483000  0.88524500  1
  Si  Si1  1  0.25679200  0.73843000  0.62385800  1
  Si  Si2  1  0.73843000  0.25679200  0.12385800  1
  Si  Si3  1  0.69483000  0.28876800  0.38524500  1
  Si  Si4  1  0.25410600  0.10307800  0.75629700  1
  Si  Si5  1  0.92894900  0.76047000  0.73062500  1
  Si  Si6  1  0.76047000  0.92894900  0.23062500  1
  Si  Si7  1  0.10307800  0.25410600  0.25629700  1
  Si  Si8  1  0.83496300  0.39494300  0.80194400  1
  Si  Si9  1  0.58932400  0.21245500  0.70382700  1
  Si  Si10  1  0.21245500  0.58932400  0.20382700  1
  Si  Si11  1  0.39494300  0.83496300  0.30194400  1
  Si  Si12  1  0.83583500  0.37094000  0.56207600  1
  Si  Si13  1  0.60808500  0.16711600  0.97038900  1
  Si  Si14  1  0.16711600  0.60808500  0.47038900  1
  Si  Si15  1  0.37094000  0.83583500  0.06207600  1
  Si  Si16  1  0.26097900  0.14166500  0.49609100  1
  Si  Si17  1  0.89467700  0.74288300  0.99702400  1
  Si  Si18  1  0.74288300  0.89467700  0.49702400  1
  Si  Si19  1  0.14166500  0.26097900  0.99609100  1
  H  H0  1  0.06296100  0.99101300  0.84738500  1
  H  H1  1  0.99101300  0.06296100  0.34738500  1
  H  H2  1  0.63409100  0.94774400  0.72345400  1
  H  H3  1  0.94774400  0.63409100  0.22345400  1
  H  H4  1  0.79599300  0.20108000  0.79101300  1
  H  H5  1  0.90811700  0.06192700  0.67644100  1
  H  H6  1  0.06192700  0.90811700  0.17644100  1
  H  H7  1  0.20108000  0.79599300  0.29101300  1
  H  H8  1  0.36514000  0.88516100  0.45003000  1
  H  H9  1  0.88516100  0.36514000  0.95003000  1
  H  H10  1  0.46659500  0.59757100  0.71558900  1
  H  H11  1  0.59757100  0.46659500  0.21558900  1
  H  H12  1  0.46221400  0.99486200  0.59871700  1
  H  H13  1  0.86523800  0.61142300  0.91817000  1
  H  H14  1  0.61142300  0.86523800  0.41817000  1
  H  H15  1  0.99486200  0.46221400  0.09871700  1
  H  H16  1  0.74243700  0.60097400  0.63309200  1
  H  H17  1  0.39328900  0.26646500  0.87389300  1
  H  H18  1  0.26646500  0.39328900  0.37389300  1
  H  H19  1  0.60097400  0.74243700  0.13309200  1
  O  O0  1  0.18798600  0.93608000  0.83721800  1
  O  O1  1  0.03740000  0.86605500  0.68901200  1
  O  O2  1  0.86605500  0.03740000  0.18901200  1
  O  O3  1  0.93608000  0.18798600  0.33721800  1
  O  O4  1  0.04930200  0.26500500  0.75247800  1
  O  O5  1  0.71150500  0.96949900  0.72710800  1
  O  O6  1  0.96949900  0.71150500  0.22710800  1
  O  O7  1  0.26500500  0.04930200  0.25247800  1
  O  O8  1  0.77130500  0.23519400  0.85510500  1
  O  O9  1  0.79820000  0.18790800  0.67780300  1
  O  O10  1  0.18790800  0.79820000  0.17780300  1
  O  O11  1  0.23519400  0.77130500  0.35510500  1
  O  O12  1  0.04759400  0.23901000  0.55303700  1
  O  O13  1  0.75643900  0.95837300  0.96858400  1
  O  O14  1  0.95837300  0.75643900  0.46858400  1
  O  O15  1  0.23901000  0.04759400  0.05303700  1
  O  O16  1  0.09305400  0.71666500  0.93996700  1
  O  O17  1  0.30699900  0.91988400  0.52197400  1
  O  O18  1  0.91988400  0.30699900  0.02197400  1
  O  O19  1  0.71666500  0.09305400  0.43996700  1
  O  O20  1  0.34046500  0.68381800  0.73262000  1
  O  O21  1  0.68381800  0.34046500  0.23262000  1
  O  O22  1  0.32886500  0.06974700  0.61818700  1
  O  O23  1  0.88823200  0.70668100  0.88300200  1
  O  O24  1  0.70668100  0.88823200  0.38300200  1
  O  O25  1  0.06974700  0.32886500  0.11818700  1
  O  O26  1  0.76885200  0.47908000  0.67251100  1
  O  O27  1  0.52249500  0.22093000  0.84265400  1
  O  O28  1  0.22093000  0.52249500  0.34265400  1
  O  O29  1  0.47908000  0.76885200  0.17251100  1
loop_
_geom_bond_atom_site_label_1
_geom_bond_atom_site_label_2
_geom_bond_distance
_geom_bond_site_symmetry_2
H0 O0 0.982896 1_555
H1 O3 0.982896 1_555
H2 O5 0.983689 1_555
H3 O6 0.983689 1_555
H4 O8 1.001322 1_555
H4 O9 1.678873 1_555
H5 O9 1.046493 1_555
H5 O1 1.525409 1_645
H6 O10 1.046493 1_555
H6 O2 1.525409 1_465
H7 O11 1.001322 1_555
H7 O10 1.678873 1_555
H8 O17 1.014122 1_555
H9 O18 1.014122 1_556
H10 O20 0.982561 1_555
H11 O21 0.982561 1_555
H12 O22 1.020813 1_565
H13 O23 0.981322 1_555
H14 O24 0.981322 1_555
H15 O25 1.020813 1_655
H16 O26 0.992667 1_555
H17 O27 1.007207 1_555
H18 O28 1.007207 1_555
H19 O29 0.992667 1_555
O0 Si0 1.858107 1_555
O0 Si4 1.874211 1_565
O1 Si5 1.742285 1_455
O1 Si1 1.745239 1_555
O2 Si6 1.742285 1_545
O2 Si2 1.745239 1_555
O3 Si3 1.858107 1_555
O3 Si7 1.874211 1_655
O4 Si4 1.664415 1_555
O4 Si8 1.670474 1_455
O5 Si5 1.872855 1_555
O5 Si9 1.878771 1_565
O6 Si6 1.872855 1_555
O6 Si10 1.878771 1_655
O7 Si7 1.664415 1_555
O7 Si11 1.670474 1_545
O8 Si8 1.833467 1_555
O8 Si13 1.914822 1_555
O9 Si9 1.853714 1_555
O9 Si12 1.914853 1_555
O10 Si10 1.853714 1_555
O10 Si15 1.914853 1_555
O11 Si11 1.833467 1_555
O11 Si14 1.914822 1_555
O12 Si16 1.651756 1_555
O12 Si12 1.653570 1_455
O13 Si17 1.663902 1_555
O13 Si13 1.668189 1_565
O14 Si18 1.663902 1_555
O14 Si14 1.668189 1_655
O15 Si19 1.651756 1_554
O15 Si15 1.653570 1_545
O16 Si0 1.662582 1_555
O16 Si17 1.667693 1_455
O17 Si16 1.879952 1_565
O17 Si1 1.920057 1_555
O18 Si19 1.879952 1_654
O18 Si2 1.920057 1_555
O19 Si3 1.662582 1_555
O19 Si18 1.667693 1_545
O20 Si1 1.822242 1_555
O20 Si0 2.021630 1_555
O21 Si2 1.822242 1_555
O21 Si3 2.021630 1_555
O22 Si16 1.832261 1_555
O22 Si4 1.856909 1_555
O23 Si5 1.855325 1_555
O23 Si17 1.881852 1_555
O24 Si6 1.855325 1_555
O24 Si18 1.881852 1_555
O25 Si19 1.832261 1_554
O25 Si7 1.856909 1_555
O26 Si8 1.884925 1_555
O26 Si12 1.972793 1_555
O27 Si9 1.781736 1_555
O27 Si13 2.095150 1_555
O28 Si10 1.781736 1_555
O28 Si14 2.095150 1_555
O29 Si11 1.884925 1_555
O29 Si15 1.972793 1_555
