# generated using pymatgen
data_KHgBr3O
_symmetry_space_group_name_H-M   'P 1'
_cell_length_a   9.24657599
_cell_length_b   9.24657599
_cell_length_c   9.60774100
_cell_angle_alpha   90.00000000
_cell_angle_beta   90.00000000
_cell_angle_gamma   152.33622450
_symmetry_Int_Tables_number   1
_chemical_formula_structural   KHgBr3O
_chemical_formula_sum   'K2 Hg2 Br6 O2'
_cell_volume   381.38638333
_cell_formula_units_Z   2
loop_
 _symmetry_equiv_pos_site_id
 _symmetry_equiv_pos_as_xyz
  1  'x, y, z'
loop_
 _atom_site_type_symbol
 _atom_site_label
 _atom_site_symmetry_multiplicity
 _atom_site_fract_x
 _atom_site_fract_y
 _atom_site_fract_z
 _atom_site_occupancy
  K  K0  1  0.26187800  0.73812200  0.85642300  1
  K  K1  1  0.73812200  0.26187800  0.35642300  1
  Hg  Hg0  1  0.99619800  0.00380200  0.71782800  1
  Hg  Hg1  1  0.00380200  0.99619800  0.21782800  1
  Br  Br0  1  0.11389800  0.88610200  0.52407600  1
  Br  Br1  1  0.88610200  0.11389800  0.02407600  1
  Br  Br2  1  0.85811400  0.14188600  0.64111600  1
  Br  Br3  1  0.14188600  0.85811400  0.14111600  1
  Br  Br4  1  0.45897400  0.54102600  0.36772700  1
  Br  Br5  1  0.54102600  0.45897400  0.86772700  1
  O  O0  1  0.21115600  0.78884400  0.57083000  1
  O  O1  1  0.78884400  0.21115600  0.07083000  1
loop_
_geom_bond_atom_site_label_1
_geom_bond_atom_site_label_2
_geom_bond_distance
_geom_bond_site_symmetry_2
K0 O0 2.891121 1_555
K0 O1 3.060189 1_566
K0 O1 3.060189 1_456
K1 O1 2.891121 1_555
K1 O0 3.060189 1_655
K1 O0 3.060189 1_545
Br0 O0 1.803294 1_555
Br0 Hg0 2.816423 1_465
Br0 K1 3.529490 1_565
Br0 K1 3.529490 1_455
Br1 O1 1.803294 1_555
Br1 Hg1 2.816423 1_645
Br1 K0 3.529490 1_654
Br1 K0 3.529490 1_544
Br2 Hg0 2.586777 1_555
Br2 K1 3.481994 1_555
Br2 K0 3.486016 1_545
Br2 K0 3.486016 1_655
Br3 Hg1 2.586777 1_555
Br3 K0 3.481994 1_554
Br3 K1 3.486016 1_455
Br3 K1 3.486016 1_565
Br4 Hg1 2.758432 1_655
Br4 Hg1 2.758432 1_545
Br5 Hg0 2.758432 1_565
Br5 Hg0 2.758432 1_455
