# generated using pymatgen
data_MoWSeS3
_symmetry_space_group_name_H-M   'P 1'
_cell_length_a   3.22254763
_cell_length_b   3.22254763
_cell_length_c   36.38927600
_cell_angle_alpha   90.00000000
_cell_angle_beta   90.00000000
_cell_angle_gamma   119.99999230
_symmetry_Int_Tables_number   1
_chemical_formula_structural   MoWSeS3
_chemical_formula_sum   'Mo2 W2 Se2 S6'
_cell_volume   327.26741726
_cell_formula_units_Z   2
loop_
 _symmetry_equiv_pos_site_id
 _symmetry_equiv_pos_as_xyz
  1  'x, y, z'
loop_
 _atom_site_type_symbol
 _atom_site_label
 _atom_site_symmetry_multiplicity
 _atom_site_fract_x
 _atom_site_fract_y
 _atom_site_fract_z
 _atom_site_occupancy
  Mo  Mo0  1  0.00000000  0.00000000  0.09389600  1
  Mo  Mo1  1  0.00000000  0.00000000  0.46966100  1
  W  W0  1  0.33333300  0.66666700  0.28178000  1
  W  W1  1  0.33333300  0.66666700  0.65754000  1
  Se  Se0  1  0.00000000  0.00000000  0.32908000  1
  Se  Se1  1  0.00000000  0.00000000  0.23452300  1
  S  S0  1  0.00000000  0.00000000  0.70044100  1
  S  S1  1  0.33333300  0.66666700  0.05118000  1
  S  S2  1  0.33333300  0.66666700  0.42696100  1
  S  S3  1  0.33333300  0.66666700  0.13664100  1
  S  S4  1  0.33333300  0.66666700  0.51239900  1
  S  S5  1  0.00000000  0.00000000  0.61464800  1
loop_
_geom_bond_atom_site_label_1
_geom_bond_atom_site_label_2
_geom_bond_distance
_geom_bond_site_symmetry_2
Mo0 S1 2.424411 1_545
Mo0 S1 2.424414 1_555
Mo0 S1 2.424414 1_445
Mo0 S3 2.425088 1_545
Mo0 S3 2.425090 1_445
Mo0 S3 2.425090 1_555
Mo1 S2 2.424038 1_545
Mo1 S2 2.424040 1_555
Mo1 S2 2.424040 1_445
Mo1 S4 2.424925 1_545
Mo1 S4 2.424927 1_555
Mo1 S4 2.424927 1_445
Se0 W0 2.534595 1_545
Se0 W0 2.534597 1_445
Se0 W0 2.534597 1_555
Se1 W0 2.533532 1_545
Se1 W0 2.533535 1_445
Se1 W0 2.533535 1_555
S0 W1 2.428733 1_545
S0 W1 2.428735 1_445
S0 W1 2.428735 1_555
S5 W1 2.428522 1_545
S5 W1 2.428525 1_445
S5 W1 2.428525 1_555
