# generated using pymatgen
data_La4Sm4Co7AgO24
_symmetry_space_group_name_H-M   'P 1'
_cell_length_a   7.68170793
_cell_length_b   7.68170793
_cell_length_c   7.65461957
_cell_angle_alpha   89.89740101
_cell_angle_beta   89.89740101
_cell_angle_gamma   90.06090552
_symmetry_Int_Tables_number   1
_chemical_formula_structural   La4Sm4Co7AgO24
_chemical_formula_sum   'La4 Sm4 Co7 Ag1 O24'
_cell_volume   451.68696022
_cell_formula_units_Z   1
loop_
 _symmetry_equiv_pos_site_id
 _symmetry_equiv_pos_as_xyz
  1  'x, y, z'
loop_
 _atom_site_type_symbol
 _atom_site_label
 _atom_site_symmetry_multiplicity
 _atom_site_fract_x
 _atom_site_fract_y
 _atom_site_fract_z
 _atom_site_occupancy
  La  La0  1  0.74856200  0.25166700  0.24774300  1
  La  La1  1  0.25187600  0.25187600  0.24733600  1
  La  La2  1  0.25166700  0.74856200  0.24774300  1
  La  La3  1  0.74829700  0.74829700  0.75222500  1
  Sm  Sm0  1  0.74793300  0.74793300  0.24739500  1
  Sm  Sm1  1  0.74793500  0.25168800  0.75261500  1
  Sm  Sm2  1  0.25182100  0.25182100  0.75206500  1
  Sm  Sm3  1  0.25168800  0.74793500  0.75261500  1
  Co  Co0  1  0.99998400  0.49996000  0.99911100  1
  Co  Co1  1  0.49986000  0.49986000  0.99874000  1
  Co  Co2  1  0.99995700  0.99995700  0.99927000  1
  Co  Co3  1  0.49996000  0.99998400  0.99911100  1
  Co  Co4  1  0.00014100  0.49995700  0.49991900  1
  Co  Co5  1  0.50001300  0.50001300  0.50028800  1
  Co  Co6  1  0.49995700  0.00014100  0.49991900  1
  Ag  Ag0  1  0.00005900  0.00005900  0.49964700  1
  O  O0  1  0.99754700  0.50217500  0.24909800  1
  O  O1  1  0.50307500  0.50307500  0.25124700  1
  O  O2  1  0.99708300  0.99708300  0.23785100  1
  O  O3  1  0.50217500  0.99754700  0.24909800  1
  O  O4  1  0.00235600  0.49793100  0.75083600  1
  O  O5  1  0.49706800  0.49706800  0.74812100  1
  O  O6  1  0.00286500  0.00286500  0.76140100  1
  O  O7  1  0.49793100  0.00235600  0.75083600  1
  O  O8  1  0.00001300  0.25090200  0.99544200  1
  O  O9  1  0.50070700  0.24605700  0.99488100  1
  O  O10  1  0.00007900  0.74907700  0.99956200  1
  O  O11  1  0.49950100  0.75399300  0.00039300  1
  O  O12  1  0.99989500  0.26232000  0.50650000  1
  O  O13  1  0.50000900  0.25174500  0.50502200  1
  O  O14  1  0.99998600  0.73771500  0.50087400  1
  O  O15  1  0.49984000  0.74828000  0.50022200  1
  O  O16  1  0.75399300  0.49950100  0.00039300  1
  O  O17  1  0.24605700  0.50070700  0.99488100  1
  O  O18  1  0.74907700  0.00007900  0.99956200  1
  O  O19  1  0.25090200  0.00001300  0.99544200  1
  O  O20  1  0.74828000  0.49984000  0.50022200  1
  O  O21  1  0.25174500  0.50000900  0.50502200  1
  O  O22  1  0.73771500  0.99998600  0.50087400  1
  O  O23  1  0.26232000  0.99989500  0.50650000  1
loop_
_geom_bond_atom_site_label_1
_geom_bond_atom_site_label_2
_geom_bond_distance
_geom_bond_site_symmetry_2
La0 O16 2.682842 1_555
La0 O1 2.700788 1_555
La0 O0 2.711756 1_555
La0 O18 2.712411 1_554
La0 O20 2.717092 1_555
La0 O3 2.717521 1_545
La0 O9 2.717831 1_554
La0 O8 2.729013 1_654
La0 O2 2.735460 1_545
La0 O22 2.735834 1_545
La0 O13 2.740518 1_555
La0 O12 2.769698 1_555
La1 O9 2.716108 1_554
La1 O17 2.716108 1_554
La1 O1 2.727709 1_555
La1 O19 2.733939 1_554
La1 O8 2.733939 1_554
La1 O0 2.742609 1_455
La1 O3 2.742609 1_545
La1 O13 2.745421 1_555
La1 O21 2.745421 1_555
La1 O2 2.767628 1_445
La1 O12 2.770519 1_455
La1 O23 2.770519 1_545
La2 O11 2.682842 1_555
La2 O1 2.700788 1_555
La2 O3 2.711756 1_555
La2 O10 2.712411 1_554
La2 O15 2.717092 1_555
La2 O0 2.717521 1_455
La2 O17 2.717831 1_554
La2 O19 2.729013 1_564
La2 O2 2.735460 1_455
La2 O14 2.735834 1_455
La2 O21 2.740518 1_555
La2 O23 2.769698 1_555
La3 O11 2.692692 1_556
La3 O16 2.692692 1_556
La3 O18 2.708956 1_565
La3 O10 2.708956 1_655
La3 O20 2.716032 1_555
La3 O15 2.716032 1_555
La3 O14 2.726533 1_555
La3 O22 2.726533 1_555
La3 O5 2.728055 1_555
La3 O7 2.741479 1_565
La3 O4 2.741479 1_655
La3 O6 2.765119 1_665
Co0 O16 1.889638 1_556
Co0 O17 1.890483 1_655
Co0 O4 1.900597 1_655
Co0 O8 1.913447 1_655
Co0 O10 1.913653 1_655
Co0 O0 1.913720 1_556
Co1 O5 1.918709 1_555
Co1 O1 1.933249 1_556
Co1 O9 1.949935 1_555
Co1 O17 1.949935 1_555
Co1 O16 1.952244 1_556
Co1 O11 1.952244 1_556
Co2 O6 1.820990 1_665
Co2 O2 1.826434 1_556
Co2 O18 1.927185 1_565
Co2 O10 1.927185 1_655
Co2 O8 1.927856 1_665
Co2 O19 1.927856 1_665
Co3 O11 1.889638 1_556
Co3 O9 1.890483 1_565
Co3 O7 1.900597 1_565
Co3 O19 1.913447 1_565
Co3 O18 1.913653 1_565
Co3 O3 1.913720 1_556
Co4 O12 1.826062 1_455
Co4 O14 1.826417 1_455
Co4 O0 1.920124 1_455
Co4 O4 1.920815 1_555
Co4 O21 1.933213 1_555
Co4 O20 1.934719 1_455
Co5 O5 1.897256 1_555
Co5 O1 1.906520 1_555
Co5 O15 1.907116 1_555
Co5 O20 1.907116 1_555
Co5 O21 1.907402 1_555
Co5 O13 1.907402 1_555
Co6 O23 1.826062 1_545
Co6 O22 1.826417 1_545
Co6 O3 1.920124 1_545
Co6 O7 1.920815 1_555
Co6 O13 1.933213 1_555
Co6 O15 1.934719 1_545
Ag0 O6 2.003936 1_555
Ag0 O2 2.004291 1_445
Ag0 O22 2.015255 1_445
Ag0 O14 2.015255 1_445
Ag0 O12 2.015391 1_455
Ag0 O23 2.015391 1_545
O0 Sm0 2.692299 1_555
O1 Sm0 2.658708 1_555
O2 Sm0 2.706022 1_555
O3 Sm0 2.692299 1_555
O4 Sm2 2.693367 1_555
O4 Sm3 2.710916 1_555
O4 Sm1 2.718418 1_455
O5 Sm2 2.662938 1_555
O5 Sm3 2.697326 1_555
O5 Sm1 2.697326 1_555
O6 Sm2 2.703878 1_555
O6 Sm1 2.738762 1_455
O6 Sm3 2.738762 1_545
O7 Sm2 2.693367 1_555
O7 Sm1 2.710916 1_555
O7 Sm3 2.718418 1_545
O8 Sm2 2.683143 1_555
O8 Sm1 2.686533 1_455
O9 Sm1 2.652264 1_555
O9 Sm2 2.669166 1_555
O10 Sm3 2.701098 1_555
O10 Sm0 2.708748 1_456
O11 Sm0 2.689174 1_555
O11 Sm3 2.690035 1_554
O12 Sm1 2.699622 1_555
O12 Sm2 2.701426 1_655
O13 Sm2 2.682876 1_555
O13 Sm1 2.689224 1_555
O14 Sm3 2.733388 1_655
O14 Sm0 2.744624 1_555
O15 Sm3 2.711646 1_555
O15 Sm0 2.713703 1_555
O16 Sm0 2.689174 1_555
O16 Sm1 2.690035 1_554
O17 Sm3 2.652264 1_555
O17 Sm2 2.669166 1_555
O18 Sm1 2.701098 1_555
O18 Sm0 2.708748 1_546
O19 Sm2 2.683143 1_555
O19 Sm3 2.686533 1_545
O20 Sm1 2.711646 1_555
O20 Sm0 2.713703 1_555
O21 Sm2 2.682876 1_555
O21 Sm3 2.689224 1_555
O22 Sm1 2.733388 1_565
O22 Sm0 2.744624 1_555
O23 Sm3 2.699622 1_555
O23 Sm2 2.701426 1_565
