# generated using pymatgen
data_Ca2Zn3Ga
_symmetry_space_group_name_H-M   'P 1'
_cell_length_a   5.72475617
_cell_length_b   5.72475617
_cell_length_c   7.29801771
_cell_angle_alpha   50.74889384
_cell_angle_beta   50.74889384
_cell_angle_gamma   45.87201473
_symmetry_Int_Tables_number   1
_chemical_formula_structural   Ca2Zn3Ga
_chemical_formula_sum   'Ca2 Zn3 Ga1'
_cell_volume   124.74492792
_cell_formula_units_Z   1
loop_
 _symmetry_equiv_pos_site_id
 _symmetry_equiv_pos_as_xyz
  1  'x, y, z'
loop_
 _atom_site_type_symbol
 _atom_site_label
 _atom_site_symmetry_multiplicity
 _atom_site_fract_x
 _atom_site_fract_y
 _atom_site_fract_z
 _atom_site_occupancy
  Ca  Ca0  1  0.45602366  0.45602366  0.79477584  1
  Ca  Ca1  1  0.54456658  0.54456658  0.20354226  1
  Zn  Zn0  1  0.16204866  0.16204866  0.38930141  1
  Zn  Zn1  1  0.16552468  0.16552468  0.78138320  1
  Zn  Zn2  1  0.83562244  0.83562244  0.22572352  1
  Ga  Ga0  1  0.83621298  0.83621298  0.60527376  1
loop_
_geom_bond_atom_site_label_1
_geom_bond_atom_site_label_2
_geom_bond_distance
_geom_bond_site_symmetry_2
Ca0 Zn1 3.093528 1_655
Ca0 Zn1 3.093528 1_565
Ca0 Zn0 3.101595 1_565
Ca0 Zn0 3.101595 1_655
Ca0 Zn1 3.131071 1_555
Ca0 Zn0 3.154950 1_556
Ca0 Ga0 3.219523 1_555
Ca0 Zn2 3.229111 1_555
Ca0 Ga0 3.299474 1_545
Ca0 Ga0 3.299474 1_455
Ca0 Zn2 3.315707 1_546
Ca0 Zn2 3.315707 1_456
Ca1 Zn2 3.060600 1_455
Ca1 Zn2 3.060600 1_545
Ca1 Ga0 3.090127 1_545
Ca1 Ga0 3.090127 1_455
Ca1 Ga0 3.173458 1_554
Ca1 Zn2 3.182378 1_555
Ca1 Zn0 3.254645 1_555
Ca1 Zn1 3.255504 1_555
Ca1 Zn0 3.264525 1_565
Ca1 Zn0 3.264525 1_655
Ca1 Zn1 3.270559 1_564
Ca1 Zn1 3.270559 1_654
Zn0 Zn2 2.598033 1_455
Zn0 Zn2 2.598033 1_545
Zn0 Zn1 2.886724 1_555
Zn1 Zn2 2.667639 1_446
Ga0 Zn1 2.586463 1_565
Ga0 Zn1 2.586463 1_655
Ga0 Zn0 2.616768 1_665
Ga0 Zn2 2.774246 1_555
