# generated using pymatgen
data_Ce2Mn3Si4Pd
_symmetry_space_group_name_H-M   'P 1'
_cell_length_a   4.03298600
_cell_length_b   4.03298600
_cell_length_c   10.34013400
_cell_angle_alpha   90.00000000
_cell_angle_beta   90.00000000
_cell_angle_gamma   90.00000000
_symmetry_Int_Tables_number   1
_chemical_formula_structural   Ce2Mn3Si4Pd
_chemical_formula_sum   'Ce2 Mn3 Si4 Pd1'
_cell_volume   168.18203213
_cell_formula_units_Z   1
loop_
 _symmetry_equiv_pos_site_id
 _symmetry_equiv_pos_as_xyz
  1  'x, y, z'
loop_
 _atom_site_type_symbol
 _atom_site_label
 _atom_site_symmetry_multiplicity
 _atom_site_fract_x
 _atom_site_fract_y
 _atom_site_fract_z
 _atom_site_occupancy
  Ce  Ce0  1  0.50000000  0.00000000  0.74510400  1
  Ce  Ce1  1  0.00000000  0.50000000  0.25489600  1
  Mn  Mn0  1  0.00000000  0.00000000  0.50000000  1
  Mn  Mn1  1  0.00000000  0.00000000  0.00000000  1
  Mn  Mn2  1  0.50000000  0.50000000  0.50000000  1
  Si  Si0  1  0.00000000  0.50000000  0.86173900  1
  Si  Si1  1  0.50000000  0.00000000  0.37184400  1
  Si  Si2  1  0.50000000  0.00000000  0.13826100  1
  Si  Si3  1  0.00000000  0.50000000  0.62815600  1
  Pd  Pd0  1  0.50000000  0.50000000  0.00000000  1
loop_
_geom_bond_atom_site_label_1
_geom_bond_atom_site_label_2
_geom_bond_distance
_geom_bond_site_symmetry_2
Ce0 Si0 3.096284 1_645
Ce0 Si0 3.096284 1_545
Ce0 Si0 3.096284 1_555
Ce0 Si0 3.096284 1_655
Ce0 Si3 3.097546 1_645
Ce0 Si3 3.097546 1_545
Ce0 Si3 3.097546 1_555
Ce0 Si3 3.097546 1_655
Ce0 Mn0 3.238745 1_555
Ce0 Mn2 3.238745 1_545
Ce0 Mn0 3.238745 1_655
Ce0 Mn2 3.238745 1_555
Ce0 Pd0 3.318575 1_556
Ce0 Mn1 3.318575 1_656
Ce0 Mn1 3.318575 1_556
Ce0 Pd0 3.318575 1_546
Ce1 Si2 3.096284 1_565
Ce1 Si2 3.096284 1_555
Ce1 Si2 3.096284 1_455
Ce1 Si2 3.096284 1_465
Ce1 Si1 3.097546 1_565
Ce1 Si1 3.097546 1_555
Ce1 Si1 3.097546 1_465
Ce1 Si1 3.097546 1_455
Ce1 Mn0 3.238745 1_555
Ce1 Mn2 3.238745 1_455
Ce1 Mn0 3.238745 1_565
Ce1 Mn2 3.238745 1_555
Ce1 Pd0 3.318575 1_555
Ce1 Mn1 3.318575 1_565
Ce1 Mn1 3.318575 1_555
Ce1 Pd0 3.318575 1_455
Mn0 Si3 2.412937 1_545
Mn0 Si3 2.412937 1_555
Mn0 Si1 2.412937 1_455
Mn0 Si1 2.412937 1_555
Mn1 Si2 2.471863 1_455
Mn1 Si2 2.471863 1_555
Mn1 Si0 2.471863 1_544
Mn1 Si0 2.471863 1_554
Mn1 Pd0 2.851752 1_445
Mn1 Pd0 2.851752 1_545
Mn1 Pd0 2.851752 1_455
Mn1 Pd0 2.851752 1_555
Mn2 Si3 2.412937 1_655
Mn2 Si3 2.412937 1_555
Mn2 Si1 2.412937 1_565
Mn2 Si1 2.412937 1_555
Si0 Si3 2.415280 1_555
Si1 Si2 2.415280 1_555
Pd0 Si2 2.471863 1_565
Pd0 Si2 2.471863 1_555
Pd0 Si0 2.471863 1_654
Pd0 Si0 2.471863 1_554
