# generated using pymatgen
data_Ti6Al16Rh7
_symmetry_space_group_name_H-M   'P 1'
_cell_length_a   8.57518010
_cell_length_b   8.57518010
_cell_length_c   8.57518010
_cell_angle_alpha   60.00000000
_cell_angle_beta   60.00000000
_cell_angle_gamma   60.00000000
_symmetry_Int_Tables_number   1
_chemical_formula_structural   Ti6Al16Rh7
_chemical_formula_sum   'Ti6 Al16 Rh7'
_cell_volume   445.87667381
_cell_formula_units_Z   1
loop_
 _symmetry_equiv_pos_site_id
 _symmetry_equiv_pos_as_xyz
  1  'x, y, z'
loop_
 _atom_site_type_symbol
 _atom_site_label
 _atom_site_symmetry_multiplicity
 _atom_site_fract_x
 _atom_site_fract_y
 _atom_site_fract_z
 _atom_site_occupancy
  Ti  Ti0  1  0.67800100  0.67800100  0.32199900  1
  Ti  Ti1  1  0.32199900  0.67800100  0.32199900  1
  Ti  Ti2  1  0.67800100  0.32199900  0.32199900  1
  Ti  Ti3  1  0.32199900  0.32199900  0.67800100  1
  Ti  Ti4  1  0.67800100  0.32199900  0.67800100  1
  Ti  Ti5  1  0.32199900  0.67800100  0.67800100  1
  Al  Al0  1  0.87978600  0.87978700  0.36064100  1
  Al  Al1  1  0.87978700  0.36064100  0.87978600  1
  Al  Al2  1  0.36064000  0.87978700  0.87978600  1
  Al  Al3  1  0.87978600  0.87978600  0.87978700  1
  Al  Al4  1  0.12021300  0.12021400  0.63935900  1
  Al  Al5  1  0.12021300  0.63935900  0.12021400  1
  Al  Al6  1  0.63935900  0.12021300  0.12021400  1
  Al  Al7  1  0.12021400  0.12021400  0.12021300  1
  Al  Al8  1  0.65766300  0.65766300  0.02701000  1
  Al  Al9  1  0.65766300  0.02701000  0.65766300  1
  Al  Al10  1  0.02701000  0.65766300  0.65766300  1
  Al  Al11  1  0.65766300  0.65766300  0.65766300  1
  Al  Al12  1  0.34233700  0.34233700  0.97299000  1
  Al  Al13  1  0.34233700  0.97299000  0.34233700  1
  Al  Al14  1  0.97299000  0.34233700  0.34233700  1
  Al  Al15  1  0.34233700  0.34233700  0.34233700  1
  Rh  Rh0  1  0.00000000  0.00000000  0.00000000  1
  Rh  Rh1  1  0.00000000  0.00000000  0.50000000  1
  Rh  Rh2  1  0.50000000  0.00000000  0.50000000  1
  Rh  Rh3  1  0.00000000  0.50000000  0.50000000  1
  Rh  Rh4  1  0.50000000  0.50000000  0.00000000  1
  Rh  Rh5  1  0.00000000  0.50000000  0.00000000  1
  Rh  Rh6  1  0.50000000  0.00000000  0.00000000  1
loop_
_geom_bond_atom_site_label_1
_geom_bond_atom_site_label_2
_geom_bond_distance
_geom_bond_site_symmetry_2
Ti0 Ti4 3.052781 1_555
Ti0 Ti1 3.052781 1_555
Ti0 Ti2 3.052781 1_555
Ti0 Ti5 3.052781 1_555
Ti1 Ti3 3.052781 1_555
Ti1 Ti2 3.052781 1_555
Ti1 Ti5 3.052781 1_555
Ti2 Ti3 3.052781 1_555
Ti2 Ti4 3.052781 1_555
Ti3 Ti4 3.052781 1_555
Ti3 Ti5 3.052781 1_555
Ti4 Ti5 3.052781 1_555
Al0 Rh0 2.525066 1_665
Al0 Rh2 2.660801 1_565
Al0 Rh1 2.660801 1_665
Al0 Rh3 2.660807 1_655
Al0 Ti2 3.199812 1_565
Al0 Ti0 3.199820 1_555
Al0 Ti1 3.199820 1_655
Al1 Rh0 2.525066 1_656
Al1 Rh3 2.660801 1_655
Al1 Rh5 2.660801 1_656
Al1 Rh4 2.660807 1_556
Al1 Ti3 3.199812 1_655
Al1 Ti2 3.199820 1_556
Al1 Ti4 3.199820 1_555
Al2 Rh0 2.525059 1_566
Al2 Rh2 2.660801 1_565
Al2 Rh4 2.660808 1_556
Al2 Rh6 2.660808 1_566
Al2 Ti3 3.199814 1_565
Al2 Ti5 3.199814 1_555
Al2 Ti1 3.199822 1_556
Al3 Rh0 2.525066 1_666
Al3 Rh6 2.660801 1_566
Al3 Rh5 2.660801 1_656
Al3 Rh1 2.660807 1_665
Al3 Ti0 3.199812 1_556
Al3 Ti4 3.199820 1_565
Al3 Ti5 3.199820 1_655
Al4 Rh0 2.525066 1_556
Al4 Rh1 2.660801 1_555
Al4 Rh3 2.660801 1_555
Al4 Rh2 2.660807 1_555
Al4 Ti4 3.199812 1_455
Al4 Ti3 3.199820 1_555
Al4 Ti5 3.199820 1_545
Al5 Rh0 2.525066 1_565
Al5 Rh5 2.660801 1_555
Al5 Rh3 2.660801 1_555
Al5 Rh4 2.660807 1_555
Al5 Ti0 3.199812 1_455
Al5 Ti1 3.199820 1_555
Al5 Ti5 3.199820 1_554
Al6 Rh0 2.525066 1_655
Al6 Rh2 2.660801 1_555
Al6 Rh6 2.660801 1_555
Al6 Rh4 2.660807 1_555
Al6 Ti0 3.199812 1_545
Al6 Ti2 3.199820 1_555
Al6 Ti4 3.199820 1_554
Al7 Rh0 2.525066 1_555
Al7 Rh6 2.660801 1_555
Al7 Rh5 2.660801 1_555
Al7 Rh1 2.660807 1_555
Al7 Ti3 3.199812 1_554
Al7 Ti1 3.199820 1_545
Al7 Ti2 3.199820 1_455
Al8 Rh4 2.482650 1_555
Al8 Rh5 2.482657 1_655
Al8 Rh6 2.482657 1_565
Al8 Ti2 2.715206 1_555
Al8 Ti1 2.715206 1_555
Al8 Ti0 2.715211 1_555
Al9 Rh2 2.482650 1_555
Al9 Rh1 2.482657 1_655
Al9 Rh6 2.482657 1_556
Al9 Ti3 2.715206 1_555
Al9 Ti2 2.715206 1_555
Al9 Ti4 2.715211 1_555
Al10 Rh3 2.482650 1_555
Al10 Rh5 2.482657 1_556
Al10 Rh1 2.482657 1_565
Al10 Ti3 2.715206 1_555
Al10 Ti1 2.715206 1_555
Al10 Ti5 2.715211 1_555
Al11 Rh2 2.482655 1_565
Al11 Rh4 2.482655 1_556
Al11 Rh3 2.482655 1_655
Al11 Ti5 2.715203 1_555
Al11 Ti0 2.715203 1_555
Al11 Ti4 2.715203 1_555
Al12 Rh4 2.482650 1_556
Al12 Rh6 2.482657 1_556
Al12 Rh5 2.482657 1_556
Al12 Ti5 2.715206 1_555
Al12 Ti4 2.715206 1_555
Al12 Ti3 2.715211 1_555
Al13 Rh2 2.482650 1_565
Al13 Rh1 2.482657 1_565
Al13 Rh6 2.482657 1_565
Al13 Ti5 2.715206 1_555
Al13 Ti0 2.715206 1_555
Al13 Ti1 2.715211 1_555
Al14 Rh3 2.482650 1_655
Al14 Rh5 2.482657 1_655
Al14 Rh1 2.482657 1_655
Al14 Ti4 2.715206 1_555
Al14 Ti0 2.715206 1_555
Al14 Ti2 2.715211 1_555
Al15 Rh3 2.482655 1_555
Al15 Rh4 2.482655 1_555
Al15 Rh2 2.482655 1_555
Al15 Ti3 2.715203 1_555
Al15 Ti2 2.715203 1_555
Al15 Ti1 2.715203 1_555
Rh1 Ti4 3.155010 1_455
Rh1 Ti5 3.155010 1_545
Rh1 Ti1 3.155010 1_545
Rh1 Ti2 3.155010 1_455
Rh2 Ti3 3.155010 1_555
Rh2 Ti2 3.155010 1_555
Rh2 Ti5 3.155010 1_545
Rh2 Ti0 3.155010 1_545
Rh3 Ti1 3.155010 1_555
Rh3 Ti3 3.155010 1_555
Rh3 Ti4 3.155010 1_455
Rh3 Ti0 3.155010 1_455
Rh4 Ti1 3.155010 1_555
Rh4 Ti2 3.155010 1_555
Rh4 Ti4 3.155010 1_554
Rh4 Ti5 3.155010 1_554
Rh5 Ti0 3.155010 1_455
Rh5 Ti5 3.155010 1_554
Rh5 Ti3 3.155010 1_554
Rh5 Ti2 3.155010 1_455
Rh6 Ti4 3.155010 1_554
Rh6 Ti0 3.155010 1_545
Rh6 Ti1 3.155010 1_545
Rh6 Ti3 3.155010 1_554
