# generated using pymatgen
data_CeZnAgP2
_symmetry_space_group_name_H-M   'P 1'
_cell_length_a   4.17054309
_cell_length_b   4.17054309
_cell_length_c   6.74151200
_cell_angle_alpha   90.00000000
_cell_angle_beta   90.00000000
_cell_angle_gamma   119.99998555
_symmetry_Int_Tables_number   1
_chemical_formula_structural   CeZnAgP2
_chemical_formula_sum   'Ce1 Zn1 Ag1 P2'
_cell_volume   101.54843437
_cell_formula_units_Z   1
loop_
 _symmetry_equiv_pos_site_id
 _symmetry_equiv_pos_as_xyz
  1  'x, y, z'
loop_
 _atom_site_type_symbol
 _atom_site_label
 _atom_site_symmetry_multiplicity
 _atom_site_fract_x
 _atom_site_fract_y
 _atom_site_fract_z
 _atom_site_occupancy
  Ce  Ce0  1  0.33333300  0.66666700  0.00696700  1
  Zn  Zn0  1  0.66666700  0.33333300  0.63043600  1
  Ag  Ag0  1  0.00000000  0.00000000  0.36408600  1
  P  P0  1  0.00000000  0.00000000  0.75225500  1
  P  P1  1  0.66666700  0.33333300  0.24625700  1
loop_
_geom_bond_atom_site_label_1
_geom_bond_atom_site_label_2
_geom_bond_distance
_geom_bond_site_symmetry_2
Ce0 P1 2.898299 1_565
Ce0 P1 2.898299 1_455
Ce0 P1 2.898305 1_555
Ce0 P0 2.957428 1_564
Ce0 P0 2.957431 1_554
Ce0 P0 2.957431 1_664
Ag0 P1 2.535504 1_455
Ag0 P1 2.535508 1_555
Ag0 P1 2.535508 1_445
Ag0 P0 2.616846 1_555
P0 Zn0 2.544060 1_455
P0 Zn0 2.544064 1_445
P0 Zn0 2.544064 1_555
P1 Zn0 2.589947 1_555
