# generated using pymatgen
data_Tm3Co11B4
_symmetry_space_group_name_H-M   'P 1'
_cell_length_a   4.97866100
_cell_length_b   4.97866133
_cell_length_c   9.71878100
_cell_angle_alpha   90.00000000
_cell_angle_beta   90.00000000
_cell_angle_gamma   120.00000442
_symmetry_Int_Tables_number   1
_chemical_formula_structural   Tm3Co11B4
_chemical_formula_sum   'Tm3 Co11 B4'
_cell_volume   208.62557626
_cell_formula_units_Z   1
loop_
 _symmetry_equiv_pos_site_id
 _symmetry_equiv_pos_as_xyz
  1  'x, y, z'
loop_
 _atom_site_type_symbol
 _atom_site_label
 _atom_site_symmetry_multiplicity
 _atom_site_fract_x
 _atom_site_fract_y
 _atom_site_fract_z
 _atom_site_occupancy
  Tm  Tm0  1  0.00000000  0.00000000  0.00000000  1
  Tm  Tm1  1  0.00000000  0.00000000  0.65841400  1
  Tm  Tm2  1  0.00000000  0.00000000  0.34158600  1
  Co  Co0  1  0.66666700  0.33333300  0.00000000  1
  Co  Co1  1  0.33333300  0.66666700  0.00000000  1
  Co  Co2  1  0.50000000  0.50000000  0.50000000  1
  Co  Co3  1  0.50000000  0.00000000  0.50000000  1
  Co  Co4  1  0.00000000  0.50000000  0.50000000  1
  Co  Co5  1  0.50000000  0.50000000  0.79773100  1
  Co  Co6  1  0.50000000  0.00000000  0.79773100  1
  Co  Co7  1  0.00000000  0.50000000  0.79773100  1
  Co  Co8  1  0.50000000  0.50000000  0.20226900  1
  Co  Co9  1  0.50000000  0.00000000  0.20226900  1
  Co  Co10  1  0.00000000  0.50000000  0.20226900  1
  B  B0  1  0.66666700  0.33333300  0.65001300  1
  B  B1  1  0.33333300  0.66666700  0.65001300  1
  B  B2  1  0.33333300  0.66666700  0.34998700  1
  B  B3  1  0.66666700  0.33333300  0.34998700  1
loop_
_geom_bond_atom_site_label_1
_geom_bond_atom_site_label_2
_geom_bond_distance
_geom_bond_site_symmetry_2
Co0 Co10 2.435156 1_655
Co0 Co7 2.435156 1_654
Co0 Co9 2.435156 1_555
Co0 Co6 2.435156 1_554
Co0 Co5 2.435159 1_554
Co0 Co8 2.435159 1_555
Co0 Tm0 2.874429 1_655
Co0 Tm0 2.874433 1_555
Co0 Tm0 2.874433 1_665
Co1 Co10 2.435156 1_555
Co1 Co7 2.435156 1_554
Co1 Co9 2.435156 1_565
Co1 Co6 2.435156 1_564
Co1 Co8 2.435159 1_555
Co1 Co5 2.435159 1_554
Co1 Tm0 2.874429 1_565
Co1 Tm0 2.874433 1_665
Co1 Tm0 2.874433 1_555
Co2 Tm1 2.926962 1_665
Co2 Tm1 2.926962 1_555
Co2 Tm2 2.926962 1_555
Co2 Tm2 2.926962 1_665
Co3 Tm1 2.926962 1_655
Co3 Tm1 2.926962 1_555
Co3 Tm2 2.926962 1_555
Co3 Tm2 2.926962 1_655
Co4 Tm1 2.926962 1_555
Co4 Tm1 2.926962 1_565
Co4 Tm2 2.926962 1_555
Co4 Tm2 2.926962 1_565
Co5 Tm1 2.833736 1_665
Co5 Tm1 2.833736 1_555
Co6 Tm1 2.833736 1_655
Co6 Tm1 2.833736 1_555
Co7 Tm1 2.833736 1_565
Co7 Tm1 2.833736 1_555
Co8 Tm2 2.833736 1_555
Co8 Tm2 2.833736 1_665
Co9 Tm2 2.833736 1_655
Co9 Tm2 2.833736 1_555
Co10 Tm2 2.833736 1_565
Co10 Tm2 2.833736 1_555
B0 Co7 2.031414 1_655
B0 Co6 2.031414 1_555
B0 Co5 2.031417 1_555
B0 Co4 2.047238 1_655
B0 Co3 2.047238 1_555
B0 Co2 2.047241 1_555
B0 Tm1 2.875588 1_655
B0 Tm1 2.875592 1_555
B0 Tm1 2.875592 1_665
B1 Co7 2.031414 1_555
B1 Co6 2.031414 1_565
B1 Co5 2.031417 1_555
B1 Co4 2.047238 1_555
B1 Co3 2.047238 1_565
B1 Co2 2.047241 1_555
B1 Tm1 2.875588 1_565
B1 Tm1 2.875592 1_665
B1 Tm1 2.875592 1_555
B2 Co10 2.031414 1_555
B2 Co9 2.031414 1_565
B2 Co8 2.031417 1_555
B2 Co4 2.047238 1_555
B2 Co3 2.047238 1_565
B2 Co2 2.047241 1_555
B2 Tm2 2.875588 1_565
B2 Tm2 2.875592 1_665
B2 Tm2 2.875592 1_555
B3 Co10 2.031414 1_655
B3 Co9 2.031414 1_555
B3 Co8 2.031417 1_555
B3 Co4 2.047238 1_655
B3 Co3 2.047238 1_555
B3 Co2 2.047241 1_555
B3 Tm2 2.875588 1_655
B3 Tm2 2.875592 1_555
B3 Tm2 2.875592 1_665
