# generated using pymatgen
data_H11CSO8F3
_symmetry_space_group_name_H-M   'P 1'
_cell_length_a   8.03829754
_cell_length_b   9.10367851
_cell_length_c   10.32860298
_cell_angle_alpha   70.51165333
_cell_angle_beta   119.41879551
_cell_angle_gamma   85.42163412
_symmetry_Int_Tables_number   1
_chemical_formula_structural   H11CSO8F3
_chemical_formula_sum   'H22 C2 S2 O16 F6'
_cell_volume   592.68687895
_cell_formula_units_Z   2
loop_
 _symmetry_equiv_pos_site_id
 _symmetry_equiv_pos_as_xyz
  1  'x, y, z'
loop_
 _atom_site_type_symbol
 _atom_site_label
 _atom_site_symmetry_multiplicity
 _atom_site_fract_x
 _atom_site_fract_y
 _atom_site_fract_z
 _atom_site_occupancy
  H  H0  1  0.15515000  0.32598700  0.76142400  1
  H  H1  1  0.84485000  0.67401300  0.23857600  1
  H  H2  1  0.13245600  0.11884400  0.76079200  1
  H  H3  1  0.86754400  0.88115600  0.23920800  1
  H  H4  1  0.92588500  0.27177900  0.62785200  1
  H  H5  1  0.07411500  0.72822100  0.37214800  1
  H  H6  1  0.32986800  0.89914300  0.78866200  1
  H  H7  1  0.67013200  0.10085700  0.21133800  1
  H  H8  1  0.34174000  0.87286500  0.95253000  1
  H  H9  1  0.65826000  0.12713500  0.04747000  1
  H  H10  1  0.41119300  0.41004200  0.13369200  1
  H  H11  1  0.58880700  0.58995800  0.86630800  1
  H  H12  1  0.15266900  0.51767800  0.68900700  1
  H  H13  1  0.84733100  0.48232200  0.31099300  1
  H  H14  1  0.37842600  0.37247600  0.79278800  1
  H  H15  1  0.62157400  0.62752400  0.20721200  1
  H  H16  1  0.39272700  0.43009900  0.05023200  1
  H  H17  1  0.60727300  0.56990100  0.94976800  1
  H  H18  1  0.64992200  0.35115000  0.82104100  1
  H  H19  1  0.35007800  0.64885000  0.17895900  1
  H  H20  1  0.53980900  0.23634700  0.75019900  1
  H  H21  1  0.46019100  0.76365300  0.24980100  1
  C  C0  1  0.81052600  0.79263900  0.69820100  1
  C  C1  1  0.18947400  0.20736100  0.30179900  1
  S  S0  1  0.71112100  0.66853200  0.57898400  1
  S  S1  1  0.28887900  0.33146800  0.42101600  1
  O  O0  1  0.86979700  0.61471500  0.55797200  1
  O  O1  1  0.13020300  0.38528500  0.44202800  1
  O  O2  1  0.52999100  0.78767300  0.42493400  1
  O  O3  1  0.47000900  0.21232700  0.57506600  1
  O  O4  1  0.67705100  0.53915900  0.68299700  1
  O  O5  1  0.32294900  0.46084100  0.31700300  1
  O  O6  1  0.05023700  0.22681700  0.73571100  1
  O  O7  1  0.94976300  0.77318300  0.26428900  1
  O  O8  1  0.30815400  0.95616300  0.84589900  1
  O  O9  1  0.69184600  0.04383700  0.15410100  1
  O  O10  1  0.93660600  0.06493200  0.94383200  1
  O  O11  1  0.06339400  0.93506800  0.05616800  1
  O  O12  1  0.24686400  0.41397700  0.78451000  1
  O  O13  1  0.75313600  0.58602300  0.21549000  1
  O  O14  1  0.57253800  0.27645100  0.83686200  1
  O  O15  1  0.42746200  0.72354900  0.16313800  1
  F  F0  1  0.68127500  0.84640300  0.73176200  1
  F  F1  1  0.31872500  0.15359700  0.26823800  1
  F  F2  1  0.98802000  0.70200900  0.84296000  1
  F  F3  1  0.01198000  0.29799100  0.15704000  1
  F  F4  1  0.84076400  0.92445800  0.61079100  1
  F  F5  1  0.15923600  0.07554200  0.38920900  1
loop_
_geom_bond_atom_site_label_1
_geom_bond_atom_site_label_2
_geom_bond_distance
_geom_bond_site_symmetry_2
H0 O12 1.136239 1_555
H0 O6 1.287750 1_555
H1 O13 1.136239 1_555
H1 O7 1.287750 1_555
H2 O6 1.014046 1_555
H2 O8 1.593277 1_545
H3 O7 1.014046 1_555
H3 O9 1.593277 1_565
H4 O6 0.971728 1_655
H5 O7 0.971728 1_455
H6 O8 0.970090 1_555
H7 O9 0.970090 1_555
H8 O8 0.989378 1_555
H9 O9 0.989378 1_555
H10 H16 0.750608 1_555
H11 H17 0.750608 1_555
H12 O12 0.984063 1_555
H13 O13 0.984063 1_555
H14 O12 1.046071 1_555
H14 O14 1.491639 1_555
H15 O13 1.046071 1_555
H15 O15 1.491639 1_555
H18 O14 0.984541 1_555
H19 O15 0.984541 1_555
H20 O14 1.002880 1_555
H20 O3 1.709135 1_555
H21 O15 1.002880 1_555
H21 O2 1.709135 1_555
C0 F0 1.350915 1_555
C0 F2 1.358379 1_555
C0 F4 1.361436 1_555
C1 F1 1.350915 1_555
C1 F3 1.358379 1_555
C1 F5 1.361436 1_555
O0 S0 1.468711 1_555
O1 S1 1.468711 1_555
O2 S0 1.465788 1_555
O3 S1 1.465788 1_555
O4 S0 1.453468 1_555
O5 S1 1.453468 1_555
O10 O11 1.230177 1_646
