# generated using pymatgen
data_Tm2(GePt3)3
_symmetry_space_group_name_H-M   'P 1'
_cell_length_a   7.80428214
_cell_length_b   7.80428214
_cell_length_c   10.06095776
_cell_angle_alpha   67.22894150
_cell_angle_beta   67.22894150
_cell_angle_gamma   60.31261799
_symmetry_Int_Tables_number   1
_chemical_formula_structural   Tm2(GePt3)3
_chemical_formula_sum   'Tm4 Ge6 Pt18'
_cell_volume   476.03443200
_cell_formula_units_Z   2
loop_
 _symmetry_equiv_pos_site_id
 _symmetry_equiv_pos_as_xyz
  1  'x, y, z'
loop_
 _atom_site_type_symbol
 _atom_site_label
 _atom_site_symmetry_multiplicity
 _atom_site_fract_x
 _atom_site_fract_y
 _atom_site_fract_z
 _atom_site_occupancy
  Tm  Tm0  1  0.41564300  0.24456700  0.75074100  1
  Tm  Tm1  1  0.58435700  0.75543300  0.24925900  1
  Tm  Tm2  1  0.75543300  0.58435700  0.74925900  1
  Tm  Tm3  1  0.24456700  0.41564300  0.25074100  1
  Ge  Ge0  1  0.50000000  0.00000000  0.50000000  1
  Ge  Ge1  1  0.00000000  0.50000000  0.00000000  1
  Ge  Ge2  1  0.63883700  0.18200000  0.99774700  1
  Ge  Ge3  1  0.36116300  0.81800000  0.00225300  1
  Ge  Ge4  1  0.81800000  0.36116300  0.50225300  1
  Ge  Ge5  1  0.18200000  0.63883700  0.49774700  1
  Pt  Pt0  1  0.29758200  0.91614500  0.75629400  1
  Pt  Pt1  1  0.70241800  0.08385500  0.24370600  1
  Pt  Pt2  1  0.08385500  0.70241800  0.74370600  1
  Pt  Pt3  1  0.91614500  0.29758200  0.25629400  1
  Pt  Pt4  1  0.47784800  0.63869700  0.57841200  1
  Pt  Pt5  1  0.52215200  0.36130300  0.42158800  1
  Pt  Pt6  1  0.36130300  0.52215200  0.92158800  1
  Pt  Pt7  1  0.63869700  0.47784800  0.07841200  1
  Pt  Pt8  1  0.86455500  0.13544500  0.75000000  1
  Pt  Pt9  1  0.13544500  0.86455500  0.25000000  1
  Pt  Pt10  1  0.79534500  0.97763000  0.57678300  1
  Pt  Pt11  1  0.20465500  0.02237000  0.42321700  1
  Pt  Pt12  1  0.02237000  0.20465500  0.92321700  1
  Pt  Pt13  1  0.97763000  0.79534500  0.07678300  1
  Pt  Pt14  1  0.69267200  0.86045700  0.92031000  1
  Pt  Pt15  1  0.30732800  0.13954300  0.07969000  1
  Pt  Pt16  1  0.13954300  0.30732800  0.57969000  1
  Pt  Pt17  1  0.86045700  0.69267200  0.42031000  1
loop_
_geom_bond_atom_site_label_1
_geom_bond_atom_site_label_2
_geom_bond_distance
_geom_bond_site_symmetry_2
Ge0 Pt0 2.477360 1_545
Ge0 Pt1 2.477360 1_555
Ge0 Pt10 2.610640 1_545
Ge0 Pt11 2.610640 1_555
Ge0 Pt5 2.694131 1_555
Ge0 Pt4 2.694131 1_545
Ge0 Pt17 2.714485 1_545
Ge0 Pt16 2.714485 1_555
Ge1 Pt3 2.477360 1_455
Ge1 Pt2 2.477360 1_554
Ge1 Pt13 2.610640 1_455
Ge1 Pt12 2.610640 1_554
Ge1 Pt6 2.694131 1_554
Ge1 Pt7 2.694131 1_455
Ge1 Pt14 2.714485 1_454
Ge1 Pt15 2.714485 1_555
Ge2 Pt1 2.462371 1_556
Ge2 Pt8 2.473089 1_555
Ge2 Pt6 2.518000 1_555
Ge2 Pt15 2.543538 1_556
Ge2 Pt14 2.701174 1_545
Ge2 Pt7 2.727069 1_556
Ge2 Pt12 2.870006 1_655
Ge2 Pt13 2.931890 1_546
Ge3 Pt0 2.462371 1_554
Ge3 Pt9 2.473089 1_555
Ge3 Pt7 2.518000 1_555
Ge3 Pt14 2.543538 1_554
Ge3 Pt15 2.701174 1_565
Ge3 Pt6 2.727069 1_554
Ge3 Pt13 2.870006 1_455
Ge3 Pt12 2.931890 1_564
Ge4 Pt3 2.462371 1_555
Ge4 Pt8 2.473089 1_555
Ge4 Pt4 2.518000 1_555
Ge4 Pt17 2.543538 1_555
Ge4 Pt16 2.701174 1_655
Ge4 Pt5 2.727069 1_555
Ge4 Pt10 2.870006 1_545
Ge4 Pt11 2.931890 1_655
Ge5 Pt2 2.462371 1_555
Ge5 Pt9 2.473089 1_555
Ge5 Pt5 2.518000 1_555
Ge5 Pt16 2.543538 1_555
Ge5 Pt17 2.701174 1_455
Ge5 Pt4 2.727069 1_555
Ge5 Pt11 2.870006 1_565
Ge5 Pt10 2.931890 1_455
Pt0 Tm0 3.100013 1_565
Pt0 Tm2 3.202956 1_555
Pt1 Tm1 3.100013 1_545
Pt1 Tm3 3.202956 1_555
Pt2 Tm2 3.100013 1_455
Pt2 Tm0 3.202956 1_555
Pt3 Tm3 3.100013 1_655
Pt3 Tm1 3.202956 1_555
Pt4 Tm1 2.961654 1_555
Pt4 Tm2 3.039031 1_555
Pt4 Tm0 3.066298 1_555
Pt5 Tm0 2.961654 1_555
Pt5 Tm3 3.039031 1_555
Pt5 Tm1 3.066298 1_555
Pt6 Tm3 2.961654 1_556
Pt6 Tm0 3.039031 1_555
Pt6 Tm2 3.066298 1_555
Pt7 Tm2 2.961654 1_554
Pt7 Tm1 3.039031 1_555
Pt7 Tm3 3.066298 1_555
Pt8 Tm0 3.166815 1_555
Pt8 Tm2 3.166815 1_555
Pt9 Tm3 3.166815 1_555
Pt9 Tm1 3.166815 1_555
Pt10 Tm0 2.979440 1_565
Pt10 Tm2 2.988984 1_555
Pt11 Tm1 2.979440 1_545
Pt11 Tm3 2.988984 1_555
Pt12 Tm2 2.979440 1_455
Pt12 Tm0 2.988984 1_555
Pt13 Tm3 2.979440 1_655
Pt13 Tm1 2.988984 1_555
Pt14 Tm1 2.959773 1_556
Pt14 Tm2 3.002853 1_555
Pt14 Tm0 3.007936 1_565
Pt15 Tm0 2.959773 1_554
Pt15 Tm3 3.002853 1_555
Pt15 Tm1 3.007936 1_545
Pt16 Tm3 2.959773 1_555
Pt16 Tm0 3.002853 1_555
Pt16 Tm2 3.007936 1_455
Pt17 Tm2 2.959773 1_555
Pt17 Tm1 3.002853 1_555
Pt17 Tm3 3.007936 1_655
