# generated using pymatgen
data_CsEr10(C2I9)2
_symmetry_space_group_name_H-M   'P 1'
_cell_length_a   11.44200700
_cell_length_b   11.44180448
_cell_length_c   11.46452827
_cell_angle_alpha   93.24401259
_cell_angle_beta   109.84864402
_cell_angle_gamma   119.91124013
_symmetry_Int_Tables_number   1
_chemical_formula_structural   CsEr10(C2I9)2
_chemical_formula_sum   'Cs1 Er10 C4 I18'
_cell_volume   1175.78446227
_cell_formula_units_Z   1
loop_
 _symmetry_equiv_pos_site_id
 _symmetry_equiv_pos_as_xyz
  1  'x, y, z'
loop_
 _atom_site_type_symbol
 _atom_site_label
 _atom_site_symmetry_multiplicity
 _atom_site_fract_x
 _atom_site_fract_y
 _atom_site_fract_z
 _atom_site_occupancy
  Cs  Cs0  1  0.00000000  0.50000000  0.50000000  1
  Er  Er0  1  0.96221400  0.92688200  0.67828600  1
  Er  Er1  1  0.03778600  0.07311800  0.32171400  1
  Er  Er2  1  0.38522900  0.29297700  0.28802700  1
  Er  Er3  1  0.61477100  0.70702300  0.71197300  1
  Er  Er4  1  0.94531200  0.84233200  0.00081000  1
  Er  Er5  1  0.05468800  0.15766800  0.99919000  1
  Er  Er6  1  0.34966100  0.07467600  0.01511300  1
  Er  Er7  1  0.65033900  0.92532400  0.98488700  1
  Er  Er8  1  0.27226400  0.95485000  0.28473000  1
  Er  Er9  1  0.72773600  0.04515000  0.71527000  1
  C  C0  1  0.14137400  0.06728700  0.19524400  1
  C  C1  1  0.85862600  0.93271300  0.80475600  1
  C  C2  1  0.21782800  0.06711500  0.11848600  1
  C  C3  1  0.78217200  0.93288500  0.88151400  1
  I  I0  1  0.24282000  0.21655300  0.83107400  1
  I  I1  1  0.75718000  0.78344700  0.16892600  1
  I  I2  1  0.70314200  0.63737600  0.50240500  1
  I  I3  1  0.29685800  0.36262400  0.49759500  1
  I  I4  1  0.69237200  0.53033200  0.84781300  1
  I  I5  1  0.30762800  0.46966800  0.15218700  1
  I  I6  1  0.14264200  0.92339300  0.49650100  1
  I  I7  1  0.85735800  0.07660700  0.50349900  1
  I  I8  1  0.61727900  0.35953400  0.18125400  1
  I  I9  1  0.38272100  0.64046600  0.81874600  1
  I  I10  1  0.09659200  0.78104800  0.83040400  1
  I  I11  1  0.90340800  0.21895200  0.16959600  1
  I  I12  1  0.55914300  0.20554700  0.49417300  1
  I  I13  1  0.44085700  0.79445300  0.50582700  1
  I  I14  1  0.04084000  0.65881300  0.15764300  1
  I  I15  1  0.95916000  0.34118700  0.84235700  1
  I  I16  1  0.53218300  0.07949000  0.83357000  1
  I  I17  1  0.46781700  0.92051000  0.16643000  1
loop_
_geom_bond_atom_site_label_1
_geom_bond_atom_site_label_2
_geom_bond_distance
_geom_bond_site_symmetry_2
Cs0 I8 4.069718 1_455
Cs0 I9 4.069718 1_555
Cs0 I10 4.259649 1_555
Cs0 I11 4.259649 1_455
Cs0 I6 4.279547 1_555
Cs0 I7 4.279547 1_455
Cs0 I2 4.403631 1_455
Cs0 I3 4.403631 1_555
Cs0 I13 4.426817 1_555
Cs0 I12 4.426817 1_455
Cs0 I14 4.486803 1_555
Cs0 I15 4.486803 1_455
Er0 I7 3.032391 1_565
Er0 I2 3.036066 1_555
Er0 I10 3.042507 1_655
Er0 I0 3.045128 1_665
Er0 I6 3.406091 1_655
Er1 I6 3.032391 1_545
Er1 I3 3.036066 1_555
Er1 I11 3.042507 1_455
Er1 I1 3.045128 1_445
Er1 I7 3.406091 1_455
Er2 I5 2.916913 1_555
Er2 I8 3.069863 1_555
Er2 I12 3.099235 1_555
Er2 I3 3.109107 1_555
Er2 I2 3.652070 1_555
Er3 I4 2.916913 1_555
Er3 I9 3.069863 1_555
Er3 I13 3.099235 1_555
Er3 I2 3.109107 1_555
Er3 I3 3.652070 1_555
Er4 I4 3.120360 1_554
Er4 I14 3.196621 1_655
Er4 I1 3.212530 1_555
Er4 I10 3.264401 1_654
Er5 I5 3.120360 1_556
Er5 I15 3.196621 1_455
Er5 I0 3.212530 1_555
Er5 I11 3.264401 1_456
Er6 I8 3.001772 1_555
Er6 I17 3.013420 1_545
Er6 I0 3.032598 1_554
Er6 I10 3.079737 1_544
Er6 I16 3.397983 1_554
Er7 I9 3.001772 1_555
Er7 I16 3.013420 1_565
Er7 I1 3.032598 1_556
Er7 I11 3.079737 1_566
Er7 I17 3.397983 1_556
Er8 I14 2.912746 1_555
Er8 I12 3.040728 1_565
Er8 I17 3.142851 1_555
Er8 I6 3.199291 1_555
Er8 I13 3.775065 1_555
Er9 I15 2.912746 1_555
Er9 I13 3.040728 1_545
Er9 I16 3.142851 1_555
Er9 I7 3.199291 1_555
Er9 I12 3.775065 1_555
C0 C2 1.436636 1_555
C0 Er1 2.178638 1_555
C0 Er8 2.444996 1_545
C0 Er2 2.464308 1_555
C0 Er4 2.612012 1_445
C0 Er5 2.622463 1_554
C1 C3 1.436636 1_555
C1 Er0 2.178638 1_555
C1 Er9 2.444996 1_565
C1 Er3 2.464308 1_555
C1 Er5 2.612012 1_665
C1 Er4 2.622463 1_556
C2 Er6 2.186960 1_555
C2 Er8 2.437064 1_545
C2 Er2 2.468180 1_555
C2 Er5 2.604599 1_554
C2 Er4 2.628725 1_445
C3 Er7 2.186960 1_555
C3 Er9 2.437064 1_565
C3 Er3 2.468180 1_555
C3 Er4 2.604599 1_556
C3 Er5 2.628725 1_665
