# generated using pymatgen
data_Li7V3P8O29
_symmetry_space_group_name_H-M   'P 1'
_cell_length_a   9.85406287
_cell_length_b   9.83524332
_cell_length_c   13.93233034
_cell_angle_alpha   90.42878892
_cell_angle_beta   90.11363938
_cell_angle_gamma   60.05785882
_symmetry_Int_Tables_number   1
_chemical_formula_structural   Li7V3P8O29
_chemical_formula_sum   'Li14 V6 P16 O58'
_cell_volume   1170.02378849
_cell_formula_units_Z   2
loop_
 _symmetry_equiv_pos_site_id
 _symmetry_equiv_pos_as_xyz
  1  'x, y, z'
loop_
 _atom_site_type_symbol
 _atom_site_label
 _atom_site_symmetry_multiplicity
 _atom_site_fract_x
 _atom_site_fract_y
 _atom_site_fract_z
 _atom_site_occupancy
  Li  Li0  1  0.90781252  0.76559553  0.06455669  1
  Li  Li1  1  0.90135833  0.33125834  0.55794534  1
  Li  Li2  1  0.65999362  0.67212437  0.88599668  1
  Li  Li3  1  0.76880275  0.32899609  0.06484397  1
  Li  Li4  1  0.32663751  0.90887372  0.06275894  1
  Li  Li5  1  0.66233274  0.24061626  0.43714890  1
  Li  Li6  1  0.32997556  0.76453392  0.56121547  1
  Li  Li7  1  0.23271398  0.67393929  0.93845945  1
  Li  Li8  1  0.34499623  0.32434772  0.61433653  1
  Li  Li9  1  0.09391090  0.67460190  0.43430179  1
  Li  Li10  1  0.22410069  0.08928768  0.43736332  1
  Li  Li11  1  0.11006180  0.23938253  0.94853621  1
  Li  Li12  1  0.92755873  0.02263144  0.98452050  1
  Li  Li13  1  0.93021924  0.99035488  0.52000515  1
  V  V0  1  0.56749171  0.43294678  0.24802171  1
  V  V1  1  0.43669234  0.56434448  0.75346083  1
  V  V2  1  0.57036414  0.99800066  0.74940709  1
  V  V3  1  0.43961912  0.00175905  0.25180024  1
  V  V4  1  0.99954211  0.56773367  0.24997770  1
  V  V5  1  0.00055221  0.43654132  0.74627664  1
  P  P0  1  0.91092681  0.77638047  0.84036010  1
  P  P1  1  0.77536780  0.91975906  0.34389679  1
  P  P2  1  0.91021287  0.31781047  0.34192458  1
  P  P3  1  0.66364562  0.66888874  0.12770072  1
  P  P4  1  0.66612863  0.66716511  0.62680647  1
  P  P5  1  0.77890843  0.31983852  0.84626989  1
  P  P6  1  0.68636479  0.22380937  0.66116283  1
  P  P7  1  0.31660659  0.91470593  0.84383314  1
  P  P8  1  0.69247838  0.08344358  0.15617569  1
  P  P9  1  0.31930401  0.77165906  0.34231335  1
  P  P10  1  0.23157263  0.68466743  0.15673966  1
  P  P11  1  0.33652531  0.33266637  0.37228977  1
  P  P12  1  0.33002099  0.32779235  0.87175142  1
  P  P13  1  0.09038491  0.68592143  0.65319144  1
  P  P14  1  0.22962051  0.08866417  0.65561557  1
  P  P15  1  0.08930937  0.22482542  0.15950745  1
  O  O0  1  0.00676626  0.77416342  0.56440946  1
  O  O1  1  0.91877479  0.75489234  0.34217254  1
  O  O2  1  0.79453905  0.99292606  0.07237298  1
  O  O3  1  0.74646177  0.91831268  0.84015508  1
  O  O4  1  0.90056805  0.62398675  0.83162322  1
  O  O5  1  0.81098713  0.67660105  0.15789722  1
  O  O6  1  0.90046941  0.47481155  0.32979384  1
  O  O7  1  0.00261212  0.22028213  0.07018877  1
  O  O8  1  0.92873586  0.33335807  0.84222242  1
  O  O9  1  0.66358517  0.81437519  0.67519291  1
  O  O10  1  0.62202770  0.91450155  0.33030979  1
  O  O11  1  0.81577763  0.51794887  0.67261363  1
  O  O12  1  0.64461972  0.67347397  0.01972693  1
  O  O13  1  0.68141261  0.65783852  0.52066937  1
  O  O14  1  0.67651285  0.51153479  0.16581678  1
  O  O15  1  0.48249546  0.89208543  0.83083359  1
  O  O16  1  0.51361906  0.81081494  0.17383714  1
  O  O17  1  0.74300782  0.33612712  0.33811094  1
  O  O18  1  0.78943046  0.21598095  0.75311305  1
  O  O19  1  0.77639500  0.22359224  0.57208728  1
  O  O20  1  0.78009613  0.23357543  0.93526257  1
  O  O21  1  0.63383682  0.48421740  0.83469894  1
  O  O22  1  0.51646019  0.66917409  0.66416644  1
  O  O23  1  0.66242995  0.25429236  0.15614199  1
  O  O24  1  0.47494918  0.61905302  0.32853560  1
  O  O25  1  0.34153020  0.91643936  0.34389800  1
  O  O26  1  0.79448476  0.00598289  0.25089936  1
  O  O27  1  0.77431968  0.01502196  0.42911174  1
  O  O28  1  0.23479265  0.99424076  0.56834217  1
  O  O29  1  0.67313893  0.07589987  0.66281134  1
  O  O30  1  0.52173095  0.36949686  0.66989618  1
  O  O31  1  0.32734836  0.75348081  0.84423034  1
  O  O32  1  0.48979241  0.32136898  0.33119667  1
  O  O33  1  0.38314387  0.52516306  0.17374853  1
  O  O34  1  0.24272778  0.76366006  0.06663699  1
  O  O35  1  0.23042159  0.77104895  0.43064756  1
  O  O36  1  0.21262711  0.79400100  0.24850202  1
  O  O37  1  0.25520658  0.66493191  0.65864485  1
  O  O38  1  0.47600916  0.18330354  0.82435516  1
  O  O39  1  0.53910733  0.07924584  0.16480565  1
  O  O40  1  0.33481927  0.47890494  0.84633967  1
  O  O41  1  0.30226400  0.30933118  0.97481539  1
  O  O42  1  0.34931168  0.31753794  0.48037582  1
  O  O43  1  0.19097559  0.48665565  0.34061469  1
  O  O44  1  0.37595416  0.10674071  0.66653145  1
  O  O45  1  0.32519156  0.18809887  0.32949895  1
  O  O46  1  0.08663689  0.66643592  0.15594641  1
  O  O47  1  -0.00000059  0.78854339  0.74713448  1
  O  O48  1  0.00031201  0.77888978  0.92891918  1
  O  O49  1  0.10195864  0.52324317  0.66225294  1
  O  O50  1  0.18445815  0.33629601  0.81456950  1
  O  O51  1  0.09688382  0.37405628  0.17131698  1
  O  O52  1  0.25505806  0.07754157  0.16258334  1
  O  O53  1  0.23208754  0.00956143  0.93186062  1
  O  O54  1  0.21354095  0.00442665  0.75026557  1
  O  O55  1  0.08045756  0.25253348  0.65299775  1
  O  O56  1  0.99330012  0.22980083  0.43224599  1
  O  O57  1  0.99998118  0.20433531  0.25158019  1
loop_
_geom_bond_atom_site_label_1
_geom_bond_atom_site_label_2
_geom_bond_distance
_geom_bond_site_symmetry_2
Li0 O2 1.939675 1_555
Li0 O46 1.992901 1_655
Li0 O5 2.055059 1_555
Li0 O48 2.132737 1_654
Li1 O56 1.990281 1_555
Li1 O19 1.995553 1_555
Li1 O55 2.027307 1_655
Li1 O11 2.247360 1_555
Li2 O12 1.869034 1_556
Li2 O21 2.108971 1_555
Li2 O15 2.138314 1_555
Li2 O4 2.302020 1_555
Li3 O7 1.999608 1_655
Li3 O20 2.005912 1_554
Li3 O23 2.011120 1_555
Li3 O14 2.089660 1_555
Li4 O34 1.976506 1_555
Li4 O52 1.996254 1_565
Li4 O53 2.067351 1_564
Li4 O16 2.226473 1_555
Li5 O27 1.925058 1_555
Li5 O17 2.046354 1_555
Li5 O32 2.088109 1_555
Li5 O19 2.152730 1_555
Li6 O28 1.968599 1_555
Li6 O37 2.022233 1_555
Li6 O35 2.051240 1_555
Li6 O22 2.145478 1_555
Li7 O31 1.988375 1_555
Li7 O48 1.992188 1_555
Li7 O34 2.010018 1_556
Li7 O40 2.093021 1_555
Li8 O42 1.866892 1_555
Li8 O44 2.138474 1_555
Li8 O30 2.142635 1_555
Li8 O49 2.306084 1_555
Li9 O1 1.973700 1_455
Li9 O35 1.996671 1_555
Li9 O0 2.030361 1_555
Li9 O43 2.058988 1_555
Li10 O25 1.983391 1_545
Li10 O56 1.987652 1_455
Li10 O28 2.035059 1_545
Li10 O45 2.278025 1_555
Li11 O53 1.972075 1_555
Li11 O7 2.059010 1_556
Li11 O8 2.145290 1_455
Li11 O41 2.342788 1_555
Li11 O50 2.378925 1_555
Li12 O2 1.922412 1_546
Li12 O20 1.973501 1_555
Li12 O48 2.262673 1_645
Li13 O27 1.909815 1_565
Li13 O0 1.972211 1_655
Li13 O19 2.143533 1_565
O0 P13 1.503444 1_555
O1 P1 1.529368 1_555
O1 V4 2.043994 1_555
O2 P8 1.504179 1_565
O3 P0 1.522113 1_555
O3 V2 1.967859 1_555
O4 P0 1.556172 1_555
O4 V5 1.985450 1_655
O5 P3 1.548495 1_555
O5 V4 2.066327 1_555
O6 P2 1.509307 1_555
O6 V4 1.983712 1_555
O7 P15 1.521017 1_555
O8 P5 1.548244 1_555
O8 V5 2.014591 1_655
O9 P4 1.581323 1_555
O9 V2 1.869305 1_555
O10 P1 1.548681 1_555
O10 V3 1.905308 1_565
O11 P4 1.607976 1_555
O11 V5 1.886583 1_655
O12 P3 1.513816 1_555
O13 P4 1.484191 1_555
O14 P3 1.584091 1_555
O14 V0 1.977451 1_555
O15 P7 1.546610 1_555
O15 V2 2.010931 1_555
O16 P3 1.574026 1_555
O16 V3 1.960606 1_565
O17 P2 1.566371 1_555
O17 V0 1.959265 1_555
O18 P6 1.611467 1_555
O18 P5 1.616672 1_555
O19 P6 1.526321 1_555
O20 P5 1.504333 1_555
O21 P5 1.542466 1_555
O21 V1 2.037752 1_555
O22 P4 1.555726 1_555
O22 V1 2.015114 1_555
O23 P8 1.553882 1_555
O23 V0 1.982785 1_555
O24 P9 1.529974 1_555
O24 V0 1.935806 1_555
O25 P9 1.544967 1_555
O25 V3 2.028686 1_565
O26 P8 1.605550 1_555
O26 P1 1.615641 1_545
O27 P1 1.503741 1_545
O28 P14 1.509835 1_565
O29 P6 1.524307 1_555
O29 V2 1.965071 1_545
O30 P6 1.541914 1_555
O30 V1 2.024248 1_555
O31 P7 1.535650 1_555
O31 V1 2.046943 1_555
O32 P11 1.567196 1_555
O32 V0 1.998668 1_555
O33 P10 1.553435 1_555
O33 V0 1.885535 1_555
O34 P10 1.513919 1_555
O35 P9 1.513741 1_555
O36 P10 1.614190 1_555
O36 P9 1.621681 1_555
O37 P13 1.533408 1_555
O37 V1 2.041102 1_555
O38 P12 1.572893 1_555
O38 V2 1.886838 1_545
O39 P8 1.537321 1_555
O39 V3 1.943016 1_555
O40 P12 1.553883 1_555
O40 V1 2.062009 1_555
O41 P12 1.491538 1_555
O42 P11 1.513145 1_555
O43 P11 1.544248 1_555
O43 V4 2.071956 1_455
O44 P14 1.545539 1_555
O44 V2 2.027679 1_545
O45 P11 1.592213 1_555
O45 V3 1.927258 1_555
O46 P10 1.525647 1_555
O46 V4 2.061656 1_455
O47 P0 1.607292 1_455
O47 P13 1.616334 1_555
O48 P0 1.521746 1_455
O49 P13 1.552319 1_555
O49 V5 1.991556 1_555
O50 P12 1.604949 1_555
O50 V5 1.839869 1_555
O51 P15 1.514115 1_555
O51 V4 1.974488 1_455
O52 P15 1.551355 1_555
O52 V3 2.014920 1_555
O53 P7 1.509775 1_545
O54 P14 1.612047 1_555
O54 P7 1.620768 1_545
O55 P14 1.547652 1_555
O55 V5 2.032369 1_555
O56 P2 1.519176 1_555
O57 P2 1.615638 1_555
O57 P15 1.626782 1_655
