# generated using pymatgen
data_Hf6Al2Fe
_symmetry_space_group_name_H-M   'P 1'
_cell_length_a   6.53468788
_cell_length_b   15.65656279
_cell_length_c   15.65656290
_cell_angle_alpha   60.00424058
_cell_angle_beta   90.00000000
_cell_angle_gamma   90.00000000
_symmetry_Int_Tables_number   1
_chemical_formula_structural   Hf6Al2Fe
_chemical_formula_sum   'Hf48 Al16 Fe8'
_cell_volume   1387.28882585
_cell_formula_units_Z   8
loop_
 _symmetry_equiv_pos_site_id
 _symmetry_equiv_pos_as_xyz
  1  'x, y, z'
loop_
 _atom_site_type_symbol
 _atom_site_label
 _atom_site_symmetry_multiplicity
 _atom_site_fract_x
 _atom_site_fract_y
 _atom_site_fract_z
 _atom_site_occupancy
  Hf  Hf0_0  1  0.25000000  0.30329072  0.19670928  1
  Hf  Hf0_1  1  0.25000000  0.30329072  0.69670928  1
  Hf  Hf0_2  1  0.25000000  0.80329072  0.19670928  1
  Hf  Hf0_3  1  0.25000000  0.80329072  0.69670928  1
  Hf  Hf0_4  1  0.75000000  0.30329072  0.19670928  1
  Hf  Hf0_5  1  0.75000000  0.30329072  0.69670928  1
  Hf  Hf0_6  1  0.75000000  0.80329072  0.19670928  1
  Hf  Hf0_7  1  0.75000000  0.80329072  0.69670928  1
  Hf  Hf1_0  1  0.25000000  0.19664734  0.00001730  1
  Hf  Hf1_1  1  0.25000000  0.19664734  0.50001730  1
  Hf  Hf1_2  1  0.25000000  0.69664734  0.00001729  1
  Hf  Hf1_3  1  0.25000000  0.69664734  0.50001729  1
  Hf  Hf1_4  1  0.75000000  0.19664734  0.00001730  1
  Hf  Hf1_5  1  0.75000000  0.19664734  0.50001730  1
  Hf  Hf1_6  1  0.75000000  0.69664734  0.00001729  1
  Hf  Hf1_7  1  0.75000000  0.69664734  0.50001729  1
  Hf  Hf2_0  1  0.25000000  0.49998270  0.30335266  1
  Hf  Hf2_1  1  0.25000000  0.49998270  0.80335266  1
  Hf  Hf2_2  1  0.25000000  0.99998270  0.30335266  1
  Hf  Hf2_3  1  0.25000000  0.99998271  0.80335266  1
  Hf  Hf2_4  1  0.75000000  0.49998270  0.30335266  1
  Hf  Hf2_5  1  0.75000000  0.49998270  0.80335266  1
  Hf  Hf2_6  1  0.75000000  0.99998270  0.30335266  1
  Hf  Hf2_7  1  0.75000000  0.99998271  0.80335266  1
  Hf  Hf3_0  1  0.00000000  0.12506217  0.37493783  1
  Hf  Hf3_1  1  0.00000000  0.12506217  0.87493783  1
  Hf  Hf3_2  1  0.00000000  0.62506217  0.37493783  1
  Hf  Hf3_3  1  0.00000000  0.62506217  0.87493783  1
  Hf  Hf3_4  1  0.50000000  0.12506217  0.37493783  1
  Hf  Hf3_5  1  0.50000000  0.12506217  0.87493783  1
  Hf  Hf3_6  1  0.50000000  0.62506217  0.37493783  1
  Hf  Hf3_7  1  0.50000000  0.62506217  0.87493783  1
  Hf  Hf4_0  1  0.00000000  0.37491083  0.99996050  1
  Hf  Hf4_1  1  0.00000000  0.37491083  0.49996050  1
  Hf  Hf4_2  1  0.00000000  0.87491083  0.99996050  1
  Hf  Hf4_3  1  0.00000000  0.87491084  0.49996050  1
  Hf  Hf4_4  1  0.50000000  0.37491083  0.99996050  1
  Hf  Hf4_5  1  0.50000000  0.37491083  0.49996050  1
  Hf  Hf4_6  1  0.50000000  0.87491083  0.99996050  1
  Hf  Hf4_7  1  0.50000000  0.87491084  0.49996050  1
  Hf  Hf5_0  1  0.00000000  0.00003949  0.12508917  1
  Hf  Hf5_1  1  0.00000000  0.00003949  0.62508917  1
  Hf  Hf5_2  1  0.00000000  0.50003950  0.12508917  1
  Hf  Hf5_3  1  0.00000000  0.50003950  0.62508917  1
  Hf  Hf5_4  1  0.50000000  0.00003949  0.12508917  1
  Hf  Hf5_5  1  0.50000000  0.00003949  0.62508917  1
  Hf  Hf5_6  1  0.50000000  0.50003950  0.12508917  1
  Hf  Hf5_7  1  0.50000000  0.50003950  0.62508917  1
  Al  Al0_0  1  0.00000000  0.16663678  0.16667605  1
  Al  Al0_1  1  0.00000000  0.16663678  0.66667605  1
  Al  Al0_2  1  0.00000000  0.66663678  0.16667605  1
  Al  Al0_3  1  0.00000000  0.66663678  0.66667605  1
  Al  Al0_4  1  0.50000000  0.16663678  0.16667605  1
  Al  Al0_5  1  0.50000000  0.16663678  0.66667605  1
  Al  Al0_6  1  0.50000000  0.66663678  0.16667605  1
  Al  Al0_7  1  0.50000000  0.66663678  0.66667605  1
  Al  Al1_0  1  0.00000000  0.33332395  0.33336322  1
  Al  Al1_1  1  0.00000000  0.33332395  0.83336321  1
  Al  Al1_2  1  0.00000000  0.83332395  0.33336321  1
  Al  Al1_3  1  0.00000000  0.83332395  0.83336321  1
  Al  Al1_4  1  0.50000000  0.33332395  0.33336322  1
  Al  Al1_5  1  0.50000000  0.33332395  0.83336321  1
  Al  Al1_6  1  0.50000000  0.83332395  0.33336321  1
  Al  Al1_7  1  0.50000000  0.83332395  0.83336321  1
  Fe  Fe0_0  1  0.25000000  0.00005550  0.99994450  1
  Fe  Fe0_1  1  0.25000000  0.00005550  0.49994450  1
  Fe  Fe0_2  1  0.25000000  0.50005550  0.99994450  1
  Fe  Fe0_3  1  0.25000000  0.50005550  0.49994450  1
  Fe  Fe0_4  1  0.75000000  0.00005550  0.99994450  1
  Fe  Fe0_5  1  0.75000000  0.00005550  0.49994450  1
  Fe  Fe0_6  1  0.75000000  0.50005550  0.99994450  1
  Fe  Fe0_7  1  0.75000000  0.50005550  0.49994450  1
loop_
_geom_bond_atom_site_label_1
_geom_bond_atom_site_label_2
_geom_bond_distance
_geom_bond_site_symmetry_2
Hf0_0 Hf5_2 3.156181 1_555
Hf0_0 Hf5_6 3.156181 1_555
Hf0_0 Hf4_0 3.156181 1_554
Hf0_0 Hf4_4 3.156181 1_554
Hf0_0 Hf3_0 3.233647 1_555
Hf0_0 Hf3_4 3.233647 1_555
Hf0_0 Hf0_4 3.267344 1_555
Hf0_0 Hf0_4 3.267344 1_455
Hf0_1 Hf5_3 3.156181 1_555
Hf0_1 Hf5_7 3.156181 1_555
Hf0_1 Hf4_1 3.156181 1_555
Hf0_1 Hf4_5 3.156181 1_555
Hf0_1 Hf3_1 3.233647 1_555
Hf0_1 Hf3_5 3.233647 1_555
Hf0_1 Hf0_5 3.267344 1_555
Hf0_1 Hf0_5 3.267344 1_455
Hf0_2 Hf5_4 3.156181 1_565
Hf0_2 Hf5_0 3.156181 1_565
Hf0_2 Hf4_2 3.156181 1_554
Hf0_2 Hf4_6 3.156181 1_554
Hf0_2 Hf3_2 3.233647 1_555
Hf0_2 Hf3_6 3.233647 1_555
Hf0_2 Hf0_6 3.267344 1_555
Hf0_2 Hf0_6 3.267344 1_455
Hf0_3 Hf5_1 3.156181 1_565
Hf0_3 Hf5_5 3.156181 1_565
Hf0_3 Hf4_7 3.156181 1_555
Hf0_3 Hf4_3 3.156181 1_555
Hf0_3 Hf3_3 3.233647 1_555
Hf0_3 Hf3_7 3.233647 1_555
Hf0_3 Hf0_7 3.267344 1_555
Hf0_3 Hf0_7 3.267344 1_455
Hf0_4 Hf5_2 3.156181 1_655
Hf0_4 Hf5_6 3.156181 1_555
Hf0_4 Hf4_0 3.156181 1_654
Hf0_4 Hf4_4 3.156181 1_554
Hf0_4 Hf3_4 3.233647 1_555
Hf0_4 Hf3_0 3.233647 1_655
Hf0_5 Hf5_3 3.156181 1_655
Hf0_5 Hf5_7 3.156181 1_555
Hf0_5 Hf4_1 3.156181 1_655
Hf0_5 Hf4_5 3.156181 1_555
Hf0_5 Hf3_1 3.233647 1_655
Hf0_5 Hf3_5 3.233647 1_555
Hf0_6 Hf5_4 3.156181 1_565
Hf0_6 Hf5_0 3.156181 1_665
Hf0_6 Hf4_2 3.156181 1_654
Hf0_6 Hf4_6 3.156181 1_554
Hf0_6 Hf3_2 3.233647 1_655
Hf0_6 Hf3_6 3.233647 1_555
Hf0_7 Hf5_1 3.156181 1_665
Hf0_7 Hf5_5 3.156181 1_565
Hf0_7 Hf4_7 3.156181 1_555
Hf0_7 Hf4_3 3.156181 1_655
Hf0_7 Hf3_7 3.233647 1_555
Hf0_7 Hf3_3 3.233647 1_655
Hf1_0 Hf5_4 3.154647 1_555
Hf1_0 Hf5_0 3.154647 1_555
Hf1_0 Hf3_1 3.155087 1_554
Hf1_0 Hf3_5 3.155087 1_554
Hf1_0 Hf4_0 3.233581 1_554
Hf1_0 Hf4_4 3.233581 1_554
Hf1_0 Hf1_4 3.267344 1_555
Hf1_0 Hf1_4 3.267344 1_455
Hf1_1 Hf5_5 3.154647 1_555
Hf1_1 Hf5_1 3.154647 1_555
Hf1_1 Hf3_0 3.155087 1_555
Hf1_1 Hf3_4 3.155087 1_555
Hf1_1 Hf4_5 3.233581 1_555
Hf1_1 Hf4_1 3.233581 1_555
Hf1_1 Hf1_5 3.267344 1_455
Hf1_1 Hf1_5 3.267344 1_555
Hf1_2 Hf5_2 3.154647 1_555
Hf1_2 Hf5_6 3.154647 1_555
Hf1_2 Hf3_3 3.155087 1_554
Hf1_2 Hf3_7 3.155087 1_554
Hf1_2 Hf4_6 3.233581 1_554
Hf1_2 Hf4_2 3.233581 1_554
Hf1_2 Hf1_6 3.267344 1_455
Hf1_2 Hf1_6 3.267344 1_555
Hf1_3 Hf5_3 3.154647 1_555
Hf1_3 Hf5_7 3.154647 1_555
Hf1_3 Hf3_2 3.155087 1_555
Hf1_3 Hf3_6 3.155087 1_555
Hf1_3 Hf4_3 3.233581 1_555
Hf1_3 Hf4_7 3.233581 1_555
Hf1_3 Hf1_7 3.267344 1_455
Hf1_3 Hf1_7 3.267344 1_555
Hf1_4 Hf5_4 3.154647 1_555
Hf1_4 Hf5_0 3.154647 1_655
Hf1_4 Hf3_1 3.155087 1_654
Hf1_4 Hf3_5 3.155087 1_554
Hf1_4 Hf4_0 3.233581 1_654
Hf1_4 Hf4_4 3.233581 1_554
Hf1_5 Hf5_1 3.154647 1_655
Hf1_5 Hf5_5 3.154647 1_555
Hf1_5 Hf3_0 3.155087 1_655
Hf1_5 Hf3_4 3.155087 1_555
Hf1_5 Hf4_5 3.233581 1_555
Hf1_5 Hf4_1 3.233581 1_655
Hf1_6 Hf5_6 3.154647 1_555
Hf1_6 Hf5_2 3.154647 1_655
Hf1_6 Hf3_3 3.155087 1_654
Hf1_6 Hf3_7 3.155087 1_554
Hf1_6 Hf4_6 3.233581 1_554
Hf1_6 Hf4_2 3.233581 1_654
Hf1_7 Hf5_7 3.154647 1_555
Hf1_7 Hf5_3 3.154647 1_655
Hf1_7 Hf3_2 3.155087 1_655
Hf1_7 Hf3_6 3.155087 1_555
Hf1_7 Hf4_3 3.233581 1_655
Hf1_7 Hf4_7 3.233581 1_555
Hf2_0 Hf4_5 3.154647 1_555
Hf2_0 Hf4_1 3.154647 1_555
Hf2_0 Hf3_6 3.155087 1_555
Hf2_0 Hf3_2 3.155087 1_555
Hf2_0 Hf5_2 3.233581 1_555
Hf2_0 Hf5_6 3.233581 1_555
Hf2_0 Hf2_4 3.267344 1_455
Hf2_0 Hf2_4 3.267344 1_555
Hf2_1 Hf4_4 3.154647 1_555
Hf2_1 Hf4_0 3.154647 1_555
Hf2_1 Hf3_3 3.155087 1_555
Hf2_1 Hf3_7 3.155087 1_555
Hf2_1 Hf5_7 3.233581 1_555
Hf2_1 Hf5_3 3.233581 1_555
Hf2_1 Hf2_5 3.267344 1_555
Hf2_1 Hf2_5 3.267344 1_455
Hf2_2 Hf4_3 3.154647 1_555
Hf2_2 Hf4_7 3.154647 1_555
Hf2_2 Hf3_4 3.155087 1_565
Hf2_2 Hf3_0 3.155087 1_565
Hf2_2 Hf5_0 3.233581 1_565
Hf2_2 Hf5_4 3.233581 1_565
Hf2_2 Hf2_6 3.267344 1_455
Hf2_2 Hf2_6 3.267344 1_555
Hf2_3 Hf4_2 3.154647 1_555
Hf2_3 Hf4_6 3.154647 1_555
Hf2_3 Hf3_1 3.155087 1_565
Hf2_3 Hf3_5 3.155087 1_565
Hf2_3 Hf5_1 3.233581 1_565
Hf2_3 Hf5_5 3.233581 1_565
Hf2_3 Hf2_7 3.267344 1_555
Hf2_3 Hf2_7 3.267344 1_455
Hf2_4 Hf4_5 3.154647 1_555
Hf2_4 Hf4_1 3.154647 1_655
Hf2_4 Hf3_6 3.155087 1_555
Hf2_4 Hf3_2 3.155087 1_655
Hf2_4 Hf5_6 3.233581 1_555
Hf2_4 Hf5_2 3.233581 1_655
Hf2_5 Hf4_4 3.154647 1_555
Hf2_5 Hf4_0 3.154647 1_655
Hf2_5 Hf3_3 3.155087 1_655
Hf2_5 Hf3_7 3.155087 1_555
Hf2_5 Hf5_7 3.233581 1_555
Hf2_5 Hf5_3 3.233581 1_655
Hf2_6 Hf4_7 3.154647 1_555
Hf2_6 Hf4_3 3.154647 1_655
Hf2_6 Hf3_4 3.155087 1_565
Hf2_6 Hf3_0 3.155087 1_665
Hf2_6 Hf5_4 3.233581 1_565
Hf2_6 Hf5_0 3.233581 1_665
Hf2_7 Hf4_2 3.154647 1_655
Hf2_7 Hf4_6 3.154647 1_555
Hf2_7 Hf3_1 3.155087 1_665
Hf2_7 Hf3_5 3.155087 1_565
Hf2_7 Hf5_1 3.233581 1_665
Hf2_7 Hf5_5 3.233581 1_565
Al0_0 Hf1_4 2.910715 1_455
Al0_0 Hf1_0 2.910715 1_555
Al0_0 Hf2_6 2.910900 1_445
Al0_0 Hf2_2 2.910900 1_545
Al0_0 Hf0_0 2.910927 1_555
Al0_0 Hf0_4 2.910927 1_455
Al0_0 Hf5_0 2.987554 1_555
Al0_0 Hf3_0 2.988892 1_555
Al0_0 Hf4_0 2.989300 1_554
Al0_1 Hf1_1 2.910715 1_555
Al0_1 Hf1_5 2.910715 1_455
Al0_1 Hf2_3 2.910900 1_545
Al0_1 Hf2_7 2.910900 1_445
Al0_1 Hf0_5 2.910927 1_455
Al0_1 Hf0_1 2.910927 1_555
Al0_1 Hf5_1 2.987554 1_555
Al0_1 Hf3_1 2.988892 1_555
Al0_1 Hf4_1 2.989300 1_555
Al0_2 Hf1_6 2.910715 1_455
Al0_2 Hf1_2 2.910715 1_555
Al0_2 Hf2_0 2.910900 1_555
Al0_2 Hf2_4 2.910900 1_455
Al0_2 Hf0_6 2.910927 1_455
Al0_2 Hf0_2 2.910927 1_555
Al0_2 Hf5_2 2.987554 1_555
Al0_2 Hf3_2 2.988892 1_555
Al0_2 Hf4_2 2.989300 1_554
Al0_3 Hf1_7 2.910715 1_455
Al0_3 Hf1_3 2.910715 1_555
Al0_3 Hf2_5 2.910900 1_455
Al0_3 Hf2_1 2.910900 1_555
Al0_3 Hf0_3 2.910927 1_555
Al0_3 Hf0_7 2.910927 1_455
Al0_3 Hf5_3 2.987554 1_555
Al0_3 Hf3_3 2.988892 1_555
Al0_3 Hf4_3 2.989300 1_555
Al0_4 Hf1_4 2.910715 1_555
Al0_4 Hf1_0 2.910715 1_555
Al0_4 Hf2_6 2.910900 1_545
Al0_4 Hf2_2 2.910900 1_545
Al0_4 Hf0_4 2.910927 1_555
Al0_4 Hf0_0 2.910927 1_555
Al0_4 Hf5_4 2.987554 1_555
Al0_4 Hf3_4 2.988892 1_555
Al0_4 Hf4_4 2.989300 1_554
Al0_5 Hf1_5 2.910715 1_555
Al0_5 Hf1_1 2.910715 1_555
Al0_5 Hf2_3 2.910900 1_545
Al0_5 Hf2_7 2.910900 1_545
Al0_5 Hf0_1 2.910927 1_555
Al0_5 Hf0_5 2.910927 1_555
Al0_5 Hf5_5 2.987554 1_555
Al0_5 Hf3_5 2.988892 1_555
Al0_5 Hf4_5 2.989300 1_555
Al0_6 Hf1_6 2.910715 1_555
Al0_6 Hf1_2 2.910715 1_555
Al0_6 Hf2_4 2.910900 1_555
Al0_6 Hf2_0 2.910900 1_555
Al0_6 Hf0_2 2.910927 1_555
Al0_6 Hf0_6 2.910927 1_555
Al0_6 Hf5_6 2.987554 1_555
Al0_6 Hf3_6 2.988892 1_555
Al0_6 Hf4_6 2.989300 1_554
Al0_7 Hf1_7 2.910715 1_555
Al0_7 Hf1_3 2.910715 1_555
Al0_7 Hf2_1 2.910900 1_555
Al0_7 Hf2_5 2.910900 1_555
Al0_7 Hf0_3 2.910927 1_555
Al0_7 Hf0_7 2.910927 1_555
Al0_7 Hf5_7 2.987554 1_555
Al0_7 Hf3_7 2.988892 1_555
Al0_7 Hf4_7 2.989300 1_555
Al1_0 Hf2_0 2.910715 1_555
Al1_0 Hf2_4 2.910715 1_455
Al1_0 Hf1_1 2.910900 1_555
Al1_0 Hf1_5 2.910900 1_455
Al1_0 Hf0_4 2.910927 1_455
Al1_0 Hf0_0 2.910927 1_555
Al1_0 Hf4_1 2.987554 1_555
Al1_0 Hf3_0 2.988892 1_555
Al1_0 Hf5_2 2.989300 1_555
Al1_1 Hf2_5 2.910715 1_455
Al1_1 Hf2_1 2.910715 1_555
Al1_1 Hf1_4 2.910900 1_456
Al1_1 Hf1_0 2.910900 1_556
Al1_1 Hf0_5 2.910927 1_455
Al1_1 Hf0_1 2.910927 1_555
Al1_1 Hf4_0 2.987554 1_555
Al1_1 Hf3_1 2.988892 1_555
Al1_1 Hf5_3 2.989300 1_555
Al1_2 Hf2_2 2.910715 1_555
Al1_2 Hf2_6 2.910715 1_455
Al1_2 Hf1_3 2.910900 1_555
Al1_2 Hf1_7 2.910900 1_455
Al1_2 Hf0_2 2.910927 1_555
Al1_2 Hf0_6 2.910927 1_455
Al1_2 Hf4_3 2.987554 1_555
Al1_2 Hf3_2 2.988892 1_555
Al1_2 Hf5_0 2.989300 1_565
Al1_3 Hf2_7 2.910715 1_455
Al1_3 Hf2_3 2.910715 1_555
Al1_3 Hf1_6 2.910900 1_456
Al1_3 Hf1_2 2.910900 1_556
Al1_3 Hf0_3 2.910927 1_555
Al1_3 Hf0_7 2.910927 1_455
Al1_3 Hf4_2 2.987554 1_555
Al1_3 Hf3_3 2.988892 1_555
Al1_3 Hf5_1 2.989300 1_565
Al1_4 Hf2_0 2.910715 1_555
Al1_4 Hf2_4 2.910715 1_555
Al1_4 Hf1_5 2.910900 1_555
Al1_4 Hf1_1 2.910900 1_555
Al1_4 Hf0_4 2.910927 1_555
Al1_4 Hf0_0 2.910927 1_555
Al1_4 Hf4_5 2.987554 1_555
Al1_4 Hf3_4 2.988892 1_555
Al1_4 Hf5_6 2.989300 1_555
Al1_5 Hf2_5 2.910715 1_555
Al1_5 Hf2_1 2.910715 1_555
Al1_5 Hf1_0 2.910900 1_556
Al1_5 Hf1_4 2.910900 1_556
Al1_5 Hf0_1 2.910927 1_555
Al1_5 Hf0_5 2.910927 1_555
Al1_5 Hf4_4 2.987554 1_555
Al1_5 Hf3_5 2.988892 1_555
Al1_5 Hf5_7 2.989300 1_555
Al1_6 Hf2_2 2.910715 1_555
Al1_6 Hf2_6 2.910715 1_555
Al1_6 Hf1_3 2.910900 1_555
Al1_6 Hf1_7 2.910900 1_555
Al1_6 Hf0_2 2.910927 1_555
Al1_6 Hf0_6 2.910927 1_555
Al1_6 Hf4_7 2.987554 1_555
Al1_6 Hf3_6 2.988892 1_555
Al1_6 Hf5_4 2.989300 1_565
Al1_7 Hf2_3 2.910715 1_555
Al1_7 Hf2_7 2.910715 1_555
Al1_7 Hf1_2 2.910900 1_556
Al1_7 Hf1_6 2.910900 1_556
Al1_7 Hf0_3 2.910927 1_555
Al1_7 Hf0_7 2.910927 1_555
Al1_7 Hf4_6 2.987554 1_555
Al1_7 Hf3_7 2.988892 1_555
Al1_7 Hf5_5 2.989300 1_565
Fe0_0 Hf3_1 2.549492 1_555
Fe0_0 Hf3_5 2.549492 1_555
Fe0_0 Hf4_6 2.550958 1_545
Fe0_0 Hf4_2 2.550958 1_545
Fe0_0 Hf5_4 2.550958 1_556
Fe0_0 Hf5_0 2.550958 1_556
Fe0_0 Hf1_0 3.078522 1_556
Fe0_0 Hf2_3 3.078522 1_545
Fe0_0 Hf0_2 3.080858 1_546
Fe0_1 Hf3_0 2.549492 1_555
Fe0_1 Hf3_4 2.549492 1_555
Fe0_1 Hf4_3 2.550958 1_545
Fe0_1 Hf4_7 2.550958 1_545
Fe0_1 Hf5_5 2.550958 1_555
Fe0_1 Hf5_1 2.550958 1_555
Fe0_1 Hf1_1 3.078522 1_555
Fe0_1 Hf2_2 3.078522 1_545
Fe0_1 Hf0_3 3.080858 1_545
Fe0_2 Hf3_3 2.549492 1_555
Fe0_2 Hf3_7 2.549492 1_555
Fe0_2 Hf4_0 2.550958 1_555
Fe0_2 Hf4_4 2.550958 1_555
Fe0_2 Hf5_6 2.550958 1_556
Fe0_2 Hf5_2 2.550958 1_556
Fe0_2 Hf1_2 3.078522 1_556
Fe0_2 Hf2_1 3.078522 1_555
Fe0_2 Hf0_0 3.080858 1_556
Fe0_3 Hf3_2 2.549492 1_555
Fe0_3 Hf3_6 2.549492 1_555
Fe0_3 Hf4_5 2.550958 1_555
Fe0_3 Hf4_1 2.550958 1_555
Fe0_3 Hf5_7 2.550958 1_555
Fe0_3 Hf5_3 2.550958 1_555
Fe0_3 Hf1_3 3.078522 1_555
Fe0_3 Hf2_0 3.078522 1_555
Fe0_3 Hf0_1 3.080858 1_555
Fe0_4 Hf3_1 2.549492 1_655
Fe0_4 Hf3_5 2.549492 1_555
Fe0_4 Hf4_6 2.550958 1_545
Fe0_4 Hf4_2 2.550958 1_645
Fe0_4 Hf5_4 2.550958 1_556
Fe0_4 Hf5_0 2.550958 1_656
Fe0_4 Hf1_4 3.078522 1_556
Fe0_4 Hf2_7 3.078522 1_545
Fe0_4 Hf0_6 3.080858 1_546
Fe0_5 Hf3_0 2.549492 1_655
Fe0_5 Hf3_4 2.549492 1_555
Fe0_5 Hf4_7 2.550958 1_545
Fe0_5 Hf4_3 2.550958 1_645
Fe0_5 Hf5_5 2.550958 1_555
Fe0_5 Hf5_1 2.550958 1_655
Fe0_5 Hf1_5 3.078522 1_555
Fe0_5 Hf2_6 3.078522 1_545
Fe0_5 Hf0_7 3.080858 1_545
Fe0_6 Hf3_3 2.549492 1_655
Fe0_6 Hf3_7 2.549492 1_555
Fe0_6 Hf4_0 2.550958 1_655
Fe0_6 Hf4_4 2.550958 1_555
Fe0_6 Hf5_6 2.550958 1_556
Fe0_6 Hf5_2 2.550958 1_656
Fe0_6 Hf1_6 3.078522 1_556
Fe0_6 Hf2_5 3.078522 1_555
Fe0_6 Hf0_4 3.080858 1_556
Fe0_7 Hf3_6 2.549492 1_555
Fe0_7 Hf3_2 2.549492 1_655
Fe0_7 Hf4_5 2.550958 1_555
Fe0_7 Hf4_1 2.550958 1_655
Fe0_7 Hf5_3 2.550958 1_655
Fe0_7 Hf5_7 2.550958 1_555
Fe0_7 Hf1_7 3.078522 1_555
Fe0_7 Hf2_4 3.078522 1_555
Fe0_7 Hf0_5 3.080858 1_555
