# generated using pymatgen
data_Na2CaV12O32
_symmetry_space_group_name_H-M   'P 1'
_cell_length_a   7.20636500
_cell_length_b   13.76448924
_cell_length_c   8.60899298
_cell_angle_alpha   102.11349230
_cell_angle_beta   114.74226322
_cell_angle_gamma   74.82465927
_symmetry_Int_Tables_number   1
_chemical_formula_structural   Na2CaV12O32
_chemical_formula_sum   'Na2 Ca1 V12 O32'
_cell_volume   743.59116751
_cell_formula_units_Z   1
loop_
 _symmetry_equiv_pos_site_id
 _symmetry_equiv_pos_as_xyz
  1  'x, y, z'
loop_
 _atom_site_type_symbol
 _atom_site_label
 _atom_site_symmetry_multiplicity
 _atom_site_fract_x
 _atom_site_fract_y
 _atom_site_fract_z
 _atom_site_occupancy
  Na  Na0  1  0.58507200  0.65544900  0.57925700  1
  Na  Na1  1  0.08873600  0.65544900  0.57925700  1
  Ca  Ca0  1  0.91154900  0.34561500  0.41871300  1
  V  V0  1  0.01395300  0.84324600  0.12115100  1
  V  V1  1  0.51415400  0.84363400  0.12194100  1
  V  V2  1  0.48493000  0.15952300  0.88114700  1
  V  V3  1  0.98669400  0.15952300  0.88114700  1
  V  V4  1  0.53213200  0.52497300  0.83923700  1
  V  V5  1  0.03348900  0.52487100  0.84184800  1
  V  V6  1  0.96428700  0.47703400  0.15476000  1
  V  V7  1  0.46343900  0.47703400  0.15476000  1
  V  V8  1  0.42278900  0.08676600  0.18234500  1
  V  V9  1  0.92204700  0.08432000  0.17841300  1
  V  V10  1  0.07779500  0.91694900  0.82245200  1
  V  V11  1  0.57770700  0.91694900  0.82245200  1
  O  O0  1  0.43285500  0.63886300  0.75457400  1
  O  O1  1  0.93488000  0.63758100  0.75734000  1
  O  O2  1  0.03130000  0.35921400  0.22259000  1
  O  O3  1  0.58207500  0.35921400  0.22259000  1
  O  O4  1  0.46852000  0.16523000  0.35227100  1
  O  O5  1  0.96941200  0.16363500  0.35245800  1
  O  O6  1  0.03028300  0.83729400  0.65147200  1
  O  O7  1  0.53389500  0.83729400  0.65147200  1
  O  O8  1  0.17984900  0.46911100  0.07880800  1
  O  O9  1  0.67154300  0.48741100  0.08049700  1
  O  O10  1  0.31640100  0.52857300  0.91904300  1
  O  O11  1  0.82406900  0.52857300  0.91904300  1
  O  O12  1  0.12120100  0.75735000  0.24975100  1
  O  O13  1  0.62116100  0.75718200  0.24950500  1
  O  O14  1  0.37202200  0.24415600  0.75062300  1
  O  O15  1  0.88444500  0.24415600  0.75062300  1
  O  O16  1  0.02546900  0.95921700  0.26015500  1
  O  O17  1  0.52556100  0.95924800  0.26036900  1
  O  O18  1  0.47495000  0.04283600  0.74335600  1
  O  O19  1  0.97557000  0.04283600  0.74335600  1
  O  O20  1  0.77750000  0.16599900  0.97100000  1
  O  O21  1  0.27848500  0.16585700  0.97282800  1
  O  O22  1  0.72198500  0.83653900  0.03004200  1
  O  O23  1  0.22151900  0.83653900  0.03004200  1
  O  O24  1  0.50075000  0.43164700  0.68314700  1
  O  O25  1  0.99777500  0.43166400  0.67721300  1
  O  O26  1  0.00510000  0.56396500  0.32433700  1
  O  O27  1  0.50527100  0.56396500  0.32433700  1
  O  O28  1  0.35934600  0.92590500  0.89459700  1
  O  O29  1  0.85944900  0.92742700  0.89632500  1
  O  O30  1  0.14018000  0.07509200  0.10768000  1
  O  O31  1  0.64240800  0.07509200  0.10768000  1
loop_
_geom_bond_atom_site_label_1
_geom_bond_atom_site_label_2
_geom_bond_distance
_geom_bond_site_symmetry_2
Na0 O27 2.212580 1_555
Na0 O0 2.279246 1_555
Na0 O1 2.316067 1_555
Na0 O7 2.417248 1_555
Na1 O26 2.212580 1_555
Na1 O0 2.279240 1_555
Na1 O1 2.316062 1_455
Na1 O6 2.417248 1_555
Ca0 O25 2.205223 1_555
Ca0 O2 2.251088 1_655
Ca0 O3 2.251093 1_555
Ca0 O5 2.413745 1_555
O0 V4 1.719431 1_555
O1 V5 1.704366 1_655
O2 V6 1.719185 1_455
O3 V7 1.719185 1_555
O4 V8 1.592100 1_555
O5 V9 1.622926 1_555
O6 V10 1.607282 1_555
O7 V11 1.607282 1_555
O8 V7 1.893184 1_555
O8 V6 1.893191 1_455
O8 V5 2.072510 1_554
O9 V6 1.905574 1_555
O9 V7 1.905574 1_555
O9 V4 2.005653 1_554
O10 V5 1.872657 1_555
O10 V4 1.931542 1_555
O10 V7 2.038323 1_556
O11 V5 1.872664 1_655
O11 V4 1.931542 1_555
O11 V6 2.038323 1_556
O12 V0 1.604873 1_555
O13 V1 1.604953 1_555
O14 V2 1.602988 1_555
O15 V3 1.602988 1_555
O16 V0 1.780886 1_555
O16 V9 1.847576 1_465
O17 V1 1.774812 1_555
O17 V8 1.865024 1_565
O18 V2 1.783660 1_555
O18 V11 1.848204 1_545
O19 V3 1.783660 1_555
O19 V10 1.848204 1_645
O20 V2 1.937984 1_555
O20 V3 1.937991 1_555
O20 V9 2.051810 1_556
O21 V3 1.931314 1_455
O21 V2 1.931320 1_555
O21 V8 2.044827 1_556
O22 V0 1.934049 1_655
O22 V1 1.939447 1_555
O22 V11 2.042596 1_554
O23 V0 1.934049 1_555
O23 V1 1.939447 1_555
O23 V10 2.042596 1_554
O24 V4 1.637154 1_555
O25 V5 1.680894 1_655
O26 V6 1.655662 1_455
O27 V7 1.655662 1_555
O28 V11 1.887209 1_555
O28 V10 1.887216 1_555
O28 V1 2.190584 1_556
O29 V10 1.892472 1_655
O29 V11 1.892478 1_555
O29 V0 2.188709 1_656
O30 V9 1.876759 1_455
O30 V8 1.902326 1_555
O30 V3 2.202261 1_454
O31 V9 1.876766 1_555
O31 V8 1.902333 1_555
O31 V2 2.202261 1_554
