# generated using pymatgen
data_Li7Si2(NiO4)3
_symmetry_space_group_name_H-M   'P 1'
_cell_length_a   4.87386574
_cell_length_b   4.89518849
_cell_length_c   19.19584400
_cell_angle_alpha   92.34116897
_cell_angle_beta   85.29274229
_cell_angle_gamma   119.85628833
_symmetry_Int_Tables_number   1
_chemical_formula_structural   Li7Si2(NiO4)3
_chemical_formula_sum   'Li14 Si4 Ni6 O24'
_cell_volume   395.85904155
_cell_formula_units_Z   2
loop_
 _symmetry_equiv_pos_site_id
 _symmetry_equiv_pos_as_xyz
  1  'x, y, z'
loop_
 _atom_site_type_symbol
 _atom_site_label
 _atom_site_symmetry_multiplicity
 _atom_site_fract_x
 _atom_site_fract_y
 _atom_site_fract_z
 _atom_site_occupancy
  Li  Li0  1  0.20833300  0.66666900  0.37500700  1
  Li  Li1  1  0.70833600  0.66666900  0.87499300  1
  Li  Li2  1  0.83895400  0.65746300  0.49838600  1
  Li  Li3  1  0.34820300  0.67627100  0.99846000  1
  Li  Li4  1  0.57806400  0.67626800  0.25154100  1
  Li  Li5  1  0.06851000  0.65746100  0.75161300  1
  Li  Li6  1  0.92635000  0.33808300  0.25156500  1
  Li  Li7  1  0.42794100  0.34226100  0.75146100  1
  Li  Li8  1  0.16432400  0.34226400  0.49853900  1
  Li  Li9  1  0.66173600  0.33808300  0.99843400  1
  Li  Li10  1  0.25171700  0.99068600  0.25145800  1
  Li  Li11  1  0.75445600  0.99503200  0.75161200  1
  Li  Li12  1  0.49057300  0.99503500  0.49838900  1
  Li  Li13  1  0.98896800  0.99068700  0.99854200  1
  Si  Si0  1  0.54173200  0.33317500  0.37485800  1
  Si  Si1  1  0.04144300  0.33317500  0.87514200  1
  Si  Si2  1  0.87503700  0.00029400  0.37509200  1
  Si  Si3  1  0.37525500  0.00029300  0.87490900  1
  Ni  Ni0  1  0.45740100  0.66480000  0.62500000  1
  Ni  Ni1  1  0.12823500  0.00646800  0.62500100  1
  Ni  Ni2  1  0.28829600  0.32658400  0.12500000  1
  Ni  Ni3  1  0.95914200  0.66828400  0.12500000  1
  Ni  Ni4  1  0.62282300  0.99564900  0.12500000  1
  Ni  Ni5  1  0.79383200  0.33767600  0.62500000  1
  O  O0  1  0.29488900  0.68176400  0.18329500  1
  O  O1  1  0.77895300  0.65135200  0.68326900  1
  O  O2  1  0.63687300  0.68176100  0.06670500  1
  O  O3  1  0.12240600  0.65135700  0.56673100  1
  O  O4  1  0.85291900  0.66616700  0.32253800  1
  O  O5  1  0.35334800  0.66722900  0.82254700  1
  O  O6  1  0.56387900  0.66722800  0.42745300  1
  O  O7  1  0.06324700  0.66616500  0.92746200  1
  O  O8  1  0.97527600  0.30770600  0.07025100  1
  O  O9  1  0.49734900  0.32727000  0.56666100  1
  O  O10  1  0.58242600  0.30770500  0.17974600  1
  O  O11  1  0.07992600  0.32727300  0.68334100  1
  O  O12  1  0.33683100  0.00669600  0.06661700  1
  O  O13  1  0.83270200  0.02536100  0.57012300  1
  O  O14  1  0.91987200  0.00670100  0.18338200  1
  O  O15  1  0.44266400  0.02536100  0.67987800  1
  O  O16  1  0.81983900  0.29450300  0.42696100  1
  O  O17  1  0.31885200  0.29401700  0.92730000  1
  O  O18  1  0.59679900  0.03886200  0.32303700  1
  O  O19  1  0.09788500  0.03940700  0.82267100  1
  O  O20  1  0.19152000  0.03940600  0.42732900  1
  O  O21  1  0.69206200  0.03886000  0.92696300  1
  O  O22  1  0.22516600  0.29401800  0.32270000  1
  O  O23  1  0.72466400  0.29450400  0.82303900  1
loop_
_geom_bond_atom_site_label_1
_geom_bond_atom_site_label_2
_geom_bond_distance
_geom_bond_site_symmetry_2
Li0 O4 2.072921 1_455
Li0 O6 2.073118 1_555
Li0 O16 2.074321 1_455
Li0 O18 2.074456 1_565
Li0 O22 2.080491 1_555
Li0 O20 2.080945 1_565
Li1 O7 2.072921 1_655
Li1 O5 2.073124 1_555
Li1 O23 2.074331 1_555
Li1 O21 2.074463 1_565
Li1 O17 2.080479 1_555
Li1 O19 2.080931 1_665
Li2 O3 1.993097 1_655
Li2 O6 2.005605 1_555
Li2 O9 2.058588 1_555
Li2 O16 2.168523 1_555
Li2 O20 2.221218 1_665
Li2 O13 2.232866 1_565
Li3 O2 1.989558 1_556
Li3 O7 2.006357 1_555
Li3 O12 2.058045 1_566
Li3 O21 2.168528 1_565
Li3 O17 2.223622 1_555
Li3 O8 2.232685 1_456
Li4 O0 1.989564 1_555
Li4 O4 2.006352 1_555
Li4 O14 2.058090 1_565
Li4 O18 2.168542 1_565
Li4 O22 2.223579 1_555
Li4 O10 2.232737 1_555
Li5 O1 1.993074 1_455
Li5 O5 2.005607 1_555
Li5 O11 2.058555 1_555
Li5 O23 2.168515 1_455
Li5 O19 2.221258 1_565
Li5 O15 2.232840 1_565
Li6 O18 2.016848 1_555
Li6 O14 2.031704 1_555
Li6 O0 2.135227 1_655
Li6 O22 2.166895 1_655
Li6 O10 2.201558 1_555
Li6 O4 2.208399 1_555
Li7 O19 2.020968 1_555
Li7 O1 2.036324 1_555
Li7 O15 2.054330 1_555
Li7 O23 2.173243 1_555
Li7 O11 2.196489 1_555
Li7 O5 2.200414 1_555
Li8 O20 2.020985 1_555
Li8 O3 2.036339 1_555
Li8 O13 2.054333 1_455
Li8 O16 2.173256 1_455
Li8 O9 2.196519 1_555
Li8 O6 2.200379 1_555
Li9 O21 2.016848 1_555
Li9 O12 2.031703 1_556
Li9 O2 2.135251 1_556
Li9 O17 2.166891 1_555
Li9 O8 2.201507 1_556
Li9 O7 2.208361 1_655
Li10 O22 2.021915 1_565
Li10 O0 2.037920 1_555
Li10 O10 2.054539 1_565
Li10 O18 2.174898 1_565
Li10 O14 2.193444 1_465
Li10 O4 2.197894 1_455
Li11 O23 2.016215 1_565
Li11 O11 2.035471 1_665
Li11 O1 2.135346 1_555
Li11 O19 2.167485 1_665
Li11 O15 2.193677 1_565
Li11 O5 2.206598 1_555
Li12 O16 2.016211 1_565
Li12 O9 2.035465 1_565
Li12 O3 2.135298 1_555
Li12 O20 2.167486 1_565
Li12 O13 2.193712 1_565
Li12 O6 2.206642 1_555
Li13 O17 2.021900 1_665
Li13 O2 2.037915 1_556
Li13 O8 2.054519 1_566
Li13 O21 2.174891 1_565
Li13 O12 2.193454 1_666
Li13 O7 2.197920 1_655
Ni0 O3 2.026808 1_555
Ni0 O1 2.026819 1_555
Ni0 O11 2.038463 1_555
Ni0 O9 2.038470 1_555
Ni0 O13 2.047432 1_565
Ni0 O15 2.047449 1_565
Ni1 O13 1.892781 1_455
Ni1 O15 1.892781 1_555
Ni1 O9 1.989184 1_555
Ni1 O11 1.989202 1_555
Ni1 O1 2.017635 1_445
Ni1 O3 2.017657 1_545
Ni2 O10 1.885496 1_555
Ni2 O8 1.885578 1_455
Ni2 O14 1.986412 1_455
Ni2 O12 1.986442 1_555
Ni2 O2 2.016777 1_555
Ni2 O0 2.016816 1_555
Ni3 O0 2.030105 1_655
Ni3 O2 2.030106 1_555
Ni3 O12 2.041011 1_665
Ni3 O14 2.041020 1_565
Ni3 O10 2.049196 1_555
Ni3 O8 2.049227 1_555
Ni4 O12 1.881019 1_565
Ni4 O14 1.881036 1_565
Ni4 O0 1.889303 1_555
Ni4 O2 1.889329 1_555
Ni4 O10 1.900255 1_565
Ni4 O8 1.900273 1_565
Ni5 O9 1.879474 1_555
Ni5 O11 1.879560 1_655
Ni5 O1 1.889804 1_555
Ni5 O3 1.889838 1_655
Ni5 O15 1.899159 1_555
Ni5 O13 1.899200 1_555
O4 Si0 1.840733 1_555
O4 Si2 1.847176 1_565
O5 Si3 1.841286 1_565
O5 Si1 1.847220 1_555
O6 Si2 1.841271 1_565
O6 Si0 1.847232 1_555
O7 Si1 1.840739 1_555
O7 Si3 1.847155 1_565
O16 Si2 1.833736 1_555
O16 Si0 1.834905 1_555
O17 Si1 1.833885 1_555
O17 Si3 1.839668 1_555
O18 Si0 1.833387 1_555
O18 Si2 1.834625 1_555
O19 Si3 1.834558 1_555
O19 Si1 1.840713 1_555
O20 Si2 1.834545 1_455
O20 Si0 1.840707 1_555
O21 Si1 1.833380 1_655
O21 Si3 1.834619 1_555
O22 Si0 1.833882 1_555
O22 Si2 1.839670 1_455
O23 Si3 1.833741 1_555
O23 Si1 1.834906 1_655
