# generated using pymatgen
data_KMg14CrO16
_symmetry_space_group_name_H-M   'P 1'
_cell_length_a   8.61213773
_cell_length_b   8.62381927
_cell_length_c   4.36218975
_cell_angle_alpha   90.00000000
_cell_angle_beta   90.00000000
_cell_angle_gamma   90.00000000
_symmetry_Int_Tables_number   1
_chemical_formula_structural   KMg14CrO16
_chemical_formula_sum   'K1 Mg14 Cr1 O16'
_cell_volume   323.97773588
_cell_formula_units_Z   1
loop_
 _symmetry_equiv_pos_site_id
 _symmetry_equiv_pos_as_xyz
  1  'x, y, z'
loop_
 _atom_site_type_symbol
 _atom_site_label
 _atom_site_symmetry_multiplicity
 _atom_site_fract_x
 _atom_site_fract_y
 _atom_site_fract_z
 _atom_site_occupancy
  K  K0  1  0.00000000  0.00000000  0.00000000  1
  Mg  Mg0  1  0.50000000  0.00000000  0.00000000  1
  Mg  Mg1  1  0.50000000  0.50000000  0.00000000  1
  Mg  Mg2  1  0.00000000  0.24449696  0.50000000  1
  Mg  Mg3  1  0.00000000  0.75550304  0.50000000  1
  Mg  Mg4  1  0.50000000  0.24819213  0.50000000  1
  Mg  Mg5  1  0.50000000  0.75180787  0.50000000  1
  Mg  Mg6  1  0.25182202  0.00000000  0.50000000  1
  Mg  Mg7  1  0.25148397  0.50000000  0.50000000  1
  Mg  Mg8  1  0.74817798  0.00000000  0.50000000  1
  Mg  Mg9  1  0.74851603  0.50000000  0.50000000  1
  Mg  Mg10  1  0.25323022  0.24660117  0.00000000  1
  Mg  Mg11  1  0.25323022  0.75339883  0.00000000  1
  Mg  Mg12  1  0.74676978  0.24660117  0.00000000  1
  Mg  Mg13  1  0.74676978  0.75339883  0.00000000  1
  Cr  Cr0  1  0.00000000  0.50000000  0.00000000  1
  O  O0  1  0.27503383  0.00000000  0.00000000  1
  O  O1  1  0.24248123  0.50000000  0.00000000  1
  O  O2  1  0.72496617  0.00000000  0.00000000  1
  O  O3  1  0.75751877  0.50000000  0.00000000  1
  O  O4  1  0.24916251  0.25185001  0.50000000  1
  O  O5  1  0.24916251  0.74814999  0.50000000  1
  O  O6  1  0.75083749  0.25185001  0.50000000  1
  O  O7  1  0.75083749  0.74814999  0.50000000  1
  O  O8  1  0.00000000  0.00000000  0.50000000  1
  O  O9  1  0.00000000  0.50000000  0.50000000  1
  O  O10  1  0.50000000  0.00000000  0.50000000  1
  O  O11  1  0.50000000  0.50000000  0.50000000  1
  O  O12  1  0.00000000  0.27610272  0.00000000  1
  O  O13  1  0.00000000  0.72389728  0.00000000  1
  O  O14  1  0.50000000  0.25926398  0.00000000  1
  O  O15  1  0.50000000  0.74073602  0.00000000  1
loop_
_geom_bond_atom_site_label_1
_geom_bond_atom_site_label_2
_geom_bond_distance
_geom_bond_site_symmetry_2
K0 O8 2.181095 1_554
K0 O8 2.181095 1_555
K0 O0 2.368629 1_555
K0 O2 2.368629 1_455
K0 O13 2.381060 1_545
K0 O12 2.381060 1_555
Mg0 O2 1.937440 1_555
Mg0 O0 1.937440 1_555
Mg0 O10 2.181095 1_555
Mg0 O10 2.181095 1_554
Mg0 O15 2.235846 1_545
Mg0 O14 2.235846 1_555
Mg1 O14 2.076064 1_555
Mg1 O15 2.076064 1_555
Mg1 O11 2.181095 1_554
Mg1 O11 2.181095 1_555
Mg1 O1 2.217787 1_555
Mg1 O3 2.217787 1_555
Mg2 O8 2.108498 1_555
Mg2 O4 2.146759 1_555
Mg2 O6 2.146759 1_455
Mg2 O12 2.198059 1_555
Mg2 O12 2.198059 1_556
Mg2 O9 2.203412 1_555
Mg3 O8 2.108498 1_565
Mg3 O5 2.146759 1_555
Mg3 O7 2.146759 1_455
Mg3 O13 2.198059 1_555
Mg3 O13 2.198059 1_556
Mg3 O9 2.203412 1_555
Mg4 O10 2.140364 1_555
Mg4 O4 2.160477 1_555
Mg4 O6 2.160477 1_555
Mg4 O11 2.171546 1_555
Mg4 O14 2.183184 1_555
Mg4 O14 2.183184 1_556
Mg5 O10 2.140364 1_565
Mg5 O5 2.160477 1_555
Mg5 O7 2.160477 1_555
Mg5 O11 2.171546 1_555
Mg5 O15 2.183184 1_555
Mg5 O15 2.183184 1_556
Mg6 O10 2.137343 1_555
Mg6 O8 2.168726 1_555
Mg6 O5 2.172030 1_545
Mg6 O4 2.172030 1_555
Mg6 O0 2.190237 1_555
Mg6 O0 2.190237 1_556
Mg7 O4 2.140094 1_555
Mg7 O5 2.140094 1_555
Mg7 O11 2.140254 1_555
Mg7 O9 2.165815 1_555
Mg7 O1 2.182472 1_555
Mg7 O1 2.182472 1_556
Mg8 O10 2.137343 1_555
Mg8 O8 2.168726 1_655
Mg8 O7 2.172030 1_545
Mg8 O6 2.172030 1_555
Mg8 O2 2.190237 1_556
Mg8 O2 2.190237 1_555
Mg9 O6 2.140094 1_555
Mg9 O7 2.140094 1_555
Mg9 O11 2.140254 1_555
Mg9 O9 2.165815 1_655
Mg9 O3 2.182472 1_555
Mg9 O3 2.182472 1_556
Mg10 O14 2.128019 1_555
Mg10 O0 2.134918 1_555
Mg10 O4 2.181846 1_554
Mg10 O4 2.181846 1_555
Mg10 O1 2.187226 1_555
Mg10 O12 2.195643 1_555
Mg11 O15 2.128019 1_555
Mg11 O0 2.134918 1_565
Mg11 O5 2.181846 1_555
Mg11 O5 2.181846 1_554
Mg11 O1 2.187226 1_555
Mg11 O13 2.195643 1_555
Mg12 O14 2.128019 1_555
Mg12 O2 2.134918 1_555
Mg12 O6 2.181846 1_555
Mg12 O6 2.181846 1_554
Mg12 O3 2.187226 1_555
Mg12 O12 2.195643 1_655
Mg13 O15 2.128019 1_555
Mg13 O2 2.134918 1_565
Mg13 O7 2.181846 1_555
Mg13 O7 2.181846 1_554
Mg13 O3 2.187226 1_555
Mg13 O13 2.195643 1_655
Cr0 O13 1.930850 1_555
Cr0 O12 1.930850 1_555
Cr0 O1 2.088282 1_555
Cr0 O3 2.088282 1_455
Cr0 O9 2.181095 1_555
Cr0 O9 2.181095 1_554
