# generated using pymatgen
data_BeH16C4S2(ClO2)2
_symmetry_space_group_name_H-M   'P 1'
_cell_length_a   8.13366640
_cell_length_b   8.33772017
_cell_length_c   10.82499233
_cell_angle_alpha   86.41038944
_cell_angle_beta   83.34314225
_cell_angle_gamma   70.00044646
_symmetry_Int_Tables_number   1
_chemical_formula_structural   BeH16C4S2(ClO2)2
_chemical_formula_sum   'Be2 H32 C8 S4 Cl4 O8'
_cell_volume   684.98177151
_cell_formula_units_Z   2
loop_
 _symmetry_equiv_pos_site_id
 _symmetry_equiv_pos_as_xyz
  1  'x, y, z'
loop_
 _atom_site_type_symbol
 _atom_site_label
 _atom_site_symmetry_multiplicity
 _atom_site_fract_x
 _atom_site_fract_y
 _atom_site_fract_z
 _atom_site_occupancy
  Be  Be0  1  0.37244600  0.77497500  0.25424800  1
  Be  Be1  1  0.62755400  0.22502500  0.74575200  1
  H  H0  1  0.22810800  0.96734400  0.92613300  1
  H  H1  1  0.77189200  0.03265600  0.07386700  1
  H  H2  1  0.10757200  0.19421100  0.93297400  1
  H  H3  1  0.89242800  0.80578900  0.06702600  1
  H  H4  1  0.34425500  0.11625000  0.93434000  1
  H  H5  1  0.65574500  0.88375000  0.06566000  1
  H  H6  1  0.21977000  0.26962800  0.26334700  1
  H  H7  1  0.78023000  0.73037200  0.73665300  1
  H  H8  1  0.33435800  0.28031300  0.11066200  1
  H  H9  1  0.66564200  0.71968700  0.88933800  1
  H  H10  1  0.09689400  0.37120100  0.13468000  1
  H  H11  1  0.90310600  0.62879900  0.86532000  1
  H  H12  1  0.02551900  0.77932100  0.55477600  1
  H  H13  1  0.97448100  0.22067900  0.44522400  1
  H  H14  1  0.14263800  0.74012500  0.69321800  1
  H  H15  1  0.85736200  0.25987500  0.30678200  1
  H  H16  1  0.09733400  0.94424000  0.61046800  1
  H  H17  1  0.90266600  0.05576000  0.38953200  1
  H  H18  1  0.59262200  0.75874100  0.54418800  1
  H  H19  1  0.40737800  0.24125900  0.45581200  1
  H  H20  1  0.40019200  0.92655200  0.61294100  1
  H  H21  1  0.59980800  0.07344800  0.38705900  1
  H  H22  1  0.47162900  0.71642900  0.68650600  1
  H  H23  1  0.52837100  0.28357100  0.31349400  1
  H  H24  1  0.62733100  0.55605400  0.18253800  1
  H  H25  1  0.37266900  0.44394600  0.81746200  1
  H  H26  1  0.67402600  0.67164300  0.28016100  1
  H  H27  1  0.32597400  0.32835700  0.71983900  1
  H  H28  1  0.12881900  0.68433300  0.25657100  1
  H  H29  1  0.87118100  0.31566700  0.74342900  1
  H  H30  1  0.24963700  0.64951100  0.12230500  1
  H  H31  1  0.75036300  0.35048900  0.87769500  1
  C  C0  1  0.22181600  0.08980200  0.96229500  1
  C  C1  1  0.77818400  0.91019800  0.03770500  1
  C  C2  1  0.21439900  0.26924300  0.16277600  1
  C  C3  1  0.78560100  0.73075700  0.83722400  1
  C  C4  1  0.12506700  0.80648000  0.60212800  1
  C  C5  1  0.87493300  0.19352000  0.39787200  1
  C  C6  1  0.46279400  0.78888200  0.59766100  1
  C  C7  1  0.53720600  0.21111800  0.40233900  1
  S  S0  1  0.19294600  0.07176700  0.12751500  1
  S  S1  1  0.80705400  0.92823300  0.87248500  1
  S  S2  1  0.32754400  0.72281600  0.50809900  1
  S  S3  1  0.67245600  0.27718400  0.49190100  1
  Cl  Cl0  1  0.75263600  0.37012800  0.06355800  1
  Cl  Cl1  1  0.24736400  0.62987200  0.93644200  1
  Cl  Cl2  1  0.88206200  0.71344600  0.34349500  1
  Cl  Cl3  1  0.11793800  0.28655400  0.65650500  1
  O  O0  1  0.36977500  0.93598300  0.16143500  1
  O  O1  1  0.63022500  0.06401700  0.83856500  1
  O  O2  1  0.30292900  0.84796900  0.39296900  1
  O  O3  1  0.69707100  0.15203100  0.60703100  1
  O  O4  1  0.57478600  0.64146900  0.25114700  1
  O  O5  1  0.42521400  0.35853100  0.74885300  1
  O  O6  1  0.25028100  0.66842600  0.21354000  1
  O  O7  1  0.74971900  0.33157400  0.78646000  1
loop_
_geom_bond_atom_site_label_1
_geom_bond_atom_site_label_2
_geom_bond_distance
_geom_bond_site_symmetry_2
Be0 O2 1.620885 1_555
Be0 O0 1.621191 1_555
Be0 O4 1.639361 1_555
Be0 O6 1.650783 1_555
Be1 O3 1.620885 1_555
Be1 O1 1.621191 1_555
Be1 O5 1.639361 1_555
Be1 O7 1.650783 1_555
H24 O4 1.012854 1_555
H25 O5 1.012854 1_555
H26 O4 1.010477 1_555
H27 O5 1.010477 1_555
H28 O6 1.010938 1_555
H29 O7 1.010938 1_555
H30 O6 1.010721 1_555
H31 O7 1.010721 1_555
C0 H2 1.096578 1_555
C0 H4 1.097254 1_555
C0 H0 1.099090 1_545
C0 S0 1.780340 1_556
C1 H3 1.096578 1_555
C1 H5 1.097254 1_555
C1 H1 1.099090 1_565
C1 S1 1.780340 1_554
C2 H6 1.094853 1_555
C2 H8 1.098287 1_555
C2 H10 1.099036 1_555
C2 S0 1.782628 1_555
C3 H7 1.094853 1_555
C3 H9 1.098287 1_555
C3 H11 1.099036 1_555
C3 S1 1.782628 1_555
C4 H12 1.098086 1_555
C4 H14 1.099581 1_555
C4 H16 1.099710 1_555
C5 H13 1.098086 1_555
C5 H15 1.099581 1_555
C5 H17 1.099710 1_555
C6 H18 1.099219 1_555
C6 H22 1.099376 1_555
C6 H20 1.099387 1_555
C7 H19 1.099219 1_555
C7 H23 1.099376 1_555
C7 H21 1.099387 1_555
Cl0 H24 1.991394 1_555
Cl0 H31 2.031528 1_554
Cl1 H25 1.991394 1_555
Cl1 H30 2.031528 1_556
Cl2 H26 2.038872 1_555
Cl2 H28 2.056703 1_655
Cl3 H27 2.038872 1_555
Cl3 H29 2.056703 1_455
O0 S0 1.562606 1_565
O1 S1 1.562606 1_545
O2 S2 1.560216 1_555
O3 S3 1.560216 1_555
