# generated using pymatgen
data_Zn(CO3)2
_symmetry_space_group_name_H-M   'P 1'
_cell_length_a   5.41015600
_cell_length_b   5.81281443
_cell_length_c   8.21663543
_cell_angle_alpha   78.65652641
_cell_angle_beta   70.77858055
_cell_angle_gamma   62.26617979
_symmetry_Int_Tables_number   1
_chemical_formula_structural   Zn(CO3)2
_chemical_formula_sum   'Zn2 C4 O12'
_cell_volume   215.67109175
_cell_formula_units_Z   2
loop_
 _symmetry_equiv_pos_site_id
 _symmetry_equiv_pos_as_xyz
  1  'x, y, z'
loop_
 _atom_site_type_symbol
 _atom_site_label
 _atom_site_symmetry_multiplicity
 _atom_site_fract_x
 _atom_site_fract_y
 _atom_site_fract_z
 _atom_site_occupancy
  Zn  Zn0  1  0.16348900  0.75000000  0.25000000  1
  Zn  Zn1  1  0.83651100  0.25000000  0.75000000  1
  C  C0  1  0.71212800  0.75140200  0.14815100  1
  C  C1  1  0.61168200  0.74859800  0.35184900  1
  C  C2  1  0.28787200  0.24859800  0.85184900  1
  C  C3  1  0.38831800  0.25140200  0.64815100  1
  O  O0  1  0.54512700  0.74448800  0.07488200  1
  O  O1  1  0.36449700  0.75551200  0.42511800  1
  O  O2  1  0.45487300  0.25551200  0.92511800  1
  O  O3  1  0.63550300  0.24448800  0.57488200  1
  O  O4  1  0.95182700  0.76168100  0.07385400  1
  O  O5  1  0.78736200  0.73831900  0.42614600  1
  O  O6  1  0.04817300  0.23831900  0.92614600  1
  O  O7  1  0.21263800  0.26168100  0.57385400  1
  O  O8  1  0.36733100  0.34878500  0.25855100  1
  O  O9  1  0.97466800  0.15121500  0.24144900  1
  O  O10  1  0.63266900  0.65121500  0.74144900  1
  O  O11  1  0.02533200  0.84878500  0.75855100  1
loop_
_geom_bond_atom_site_label_1
_geom_bond_atom_site_label_2
_geom_bond_distance
_geom_bond_site_symmetry_2
C0 O0 1.257705 1_555
C0 O4 1.262721 1_555
C1 O1 1.257710 1_555
C1 O5 1.262716 1_555
C2 O2 1.257705 1_555
C2 O6 1.262721 1_555
C3 O3 1.257710 1_555
C3 O7 1.262716 1_555
O0 Zn0 2.082040 1_555
O1 Zn0 2.082040 1_555
O2 Zn1 2.082040 1_555
O3 Zn1 2.082040 1_555
O4 Zn0 2.095454 1_655
O5 Zn0 2.095454 1_655
O6 Zn1 2.095454 1_455
O7 Zn1 2.095454 1_455
O8 Zn0 2.062278 1_555
O9 Zn0 2.062278 1_645
O10 Zn1 2.062278 1_555
O11 Zn1 2.062278 1_465
