# generated using pymatgen
data_Na4Ga3Ge3O16
_symmetry_space_group_name_H-M   'P 1'
_cell_length_a   9.25697400
_cell_length_b   9.25697400
_cell_length_c   9.25697400
_cell_angle_alpha   90.00000000
_cell_angle_beta   90.00000000
_cell_angle_gamma   90.00000000
_symmetry_Int_Tables_number   1
_chemical_formula_structural   Na4Ga3Ge3O16
_chemical_formula_sum   'Na8 Ga6 Ge6 O32'
_cell_volume   793.24461363
_cell_formula_units_Z   2
loop_
 _symmetry_equiv_pos_site_id
 _symmetry_equiv_pos_as_xyz
  1  'x, y, z'
loop_
 _atom_site_type_symbol
 _atom_site_label
 _atom_site_symmetry_multiplicity
 _atom_site_fract_x
 _atom_site_fract_y
 _atom_site_fract_z
 _atom_site_occupancy
  Na  Na0  1  0.82885400  0.82885400  0.17114600  1
  Na  Na1  1  0.17114600  0.82885400  0.82885400  1
  Na  Na2  1  0.17114600  0.17114600  0.17114600  1
  Na  Na3  1  0.82885400  0.17114600  0.82885400  1
  Na  Na4  1  0.32885400  0.67114600  0.32885400  1
  Na  Na5  1  0.67114600  0.32885400  0.32885400  1
  Na  Na6  1  0.67114600  0.67114600  0.67114600  1
  Na  Na7  1  0.32885400  0.32885400  0.67114600  1
  Ga  Ga0  1  0.50000000  0.00000000  0.25000000  1
  Ga  Ga1  1  0.00000000  0.75000000  0.50000000  1
  Ga  Ga2  1  0.25000000  0.50000000  0.00000000  1
  Ga  Ga3  1  0.00000000  0.25000000  0.50000000  1
  Ga  Ga4  1  0.75000000  0.50000000  0.00000000  1
  Ga  Ga5  1  0.50000000  0.00000000  0.75000000  1
  Ge  Ge0  1  0.25000000  0.00000000  0.50000000  1
  Ge  Ge1  1  0.00000000  0.50000000  0.25000000  1
  Ge  Ge2  1  0.50000000  0.75000000  0.00000000  1
  Ge  Ge3  1  0.75000000  0.00000000  0.50000000  1
  Ge  Ge4  1  0.50000000  0.25000000  0.00000000  1
  Ge  Ge5  1  0.00000000  0.50000000  0.75000000  1
  O  O0  1  0.07530900  0.92469100  0.07530900  1
  O  O1  1  0.92469100  0.07530900  0.07530900  1
  O  O2  1  0.07530900  0.07530900  0.92469100  1
  O  O3  1  0.92469100  0.92469100  0.92469100  1
  O  O4  1  0.57530900  0.57530900  0.42469100  1
  O  O5  1  0.42469100  0.57530900  0.57530900  1
  O  O6  1  0.57530900  0.42469100  0.57530900  1
  O  O7  1  0.42469100  0.42469100  0.42469100  1
  O  O8  1  0.14611700  0.86104700  0.58039300  1
  O  O9  1  0.13895300  0.41960700  0.14611700  1
  O  O10  1  0.58039300  0.85388300  0.13895300  1
  O  O11  1  0.85388300  0.13895300  0.58039300  1
  O  O12  1  0.86104700  0.58039300  0.14611700  1
  O  O13  1  0.41960700  0.14611700  0.13895300  1
  O  O14  1  0.14611700  0.13895300  0.41960700  1
  O  O15  1  0.13895300  0.58039300  0.85388300  1
  O  O16  1  0.58039300  0.14611700  0.86104700  1
  O  O17  1  0.85388300  0.86104700  0.41960700  1
  O  O18  1  0.86104700  0.41960700  0.85388300  1
  O  O19  1  0.41960700  0.85388300  0.86104700  1
  O  O20  1  0.64611700  0.08039300  0.36104700  1
  O  O21  1  0.63895300  0.64611700  0.91960700  1
  O  O22  1  0.08039300  0.63895300  0.35388300  1
  O  O23  1  0.35388300  0.08039300  0.63895300  1
  O  O24  1  0.36104700  0.64611700  0.08039300  1
  O  O25  1  0.91960700  0.63895300  0.64611700  1
  O  O26  1  0.64611700  0.91960700  0.63895300  1
  O  O27  1  0.63895300  0.35388300  0.08039300  1
  O  O28  1  0.08039300  0.36104700  0.64611700  1
  O  O29  1  0.35388300  0.91960700  0.36104700  1
  O  O30  1  0.36104700  0.35388300  0.91960700  1
  O  O31  1  0.91960700  0.36104700  0.35388300  1
loop_
_geom_bond_atom_site_label_1
_geom_bond_atom_site_label_2
_geom_bond_distance
_geom_bond_site_symmetry_2
Na0 O17 2.330768 1_555
Na0 O10 2.330768 1_555
Na0 O12 2.330768 1_555
Na0 O0 2.603655 1_655
Na0 O1 2.603655 1_565
Na0 O3 2.603655 1_554
Na1 O19 2.330768 1_555
Na1 O15 2.330768 1_555
Na1 O8 2.330768 1_555
Na1 O2 2.603655 1_565
Na1 O0 2.603655 1_556
Na1 O3 2.603655 1_455
Na2 O13 2.330768 1_555
Na2 O14 2.330768 1_555
Na2 O9 2.330768 1_555
Na2 O0 2.603655 1_545
Na2 O2 2.603655 1_554
Na2 O1 2.603655 1_455
Na3 O18 2.330768 1_555
Na3 O16 2.330768 1_555
Na3 O11 2.330768 1_555
Na3 O2 2.603655 1_655
Na3 O1 2.603655 1_556
Na3 O3 2.603655 1_545
Na4 O29 2.330768 1_555
Na4 O22 2.330768 1_555
Na4 O24 2.330768 1_555
Na4 O4 2.603655 1_555
Na4 O5 2.603655 1_555
Na4 O7 2.603655 1_555
Na5 O31 2.330768 1_555
Na5 O27 2.330768 1_555
Na5 O20 2.330768 1_555
Na5 O4 2.603655 1_555
Na5 O6 2.603655 1_555
Na5 O7 2.603655 1_555
Na6 O26 2.330768 1_555
Na6 O21 2.330768 1_555
Na6 O25 2.330768 1_555
Na6 O4 2.603655 1_555
Na6 O5 2.603655 1_555
Na6 O6 2.603655 1_555
Na7 O30 2.330768 1_555
Na7 O23 2.330768 1_555
Na7 O28 2.330768 1_555
Na7 O5 2.603655 1_555
Na7 O6 2.603655 1_555
Na7 O7 2.603655 1_555
Ga0 O20 1.854739 1_555
Ga0 O10 1.854739 1_545
Ga0 O13 1.854739 1_555
Ga0 O29 1.854739 1_545
Ga1 O25 1.854739 1_455
Ga1 O22 1.854739 1_555
Ga1 O8 1.854739 1_555
Ga1 O17 1.854739 1_455
Ga2 O24 1.854739 1_555
Ga2 O15 1.854739 1_554
Ga2 O9 1.854739 1_555
Ga2 O30 1.854739 1_554
Ga3 O28 1.854739 1_555
Ga3 O11 1.854739 1_455
Ga3 O14 1.854739 1_555
Ga3 O31 1.854739 1_455
Ga4 O21 1.854739 1_554
Ga4 O27 1.854739 1_555
Ga4 O12 1.854739 1_555
Ga4 O18 1.854739 1_554
Ga5 O26 1.854739 1_545
Ga5 O23 1.854739 1_555
Ga5 O16 1.854739 1_555
Ga5 O19 1.854739 1_545
Ge0 O23 1.770060 1_555
Ge0 O8 1.770060 1_545
Ge0 O14 1.770060 1_555
Ge0 O29 1.770060 1_545
Ge1 O22 1.770060 1_555
Ge1 O12 1.770060 1_455
Ge1 O9 1.770060 1_555
Ge1 O31 1.770060 1_455
Ge2 O10 1.770060 1_555
Ge2 O19 1.770060 1_554
Ge2 O24 1.770060 1_555
Ge2 O21 1.770060 1_554
Ge3 O11 1.770060 1_555
Ge3 O17 1.770060 1_545
Ge3 O20 1.770060 1_555
Ge3 O26 1.770060 1_545
Ge4 O27 1.770060 1_555
Ge4 O16 1.770060 1_554
Ge4 O13 1.770060 1_555
Ge4 O30 1.770060 1_554
Ge5 O15 1.770060 1_555
Ge5 O18 1.770060 1_455
Ge5 O28 1.770060 1_555
Ge5 O25 1.770060 1_455
O0 O3 1.971791 1_454
O0 O1 1.971791 1_465
O0 O2 1.971791 1_564
O1 O3 1.971791 1_544
O1 O2 1.971791 1_654
O2 O3 1.971791 1_445
O4 O7 1.971791 1_555
O4 O5 1.971791 1_555
O4 O6 1.971791 1_555
O5 O7 1.971791 1_555
O5 O6 1.971791 1_555
O6 O7 1.971791 1_555
