# generated using pymatgen
data_MnTlO3
_symmetry_space_group_name_H-M   'P 1'
_cell_length_a   5.64092022
_cell_length_b   5.55162146
_cell_length_c   7.83613276
_cell_angle_alpha   87.99068527
_cell_angle_beta   88.49659013
_cell_angle_gamma   88.57343192
_symmetry_Int_Tables_number   1
_chemical_formula_structural   MnTlO3
_chemical_formula_sum   'Mn4 Tl4 O12'
_cell_volume   245.09240313
_cell_formula_units_Z   4
loop_
 _symmetry_equiv_pos_site_id
 _symmetry_equiv_pos_as_xyz
  1  'x, y, z'
loop_
 _atom_site_type_symbol
 _atom_site_label
 _atom_site_symmetry_multiplicity
 _atom_site_fract_x
 _atom_site_fract_y
 _atom_site_fract_z
 _atom_site_occupancy
  Mn  Mn0  1  0.50010400  0.00008500  0.50017800  1
  Mn  Mn1  1  0.99979400  0.49976900  0.49985600  1
  Mn  Mn2  1  0.00016100  0.49978200  0.99973000  1
  Mn  Mn3  1  0.50024900  0.00018400  0.00021600  1
  Tl  Tl0  1  0.00826600  0.02972600  0.25240800  1
  Tl  Tl1  1  0.50613200  0.47441700  0.74712100  1
  Tl  Tl2  1  0.49367600  0.52594700  0.25287400  1
  Tl  Tl3  1  0.99168500  0.97002100  0.74753900  1
  O  O0  1  0.60190700  0.03162400  0.75332200  1
  O  O1  1  0.10939000  0.46452700  0.26518300  1
  O  O2  1  0.89049900  0.53543800  0.73467900  1
  O  O3  1  0.39807800  0.96857800  0.24700700  1
  O  O4  1  0.82557500  0.21102300  0.04333000  1
  O  O5  1  0.31277400  0.30195300  0.95891100  1
  O  O6  1  0.68723600  0.69794700  0.04098800  1
  O  O7  1  0.17453100  0.78880800  0.95654400  1
  O  O8  1  0.17908500  0.19892600  0.56098500  1
  O  O9  1  0.67291600  0.29306700  0.44287500  1
  O  O10  1  0.32708900  0.70723900  0.55722100  1
  O  O11  1  0.82085200  0.80093800  0.43903400  1
loop_
_geom_bond_atom_site_label_1
_geom_bond_atom_site_label_2
_geom_bond_distance
_geom_bond_site_symmetry_2
Mn0 O10 1.949511 1_545
Mn0 O9 1.949936 1_555
Mn0 O0 2.093924 1_555
Mn0 O3 2.094484 1_545
Mn0 O8 2.148684 1_555
Mn0 O11 2.148853 1_545
Mn1 O1 1.939507 1_655
Mn1 O2 1.940423 1_555
Mn1 O11 1.981635 1_555
Mn1 O8 1.981663 1_655
Mn1 O9 2.258457 1_555
Mn1 O10 2.263417 1_655
Mn2 O4 1.918078 1_456
Mn2 O7 1.918246 1_555
Mn2 O5 2.077688 1_555
Mn2 O6 2.080627 1_456
Mn2 O2 2.183611 1_455
Mn2 O1 2.185765 1_556
Mn3 O5 1.980281 1_554
Mn3 O6 1.980397 1_545
Mn3 O0 2.006348 1_554
Mn3 O3 2.006397 1_545
Mn3 O4 2.240347 1_555
Mn3 O7 2.244667 1_544
O0 Tl3 2.216245 1_545
O0 Tl1 2.502790 1_555
O1 Tl2 2.201848 1_555
O1 Tl0 2.500118 1_555
O2 Tl1 2.201920 1_555
O2 Tl3 2.499083 1_555
O3 Tl0 2.216110 1_565
O3 Tl2 2.501746 1_555
O4 Tl0 2.163469 1_655
O5 Tl1 2.169398 1_555
O6 Tl2 2.169417 1_555
O7 Tl3 2.163263 1_455
O8 Tl3 2.173698 1_445
O9 Tl2 2.188478 1_555
O10 Tl1 2.187251 1_555
O11 Tl0 2.173725 1_665
