# generated using pymatgen
data_BaSrNd4O8
_symmetry_space_group_name_H-M   'P 1'
_cell_length_a   3.61133500
_cell_length_b   10.52565600
_cell_length_c   12.50839000
_cell_angle_alpha   90.00000000
_cell_angle_beta   90.00000000
_cell_angle_gamma   90.00000000
_symmetry_Int_Tables_number   1
_chemical_formula_structural   BaSrNd4O8
_chemical_formula_sum   'Ba2 Sr2 Nd8 O16'
_cell_volume   475.46479180
_cell_formula_units_Z   2
loop_
 _symmetry_equiv_pos_site_id
 _symmetry_equiv_pos_as_xyz
  1  'x, y, z'
loop_
 _atom_site_type_symbol
 _atom_site_label
 _atom_site_symmetry_multiplicity
 _atom_site_fract_x
 _atom_site_fract_y
 _atom_site_fract_z
 _atom_site_occupancy
  Ba  Ba0  1  0.75000000  0.75173200  0.14743700  1
  Ba  Ba1  1  0.75000000  0.25173200  0.35256300  1
  Sr  Sr0  1  0.25000000  0.24821300  0.85269000  1
  Sr  Sr1  1  0.25000000  0.74821300  0.64731000  1
  Nd  Nd0  1  0.75000000  0.07200100  0.61682300  1
  Nd  Nd1  1  0.75000000  0.57200100  0.88317700  1
  Nd  Nd2  1  0.25000000  0.92584900  0.38890800  1
  Nd  Nd3  1  0.25000000  0.42584900  0.11109200  1
  Nd  Nd4  1  0.75000000  0.08578300  0.10691200  1
  Nd  Nd5  1  0.75000000  0.58578300  0.39308800  1
  Nd  Nd6  1  0.25000000  0.91652400  0.88622400  1
  Nd  Nd7  1  0.25000000  0.41652400  0.61377600  1
  O  O0  1  0.75000000  0.98773500  0.28300700  1
  O  O1  1  0.75000000  0.48773500  0.21699300  1
  O  O2  1  0.25000000  0.01061400  0.71808500  1
  O  O3  1  0.25000000  0.51061400  0.78191500  1
  O  O4  1  0.75000000  0.07430800  0.91779700  1
  O  O5  1  0.75000000  0.57430800  0.58220300  1
  O  O6  1  0.25000000  0.93410700  0.07436400  1
  O  O7  1  0.25000000  0.43410700  0.42563600  1
  O  O8  1  0.75000000  0.28500100  0.68264400  1
  O  O9  1  0.75000000  0.78500100  0.81735600  1
  O  O10  1  0.25000000  0.71479200  0.32601200  1
  O  O11  1  0.25000000  0.21479200  0.17398800  1
  O  O12  1  0.75000000  0.36784800  0.97889500  1
  O  O13  1  0.75000000  0.86784800  0.52110500  1
  O  O14  1  0.25000000  0.62549300  0.01345900  1
  O  O15  1  0.25000000  0.12549300  0.48654100  1
loop_
_geom_bond_atom_site_label_1
_geom_bond_atom_site_label_2
_geom_bond_distance
_geom_bond_site_symmetry_2
Ba0 O6 2.789410 1_655
Ba0 O6 2.789410 1_555
Ba0 O14 2.799014 1_655
Ba0 O14 2.799014 1_555
Ba0 O10 2.898442 1_655
Ba0 O10 2.898442 1_555
Ba0 O1 2.911763 1_555
Ba0 O0 3.007706 1_555
Ba1 O7 2.789410 1_655
Ba1 O7 2.789410 1_555
Ba1 O15 2.799014 1_655
Ba1 O15 2.799014 1_555
Ba1 O11 2.898442 1_555
Ba1 O11 2.898442 1_655
Ba1 O0 2.911763 1_545
Ba1 O1 3.007706 1_555
Nd0 O2 2.298318 1_655
Nd0 O2 2.298318 1_555
Nd0 O8 2.388358 1_555
Nd0 O13 2.459879 1_545
Nd0 O15 2.496618 1_555
Nd0 O15 2.496618 1_655
Nd1 O3 2.298318 1_555
Nd1 O3 2.298318 1_655
Nd1 O9 2.388358 1_555
Nd1 O12 2.459879 1_555
Nd1 O14 2.496618 1_556
Nd1 O14 2.496618 1_656
Nd2 O0 2.332262 1_455
Nd2 O0 2.332262 1_555
Nd2 O10 2.356706 1_555
Nd2 O15 2.430478 1_565
Nd2 O13 2.523379 1_455
Nd2 O13 2.523379 1_555
Nd3 O1 2.332262 1_455
Nd3 O1 2.332262 1_555
Nd3 O11 2.356706 1_555
Nd3 O14 2.430478 1_555
Nd3 O12 2.523379 1_454
Nd3 O12 2.523379 1_554
Nd4 O4 2.368606 1_554
Nd4 O11 2.410038 1_655
Nd4 O11 2.410038 1_555
Nd4 O0 2.432447 1_545
Nd4 O6 2.444374 1_645
Nd4 O6 2.444374 1_545
Nd5 O5 2.368606 1_555
Nd5 O10 2.410038 1_655
Nd5 O10 2.410038 1_555
Nd5 O1 2.432447 1_555
Nd5 O7 2.444374 1_555
Nd5 O7 2.444374 1_655
Nd6 O2 2.324660 1_565
Nd6 O6 2.360595 1_556
Nd6 O9 2.432892 1_455
Nd6 O9 2.432892 1_555
Nd6 O4 2.484873 1_465
Nd6 O4 2.484873 1_565
Nd7 O3 2.324660 1_555
Nd7 O7 2.360595 1_555
Nd7 O8 2.432892 1_455
Nd7 O8 2.432892 1_555
Nd7 O5 2.484873 1_555
Nd7 O5 2.484873 1_455
O2 Sr1 2.900353 1_545
O2 Sr0 3.014838 1_555
O3 Sr0 2.900353 1_555
O3 Sr1 3.014838 1_555
O4 Sr0 2.697083 1_555
O4 Sr0 2.697083 1_655
O5 Sr1 2.697083 1_555
O5 Sr1 2.697083 1_655
O8 Sr0 2.816826 1_555
O8 Sr0 2.816826 1_655
O9 Sr1 2.816826 1_555
O9 Sr1 2.816826 1_655
O12 Sr0 2.708903 1_555
O12 Sr0 2.708903 1_655
O13 Sr1 2.708903 1_555
O13 Sr1 2.708903 1_655
