# generated using pymatgen
data_AlCo3(SiO4)3
_symmetry_space_group_name_H-M   'P 1'
_cell_length_a   9.91426921
_cell_length_b   9.91426921
_cell_length_c   9.91426921
_cell_angle_alpha   109.47122063
_cell_angle_beta   109.47122063
_cell_angle_gamma   109.47122063
_symmetry_Int_Tables_number   1
_chemical_formula_structural   AlCo3(SiO4)3
_chemical_formula_sum   'Al4 Co12 Si12 O48'
_cell_volume   750.17093272
_cell_formula_units_Z   4
loop_
 _symmetry_equiv_pos_site_id
 _symmetry_equiv_pos_as_xyz
  1  'x, y, z'
loop_
 _atom_site_type_symbol
 _atom_site_label
 _atom_site_symmetry_multiplicity
 _atom_site_fract_x
 _atom_site_fract_y
 _atom_site_fract_z
 _atom_site_occupancy
  Al  Al0  1  0.00000000  0.00000000  0.00000000  1
  Al  Al1  1  0.50000000  0.50000000  0.00000000  1
  Al  Al2  1  0.00000000  0.50000000  0.50000000  1
  Al  Al3  1  0.50000000  0.00000000  0.50000000  1
  Co  Co0  1  0.88546200  0.63546200  0.25000000  1
  Co  Co1  1  0.63546200  0.25000000  0.88546200  1
  Co  Co2  1  0.86453800  0.75000000  0.61453800  1
  Co  Co3  1  0.75000000  0.61453800  0.86453800  1
  Co  Co4  1  0.25000000  0.88546200  0.63546200  1
  Co  Co5  1  0.61453800  0.86453800  0.75000000  1
  Co  Co6  1  0.11453800  0.36453800  0.75000000  1
  Co  Co7  1  0.36453800  0.75000000  0.11453800  1
  Co  Co8  1  0.13546200  0.25000000  0.38546200  1
  Co  Co9  1  0.25000000  0.38546200  0.13546200  1
  Co  Co10  1  0.75000000  0.11453800  0.36453800  1
  Co  Co11  1  0.38546200  0.13546200  0.25000000  1
  Si  Si0  1  0.12439300  0.87439300  0.25000000  1
  Si  Si1  1  0.25000000  0.12439300  0.87439300  1
  Si  Si2  1  0.75000000  0.37560700  0.62560700  1
  Si  Si3  1  0.62439300  0.37439300  0.25000000  1
  Si  Si4  1  0.62560700  0.75000000  0.37560700  1
  Si  Si5  1  0.37560700  0.62560700  0.75000000  1
  Si  Si6  1  0.12560700  0.75000000  0.87560700  1
  Si  Si7  1  0.75000000  0.87560700  0.12560700  1
  Si  Si8  1  0.87439300  0.25000000  0.12439300  1
  Si  Si9  1  0.37439300  0.25000000  0.62439300  1
  Si  Si10  1  0.25000000  0.62439300  0.37439300  1
  Si  Si11  1  0.87560700  0.12560700  0.75000000  1
  O  O0  1  0.46356300  0.36580700  0.26827400  1
  O  O1  1  0.30471100  0.90224400  0.03643700  1
  O  O2  1  0.59775600  0.90246700  0.13419300  1
  O  O3  1  0.59753300  0.19528900  0.23172600  1
  O  O4  1  0.12123200  0.02082600  0.20520800  1
  O  O5  1  0.19528900  0.23172600  0.59753300  1
  O  O6  1  0.18438200  0.47917400  0.60040600  1
  O  O7  1  0.23172600  0.59753300  0.19528900  1
  O  O8  1  0.37876800  0.58397700  0.89959400  1
  O  O9  1  0.91602300  0.29479200  0.31561800  1
  O  O10  1  0.29479200  0.31561800  0.91602300  1
  O  O11  1  0.20520800  0.12123200  0.02082600  1
  O  O12  1  0.47917400  0.60040600  0.18438200  1
  O  O13  1  0.89959400  0.37876800  0.58397700  1
  O  O14  1  0.02082600  0.20520800  0.12123200  1
  O  O15  1  0.60040600  0.18438200  0.47917400  1
  O  O16  1  0.58397700  0.89959400  0.37876800  1
  O  O17  1  0.03643700  0.30471100  0.90224400  1
  O  O18  1  0.90246700  0.13419300  0.59775600  1
  O  O19  1  0.62123200  0.41602300  0.10040600  1
  O  O20  1  0.36580700  0.26827400  0.46356300  1
  O  O21  1  0.26827400  0.46356300  0.36580700  1
  O  O22  1  0.90224400  0.03643700  0.30471100  1
  O  O23  1  0.31561800  0.91602300  0.29479200  1
  O  O24  1  0.53643700  0.63419300  0.73172600  1
  O  O25  1  0.69528900  0.09775600  0.96356300  1
  O  O26  1  0.40224400  0.09753300  0.86580700  1
  O  O27  1  0.40246700  0.80471100  0.76827400  1
  O  O28  1  0.87876800  0.97917400  0.79479200  1
  O  O29  1  0.80471100  0.76827400  0.40246700  1
  O  O30  1  0.81561800  0.52082600  0.39959400  1
  O  O31  1  0.76827400  0.40246700  0.80471100  1
  O  O32  1  0.68438200  0.08397700  0.70520800  1
  O  O33  1  0.09775600  0.96356300  0.69528900  1
  O  O34  1  0.73172600  0.53643700  0.63419300  1
  O  O35  1  0.63419300  0.73172600  0.53643700  1
  O  O36  1  0.86580700  0.40224400  0.09753300  1
  O  O37  1  0.09753300  0.86580700  0.40224400  1
  O  O38  1  0.96356300  0.69528900  0.09775600  1
  O  O39  1  0.41602300  0.10040600  0.62123200  1
  O  O40  1  0.39959400  0.81561800  0.52082600  1
  O  O41  1  0.97917400  0.79479200  0.87876800  1
  O  O42  1  0.10040600  0.62123200  0.41602300  1
  O  O43  1  0.52082600  0.39959400  0.81561800  1
  O  O44  1  0.79479200  0.87876800  0.97917400  1
  O  O45  1  0.70520800  0.68438200  0.08397700  1
  O  O46  1  0.08397700  0.70520800  0.68438200  1
  O  O47  1  0.13419300  0.59775600  0.90246700  1
loop_
_geom_bond_atom_site_label_1
_geom_bond_atom_site_label_2
_geom_bond_distance
_geom_bond_site_symmetry_2
Al0 O4 1.884331 1_555
Al0 O14 1.884331 1_555
Al0 O11 1.884331 1_555
Al0 O28 1.884331 1_444
Al0 O41 1.884331 1_444
Al0 O44 1.884331 1_444
Al1 O45 1.884329 1_555
Al1 O10 1.884329 1_554
Al1 O12 1.884331 1_555
Al1 O43 1.884331 1_554
Al1 O8 1.884339 1_554
Al1 O19 1.884339 1_555
Al2 O46 1.884329 1_555
Al2 O9 1.884329 1_455
Al2 O6 1.884331 1_555
Al2 O30 1.884331 1_455
Al2 O13 1.884339 1_455
Al2 O42 1.884339 1_555
Al3 O32 1.884329 1_555
Al3 O23 1.884329 1_545
Al3 O15 1.884331 1_555
Al3 O40 1.884331 1_545
Al3 O16 1.884339 1_545
Al3 O39 1.884339 1_555
Co0 O38 2.073514 1_555
Co0 O37 2.073514 1_655
Co0 O29 2.200521 1_555
Co0 O36 2.200521 1_555
Co0 O30 2.292283 1_555
Co0 O19 2.292286 1_555
Co0 O45 2.299398 1_555
Co0 O42 2.299399 1_655
Co1 O25 2.073514 1_555
Co1 O36 2.073514 1_556
Co1 O31 2.200521 1_555
Co1 O26 2.200521 1_555
Co1 O43 2.292283 1_555
Co1 O39 2.292286 1_555
Co1 O32 2.299398 1_555
Co1 O19 2.299399 1_556
Co2 O35 2.073514 1_555
Co2 O29 2.073514 1_555
Co2 O33 2.200521 1_655
Co2 O34 2.200521 1_555
Co2 O41 2.292283 1_555
Co2 O46 2.292292 1_655
Co2 O28 2.299404 1_555
Co2 O30 2.299404 1_555
Co3 O34 2.073514 1_555
Co3 O31 2.073514 1_555
Co3 O38 2.200521 1_556
Co3 O24 2.200521 1_555
Co3 O44 2.292283 1_555
Co3 O45 2.292292 1_556
Co3 O41 2.299404 1_555
Co3 O43 2.299404 1_555
Co4 O33 2.073514 1_555
Co4 O26 2.073514 1_565
Co4 O27 2.200521 1_555
Co4 O37 2.200521 1_555
Co4 O40 2.292283 1_555
Co4 O42 2.292286 1_555
Co4 O46 2.299398 1_555
Co4 O39 2.299399 1_565
Co5 O24 2.073514 1_555
Co5 O27 2.073514 1_555
Co5 O25 2.200521 1_565
Co5 O35 2.200521 1_555
Co5 O28 2.292283 1_555
Co5 O32 2.292292 1_565
Co5 O44 2.299404 1_555
Co5 O40 2.299404 1_555
Co6 O17 2.073514 1_555
Co6 O18 2.073514 1_455
Co6 O47 2.200521 1_555
Co6 O5 2.200521 1_555
Co6 O6 2.292283 1_555
Co6 O8 2.292286 1_555
Co6 O10 2.299398 1_555
Co6 O13 2.299399 1_455
Co7 O1 2.073514 1_555
Co7 O47 2.073514 1_554
Co7 O2 2.200521 1_555
Co7 O7 2.200521 1_555
Co7 O12 2.292283 1_555
Co7 O16 2.292286 1_555
Co7 O23 2.299398 1_555
Co7 O8 2.299399 1_554
Co8 O20 2.073514 1_555
Co8 O5 2.073514 1_555
Co8 O21 2.200521 1_555
Co8 O22 2.200521 1_455
Co8 O14 2.292283 1_555
Co8 O9 2.292292 1_455
Co8 O4 2.299404 1_555
Co8 O6 2.299404 1_555
Co9 O21 2.073514 1_555
Co9 O7 2.073514 1_555
Co9 O0 2.200521 1_555
Co9 O17 2.200521 1_554
Co9 O11 2.292283 1_555
Co9 O10 2.292292 1_554
Co9 O14 2.299404 1_555
Co9 O12 2.299404 1_555
Co10 O22 2.073514 1_555
Co10 O2 2.073514 1_545
Co10 O18 2.200521 1_555
Co10 O3 2.200521 1_555
Co10 O15 2.292283 1_555
Co10 O13 2.292286 1_555
Co10 O9 2.299398 1_555
Co10 O16 2.299399 1_545
Co11 O0 2.073514 1_555
Co11 O3 2.073514 1_555
Co11 O20 2.200521 1_555
Co11 O1 2.200521 1_545
Co11 O4 2.292283 1_555
Co11 O23 2.292292 1_545
Co11 O11 2.299404 1_555
Co11 O15 2.299404 1_555
O0 Si3 1.641621 1_555
O1 Si6 1.641621 1_554
O2 Si7 1.641621 1_555
O3 Si3 1.641621 1_555
O4 Si0 1.660331 1_545
O5 Si9 1.641621 1_555
O6 Si5 1.660331 1_555
O7 Si10 1.641621 1_555
O8 Si5 1.660326 1_555
O9 Si8 1.660333 1_555
O10 Si1 1.660333 1_555
O11 Si1 1.660331 1_554
O12 Si4 1.660331 1_555
O13 Si2 1.660326 1_555
O14 Si8 1.660331 1_455
O15 Si2 1.660331 1_555
O16 Si4 1.660326 1_555
O17 Si11 1.641621 1_455
O18 Si11 1.641621 1_555
O19 Si3 1.660326 1_555
O20 Si9 1.641621 1_555
O21 Si10 1.641621 1_555
O22 Si7 1.641621 1_545
O23 Si0 1.660333 1_555
O24 Si5 1.641621 1_555
O25 Si8 1.641621 1_556
O26 Si1 1.641621 1_555
O27 Si5 1.641621 1_555
O28 Si11 1.660331 1_565
O29 Si4 1.641621 1_555
O30 Si3 1.660331 1_555
O31 Si2 1.641621 1_555
O32 Si11 1.660333 1_555
O33 Si1 1.641621 1_565
O34 Si2 1.641621 1_555
O35 Si4 1.641621 1_555
O36 Si8 1.641621 1_555
O37 Si0 1.641621 1_555
O38 Si0 1.641621 1_655
O39 Si9 1.660326 1_555
O40 Si10 1.660331 1_555
O41 Si6 1.660331 1_655
O42 Si10 1.660326 1_555
O43 Si9 1.660331 1_555
O44 Si7 1.660331 1_556
O45 Si7 1.660333 1_555
O46 Si6 1.660333 1_555
O47 Si6 1.641621 1_555
