# generated using pymatgen
data_Sr2ZrVO6
_symmetry_space_group_name_H-M   'P 1'
_cell_length_a   5.68924316
_cell_length_b   5.74778023
_cell_length_c   18.92475406
_cell_angle_alpha   81.63603871
_cell_angle_beta   90.12578509
_cell_angle_gamma   120.07170612
_symmetry_Int_Tables_number   1
_chemical_formula_structural   Sr2ZrVO6
_chemical_formula_sum   'Sr8 Zr4 V4 O24'
_cell_volume   528.04628014
_cell_formula_units_Z   4
loop_
 _symmetry_equiv_pos_site_id
 _symmetry_equiv_pos_as_xyz
  1  'x, y, z'
loop_
 _atom_site_type_symbol
 _atom_site_label
 _atom_site_symmetry_multiplicity
 _atom_site_fract_x
 _atom_site_fract_y
 _atom_site_fract_z
 _atom_site_occupancy
  Sr  Sr0  1  0.31482200  0.62168500  0.06333900  1
  Sr  Sr1  1  0.55433100  0.13071500  0.31069400  1
  Sr  Sr2  1  0.81181500  0.62704100  0.56238200  1
  Sr  Sr3  1  0.07562800  0.11646100  0.81192100  1
  Sr  Sr4  1  0.93344300  0.88219800  0.18703300  1
  Sr  Sr5  1  0.17626700  0.38334400  0.43772000  1
  Sr  Sr6  1  0.43726400  0.86878400  0.68797300  1
  Sr  Sr7  1  0.69773400  0.37024600  0.93869000  1
  Zr  Zr0  1  0.62350200  0.25147400  0.12488000  1
  Zr  Zr1  1  0.86606300  0.75617500  0.37576900  1
  Zr  Zr2  1  0.12556700  0.24857000  0.62476600  1
  Zr  Zr3  1  0.38528400  0.74399000  0.87457300  1
  V  V0  1  0.49600300  0.00383300  0.49989700  1
  V  V1  1  0.75348000  0.49347500  0.74999500  1
  V  V2  1  0.00656800  0.99937100  0.99955700  1
  V  V3  1  0.24432900  0.50347200  0.25048900  1
  O  O0  1  0.77882400  0.61143000  0.05000300  1
  O  O1  1  0.01600000  0.11645400  0.30110500  1
  O  O2  1  0.30742500  0.61717600  0.55218200  1
  O  O3  1  0.56377700  0.10741800  0.79998700  1
  O  O4  1  0.46823700  0.88917800  0.19943700  1
  O  O5  1  0.68230000  0.38978700  0.44917800  1
  O  O6  1  0.94454800  0.88094700  0.69775500  1
  O  O7  1  0.23783500  0.38737200  0.95029800  1
  O  O8  1  0.96125900  0.44397200  0.18691200  1
  O  O9  1  0.16848700  0.92756100  0.44347800  1
  O  O10  1  0.43627000  0.41685200  0.69345800  1
  O  O11  1  0.73966800  0.94204300  0.93483100  1
  O  O12  1  0.27984500  0.05435000  0.06511900  1
  O  O13  1  0.51975800  0.56200300  0.31255200  1
  O  O14  1  0.81702700  0.08295900  0.55546900  1
  O  O15  1  0.07625700  0.56890600  0.80863700  1
  O  O16  1  0.83283700  0.11974600  0.06615000  1
  O  O17  1  0.07129900  0.62396600  0.31840800  1
  O  O18  1  0.34796200  0.10587000  0.57259300  1
  O  O19  1  0.61485500  0.60203400  0.82151800  1
  O  O20  1  0.40831800  0.37976300  0.18250300  1
  O  O21  1  0.62967700  0.89414100  0.42763200  1
  O  O22  1  0.90630300  0.39279500  0.67809500  1
  O  O23  1  0.18913000  0.88244800  0.93302600  1
loop_
_geom_bond_atom_site_label_1
_geom_bond_atom_site_label_2
_geom_bond_distance
_geom_bond_site_symmetry_2
O0 V2 2.013200 1_654
O0 Zr0 2.095173 1_555
O0 Sr7 2.603191 1_554
O0 Sr0 2.683097 1_555
O0 Sr0 3.031001 1_655
O0 Sr4 3.116575 1_555
O1 V3 2.010728 1_555
O1 Zr1 2.096715 1_445
O1 Sr4 2.627028 1_445
O1 Sr1 2.675927 1_455
O1 Sr1 3.028210 1_555
O1 Sr5 3.100104 1_555
O2 V0 2.011131 1_565
O2 Zr2 2.099731 1_555
O2 Sr5 2.624931 1_555
O2 Sr2 2.848290 1_555
O2 Sr2 2.855990 1_455
O2 Sr6 3.040281 1_555
O3 V1 1.994346 1_555
O3 Zr3 2.099947 1_545
O3 Sr6 2.596711 1_545
O3 Sr3 2.813783 1_555
O3 Sr3 2.895264 1_655
O3 Sr7 3.121571 1_555
O4 V3 2.005770 1_555
O4 Zr0 2.101130 1_565
O4 Sr1 2.600934 1_565
O4 Sr4 2.678331 1_555
O4 Sr4 3.031705 1_455
O4 Sr0 3.091413 1_555
O5 V0 1.998637 1_555
O5 Zr1 2.099215 1_555
O5 Sr2 2.613095 1_555
O5 Sr5 2.838218 1_655
O5 Sr5 2.868704 1_555
O5 Sr1 3.107473 1_555
O6 V1 2.014203 1_555
O6 Zr2 2.099938 1_665
O6 Sr3 2.624638 1_665
O6 Sr6 2.845948 1_655
O6 Sr6 2.857924 1_555
O6 Sr2 3.039438 1_555
O7 V2 2.008397 1_545
O7 Zr3 2.094381 1_555
O7 Sr0 2.612480 1_556
O7 Sr7 2.677841 1_555
O7 Sr7 3.033156 1_455
O7 Sr3 3.141617 1_555
O8 V3 1.928057 1_655
O8 Zr0 2.128866 1_555
O8 Sr4 2.602055 1_555
O8 Sr0 2.797342 1_655
O8 Sr1 2.951010 1_555
O8 Sr4 3.152292 1_545
O9 V0 2.028044 1_565
O9 Zr1 2.057091 1_455
O9 Sr5 2.584113 1_565
O9 Sr2 2.746162 1_455
O9 Sr1 3.016400 1_565
O9 Sr5 3.168028 1_555
O10 V1 1.981848 1_555
O10 Zr2 2.095804 1_555
O10 Sr6 2.581705 1_555
O10 Sr3 2.749688 1_555
O10 Sr2 2.956748 1_555
O10 Sr6 3.169762 1_545
O11 V2 1.876848 1_655
O11 Zr3 2.174564 1_555
O11 Sr7 2.600126 1_565
O11 Sr3 2.736713 1_665
O11 Sr0 3.067571 1_556
O11 Sr7 3.163576 1_555
O12 V2 1.915658 1_544
O12 Zr0 2.128021 1_555
O12 Sr0 2.597222 1_545
O12 Sr4 2.754573 1_445
O12 Sr7 3.018087 1_554
O12 Sr0 3.161025 1_555
O13 V3 1.877948 1_555
O13 Zr1 2.175563 1_555
O13 Sr1 2.588272 1_555
O13 Sr5 2.790353 1_555
O13 Sr4 2.996790 1_555
O13 Sr1 3.169767 1_565
O14 V0 1.986666 1_555
O14 Zr2 2.094220 1_655
O14 Sr2 2.589886 1_545
O14 Sr5 2.736435 1_655
O14 Sr6 2.988613 1_545
O14 Sr2 3.163818 1_555
O15 V1 2.030995 1_455
O15 Zr3 2.059947 1_555
O15 Sr3 2.590447 1_555
O15 Sr6 2.780565 1_555
O15 Sr7 2.956417 1_455
O15 Sr3 3.158654 1_565
O16 V2 1.997090 1_644
O16 Zr0 2.093151 1_555
O16 Sr4 2.700756 1_545
O16 Sr0 2.805930 1_655
O16 Sr0 2.910690 1_545
O16 Sr7 2.927952 1_554
O17 V3 2.012121 1_555
O17 Zr1 2.062526 1_455
O17 Sr5 2.698348 1_555
O17 Sr1 2.813080 1_565
O17 Sr1 2.910581 1_455
O17 Sr4 3.013973 1_455
O18 V0 1.918564 1_555
O18 Zr2 2.128289 1_555
O18 Sr6 2.589650 1_545
O18 Sr2 2.808284 1_555
O18 Sr2 2.941955 1_445
O18 Sr5 3.221602 1_555
O19 V1 1.893945 1_555
O19 Zr3 2.166057 1_555
O19 Sr7 2.584543 1_555
O19 Sr3 2.779507 1_665
O19 Sr3 2.966176 1_555
O19 Sr6 3.189485 1_555
O20 V3 1.991902 1_555
O20 Zr0 2.091922 1_555
O20 Sr0 2.669433 1_555
O20 Sr4 2.769810 1_445
O20 Sr4 2.949107 1_555
O20 Sr1 2.965998 1_555
O21 V0 1.892654 1_565
O21 Zr1 2.168370 1_555
O21 Sr1 2.575800 1_565
O21 Sr5 2.749473 1_555
O21 Sr5 3.000614 1_665
O21 Sr2 3.221413 1_555
O22 V1 1.918539 1_555
O22 Zr2 2.132403 1_655
O22 Sr2 2.599919 1_555
O22 Sr6 2.830379 1_545
O22 Sr6 2.917013 1_655
O22 Sr3 3.196455 1_655
O23 V2 2.016717 1_555
O23 Zr3 2.062521 1_555
O23 Sr3 2.728735 1_565
O23 Sr7 2.855818 1_455
O23 Sr7 2.863724 1_565
O23 Sr0 2.971646 1_556
