# generated using pymatgen
data_Zn3Co2(GeO4)3
_symmetry_space_group_name_H-M   'P 1'
_cell_length_a   10.31820252
_cell_length_b   10.31820252
_cell_length_c   10.31820252
_cell_angle_alpha   109.47122063
_cell_angle_beta   109.47122063
_cell_angle_gamma   109.47122063
_symmetry_Int_Tables_number   1
_chemical_formula_structural   Zn3Co2(GeO4)3
_chemical_formula_sum   'Zn12 Co8 Ge12 O48'
_cell_volume   845.64921849
_cell_formula_units_Z   4
loop_
 _symmetry_equiv_pos_site_id
 _symmetry_equiv_pos_as_xyz
  1  'x, y, z'
loop_
 _atom_site_type_symbol
 _atom_site_label
 _atom_site_symmetry_multiplicity
 _atom_site_fract_x
 _atom_site_fract_y
 _atom_site_fract_z
 _atom_site_occupancy
  Zn  Zn0  1  0.25000000  0.87500000  0.62500000  1
  Zn  Zn1  1  0.75000000  0.62500000  0.87500000  1
  Zn  Zn2  1  0.62500000  0.87500000  0.75000000  1
  Zn  Zn3  1  0.87500000  0.62500000  0.25000000  1
  Zn  Zn4  1  0.62500000  0.25000000  0.87500000  1
  Zn  Zn5  1  0.87500000  0.75000000  0.62500000  1
  Zn  Zn6  1  0.75000000  0.12500000  0.37500000  1
  Zn  Zn7  1  0.25000000  0.37500000  0.12500000  1
  Zn  Zn8  1  0.37500000  0.12500000  0.25000000  1
  Zn  Zn9  1  0.12500000  0.37500000  0.75000000  1
  Zn  Zn10  1  0.37500000  0.75000000  0.12500000  1
  Zn  Zn11  1  0.12500000  0.25000000  0.37500000  1
  Co  Co0  1  0.50000000  0.50000000  0.50000000  1
  Co  Co1  1  0.50000000  0.00000000  0.50000000  1
  Co  Co2  1  0.00000000  0.50000000  0.50000000  1
  Co  Co3  1  0.50000000  0.50000000  0.00000000  1
  Co  Co4  1  0.00000000  0.00000000  0.50000000  1
  Co  Co5  1  0.00000000  0.50000000  0.00000000  1
  Co  Co6  1  0.50000000  0.00000000  0.00000000  1
  Co  Co7  1  0.00000000  0.00000000  0.00000000  1
  Ge  Ge0  1  0.12500000  0.75000000  0.87500000  1
  Ge  Ge1  1  0.87500000  0.25000000  0.12500000  1
  Ge  Ge2  1  0.62500000  0.37500000  0.25000000  1
  Ge  Ge3  1  0.75000000  0.87500000  0.12500000  1
  Ge  Ge4  1  0.87500000  0.12500000  0.75000000  1
  Ge  Ge5  1  0.25000000  0.62500000  0.37500000  1
  Ge  Ge6  1  0.75000000  0.37500000  0.62500000  1
  Ge  Ge7  1  0.25000000  0.12500000  0.87500000  1
  Ge  Ge8  1  0.12500000  0.87500000  0.25000000  1
  Ge  Ge9  1  0.37500000  0.62500000  0.75000000  1
  Ge  Ge10  1  0.62500000  0.75000000  0.37500000  1
  Ge  Ge11  1  0.37500000  0.25000000  0.62500000  1
  O  O0  1  0.42340500  0.82357500  0.79823900  1
  O  O1  1  0.87483400  0.40016900  0.07659500  1
  O  O2  1  0.09983100  0.97466400  0.67642500  1
  O  O3  1  0.52533600  0.62516600  0.70176100  1
  O  O4  1  0.67642500  0.07659500  0.70176100  1
  O  O5  1  0.62516600  0.70176100  0.52533600  1
  O  O6  1  0.62516600  0.42340500  0.09983100  1
  O  O7  1  0.70176100  0.52533600  0.62516600  1
  O  O8  1  0.82357500  0.52533600  0.40016900  1
  O  O9  1  0.97466400  0.79823900  0.87483400  1
  O  O10  1  0.79823900  0.87483400  0.97466400  1
  O  O11  1  0.70176100  0.67642500  0.07659500  1
  O  O12  1  0.42340500  0.09983100  0.62516600  1
  O  O13  1  0.40016900  0.82357500  0.52533600  1
  O  O14  1  0.07659500  0.70176100  0.67642500  1
  O  O15  1  0.09983100  0.62516600  0.42340500  1
  O  O16  1  0.52533600  0.40016900  0.82357500  1
  O  O17  1  0.07659500  0.87483400  0.40016900  1
  O  O18  1  0.97466400  0.67642500  0.09983100  1
  O  O19  1  0.17642500  0.47466400  0.59983100  1
  O  O20  1  0.67642500  0.09983100  0.97466400  1
  O  O21  1  0.79823900  0.42340500  0.82357500  1
  O  O22  1  0.40016900  0.07659500  0.87483400  1
  O  O23  1  0.87483400  0.97466400  0.79823900  1
  O  O24  1  0.57659500  0.17642500  0.20176100  1
  O  O25  1  0.12516600  0.59983100  0.92340500  1
  O  O26  1  0.90016900  0.02533600  0.32357500  1
  O  O27  1  0.47466400  0.37483400  0.29823900  1
  O  O28  1  0.32357500  0.92340500  0.29823900  1
  O  O29  1  0.37483400  0.29823900  0.47466400  1
  O  O30  1  0.37483400  0.57659500  0.90016900  1
  O  O31  1  0.29823900  0.47466400  0.37483400  1
  O  O32  1  0.12516600  0.02533600  0.20176100  1
  O  O33  1  0.59983100  0.92340500  0.12516600  1
  O  O34  1  0.20176100  0.57659500  0.17642500  1
  O  O35  1  0.17642500  0.20176100  0.57659500  1
  O  O36  1  0.32357500  0.90016900  0.02533600  1
  O  O37  1  0.02533600  0.32357500  0.90016900  1
  O  O38  1  0.92340500  0.12516600  0.59983100  1
  O  O39  1  0.47466400  0.59983100  0.17642500  1
  O  O40  1  0.90016900  0.37483400  0.57659500  1
  O  O41  1  0.92340500  0.29823900  0.32357500  1
  O  O42  1  0.59983100  0.17642500  0.47466400  1
  O  O43  1  0.57659500  0.90016900  0.37483400  1
  O  O44  1  0.29823900  0.32357500  0.92340500  1
  O  O45  1  0.20176100  0.12516600  0.02533600  1
  O  O46  1  0.02533600  0.20176100  0.12516600  1
  O  O47  1  0.82357500  0.79823900  0.42340500  1
loop_
_geom_bond_atom_site_label_1
_geom_bond_atom_site_label_2
_geom_bond_distance
_geom_bond_site_symmetry_2
Co0 O5 1.920910 1_555
Co0 O3 1.920910 1_555
Co0 O7 1.920910 1_555
Co0 O29 1.920910 1_555
Co0 O27 1.920910 1_555
Co0 O31 1.920910 1_555
Co1 O4 1.920910 1_555
Co1 O28 1.920910 1_545
Co1 O42 1.920912 1_555
Co1 O13 1.920912 1_545
Co1 O12 1.920914 1_555
Co1 O43 1.920914 1_545
Co2 O14 1.920910 1_555
Co2 O41 1.920910 1_455
Co2 O19 1.920912 1_555
Co2 O8 1.920912 1_455
Co2 O15 1.920914 1_555
Co2 O40 1.920914 1_455
Co3 O11 1.920910 1_555
Co3 O44 1.920910 1_554
Co3 O39 1.920912 1_555
Co3 O16 1.920912 1_554
Co3 O6 1.920914 1_555
Co3 O30 1.920914 1_554
Co4 O35 1.920910 1_555
Co4 O47 1.920910 1_445
Co4 O2 1.920912 1_545
Co4 O26 1.920912 1_455
Co4 O17 1.920914 1_545
Co4 O38 1.920914 1_455
Co5 O34 1.920910 1_555
Co5 O21 1.920910 1_454
Co5 O18 1.920912 1_455
Co5 O37 1.920912 1_554
Co5 O1 1.920914 1_455
Co5 O25 1.920914 1_554
Co6 O24 1.920910 1_555
Co6 O0 1.920910 1_544
Co6 O20 1.920912 1_554
Co6 O36 1.920912 1_545
Co6 O22 1.920914 1_554
Co6 O33 1.920914 1_545
Co7 O46 1.920910 1_555
Co7 O45 1.920910 1_555
Co7 O32 1.920910 1_555
Co7 O23 1.920910 1_444
Co7 O10 1.920910 1_444
Co7 O9 1.920910 1_444
Ge0 O25 1.779733 1_555
Ge0 O36 1.779741 1_556
Ge0 O9 1.779743 1_455
Ge0 O14 1.779743 1_555
Ge1 O1 1.779733 1_555
Ge1 O20 1.779741 1_554
Ge1 O46 1.779743 1_655
Ge1 O41 1.779743 1_555
Ge2 O6 1.779733 1_555
Ge2 O8 1.779741 1_555
Ge2 O24 1.779743 1_555
Ge2 O27 1.779743 1_555
Ge3 O33 1.779733 1_555
Ge3 O26 1.779741 1_565
Ge3 O10 1.779743 1_554
Ge3 O11 1.779743 1_555
Ge4 O38 1.779733 1_555
Ge4 O37 1.779741 1_655
Ge4 O23 1.779743 1_545
Ge4 O4 1.779743 1_555
Ge5 O15 1.779733 1_555
Ge5 O13 1.779741 1_555
Ge5 O31 1.779743 1_555
Ge5 O34 1.779743 1_555
Ge6 O40 1.779733 1_555
Ge6 O42 1.779741 1_555
Ge6 O7 1.779743 1_555
Ge6 O21 1.779743 1_555
Ge7 O22 1.779733 1_555
Ge7 O2 1.779741 1_545
Ge7 O45 1.779743 1_556
Ge7 O44 1.779743 1_555
Ge8 O17 1.779733 1_555
Ge8 O18 1.779741 1_455
Ge8 O32 1.779743 1_565
Ge8 O28 1.779743 1_555
Ge9 O30 1.779733 1_555
Ge9 O19 1.779741 1_555
Ge9 O3 1.779743 1_555
Ge9 O0 1.779743 1_555
Ge10 O43 1.779733 1_555
Ge10 O39 1.779741 1_555
Ge10 O5 1.779743 1_555
Ge10 O47 1.779743 1_555
Ge11 O12 1.779733 1_555
Ge11 O16 1.779741 1_555
Ge11 O35 1.779743 1_555
Ge11 O29 1.779743 1_555
O0 Zn2 2.233067 1_555
O0 Zn0 2.410635 1_555
O1 Zn4 2.233067 1_554
O1 Zn3 2.410643 1_555
O2 Zn0 2.233057 1_555
O2 Zn5 2.410641 1_455
O3 Zn2 2.233067 1_555
O3 Zn1 2.410635 1_555
O4 Zn2 2.233067 1_545
O4 Zn4 2.410635 1_555
O5 Zn5 2.233067 1_555
O5 Zn2 2.410635 1_555
O6 Zn3 2.233067 1_555
O6 Zn4 2.410643 1_554
O7 Zn1 2.233067 1_555
O7 Zn5 2.410635 1_555
O8 Zn3 2.233057 1_555
O8 Zn5 2.410641 1_555
O9 Zn5 2.233067 1_555
O9 Zn1 2.410635 1_555
O10 Zn1 2.233067 1_555
O10 Zn2 2.410635 1_555
O11 Zn1 2.233067 1_554
O11 Zn3 2.410635 1_555
O12 Zn4 2.233067 1_555
O12 Zn0 2.410643 1_545
O13 Zn0 2.233057 1_555
O13 Zn2 2.410641 1_555
O14 Zn5 2.233067 1_455
O14 Zn0 2.410635 1_555
O15 Zn0 2.233067 1_555
O15 Zn3 2.410643 1_455
O16 Zn4 2.233057 1_555
O16 Zn1 2.410641 1_555
O17 Zn3 2.233067 1_455
O17 Zn0 2.410643 1_555
O18 Zn3 2.233057 1_555
O18 Zn1 2.410641 1_554
O19 Zn9 2.233057 1_555
O19 Zn11 2.410641 1_555
O20 Zn4 2.233057 1_555
O20 Zn2 2.410641 1_545
O21 Zn1 2.233067 1_555
O21 Zn4 2.410635 1_555
O22 Zn0 2.233067 1_545
O22 Zn4 2.410643 1_555
O23 Zn2 2.233067 1_555
O23 Zn5 2.410635 1_555
O24 Zn8 2.233067 1_555
O24 Zn6 2.410635 1_555
O25 Zn10 2.233067 1_556
O25 Zn9 2.410643 1_555
O26 Zn6 2.233057 1_555
O26 Zn11 2.410641 1_655
O27 Zn8 2.233067 1_555
O27 Zn7 2.410635 1_555
O28 Zn8 2.233067 1_565
O28 Zn10 2.410635 1_555
O29 Zn11 2.233067 1_555
O29 Zn8 2.410635 1_555
O30 Zn9 2.233067 1_555
O30 Zn10 2.410643 1_556
O31 Zn7 2.233067 1_555
O31 Zn11 2.410635 1_555
O32 Zn8 2.233067 1_555
O32 Zn11 2.410635 1_555
O33 Zn6 2.233067 1_565
O33 Zn10 2.410643 1_555
O34 Zn7 2.233067 1_555
O34 Zn10 2.410635 1_555
O35 Zn11 2.233067 1_555
O35 Zn9 2.410635 1_555
O36 Zn10 2.233057 1_555
O36 Zn8 2.410641 1_565
O37 Zn9 2.233057 1_555
O37 Zn7 2.410641 1_556
O38 Zn9 2.233067 1_655
O38 Zn6 2.410643 1_555
O39 Zn10 2.233057 1_555
O39 Zn7 2.410641 1_555
O40 Zn6 2.233067 1_555
O40 Zn9 2.410643 1_655
O41 Zn11 2.233067 1_655
O41 Zn6 2.410635 1_555
O42 Zn6 2.233057 1_555
O42 Zn8 2.410641 1_555
O43 Zn10 2.233067 1_555
O43 Zn6 2.410643 1_565
O44 Zn7 2.233067 1_556
O44 Zn9 2.410635 1_555
O45 Zn7 2.233067 1_555
O45 Zn8 2.410635 1_555
O46 Zn11 2.233067 1_555
O46 Zn7 2.410635 1_555
O47 Zn5 2.233067 1_555
O47 Zn3 2.410635 1_555
