# generated using pymatgen
data_Fe13Si2(SbO14)2
_symmetry_space_group_name_H-M   'P 1'
_cell_length_a   5.64580542
_cell_length_b   8.96762409
_cell_length_c   11.58202970
_cell_angle_alpha   84.45223835
_cell_angle_beta   81.11541762
_cell_angle_gamma   78.54418167
_symmetry_Int_Tables_number   1
_chemical_formula_structural   Fe13Si2(SbO14)2
_chemical_formula_sum   'Fe13 Si2 Sb2 O28'
_cell_volume   566.49370655
_cell_formula_units_Z   1
loop_
 _symmetry_equiv_pos_site_id
 _symmetry_equiv_pos_as_xyz
  1  'x, y, z'
loop_
 _atom_site_type_symbol
 _atom_site_label
 _atom_site_symmetry_multiplicity
 _atom_site_fract_x
 _atom_site_fract_y
 _atom_site_fract_z
 _atom_site_occupancy
  Fe  Fe0  1  0.93118100  0.65844000  0.69652300  1
  Fe  Fe1  1  0.66481400  0.33828200  0.13104000  1
  Fe  Fe2  1  0.33114500  0.37956700  0.72396600  1
  Fe  Fe3  1  0.06959500  0.33999800  0.30376600  1
  Fe  Fe4  1  0.33601800  0.66011300  0.86930800  1
  Fe  Fe5  1  0.24537900  0.06490700  0.45018800  1
  Fe  Fe6  1  0.22659800  0.65259600  0.16556700  1
  Fe  Fe7  1  0.00058100  0.99922700  0.00018000  1
  Fe  Fe8  1  0.44285400  0.98688400  0.14760100  1
  Fe  Fe9  1  0.77410900  0.34599500  0.83479800  1
  Fe  Fe10  1  0.66975000  0.61876600  0.27642600  1
  Fe  Fe11  1  0.55823700  0.01147800  0.85274000  1
  Fe  Fe12  1  0.75561100  0.93347200  0.55010700  1
  Si  Si0  1  0.22521300  0.31019100  0.00916600  1
  Si  Si1  1  0.77570200  0.68818800  0.99117500  1
  Sb  Sb0  1  0.88766900  0.97869600  0.28230200  1
  Sb  Sb1  1  0.11332400  0.01971500  0.71802600  1
  O  O0  1  0.72782000  0.38844300  0.27511500  1
  O  O1  1  0.20707700  0.28962100  0.43351000  1
  O  O2  1  0.92933800  0.35251000  0.00118900  1
  O  O3  1  0.30063400  0.12339700  0.00728100  1
  O  O4  1  0.79384900  0.70877500  0.56674900  1
  O  O5  1  0.27300300  0.60992400  0.72522300  1
  O  O6  1  0.94432400  0.09991900  0.58074400  1
  O  O7  1  0.05668500  0.89846200  0.41954900  1
  O  O8  1  0.70036700  0.87497700  0.99308000  1
  O  O9  1  0.13898300  0.88180700  0.15213900  1
  O  O10  1  0.30647400  0.36683200  0.12898900  1
  O  O11  1  0.00196700  0.55974800  0.28836600  1
  O  O12  1  0.38645100  0.94932900  0.59437800  1
  O  O13  1  0.73666500  0.11356000  0.14853400  1
  O  O14  1  0.61361100  0.60332500  0.10095000  1
  O  O15  1  0.07157800  0.64586700  0.99913900  1
  O  O16  1  0.26434500  0.88482200  0.85179100  1
  O  O17  1  0.86200600  0.11664900  0.84818200  1
  O  O18  1  0.61453200  0.04904400  0.40593600  1
  O  O19  1  0.13309700  0.12447700  0.27458900  1
  O  O20  1  0.86783300  0.87393200  0.72573900  1
  O  O21  1  0.38730400  0.39504300  0.89940100  1
  O  O22  1  0.32714100  0.16471200  0.75043100  1
  O  O23  1  0.64099800  0.35861600  0.67833200  1
  O  O24  1  0.69438100  0.63156000  0.87135700  1
  O  O25  1  0.67391000  0.83365700  0.24990000  1
  O  O26  1  0.99891600  0.43862800  0.71203200  1
  O  O27  1  0.35996000  0.63977800  0.32200700  1
loop_
_geom_bond_atom_site_label_1
_geom_bond_atom_site_label_2
_geom_bond_distance
_geom_bond_site_symmetry_2
Fe0 O4 1.775905 1_555
Fe0 O26 1.928063 1_555
Fe0 O20 1.947125 1_555
Fe0 O5 1.964894 1_655
Fe0 O24 2.267872 1_555
Fe1 O0 1.872276 1_555
Fe1 O2 1.962986 1_555
Fe1 O13 1.971914 1_555
Fe1 O10 1.991742 1_555
Fe1 O14 2.335008 1_555
Fe2 O23 1.725684 1_555
Fe2 O26 1.867935 1_455
Fe2 O22 1.925554 1_555
Fe2 O5 2.027385 1_555
Fe2 O21 2.125884 1_555
Fe3 O1 1.776066 1_555
Fe3 O11 1.927484 1_555
Fe3 O19 1.947234 1_555
Fe3 O0 1.964462 1_455
Fe3 O10 2.267504 1_555
Fe4 O5 1.872496 1_555
Fe4 O15 1.962549 1_555
Fe4 O16 1.971792 1_555
Fe4 O24 1.991866 1_555
Fe4 O21 2.335221 1_555
Fe5 O1 1.977233 1_555
Fe5 O18 2.047692 1_555
Fe5 O12 2.060539 1_545
Fe5 O7 2.083166 1_545
Fe5 O6 2.088047 1_455
Fe5 O19 2.208438 1_555
Fe6 O11 1.989424 1_555
Fe6 O9 2.012942 1_555
Fe6 O27 2.051787 1_555
Fe6 O14 2.169074 1_555
Fe6 O15 2.247166 1_554
Fe6 O10 2.577156 1_555
Fe7 O9 2.134609 1_555
Fe7 O17 2.135378 1_464
Fe7 O3 2.219568 1_565
Fe7 O8 2.220827 1_454
Fe7 O13 2.273037 1_465
Fe7 O16 2.273190 1_554
Fe8 O3 2.100611 1_565
Fe8 O9 2.106815 1_555
Fe8 O25 2.108140 1_555
Fe8 O13 2.190575 1_565
Fe8 O8 2.299505 1_554
Fe8 O19 2.333085 1_565
Fe9 O26 1.988894 1_555
Fe9 O17 2.014190 1_555
Fe9 O23 2.051553 1_555
Fe9 O21 2.167894 1_555
Fe9 O2 2.247036 1_556
Fe9 O24 2.575404 1_555
Fe10 O27 1.725216 1_555
Fe10 O11 1.867854 1_655
Fe10 O25 1.926080 1_555
Fe10 O0 2.027151 1_555
Fe10 O14 2.126258 1_555
Fe11 O8 2.100549 1_545
Fe11 O17 2.106775 1_555
Fe11 O22 2.108368 1_555
Fe11 O16 2.190880 1_545
Fe11 O3 2.299930 1_556
Fe11 O20 2.332487 1_545
Fe12 O4 1.977104 1_555
Fe12 O12 2.047758 1_555
Fe12 O18 2.060356 1_565
Fe12 O6 2.083247 1_565
Fe12 O7 2.088132 1_655
Fe12 O20 2.208643 1_555
O2 Si0 1.652890 1_655
O3 Si0 1.645787 1_555
O6 Sb1 1.982600 1_655
O7 Sb0 1.982358 1_455
O8 Si1 1.645734 1_555
O9 Sb0 2.035601 1_455
O10 Si0 1.679280 1_555
O12 Sb1 1.983219 1_565
O13 Sb0 2.055718 1_545
O14 Si1 1.662313 1_554
O15 Si1 1.652867 1_455
O16 Sb1 2.055844 1_565
O17 Sb1 2.035703 1_655
O18 Sb0 1.983071 1_545
O19 Sb0 2.072625 1_445
O20 Sb1 2.072918 1_665
O21 Si0 1.662191 1_556
O22 Sb1 2.036334 1_555
O24 Si1 1.679333 1_555
O25 Sb0 2.036369 1_555
