# generated using pymatgen
data_CaPr(CoO3)2
_symmetry_space_group_name_H-M   'P 1'
_cell_length_a   5.48246800
_cell_length_b   5.43840000
_cell_length_c   9.29205309
_cell_angle_alpha   54.80541541
_cell_angle_beta   90.00000000
_cell_angle_gamma   90.00000000
_symmetry_Int_Tables_number   1
_chemical_formula_structural   CaPr(CoO3)2
_chemical_formula_sum   'Ca2 Pr2 Co4 O12'
_cell_volume   226.40549450
_cell_formula_units_Z   2
loop_
 _symmetry_equiv_pos_site_id
 _symmetry_equiv_pos_as_xyz
  1  'x, y, z'
loop_
 _atom_site_type_symbol
 _atom_site_label
 _atom_site_symmetry_multiplicity
 _atom_site_fract_x
 _atom_site_fract_y
 _atom_site_fract_z
 _atom_site_occupancy
  Ca  Ca0  1  0.79337800  0.23868300  0.24846800  1
  Ca  Ca1  1  0.20662200  0.23868300  0.74846800  1
  Pr  Pr0  1  0.28985600  0.75986600  0.24737100  1
  Pr  Pr1  1  0.71014400  0.75986600  0.74737100  1
  Co  Co0  1  0.75101700  0.00026500  0.00021300  1
  Co  Co1  1  0.75180100  0.50095900  0.49971800  1
  Co  Co2  1  0.24898300  0.00026500  0.50021300  1
  Co  Co3  1  0.24819900  0.50095900  0.99971800  1
  O  O0  1  0.76646900  0.32416600  0.74612900  1
  O  O1  1  0.02434300  0.16763100  0.03891800  1
  O  O2  1  0.03421200  0.75210800  0.46277100  1
  O  O3  1  0.52849300  0.83621100  0.46096100  1
  O  O4  1  0.54289400  0.23477800  0.04318200  1
  O  O5  1  0.26467400  0.66488700  0.76103200  1
  O  O6  1  0.23353100  0.32416600  0.24612900  1
  O  O7  1  0.96578800  0.75210800  0.96277100  1
  O  O8  1  0.97565700  0.16763100  0.53891800  1
  O  O9  1  0.47150700  0.83621100  0.96096100  1
  O  O10  1  0.45710600  0.23477800  0.54318200  1
  O  O11  1  0.73532600  0.66488700  0.26103200  1
loop_
_geom_bond_atom_site_label_1
_geom_bond_atom_site_label_2
_geom_bond_distance
_geom_bond_site_symmetry_2
Ca0 O4 2.360441 1_555
Ca0 O11 2.408186 1_555
Ca0 O3 2.411781 1_545
Ca0 O6 2.455223 1_655
Ca0 O1 2.532076 1_655
Ca0 O2 2.576224 1_645
Ca0 O7 2.681962 1_554
Ca0 O8 2.688828 1_555
Ca1 O10 2.360441 1_555
Ca1 O5 2.408186 1_555
Ca1 O9 2.411781 1_545
Ca1 O0 2.455223 1_455
Ca1 O8 2.532076 1_455
Ca1 O7 2.576224 1_445
Ca1 O2 2.681962 1_555
Ca1 O1 2.688828 1_556
Co0 O1 1.892265 1_655
Co0 O9 1.911126 1_544
Co0 O4 1.917010 1_555
Co0 O7 1.967254 1_544
Co0 O0 1.972377 1_554
Co0 O11 2.027873 1_545
Co1 O11 1.855463 1_555
Co1 O0 1.906784 1_555
Co1 O2 1.959629 1_655
Co1 O8 2.040565 1_555
Co1 O10 2.048188 1_555
Co1 O3 2.048380 1_555
Co2 O8 1.892265 1_455
Co2 O3 1.911126 1_545
Co2 O10 1.917010 1_555
Co2 O2 1.967254 1_545
Co2 O6 1.972377 1_555
Co2 O5 2.027873 1_545
Co3 O5 1.855463 1_555
Co3 O6 1.906784 1_556
Co3 O7 1.959629 1_455
Co3 O1 2.040565 1_556
Co3 O4 2.048188 1_556
Co3 O9 2.048380 1_555
O0 Pr1 2.396162 1_555
O1 Pr0 2.416019 1_545
O2 Pr0 2.423808 1_555
O3 Pr0 2.602489 1_555
O3 Pr1 2.640681 1_555
O4 Pr0 2.558586 1_545
O4 Pr1 2.739129 1_554
O5 Pr1 2.484360 1_555
O6 Pr0 2.396162 1_555
O7 Pr1 2.423808 1_555
O8 Pr1 2.416019 1_545
O9 Pr1 2.602489 1_555
O9 Pr0 2.640681 1_556
O10 Pr1 2.558586 1_545
O10 Pr0 2.739129 1_555
O11 Pr0 2.484360 1_555
