# generated using pymatgen
data_Cs6Dy21Te34Cl
_symmetry_space_group_name_H-M   'P 1'
_cell_length_a   14.51289619
_cell_length_b   14.51289619
_cell_length_c   14.50279259
_cell_angle_alpha   65.79955937
_cell_angle_beta   65.79955937
_cell_angle_gamma   97.75967126
_symmetry_Int_Tables_number   1
_chemical_formula_structural   Cs6Dy21Te34Cl
_chemical_formula_sum   'Cs6 Dy21 Te34 Cl1'
_cell_volume   2366.71836565
_cell_formula_units_Z   1
loop_
 _symmetry_equiv_pos_site_id
 _symmetry_equiv_pos_as_xyz
  1  'x, y, z'
loop_
 _atom_site_type_symbol
 _atom_site_label
 _atom_site_symmetry_multiplicity
 _atom_site_fract_x
 _atom_site_fract_y
 _atom_site_fract_z
 _atom_site_occupancy
  Cs  Cs0  1  0.04227000  0.80513800  0.72333800  1
  Cs  Cs1  1  0.80513800  0.04227000  0.72333800  1
  Cs  Cs2  1  0.95773000  0.19486200  0.27666200  1
  Cs  Cs3  1  0.19486200  0.95773000  0.27666200  1
  Cs  Cs4  1  0.77981400  0.77981400  0.57477700  1
  Cs  Cs5  1  0.22018600  0.22018600  0.42522300  1
  Dy  Dy0  1  0.69959700  0.30040300  0.00000000  1
  Dy  Dy1  1  0.30040300  0.69959700  0.00000000  1
  Dy  Dy2  1  0.04622600  0.45798800  0.75067400  1
  Dy  Dy3  1  0.45798800  0.04622600  0.75067400  1
  Dy  Dy4  1  0.95377400  0.54201200  0.24932600  1
  Dy  Dy5  1  0.54201200  0.95377400  0.24932600  1
  Dy  Dy6  1  0.83002200  0.42763000  0.62257400  1
  Dy  Dy7  1  0.42763000  0.83002200  0.62257400  1
  Dy  Dy8  1  0.16997800  0.57237000  0.37742600  1
  Dy  Dy9  1  0.57237000  0.16997800  0.37742600  1
  Dy  Dy10  1  0.90174000  0.09826000  0.00000000  1
  Dy  Dy11  1  0.09826000  0.90174000  0.00000000  1
  Dy  Dy12  1  0.26625200  0.47043600  0.88925600  1
  Dy  Dy13  1  0.47043600  0.26625200  0.88925600  1
  Dy  Dy14  1  0.73374800  0.52956400  0.11074400  1
  Dy  Dy15  1  0.52956400  0.73374800  0.11074400  1
  Dy  Dy16  1  0.39903200  0.60096800  0.50000000  1
  Dy  Dy17  1  0.60096800  0.39903200  0.50000000  1
  Dy  Dy18  1  0.50000000  0.50000000  0.00000000  1
  Dy  Dy19  1  0.24469600  0.24469600  0.74762600  1
  Dy  Dy20  1  0.75530400  0.75530400  0.25237400  1
  Te  Te0  1  0.68772100  0.68772100  0.93363900  1
  Te  Te1  1  0.31227900  0.31227900  0.06636100  1
  Te  Te2  1  0.05900600  0.05900600  0.81304400  1
  Te  Te3  1  0.94099400  0.94099400  0.18695600  1
  Te  Te4  1  0.08804100  0.28851200  0.93259200  1
  Te  Te5  1  0.28851200  0.08804100  0.93259200  1
  Te  Te6  1  0.91195900  0.71148800  0.06740800  1
  Te  Te7  1  0.71148800  0.91195900  0.06740800  1
  Te  Te8  1  0.88616100  0.48591100  0.93733200  1
  Te  Te9  1  0.48591100  0.88616100  0.93733200  1
  Te  Te10  1  0.11383900  0.51408900  0.06266800  1
  Te  Te11  1  0.51408900  0.11383900  0.06266800  1
  Te  Te12  1  0.86572100  0.26565000  0.81206800  1
  Te  Te13  1  0.26565000  0.86572100  0.81206800  1
  Te  Te14  1  0.13427900  0.73435000  0.18793200  1
  Te  Te15  1  0.73435000  0.13427900  0.18793200  1
  Te  Te16  1  0.24143200  0.63706800  0.68919800  1
  Te  Te17  1  0.63706800  0.24143200  0.68919800  1
  Te  Te18  1  0.75856800  0.36293200  0.31080200  1
  Te  Te19  1  0.36293200  0.75856800  0.31080200  1
  Te  Te20  1  0.01305000  0.61623000  0.55861900  1
  Te  Te21  1  0.61623000  0.01305000  0.55861900  1
  Te  Te22  1  0.98695000  0.38377000  0.44138100  1
  Te  Te23  1  0.38377000  0.98695000  0.44138100  1
  Te  Te24  1  0.21209400  0.41589500  0.56250000  1
  Te  Te25  1  0.41589500  0.21209400  0.56250000  1
  Te  Te26  1  0.78790600  0.58410500  0.43750000  1
  Te  Te27  1  0.58410500  0.78790600  0.43750000  1
  Te  Te28  1  0.65814300  0.45940100  0.81258400  1
  Te  Te29  1  0.45940100  0.65814300  0.81258400  1
  Te  Te30  1  0.34185700  0.54059900  0.18741600  1
  Te  Te31  1  0.54059900  0.34185700  0.18741600  1
  Te  Te32  1  0.43167200  0.43167200  0.69090700  1
  Te  Te33  1  0.56832800  0.56832800  0.30909300  1
  Cl  Cl0  1  0.00000000  0.00000000  0.50000000  1
loop_
_geom_bond_atom_site_label_1
_geom_bond_atom_site_label_2
_geom_bond_distance
_geom_bond_site_symmetry_2
Cs0 Te8 3.980113 1_455
Cs0 Te16 4.033600 1_555
Cs0 Te6 4.041320 1_456
Cs0 Te13 4.064114 1_555
Cs0 Te0 4.380312 1_455
Cs0 Te23 4.387922 1_555
Cs0 Te2 4.390140 1_565
Cs0 Te20 4.391943 1_555
Cs1 Te9 3.980113 1_545
Cs1 Te17 4.033600 1_555
Cs1 Te7 4.041320 1_546
Cs1 Te12 4.064114 1_555
Cs1 Te0 4.380312 1_545
Cs1 Te22 4.387922 1_555
Cs1 Te2 4.390140 1_655
Cs1 Te21 4.391943 1_555
Cs2 Te10 3.980113 1_655
Cs2 Te18 4.033600 1_555
Cs2 Te4 4.041320 1_654
Cs2 Te15 4.064114 1_555
Cs2 Te1 4.380312 1_655
Cs2 Te21 4.387922 1_555
Cs2 Te3 4.390140 1_545
Cs2 Te22 4.391943 1_555
Cs3 Te11 3.980113 1_565
Cs3 Te19 4.033600 1_555
Cs3 Te5 4.041320 1_564
Cs3 Te14 4.064114 1_555
Cs3 Te1 4.380312 1_565
Cs3 Te20 4.387922 1_555
Cs3 Te3 4.390140 1_455
Cs3 Te23 4.391943 1_555
Cs4 Te29 4.034532 1_555
Cs4 Te28 4.034532 1_555
Cs4 Te26 4.071769 1_555
Cs4 Te27 4.071769 1_555
Cs4 Te0 4.332576 1_555
Cs4 Te20 4.373184 1_655
Cs4 Te21 4.373184 1_565
Cs4 Te3 4.418995 1_555
Cs5 Te30 4.034532 1_555
Cs5 Te31 4.034532 1_555
Cs5 Te25 4.071769 1_555
Cs5 Te24 4.071769 1_555
Cs5 Te1 4.332576 1_555
Cs5 Te23 4.373184 1_545
Cs5 Te22 4.373184 1_455
Cs5 Te2 4.418995 1_555
Dy0 Te8 3.068098 1_554
Dy0 Te11 3.068098 1_555
Dy0 Te15 3.092506 1_555
Dy0 Te12 3.092506 1_554
Dy0 Te28 3.106094 1_554
Dy0 Te31 3.106094 1_555
Dy1 Te10 3.068098 1_555
Dy1 Te9 3.068098 1_554
Dy1 Te14 3.092506 1_555
Dy1 Te13 3.092506 1_554
Dy1 Te30 3.106094 1_555
Dy1 Te29 3.106094 1_554
Dy2 Te8 2.981052 1_455
Dy2 Te20 3.068839 1_555
Dy2 Te12 3.085860 1_455
Dy2 Te16 3.101068 1_555
Dy2 Te4 3.126353 1_555
Dy2 Te24 3.161257 1_555
Dy3 Te9 2.981052 1_545
Dy3 Te21 3.068839 1_555
Dy3 Te13 3.085860 1_545
Dy3 Te17 3.101068 1_555
Dy3 Te5 3.126353 1_555
Dy3 Te25 3.161257 1_555
Dy4 Te10 2.981052 1_655
Dy4 Te22 3.068839 1_555
Dy4 Te14 3.085860 1_655
Dy4 Te18 3.101068 1_555
Dy4 Te6 3.126353 1_555
Dy4 Te26 3.161257 1_555
Dy5 Te11 2.981052 1_565
Dy5 Te23 3.068839 1_555
Dy5 Te15 3.085860 1_565
Dy5 Te19 3.101068 1_555
Dy5 Te7 3.126353 1_555
Dy5 Te27 3.161257 1_555
Dy6 Te20 3.056676 1_655
Dy6 Te22 3.058368 1_555
Dy6 Te26 3.075306 1_555
Dy6 Te12 3.089790 1_555
Dy6 Te17 3.110503 1_555
Dy6 Te28 3.121753 1_555
Dy7 Te21 3.056676 1_565
Dy7 Te23 3.058368 1_555
Dy7 Te27 3.075306 1_555
Dy7 Te13 3.089790 1_555
Dy7 Te16 3.110503 1_555
Dy7 Te29 3.121753 1_555
Dy8 Te22 3.056676 1_455
Dy8 Te20 3.058368 1_555
Dy8 Te24 3.075306 1_555
Dy8 Te14 3.089790 1_555
Dy8 Te19 3.110503 1_555
Dy8 Te30 3.121753 1_555
Dy9 Te23 3.056676 1_545
Dy9 Te21 3.058368 1_555
Dy9 Te25 3.075306 1_555
Dy9 Te15 3.089790 1_555
Dy9 Te18 3.110503 1_555
Dy9 Te31 3.121753 1_555
Dy10 Te3 3.070716 1_545
Dy10 Te2 3.070716 1_654
Dy10 Te7 3.081195 1_545
Dy10 Te4 3.081195 1_654
Dy10 Te12 3.112226 1_554
Dy10 Te15 3.112226 1_555
Dy11 Te3 3.070716 1_455
Dy11 Te2 3.070716 1_564
Dy11 Te5 3.081195 1_564
Dy11 Te6 3.081195 1_455
Dy11 Te13 3.112226 1_554
Dy11 Te14 3.112226 1_555
Dy12 Te10 2.956850 1_556
Dy12 Te1 3.049445 1_556
Dy12 Te29 3.068252 1_555
Dy12 Te4 3.085129 1_555
Dy12 Te16 3.120199 1_555
Dy12 Te32 3.222494 1_555
Dy13 Te11 2.956850 1_556
Dy13 Te1 3.049445 1_556
Dy13 Te28 3.068252 1_555
Dy13 Te5 3.085129 1_555
Dy13 Te17 3.120199 1_555
Dy13 Te32 3.222494 1_555
Dy14 Te8 2.956850 1_554
Dy14 Te0 3.049445 1_554
Dy14 Te31 3.068252 1_555
Dy14 Te6 3.085129 1_555
Dy14 Te18 3.120199 1_555
Dy14 Te33 3.222494 1_555
Dy15 Te9 2.956850 1_554
Dy15 Te0 3.049445 1_554
Dy15 Te30 3.068252 1_555
Dy15 Te7 3.085129 1_555
Dy15 Te19 3.120199 1_555
Dy15 Te33 3.222494 1_555
Dy16 Te16 3.064590 1_555
Dy16 Te19 3.064590 1_555
Dy16 Te24 3.068615 1_555
Dy16 Te27 3.068615 1_555
Dy16 Te33 3.120756 1_555
Dy16 Te32 3.120756 1_555
Dy17 Te18 3.064590 1_555
Dy17 Te17 3.064590 1_555
Dy17 Te25 3.068615 1_555
Dy17 Te26 3.068615 1_555
Dy17 Te33 3.120756 1_555
Dy17 Te32 3.120756 1_555
Dy18 Te1 3.076864 1_555
Dy18 Te0 3.076864 1_554
Dy18 Te28 3.092932 1_554
Dy18 Te30 3.092932 1_555
Dy18 Te29 3.092932 1_554
Dy18 Te31 3.092932 1_555
Dy19 Te2 3.044924 1_555
Dy19 Te25 3.081449 1_555
Dy19 Te24 3.081449 1_555
Dy19 Te4 3.091597 1_555
Dy19 Te5 3.091597 1_555
Dy19 Te32 3.123304 1_555
Dy20 Te3 3.044924 1_555
Dy20 Te26 3.081449 1_555
Dy20 Te27 3.081449 1_555
Dy20 Te6 3.091597 1_555
Dy20 Te7 3.091597 1_555
Dy20 Te33 3.123304 1_555
Cl0 Cs4 3.627549 1_445
Cl0 Cs5 3.627549 1_555
Cl0 Cs3 3.667819 1_545
Cl0 Cs0 3.667819 1_545
Cl0 Cs2 3.667819 1_455
Cl0 Cs1 3.667819 1_455
