# generated using pymatgen
data_Sr3LaTa2(FeO6)2
_symmetry_space_group_name_H-M   'P 1'
_cell_length_a   5.69466538
_cell_length_b   9.88549448
_cell_length_c   9.89835378
_cell_angle_alpha   70.27467887
_cell_angle_beta   90.19804652
_cell_angle_gamma   90.25495208
_symmetry_Int_Tables_number   1
_chemical_formula_structural   Sr3LaTa2(FeO6)2
_chemical_formula_sum   'Sr6 La2 Ta4 Fe4 O24'
_cell_volume   524.52031293
_cell_formula_units_Z   2
loop_
 _symmetry_equiv_pos_site_id
 _symmetry_equiv_pos_as_xyz
  1  'x, y, z'
loop_
 _atom_site_type_symbol
 _atom_site_label
 _atom_site_symmetry_multiplicity
 _atom_site_fract_x
 _atom_site_fract_y
 _atom_site_fract_z
 _atom_site_occupancy
  Sr  Sr0  1  0.52477100  0.12338400  0.62760600  1
  Sr  Sr1  1  0.52454700  0.62305300  0.12783500  1
  Sr  Sr2  1  0.02390400  0.87704700  0.87434500  1
  Sr  Sr3  1  0.02433700  0.37731200  0.37403900  1
  Sr  Sr4  1  0.47444800  0.87524400  0.37272600  1
  Sr  Sr5  1  0.47456800  0.37565500  0.87265700  1
  La  La0  1  0.95740300  0.11849800  0.12371500  1
  La  La1  1  0.95719000  0.61833700  0.62397200  1
  Ta  Ta0  1  0.49607200  0.75212300  0.74987000  1
  Ta  Ta1  1  0.49623700  0.25198700  0.24984200  1
  Ta  Ta2  1  0.00229900  0.24720200  0.74923100  1
  Ta  Ta3  1  0.00196000  0.74728500  0.24915800  1
  Fe  Fe0  1  0.99813400  0.49845200  0.99991200  1
  Fe  Fe1  1  0.49758200  0.49989400  0.50001400  1
  Fe  Fe2  1  0.99815400  0.99847800  0.49990900  1
  Fe  Fe3  1  0.49743500  0.00002100  0.99988300  1
  O  O0  1  0.52567700  0.66041800  0.60001500  1
  O  O1  1  0.52583100  0.16056700  0.09993000  1
  O  O2  1  0.99568100  0.15494900  0.59757800  1
  O  O3  1  0.99468000  0.65481900  0.09761900  1
  O  O4  1  0.48465500  0.33748000  0.40114700  1
  O  O5  1  0.48439100  0.83719000  0.90132000  1
  O  O6  1  0.00522100  0.83708800  0.41212600  1
  O  O7  1  0.00617900  0.33717200  0.91212300  1
  O  O8  1  0.72693400  0.09877400  0.36741800  1
  O  O9  1  0.72699500  0.59879300  0.86734000  1
  O  O10  1  0.80185800  0.09501300  0.87786500  1
  O  O11  1  0.80014100  0.59484100  0.37796800  1
  O  O12  1  0.27952300  0.90144600  0.62569100  1
  O  O13  1  0.27951800  0.40141100  0.12570400  1
  O  O14  1  0.19717200  0.91464500  0.12956100  1
  O  O15  1  0.19894100  0.41490800  0.62948700  1
  O  O16  1  0.21970800  0.12154700  0.33643100  1
  O  O17  1  0.21961900  0.62151100  0.83634700  1
  O  O18  1  0.28779900  0.13970700  0.83484500  1
  O  O19  1  0.28609000  0.63979200  0.33438400  1
  O  O20  1  0.77568800  0.87629600  0.65571600  1
  O  O21  1  0.77576100  0.37628700  0.15572500  1
  O  O22  1  0.72557400  0.87076100  0.16420800  1
  O  O23  1  0.72732500  0.37061600  0.66473200  1
loop_
_geom_bond_atom_site_label_1
_geom_bond_atom_site_label_2
_geom_bond_distance
_geom_bond_site_symmetry_2
La0 O14 2.423610 1_645
La0 O7 2.465600 1_654
La0 O1 2.491479 1_555
La0 O16 2.585759 1_655
La0 O10 2.669289 1_554
La0 O22 2.685787 1_545
La0 O8 2.698450 1_555
La0 O21 2.869725 1_555
La1 O15 2.427422 1_655
La1 O6 2.466972 1_655
La1 O0 2.491223 1_555
La1 O17 2.583762 1_655
La1 O11 2.673587 1_555
La1 O23 2.679796 1_555
La1 O9 2.695210 1_555
La1 O20 2.869910 1_555
Fe0 O21 2.045323 1_556
Fe0 O9 2.052061 1_555
Fe0 O13 2.057149 1_656
Fe0 O7 2.057964 1_655
Fe0 O3 2.081988 1_556
Fe0 O17 2.088761 1_655
Fe1 O15 2.125100 1_555
Fe1 O19 2.126412 1_555
Fe1 O11 2.131572 1_555
Fe1 O0 2.140198 1_555
Fe1 O23 2.144024 1_555
Fe1 O4 2.144747 1_555
Fe2 O20 2.045674 1_555
Fe2 O8 2.051908 1_565
Fe2 O12 2.057014 1_655
Fe2 O6 2.058777 1_655
Fe2 O2 2.082571 1_565
Fe2 O16 2.088530 1_665
Fe3 O18 2.116390 1_555
Fe3 O14 2.134183 1_546
Fe3 O22 2.136230 1_546
Fe3 O10 2.140154 1_555
Fe3 O1 2.140838 1_556
Fe3 O5 2.146358 1_545
O0 Ta0 1.990296 1_555
O0 Sr4 2.536227 1_555
O1 Ta1 1.988806 1_555
O1 Sr5 2.537550 1_554
O2 Ta2 2.002458 1_655
O2 Sr3 2.543736 1_655
O2 Sr0 2.704172 1_555
O2 Sr0 3.033709 1_655
O3 Ta3 2.002988 1_655
O3 Sr2 2.541665 1_654
O3 Sr1 2.700072 1_555
O3 Sr1 3.038364 1_655
O4 Ta1 1.953769 1_555
O4 Sr0 2.520816 1_555
O4 Sr3 2.651709 1_555
O4 Sr1 3.191111 1_555
O5 Ta0 1.952192 1_555
O5 Sr1 2.521392 1_556
O5 Sr2 2.652628 1_555
O6 Ta3 2.087315 1_555
O6 Sr4 2.708021 1_555
O7 Ta2 2.087777 1_555
O7 Sr5 2.703659 1_555
O8 Ta1 2.047346 1_555
O8 Sr4 2.616633 1_545
O8 Sr0 2.909183 1_555
O9 Ta0 2.048479 1_555
O9 Sr5 2.613190 1_555
O9 Sr1 2.911284 1_556
O10 Ta2 1.972109 1_655
O10 Sr2 2.513580 1_645
O10 Sr0 2.865783 1_555
O11 Ta3 1.978695 1_655
O11 Sr3 2.517320 1_655
O11 Sr1 2.860398 1_555
O12 Ta0 1.997871 1_555
O12 Sr0 2.600957 1_565
O12 Sr2 2.802834 1_555
O12 Sr4 2.833467 1_555
O13 Ta1 1.998855 1_555
O13 Sr1 2.598445 1_555
O13 Sr3 2.799477 1_555
O13 Sr5 2.832769 1_554
O14 Ta3 2.011230 1_555
O14 Sr4 2.790094 1_555
O14 Sr2 2.847246 1_554
O15 Ta2 2.018305 1_555
O15 Sr5 2.785072 1_555
O15 Sr3 2.851989 1_555
O16 Ta1 2.030359 1_555
O16 Sr4 2.756669 1_545
O16 Sr3 2.903833 1_555
O17 Ta0 2.030624 1_555
O17 Sr5 2.753558 1_555
O17 Sr2 2.904156 1_555
O18 Ta2 1.971966 1_555
O18 Sr0 2.509894 1_555
O18 Sr5 2.697432 1_555
O18 Sr2 2.904694 1_545
O19 Ta3 1.964583 1_555
O19 Sr1 2.510156 1_555
O19 Sr4 2.698773 1_555
O19 Sr3 2.896682 1_555
O20 Ta0 2.032602 1_555
O20 Sr2 2.582799 1_655
O20 Sr0 2.766752 1_565
O21 Ta1 2.032658 1_555
O21 Sr3 2.582075 1_655
O21 Sr1 2.765358 1_555
O22 Ta3 1.997331 1_655
O22 Sr4 2.527812 1_555
O22 Sr1 2.829077 1_555
O23 Ta2 1.989755 1_655
O23 Sr5 2.529905 1_555
O23 Sr0 2.831429 1_555
