# generated using pymatgen
data_HoS2
_symmetry_space_group_name_H-M   'P 1'
_cell_length_a   5.50606373
_cell_length_b   5.50606373
_cell_length_c   5.50606373
_cell_angle_alpha   60.00000000
_cell_angle_beta   60.00000000
_cell_angle_gamma   60.00000000
_symmetry_Int_Tables_number   1
_chemical_formula_structural   HoS2
_chemical_formula_sum   'Ho2 S4'
_cell_volume   118.03442896
_cell_formula_units_Z   2
loop_
 _symmetry_equiv_pos_site_id
 _symmetry_equiv_pos_as_xyz
  1  'x, y, z'
loop_
 _atom_site_type_symbol
 _atom_site_label
 _atom_site_symmetry_multiplicity
 _atom_site_fract_x
 _atom_site_fract_y
 _atom_site_fract_z
 _atom_site_occupancy
  Ho  Ho0  1  0.25000000  0.25000000  0.25000000  1
  Ho  Ho1  1  0.50000000  0.50000000  0.50000000  1
  S  S0  1  0.37500000  0.87500000  0.87500000  1
  S  S1  1  0.87500000  0.37500000  0.87500000  1
  S  S2  1  0.87500000  0.87500000  0.87500000  1
  S  S3  1  0.87500000  0.87500000  0.37500000  1
loop_
_geom_bond_atom_site_label_1
_geom_bond_atom_site_label_2
_geom_bond_distance
_geom_bond_site_symmetry_2
Ho0 S1 3.228216 1_554
Ho0 S2 3.228216 1_454
Ho0 S3 3.228216 1_455
Ho0 S0 3.228216 1_554
Ho0 S2 3.228216 1_445
Ho0 S3 3.228216 1_545
Ho0 S1 3.228216 1_455
Ho0 S1 3.228216 1_454
Ho0 S2 3.228216 1_544
Ho0 S3 3.228216 1_445
Ho0 S0 3.228216 1_545
Ho0 S0 3.228216 1_544
Ho1 S1 3.228216 1_455
Ho1 S0 3.228216 1_545
Ho1 S2 3.228216 1_554
Ho1 S3 3.228216 1_455
Ho1 S2 3.228216 1_545
Ho1 S3 3.228216 1_545
Ho1 S0 3.228216 1_554
Ho1 S1 3.228216 1_555
Ho1 S1 3.228216 1_554
Ho1 S0 3.228216 1_555
Ho1 S2 3.228216 1_455
Ho1 S3 3.228216 1_555
S0 S2 2.753032 1_555
S0 S3 2.753032 1_555
S0 S1 2.753032 1_465
S0 S1 2.753032 1_555
S0 S2 2.753032 1_455
S0 S3 2.753032 1_456
S1 S2 2.753032 1_555
S1 S3 2.753032 1_555
S1 S2 2.753032 1_545
S1 S3 2.753032 1_546
S2 S3 2.753032 1_555
S2 S3 2.753032 1_556
