# generated using pymatgen
data_Sr2MnSbO6
_symmetry_space_group_name_H-M   'P 1'
_cell_length_a   5.77457662
_cell_length_b   5.77457662
_cell_length_c   5.77457662
_cell_angle_alpha   122.80141970
_cell_angle_beta   122.80141970
_cell_angle_gamma   85.21263594
_symmetry_Int_Tables_number   1
_chemical_formula_structural   Sr2MnSbO6
_chemical_formula_sum   'Sr2 Mn1 Sb1 O6'
_cell_volume   129.89841091
_cell_formula_units_Z   1
loop_
 _symmetry_equiv_pos_site_id
 _symmetry_equiv_pos_as_xyz
  1  'x, y, z'
loop_
 _atom_site_type_symbol
 _atom_site_label
 _atom_site_symmetry_multiplicity
 _atom_site_fract_x
 _atom_site_fract_y
 _atom_site_fract_z
 _atom_site_occupancy
  Sr  Sr0  1  0.25000000  0.75000000  0.50000000  1
  Sr  Sr1  1  0.75000000  0.25000000  0.50000000  1
  Mn  Mn0  1  0.50000000  0.50000000  0.00000000  1
  Sb  Sb0  1  0.00000000  0.00000000  0.00000000  1
  O  O0  1  0.23350400  0.23350400  0.00000000  1
  O  O1  1  0.76649600  0.76649600  0.00000000  1
  O  O2  1  0.20449300  0.30357200  0.50806500  1
  O  O3  1  0.79550700  0.69642800  0.49193500  1
  O  O4  1  0.30357200  0.79550700  0.09907900  1
  O  O5  1  0.69642800  0.20449300  0.90092100  1
loop_
_geom_bond_atom_site_label_1
_geom_bond_atom_site_label_2
_geom_bond_distance
_geom_bond_site_symmetry_2
Mn0 O3 1.961659 1_555
Mn0 O4 1.961659 1_555
Mn0 O5 1.961659 1_554
Mn0 O2 1.961659 1_554
Mn0 O1 2.265332 1_555
Mn0 O0 2.265332 1_555
O0 Sb0 1.984886 1_555
O0 Sr1 2.767734 1_454
O0 Sr0 2.767734 1_544
O0 Sr1 2.767734 1_555
O0 Sr0 2.767734 1_555
O1 Sb0 1.984886 1_665
O1 Sr0 2.767734 1_655
O1 Sr0 2.767734 1_554
O1 Sr1 2.767734 1_554
O1 Sr1 2.767734 1_565
O2 Sb0 2.023511 1_555
O2 Sr1 2.640715 1_455
O2 Sr0 2.640715 1_555
O3 Sb0 2.023511 1_666
O3 Sr0 2.640715 1_655
O3 Sr1 2.640715 1_555
O4 Sb0 2.023511 1_565
O4 Sr0 2.640715 1_555
O4 Sr1 2.640715 1_565
O5 Sb0 2.023511 1_656
O5 Sr0 2.640715 1_545
O5 Sr1 2.640715 1_555
