# generated using pymatgen
data_HfTaSi
_symmetry_space_group_name_H-M   'P 1'
_cell_length_a   5.30061070
_cell_length_b   5.44227860
_cell_length_c   8.69430800
_cell_angle_alpha   90.00000000
_cell_angle_beta   90.00000000
_cell_angle_gamma   120.88813255
_symmetry_Int_Tables_number   1
_chemical_formula_structural   HfTaSi
_chemical_formula_sum   'Hf4 Ta4 Si4'
_cell_volume   215.23637239
_cell_formula_units_Z   4
loop_
 _symmetry_equiv_pos_site_id
 _symmetry_equiv_pos_as_xyz
  1  'x, y, z'
loop_
 _atom_site_type_symbol
 _atom_site_label
 _atom_site_symmetry_multiplicity
 _atom_site_fract_x
 _atom_site_fract_y
 _atom_site_fract_z
 _atom_site_occupancy
  Hf  Hf0  1  0.66352800  0.33176400  0.56754900  1
  Hf  Hf1  1  0.33497000  0.66748900  0.44655800  1
  Hf  Hf2  1  0.33497000  0.66748900  0.05344200  1
  Hf  Hf3  1  0.66352800  0.33176400  0.93245100  1
  Ta  Ta0  1  0.67175900  0.83588100  0.75000000  1
  Ta  Ta1  1  0.82911200  0.65808400  0.25000000  1
  Ta  Ta2  1  0.82915100  0.17107700  0.25000000  1
  Ta  Ta3  1  0.33663900  0.16831600  0.25000000  1
  Si  Si0  1  0.99355900  0.99677100  0.49995500  1
  Si  Si1  1  0.99355900  0.99677100  0.00004500  1
  Si  Si2  1  0.17461500  0.35136600  0.75000000  1
  Si  Si3  1  0.17460900  0.82322800  0.75000000  1
loop_
_geom_bond_atom_site_label_1
_geom_bond_atom_site_label_2
_geom_bond_distance
_geom_bond_site_symmetry_2
Hf0 Si2 3.086681 1_555
Hf0 Si3 3.086746 1_545
Hf0 Si3 3.093485 1_655
Hf0 Si2 3.093547 1_655
Hf0 Si0 3.103722 1_445
Hf0 Ta3 3.135834 1_555
Hf0 Ta0 3.149961 1_545
Hf0 Ta0 3.149976 1_555
Hf0 Ta2 3.153746 1_555
Hf0 Ta1 3.153771 1_555
Hf0 Si0 3.162829 1_555
Hf0 Si0 3.162909 1_545
Hf0 Hf3 3.172570 1_555
Hf0 Hf1 3.230351 1_655
Hf0 Hf1 3.277917 1_545
Hf0 Hf1 3.277953 1_555
Hf1 Si3 3.023376 1_555
Hf1 Si2 3.023429 1_555
Hf1 Si0 3.031569 1_555
Hf1 Ta0 3.050772 1_555
Hf1 Ta1 3.149797 1_555
Hf1 Ta2 3.149975 1_565
Hf1 Ta2 3.157643 1_455
Hf1 Ta1 3.157822 1_455
Hf1 Si0 3.167275 1_455
Hf1 Si0 3.167392 1_445
Hf1 Ta3 3.213238 1_565
Hf1 Ta3 3.213307 1_555
Hf1 Hf2 3.417872 1_555
Hf2 Si3 3.023376 1_554
Hf2 Si2 3.023429 1_554
Hf2 Si1 3.031569 1_555
Hf2 Ta0 3.050772 1_554
Hf2 Ta1 3.149797 1_555
Hf2 Ta2 3.149975 1_565
Hf2 Ta2 3.157643 1_455
Hf2 Ta1 3.157822 1_455
Hf2 Si1 3.167275 1_455
Hf2 Si1 3.167392 1_445
Hf2 Ta3 3.213238 1_565
Hf2 Ta3 3.213307 1_555
Hf2 Hf3 3.230351 1_454
Hf2 Hf3 3.277917 1_564
Hf2 Hf3 3.277953 1_554
Hf3 Si2 3.086681 1_555
Hf3 Si3 3.086746 1_545
Hf3 Si3 3.093485 1_655
Hf3 Si2 3.093547 1_655
Hf3 Si1 3.103722 1_446
Hf3 Ta3 3.135834 1_556
Hf3 Ta0 3.149961 1_545
Hf3 Ta0 3.149976 1_555
Hf3 Ta2 3.153746 1_556
Hf3 Ta1 3.153771 1_556
Hf3 Si1 3.162829 1_556
Hf3 Si1 3.162909 1_546
Ta1 Ta3 2.602880 1_555
Ta1 Ta2 2.650534 1_555
Ta1 Ta3 2.697790 1_665
Ta1 Ta2 2.791745 1_565
Ta2 Ta3 2.602932 1_555
Ta2 Ta3 2.697741 1_655
Si0 Ta0 2.620857 1_555
Si0 Ta3 2.675491 1_665
Si0 Ta1 2.688942 1_555
Si0 Ta2 2.689024 1_565
Si0 Si3 2.733084 1_655
Si0 Si2 2.733089 1_665
Si1 Ta0 2.620857 1_554
Si1 Ta3 2.675491 1_665
Si1 Ta1 2.688942 1_555
Si1 Ta2 2.689024 1_565
Si1 Si3 2.733084 1_654
Si1 Si2 2.733089 1_664
Si2 Si3 2.568021 1_555
Si2 Ta0 2.600552 1_555
Si2 Ta0 2.701371 1_445
Si2 Si3 2.874258 1_545
Si3 Ta0 2.600519 1_555
Si3 Ta0 2.701409 1_455
