# generated using pymatgen
data_SrLaZnRuO6
_symmetry_space_group_name_H-M   'P 1'
_cell_length_a   5.69529300
_cell_length_b   5.64275400
_cell_length_c   9.74237995
_cell_angle_alpha   54.77327733
_cell_angle_beta   90.00000000
_cell_angle_gamma   90.00000000
_symmetry_Int_Tables_number   1
_chemical_formula_structural   SrLaZnRuO6
_chemical_formula_sum   'Sr2 La2 Zn2 Ru2 O12'
_cell_volume   255.75749442
_cell_formula_units_Z   2
loop_
 _symmetry_equiv_pos_site_id
 _symmetry_equiv_pos_as_xyz
  1  'x, y, z'
loop_
 _atom_site_type_symbol
 _atom_site_label
 _atom_site_symmetry_multiplicity
 _atom_site_fract_x
 _atom_site_fract_y
 _atom_site_fract_z
 _atom_site_occupancy
  Sr  Sr0  1  0.21715800  0.24398200  0.25064500  1
  Sr  Sr1  1  0.78284200  0.24398200  0.75064500  1
  La  La0  1  0.29163500  0.75820000  0.75162800  1
  La  La1  1  0.70836500  0.75820000  0.25162800  1
  Zn  Zn0  1  0.75584400  0.49965800  0.00132200  1
  Zn  Zn1  1  0.24415600  0.49965800  0.50132200  1
  Ru  Ru0  1  0.75102100  0.00025800  0.49983900  1
  Ru  Ru1  1  0.24897900  0.00025800  0.99983900  1
  O  O0  1  0.76360100  0.32939800  0.25818800  1
  O  O1  1  0.23639900  0.32939800  0.75818800  1
  O  O2  1  0.72714800  0.68958400  0.74184400  1
  O  O3  1  0.27285200  0.68958400  0.24184400  1
  O  O4  1  0.95149800  0.76203300  0.45597400  1
  O  O5  1  0.04850200  0.76203300  0.95597400  1
  O  O6  1  0.53768500  0.23366900  0.53813100  1
  O  O7  1  0.46231500  0.23366900  0.03813100  1
  O  O8  1  0.03507900  0.15351500  0.54384100  1
  O  O9  1  0.96492100  0.15351500  0.04384100  1
  O  O10  1  0.47832000  0.82970200  0.45858800  1
  O  O11  1  0.52168000  0.82970200  0.95858800  1
loop_
_geom_bond_atom_site_label_1
_geom_bond_atom_site_label_2
_geom_bond_distance
_geom_bond_site_symmetry_2
La0 O1 2.404004 1_555
La0 O5 2.435349 1_555
La0 O8 2.449381 1_565
La0 O2 2.520680 1_555
La0 O11 2.623589 1_555
La0 O6 2.655271 1_565
La0 O7 2.822343 1_556
La0 O10 2.848668 1_555
La1 O0 2.404004 1_555
La1 O4 2.435349 1_555
La1 O9 2.449381 1_565
La1 O3 2.520680 1_555
La1 O10 2.623589 1_555
La1 O7 2.655271 1_565
La1 O6 2.822343 1_555
La1 O11 2.848668 1_554
O0 Ru0 1.988183 1_555
O0 Zn0 2.100910 1_555
O0 Sr0 2.636509 1_655
O1 Ru1 1.988183 1_555
O1 Zn1 2.100910 1_555
O1 Sr1 2.636509 1_455
O2 Ru0 1.970357 1_565
O2 Zn0 2.107203 1_556
O2 Sr1 2.486276 1_555
O3 Ru1 1.970357 1_564
O3 Zn1 2.107203 1_555
O3 Sr0 2.486276 1_555
O4 Ru0 1.988967 1_565
O4 Zn1 2.100161 1_655
O4 Sr0 2.722262 1_665
O4 Sr1 2.833403 1_555
O5 Ru1 1.988967 1_565
O5 Zn0 2.100161 1_456
O5 Sr1 2.722262 1_465
O5 Sr0 2.833403 1_556
O6 Ru0 1.979129 1_555
O6 Zn1 2.134268 1_555
O6 Sr1 2.525548 1_555
O7 Ru1 1.979129 1_554
O7 Zn0 2.134268 1_555
O7 Sr0 2.525548 1_555
O8 Ru0 1.994133 1_455
O8 Zn1 2.114496 1_555
O8 Sr1 2.751379 1_455
O8 Sr0 2.795166 1_555
O9 Ru1 1.994133 1_654
O9 Zn0 2.114496 1_555
O9 Sr0 2.751379 1_655
O9 Sr1 2.795166 1_554
O10 Ru0 1.986475 1_565
O10 Zn1 2.127395 1_555
O10 Sr0 2.513531 1_565
O11 Ru1 1.986475 1_565
O11 Zn0 2.127395 1_556
O11 Sr1 2.513531 1_565
