# generated using pymatgen
data_Sr2TiFeO6
_symmetry_space_group_name_H-M   'P 1'
_cell_length_a   3.92234100
_cell_length_b   11.15809379
_cell_length_c   11.15809732
_cell_angle_alpha   89.78972925
_cell_angle_beta   89.99997934
_cell_angle_gamma   89.99994332
_symmetry_Int_Tables_number   1
_chemical_formula_structural   Sr2TiFeO6
_chemical_formula_sum   'Sr8 Ti4 Fe4 O24'
_cell_volume   488.34031124
_cell_formula_units_Z   4
loop_
 _symmetry_equiv_pos_site_id
 _symmetry_equiv_pos_as_xyz
  1  'x, y, z'
loop_
 _atom_site_type_symbol
 _atom_site_label
 _atom_site_symmetry_multiplicity
 _atom_site_fract_x
 _atom_site_fract_y
 _atom_site_fract_z
 _atom_site_occupancy
  Sr  Sr0  1  0.50000000  0.50298400  0.75326500  1
  Sr  Sr1  1  0.50000000  0.25447900  0.00129900  1
  Sr  Sr2  1  0.50000100  0.75134900  0.50440900  1
  Sr  Sr3  1  0.50000000  0.00303600  0.25290600  1
  Sr  Sr4  1  0.50000100  0.74673600  0.99701600  1
  Sr  Sr5  1  0.49999800  0.49870000  0.24552300  1
  Sr  Sr6  1  0.50000000  0.99559000  0.74865200  1
  Sr  Sr7  1  0.50000000  0.24709500  0.49696300  1
  Ti  Ti0  1  0.99999800  0.24842800  0.74832300  1
  Ti  Ti1  1  0.00000000  0.00145800  0.00163300  1
  Ti  Ti2  1  0.00000100  0.49836300  0.49854100  1
  Ti  Ti3  1  0.00000200  0.75167700  0.25157100  1
  Fe  Fe0  1  0.99999700  0.74993500  0.75007100  1
  Fe  Fe1  1  0.00000000  0.00086700  0.49913400  1
  Fe  Fe2  1  0.00000000  0.50002400  0.99997800  1
  Fe  Fe3  1  0.00000000  0.24913400  0.25086500  1
  O  O0  1  0.99999900  0.37725200  0.88334800  1
  O  O1  1  0.00000000  0.11707100  0.12302900  1
  O  O2  1  0.99999700  0.63338700  0.62725600  1
  O  O3  1  0.00000300  0.87302600  0.36701500  1
  O  O4  1  0.00000100  0.61665500  0.12274600  1
  O  O5  1  0.00000100  0.37697100  0.38293000  1
  O  O6  1  0.99999900  0.87274400  0.86661300  1
  O  O7  1  0.99999900  0.13298800  0.62697400  1
  O  O8  1  0.99999800  0.38163200  0.63163900  1
  O  O9  1  0.99999900  0.12498000  0.87495200  1
  O  O10  1  0.99999900  0.62504800  0.37502200  1
  O  O11  1  0.00000000  0.86835800  0.11836600  1
  O  O12  1  0.50000200  0.25533100  0.75541800  1
  O  O13  1  0.49999800  0.99461800  0.99455000  1
  O  O14  1  0.49999900  0.50545000  0.50538000  1
  O  O15  1  0.50000400  0.74458200  0.24466800  1
  O  O16  1  0.99999500  0.62494600  0.87505300  1
  O  O17  1  0.00000000  0.37182300  0.12817800  1
  O  O18  1  0.00000100  0.87826000  0.62173700  1
  O  O19  1  0.00000100  0.12498100  0.37501800  1
  O  O20  1  0.50000200  0.49811200  0.00188700  1
  O  O21  1  0.49999900  0.24941800  0.25058100  1
  O  O22  1  0.50000200  0.75191100  0.74808900  1
  O  O23  1  0.50000300  0.00059700  0.49940100  1
loop_
_geom_bond_atom_site_label_1
_geom_bond_atom_site_label_2
_geom_bond_distance
_geom_bond_site_symmetry_2
Fe0 O6 1.892577 1_555
Fe0 O2 1.892672 1_555
Fe0 O22 1.961399 1_555
Fe0 O22 1.961438 1_655
Fe0 O16 1.968640 1_555
Fe0 O18 2.021311 1_655
Fe1 O18 1.931145 1_545
Fe1 O19 1.954929 1_555
Fe1 O23 1.961163 1_455
Fe1 O23 1.961187 1_555
Fe1 O3 2.055112 1_545
Fe1 O7 2.055120 1_455
Fe2 O4 1.892930 1_556
Fe2 O0 1.892954 1_455
Fe2 O20 1.961394 1_456
Fe2 O20 1.961409 1_556
Fe2 O16 1.967664 1_455
Fe2 O17 2.019279 1_556
Fe3 O17 1.932452 1_555
Fe3 O19 1.955527 1_555
Fe3 O21 1.961172 1_555
Fe3 O21 1.961180 1_455
Fe3 O1 2.054623 1_555
Fe3 O5 2.054647 1_555
O0 Ti0 2.086148 1_555
O0 Sr1 2.727957 1_556
O0 Sr1 2.727961 1_656
O0 Sr0 2.811801 1_555
O0 Sr0 2.811808 1_655
O1 Ti1 1.873974 1_555
O1 Sr3 2.748056 1_555
O1 Sr3 2.748057 1_455
O1 Sr1 2.833116 1_455
O1 Sr1 2.833118 1_555
O2 Ti2 2.085298 1_655
O2 Sr2 2.728419 1_555
O2 Sr2 2.728443 1_655
O2 Sr0 2.815172 1_555
O2 Sr0 2.815187 1_655
O3 Ti3 1.872291 1_555
O3 Sr3 2.749210 1_565
O3 Sr3 2.749225 1_465
O3 Sr2 2.832745 1_555
O3 Sr2 2.832757 1_455
O4 Ti3 2.086131 1_555
O4 Sr5 2.727994 1_555
O4 Sr5 2.728012 1_455
O4 Sr4 2.811781 1_454
O4 Sr4 2.811783 1_554
O5 Ti2 1.873927 1_555
O5 Sr7 2.748037 1_555
O5 Sr7 2.748044 1_455
O5 Sr5 2.833098 1_555
O5 Sr5 2.833113 1_455
O6 Ti1 2.085258 1_666
O6 Sr6 2.728417 1_555
O6 Sr6 2.728424 1_655
O6 Sr4 2.815169 1_555
O6 Sr4 2.815179 1_655
O7 Ti0 1.872260 1_555
O7 Sr7 2.749210 1_555
O7 Sr7 2.749216 1_655
O7 Sr6 2.832778 1_545
O7 Sr6 2.832782 1_645
O8 Ti2 1.971771 1_655
O8 Ti0 1.972314 1_555
O8 Sr0 2.744972 1_555
O8 Sr0 2.744986 1_655
O8 Sr7 2.893864 1_555
O8 Sr7 2.893871 1_655
O9 Ti0 1.969635 1_555
O9 Ti1 1.970625 1_656
O9 Sr6 2.816301 1_545
O9 Sr6 2.816304 1_645
O9 Sr1 2.817188 1_556
O9 Sr1 2.817196 1_656
O10 Ti3 1.969659 1_655
O10 Ti2 1.970634 1_655
O10 Sr2 2.816284 1_555
O10 Sr2 2.816298 1_655
O10 Sr5 2.817194 1_655
O10 Sr5 2.817202 1_555
O11 Ti1 1.971802 1_565
O11 Ti3 1.972300 1_555
O11 Sr4 2.744944 1_454
O11 Sr4 2.744947 1_554
O11 Sr3 2.893895 1_465
O11 Sr3 2.893898 1_565
O12 Ti0 1.964274 1_555
O12 Ti0 1.964306 1_455
O12 Sr1 2.743546 1_556
O12 Sr0 2.763352 1_555
O12 Sr7 2.885667 1_555
O12 Sr6 2.899475 1_545
O13 Ti1 1.964249 1_566
O13 Ti1 1.964265 1_666
O13 Sr6 2.743735 1_555
O13 Sr4 2.765926 1_555
O13 Sr3 2.884636 1_566
O13 Sr1 2.900807 1_566
O14 Ti2 1.964251 1_555
O14 Ti2 1.964266 1_655
O14 Sr2 2.743746 1_555
O14 Sr0 2.765961 1_555
O14 Sr7 2.884623 1_555
O14 Sr5 2.900764 1_555
O15 Ti3 1.964282 1_655
O15 Ti3 1.964298 1_555
O15 Sr5 2.743556 1_555
O15 Sr4 2.763341 1_554
O15 Sr3 2.885656 1_565
O15 Sr2 2.899476 1_555
O16 Sr0 2.749239 1_555
O16 Sr4 2.749250 1_555
O16 Sr0 2.749264 1_655
O16 Sr4 2.749286 1_655
O17 Sr5 2.752886 1_555
O17 Sr5 2.752895 1_455
O17 Sr1 2.752896 1_555
O17 Sr1 2.752898 1_455
O18 Sr2 2.752994 1_555
O18 Sr2 2.752997 1_455
O18 Sr6 2.753028 1_555
O18 Sr6 2.753031 1_455
O19 Sr3 2.750948 1_555
O19 Sr3 2.750957 1_455
O19 Sr7 2.750962 1_555
O19 Sr7 2.750965 1_455
O20 Sr1 2.718512 1_555
O20 Sr5 2.718546 1_555
O20 Sr0 2.774482 1_554
O20 Sr4 2.774503 1_554
O21 Sr3 2.749181 1_555
O21 Sr7 2.749181 1_555
O21 Sr5 2.781877 1_555
O21 Sr1 2.781879 1_555
O22 Sr6 2.719023 1_555
O22 Sr2 2.719035 1_555
O22 Sr0 2.777939 1_555
O22 Sr4 2.777940 1_555
O23 Sr3 2.750450 1_555
O23 Sr7 2.750482 1_555
O23 Sr2 2.781489 1_545
O23 Sr6 2.781523 1_545
