# generated using pymatgen
data_Fe3SbN
_symmetry_space_group_name_H-M   'P 1'
_cell_length_a   5.45396500
_cell_length_b   5.46063893
_cell_length_c   5.46063893
_cell_angle_alpha   60.91512315
_cell_angle_beta   60.04041537
_cell_angle_gamma   60.04041537
_symmetry_Int_Tables_number   1
_chemical_formula_structural   Fe3SbN
_chemical_formula_sum   'Fe6 Sb2 N2'
_cell_volume   115.84221737
_cell_formula_units_Z   2
loop_
 _symmetry_equiv_pos_site_id
 _symmetry_equiv_pos_as_xyz
  1  'x, y, z'
loop_
 _atom_site_type_symbol
 _atom_site_label
 _atom_site_symmetry_multiplicity
 _atom_site_fract_x
 _atom_site_fract_y
 _atom_site_fract_z
 _atom_site_occupancy
  Fe  Fe0  1  0.27403300  0.22596700  0.72596700  1
  Fe  Fe1  1  0.22596700  0.77403300  0.27403300  1
  Fe  Fe2  1  0.72596700  0.77403300  0.27403300  1
  Fe  Fe3  1  0.77403300  0.22596700  0.72596700  1
  Fe  Fe4  1  0.25000000  0.29627900  0.20372100  1
  Fe  Fe5  1  0.75000000  0.70372100  0.79627900  1
  Sb  Sb0  1  0.75000000  0.25179800  0.24820200  1
  Sb  Sb1  1  0.25000000  0.74820200  0.75179800  1
  N  N0  1  0.50000000  0.00000000  0.00000000  1
  N  N1  1  0.00000000  0.50000000  0.50000000  1
loop_
_geom_bond_atom_site_label_1
_geom_bond_atom_site_label_2
_geom_bond_distance
_geom_bond_site_symmetry_2
Fe0 N1 1.951556 1_555
Fe0 N0 1.951556 1_556
Fe0 Sb0 2.609359 1_555
Fe0 Sb1 2.609359 1_545
Fe0 Sb0 2.858102 1_456
Fe0 Sb1 2.858102 1_555
Fe1 N0 1.951556 1_565
Fe1 N1 1.951556 1_555
Fe1 Sb0 2.609359 1_465
Fe1 Sb1 2.609359 1_555
Fe1 Sb0 2.858102 1_555
Fe1 Sb1 2.858102 1_554
Fe2 N1 1.951556 1_655
Fe2 N0 1.951556 1_565
Fe2 Sb1 2.609359 1_555
Fe2 Sb0 2.609359 1_565
Fe2 Sb1 2.858102 1_654
Fe2 Sb0 2.858102 1_555
Fe3 N0 1.951556 1_556
Fe3 N1 1.951556 1_655
Fe3 Sb1 2.609359 1_645
Fe3 Sb0 2.609359 1_555
Fe3 Sb1 2.858102 1_555
Fe3 Sb0 2.858102 1_556
Fe4 N0 1.935386 1_555
Fe4 N1 1.935386 1_555
Fe4 Sb1 2.501844 1_554
Fe4 Sb0 2.738078 1_455
Fe4 Sb0 2.738078 1_555
Fe4 Sb1 3.034152 1_545
Fe5 N1 1.935386 1_655
Fe5 N0 1.935386 1_566
Fe5 Sb0 2.501844 1_556
Fe5 Sb1 2.738078 1_555
Fe5 Sb1 2.738078 1_655
Fe5 Sb0 3.034152 1_565
