# generated using pymatgen
data_MgBi
_symmetry_space_group_name_H-M   'P 1'
_cell_length_a   5.39590744
_cell_length_b   10.32055417
_cell_length_c   6.06887628
_cell_angle_alpha   90.00000000
_cell_angle_beta   90.00000000
_cell_angle_gamma   90.00000000
_symmetry_Int_Tables_number   1
_chemical_formula_structural   MgBi
_chemical_formula_sum   'Mg6 Bi6'
_cell_volume   337.96816447
_cell_formula_units_Z   6
loop_
 _symmetry_equiv_pos_site_id
 _symmetry_equiv_pos_as_xyz
  1  'x, y, z'
loop_
 _atom_site_type_symbol
 _atom_site_label
 _atom_site_symmetry_multiplicity
 _atom_site_fract_x
 _atom_site_fract_y
 _atom_site_fract_z
 _atom_site_occupancy
  Mg  Mg0  1  0.00000000  0.69164878  0.32377516  1
  Mg  Mg1  1  0.00000000  0.30835122  0.32377516  1
  Mg  Mg2  1  0.50000000  0.00000000  0.01109717  1
  Mg  Mg3  1  -0.00000000  0.19164878  0.82377516  1
  Mg  Mg4  1  0.00000000  0.80835122  0.82377516  1
  Mg  Mg5  1  0.50000000  0.50000000  0.51109717  1
  Bi  Bi0  1  0.00000000  0.00000000  0.21385640  1
  Bi  Bi1  1  0.50000000  0.84272792  0.56374755  1
  Bi  Bi2  1  0.50000000  0.15727208  0.56374755  1
  Bi  Bi3  1  0.00000000  0.50000000  0.71385640  1
  Bi  Bi4  1  0.50000000  0.34272792  0.06374755  1
  Bi  Bi5  1  0.50000000  0.65727208  0.06374755  1
loop_
_geom_bond_atom_site_label_1
_geom_bond_atom_site_label_2
_geom_bond_distance
_geom_bond_site_symmetry_2
Mg0 Mg4 3.264732 1_554
Mg0 Mg4 3.264732 1_555
Mg0 Mg5 3.533203 1_555
Mg0 Mg5 3.533203 1_455
Mg1 Mg3 3.264732 1_554
Mg1 Mg3 3.264732 1_555
Mg1 Mg5 3.533203 1_555
Mg1 Mg5 3.533203 1_455
Mg2 Mg4 3.533203 1_644
Mg2 Mg4 3.533203 1_544
Mg2 Mg3 3.533203 1_554
Mg2 Mg3 3.533203 1_654
Bi0 Mg2 2.965322 1_555
Bi0 Mg2 2.965322 1_455
Bi0 Mg3 3.084889 1_554
Bi0 Mg4 3.084889 1_544
Bi0 Mg1 3.251521 1_555
Bi0 Mg0 3.251521 1_545
Bi1 Mg4 3.145656 1_555
Bi1 Mg4 3.145656 1_655
Bi1 Mg2 3.163116 1_566
Bi1 Bi2 3.246270 1_565
Bi1 Mg0 3.439639 1_555
Bi1 Mg0 3.439639 1_655
Bi1 Mg5 3.551545 1_555
Bi1 Bi5 3.587651 1_555
Bi1 Bi5 3.587651 1_556
Bi2 Mg3 3.145656 1_555
Bi2 Mg3 3.145656 1_655
Bi2 Mg2 3.163116 1_556
Bi2 Mg1 3.439639 1_555
Bi2 Mg1 3.439639 1_655
Bi2 Mg5 3.551545 1_555
Bi2 Bi4 3.587651 1_555
Bi2 Bi4 3.587651 1_556
Bi3 Mg5 2.965322 1_555
Bi3 Mg5 2.965322 1_455
Bi3 Mg0 3.084889 1_555
Bi3 Mg1 3.084889 1_555
Bi3 Mg3 3.251521 1_555
Bi3 Mg4 3.251521 1_555
Bi4 Mg1 3.145656 1_655
Bi4 Mg1 3.145656 1_555
Bi4 Mg5 3.163116 1_555
Bi4 Bi5 3.246270 1_555
Bi4 Mg3 3.439639 1_654
Bi4 Mg3 3.439639 1_554
Bi4 Mg2 3.551545 1_555
Bi5 Mg0 3.145656 1_655
Bi5 Mg0 3.145656 1_555
Bi5 Mg5 3.163116 1_555
Bi5 Mg4 3.439639 1_654
Bi5 Mg4 3.439639 1_554
Bi5 Mg2 3.551545 1_565
