# generated using pymatgen
data_Ca(SbO2)4
_symmetry_space_group_name_H-M   'P 1'
_cell_length_a   8.29778359
_cell_length_b   8.29778359
_cell_length_c   9.60414657
_cell_angle_alpha   54.82699180
_cell_angle_beta   54.82699180
_cell_angle_gamma   22.53564898
_symmetry_Int_Tables_number   1
_chemical_formula_structural   Ca(SbO2)4
_chemical_formula_sum   'Ca1 Sb4 O8'
_cell_volume   205.11350745
_cell_formula_units_Z   1
loop_
 _symmetry_equiv_pos_site_id
 _symmetry_equiv_pos_as_xyz
  1  'x, y, z'
loop_
 _atom_site_type_symbol
 _atom_site_label
 _atom_site_symmetry_multiplicity
 _atom_site_fract_x
 _atom_site_fract_y
 _atom_site_fract_z
 _atom_site_occupancy
  Ca  Ca0  1  0.58468900  0.58468900  0.94109600  1
  Sb  Sb0  1  0.39987700  0.39987700  0.34393000  1
  Sb  Sb1  1  0.87859500  0.87859500  0.74086700  1
  Sb  Sb2  1  0.16046200  0.16046200  0.17354200  1
  Sb  Sb3  1  0.63926300  0.63926300  0.54996000  1
  O  O0  1  0.11797300  0.11797300  0.41499100  1
  O  O1  1  0.55683100  0.55683100  0.24173100  1
  O  O2  1  0.47746200  0.47746200  0.68104600  1
  O  O3  1  0.89057500  0.89057500  0.52208000  1
  O  O4  1  0.95827600  0.95827600  0.16073400  1
  O  O5  1  0.18931800  0.18931800  0.94422700  1
  O  O6  1  0.10013900  0.10013900  0.73427900  1
  O  O7  1  0.74957400  0.74957400  0.12087100  1
loop_
_geom_bond_atom_site_label_1
_geom_bond_atom_site_label_2
_geom_bond_distance
_geom_bond_site_symmetry_2
Ca0 O5 2.364261 1_655
Ca0 O5 2.364261 1_565
Ca0 O6 2.459806 1_655
Ca0 O6 2.459806 1_565
Ca0 O4 2.492623 1_456
Ca0 O4 2.492623 1_546
Ca0 O1 2.646587 1_556
O0 Sb2 1.992925 1_555
O0 Sb3 2.226385 1_455
O0 Sb3 2.226385 1_545
O1 Sb0 2.131562 1_555
O1 Sb2 2.145902 1_565
O1 Sb2 2.145902 1_655
O2 Sb1 2.112371 1_545
O2 Sb1 2.112371 1_455
O2 Sb3 2.150625 1_555
O3 Sb1 1.992993 1_555
O3 Sb0 2.296702 1_565
O3 Sb0 2.296702 1_655
O4 Sb0 2.159464 1_655
O4 Sb0 2.159464 1_565
O5 Sb2 1.963655 1_556
O6 Sb3 2.200853 1_545
O6 Sb3 2.200853 1_455
O7 Sb2 2.031336 1_655
O7 Sb2 2.031336 1_565
