# generated using pymatgen
data_Er4Fe29Si5
_symmetry_space_group_name_H-M   'P 1'
_cell_length_a   6.32583700
_cell_length_b   6.33772116
_cell_length_c   12.64409820
_cell_angle_alpha   82.21674181
_cell_angle_beta   81.57619939
_cell_angle_gamma   82.15863909
_symmetry_Int_Tables_number   1
_chemical_formula_structural   Er4Fe29Si5
_chemical_formula_sum   'Er4 Fe29 Si5'
_cell_volume   493.30305917
_cell_formula_units_Z   1
loop_
 _symmetry_equiv_pos_site_id
 _symmetry_equiv_pos_as_xyz
  1  'x, y, z'
loop_
 _atom_site_type_symbol
 _atom_site_label
 _atom_site_symmetry_multiplicity
 _atom_site_fract_x
 _atom_site_fract_y
 _atom_site_fract_z
 _atom_site_occupancy
  Er  Er0  1  0.34810800  0.34214200  0.67315000  1
  Er  Er1  1  0.34507300  0.34641900  0.17390800  1
  Er  Er2  1  0.65492700  0.65358100  0.82609200  1
  Er  Er3  1  0.65189200  0.65785800  0.32685000  1
  Fe  Fe0  1  0.66311800  0.66177000  0.57512100  1
  Fe  Fe1  1  0.65982900  0.66004000  0.07813800  1
  Fe  Fe2  1  0.15481500  0.65859400  0.82996600  1
  Fe  Fe3  1  0.15092600  0.66258500  0.33153200  1
  Fe  Fe4  1  0.65955700  0.15531400  0.82911300  1
  Fe  Fe5  1  0.65554000  0.16196200  0.32854800  1
  Fe  Fe6  1  0.34017100  0.33996000  0.92186200  1
  Fe  Fe7  1  0.33688200  0.33823000  0.42487900  1
  Fe  Fe8  1  0.84907400  0.33741500  0.66846800  1
  Fe  Fe9  1  0.84518500  0.34140600  0.17003400  1
  Fe  Fe10  1  0.34446000  0.83803800  0.67145200  1
  Fe  Fe11  1  0.34044300  0.84468600  0.17088700  1
  Fe  Fe12  1  0.30625700  0.69135100  0.50043900  1
  Fe  Fe13  1  0.30266800  0.69717700  0.00016500  1
  Fe  Fe14  1  0.99997500  0.30155400  0.84827300  1
  Fe  Fe15  1  0.99833700  0.30891100  0.34771600  1
  Fe  Fe16  1  0.70429600  0.99926000  0.64766400  1
  Fe  Fe17  1  0.70053100  0.00097300  0.14994200  1
  Fe  Fe18  1  0.00166300  0.69108900  0.65228400  1
  Fe  Fe19  1  0.00002500  0.69844600  0.15172700  1
  Fe  Fe20  1  0.29946900  0.99902700  0.85005800  1
  Fe  Fe21  1  0.29570400  0.00074000  0.35233600  1
  Fe  Fe22  1  0.69733200  0.30282300  0.99983500  1
  Fe  Fe23  1  0.69374300  0.30864900  0.49956100  1
  Fe  Fe24  1  0.00082900  0.99837900  0.74994400  1
  Fe  Fe25  1  0.99917100  0.00162100  0.25005600  1
  Fe  Fe26  1  0.50000000  0.00000000  0.50000000  1
  Fe  Fe27  1  0.50000000  0.00000000  0.00000000  1
  Fe  Fe28  1  0.00000000  0.50000000  0.00000000  1
  Si  Si0  1  0.00000000  0.50000000  0.50000000  1
  Si  Si1  1  0.10869600  0.07966300  0.55467300  1
  Si  Si2  1  0.10140100  0.10088500  0.05054500  1
  Si  Si3  1  0.89859900  0.89911500  0.94945500  1
  Si  Si4  1  0.89130400  0.92033700  0.44532700  1
loop_
_geom_bond_atom_site_label_1
_geom_bond_atom_site_label_2
_geom_bond_distance
_geom_bond_site_symmetry_2
Er0 Fe23 2.869937 1_555
Er0 Fe14 2.896652 1_455
Er0 Fe12 2.904758 1_555
Er0 Fe18 2.907280 1_555
Er0 Fe20 2.913816 1_545
Er0 Fe16 2.922999 1_545
Er0 Fe4 3.006955 1_555
Er0 Fe2 3.024328 1_555
Er0 Fe0 3.050971 1_555
Er0 Si1 3.054861 1_555
Er0 Fe6 3.135960 1_555
Er0 Fe10 3.136970 1_555
Er0 Fe7 3.153867 1_555
Er0 Fe8 3.157017 1_555
Er0 Fe8 3.170312 1_455
Er0 Fe10 3.201099 1_545
Er0 Fe26 3.243350 1_555
Er0 Fe24 3.259374 1_545
Er0 Si0 3.295651 1_555
Er1 Fe15 2.878475 1_455
Er1 Fe22 2.906189 1_554
Er1 Fe19 2.915751 1_555
Er1 Fe13 2.920098 1_555
Er1 Fe17 2.928804 1_555
Er1 Fe21 2.937442 1_555
Er1 Fe5 2.987716 1_555
Er1 Fe1 3.017130 1_555
Er1 Fe3 3.031264 1_555
Er1 Si2 3.040876 1_555
Er1 Fe11 3.149115 1_555
Er1 Fe9 3.152703 1_555
Er1 Fe7 3.159616 1_555
Er1 Fe9 3.174303 1_455
Er1 Fe11 3.189414 1_545
Er1 Fe6 3.197431 1_554
Er1 Fe25 3.256948 1_455
Er1 Fe27 3.271854 1_555
Er1 Fe28 3.285488 1_555
Er2 Fe18 2.878475 1_655
Er2 Fe13 2.906189 1_556
Er2 Fe14 2.915751 1_555
Er2 Fe22 2.920098 1_555
Er2 Fe20 2.928804 1_555
Er2 Fe16 2.937442 1_555
Er2 Fe10 2.987716 1_555
Er2 Fe6 3.017130 1_555
Er2 Fe8 3.031264 1_555
Er2 Si3 3.040876 1_555
Er2 Fe4 3.149115 1_555
Er2 Fe2 3.152703 1_555
Er2 Fe0 3.159616 1_555
Er2 Fe2 3.174303 1_655
Er2 Fe4 3.189414 1_565
Er2 Fe1 3.197431 1_556
Er2 Fe24 3.256948 1_655
Er2 Fe27 3.271854 1_566
Er2 Fe28 3.285488 1_656
Er3 Fe12 2.869937 1_555
Er3 Fe19 2.896652 1_655
Er3 Fe23 2.904758 1_555
Er3 Fe15 2.907280 1_555
Er3 Fe17 2.913816 1_565
Er3 Fe21 2.922999 1_565
Er3 Fe11 3.006955 1_555
Er3 Fe9 3.024328 1_555
Er3 Fe7 3.050971 1_555
Er3 Si4 3.054861 1_555
Er3 Fe1 3.135960 1_555
Er3 Fe5 3.136970 1_555
Er3 Fe0 3.153867 1_555
Er3 Fe3 3.157017 1_555
Er3 Fe3 3.170312 1_655
Er3 Fe5 3.201099 1_565
Er3 Fe26 3.243350 1_565
Er3 Fe25 3.259374 1_565
Er3 Si0 3.295651 1_655
Fe0 Si0 2.359935 1_655
Fe0 Fe26 2.386234 1_565
Fe0 Fe10 2.414468 1_555
Fe0 Fe8 2.468282 1_555
Fe0 Fe16 2.497512 1_555
Fe0 Fe18 2.518466 1_655
Fe0 Fe23 2.522985 1_555
Fe0 Fe12 2.546371 1_555
Fe0 Si4 2.585591 1_555
Fe1 Fe28 2.385036 1_655
Fe1 Fe27 2.400465 1_565
Fe1 Fe11 2.420552 1_555
Fe1 Fe9 2.433211 1_555
Fe1 Fe17 2.512168 1_565
Fe1 Fe19 2.519359 1_655
Fe1 Si3 2.541898 1_554
Fe1 Fe22 2.560018 1_554
Fe1 Fe13 2.564507 1_555
Fe2 Fe28 2.378648 1_556
Fe2 Fe24 2.395045 1_555
Fe2 Fe6 2.433211 1_555
Fe2 Fe20 2.512420 1_555
Fe2 Si3 2.542713 1_455
Fe3 Si0 2.364064 1_555
Fe3 Fe7 2.468282 1_555
Fe3 Si4 2.578417 1_455
Fe4 Fe6 2.420552 1_555
Fe4 Fe8 2.433959 1_555
Fe4 Si3 2.563852 1_545
Fe5 Fe9 2.408335 1_555
Fe5 Fe7 2.414468 1_555
Fe5 Si4 2.481766 1_545
Fe6 Si2 2.541898 1_556
Fe7 Si0 2.359935 1_555
Fe7 Si1 2.585591 1_555
Fe8 Si0 2.364064 1_655
Fe8 Si1 2.578417 1_655
Fe9 Si2 2.542713 1_655
Fe10 Fe26 2.401930 1_565
Fe10 Fe24 2.404408 1_555
Fe10 Fe2 2.408335 1_555
Fe10 Si1 2.481766 1_565
Fe10 Fe12 2.521331 1_555
Fe10 Fe18 2.528749 1_555
Fe10 Fe20 2.564865 1_555
Fe10 Fe16 2.581991 1_555
Fe11 Fe25 2.387984 1_465
Fe11 Fe27 2.390063 1_565
Fe11 Fe3 2.433959 1_555
Fe11 Fe19 2.512611 1_555
Fe11 Fe13 2.519807 1_555
Fe11 Si2 2.563852 1_565
Fe11 Fe17 2.570547 1_565
Fe11 Fe21 2.582608 1_565
Fe12 Si0 2.422818 1_555
Fe12 Fe26 2.444948 1_565
Fe12 Fe18 2.512952 1_555
Fe12 Fe3 2.515756 1_555
Fe12 Fe21 2.522377 1_565
Fe12 Fe7 2.522985 1_555
Fe12 Si1 2.730468 1_565
Fe12 Si4 2.950341 1_455
Fe13 Fe28 2.425318 1_555
Fe13 Fe27 2.427642 1_565
Fe13 Fe19 2.502552 1_555
Fe13 Fe20 2.505927 1_554
Fe13 Fe2 2.521979 1_554
Fe13 Fe6 2.560018 1_554
Fe13 Si2 2.808579 1_565
Fe13 Si3 2.819200 1_454
Fe14 Fe24 2.424859 1_645
Fe14 Fe28 2.432265 1_656
Fe14 Fe22 2.502552 1_555
Fe14 Fe20 2.505122 1_645
Fe14 Fe4 2.512611 1_555
Fe14 Fe6 2.519359 1_655
Fe14 Fe2 2.555351 1_655
Fe14 Fe8 2.562857 1_555
Fe14 Si3 2.806315 1_545
Fe14 Si2 2.819091 1_656
Fe15 Si0 2.411501 1_655
Fe15 Fe25 2.442189 1_555
Fe15 Fe23 2.512952 1_555
Fe15 Fe7 2.518466 1_655
Fe15 Fe21 2.520981 1_655
Fe15 Fe5 2.528749 1_555
Fe15 Fe3 2.531030 1_655
Fe15 Fe9 2.546822 1_555
Fe15 Si4 2.726416 1_545
Fe15 Si1 2.945263 1_655
Fe16 Fe26 2.420554 1_565
Fe16 Fe24 2.428402 1_655
Fe16 Fe8 2.501962 1_565
Fe16 Fe18 2.520981 1_655
Fe16 Fe23 2.522377 1_565
Fe16 Fe4 2.582608 1_565
Fe16 Si4 2.737390 1_555
Fe16 Si1 2.738341 1_665
Fe17 Fe25 2.423932 1_555
Fe17 Fe27 2.431768 1_555
Fe17 Fe19 2.505122 1_645
Fe17 Fe22 2.505927 1_554
Fe17 Fe9 2.512420 1_555
Fe17 Fe5 2.564865 1_555
Fe17 Si2 2.774849 1_655
Fe17 Si3 2.775728 1_544
Fe18 Si0 2.411501 1_555
Fe18 Fe24 2.442189 1_555
Fe18 Fe8 2.531030 1_455
Fe18 Fe2 2.546822 1_555
Fe18 Si1 2.726416 1_565
Fe18 Si4 2.945263 1_455
Fe19 Fe25 2.424859 1_465
Fe19 Fe28 2.432265 1_555
Fe19 Fe9 2.555351 1_455
Fe19 Fe3 2.562857 1_555
Fe19 Si2 2.806315 1_565
Fe19 Si3 2.819091 1_454
Fe20 Fe24 2.423932 1_555
Fe20 Fe27 2.431768 1_566
Fe20 Fe6 2.512168 1_565
Fe20 Fe4 2.570547 1_565
Fe20 Si3 2.774849 1_455
Fe20 Si2 2.775728 1_566
Fe21 Fe26 2.420554 1_555
Fe21 Fe25 2.428402 1_455
Fe21 Fe7 2.497512 1_555
Fe21 Fe3 2.501962 1_545
Fe21 Fe5 2.581991 1_555
Fe21 Si1 2.737390 1_555
Fe21 Si4 2.738341 1_445
Fe22 Fe28 2.425318 1_656
Fe22 Fe27 2.427642 1_556
Fe22 Fe4 2.519807 1_555
Fe22 Fe9 2.521979 1_556
Fe22 Fe6 2.564507 1_555
Fe22 Si3 2.808579 1_545
Fe22 Si2 2.819200 1_656
Fe23 Si0 2.422818 1_655
Fe23 Fe26 2.444948 1_555
Fe23 Fe8 2.515756 1_555
Fe23 Fe5 2.521331 1_555
Fe23 Fe7 2.546371 1_555
Fe23 Si4 2.730468 1_545
Fe23 Si1 2.950341 1_655
Fe24 Fe4 2.387984 1_465
Fe24 Fe8 2.393155 1_465
Fe24 Si1 2.466754 1_565
Fe24 Si3 2.526040 1_455
Fe25 Fe3 2.393155 1_645
Fe25 Fe9 2.395045 1_555
Fe25 Fe5 2.404408 1_555
Fe25 Si4 2.466754 1_545
Fe25 Si2 2.526040 1_655
Fe26 Fe7 2.386234 1_555
Fe26 Fe5 2.401930 1_555
Fe26 Si1 2.472286 1_555
Fe26 Si4 2.472286 1_545
Fe27 Fe4 2.390063 1_554
Fe27 Fe6 2.400465 1_554
Fe27 Si2 2.524621 1_555
Fe27 Si3 2.524621 1_544
Fe28 Fe9 2.378648 1_455
Fe28 Fe6 2.385036 1_554
Fe28 Si3 2.541199 1_454
Fe28 Si2 2.541199 1_555
Si0 Si4 2.681065 1_455
Si0 Si1 2.681065 1_555
Si1 Si4 2.477172 1_445
Si2 Si3 2.507109 1_444
