# generated using pymatgen
data_Cs4FeO3
_symmetry_space_group_name_H-M   'P 1'
_cell_length_a   7.53720955
_cell_length_b   12.01049229
_cell_length_c   10.24687852
_cell_angle_alpha   107.89881454
_cell_angle_beta   102.76036698
_cell_angle_gamma   90.52501771
_symmetry_Int_Tables_number   1
_chemical_formula_structural   Cs4FeO3
_chemical_formula_sum   'Cs16 Fe4 O12'
_cell_volume   857.93702063
_cell_formula_units_Z   4
loop_
 _symmetry_equiv_pos_site_id
 _symmetry_equiv_pos_as_xyz
  1  'x, y, z'
loop_
 _atom_site_type_symbol
 _atom_site_label
 _atom_site_symmetry_multiplicity
 _atom_site_fract_x
 _atom_site_fract_y
 _atom_site_fract_z
 _atom_site_occupancy
  Cs  Cs0  1  0.41383823  0.16023799  0.59582677  1
  Cs  Cs1  1  0.91387672  0.66024302  0.59582090  1
  Cs  Cs2  1  0.08616279  0.33976789  0.40417201  1
  Cs  Cs3  1  0.58611196  0.83974542  0.40418083  1
  Cs  Cs4  1  0.49368247  0.29039959  0.98975904  1
  Cs  Cs5  1  0.99366054  0.79037561  0.98973981  1
  Cs  Cs6  1  0.00630759  0.20960907  0.01024392  1
  Cs  Cs7  1  0.50636403  0.70963093  0.01027246  1
  Cs  Cs8  1  0.61581428  0.96701075  0.85256549  1
  Cs  Cs9  1  0.11589329  0.46700244  0.85256800  1
  Cs  Cs10  1  0.88420817  0.53300207  0.14743889  1
  Cs  Cs11  1  0.38408425  0.03299134  0.14741911  1
  Cs  Cs12  1  0.07561440  0.86353238  0.37832024  1
  Cs  Cs13  1  0.57569134  0.36350274  0.37833958  1
  Cs  Cs14  1  0.42437453  0.63647583  0.62168442  1
  Cs  Cs15  1  0.92431509  0.13648768  0.62165808  1
  Fe  Fe0  1  0.64184788  0.43651819  0.76388627  1
  Fe  Fe1  1  0.85812193  0.06348487  0.23612096  1
  Fe  Fe2  1  0.14181431  0.93652809  0.76388847  1
  Fe  Fe3  1  0.35819775  0.56346453  0.23610340  1
  O  O0  1  0.10584737  0.09124731  0.33032638  1
  O  O1  1  0.60595662  0.59120877  0.33029188  1
  O  O2  1  0.39414781  0.40877406  0.66968509  1
  O  O3  1  0.89408514  0.90877259  0.66968152  1
  O  O4  1  0.26100143  0.08260464  0.79612871  1
  O  O5  1  0.76105425  0.58257153  0.79611299  1
  O  O6  1  0.23902789  0.41737992  0.20387342  1
  O  O7  1  0.73891563  0.91743199  0.20392702  1
  O  O8  1  0.26746458  0.82299521  0.82571591  1
  O  O9  1  0.76749081  0.32299400  0.82569384  1
  O  O10  1  0.23255366  0.67700790  0.17428172  1
  O  O11  1  0.73247527  0.17700165  0.17427386  1
loop_
_geom_bond_atom_site_label_1
_geom_bond_atom_site_label_2
_geom_bond_distance
_geom_bond_site_symmetry_2
Cs0 O2 2.859086 1_555
Cs0 O4 2.934306 1_555
Cs0 O0 3.044029 1_555
Cs0 O9 3.282557 1_555
Cs1 O3 2.859101 1_555
Cs1 O5 2.934400 1_555
Cs1 O1 3.043912 1_555
Cs1 O8 3.282326 1_655
Cs2 O0 2.858907 1_555
Cs2 O6 2.934256 1_555
Cs2 O2 3.044086 1_555
Cs2 O11 3.282886 1_455
Cs3 O1 2.859218 1_555
Cs3 O7 2.934073 1_555
Cs3 O3 3.043951 1_555
Cs3 O10 3.282131 1_555
Cs4 O4 2.929150 1_555
Cs4 O11 2.965401 1_556
Cs4 O9 3.026710 1_555
Cs4 O6 3.268146 1_556
Cs5 O5 2.928961 1_555
Cs5 O10 2.965695 1_656
Cs5 O8 3.026457 1_655
Cs5 O7 3.269383 1_556
Cs6 O6 2.929093 1_555
Cs6 O9 2.965615 1_454
Cs6 O11 3.026632 1_455
Cs6 O4 3.268447 1_554
Cs7 O7 2.928837 1_555
Cs7 O8 2.965787 1_554
Cs7 O10 3.026396 1_555
Cs7 O5 3.268901 1_554
Cs8 O8 3.044076 1_555
Cs8 O4 3.048304 1_565
Cs8 O3 3.059015 1_555
Cs8 O11 3.401400 1_566
Cs9 O9 3.044295 1_455
Cs9 O5 3.048340 1_455
Cs9 O2 3.058901 1_555
Cs9 O10 3.401515 1_556
Cs10 O10 3.044006 1_655
Cs10 O6 3.048522 1_655
Cs10 O1 3.058658 1_555
Cs10 O9 3.401764 1_554
Cs11 O11 3.044289 1_555
Cs11 O7 3.048304 1_545
Cs11 O0 3.058980 1_555
Cs11 O8 3.401380 1_544
Cs12 O0 2.939161 1_565
Cs12 O7 2.964884 1_455
Cs12 O10 3.008529 1_555
Cs13 O1 2.939341 1_555
Cs13 O6 2.964940 1_555
Cs13 O11 3.007885 1_555
Cs14 O2 2.939033 1_555
Cs14 O5 2.964977 1_555
Cs14 O8 3.008334 1_555
Cs15 O3 2.939303 1_545
Cs15 O4 2.965116 1_655
Cs15 O9 3.007917 1_555
Fe0 O9 1.856478 1_555
Fe0 O5 1.864787 1_555
Fe0 O2 1.877006 1_555
Fe1 O11 1.856599 1_555
Fe1 O7 1.864855 1_545
Fe1 O0 1.877187 1_655
Fe2 O8 1.856683 1_555
Fe2 O4 1.864939 1_565
Fe2 O3 1.877215 1_455
Fe3 O10 1.856742 1_555
Fe3 O6 1.864991 1_555
Fe3 O1 1.877365 1_555
