# generated using pymatgen
data_IrC4
_symmetry_space_group_name_H-M   'P 1'
_cell_length_a   4.23799360
_cell_length_b   4.23799360
_cell_length_c   13.81934000
_cell_angle_alpha   90.00000000
_cell_angle_beta   90.00000000
_cell_angle_gamma   119.99999371
_symmetry_Int_Tables_number   1
_chemical_formula_structural   IrC4
_chemical_formula_sum   'Ir4 C16'
_cell_volume   214.95054653
_cell_formula_units_Z   4
loop_
 _symmetry_equiv_pos_site_id
 _symmetry_equiv_pos_as_xyz
  1  'x, y, z'
loop_
 _atom_site_type_symbol
 _atom_site_label
 _atom_site_symmetry_multiplicity
 _atom_site_fract_x
 _atom_site_fract_y
 _atom_site_fract_z
 _atom_site_occupancy
  Ir  Ir0  1  0.33333300  0.66666700  0.25000000  1
  Ir  Ir1  1  0.66666700  0.33333300  0.75000000  1
  Ir  Ir2  1  0.00000000  0.00000000  0.25000000  1
  Ir  Ir3  1  0.00000000  0.00000000  0.75000000  1
  C  C0  1  0.33210900  0.33210900  0.50000000  1
  C  C1  1  0.66789100  0.00000000  0.50000000  1
  C  C2  1  0.00000000  0.66789100  0.50000000  1
  C  C3  1  0.66789100  0.66789100  0.50000000  1
  C  C4  1  0.00000000  0.33210900  0.50000000  1
  C  C5  1  0.33210900  0.00000000  0.50000000  1
  C  C6  1  0.66789100  0.66789100  0.00000000  1
  C  C7  1  0.33210900  0.00000000  0.00000000  1
  C  C8  1  0.00000000  0.33210900  0.00000000  1
  C  C9  1  0.33210900  0.33210900  0.00000000  1
  C  C10  1  0.00000000  0.66789100  0.00000000  1
  C  C11  1  0.66789100  0.00000000  0.00000000  1
  C  C12  1  0.33333300  0.66666700  0.79861200  1
  C  C13  1  0.66666700  0.33333300  0.20138800  1
  C  C14  1  0.66666700  0.33333300  0.29861200  1
  C  C15  1  0.33333300  0.66666700  0.70138800  1
loop_
_geom_bond_atom_site_label_1
_geom_bond_atom_site_label_2
_geom_bond_distance
_geom_bond_site_symmetry_2
Ir0 Ir2 2.446804 1_565
Ir0 Ir2 2.446808 1_665
Ir0 Ir2 2.446808 1_555
Ir1 Ir3 2.446804 1_655
Ir1 Ir3 2.446808 1_665
Ir1 Ir3 2.446808 1_555
C0 C4 1.407476 1_555
C0 C5 1.407476 1_555
C0 C3 1.423042 1_555
C1 C3 1.407476 1_545
C1 C4 1.407476 1_655
C1 C5 1.423042 1_555
C2 C3 1.407476 1_455
C2 C5 1.407476 1_565
C2 C4 1.423042 1_555
C6 C9 1.423042 1_555
C7 C9 1.407476 1_555
C8 C9 1.407476 1_555
C10 C6 1.407476 1_455
C10 C7 1.407476 1_565
C10 C8 1.423042 1_555
C11 C6 1.407476 1_545
C11 C8 1.407476 1_655
C11 C7 1.423042 1_555
C12 C15 1.343572 1_555
C12 Ir3 2.537350 1_565
C12 Ir1 2.537351 1_455
C12 Ir1 2.537351 1_565
C12 Ir3 2.537354 1_555
C12 Ir3 2.537354 1_665
C12 Ir1 2.537357 1_555
C13 C14 1.343572 1_555
C13 Ir2 2.537350 1_655
C13 Ir0 2.537351 1_545
C13 Ir0 2.537351 1_655
C13 Ir2 2.537354 1_555
C13 Ir2 2.537354 1_665
C13 Ir0 2.537357 1_555
C14 Ir2 2.537350 1_655
C14 Ir0 2.537351 1_545
C14 Ir0 2.537351 1_655
C14 Ir2 2.537354 1_555
C14 Ir2 2.537354 1_665
C14 Ir0 2.537357 1_555
C15 Ir3 2.537350 1_565
C15 Ir1 2.537351 1_455
C15 Ir1 2.537351 1_565
C15 Ir3 2.537354 1_555
C15 Ir3 2.537354 1_665
C15 Ir1 2.537357 1_555
