# generated using pymatgen
data_Ba4Ge23
_symmetry_space_group_name_H-M   'P 1'
_cell_length_a   11.15001707
_cell_length_b   11.15001707
_cell_length_c   11.15001707
_cell_angle_alpha   90.00000000
_cell_angle_beta   90.00000000
_cell_angle_gamma   90.00000000
_symmetry_Int_Tables_number   1
_chemical_formula_structural   Ba4Ge23
_chemical_formula_sum   'Ba8 Ge46'
_cell_volume   1386.20224156
_cell_formula_units_Z   2
loop_
 _symmetry_equiv_pos_site_id
 _symmetry_equiv_pos_as_xyz
  1  'x, y, z'
loop_
 _atom_site_type_symbol
 _atom_site_label
 _atom_site_symmetry_multiplicity
 _atom_site_fract_x
 _atom_site_fract_y
 _atom_site_fract_z
 _atom_site_occupancy
  Ba  Ba0  1  0.00000000  0.00000000  -0.00000000  1
  Ba  Ba1  1  0.50000000  0.50000000  0.50000000  1
  Ba  Ba2  1  0.25000000  0.00000000  0.50000000  1
  Ba  Ba3  1  0.75000000  0.00000000  0.50000000  1
  Ba  Ba4  1  0.50000000  0.25000000  -0.00000000  1
  Ba  Ba5  1  0.50000000  0.75000000  -0.00000000  1
  Ba  Ba6  1  0.00000000  0.50000000  0.25000000  1
  Ba  Ba7  1  0.00000000  0.50000000  0.75000000  1
  Ge  Ge0  1  0.00000000  0.11869068  0.30699578  1
  Ge  Ge1  1  0.00000000  0.88130932  0.69300422  1
  Ge  Ge2  1  0.00000000  0.88130932  0.30699578  1
  Ge  Ge3  1  0.00000000  0.11869068  0.69300422  1
  Ge  Ge4  1  0.30699578  0.00000000  0.11869068  1
  Ge  Ge5  1  0.61869068  0.50000000  0.19300422  1
  Ge  Ge6  1  0.69300422  0.00000000  0.88130932  1
  Ge  Ge7  1  0.38130932  0.50000000  0.80699578  1
  Ge  Ge8  1  0.30699578  0.00000000  0.88130932  1
  Ge  Ge9  1  0.38130932  0.50000000  0.19300422  1
  Ge  Ge10  1  0.69300422  0.00000000  0.11869068  1
  Ge  Ge11  1  0.61869068  0.50000000  0.80699578  1
  Ge  Ge12  1  0.11869068  0.30699578  -0.00000000  1
  Ge  Ge13  1  0.50000000  0.80699578  0.38130932  1
  Ge  Ge14  1  0.88130932  0.69300422  -0.00000000  1
  Ge  Ge15  1  0.50000000  0.19300422  0.61869068  1
  Ge  Ge16  1  0.11869068  0.69300422  -0.00000000  1
  Ge  Ge17  1  0.50000000  0.19300422  0.38130932  1
  Ge  Ge18  1  0.88130932  0.30699578  -0.00000000  1
  Ge  Ge19  1  0.50000000  0.80699578  0.61869068  1
  Ge  Ge20  1  0.19300422  0.61869068  0.50000000  1
  Ge  Ge21  1  0.80699578  0.38130932  0.50000000  1
  Ge  Ge22  1  0.19300422  0.38130932  0.50000000  1
  Ge  Ge23  1  0.80699578  0.61869068  0.50000000  1
  Ge  Ge24  1  0.18452452  0.18452452  0.18452452  1
  Ge  Ge25  1  0.81547548  0.81547548  0.81547548  1
  Ge  Ge26  1  0.81547548  0.81547548  0.18452452  1
  Ge  Ge27  1  0.81547548  0.18452452  0.81547548  1
  Ge  Ge28  1  0.68452452  0.68452452  0.31547548  1
  Ge  Ge29  1  0.18452452  0.18452452  0.81547548  1
  Ge  Ge30  1  0.18452452  0.81547548  0.18452452  1
  Ge  Ge31  1  0.31547548  0.31547548  0.68452452  1
  Ge  Ge32  1  0.18452452  0.81547548  0.81547548  1
  Ge  Ge33  1  0.31547548  0.31547548  0.31547548  1
  Ge  Ge34  1  0.81547548  0.18452452  0.18452452  1
  Ge  Ge35  1  0.68452452  0.68452452  0.68452452  1
  Ge  Ge36  1  0.68452452  0.31547548  0.68452452  1
  Ge  Ge37  1  0.31547548  0.68452452  0.31547548  1
  Ge  Ge38  1  0.31547548  0.68452452  0.68452452  1
  Ge  Ge39  1  0.68452452  0.31547548  0.31547548  1
  Ge  Ge40  1  0.25000000  0.50000000  -0.00000000  1
  Ge  Ge41  1  0.75000000  0.50000000  -0.00000000  1
  Ge  Ge42  1  0.00000000  0.25000000  0.50000000  1
  Ge  Ge43  1  0.00000000  0.75000000  0.50000000  1
  Ge  Ge44  1  0.50000000  0.00000000  0.25000000  1
  Ge  Ge45  1  0.50000000  0.00000000  0.75000000  1
loop_
_geom_bond_atom_site_label_1
_geom_bond_atom_site_label_2
_geom_bond_distance
_geom_bond_site_symmetry_2
Ba0 Ge25 3.563611 1_444
Ba0 Ge34 3.563611 1_455
Ba0 Ge30 3.563611 1_545
Ba0 Ge26 3.563611 1_445
Ba0 Ge27 3.563611 1_454
Ba0 Ge29 3.563611 1_554
Ba0 Ge32 3.563611 1_544
Ba0 Ge24 3.563611 1_555
Ba0 Ge4 3.669929 1_555
Ba0 Ge2 3.669929 1_545
Ba0 Ge8 3.669929 1_554
Ba0 Ge12 3.669929 1_555
Ba0 Ge18 3.669929 1_455
Ba0 Ge0 3.669929 1_555
Ba0 Ge3 3.669929 1_554
Ba0 Ge6 3.669929 1_454
Ba0 Ge10 3.669929 1_455
Ba0 Ge16 3.669929 1_545
Ba0 Ge14 3.669929 1_445
Ba0 Ge1 3.669929 1_544
Ba1 Ge35 3.563611 1_555
Ba1 Ge28 3.563611 1_555
Ba1 Ge37 3.563611 1_555
Ba1 Ge31 3.563611 1_555
Ba1 Ge38 3.563611 1_555
Ba1 Ge39 3.563611 1_555
Ba1 Ge36 3.563611 1_555
Ba1 Ge33 3.563611 1_555
Ba1 Ge9 3.669929 1_555
Ba1 Ge17 3.669929 1_555
Ba1 Ge5 3.669929 1_555
Ba1 Ge20 3.669929 1_555
Ba1 Ge22 3.669929 1_555
Ba1 Ge15 3.669929 1_555
Ba1 Ge7 3.669929 1_555
Ba1 Ge19 3.669929 1_555
Ba1 Ge13 3.669929 1_555
Ba1 Ge21 3.669929 1_555
Ba1 Ge11 3.669929 1_555
Ba1 Ge23 3.669929 1_555
Ba2 Ge13 3.762005 1_545
Ba2 Ge1 3.762005 1_545
Ba2 Ge3 3.762005 1_555
Ba2 Ge2 3.762005 1_545
Ba2 Ge17 3.762005 1_555
Ba2 Ge19 3.762005 1_545
Ba2 Ge0 3.762005 1_555
Ba2 Ge15 3.762005 1_555
Ba2 Ge42 3.942126 1_555
Ba2 Ge45 3.942126 1_555
Ba2 Ge44 3.942126 1_555
Ba2 Ge43 3.942126 1_545
Ba3 Ge3 3.762005 1_655
Ba3 Ge13 3.762005 1_545
Ba3 Ge1 3.762005 1_645
Ba3 Ge17 3.762005 1_555
Ba3 Ge2 3.762005 1_645
Ba3 Ge0 3.762005 1_655
Ba3 Ge19 3.762005 1_545
Ba3 Ge15 3.762005 1_555
Ba3 Ge45 3.942126 1_555
Ba3 Ge43 3.942126 1_645
Ba3 Ge42 3.942126 1_655
Ba3 Ge44 3.942126 1_555
Ba4 Ge7 3.762005 1_554
Ba4 Ge11 3.762005 1_554
Ba4 Ge10 3.762005 1_555
Ba4 Ge9 3.762005 1_555
Ba4 Ge5 3.762005 1_555
Ba4 Ge4 3.762005 1_555
Ba4 Ge6 3.762005 1_554
Ba4 Ge8 3.762005 1_554
Ba4 Ge41 3.942126 1_555
Ba4 Ge40 3.942126 1_555
Ba4 Ge44 3.942126 1_555
Ba4 Ge45 3.942126 1_554
Ba5 Ge7 3.762005 1_554
Ba5 Ge11 3.762005 1_554
Ba5 Ge10 3.762005 1_565
Ba5 Ge5 3.762005 1_555
Ba5 Ge4 3.762005 1_565
Ba5 Ge6 3.762005 1_564
Ba5 Ge9 3.762005 1_555
Ba5 Ge8 3.762005 1_564
Ba5 Ge41 3.942126 1_555
Ba5 Ge44 3.942126 1_565
Ba5 Ge45 3.942126 1_564
Ba5 Ge40 3.942126 1_555
Ba6 Ge21 3.762005 1_455
Ba6 Ge16 3.762005 1_555
Ba6 Ge23 3.762005 1_455
Ba6 Ge14 3.762005 1_455
Ba6 Ge12 3.762005 1_555
Ba6 Ge22 3.762005 1_555
Ba6 Ge18 3.762005 1_455
Ba6 Ge20 3.762005 1_555
Ba6 Ge42 3.942126 1_555
Ba6 Ge41 3.942126 1_455
Ba6 Ge40 3.942126 1_555
Ba6 Ge43 3.942126 1_555
Ba7 Ge21 3.762005 1_455
Ba7 Ge16 3.762005 1_556
Ba7 Ge23 3.762005 1_455
Ba7 Ge12 3.762005 1_556
Ba7 Ge14 3.762005 1_456
Ba7 Ge22 3.762005 1_555
Ba7 Ge18 3.762005 1_456
Ba7 Ge20 3.762005 1_555
Ba7 Ge42 3.942126 1_555
Ba7 Ge41 3.942126 1_456
Ba7 Ge43 3.942126 1_555
Ba7 Ge40 3.942126 1_556
Ge0 Ge34 2.576175 1_455
Ge0 Ge24 2.576175 1_555
Ge0 Ge42 2.602825 1_555
Ge0 Ge2 2.646806 1_545
Ge1 Ge25 2.576175 1_455
Ge1 Ge32 2.576175 1_555
Ge1 Ge43 2.602825 1_555
Ge1 Ge3 2.646806 1_565
Ge2 Ge26 2.576175 1_455
Ge2 Ge30 2.576175 1_555
Ge2 Ge43 2.602825 1_555
Ge3 Ge42 2.602825 1_555
Ge4 Ge44 2.602825 1_555
Ge4 Ge8 2.646806 1_554
Ge5 Ge9 2.646806 1_555
Ge10 Ge26 2.576175 1_545
Ge10 Ge34 2.576175 1_555
Ge10 Ge44 2.602825 1_555
Ge10 Ge6 2.646806 1_554
Ge11 Ge35 2.576175 1_555
Ge11 Ge36 2.576175 1_555
Ge11 Ge41 2.602825 1_556
Ge11 Ge7 2.646806 1_555
Ge12 Ge29 2.576175 1_554
Ge12 Ge24 2.576175 1_555
Ge12 Ge40 2.602825 1_555
Ge12 Ge18 2.646806 1_455
Ge13 Ge28 2.576175 1_555
Ge13 Ge37 2.576175 1_555
Ge13 Ge44 2.602825 1_565
Ge13 Ge19 2.646806 1_555
Ge14 Ge26 2.576175 1_555
Ge14 Ge25 2.576175 1_554
Ge14 Ge41 2.602825 1_555
Ge14 Ge16 2.646806 1_655
Ge15 Ge36 2.576175 1_555
Ge15 Ge31 2.576175 1_555
Ge15 Ge45 2.602825 1_555
Ge15 Ge17 2.646806 1_555
Ge16 Ge32 2.576175 1_554
Ge16 Ge30 2.576175 1_555
Ge16 Ge40 2.602825 1_555
Ge17 Ge39 2.576175 1_555
Ge17 Ge33 2.576175 1_555
Ge17 Ge44 2.602825 1_555
Ge18 Ge27 2.576175 1_554
Ge18 Ge34 2.576175 1_555
Ge18 Ge41 2.602825 1_555
Ge19 Ge38 2.576175 1_555
Ge19 Ge35 2.576175 1_555
Ge19 Ge45 2.602825 1_565
Ge20 Ge38 2.576175 1_555
Ge20 Ge37 2.576175 1_555
Ge20 Ge43 2.602825 1_555
Ge20 Ge22 2.646806 1_555
Ge21 Ge36 2.576175 1_555
Ge21 Ge39 2.576175 1_555
Ge21 Ge42 2.602825 1_655
Ge21 Ge23 2.646806 1_555
Ge22 Ge31 2.576175 1_555
Ge22 Ge33 2.576175 1_555
Ge22 Ge42 2.602825 1_555
Ge23 Ge28 2.576175 1_555
Ge23 Ge35 2.576175 1_555
Ge23 Ge43 2.602825 1_655
Ge24 Ge33 2.528977 1_555
Ge24 Ge4 2.576175 1_555
Ge25 Ge35 2.528977 1_555
Ge25 Ge6 2.576175 1_565
Ge26 Ge28 2.528977 1_555
Ge27 Ge36 2.528977 1_555
Ge27 Ge6 2.576175 1_555
Ge27 Ge3 2.576175 1_655
Ge28 Ge5 2.576175 1_555
Ge29 Ge31 2.528977 1_555
Ge29 Ge8 2.576175 1_555
Ge29 Ge3 2.576175 1_555
Ge30 Ge37 2.528977 1_555
Ge30 Ge4 2.576175 1_565
Ge31 Ge7 2.576175 1_555
Ge32 Ge38 2.528977 1_555
Ge32 Ge8 2.576175 1_565
Ge33 Ge9 2.576175 1_555
Ge34 Ge39 2.528977 1_555
Ge37 Ge9 2.576175 1_555
Ge38 Ge7 2.576175 1_555
Ge39 Ge5 2.576175 1_555
Ge40 Ge7 2.602825 1_554
Ge40 Ge9 2.602825 1_555
Ge41 Ge5 2.602825 1_555
Ge45 Ge6 2.602825 1_555
Ge45 Ge8 2.602825 1_555
