# generated using pymatgen
data_Mg2CuSbO6
_symmetry_space_group_name_H-M   'P 1'
_cell_length_a   7.37143200
_cell_length_b   5.43560500
_cell_length_c   5.50906285
_cell_angle_alpha   79.06703448
_cell_angle_beta   90.00000000
_cell_angle_gamma   90.00000000
_symmetry_Int_Tables_number   1
_chemical_formula_structural   Mg2CuSbO6
_chemical_formula_sum   'Mg4 Cu2 Sb2 O12'
_cell_volume   216.73173888
_cell_formula_units_Z   2
loop_
 _symmetry_equiv_pos_site_id
 _symmetry_equiv_pos_as_xyz
  1  'x, y, z'
loop_
 _atom_site_type_symbol
 _atom_site_label
 _atom_site_symmetry_multiplicity
 _atom_site_fract_x
 _atom_site_fract_y
 _atom_site_fract_z
 _atom_site_occupancy
  Mg  Mg0  1  0.75000000  0.46443900  0.57905200  1
  Mg  Mg1  1  0.25000000  0.53556100  0.42094800  1
  Mg  Mg2  1  0.75000000  0.93560300  0.02633800  1
  Mg  Mg3  1  0.25000000  0.06439700  0.97366200  1
  Cu  Cu0  1  0.50000000  0.50000000  0.00000000  1
  Cu  Cu1  1  0.00000000  0.50000000  0.00000000  1
  Sb  Sb0  1  0.50000000  0.00000000  0.50000000  1
  Sb  Sb1  1  0.00000000  0.00000000  0.50000000  1
  O  O0  1  0.44537600  0.64622100  0.67452300  1
  O  O1  1  0.07204400  0.86406200  0.20954100  1
  O  O2  1  0.94537600  0.35377900  0.32547700  1
  O  O3  1  0.57204400  0.13593800  0.79045900  1
  O  O4  1  0.42795600  0.86406200  0.20954100  1
  O  O5  1  0.92795600  0.13593800  0.79045900  1
  O  O6  1  0.25000000  0.12573400  0.58919700  1
  O  O7  1  0.05462400  0.64622100  0.67452300  1
  O  O8  1  0.75000000  0.59693400  0.91898800  1
  O  O9  1  0.55462400  0.35377900  0.32547700  1
  O  O10  1  0.75000000  0.87426600  0.41080300  1
  O  O11  1  0.25000000  0.40306600  0.08101200  1
loop_
_geom_bond_atom_site_label_1
_geom_bond_atom_site_label_2
_geom_bond_distance
_geom_bond_site_symmetry_2
Mg0 O8 2.130114 1_555
Mg0 O9 2.169382 1_555
Mg0 O2 2.169382 1_555
Mg0 O10 2.244631 1_555
Mg0 O5 2.340245 1_555
Mg0 O3 2.340245 1_555
Mg0 O7 2.548025 1_655
Mg0 O0 2.548025 1_555
Mg1 O11 2.130114 1_555
Mg1 O7 2.169382 1_555
Mg1 O0 2.169382 1_555
Mg1 O6 2.244631 1_555
Mg1 O4 2.340245 1_555
Mg1 O1 2.340245 1_555
Mg1 O9 2.548025 1_555
Mg1 O2 2.548025 1_455
Mg2 O3 2.014562 1_564
Mg2 O5 2.014562 1_564
Mg2 O8 2.037528 1_554
Mg2 O10 2.080720 1_555
Mg2 O4 2.580021 1_555
Mg2 O1 2.580021 1_655
Mg3 O4 2.014562 1_546
Mg3 O1 2.014562 1_546
Mg3 O11 2.037528 1_556
Mg3 O6 2.080720 1_555
Mg3 O5 2.580021 1_455
Mg3 O3 2.580021 1_555
Cu0 O9 1.862355 1_555
Cu0 O0 1.862355 1_554
Cu0 O8 1.945181 1_554
Cu0 O11 1.945181 1_555
Cu0 O3 2.529261 1_554
Cu0 O4 2.529261 1_555
Cu1 O7 1.862355 1_554
Cu1 O2 1.862355 1_455
Cu1 O11 1.945181 1_555
Cu1 O8 1.945181 1_454
Cu1 O1 2.529261 1_555
Cu1 O5 2.529261 1_454
O0 Sb0 2.020681 1_565
O1 Sb1 1.958829 1_565
O2 Sb1 2.020681 1_655
O3 Sb0 1.958829 1_555
O4 Sb0 1.958829 1_565
O5 Sb1 1.958829 1_655
O6 Sb0 2.057200 1_555
O6 Sb1 2.057200 1_555
O7 Sb1 2.020681 1_565
O9 Sb0 2.020681 1_555
O10 Sb0 2.057200 1_565
O10 Sb1 2.057200 1_665
