# generated using pymatgen
data_K(SeO3)2
_symmetry_space_group_name_H-M   'P 1'
_cell_length_a   6.62929500
_cell_length_b   6.07794900
_cell_length_c   15.59079300
_cell_angle_alpha   90.00000000
_cell_angle_beta   90.00000000
_cell_angle_gamma   90.00000000
_symmetry_Int_Tables_number   1
_chemical_formula_structural   K(SeO3)2
_chemical_formula_sum   'K4 Se8 O24'
_cell_volume   628.19229069
_cell_formula_units_Z   4
loop_
 _symmetry_equiv_pos_site_id
 _symmetry_equiv_pos_as_xyz
  1  'x, y, z'
loop_
 _atom_site_type_symbol
 _atom_site_label
 _atom_site_symmetry_multiplicity
 _atom_site_fract_x
 _atom_site_fract_y
 _atom_site_fract_z
 _atom_site_occupancy
  K  K0  1  0.75588800  0.75000000  0.50000000  1
  K  K1  1  0.74411200  0.25000000  0.00000000  1
  K  K2  1  0.24411200  0.25000000  0.50000000  1
  K  K3  1  0.25588800  0.75000000  0.00000000  1
  Se  Se0  1  0.76898700  0.74049100  0.15911200  1
  Se  Se1  1  0.73101300  0.24049100  0.34088800  1
  Se  Se2  1  0.73101300  0.25950900  0.65911200  1
  Se  Se3  1  0.76898700  0.75950900  0.84088800  1
  Se  Se4  1  0.23101300  0.25950900  0.84088800  1
  Se  Se5  1  0.26898700  0.75950900  0.65911200  1
  Se  Se6  1  0.26898700  0.74049100  0.34088800  1
  Se  Se7  1  0.23101300  0.24049100  0.15911200  1
  O  O0  1  0.60513600  0.60531800  0.09840600  1
  O  O1  1  0.89486400  0.10531800  0.40159400  1
  O  O2  1  0.89486400  0.39468200  0.59840600  1
  O  O3  1  0.60513600  0.89468200  0.90159400  1
  O  O4  1  0.39486400  0.39468200  0.90159400  1
  O  O5  1  0.10513600  0.89468200  0.59840600  1
  O  O6  1  0.10513600  0.60531800  0.40159400  1
  O  O7  1  0.39486400  0.10531800  0.09840600  1
  O  O8  1  0.92267500  0.89443800  0.09928000  1
  O  O9  1  0.57732500  0.39443800  0.40072000  1
  O  O10  1  0.57732500  0.10556200  0.59928000  1
  O  O11  1  0.92267500  0.60556200  0.90072000  1
  O  O12  1  0.07732500  0.10556200  0.90072000  1
  O  O13  1  0.42267500  0.60556200  0.59928000  1
  O  O14  1  0.42267500  0.89443800  0.40072000  1
  O  O15  1  0.07732500  0.39443800  0.09928000  1
  O  O16  1  0.67340000  0.86689200  0.24453800  1
  O  O17  1  0.82660000  0.36689200  0.25546200  1
  O  O18  1  0.82660000  0.13310800  0.74453800  1
  O  O19  1  0.67340000  0.63310800  0.75546200  1
  O  O20  1  0.32660000  0.13310800  0.75546200  1
  O  O21  1  0.17340000  0.63310800  0.74453800  1
  O  O22  1  0.17340000  0.86689200  0.25546200  1
  O  O23  1  0.32660000  0.36689200  0.24453800  1
loop_
_geom_bond_atom_site_label_1
_geom_bond_atom_site_label_2
_geom_bond_distance
_geom_bond_site_symmetry_2
K0 O2 2.804740 1_555
K0 O1 2.804740 1_565
K0 O14 2.836560 1_555
K0 O13 2.836560 1_555
K0 O10 2.909881 1_565
K0 O9 2.909881 1_555
K0 O5 2.913351 1_655
K0 O6 2.913351 1_655
K1 O0 2.804740 1_555
K1 O3 2.804740 1_544
K1 O15 2.836560 1_655
K1 O12 2.836560 1_654
K1 O11 2.909881 1_554
K1 O8 2.909881 1_545
K1 O4 2.913351 1_554
K1 O7 2.913351 1_555
K2 O5 2.804740 1_545
K2 O6 2.804740 1_555
K2 O9 2.836560 1_555
K2 O10 2.836560 1_555
K2 O13 2.909881 1_555
K2 O14 2.909881 1_545
K2 O2 2.913351 1_455
K2 O1 2.913351 1_455
K3 O4 2.804740 1_554
K3 O7 2.804740 1_565
K3 O8 2.836560 1_455
K3 O11 2.836560 1_454
K3 O12 2.909881 1_564
K3 O15 2.909881 1_555
K3 O0 2.913351 1_555
K3 O3 2.913351 1_554
O0 Se0 1.658502 1_555
O1 Se1 1.658502 1_555
O2 Se2 1.658502 1_555
O3 Se3 1.658502 1_555
O4 Se4 1.658502 1_555
O5 Se5 1.658502 1_555
O6 Se6 1.658502 1_555
O7 Se7 1.658502 1_555
O8 Se0 1.668446 1_555
O9 Se1 1.668446 1_555
O10 Se2 1.668446 1_555
O11 Se3 1.668446 1_555
O12 Se4 1.668446 1_555
O13 Se5 1.668446 1_555
O14 Se6 1.668446 1_555
O15 Se7 1.668446 1_555
O16 Se0 1.663013 1_555
O17 Se1 1.663013 1_555
O18 Se2 1.663013 1_555
O19 Se3 1.663013 1_555
O20 Se4 1.663013 1_555
O21 Se5 1.663013 1_555
O22 Se6 1.663013 1_555
O23 Se7 1.663013 1_555
