# generated using pymatgen
data_Ce2(MnCu3)3
_symmetry_space_group_name_H-M   'P 1'
_cell_length_a   5.28259113
_cell_length_b   5.28259113
_cell_length_c   8.88116100
_cell_angle_alpha   90.00000000
_cell_angle_beta   90.00000000
_cell_angle_gamma   124.39992476
_symmetry_Int_Tables_number   1
_chemical_formula_structural   Ce2(MnCu3)3
_chemical_formula_sum   'Ce2 Mn3 Cu9'
_cell_volume   204.49270605
_cell_formula_units_Z   1
loop_
 _symmetry_equiv_pos_site_id
 _symmetry_equiv_pos_as_xyz
  1  'x, y, z'
loop_
 _atom_site_type_symbol
 _atom_site_label
 _atom_site_symmetry_multiplicity
 _atom_site_fract_x
 _atom_site_fract_y
 _atom_site_fract_z
 _atom_site_occupancy
  Ce  Ce0  1  0.00000000  0.00000000  0.00365200  1
  Ce  Ce1  1  0.50000000  0.50000000  0.49770700  1
  Mn  Mn0  1  0.00000000  0.00000000  0.30174800  1
  Mn  Mn1  1  0.50000000  0.50000000  0.80822100  1
  Mn  Mn2  1  0.50000000  0.50000000  0.19187600  1
  Cu  Cu0  1  0.00000000  0.00000000  0.69229800  1
  Cu  Cu1  1  0.19318300  0.80681700  0.50107500  1
  Cu  Cu2  1  0.69622700  0.30377300  0.00026200  1
  Cu  Cu3  1  0.30377300  0.69622700  0.00026200  1
  Cu  Cu4  1  0.80681700  0.19318300  0.50107500  1
  Cu  Cu5  1  0.50000000  0.00000000  0.25142100  1
  Cu  Cu6  1  0.00000000  0.50000000  0.74949100  1
  Cu  Cu7  1  0.00000000  0.50000000  0.25142100  1
  Cu  Cu8  1  0.50000000  0.00000000  0.74949100  1
loop_
_geom_bond_atom_site_label_1
_geom_bond_atom_site_label_2
_geom_bond_distance
_geom_bond_site_symmetry_2
Ce0 Mn0 2.647439 1_555
Ce0 Cu0 2.765185 1_554
Ce0 Cu3 2.839148 1_545
Ce0 Cu2 2.839148 1_455
Ce0 Mn2 2.977312 1_445
Ce0 Mn2 2.977312 1_555
Ce0 Mn1 3.013715 1_444
Ce0 Mn1 3.013715 1_554
Ce0 Cu2 3.071488 1_555
Ce0 Cu3 3.071488 1_555
Ce0 Cu2 3.071488 1_445
Ce0 Cu3 3.071488 1_445
Ce1 Mn2 2.716134 1_555
Ce1 Mn1 2.757725 1_555
Ce1 Cu4 2.867593 1_555
Ce1 Cu1 2.867593 1_555
Ce1 Cu0 3.009424 1_665
Ce1 Cu0 3.009424 1_555
Ce1 Mn0 3.016418 1_665
Ce1 Mn0 3.016418 1_555
Ce1 Cu4 3.054586 1_565
Ce1 Cu1 3.054586 1_655
Ce1 Cu4 3.054586 1_455
Ce1 Cu1 3.054586 1_545
Mn0 Mn2 2.649934 1_445
Mn0 Mn2 2.649934 1_555
Cu0 Cu4 2.478665 1_455
Cu0 Cu1 2.478665 1_545
Cu0 Mn1 2.670190 1_555
Cu0 Mn1 2.670190 1_445
Cu0 Cu8 2.689692 1_455
Cu0 Cu6 2.689692 1_555
Cu0 Cu8 2.689692 1_555
Cu0 Cu6 2.689692 1_545
Cu1 Mn0 2.528522 1_565
Cu1 Cu6 2.582029 1_555
Cu1 Cu8 2.582029 1_565
Cu1 Cu5 2.591429 1_565
Cu1 Cu7 2.591429 1_555
Cu1 Cu4 2.682874 1_455
Cu1 Cu4 2.682874 1_565
Cu2 Mn2 2.501823 1_555
Cu2 Mn1 2.504405 1_554
Cu2 Cu8 2.594262 1_554
Cu2 Cu6 2.594262 1_654
Cu2 Cu5 2.597220 1_555
Cu2 Cu7 2.597220 1_655
Cu2 Cu3 2.660865 1_655
Cu2 Cu3 2.660865 1_545
Cu3 Mn2 2.501823 1_555
Cu3 Mn1 2.504405 1_554
Cu3 Cu6 2.594262 1_554
Cu3 Cu8 2.594262 1_564
Cu3 Cu7 2.597220 1_555
Cu3 Cu5 2.597220 1_565
Cu4 Mn0 2.528522 1_655
Cu4 Cu8 2.582029 1_555
Cu4 Cu6 2.582029 1_655
Cu4 Cu5 2.591429 1_555
Cu4 Cu7 2.591429 1_655
Cu5 Cu7 2.463733 1_655
Cu5 Cu7 2.463733 1_545
Cu5 Mn0 2.678846 1_555
Cu5 Mn0 2.678846 1_655
Cu5 Mn2 2.693715 1_555
Cu5 Mn2 2.693715 1_545
Cu6 Cu8 2.463733 1_565
Cu6 Cu8 2.463733 1_455
Cu6 Mn1 2.692304 1_555
Cu6 Mn1 2.692304 1_455
Cu7 Mn0 2.678846 1_555
Cu7 Mn0 2.678846 1_565
Cu7 Mn2 2.693715 1_455
Cu7 Mn2 2.693715 1_555
Cu8 Mn1 2.692304 1_555
Cu8 Mn1 2.692304 1_545
