# generated using pymatgen
data_Ba6Pr2Mg(Ru2O9)2
_symmetry_space_group_name_H-M   'P 1'
_cell_length_a   6.03009973
_cell_length_b   6.03009921
_cell_length_c   15.52089395
_cell_angle_alpha   90.00000000
_cell_angle_beta   90.00000000
_cell_angle_gamma   119.99999733
_symmetry_Int_Tables_number   1
_chemical_formula_structural   Ba6Pr2Mg(Ru2O9)2
_chemical_formula_sum   'Ba6 Pr2 Mg1 Ru4 O18'
_cell_volume   488.76075484
_cell_formula_units_Z   1
loop_
 _symmetry_equiv_pos_site_id
 _symmetry_equiv_pos_as_xyz
  1  'x, y, z'
loop_
 _atom_site_type_symbol
 _atom_site_label
 _atom_site_symmetry_multiplicity
 _atom_site_fract_x
 _atom_site_fract_y
 _atom_site_fract_z
 _atom_site_occupancy
  Ba  Ba0  1  0.33333300  0.66666700  0.61529230  1
  Ba  Ba1  1  0.00000000  0.00000000  0.25000000  1
  Ba  Ba2  1  0.66666700  0.33333300  0.45229139  1
  Ba  Ba3  1  0.66666700  0.33333300  0.04770861  1
  Ba  Ba4  1  0.33333300  0.66666700  0.88470770  1
  Ba  Ba5  1  0.00000000  0.00000000  0.75000000  1
  Pr  Pr0  1  0.00000000  0.00000000  0.50188066  1
  Pr  Pr1  1  0.00000000  0.00000000  0.99811934  1
  Mg  Mg0  1  0.66666700  0.33333300  0.25000000  1
  Ru  Ru0  1  0.33333300  0.66666700  0.34049980  1
  Ru  Ru1  1  0.66666700  0.33333300  0.83097716  1
  Ru  Ru2  1  0.66666700  0.33333300  0.66902284  1
  Ru  Ru3  1  0.33333300  0.66666700  0.15950020  1
  O  O0  1  0.17785721  0.82214279  0.09060414  1
  O  O1  1  0.17785721  0.35571542  0.09060414  1
  O  O2  1  0.64428458  0.82214279  0.09060414  1
  O  O3  1  0.35737797  0.17868849  0.59209717  1
  O  O4  1  0.82131151  0.64262203  0.90790283  1
  O  O5  1  0.82131151  0.17868849  0.59209717  1
  O  O6  1  0.82131151  0.64262203  0.59209717  1
  O  O7  1  0.17785721  0.82214279  0.40939586  1
  O  O8  1  0.64428458  0.82214279  0.40939586  1
  O  O9  1  0.35737797  0.17868849  0.90790283  1
  O  O10  1  0.82131151  0.17868849  0.90790283  1
  O  O11  1  0.17785721  0.35571542  0.40939586  1
  O  O12  1  0.48717916  0.97435731  0.25000000  1
  O  O13  1  0.51048671  0.48951329  0.75000000  1
  O  O14  1  0.97902558  0.48951329  0.75000000  1
  O  O15  1  0.02564269  0.51282084  0.25000000  1
  O  O16  1  0.48717916  0.51282084  0.25000000  1
  O  O17  1  0.51048671  0.02097442  0.75000000  1
loop_
_geom_bond_atom_site_label_1
_geom_bond_atom_site_label_2
_geom_bond_distance
_geom_bond_site_symmetry_2
Ba0 O17 2.791931 1_565
Ba0 O13 2.791931 1_555
Ba0 O14 2.791931 1_455
Ba0 O3 3.039056 1_565
Ba0 O6 3.039056 1_455
Ba0 O5 3.039062 1_565
Ba0 O5 3.039062 1_455
Ba0 O3 3.039068 1_555
Ba0 O6 3.039068 1_555
Ba1 O15 3.018019 1_555
Ba1 O12 3.018019 1_445
Ba1 O16 3.018022 1_555
Ba1 O16 3.018022 1_445
Ba1 O15 3.018025 1_545
Ba1 O12 3.018025 1_545
Ba1 O0 3.093745 1_545
Ba1 O7 3.093745 1_545
Ba1 O1 3.093748 1_555
Ba1 O11 3.093748 1_555
Ba1 O8 3.093748 1_445
Ba1 O2 3.093748 1_445
Ba2 O5 2.705051 1_555
Ba2 O6 2.705051 1_555
Ba2 O3 2.705051 1_555
Ba2 O8 3.089888 1_545
Ba2 O11 3.089888 1_655
Ba2 O7 3.089894 1_545
Ba2 O7 3.089894 1_655
Ba2 O8 3.089900 1_555
Ba2 O11 3.089900 1_555
Ba2 Mg0 3.139743 1_555
Ba3 O10 2.705051 1_554
Ba3 O4 2.705051 1_554
Ba3 O9 2.705051 1_554
Ba3 O2 3.089888 1_545
Ba3 O1 3.089888 1_655
Ba3 O0 3.089894 1_545
Ba3 O0 3.089894 1_655
Ba3 O2 3.089900 1_555
Ba3 O1 3.089900 1_555
Ba3 Mg0 3.139743 1_555
Ba4 O17 2.791931 1_565
Ba4 O13 2.791931 1_555
Ba4 O14 2.791931 1_455
Ba4 O9 3.039056 1_565
Ba4 O4 3.039056 1_455
Ba4 O10 3.039062 1_565
Ba4 O10 3.039062 1_455
Ba4 O9 3.039068 1_555
Ba4 O4 3.039068 1_555
Ba5 O14 3.017036 1_445
Ba5 O17 3.017036 1_555
Ba5 O13 3.017039 1_445
Ba5 O13 3.017039 1_555
Ba5 O14 3.017042 1_455
Ba5 O17 3.017042 1_455
Ba5 O5 3.080498 1_455
Ba5 O10 3.080498 1_455
Ba5 O6 3.080501 1_445
Ba5 O4 3.080501 1_445
Ba5 O3 3.080501 1_555
Ba5 O9 3.080501 1_555
Mg0 O16 1.874650 1_555
Mg0 O12 1.874650 1_545
Mg0 O15 1.874650 1_655
O0 Ru3 1.944319 1_555
O0 Pr1 2.347606 1_564
O1 Ru3 1.944319 1_555
O1 Pr1 2.347610 1_554
O2 Ru3 1.944319 1_555
O2 Pr1 2.347610 1_664
O3 Ru2 2.008562 1_555
O3 Pr0 2.333190 1_555
O4 Ru1 2.008562 1_555
O4 Pr1 2.333189 1_665
O5 Ru2 2.008562 1_555
O5 Pr0 2.333185 1_655
O6 Ru2 2.008562 1_555
O6 Pr0 2.333189 1_665
O7 Ru0 1.944319 1_555
O7 Pr0 2.347606 1_565
O8 Ru0 1.944319 1_555
O8 Pr0 2.347610 1_665
O9 Ru1 2.008562 1_555
O9 Pr1 2.333190 1_555
O10 Ru1 2.008562 1_555
O10 Pr1 2.333185 1_655
O11 Ru0 1.944319 1_555
O11 Pr0 2.347610 1_555
O12 Ru0 2.134221 1_555
O12 Ru3 2.134221 1_555
O13 Ru2 2.059249 1_555
O13 Ru1 2.059249 1_555
O14 Ru1 2.059241 1_555
O14 Ru2 2.059241 1_555
O15 Ru0 2.134221 1_555
O15 Ru3 2.134221 1_555
O16 Ru0 2.134229 1_555
O16 Ru3 2.134229 1_555
O17 Ru1 2.059240 1_555
O17 Ru2 2.059240 1_555
