# generated using pymatgen
data_Mg2InMo3S8
_symmetry_space_group_name_H-M   'P 1'
_cell_length_a   7.52564628
_cell_length_b   7.52497693
_cell_length_c   7.52508636
_cell_angle_alpha   59.61725458
_cell_angle_beta   59.59892577
_cell_angle_gamma   59.55381781
_symmetry_Int_Tables_number   1
_chemical_formula_structural   Mg2InMo3S8
_chemical_formula_sum   'Mg2 In1 Mo3 S8'
_cell_volume   298.52371340
_cell_formula_units_Z   1
loop_
 _symmetry_equiv_pos_site_id
 _symmetry_equiv_pos_as_xyz
  1  'x, y, z'
loop_
 _atom_site_type_symbol
 _atom_site_label
 _atom_site_symmetry_multiplicity
 _atom_site_fract_x
 _atom_site_fract_y
 _atom_site_fract_z
 _atom_site_occupancy
  Mg  Mg0  1  0.87522100  0.87515500  0.87525600  1
  Mg  Mg1  1  0.12478900  0.12475000  0.12482300  1
  In  In0  1  0.49997700  0.50004100  0.50001800  1
  Mo  Mo0  1  0.50006700  0.49984900  0.00015200  1
  Mo  Mo1  1  0.00009000  0.49991200  0.50000900  1
  Mo  Mo2  1  0.49998200  0.99988600  0.49996100  1
  S  S0  1  0.73883300  0.73870000  0.73892500  1
  S  S1  1  0.25293200  0.25312200  0.72096100  1
  S  S2  1  0.25284100  0.72100900  0.25296100  1
  S  S3  1  0.72093200  0.25291000  0.25305200  1
  S  S4  1  0.74726400  0.27907300  0.74693000  1
  S  S5  1  0.27883600  0.74725400  0.74695800  1
  S  S6  1  0.26115700  0.26122200  0.26120200  1
  S  S7  1  0.74708200  0.74711100  0.27879300  1
loop_
_geom_bond_atom_site_label_1
_geom_bond_atom_site_label_2
_geom_bond_distance
_geom_bond_site_symmetry_2
Mg0 S5 2.468555 1_655
Mg0 S7 2.469368 1_556
Mg0 S4 2.470640 1_565
Mg0 S0 2.521862 1_555
Mg1 S2 2.469550 1_545
Mg1 S3 2.470024 1_455
Mg1 S1 2.471325 1_554
Mg1 S6 2.522139 1_555
In0 S3 2.628978 1_555
In0 S5 2.629174 1_555
In0 S2 2.630330 1_555
In0 S4 2.630363 1_555
In0 S1 2.630730 1_555
In0 S7 2.631737 1_555
Mo0 S3 2.516265 1_555
Mo0 S2 2.516475 1_555
Mo0 S4 2.516765 1_554
Mo0 S5 2.519769 1_554
Mo0 S6 2.538722 1_555
Mo0 S0 2.539205 1_554
Mo1 S1 2.516216 1_555
Mo1 S4 2.517372 1_455
Mo1 S2 2.518289 1_555
Mo1 S7 2.518507 1_455
Mo1 S6 2.535901 1_555
Mo1 S0 2.537034 1_455
Mo2 S7 2.516189 1_555
Mo2 S1 2.517819 1_565
Mo2 S5 2.517912 1_555
Mo2 S3 2.519024 1_565
Mo2 S6 2.537292 1_565
Mo2 S0 2.538400 1_555
