# generated using pymatgen
data_SrAl3(PO7)2
_symmetry_space_group_name_H-M   'P 1'
_cell_length_a   6.99279139
_cell_length_b   6.99279139
_cell_length_c   6.99279119
_cell_angle_alpha   60.10387268
_cell_angle_beta   60.10387268
_cell_angle_gamma   60.10387791
_symmetry_Int_Tables_number   1
_chemical_formula_structural   SrAl3(PO7)2
_chemical_formula_sum   'Sr1 Al3 P2 O14'
_cell_volume   242.35815582
_cell_formula_units_Z   1
loop_
 _symmetry_equiv_pos_site_id
 _symmetry_equiv_pos_as_xyz
  1  'x, y, z'
loop_
 _atom_site_type_symbol
 _atom_site_label
 _atom_site_symmetry_multiplicity
 _atom_site_fract_x
 _atom_site_fract_y
 _atom_site_fract_z
 _atom_site_occupancy
  Sr  Sr0  1  0.00000000  0.00000000  0.00000000  1
  Al  Al0  1  0.00000000  0.50000000  0.00000000  1
  Al  Al1  1  0.00000000  0.00000000  0.50000000  1
  Al  Al2  1  0.50000000  0.00000000  0.00000000  1
  P  P0  1  0.68965000  0.68965000  0.68965000  1
  P  P1  1  0.31035000  0.31035000  0.31035000  1
  O  O0  1  0.59959400  0.59959400  0.59959400  1
  O  O1  1  0.40040600  0.40040600  0.40040600  1
  O  O2  1  0.84170000  0.48201900  0.84170000  1
  O  O3  1  0.84170000  0.84170000  0.48201900  1
  O  O4  1  0.48201900  0.84170000  0.84170000  1
  O  O5  1  0.15830000  0.51798100  0.15830000  1
  O  O6  1  0.15830000  0.15830000  0.51798100  1
  O  O7  1  0.51798100  0.15830000  0.15830000  1
  O  O8  1  0.74823700  0.08902000  0.74823700  1
  O  O9  1  0.74823700  0.74823700  0.08902000  1
  O  O10  1  0.08902000  0.74823700  0.74823700  1
  O  O11  1  0.25176300  0.91098000  0.25176300  1
  O  O12  1  0.25176300  0.25176300  0.91098000  1
  O  O13  1  0.91098000  0.25176300  0.25176300  1
loop_
_geom_bond_atom_site_label_1
_geom_bond_atom_site_label_2
_geom_bond_distance
_geom_bond_site_symmetry_2
Al0 O10 1.854308 1_554
Al0 O13 1.854308 1_455
Al0 O9 1.854308 1_455
Al0 O12 1.854308 1_554
Al0 O5 1.991364 1_555
Al0 O2 1.991364 1_454
Al1 O8 1.854308 1_455
Al1 O10 1.854308 1_545
Al1 O13 1.854308 1_455
Al1 O11 1.854308 1_545
Al1 O3 1.991364 1_445
Al1 O6 1.991364 1_555
Al2 O8 1.854308 1_554
Al2 O11 1.854308 1_545
Al2 O9 1.854308 1_545
Al2 O12 1.854308 1_554
Al2 O7 1.991364 1_555
Al2 O4 1.991364 1_544
O0 P0 1.541337 1_555
O1 P1 1.541337 1_555
O2 P0 1.555065 1_555
O2 Sr0 2.755839 1_656
O3 P0 1.555065 1_555
O3 Sr0 2.755838 1_665
O4 P0 1.555065 1_555
O4 Sr0 2.755839 1_566
O5 P1 1.555065 1_555
O5 Sr0 2.755839 1_565
O6 P1 1.555065 1_555
O6 Sr0 2.755838 1_556
O7 P1 1.555065 1_555
O7 Sr0 2.755839 1_655
O8 Sr0 2.736998 1_656
O9 Sr0 2.736998 1_665
O10 Sr0 2.736998 1_566
O11 Sr0 2.736998 1_565
O12 Sr0 2.736998 1_556
O13 Sr0 2.736998 1_655
