# generated using pymatgen
data_LiAl4Tl4O12
_symmetry_space_group_name_H-M   'P 1'
_cell_length_a   5.40637677
_cell_length_b   5.52240474
_cell_length_c   7.63277700
_cell_angle_alpha   90.00000000
_cell_angle_beta   90.00000000
_cell_angle_gamma   94.36453520
_symmetry_Int_Tables_number   1
_chemical_formula_structural   LiAl4Tl4O12
_chemical_formula_sum   'Li1 Al4 Tl4 O12'
_cell_volume   227.22486433
_cell_formula_units_Z   1
loop_
 _symmetry_equiv_pos_site_id
 _symmetry_equiv_pos_as_xyz
  1  'x, y, z'
loop_
 _atom_site_type_symbol
 _atom_site_label
 _atom_site_symmetry_multiplicity
 _atom_site_fract_x
 _atom_site_fract_y
 _atom_site_fract_z
 _atom_site_occupancy
  Li  Li0  1  0.24035900  0.77106700  0.75000000  1
  Al  Al0  1  0.99469200  0.51396900  0.01086800  1
  Al  Al1  1  0.99469200  0.51396900  0.48913200  1
  Al  Al2  1  0.49294800  0.98337500  0.01411600  1
  Al  Al3  1  0.49294800  0.98337500  0.48588400  1
  Tl  Tl0  1  0.94396800  0.08015200  0.75000000  1
  Tl  Tl1  1  0.50340700  0.43610900  0.75000000  1
  Tl  Tl2  1  0.51028200  0.52191200  0.25000000  1
  Tl  Tl3  1  0.99914500  0.03436700  0.25000000  1
  O  O0  1  0.08840300  0.45248900  0.25000000  1
  O  O1  1  0.20553400  0.17836200  0.54056000  1
  O  O2  1  0.20553400  0.17836200  0.95944000  1
  O  O3  1  0.30011500  0.68767400  0.97762500  1
  O  O4  1  0.30011500  0.68767400  0.52237500  1
  O  O5  1  0.41216100  0.97808200  0.25000000  1
  O  O6  1  0.55896300  0.98796500  0.75000000  1
  O  O7  1  0.71028400  0.27981100  0.03936500  1
  O  O8  1  0.71028400  0.27981100  0.46063500  1
  O  O9  1  0.78981300  0.77906900  0.05671900  1
  O  O10  1  0.78981300  0.77906900  0.44328100  1
  O  O11  1  0.94404100  0.51833900  0.75000000  1
loop_
_geom_bond_atom_site_label_1
_geom_bond_atom_site_label_2
_geom_bond_distance
_geom_bond_site_symmetry_2
Li0 O3 1.832403 1_555
Li0 O4 1.832403 1_555
Li0 O6 2.021801 1_555
Li0 O11 2.043038 1_455
Li0 Tl1 2.417546 1_555
Li0 Tl0 2.428470 1_465
Al0 O3 1.862810 1_654
Al0 O0 1.931227 1_655
Al0 O9 1.933766 1_555
Al0 O7 1.944504 1_555
Al0 O11 2.010284 1_554
Al0 O2 2.282526 1_654
Al1 O4 1.862810 1_655
Al1 O0 1.931227 1_655
Al1 O10 1.933766 1_555
Al1 O8 1.944504 1_555
Al1 O11 2.010284 1_555
Al1 O1 2.282526 1_655
Al2 O5 1.852375 1_555
Al2 O3 1.889961 1_554
Al2 O7 1.950615 1_565
Al2 O2 2.000707 1_564
Al2 O6 2.047108 1_554
Al2 O9 2.056754 1_555
Al3 O5 1.852375 1_555
Al3 O4 1.889961 1_555
Al3 O8 1.950615 1_565
Al3 O1 2.000707 1_565
Al3 O6 2.047108 1_555
Al3 O10 2.056754 1_555
O0 Tl2 2.283880 1_555
O0 Tl3 2.322700 1_455
O1 Tl0 2.175480 1_455
O1 Tl3 2.580869 1_455
O1 Tl1 2.612684 1_555
O2 Tl0 2.175480 1_455
O2 Tl3 2.580869 1_456
O2 Tl1 2.612684 1_555
O3 Tl1 2.527638 1_555
O3 Tl2 2.570889 1_556
O4 Tl1 2.527638 1_555
O4 Tl2 2.570889 1_555
O5 Tl3 2.277759 1_465
O5 Tl2 2.613609 1_555
O6 Tl0 2.104865 1_565
O6 Tl1 2.515581 1_565
O7 Tl2 2.400318 1_555
O7 Tl1 2.649729 1_554
O7 Tl3 2.680127 1_555
O8 Tl2 2.400318 1_555
O8 Tl1 2.649729 1_555
O8 Tl3 2.680127 1_555
O9 Tl3 2.280807 1_565
O9 Tl2 2.480000 1_555
O10 Tl3 2.280807 1_565
O10 Tl2 2.480000 1_555
O11 Tl1 2.390941 1_555
O11 Tl0 2.419816 1_555
