# generated using pymatgen
data_Li4MnCo2O7
_symmetry_space_group_name_H-M   'P 1'
_cell_length_a   2.91451600
_cell_length_b   10.70364251
_cell_length_c   8.36953252
_cell_angle_alpha   78.41276847
_cell_angle_beta   90.00000000
_cell_angle_gamma   82.17510788
_symmetry_Int_Tables_number   1
_chemical_formula_structural   Li4MnCo2O7
_chemical_formula_sum   'Li8 Mn2 Co4 O14'
_cell_volume   253.29211445
_cell_formula_units_Z   2
loop_
 _symmetry_equiv_pos_site_id
 _symmetry_equiv_pos_as_xyz
  1  'x, y, z'
loop_
 _atom_site_type_symbol
 _atom_site_label
 _atom_site_symmetry_multiplicity
 _atom_site_fract_x
 _atom_site_fract_y
 _atom_site_fract_z
 _atom_site_occupancy
  Li  Li0  1  0.42695100  0.14609600  0.21451700  1
  Li  Li1  1  0.28053600  0.43892700  0.65366300  1
  Li  Li2  1  0.14887700  0.70224500  0.05846200  1
  Li  Li3  1  0.00376900  0.99246200  0.50306500  1
  Li  Li4  1  0.85366000  0.29268100  0.92801600  1
  Li  Li5  1  0.71128100  0.57743900  0.35628900  1
  Li  Li6  1  0.57596000  0.84808200  0.78069300  1
  Li  Li7  1  0.71397700  0.57204800  0.85374600  1
  Mn  Mn0  1  0.00059700  0.99880700  0.00175300  1
  Mn  Mn1  1  0.85610300  0.28779500  0.42385500  1
  Co  Co0  1  0.57452800  0.85094600  0.29772000  1
  Co  Co1  1  0.42824400  0.14351100  0.71402300  1
  Co  Co2  1  0.28134600  0.43730800  0.11555600  1
  Co  Co3  1  0.14621900  0.70756200  0.59529100  1
  O  O0  1  0.43752300  0.12495300  0.97497800  1
  O  O1  1  0.29490300  0.41019500  0.39804100  1
  O  O2  1  0.14152000  0.71696000  0.80796000  1
  O  O3  1  0.00479700  0.99040700  0.23611200  1
  O  O4  1  0.86276300  0.27447400  0.66381700  1
  O  O5  1  0.71906400  0.56187200  0.11441400  1
  O  O6  1  0.57231400  0.85537200  0.53011400  1
  O  O7  1  0.42034400  0.15931200  0.45516700  1
  O  O8  1  0.28979500  0.42041100  0.90671900  1
  O  O9  1  0.13627600  0.72745000  0.32409100  1
  O  O10  1  0.99396700  0.01206600  0.76598900  1
  O  O11  1  0.85212200  0.29575500  0.19468100  1
  O  O12  1  0.70967500  0.58065000  0.60012800  1
  O  O13  1  0.56289200  0.87421500  0.03114000  1
loop_
_geom_bond_atom_site_label_1
_geom_bond_atom_site_label_2
_geom_bond_distance
_geom_bond_site_symmetry_2
Li0 O7 2.047146 1_555
Li0 O0 2.062006 1_554
Li0 O11 2.136079 1_455
Li0 O11 2.136081 1_555
Li0 O3 2.181927 1_545
Li0 O3 2.181933 1_645
Li1 O12 2.076007 1_455
Li1 O12 2.076009 1_555
Li1 O8 2.087027 1_555
Li1 O1 2.221335 1_555
Li1 O4 2.260920 1_455
Li1 O4 2.260922 1_555
Li2 O5 2.067827 1_455
Li2 O5 2.067829 1_555
Li2 O2 2.070594 1_554
Li2 O9 2.292369 1_555
Li2 O13 2.309155 1_555
Li2 O13 2.309155 1_455
Li3 O6 2.038295 1_555
Li3 O6 2.038295 1_455
Li3 O3 2.238792 1_555
Li3 O10 2.251918 1_465
Li3 O7 2.264295 1_565
Li3 O7 2.264295 1_465
Li4 O8 1.972815 1_555
Li4 O8 1.972815 1_655
Li4 O11 2.238698 1_556
Li4 O4 2.258293 1_555
Li4 O0 2.271117 1_655
Li4 O0 2.271121 1_555
Li5 O12 2.047993 1_555
Li5 O5 2.064187 1_555
Li5 O9 2.133721 1_555
Li5 O9 2.133723 1_655
Li5 O1 2.267057 1_555
Li5 O1 2.267057 1_655
Li6 O2 1.995059 1_655
Li6 O2 1.995063 1_555
Li6 O6 2.082932 1_555
Li6 O13 2.169347 1_556
Li6 O10 2.252926 1_565
Li6 O10 2.252930 1_465
Li7 O2 2.095934 1_655
Li7 O2 2.095938 1_555
Li7 O12 2.106065 1_555
Li7 O8 2.148629 1_655
Li7 O8 2.148631 1_555
Li7 O5 2.162375 1_556
Mn0 O3 1.945372 1_555
Mn0 O13 1.948798 1_555
Mn0 O13 1.948802 1_455
Mn0 O10 1.949596 1_464
Mn0 O0 1.959991 1_564
Mn0 O0 1.959996 1_464
Mn1 O11 1.902762 1_555
Mn1 O1 1.934214 1_555
Mn1 O1 1.934214 1_655
Mn1 O7 1.975782 1_655
Mn1 O7 1.975784 1_555
Mn1 O4 1.984557 1_555
Co0 O9 1.941657 1_555
Co0 O9 1.941657 1_655
Co0 O6 1.955085 1_555
Co0 O3 2.065730 1_655
Co0 O3 2.065732 1_555
Co0 O13 2.194465 1_555
Co1 O4 1.998026 1_455
Co1 O4 1.998028 1_555
Co1 O10 2.002431 1_455
Co1 O10 2.002433 1_555
Co1 O7 2.138835 1_555
Co1 O0 2.152815 1_555
Co2 O8 1.792802 1_554
Co2 O5 1.965523 1_455
Co2 O5 1.965523 1_555
Co2 O11 2.100513 1_555
Co2 O11 2.100515 1_455
Co2 O1 2.323099 1_555
Co3 O2 1.802788 1_555
Co3 O12 1.978446 1_555
Co3 O12 1.978446 1_455
Co3 O6 2.128646 1_555
Co3 O6 2.128646 1_455
Co3 O9 2.236614 1_555
