# generated using pymatgen
data_Li5Mn4O8
_symmetry_space_group_name_H-M   'P 1'
_cell_length_a   5.78325868
_cell_length_b   5.82931844
_cell_length_c   6.33912604
_cell_angle_alpha   64.17277614
_cell_angle_beta   63.31120794
_cell_angle_gamma   91.45436019
_symmetry_Int_Tables_number   1
_chemical_formula_structural   Li5Mn4O8
_chemical_formula_sum   'Li5 Mn4 O8'
_cell_volume   165.24635462
_cell_formula_units_Z   1
loop_
 _symmetry_equiv_pos_site_id
 _symmetry_equiv_pos_as_xyz
  1  'x, y, z'
loop_
 _atom_site_type_symbol
 _atom_site_label
 _atom_site_symmetry_multiplicity
 _atom_site_fract_x
 _atom_site_fract_y
 _atom_site_fract_z
 _atom_site_occupancy
  Li  Li0  1  0.00027100  0.50017000  0.99963400  1
  Li  Li1  1  0.92228300  0.81578000  0.16839000  1
  Li  Li2  1  0.07756400  0.18370100  0.83182900  1
  Li  Li3  1  0.49985300  0.49996900  0.50012600  1
  Li  Li4  1  0.00019000  0.49996700  0.50004100  1
  Mn  Mn0  1  0.50009900  0.00038800  0.99977500  1
  Mn  Mn1  1  0.99966400  0.99989600  0.50004200  1
  Mn  Mn2  1  0.50027200  0.49986000  0.99977600  1
  Mn  Mn3  1  0.50027000  0.00027600  0.50014500  1
  O  O0  1  0.74506100  0.23768200  0.49827700  1
  O  O1  1  0.25447800  0.76223900  0.50222300  1
  O  O2  1  0.72478400  0.74985300  0.52426500  1
  O  O3  1  0.27493200  0.24999100  0.47581500  1
  O  O4  1  0.25894400  0.75402400  0.00482400  1
  O  O5  1  0.75073100  0.77806600  0.98586100  1
  O  O6  1  0.24923500  0.22203900  0.01397500  1
  O  O7  1  0.74136900  0.24609900  0.99500000  1
loop_
_geom_bond_atom_site_label_1
_geom_bond_atom_site_label_2
_geom_bond_distance
_geom_bond_site_symmetry_2
Li0 O7 2.097893 1_455
Li0 O4 2.098350 1_556
Li0 O6 2.194918 1_556
Li0 O5 2.196169 1_455
Li0 O1 2.441772 1_555
Li0 O0 2.447771 1_456
Li1 O2 1.857207 1_555
Li1 O4 1.882248 1_655
Li1 O5 1.900856 1_554
Li1 O6 2.496426 1_665
Li2 O3 1.857192 1_555
Li2 O7 1.881405 1_455
Li2 O6 1.900572 1_556
Li2 O5 2.494162 1_445
Li3 O2 2.028364 1_555
Li3 O3 2.029466 1_555
Li3 O0 2.111775 1_555
Li3 O1 2.112396 1_555
Li3 O6 2.525371 1_556
Li3 O5 2.527386 1_554
Li4 O1 2.103069 1_555
Li4 O0 2.104763 1_455
Li4 O3 2.182871 1_555
Li4 O2 2.185236 1_455
Li4 O7 2.428606 1_455
Li4 O4 2.429859 1_555
Mn0 O7 1.955057 1_555
Mn0 O4 1.956213 1_546
Mn0 O6 1.965094 1_556
Mn0 O5 1.966833 1_545
Mn0 O0 2.459698 1_555
Mn0 O1 2.464301 1_546
Mn1 O2 2.035525 1_555
Mn1 O3 2.037347 1_665
Mn1 O0 2.048032 1_565
Mn1 O1 2.048504 1_655
Mn1 O5 2.383694 1_555
Mn1 O6 2.384901 1_665
Mn2 O7 2.058896 1_555
Mn2 O4 2.061602 1_556
Mn2 O6 2.091630 1_556
Mn2 O5 2.092191 1_555
Mn2 O2 2.335903 1_555
Mn2 O3 2.338256 1_556
Mn3 O0 1.946985 1_555
Mn3 O1 1.952773 1_545
Mn3 O2 1.979988 1_545
Mn3 O3 1.980475 1_555
Mn3 O4 2.475776 1_546
Mn3 O7 2.478138 1_554
