# generated using pymatgen
data_Al2Ag2Bi2S3Cl8
_symmetry_space_group_name_H-M   'P 1'
_cell_length_a   7.01076064
_cell_length_b   7.01076064
_cell_length_c   22.79432500
_cell_angle_alpha   90.00000000
_cell_angle_beta   90.00000000
_cell_angle_gamma   120.00000605
_symmetry_Int_Tables_number   1
_chemical_formula_structural   Al2Ag2Bi2S3Cl8
_chemical_formula_sum   'Al4 Ag4 Bi4 S6 Cl16'
_cell_volume   970.25886845
_cell_formula_units_Z   2
loop_
 _symmetry_equiv_pos_site_id
 _symmetry_equiv_pos_as_xyz
  1  'x, y, z'
loop_
 _atom_site_type_symbol
 _atom_site_label
 _atom_site_symmetry_multiplicity
 _atom_site_fract_x
 _atom_site_fract_y
 _atom_site_fract_z
 _atom_site_occupancy
  Al  Al0  1  0.66666700  0.33333300  0.91968200  1
  Al  Al1  1  0.66666700  0.33333300  0.58031800  1
  Al  Al2  1  0.33333300  0.66666700  0.41968200  1
  Al  Al3  1  0.33333300  0.66666700  0.08031800  1
  Ag  Ag0  1  0.66666700  0.33333300  0.75000000  1
  Ag  Ag1  1  0.33333300  0.66666700  0.25000000  1
  Ag  Ag2  1  0.00000000  0.00000000  0.75000000  1
  Ag  Ag3  1  0.00000000  0.00000000  0.25000000  1
  Bi  Bi0  1  0.33333300  0.66666700  0.82716300  1
  Bi  Bi1  1  0.33333300  0.66666700  0.67283700  1
  Bi  Bi2  1  0.66666700  0.33333300  0.32716300  1
  Bi  Bi3  1  0.66666700  0.33333300  0.17283700  1
  S  S0  1  0.62016800  0.66801100  0.75000000  1
  S  S1  1  0.33198900  0.95215700  0.75000000  1
  S  S2  1  0.04784300  0.37983200  0.75000000  1
  S  S3  1  0.66801100  0.62016800  0.25000000  1
  S  S4  1  0.95215700  0.33198900  0.25000000  1
  S  S5  1  0.37983200  0.04784300  0.25000000  1
  Cl  Cl0  1  0.66666700  0.33333300  0.01282400  1
  Cl  Cl1  1  0.66666700  0.33333300  0.48717600  1
  Cl  Cl2  1  0.33333300  0.66666700  0.51282400  1
  Cl  Cl3  1  0.33333300  0.66666700  0.98717600  1
  Cl  Cl4  1  0.75144800  0.09672100  0.88389200  1
  Cl  Cl5  1  0.90327900  0.65472700  0.88389200  1
  Cl  Cl6  1  0.34527300  0.24855200  0.88389200  1
  Cl  Cl7  1  0.75144800  0.09672100  0.61610800  1
  Cl  Cl8  1  0.90327900  0.65472700  0.61610800  1
  Cl  Cl9  1  0.34527300  0.24855200  0.61610800  1
  Cl  Cl10  1  0.09672100  0.75144800  0.38389200  1
  Cl  Cl11  1  0.65472700  0.90327900  0.38389200  1
  Cl  Cl12  1  0.24855200  0.34527300  0.38389200  1
  Cl  Cl13  1  0.09672100  0.75144800  0.11610800  1
  Cl  Cl14  1  0.65472700  0.90327900  0.11610800  1
  Cl  Cl15  1  0.24855200  0.34527300  0.11610800  1
loop_
_geom_bond_atom_site_label_1
_geom_bond_atom_site_label_2
_geom_bond_distance
_geom_bond_site_symmetry_2
Al0 Cl0 2.123109 1_556
Al0 Cl4 2.180945 1_555
Al0 Cl5 2.180950 1_555
Al0 Cl6 2.180952 1_555
Al1 Cl1 2.123109 1_555
Al1 Cl7 2.180945 1_555
Al1 Cl8 2.180950 1_555
Al1 Cl9 2.180952 1_555
Al2 Cl2 2.123109 1_555
Al2 Cl10 2.180945 1_555
Al2 Cl11 2.180950 1_555
Al2 Cl12 2.180952 1_555
Al3 Cl3 2.123109 1_554
Al3 Cl13 2.180945 1_555
Al3 Cl14 2.180950 1_555
Al3 Cl15 2.180952 1_555
Ag0 S2 2.525168 1_655
Ag0 S1 2.525171 1_545
Ag0 S0 2.525176 1_555
Ag1 S5 2.525168 1_565
Ag1 S4 2.525171 1_455
Ag1 S3 2.525176 1_555
Ag2 S0 2.512054 1_445
Ag2 S2 2.512054 1_555
Ag2 S1 2.512054 1_545
Ag3 S3 2.512054 1_445
Ag3 S5 2.512054 1_555
Ag3 S4 2.512054 1_455
Bi0 S1 2.668073 1_555
Bi0 S2 2.668075 1_555
Bi0 S0 2.668078 1_555
Bi1 S1 2.668073 1_555
Bi1 S2 2.668075 1_555
Bi1 S0 2.668078 1_555
Bi2 S4 2.668073 1_555
Bi2 S5 2.668075 1_555
Bi2 S3 2.668078 1_555
Bi3 S4 2.668073 1_555
Bi3 S5 2.668075 1_555
Bi3 S3 2.668078 1_555
