# generated using pymatgen
data_Dy2B4O9
_symmetry_space_group_name_H-M   'P 1'
_cell_length_a   6.13589664
_cell_length_b   6.39556674
_cell_length_c   7.46178420
_cell_angle_alpha   102.56896440
_cell_angle_beta   97.27734125
_cell_angle_gamma   102.45207057
_symmetry_Int_Tables_number   1
_chemical_formula_structural   Dy2B4O9
_chemical_formula_sum   'Dy4 B8 O18'
_cell_volume   274.41049923
_cell_formula_units_Z   2
loop_
 _symmetry_equiv_pos_site_id
 _symmetry_equiv_pos_as_xyz
  1  'x, y, z'
loop_
 _atom_site_type_symbol
 _atom_site_label
 _atom_site_symmetry_multiplicity
 _atom_site_fract_x
 _atom_site_fract_y
 _atom_site_fract_z
 _atom_site_occupancy
  Dy  Dy0  1  0.45107845  0.90942757  0.71340168  1
  Dy  Dy1  1  0.54892155  0.09057243  0.28659832  1
  Dy  Dy2  1  0.11271986  0.32357182  0.64136206  1
  Dy  Dy3  1  0.88728014  0.67642818  0.35863794  1
  B  B0  1  0.99575510  0.14518463  0.19007240  1
  B  B1  1  0.00424490  0.85481537  0.80992760  1
  B  B2  1  0.37450828  0.64310215  0.34950771  1
  B  B3  1  0.62549172  0.35689785  0.65049229  1
  B  B4  1  0.26723890  0.66595464  0.01904668  1
  B  B5  1  0.73276110  0.33404536  0.98095332  1
  B  B6  1  0.33881625  0.31737435  0.07289594  1
  B  B7  1  0.66118375  0.68262565  0.92710406  1
  O  O0  1  0.58056647  0.81810424  0.44614278  1
  O  O1  1  0.76392177  0.26318502  0.78840802  1
  O  O2  1  0.78019952  0.40674153  0.52306459  1
  O  O3  1  0.21980048  0.59325847  0.47693541  1
  O  O4  1  0.23607823  0.73681498  0.21159198  1
  O  O5  1  0.86290982  0.28332959  0.14342732  1
  O  O6  1  0.53785669  0.53728585  0.74812936  1
  O  O7  1  0.46214331  0.46271415  0.25187064  1
  O  O8  1  0.77534070  0.57251830  0.04078590  1
  O  O9  1  0.22465930  0.42748170  0.95921410  1
  O  O10  1  0.81121498  0.86979011  0.87904576  1
  O  O11  1  0.18878502  0.13020989  0.12095424  1
  O  O12  1  0.06870413  0.95616782  0.67531518  1
  O  O13  1  0.93129587  0.04383218  0.32468482  1
  O  O14  1  0.49581670  0.20991102  0.97898475  1
  O  O15  1  0.50418330  0.79008898  0.02101525  1
  O  O16  1  0.13709018  0.71667041  0.85657268  1
  O  O17  1  0.41943353  0.18189576  0.55385722  1
loop_
_geom_bond_atom_site_label_1
_geom_bond_atom_site_label_2
_geom_bond_distance
_geom_bond_site_symmetry_2
Dy0 O0 2.245874 1_555
Dy0 O17 2.341329 1_565
Dy0 O14 2.381786 1_565
Dy0 O3 2.406510 1_555
Dy0 O12 2.417712 1_555
Dy0 O10 2.482136 1_555
Dy0 O1 2.533895 1_565
Dy0 O16 2.538353 1_555
Dy0 O15 2.576347 1_556
Dy0 O6 2.606784 1_555
Dy1 O17 2.245874 1_555
Dy1 O0 2.341329 1_545
Dy1 O15 2.381786 1_545
Dy1 O2 2.406510 1_555
Dy1 O13 2.417712 1_555
Dy1 O11 2.482136 1_555
Dy1 O4 2.533895 1_545
Dy1 O5 2.538353 1_555
Dy1 O14 2.576347 1_554
Dy1 O7 2.606784 1_555
Dy2 O9 2.289765 1_555
Dy2 O2 2.332612 1_455
Dy2 O3 2.355524 1_555
Dy2 O17 2.361849 1_555
Dy2 O12 2.379337 1_545
Dy2 O1 2.521185 1_455
Dy2 O13 2.580401 1_455
Dy2 O6 2.601852 1_555
Dy2 O16 2.634707 1_555
Dy3 O8 2.289765 1_555
Dy3 O3 2.332612 1_655
Dy3 O2 2.355524 1_555
Dy3 O0 2.361849 1_555
Dy3 O13 2.379337 1_565
Dy3 O4 2.521185 1_655
Dy3 O12 2.580401 1_655
Dy3 O7 2.601852 1_555
Dy3 O5 2.634707 1_555
B0 O13 1.363445 1_555
B0 O11 1.363881 1_655
B0 O5 1.392374 1_555
B1 O12 1.363445 1_555
B1 O10 1.363881 1_455
B1 O16 1.392374 1_555
B2 O3 1.461821 1_555
B2 O7 1.466925 1_555
B2 O0 1.476055 1_555
B2 O4 1.551211 1_555
B3 O2 1.461821 1_555
B3 O6 1.466925 1_555
B3 O17 1.476055 1_555
B3 O1 1.551211 1_555
B4 O9 1.447749 1_554
B4 O4 1.459354 1_555
B4 O15 1.495322 1_555
B4 O16 1.500097 1_554
B5 O8 1.447749 1_556
B5 O1 1.459354 1_555
B5 O14 1.495322 1_555
B5 O5 1.500097 1_556
B6 O9 1.424171 1_554
B6 O7 1.456193 1_555
B6 O14 1.462315 1_554
B6 O11 1.484643 1_555
B7 O8 1.424171 1_556
B7 O6 1.456193 1_555
B7 O15 1.462315 1_556
B7 O10 1.484643 1_555
