# generated using pymatgen
data_Zr3Ti2(PbO3)5
_symmetry_space_group_name_H-M   'P 1'
_cell_length_a   14.91403700
_cell_length_b   14.91403700
_cell_length_c   4.26645250
_cell_angle_alpha   88.72172605
_cell_angle_beta   88.72172605
_cell_angle_gamma   22.43061625
_symmetry_Int_Tables_number   1
_chemical_formula_structural   Zr3Ti2(PbO3)5
_chemical_formula_sum   'Zr3 Ti2 Pb5 O15'
_cell_volume   362.00352858
_cell_formula_units_Z   1
loop_
 _symmetry_equiv_pos_site_id
 _symmetry_equiv_pos_as_xyz
  1  'x, y, z'
loop_
 _atom_site_type_symbol
 _atom_site_label
 _atom_site_symmetry_multiplicity
 _atom_site_fract_x
 _atom_site_fract_y
 _atom_site_fract_z
 _atom_site_occupancy
  Zr  Zr0  1  0.10924100  0.10924100  0.53725600  1
  Zr  Zr1  1  0.90224700  0.90224700  0.54024500  1
  Zr  Zr2  1  0.50589300  0.50589300  0.53752900  1
  Ti  Ti0  1  0.70649700  0.70649700  0.51806600  1
  Ti  Ti1  1  0.30278800  0.30278800  0.52121200  1
  Pb  Pb0  1  0.99588100  0.99588100  0.98639200  1
  Pb  Pb1  1  0.59994000  0.59994000  0.98455100  1
  Pb  Pb2  1  0.20412300  0.20412300  0.97271800  1
  Pb  Pb3  1  0.79636300  0.79636300  0.97627000  1
  Pb  Pb4  1  0.39298700  0.39298700  0.98610600  1
  O  O0  1  0.11681600  0.11681600  0.05980300  1
  O  O1  1  0.71331300  0.71331300  0.09663600  1
  O  O2  1  0.30828700  0.30828700  0.10153000  1
  O  O3  1  0.91015400  0.91015400  0.06464500  1
  O  O4  1  0.51362700  0.51362700  0.06125000  1
  O  O5  1  0.80363500  0.32060200  0.58885900  1
  O  O6  1  0.42035500  0.90957800  0.58877500  1
  O  O7  1  0.00867400  0.51197400  0.59882800  1
  O  O8  1  0.58779500  0.12354400  0.59929200  1
  O  O9  1  0.19744600  0.72003800  0.59214200  1
  O  O10  1  0.32060200  0.80363500  0.58885900  1
  O  O11  1  0.90957800  0.42035500  0.58877500  1
  O  O12  1  0.51197400  0.00867400  0.59882800  1
  O  O13  1  0.12354400  0.58779500  0.59929200  1
  O  O14  1  0.72003800  0.19744600  0.59214200  1
loop_
_geom_bond_atom_site_label_1
_geom_bond_atom_site_label_2
_geom_bond_distance
_geom_bond_site_symmetry_2
O0 Zr0 2.044035 1_555
O0 Zr0 2.245422 1_554
O0 Pb2 2.572971 1_554
O1 Ti0 1.804523 1_555
O1 Pb3 2.472134 1_554
O1 Ti0 2.481001 1_554
O2 Ti1 1.794119 1_555
O2 Ti1 2.484770 1_554
O2 Pb4 2.515637 1_554
O3 Zr1 2.037036 1_555
O3 Zr1 2.254484 1_554
O3 Pb0 2.522824 1_554
O4 Zr2 2.039461 1_555
O4 Zr2 2.250974 1_554
O4 Pb1 2.539107 1_554
O5 Zr0 2.045558 1_655
O5 Zr2 2.175734 1_555
O5 Pb1 2.474423 1_555
O6 Ti0 1.888041 1_555
O6 Zr0 2.217694 1_565
O6 Pb2 2.505273 1_565
O7 Ti1 1.940616 1_555
O7 Ti0 2.167852 1_455
O7 Pb3 2.420363 1_455
O7 Pb2 2.694553 1_555
O8 Zr1 2.078495 1_545
O8 Ti1 2.083710 1_555
O8 Pb4 2.410638 1_555
O9 Zr2 2.059324 1_555
O9 Zr1 2.171564 1_455
O9 Pb0 2.451723 1_455
O10 Zr0 2.045558 1_565
O10 Zr2 2.175734 1_555
O10 Pb1 2.474423 1_555
O11 Ti0 1.888041 1_555
O11 Zr0 2.217694 1_655
O11 Pb2 2.505273 1_655
O12 Ti1 1.940616 1_555
O12 Ti0 2.167852 1_545
O12 Pb3 2.420363 1_545
O12 Pb2 2.694553 1_555
O13 Zr1 2.078495 1_455
O13 Ti1 2.083710 1_555
O13 Pb4 2.410638 1_555
O14 Zr2 2.059324 1_555
O14 Zr1 2.171564 1_545
O14 Pb0 2.451723 1_545
