# generated using pymatgen
data_Mn3(OF2)2
_symmetry_space_group_name_H-M   'P 1'
_cell_length_a   4.68265727
_cell_length_b   7.82348437
_cell_length_c   5.64715603
_cell_angle_alpha   92.39253494
_cell_angle_beta   89.99705367
_cell_angle_gamma   90.01239199
_symmetry_Int_Tables_number   1
_chemical_formula_structural   Mn3(OF2)2
_chemical_formula_sum   'Mn6 O4 F8'
_cell_volume   206.70149582
_cell_formula_units_Z   2
loop_
 _symmetry_equiv_pos_site_id
 _symmetry_equiv_pos_as_xyz
  1  'x, y, z'
loop_
 _atom_site_type_symbol
 _atom_site_label
 _atom_site_symmetry_multiplicity
 _atom_site_fract_x
 _atom_site_fract_y
 _atom_site_fract_z
 _atom_site_occupancy
  Mn  Mn0  1  0.01049152  0.66707681  0.66227003  1
  Mn  Mn1  1  0.53823668  0.34217963  0.83581894  1
  Mn  Mn2  1  0.95737368  0.34518548  0.33947419  1
  Mn  Mn3  1  0.51049996  0.66632112  0.17115971  1
  Mn  Mn4  1  0.45735950  0.98793787  0.49376578  1
  Mn  Mn5  1  0.03834571  0.99127509  0.99756758  1
  O  O0  1  0.81462337  0.45117634  0.62136063  1
  O  O1  1  0.69848217  0.44928963  0.13372866  1
  O  O2  1  0.31441185  0.88194177  0.21208498  1
  O  O3  1  0.19847559  0.88412743  0.69963789  1
  F  F0  1  0.78818692  0.76646846  0.96460218  1
  F  F1  1  0.73110289  0.76889377  0.46388871  1
  F  F2  1  0.28850829  0.56719855  0.86863128  1
  F  F3  1  0.23105124  0.56437744  0.36951718  1
  F  F4  1  0.77821532  0.09369253  0.29676906  1
  F  F5  1  0.68316422  0.08970497  0.78263168  1
  F  F6  1  0.27802321  0.23934782  0.53638643  1
  F  F7  1  0.18344588  0.24380729  0.05070810  1
loop_
_geom_bond_atom_site_label_1
_geom_bond_atom_site_label_2
_geom_bond_distance
_geom_bond_site_symmetry_2
Mn0 O3 1.916342 1_555
Mn0 O0 1.927280 1_455
Mn1 O0 1.988585 1_555
Mn1 O1 1.994416 1_556
Mn2 O0 1.886361 1_555
Mn2 O1 1.887472 1_555
Mn3 O1 1.916560 1_555
Mn3 O2 1.926207 1_555
Mn4 O2 1.885678 1_555
Mn4 O3 1.886550 1_555
Mn5 O2 1.989337 1_556
Mn5 O3 1.994490 1_555
F0 Mn3 1.934174 1_556
F0 Mn5 2.114692 1_655
F0 Mn0 2.119560 1_655
F1 Mn0 1.917360 1_655
F1 Mn3 2.081545 1_555
F1 Mn4 2.141287 1_555
F2 Mn0 1.933930 1_555
F2 Mn1 2.115317 1_555
F2 Mn3 2.118937 1_556
F3 Mn3 1.917594 1_555
F3 Mn0 2.081987 1_555
F3 Mn2 2.141634 1_455
F4 Mn4 2.062923 1_545
F4 Mn2 2.143111 1_555
F4 Mn5 2.206319 1_644
F5 Mn4 2.074690 1_545
F5 Mn1 2.098414 1_555
F5 Mn5 2.216137 1_645
F6 Mn2 2.062573 1_455
F6 Mn4 2.143132 1_545
F6 Mn1 2.208492 1_555
F7 Mn2 2.073918 1_455
F7 Mn5 2.098802 1_544
F7 Mn1 2.214106 1_554
