# generated using pymatgen
data_CaFeBiO5
_symmetry_space_group_name_H-M   'P 1'
_cell_length_a   5.59388200
_cell_length_b   11.38383300
_cell_length_c   15.39735200
_cell_angle_alpha   90.00000000
_cell_angle_beta   90.00000000
_cell_angle_gamma   90.00000000
_symmetry_Int_Tables_number   1
_chemical_formula_structural   CaFeBiO5
_chemical_formula_sum   'Ca8 Fe8 Bi8 O40'
_cell_volume   980.50058089
_cell_formula_units_Z   8
loop_
 _symmetry_equiv_pos_site_id
 _symmetry_equiv_pos_as_xyz
  1  'x, y, z'
loop_
 _atom_site_type_symbol
 _atom_site_label
 _atom_site_symmetry_multiplicity
 _atom_site_fract_x
 _atom_site_fract_y
 _atom_site_fract_z
 _atom_site_occupancy
  Ca  Ca0  1  0.50620100  0.35946000  0.44938300  1
  Ca  Ca1  1  0.00620100  0.14054000  0.44938300  1
  Ca  Ca2  1  0.00620100  0.64054000  0.05061700  1
  Ca  Ca3  1  0.99379900  0.35946000  0.94938300  1
  Ca  Ca4  1  0.49379900  0.14054000  0.94938300  1
  Ca  Ca5  1  0.99379900  0.85946000  0.55061700  1
  Ca  Ca6  1  0.49379900  0.64054000  0.55061700  1
  Ca  Ca7  1  0.50620100  0.85946000  0.05061700  1
  Fe  Fe0  1  0.97737400  0.40267200  0.59710300  1
  Fe  Fe1  1  0.52262600  0.90267200  0.40289700  1
  Fe  Fe2  1  0.02262600  0.59732800  0.40289700  1
  Fe  Fe3  1  0.47737400  0.09732800  0.59710300  1
  Fe  Fe4  1  0.02262600  0.09732800  0.09710300  1
  Fe  Fe5  1  0.97737400  0.90267200  0.90289700  1
  Fe  Fe6  1  0.52262600  0.40267200  0.09710300  1
  Fe  Fe7  1  0.47737400  0.59732800  0.90289700  1
  Bi  Bi0  1  0.94889500  0.84512000  0.23140200  1
  Bi  Bi1  1  0.05110500  0.15488000  0.76859800  1
  Bi  Bi2  1  0.55110500  0.34512000  0.76859800  1
  Bi  Bi3  1  0.05110500  0.65488000  0.73140200  1
  Bi  Bi4  1  0.44889500  0.15488000  0.26859800  1
  Bi  Bi5  1  0.44889500  0.65488000  0.23140200  1
  Bi  Bi6  1  0.55110500  0.84512000  0.73140200  1
  Bi  Bi7  1  0.94889500  0.34512000  0.26859800  1
  O  O0  1  0.91967000  0.32175400  0.69749100  1
  O  O1  1  0.31027900  0.04545600  0.07392100  1
  O  O2  1  0.18972100  0.54545600  0.92607900  1
  O  O3  1  0.24053200  0.76871000  0.15069000  1
  O  O4  1  0.25946800  0.26871000  0.84931000  1
  O  O5  1  0.91967000  0.82175400  0.80250900  1
  O  O6  1  0.25946800  0.76871000  0.65069000  1
  O  O7  1  0.58033000  0.82175400  0.30250900  1
  O  O8  1  0.31027900  0.54545600  0.42607900  1
  O  O9  1  0.08033000  0.67824600  0.30250900  1
  O  O10  1  0.58033000  0.32175400  0.19749100  1
  O  O11  1  0.64269000  0.18200100  0.52445900  1
  O  O12  1  0.81027900  0.95454400  0.42607900  1
  O  O13  1  0.75946800  0.73129000  0.65069000  1
  O  O14  1  0.17007900  0.02636800  0.87273500  1
  O  O15  1  0.81027900  0.45454400  0.07392100  1
  O  O16  1  0.08033000  0.17824600  0.19749100  1
  O  O17  1  0.74053200  0.23129000  0.34931000  1
  O  O18  1  0.14269000  0.81799900  0.97554100  1
  O  O19  1  0.18972100  0.04545600  0.57392100  1
  O  O20  1  0.35731000  0.81799900  0.47554100  1
  O  O21  1  0.82992100  0.97363200  0.12726500  1
  O  O22  1  0.75946800  0.23129000  0.84931000  1
  O  O23  1  0.67007900  0.97363200  0.62726500  1
  O  O24  1  0.35731000  0.31799900  0.02445900  1
  O  O25  1  0.14269000  0.31799900  0.52445900  1
  O  O26  1  0.68972100  0.45454400  0.57392100  1
  O  O27  1  0.68972100  0.95454400  0.92607900  1
  O  O28  1  0.67007900  0.47363200  0.87273500  1
  O  O29  1  0.85731000  0.68200100  0.47554100  1
  O  O30  1  0.85731000  0.18200100  0.02445900  1
  O  O31  1  0.64269000  0.68200100  0.97554100  1
  O  O32  1  0.82992100  0.47363200  0.37273500  1
  O  O33  1  0.74053200  0.73129000  0.15069000  1
  O  O34  1  0.24053200  0.26871000  0.34931000  1
  O  O35  1  0.17007900  0.52636800  0.62726500  1
  O  O36  1  0.32992100  0.52636800  0.12726500  1
  O  O37  1  0.41967000  0.17824600  0.69749100  1
  O  O38  1  0.32992100  0.02636800  0.37273500  1
  O  O39  1  0.41967000  0.67824600  0.80250900  1
loop_
_geom_bond_atom_site_label_1
_geom_bond_atom_site_label_2
_geom_bond_distance
_geom_bond_site_symmetry_2
Ca0 O34 2.376986 1_555
Ca0 O25 2.386191 1_555
Ca0 O8 2.411027 1_555
Ca0 O26 2.429514 1_555
Ca0 O11 2.449545 1_555
Ca0 O17 2.494267 1_555
Ca0 O32 2.522153 1_555
Ca1 O17 2.376986 1_455
Ca1 O11 2.386191 1_455
Ca1 O12 2.411027 1_445
Ca1 O19 2.429514 1_555
Ca1 O25 2.449545 1_555
Ca1 O34 2.494267 1_555
Ca1 O38 2.522153 1_555
Ca2 O33 2.376986 1_455
Ca2 O31 2.386191 1_454
Ca2 O15 2.411027 1_455
Ca2 O2 2.429514 1_554
Ca2 O18 2.449545 1_554
Ca2 O3 2.494267 1_555
Ca2 O36 2.522153 1_555
Ca3 O4 2.376986 1_655
Ca3 O24 2.386191 1_656
Ca3 O2 2.411027 1_655
Ca3 O15 2.429514 1_556
Ca3 O30 2.449545 1_556
Ca3 O22 2.494267 1_555
Ca3 O28 2.522153 1_555
Ca4 O22 2.376986 1_555
Ca4 O30 2.386191 1_556
Ca4 O27 2.411027 1_545
Ca4 O1 2.429514 1_556
Ca4 O24 2.449545 1_556
Ca4 O4 2.494267 1_555
Ca4 O14 2.522153 1_555
Ca5 O6 2.376986 1_655
Ca5 O20 2.386191 1_655
Ca5 O19 2.411027 1_665
Ca5 O12 2.429514 1_555
Ca5 O29 2.449545 1_555
Ca5 O13 2.494267 1_555
Ca5 O23 2.522153 1_555
Ca6 O13 2.376986 1_555
Ca6 O29 2.386191 1_555
Ca6 O26 2.411027 1_555
Ca6 O8 2.429514 1_555
Ca6 O20 2.449545 1_555
Ca6 O6 2.494267 1_555
Ca6 O35 2.522153 1_555
Ca7 O3 2.376986 1_555
Ca7 O18 2.386191 1_554
Ca7 O1 2.411027 1_565
Ca7 O27 2.429514 1_554
Ca7 O31 2.449545 1_554
Ca7 O33 2.494267 1_555
Ca7 O21 2.522153 1_555
Fe0 O25 1.742236 1_655
Fe0 O26 1.750798 1_555
Fe0 O0 1.828098 1_555
Fe0 O35 1.833178 1_655
Fe1 O20 1.742236 1_555
Fe1 O12 1.750798 1_555
Fe1 O7 1.828098 1_555
Fe1 O38 1.833178 1_565
Fe2 O29 1.742236 1_455
Fe2 O8 1.750798 1_555
Fe2 O9 1.828098 1_555
Fe2 O32 1.833178 1_455
Fe3 O11 1.742236 1_555
Fe3 O19 1.750798 1_555
Fe3 O37 1.828098 1_555
Fe3 O23 1.833178 1_545
Fe4 O30 1.742236 1_455
Fe4 O1 1.750798 1_555
Fe4 O16 1.828098 1_555
Fe4 O21 1.833178 1_445
Fe5 O18 1.742236 1_655
Fe5 O27 1.750798 1_555
Fe5 O5 1.828098 1_555
Fe5 O14 1.833178 1_665
Fe6 O24 1.742236 1_555
Fe6 O15 1.750798 1_555
Fe6 O10 1.828098 1_555
Fe6 O36 1.833178 1_555
Fe7 O31 1.742236 1_555
Fe7 O2 1.750798 1_555
Fe7 O39 1.828098 1_555
Fe7 O28 1.833178 1_555
Bi0 O33 2.140586 1_555
Bi0 O3 2.227658 1_655
Bi0 O21 2.270281 1_555
Bi0 O9 2.312577 1_655
Bi0 O7 2.349492 1_555
Bi1 O4 2.140586 1_555
Bi1 O22 2.227658 1_455
Bi1 O14 2.270281 1_555
Bi1 O0 2.312577 1_455
Bi1 O37 2.349492 1_555
Bi2 O22 2.140586 1_555
Bi2 O4 2.227658 1_555
Bi2 O28 2.270281 1_555
Bi2 O37 2.312577 1_555
Bi2 O0 2.349492 1_555
Bi3 O6 2.140586 1_555
Bi3 O13 2.227658 1_455
Bi3 O35 2.270281 1_555
Bi3 O5 2.312577 1_455
Bi3 O39 2.349492 1_555
Bi4 O34 2.140586 1_555
Bi4 O17 2.227658 1_555
Bi4 O38 2.270281 1_555
Bi4 O10 2.312577 1_555
Bi4 O16 2.349492 1_555
Bi5 O3 2.140586 1_555
Bi5 O33 2.227658 1_555
Bi5 O36 2.270281 1_555
Bi5 O7 2.312577 1_555
Bi5 O9 2.349492 1_555
Bi6 O13 2.140586 1_555
Bi6 O6 2.227658 1_555
Bi6 O23 2.270281 1_555
Bi6 O39 2.312577 1_555
Bi6 O5 2.349492 1_555
Bi7 O17 2.140586 1_555
Bi7 O34 2.227658 1_655
Bi7 O32 2.270281 1_555
Bi7 O16 2.312577 1_655
Bi7 O10 2.349492 1_555
