# generated using pymatgen
data_K3PF6
_symmetry_space_group_name_H-M   'P 1'
_cell_length_a   6.77814946
_cell_length_b   8.23917360
_cell_length_c   6.68939783
_cell_angle_alpha   127.83808345
_cell_angle_beta   78.33719797
_cell_angle_gamma   109.78850772
_symmetry_Int_Tables_number   1
_chemical_formula_structural   K3PF6
_chemical_formula_sum   'K3 P1 F6'
_cell_volume   277.60289422
_cell_formula_units_Z   1
loop_
 _symmetry_equiv_pos_site_id
 _symmetry_equiv_pos_as_xyz
  1  'x, y, z'
loop_
 _atom_site_type_symbol
 _atom_site_label
 _atom_site_symmetry_multiplicity
 _atom_site_fract_x
 _atom_site_fract_y
 _atom_site_fract_z
 _atom_site_occupancy
  K  K0  1  0.50000000  0.00000000  0.00000000  1
  K  K1  1  0.00000000  0.50000000  0.50000000  1
  K  K2  1  0.00000000  0.00000000  0.50000000  1
  P  P0  1  0.00000000  0.00000000  0.00000000  1
  F  F0  1  0.78162900  0.05176600  0.26833000  1
  F  F1  1  0.21837100  0.94823400  0.73167000  1
  F  F2  1  0.79050300  0.78802300  0.71658500  1
  F  F3  1  0.20949700  0.21197700  0.28341500  1
  F  F4  1  0.05998000  0.77705600  0.99672500  1
  F  F5  1  0.94002000  0.22294400  0.00327500  1
loop_
_geom_bond_atom_site_label_1
_geom_bond_atom_site_label_2
_geom_bond_distance
_geom_bond_site_symmetry_2
F0 P0 2.002174 1_655
F0 K2 2.634428 1_655
F0 K0 2.634882 1_555
F0 K1 2.904449 1_655
F1 P0 2.002174 1_566
F1 K2 2.634428 1_565
F1 K0 2.634882 1_566
F1 K1 2.904449 1_555
F2 P0 2.001975 1_666
F2 K1 2.641720 1_655
F2 K0 2.697923 1_566
F2 K2 2.785540 1_665
F3 P0 2.001975 1_555
F3 K1 2.641720 1_555
F3 K0 2.697923 1_555
F3 K2 2.785540 1_555
F4 P0 1.998136 1_566
F4 K1 2.651237 1_555
F4 K2 2.690491 1_566
F4 K0 2.921912 1_566
F5 P0 1.998136 1_655
F5 K1 2.651237 1_655
F5 K2 2.690491 1_654
F5 K0 2.921912 1_555
