# generated using pymatgen
data_Ce2AlNO3
_symmetry_space_group_name_H-M   'P 1'
_cell_length_a   6.75485144
_cell_length_b   6.75485144
_cell_length_c   6.75485144
_cell_angle_alpha   147.80908057
_cell_angle_beta   147.80908057
_cell_angle_gamma   46.16728160
_symmetry_Int_Tables_number   1
_chemical_formula_structural   Ce2AlNO3
_chemical_formula_sum   'Ce2 Al1 N1 O3'
_cell_volume   87.17078536
_cell_formula_units_Z   1
loop_
 _symmetry_equiv_pos_site_id
 _symmetry_equiv_pos_as_xyz
  1  'x, y, z'
loop_
 _atom_site_type_symbol
 _atom_site_label
 _atom_site_symmetry_multiplicity
 _atom_site_fract_x
 _atom_site_fract_y
 _atom_site_fract_z
 _atom_site_occupancy
  Ce  Ce0  1  0.51768700  0.51768700  0.00000000  1
  Ce  Ce1  1  0.81171000  0.81171000  0.00000000  1
  Al  Al0  1  0.15977600  0.15977600  0.00000000  1
  N  N0  1  0.99607600  0.99607600  0.00000000  1
  O  O0  1  0.66905200  0.16905200  0.50000000  1
  O  O1  1  0.16905200  0.66905200  0.50000000  1
  O  O2  1  0.32934700  0.32934700  0.00000000  1
loop_
_geom_bond_atom_site_label_1
_geom_bond_atom_site_label_2
_geom_bond_distance
_geom_bond_site_symmetry_2
Ce0 O2 2.340695 1_555
Ce0 O0 2.654396 1_565
Ce0 O1 2.654396 1_655
Ce0 O0 2.654396 1_554
Ce0 O1 2.654396 1_554
Ce0 N0 2.661989 1_556
Ce0 N0 2.661989 1_444
Ce0 N0 2.661989 1_545
Ce0 N0 2.661989 1_455
Ce1 N0 2.291306 1_555
Ce1 O0 2.578837 1_565
Ce1 O1 2.578837 1_655
Ce1 O1 2.578837 1_554
Ce1 O0 2.578837 1_554
Ce1 O2 2.657460 1_655
Ce1 O2 2.657460 1_666
Ce1 O2 2.657460 1_554
Ce1 O2 2.657460 1_565
Al0 O1 1.876250 1_544
Al0 O0 1.876250 1_454
Al0 O1 1.876250 1_555
Al0 O0 1.876250 1_555
Al0 N0 2.034468 1_445
Al0 O2 2.107433 1_555
