# generated using pymatgen
data_Tc3C4NCl6
_symmetry_space_group_name_H-M   'P 1'
_cell_length_a   11.67755300
_cell_length_b   11.69213272
_cell_length_c   14.15830055
_cell_angle_alpha   68.97918523
_cell_angle_beta   65.81951782
_cell_angle_gamma   60.21907703
_symmetry_Int_Tables_number   1
_chemical_formula_structural   Tc3C4NCl6
_chemical_formula_sum   'Tc12 C16 N4 Cl24'
_cell_volume   1500.88044969
_cell_formula_units_Z   4
loop_
 _symmetry_equiv_pos_site_id
 _symmetry_equiv_pos_as_xyz
  1  'x, y, z'
loop_
 _atom_site_type_symbol
 _atom_site_label
 _atom_site_symmetry_multiplicity
 _atom_site_fract_x
 _atom_site_fract_y
 _atom_site_fract_z
 _atom_site_occupancy
  Tc  Tc0  1  0.69849200  0.73123100  0.83630600  1
  Tc  Tc1  1  0.30150800  0.26876900  0.16369400  1
  Tc  Tc2  1  0.76566600  0.76957100  0.66343700  1
  Tc  Tc3  1  0.23433400  0.23042900  0.33656300  1
  Tc  Tc4  1  0.56065800  0.59792300  0.84720300  1
  Tc  Tc5  1  0.43934200  0.40207700  0.15279700  1
  Tc  Tc6  1  0.62768100  0.63478100  0.67348300  1
  Tc  Tc7  1  0.37231900  0.36521900  0.32651700  1
  Tc  Tc8  1  0.43656600  0.86555800  0.82596600  1
  Tc  Tc9  1  0.56343400  0.13444200  0.17403400  1
  Tc  Tc10  1  0.50620200  0.90237100  0.65223300  1
  Tc  Tc11  1  0.49379800  0.09762900  0.34776700  1
  C  C0  1  0.87577400  0.10717400  0.68913900  1
  C  C1  1  0.12422600  0.89282600  0.31086100  1
  C  C2  1  0.93165300  0.16311200  0.73358700  1
  C  C3  1  0.06834700  0.83688800  0.26641300  1
  C  C4  1  0.89046200  0.11108500  0.84456400  1
  C  C5  1  0.10953800  0.88891500  0.15543600  1
  C  C6  1  0.03490100  0.04144700  0.68607800  1
  C  C7  1  0.96509900  0.95855300  0.31392200  1
  C  C8  1  0.25693900  0.45775800  0.81538500  1
  C  C9  1  0.74306100  0.54224200  0.18461500  1
  C  C10  1  0.16913400  0.39562100  0.80364600  1
  C  C11  1  0.83086600  0.60437900  0.19635400  1
  C  C12  1  0.32574700  0.33206700  0.77111700  1
  C  C13  1  0.67425300  0.66793300  0.22888300  1
  C  C14  1  0.36019800  0.37894300  0.65892900  1
  C  C15  1  0.63980200  0.62105700  0.34107100  1
  N  N0  1  0.92117600  0.01382200  0.78945100  1
  N  N1  1  0.07882400  0.98617800  0.21054900  1
  N  N2  1  0.23502900  0.48178600  0.70565200  1
  N  N3  1  0.76497100  0.51821400  0.29434800  1
  Cl  Cl0  1  0.87019700  0.54980200  0.63042300  1
  Cl  Cl1  1  0.12980300  0.45019800  0.36957700  1
  Cl  Cl2  1  0.77776600  0.49482600  0.88030800  1
  Cl  Cl3  1  0.22223400  0.50517400  0.11969200  1
  Cl  Cl4  1  0.55088100  0.95099100  0.86946100  1
  Cl  Cl5  1  0.44911900  0.04900900  0.13053900  1
  Cl  Cl6  1  0.65336700  0.00592300  0.61939000  1
  Cl  Cl7  1  0.34663300  0.99407700  0.38061000  1
  Cl  Cl8  1  0.32090500  0.72681600  0.87298300  1
  Cl  Cl9  1  0.67909500  0.27318400  0.12701700  1
  Cl  Cl10  1  0.34349500  0.10862000  0.58268100  1
  Cl  Cl11  1  0.65650500  0.89138000  0.41731900  1
  Cl  Cl12  1  0.53422500  0.39157400  0.91681700  1
  Cl  Cl13  1  0.46577500  0.60842600  0.08318300  1
  Cl  Cl14  1  0.22970900  0.03770400  0.88604100  1
  Cl  Cl15  1  0.77029100  0.96229600  0.11395900  1
  Cl  Cl16  1  0.42051300  0.77289800  0.62679300  1
  Cl  Cl17  1  0.57948700  0.22710200  0.37320700  1
  Cl  Cl18  1  0.65254600  0.46254100  0.61304900  1
  Cl  Cl19  1  0.34745400  0.53745900  0.38695100  1
  Cl  Cl20  1  0.85569600  0.72101800  0.90073700  1
  Cl  Cl21  1  0.14430400  0.27898200  0.09926300  1
  Cl  Cl22  1  0.97654000  0.78003000  0.59892800  1
  Cl  Cl23  1  0.02346000  0.21997000  0.40107200  1
loop_
_geom_bond_atom_site_label_1
_geom_bond_atom_site_label_2
_geom_bond_distance
_geom_bond_site_symmetry_2
C0 C2 1.518295 1_555
C0 N0 1.555453 1_555
C0 C6 1.607726 1_655
C1 C3 1.518295 1_555
C1 N1 1.555453 1_555
C1 C7 1.607726 1_455
C2 C4 1.433883 1_555
C2 C6 1.499343 1_655
C2 N0 1.682199 1_555
C3 C5 1.433883 1_555
C3 C7 1.499343 1_455
C3 N1 1.682199 1_555
C4 N0 1.425811 1_555
C5 N1 1.425811 1_555
C6 N0 1.582630 1_455
C7 N1 1.582630 1_655
C8 N2 1.580909 1_555
C9 N3 1.580909 1_555
C10 C12 1.521353 1_555
C10 N2 1.557154 1_555
C10 C8 1.604061 1_555
C11 C13 1.521353 1_555
C11 N3 1.557154 1_555
C11 C9 1.604061 1_555
C12 C14 1.433948 1_555
C12 C8 1.507777 1_555
C12 N2 1.686396 1_555
C13 C15 1.433948 1_555
C13 C9 1.507777 1_555
C13 N3 1.686396 1_555
C14 N2 1.432682 1_555
C15 N3 1.432682 1_555
Cl0 Tc2 2.364243 1_555
Cl0 Tc6 2.367288 1_555
Cl1 Tc3 2.364243 1_555
Cl1 Tc7 2.367288 1_555
Cl2 Tc0 2.362304 1_555
Cl2 Tc4 2.373343 1_555
Cl3 Tc1 2.362304 1_555
Cl3 Tc5 2.373343 1_555
Cl4 Tc0 2.365688 1_555
Cl4 Tc8 2.366092 1_555
Cl5 Tc1 2.365688 1_555
Cl5 Tc9 2.366092 1_555
Cl6 Tc2 2.361995 1_545
Cl6 Tc10 2.375669 1_545
Cl7 Tc3 2.361995 1_565
Cl7 Tc11 2.375669 1_565
Cl8 Tc8 2.358824 1_555
Cl8 Tc4 2.368333 1_555
Cl9 Tc9 2.358824 1_555
Cl9 Tc5 2.368333 1_555
Cl10 Tc10 2.381748 1_545
Cl10 Tc11 3.075633 1_555
Cl11 Tc11 2.381748 1_565
Cl11 Tc10 3.075633 1_555
Cl12 Tc4 2.381641 1_555
Cl12 Tc5 3.087397 1_556
Cl13 Tc5 2.381641 1_555
Cl13 Tc4 3.087397 1_554
Cl14 Tc8 2.307585 1_545
Cl15 Tc9 2.307585 1_565
Cl16 Tc6 2.358148 1_555
Cl16 Tc10 2.369351 1_555
Cl17 Tc7 2.358148 1_555
Cl17 Tc11 2.369351 1_555
Cl18 Tc6 2.307345 1_555
Cl19 Tc7 2.307345 1_555
Cl20 Tc0 2.300530 1_555
Cl21 Tc1 2.300530 1_555
Cl22 Tc2 2.299893 1_555
Cl23 Tc3 2.299893 1_555
