# generated using pymatgen
data_H27C9S2N3O5
_symmetry_space_group_name_H-M   'P 1'
_cell_length_a   10.37882400
_cell_length_b   9.89552900
_cell_length_c   19.58074251
_cell_angle_alpha   68.40563665
_cell_angle_beta   90.00000000
_cell_angle_gamma   90.00000000
_symmetry_Int_Tables_number   1
_chemical_formula_structural   H27C9S2N3O5
_chemical_formula_sum   'H108 C36 S8 N12 O20'
_cell_volume   1869.87162807
_cell_formula_units_Z   4
loop_
 _symmetry_equiv_pos_site_id
 _symmetry_equiv_pos_as_xyz
  1  'x, y, z'
loop_
 _atom_site_type_symbol
 _atom_site_label
 _atom_site_symmetry_multiplicity
 _atom_site_fract_x
 _atom_site_fract_y
 _atom_site_fract_z
 _atom_site_occupancy
  H  H0  1  0.17222400  0.24382600  0.52021700  1
  H  H1  1  0.32777600  0.24382600  0.02021700  1
  H  H2  1  0.82777600  0.75617400  0.47978300  1
  H  H3  1  0.67222400  0.75617400  0.97978300  1
  H  H4  1  0.34129600  0.26066700  0.52327200  1
  H  H5  1  0.15870400  0.26066700  0.02327200  1
  H  H6  1  0.65870400  0.73933300  0.47672800  1
  H  H7  1  0.84129600  0.73933300  0.97672800  1
  H  H8  1  0.24294100  0.48917200  0.44182300  1
  H  H9  1  0.25705900  0.48917200  0.94182300  1
  H  H10  1  0.75705900  0.51082800  0.55817700  1
  H  H11  1  0.74294100  0.51082800  0.05817700  1
  H  H12  1  0.14728600  0.50394700  0.51378600  1
  H  H13  1  0.35271400  0.50394700  0.01378600  1
  H  H14  1  0.85271400  0.49605300  0.48621400  1
  H  H15  1  0.64728600  0.49605300  0.98621400  1
  H  H16  1  0.31770000  0.52012100  0.51607100  1
  H  H17  1  0.18230000  0.52012100  0.01607100  1
  H  H18  1  0.68230000  0.47987900  0.48392900  1
  H  H19  1  0.81770000  0.47987900  0.98392900  1
  H  H20  1  0.33411600  0.42525700  0.63171000  1
  H  H21  1  0.16588400  0.42525700  0.13171000  1
  H  H22  1  0.66588400  0.57474300  0.36829000  1
  H  H23  1  0.83411600  0.57474300  0.86829000  1
  H  H24  1  0.34072300  0.26599300  0.71117300  1
  H  H25  1  0.15927700  0.26599300  0.21117300  1
  H  H26  1  0.65927700  0.73400700  0.28882700  1
  H  H27  1  0.84072300  0.73400700  0.78882700  1
  H  H28  1  0.55615400  0.33187600  0.65457900  1
  H  H29  1  0.94384600  0.33187600  0.15457900  1
  H  H30  1  0.44384600  0.66812400  0.34542100  1
  H  H31  1  0.05615400  0.66812400  0.84542100  1
  H  H32  1  0.51089000  0.16198200  0.65051000  1
  H  H33  1  0.98911000  0.16198200  0.15051000  1
  H  H34  1  0.48911000  0.83801800  0.34949000  1
  H  H35  1  0.01089000  0.83801800  0.84949000  1
  H  H36  1  0.50282900  0.32287000  0.57062700  1
  H  H37  1  0.99717100  0.32287000  0.07062700  1
  H  H38  1  0.49717100  0.67713000  0.42937300  1
  H  H39  1  0.00282900  0.67713000  0.92937300  1
  H  H40  1  0.18078300  0.03862500  0.62275100  1
  H  H41  1  0.31921700  0.03862500  0.12275100  1
  H  H42  1  0.81921700  0.96137500  0.37724900  1
  H  H43  1  0.68078300  0.96137500  0.87724900  1
  H  H44  1  0.34968100  0.05630500  0.62538000  1
  H  H45  1  0.15031900  0.05630500  0.12538000  1
  H  H46  1  0.65031900  0.94369500  0.37462000  1
  H  H47  1  0.84968100  0.94369500  0.87462000  1
  H  H48  1  0.26703800  0.88564600  0.74314100  1
  H  H49  1  0.23296200  0.88564600  0.24314100  1
  H  H50  1  0.73296200  0.11435400  0.25685900  1
  H  H51  1  0.76703800  0.11435400  0.75685900  1
  H  H52  1  0.33794900  0.03525600  0.75771200  1
  H  H53  1  0.16205100  0.03525600  0.25771200  1
  H  H54  1  0.66205100  0.96474400  0.24228800  1
  H  H55  1  0.83794900  0.96474400  0.74228800  1
  H  H56  1  0.16763800  0.02047000  0.75615300  1
  H  H57  1  0.33236200  0.02047000  0.25615300  1
  H  H58  1  0.83236200  0.97953000  0.24384700  1
  H  H59  1  0.66763800  0.97953000  0.74384700  1
  H  H60  1  0.11982200  0.40307000  0.62888300  1
  H  H61  1  0.38017800  0.40307000  0.12888300  1
  H  H62  1  0.88017800  0.59693000  0.37111700  1
  H  H63  1  0.61982200  0.59693000  0.87111700  1
  H  H64  1  0.12522200  0.24312600  0.70787800  1
  H  H65  1  0.37477800  0.24312600  0.20787800  1
  H  H66  1  0.87477800  0.75687400  0.29212200  1
  H  H67  1  0.62522200  0.75687400  0.79212200  1
  H  H68  1  0.91583700  0.26510300  0.64522900  1
  H  H69  1  0.58416300  0.26510300  0.14522900  1
  H  H70  1  0.08416300  0.73489700  0.35477100  1
  H  H71  1  0.41583700  0.73489700  0.85477100  1
  H  H72  1  0.98929700  0.27036100  0.56247400  1
  H  H73  1  0.51070300  0.27036100  0.06247400  1
  H  H74  1  0.01070300  0.72963900  0.43752600  1
  H  H75  1  0.48929700  0.72963900  0.93752600  1
  H  H76  1  0.99592200  0.10959100  0.64189600  1
  H  H77  1  0.50407800  0.10959100  0.14189600  1
  H  H78  1  0.00407800  0.89040900  0.35810400  1
  H  H79  1  0.49592200  0.89040900  0.85810400  1
  H  H80  1  0.12204700  0.53935500  0.74096000  1
  H  H81  1  0.37795300  0.53935500  0.24096000  1
  H  H82  1  0.87795300  0.46064500  0.25904000  1
  H  H83  1  0.62204700  0.46064500  0.75904000  1
  H  H84  1  0.20945900  0.67896700  0.67562000  1
  H  H85  1  0.29054100  0.67896700  0.17562000  1
  H  H86  1  0.79054100  0.32103300  0.32438000  1
  H  H87  1  0.70945900  0.32103300  0.82438000  1
  H  H88  1  0.90882000  0.50603400  0.72545500  1
  H  H89  1  0.59118000  0.50603400  0.22545500  1
  H  H90  1  0.09118000  0.49396600  0.27454500  1
  H  H91  1  0.40882000  0.49396600  0.77454500  1
  H  H92  1  0.81833200  0.64007900  0.65901700  1
  H  H93  1  0.68166800  0.64007900  0.15901700  1
  H  H94  1  0.18166800  0.35992100  0.34098300  1
  H  H95  1  0.31833200  0.35992100  0.84098300  1
  H  H96  1  0.72622300  0.07722700  0.99821500  1
  H  H97  1  0.77377700  0.07722700  0.49821500  1
  H  H98  1  0.27377700  0.92277300  0.00178500  1
  H  H99  1  0.22622300  0.92277300  0.50178500  1
  H  H100  1  0.84496000  0.99899700  0.05245800  1
  H  H101  1  0.65504000  0.99899700  0.55245800  1
  H  H102  1  0.15504000  0.00100300  0.94754200  1
  H  H103  1  0.34496000  0.00100300  0.44754200  1
  H  H104  1  0.90633100  0.19708200  0.96033900  1
  H  H105  1  0.59366900  0.19708200  0.46033900  1
  H  H106  1  0.09366900  0.80291800  0.03966100  1
  H  H107  1  0.40633100  0.80291800  0.53966100  1
  C  C0  1  0.25002900  0.29874900  0.53787400  1
  C  C1  1  0.24997100  0.29874900  0.03787400  1
  C  C2  1  0.74997100  0.70125100  0.46212600  1
  C  C3  1  0.75002900  0.70125100  0.96212600  1
  C  C4  1  0.23872700  0.46235400  0.50131800  1
  C  C5  1  0.26127300  0.46235400  0.00131800  1
  C  C6  1  0.76127300  0.53764600  0.49868200  1
  C  C7  1  0.73872700  0.53764600  0.99868200  1
  C  C8  1  0.35330400  0.30823100  0.65143100  1
  C  C9  1  0.14669600  0.30823100  0.15143100  1
  C  C10  1  0.64669600  0.69176900  0.34856900  1
  C  C11  1  0.85330400  0.69176900  0.84856900  1
  C  C12  1  0.48764000  0.27821600  0.63021700  1
  C  C13  1  0.01236000  0.27821600  0.13021700  1
  C  C14  1  0.51236000  0.72178400  0.36978300  1
  C  C15  1  0.98764000  0.72178400  0.86978300  1
  C  C16  1  0.25911000  0.07778500  0.64832000  1
  C  C17  1  0.24089000  0.07778500  0.14832000  1
  C  C18  1  0.74089000  0.92221500  0.35168000  1
  C  C19  1  0.75911000  0.92221500  0.85168000  1
  C  C20  1  0.25727900  0.00243600  0.73108900  1
  C  C21  1  0.24272100  0.00243600  0.23108900  1
  C  C22  1  0.74272100  0.99756400  0.26891100  1
  C  C23  1  0.75727900  0.99756400  0.76891100  1
  C  C24  1  0.11934500  0.28417100  0.64779300  1
  C  C25  1  0.38065500  0.28417100  0.14779300  1
  C  C26  1  0.88065500  0.71582900  0.35220700  1
  C  C27  1  0.61934500  0.71582900  0.85220700  1
  C  C28  1  0.99951100  0.22861500  0.62245300  1
  C  C29  1  0.50048900  0.22861500  0.12245300  1
  C  C30  1  0.00048900  0.77138500  0.37754700  1
  C  C31  1  0.49951100  0.77138500  0.87754700  1
  C  C32  1  0.01436500  0.68005900  0.65484800  1
  C  C33  1  0.48563500  0.68005900  0.15484800  1
  C  C34  1  0.98563500  0.31994100  0.34515200  1
  C  C35  1  0.51436500  0.31994100  0.84515200  1
  S  S0  1  0.01159600  0.83571200  0.57860800  1
  S  S1  1  0.48840400  0.83571200  0.07860800  1
  S  S2  1  0.98840400  0.16428800  0.42139200  1
  S  S3  1  0.51159600  0.16428800  0.92139200  1
  S  S4  1  0.01757900  0.27254200  0.85662200  1
  S  S5  1  0.48242100  0.27254200  0.35662200  1
  S  S6  1  0.98242100  0.72745800  0.14337800  1
  S  S7  1  0.51757900  0.72745800  0.64337800  1
  N  N0  1  0.24541000  0.24217100  0.62132800  1
  N  N1  1  0.25459000  0.24217100  0.12132800  1
  N  N2  1  0.75459000  0.75782900  0.37867200  1
  N  N3  1  0.74541000  0.75782900  0.87867200  1
  N  N4  1  0.12394800  0.62654500  0.69183500  1
  N  N5  1  0.37605200  0.62654500  0.19183500  1
  N  N6  1  0.87605200  0.37345500  0.30816500  1
  N  N7  1  0.62394800  0.37345500  0.80816500  1
  N  N8  1  0.90617600  0.60265000  0.68134000  1
  N  N9  1  0.59382400  0.60265000  0.18134000  1
  N  N10  1  0.09382400  0.39735000  0.31866000  1
  N  N11  1  0.40617600  0.39735000  0.81866000  1
  O  O0  1  0.81571500  0.08733100  0.01181800  1
  O  O1  1  0.68428500  0.08733100  0.51181800  1
  O  O2  1  0.18428500  0.91266900  0.98818200  1
  O  O3  1  0.31571500  0.91266900  0.48818200  1
  O  O4  1  0.97032800  0.28006900  0.93237300  1
  O  O5  1  0.52967200  0.28006900  0.43237300  1
  O  O6  1  0.02967200  0.71993100  0.06762700  1
  O  O7  1  0.47032800  0.71993100  0.56762700  1
  O  O8  1  0.90688000  0.31396100  0.80544400  1
  O  O9  1  0.59312000  0.31396100  0.30544400  1
  O  O10  1  0.09312000  0.68603900  0.19455600  1
  O  O11  1  0.40688000  0.68603900  0.69455600  1
  O  O12  1  0.06121900  0.12329600  0.87120200  1
  O  O13  1  0.43878100  0.12329600  0.37120200  1
  O  O14  1  0.93878100  0.87670400  0.12879800  1
  O  O15  1  0.56121900  0.87670400  0.62879800  1
  O  O16  1  0.12163100  0.38100100  0.83361400  1
  O  O17  1  0.37836900  0.38100100  0.33361400  1
  O  O18  1  0.87836900  0.61899900  0.16638600  1
  O  O19  1  0.62163100  0.61899900  0.66638600  1
loop_
_geom_bond_atom_site_label_1
_geom_bond_atom_site_label_2
_geom_bond_distance
_geom_bond_site_symmetry_2
H80 N4 1.029164 1_555
H81 N5 1.029164 1_555
H82 N6 1.029164 1_555
H83 N7 1.029164 1_555
H84 N4 1.018005 1_555
H85 N5 1.018005 1_555
H86 N6 1.018005 1_555
H87 N7 1.018005 1_555
H88 N8 1.026202 1_555
H89 N9 1.026202 1_555
H90 N10 1.026202 1_555
H91 N11 1.026202 1_555
H92 N8 1.019952 1_555
H93 N9 1.019952 1_555
H94 N10 1.019952 1_555
H95 N11 1.019952 1_555
H96 O0 0.981456 1_556
H97 O1 0.981456 1_555
H98 O2 0.981456 1_554
H99 O3 0.981456 1_555
H100 O0 0.988656 1_565
H101 O1 0.988656 1_565
H102 O2 0.988656 1_545
H103 O3 0.988656 1_545
H104 O4 1.041351 1_555
H104 O0 1.508069 1_556
H105 O5 1.041351 1_555
H105 O1 1.508069 1_555
H106 O6 1.041351 1_555
H106 O2 1.508069 1_554
H107 O7 1.041351 1_555
H107 O3 1.508069 1_555
C0 H4 1.095599 1_555
C0 H0 1.097873 1_555
C0 C4 1.514649 1_555
C0 N0 1.520722 1_555
C1 H5 1.095599 1_555
C1 H1 1.097873 1_555
C1 C5 1.514649 1_555
C1 N1 1.520722 1_555
C2 H6 1.095599 1_555
C2 H2 1.097873 1_555
C2 C6 1.514649 1_555
C2 N2 1.520722 1_555
C3 H7 1.095599 1_555
C3 H3 1.097873 1_555
C3 C7 1.514649 1_555
C3 N3 1.520722 1_555
C4 H8 1.096314 1_555
C4 H16 1.097080 1_555
C4 H12 1.097114 1_555
C5 H9 1.096314 1_554
C5 H17 1.097080 1_555
C5 H13 1.097114 1_555
C6 H10 1.096314 1_555
C6 H18 1.097080 1_555
C6 H14 1.097114 1_555
C7 H11 1.096314 1_556
C7 H19 1.097080 1_555
C7 H15 1.097114 1_555
C8 H24 1.095570 1_555
C8 H20 1.095749 1_555
C8 N0 1.520644 1_555
C9 H25 1.095570 1_555
C9 H21 1.095749 1_555
C9 N1 1.520644 1_555
C10 H26 1.095570 1_555
C10 H22 1.095749 1_555
C10 C14 1.515093 1_555
C10 N2 1.520644 1_555
C11 H27 1.095570 1_555
C11 H23 1.095749 1_555
C11 C15 1.515093 1_555
C11 N3 1.520644 1_555
C12 H28 1.096179 1_555
C12 H36 1.096385 1_555
C12 H32 1.096661 1_555
C12 C8 1.515093 1_555
C13 H29 1.096179 1_455
C13 H37 1.096385 1_455
C13 H33 1.096661 1_455
C13 C9 1.515093 1_555
C14 H30 1.096179 1_555
C14 H38 1.096385 1_555
C14 H34 1.096661 1_555
C15 H31 1.096179 1_655
C15 H39 1.096385 1_655
C15 H35 1.096661 1_655
C16 H44 1.095838 1_555
C16 H40 1.097498 1_555
C16 C20 1.514410 1_555
C16 N0 1.520801 1_555
C17 H45 1.095838 1_555
C17 H41 1.097498 1_555
C17 C21 1.514410 1_555
C17 N1 1.520801 1_555
C18 H46 1.095838 1_555
C18 H42 1.097498 1_555
C18 C22 1.514410 1_555
C18 N2 1.520801 1_555
C19 H47 1.095838 1_555
C19 H43 1.097498 1_555
C19 C23 1.514410 1_555
C19 N3 1.520801 1_555
C20 H48 1.095829 1_545
C20 H56 1.096701 1_555
C20 H52 1.096745 1_555
C21 H49 1.095829 1_545
C21 H57 1.096701 1_555
C21 H53 1.096745 1_555
C22 H50 1.095829 1_565
C22 H58 1.096701 1_555
C22 H54 1.096745 1_555
C23 H51 1.095829 1_565
C23 H59 1.096701 1_555
C23 H55 1.096745 1_555
C24 H60 1.095797 1_555
C24 H64 1.095961 1_555
C24 C28 1.515283 1_455
C24 N0 1.520436 1_555
C25 H61 1.095797 1_555
C25 H65 1.095961 1_555
C25 C29 1.515283 1_555
C25 N1 1.520436 1_555
C26 H62 1.095797 1_555
C26 H66 1.095961 1_555
C26 C30 1.515283 1_655
C26 N2 1.520436 1_555
C27 H63 1.095797 1_555
C27 H67 1.095961 1_555
C27 C31 1.515283 1_555
C27 N3 1.520436 1_555
C28 H68 1.096344 1_555
C28 H76 1.097041 1_555
C28 H72 1.097303 1_555
C29 H69 1.096344 1_555
C29 H77 1.097041 1_555
C29 H73 1.097303 1_555
C30 H70 1.096344 1_555
C30 H78 1.097041 1_555
C30 H74 1.097303 1_555
C31 H71 1.096344 1_555
C31 H79 1.097041 1_555
C31 H75 1.097303 1_555
C32 N4 1.347661 1_555
C32 N8 1.350635 1_455
C32 S0 1.705674 1_555
C33 N5 1.347661 1_555
C33 N9 1.350635 1_555
C33 S1 1.705674 1_555
C34 N6 1.347661 1_555
C34 N10 1.350635 1_655
C34 S2 1.705674 1_555
C35 N7 1.347661 1_555
C35 N11 1.350635 1_555
C35 S3 1.705674 1_555
O4 S4 1.589790 1_655
O5 S5 1.589790 1_555
O6 S6 1.589790 1_455
O7 S7 1.589790 1_555
O8 S4 1.479834 1_655
O9 S5 1.479834 1_555
O10 S6 1.479834 1_455
O11 S7 1.479834 1_555
O12 S4 1.468824 1_555
O13 S5 1.468824 1_555
O14 S6 1.468824 1_555
O15 S7 1.468824 1_555
O16 S4 1.471466 1_555
O17 S5 1.471466 1_555
O18 S6 1.471466 1_555
O19 S7 1.471466 1_555
