# generated using pymatgen
data_SrMg2
_symmetry_space_group_name_H-M   'P 1'
_cell_length_a   18.59766196
_cell_length_b   18.59766196
_cell_length_c   11.18470600
_cell_angle_alpha   90.00000000
_cell_angle_beta   90.00000000
_cell_angle_gamma   156.63902106
_symmetry_Int_Tables_number   1
_chemical_formula_structural   SrMg2
_chemical_formula_sum   'Sr16 Mg32'
_cell_volume   1533.94362315
_cell_formula_units_Z   16
loop_
 _symmetry_equiv_pos_site_id
 _symmetry_equiv_pos_as_xyz
  1  'x, y, z'
loop_
 _atom_site_type_symbol
 _atom_site_label
 _atom_site_symmetry_multiplicity
 _atom_site_fract_x
 _atom_site_fract_y
 _atom_site_fract_z
 _atom_site_occupancy
  Sr  Sr0_0  1  0.21551850  0.28448150  0.12500000  1
  Sr  Sr0_1  1  0.21551850  0.28448150  0.62500000  1
  Sr  Sr0_2  1  0.21551850  0.78448150  0.12500000  1
  Sr  Sr0_3  1  0.21551850  0.78448150  0.62500000  1
  Sr  Sr0_4  1  0.71551850  0.28448150  0.12500000  1
  Sr  Sr0_5  1  0.71551850  0.28448150  0.62500000  1
  Sr  Sr0_6  1  0.71551850  0.78448150  0.12500000  1
  Sr  Sr0_7  1  0.71551850  0.78448150  0.62500000  1
  Sr  Sr1_0  1  0.28448150  0.21551850  0.37500000  1
  Sr  Sr1_1  1  0.28448150  0.21551850  0.87500000  1
  Sr  Sr1_2  1  0.28448150  0.71551850  0.37500000  1
  Sr  Sr1_3  1  0.28448150  0.71551850  0.87500000  1
  Sr  Sr1_4  1  0.78448150  0.21551850  0.37500000  1
  Sr  Sr1_5  1  0.78448150  0.21551850  0.87500000  1
  Sr  Sr1_6  1  0.78448150  0.71551850  0.37500000  1
  Sr  Sr1_7  1  0.78448150  0.71551850  0.87500000  1
  Mg  Mg0_0  1  0.06338250  0.43661750  0.12500000  1
  Mg  Mg0_1  1  0.06338250  0.43661750  0.62500000  1
  Mg  Mg0_2  1  0.06338250  0.93661750  0.12500000  1
  Mg  Mg0_3  1  0.06338250  0.93661750  0.62500000  1
  Mg  Mg0_4  1  0.56338250  0.43661750  0.12500000  1
  Mg  Mg0_5  1  0.56338250  0.43661750  0.62500000  1
  Mg  Mg0_6  1  0.56338250  0.93661750  0.12500000  1
  Mg  Mg0_7  1  0.56338250  0.93661750  0.62500000  1
  Mg  Mg1_0  1  0.38258550  0.11741450  0.12500000  1
  Mg  Mg1_1  1  0.38258550  0.11741450  0.62500000  1
  Mg  Mg1_2  1  0.38258550  0.61741450  0.12500000  1
  Mg  Mg1_3  1  0.38258550  0.61741450  0.62500000  1
  Mg  Mg1_4  1  0.88258550  0.11741450  0.12500000  1
  Mg  Mg1_5  1  0.88258550  0.11741450  0.62500000  1
  Mg  Mg1_6  1  0.88258550  0.61741450  0.12500000  1
  Mg  Mg1_7  1  0.88258550  0.61741450  0.62500000  1
  Mg  Mg2_0  1  0.11741450  0.38258550  0.37500000  1
  Mg  Mg2_1  1  0.11741450  0.38258550  0.87500000  1
  Mg  Mg2_2  1  0.11741450  0.88258550  0.37500000  1
  Mg  Mg2_3  1  0.11741450  0.88258550  0.87500000  1
  Mg  Mg2_4  1  0.61741450  0.38258550  0.37500000  1
  Mg  Mg2_5  1  0.61741450  0.38258550  0.87500000  1
  Mg  Mg2_6  1  0.61741450  0.88258550  0.37500000  1
  Mg  Mg2_7  1  0.61741450  0.88258550  0.87500000  1
  Mg  Mg3_0  1  0.43661750  0.06338250  0.37500000  1
  Mg  Mg3_1  1  0.43661750  0.06338250  0.87500000  1
  Mg  Mg3_2  1  0.43661750  0.56338250  0.37500000  1
  Mg  Mg3_3  1  0.43661750  0.56338250  0.87500000  1
  Mg  Mg3_4  1  0.93661750  0.06338250  0.37500000  1
  Mg  Mg3_5  1  0.93661750  0.06338250  0.87500000  1
  Mg  Mg3_6  1  0.93661750  0.56338250  0.37500000  1
  Mg  Mg3_7  1  0.93661750  0.56338250  0.87500000  1
loop_
_geom_bond_atom_site_label_1
_geom_bond_atom_site_label_2
_geom_bond_distance
_geom_bond_site_symmetry_2
Sr0_0 Sr1_1 3.758811 1_554
Sr0_0 Sr1_0 3.758811 1_555
Sr0_0 Sr0_6 3.765168 1_555
Sr0_0 Sr0_6 3.765168 1_445
Sr0_1 Sr1_0 3.758811 1_555
Sr0_1 Sr1_1 3.758811 1_555
Sr0_1 Sr0_7 3.765168 1_555
Sr0_1 Sr0_7 3.765168 1_445
Sr0_2 Sr1_3 3.758811 1_554
Sr0_2 Sr1_2 3.758811 1_555
Sr0_2 Sr0_4 3.765168 1_455
Sr0_2 Sr0_4 3.765168 1_565
Sr0_3 Sr1_2 3.758811 1_555
Sr0_3 Sr1_3 3.758811 1_555
Sr0_3 Sr0_5 3.765168 1_455
Sr0_3 Sr0_5 3.765168 1_565
Sr0_4 Sr1_5 3.758811 1_554
Sr0_4 Sr1_4 3.758811 1_555
Sr0_5 Sr1_4 3.758811 1_555
Sr0_5 Sr1_5 3.758811 1_555
Sr0_6 Sr1_7 3.758811 1_554
Sr0_6 Sr1_6 3.758811 1_555
Sr0_7 Sr1_6 3.758811 1_555
Sr0_7 Sr1_7 3.758811 1_555
Sr1_0 Sr1_6 3.765168 1_445
Sr1_0 Sr1_6 3.765168 1_555
Sr1_1 Sr1_7 3.765168 1_445
Sr1_1 Sr1_7 3.765168 1_555
Sr1_2 Sr1_4 3.765168 1_455
Sr1_2 Sr1_4 3.765168 1_565
Sr1_3 Sr1_5 3.765168 1_455
Sr1_3 Sr1_5 3.765168 1_565
Mg0_0 Mg1_2 3.146136 1_555
Mg0_0 Mg1_4 3.146136 1_455
Mg0_0 Mg2_1 3.419371 1_554
Mg0_0 Mg2_0 3.419371 1_555
Mg0_0 Sr1_3 3.531423 1_554
Mg0_0 Sr1_5 3.531423 1_454
Mg0_0 Sr1_2 3.531423 1_555
Mg0_0 Sr1_4 3.531423 1_455
Mg0_0 Sr0_2 4.031282 1_555
Mg0_0 Sr0_4 4.031282 1_455
Mg0_1 Mg1_3 3.146136 1_555
Mg0_1 Mg1_5 3.146136 1_455
Mg0_1 Mg2_0 3.419371 1_555
Mg0_1 Mg2_1 3.419371 1_555
Mg0_1 Sr1_2 3.531423 1_555
Mg0_1 Sr1_4 3.531423 1_455
Mg0_1 Sr1_3 3.531423 1_555
Mg0_1 Sr1_5 3.531423 1_455
Mg0_1 Sr0_3 4.031282 1_555
Mg0_1 Sr0_5 4.031282 1_455
Mg0_2 Mg1_0 3.146136 1_565
Mg0_2 Mg1_6 3.146136 1_455
Mg0_2 Mg2_3 3.419371 1_554
Mg0_2 Mg2_2 3.419371 1_555
Mg0_2 Sr1_1 3.531423 1_564
Mg0_2 Sr1_7 3.531423 1_454
Mg0_2 Sr1_0 3.531423 1_565
Mg0_2 Sr1_6 3.531423 1_455
Mg0_2 Sr0_0 4.031282 1_565
Mg0_2 Sr0_6 4.031282 1_455
Mg0_3 Mg1_1 3.146136 1_565
Mg0_3 Mg1_7 3.146136 1_455
Mg0_3 Mg2_2 3.419371 1_555
Mg0_3 Mg2_3 3.419371 1_555
Mg0_3 Sr1_0 3.531423 1_565
Mg0_3 Sr1_6 3.531423 1_455
Mg0_3 Sr1_1 3.531423 1_565
Mg0_3 Sr1_7 3.531423 1_455
Mg0_3 Sr0_1 4.031282 1_565
Mg0_3 Sr0_7 4.031282 1_455
Mg0_4 Mg1_6 3.146136 1_555
Mg0_4 Mg1_0 3.146136 1_555
Mg0_4 Mg2_5 3.419371 1_554
Mg0_4 Mg2_4 3.419371 1_555
Mg0_4 Sr1_1 3.531423 1_554
Mg0_4 Sr1_0 3.531423 1_555
Mg0_4 Sr1_7 3.531423 1_554
Mg0_4 Sr1_6 3.531423 1_555
Mg0_4 Sr0_0 4.031282 1_555
Mg0_4 Sr0_6 4.031282 1_555
Mg0_5 Mg1_7 3.146136 1_555
Mg0_5 Mg1_1 3.146136 1_555
Mg0_5 Mg2_4 3.419371 1_555
Mg0_5 Mg2_5 3.419371 1_555
Mg0_5 Sr1_0 3.531423 1_555
Mg0_5 Sr1_6 3.531423 1_555
Mg0_5 Sr1_1 3.531423 1_555
Mg0_5 Sr1_7 3.531423 1_555
Mg0_5 Sr0_1 4.031282 1_555
Mg0_5 Sr0_7 4.031282 1_555
Mg0_6 Mg1_4 3.146136 1_565
Mg0_6 Mg1_2 3.146136 1_555
Mg0_6 Mg2_7 3.419371 1_554
Mg0_6 Mg2_6 3.419371 1_555
Mg0_6 Sr1_5 3.531423 1_564
Mg0_6 Sr1_3 3.531423 1_554
Mg0_6 Sr1_4 3.531423 1_565
Mg0_6 Sr1_2 3.531423 1_555
Mg0_6 Sr0_2 4.031282 1_555
Mg0_6 Sr0_4 4.031282 1_565
Mg0_7 Mg1_5 3.146136 1_565
Mg0_7 Mg1_3 3.146136 1_555
Mg0_7 Mg2_6 3.419371 1_555
Mg0_7 Mg2_7 3.419371 1_555
Mg0_7 Sr1_4 3.531423 1_565
Mg0_7 Sr1_2 3.531423 1_555
Mg0_7 Sr1_5 3.531423 1_565
Mg0_7 Sr1_3 3.531423 1_555
Mg0_7 Sr0_3 4.031282 1_555
Mg0_7 Sr0_5 4.031282 1_565
Mg1_0 Mg2_5 3.415860 1_554
Mg1_0 Mg2_3 3.415860 1_544
Mg1_0 Mg2_2 3.415860 1_545
Mg1_0 Mg2_4 3.415860 1_555
Mg1_0 Mg3_1 3.419371 1_554
Mg1_0 Mg3_0 3.419371 1_555
Mg1_0 Sr0_2 3.559438 1_545
Mg1_0 Sr0_4 3.559438 1_555
Mg1_1 Mg2_2 3.415860 1_545
Mg1_1 Mg2_4 3.415860 1_555
Mg1_1 Mg2_3 3.415860 1_545
Mg1_1 Mg2_5 3.415860 1_555
Mg1_1 Mg3_0 3.419371 1_555
Mg1_1 Mg3_1 3.419371 1_555
Mg1_1 Sr0_3 3.559438 1_545
Mg1_1 Sr0_5 3.559438 1_555
Mg1_2 Mg2_1 3.415860 1_554
Mg1_2 Mg2_7 3.415860 1_554
Mg1_2 Mg2_6 3.415860 1_555
Mg1_2 Mg2_0 3.415860 1_555
Mg1_2 Mg3_3 3.419371 1_554
Mg1_2 Mg3_2 3.419371 1_555
Mg1_2 Sr0_0 3.559438 1_555
Mg1_2 Sr0_6 3.559438 1_555
Mg1_3 Mg2_6 3.415860 1_555
Mg1_3 Mg2_0 3.415860 1_555
Mg1_3 Mg2_1 3.415860 1_555
Mg1_3 Mg2_7 3.415860 1_555
Mg1_3 Mg3_2 3.419371 1_555
Mg1_3 Mg3_3 3.419371 1_555
Mg1_3 Sr0_1 3.559438 1_555
Mg1_3 Sr0_7 3.559438 1_555
Mg1_4 Mg2_7 3.415860 1_544
Mg1_4 Mg2_1 3.415860 1_654
Mg1_4 Mg2_6 3.415860 1_545
Mg1_4 Mg2_0 3.415860 1_655
Mg1_4 Mg3_5 3.419371 1_554
Mg1_4 Mg3_4 3.419371 1_555
Mg1_4 Sr0_6 3.559438 1_545
Mg1_4 Sr0_0 3.559438 1_655
Mg1_5 Mg2_6 3.415860 1_545
Mg1_5 Mg2_0 3.415860 1_655
Mg1_5 Mg2_7 3.415860 1_545
Mg1_5 Mg2_1 3.415860 1_655
Mg1_5 Mg3_4 3.419371 1_555
Mg1_5 Mg3_5 3.419371 1_555
Mg1_5 Sr0_7 3.559438 1_545
Mg1_5 Sr0_1 3.559438 1_655
Mg1_6 Mg2_5 3.415860 1_554
Mg1_6 Mg2_3 3.415860 1_654
Mg1_6 Mg2_4 3.415860 1_555
Mg1_6 Mg2_2 3.415860 1_655
Mg1_6 Mg3_7 3.419371 1_554
Mg1_6 Mg3_6 3.419371 1_555
Mg1_6 Sr0_4 3.559438 1_555
Mg1_6 Sr0_2 3.559438 1_655
Mg1_7 Mg2_4 3.415860 1_555
Mg1_7 Mg2_2 3.415860 1_655
Mg1_7 Mg2_5 3.415860 1_555
Mg1_7 Mg2_3 3.415860 1_655
Mg1_7 Mg3_6 3.419371 1_555
Mg1_7 Mg3_7 3.419371 1_555
Mg1_7 Sr0_5 3.559438 1_555
Mg1_7 Sr0_3 3.559438 1_655
Mg2_0 Mg3_4 3.146136 1_455
Mg2_0 Mg3_2 3.146136 1_555
Mg2_0 Sr1_4 3.559438 1_455
Mg2_0 Sr1_2 3.559438 1_555
Mg2_1 Mg3_5 3.146136 1_455
Mg2_1 Mg3_3 3.146136 1_555
Mg2_1 Sr1_5 3.559438 1_455
Mg2_1 Sr1_3 3.559438 1_555
Mg2_2 Mg3_6 3.146136 1_455
Mg2_2 Mg3_0 3.146136 1_565
Mg2_2 Sr1_6 3.559438 1_455
Mg2_2 Sr1_0 3.559438 1_565
Mg2_3 Mg3_7 3.146136 1_455
Mg2_3 Mg3_1 3.146136 1_565
Mg2_3 Sr1_7 3.559438 1_455
Mg2_3 Sr1_1 3.559438 1_565
Mg2_4 Mg3_0 3.146136 1_555
Mg2_4 Mg3_6 3.146136 1_555
Mg2_4 Sr1_0 3.559438 1_555
Mg2_4 Sr1_6 3.559438 1_555
Mg2_5 Mg3_1 3.146136 1_555
Mg2_5 Mg3_7 3.146136 1_555
Mg2_5 Sr1_1 3.559438 1_555
Mg2_5 Sr1_7 3.559438 1_555
Mg2_6 Mg3_2 3.146136 1_555
Mg2_6 Mg3_4 3.146136 1_565
Mg2_6 Sr1_2 3.559438 1_555
Mg2_6 Sr1_4 3.559438 1_565
Mg2_7 Mg3_3 3.146136 1_555
Mg2_7 Mg3_5 3.146136 1_565
Mg2_7 Sr1_3 3.559438 1_555
Mg2_7 Sr1_5 3.559438 1_565
Mg3_0 Sr0_4 3.531423 1_555
Mg3_0 Sr0_3 3.531423 1_545
Mg3_0 Sr0_5 3.531423 1_555
Mg3_0 Sr0_2 3.531423 1_545
Mg3_0 Sr1_2 4.031282 1_545
Mg3_0 Sr1_4 4.031282 1_555
Mg3_1 Sr0_4 3.531423 1_556
Mg3_1 Sr0_2 3.531423 1_546
Mg3_1 Sr0_3 3.531423 1_545
Mg3_1 Sr0_5 3.531423 1_555
Mg3_1 Sr1_5 4.031282 1_555
Mg3_1 Sr1_3 4.031282 1_545
Mg3_2 Sr0_0 3.531423 1_555
Mg3_2 Sr0_6 3.531423 1_555
Mg3_2 Sr0_7 3.531423 1_555
Mg3_2 Sr0_1 3.531423 1_555
Mg3_2 Sr1_6 4.031282 1_555
Mg3_2 Sr1_0 4.031282 1_555
Mg3_3 Sr0_0 3.531423 1_556
Mg3_3 Sr0_6 3.531423 1_556
Mg3_3 Sr0_1 3.531423 1_555
Mg3_3 Sr0_7 3.531423 1_555
Mg3_3 Sr1_7 4.031282 1_555
Mg3_3 Sr1_1 4.031282 1_555
Mg3_4 Sr0_6 3.531423 1_545
Mg3_4 Sr0_7 3.531423 1_545
Mg3_4 Sr0_0 3.531423 1_655
Mg3_4 Sr0_1 3.531423 1_655
Mg3_4 Sr1_6 4.031282 1_545
Mg3_4 Sr1_0 4.031282 1_655
Mg3_5 Sr0_6 3.531423 1_546
Mg3_5 Sr0_0 3.531423 1_656
Mg3_5 Sr0_7 3.531423 1_545
Mg3_5 Sr0_1 3.531423 1_655
Mg3_5 Sr1_7 4.031282 1_545
Mg3_5 Sr1_1 4.031282 1_655
Mg3_6 Sr0_4 3.531423 1_555
Mg3_6 Sr0_5 3.531423 1_555
Mg3_6 Sr0_2 3.531423 1_655
Mg3_6 Sr0_3 3.531423 1_655
Mg3_6 Sr1_4 4.031282 1_555
Mg3_6 Sr1_2 4.031282 1_655
Mg3_7 Sr0_4 3.531423 1_556
Mg3_7 Sr0_2 3.531423 1_656
Mg3_7 Sr0_5 3.531423 1_555
Mg3_7 Sr0_3 3.531423 1_655
Mg3_7 Sr1_5 4.031282 1_555
Mg3_7 Sr1_3 4.031282 1_655
