# generated using pymatgen
data_BaSm(CoO3)2
_symmetry_space_group_name_H-M   'P 1'
_cell_length_a   3.84997800
_cell_length_b   3.84997800
_cell_length_c   7.93430600
_cell_angle_alpha   90.00000000
_cell_angle_beta   90.00000000
_cell_angle_gamma   90.00000000
_symmetry_Int_Tables_number   1
_chemical_formula_structural   BaSm(CoO3)2
_chemical_formula_sum   'Ba1 Sm1 Co2 O6'
_cell_volume   117.60490662
_cell_formula_units_Z   1
loop_
 _symmetry_equiv_pos_site_id
 _symmetry_equiv_pos_as_xyz
  1  'x, y, z'
loop_
 _atom_site_type_symbol
 _atom_site_label
 _atom_site_symmetry_multiplicity
 _atom_site_fract_x
 _atom_site_fract_y
 _atom_site_fract_z
 _atom_site_occupancy
  Ba  Ba0  1  0.50000000  0.50000000  0.50000000  1
  Sm  Sm0  1  0.50000000  0.50000000  0.00000000  1
  Co  Co0  1  0.00000000  0.00000000  0.24676900  1
  Co  Co1  1  0.00000000  0.00000000  0.75323100  1
  O  O0  1  0.00000000  0.50000000  0.21867900  1
  O  O1  1  0.00000000  0.50000000  0.78132100  1
  O  O2  1  0.50000000  0.00000000  0.21867900  1
  O  O3  1  0.50000000  0.00000000  0.78132100  1
  O  O4  1  0.00000000  0.00000000  0.50000000  1
  O  O5  1  0.00000000  0.00000000  0.00000000  1
loop_
_geom_bond_atom_site_label_1
_geom_bond_atom_site_label_2
_geom_bond_distance
_geom_bond_site_symmetry_2
Ba0 O4 2.722346 1_565
Ba0 O4 2.722346 1_665
Ba0 O4 2.722346 1_555
Ba0 O4 2.722346 1_655
Ba0 O1 2.947507 1_555
Ba0 O1 2.947507 1_655
Ba0 O3 2.947507 1_555
Ba0 O3 2.947507 1_565
Ba0 O0 2.947507 1_655
Ba0 O0 2.947507 1_555
Ba0 O2 2.947507 1_555
Ba0 O2 2.947507 1_565
Co0 O2 1.937848 1_455
Co0 O0 1.937848 1_545
Co0 O2 1.937848 1_555
Co0 O0 1.937848 1_555
Co0 O5 1.957941 1_555
Co0 O4 2.009212 1_555
Co1 O1 1.937848 1_545
Co1 O3 1.937848 1_455
Co1 O1 1.937848 1_555
Co1 O3 1.937848 1_555
Co1 O5 1.957941 1_556
Co1 O4 2.009212 1_555
O0 Sm0 2.591532 1_555
O0 Sm0 2.591532 1_455
O1 Sm0 2.591532 1_456
O1 Sm0 2.591532 1_556
O2 Sm0 2.591532 1_555
O2 Sm0 2.591532 1_545
O3 Sm0 2.591532 1_556
O3 Sm0 2.591532 1_546
O5 Sm0 2.722346 1_445
O5 Sm0 2.722346 1_555
O5 Sm0 2.722346 1_545
O5 Sm0 2.722346 1_455
