# generated using pymatgen
data_MgV(PO3)4
_symmetry_space_group_name_H-M   'P 1'
_cell_length_a   7.33504498
_cell_length_b   7.33504498
_cell_length_c   10.23825752
_cell_angle_alpha   66.70442696
_cell_angle_beta   66.70442696
_cell_angle_gamma   70.08893635
_symmetry_Int_Tables_number   1
_chemical_formula_structural   MgV(PO3)4
_chemical_formula_sum   'Mg2 V2 P8 O24'
_cell_volume   453.48709564
_cell_formula_units_Z   2
loop_
 _symmetry_equiv_pos_site_id
 _symmetry_equiv_pos_as_xyz
  1  'x, y, z'
loop_
 _atom_site_type_symbol
 _atom_site_label
 _atom_site_symmetry_multiplicity
 _atom_site_fract_x
 _atom_site_fract_y
 _atom_site_fract_z
 _atom_site_occupancy
  Mg  Mg0  1  0.95624300  0.04375700  0.25000000  1
  Mg  Mg1  1  0.04375700  0.95624300  0.75000000  1
  V  V0  1  0.00000000  0.50000000  0.00000000  1
  V  V1  1  0.50000000  0.00000000  0.50000000  1
  P  P0  1  0.70256200  0.68770500  0.30656300  1
  P  P1  1  0.31229500  0.29743800  0.19343700  1
  P  P2  1  0.29743800  0.31229500  0.69343700  1
  P  P3  1  0.68770500  0.70256200  0.80656300  1
  P  P4  1  0.74755100  0.27176600  0.52068600  1
  P  P5  1  0.72823400  0.25244900  0.97931400  1
  P  P6  1  0.25244900  0.72823400  0.47931400  1
  P  P7  1  0.27176600  0.74755100  0.02068600  1
  O  O0  1  0.46553700  0.68841400  0.35413500  1
  O  O1  1  0.31158600  0.53446300  0.14586500  1
  O  O2  1  0.53446300  0.31158600  0.64586500  1
  O  O3  1  0.68841400  0.46553700  0.85413500  1
  O  O4  1  0.78575900  0.49788700  0.43290600  1
  O  O5  1  0.50211300  0.21424100  0.06709400  1
  O  O6  1  0.21424100  0.50211400  0.56709400  1
  O  O7  1  0.49788700  0.78575900  0.93290600  1
  O  O8  1  0.80077900  0.65682100  0.15784500  1
  O  O9  1  0.34317900  0.19922100  0.34215500  1
  O  O10  1  0.19922100  0.34317900  0.84215500  1
  O  O11  1  0.65682100  0.80077900  0.65784500  1
  O  O12  1  0.72197300  0.87513600  0.32510000  1
  O  O13  1  0.12486400  0.27802700  0.17490000  1
  O  O14  1  0.27802700  0.12486400  0.67490000  1
  O  O15  1  0.87513600  0.72197300  0.82510000  1
  O  O16  1  0.72095400  0.18837100  0.41617900  1
  O  O17  1  0.81162900  0.27904600  0.08382100  1
  O  O18  1  0.27904600  0.81162900  0.58382100  1
  O  O19  1  0.18837100  0.72095400  0.91617900  1
  O  O20  1  0.90557900  0.15701500  0.59631900  1
  O  O21  1  0.84298500  0.09442100  0.90368100  1
  O  O22  1  0.09442100  0.84298500  0.40368100  1
  O  O23  1  0.15701500  0.90557900  0.09631900  1
loop_
_geom_bond_atom_site_label_1
_geom_bond_atom_site_label_2
_geom_bond_distance
_geom_bond_site_symmetry_2
Mg0 O23 2.020806 1_645
Mg0 O22 2.020806 1_645
Mg0 O12 2.173525 1_545
Mg0 O13 2.173525 1_655
Mg0 O17 2.203748 1_555
Mg0 O16 2.203748 1_555
Mg1 O20 2.020806 1_465
Mg1 O21 2.020806 1_465
Mg1 O15 2.173525 1_455
Mg1 O14 2.173525 1_565
Mg1 O18 2.203748 1_555
Mg1 O19 2.203748 1_555
O0 P6 1.603611 1_555
O0 P0 1.608111 1_555
O1 P7 1.603611 1_555
O1 P1 1.608111 1_555
O2 P4 1.603611 1_555
O2 P2 1.608111 1_555
O3 P5 1.603611 1_555
O3 P3 1.608111 1_555
O4 P4 1.604869 1_555
O4 P0 1.614101 1_555
O5 P5 1.604869 1_554
O5 P1 1.614101 1_555
O6 P6 1.604863 1_555
O6 P2 1.614104 1_555
O7 P7 1.604869 1_556
O7 P3 1.614101 1_555
O8 P0 1.477405 1_555
O8 V0 2.127851 1_655
O9 P1 1.477405 1_555
O9 V1 2.127851 1_555
O10 P2 1.477405 1_555
O10 V0 2.127851 1_556
O11 P3 1.477405 1_555
O11 V1 2.127851 1_565
O12 P0 1.519040 1_555
O12 V1 2.161427 1_565
O13 P1 1.519040 1_555
O13 V0 2.161427 1_555
O14 P2 1.519040 1_555
O14 V1 2.161427 1_555
O15 P3 1.519040 1_555
O15 V0 2.161427 1_656
O16 P4 1.523531 1_555
O16 V1 2.181647 1_555
O17 P5 1.523531 1_554
O17 V0 2.181647 1_655
O18 P6 1.523531 1_555
O18 V1 2.181647 1_565
O19 P7 1.523531 1_556
O19 V0 2.181647 1_556
O20 P4 1.477016 1_555
O21 P5 1.477016 1_555
O22 P6 1.477016 1_555
O23 P7 1.477016 1_555
