# generated using pymatgen
data_Dy4CdNi
_symmetry_space_group_name_H-M   'P 1'
_cell_length_a   9.48956351
_cell_length_b   9.48956554
_cell_length_c   9.48954989
_cell_angle_alpha   60.00104495
_cell_angle_beta   60.00104280
_cell_angle_gamma   60.00109375
_symmetry_Int_Tables_number   1
_chemical_formula_structural   Dy4CdNi
_chemical_formula_sum   'Dy16 Cd4 Ni4'
_cell_volume   604.27360488
_cell_formula_units_Z   4
loop_
 _symmetry_equiv_pos_site_id
 _symmetry_equiv_pos_as_xyz
  1  'x, y, z'
loop_
 _atom_site_type_symbol
 _atom_site_label
 _atom_site_symmetry_multiplicity
 _atom_site_fract_x
 _atom_site_fract_y
 _atom_site_fract_z
 _atom_site_occupancy
  Dy  Dy0  1  0.59874820  0.59875451  0.59875326  1
  Dy  Dy1  1  0.59874854  0.59875441  0.20374753  1
  Dy  Dy2  1  0.59874890  0.20374627  0.59875401  1
  Dy  Dy3  1  0.20374627  0.59875293  0.59875178  1
  Dy  Dy4  1  0.06083354  0.43916719  0.43916555  1
  Dy  Dy5  1  0.43916569  0.06083321  0.06083395  1
  Dy  Dy6  1  0.43916508  0.06083099  0.43916736  1
  Dy  Dy7  1  0.06083631  0.43916797  0.06083105  1
  Dy  Dy8  1  0.43916501  0.43916837  0.06083131  1
  Dy  Dy9  1  0.06083645  0.06083090  0.43916695  1
  Dy  Dy10  1  0.18667766  0.81332395  0.81332318  1
  Dy  Dy11  1  0.81332489  0.18667536  0.18667599  1
  Dy  Dy12  1  0.81332422  0.18667461  0.81332318  1
  Dy  Dy13  1  0.18667840  0.81332415  0.18667364  1
  Dy  Dy14  1  0.81332425  0.81332415  0.18667430  1
  Dy  Dy15  1  0.18667887  0.18667354  0.81332329  1
  Cd  Cd0  1  0.83076175  0.83076321  0.83075967  1
  Cd  Cd1  1  0.83075895  0.83076041  0.50771758  1
  Cd  Cd2  1  0.83075969  0.50771808  0.83075778  1
  Cd  Cd3  1  0.50771693  0.83076137  0.83075794  1
  Ni  Ni0  1  0.39249325  0.39249203  0.39249812  1
  Ni  Ni1  1  0.39250010  0.39249572  0.82251212  1
  Ni  Ni2  1  0.39249696  0.82251520  0.39249874  1
  Ni  Ni3  1  0.82251308  0.39249646  0.39250170  1
loop_
_geom_bond_atom_site_label_1
_geom_bond_atom_site_label_2
_geom_bond_distance
_geom_bond_site_symmetry_2
Dy0 Ni2 2.772976 1_555
Dy0 Ni1 2.772982 1_555
Dy0 Ni3 2.773003 1_555
Dy1 Ni2 2.773013 1_555
Dy1 Ni0 2.773048 1_555
Dy1 Ni3 2.773058 1_555
Dy2 Ni1 2.772982 1_555
Dy2 Ni0 2.773008 1_555
Dy2 Ni3 2.773029 1_555
Dy3 Ni2 2.773019 1_555
Dy3 Ni1 2.773025 1_555
Dy3 Ni0 2.773028 1_555
Dy4 Ni3 2.775967 1_455
Dy4 Ni0 2.776014 1_555
Dy5 Ni2 2.776072 1_545
Dy5 Ni1 2.776073 1_554
Dy6 Ni2 2.775938 1_545
Dy6 Ni0 2.776031 1_555
Dy7 Ni1 2.776071 1_554
Dy7 Ni3 2.776124 1_455
Dy8 Ni1 2.775971 1_554
Dy8 Ni0 2.776057 1_555
Dy9 Ni2 2.776044 1_545
Dy9 Ni3 2.776099 1_455
Dy10 Ni2 3.434012 1_555
Dy10 Ni1 3.434057 1_555
Dy11 Ni3 3.434054 1_555
Dy11 Ni0 3.434091 1_555
Dy12 Ni3 3.433994 1_555
Dy12 Ni1 3.434022 1_555
Dy13 Ni2 3.434044 1_555
Dy13 Ni0 3.434096 1_555
Dy14 Ni2 3.434041 1_555
Dy14 Ni3 3.434051 1_555
Dy15 Ni1 3.434031 1_555
Dy15 Ni0 3.434034 1_555
Cd0 Cd1 3.065551 1_555
Cd0 Cd3 3.065571 1_555
Cd0 Cd2 3.065577 1_555
Cd0 Dy12 3.220494 1_565
Cd0 Dy14 3.220508 1_556
Cd0 Dy10 3.220528 1_655
Cd0 Dy2 3.388904 1_565
Cd0 Dy3 3.388908 1_655
Cd0 Dy1 3.388933 1_556
Cd0 Dy9 3.447187 1_665
Cd0 Dy5 3.447213 1_566
Cd0 Dy7 3.447216 1_656
Cd1 Cd3 3.065566 1_555
Cd1 Cd2 3.065567 1_555
Cd1 Dy14 3.220518 1_555
Cd1 Dy11 3.220573 1_565
Cd1 Dy13 3.220606 1_655
Cd1 Dy0 3.388832 1_555
Cd1 Dy2 3.388913 1_565
Cd1 Dy3 3.388914 1_655
Cd1 Dy9 3.447171 1_665
Cd1 Dy6 3.447184 1_565
Cd1 Dy4 3.447186 1_655
Cd2 Cd3 3.065588 1_555
Cd2 Dy12 3.220520 1_555
Cd2 Dy11 3.220594 1_556
Cd2 Dy15 3.220612 1_655
Cd2 Dy0 3.388822 1_555
Cd2 Dy3 3.388909 1_655
Cd2 Dy1 3.388938 1_556
Cd2 Dy4 3.447167 1_655
Cd2 Dy7 3.447186 1_656
Cd2 Dy8 3.447186 1_556
Cd3 Dy10 3.220490 1_555
Cd3 Dy15 3.220548 1_565
Cd3 Dy13 3.220563 1_556
Cd3 Dy0 3.388806 1_555
Cd3 Dy2 3.388884 1_565
Cd3 Dy1 3.388916 1_556
Cd3 Dy6 3.447158 1_565
Cd3 Dy5 3.447165 1_566
Cd3 Dy8 3.447182 1_556
