# generated using pymatgen
data_Ba8Ca5Mn3Fe8F56
_symmetry_space_group_name_H-M   'P 1'
_cell_length_a   5.46441100
_cell_length_b   7.51940444
_cell_length_c   30.58235422
_cell_angle_alpha   91.19941162
_cell_angle_beta   90.25482378
_cell_angle_gamma   111.26992370
_symmetry_Int_Tables_number   1
_chemical_formula_structural   Ba8Ca5Mn3Fe8F56
_chemical_formula_sum   'Ba8 Ca5 Mn3 Fe8 F56'
_cell_volume   1170.65008004
_cell_formula_units_Z   1
loop_
 _symmetry_equiv_pos_site_id
 _symmetry_equiv_pos_as_xyz
  1  'x, y, z'
loop_
 _atom_site_type_symbol
 _atom_site_label
 _atom_site_symmetry_multiplicity
 _atom_site_fract_x
 _atom_site_fract_y
 _atom_site_fract_z
 _atom_site_occupancy
  Ba  Ba0  1  0.14373500  0.37885400  0.81094800  1
  Ba  Ba1  1  0.14339200  0.37830900  0.31112400  1
  Ba  Ba2  1  0.76458500  0.61984100  0.93809900  1
  Ba  Ba3  1  0.76518300  0.62171600  0.43882900  1
  Ba  Ba4  1  0.85660800  0.62169100  0.68887600  1
  Ba  Ba5  1  0.85626500  0.62114600  0.18905200  1
  Ba  Ba6  1  0.23481700  0.37828400  0.56117100  1
  Ba  Ba7  1  0.23541500  0.38015900  0.06190100  1
  Ca  Ca0  1  0.44893900  0.99888400  0.87406200  1
  Ca  Ca1  1  0.44981100  0.99999000  0.37499200  1
  Ca  Ca2  1  0.55018900  0.00001000  0.62500800  1
  Ca  Ca3  1  0.55106100  0.00111600  0.12593800  1
  Ca  Ca4  1  0.50000000  0.00000000  0.00000000  1
  Mn  Mn0  1  0.50009200  0.99989800  0.74990100  1
  Mn  Mn1  1  0.49990800  0.00010200  0.25009900  1
  Mn  Mn2  1  0.50000000  0.00000000  0.50000000  1
  Fe  Fe0  1  0.87973100  0.75992600  0.81188500  1
  Fe  Fe1  1  0.87980600  0.76023000  0.31200800  1
  Fe  Fe2  1  0.12295700  0.24325100  0.93742800  1
  Fe  Fe3  1  0.11958100  0.23961400  0.43802600  1
  Fe  Fe4  1  0.12019400  0.23977000  0.68799200  1
  Fe  Fe5  1  0.12026900  0.24007400  0.18811500  1
  Fe  Fe6  1  0.88041900  0.76038600  0.56197400  1
  Fe  Fe7  1  0.87704300  0.75674900  0.06257200  1
  F  F0  1  0.73757900  0.82791600  0.75866700  1
  F  F1  1  0.73746300  0.82790400  0.25874300  1
  F  F2  1  0.92484800  0.17742100  0.99108500  1
  F  F3  1  0.91009200  0.17219100  0.49115200  1
  F  F4  1  0.26253700  0.17209600  0.74125700  1
  F  F5  1  0.26242100  0.17208400  0.24133300  1
  F  F6  1  0.08990800  0.82780900  0.50884800  1
  F  F7  1  0.07515200  0.82257900  0.00891500  1
  F  F8  1  0.59910000  0.75362300  0.85059300  1
  F  F9  1  0.59970600  0.75475800  0.35128200  1
  F  F10  1  0.84316100  0.24559200  0.89864300  1
  F  F11  1  0.84417100  0.24524100  0.39862800  1
  F  F12  1  0.40029400  0.24524200  0.64871800  1
  F  F13  1  0.40090000  0.24637700  0.14940700  1
  F  F14  1  0.15582900  0.75475900  0.60137200  1
  F  F15  1  0.15683900  0.75440800  0.10135700  1
  F  F16  1  0.90425500  0.01700000  0.57788500  1
  F  F17  1  0.89860500  0.01508600  0.07721800  1
  F  F18  1  0.88733400  0.98304900  0.67214800  1
  F  F19  1  0.88799500  0.98285800  0.17222800  1
  F  F20  1  0.10139500  0.98491400  0.92278200  1
  F  F21  1  0.09574500  0.98300000  0.42211500  1
  F  F22  1  0.11200500  0.01714200  0.82777200  1
  F  F23  1  0.11266600  0.01695100  0.32785200  1
  F  F24  1  0.57238000  0.74054400  0.52384700  1
  F  F25  1  0.56788900  0.73204400  0.02446000  1
  F  F26  1  0.83259200  0.25954200  0.72605200  1
  F  F27  1  0.83224900  0.25939600  0.22607600  1
  F  F28  1  0.43211100  0.26795600  0.97554000  1
  F  F29  1  0.42762000  0.25945600  0.47615300  1
  F  F30  1  0.16775100  0.74060400  0.77392400  1
  F  F31  1  0.16740800  0.74045800  0.27394800  1
  F  F32  1  0.69093500  0.49646800  0.79583000  1
  F  F33  1  0.69082300  0.49688400  0.29590000  1
  F  F34  1  0.19361000  0.50589900  0.95366300  1
  F  F35  1  0.19399500  0.50299500  0.45407700  1
  F  F36  1  0.30917700  0.50311600  0.70410000  1
  F  F37  1  0.30906500  0.50353200  0.20417000  1
  F  F38  1  0.80600500  0.49700500  0.54592300  1
  F  F39  1  0.80639000  0.49410100  0.04633700  1
  F  F40  1  0.37579800  0.32390400  0.88880300  1
  F  F41  1  0.37474400  0.32331600  0.38937000  1
  F  F42  1  0.05225700  0.67656200  0.86060900  1
  F  F43  1  0.05223900  0.67664300  0.36074400  1
  F  F44  1  0.62525600  0.67668400  0.61063000  1
  F  F45  1  0.62420200  0.67609600  0.11119700  1
  F  F46  1  0.94776100  0.32335700  0.63925600  1
  F  F47  1  0.94774300  0.32343800  0.13939100  1
  F  F48  1  0.54366900  0.87961900  0.93527600  1
  F  F49  1  0.53825700  0.88715300  0.43879300  1
  F  F50  1  0.65204000  0.11344200  0.81100400  1
  F  F51  1  0.65111100  0.11289500  0.31128100  1
  F  F52  1  0.46174300  0.11284700  0.56120700  1
  F  F53  1  0.45633100  0.12038100  0.06472400  1
  F  F54  1  0.34888900  0.88710500  0.68871900  1
  F  F55  1  0.34796000  0.88655800  0.18899600  1
loop_
_geom_bond_atom_site_label_1
_geom_bond_atom_site_label_2
_geom_bond_distance
_geom_bond_site_symmetry_2
Ba0 F50 2.704030 1_455
Ba0 F22 2.722068 1_555
Ba0 F40 2.800421 1_555
Ba0 F4 2.826105 1_555
Ba0 F32 2.836824 1_555
Ba0 F42 2.871243 1_555
Ba0 F30 2.927412 1_555
Ba0 F32 2.951702 1_455
Ba0 F26 3.032000 1_455
Ba0 F10 3.138801 1_455
Ba0 F8 3.216466 1_555
Ba1 F51 2.706426 1_455
Ba1 F23 2.720483 1_555
Ba1 F41 2.808771 1_555
Ba1 F5 2.826445 1_555
Ba1 F33 2.838102 1_555
Ba1 F43 2.873701 1_555
Ba1 F31 2.932066 1_555
Ba1 F33 2.955417 1_455
Ba1 F27 3.035720 1_455
Ba1 F11 3.130505 1_455
Ba1 F9 3.231837 1_555
Ba2 F48 2.645255 1_555
Ba2 F20 2.745617 1_655
Ba2 F7 2.801151 1_656
Ba2 F42 2.803223 1_655
Ba2 F34 2.814449 1_655
Ba2 F40 2.852931 1_555
Ba2 F28 2.875859 1_555
Ba2 F34 2.964138 1_555
Ba2 F25 3.071238 1_556
Ba2 F8 3.121308 1_555
Ba2 F10 3.209176 1_555
Ba3 F49 2.705016 1_555
Ba3 F21 2.722192 1_655
Ba3 F43 2.817498 1_655
Ba3 F6 2.822718 1_655
Ba3 F35 2.833789 1_655
Ba3 F41 2.868864 1_555
Ba3 F29 2.937498 1_555
Ba3 F35 2.960597 1_555
Ba3 F24 3.046097 1_555
Ba3 F9 3.119899 1_555
Ba3 F11 3.233751 1_555
Ba4 F54 2.706426 1_655
Ba4 F18 2.720483 1_555
Ba4 F44 2.808771 1_555
Ba4 F0 2.826445 1_555
Ba4 F36 2.838102 1_555
Ba4 F46 2.873701 1_555
Ba4 F26 2.932066 1_555
Ba4 F36 2.955417 1_655
Ba4 F30 3.035720 1_655
Ba4 F14 3.130505 1_655
Ba4 F12 3.231837 1_555
Ba5 F55 2.704030 1_655
Ba5 F19 2.722068 1_555
Ba5 F45 2.800421 1_555
Ba5 F1 2.826105 1_555
Ba5 F37 2.836824 1_555
Ba5 F47 2.871243 1_555
Ba5 F27 2.927412 1_555
Ba5 F37 2.951702 1_655
Ba5 F31 3.032000 1_655
Ba5 F15 3.138801 1_655
Ba5 F13 3.216466 1_555
Ba6 F52 2.705016 1_555
Ba6 F16 2.722192 1_455
Ba6 F46 2.817498 1_455
Ba6 F3 2.822718 1_455
Ba6 F38 2.833789 1_455
Ba6 F44 2.868864 1_555
Ba6 F24 2.937498 1_555
Ba6 F38 2.960597 1_555
Ba6 F29 3.046097 1_555
Ba6 F12 3.119899 1_555
Ba6 F14 3.233751 1_555
Ba7 F53 2.645255 1_555
Ba7 F17 2.745617 1_455
Ba7 F2 2.801151 1_454
Ba7 F47 2.803223 1_455
Ba7 F39 2.814449 1_455
Ba7 F45 2.852931 1_555
Ba7 F25 2.875859 1_555
Ba7 F39 2.964138 1_555
Ba7 F28 3.071238 1_554
Ba7 F13 3.121308 1_555
Ba7 F15 3.209176 1_555
Ca0 F48 2.230542 1_555
Ca0 F50 2.255588 1_565
Ca0 F22 2.362434 1_565
Ca0 F8 2.374300 1_555
Ca0 F10 2.382204 1_565
Ca0 F20 2.392635 1_555
Ca0 F42 2.623122 1_555
Ca0 F40 2.645761 1_565
Ca1 F49 2.262529 1_555
Ca1 F51 2.266693 1_565
Ca1 F11 2.369438 1_565
Ca1 F9 2.375322 1_555
Ca1 F23 2.375549 1_565
Ca1 F21 2.385302 1_555
Ca1 F43 2.633647 1_555
Ca1 F41 2.636823 1_565
Ca2 F52 2.262529 1_555
Ca2 F54 2.266693 1_545
Ca2 F14 2.369438 1_545
Ca2 F12 2.375322 1_555
Ca2 F18 2.375549 1_545
Ca2 F16 2.385302 1_555
Ca2 F46 2.633647 1_555
Ca2 F44 2.636823 1_545
Ca3 F53 2.230542 1_555
Ca3 F55 2.255588 1_545
Ca3 F19 2.362434 1_545
Ca3 F13 2.374300 1_555
Ca3 F15 2.382204 1_545
Ca3 F17 2.392635 1_555
Ca3 F47 2.623122 1_555
Ca3 F45 2.645761 1_545
Ca4 F53 2.209139 1_555
Ca4 F48 2.209139 1_544
Ca4 F2 2.239979 1_554
Ca4 F7 2.239979 1_545
Ca4 F28 2.315129 1_554
Ca4 F25 2.315129 1_545
F0 Fe0 1.955843 1_555
F0 Mn0 2.158089 1_555
F1 Fe1 1.956551 1_555
F1 Mn1 2.159228 1_565
F2 Fe2 1.941830 1_655
F3 Fe3 1.958856 1_655
F3 Mn2 2.164790 1_555
F4 Fe4 1.956551 1_555
F4 Mn0 2.159228 1_545
F5 Fe5 1.955843 1_555
F5 Mn1 2.158089 1_555
F6 Fe6 1.958856 1_455
F6 Mn2 2.164790 1_565
F7 Fe7 1.941830 1_455
F8 Fe0 1.928969 1_555
F9 Fe1 1.939000 1_555
F10 Fe2 1.936258 1_655
F11 Fe3 1.936653 1_655
F12 Fe4 1.939000 1_555
F13 Fe5 1.928969 1_555
F14 Fe6 1.936653 1_455
F15 Fe7 1.936258 1_455
F16 Fe6 1.937736 1_545
F17 Fe7 1.945512 1_545
F18 Fe4 1.937406 1_665
F19 Fe5 1.939572 1_665
F20 Fe2 1.945512 1_565
F21 Fe3 1.937736 1_565
F22 Fe0 1.939572 1_445
F23 Fe1 1.937406 1_445
F24 Fe6 2.002057 1_555
F24 Mn2 2.260833 1_565
F25 Fe7 1.998161 1_555
F26 Fe4 2.006318 1_655
F26 Mn0 2.267741 1_545
F27 Fe5 2.005246 1_655
F27 Mn1 2.267630 1_555
F28 Fe2 1.998161 1_555
F29 Fe3 2.002057 1_555
F29 Mn2 2.260833 1_555
F30 Fe0 2.005246 1_455
F30 Mn0 2.267630 1_555
F31 Fe1 2.006318 1_455
F31 Mn1 2.267741 1_565
F32 Fe0 1.924038 1_555
F33 Fe1 1.923880 1_555
F34 Fe2 1.923556 1_555
F35 Fe3 1.924009 1_555
F36 Fe4 1.923880 1_555
F37 Fe5 1.924038 1_555
F38 Fe6 1.924009 1_555
F39 Fe7 1.923556 1_555
F40 Fe2 1.983978 1_555
F41 Fe3 1.993841 1_555
F42 Fe0 1.989339 1_455
F43 Fe1 1.990162 1_455
F44 Fe6 1.993841 1_555
F45 Fe7 1.983978 1_555
F46 Fe4 1.990162 1_655
F47 Fe5 1.989339 1_655
F49 Mn2 2.081646 1_565
F50 Mn0 2.077349 1_545
F51 Mn1 2.077106 1_555
F52 Mn2 2.081646 1_555
F54 Mn0 2.077106 1_555
F55 Mn1 2.077349 1_565
