# generated using pymatgen
data_CeSi2Ni
_symmetry_space_group_name_H-M   'P 1'
_cell_length_a   4.03389838
_cell_length_b   4.10860717
_cell_length_c   8.40804611
_cell_angle_alpha   104.14199809
_cell_angle_beta   90.00000000
_cell_angle_gamma   90.00000000
_symmetry_Int_Tables_number   1
_chemical_formula_structural   CeSi2Ni
_chemical_formula_sum   'Ce2 Si4 Ni2'
_cell_volume   135.12913636
_cell_formula_units_Z   2
loop_
 _symmetry_equiv_pos_site_id
 _symmetry_equiv_pos_as_xyz
  1  'x, y, z'
loop_
 _atom_site_type_symbol
 _atom_site_label
 _atom_site_symmetry_multiplicity
 _atom_site_fract_x
 _atom_site_fract_y
 _atom_site_fract_z
 _atom_site_occupancy
  Ce  Ce0  1  0.25000000  0.89335068  0.78670135  1
  Ce  Ce1  1  0.75000000  0.10664932  0.21329865  1
  Si  Si0  1  0.25000000  0.24939437  0.49878873  1
  Si  Si1  1  0.75000000  0.75060563  0.50121127  1
  Si  Si2  1  0.75000000  0.45976270  0.91952641  1
  Si  Si3  1  0.25000000  0.54023730  0.08047359  1
  Ni  Ni0  1  0.75000000  0.31913103  0.63826405  1
  Ni  Ni1  1  0.25000000  0.68086897  0.36173595  1
loop_
_geom_bond_atom_site_label_1
_geom_bond_atom_site_label_2
_geom_bond_distance
_geom_bond_site_symmetry_2
Ce0 Si2 3.075878 1_465
Ce0 Si2 3.075878 1_565
Ce0 Si2 3.075881 1_455
Ce0 Si2 3.075881 1_555
Ce0 Si1 3.079953 1_555
Ce0 Si1 3.079953 1_455
Ce0 Si0 3.119379 1_565
Ce0 Si0 3.119379 1_555
Ce0 Ni0 3.122966 1_565
Ce0 Ni0 3.122966 1_465
Ce0 Ni0 3.122972 1_455
Ce0 Ni0 3.122972 1_555
Ce0 Si3 3.155486 1_556
Ce0 Si3 3.155489 1_566
Ce1 Si3 3.075878 1_645
Ce1 Si3 3.075878 1_545
Ce1 Si3 3.075881 1_555
Ce1 Si3 3.075881 1_655
Ce1 Si0 3.079953 1_555
Ce1 Si0 3.079953 1_655
Ce1 Si1 3.119379 1_545
Ce1 Si1 3.119379 1_555
Ce1 Ni1 3.122966 1_545
Ce1 Ni1 3.122966 1_645
Ce1 Ni1 3.122972 1_555
Ce1 Ni1 3.122972 1_655
Ce1 Si2 3.155486 1_554
Ce1 Si2 3.155489 1_544
Si2 Si3 2.406253 1_656
Si2 Si3 2.406253 1_556
Ni0 Si2 2.293195 1_555
Ni0 Si0 2.315437 1_555
Ni0 Si0 2.315437 1_655
Ni0 Si1 2.338542 1_545
Ni0 Si1 2.338549 1_555
Ni1 Si3 2.293195 1_555
Ni1 Si1 2.315437 1_455
Ni1 Si1 2.315437 1_555
Ni1 Si0 2.338542 1_565
Ni1 Si0 2.338549 1_555
