# generated using pymatgen
data_K2LiAlF6
_symmetry_space_group_name_H-M   'P 1'
_cell_length_a   9.63592071
_cell_length_b   9.63592079
_cell_length_c   9.63592200
_cell_angle_alpha   33.52089344
_cell_angle_beta   33.52088769
_cell_angle_gamma   33.52088623
_symmetry_Int_Tables_number   1
_chemical_formula_structural   K2LiAlF6
_chemical_formula_sum   'K4 Li2 Al2 F12'
_cell_volume   243.02664656
_cell_formula_units_Z   2
loop_
 _symmetry_equiv_pos_site_id
 _symmetry_equiv_pos_as_xyz
  1  'x, y, z'
loop_
 _atom_site_type_symbol
 _atom_site_label
 _atom_site_symmetry_multiplicity
 _atom_site_fract_x
 _atom_site_fract_y
 _atom_site_fract_z
 _atom_site_occupancy
  K  K0  1  0.71895178  0.71895180  0.71895184  1
  K  K1  1  0.28104823  0.28104824  0.28104830  1
  K  K2  1  0.87233003  0.87232960  0.87233011  1
  K  K3  1  0.12767002  0.12767004  0.12767017  1
  Li  Li0  1  0.59715607  0.59715551  0.59715510  1
  Li  Li1  1  0.40284451  0.40284434  0.40284444  1
  Al  Al0  1  0.50000000  0.50000002  0.49999997  1
  Al  Al1  1  -0.00000005  0.00000003  0.00000002  1
  F  F0  1  0.19258089  0.19258073  0.72878276  1
  F  F1  1  0.19258098  0.72878272  0.19258068  1
  F  F2  1  0.72878282  0.19258078  0.19258072  1
  F  F3  1  0.27121727  0.80741921  0.80741918  1
  F  F4  1  0.61018562  0.16094933  0.61018573  1
  F  F5  1  0.61018561  0.61018573  0.16094942  1
  F  F6  1  0.16094925  0.61018575  0.61018579  1
  F  F7  1  0.83905049  0.38981451  0.38981424  1
  F  F8  1  0.38981427  0.83905060  0.38981439  1
  F  F9  1  0.38981409  0.38981435  0.83905075  1
  F  F10  1  0.80741905  0.27121725  0.80741931  1
  F  F11  1  0.80741906  0.80741948  0.27121709  1
loop_
_geom_bond_atom_site_label_1
_geom_bond_atom_site_label_2
_geom_bond_distance
_geom_bond_site_symmetry_2
Al0 F7 1.800126 1_555
Al0 F8 1.800126 1_555
Al0 F5 1.800127 1_555
Al0 F6 1.800127 1_555
Al0 F4 1.800127 1_555
Al0 F9 1.800127 1_555
Al1 F2 1.812843 1_455
Al1 F11 1.812843 1_445
Al1 F3 1.812843 1_544
Al1 F0 1.812843 1_554
Al1 F10 1.812844 1_454
Al1 F1 1.812844 1_545
F0 Li1 1.923170 1_555
F0 K0 2.808341 1_545
F0 K0 2.808342 1_455
F0 K3 2.862046 1_556
F0 K1 3.002329 1_555
F1 Li1 1.923171 1_555
F1 K0 2.808341 1_554
F1 K0 2.808343 1_455
F1 K3 2.862046 1_565
F1 K1 3.002329 1_555
F2 Li1 1.923171 1_555
F2 K0 2.808342 1_554
F2 K0 2.808343 1_545
F2 K3 2.862046 1_655
F2 K1 3.002329 1_555
F3 Li0 1.923173 1_555
F3 K1 2.808342 1_565
F3 K1 2.808342 1_556
F3 K2 2.862046 1_455
F3 K0 3.002330 1_555
F4 Li1 2.131296 1_555
F4 K0 2.698602 1_545
F4 K2 2.776339 1_545
F4 K3 2.783530 1_655
F4 K3 2.783531 1_556
F5 Li1 2.131296 1_555
F5 K0 2.698603 1_554
F5 K2 2.776337 1_554
F5 K3 2.783530 1_565
F5 K3 2.783530 1_655
F6 Li1 2.131297 1_555
F6 K0 2.698603 1_455
F6 K2 2.776336 1_455
F6 K3 2.783531 1_565
F6 K3 2.783531 1_556
F7 Li0 2.131294 1_555
F7 K1 2.698604 1_655
F7 K3 2.776338 1_655
F7 K2 2.783529 1_554
F7 K2 2.783533 1_545
F8 Li0 2.131296 1_555
F8 K1 2.698604 1_565
F8 K3 2.776338 1_565
F8 K2 2.783530 1_455
F8 K2 2.783531 1_554
F9 Li0 2.131298 1_555
F9 K1 2.698605 1_556
F9 K3 2.776337 1_556
F9 K2 2.783528 1_455
F9 K2 2.783532 1_545
F10 Li0 1.923170 1_555
F10 K1 2.808341 1_556
F10 K1 2.808342 1_655
F10 K2 2.862047 1_545
F10 K0 3.002330 1_555
F11 Li0 1.923169 1_555
F11 K1 2.808340 1_565
F11 K1 2.808342 1_655
F11 K2 2.862046 1_554
F11 K0 3.002331 1_555
