# generated using pymatgen
data_K2Re
_symmetry_space_group_name_H-M   'P 1'
_cell_length_a   9.46904790
_cell_length_b   9.46904790
_cell_length_c   4.88149500
_cell_angle_alpha   90.00000000
_cell_angle_beta   90.00000000
_cell_angle_gamma   119.99999929
_symmetry_Int_Tables_number   1
_chemical_formula_structural   K2Re
_chemical_formula_sum   'K6 Re3'
_cell_volume   379.04965910
_cell_formula_units_Z   3
loop_
 _symmetry_equiv_pos_site_id
 _symmetry_equiv_pos_as_xyz
  1  'x, y, z'
loop_
 _atom_site_type_symbol
 _atom_site_label
 _atom_site_symmetry_multiplicity
 _atom_site_fract_x
 _atom_site_fract_y
 _atom_site_fract_z
 _atom_site_occupancy
  K  K0  1  0.41065900  0.41065900  0.00000000  1
  K  K1  1  0.58934100  0.00000000  0.00000000  1
  K  K2  1  0.00000000  0.58934100  0.00000000  1
  K  K3  1  0.74258000  0.74258000  0.50000000  1
  K  K4  1  0.25742000  0.00000000  0.50000000  1
  K  K5  1  0.00000000  0.25742000  0.50000000  1
  Re  Re0  1  0.00000000  0.00000000  0.00000000  1
  Re  Re1  1  0.66666700  0.33333300  0.50000000  1
  Re  Re2  1  0.33333300  0.66666700  0.50000000  1
loop_
_geom_bond_atom_site_label_1
_geom_bond_atom_site_label_2
_geom_bond_distance
_geom_bond_site_symmetry_2
K0 Re2 3.760965 1_554
K0 Re1 3.760965 1_554
K0 Re1 3.760965 1_555
K0 Re2 3.760965 1_555
K0 Re0 3.888550 1_555
K1 Re1 3.760958 1_555
K1 Re1 3.760958 1_554
K1 Re2 3.760960 1_544
K1 Re2 3.760960 1_545
K1 Re0 3.888550 1_655
K2 Re2 3.760958 1_555
K2 Re2 3.760958 1_554
K2 Re1 3.760960 1_455
K2 Re1 3.760960 1_454
K2 Re0 3.888550 1_565
K3 Re0 3.449458 1_665
K3 Re0 3.449458 1_666
K3 Re2 3.570455 1_555
K3 Re1 3.570455 1_555
K4 Re0 3.449458 1_555
K4 Re0 3.449458 1_556
K4 Re2 3.570446 1_545
K4 Re1 3.570452 1_555
K5 Re0 3.449458 1_555
K5 Re0 3.449458 1_556
K5 Re1 3.570446 1_455
K5 Re2 3.570452 1_555
