# generated using pymatgen
data_Li2Ti2(PO4)3
_symmetry_space_group_name_H-M   'P 1'
_cell_length_a   8.68036700
_cell_length_b   8.76773200
_cell_length_c   12.15972600
_cell_angle_alpha   90.00000000
_cell_angle_beta   90.00000000
_cell_angle_gamma   90.00000000
_symmetry_Int_Tables_number   1
_chemical_formula_structural   Li2Ti2(PO4)3
_chemical_formula_sum   'Li8 Ti8 P12 O48'
_cell_volume   925.44186590
_cell_formula_units_Z   4
loop_
 _symmetry_equiv_pos_site_id
 _symmetry_equiv_pos_as_xyz
  1  'x, y, z'
loop_
 _atom_site_type_symbol
 _atom_site_label
 _atom_site_symmetry_multiplicity
 _atom_site_fract_x
 _atom_site_fract_y
 _atom_site_fract_z
 _atom_site_occupancy
  Li  Li0  1  0.71426300  0.72005900  0.18121600  1
  Li  Li1  1  0.78573700  0.22005900  0.31878400  1
  Li  Li2  1  0.78573700  0.27994100  0.68121600  1
  Li  Li3  1  0.71426300  0.77994100  0.81878400  1
  Li  Li4  1  0.28573700  0.27994100  0.81878400  1
  Li  Li5  1  0.21426300  0.77994100  0.68121600  1
  Li  Li6  1  0.21426300  0.72005900  0.31878400  1
  Li  Li7  1  0.28573700  0.22005900  0.18121600  1
  Ti  Ti0  1  0.74741400  0.53835600  0.38806100  1
  Ti  Ti1  1  0.75258600  0.03835600  0.11193900  1
  Ti  Ti2  1  0.75258600  0.46164400  0.88806100  1
  Ti  Ti3  1  0.74741400  0.96164400  0.61193900  1
  Ti  Ti4  1  0.25258600  0.46164400  0.61193900  1
  Ti  Ti5  1  0.24741400  0.96164400  0.88806100  1
  Ti  Ti6  1  0.24741400  0.53835600  0.11193900  1
  Ti  Ti7  1  0.25258600  0.03835600  0.38806100  1
  P  P0  1  0.46055300  0.75000000  0.50000000  1
  P  P1  1  0.03944700  0.25000000  0.00000000  1
  P  P2  1  0.53944700  0.25000000  0.50000000  1
  P  P3  1  0.96055300  0.75000000  0.00000000  1
  P  P4  1  0.89552600  0.89402900  0.35255400  1
  P  P5  1  0.60447400  0.39402900  0.14744600  1
  P  P6  1  0.60447400  0.10597100  0.85255400  1
  P  P7  1  0.89552600  0.60597100  0.64744600  1
  P  P8  1  0.10447400  0.10597100  0.64744600  1
  P  P9  1  0.39552600  0.60597100  0.85255400  1
  P  P10  1  0.39552600  0.89402900  0.14744600  1
  P  P11  1  0.10447400  0.39402900  0.35255400  1
  O  O0  1  0.64651600  0.33727600  0.41968900  1
  O  O1  1  0.85348400  0.83727600  0.08031100  1
  O  O2  1  0.85348400  0.66272400  0.91968900  1
  O  O3  1  0.64651600  0.16272400  0.58031100  1
  O  O4  1  0.35348400  0.66272400  0.58031100  1
  O  O5  1  0.14651600  0.16272400  0.91968900  1
  O  O6  1  0.14651600  0.33727600  0.08031100  1
  O  O7  1  0.35348400  0.83727600  0.41968900  1
  O  O8  1  0.55886100  0.64074100  0.43064900  1
  O  O9  1  0.94113900  0.14074100  0.06935100  1
  O  O10  1  0.94113900  0.35925900  0.93064900  1
  O  O11  1  0.55886100  0.85925900  0.56935100  1
  O  O12  1  0.44113900  0.35925900  0.56935100  1
  O  O13  1  0.05886100  0.85925900  0.93064900  1
  O  O14  1  0.05886100  0.64074100  0.06935100  1
  O  O15  1  0.44113900  0.14074100  0.43064900  1
  O  O16  1  0.84401600  0.56144800  0.53035900  1
  O  O17  1  0.65598400  0.06144800  0.96964100  1
  O  O18  1  0.65598400  0.43855200  0.03035900  1
  O  O19  1  0.84401600  0.93855200  0.46964100  1
  O  O20  1  0.15598400  0.43855200  0.46964100  1
  O  O21  1  0.34401600  0.93855200  0.03035900  1
  O  O22  1  0.34401600  0.56144800  0.96964100  1
  O  O23  1  0.15598400  0.06144800  0.53035900  1
  O  O24  1  0.67301500  0.51323000  0.22777300  1
  O  O25  1  0.82698500  0.01323000  0.27222700  1
  O  O26  1  0.82698500  0.48677000  0.72777300  1
  O  O27  1  0.67301500  0.98677000  0.77222700  1
  O  O28  1  0.32698500  0.48677000  0.77222700  1
  O  O29  1  0.17301500  0.98677000  0.72777300  1
  O  O30  1  0.17301500  0.51323000  0.27222700  1
  O  O31  1  0.32698500  0.01323000  0.22777300  1
  O  O32  1  0.83705700  0.73189800  0.32230500  1
  O  O33  1  0.66294300  0.23189800  0.17769500  1
  O  O34  1  0.66294300  0.26810200  0.82230500  1
  O  O35  1  0.83705700  0.76810200  0.67769500  1
  O  O36  1  0.16294300  0.26810200  0.67769500  1
  O  O37  1  0.33705700  0.76810200  0.82230500  1
  O  O38  1  0.33705700  0.73189800  0.17769500  1
  O  O39  1  0.16294300  0.23189800  0.32230500  1
  O  O40  1  0.92690000  0.39522700  0.34410800  1
  O  O41  1  0.57310000  0.89522700  0.15589200  1
  O  O42  1  0.57310000  0.60477300  0.84410800  1
  O  O43  1  0.92690000  0.10477300  0.65589200  1
  O  O44  1  0.07310000  0.60477300  0.65589200  1
  O  O45  1  0.42690000  0.10477300  0.84410800  1
  O  O46  1  0.42690000  0.39522700  0.15589200  1
  O  O47  1  0.07310000  0.89522700  0.34410800  1
loop_
_geom_bond_atom_site_label_1
_geom_bond_atom_site_label_2
_geom_bond_distance
_geom_bond_site_symmetry_2
Li0 O24 1.933181 1_555
Li0 O41 1.988733 1_555
Li0 O1 2.005528 1_555
Li0 O32 2.022426 1_555
Li1 O25 1.933181 1_555
Li1 O40 1.988733 1_555
Li1 O0 2.005528 1_555
Li1 O33 2.022426 1_555
Li2 O26 1.933181 1_555
Li2 O43 1.988733 1_555
Li2 O3 2.005528 1_555
Li2 O34 2.022426 1_555
Li3 O27 1.933181 1_555
Li3 O42 1.988733 1_555
Li3 O2 2.005528 1_555
Li3 O35 2.022426 1_555
Li4 O28 1.933181 1_555
Li4 O45 1.988733 1_555
Li4 O5 2.005528 1_555
Li4 O36 2.022426 1_555
Li5 O29 1.933181 1_555
Li5 O44 1.988733 1_555
Li5 O4 2.005528 1_555
Li5 O37 2.022426 1_555
Li6 O30 1.933181 1_555
Li6 O47 1.988733 1_555
Li6 O7 2.005528 1_555
Li6 O38 2.022426 1_555
Li7 O31 1.933181 1_555
Li7 O46 1.988733 1_555
Li7 O6 2.005528 1_555
Li7 O39 2.022426 1_555
O0 P2 1.550161 1_555
O0 Ti0 2.005795 1_555
O1 P3 1.550161 1_555
O1 Ti1 2.005795 1_565
O2 P3 1.550161 1_556
O2 Ti2 2.005795 1_555
O3 P2 1.550161 1_555
O3 Ti3 2.005795 1_545
O4 P0 1.550161 1_555
O4 Ti4 2.005795 1_555
O5 P1 1.550161 1_556
O5 Ti5 2.005795 1_545
O6 P1 1.550161 1_555
O6 Ti6 2.005795 1_555
O7 P0 1.550161 1_555
O7 Ti7 2.005795 1_565
O8 P0 1.535258 1_555
O8 Ti0 1.937223 1_555
O9 P1 1.535258 1_655
O9 Ti1 1.937223 1_555
O10 P1 1.535258 1_656
O10 Ti2 1.937223 1_555
O11 P0 1.535258 1_555
O11 Ti3 1.937223 1_555
O12 P2 1.535258 1_555
O12 Ti4 1.937223 1_555
O13 P3 1.535258 1_456
O13 Ti5 1.937223 1_555
O14 P3 1.535258 1_455
O14 Ti6 1.937223 1_555
O15 P2 1.535258 1_555
O15 Ti7 1.937223 1_555
O16 P7 1.542517 1_555
O16 Ti0 1.933416 1_555
O17 P6 1.542517 1_555
O17 Ti1 1.933416 1_556
O18 P5 1.542517 1_555
O18 Ti2 1.933416 1_554
O19 P4 1.542517 1_555
O19 Ti3 1.933416 1_555
O20 P11 1.542517 1_555
O20 Ti4 1.933416 1_555
O21 P10 1.542517 1_555
O21 Ti5 1.933416 1_554
O22 P9 1.542517 1_555
O22 Ti6 1.933416 1_556
O23 P8 1.542517 1_555
O23 Ti7 1.933416 1_555
O24 P5 1.549293 1_555
O24 Ti0 2.065050 1_555
O25 P4 1.549293 1_545
O25 Ti1 2.065050 1_555
O26 P7 1.549293 1_555
O26 Ti2 2.065050 1_555
O27 P6 1.549293 1_565
O27 Ti3 2.065050 1_555
O28 P9 1.549293 1_555
O28 Ti4 2.065050 1_555
O29 P8 1.549293 1_565
O29 Ti5 2.065050 1_555
O30 P11 1.549293 1_555
O30 Ti6 2.065050 1_555
O31 P10 1.549293 1_545
O31 Ti7 2.065050 1_555
O32 P4 1.553577 1_555
O32 Ti0 2.030853 1_555
O33 P5 1.553577 1_555
O33 Ti1 2.030853 1_555
O34 P6 1.553577 1_555
O34 Ti2 2.030853 1_555
O35 P7 1.553577 1_555
O35 Ti3 2.030853 1_555
O36 P8 1.553577 1_555
O36 Ti4 2.030853 1_555
O37 P9 1.553577 1_555
O37 Ti5 2.030853 1_555
O38 P10 1.553577 1_555
O38 Ti6 2.030853 1_555
O39 P11 1.553577 1_555
O39 Ti7 2.030853 1_555
O40 P11 1.544861 1_655
O40 Ti0 2.070709 1_555
O41 P10 1.544861 1_555
O41 Ti1 2.070709 1_565
O42 P9 1.544861 1_555
O42 Ti2 2.070709 1_555
O43 P8 1.544861 1_655
O43 Ti3 2.070709 1_545
O44 P7 1.544861 1_455
O44 Ti4 2.070709 1_555
O45 P6 1.544861 1_555
O45 Ti5 2.070709 1_545
O46 P5 1.544861 1_555
O46 Ti6 2.070709 1_555
O47 P4 1.544861 1_455
O47 Ti7 2.070709 1_565
