# generated using pymatgen
data_Y2MgMn2S2O5
_symmetry_space_group_name_H-M   'P 1'
_cell_length_a   11.83239944
_cell_length_b   11.59015377
_cell_length_c   11.71520546
_cell_angle_alpha   160.83651840
_cell_angle_beta   161.09619293
_cell_angle_gamma   27.01802128
_symmetry_Int_Tables_number   1
_chemical_formula_structural   Y2MgMn2S2O5
_chemical_formula_sum   'Y2 Mg1 Mn2 S2 O5'
_cell_volume   170.80743864
_cell_formula_units_Z   1
loop_
 _symmetry_equiv_pos_site_id
 _symmetry_equiv_pos_as_xyz
  1  'x, y, z'
loop_
 _atom_site_type_symbol
 _atom_site_label
 _atom_site_symmetry_multiplicity
 _atom_site_fract_x
 _atom_site_fract_y
 _atom_site_fract_z
 _atom_site_occupancy
  Y  Y0  1  0.25508300  0.39296100  0.99991200  1
  Y  Y1  1  0.61977300  0.68767700  0.00012600  1
  Mg  Mg0  1  0.80890900  0.00495500  0.00042000  1
  Mn  Mn0  1  0.05385200  0.09706700  0.99963800  1
  Mn  Mn1  1  0.31779200  0.59882100  0.00312000  1
  S  S0  1  0.15167300  0.23328900  0.00029700  1
  S  S1  1  0.71884600  0.84496600  0.99999700  1
  O  O0  1  0.00059200  0.98613200  0.99757500  1
  O  O1  1  0.56908900  0.11150400  0.49804200  1
  O  O2  1  0.78830900  0.48953700  0.48724700  1
  O  O3  1  0.07071500  0.61288000  0.50155000  1
  O  O4  1  0.30092200  0.00132200  0.51207600  1
loop_
_geom_bond_atom_site_label_1
_geom_bond_atom_site_label_2
_geom_bond_distance
_geom_bond_site_symmetry_2
Mg0 O4 1.947045 1_554
Mg0 O2 1.951463 1_555
Mg0 O4 1.958546 1_655
Mg0 O2 1.965401 1_544
Mg0 O0 2.107258 1_644
Mg0 S1 2.840337 1_544
Mn0 O0 1.845821 1_545
Mn0 O1 1.957331 1_455
Mn0 O3 1.962357 1_556
Mn0 O1 1.976381 1_556
Mn0 O3 1.981633 1_545
Mn0 S0 2.654908 1_556
Mn1 O0 2.076691 1_554
Mn1 O4 2.323550 1_565
Mn1 O2 2.327052 1_454
Mn1 O2 2.455326 1_555
Mn1 O4 2.473823 1_554
S0 Y1 2.873738 1_545
S0 Y1 2.878530 1_455
S0 Y1 2.879259 1_444
S0 Y1 2.879696 1_556
S0 Y0 2.997124 1_554
S1 Y0 2.890558 1_565
S1 Y0 2.903763 1_666
S1 Y0 2.905694 1_554
S1 Y0 2.912232 1_655
S1 Y1 2.917837 1_556
O1 Y1 2.398706 1_545
O1 Y1 2.409868 1_556
O2 Y0 2.451319 1_554
O2 Y0 2.598038 1_655
O3 Y1 2.396612 1_556
O3 Y1 2.408671 1_455
O4 Y0 2.455755 1_555
O4 Y0 2.596849 1_544
