# generated using pymatgen
data_ZnFeO3
_symmetry_space_group_name_H-M   'P 1'
_cell_length_a   5.15640500
_cell_length_b   5.20540700
_cell_length_c   7.58882500
_cell_angle_alpha   90.00000000
_cell_angle_beta   90.00000000
_cell_angle_gamma   90.00000000
_symmetry_Int_Tables_number   1
_chemical_formula_structural   ZnFeO3
_chemical_formula_sum   'Zn4 Fe4 O12'
_cell_volume   203.69306852
_cell_formula_units_Z   4
loop_
 _symmetry_equiv_pos_site_id
 _symmetry_equiv_pos_as_xyz
  1  'x, y, z'
loop_
 _atom_site_type_symbol
 _atom_site_label
 _atom_site_symmetry_multiplicity
 _atom_site_fract_x
 _atom_site_fract_y
 _atom_site_fract_z
 _atom_site_occupancy
  Zn  Zn0  1  0.49693800  0.54465100  0.25000000  1
  Zn  Zn1  1  0.99693800  0.95534900  0.75000000  1
  Zn  Zn2  1  0.00306200  0.04465100  0.25000000  1
  Zn  Zn3  1  0.50306200  0.45534900  0.75000000  1
  Fe  Fe0  1  0.00000000  0.50000000  0.00000000  1
  Fe  Fe1  1  0.50000000  0.00000000  0.00000000  1
  Fe  Fe2  1  0.50000000  0.00000000  0.50000000  1
  Fe  Fe3  1  0.00000000  0.50000000  0.50000000  1
  O  O0  1  0.37973100  0.06837500  0.75000000  1
  O  O1  1  0.87973100  0.43162500  0.25000000  1
  O  O2  1  0.12026900  0.56837500  0.75000000  1
  O  O3  1  0.62026900  0.93162500  0.25000000  1
  O  O4  1  0.18107100  0.81306900  0.43404700  1
  O  O5  1  0.68107100  0.68693100  0.56595300  1
  O  O6  1  0.31892900  0.31306900  0.06595300  1
  O  O7  1  0.81892900  0.18693100  0.93404700  1
  O  O8  1  0.18107100  0.81306900  0.06595300  1
  O  O9  1  0.68107100  0.68693100  0.93404700  1
  O  O10  1  0.81892900  0.18693100  0.56595300  1
  O  O11  1  0.31892900  0.31306900  0.43404700  1
loop_
_geom_bond_atom_site_label_1
_geom_bond_atom_site_label_2
_geom_bond_distance
_geom_bond_site_symmetry_2
Fe0 O7 1.943713 1_454
Fe0 O8 1.943713 1_555
Fe0 O9 1.975299 1_454
Fe0 O6 1.975299 1_555
Fe0 O1 2.027477 1_455
Fe0 O2 2.027477 1_554
Fe1 O6 1.943713 1_555
Fe1 O9 1.943713 1_544
Fe1 O8 1.975299 1_545
Fe1 O7 1.975299 1_554
Fe1 O3 2.027477 1_545
Fe1 O0 2.027477 1_554
Fe2 O11 1.943713 1_555
Fe2 O5 1.943713 1_545
Fe2 O4 1.975299 1_545
Fe2 O10 1.975299 1_555
Fe2 O0 2.027477 1_555
Fe2 O3 2.027477 1_545
Fe3 O10 1.943713 1_455
Fe3 O4 1.943713 1_555
Fe3 O5 1.975299 1_455
Fe3 O11 1.975299 1_555
Fe3 O1 2.027477 1_455
Fe3 O2 2.027477 1_555
O0 Zn1 2.059655 1_445
O0 Zn3 2.112359 1_555
O1 Zn0 2.059655 1_555
O1 Zn2 2.112359 1_655
O2 Zn3 2.059655 1_555
O2 Zn1 2.112359 1_455
O3 Zn2 2.059655 1_665
O3 Zn0 2.112359 1_555
O4 Zn2 2.060696 1_565
O5 Zn3 2.060696 1_555
O6 Zn0 2.060696 1_555
O7 Zn1 2.060696 1_545
O8 Zn2 2.060696 1_565
O9 Zn3 2.060696 1_555
O10 Zn1 2.060696 1_545
O11 Zn0 2.060696 1_555
