# generated using pymatgen
data_FePH5CO4
_symmetry_space_group_name_H-M   'P 1'
_cell_length_a   4.84573354
_cell_length_b   10.75680840
_cell_length_c   10.75509362
_cell_angle_alpha   65.42425581
_cell_angle_beta   89.15523894
_cell_angle_gamma   90.71031787
_symmetry_Int_Tables_number   1
_chemical_formula_structural   FePH5CO4
_chemical_formula_sum   'Fe4 P4 H20 C4 O16'
_cell_volume   509.66003039
_cell_formula_units_Z   4
loop_
 _symmetry_equiv_pos_site_id
 _symmetry_equiv_pos_as_xyz
  1  'x, y, z'
loop_
 _atom_site_type_symbol
 _atom_site_label
 _atom_site_symmetry_multiplicity
 _atom_site_fract_x
 _atom_site_fract_y
 _atom_site_fract_z
 _atom_site_occupancy
  Fe  Fe0  1  0.72227000  0.76232100  0.26231400  1
  Fe  Fe1  1  0.22352800  0.48719000  0.48652900  1
  Fe  Fe2  1  0.71665700  0.26362700  0.76364900  1
  Fe  Fe3  1  0.21758600  0.98749500  0.98647100  1
  P  P0  1  0.65368500  0.09209100  0.09650700  1
  P  P1  1  0.66112500  0.59416100  0.59520700  1
  P  P2  1  0.15829600  0.65520100  0.15515800  1
  P  P3  1  0.15247300  0.15640900  0.65531400  1
  H  H0  1  0.86171500  0.54915400  0.04989000  1
  H  H1  1  0.85621200  0.04827100  0.55060500  1
  H  H2  1  0.36085200  0.69853600  0.70121100  1
  H  H3  1  0.35647600  0.20098700  0.20029500  1
  H  H4  1  0.13700500  0.28188000  0.91940900  1
  H  H5  1  0.14082800  0.78106200  0.41773700  1
  H  H6  1  0.66124600  0.46917900  0.33550700  1
  H  H7  1  0.65340800  0.96943700  0.83389900  1
  H  H8  1  0.64204000  0.83320400  0.96744900  1
  H  H9  1  0.64660800  0.33317300  0.46870100  1
  H  H10  1  0.16185600  0.41358300  0.78233700  1
  H  H11  1  0.15943200  0.91326200  0.28041800  1
  H  H12  1  0.17254200  0.45619200  0.10728200  1
  H  H13  1  0.16774300  0.95590000  0.60957800  1
  H  H14  1  0.67180000  0.64235700  0.79454300  1
  H  H15  1  0.66772900  0.14414400  0.29321600  1
  H  H16  1  0.67341100  0.29593500  0.13729700  1
  H  H17  1  0.67562000  0.79543100  0.63988900  1
  H  H18  1  0.17721700  0.60994900  0.95360200  1
  H  H19  1  0.17306900  0.10922600  0.45553800  1
  C  C0  1  0.58554600  0.69208800  0.69213400  1
  C  C1  1  0.58082900  0.19318300  0.19078600  1
  C  C2  1  0.08606100  0.55846300  0.05682000  1
  C  C3  1  0.08021500  0.05791900  0.55848500  1
  O  O0  1  0.02815100  0.35566600  0.85333300  1
  O  O1  1  0.02806000  0.85283900  0.35159100  1
  O  O2  1  0.53162000  0.39791400  0.39680600  1
  O  O3  1  0.52605800  0.89740500  0.89581900  1
  O  O4  1  0.47011300  0.66951400  0.16453700  1
  O  O5  1  0.46435300  0.16833200  0.66590900  1
  O  O6  1  0.97324600  0.58611000  0.58044200  1
  O  O7  1  0.96593000  0.08391500  0.08206100  1
  O  O8  1  0.50981200  0.15984000  0.95399700  1
  O  O9  1  0.51515900  0.66326300  0.45395300  1
  O  O10  1  0.01453300  0.79737900  0.08427800  1
  O  O11  1  0.01318400  0.29896600  0.58200100  1
  O  O12  1  0.00909300  0.58203100  0.29785300  1
  O  O13  1  0.00076500  0.08609900  0.79827300  1
  O  O14  1  0.51592000  0.45024600  0.66934500  1
  O  O15  1  0.50571900  0.94947400  0.17202800  1
loop_
_geom_bond_atom_site_label_1
_geom_bond_atom_site_label_2
_geom_bond_distance
_geom_bond_site_symmetry_2
Fe0 O4 2.115741 1_555
Fe0 O9 2.115761 1_555
Fe0 O15 2.133842 1_555
Fe0 O1 2.202160 1_655
Fe0 O10 2.262856 1_655
Fe0 O12 2.303216 1_655
Fe1 O11 2.093160 1_555
Fe1 O6 2.124417 1_455
Fe1 O12 2.145869 1_555
Fe1 O2 2.201394 1_555
Fe1 O9 2.252565 1_555
Fe1 O14 2.340411 1_555
Fe2 O14 2.094896 1_555
Fe2 O8 2.110154 1_555
Fe2 O5 2.133932 1_555
Fe2 O0 2.233632 1_655
Fe2 O13 2.273655 1_655
Fe2 O11 2.304740 1_655
Fe3 O10 2.094539 1_556
Fe3 O7 2.121574 1_466
Fe3 O13 2.151836 1_565
Fe3 O3 2.214243 1_555
Fe3 O8 2.223918 1_565
Fe3 O15 2.348797 1_556
H4 O0 0.982592 1_555
H5 O1 0.982787 1_555
H6 O2 0.986062 1_555
H7 O3 0.985647 1_555
H8 O3 0.982924 1_555
H9 O2 0.983752 1_555
H10 O0 0.985220 1_555
H11 O1 0.987512 1_555
C0 H14 1.096818 1_555
C0 H17 1.096888 1_555
C0 H2 1.097366 1_555
C0 P1 1.800602 1_555
C1 H15 1.097732 1_555
C1 H16 1.097756 1_555
C1 H3 1.097970 1_555
C1 P0 1.803167 1_555
C2 H12 1.096319 1_555
C2 H18 1.096486 1_554
C2 H0 1.096956 1_455
C2 P2 1.800353 1_555
C3 H13 1.096793 1_545
C3 H1 1.097000 1_455
C3 H19 1.097187 1_555
C3 P3 1.802445 1_555
O4 P2 1.525972 1_555
O5 P3 1.525074 1_555
O6 P1 1.525727 1_555
O7 P0 1.526089 1_555
O8 P0 1.575229 1_556
O9 P1 1.570414 1_555
O10 P2 1.574087 1_555
O11 P3 1.569841 1_555
O12 P2 1.563952 1_555
O13 P3 1.569103 1_555
O14 P1 1.567512 1_555
O15 P0 1.564095 1_565
