# generated using pymatgen
data_NaCo(PO3)3
_symmetry_space_group_name_H-M   'P 1'
_cell_length_a   12.79676348
_cell_length_b   12.79676348
_cell_length_c   12.79676348
_cell_angle_alpha   109.47122063
_cell_angle_beta   109.47122063
_cell_angle_gamma   109.47122063
_symmetry_Int_Tables_number   1
_chemical_formula_structural   NaCo(PO3)3
_chemical_formula_sum   'Na8 Co8 P24 O72'
_cell_volume   1613.16406255
_cell_formula_units_Z   8
loop_
 _symmetry_equiv_pos_site_id
 _symmetry_equiv_pos_as_xyz
  1  'x, y, z'
loop_
 _atom_site_type_symbol
 _atom_site_label
 _atom_site_symmetry_multiplicity
 _atom_site_fract_x
 _atom_site_fract_y
 _atom_site_fract_z
 _atom_site_occupancy
  Na  Na0  1  0.71956162  0.71956162  0.71956162  1
  Na  Na1  1  0.78043838  0.00000000  0.50000000  1
  Na  Na2  1  0.50000000  0.78043838  -0.00000000  1
  Na  Na3  1  0.21956162  0.21956162  0.21956162  1
  Na  Na4  1  0.00000000  0.50000000  0.78043838  1
  Na  Na5  1  0.28043838  -0.00000000  0.50000000  1
  Na  Na6  1  -0.00000000  0.50000000  0.28043838  1
  Na  Na7  1  0.50000000  0.28043838  0.00000000  1
  Co  Co0  1  0.96979788  0.96979788  0.96979788  1
  Co  Co1  1  0.53020212  0.00000000  0.50000000  1
  Co  Co2  1  0.50000000  0.53020212  0.00000000  1
  Co  Co3  1  0.46979788  0.46979788  0.46979788  1
  Co  Co4  1  -0.00000000  0.50000000  0.53020212  1
  Co  Co5  1  0.03020212  -0.00000000  0.50000000  1
  Co  Co6  1  -0.00000000  0.50000000  0.03020212  1
  Co  Co7  1  0.50000000  0.03020212  -0.00000000  1
  P  P0  1  0.50509528  0.71948546  0.44197679  1
  P  P1  1  0.99490472  0.93688151  0.71439018  1
  P  P2  1  0.22249133  0.78051454  0.78560982  1
  P  P3  1  0.71948546  0.44197679  0.50509528  1
  P  P4  1  0.00509528  0.94197679  0.21948546  1
  P  P5  1  0.27750867  0.56311849  0.05802321  1
  P  P6  1  0.93688151  0.71439018  0.99490472  1
  P  P7  1  0.49490472  0.21439018  0.43688151  1
  P  P8  1  0.78051454  0.78560982  0.22249133  1
  P  P9  1  0.72249133  0.28560982  0.28051454  1
  P  P10  1  0.56311849  0.05802321  0.27750867  1
  P  P11  1  0.77750867  0.55802321  0.06311849  1
  P  P12  1  0.44197679  0.50509528  0.71948546  1
  P  P13  1  0.21948546  0.00509528  0.94197679  1
  P  P14  1  0.78560982  0.22249133  0.78051454  1
  P  P15  1  0.28051454  0.72249133  0.28560982  1
  P  P16  1  0.05802321  0.27750867  0.56311849  1
  P  P17  1  0.06311849  0.77750867  0.55802321  1
  P  P18  1  0.71439018  0.99490472  0.93688151  1
  P  P19  1  0.43688151  0.49490472  0.21439018  1
  P  P20  1  0.94197679  0.21948546  0.00509528  1
  P  P21  1  0.21439018  0.43688151  0.49490472  1
  P  P22  1  0.55802321  0.06311849  0.77750867  1
  P  P23  1  0.28560982  0.28051454  0.72249133  1
  O  O0  1  0.58562859  0.85972872  0.49303349  1
  O  O1  1  0.91437141  0.90740490  0.77410012  1
  O  O2  1  0.13330477  0.64027128  0.72589988  1
  O  O3  1  0.85972872  0.49303349  0.58562859  1
  O  O4  1  0.08562859  0.99303349  0.35972872  1
  O  O5  1  0.36669523  0.59259510  0.00696651  1
  O  O6  1  0.90740490  0.77410012  0.91437141  1
  O  O7  1  0.41437141  0.27410012  0.40740490  1
  O  O8  1  0.64027128  0.72589988  0.13330477  1
  O  O9  1  0.63330477  0.22589988  0.14027128  1
  O  O10  1  0.59259510  0.00696651  0.36669523  1
  O  O11  1  0.86669523  0.50696651  0.09259510  1
  O  O12  1  0.49303349  0.58562859  0.85972872  1
  O  O13  1  0.35972872  0.08562859  0.99303349  1
  O  O14  1  0.72589988  0.13330477  0.64027128  1
  O  O15  1  0.14027128  0.63330477  0.22589988  1
  O  O16  1  0.00696651  0.36669523  0.59259510  1
  O  O17  1  0.09259510  0.86669523  0.50696651  1
  O  O18  1  0.77410012  0.91437141  0.90740490  1
  O  O19  1  0.40740490  0.41437141  0.27410012  1
  O  O20  1  0.99303349  0.35972872  0.08562859  1
  O  O21  1  0.27410012  0.40740490  0.41437141  1
  O  O22  1  0.50696651  0.09259510  0.86669523  1
  O  O23  1  0.22589988  0.14027128  0.63330477  1
  O  O24  1  0.52000869  0.64522326  0.32178727  1
  O  O25  1  0.97999131  0.80177857  0.62521457  1
  O  O26  1  0.17656401  0.85477674  0.87478543  1
  O  O27  1  0.64522326  0.32178727  0.52000869  1
  O  O28  1  0.02000869  0.82178727  0.14522326  1
  O  O29  1  0.32343599  0.69822143  0.17821273  1
  O  O30  1  0.80177857  0.62521457  0.97999131  1
  O  O31  1  0.47999131  0.12521457  0.30177857  1
  O  O32  1  0.85477674  0.87478543  0.17656401  1
  O  O33  1  0.67656401  0.37478543  0.35477674  1
  O  O34  1  0.69822143  0.17821273  0.32343599  1
  O  O35  1  0.82343599  0.67821273  0.19822143  1
  O  O36  1  0.32178727  0.52000869  0.64522326  1
  O  O37  1  0.14522326  0.02000869  0.82178727  1
  O  O38  1  0.87478543  0.17656401  0.85477674  1
  O  O39  1  0.35477674  0.67656401  0.37478543  1
  O  O40  1  0.17821273  0.32343599  0.69822143  1
  O  O41  1  0.19822143  0.82343599  0.67821273  1
  O  O42  1  0.62521457  0.97999131  0.80177857  1
  O  O43  1  0.30177857  0.47999131  0.12521457  1
  O  O44  1  0.82178727  0.14522326  0.02000869  1
  O  O45  1  0.12521457  0.30177857  0.47999131  1
  O  O46  1  0.67821273  0.19822143  0.82343599  1
  O  O47  1  0.37478543  0.35477674  0.67656401  1
  O  O48  1  0.66542442  0.52937318  0.52809329  1
  O  O49  1  0.83457558  0.86266887  0.36394876  1
  O  O50  1  0.49872011  0.97062682  0.13605124  1
  O  O51  1  0.52937318  0.52809329  0.66542442  1
  O  O52  1  0.16542442  0.02809329  0.02937318  1
  O  O53  1  0.00127989  0.63733113  0.97190671  1
  O  O54  1  0.86266887  0.36394876  0.83457558  1
  O  O55  1  0.33457558  0.86394876  0.36266887  1
  O  O56  1  0.97062682  0.13605124  0.49872011  1
  O  O57  1  0.99872011  0.63605124  0.47062682  1
  O  O58  1  0.63733113  0.97190671  0.00127989  1
  O  O59  1  0.50127989  0.47190671  0.13733113  1
  O  O60  1  0.52809329  0.66542442  0.52937318  1
  O  O61  1  0.02937318  0.16542442  0.02809329  1
  O  O62  1  0.13605124  0.49872011  0.97062682  1
  O  O63  1  0.47062682  0.99872011  0.63605124  1
  O  O64  1  0.97190671  0.00127989  0.63733113  1
  O  O65  1  0.13733113  0.50127989  0.47190671  1
  O  O66  1  0.36394876  0.83457558  0.86266887  1
  O  O67  1  0.36266887  0.33457558  0.86394876  1
  O  O68  1  0.02809329  0.02937318  0.16542442  1
  O  O69  1  0.86394876  0.36266887  0.33457558  1
  O  O70  1  0.47190671  0.13733113  0.50127989  1
  O  O71  1  0.63605124  0.47062682  0.99872011  1
loop_
_geom_bond_atom_site_label_1
_geom_bond_atom_site_label_2
_geom_bond_distance
_geom_bond_site_symmetry_2
Na0 O60 2.485056 1_555
Na0 O51 2.485056 1_555
Na0 O48 2.485056 1_555
Na0 O1 2.491320 1_555
Na0 O18 2.491320 1_555
Na0 O6 2.491320 1_555
Na1 O49 2.485056 1_545
Na1 O56 2.485056 1_555
Na1 O64 2.485056 1_555
Na1 O14 2.491320 1_555
Na1 O0 2.491320 1_545
Na1 O10 2.491320 1_555
Na2 O66 2.485056 1_554
Na2 O50 2.485056 1_555
Na2 O58 2.485056 1_555
Na2 O8 2.491320 1_555
Na2 O12 2.491320 1_554
Na2 O5 2.491320 1_555
Na3 O52 2.485056 1_555
Na3 O68 2.485056 1_555
Na3 O61 2.485056 1_555
Na3 O7 2.491320 1_555
Na3 O21 2.491320 1_555
Na3 O19 2.491320 1_555
Na4 O54 2.485056 1_455
Na4 O62 2.485056 1_555
Na4 O53 2.485056 1_555
Na4 O2 2.491320 1_555
Na4 O3 2.491320 1_455
Na4 O16 2.491320 1_555
Na5 O63 2.485056 1_545
Na5 O70 2.485056 1_555
Na5 O55 2.485056 1_545
Na5 O23 2.491320 1_555
Na5 O17 2.491320 1_545
Na5 O4 2.491320 1_545
Na6 O65 2.485056 1_555
Na6 O57 2.485056 1_455
Na6 O69 2.485056 1_455
Na6 O15 2.491320 1_555
Na6 O11 2.491320 1_455
Na6 O20 2.491320 1_455
Na7 O59 2.485056 1_555
Na7 O67 2.485056 1_554
Na7 O71 2.485056 1_554
Na7 O9 2.491320 1_555
Na7 O22 2.491320 1_554
Na7 O13 2.491320 1_554
Co0 O61 2.123244 1_666
Co0 O68 2.123244 1_666
Co0 O52 2.123244 1_666
Co0 O6 2.125410 1_555
Co0 O1 2.125410 1_555
Co0 O18 2.125410 1_555
Co1 O55 2.123244 1_545
Co1 O63 2.123244 1_545
Co1 O70 2.123244 1_555
Co1 O10 2.125410 1_555
Co1 O0 2.125410 1_545
Co1 O14 2.125410 1_555
Co2 O59 2.123244 1_555
Co2 O67 2.123244 1_554
Co2 O71 2.123244 1_554
Co2 O5 2.125410 1_555
Co2 O12 2.125410 1_554
Co2 O8 2.125410 1_555
Co3 O48 2.123244 1_555
Co3 O51 2.123244 1_555
Co3 O60 2.123244 1_555
Co3 O19 2.125410 1_555
Co3 O7 2.125410 1_555
Co3 O21 2.125410 1_555
Co4 O65 2.123244 1_555
Co4 O69 2.123244 1_455
Co4 O57 2.123244 1_455
Co4 O16 2.125410 1_555
Co4 O3 2.125410 1_455
Co4 O2 2.125410 1_555
Co5 O64 2.123244 1_455
Co5 O56 2.123244 1_455
Co5 O49 2.123244 1_445
Co5 O17 2.125410 1_545
Co5 O4 2.125410 1_545
Co5 O23 2.125410 1_555
Co6 O53 2.123244 1_554
Co6 O62 2.123244 1_554
Co6 O54 2.123244 1_454
Co6 O11 2.125410 1_455
Co6 O20 2.125410 1_455
Co6 O15 2.125410 1_555
Co7 O58 2.123244 1_545
Co7 O50 2.123244 1_545
Co7 O66 2.123244 1_544
Co7 O22 2.125410 1_554
Co7 O13 2.125410 1_554
Co7 O9 2.125410 1_555
O0 P0 1.498715 1_555
O1 P1 1.498715 1_555
O2 P2 1.498715 1_555
O3 P3 1.498715 1_555
O4 P4 1.498715 1_555
O5 P5 1.498715 1_555
O6 P6 1.498715 1_555
O7 P7 1.498715 1_555
O8 P8 1.498715 1_555
O9 P9 1.498715 1_555
O10 P10 1.498715 1_555
O11 P11 1.498715 1_555
O12 P12 1.498715 1_555
O13 P13 1.498715 1_555
O14 P14 1.498715 1_555
O15 P15 1.498715 1_555
O16 P16 1.498715 1_555
O17 P17 1.498715 1_555
O18 P18 1.498715 1_555
O19 P19 1.498715 1_555
O20 P20 1.498715 1_555
O21 P21 1.498715 1_555
O22 P22 1.498715 1_555
O23 P23 1.498715 1_555
O24 P19 1.618439 1_555
O24 P0 1.627039 1_555
O25 P17 1.618439 1_655
O25 P1 1.627039 1_555
O26 P13 1.618439 1_565
O26 P2 1.627039 1_555
O27 P7 1.618439 1_555
O27 P3 1.627039 1_555
O28 P6 1.618439 1_454
O28 P4 1.627039 1_555
O29 P15 1.618439 1_555
O29 P5 1.627039 1_555
O30 P11 1.618439 1_556
O30 P6 1.627039 1_555
O31 P10 1.618439 1_555
O31 P7 1.627039 1_555
O32 P4 1.618439 1_655
O32 P8 1.627039 1_555
O33 P3 1.618439 1_555
O33 P9 1.627039 1_555
O34 P9 1.618439 1_555
O34 P10 1.627039 1_555
O35 P8 1.618439 1_555
O35 P11 1.627039 1_555
O36 P21 1.618439 1_555
O36 P12 1.627039 1_555
O37 P1 1.618439 1_445
O37 P13 1.627039 1_555
O38 P20 1.618439 1_556
O38 P14 1.627039 1_555
O39 P0 1.618439 1_555
O39 P15 1.627039 1_555
O40 P23 1.618439 1_555
O40 P16 1.627039 1_555
O41 P2 1.618439 1_555
O41 P17 1.627039 1_555
O42 P22 1.618439 1_565
O42 P18 1.627039 1_555
O43 P5 1.618439 1_555
O43 P19 1.627039 1_555
O44 P18 1.618439 1_544
O44 P20 1.627039 1_555
O45 P16 1.618439 1_555
O45 P21 1.627039 1_555
O46 P14 1.618439 1_555
O46 P22 1.627039 1_555
O47 P12 1.618439 1_555
O47 P23 1.627039 1_555
O48 P3 1.499372 1_555
O49 P8 1.499372 1_555
O50 P10 1.499372 1_565
O51 P12 1.499372 1_555
O52 P13 1.499372 1_554
O53 P6 1.499372 1_455
O54 P14 1.499372 1_555
O55 P15 1.499372 1_555
O56 P16 1.499372 1_655
O57 P17 1.499372 1_655
O58 P18 1.499372 1_554
O59 P19 1.499372 1_555
O60 P0 1.499372 1_555
O61 P20 1.499372 1_455
O62 P5 1.499372 1_556
O63 P22 1.499372 1_565
O64 P1 1.499372 1_545
O65 P21 1.499372 1_555
O66 P2 1.499372 1_555
O67 P23 1.499372 1_555
O68 P4 1.499372 1_545
O69 P9 1.499372 1_555
O70 P7 1.499372 1_555
O71 P11 1.499372 1_556
