# generated using pymatgen
data_Na3H2OsO6
_symmetry_space_group_name_H-M   'P 1'
_cell_length_a   5.84949484
_cell_length_b   6.05179374
_cell_length_c   9.55856500
_cell_angle_alpha   90.00000000
_cell_angle_beta   90.00000000
_cell_angle_gamma   119.05727065
_symmetry_Int_Tables_number   1
_chemical_formula_structural   Na3H2OsO6
_chemical_formula_sum   'Na6 H4 Os2 O12'
_cell_volume   295.78321482
_cell_formula_units_Z   2
loop_
 _symmetry_equiv_pos_site_id
 _symmetry_equiv_pos_as_xyz
  1  'x, y, z'
loop_
 _atom_site_type_symbol
 _atom_site_label
 _atom_site_symmetry_multiplicity
 _atom_site_fract_x
 _atom_site_fract_y
 _atom_site_fract_z
 _atom_site_occupancy
  Na  Na0  1  0.98764500  0.01451800  0.75000000  1
  Na  Na1  1  0.01235500  0.98548200  0.25000000  1
  Na  Na2  1  0.54909100  0.25531600  0.57076100  1
  Na  Na3  1  0.45090900  0.74468400  0.07076100  1
  Na  Na4  1  0.45090900  0.74468400  0.42923900  1
  Na  Na5  1  0.54909100  0.25531600  0.92923900  1
  H  H0  1  0.02744100  0.75097900  0.53500500  1
  H  H1  1  0.97255900  0.24902100  0.03500500  1
  H  H2  1  0.97255900  0.24902100  0.46499500  1
  H  H3  1  0.02744100  0.75097900  0.96499500  1
  Os  Os0  1  0.22370800  0.62106900  0.75000000  1
  Os  Os1  1  0.77629200  0.37893100  0.25000000  1
  O  O0  1  0.87336600  0.48221300  0.75000000  1
  O  O1  1  0.12663400  0.51778700  0.25000000  1
  O  O2  1  0.54641300  0.89071800  0.75000000  1
  O  O3  1  0.45358700  0.10928200  0.25000000  1
  O  O4  1  0.25732900  0.42868600  0.61067200  1
  O  O5  1  0.74267100  0.57131400  0.11067200  1
  O  O6  1  0.74267100  0.57131400  0.38932800  1
  O  O7  1  0.25732900  0.42868600  0.88932800  1
  O  O8  1  0.18877500  0.85628500  0.58800800  1
  O  O9  1  0.81122500  0.14371500  0.08800800  1
  O  O10  1  0.81122500  0.14371500  0.41199200  1
  O  O11  1  0.18877500  0.85628500  0.91199200  1
loop_
_geom_bond_atom_site_label_1
_geom_bond_atom_site_label_2
_geom_bond_distance
_geom_bond_site_symmetry_2
Na0 O2 2.311809 1_545
Na0 O11 2.406885 1_645
Na0 O8 2.406885 1_645
Na0 O7 2.589161 1_655
Na0 O4 2.589161 1_655
Na1 O3 2.311809 1_565
Na1 O10 2.406885 1_465
Na1 O9 2.406885 1_465
Na1 O6 2.589161 1_455
Na1 O5 2.589161 1_455
Na2 O8 2.314515 1_545
Na2 O6 2.417323 1_555
Na2 O0 2.426676 1_555
Na2 O4 2.428662 1_555
Na2 O10 2.473133 1_555
Na2 O2 2.787557 1_545
Na3 O9 2.314515 1_565
Na3 O7 2.417323 1_554
Na3 O1 2.426676 1_555
Na3 O5 2.428662 1_555
Na3 O11 2.473133 1_554
Na3 O3 2.787557 1_565
Na4 O10 2.314515 1_565
Na4 O4 2.417323 1_555
Na4 O1 2.426676 1_555
Na4 O6 2.428662 1_555
Na4 O8 2.473133 1_555
Na4 O3 2.787557 1_565
Na5 O11 2.314515 1_545
Na5 O5 2.417323 1_556
Na5 O0 2.426676 1_555
Na5 O7 2.428662 1_555
Na5 O9 2.473133 1_556
Na5 O2 2.787557 1_545
H0 O8 0.984491 1_555
H1 O9 0.984491 1_555
H2 O10 0.984491 1_555
H3 O11 0.984491 1_555
O0 Os0 1.798078 1_655
O1 Os1 1.798078 1_455
O2 Os0 1.798342 1_555
O3 Os1 1.798342 1_555
O4 Os0 1.841256 1_555
O5 Os1 1.841256 1_555
O6 Os1 1.841256 1_555
O7 Os0 1.841256 1_555
O8 Os0 2.179029 1_555
O9 Os1 2.179029 1_555
O10 Os1 2.179029 1_555
O11 Os0 2.179029 1_555
