# generated using pymatgen
data_KAsO3
_symmetry_space_group_name_H-M   'P 1'
_cell_length_a   4.59178162
_cell_length_b   5.91365648
_cell_length_c   12.93258938
_cell_angle_alpha   90.01812788
_cell_angle_beta   89.99684129
_cell_angle_gamma   90.00160279
_symmetry_Int_Tables_number   1
_chemical_formula_structural   KAsO3
_chemical_formula_sum   'K4 As4 O12'
_cell_volume   351.17434775
_cell_formula_units_Z   4
loop_
 _symmetry_equiv_pos_site_id
 _symmetry_equiv_pos_as_xyz
  1  'x, y, z'
loop_
 _atom_site_type_symbol
 _atom_site_label
 _atom_site_symmetry_multiplicity
 _atom_site_fract_x
 _atom_site_fract_y
 _atom_site_fract_z
 _atom_site_occupancy
  K  K0  1  0.78334315  0.31828943  0.64150687  1
  K  K1  1  0.21673515  0.81841873  0.85851797  1
  K  K2  1  0.71678046  0.68185406  0.14147506  1
  K  K3  1  0.28328313  0.18160995  0.35852334  1
  As  As0  1  0.33243212  0.80965798  0.57806796  1
  As  As1  1  0.66762113  0.30977608  0.92194329  1
  As  As2  1  0.16745378  0.19042534  0.07806485  1
  As  As3  1  0.83232328  0.69008857  0.42190560  1
  O  O0  1  0.26374502  0.62088766  0.66859405  1
  O  O1  1  0.73615675  0.12090275  0.83145358  1
  O  O2  1  0.23612046  0.37919253  0.16860811  1
  O  O3  1  0.76379127  0.87899536  0.33142696  1
  O  O4  1  0.27276536  0.08298144  0.59146483  1
  O  O5  1  0.72728116  0.58304645  0.90843612  1
  O  O6  1  0.22727370  0.91719995  0.09153486  1
  O  O7  1  0.77272919  0.41673302  0.40847399  1
  O  O8  1  0.20821854  0.71987045  0.45401603  1
  O  O9  1  0.79183050  0.22025349  0.04594920  1
  O  O10  1  0.29189028  0.28002987  0.95407460  1
  O  O11  1  0.70822455  0.77978990  0.54596374  1
loop_
_geom_bond_atom_site_label_1
_geom_bond_atom_site_label_2
_geom_bond_distance
_geom_bond_site_symmetry_2
K0 O4 2.721228 1_655
K0 O1 2.728668 1_555
K0 O4 2.801983 1_555
K0 O0 2.861879 1_655
K0 O0 3.002843 1_555
K0 O11 3.016000 1_555
K0 O7 3.070002 1_555
K1 O5 2.721307 1_455
K1 O0 2.728044 1_555
K1 O5 2.801948 1_555
K1 O1 2.862262 1_465
K1 O1 3.001815 1_565
K1 O10 3.015958 1_565
K1 O6 3.069810 1_556
K2 O6 2.721618 1_555
K2 O3 2.727401 1_555
K2 O6 2.801609 1_655
K2 O2 2.863209 1_555
K2 O2 3.002357 1_655
K2 O9 3.015685 1_555
K2 O5 3.070113 1_554
K3 O7 2.720473 1_555
K3 O2 2.728816 1_555
K3 O7 2.801081 1_455
K3 O3 2.862378 1_545
K3 O3 3.002478 1_445
K3 O8 3.016950 1_545
K3 O4 3.069037 1_555
As0 O0 1.648345 1_555
As0 O4 1.648479 1_565
As0 O8 1.783426 1_555
As0 O11 1.783541 1_555
As1 O1 1.647801 1_555
As1 O5 1.648409 1_555
As1 O9 1.782730 1_556
As1 O10 1.783294 1_555
As2 O2 1.647996 1_555
As2 O6 1.648238 1_545
As2 O9 1.782871 1_455
As2 O10 1.782960 1_554
As3 O3 1.648357 1_555
As3 O7 1.648645 1_555
As3 O11 1.783131 1_555
As3 O8 1.784001 1_655
