# generated using pymatgen
data_YbMn2
_symmetry_space_group_name_H-M   'P 1'
_cell_length_a   5.43169759
_cell_length_b   5.43169759
_cell_length_c   8.78561856
_cell_angle_alpha   90.00000000
_cell_angle_beta   90.00000000
_cell_angle_gamma   119.99999538
_symmetry_Int_Tables_number   1
_chemical_formula_structural   YbMn2
_chemical_formula_sum   'Yb4 Mn8'
_cell_volume   224.47819423
_cell_formula_units_Z   4
loop_
 _symmetry_equiv_pos_site_id
 _symmetry_equiv_pos_as_xyz
  1  'x, y, z'
loop_
 _atom_site_type_symbol
 _atom_site_label
 _atom_site_symmetry_multiplicity
 _atom_site_fract_x
 _atom_site_fract_y
 _atom_site_fract_z
 _atom_site_occupancy
  Yb  Yb0  1  0.33333300  0.66666700  0.43324424  1
  Yb  Yb1  1  0.66666700  0.33333300  0.56675576  1
  Yb  Yb2  1  0.66666700  0.33333300  0.93324424  1
  Yb  Yb3  1  0.33333300  0.66666700  0.06675576  1
  Mn  Mn0  1  0.00000000  0.00000000  0.50000000  1
  Mn  Mn1  1  0.00000000  0.00000000  0.00000000  1
  Mn  Mn2  1  0.83185881  0.16814119  0.25000000  1
  Mn  Mn3  1  0.83185881  0.66371662  0.25000000  1
  Mn  Mn4  1  0.33628338  0.16814119  0.25000000  1
  Mn  Mn5  1  0.16814119  0.83185881  0.75000000  1
  Mn  Mn6  1  0.16814119  0.33628338  0.75000000  1
  Mn  Mn7  1  0.66371662  0.83185881  0.75000000  1
loop_
_geom_bond_atom_site_label_1
_geom_bond_atom_site_label_2
_geom_bond_distance
_geom_bond_site_symmetry_2
Yb0 Yb3 3.219828 1_555
Yb0 Yb1 3.348180 1_565
Yb0 Yb1 3.348180 1_455
Yb0 Yb1 3.348189 1_555
Yb1 Yb2 3.219828 1_555
Yb2 Yb3 3.348180 1_546
Yb2 Yb3 3.348180 1_656
Yb2 Yb3 3.348189 1_556
Mn0 Mn2 2.706751 1_455
Mn0 Mn5 2.706751 1_545
Mn0 Mn6 2.706754 1_555
Mn0 Mn4 2.706754 1_555
Mn0 Mn3 2.706754 1_445
Mn0 Mn7 2.706754 1_445
Mn0 Yb1 3.190360 1_455
Mn0 Yb0 3.190360 1_545
Mn0 Yb1 3.190365 1_555
Mn0 Yb0 3.190365 1_555
Mn0 Yb1 3.190365 1_445
Mn0 Yb0 3.190365 1_445
Mn1 Mn2 2.706751 1_455
Mn1 Mn5 2.706751 1_544
Mn1 Mn6 2.706754 1_554
Mn1 Mn4 2.706754 1_555
Mn1 Mn3 2.706754 1_445
Mn1 Mn7 2.706754 1_444
Mn1 Yb3 3.190360 1_545
Mn1 Yb2 3.190360 1_454
Mn1 Yb3 3.190365 1_555
Mn1 Yb2 3.190365 1_554
Mn1 Yb3 3.190365 1_445
Mn1 Yb2 3.190365 1_444
Mn2 Mn3 2.691816 1_555
Mn2 Mn4 2.691816 1_555
Mn2 Mn4 2.739882 1_655
Mn2 Mn3 2.739882 1_545
Mn2 Yb0 3.157190 1_655
Mn2 Yb0 3.157190 1_545
Mn2 Yb3 3.157190 1_545
Mn2 Yb3 3.157190 1_655
Mn2 Yb1 3.187444 1_555
Mn2 Yb2 3.187444 1_554
Mn3 Mn4 2.691816 1_555
Mn3 Mn4 2.739882 1_665
Mn3 Yb0 3.157186 1_655
Mn3 Yb3 3.157186 1_655
Mn3 Yb0 3.157195 1_555
Mn3 Yb3 3.157195 1_555
Mn3 Yb1 3.187444 1_555
Mn3 Yb2 3.187444 1_554
Mn4 Yb0 3.157186 1_545
Mn4 Yb3 3.157186 1_545
Mn4 Yb0 3.157195 1_555
Mn4 Yb3 3.157195 1_555
Mn4 Yb1 3.187444 1_555
Mn4 Yb2 3.187444 1_554
Mn5 Mn7 2.691816 1_555
Mn5 Mn6 2.691816 1_555
Mn5 Mn6 2.739882 1_565
Mn5 Mn7 2.739882 1_455
Mn5 Yb2 3.157190 1_455
Mn5 Yb2 3.157190 1_565
Mn5 Yb1 3.157190 1_455
Mn5 Yb1 3.157190 1_565
Mn5 Yb3 3.187444 1_556
Mn5 Yb0 3.187444 1_555
Mn6 Mn7 2.691816 1_555
Mn6 Mn7 2.739882 1_445
Mn6 Yb2 3.157186 1_455
Mn6 Yb1 3.157186 1_455
Mn6 Yb2 3.157195 1_555
Mn6 Yb1 3.157195 1_555
Mn6 Yb3 3.187444 1_556
Mn6 Yb0 3.187444 1_555
Mn7 Yb2 3.157186 1_565
Mn7 Yb1 3.157186 1_565
Mn7 Yb2 3.157195 1_555
Mn7 Yb1 3.157195 1_555
Mn7 Yb3 3.187444 1_556
Mn7 Yb0 3.187444 1_555
