# generated using pymatgen
data_Mn2V2O7
_symmetry_space_group_name_H-M   'P 1'
_cell_length_a   5.09092376
_cell_length_b   5.47796277
_cell_length_c   5.38825820
_cell_angle_alpha   109.36335357
_cell_angle_beta   96.27110050
_cell_angle_gamma   96.00748774
_symmetry_Int_Tables_number   1
_chemical_formula_structural   Mn2V2O7
_chemical_formula_sum   'Mn2 V2 O7'
_cell_volume   139.31989087
_cell_formula_units_Z   1
loop_
 _symmetry_equiv_pos_site_id
 _symmetry_equiv_pos_as_xyz
  1  'x, y, z'
loop_
 _atom_site_type_symbol
 _atom_site_label
 _atom_site_symmetry_multiplicity
 _atom_site_fract_x
 _atom_site_fract_y
 _atom_site_fract_z
 _atom_site_occupancy
  Mn  Mn0  1  0.99386536  0.82813769  0.16719468  1
  Mn  Mn1  1  0.98989196  0.20803859  0.82325243  1
  V  V0  1  0.38186846  0.76644675  0.75142953  1
  V  V1  1  0.60904106  0.25294514  0.26773212  1
  O  O0  1  0.77079058  0.47094176  0.14554675  1
  O  O1  1  0.23726257  0.84741663  0.49061930  1
  O  O2  1  0.15958476  0.58834774  0.90770677  1
  O  O3  1  0.83358045  0.09034585  0.42120033  1
  O  O4  1  0.50009752  0.44116441  0.54765974  1
  O  O5  1  0.28639223  0.08036234  0.05569175  1
  O  O6  1  0.73762505  0.92585310  0.92196660  1
loop_
_geom_bond_atom_site_label_1
_geom_bond_atom_site_label_2
_geom_bond_distance
_geom_bond_site_symmetry_2
Mn0 O2 1.914139 1_654
Mn0 O3 1.946256 1_565
Mn0 O1 1.990568 1_655
Mn0 O6 1.993195 1_554
Mn0 O0 2.118159 1_555
Mn0 O5 2.191586 1_665
Mn1 O2 2.049963 1_655
Mn1 O3 2.081311 1_555
Mn1 O6 2.144920 1_545
Mn1 O5 2.173727 1_656
Mn1 O0 2.331319 1_556
Mn1 O1 2.714186 1_645
O0 V1 1.723814 1_555
O1 V0 1.723156 1_555
O2 V0 1.861005 1_555
O3 V1 1.810778 1_555
O4 V1 1.707900 1_555
O4 V0 1.953058 1_555
O5 V1 1.856319 1_555
O5 V0 2.088228 1_544
O6 V0 1.913211 1_555
O6 V1 2.325598 1_566
