# generated using pymatgen
data_Li9Mn7O16
_symmetry_space_group_name_H-M   'P 1'
_cell_length_a   9.91677414
_cell_length_b   9.91677414
_cell_length_c   10.70772970
_cell_angle_alpha   81.30079408
_cell_angle_beta   81.30079408
_cell_angle_gamma   16.64841885
_symmetry_Int_Tables_number   1
_chemical_formula_structural   Li9Mn7O16
_chemical_formula_sum   'Li9 Mn7 O16'
_cell_volume   298.14398930
_cell_formula_units_Z   1
loop_
 _symmetry_equiv_pos_site_id
 _symmetry_equiv_pos_as_xyz
  1  'x, y, z'
loop_
 _atom_site_type_symbol
 _atom_site_label
 _atom_site_symmetry_multiplicity
 _atom_site_fract_x
 _atom_site_fract_y
 _atom_site_fract_z
 _atom_site_occupancy
  Li  Li0  1  0.37814100  0.37814100  0.68349100  1
  Li  Li1  1  0.12269600  0.12269600  0.56010200  1
  Li  Li2  1  0.87730400  0.87730400  0.43989800  1
  Li  Li3  1  0.62185900  0.62185900  0.31650900  1
  Li  Li4  1  0.37611200  0.37611200  0.18922600  1
  Li  Li5  1  0.12616700  0.12616700  0.06451300  1
  Li  Li6  1  0.87383300  0.87383300  0.93548700  1
  Li  Li7  1  0.62388800  0.62388800  0.81077400  1
  Li  Li8  1  0.50000000  0.50000000  0.50000000  1
  Mn  Mn0  1  0.99658700  0.99658700  0.73784900  1
  Mn  Mn1  1  0.00341300  0.00341300  0.26215100  1
  Mn  Mn2  1  0.75043100  0.75043100  0.62501700  1
  Mn  Mn3  1  0.24956900  0.24956900  0.37498300  1
  Mn  Mn4  1  0.75063800  0.75063800  0.12485900  1
  Mn  Mn5  1  0.50000000  0.50000000  0.00000000  1
  Mn  Mn6  1  0.24936200  0.24936200  0.87514100  1
  O  O0  1  0.44347600  0.44347600  0.83212600  1
  O  O1  1  0.19169400  0.19169400  0.70717800  1
  O  O2  1  0.94421300  0.94421300  0.61249300  1
  O  O3  1  0.69100500  0.69100500  0.45841700  1
  O  O4  1  0.44378800  0.44378800  0.33378500  1
  O  O5  1  0.19276600  0.19276600  0.20655300  1
  O  O6  1  0.94561900  0.94561900  0.09227500  1
  O  O7  1  0.69067200  0.69067200  0.95847400  1
  O  O8  1  0.30899500  0.30899500  0.54158300  1
  O  O9  1  0.05578700  0.05578700  0.38750700  1
  O  O10  1  0.80830600  0.80830600  0.29282200  1
  O  O11  1  0.55652400  0.55652400  0.16787400  1
  O  O12  1  0.30932800  0.30932800  0.04152600  1
  O  O13  1  0.05438100  0.05438100  0.90772500  1
  O  O14  1  0.80723400  0.80723400  0.79344700  1
  O  O15  1  0.55621200  0.55621200  0.66621500  1
loop_
_geom_bond_atom_site_label_1
_geom_bond_atom_site_label_2
_geom_bond_distance
_geom_bond_site_symmetry_2
Li0 O2 2.004763 1_545
Li0 O2 2.004763 1_455
Li0 O8 2.186464 1_555
Li0 O0 2.191080 1_555
Li0 O14 2.209729 1_545
Li0 O14 2.209729 1_455
Li1 O3 2.144191 1_545
Li1 O3 2.144191 1_455
Li1 O15 2.145069 1_455
Li1 O15 2.145069 1_545
Li1 O1 2.228350 1_555
Li1 O9 2.425176 1_555
Li2 O8 2.144191 1_655
Li2 O8 2.144191 1_565
Li2 O4 2.145069 1_655
Li2 O4 2.145069 1_565
Li2 O10 2.228350 1_555
Li2 O2 2.425176 1_555
Li3 O9 2.004763 1_655
Li3 O9 2.004763 1_565
Li3 O3 2.186464 1_555
Li3 O11 2.191080 1_555
Li3 O5 2.209729 1_655
Li3 O5 2.209729 1_565
Li4 O6 2.136969 1_455
Li4 O6 2.136969 1_545
Li4 O10 2.147353 1_545
Li4 O10 2.147353 1_455
Li4 O4 2.188233 1_555
Li4 O12 2.202865 1_555
Li5 O7 2.124496 1_544
Li5 O7 2.124496 1_454
Li5 O5 2.151538 1_555
Li5 O11 2.166014 1_455
Li5 O11 2.166014 1_545
Li5 O13 2.350787 1_554
Li6 O12 2.124496 1_566
Li6 O12 2.124496 1_656
Li6 O14 2.151538 1_555
Li6 O0 2.166014 1_565
Li6 O0 2.166014 1_655
Li6 O6 2.350787 1_556
Li7 O13 2.136969 1_655
Li7 O13 2.136969 1_565
Li7 O1 2.147353 1_655
Li7 O1 2.147353 1_565
Li7 O15 2.188233 1_555
Li7 O7 2.202865 1_555
Li8 O9 2.075469 1_655
Li8 O9 2.075469 1_565
Li8 O2 2.075469 1_545
Li8 O2 2.075469 1_455
Li8 O15 2.232661 1_555
Li8 O4 2.232661 1_555
Mn0 O2 1.811047 1_555
Mn0 O15 1.935032 1_565
Mn0 O15 1.935032 1_655
Mn0 O0 1.960862 1_655
Mn0 O0 1.960862 1_565
Mn0 O13 2.286000 1_665
Mn1 O9 1.811047 1_555
Mn1 O4 1.935032 1_455
Mn1 O4 1.935032 1_545
Mn1 O11 1.960862 1_545
Mn1 O11 1.960862 1_455
Mn1 O6 2.286000 1_445
Mn2 O1 1.963126 1_655
Mn2 O1 1.963126 1_565
Mn2 O8 1.966301 1_565
Mn2 O8 1.966301 1_655
Mn2 O14 2.260504 1_555
Mn2 O3 2.275607 1_555
Mn3 O10 1.963126 1_545
Mn3 O10 1.963126 1_455
Mn3 O3 1.966301 1_545
Mn3 O3 1.966301 1_455
Mn3 O5 2.260504 1_555
Mn3 O8 2.275607 1_555
Mn4 O5 1.952574 1_655
Mn4 O5 1.952574 1_565
Mn4 O12 1.967182 1_655
Mn4 O12 1.967182 1_565
Mn4 O10 2.266634 1_555
Mn4 O7 2.280342 1_554
Mn5 O6 1.963170 1_545
Mn5 O13 1.963170 1_654
Mn5 O6 1.963170 1_455
Mn5 O13 1.963170 1_564
Mn5 O11 2.251938 1_555
Mn5 O0 2.251938 1_554
Mn6 O14 1.952574 1_545
Mn6 O14 1.952574 1_455
Mn6 O7 1.967182 1_545
Mn6 O7 1.967182 1_455
Mn6 O1 2.266634 1_555
Mn6 O12 2.280342 1_556
