# generated using pymatgen
data_CdPPd5
_symmetry_space_group_name_H-M   'P 1'
_cell_length_a   3.94199036
_cell_length_b   3.94199036
_cell_length_c   7.01002303
_cell_angle_alpha   90.00000000
_cell_angle_beta   90.00000000
_cell_angle_gamma   90.00000000
_symmetry_Int_Tables_number   1
_chemical_formula_structural   CdPPd5
_chemical_formula_sum   'Cd1 P1 Pd5'
_cell_volume   108.93076674
_cell_formula_units_Z   1
loop_
 _symmetry_equiv_pos_site_id
 _symmetry_equiv_pos_as_xyz
  1  'x, y, z'
loop_
 _atom_site_type_symbol
 _atom_site_label
 _atom_site_symmetry_multiplicity
 _atom_site_fract_x
 _atom_site_fract_y
 _atom_site_fract_z
 _atom_site_occupancy
  Cd  Cd0  1  0.50000000  0.50000000  0.00000000  1
  P  P0  1  0.00000000  -0.00000000  0.50000000  1
  Pd  Pd0  1  0.00000000  -0.00000000  0.00000000  1
  Pd  Pd1  1  0.50000000  0.00000000  0.69928432  1
  Pd  Pd2  1  -0.00000000  0.50000000  0.69928432  1
  Pd  Pd3  1  0.50000000  -0.00000000  0.30071568  1
  Pd  Pd4  1  0.00000000  0.50000000  0.30071568  1
loop_
_geom_bond_atom_site_label_1
_geom_bond_atom_site_label_2
_geom_bond_distance
_geom_bond_site_symmetry_2
Cd0 Pd0 2.787408 1_555
Cd0 Pd0 2.787408 1_565
Cd0 Pd0 2.787408 1_655
Cd0 Pd0 2.787408 1_665
Cd0 Pd4 2.885929 1_655
Cd0 Pd3 2.885929 1_555
Cd0 Pd4 2.885929 1_555
Cd0 Pd3 2.885929 1_565
Cd0 Pd1 2.885929 1_554
Cd0 Pd2 2.885929 1_654
Cd0 Pd1 2.885929 1_564
Cd0 Pd2 2.885929 1_554
P0 Pd2 2.415864 1_555
P0 Pd2 2.415864 1_545
P0 Pd1 2.415864 1_455
P0 Pd1 2.415864 1_555
P0 Pd3 2.415864 1_555
P0 Pd3 2.415864 1_455
P0 Pd4 2.415864 1_545
P0 Pd4 2.415864 1_555
Pd0 Pd3 2.885929 1_555
Pd0 Pd4 2.885929 1_545
Pd0 Pd3 2.885929 1_455
Pd0 Pd4 2.885929 1_555
Pd0 Pd1 2.885929 1_554
Pd0 Pd2 2.885929 1_544
Pd0 Pd1 2.885929 1_454
Pd0 Pd2 2.885929 1_554
Pd1 Pd2 2.787408 1_555
Pd1 Pd2 2.787408 1_545
Pd1 Pd2 2.787408 1_645
Pd1 Pd2 2.787408 1_655
Pd1 Pd3 2.793975 1_555
Pd2 Pd4 2.793975 1_555
Pd3 Pd4 2.787408 1_645
Pd3 Pd4 2.787408 1_555
Pd3 Pd4 2.787408 1_655
Pd3 Pd4 2.787408 1_545
