# generated using pymatgen
data_Ca2Fe3O8
_symmetry_space_group_name_H-M   'P 1'
_cell_length_a   6.05589396
_cell_length_b   6.05589396
_cell_length_c   10.57972100
_cell_angle_alpha   90.00000000
_cell_angle_beta   90.00000000
_cell_angle_gamma   119.99999956
_symmetry_Int_Tables_number   1
_chemical_formula_structural   Ca2Fe3O8
_chemical_formula_sum   'Ca4 Fe6 O16'
_cell_volume   336.01709472
_cell_formula_units_Z   2
loop_
 _symmetry_equiv_pos_site_id
 _symmetry_equiv_pos_as_xyz
  1  'x, y, z'
loop_
 _atom_site_type_symbol
 _atom_site_label
 _atom_site_symmetry_multiplicity
 _atom_site_fract_x
 _atom_site_fract_y
 _atom_site_fract_z
 _atom_site_occupancy
  Ca  Ca0  1  0.66666700  0.33333300  0.02543500  1
  Ca  Ca1  1  0.33333300  0.66666700  0.52543500  1
  Ca  Ca2  1  0.66666700  0.33333300  0.42967000  1
  Ca  Ca3  1  0.33333300  0.66666700  0.92967000  1
  Fe  Fe0  1  0.67161400  0.83580700  0.24585500  1
  Fe  Fe1  1  0.83580700  0.16419300  0.74585500  1
  Fe  Fe2  1  0.16419300  0.32838600  0.24585500  1
  Fe  Fe3  1  0.83580700  0.67161400  0.74585500  1
  Fe  Fe4  1  0.32838600  0.16419300  0.74585500  1
  Fe  Fe5  1  0.16419300  0.83580700  0.24585500  1
  O  O0  1  0.84558000  0.15442000  0.15613200  1
  O  O1  1  0.69115900  0.84558000  0.65613200  1
  O  O2  1  0.15442000  0.30884100  0.65613200  1
  O  O3  1  0.84558000  0.69115900  0.15613200  1
  O  O4  1  0.30884100  0.15442000  0.15613200  1
  O  O5  1  0.15442000  0.84558000  0.65613200  1
  O  O6  1  0.52359100  0.47640900  0.84707200  1
  O  O7  1  0.04718200  0.52359100  0.34707200  1
  O  O8  1  0.47640900  0.95281800  0.34707200  1
  O  O9  1  0.52359100  0.04718200  0.84707200  1
  O  O10  1  0.00000000  0.00000000  0.35064200  1
  O  O11  1  0.00000000  0.00000000  0.85064200  1
  O  O12  1  0.33333300  0.66666700  0.14058000  1
  O  O13  1  0.95281800  0.47640900  0.84707200  1
  O  O14  1  0.47640900  0.52359100  0.34707200  1
  O  O15  1  0.66666700  0.33333300  0.64058000  1
loop_
_geom_bond_atom_site_label_1
_geom_bond_atom_site_label_2
_geom_bond_distance
_geom_bond_site_symmetry_2
Ca0 O0 2.331038 1_555
Ca0 O3 2.331038 1_555
Ca0 O4 2.331038 1_555
Ca0 O13 2.411036 1_554
Ca0 O9 2.411036 1_554
Ca0 O6 2.411039 1_554
Ca1 O5 2.331038 1_555
Ca1 O1 2.331038 1_555
Ca1 O2 2.331038 1_555
Ca1 O8 2.411036 1_555
Ca1 O7 2.411036 1_555
Ca1 O14 2.411039 1_555
Ca2 O7 2.178575 1_655
Ca2 O8 2.178575 1_545
Ca2 O14 2.178580 1_555
Ca2 O15 2.231369 1_555
Ca3 O9 2.178575 1_565
Ca3 O13 2.178575 1_455
Ca3 O6 2.178580 1_555
Ca3 O12 2.231369 1_556
Fe0 O0 1.923833 1_565
Fe0 O3 1.923838 1_555
Fe0 O8 1.970778 1_555
Fe0 O14 1.970778 1_555
Fe0 O10 2.048204 1_665
Fe0 O12 2.094769 1_555
Fe1 O1 1.923833 1_545
Fe1 O2 1.923833 1_655
Fe1 O13 1.970778 1_555
Fe1 O9 1.970778 1_555
Fe1 O11 2.048204 1_655
Fe1 O15 2.094765 1_555
Fe2 O0 1.923833 1_455
Fe2 O4 1.923838 1_555
Fe2 O7 1.970778 1_555
Fe2 O14 1.970778 1_555
Fe2 O10 2.048204 1_555
Fe2 O12 2.094769 1_555
Fe3 O5 1.923833 1_655
Fe3 O1 1.923838 1_555
Fe3 O13 1.970778 1_555
Fe3 O6 1.970778 1_555
Fe3 O11 2.048204 1_665
Fe3 O15 2.094769 1_555
Fe4 O5 1.923833 1_545
Fe4 O2 1.923838 1_555
Fe4 O9 1.970778 1_555
Fe4 O6 1.970778 1_555
Fe4 O11 2.048204 1_555
Fe4 O15 2.094769 1_555
Fe5 O3 1.923833 1_455
Fe5 O4 1.923833 1_565
Fe5 O8 1.970778 1_555
Fe5 O7 1.970778 1_555
Fe5 O10 2.048204 1_565
Fe5 O12 2.094765 1_555
