# generated using pymatgen
data_MgCd2
_symmetry_space_group_name_H-M   'P 1'
_cell_length_a   6.40629774
_cell_length_b   31.42467776
_cell_length_c   10.03711124
_cell_angle_alpha   90.00000000
_cell_angle_beta   90.00000000
_cell_angle_gamma   90.00000000
_symmetry_Int_Tables_number   1
_chemical_formula_structural   MgCd2
_chemical_formula_sum   'Mg32 Cd64'
_cell_volume   2020.62950167
_cell_formula_units_Z   32
loop_
 _symmetry_equiv_pos_site_id
 _symmetry_equiv_pos_as_xyz
  1  'x, y, z'
loop_
 _atom_site_type_symbol
 _atom_site_label
 _atom_site_symmetry_multiplicity
 _atom_site_fract_x
 _atom_site_fract_y
 _atom_site_fract_z
 _atom_site_occupancy
  Mg  Mg0_0  1  0.00000000  0.44495038  0.12500000  1
  Mg  Mg0_1  1  0.00000000  0.44495038  0.62500000  1
  Mg  Mg0_2  1  0.00000000  0.94495038  0.12500000  1
  Mg  Mg0_3  1  0.00000000  0.94495038  0.62500000  1
  Mg  Mg0_4  1  0.50000000  0.44495038  0.12500000  1
  Mg  Mg0_5  1  0.50000000  0.44495038  0.62500000  1
  Mg  Mg0_6  1  0.50000000  0.94495038  0.12500000  1
  Mg  Mg0_7  1  0.50000000  0.94495038  0.62500000  1
  Mg  Mg1_0  1  0.25000000  0.30504962  0.37500000  1
  Mg  Mg1_1  1  0.25000000  0.30504962  0.87500000  1
  Mg  Mg1_2  1  0.25000000  0.80504962  0.37500000  1
  Mg  Mg1_3  1  0.25000000  0.80504962  0.87500000  1
  Mg  Mg1_4  1  0.75000000  0.30504962  0.37500000  1
  Mg  Mg1_5  1  0.75000000  0.30504962  0.87500000  1
  Mg  Mg1_6  1  0.75000000  0.80504962  0.37500000  1
  Mg  Mg1_7  1  0.75000000  0.80504962  0.87500000  1
  Mg  Mg2_0  1  0.25000000  0.19495038  0.12500000  1
  Mg  Mg2_1  1  0.25000000  0.19495038  0.62500000  1
  Mg  Mg2_2  1  0.25000000  0.69495038  0.12500000  1
  Mg  Mg2_3  1  0.25000000  0.69495038  0.62500000  1
  Mg  Mg2_4  1  0.75000000  0.19495038  0.12500000  1
  Mg  Mg2_5  1  0.75000000  0.19495038  0.62500000  1
  Mg  Mg2_6  1  0.75000000  0.69495038  0.12500000  1
  Mg  Mg2_7  1  0.75000000  0.69495038  0.62500000  1
  Mg  Mg3_0  1  0.00000000  0.05504962  0.37500000  1
  Mg  Mg3_1  1  0.00000000  0.05504962  0.87500000  1
  Mg  Mg3_2  1  0.00000000  0.55504962  0.37500000  1
  Mg  Mg3_3  1  0.00000000  0.55504962  0.87500000  1
  Mg  Mg3_4  1  0.50000000  0.05504962  0.37500000  1
  Mg  Mg3_5  1  0.50000000  0.05504962  0.87500000  1
  Mg  Mg3_6  1  0.50000000  0.55504962  0.37500000  1
  Mg  Mg3_7  1  0.50000000  0.55504962  0.87500000  1
  Cd  Cd0_0  1  0.00000000  0.27735509  0.12500000  1
  Cd  Cd0_1  1  0.00000000  0.27735509  0.62500000  1
  Cd  Cd0_2  1  0.00000000  0.77735508  0.12500000  1
  Cd  Cd0_3  1  0.00000000  0.77735508  0.62500000  1
  Cd  Cd0_4  1  0.50000000  0.27735509  0.12500000  1
  Cd  Cd0_5  1  0.50000000  0.27735509  0.62500000  1
  Cd  Cd0_6  1  0.50000000  0.77735508  0.12500000  1
  Cd  Cd0_7  1  0.50000000  0.77735508  0.62500000  1
  Cd  Cd1_0  1  0.25000000  0.36102233  0.12500000  1
  Cd  Cd1_1  1  0.25000000  0.36102233  0.62500000  1
  Cd  Cd1_2  1  0.25000000  0.86102233  0.12500000  1
  Cd  Cd1_3  1  0.25000000  0.86102233  0.62500000  1
  Cd  Cd1_4  1  0.75000000  0.36102233  0.12500000  1
  Cd  Cd1_5  1  0.75000000  0.36102233  0.62500000  1
  Cd  Cd1_6  1  0.75000000  0.86102233  0.12500000  1
  Cd  Cd1_7  1  0.75000000  0.86102233  0.62500000  1
  Cd  Cd2_0  1  0.00000000  0.38897768  0.37500000  1
  Cd  Cd2_1  1  0.00000000  0.38897768  0.87500000  1
  Cd  Cd2_2  1  0.00000000  0.88897768  0.37500000  1
  Cd  Cd2_3  1  0.00000000  0.88897768  0.87500000  1
  Cd  Cd2_4  1  0.50000000  0.38897768  0.37500000  1
  Cd  Cd2_5  1  0.50000000  0.38897768  0.87500000  1
  Cd  Cd2_6  1  0.50000000  0.88897768  0.37500000  1
  Cd  Cd2_7  1  0.50000000  0.88897768  0.87500000  1
  Cd  Cd3_0  1  0.25000000  0.47264491  0.37500000  1
  Cd  Cd3_1  1  0.25000000  0.47264491  0.87500000  1
  Cd  Cd3_2  1  0.25000000  0.97264491  0.37500000  1
  Cd  Cd3_3  1  0.25000000  0.97264491  0.87500000  1
  Cd  Cd3_4  1  0.75000000  0.47264491  0.37500000  1
  Cd  Cd3_5  1  0.75000000  0.47264491  0.87500000  1
  Cd  Cd3_6  1  0.75000000  0.97264491  0.37500000  1
  Cd  Cd3_7  1  0.75000000  0.97264491  0.87500000  1
  Cd  Cd4_0  1  0.25000000  0.02735509  0.12500000  1
  Cd  Cd4_1  1  0.25000000  0.02735509  0.62500000  1
  Cd  Cd4_2  1  0.25000000  0.52735509  0.12500000  1
  Cd  Cd4_3  1  0.25000000  0.52735509  0.62500000  1
  Cd  Cd4_4  1  0.75000000  0.02735509  0.12500000  1
  Cd  Cd4_5  1  0.75000000  0.02735509  0.62500000  1
  Cd  Cd4_6  1  0.75000000  0.52735509  0.12500000  1
  Cd  Cd4_7  1  0.75000000  0.52735509  0.62500000  1
  Cd  Cd5_0  1  0.00000000  0.11102232  0.12500000  1
  Cd  Cd5_1  1  0.00000000  0.11102232  0.62500000  1
  Cd  Cd5_2  1  0.00000000  0.61102232  0.12500000  1
  Cd  Cd5_3  1  0.00000000  0.61102232  0.62500000  1
  Cd  Cd5_4  1  0.50000000  0.11102232  0.12500000  1
  Cd  Cd5_5  1  0.50000000  0.11102232  0.62500000  1
  Cd  Cd5_6  1  0.50000000  0.61102232  0.12500000  1
  Cd  Cd5_7  1  0.50000000  0.61102232  0.62500000  1
  Cd  Cd6_0  1  0.25000000  0.13897767  0.37500000  1
  Cd  Cd6_1  1  0.25000000  0.13897767  0.87500000  1
  Cd  Cd6_2  1  0.25000000  0.63897768  0.37500000  1
  Cd  Cd6_3  1  0.25000000  0.63897768  0.87500000  1
  Cd  Cd6_4  1  0.75000000  0.13897767  0.37500000  1
  Cd  Cd6_5  1  0.75000000  0.13897767  0.87500000  1
  Cd  Cd6_6  1  0.75000000  0.63897768  0.37500000  1
  Cd  Cd6_7  1  0.75000000  0.63897768  0.87500000  1
  Cd  Cd7_0  1  0.00000000  0.22264491  0.37500000  1
  Cd  Cd7_1  1  0.00000000  0.22264491  0.87500000  1
  Cd  Cd7_2  1  0.00000000  0.72264492  0.37500000  1
  Cd  Cd7_3  1  0.00000000  0.72264492  0.87500000  1
  Cd  Cd7_4  1  0.50000000  0.22264491  0.37500000  1
  Cd  Cd7_5  1  0.50000000  0.22264491  0.87500000  1
  Cd  Cd7_6  1  0.50000000  0.72264492  0.37500000  1
  Cd  Cd7_7  1  0.50000000  0.72264492  0.87500000  1
loop_
_geom_bond_atom_site_label_1
_geom_bond_atom_site_label_2
_geom_bond_distance
_geom_bond_site_symmetry_2
Cd0_0 Cd7_0 3.041758 1_555
Cd0_0 Cd7_1 3.041758 1_554
Cd0_0 Mg2_4 3.044793 1_455
Cd0_0 Mg2_0 3.044793 1_555
Cd0_0 Cd1_4 3.078606 1_455
Cd0_0 Cd1_0 3.078606 1_555
Cd0_0 Mg1_5 3.101439 1_454
Cd0_0 Mg1_4 3.101439 1_455
Cd0_0 Mg1_1 3.101439 1_554
Cd0_0 Mg1_0 3.101439 1_555
Cd0_0 Cd0_4 3.203149 1_455
Cd0_0 Cd0_4 3.203149 1_555
Cd0_1 Cd7_1 3.041758 1_555
Cd0_1 Cd7_0 3.041758 1_555
Cd0_1 Mg2_5 3.044793 1_455
Cd0_1 Mg2_1 3.044793 1_555
Cd0_1 Cd1_5 3.078606 1_455
Cd0_1 Cd1_1 3.078606 1_555
Cd0_1 Mg1_5 3.101439 1_455
Cd0_1 Mg1_4 3.101439 1_455
Cd0_1 Mg1_1 3.101439 1_555
Cd0_1 Mg1_0 3.101439 1_555
Cd0_1 Cd0_5 3.203149 1_455
Cd0_1 Cd0_5 3.203149 1_555
Cd0_2 Cd7_2 3.041758 1_555
Cd0_2 Cd7_3 3.041758 1_554
Cd0_2 Mg2_6 3.044793 1_455
Cd0_2 Mg2_2 3.044793 1_555
Cd0_2 Cd1_6 3.078606 1_455
Cd0_2 Cd1_2 3.078606 1_555
Cd0_2 Mg1_7 3.101439 1_454
Cd0_2 Mg1_6 3.101439 1_455
Cd0_2 Mg1_3 3.101439 1_554
Cd0_2 Mg1_2 3.101439 1_555
Cd0_2 Cd0_6 3.203149 1_455
Cd0_2 Cd0_6 3.203149 1_555
Cd0_3 Cd7_2 3.041758 1_555
Cd0_3 Cd7_3 3.041758 1_555
Cd0_3 Mg2_7 3.044793 1_455
Cd0_3 Mg2_3 3.044793 1_555
Cd0_3 Cd1_7 3.078606 1_455
Cd0_3 Cd1_3 3.078606 1_555
Cd0_3 Mg1_7 3.101439 1_455
Cd0_3 Mg1_6 3.101439 1_455
Cd0_3 Mg1_3 3.101439 1_555
Cd0_3 Mg1_2 3.101439 1_555
Cd0_3 Cd0_7 3.203149 1_555
Cd0_3 Cd0_7 3.203149 1_455
Cd0_4 Cd7_4 3.041758 1_555
Cd0_4 Cd7_5 3.041758 1_554
Cd0_4 Mg2_0 3.044793 1_555
Cd0_4 Mg2_4 3.044793 1_555
Cd0_4 Cd1_0 3.078606 1_555
Cd0_4 Cd1_4 3.078606 1_555
Cd0_4 Mg1_1 3.101439 1_554
Cd0_4 Mg1_0 3.101439 1_555
Cd0_4 Mg1_4 3.101439 1_555
Cd0_4 Mg1_5 3.101439 1_554
Cd0_5 Cd7_5 3.041758 1_555
Cd0_5 Cd7_4 3.041758 1_555
Cd0_5 Mg2_1 3.044793 1_555
Cd0_5 Mg2_5 3.044793 1_555
Cd0_5 Cd1_1 3.078606 1_555
Cd0_5 Cd1_5 3.078606 1_555
Cd0_5 Mg1_1 3.101439 1_555
Cd0_5 Mg1_0 3.101439 1_555
Cd0_5 Mg1_4 3.101439 1_555
Cd0_5 Mg1_5 3.101439 1_555
Cd0_6 Cd7_6 3.041758 1_555
Cd0_6 Cd7_7 3.041758 1_554
Cd0_6 Mg2_2 3.044793 1_555
Cd0_6 Mg2_6 3.044793 1_555
Cd0_6 Cd1_2 3.078606 1_555
Cd0_6 Cd1_6 3.078606 1_555
Cd0_6 Mg1_3 3.101439 1_554
Cd0_6 Mg1_2 3.101439 1_555
Cd0_6 Mg1_7 3.101439 1_554
Cd0_6 Mg1_6 3.101439 1_555
Cd0_7 Cd7_7 3.041758 1_555
Cd0_7 Cd7_6 3.041758 1_555
Cd0_7 Mg2_3 3.044793 1_555
Cd0_7 Mg2_7 3.044793 1_555
Cd0_7 Cd1_3 3.078606 1_555
Cd0_7 Cd1_7 3.078606 1_555
Cd0_7 Mg1_3 3.101439 1_555
Cd0_7 Mg1_2 3.101439 1_555
Cd0_7 Mg1_6 3.101439 1_555
Cd0_7 Mg1_7 3.101439 1_555
Cd1_0 Mg1_1 3.064358 1_554
Cd1_0 Mg1_0 3.064358 1_555
Cd1_0 Mg0_0 3.085609 1_555
Cd1_0 Mg0_4 3.085609 1_555
Cd1_0 Cd2_1 3.103749 1_554
Cd1_0 Cd2_0 3.103749 1_555
Cd1_0 Cd2_4 3.103749 1_555
Cd1_0 Cd2_5 3.103749 1_554
Cd1_0 Cd1_4 3.203149 1_455
Cd1_0 Cd1_4 3.203149 1_555
Cd1_1 Mg1_0 3.064358 1_555
Cd1_1 Mg1_1 3.064358 1_555
Cd1_1 Mg0_5 3.085609 1_555
Cd1_1 Mg0_1 3.085609 1_555
Cd1_1 Cd2_0 3.103749 1_555
Cd1_1 Cd2_4 3.103749 1_555
Cd1_1 Cd2_1 3.103749 1_555
Cd1_1 Cd2_5 3.103749 1_555
Cd1_1 Cd1_5 3.203149 1_455
Cd1_1 Cd1_5 3.203149 1_555
Cd1_2 Mg1_2 3.064358 1_555
Cd1_2 Mg1_3 3.064358 1_554
Cd1_2 Mg0_2 3.085609 1_555
Cd1_2 Mg0_6 3.085609 1_555
Cd1_2 Cd2_7 3.103749 1_554
Cd1_2 Cd2_2 3.103749 1_555
Cd1_2 Cd2_3 3.103749 1_554
Cd1_2 Cd2_6 3.103749 1_555
Cd1_2 Cd1_6 3.203149 1_455
Cd1_2 Cd1_6 3.203149 1_555
Cd1_3 Mg1_2 3.064358 1_555
Cd1_3 Mg1_3 3.064358 1_555
Cd1_3 Mg0_3 3.085609 1_555
Cd1_3 Mg0_7 3.085609 1_555
Cd1_3 Cd2_3 3.103749 1_555
Cd1_3 Cd2_2 3.103749 1_555
Cd1_3 Cd2_7 3.103749 1_555
Cd1_3 Cd2_6 3.103749 1_555
Cd1_3 Cd1_7 3.203149 1_455
Cd1_3 Cd1_7 3.203149 1_555
Cd1_4 Mg1_4 3.064358 1_555
Cd1_4 Mg1_5 3.064358 1_554
Cd1_4 Mg0_0 3.085609 1_655
Cd1_4 Mg0_4 3.085609 1_555
Cd1_4 Cd2_0 3.103749 1_655
Cd1_4 Cd2_1 3.103749 1_654
Cd1_4 Cd2_4 3.103749 1_555
Cd1_4 Cd2_5 3.103749 1_554
Cd1_5 Mg1_5 3.064358 1_555
Cd1_5 Mg1_4 3.064358 1_555
Cd1_5 Mg0_1 3.085609 1_655
Cd1_5 Mg0_5 3.085609 1_555
Cd1_5 Cd2_0 3.103749 1_655
Cd1_5 Cd2_1 3.103749 1_655
Cd1_5 Cd2_4 3.103749 1_555
Cd1_5 Cd2_5 3.103749 1_555
Cd1_6 Mg1_7 3.064358 1_554
Cd1_6 Mg1_6 3.064358 1_555
Cd1_6 Mg0_2 3.085609 1_655
Cd1_6 Mg0_6 3.085609 1_555
Cd1_6 Cd2_2 3.103749 1_655
Cd1_6 Cd2_3 3.103749 1_654
Cd1_6 Cd2_6 3.103749 1_555
Cd1_6 Cd2_7 3.103749 1_554
Cd1_7 Mg1_6 3.064358 1_555
Cd1_7 Mg1_7 3.064358 1_555
Cd1_7 Mg0_3 3.085609 1_655
Cd1_7 Mg0_7 3.085609 1_555
Cd1_7 Cd2_2 3.103749 1_655
Cd1_7 Cd2_3 3.103749 1_655
Cd1_7 Cd2_7 3.103749 1_555
Cd1_7 Cd2_6 3.103749 1_555
Cd2_0 Mg0_1 3.064358 1_555
Cd2_0 Mg0_0 3.064358 1_555
Cd2_0 Cd3_4 3.078606 1_455
Cd2_0 Cd3_0 3.078606 1_555
Cd2_0 Mg1_4 3.085609 1_455
Cd2_0 Mg1_0 3.085609 1_555
Cd2_0 Cd2_4 3.203149 1_455
Cd2_0 Cd2_4 3.203149 1_555
Cd2_1 Mg0_0 3.064358 1_556
Cd2_1 Mg0_1 3.064358 1_555
Cd2_1 Cd3_5 3.078606 1_455
Cd2_1 Cd3_1 3.078606 1_555
Cd2_1 Mg1_5 3.085609 1_455
Cd2_1 Mg1_1 3.085609 1_555
Cd2_1 Cd2_5 3.203149 1_555
Cd2_1 Cd2_5 3.203149 1_455
Cd2_2 Mg0_2 3.064358 1_555
Cd2_2 Mg0_3 3.064358 1_555
Cd2_2 Cd3_6 3.078606 1_455
Cd2_2 Cd3_2 3.078606 1_555
Cd2_2 Mg1_6 3.085609 1_455
Cd2_2 Mg1_2 3.085609 1_555
Cd2_2 Cd2_6 3.203149 1_455
Cd2_2 Cd2_6 3.203149 1_555
Cd2_3 Mg0_2 3.064358 1_556
Cd2_3 Mg0_3 3.064358 1_555
Cd2_3 Cd3_7 3.078606 1_455
Cd2_3 Cd3_3 3.078606 1_555
Cd2_3 Mg1_7 3.085609 1_455
Cd2_3 Mg1_3 3.085609 1_555
Cd2_3 Cd2_7 3.203149 1_455
Cd2_3 Cd2_7 3.203149 1_555
Cd2_4 Mg0_4 3.064358 1_555
Cd2_4 Mg0_5 3.064358 1_555
Cd2_4 Cd3_0 3.078606 1_555
Cd2_4 Cd3_4 3.078606 1_555
Cd2_4 Mg1_0 3.085609 1_555
Cd2_4 Mg1_4 3.085609 1_555
Cd2_5 Mg0_4 3.064358 1_556
Cd2_5 Mg0_5 3.064358 1_555
Cd2_5 Cd3_1 3.078606 1_555
Cd2_5 Cd3_5 3.078606 1_555
Cd2_5 Mg1_1 3.085609 1_555
Cd2_5 Mg1_5 3.085609 1_555
Cd2_6 Mg0_7 3.064358 1_555
Cd2_6 Mg0_6 3.064358 1_555
Cd2_6 Cd3_2 3.078606 1_555
Cd2_6 Cd3_6 3.078606 1_555
Cd2_6 Mg1_2 3.085609 1_555
Cd2_6 Mg1_6 3.085609 1_555
Cd2_7 Mg0_6 3.064358 1_556
Cd2_7 Mg0_7 3.064358 1_555
Cd2_7 Cd3_3 3.078606 1_555
Cd2_7 Cd3_7 3.078606 1_555
Cd2_7 Mg1_3 3.085609 1_555
Cd2_7 Mg1_7 3.085609 1_555
Cd3_0 Cd4_3 3.041758 1_555
Cd3_0 Cd4_2 3.041758 1_555
Cd3_0 Mg3_6 3.044793 1_555
Cd3_0 Mg3_2 3.044793 1_555
Cd3_0 Mg0_4 3.101439 1_555
Cd3_0 Mg0_1 3.101439 1_555
Cd3_0 Mg0_0 3.101439 1_555
Cd3_0 Mg0_5 3.101439 1_555
Cd3_0 Cd3_4 3.203149 1_455
Cd3_0 Cd3_4 3.203149 1_555
Cd3_1 Cd4_3 3.041758 1_555
Cd3_1 Cd4_2 3.041758 1_556
Cd3_1 Mg3_3 3.044793 1_555
Cd3_1 Mg3_7 3.044793 1_555
Cd3_1 Mg0_0 3.101439 1_556
Cd3_1 Mg0_4 3.101439 1_556
Cd3_1 Mg0_5 3.101439 1_555
Cd3_1 Mg0_1 3.101439 1_555
Cd3_1 Cd3_5 3.203149 1_455
Cd3_1 Cd3_5 3.203149 1_555
Cd3_2 Cd4_0 3.041758 1_565
Cd3_2 Cd4_1 3.041758 1_565
Cd3_2 Mg3_0 3.044793 1_565
Cd3_2 Mg3_4 3.044793 1_565
Cd3_2 Mg0_3 3.101439 1_555
Cd3_2 Mg0_7 3.101439 1_555
Cd3_2 Mg0_2 3.101439 1_555
Cd3_2 Mg0_6 3.101439 1_555
Cd3_2 Cd3_6 3.203149 1_455
Cd3_2 Cd3_6 3.203149 1_555
Cd3_3 Cd4_0 3.041758 1_566
Cd3_3 Cd4_1 3.041758 1_565
Cd3_3 Mg3_5 3.044793 1_565
Cd3_3 Mg3_1 3.044793 1_565
Cd3_3 Mg0_2 3.101439 1_556
Cd3_3 Mg0_3 3.101439 1_555
Cd3_3 Mg0_7 3.101439 1_555
Cd3_3 Mg0_6 3.101439 1_556
Cd3_3 Cd3_7 3.203149 1_455
Cd3_3 Cd3_7 3.203149 1_555
Cd3_4 Cd4_6 3.041758 1_555
Cd3_4 Cd4_7 3.041758 1_555
Cd3_4 Mg3_2 3.044793 1_655
Cd3_4 Mg3_6 3.044793 1_555
Cd3_4 Mg0_0 3.101439 1_655
Cd3_4 Mg0_1 3.101439 1_655
Cd3_4 Mg0_5 3.101439 1_555
Cd3_4 Mg0_4 3.101439 1_555
Cd3_5 Cd4_6 3.041758 1_556
Cd3_5 Cd4_7 3.041758 1_555
Cd3_5 Mg3_3 3.044793 1_655
Cd3_5 Mg3_7 3.044793 1_555
Cd3_5 Mg0_1 3.101439 1_655
Cd3_5 Mg0_0 3.101439 1_656
Cd3_5 Mg0_5 3.101439 1_555
Cd3_5 Mg0_4 3.101439 1_556
Cd3_6 Cd4_4 3.041758 1_565
Cd3_6 Cd4_5 3.041758 1_565
Cd3_6 Mg3_0 3.044793 1_665
Cd3_6 Mg3_4 3.044793 1_565
Cd3_6 Mg0_3 3.101439 1_655
Cd3_6 Mg0_2 3.101439 1_655
Cd3_6 Mg0_6 3.101439 1_555
Cd3_6 Mg0_7 3.101439 1_555
Cd3_7 Cd4_4 3.041758 1_566
Cd3_7 Cd4_5 3.041758 1_565
Cd3_7 Mg3_1 3.044793 1_665
Cd3_7 Mg3_5 3.044793 1_565
Cd3_7 Mg0_3 3.101439 1_655
Cd3_7 Mg0_2 3.101439 1_656
Cd3_7 Mg0_7 3.101439 1_555
Cd3_7 Mg0_6 3.101439 1_556
Cd4_0 Mg0_2 3.044793 1_545
Cd4_0 Mg0_6 3.044793 1_545
Cd4_0 Cd5_4 3.078606 1_555
Cd4_0 Cd5_0 3.078606 1_555
Cd4_0 Mg3_0 3.101439 1_555
Cd4_0 Mg3_4 3.101439 1_555
Cd4_0 Mg3_5 3.101439 1_554
Cd4_0 Mg3_1 3.101439 1_554
Cd4_0 Cd4_4 3.203149 1_455
Cd4_0 Cd4_4 3.203149 1_555
Cd4_1 Mg0_7 3.044793 1_545
Cd4_1 Mg0_3 3.044793 1_545
Cd4_1 Cd5_5 3.078606 1_555
Cd4_1 Cd5_1 3.078606 1_555
Cd4_1 Mg3_0 3.101439 1_555
Cd4_1 Mg3_4 3.101439 1_555
Cd4_1 Mg3_1 3.101439 1_555
Cd4_1 Mg3_5 3.101439 1_555
Cd4_1 Cd4_5 3.203149 1_455
Cd4_1 Cd4_5 3.203149 1_555
Cd4_2 Mg0_0 3.044793 1_555
Cd4_2 Mg0_4 3.044793 1_555
Cd4_2 Cd5_6 3.078606 1_555
Cd4_2 Cd5_2 3.078606 1_555
Cd4_2 Mg3_3 3.101439 1_554
Cd4_2 Mg3_2 3.101439 1_555
Cd4_2 Mg3_6 3.101439 1_555
Cd4_2 Mg3_7 3.101439 1_554
Cd4_2 Cd4_6 3.203149 1_455
Cd4_2 Cd4_6 3.203149 1_555
Cd4_3 Mg0_1 3.044793 1_555
Cd4_3 Mg0_5 3.044793 1_555
Cd4_3 Cd5_3 3.078606 1_555
Cd4_3 Cd5_7 3.078606 1_555
Cd4_3 Mg3_7 3.101439 1_555
Cd4_3 Mg3_2 3.101439 1_555
Cd4_3 Mg3_6 3.101439 1_555
Cd4_3 Mg3_3 3.101439 1_555
Cd4_3 Cd4_7 3.203149 1_455
Cd4_3 Cd4_7 3.203149 1_555
Cd4_4 Mg0_2 3.044793 1_645
Cd4_4 Mg0_6 3.044793 1_545
Cd4_4 Cd5_0 3.078606 1_655
Cd4_4 Cd5_4 3.078606 1_555
Cd4_4 Mg3_1 3.101439 1_654
Cd4_4 Mg3_0 3.101439 1_655
Cd4_4 Mg3_4 3.101439 1_555
Cd4_4 Mg3_5 3.101439 1_554
Cd4_5 Mg0_3 3.044793 1_645
Cd4_5 Mg0_7 3.044793 1_545
Cd4_5 Cd5_1 3.078606 1_655
Cd4_5 Cd5_5 3.078606 1_555
Cd4_5 Mg3_1 3.101439 1_655
Cd4_5 Mg3_0 3.101439 1_655
Cd4_5 Mg3_4 3.101439 1_555
Cd4_5 Mg3_5 3.101439 1_555
Cd4_6 Mg0_0 3.044793 1_655
Cd4_6 Mg0_4 3.044793 1_555
Cd4_6 Cd5_2 3.078606 1_655
Cd4_6 Cd5_6 3.078606 1_555
Cd4_6 Mg3_3 3.101439 1_654
Cd4_6 Mg3_2 3.101439 1_655
Cd4_6 Mg3_7 3.101439 1_554
Cd4_6 Mg3_6 3.101439 1_555
Cd4_7 Mg0_1 3.044793 1_655
Cd4_7 Mg0_5 3.044793 1_555
Cd4_7 Cd5_3 3.078606 1_655
Cd4_7 Cd5_7 3.078606 1_555
Cd4_7 Mg3_3 3.101439 1_655
Cd4_7 Mg3_2 3.101439 1_655
Cd4_7 Mg3_7 3.101439 1_555
Cd4_7 Mg3_6 3.101439 1_555
Cd5_0 Mg3_0 3.064358 1_555
Cd5_0 Mg3_1 3.064358 1_554
Cd5_0 Mg2_4 3.085609 1_455
Cd5_0 Mg2_0 3.085609 1_555
Cd5_0 Cd6_0 3.103749 1_555
Cd5_0 Cd6_4 3.103749 1_455
Cd5_0 Cd6_5 3.103749 1_454
Cd5_0 Cd6_1 3.103749 1_554
Cd5_0 Cd5_4 3.203149 1_455
Cd5_0 Cd5_4 3.203149 1_555
Cd5_1 Mg3_0 3.064358 1_555
Cd5_1 Mg3_1 3.064358 1_555
Cd5_1 Mg2_5 3.085609 1_455
Cd5_1 Mg2_1 3.085609 1_555
Cd5_1 Cd6_0 3.103749 1_555
Cd5_1 Cd6_4 3.103749 1_455
Cd5_1 Cd6_1 3.103749 1_555
Cd5_1 Cd6_5 3.103749 1_455
Cd5_1 Cd5_5 3.203149 1_455
Cd5_1 Cd5_5 3.203149 1_555
Cd5_2 Mg3_2 3.064358 1_555
Cd5_2 Mg3_3 3.064358 1_554
Cd5_2 Mg2_6 3.085609 1_455
Cd5_2 Mg2_2 3.085609 1_555
Cd5_2 Cd6_6 3.103749 1_455
Cd5_2 Cd6_7 3.103749 1_454
Cd5_2 Cd6_2 3.103749 1_555
Cd5_2 Cd6_3 3.103749 1_554
Cd5_2 Cd5_6 3.203149 1_555
Cd5_2 Cd5_6 3.203149 1_455
Cd5_3 Mg3_3 3.064358 1_555
Cd5_3 Mg3_2 3.064358 1_555
Cd5_3 Mg2_7 3.085609 1_455
Cd5_3 Mg2_3 3.085609 1_555
Cd5_3 Cd6_6 3.103749 1_455
Cd5_3 Cd6_7 3.103749 1_455
Cd5_3 Cd6_2 3.103749 1_555
Cd5_3 Cd6_3 3.103749 1_555
Cd5_3 Cd5_7 3.203149 1_455
Cd5_3 Cd5_7 3.203149 1_555
Cd5_4 Mg3_4 3.064358 1_555
Cd5_4 Mg3_5 3.064358 1_554
Cd5_4 Mg2_0 3.085609 1_555
Cd5_4 Mg2_4 3.085609 1_555
Cd5_4 Cd6_0 3.103749 1_555
Cd5_4 Cd6_1 3.103749 1_554
Cd5_4 Cd6_5 3.103749 1_554
Cd5_4 Cd6_4 3.103749 1_555
Cd5_5 Mg3_4 3.064358 1_555
Cd5_5 Mg3_5 3.064358 1_555
Cd5_5 Mg2_1 3.085609 1_555
Cd5_5 Mg2_5 3.085609 1_555
Cd5_5 Cd6_0 3.103749 1_555
Cd5_5 Cd6_1 3.103749 1_555
Cd5_5 Cd6_5 3.103749 1_555
Cd5_5 Cd6_4 3.103749 1_555
Cd5_6 Mg3_6 3.064358 1_555
Cd5_6 Mg3_7 3.064358 1_554
Cd5_6 Mg2_2 3.085609 1_555
Cd5_6 Mg2_6 3.085609 1_555
Cd5_6 Cd6_2 3.103749 1_555
Cd5_6 Cd6_3 3.103749 1_554
Cd5_6 Cd6_7 3.103749 1_554
Cd5_6 Cd6_6 3.103749 1_555
Cd5_7 Mg3_6 3.064358 1_555
Cd5_7 Mg3_7 3.064358 1_555
Cd5_7 Mg2_3 3.085609 1_555
Cd5_7 Mg2_7 3.085609 1_555
Cd5_7 Cd6_2 3.103749 1_555
Cd5_7 Cd6_3 3.103749 1_555
Cd5_7 Cd6_7 3.103749 1_555
Cd5_7 Cd6_6 3.103749 1_555
Cd6_0 Mg2_0 3.064358 1_555
Cd6_0 Mg2_1 3.064358 1_555
Cd6_0 Cd7_0 3.078606 1_555
Cd6_0 Cd7_4 3.078606 1_555
Cd6_0 Mg3_4 3.085609 1_555
Cd6_0 Mg3_0 3.085609 1_555
Cd6_0 Cd6_4 3.203149 1_455
Cd6_0 Cd6_4 3.203149 1_555
Cd6_1 Mg2_0 3.064358 1_556
Cd6_1 Mg2_1 3.064358 1_555
Cd6_1 Cd7_5 3.078606 1_555
Cd6_1 Cd7_1 3.078606 1_555
Cd6_1 Mg3_1 3.085609 1_555
Cd6_1 Mg3_5 3.085609 1_555
Cd6_1 Cd6_5 3.203149 1_455
Cd6_1 Cd6_5 3.203149 1_555
Cd6_2 Mg2_2 3.064358 1_555
Cd6_2 Mg2_3 3.064358 1_555
Cd6_2 Cd7_2 3.078606 1_555
Cd6_2 Cd7_6 3.078606 1_555
Cd6_2 Mg3_2 3.085609 1_555
Cd6_2 Mg3_6 3.085609 1_555
Cd6_2 Cd6_6 3.203149 1_455
Cd6_2 Cd6_6 3.203149 1_555
Cd6_3 Mg2_2 3.064358 1_556
Cd6_3 Mg2_3 3.064358 1_555
Cd6_3 Cd7_3 3.078606 1_555
Cd6_3 Cd7_7 3.078606 1_555
Cd6_3 Mg3_3 3.085609 1_555
Cd6_3 Mg3_7 3.085609 1_555
Cd6_3 Cd6_7 3.203149 1_455
Cd6_3 Cd6_7 3.203149 1_555
Cd6_4 Mg2_4 3.064358 1_555
Cd6_4 Mg2_5 3.064358 1_555
Cd6_4 Cd7_0 3.078606 1_655
Cd6_4 Cd7_4 3.078606 1_555
Cd6_4 Mg3_0 3.085609 1_655
Cd6_4 Mg3_4 3.085609 1_555
Cd6_5 Mg2_4 3.064358 1_556
Cd6_5 Mg2_5 3.064358 1_555
Cd6_5 Cd7_1 3.078606 1_655
Cd6_5 Cd7_5 3.078606 1_555
Cd6_5 Mg3_1 3.085609 1_655
Cd6_5 Mg3_5 3.085609 1_555
Cd6_6 Mg2_7 3.064358 1_555
Cd6_6 Mg2_6 3.064358 1_555
Cd6_6 Cd7_2 3.078606 1_655
Cd6_6 Cd7_6 3.078606 1_555
Cd6_6 Mg3_2 3.085609 1_655
Cd6_6 Mg3_6 3.085609 1_555
Cd6_7 Mg2_7 3.064358 1_555
Cd6_7 Mg2_6 3.064358 1_556
Cd6_7 Cd7_3 3.078606 1_655
Cd6_7 Cd7_7 3.078606 1_555
Cd6_7 Mg3_3 3.085609 1_655
Cd6_7 Mg3_7 3.085609 1_555
Cd7_0 Mg1_4 3.044793 1_455
Cd7_0 Mg1_0 3.044793 1_555
Cd7_0 Mg2_5 3.101439 1_455
Cd7_0 Mg2_4 3.101439 1_455
Cd7_0 Mg2_0 3.101439 1_555
Cd7_0 Mg2_1 3.101439 1_555
Cd7_0 Cd7_4 3.203149 1_455
Cd7_0 Cd7_4 3.203149 1_555
Cd7_1 Mg1_5 3.044793 1_455
Cd7_1 Mg1_1 3.044793 1_555
Cd7_1 Mg2_4 3.101439 1_456
Cd7_1 Mg2_5 3.101439 1_455
Cd7_1 Mg2_0 3.101439 1_556
Cd7_1 Mg2_1 3.101439 1_555
Cd7_1 Cd7_5 3.203149 1_455
Cd7_1 Cd7_5 3.203149 1_555
Cd7_2 Mg1_6 3.044793 1_455
Cd7_2 Mg1_2 3.044793 1_555
Cd7_2 Mg2_7 3.101439 1_455
Cd7_2 Mg2_6 3.101439 1_455
Cd7_2 Mg2_2 3.101439 1_555
Cd7_2 Mg2_3 3.101439 1_555
Cd7_2 Cd7_6 3.203149 1_555
Cd7_2 Cd7_6 3.203149 1_455
Cd7_3 Mg1_7 3.044793 1_455
Cd7_3 Mg1_3 3.044793 1_555
Cd7_3 Mg2_7 3.101439 1_455
Cd7_3 Mg2_6 3.101439 1_456
Cd7_3 Mg2_2 3.101439 1_556
Cd7_3 Mg2_3 3.101439 1_555
Cd7_3 Cd7_7 3.203149 1_455
Cd7_3 Cd7_7 3.203149 1_555
Cd7_4 Mg1_0 3.044793 1_555
Cd7_4 Mg1_4 3.044793 1_555
Cd7_4 Mg2_5 3.101439 1_555
Cd7_4 Mg2_0 3.101439 1_555
Cd7_4 Mg2_4 3.101439 1_555
Cd7_4 Mg2_1 3.101439 1_555
Cd7_5 Mg1_1 3.044793 1_555
Cd7_5 Mg1_5 3.044793 1_555
Cd7_5 Mg2_4 3.101439 1_556
Cd7_5 Mg2_0 3.101439 1_556
Cd7_5 Mg2_5 3.101439 1_555
Cd7_5 Mg2_1 3.101439 1_555
Cd7_6 Mg1_2 3.044793 1_555
Cd7_6 Mg1_6 3.044793 1_555
Cd7_6 Mg2_2 3.101439 1_555
Cd7_6 Mg2_3 3.101439 1_555
Cd7_6 Mg2_6 3.101439 1_555
Cd7_6 Mg2_7 3.101439 1_555
Cd7_7 Mg1_3 3.044793 1_555
Cd7_7 Mg1_7 3.044793 1_555
Cd7_7 Mg2_3 3.101439 1_555
Cd7_7 Mg2_2 3.101439 1_556
Cd7_7 Mg2_6 3.101439 1_556
Cd7_7 Mg2_7 3.101439 1_555
