# generated using pymatgen
data_PmEu3
_symmetry_space_group_name_H-M   'P 1'
_cell_length_a   7.63930954
_cell_length_b   7.63930954
_cell_length_c   6.17587600
_cell_angle_alpha   90.00000000
_cell_angle_beta   90.00000000
_cell_angle_gamma   119.99999604
_symmetry_Int_Tables_number   1
_chemical_formula_structural   PmEu3
_chemical_formula_sum   'Pm2 Eu6'
_cell_volume   312.13137996
_cell_formula_units_Z   2
loop_
 _symmetry_equiv_pos_site_id
 _symmetry_equiv_pos_as_xyz
  1  'x, y, z'
loop_
 _atom_site_type_symbol
 _atom_site_label
 _atom_site_symmetry_multiplicity
 _atom_site_fract_x
 _atom_site_fract_y
 _atom_site_fract_z
 _atom_site_occupancy
  Pm  Pm0  1  0.33333300  0.66666700  0.75000000  1
  Pm  Pm1  1  0.66666700  0.33333300  0.25000000  1
  Eu  Eu0  1  0.16955400  0.33910900  0.25000000  1
  Eu  Eu1  1  0.66089100  0.83044600  0.25000000  1
  Eu  Eu2  1  0.16955400  0.83044600  0.25000000  1
  Eu  Eu3  1  0.83044600  0.66089100  0.75000000  1
  Eu  Eu4  1  0.33910900  0.16955400  0.75000000  1
  Eu  Eu5  1  0.83044600  0.16955400  0.75000000  1
loop_
_geom_bond_atom_site_label_1
_geom_bond_atom_site_label_2
_geom_bond_distance
_geom_bond_site_symmetry_2
Eu0 Eu2 3.753475 1_555
Eu0 Eu1 3.753476 1_555
Eu0 Pm0 3.772473 1_555
Eu0 Pm0 3.772473 1_554
Eu0 Eu5 3.816881 1_454
Eu0 Eu5 3.816881 1_455
Eu0 Eu4 3.816888 1_554
Eu0 Eu4 3.816888 1_555
Eu0 Pm1 3.819838 1_455
Eu0 Pm1 3.819854 1_555
Eu0 Eu2 3.885834 1_545
Eu0 Eu1 3.885834 1_445
Eu1 Eu2 3.753475 1_555
Eu1 Pm0 3.772473 1_555
Eu1 Pm0 3.772473 1_554
Eu1 Eu5 3.816881 1_564
Eu1 Eu5 3.816881 1_565
Eu1 Eu3 3.816888 1_555
Eu1 Eu3 3.816888 1_554
Eu1 Pm1 3.819838 1_565
Eu1 Pm1 3.819854 1_555
Eu1 Eu2 3.885834 1_655
Eu2 Pm0 3.772473 1_555
Eu2 Pm0 3.772473 1_554
Eu2 Eu4 3.816881 1_565
Eu2 Eu4 3.816881 1_564
Eu2 Eu3 3.816881 1_455
Eu2 Eu3 3.816881 1_454
Eu2 Pm1 3.819846 1_455
Eu2 Pm1 3.819846 1_565
Eu3 Eu5 3.753475 1_555
Eu3 Eu4 3.753476 1_555
Eu3 Pm1 3.772473 1_556
Eu3 Pm1 3.772473 1_555
Eu3 Pm0 3.819838 1_655
Eu3 Pm0 3.819854 1_555
Eu3 Eu5 3.885834 1_565
Eu3 Eu4 3.885834 1_665
Eu4 Eu5 3.753475 1_555
Eu4 Pm1 3.772473 1_556
Eu4 Pm1 3.772473 1_555
Eu4 Pm0 3.819838 1_545
Eu4 Pm0 3.819854 1_555
Eu4 Eu5 3.885834 1_455
Eu5 Pm1 3.772473 1_556
Eu5 Pm1 3.772473 1_555
Eu5 Pm0 3.819846 1_545
Eu5 Pm0 3.819846 1_655
