# generated using pymatgen
data_CsLiMg30O31
_symmetry_space_group_name_H-M   'P 1'
_cell_length_a   8.55223000
_cell_length_b   8.72609700
_cell_length_c   8.79606400
_cell_angle_alpha   90.00000000
_cell_angle_beta   90.00000000
_cell_angle_gamma   90.00000000
_symmetry_Int_Tables_number   1
_chemical_formula_structural   CsLiMg30O31
_chemical_formula_sum   'Cs1 Li1 Mg30 O31'
_cell_volume   656.42904502
_cell_formula_units_Z   1
loop_
 _symmetry_equiv_pos_site_id
 _symmetry_equiv_pos_as_xyz
  1  'x, y, z'
loop_
 _atom_site_type_symbol
 _atom_site_label
 _atom_site_symmetry_multiplicity
 _atom_site_fract_x
 _atom_site_fract_y
 _atom_site_fract_z
 _atom_site_occupancy
  Cs  Cs0  1  0.50000000  0.50000000  0.97618300  1
  Li  Li0  1  0.00000000  0.00000000  0.99120800  1
  Mg  Mg0  1  0.00000000  0.50000000  0.97582300  1
  Mg  Mg1  1  0.50000000  0.00000000  0.99839700  1
  Mg  Mg2  1  0.00000000  0.00000000  0.50249300  1
  Mg  Mg3  1  0.00000000  0.50000000  0.51898400  1
  Mg  Mg4  1  0.50000000  0.00000000  0.50010800  1
  Mg  Mg5  1  0.50000000  0.50000000  0.48867500  1
  Mg  Mg6  1  0.24357200  0.24200300  0.00623700  1
  Mg  Mg7  1  0.24357200  0.75799700  0.00623700  1
  Mg  Mg8  1  0.75642800  0.24200300  0.00623700  1
  Mg  Mg9  1  0.75642800  0.75799700  0.00623700  1
  Mg  Mg10  1  0.24756900  0.24441900  0.49660400  1
  Mg  Mg11  1  0.24756900  0.75558100  0.49660400  1
  Mg  Mg12  1  0.75243100  0.24441900  0.49660400  1
  Mg  Mg13  1  0.75243100  0.75558100  0.49660400  1
  Mg  Mg14  1  0.00000000  0.22480700  0.24115000  1
  Mg  Mg15  1  0.00000000  0.77519300  0.24115000  1
  Mg  Mg16  1  0.50000000  0.23914400  0.25170900  1
  Mg  Mg17  1  0.50000000  0.76085600  0.25170900  1
  Mg  Mg18  1  0.00000000  0.24303500  0.75677000  1
  Mg  Mg19  1  0.00000000  0.75696500  0.75677000  1
  Mg  Mg20  1  0.50000000  0.24298900  0.73924000  1
  Mg  Mg21  1  0.50000000  0.75701100  0.73924000  1
  Mg  Mg22  1  0.25066000  0.00000000  0.24697000  1
  Mg  Mg23  1  0.26805900  0.50000000  0.25726100  1
  Mg  Mg24  1  0.74934000  0.00000000  0.24697000  1
  Mg  Mg25  1  0.73194100  0.50000000  0.25726100  1
  Mg  Mg26  1  0.24769800  0.00000000  0.75659500  1
  Mg  Mg27  1  0.25296600  0.50000000  0.72687800  1
  Mg  Mg28  1  0.75230200  0.00000000  0.75659500  1
  Mg  Mg29  1  0.74703400  0.50000000  0.72687800  1
  O  O0  1  0.00000000  0.00000000  0.26388800  1
  O  O1  1  0.50000000  0.00000000  0.26207800  1
  O  O2  1  0.50000000  0.50000000  0.27432500  1
  O  O3  1  0.00000000  0.00000000  0.73977700  1
  O  O4  1  0.00000000  0.50000000  0.74649900  1
  O  O5  1  0.50000000  0.00000000  0.74383200  1
  O  O6  1  0.50000000  0.50000000  0.69896100  1
  O  O7  1  0.24487500  0.24831400  0.25439700  1
  O  O8  1  0.24487500  0.75168600  0.25439700  1
  O  O9  1  0.75512500  0.24831400  0.25439700  1
  O  O10  1  0.75512500  0.75168600  0.25439700  1
  O  O11  1  0.25145500  0.25695300  0.75122800  1
  O  O12  1  0.25145500  0.74304700  0.75122800  1
  O  O13  1  0.74854500  0.25695300  0.75122800  1
  O  O14  1  0.74854500  0.74304700  0.75122800  1
  O  O15  1  0.00000000  0.24976100  0.99959800  1
  O  O16  1  0.00000000  0.75023900  0.99959800  1
  O  O17  1  0.50000000  0.21694800  0.01305400  1
  O  O18  1  0.50000000  0.78305200  0.01305400  1
  O  O19  1  0.00000000  0.25619400  0.49572900  1
  O  O20  1  0.00000000  0.74380600  0.49572900  1
  O  O21  1  0.50000000  0.24414400  0.49633300  1
  O  O22  1  0.50000000  0.75585600  0.49633300  1
  O  O23  1  0.24815100  0.00000000  0.00031600  1
  O  O24  1  0.20869400  0.50000000  0.04300800  1
  O  O25  1  0.75184900  0.00000000  0.00031600  1
  O  O26  1  0.79130600  0.50000000  0.04300800  1
  O  O27  1  0.24809000  0.00000000  0.50386800  1
  O  O28  1  0.23656800  0.50000000  0.48897200  1
  O  O29  1  0.75191000  0.00000000  0.50386800  1
  O  O30  1  0.76343200  0.50000000  0.48897200  1
loop_
_geom_bond_atom_site_label_1
_geom_bond_atom_site_label_2
_geom_bond_distance
_geom_bond_site_symmetry_2
Cs0 O6 2.438462 1_555
Cs0 O17 2.491141 1_556
Cs0 O18 2.491141 1_556
Cs0 O26 2.559719 1_556
Cs0 O24 2.559719 1_556
Cs0 O2 2.622476 1_556
Li0 O23 2.123756 1_556
Li0 O25 2.123756 1_456
Li0 O15 2.180688 1_555
Li0 O16 2.180688 1_545
Li0 O3 2.211603 1_555
Li0 O0 2.398511 1_556
Mg0 O24 1.880092 1_556
Mg0 O26 1.880092 1_456
Mg0 O4 2.017149 1_555
Mg0 O15 2.193601 1_555
Mg0 O16 2.193601 1_555
Mg1 O17 1.897494 1_556
Mg1 O18 1.897494 1_546
Mg1 O25 2.153937 1_556
Mg1 O23 2.153937 1_556
Mg1 O5 2.239170 1_555
Mg1 O1 2.319355 1_556
Mg2 O3 2.087165 1_555
Mg2 O0 2.098785 1_555
Mg2 O29 2.121757 1_455
Mg2 O27 2.121757 1_555
Mg2 O19 2.236365 1_555
Mg2 O20 2.236365 1_545
Mg3 O4 2.001237 1_555
Mg3 O30 2.040334 1_455
Mg3 O28 2.040334 1_555
Mg3 O20 2.137286 1_555
Mg3 O19 2.137286 1_555
Mg4 O1 2.093727 1_555
Mg4 O22 2.130683 1_545
Mg4 O21 2.130683 1_555
Mg4 O5 2.143812 1_555
Mg4 O29 2.154646 1_555
Mg4 O27 2.154646 1_555
Mg5 O6 1.849689 1_555
Mg5 O2 1.885436 1_555
Mg5 O22 2.233640 1_555
Mg5 O21 2.233640 1_555
Mg5 O28 2.252933 1_555
Mg5 O30 2.252933 1_555
Mg6 O15 2.085001 1_554
Mg6 O23 2.112747 1_555
Mg6 O7 2.183554 1_555
Mg6 O17 2.204718 1_555
Mg6 O11 2.247877 1_554
Mg6 O24 2.293898 1_555
Mg7 O16 2.085001 1_554
Mg7 O23 2.112747 1_565
Mg7 O8 2.183554 1_555
Mg7 O18 2.204718 1_555
Mg7 O12 2.247877 1_554
Mg7 O24 2.293898 1_555
Mg8 O15 2.085001 1_654
Mg8 O25 2.112747 1_555
Mg8 O9 2.183554 1_555
Mg8 O17 2.204718 1_555
Mg8 O13 2.247877 1_554
Mg8 O26 2.293898 1_555
Mg9 O16 2.085001 1_654
Mg9 O25 2.112747 1_565
Mg9 O10 2.183554 1_555
Mg9 O18 2.204718 1_555
Mg9 O14 2.247877 1_554
Mg9 O26 2.293898 1_555
Mg10 O19 2.119773 1_555
Mg10 O7 2.130864 1_555
Mg10 O27 2.133785 1_555
Mg10 O21 2.158851 1_555
Mg10 O28 2.233217 1_555
Mg10 O11 2.242604 1_555
Mg11 O20 2.119773 1_555
Mg11 O8 2.130864 1_555
Mg11 O27 2.133785 1_565
Mg11 O22 2.158851 1_555
Mg11 O28 2.233217 1_555
Mg11 O12 2.242604 1_555
Mg12 O19 2.119773 1_655
Mg12 O9 2.130864 1_555
Mg12 O29 2.133785 1_555
Mg12 O21 2.158851 1_555
Mg12 O30 2.233217 1_555
Mg12 O13 2.242604 1_555
Mg13 O20 2.119773 1_655
Mg13 O10 2.130864 1_555
Mg13 O29 2.133785 1_565
Mg13 O22 2.158851 1_555
Mg13 O30 2.233217 1_555
Mg13 O14 2.242604 1_555
Mg14 O0 1.971857 1_555
Mg14 O9 2.107473 1_455
Mg14 O7 2.107473 1_555
Mg14 O15 2.135836 1_554
Mg14 O19 2.255980 1_555
Mg15 O0 1.971857 1_565
Mg15 O10 2.107473 1_455
Mg15 O8 2.107473 1_555
Mg15 O16 2.135836 1_554
Mg15 O20 2.255980 1_555
Mg16 O1 2.088786 1_555
Mg16 O17 2.108141 1_555
Mg16 O21 2.152171 1_555
Mg16 O7 2.183482 1_555
Mg16 O9 2.183482 1_555
Mg16 O2 2.284931 1_555
Mg17 O1 2.088786 1_565
Mg17 O18 2.108141 1_555
Mg17 O22 2.152171 1_555
Mg17 O8 2.183482 1_555
Mg17 O10 2.183482 1_555
Mg17 O2 2.284931 1_555
Mg18 O3 2.126008 1_555
Mg18 O15 2.136737 1_555
Mg18 O11 2.154479 1_555
Mg18 O13 2.154479 1_455
Mg18 O4 2.244121 1_555
Mg18 O19 2.299003 1_555
Mg19 O3 2.126008 1_565
Mg19 O16 2.136737 1_555
Mg19 O14 2.154479 1_455
Mg19 O12 2.154479 1_555
Mg19 O4 2.244121 1_555
Mg19 O20 2.299003 1_555
Mg20 O5 2.120730 1_555
Mg20 O13 2.131713 1_555
Mg20 O11 2.131713 1_555
Mg20 O21 2.136649 1_555
Mg20 O6 2.270516 1_555
Mg20 O17 2.419181 1_556
Mg21 O5 2.120730 1_565
Mg21 O14 2.131713 1_555
Mg21 O12 2.131713 1_555
Mg21 O22 2.136649 1_555
Mg21 O6 2.270516 1_555
Mg21 O18 2.419181 1_556
Mg22 O1 2.136550 1_555
Mg22 O0 2.148861 1_555
Mg22 O8 2.168361 1_545
Mg22 O7 2.168361 1_555
Mg22 O23 2.169690 1_555
Mg22 O27 2.259798 1_555
Mg23 O24 1.951773 1_555
Mg23 O2 1.989283 1_555
Mg23 O28 2.055861 1_555
Mg23 O7 2.205312 1_555
Mg23 O8 2.205312 1_555
Mg24 O1 2.136550 1_555
Mg24 O0 2.148861 1_655
Mg24 O10 2.168361 1_545
Mg24 O9 2.168361 1_555
Mg24 O25 2.169690 1_555
Mg24 O29 2.259798 1_555
Mg25 O26 1.951773 1_555
Mg25 O2 1.989283 1_555
Mg25 O30 2.055861 1_555
Mg25 O9 2.205312 1_555
Mg25 O10 2.205312 1_555
Mg26 O3 2.123529 1_555
Mg26 O23 2.143789 1_556
Mg26 O5 2.160663 1_555
Mg26 O27 2.223005 1_555
Mg26 O12 2.242924 1_545
Mg26 O11 2.242924 1_555
Mg27 O28 2.097330 1_555
Mg27 O6 2.126915 1_555
Mg27 O12 2.131679 1_555
Mg27 O11 2.131679 1_555
Mg27 O4 2.170297 1_555
Mg28 O3 2.123529 1_655
Mg28 O25 2.143789 1_556
Mg28 O5 2.160663 1_555
Mg28 O29 2.223005 1_555
Mg28 O14 2.242924 1_545
Mg28 O13 2.242924 1_555
Mg29 O30 2.097330 1_555
Mg29 O6 2.126915 1_555
Mg29 O13 2.131679 1_555
Mg29 O14 2.131679 1_555
Mg29 O4 2.170297 1_655
