# generated using pymatgen
data_Ti2VRe
_symmetry_space_group_name_H-M   'P 1'
_cell_length_a   10.51907299
_cell_length_b   10.51907299
_cell_length_c   10.51907299
_cell_angle_alpha   124.21448151
_cell_angle_beta   118.22846045
_cell_angle_gamma   87.97813490
_symmetry_Int_Tables_number   1
_chemical_formula_structural   Ti2VRe
_chemical_formula_sum   'Ti2 V1 Re1'
_cell_volume   804.41210664
_cell_formula_units_Z   1
loop_
 _symmetry_equiv_pos_site_id
 _symmetry_equiv_pos_as_xyz
  1  'x, y, z'
loop_
 _atom_site_type_symbol
 _atom_site_label
 _atom_site_symmetry_multiplicity
 _atom_site_fract_x
 _atom_site_fract_y
 _atom_site_fract_z
 _atom_site_occupancy
  Ti  Ti0  1  0.00000000  0.27579800  0.27579800  1
  Ti  Ti1  1  0.00000000  0.72420200  0.72420200  1
  V  V0  1  0.00000000  0.00000000  0.00000000  1
  Re  Re0  1  0.00000000  0.50000000  0.50000000  1
loop_
_geom_bond_atom_site_label_1
_geom_bond_atom_site_label_2
_geom_bond_distance
_geom_bond_site_symmetry_2
Ti0 V0 2.714411 1_555
Ti1 V0 2.714411 1_566
Re0 Ti0 2.206602 1_555
Re0 Ti1 2.206602 1_555
