# generated using pymatgen
data_LiMnAsO5
_symmetry_space_group_name_H-M   'P 1'
_cell_length_a   5.44863422
_cell_length_b   10.20099854
_cell_length_c   7.05581283
_cell_angle_alpha   74.65273681
_cell_angle_beta   74.15686481
_cell_angle_gamma   96.38259115
_symmetry_Int_Tables_number   1
_chemical_formula_structural   LiMnAsO5
_chemical_formula_sum   'Li4 Mn4 As4 O20'
_cell_volume   356.63921862
_cell_formula_units_Z   4
loop_
 _symmetry_equiv_pos_site_id
 _symmetry_equiv_pos_as_xyz
  1  'x, y, z'
loop_
 _atom_site_type_symbol
 _atom_site_label
 _atom_site_symmetry_multiplicity
 _atom_site_fract_x
 _atom_site_fract_y
 _atom_site_fract_z
 _atom_site_occupancy
  Li  Li0  1  0.54305400  0.35611300  0.37701300  1
  Li  Li1  1  0.04250700  0.85615700  0.87703500  1
  Li  Li2  1  0.45759700  0.64383200  0.62298000  1
  Li  Li3  1  0.95710000  0.14389600  0.12297100  1
  Mn  Mn0  1  0.00011400  0.49996000  0.50011900  1
  Mn  Mn1  1  0.00015400  0.50004200  0.00017100  1
  Mn  Mn2  1  0.49969700  0.99998700  0.99987000  1
  Mn  Mn3  1  0.49990800  0.00000600  0.49991300  1
  As  As0  1  0.99793100  0.15675700  0.60437300  1
  As  As1  1  0.49814000  0.65672200  0.10458400  1
  As  As2  1  0.00187500  0.84326100  0.39545500  1
  As  As3  1  0.50207800  0.34321100  0.89567400  1
  O  O0  1  0.98235800  0.68475700  0.35317100  1
  O  O1  1  0.48226800  0.18483500  0.85290800  1
  O  O2  1  0.01751200  0.31512000  0.64720600  1
  O  O3  1  0.51744500  0.81521100  0.14693400  1
  O  O4  1  0.67758900  0.84112700  0.51117200  1
  O  O5  1  0.17782000  0.34111700  0.01150600  1
  O  O6  1  0.32224200  0.15895300  0.48846000  1
  O  O7  1  0.82248900  0.65894100  0.98880500  1
  O  O8  1  0.17124300  0.87356700  0.55959400  1
  O  O9  1  0.67164000  0.37347600  0.05980600  1
  O  O10  1  0.82838900  0.12660500  0.44016900  1
  O  O11  1  0.32877100  0.62653100  0.94036600  1
  O  O12  1  0.12437300  0.96735500  0.15438100  1
  O  O13  1  0.62473000  0.46740200  0.65476000  1
  O  O14  1  0.87524800  0.03250900  0.84516900  1
  O  O15  1  0.37564800  0.53257400  0.34557400  1
  O  O16  1  0.40832400  0.94426500  0.79137800  1
  O  O17  1  0.90873400  0.44424200  0.29165100  1
  O  O18  1  0.59127400  0.05574400  0.20829700  1
  O  O19  1  0.09174600  0.55572700  0.70853400  1
loop_
_geom_bond_atom_site_label_1
_geom_bond_atom_site_label_2
_geom_bond_distance
_geom_bond_site_symmetry_2
Li0 O17 1.949550 1_555
Li0 O6 2.054062 1_555
Li0 O15 2.094192 1_555
Li0 O9 2.106643 1_555
Li1 O16 1.949964 1_555
Li1 O7 2.052840 1_455
Li1 O14 2.092759 1_465
Li1 O8 2.108125 1_555
Li2 O19 1.950186 1_555
Li2 O4 2.053434 1_555
Li2 O13 2.093076 1_555
Li2 O11 2.108034 1_555
Li3 O18 1.950341 1_555
Li3 O5 2.054377 1_655
Li3 O12 2.094505 1_645
Li3 O10 2.106777 1_555
Mn0 O17 1.874576 1_455
Mn0 O19 1.875079 1_555
Mn0 O0 1.923212 1_455
Mn0 O2 1.923273 1_555
Mn0 O13 1.980615 1_455
Mn0 O15 1.981116 1_555
Mn1 O17 1.886737 1_455
Mn1 O19 1.887733 1_554
Mn1 O11 1.958188 1_554
Mn1 O9 1.958392 1_455
Mn1 O7 1.973163 1_454
Mn1 O5 1.973405 1_555
Mn2 O16 1.874738 1_555
Mn2 O18 1.874976 1_566
Mn2 O1 1.923135 1_565
Mn2 O3 1.923259 1_556
Mn2 O12 1.980057 1_556
Mn2 O14 1.981530 1_565
Mn3 O16 1.886588 1_545
Mn3 O18 1.887668 1_555
Mn3 O10 1.958260 1_555
Mn3 O8 1.958320 1_545
Mn3 O4 1.973070 1_545
Mn3 O6 1.973563 1_555
As0 O2 1.717602 1_655
As0 O6 1.727506 1_655
As0 O14 1.729609 1_555
As0 O10 1.732091 1_555
As1 O3 1.717352 1_555
As1 O7 1.727458 1_554
As1 O15 1.730068 1_555
As1 O11 1.731638 1_554
As2 O0 1.717303 1_455
As2 O4 1.727264 1_455
As2 O12 1.730239 1_555
As2 O8 1.731501 1_555
As3 O1 1.717530 1_555
As3 O5 1.727375 1_556
As3 O13 1.729922 1_555
As3 O9 1.732070 1_556
