# generated using pymatgen
data_BaSmEuBiO6
_symmetry_space_group_name_H-M   'P 1'
_cell_length_a   6.13028849
_cell_length_b   6.26388034
_cell_length_c   8.75146434
_cell_angle_alpha   90.09963779
_cell_angle_beta   89.73974449
_cell_angle_gamma   89.89645746
_symmetry_Int_Tables_number   1
_chemical_formula_structural   BaSmEuBiO6
_chemical_formula_sum   'Ba2 Sm2 Eu2 Bi2 O12'
_cell_volume   336.04639493
_cell_formula_units_Z   2
loop_
 _symmetry_equiv_pos_site_id
 _symmetry_equiv_pos_as_xyz
  1  'x, y, z'
loop_
 _atom_site_type_symbol
 _atom_site_label
 _atom_site_symmetry_multiplicity
 _atom_site_fract_x
 _atom_site_fract_y
 _atom_site_fract_z
 _atom_site_occupancy
  Ba  Ba0  1  0.98821921  0.04271420  0.25034715  1
  Ba  Ba1  1  0.01178079  0.95728580  0.74965285  1
  Sm  Sm0  1  0.50000000  0.00000000  -0.00000000  1
  Sm  Sm1  1  -0.00000000  0.50000000  0.50000000  1
  Eu  Eu0  1  0.51005206  0.55074544  0.25084638  1
  Eu  Eu1  1  0.48994794  0.44925456  0.74915362  1
  Bi  Bi0  1  -0.00000000  0.50000000  -0.00000000  1
  Bi  Bi1  1  0.50000000  0.00000000  0.50000000  1
  O  O0  1  0.20611858  0.22101011  0.94932815  1
  O  O1  1  0.31682437  0.69907066  0.55288891  1
  O  O2  1  0.79388142  0.77898989  0.05067185  1
  O  O3  1  0.68317563  0.30092934  0.44711109  1
  O  O4  1  0.29863224  0.68559255  0.94524052  1
  O  O5  1  0.22047262  0.20981288  0.55042008  1
  O  O6  1  0.70136776  0.31440745  0.05475948  1
  O  O7  1  0.77952738  0.79018712  0.44957992  1
  O  O8  1  0.42390896  0.95491768  0.25652303  1
  O  O9  1  0.11391936  0.48553787  0.24167846  1
  O  O10  1  0.57609104  0.04508232  0.74347697  1
  O  O11  1  0.88608064  0.51446213  0.75832154  1
loop_
_geom_bond_atom_site_label_1
_geom_bond_atom_site_label_2
_geom_bond_distance
_geom_bond_site_symmetry_2
Ba0 O7 2.678714 1_545
Ba0 O2 2.686592 1_545
Ba0 O8 2.726756 1_645
Ba0 O9 2.881216 1_655
Ba0 O6 2.990831 1_555
Ba0 O3 3.004715 1_555
Ba0 O0 3.155173 1_654
Ba0 O5 3.169981 1_655
Ba1 O5 2.678714 1_565
Ba1 O0 2.686592 1_565
Ba1 O10 2.726756 1_465
Ba1 O11 2.881216 1_455
Ba1 O4 2.990831 1_555
Ba1 O1 3.004715 1_555
Ba1 O2 3.155173 1_456
Ba1 O7 3.169981 1_455
Eu0 O9 2.464889 1_555
Eu0 O6 2.545289 1_555
Eu0 O3 2.558335 1_555
Eu0 O8 2.585588 1_555
Eu0 O7 2.833604 1_555
Eu0 O2 2.851379 1_555
Eu0 O1 3.035209 1_555
Eu0 O4 3.095412 1_554
Eu1 O11 2.464889 1_555
Eu1 O4 2.545289 1_555
Eu1 O1 2.558335 1_555
Eu1 O10 2.585588 1_555
Eu1 O5 2.833604 1_555
Eu1 O0 2.851379 1_555
Eu1 O3 3.035209 1_555
Eu1 O6 3.095412 1_556
Bi0 O2 2.198055 1_455
Bi0 O0 2.198055 1_554
Bi0 O4 2.221320 1_554
Bi0 O6 2.221320 1_455
Bi0 O9 2.232300 1_555
Bi0 O11 2.232300 1_454
Bi1 O7 2.200290 1_545
Bi1 O5 2.200290 1_555
Bi1 O10 2.201128 1_555
Bi1 O8 2.201128 1_545
Bi1 O1 2.243728 1_545
Bi1 O3 2.243728 1_555
O0 Sm0 2.314999 1_556
O1 Sm1 2.357177 1_555
O2 Sm0 2.314999 1_565
O3 Sm1 2.357177 1_655
O4 Sm0 2.375492 1_566
O5 Sm1 2.307546 1_555
O6 Sm0 2.375492 1_555
O7 Sm1 2.307546 1_655
O8 Sm0 2.308746 1_565
O9 Sm1 2.364605 1_555
O10 Sm0 2.308746 1_556
O11 Sm1 2.364605 1_655
