# generated using pymatgen
data_Na3Sc2(MoO4)3
_symmetry_space_group_name_H-M   'P 1'
_cell_length_a   9.23498340
_cell_length_b   9.23498340
_cell_length_c   7.28802239
_cell_angle_alpha   75.70401148
_cell_angle_beta   75.70401148
_cell_angle_gamma   95.06581102
_symmetry_Int_Tables_number   1
_chemical_formula_structural   Na3Sc2(MoO4)3
_chemical_formula_sum   'Na6 Sc4 Mo6 O24'
_cell_volume   576.23691010
_cell_formula_units_Z   2
loop_
 _symmetry_equiv_pos_site_id
 _symmetry_equiv_pos_as_xyz
  1  'x, y, z'
loop_
 _atom_site_type_symbol
 _atom_site_label
 _atom_site_symmetry_multiplicity
 _atom_site_fract_x
 _atom_site_fract_y
 _atom_site_fract_z
 _atom_site_occupancy
  Na  Na0  1  0.23083800  0.76916300  0.25000000  1
  Na  Na1  1  0.76916200  0.23083800  0.75000000  1
  Na  Na2  1  0.00000000  0.00000000  0.00000000  1
  Na  Na3  1  0.00000000  0.00000000  0.50000000  1
  Na  Na4  1  0.51266100  0.48733900  0.25000000  1
  Na  Na5  1  0.48733900  0.51266100  0.75000000  1
  Sc  Sc0  1  0.55408600  0.86840000  0.37735800  1
  Sc  Sc1  1  0.44591400  0.13160000  0.62264200  1
  Sc  Sc2  1  0.13160000  0.44591400  0.12264200  1
  Sc  Sc3  1  0.86840000  0.55408600  0.87735800  1
  Mo  Mo0  1  0.78160900  0.21839100  0.25000000  1
  Mo  Mo1  1  0.21839100  0.78160900  0.75000000  1
  Mo  Mo2  1  0.37798200  0.15395900  0.12167400  1
  Mo  Mo3  1  0.62201800  0.84604100  0.87832600  1
  Mo  Mo4  1  0.84604100  0.62201800  0.37832600  1
  Mo  Mo5  1  0.15395900  0.37798200  0.62167400  1
  O  O0  1  0.46300200  0.08669900  0.33995100  1
  O  O1  1  0.53699800  0.91330100  0.66004900  1
  O  O2  1  0.91330100  0.53699800  0.16004900  1
  O  O3  1  0.08669900  0.46300200  0.83995100  1
  O  O4  1  0.49838600  0.84209200  0.12565200  1
  O  O5  1  0.50161400  0.15790800  0.87434800  1
  O  O6  1  0.15790800  0.50161400  0.37434800  1
  O  O7  1  0.84209200  0.49838600  0.62565200  1
  O  O8  1  0.19927100  0.03350500  0.20912200  1
  O  O9  1  0.80072900  0.96649500  0.79087800  1
  O  O10  1  0.96649500  0.80072900  0.29087800  1
  O  O11  1  0.03350500  0.19927100  0.70912200  1
  O  O12  1  0.75911500  0.01987900  0.23071200  1
  O  O13  1  0.24088500  0.98012100  0.76928800  1
  O  O14  1  0.98012100  0.24088500  0.26928800  1
  O  O15  1  0.01987900  0.75911500  0.73071200  1
  O  O16  1  0.66363500  0.26279100  0.47211700  1
  O  O17  1  0.33636500  0.73720900  0.52788300  1
  O  O18  1  0.73720900  0.33636500  0.02788300  1
  O  O19  1  0.26279100  0.66363500  0.97211700  1
  O  O20  1  0.64401000  0.66586800  0.41613100  1
  O  O21  1  0.35599000  0.33413200  0.58386900  1
  O  O22  1  0.33413200  0.35599000  0.08386900  1
  O  O23  1  0.66586800  0.64401000  0.91613100  1
loop_
_geom_bond_atom_site_label_1
_geom_bond_atom_site_label_2
_geom_bond_distance
_geom_bond_site_symmetry_2
Na0 O4 2.382981 1_555
Na0 O6 2.382991 1_555
Na0 O17 2.422534 1_555
Na0 O19 2.422540 1_554
Na0 O8 2.437737 1_565
Na0 O10 2.437744 1_455
Na1 O7 2.382982 1_555
Na1 O5 2.382982 1_555
Na1 O16 2.422534 1_555
Na1 O18 2.422534 1_556
Na1 O11 2.437746 1_655
Na1 O9 2.437746 1_545
Na2 O11 2.371756 1_554
Na2 O10 2.371756 1_445
Na2 O13 2.487353 1_544
Na2 O12 2.487353 1_455
Na2 O9 2.706037 1_444
Na2 O8 2.706037 1_555
Na3 O9 2.371756 1_445
Na3 O8 2.371756 1_555
Na3 O14 2.487353 1_455
Na3 O15 2.487353 1_545
Na3 O10 2.706037 1_445
Na3 O11 2.706037 1_555
Na4 O23 2.493090 1_554
Na4 O21 2.493090 1_555
Na4 O20 2.648316 1_555
Na4 O22 2.648316 1_555
Na4 O16 2.971871 1_555
Na4 O18 2.971871 1_555
Na5 O22 2.493090 1_556
Na5 O20 2.493090 1_555
Na5 O23 2.648316 1_555
Na5 O21 2.648316 1_555
Na5 O17 2.971871 1_555
Na5 O19 2.971871 1_555
Mo0 O12 1.870341 1_555
Mo0 O14 1.870341 1_555
Mo0 O16 1.873846 1_555
Mo0 O18 1.873846 1_555
Mo1 O15 1.870341 1_555
Mo1 O13 1.870341 1_555
Mo1 O19 1.873846 1_555
Mo1 O17 1.873846 1_555
Mo2 O8 1.781457 1_555
Mo2 O5 1.870235 1_554
Mo2 O22 1.911960 1_555
Mo2 O0 1.935961 1_555
Mo3 O9 1.781457 1_555
Mo3 O4 1.870235 1_556
Mo3 O23 1.911960 1_555
Mo3 O1 1.935961 1_555
Mo4 O10 1.781457 1_555
Mo4 O7 1.870235 1_555
Mo4 O20 1.911960 1_555
Mo4 O2 1.935961 1_555
Mo5 O11 1.781457 1_555
Mo5 O6 1.870235 1_555
Mo5 O21 1.911960 1_555
Mo5 O3 1.935961 1_555
O0 Sc1 2.171269 1_555
O0 Sc0 2.233243 1_545
O1 Sc0 2.171269 1_555
O1 Sc1 2.233243 1_565
O2 Sc3 2.171269 1_554
O2 Sc2 2.233243 1_655
O3 Sc2 2.171269 1_556
O3 Sc3 2.233243 1_455
O4 Sc0 2.086346 1_555
O5 Sc1 2.086346 1_555
O6 Sc2 2.086346 1_555
O7 Sc3 2.086346 1_555
O12 Sc0 2.116309 1_545
O13 Sc1 2.116309 1_565
O14 Sc2 2.116309 1_655
O15 Sc3 2.116309 1_455
O16 Sc1 2.130284 1_555
O17 Sc0 2.130284 1_555
O18 Sc3 2.130284 1_554
O19 Sc2 2.130284 1_556
O20 Sc0 2.096900 1_555
O21 Sc1 2.096900 1_555
O22 Sc2 2.096900 1_555
O23 Sc3 2.096900 1_555
