# generated using pymatgen
data_K2YF5
_symmetry_space_group_name_H-M   'P 1'
_cell_length_a   6.54564623
_cell_length_b   7.23925874
_cell_length_c   10.70124385
_cell_angle_alpha   90.00000000
_cell_angle_beta   90.00000000
_cell_angle_gamma   90.00000000
_symmetry_Int_Tables_number   1
_chemical_formula_structural   K2YF5
_chemical_formula_sum   'K8 Y4 F20'
_cell_volume   507.08514608
_cell_formula_units_Z   4
loop_
 _symmetry_equiv_pos_site_id
 _symmetry_equiv_pos_as_xyz
  1  'x, y, z'
loop_
 _atom_site_type_symbol
 _atom_site_label
 _atom_site_symmetry_multiplicity
 _atom_site_fract_x
 _atom_site_fract_y
 _atom_site_fract_z
 _atom_site_occupancy
  K  K0  1  0.96522424  0.50290207  0.67100704  1
  K  K1  1  0.03477576  0.00290207  0.32899296  1
  K  K2  1  0.53477576  0.50290207  0.17100704  1
  K  K3  1  0.46522424  0.00290207  0.82899296  1
  K  K4  1  0.96522424  0.99709793  0.67100704  1
  K  K5  1  0.03477576  0.49709793  0.32899296  1
  K  K6  1  0.53477576  0.99709793  0.17100704  1
  K  K7  1  0.46522424  0.49709793  0.82899296  1
  Y  Y0  1  0.93467521  0.25000000  0.99694637  1
  Y  Y1  1  0.06532479  0.75000000  0.00305363  1
  Y  Y2  1  0.56532479  0.25000000  0.49694637  1
  Y  Y3  1  0.43467521  0.75000000  0.50305363  1
  F  F0  1  0.85109344  0.53514045  0.92354488  1
  F  F1  1  0.14890656  0.03514045  0.07645512  1
  F  F2  1  0.64890656  0.53514045  0.42354488  1
  F  F3  1  0.35109344  0.03514045  0.57645512  1
  F  F4  1  0.85109344  0.96485955  0.92354488  1
  F  F5  1  0.14890656  0.46485955  0.07645512  1
  F  F6  1  0.64890656  0.96485955  0.42354488  1
  F  F7  1  0.35109344  0.46485955  0.57645512  1
  F  F8  1  0.63133989  0.75000000  0.66825577  1
  F  F9  1  0.36866011  0.25000000  0.33174423  1
  F  F10  1  0.86866011  0.75000000  0.16825577  1
  F  F11  1  0.13133989  0.25000000  0.83174423  1
  F  F12  1  0.10091361  0.75000000  0.51237980  1
  F  F13  1  0.89908639  0.25000000  0.48762020  1
  F  F14  1  0.39908639  0.75000000  0.01237980  1
  F  F15  1  0.60091361  0.25000000  0.98762020  1
  F  F16  1  0.16323786  0.75000000  0.80590755  1
  F  F17  1  0.83676214  0.25000000  0.19409245  1
  F  F18  1  0.33676214  0.75000000  0.30590755  1
  F  F19  1  0.66323786  0.25000000  0.69409245  1
loop_
_geom_bond_atom_site_label_1
_geom_bond_atom_site_label_2
_geom_bond_distance
_geom_bond_site_symmetry_2
F0 Y1 2.260459 1_656
F0 Y0 2.275357 1_555
F0 K7 2.734796 1_555
F0 K0 2.813522 1_555
F1 Y0 2.260459 1_454
F1 Y1 2.275357 1_545
F1 K6 2.734796 1_545
F1 K1 2.813522 1_555
F2 Y3 2.260459 1_555
F2 Y2 2.275357 1_555
F2 K5 2.734796 1_655
F2 K2 2.813522 1_555
F3 Y2 2.260459 1_555
F3 Y3 2.275357 1_545
F3 K4 2.734796 1_445
F3 K3 2.813522 1_555
F4 Y1 2.260459 1_656
F4 Y0 2.275357 1_565
F4 K3 2.734796 1_565
F4 K4 2.813522 1_555
F5 Y0 2.260459 1_454
F5 Y1 2.275357 1_555
F5 K2 2.734796 1_555
F5 K5 2.813522 1_555
F6 Y3 2.260459 1_555
F6 Y2 2.275357 1_565
F6 K1 2.734796 1_665
F6 K6 2.813522 1_555
F7 Y2 2.260459 1_555
F7 Y3 2.275357 1_555
F7 K0 2.734796 1_455
F7 K7 2.813522 1_555
F8 Y3 2.186891 1_555
F8 K7 2.737319 1_555
F8 K3 2.737319 1_565
F8 K0 2.824368 1_555
F8 K4 2.824368 1_555
F9 Y2 2.186891 1_555
F9 K6 2.737319 1_545
F9 K2 2.737319 1_555
F9 K1 2.824368 1_555
F9 K5 2.824368 1_555
F10 Y1 2.186891 1_655
F10 K5 2.737319 1_655
F10 K1 2.737319 1_665
F10 K2 2.824368 1_555
F10 K6 2.824368 1_555
F11 Y0 2.186891 1_455
F11 K4 2.737319 1_445
F11 K0 2.737319 1_455
F11 K3 2.824368 1_555
F11 K7 2.824368 1_555
F12 Y3 2.186964 1_555
F12 K0 2.621110 1_455
F12 K4 2.621110 1_455
F12 K1 2.718567 1_565
F12 K5 2.718567 1_555
F13 Y2 2.186964 1_555
F13 K1 2.621110 1_655
F13 K5 2.621110 1_655
F13 K4 2.718567 1_545
F13 K0 2.718567 1_555
F14 Y1 2.186964 1_555
F14 K2 2.621110 1_555
F14 K6 2.621110 1_555
F14 K3 2.718567 1_564
F14 K7 2.718567 1_554
F15 Y0 2.186964 1_555
F15 K3 2.621110 1_555
F15 K7 2.621110 1_555
F15 K2 2.718567 1_556
F15 K6 2.718567 1_546
F16 Y1 2.204910 1_556
F16 K0 2.638894 1_455
F16 K4 2.638894 1_455
F16 K7 2.705600 1_555
F16 K3 2.705600 1_565
F17 Y0 2.204910 1_554
F17 K1 2.638894 1_655
F17 K5 2.638894 1_655
F17 K2 2.705600 1_555
F17 K6 2.705600 1_545
F18 Y3 2.204910 1_555
F18 K2 2.638894 1_555
F18 K6 2.638894 1_555
F18 K1 2.705600 1_565
F18 K5 2.705600 1_555
F19 Y2 2.204910 1_555
F19 K3 2.638894 1_555
F19 K7 2.638894 1_555
F19 K4 2.705600 1_545
F19 K0 2.705600 1_555
