# generated using pymatgen
data_CrO3
_symmetry_space_group_name_H-M   'P 1'
_cell_length_a   5.25891200
_cell_length_b   5.00079000
_cell_length_c   7.12894308
_cell_angle_alpha   89.91376226
_cell_angle_beta   90.00000000
_cell_angle_gamma   90.00000000
_symmetry_Int_Tables_number   1
_chemical_formula_structural   CrO3
_chemical_formula_sum   'Cr4 O12'
_cell_volume   187.48182654
_cell_formula_units_Z   4
loop_
 _symmetry_equiv_pos_site_id
 _symmetry_equiv_pos_as_xyz
  1  'x, y, z'
loop_
 _atom_site_type_symbol
 _atom_site_label
 _atom_site_symmetry_multiplicity
 _atom_site_fract_x
 _atom_site_fract_y
 _atom_site_fract_z
 _atom_site_occupancy
  Cr  Cr0  1  0.05212600  0.75610300  0.77951000  1
  Cr  Cr1  1  0.54712200  0.22750800  0.72016500  1
  Cr  Cr2  1  0.55212600  0.24389700  0.22049000  1
  Cr  Cr3  1  0.04712200  0.77249200  0.27983500  1
  O  O0  1  0.50300400  0.34365000  0.00189900  1
  O  O1  1  0.96428100  0.83580500  0.49874100  1
  O  O2  1  0.00300400  0.65635000  0.99810100  1
  O  O3  1  0.46428100  0.16419500  0.50125900  1
  O  O4  1  0.27890000  0.55432100  0.29836500  1
  O  O5  1  0.18525700  0.04577500  0.20676700  1
  O  O6  1  0.77890000  0.44567900  0.70163500  1
  O  O7  1  0.68525700  0.95422500  0.79323300  1
  O  O8  1  0.28514000  0.56223500  0.70501300  1
  O  O9  1  0.18304900  0.05038100  0.80318000  1
  O  O10  1  0.68304900  0.94961900  0.19682000  1
  O  O11  1  0.78514000  0.43776500  0.29498700  1
loop_
_geom_bond_atom_site_label_1
_geom_bond_atom_site_label_2
_geom_bond_distance
_geom_bond_site_symmetry_2
Cr0 O9 1.633690 1_565
Cr0 O8 1.650795 1_555
Cr0 O2 1.655780 1_555
Cr0 O1 2.091942 1_455
Cr0 O7 2.171129 1_455
Cr0 O6 2.187520 1_455
Cr1 O7 1.632356 1_545
Cr1 O6 1.641059 1_555
Cr1 O3 1.651333 1_555
Cr1 O0 2.104425 1_556
Cr1 O8 2.170537 1_555
Cr1 O9 2.190675 1_555
Cr2 O10 1.633690 1_545
Cr2 O11 1.650795 1_555
Cr2 O0 1.655780 1_555
Cr2 O3 2.091942 1_555
Cr2 O5 2.171129 1_555
Cr2 O4 2.187520 1_555
Cr3 O5 1.632356 1_565
Cr3 O4 1.641059 1_555
Cr3 O1 1.651333 1_455
Cr3 O2 2.104425 1_554
Cr3 O11 2.170537 1_455
Cr3 O10 2.190675 1_455
