# generated using pymatgen
data_RbNaB4H4O13
_symmetry_space_group_name_H-M   'P 1'
_cell_length_a   11.19499600
_cell_length_b   7.28003800
_cell_length_c   14.42230301
_cell_angle_alpha   86.94749489
_cell_angle_beta   90.00000000
_cell_angle_gamma   90.00000000
_symmetry_Int_Tables_number   1
_chemical_formula_structural   RbNaB4H4O13
_chemical_formula_sum   'Rb4 Na4 B16 H16 O52'
_cell_volume   1173.74990657
_cell_formula_units_Z   4
loop_
 _symmetry_equiv_pos_site_id
 _symmetry_equiv_pos_as_xyz
  1  'x, y, z'
loop_
 _atom_site_type_symbol
 _atom_site_label
 _atom_site_symmetry_multiplicity
 _atom_site_fract_x
 _atom_site_fract_y
 _atom_site_fract_z
 _atom_site_occupancy
  Rb  Rb0  1  0.58633200  0.96607200  0.61742100  1
  Rb  Rb1  1  0.08633200  0.03392800  0.88257900  1
  Rb  Rb2  1  0.41366800  0.03392800  0.38257900  1
  Rb  Rb3  1  0.91366800  0.96607200  0.11742100  1
  Na  Na0  1  0.60150300  0.02374300  0.84348600  1
  Na  Na1  1  0.10150300  0.97625700  0.65651400  1
  Na  Na2  1  0.39849700  0.97625700  0.15651400  1
  Na  Na3  1  0.89849700  0.02374300  0.34348600  1
  B  B0  1  0.59694500  0.36435500  0.41037800  1
  B  B1  1  0.09694500  0.63564500  0.08962200  1
  B  B2  1  0.40305500  0.63564500  0.58962200  1
  B  B3  1  0.90305500  0.36435500  0.91037800  1
  B  B4  1  0.81587900  0.62926100  0.29378400  1
  B  B5  1  0.31587900  0.37073900  0.20621600  1
  B  B6  1  0.18412100  0.37073900  0.70621600  1
  B  B7  1  0.68412100  0.62926100  0.79378400  1
  B  B8  1  0.59773900  0.63521400  0.29051500  1
  B  B9  1  0.09773900  0.36478600  0.20948500  1
  B  B10  1  0.40226100  0.36478600  0.70948500  1
  B  B11  1  0.90226100  0.63521400  0.79051500  1
  B  B12  1  0.69967300  0.34672600  0.25879400  1
  B  B13  1  0.19967300  0.65327400  0.24120600  1
  B  B14  1  0.30032700  0.65327400  0.74120600  1
  B  B15  1  0.80032700  0.34672600  0.75879400  1
  H  H0  1  0.56742800  0.31896200  0.74939600  1
  H  H1  1  0.06742800  0.68103800  0.75060400  1
  H  H2  1  0.43257200  0.68103800  0.25060400  1
  H  H3  1  0.93257200  0.31896200  0.24939600  1
  H  H4  1  0.51193600  0.35446800  0.53647800  1
  H  H5  1  0.01193600  0.64553200  0.96352200  1
  H  H6  1  0.48806400  0.64553200  0.46352200  1
  H  H7  1  0.98806400  0.35446800  0.03647800  1
  H  H8  1  0.77096100  0.27009600  0.63207700  1
  H  H9  1  0.27096100  0.72990400  0.86792300  1
  H  H10  1  0.22903900  0.72990400  0.36792300  1
  H  H11  1  0.72903900  0.27009600  0.13207700  1
  H  H12  1  0.99563800  0.63795500  0.29535100  1
  H  H13  1  0.49563800  0.36204500  0.20464900  1
  H  H14  1  0.00436200  0.36204500  0.70464900  1
  H  H15  1  0.50436200  0.63795500  0.79535100  1
  O  O0  1  0.61019900  0.48239600  0.22703500  1
  O  O1  1  0.11019900  0.51760400  0.27296500  1
  O  O2  1  0.38980100  0.51760400  0.77296500  1
  O  O3  1  0.88980100  0.48239600  0.72703500  1
  O  O4  1  0.81462600  0.44389300  0.27958900  1
  O  O5  1  0.31462600  0.55610700  0.22041100  1
  O  O6  1  0.18537400  0.55610700  0.72041100  1
  O  O7  1  0.68537400  0.44389300  0.77958900  1
  O  O8  1  0.65449500  0.25545300  0.34834300  1
  O  O9  1  0.15449500  0.74454700  0.15165700  1
  O  O10  1  0.34550500  0.74454700  0.65165700  1
  O  O11  1  0.84550500  0.25545300  0.84834300  1
  O  O12  1  0.56923500  0.54500000  0.38784500  1
  O  O13  1  0.06923500  0.45500000  0.11215500  1
  O  O14  1  0.43076500  0.45500000  0.61215500  1
  O  O15  1  0.93076500  0.54500000  0.88784500  1
  O  O16  1  0.71327200  0.73289100  0.29622200  1
  O  O17  1  0.21327200  0.26710900  0.20377800  1
  O  O18  1  0.28672800  0.26710900  0.70377800  1
  O  O19  1  0.78672800  0.73289100  0.79622200  1
  O  O20  1  0.50305500  0.76101600  0.26170200  1
  O  O21  1  0.00305500  0.23898400  0.23829800  1
  O  O22  1  0.49694500  0.23898400  0.73829800  1
  O  O23  1  0.99694500  0.76101600  0.76170200  1
  O  O24  1  0.56180000  0.27915900  0.49397100  1
  O  O25  1  0.06180000  0.72084100  0.00602900  1
  O  O26  1  0.43820000  0.72084100  0.50602900  1
  O  O27  1  0.93820000  0.27915900  0.99397100  1
  O  O28  1  0.72110600  0.20605600  0.19274900  1
  O  O29  1  0.22110600  0.79394400  0.30725100  1
  O  O30  1  0.27889400  0.79394400  0.80725100  1
  O  O31  1  0.77889400  0.20605600  0.69274900  1
  O  O32  1  0.92320100  0.72140400  0.30270800  1
  O  O33  1  0.42320100  0.27859600  0.19729200  1
  O  O34  1  0.07679900  0.27859600  0.69729200  1
  O  O35  1  0.57679900  0.72140400  0.80270800  1
  O  O36  1  0.71299200  0.98042900  0.41971800  1
  O  O37  1  0.21299200  0.01957100  0.08028200  1
  O  O38  1  0.28700800  0.01957100  0.58028200  1
  O  O39  1  0.78700800  0.98042900  0.91971800  1
  O  O40  1  0.54796700  0.45943000  0.00329200  1
  O  O41  1  0.04796700  0.54057000  0.49670800  1
  O  O42  1  0.45203300  0.54057000  0.99670800  1
  O  O43  1  0.95203300  0.45943000  0.50329200  1
  O  O44  1  0.65197700  0.73678900  0.06074600  1
  O  O45  1  0.15197700  0.26321100  0.43925400  1
  O  O46  1  0.34802300  0.26321100  0.93925400  1
  O  O47  1  0.84802300  0.73678900  0.56074600  1
  O  O48  1  0.56316500  0.83474700  0.04719200  1
  O  O49  1  0.06316500  0.16525300  0.45280800  1
  O  O50  1  0.43683500  0.16525300  0.95280800  1
  O  O51  1  0.93683500  0.83474700  0.54719200  1
loop_
_geom_bond_atom_site_label_1
_geom_bond_atom_site_label_2
_geom_bond_distance
_geom_bond_site_symmetry_2
Na0 O35 2.324823 1_545
Na0 O39 2.363065 1_545
Na0 O22 2.423589 1_555
Na0 O50 2.668059 1_555
Na1 O34 2.324823 1_565
Na1 O38 2.363065 1_565
Na1 O23 2.423589 1_455
Na1 O51 2.668059 1_455
Na2 O33 2.324823 1_565
Na2 O37 2.363065 1_565
Na2 O20 2.423589 1_555
Na2 O48 2.668059 1_555
Na3 O32 2.324823 1_545
Na3 O36 2.363065 1_545
Na3 O21 2.423589 1_655
Na3 O49 2.668059 1_655
B0 O12 1.373252 1_555
B0 O24 1.383232 1_555
B0 O8 1.385513 1_555
B1 O13 1.373252 1_555
B1 O25 1.383232 1_555
B1 O9 1.385513 1_555
B2 O14 1.373252 1_555
B2 O26 1.383232 1_555
B2 O10 1.385513 1_555
B3 O15 1.373252 1_555
B3 O27 1.383232 1_555
B3 O11 1.385513 1_555
B4 O4 1.375734 1_555
B4 O16 1.375756 1_555
B4 O32 1.385376 1_555
B5 O5 1.375734 1_555
B5 O17 1.375756 1_555
B5 O33 1.385376 1_555
B6 O6 1.375734 1_555
B6 O18 1.375756 1_555
B6 O34 1.385376 1_555
B7 O7 1.375734 1_555
B7 O19 1.375756 1_555
B7 O35 1.385376 1_555
B8 O20 1.447236 1_555
B8 O16 1.480379 1_555
B8 O0 1.484530 1_555
B8 O12 1.550940 1_555
B9 O21 1.447236 1_555
B9 O17 1.480379 1_555
B9 O1 1.484530 1_555
B9 O13 1.550940 1_555
B10 O22 1.447236 1_555
B10 O18 1.480379 1_555
B10 O2 1.484530 1_555
B10 O14 1.550940 1_555
B11 O23 1.447236 1_555
B11 O19 1.480379 1_555
B11 O3 1.484530 1_555
B11 O15 1.550940 1_555
B12 O28 1.455164 1_555
B12 O0 1.463031 1_555
B12 O4 1.506332 1_555
B12 O8 1.507947 1_555
B13 O29 1.455164 1_555
B13 O1 1.463031 1_555
B13 O5 1.506332 1_555
B13 O9 1.507947 1_555
B14 O30 1.455164 1_555
B14 O2 1.463031 1_555
B14 O6 1.506332 1_555
B14 O10 1.507947 1_555
B15 O31 1.455164 1_555
B15 O3 1.463031 1_555
B15 O7 1.506332 1_555
B15 O11 1.507947 1_555
H0 O22 0.998580 1_555
H0 O7 1.674056 1_555
H0 Na0 2.509069 1_555
H1 O23 0.998580 1_455
H1 O6 1.674056 1_555
H1 Na1 2.509069 1_555
H2 O20 0.998580 1_555
H2 O5 1.674056 1_555
H2 Na2 2.509069 1_555
H3 O21 0.998580 1_655
H3 O4 1.674056 1_555
H3 Na3 2.509069 1_555
H4 O24 1.011841 1_555
H4 O14 1.624101 1_555
H5 O25 1.011841 1_556
H5 O15 1.624101 1_455
H6 O26 1.011841 1_555
H6 O12 1.624101 1_555
H7 O27 1.011841 1_554
H7 O13 1.624101 1_655
H8 O31 0.973382 1_555
H8 Rb0 3.043910 1_545
H9 O30 0.973382 1_555
H9 Rb1 3.043910 1_565
H10 O29 0.973382 1_555
H10 Rb2 3.043910 1_565
H11 O28 0.973382 1_555
H11 Rb3 3.043910 1_545
H12 O32 1.022157 1_555
H12 O1 1.595886 1_655
H13 O33 1.022157 1_555
H13 O0 1.595886 1_555
H14 O34 1.022157 1_555
H14 O3 1.595886 1_455
H15 O35 1.022157 1_555
H15 O2 1.595886 1_555
O8 Rb2 3.166789 1_555
O9 Rb3 3.166789 1_455
O10 Rb0 3.166789 1_555
O11 Rb1 3.166789 1_655
O20 Rb2 2.890823 1_565
O21 Rb3 2.890823 1_445
O22 Rb0 2.890823 1_545
O23 Rb1 2.890823 1_665
O24 Rb0 2.829896 1_545
O24 Rb2 2.970479 1_555
O25 Rb1 2.829896 1_564
O25 Rb3 2.970479 1_455
O26 Rb2 2.829896 1_565
O26 Rb0 2.970479 1_555
O27 Rb3 2.829896 1_546
O27 Rb1 2.970479 1_655
O28 Rb3 3.013623 1_545
O29 Rb2 3.013623 1_565
O30 Rb1 3.013623 1_565
O31 Rb0 3.013623 1_545
O32 Rb3 3.133386 1_555
O33 Rb2 3.133386 1_555
O34 Rb1 3.133386 1_555
O35 Rb0 3.133386 1_555
O36 Rb0 3.181177 1_555
O36 Rb2 3.412493 1_565
O37 Rb1 3.181177 1_554
O37 Rb3 3.412493 1_445
O38 Rb2 3.181177 1_555
O38 Rb0 3.412493 1_545
O39 Rb3 3.181177 1_556
O39 Rb1 3.412493 1_665
O40 O42 1.226950 1_554
O41 O43 1.226950 1_455
O44 O48 1.233071 1_555
O44 Rb3 3.490322 1_555
O45 O49 1.233071 1_555
O45 Rb2 3.490322 1_555
O46 O50 1.233071 1_555
O46 Rb1 3.490322 1_555
O47 O51 1.233071 1_555
O47 Rb0 3.490322 1_555
