# generated using pymatgen
data_YbCu4Ag
_symmetry_space_group_name_H-M   'P 1'
_cell_length_a   5.01633006
_cell_length_b   5.01633006
_cell_length_c   5.01633006
_cell_angle_alpha   60.00000000
_cell_angle_beta   60.00000000
_cell_angle_gamma   60.00000000
_symmetry_Int_Tables_number   1
_chemical_formula_structural   YbCu4Ag
_chemical_formula_sum   'Yb1 Cu4 Ag1'
_cell_volume   89.25721125
_cell_formula_units_Z   1
loop_
 _symmetry_equiv_pos_site_id
 _symmetry_equiv_pos_as_xyz
  1  'x, y, z'
loop_
 _atom_site_type_symbol
 _atom_site_label
 _atom_site_symmetry_multiplicity
 _atom_site_fract_x
 _atom_site_fract_y
 _atom_site_fract_z
 _atom_site_occupancy
  Yb  Yb0  1  0.00000000  0.00000000  0.00000000  1
  Cu  Cu0  1  0.62450400  0.62450400  0.12648700  1
  Cu  Cu1  1  0.62450400  0.12648700  0.62450400  1
  Cu  Cu2  1  0.12648700  0.62450400  0.62450400  1
  Cu  Cu3  1  0.62450400  0.62450400  0.62450400  1
  Ag  Ag0  1  0.25000000  0.25000000  0.25000000  1
loop_
_geom_bond_atom_site_label_1
_geom_bond_atom_site_label_2
_geom_bond_distance
_geom_bond_site_symmetry_2
Cu0 Cu1 2.498218 1_555
Cu0 Cu2 2.498218 1_555
Cu0 Cu3 2.498218 1_555
Cu0 Cu1 2.518112 1_564
Cu0 Cu3 2.518112 1_554
Cu0 Cu2 2.518112 1_654
Cu0 Yb0 2.942149 1_655
Cu0 Yb0 2.942149 1_565
Cu0 Yb0 2.942153 1_665
Cu1 Cu2 2.498218 1_555
Cu1 Cu3 2.498218 1_555
Cu1 Cu3 2.518112 1_545
Cu1 Cu2 2.518112 1_645
Cu1 Yb0 2.942149 1_556
Cu1 Yb0 2.942149 1_655
Cu1 Yb0 2.942153 1_656
Cu2 Cu3 2.498218 1_555
Cu2 Cu3 2.518112 1_455
Cu2 Yb0 2.942149 1_556
Cu2 Yb0 2.942149 1_565
Cu2 Yb0 2.942153 1_566
Cu3 Yb0 2.942151 1_566
Cu3 Yb0 2.942151 1_656
Cu3 Yb0 2.942151 1_665
Ag0 Cu0 2.940027 1_555
Ag0 Cu1 2.940027 1_555
Ag0 Cu2 2.940027 1_555
Ag0 Cu3 2.940029 1_545
Ag0 Cu3 2.940029 1_455
Ag0 Cu3 2.940029 1_554
Ag0 Cu0 2.940032 1_545
Ag0 Cu1 2.940032 1_455
Ag0 Cu0 2.940032 1_455
Ag0 Cu1 2.940032 1_554
Ag0 Cu2 2.940032 1_554
Ag0 Cu2 2.940032 1_545
Ag0 Yb0 3.071862 1_555
Ag0 Yb0 3.071862 1_556
Ag0 Yb0 3.071862 1_655
Ag0 Yb0 3.071862 1_565
