# generated using pymatgen
data_SmSiPt3
_symmetry_space_group_name_H-M   'P 1'
_cell_length_a   4.06509942
_cell_length_b   4.06509942
_cell_length_c   5.46109093
_cell_angle_alpha   90.00000000
_cell_angle_beta   90.00000000
_cell_angle_gamma   90.00000000
_symmetry_Int_Tables_number   1
_chemical_formula_structural   SmSiPt3
_chemical_formula_sum   'Sm1 Si1 Pt3'
_cell_volume   90.24470944
_cell_formula_units_Z   1
loop_
 _symmetry_equiv_pos_site_id
 _symmetry_equiv_pos_as_xyz
  1  'x, y, z'
loop_
 _atom_site_type_symbol
 _atom_site_label
 _atom_site_symmetry_multiplicity
 _atom_site_fract_x
 _atom_site_fract_y
 _atom_site_fract_z
 _atom_site_occupancy
  Sm  Sm0  1  0.50000000  0.50000000  0.70144807  1
  Si  Si0  1  -0.00000000  -0.00000000  0.96595984  1
  Pt  Pt0  1  0.50000000  -0.00000000  0.19570892  1
  Pt  Pt1  1  0.00000000  0.50000000  0.19570892  1
  Pt  Pt2  1  0.00000000  0.00000000  0.54937425  1
loop_
_geom_bond_atom_site_label_1
_geom_bond_atom_site_label_2
_geom_bond_distance
_geom_bond_site_symmetry_2
Si0 Sm0 3.217011 1_455
Si0 Sm0 3.217011 1_555
Si0 Sm0 3.217011 1_445
Si0 Sm0 3.217011 1_545
Pt0 Si0 2.388615 1_654
Pt0 Si0 2.388615 1_554
Pt0 Sm0 3.378899 1_544
Pt0 Sm0 3.378899 1_554
Pt0 Sm0 3.429181 1_555
Pt0 Sm0 3.429181 1_545
Pt1 Si0 2.388615 1_554
Pt1 Si0 2.388615 1_564
Pt1 Sm0 3.378899 1_454
Pt1 Sm0 3.378899 1_554
Pt1 Sm0 3.429181 1_455
Pt1 Sm0 3.429181 1_555
Pt2 Si0 2.275012 1_555
Pt2 Sm0 2.992027 1_545
Pt2 Sm0 2.992027 1_455
Pt2 Sm0 2.992027 1_555
Pt2 Sm0 2.992027 1_445
