# generated using pymatgen
data_YbCrTeO6
_symmetry_space_group_name_H-M   'P 1'
_cell_length_a   5.39845100
_cell_length_b   5.39845100
_cell_length_c   8.43448700
_cell_angle_alpha   90.00000000
_cell_angle_beta   90.00000000
_cell_angle_gamma   120.00001230
_symmetry_Int_Tables_number   1
_chemical_formula_structural   YbCrTeO6
_chemical_formula_sum   'Yb2 Cr2 Te2 O12'
_cell_volume   212.87643041
_cell_formula_units_Z   2
loop_
 _symmetry_equiv_pos_site_id
 _symmetry_equiv_pos_as_xyz
  1  'x, y, z'
loop_
 _atom_site_type_symbol
 _atom_site_label
 _atom_site_symmetry_multiplicity
 _atom_site_fract_x
 _atom_site_fract_y
 _atom_site_fract_z
 _atom_site_occupancy
  Yb  Yb0  1  0.33333300  0.66666700  0.75000000  1
  Yb  Yb1  1  0.66666700  0.33333300  0.25000000  1
  Cr  Cr0  1  0.00000000  0.00000000  0.00000000  1
  Cr  Cr1  1  0.00000000  0.00000000  0.50000000  1
  Te  Te0  1  0.66666700  0.33333300  0.75000000  1
  Te  Te1  1  0.33333300  0.66666700  0.25000000  1
  O  O0  1  0.95273000  0.30182000  0.87841600  1
  O  O1  1  0.04727000  0.69818000  0.12158400  1
  O  O2  1  0.34909100  0.04727000  0.87841600  1
  O  O3  1  0.34909100  0.30182000  0.62158400  1
  O  O4  1  0.65090900  0.95273000  0.12158400  1
  O  O5  1  0.65090900  0.69818000  0.37841600  1
  O  O6  1  0.69818000  0.65090900  0.87841600  1
  O  O7  1  0.69818000  0.04727000  0.62158400  1
  O  O8  1  0.30182000  0.34909100  0.12158400  1
  O  O9  1  0.30182000  0.95273000  0.37841600  1
  O  O10  1  0.95273000  0.65090900  0.62158400  1
  O  O11  1  0.04727000  0.34909100  0.37841600  1
loop_
_geom_bond_atom_site_label_1
_geom_bond_atom_site_label_2
_geom_bond_distance
_geom_bond_site_symmetry_2
Cr0 O1 2.046307 1_545
Cr0 O0 2.046307 1_454
Cr0 O8 2.046309 1_555
Cr0 O6 2.046309 1_444
Cr0 O2 2.046311 1_554
Cr0 O4 2.046311 1_445
Cr1 O9 2.046307 1_545
Cr1 O7 2.046307 1_455
Cr1 O3 2.046309 1_555
Cr1 O5 2.046309 1_445
Cr1 O10 2.046311 1_445
Cr1 O11 2.046311 1_555
O0 Te0 1.962057 1_555
O0 Yb0 2.286324 1_655
O1 Te1 1.962057 1_555
O1 Yb1 2.286324 1_455
O2 Te0 1.962057 1_555
O2 Yb0 2.286320 1_545
O3 Te0 1.962057 1_555
O3 Yb0 2.286330 1_555
O4 Te1 1.962057 1_555
O4 Yb1 2.286320 1_565
O5 Te1 1.962057 1_555
O5 Yb1 2.286330 1_555
O6 Te0 1.962057 1_555
O6 Yb0 2.286330 1_555
O7 Te0 1.962057 1_555
O7 Yb0 2.286324 1_545
O8 Te1 1.962057 1_555
O8 Yb1 2.286330 1_555
O9 Te1 1.962057 1_555
O9 Yb1 2.286324 1_565
O10 Te0 1.962057 1_555
O10 Yb0 2.286320 1_655
O11 Te1 1.962057 1_555
O11 Yb1 2.286320 1_455
