# generated using pymatgen
data_Pr2SO6
_symmetry_space_group_name_H-M   'P 1'
_cell_length_a   4.26517107
_cell_length_b   7.37460677
_cell_length_c   8.30443683
_cell_angle_alpha   106.56670728
_cell_angle_beta   90.00573789
_cell_angle_gamma   106.80301292
_symmetry_Int_Tables_number   1
_chemical_formula_structural   Pr2SO6
_chemical_formula_sum   'Pr4 S2 O12'
_cell_volume   238.70343112
_cell_formula_units_Z   2
loop_
 _symmetry_equiv_pos_site_id
 _symmetry_equiv_pos_as_xyz
  1  'x, y, z'
loop_
 _atom_site_type_symbol
 _atom_site_label
 _atom_site_symmetry_multiplicity
 _atom_site_fract_x
 _atom_site_fract_y
 _atom_site_fract_z
 _atom_site_occupancy
  Pr  Pr0  1  0.67581863  0.33520002  0.58361863  1
  Pr  Pr1  1  0.32418158  0.66480021  0.41638132  1
  Pr  Pr2  1  0.34062169  0.66478736  0.91636606  1
  Pr  Pr3  1  0.65937822  0.33521284  0.08363431  1
  S  S0  1  0.94275738  -0.00001056  0.75004198  1
  S  S1  1  0.05724333  0.00001073  0.24995751  1
  O  O0  1  0.76757918  0.50685153  0.87689883  1
  O  O1  1  0.23242081  0.49314923  0.12310199  1
  O  O2  1  0.26063398  0.49310905  0.62307501  1
  O  O3  1  0.73936588  0.50689057  0.37692484  1
  O  O4  1  0.73655753  0.99766921  0.60495035  1
  O  O5  1  0.26344246  0.00233054  0.39504907  1
  O  O6  1  0.73893687  0.00230089  0.89513570  1
  O  O7  1  0.26106325  0.99769940  0.10486419  1
  O  O8  1  0.22581825  0.18029594  0.79376206  1
  O  O9  1  0.77418191  0.81970411  0.20623732  1
  O  O10  1  0.04563682  0.81972087  0.70632497  1
  O  O11  1  0.95436325  0.18027904  0.29367487  1
loop_
_geom_bond_atom_site_label_1
_geom_bond_atom_site_label_2
_geom_bond_distance
_geom_bond_site_symmetry_2
O0 Pr2 2.360934 1_655
O0 Pr0 2.375416 1_555
O0 Pr3 2.379976 1_556
O0 Pr2 2.406015 1_555
O1 Pr3 2.360935 1_455
O1 Pr1 2.375409 1_555
O1 Pr2 2.379977 1_554
O1 Pr3 2.406017 1_555
O2 Pr0 2.360955 1_555
O2 Pr2 2.375532 1_555
O2 Pr1 2.379904 1_555
O2 Pr0 2.405833 1_455
O3 Pr1 2.360956 1_555
O3 Pr3 2.375527 1_555
O3 Pr0 2.379901 1_555
O3 Pr1 2.405835 1_655
O4 S0 1.484890 1_565
O4 Pr1 2.623502 1_555
O4 Pr0 2.630337 1_565
O5 S1 1.484889 1_555
O5 Pr0 2.623506 1_555
O5 Pr1 2.630335 1_545
O6 S0 1.484899 1_555
O6 Pr3 2.623586 1_556
O6 Pr2 2.630220 1_545
O7 S1 1.484895 1_565
O7 Pr2 2.623584 1_554
O7 Pr3 2.630217 1_565
O8 S0 1.467628 1_455
O8 Pr3 2.780083 1_556
O8 Pr0 2.811426 1_555
O9 S1 1.467630 1_665
O9 Pr2 2.780077 1_554
O9 Pr1 2.811429 1_555
O10 S0 1.467565 1_465
O10 Pr1 2.780447 1_555
O10 Pr2 2.810363 1_555
O11 S1 1.467565 1_655
O11 Pr0 2.780448 1_555
O11 Pr3 2.810361 1_555
