# generated using pymatgen
data_CeTl
_symmetry_space_group_name_H-M   'P 1'
_cell_length_a   7.09492024
_cell_length_b   7.09492024
_cell_length_c   9.37876700
_cell_angle_alpha   90.00000000
_cell_angle_beta   90.00000000
_cell_angle_gamma   90.00000000
_symmetry_Int_Tables_number   1
_chemical_formula_structural   CeTl
_chemical_formula_sum   'Ce8 Tl8'
_cell_volume   472.10737171
_cell_formula_units_Z   8
loop_
 _symmetry_equiv_pos_site_id
 _symmetry_equiv_pos_as_xyz
  1  'x, y, z'
loop_
 _atom_site_type_symbol
 _atom_site_label
 _atom_site_symmetry_multiplicity
 _atom_site_fract_x
 _atom_site_fract_y
 _atom_site_fract_z
 _atom_site_occupancy
  Ce  Ce0_0  1  0.00000000  0.00000000  0.00000000  1
  Ce  Ce0_1  1  0.00000000  0.00000000  0.50000000  1
  Ce  Ce0_2  1  0.00000000  0.50000000  0.00000000  1
  Ce  Ce0_3  1  0.00000000  0.50000000  0.50000000  1
  Ce  Ce0_4  1  0.50000000  0.00000000  0.00000000  1
  Ce  Ce0_5  1  0.50000000  0.00000000  0.50000000  1
  Ce  Ce0_6  1  0.50000000  0.50000000  0.00000000  1
  Ce  Ce0_7  1  0.50000000  0.50000000  0.50000000  1
  Tl  Tl0_0  1  0.25000000  0.25000000  0.25000000  1
  Tl  Tl0_1  1  0.25000000  0.25000000  0.75000000  1
  Tl  Tl0_2  1  0.25000000  0.75000000  0.25000000  1
  Tl  Tl0_3  1  0.25000000  0.75000000  0.75000000  1
  Tl  Tl0_4  1  0.75000000  0.25000000  0.25000000  1
  Tl  Tl0_5  1  0.75000000  0.25000000  0.75000000  1
  Tl  Tl0_6  1  0.75000000  0.75000000  0.25000000  1
  Tl  Tl0_7  1  0.75000000  0.75000000  0.75000000  1
loop_
_geom_bond_atom_site_label_1
_geom_bond_atom_site_label_2
_geom_bond_distance
_geom_bond_site_symmetry_2
Ce0_0 Tl0_1 3.433630 1_554
Ce0_0 Tl0_5 3.433630 1_454
Ce0_0 Tl0_6 3.433630 1_445
Ce0_0 Tl0_2 3.433630 1_545
Ce0_0 Tl0_4 3.433630 1_455
Ce0_0 Tl0_3 3.433630 1_544
Ce0_0 Tl0_7 3.433630 1_444
Ce0_0 Tl0_0 3.433630 1_555
Ce0_0 Ce0_2 3.547460 1_545
Ce0_0 Ce0_4 3.547460 1_455
Ce0_0 Ce0_2 3.547460 1_555
Ce0_0 Ce0_4 3.547460 1_555
Ce0_1 Tl0_6 3.433630 1_445
Ce0_1 Tl0_5 3.433630 1_455
Ce0_1 Tl0_2 3.433630 1_545
Ce0_1 Tl0_4 3.433630 1_455
Ce0_1 Tl0_7 3.433630 1_445
Ce0_1 Tl0_0 3.433630 1_555
Ce0_1 Tl0_1 3.433630 1_555
Ce0_1 Tl0_3 3.433630 1_545
Ce0_1 Ce0_5 3.547460 1_555
Ce0_1 Ce0_5 3.547460 1_455
Ce0_1 Ce0_3 3.547460 1_545
Ce0_1 Ce0_3 3.547460 1_555
Ce0_2 Tl0_1 3.433630 1_554
Ce0_2 Tl0_5 3.433630 1_454
Ce0_2 Tl0_3 3.433630 1_554
Ce0_2 Tl0_6 3.433630 1_455
Ce0_2 Tl0_2 3.433630 1_555
Ce0_2 Tl0_4 3.433630 1_455
Ce0_2 Tl0_7 3.433630 1_454
Ce0_2 Tl0_0 3.433630 1_555
Ce0_2 Ce0_6 3.547460 1_455
Ce0_2 Ce0_6 3.547460 1_555
Ce0_3 Tl0_7 3.433630 1_455
Ce0_3 Tl0_5 3.433630 1_455
Ce0_3 Tl0_6 3.433630 1_455
Ce0_3 Tl0_2 3.433630 1_555
Ce0_3 Tl0_4 3.433630 1_455
Ce0_3 Tl0_3 3.433630 1_555
Ce0_3 Tl0_0 3.433630 1_555
Ce0_3 Tl0_1 3.433630 1_555
Ce0_3 Ce0_7 3.547460 1_555
Ce0_3 Ce0_7 3.547460 1_455
Ce0_4 Tl0_1 3.433630 1_554
Ce0_4 Tl0_7 3.433630 1_544
Ce0_4 Tl0_4 3.433630 1_555
Ce0_4 Tl0_2 3.433630 1_545
Ce0_4 Tl0_3 3.433630 1_544
Ce0_4 Tl0_0 3.433630 1_555
Ce0_4 Tl0_5 3.433630 1_554
Ce0_4 Tl0_6 3.433630 1_545
Ce0_4 Ce0_6 3.547460 1_555
Ce0_4 Ce0_6 3.547460 1_545
Ce0_5 Tl0_4 3.433630 1_555
Ce0_5 Tl0_5 3.433630 1_555
Ce0_5 Tl0_2 3.433630 1_545
Ce0_5 Tl0_0 3.433630 1_555
Ce0_5 Tl0_6 3.433630 1_545
Ce0_5 Tl0_1 3.433630 1_555
Ce0_5 Tl0_3 3.433630 1_545
Ce0_5 Tl0_7 3.433630 1_545
Ce0_5 Ce0_7 3.547460 1_555
Ce0_5 Ce0_7 3.547460 1_545
Ce0_6 Tl0_1 3.433630 1_554
Ce0_6 Tl0_4 3.433630 1_555
Ce0_6 Tl0_3 3.433630 1_554
Ce0_6 Tl0_7 3.433630 1_554
Ce0_6 Tl0_2 3.433630 1_555
Ce0_6 Tl0_6 3.433630 1_555
Ce0_6 Tl0_0 3.433630 1_555
Ce0_6 Tl0_5 3.433630 1_554
Ce0_7 Tl0_4 3.433630 1_555
Ce0_7 Tl0_0 3.433630 1_555
Ce0_7 Tl0_5 3.433630 1_555
Ce0_7 Tl0_2 3.433630 1_555
Ce0_7 Tl0_3 3.433630 1_555
Ce0_7 Tl0_6 3.433630 1_555
Ce0_7 Tl0_7 3.433630 1_555
Ce0_7 Tl0_1 3.433630 1_555
Tl0_0 Tl0_4 3.547460 1_555
Tl0_0 Tl0_2 3.547460 1_545
Tl0_0 Tl0_2 3.547460 1_555
Tl0_0 Tl0_4 3.547460 1_455
Tl0_1 Tl0_5 3.547460 1_455
Tl0_1 Tl0_5 3.547460 1_555
Tl0_1 Tl0_3 3.547460 1_555
Tl0_1 Tl0_3 3.547460 1_545
Tl0_2 Tl0_6 3.547460 1_455
Tl0_2 Tl0_6 3.547460 1_555
Tl0_3 Tl0_7 3.547460 1_555
Tl0_3 Tl0_7 3.547460 1_455
Tl0_4 Tl0_6 3.547460 1_555
Tl0_4 Tl0_6 3.547460 1_545
Tl0_5 Tl0_7 3.547460 1_545
Tl0_5 Tl0_7 3.547460 1_555
