# generated using pymatgen
data_Li3MnCoO5
_symmetry_space_group_name_H-M   'P 1'
_cell_length_a   2.99168083
_cell_length_b   2.99168083
_cell_length_c   24.88040832
_cell_angle_alpha   88.27040530
_cell_angle_beta   88.27040530
_cell_angle_gamma   57.52202565
_symmetry_Int_Tables_number   1
_chemical_formula_structural   Li3MnCoO5
_chemical_formula_sum   'Li6 Mn2 Co2 O10'
_cell_volume   187.74395551
_cell_formula_units_Z   2
loop_
 _symmetry_equiv_pos_site_id
 _symmetry_equiv_pos_as_xyz
  1  'x, y, z'
loop_
 _atom_site_type_symbol
 _atom_site_label
 _atom_site_symmetry_multiplicity
 _atom_site_fract_x
 _atom_site_fract_y
 _atom_site_fract_z
 _atom_site_occupancy
  Li  Li0  1  0.28341900  0.28341900  0.10509800  1
  Li  Li1  1  0.91122800  0.91122800  0.29897200  1
  Li  Li2  1  0.50294900  0.50294900  0.49840600  1
  Li  Li3  1  0.09481400  0.09481400  0.69995400  1
  Li  Li4  1  0.70414100  0.70414100  0.89783200  1
  Li  Li5  1  0.60151500  0.60151500  0.20033100  1
  Mn  Mn0  1  0.99863500  0.99863500  0.99699800  1
  Mn  Mn1  1  0.79930200  0.79930200  0.60032100  1
  Co  Co0  1  0.20479400  0.20479400  0.40222700  1
  Co  Co1  1  0.39950800  0.39950800  0.79946300  1
  O  O0  1  0.63731100  0.63731100  0.03968200  1
  O  O1  1  0.25100900  0.25100900  0.25351700  1
  O  O2  1  0.83432200  0.83432200  0.44645700  1
  O  O3  1  0.42075200  0.42075200  0.64712400  1
  O  O4  1  0.07218900  0.07218900  0.84439800  1
  O  O5  1  0.94808200  0.94808200  0.14792300  1
  O  O6  1  0.56593300  0.56593300  0.36133800  1
  O  O7  1  0.17554100  0.17554100  0.55428600  1
  O  O8  1  0.72528700  0.72528700  0.75480400  1
  O  O9  1  0.36926900  0.36926900  0.95086700  1
loop_
_geom_bond_atom_site_label_1
_geom_bond_atom_site_label_2
_geom_bond_distance
_geom_bond_site_symmetry_2
Li0 O5 2.004172 1_545
Li0 O5 2.004172 1_455
Li0 O5 2.024853 1_445
Li0 O0 2.322561 1_545
Li0 O0 2.322561 1_455
Li0 O0 2.426232 1_555
Li1 O1 2.030464 1_565
Li1 O1 2.030464 1_655
Li1 O1 2.077633 1_665
Li1 O6 2.285824 1_565
Li1 O6 2.285824 1_655
Li1 O6 2.344032 1_555
Li2 O2 2.130016 1_555
Li2 O2 2.145622 1_455
Li2 O2 2.145622 1_545
Li2 O7 2.172046 1_555
Li2 O7 2.216136 1_655
Li2 O7 2.216136 1_565
Li3 O8 2.113554 1_545
Li3 O8 2.113554 1_455
Li3 O3 2.120325 1_555
Li3 O3 2.171634 1_455
Li3 O3 2.171634 1_545
Li3 O8 2.331749 1_445
Li4 O4 2.093304 1_565
Li4 O4 2.093304 1_655
Li4 O9 2.154558 1_655
Li4 O9 2.154558 1_565
Li4 O9 2.160273 1_555
Li4 O4 2.305978 1_665
Li5 O5 2.119495 1_545
Li5 O5 2.119495 1_455
Li5 O1 2.123552 1_565
Li5 O1 2.123552 1_655
Li5 O5 2.200339 1_555
Li5 O1 2.227910 1_555
Mn0 O0 1.944785 1_656
Mn0 O0 1.944785 1_566
Mn0 O9 1.975723 1_565
Mn0 O9 1.975723 1_655
Mn0 O0 2.140353 1_556
Mn0 O9 2.223299 1_665
Mn1 O7 1.963808 1_655
Mn1 O7 1.963808 1_565
Mn1 O3 1.971033 1_565
Mn1 O3 1.971033 1_655
Mn1 O7 2.247388 1_665
Mn1 O3 2.267005 1_555
Co0 O6 1.920565 1_455
Co0 O6 1.920565 1_545
Co0 O2 1.948373 1_545
Co0 O2 1.948373 1_455
Co0 O6 2.119072 1_555
Co0 O2 2.199958 1_445
Co1 O8 2.005944 1_555
Co1 O4 2.016274 1_555
Co1 O8 2.052240 1_455
Co1 O8 2.052240 1_545
Co1 O4 2.052343 1_565
Co1 O4 2.052343 1_655
