# generated using pymatgen
data_Li3V8O11
_symmetry_space_group_name_H-M   'P 1'
_cell_length_a   5.26161038
_cell_length_b   5.26161038
_cell_length_c   10.90085415
_cell_angle_alpha   77.21296546
_cell_angle_beta   77.21296546
_cell_angle_gamma   48.76079342
_symmetry_Int_Tables_number   1
_chemical_formula_structural   Li3V8O11
_chemical_formula_sum   'Li3 V8 O11'
_cell_volume   220.12976998
_cell_formula_units_Z   1
loop_
 _symmetry_equiv_pos_site_id
 _symmetry_equiv_pos_as_xyz
  1  'x, y, z'
loop_
 _atom_site_type_symbol
 _atom_site_label
 _atom_site_symmetry_multiplicity
 _atom_site_fract_x
 _atom_site_fract_y
 _atom_site_fract_z
 _atom_site_occupancy
  Li  Li0  1  0.91473800  0.91473800  0.63354200  1
  Li  Li1  1  0.08526200  0.08526200  0.36645800  1
  Li  Li2  1  0.00000000  0.00000000  0.00000000  1
  V  V0  1  0.18251600  0.18251600  0.72419600  1
  V  V1  1  0.63196800  0.63196800  0.53779900  1
  V  V2  1  0.36803200  0.36803200  0.46220100  1
  V  V3  1  0.81748400  0.81748400  0.27580400  1
  V  V4  1  0.27325000  0.27325000  0.09377500  1
  V  V5  1  0.54434800  0.54434800  0.17860900  1
  V  V6  1  0.45565200  0.45565200  0.82139100  1
  V  V7  1  0.72675000  0.72675000  0.90622500  1
  O  O0  1  0.41360100  0.41360100  0.64088300  1
  O  O1  1  0.14801100  0.14801100  0.54037500  1
  O  O2  1  0.66889100  0.66889100  0.72725600  1
  O  O3  1  0.33110900  0.33110900  0.27274400  1
  O  O4  1  0.58639900  0.58639900  0.35911700  1
  O  O5  1  0.85198900  0.85198900  0.45962500  1
  O  O6  1  0.76113700  0.76113700  0.09454000  1
  O  O7  1  0.50000000  0.50000000  0.00000000  1
  O  O8  1  0.04490800  0.04490800  0.18005900  1
  O  O9  1  0.95509200  0.95509200  0.81994100  1
  O  O10  1  0.23886300  0.23886300  0.90546000  1
loop_
_geom_bond_atom_site_label_1
_geom_bond_atom_site_label_2
_geom_bond_distance
_geom_bond_site_symmetry_2
Li0 O5 2.123699 1_555
Li0 O9 2.158750 1_555
Li0 O0 2.173358 1_565
Li0 O0 2.173358 1_655
Li0 O1 2.219689 1_665
Li0 O2 2.329444 1_555
Li1 O1 2.123699 1_555
Li1 O8 2.158750 1_555
Li1 O4 2.173358 1_455
Li1 O4 2.173358 1_545
Li1 O5 2.219689 1_445
Li1 O3 2.329444 1_555
Li2 O9 2.109133 1_444
Li2 O8 2.109133 1_555
Li2 O7 2.171955 1_455
Li2 O7 2.171955 1_545
Li2 O10 2.270905 1_554
Li2 O6 2.270905 1_445
O0 V2 2.097163 1_555
O0 V6 2.102306 1_555
O0 V1 2.121407 1_555
O0 V0 2.180140 1_555
O1 V2 2.073667 1_555
O1 V0 2.108717 1_555
O1 V1 2.178054 1_455
O1 V1 2.178054 1_545
O2 V6 2.052086 1_555
O2 V7 2.153931 1_555
O2 V0 2.175647 1_655
O2 V0 2.175647 1_565
O2 V1 2.178459 1_555
O3 V5 2.052086 1_555
O3 V4 2.153931 1_555
O3 V3 2.175647 1_545
O3 V3 2.175647 1_455
O3 V2 2.178459 1_555
O4 V1 2.097163 1_555
O4 V5 2.102306 1_555
O4 V2 2.121407 1_555
O4 V3 2.180140 1_555
O5 V1 2.073667 1_555
O5 V3 2.108717 1_555
O5 V2 2.178054 1_565
O5 V2 2.178054 1_655
O6 V5 2.057179 1_555
O6 V7 2.156714 1_554
O6 V3 2.171318 1_555
O6 V4 2.174964 1_655
O6 V4 2.174964 1_565
O7 V6 2.091331 1_554
O7 V5 2.091331 1_555
O7 V7 2.165343 1_554
O7 V4 2.165343 1_555
O8 V4 2.162005 1_555
O8 V5 2.172029 1_545
O8 V5 2.172029 1_455
O8 V3 2.176060 1_445
O9 V7 2.162005 1_555
O9 V6 2.172029 1_655
O9 V6 2.172029 1_565
O9 V0 2.176060 1_665
O10 V6 2.057179 1_555
O10 V4 2.156714 1_556
O10 V0 2.171318 1_555
O10 V7 2.174964 1_455
O10 V7 2.174964 1_545
