# generated using pymatgen
data_Ca(Er2B15)2
_symmetry_space_group_name_H-M   'P 1'
_cell_length_a   4.09545700
_cell_length_b   4.09545700
_cell_length_c   20.47222000
_cell_angle_alpha   90.00000000
_cell_angle_beta   90.00000000
_cell_angle_gamma   90.00000000
_symmetry_Int_Tables_number   1
_chemical_formula_structural   Ca(Er2B15)2
_chemical_formula_sum   'Ca1 Er4 B30'
_cell_volume   343.37579730
_cell_formula_units_Z   1
loop_
 _symmetry_equiv_pos_site_id
 _symmetry_equiv_pos_as_xyz
  1  'x, y, z'
loop_
 _atom_site_type_symbol
 _atom_site_label
 _atom_site_symmetry_multiplicity
 _atom_site_fract_x
 _atom_site_fract_y
 _atom_site_fract_z
 _atom_site_occupancy
  Ca  Ca0  1  0.00000000  0.00000000  0.00000000  1
  Er  Er0  1  0.00000000  0.00000000  0.20010800  1
  Er  Er1  1  0.00000000  0.00000000  0.39994100  1
  Er  Er2  1  0.00000000  0.00000000  0.60005900  1
  Er  Er3  1  0.00000000  0.00000000  0.79989200  1
  B  B0  1  0.50000000  0.50000000  0.16056200  1
  B  B1  1  0.50000000  0.50000000  0.36027400  1
  B  B2  1  0.50000000  0.50000000  0.56013400  1
  B  B3  1  0.50000000  0.50000000  0.75987800  1
  B  B4  1  0.50000000  0.50000000  0.95976800  1
  B  B5  1  0.50000000  0.19984400  0.10077300  1
  B  B6  1  0.50000000  0.19924500  0.30008000  1
  B  B7  1  0.50000000  0.19925700  0.50000000  1
  B  B8  1  0.50000000  0.19924500  0.69992000  1
  B  B9  1  0.50000000  0.19984400  0.89922700  1
  B  B10  1  0.19984400  0.50000000  0.10077300  1
  B  B11  1  0.19924500  0.50000000  0.30008000  1
  B  B12  1  0.19925700  0.50000000  0.50000000  1
  B  B13  1  0.19924500  0.50000000  0.69992000  1
  B  B14  1  0.19984400  0.50000000  0.89922700  1
  B  B15  1  0.50000000  0.50000000  0.04023200  1
  B  B16  1  0.50000000  0.50000000  0.24012200  1
  B  B17  1  0.50000000  0.50000000  0.43986600  1
  B  B18  1  0.50000000  0.50000000  0.63972600  1
  B  B19  1  0.50000000  0.50000000  0.83943800  1
  B  B20  1  0.50000000  0.80015600  0.10077300  1
  B  B21  1  0.50000000  0.80075500  0.30008000  1
  B  B22  1  0.50000000  0.80074300  0.50000000  1
  B  B23  1  0.50000000  0.80075500  0.69992000  1
  B  B24  1  0.50000000  0.80015600  0.89922700  1
  B  B25  1  0.80015600  0.50000000  0.10077300  1
  B  B26  1  0.80075500  0.50000000  0.30008000  1
  B  B27  1  0.80074300  0.50000000  0.50000000  1
  B  B28  1  0.80075500  0.50000000  0.69992000  1
  B  B29  1  0.80015600  0.50000000  0.89922700  1
loop_
_geom_bond_atom_site_label_1
_geom_bond_atom_site_label_2
_geom_bond_distance
_geom_bond_site_symmetry_2
B0 B16 1.628770 1_555
B0 B5 1.734742 1_555
B0 B25 1.734742 1_555
B0 B20 1.734742 1_555
B0 B10 1.734742 1_555
B0 Er0 3.006963 1_655
B0 Er0 3.006963 1_665
B0 Er0 3.006963 1_555
B0 Er0 3.006963 1_565
B1 B17 1.629425 1_555
B1 B21 1.742335 1_555
B1 B6 1.742335 1_555
B1 B26 1.742335 1_555
B1 B11 1.742335 1_555
B1 Er1 3.007631 1_565
B1 Er1 3.007631 1_655
B1 Er1 3.007631 1_665
B1 Er1 3.007631 1_555
B2 B7 1.741432 1_555
B2 B27 1.741432 1_555
B2 B22 1.741432 1_555
B2 Er2 3.009061 1_555
B2 Er2 3.009061 1_665
B2 Er2 3.009061 1_655
B2 Er2 3.009061 1_565
B3 B8 1.738921 1_555
B3 Er3 3.009557 1_565
B3 Er3 3.009557 1_665
B3 Er3 3.009557 1_555
B3 Er3 3.009557 1_655
B4 B9 1.745638 1_555
B4 Ca0 3.010775 1_556
B4 Ca0 3.010775 1_666
B4 Ca0 3.010775 1_656
B4 Ca0 3.010775 1_566
B5 Er0 2.999770 1_655
B5 Er0 2.999770 1_555
B5 Ca0 3.019805 1_555
B5 Ca0 3.019805 1_655
B6 Er1 3.006413 1_555
B6 Er1 3.006413 1_655
B6 Er0 3.007959 1_555
B6 Er0 3.007959 1_655
B7 Er2 3.009185 1_555
B7 Er1 3.009185 1_555
B7 Er1 3.009185 1_655
B7 Er2 3.009185 1_655
B8 Er2 3.006413 1_555
B8 Er2 3.006413 1_655
B8 Er3 3.007959 1_555
B8 Er3 3.007959 1_655
B9 Er3 2.999770 1_555
B9 Er3 2.999770 1_655
B9 Ca0 3.019805 1_656
B9 Ca0 3.019805 1_556
B10 B25 1.636905 1_455
B10 B20 1.738459 1_555
B10 B5 1.738459 1_555
B10 B15 1.745638 1_555
B10 Er0 2.999770 1_565
B10 Er0 2.999770 1_555
B10 Ca0 3.019805 1_555
B10 Ca0 3.019805 1_565
B11 B26 1.631999 1_455
B11 B16 1.738921 1_555
B11 B21 1.741928 1_555
B11 B6 1.741928 1_555
B11 Er1 3.006413 1_555
B11 Er1 3.006413 1_565
B11 Er0 3.007959 1_555
B11 Er0 3.007959 1_565
B12 B27 1.632097 1_455
B12 B17 1.741432 1_555
B12 B2 1.741432 1_555
B12 B22 1.741859 1_555
B12 B7 1.741859 1_555
B12 Er2 3.009185 1_555
B12 Er1 3.009185 1_555
B12 Er1 3.009185 1_565
B12 Er2 3.009185 1_565
B13 B28 1.631999 1_455
B13 B3 1.738921 1_555
B13 B8 1.741928 1_555
B13 B23 1.741928 1_555
B13 B18 1.742335 1_555
B13 Er2 3.006413 1_555
B13 Er2 3.006413 1_565
B13 Er3 3.007959 1_565
B13 Er3 3.007959 1_555
B14 B29 1.636905 1_455
B14 B19 1.734742 1_555
B14 B24 1.738459 1_555
B14 B9 1.738459 1_555
B14 B4 1.745638 1_555
B14 Er3 2.999770 1_565
B14 Er3 2.999770 1_555
B14 Ca0 3.019805 1_566
B14 Ca0 3.019805 1_556
B15 B4 1.647277 1_554
B15 B5 1.745638 1_555
B15 B25 1.745638 1_555
B15 B20 1.745638 1_555
B15 Ca0 3.010775 1_555
B15 Ca0 3.010775 1_655
B15 Ca0 3.010775 1_665
B15 Ca0 3.010775 1_565
B16 B6 1.738921 1_555
B16 B26 1.738921 1_555
B16 B21 1.738921 1_555
B16 Er0 3.009557 1_655
B16 Er0 3.009557 1_665
B16 Er0 3.009557 1_565
B16 Er0 3.009557 1_555
B17 B7 1.741432 1_555
B17 B27 1.741432 1_555
B17 B22 1.741432 1_555
B17 Er1 3.009061 1_655
B17 Er1 3.009061 1_565
B17 Er1 3.009061 1_665
B17 Er1 3.009061 1_555
B18 B2 1.629425 1_555
B18 B28 1.742335 1_555
B18 B23 1.742335 1_555
B18 B8 1.742335 1_555
B18 Er2 3.007631 1_655
B18 Er2 3.007631 1_565
B18 Er2 3.007631 1_555
B18 Er2 3.007631 1_665
B19 B3 1.628770 1_555
B19 B29 1.734742 1_555
B19 B24 1.734742 1_555
B19 B9 1.734742 1_555
B19 Er3 3.006963 1_555
B19 Er3 3.006963 1_655
B19 Er3 3.006963 1_565
B19 Er3 3.006963 1_665
B20 B5 1.636905 1_565
B20 B25 1.738459 1_555
B20 Er0 2.999770 1_665
B20 Er0 2.999770 1_565
B20 Ca0 3.019805 1_665
B20 Ca0 3.019805 1_565
B21 B6 1.631999 1_565
B21 B26 1.741928 1_555
B21 Er1 3.006413 1_565
B21 Er1 3.006413 1_665
B21 Er0 3.007959 1_565
B21 Er0 3.007959 1_665
B22 B7 1.632097 1_565
B22 B27 1.741859 1_555
B22 Er2 3.009185 1_665
B22 Er1 3.009185 1_565
B22 Er2 3.009185 1_565
B22 Er1 3.009185 1_665
B23 B8 1.631999 1_565
B23 B3 1.738921 1_555
B23 B28 1.741928 1_555
B23 Er2 3.006413 1_665
B23 Er2 3.006413 1_565
B23 Er3 3.007959 1_565
B23 Er3 3.007959 1_665
B24 B9 1.636905 1_565
B24 B29 1.738459 1_555
B24 B4 1.745638 1_555
B24 Er3 2.999770 1_565
B24 Er3 2.999770 1_665
B24 Ca0 3.019805 1_666
B24 Ca0 3.019805 1_566
B25 B5 1.738459 1_555
B25 Er0 2.999770 1_655
B25 Er0 2.999770 1_665
B25 Ca0 3.019805 1_655
B25 Ca0 3.019805 1_665
B26 B6 1.741928 1_555
B26 Er1 3.006413 1_655
B26 Er1 3.006413 1_665
B26 Er0 3.007959 1_655
B26 Er0 3.007959 1_665
B27 B7 1.741859 1_555
B27 Er2 3.009185 1_665
B27 Er1 3.009185 1_655
B27 Er2 3.009185 1_655
B27 Er1 3.009185 1_665
B28 B3 1.738921 1_555
B28 B8 1.741928 1_555
B28 Er2 3.006413 1_665
B28 Er2 3.006413 1_655
B28 Er3 3.007959 1_665
B28 Er3 3.007959 1_655
B29 B9 1.738459 1_555
B29 B4 1.745638 1_555
B29 Er3 2.999770 1_665
B29 Er3 2.999770 1_655
B29 Ca0 3.019805 1_666
B29 Ca0 3.019805 1_656
