# generated using pymatgen
data_Al2O3
_symmetry_space_group_name_H-M   'P 1'
_cell_length_a   10.25309067
_cell_length_b   10.38015653
_cell_length_c   10.45870713
_cell_angle_alpha   93.30522278
_cell_angle_beta   87.28226719
_cell_angle_gamma   91.97061737
_symmetry_Int_Tables_number   1
_chemical_formula_structural   Al2O3
_chemical_formula_sum   'Al40 O60'
_cell_volume   1109.44566733
_cell_formula_units_Z   20
loop_
 _symmetry_equiv_pos_site_id
 _symmetry_equiv_pos_as_xyz
  1  'x, y, z'
loop_
 _atom_site_type_symbol
 _atom_site_label
 _atom_site_symmetry_multiplicity
 _atom_site_fract_x
 _atom_site_fract_y
 _atom_site_fract_z
 _atom_site_occupancy
  Al  Al0  1  0.09231500  0.32009000  0.55275200  1
  Al  Al1  1  0.67329600  0.19076500  0.48626200  1
  Al  Al2  1  0.03945600  0.77665300  0.54151000  1
  Al  Al3  1  0.06349800  0.45604800  0.84912500  1
  Al  Al4  1  0.72321000  0.74314900  0.45100400  1
  Al  Al5  1  0.29951500  0.35219400  0.75695900  1
  Al  Al6  1  0.42234300  0.32871100  0.48818300  1
  Al  Al7  1  0.02565000  0.06241900  0.74710800  1
  Al  Al8  1  0.19036200  0.41679100  0.08267000  1
  Al  Al9  1  0.71321400  0.58778400  0.89611000  1
  Al  Al10  1  0.30752400  0.63812500  0.21180900  1
  Al  Al11  1  0.49733100  0.16134800  0.93544700  1
  Al  Al12  1  0.57088700  0.12659100  0.26046800  1
  Al  Al13  1  0.71645400  0.02065300  0.65626300  1
  Al  Al14  1  0.44224300  0.60043600  0.91048900  1
  Al  Al15  1  0.88246000  0.05973400  0.03098400  1
  Al  Al16  1  0.33255800  0.08612300  0.64489700  1
  Al  Al17  1  0.17410000  0.74284100  0.96037700  1
  Al  Al18  1  0.33584200  0.92566900  0.88418700  1
  Al  Al19  1  0.50333500  0.83652100  0.63564900  1
  Al  Al20  1  0.57678100  0.27842600  0.71670200  1
  Al  Al21  1  0.03546400  0.77917200  0.25712100  1
  Al  Al22  1  0.03834100  0.46397600  0.34642400  1
  Al  Al23  1  0.07766700  0.16642000  0.26575900  1
  Al  Al24  1  0.28128300  0.93546900  0.33677000  1
  Al  Al25  1  0.08927000  0.03014100  0.50785800  1
  Al  Al26  1  0.83858000  0.02760200  0.32229700  1
  Al  Al27  1  0.51115500  0.43381000  0.09802900  1
  Al  Al28  1  0.81887400  0.23121900  0.85947500  1
  Al  Al29  1  0.51123000  0.55390000  0.56677700  1
  Al  Al30  1  0.59294100  0.54922300  0.31496300  1
  Al  Al31  1  0.62775600  0.86703900  0.92429100  1
  Al  Al32  1  0.54564500  0.84556000  0.26400500  1
  Al  Al33  1  0.84506200  0.43332700  0.64843500  1
  Al  Al34  1  0.17576400  0.16606300  0.93383600  1
  Al  Al35  1  0.78858600  0.29921500  0.18771500  1
  Al  Al36  1  0.32458300  0.12491100  0.15041200  1
  Al  Al37  1  0.92197200  0.54361300  0.13445300  1
  Al  Al38  1  0.76193000  0.79345100  0.12805100  1
  Al  Al39  1  0.23489100  0.60801300  0.69315000  1
  O  O0  1  0.18498000  0.24624900  0.12425800  1
  O  O1  1  0.35270100  0.51822200  0.78431000  1
  O  O2  1  0.78043800  0.55860100  0.74284200  1
  O  O3  1  0.41899800  0.68246900  0.63187600  1
  O  O4  1  0.91652000  0.36431000  0.79892300  1
  O  O5  1  0.96327000  0.43525500  0.51554700  1
  O  O6  1  0.12051100  0.30502100  0.37918900  1
  O  O7  1  0.04434100  0.17125500  0.61213700  1
  O  O8  1  0.48660600  0.23317800  0.11269700  1
  O  O9  1  0.68143100  0.71436100  0.28177600  1
  O  O10  1  0.42082300  0.24943900  0.81325900  1
  O  O11  1  0.26890100  0.02432000  0.49194600  1
  O  O12  1  0.76484100  0.04650300  0.49377200  1
  O  O13  1  0.15438400  0.42914700  0.68226500  1
  O  O14  1  0.04400200  0.92613800  0.63470500  1
  O  O15  1  0.51598400  0.21450400  0.40482200  1
  O  O16  1  0.38060300  0.93677700  0.71069200  1
  O  O17  1  0.31822800  0.08926000  0.98306600  1
  O  O18  1  0.58004900  0.48139200  0.94858900  1
  O  O19  1  0.14920300  0.66124900  0.56847800  1
  O  O20  1  0.42925700  0.02357900  0.24191300  1
  O  O21  1  0.16210200  0.89791500  0.91124000  1
  O  O22  1  0.19705300  0.04283500  0.23741600  1
  O  O23  1  0.84112600  0.08402800  0.76038900  1
  O  O24  1  0.64700300  0.23106000  0.85620300  1
  O  O25  1  0.57707000  0.83835400  0.47639800  1
  O  O26  1  0.65962500  0.58130100  0.47593300  1
  O  O27  1  0.87729800  0.76716200  0.50040000  1
  O  O28  1  0.11952900  0.84811900  0.39057600  1
  O  O29  1  0.51404500  0.99038100  0.92571900  1
  O  O30  1  0.66948900  0.98408200  0.26527300  1
  O  O31  1  0.47177100  0.57437400  0.20496800  1
  O  O32  1  0.65963300  0.42256200  0.19983400  1
  O  O33  1  0.79247700  0.91455400  0.99076900  1
  O  O34  1  0.96957300  0.62088900  0.28254900  1
  O  O35  1  0.92500600  0.39571800  0.22341600  1
  O  O36  1  0.89557000  0.86490400  0.22181000  1
  O  O37  1  0.43932800  0.48017000  0.42205100  1
  O  O38  1  0.18314100  0.33604900  0.89854100  1
  O  O39  1  0.59242300  0.81486700  0.09492600  1
  O  O40  1  0.34518800  0.49222700  0.03630300  1
  O  O41  1  0.04366800  0.48669000  0.02352100  1
  O  O42  1  0.50907800  0.39832400  0.62733600  1
  O  O43  1  0.73502400  0.20674200  0.31607300  1
  O  O44  1  0.56333200  0.12248300  0.62535900  1
  O  O45  1  0.16377200  0.73266200  0.13496100  1
  O  O46  1  0.37143300  0.79012300  0.29288900  1
  O  O47  1  0.99300100  0.07338400  0.38816100  1
  O  O48  1  0.19218900  0.50455900  0.24586100  1
  O  O49  1  0.00762600  0.11530300  0.92114600  1
  O  O50  1  0.12039700  0.62634400  0.83796100  1
  O  O51  1  0.35024200  0.74931000  0.93184300  1
  O  O52  1  0.79565500  0.21611300  0.03148100  1
  O  O53  1  0.64680700  0.88341000  0.72529000  1
  O  O54  1  0.20340000  0.10563500  0.76862400  1
  O  O55  1  0.81384800  0.63434200  0.04154700  1
  O  O56  1  0.59278700  0.70103900  0.87323700  1
  O  O57  1  0.73257200  0.30476500  0.60962600  1
  O  O58  1  0.30367800  0.25823500  0.59265800  1
  O  O59  1  0.93097900  0.11439400  0.18276500  1
loop_
_geom_bond_atom_site_label_1
_geom_bond_atom_site_label_2
_geom_bond_distance
_geom_bond_site_symmetry_2
Al0 O7 1.744684 1_555
Al0 O6 1.823118 1_555
Al0 O13 1.837568 1_555
Al0 O5 1.882107 1_455
Al0 O58 2.344192 1_555
Al1 O12 1.801884 1_555
Al1 O57 1.811960 1_555
Al1 O43 1.875182 1_555
Al1 O15 1.889335 1_555
Al1 O44 1.948928 1_555
Al2 O19 1.715367 1_555
Al2 O27 1.735084 1_455
Al2 O14 1.784615 1_555
Al2 O28 1.920022 1_555
Al3 O41 1.836221 1_556
Al3 O4 1.836338 1_455
Al3 O50 1.850717 1_555
Al3 O38 1.887568 1_555
Al3 O13 1.949190 1_555
Al4 O27 1.691304 1_555
Al4 O26 1.809557 1_555
Al4 O25 1.823776 1_555
Al4 O9 1.845932 1_555
Al5 O1 1.800725 1_555
Al5 O10 1.806788 1_555
Al5 O38 1.868628 1_555
Al5 O58 1.925752 1_555
Al5 O13 1.930425 1_555
Al6 O15 1.722506 1_555
Al6 O37 1.753728 1_555
Al6 O58 1.764740 1_555
Al6 O42 1.840747 1_555
Al7 O14 1.795586 1_545
Al7 O7 1.857162 1_555
Al7 O49 1.873106 1_555
Al7 O54 1.882646 1_555
Al7 O23 1.910424 1_455
Al8 O40 1.803771 1_555
Al8 O41 1.840216 1_555
Al8 O0 1.845486 1_555
Al8 O48 1.888377 1_555
Al8 O38 2.059024 1_554
Al9 O2 1.729158 1_555
Al9 O56 1.767526 1_555
Al9 O18 1.811129 1_555
Al9 O55 1.908313 1_556
Al10 O31 1.827230 1_555
Al10 O48 1.830760 1_555
Al10 O46 1.861481 1_555
Al10 O45 2.020914 1_555
Al10 O40 2.337611 1_555
Al11 O29 1.785384 1_545
Al11 O10 1.834044 1_555
Al11 O24 1.854101 1_555
Al11 O8 1.957433 1_556
Al11 O17 2.010453 1_555
Al12 O20 1.784868 1_555
Al12 O15 1.795791 1_555
Al12 O30 1.824573 1_545
Al12 O43 1.950209 1_555
Al12 O8 2.179211 1_555
Al13 O53 1.749388 1_545
Al13 O12 1.780371 1_555
Al13 O23 1.801189 1_555
Al13 O44 1.971853 1_555
Al14 O1 1.801064 1_555
Al14 O51 1.835272 1_555
Al14 O56 1.871858 1_555
Al14 O18 1.977970 1_555
Al14 O40 1.988149 1_556
Al15 O59 1.743834 1_555
Al15 O33 1.779666 1_544
Al15 O49 1.784663 1_654
Al15 O52 1.877502 1_555
Al16 O54 1.815193 1_555
Al16 O16 1.824031 1_545
Al16 O11 1.829855 1_555
Al16 O58 1.934481 1_555
Al16 O44 2.384214 1_555
Al17 O21 1.727816 1_555
Al17 O50 1.802005 1_555
Al17 O51 1.816057 1_555
Al17 O45 1.832897 1_556
Al18 O21 1.806279 1_555
Al18 O16 1.859560 1_555
Al18 O51 1.937065 1_555
Al18 O17 1.945894 1_565
Al18 O29 1.983811 1_555
Al19 O16 1.784585 1_555
Al19 O3 1.790871 1_555
Al19 O25 1.797014 1_555
Al19 O53 1.818987 1_555
Al20 O24 1.759399 1_555
Al20 O42 1.777483 1_555
Al20 O44 1.835954 1_555
Al20 O10 1.875135 1_555
Al20 O57 1.927693 1_555
Al21 O28 1.777570 1_555
Al21 O36 1.778087 1_455
Al21 O34 1.784267 1_455
Al21 O45 1.846422 1_555
Al22 O35 1.867476 1_455
Al22 O48 1.902619 1_555
Al22 O5 1.930267 1_455
Al22 O6 1.933348 1_555
Al22 O34 1.960991 1_455
Al23 O22 1.805997 1_555
Al23 O47 1.817842 1_455
Al23 O59 1.822362 1_455
Al23 O6 1.865303 1_555
Al23 O0 2.002928 1_555
Al24 O11 1.821149 1_565
Al24 O46 1.821275 1_555
Al24 O22 1.830979 1_565
Al24 O28 1.938106 1_555
Al24 O20 1.997257 1_565
Al25 O47 1.719128 1_455
Al25 O14 1.792540 1_545
Al25 O7 1.833526 1_555
Al25 O11 1.844153 1_555
Al25 O28 2.215339 1_545
Al26 O47 1.794744 1_555
Al26 O30 1.891724 1_545
Al26 O12 1.915062 1_555
Al26 O59 1.949510 1_555
Al26 O36 2.025605 1_545
Al26 O43 2.178447 1_555
Al27 O18 1.773710 1_554
Al27 O31 1.830956 1_555
Al27 O32 1.909233 1_555
Al27 O40 1.974953 1_555
Al27 O8 2.102666 1_555
Al28 O24 1.764105 1_555
Al28 O4 1.804883 1_555
Al28 O23 1.810896 1_555
Al28 O52 1.818479 1_556
Al29 O3 1.749248 1_555
Al29 O42 1.767405 1_555
Al29 O26 1.778456 1_555
Al29 O37 1.831334 1_555
Al30 O31 1.768485 1_555
Al30 O26 1.855128 1_555
Al30 O32 1.856674 1_555
Al30 O9 1.952890 1_555
Al30 O37 2.023975 1_555
Al31 O29 1.759976 1_555
Al31 O56 1.803422 1_555
Al31 O33 1.895672 1_555
Al31 O39 1.909460 1_556
Al31 O53 2.097322 1_555
Al32 O39 1.823104 1_555
Al32 O46 1.873801 1_555
Al32 O30 1.885168 1_555
Al32 O9 2.002908 1_555
Al32 O20 2.262538 1_565
Al32 O25 2.265507 1_555
Al33 O2 1.718736 1_555
Al33 O57 1.775378 1_555
Al33 O5 1.800773 1_555
Al33 O4 1.950052 1_555
Al34 O49 1.793976 1_555
Al34 O17 1.798068 1_555
Al34 O54 1.816646 1_555
Al34 O38 1.821719 1_555
Al34 O0 2.118811 1_556
Al35 O35 1.734741 1_555
Al35 O43 1.751453 1_555
Al35 O52 1.802738 1_555
Al35 O32 1.866905 1_555
Al36 O17 1.771706 1_554
Al36 O22 1.778637 1_555
Al36 O20 1.861483 1_555
Al36 O0 1.977580 1_555
Al36 O8 2.009693 1_555
Al37 O41 1.756838 1_655
Al37 O34 1.783870 1_555
Al37 O55 1.827455 1_555
Al37 O35 1.842329 1_555
Al38 O39 1.811777 1_555
Al38 O36 1.833808 1_555
Al38 O55 1.916268 1_555
Al38 O33 1.969318 1_554
Al38 O9 1.979868 1_555
Al39 O19 1.732781 1_555
Al39 O50 1.876602 1_555
Al39 O1 1.877732 1_555
Al39 O13 2.005152 1_555
Al39 O3 2.100796 1_555
