# generated using pymatgen
data_TiMnO3
_symmetry_space_group_name_H-M   'P 1'
_cell_length_a   5.57539335
_cell_length_b   5.57539356
_cell_length_c   5.57539301
_cell_angle_alpha   54.84196489
_cell_angle_beta   54.84195498
_cell_angle_gamma   54.84195199
_symmetry_Int_Tables_number   1
_chemical_formula_structural   TiMnO3
_chemical_formula_sum   'Ti2 Mn2 O6'
_cell_volume   107.83263051
_cell_formula_units_Z   2
loop_
 _symmetry_equiv_pos_site_id
 _symmetry_equiv_pos_as_xyz
  1  'x, y, z'
loop_
 _atom_site_type_symbol
 _atom_site_label
 _atom_site_symmetry_multiplicity
 _atom_site_fract_x
 _atom_site_fract_y
 _atom_site_fract_z
 _atom_site_occupancy
  Ti  Ti0  1  0.85282028  0.85282028  0.85282028  1
  Ti  Ti1  1  0.14717972  0.14717972  0.14717972  1
  Mn  Mn0  1  0.64076144  0.64076144  0.64076144  1
  Mn  Mn1  1  0.35923856  0.35923856  0.35923856  1
  O  O0  1  0.04584299  0.78144035  0.43799747  1
  O  O1  1  0.78144035  0.43799747  0.04584299  1
  O  O2  1  0.43799747  0.04584299  0.78144035  1
  O  O3  1  0.95415801  0.21855965  0.56200253  1
  O  O4  1  0.56200253  0.95415801  0.21855965  1
  O  O5  1  0.21855965  0.56200253  0.95415801  1
loop_
_geom_bond_atom_site_label_1
_geom_bond_atom_site_label_2
_geom_bond_distance
_geom_bond_site_symmetry_2
Mn0 O3 2.087306 1_555
Mn0 O5 2.087306 1_555
Mn0 O4 2.087306 1_555
Mn0 O2 2.252211 1_565
Mn0 O1 2.252211 1_556
Mn0 O0 2.252211 1_655
Mn1 O0 2.087306 1_555
Mn1 O1 2.087306 1_555
Mn1 O2 2.087306 1_555
Mn1 O4 2.252206 1_545
Mn1 O5 2.252206 1_554
Mn1 O3 2.252206 1_455
O0 Ti1 1.889539 1_565
O0 Ti0 2.089470 1_455
O1 Ti1 1.889539 1_655
O1 Ti0 2.089470 1_554
O2 Ti1 1.889538 1_556
O2 Ti0 2.089470 1_545
O3 Ti0 1.889541 1_545
O3 Ti1 2.089471 1_655
O4 Ti0 1.889541 1_554
O4 Ti1 2.089471 1_565
O5 Ti0 1.889541 1_455
O5 Ti1 2.089471 1_556
