# generated using pymatgen
data_YBi3F15
_symmetry_space_group_name_H-M   'P 1'
_cell_length_a   11.65615300
_cell_length_b   5.96275500
_cell_length_c   10.51595867
_cell_angle_alpha   77.29536767
_cell_angle_beta   90.00000000
_cell_angle_gamma   90.00000000
_symmetry_Int_Tables_number   1
_chemical_formula_structural   YBi3F15
_chemical_formula_sum   'Y2 Bi6 F30'
_cell_volume   712.99389861
_cell_formula_units_Z   2
loop_
 _symmetry_equiv_pos_site_id
 _symmetry_equiv_pos_as_xyz
  1  'x, y, z'
loop_
 _atom_site_type_symbol
 _atom_site_label
 _atom_site_symmetry_multiplicity
 _atom_site_fract_x
 _atom_site_fract_y
 _atom_site_fract_z
 _atom_site_occupancy
  Y  Y0  1  0.25000000  0.75093800  0.65126100  1
  Y  Y1  1  0.75000000  0.24906200  0.34873900  1
  Bi  Bi0  1  0.50000000  0.00000000  0.00000000  1
  Bi  Bi1  1  0.43823500  0.63942200  0.34099600  1
  Bi  Bi2  1  0.56176500  0.36057800  0.65900400  1
  Bi  Bi3  1  0.00000000  0.00000000  0.00000000  1
  Bi  Bi4  1  0.06176500  0.63942200  0.34099600  1
  Bi  Bi5  1  0.93823500  0.36057800  0.65900400  1
  F  F0  1  0.25000000  0.82850900  0.84893600  1
  F  F1  1  0.25000000  0.54808600  0.32200000  1
  F  F2  1  0.25000000  0.09418300  0.69390600  1
  F  F3  1  0.75000000  0.17149100  0.15106400  1
  F  F4  1  0.75000000  0.90581700  0.30609400  1
  F  F5  1  0.75000000  0.45191400  0.67800000  1
  F  F6  1  0.60358700  0.27248000  0.91443400  1
  F  F7  1  0.52543600  0.00147200  0.19662400  1
  F  F8  1  0.58003300  0.65858200  0.49274600  1
  F  F9  1  0.39641300  0.72752000  0.08556600  1
  F  F10  1  0.41996700  0.34141800  0.50725400  1
  F  F11  1  0.47456400  0.99852800  0.80337600  1
  F  F12  1  0.87249900  0.77198100  0.99912900  1
  F  F13  1  0.90359700  0.44677800  0.28422500  1
  F  F14  1  0.86346300  0.15840000  0.52524200  1
  F  F15  1  0.12750100  0.22801900  0.00087100  1
  F  F16  1  0.13653700  0.84160000  0.47475800  1
  F  F17  1  0.09640300  0.55322200  0.71577500  1
  F  F18  1  0.37249900  0.22801900  0.00087100  1
  F  F19  1  0.36346300  0.84160000  0.47475800  1
  F  F20  1  0.40359700  0.55322200  0.71577500  1
  F  F21  1  0.62750100  0.77198100  0.99912900  1
  F  F22  1  0.59640300  0.44677800  0.28422500  1
  F  F23  1  0.63653700  0.15840000  0.52524200  1
  F  F24  1  0.89641300  0.27248000  0.91443400  1
  F  F25  1  0.97456400  0.00147200  0.19662400  1
  F  F26  1  0.91996700  0.65858200  0.49274600  1
  F  F27  1  0.10358700  0.72752000  0.08556600  1
  F  F28  1  0.08003300  0.34141800  0.50725400  1
  F  F29  1  0.02543600  0.99852800  0.80337600  1
loop_
_geom_bond_atom_site_label_1
_geom_bond_atom_site_label_2
_geom_bond_distance
_geom_bond_site_symmetry_2
Bi0 F21 2.015648 1_544
Bi0 F18 2.015648 1_555
Bi0 F6 2.065005 1_554
Bi0 F9 2.065005 1_545
Bi0 F7 2.090767 1_555
Bi0 F11 2.090767 1_544
Bi1 F10 2.212032 1_555
Bi1 F19 2.222033 1_555
Bi1 F1 2.280004 1_555
Bi1 F8 2.317676 1_555
Bi1 F22 2.318729 1_555
Bi1 F7 2.560654 1_565
Bi1 F9 2.666090 1_555
Bi2 F8 2.212032 1_555
Bi2 F23 2.222033 1_555
Bi2 F5 2.280004 1_555
Bi2 F10 2.317676 1_555
Bi2 F20 2.318729 1_555
Bi2 F11 2.560654 1_545
Bi2 F6 2.666090 1_555
Bi3 F15 2.015648 1_555
Bi3 F12 2.015648 1_444
Bi3 F27 2.065005 1_545
Bi3 F24 2.065005 1_454
Bi3 F25 2.090767 1_455
Bi3 F29 2.090767 1_544
Bi4 F28 2.212032 1_555
Bi4 F16 2.222033 1_555
Bi4 F1 2.280004 1_555
Bi4 F26 2.317676 1_455
Bi4 F13 2.318729 1_455
Bi4 F25 2.560654 1_465
Bi4 F27 2.666090 1_555
Bi5 F26 2.212032 1_555
Bi5 F14 2.222033 1_555
Bi5 F5 2.280004 1_555
Bi5 F28 2.317676 1_655
Bi5 F17 2.318729 1_655
Bi5 F29 2.560654 1_645
Bi5 F24 2.666090 1_555
F0 Y0 2.226662 1_555
F2 Y0 2.189463 1_545
F3 Y1 2.226662 1_555
F4 Y1 2.189463 1_565
F13 Y1 2.168801 1_555
F14 Y1 2.246134 1_555
F16 Y0 2.246134 1_555
F17 Y0 2.168801 1_555
F19 Y0 2.246134 1_555
F20 Y0 2.168801 1_555
F22 Y1 2.168801 1_555
F23 Y1 2.246134 1_555
