# generated using pymatgen
data_KMoO4
_symmetry_space_group_name_H-M   'P 1'
_cell_length_a   7.56040500
_cell_length_b   7.91601923
_cell_length_c   8.49841781
_cell_angle_alpha   113.81620342
_cell_angle_beta   115.84287333
_cell_angle_gamma   85.73336638
_symmetry_Int_Tables_number   1
_chemical_formula_structural   KMoO4
_chemical_formula_sum   'K4 Mo4 O16'
_cell_volume   415.56925370
_cell_formula_units_Z   4
loop_
 _symmetry_equiv_pos_site_id
 _symmetry_equiv_pos_as_xyz
  1  'x, y, z'
loop_
 _atom_site_type_symbol
 _atom_site_label
 _atom_site_symmetry_multiplicity
 _atom_site_fract_x
 _atom_site_fract_y
 _atom_site_fract_z
 _atom_site_occupancy
  K  K0  1  0.08267200  0.66019700  0.88806700  1
  K  K1  1  0.91732800  0.33980300  0.11193300  1
  K  K2  1  0.29298400  0.06913700  0.81181400  1
  K  K3  1  0.70701600  0.93086300  0.18818600  1
  Mo  Mo0  1  0.50933400  0.52127900  0.71078700  1
  Mo  Mo1  1  0.49066600  0.47872100  0.28921300  1
  Mo  Mo2  1  0.30967400  0.09413200  0.38531200  1
  Mo  Mo3  1  0.69032600  0.90586800  0.61468800  1
  O  O0  1  0.39752300  0.35720200  0.41459500  1
  O  O1  1  0.60247700  0.64279800  0.58540500  1
  O  O2  1  0.34423500  0.90602900  0.46775900  1
  O  O3  1  0.65576500  0.09397100  0.53224100  1
  O  O4  1  0.39109200  0.30391900  0.67630200  1
  O  O5  1  0.60890800  0.69608100  0.32369800  1
  O  O6  1  0.32161800  0.99038600  0.16237500  1
  O  O7  1  0.67838200  0.00961400  0.83762500  1
  O  O8  1  0.25452000  0.44228500  0.09339900  1
  O  O9  1  0.74548000  0.55771500  0.90660100  1
  O  O10  1  0.05521800  0.11476600  0.31321400  1
  O  O11  1  0.94478200  0.88523400  0.68678600  1
  O  O12  1  0.37582400  0.69451800  0.79858700  1
  O  O13  1  0.62417600  0.30548200  0.20141300  1
  O  O14  1  0.02331100  0.73284900  0.37058500  1
  O  O15  1  0.97668900  0.26715100  0.62941500  1
loop_
_geom_bond_atom_site_label_1
_geom_bond_atom_site_label_2
_geom_bond_distance
_geom_bond_site_symmetry_2
K0 O12 2.700013 1_555
K0 O6 2.764055 1_556
K0 O11 2.795743 1_455
K0 O8 2.798146 1_556
K0 O9 2.818315 1_455
K0 O15 2.909715 1_455
K1 O13 2.700013 1_555
K1 O7 2.764055 1_554
K1 O10 2.795743 1_655
K1 O9 2.798146 1_554
K1 O8 2.818315 1_655
K1 O14 2.909715 1_655
K2 O11 2.657254 1_445
K2 O4 2.830020 1_555
K2 O7 2.842909 1_555
K2 O2 2.868957 1_545
K2 O12 2.952090 1_545
K2 O15 2.958237 1_455
K2 O13 3.033013 1_556
K2 O8 3.050663 1_556
K2 O6 3.198242 1_546
K3 O10 2.657254 1_665
K3 O5 2.830020 1_555
K3 O6 2.842909 1_555
K3 O3 2.868957 1_565
K3 O13 2.952090 1_565
K3 O14 2.958237 1_655
K3 O12 3.033013 1_554
K3 O9 3.050663 1_554
K3 O7 3.198242 1_564
Mo0 O12 1.755141 1_555
Mo0 O9 1.771659 1_555
Mo0 O4 1.854407 1_555
Mo0 O1 2.034550 1_555
Mo0 O0 2.098950 1_555
Mo1 O13 1.755141 1_555
Mo1 O8 1.771659 1_555
Mo1 O5 1.854407 1_555
Mo1 O0 2.034550 1_555
Mo1 O1 2.098950 1_555
Mo2 O10 1.763379 1_555
Mo2 O6 1.775861 1_545
Mo2 O2 1.844315 1_545
Mo2 O0 2.117285 1_555
Mo2 O4 2.181879 1_555
Mo2 O3 2.357557 1_555
Mo3 O11 1.763379 1_555
Mo3 O7 1.775861 1_565
Mo3 O3 1.844315 1_565
Mo3 O1 2.117285 1_555
Mo3 O5 2.181879 1_555
Mo3 O2 2.357557 1_555
