# generated using pymatgen
data_Li7Mn5O12
_symmetry_space_group_name_H-M   'P 1'
_cell_length_a   6.52035426
_cell_length_b   9.00732733
_cell_length_c   7.80859045
_cell_angle_alpha   83.08616764
_cell_angle_beta   87.06745593
_cell_angle_gamma   76.56762362
_symmetry_Int_Tables_number   1
_chemical_formula_structural   Li7Mn5O12
_chemical_formula_sum   'Li14 Mn10 O24'
_cell_volume   442.68935642
_cell_formula_units_Z   2
loop_
 _symmetry_equiv_pos_site_id
 _symmetry_equiv_pos_as_xyz
  1  'x, y, z'
loop_
 _atom_site_type_symbol
 _atom_site_label
 _atom_site_symmetry_multiplicity
 _atom_site_fract_x
 _atom_site_fract_y
 _atom_site_fract_z
 _atom_site_occupancy
  Li  Li0  1  0.25169000  0.41630200  0.24598300  1
  Li  Li1  1  0.74843300  0.91699600  0.75393000  1
  Li  Li2  1  0.62867800  0.55003200  0.11662200  1
  Li  Li3  1  0.12661000  0.05097800  0.61934600  1
  Li  Li4  1  0.37130000  0.78328700  0.88335300  1
  Li  Li5  1  0.87341500  0.28236500  0.38052800  1
  Li  Li6  1  0.61321900  0.20741400  0.13007200  1
  Li  Li7  1  0.11373600  0.71617100  0.62718300  1
  Li  Li8  1  0.88634200  0.61709300  0.37283800  1
  Li  Li9  1  0.38685500  0.12585900  0.86993200  1
  Li  Li10  1  0.62239000  0.87979300  0.11358900  1
  Li  Li11  1  0.12214200  0.36848000  0.61984800  1
  Li  Li12  1  0.37761200  0.45362800  0.88637000  1
  Li  Li13  1  0.87783700  0.96488900  0.38005200  1
  Mn  Mn0  1  0.49993500  0.16669900  0.50008200  1
  Mn  Mn1  1  0.99997500  0.66662700  0.00008200  1
  Mn  Mn2  1  0.99227000  0.99701000  0.00362900  1
  Mn  Mn3  1  0.49953000  0.49706300  0.49985200  1
  Mn  Mn4  1  0.00779500  0.33631700  0.99628500  1
  Mn  Mn5  1  0.50051700  0.83628400  0.50009200  1
  Mn  Mn6  1  0.24890300  0.74427200  0.25599800  1
  Mn  Mn7  1  0.74904800  0.24136200  0.75328600  1
  Mn  Mn8  1  0.75108700  0.58908000  0.74400300  1
  Mn  Mn9  1  0.25091100  0.09202700  0.24672400  1
  O  O0  1  0.55730300  0.34157300  0.34130600  1
  O  O1  1  0.05429400  0.84122100  0.84425100  1
  O  O2  1  0.94568300  0.49197900  0.15585700  1
  O  O3  1  0.44264800  0.99172800  0.65876300  1
  O  O4  1  0.04667800  0.54134900  0.80889000  1
  O  O5  1  0.54815000  0.03645100  0.31653300  1
  O  O6  1  0.95329100  0.79198600  0.19121800  1
  O  O7  1  0.45172000  0.29700400  0.68360600  1
  O  O8  1  0.04516000  0.19521900  0.81263000  1
  O  O9  1  0.54165900  0.70111500  0.31114100  1
  O  O10  1  0.45834600  0.63222200  0.68880400  1
  O  O11  1  0.95485600  0.13812500  0.18729600  1
  O  O12  1  0.29426200  0.61638200  0.06944000  1
  O  O13  1  0.79454700  0.11091100  0.56568300  1
  O  O14  1  0.70572000  0.71690300  0.93063600  1
  O  O15  1  0.20535100  0.22247800  0.43438000  1
  O  O16  1  0.29833500  0.27395000  0.05236800  1
  O  O17  1  0.78944300  0.75637300  0.57563200  1
  O  O18  1  0.70169500  0.05935400  0.94759500  1
  O  O19  1  0.21058600  0.57694600  0.42433200  1
  O  O20  1  0.80076400  0.45121000  0.56513300  1
  O  O21  1  0.29136300  0.92723600  0.08752500  1
  O  O22  1  0.70865000  0.40609700  0.91245600  1
  O  O23  1  0.19926900  0.88216000  0.43484900  1
loop_
_geom_bond_atom_site_label_1
_geom_bond_atom_site_label_2
_geom_bond_distance
_geom_bond_site_symmetry_2
Li0 O16 2.064162 1_555
Li0 O2 2.082627 1_455
Li0 O19 2.090893 1_555
Li0 O0 2.094270 1_555
Li0 O12 2.195556 1_555
Li0 O15 2.210130 1_555
Li1 O18 2.064490 1_565
Li1 O1 2.082358 1_655
Li1 O17 2.090498 1_555
Li1 O3 2.094831 1_555
Li1 O14 2.196575 1_555
Li1 O13 2.209659 1_565
Li2 O2 2.040538 1_555
Li2 O14 2.090764 1_554
Li2 O9 2.128780 1_555
Li2 O22 2.143090 1_554
Li2 O12 2.161316 1_555
Li2 O0 2.519854 1_555
Li3 O3 2.034789 1_545
Li3 O8 2.077849 1_555
Li3 O15 2.119290 1_555
Li3 O13 2.156456 1_455
Li3 O23 2.176018 1_545
Li3 O1 2.531111 1_545
Li4 O1 2.040364 1_555
Li4 O12 2.091436 1_556
Li4 O10 2.128869 1_555
Li4 O21 2.143193 1_556
Li4 O14 2.161496 1_555
Li4 O3 2.519245 1_555
Li5 O0 2.034988 1_555
Li5 O11 2.077519 1_555
Li5 O13 2.120169 1_555
Li5 O15 2.155986 1_655
Li5 O20 2.176814 1_555
Li5 O2 2.529013 1_555
Li6 O18 2.039023 1_554
Li6 O5 2.090891 1_555
Li6 O16 2.100244 1_555
Li6 O0 2.127790 1_555
Li6 O11 2.222645 1_555
Li6 O22 2.480813 1_554
Li7 O4 2.098213 1_555
Li7 O17 2.112004 1_455
Li7 O1 2.116962 1_555
Li7 O19 2.118576 1_555
Li7 O23 2.136137 1_555
Li7 O10 2.255187 1_555
Li8 O6 2.098034 1_555
Li8 O19 2.111637 1_655
Li8 O2 2.116707 1_555
Li8 O17 2.118561 1_555
Li8 O20 2.135421 1_555
Li8 O9 2.255814 1_555
Li9 O16 2.038994 1_556
Li9 O7 2.090960 1_555
Li9 O18 2.099874 1_555
Li9 O3 2.127210 1_545
Li9 O8 2.223152 1_555
Li9 O21 2.480483 1_546
Li10 O18 2.092511 1_564
Li10 O21 2.116192 1_555
Li10 O14 2.131585 1_554
Li10 O6 2.207662 1_555
Li10 O5 2.208904 1_565
Li10 O9 2.227042 1_555
Li11 O15 2.041536 1_555
Li11 O20 2.102005 1_455
Li11 O7 2.161002 1_555
Li11 O8 2.162084 1_555
Li11 O4 2.229070 1_555
Li11 O19 2.431473 1_555
Li12 O16 2.093251 1_556
Li12 O22 2.116246 1_555
Li12 O12 2.131400 1_556
Li12 O4 2.207454 1_555
Li12 O7 2.207568 1_555
Li12 O10 2.226589 1_555
Li13 O13 2.042683 1_565
Li13 O23 2.102466 1_655
Li13 O5 2.161242 1_565
Li13 O11 2.161895 1_565
Li13 O6 2.228098 1_555
Li13 O17 2.431948 1_555
Mn0 O5 1.927899 1_555
Mn0 O7 1.928080 1_555
Mn0 O13 1.948152 1_555
Mn0 O15 1.948204 1_555
Mn0 O0 1.978453 1_555
Mn0 O3 1.978554 1_545
Mn1 O4 1.947911 1_654
Mn1 O6 1.948014 1_555
Mn1 O12 1.955506 1_655
Mn1 O14 1.955507 1_554
Mn1 O1 1.957860 1_654
Mn1 O2 1.957951 1_555
Mn2 O18 1.904694 1_564
Mn2 O1 1.945958 1_654
Mn2 O11 1.997754 1_565
Mn2 O21 2.022269 1_655
Mn2 O8 2.263423 1_664
Mn2 O6 2.269214 1_555
Mn3 O0 1.939265 1_555
Mn3 O19 1.948516 1_555
Mn3 O20 1.990777 1_555
Mn3 O10 1.992787 1_555
Mn3 O7 2.235156 1_555
Mn3 O9 2.272898 1_555
Mn4 O16 1.904581 1_556
Mn4 O2 1.946190 1_456
Mn4 O8 1.997594 1_555
Mn4 O22 2.022404 1_455
Mn4 O11 2.263457 1_456
Mn4 O4 2.268280 1_555
Mn5 O3 1.939647 1_555
Mn5 O17 1.948486 1_555
Mn5 O23 1.990769 1_555
Mn5 O9 1.992853 1_555
Mn5 O5 2.234739 1_565
Mn5 O10 2.273047 1_555
Mn6 O9 1.918169 1_555
Mn6 O19 1.930316 1_555
Mn6 O12 1.933450 1_555
Mn6 O23 1.944822 1_555
Mn6 O6 1.954067 1_455
Mn6 O21 2.043525 1_555
Mn7 O8 1.946188 1_655
Mn7 O13 1.955156 1_555
Mn7 O7 1.973978 1_555
Mn7 O22 2.011172 1_555
Mn7 O18 2.161827 1_555
Mn7 O20 2.328491 1_555
Mn8 O10 1.918192 1_555
Mn8 O17 1.930338 1_555
Mn8 O14 1.933535 1_555
Mn8 O20 1.944822 1_555
Mn8 O4 1.954167 1_655
Mn8 O22 2.043528 1_555
Mn9 O11 1.946024 1_455
Mn9 O15 1.955482 1_555
Mn9 O5 1.973737 1_555
Mn9 O21 2.011700 1_545
Mn9 O16 2.161638 1_555
Mn9 O23 2.328363 1_545
