# generated using pymatgen
data_Mg14SiBO16
_symmetry_space_group_name_H-M   'P 1'
_cell_length_a   8.57120500
_cell_length_b   8.57120500
_cell_length_c   4.25218400
_cell_angle_alpha   90.00000000
_cell_angle_beta   90.00000000
_cell_angle_gamma   90.00000000
_symmetry_Int_Tables_number   1
_chemical_formula_structural   Mg14SiBO16
_chemical_formula_sum   'Mg14 Si1 B1 O16'
_cell_volume   312.38905817
_cell_formula_units_Z   1
loop_
 _symmetry_equiv_pos_site_id
 _symmetry_equiv_pos_as_xyz
  1  'x, y, z'
loop_
 _atom_site_type_symbol
 _atom_site_label
 _atom_site_symmetry_multiplicity
 _atom_site_fract_x
 _atom_site_fract_y
 _atom_site_fract_z
 _atom_site_occupancy
  Mg  Mg0  1  0.50000000  0.00000000  0.00000000  1
  Mg  Mg1  1  0.00000000  0.50000000  0.00000000  1
  Mg  Mg2  1  0.25417500  0.00000000  0.50000000  1
  Mg  Mg3  1  0.74582500  0.00000000  0.50000000  1
  Mg  Mg4  1  0.25482100  0.50000000  0.50000000  1
  Mg  Mg5  1  0.74517900  0.50000000  0.50000000  1
  Mg  Mg6  1  0.00000000  0.25417500  0.50000000  1
  Mg  Mg7  1  0.50000000  0.25482100  0.50000000  1
  Mg  Mg8  1  0.00000000  0.74582500  0.50000000  1
  Mg  Mg9  1  0.50000000  0.74517900  0.50000000  1
  Mg  Mg10  1  0.25668100  0.25668100  0.00000000  1
  Mg  Mg11  1  0.74331900  0.25668100  0.00000000  1
  Mg  Mg12  1  0.25668100  0.74331900  0.00000000  1
  Mg  Mg13  1  0.74331900  0.74331900  0.00000000  1
  Si  Si0  1  0.00000000  0.00000000  0.00000000  1
  B  B0  1  0.50000000  0.50000000  0.00000000  1
  O  O0  1  0.00000000  0.23946600  0.00000000  1
  O  O1  1  0.50000000  0.23364600  0.00000000  1
  O  O2  1  0.00000000  0.76053400  0.00000000  1
  O  O3  1  0.50000000  0.76635400  0.00000000  1
  O  O4  1  0.24950300  0.24950300  0.50000000  1
  O  O5  1  0.75049700  0.24950300  0.50000000  1
  O  O6  1  0.24950300  0.75049700  0.50000000  1
  O  O7  1  0.75049700  0.75049700  0.50000000  1
  O  O8  1  0.00000000  0.00000000  0.50000000  1
  O  O9  1  0.50000000  0.00000000  0.50000000  1
  O  O10  1  0.00000000  0.50000000  0.50000000  1
  O  O11  1  0.50000000  0.50000000  0.50000000  1
  O  O12  1  0.23946600  0.00000000  0.00000000  1
  O  O13  1  0.76053400  0.00000000  0.00000000  1
  O  O14  1  0.23364600  0.50000000  0.00000000  1
  O  O15  1  0.76635400  0.50000000  0.00000000  1
loop_
_geom_bond_atom_site_label_1
_geom_bond_atom_site_label_2
_geom_bond_distance
_geom_bond_site_symmetry_2
Mg0 O1 2.002628 1_555
Mg0 O3 2.002628 1_545
Mg0 O9 2.126092 1_555
Mg0 O9 2.126092 1_554
Mg0 O12 2.233090 1_555
Mg0 O13 2.233090 1_555
Mg1 O14 2.002628 1_555
Mg1 O15 2.002628 1_455
Mg1 O10 2.126092 1_555
Mg1 O10 2.126092 1_554
Mg1 O0 2.233090 1_555
Mg1 O2 2.233090 1_555
Mg2 O9 2.107016 1_555
Mg2 O12 2.129827 1_556
Mg2 O12 2.129827 1_555
Mg2 O4 2.138916 1_555
Mg2 O6 2.138916 1_545
Mg2 O8 2.178586 1_555
Mg3 O9 2.107016 1_555
Mg3 O13 2.129827 1_555
Mg3 O13 2.129827 1_556
Mg3 O5 2.138916 1_555
Mg3 O7 2.138916 1_545
Mg3 O8 2.178586 1_655
Mg4 O11 2.101479 1_555
Mg4 O14 2.133825 1_556
Mg4 O14 2.133825 1_555
Mg4 O4 2.147545 1_555
Mg4 O6 2.147545 1_555
Mg4 O10 2.184123 1_555
Mg5 O11 2.101479 1_555
Mg5 O15 2.133825 1_556
Mg5 O15 2.133825 1_555
Mg5 O7 2.147545 1_555
Mg5 O5 2.147545 1_555
Mg5 O10 2.184123 1_655
Mg6 O10 2.107016 1_555
Mg6 O0 2.129827 1_555
Mg6 O0 2.129827 1_556
Mg6 O4 2.138916 1_555
Mg6 O5 2.138916 1_455
Mg6 O8 2.178586 1_555
Mg7 O11 2.101479 1_555
Mg7 O1 2.133825 1_556
Mg7 O1 2.133825 1_555
Mg7 O4 2.147545 1_555
Mg7 O5 2.147545 1_555
Mg7 O9 2.184123 1_555
Mg8 O10 2.107016 1_555
Mg8 O2 2.129827 1_555
Mg8 O2 2.129827 1_556
Mg8 O6 2.138916 1_555
Mg8 O7 2.138916 1_455
Mg8 O8 2.178586 1_565
Mg9 O11 2.101479 1_555
Mg9 O3 2.133825 1_556
Mg9 O3 2.133825 1_555
Mg9 O7 2.147545 1_555
Mg9 O6 2.147545 1_555
Mg9 O9 2.184123 1_565
Mg10 O1 2.094862 1_555
Mg10 O14 2.094862 1_555
Mg10 O4 2.127872 1_555
Mg10 O4 2.127872 1_554
Mg10 O12 2.205008 1_555
Mg10 O0 2.205008 1_555
Mg11 O1 2.094862 1_555
Mg11 O15 2.094862 1_555
Mg11 O5 2.127872 1_554
Mg11 O5 2.127872 1_555
Mg11 O13 2.205008 1_555
Mg11 O0 2.205008 1_655
Mg12 O3 2.094862 1_555
Mg12 O14 2.094862 1_555
Mg12 O6 2.127872 1_555
Mg12 O6 2.127872 1_554
Mg12 O12 2.205008 1_565
Mg12 O2 2.205008 1_555
Mg13 O3 2.094862 1_555
Mg13 O15 2.094862 1_555
Mg13 O7 2.127872 1_555
Mg13 O7 2.127872 1_554
Mg13 O13 2.205008 1_565
Mg13 O2 2.205008 1_655
B0 O11 2.126092 1_554
B0 O11 2.126092 1_555
O0 Si0 2.052512 1_555
O2 Si0 2.052512 1_565
O8 Si0 2.126092 1_555
O8 Si0 2.126092 1_556
O12 Si0 2.052512 1_555
O13 Si0 2.052512 1_655
