# generated using pymatgen
data_Ca5Hf2N6
_symmetry_space_group_name_H-M   'P 1'
_cell_length_a   6.28170610
_cell_length_b   6.08533637
_cell_length_c   14.62506269
_cell_angle_alpha   89.99999961
_cell_angle_beta   92.25791199
_cell_angle_gamma   118.97118173
_symmetry_Int_Tables_number   1
_chemical_formula_structural   Ca5Hf2N6
_chemical_formula_sum   'Ca10 Hf4 N12'
_cell_volume   488.60666972
_cell_formula_units_Z   2
loop_
 _symmetry_equiv_pos_site_id
 _symmetry_equiv_pos_as_xyz
  1  'x, y, z'
loop_
 _atom_site_type_symbol
 _atom_site_label
 _atom_site_symmetry_multiplicity
 _atom_site_fract_x
 _atom_site_fract_y
 _atom_site_fract_z
 _atom_site_occupancy
  Ca  Ca0  1  0.00000000  0.41017500  0.75000000  1
  Ca  Ca1  1  0.00000000  0.58982500  0.25000000  1
  Ca  Ca2  1  0.21215700  0.83865700  0.03938100  1
  Ca  Ca3  1  0.78784300  0.62650000  0.46061900  1
  Ca  Ca4  1  0.78784300  0.16134300  0.96061900  1
  Ca  Ca5  1  0.21215700  0.37350000  0.53938100  1
  Ca  Ca6  1  0.29277600  0.09129400  0.71717400  1
  Ca  Ca7  1  0.70722400  0.79851800  0.78282600  1
  Ca  Ca8  1  0.70722400  0.90870600  0.28282600  1
  Ca  Ca9  1  0.29277600  0.20148200  0.21717400  1
  Hf  Hf0  1  0.59543300  0.95906900  0.58749700  1
  Hf  Hf1  1  0.40456700  0.36363600  0.91250300  1
  Hf  Hf2  1  0.40456700  0.04093100  0.41250300  1
  Hf  Hf3  1  0.59543300  0.63636400  0.08749700  1
  N  N0  1  0.35522700  0.73134700  0.67967100  1
  N  N1  1  0.64477300  0.37612000  0.82032900  1
  N  N2  1  0.64477300  0.26865300  0.32032900  1
  N  N3  1  0.35522700  0.62388000  0.17967100  1
  N  N4  1  0.50083400  0.22920400  0.54071000  1
  N  N5  1  0.49916600  0.72837000  0.95929000  1
  N  N6  1  0.49916600  0.77079600  0.45929000  1
  N  N7  1  0.50083400  0.27163000  0.04071000  1
  N  N8  1  0.93766900  0.08250300  0.64265200  1
  N  N9  1  0.06233100  0.14483500  0.85734800  1
  N  N10  1  0.06233100  0.91749700  0.35734800  1
  N  N11  1  0.93766900  0.85516500  0.14265200  1
loop_
_geom_bond_atom_site_label_1
_geom_bond_atom_site_label_2
_geom_bond_distance
_geom_bond_site_symmetry_2
Ca0 N9 2.406105 1_555
Ca0 N8 2.406109 1_455
Ca0 N1 2.411028 1_455
Ca0 N0 2.411028 1_555
Ca1 N11 2.406105 1_455
Ca1 N10 2.406109 1_555
Ca1 N3 2.411028 1_555
Ca1 N2 2.411028 1_455
Ca2 N7 2.366335 1_565
Ca2 N11 2.374296 1_455
Ca2 N5 2.532091 1_554
Ca2 N3 2.778167 1_555
Ca3 N6 2.366335 1_555
Ca3 N10 2.374298 1_655
Ca3 N4 2.532091 1_555
Ca3 N2 2.778167 1_555
Ca4 N5 2.366335 1_545
Ca4 N9 2.374296 1_655
Ca4 N7 2.532091 1_556
Ca4 N1 2.778167 1_555
Ca5 N4 2.366335 1_555
Ca5 N8 2.374298 1_455
Ca5 N6 2.532091 1_555
Ca5 N0 2.778167 1_555
Ca6 N8 2.420635 1_455
Ca6 N0 2.470215 1_545
Ca6 N1 2.488741 1_555
Ca6 N9 2.663667 1_555
Ca6 N4 2.876836 1_555
Ca7 N9 2.420638 1_665
Ca7 N1 2.470215 1_555
Ca7 N0 2.488741 1_555
Ca7 N8 2.663665 1_565
Ca7 N5 2.876836 1_555
Ca8 N10 2.420635 1_655
Ca8 N2 2.470215 1_565
Ca8 N3 2.488741 1_555
Ca8 N11 2.663667 1_555
Ca8 N6 2.876836 1_555
Ca9 N11 2.420638 1_445
Ca9 N3 2.470215 1_555
Ca9 N2 2.488741 1_555
Ca9 N10 2.663665 1_545
Ca9 N7 2.876836 1_555
Hf0 N8 2.033632 1_565
Hf0 N0 2.036917 1_555
Hf0 N6 2.105604 1_555
Hf0 N4 2.106633 1_565
Hf1 N9 2.033631 1_555
Hf1 N1 2.036917 1_555
Hf1 N7 2.105604 1_556
Hf1 N5 2.106633 1_555
Hf2 N10 2.033632 1_545
Hf2 N2 2.036917 1_555
Hf2 N4 2.105604 1_555
Hf2 N6 2.106633 1_545
Hf3 N11 2.033631 1_555
Hf3 N3 2.036917 1_555
Hf3 N5 2.105604 1_554
Hf3 N7 2.106633 1_555
