# generated using pymatgen
data_Na3(CoO2)5
_symmetry_space_group_name_H-M   'P 1'
_cell_length_a   4.99797825
_cell_length_b   11.23695582
_cell_length_c   7.57914987
_cell_angle_alpha   86.95610698
_cell_angle_beta   108.79192451
_cell_angle_gamma   98.61769968
_symmetry_Int_Tables_number   1
_chemical_formula_structural   Na3(CoO2)5
_chemical_formula_sum   'Na6 Co10 O20'
_cell_volume   398.41590089
_cell_formula_units_Z   2
loop_
 _symmetry_equiv_pos_site_id
 _symmetry_equiv_pos_as_xyz
  1  'x, y, z'
loop_
 _atom_site_type_symbol
 _atom_site_label
 _atom_site_symmetry_multiplicity
 _atom_site_fract_x
 _atom_site_fract_y
 _atom_site_fract_z
 _atom_site_occupancy
  Na  Na0  1  0.82298500  0.25050000  0.79868200  1
  Na  Na1  1  0.31304600  0.74865300  0.80134000  1
  Na  Na2  1  0.99912400  0.24671700  0.19549000  1
  Na  Na3  1  0.52191400  0.74747600  0.19756800  1
  Na  Na4  1  0.60146700  0.25015700  0.39890700  1
  Na  Na5  1  0.12160700  0.74733000  0.40333700  1
  Co  Co0  1  0.90349200  0.50526800  0.80079200  1
  Co  Co1  1  0.49328800  0.49580200  0.99751900  1
  Co  Co2  1  0.99819000  0.99639800  0.00040000  1
  Co  Co3  1  0.30065700  0.49996100  0.60047100  1
  Co  Co4  1  0.80209400  0.99819800  0.60245100  1
  Co  Co5  1  0.40591300  0.00490900  0.80135600  1
  Co  Co6  1  0.59894200  0.00286300  0.20001700  1
  Co  Co7  1  0.09736500  0.50109900  0.19861900  1
  Co  Co8  1  0.20383900  0.00327300  0.40128000  1
  Co  Co9  1  0.70487100  0.50592900  0.40474100  1
  O  O0  1  0.09030700  0.08551400  0.80057900  1
  O  O1  1  0.59137300  0.58575300  0.80572600  1
  O  O2  1  0.20386700  0.41495200  0.80221500  1
  O  O3  1  0.70479400  0.91395600  0.80169800  1
  O  O4  1  0.27165300  0.09613300  0.19218700  1
  O  O5  1  0.79243100  0.58731300  0.19787600  1
  O  O6  1  0.87845700  0.09247500  0.39976900  1
  O  O7  1  0.37861100  0.59223600  0.39093400  1
  O  O8  1  0.70680000  0.09024000  0.99745300  1
  O  O9  1  0.20302900  0.58939200  0.00280100  1
  O  O10  1  0.52296700  0.09379300  0.60602200  1
  O  O11  1  0.01699400  0.59548900  0.60741200  1
  O  O12  1  0.80523200  0.41194700  0.00154300  1
  O  O13  1  0.30923700  0.91394200  0.00139100  1
  O  O14  1  0.61543000  0.41573200  0.60000900  1
  O  O15  1  0.10821800  0.91244000  0.60455100  1
  O  O16  1  0.00910300  0.40990500  0.39639200  1
  O  O17  1  0.52015600  0.90744700  0.40707800  1
  O  O18  1  0.38135200  0.40869200  0.19087300  1
  O  O19  1  0.90919400  0.90211800  0.19051900  1
loop_
_geom_bond_atom_site_label_1
_geom_bond_atom_site_label_2
_geom_bond_distance
_geom_bond_site_symmetry_2
Na0 O10 2.356389 1_555
Na0 O8 2.410788 1_555
Na0 O0 2.439157 1_655
Na0 O2 2.440827 1_655
Na0 O14 2.462670 1_555
Na0 O12 2.468888 1_556
Na1 O11 2.327279 1_555
Na1 O9 2.406719 1_556
Na1 O15 2.439115 1_555
Na1 O1 2.452297 1_555
Na1 O13 2.465214 1_556
Na1 O3 2.488189 1_555
Na2 O4 2.331593 1_655
Na2 O8 2.361515 1_554
Na2 O6 2.401705 1_555
Na2 O12 2.424610 1_555
Na2 O16 2.429771 1_655
Na2 O18 2.440861 1_655
Na3 O7 2.394611 1_555
Na3 O9 2.406040 1_555
Na3 O5 2.407039 1_555
Na3 O19 2.412025 1_555
Na3 O17 2.463679 1_555
Na3 O13 2.474248 1_555
Na4 O10 2.366978 1_555
Na4 O6 2.405023 1_555
Na4 O4 2.436513 1_555
Na4 O14 2.446101 1_555
Na4 O18 2.457922 1_555
Na4 O16 2.509758 1_655
Na5 O7 2.337122 1_555
Na5 O11 2.355913 1_555
Na5 O19 2.430285 1_455
Na5 O17 2.469986 1_555
Na5 O5 2.474893 1_455
Na5 O15 2.485138 1_555
Co0 O11 1.924389 1_655
Co0 O1 1.927904 1_555
Co0 O14 1.928163 1_555
Co0 O2 1.931035 1_655
Co0 O9 1.931798 1_656
Co0 O12 1.952816 1_556
Co1 O2 1.865048 1_555
Co1 O1 1.878721 1_555
Co1 O18 1.905376 1_556
Co1 O9 1.926463 1_556
Co1 O12 1.930322 1_556
Co1 O5 1.959870 1_556
Co2 O19 1.872462 1_555
Co2 O3 1.895997 1_554
Co2 O0 1.912688 1_664
Co2 O8 1.915783 1_564
Co2 O4 1.915974 1_665
Co2 O13 1.923218 1_655
Co3 O2 1.915057 1_555
Co3 O11 1.917072 1_555
Co3 O1 1.934906 1_555
Co3 O16 1.952452 1_555
Co3 O14 1.954742 1_555
Co3 O7 1.962582 1_555
Co4 O10 1.891392 1_565
Co4 O3 1.896422 1_555
Co4 O17 1.898322 1_555
Co4 O0 1.905760 1_665
Co4 O15 1.922063 1_655
Co4 O6 1.926517 1_565
Co5 O8 1.915488 1_555
Co5 O0 1.931374 1_555
Co5 O3 1.931516 1_545
Co5 O13 1.932937 1_546
Co5 O10 1.938422 1_555
Co5 O15 1.946741 1_545
Co6 O6 1.906665 1_555
Co6 O13 1.919127 1_545
Co6 O8 1.956057 1_554
Co6 O17 1.964788 1_545
Co6 O4 2.054846 1_555
Co6 O19 2.073128 1_545
Co7 O7 1.885824 1_555
Co7 O18 1.896863 1_555
Co7 O16 1.902356 1_555
Co7 O9 1.912449 1_555
Co7 O12 1.918848 1_455
Co7 O5 1.922934 1_455
Co8 O4 1.944109 1_555
Co8 O15 1.950612 1_545
Co8 O10 2.018284 1_555
Co8 O17 2.030069 1_545
Co8 O6 2.030970 1_455
Co8 O19 2.046453 1_445
Co9 O14 1.883757 1_555
Co9 O5 1.912032 1_555
Co9 O11 1.988907 1_655
Co9 O7 1.990909 1_555
Co9 O16 2.010290 1_655
Co9 O18 2.099014 1_555
