# generated using pymatgen
data_Zn2MoSeO7
_symmetry_space_group_name_H-M   'P 1'
_cell_length_a   8.49005800
_cell_length_b   5.25000200
_cell_length_c   7.26880624
_cell_angle_alpha   81.52046608
_cell_angle_beta   90.00000000
_cell_angle_gamma   90.00000000
_symmetry_Int_Tables_number   1
_chemical_formula_structural   Zn2MoSeO7
_chemical_formula_sum   'Zn4 Mo2 Se2 O14'
_cell_volume   320.44952496
_cell_formula_units_Z   2
loop_
 _symmetry_equiv_pos_site_id
 _symmetry_equiv_pos_as_xyz
  1  'x, y, z'
loop_
 _atom_site_type_symbol
 _atom_site_label
 _atom_site_symmetry_multiplicity
 _atom_site_fract_x
 _atom_site_fract_y
 _atom_site_fract_z
 _atom_site_occupancy
  Zn  Zn0  1  0.45664300  0.93724200  0.50850500  1
  Zn  Zn1  1  0.95664300  0.06275800  0.49149500  1
  Zn  Zn2  1  0.63637800  0.53444900  0.22641500  1
  Zn  Zn3  1  0.13637800  0.46555100  0.77358500  1
  Mo  Mo0  1  0.46866300  0.07423800  0.98504100  1
  Mo  Mo1  1  0.96866300  0.92576200  0.01495900  1
  Se  Se0  1  0.75900100  0.54244300  0.61783400  1
  Se  Se1  1  0.25900100  0.45755700  0.38216600  1
  O  O0  1  0.93877900  0.70455000  0.62372700  1
  O  O1  1  0.43877900  0.29545000  0.37627300  1
  O  O2  1  0.66165000  0.76415300  0.45430500  1
  O  O3  1  0.16165000  0.23584700  0.54569500  1
  O  O4  1  0.45055500  0.80129400  0.17035400  1
  O  O5  1  0.95055500  0.19870600  0.82964600  1
  O  O6  1  0.79218900  0.33733700  0.45195700  1
  O  O7  1  0.29218900  0.66266300  0.54804300  1
  O  O8  1  0.62212600  0.28258200  0.04570600  1
  O  O9  1  0.12212600  0.71741800  0.95429400  1
  O  O10  1  0.28822000  0.25050100  0.95382300  1
  O  O11  1  0.78822000  0.74949900  0.04617700  1
  O  O12  1  0.51853500  0.97319900  0.76742800  1
  O  O13  1  0.01853500  0.02680100  0.23257200  1
loop_
_geom_bond_atom_site_label_1
_geom_bond_atom_site_label_2
_geom_bond_distance
_geom_bond_site_symmetry_2
Mo0 O10 1.786850 1_555
Mo0 O12 1.791693 1_545
Mo0 O8 1.797409 1_556
Mo0 O4 1.822685 1_546
Mo1 O11 1.786850 1_555
Mo1 O13 1.791693 1_665
Mo1 O9 1.797409 1_654
Mo1 O5 1.822685 1_564
O0 Se0 1.751160 1_555
O0 Zn1 1.987562 1_565
O0 Zn3 2.274266 1_655
O1 Se1 1.751160 1_555
O1 Zn0 1.987562 1_545
O1 Zn2 2.274266 1_555
O2 Se0 1.744378 1_555
O2 Zn0 2.028786 1_555
O2 Zn2 2.198505 1_555
O3 Se1 1.744378 1_555
O3 Zn1 2.028786 1_455
O3 Zn3 2.198505 1_555
O4 Zn2 2.109335 1_555
O5 Zn3 2.109335 1_655
O6 Se0 1.753733 1_555
O6 Zn1 1.996972 1_555
O6 Zn2 2.237896 1_555
O7 Se1 1.753733 1_555
O7 Zn0 1.996972 1_555
O7 Zn3 2.237896 1_555
O8 Zn2 2.000185 1_555
O9 Zn3 2.000185 1_555
O10 Zn3 2.053474 1_555
O11 Zn2 2.053474 1_555
O12 Zn0 1.989644 1_555
O13 Zn1 1.989644 1_455
