# generated using pymatgen
data_TaCr3(CuS4)2
_symmetry_space_group_name_H-M   'P 1'
_cell_length_a   6.92054016
_cell_length_b   5.96813837
_cell_length_c   5.79296570
_cell_angle_alpha   91.75906313
_cell_angle_beta   89.99946162
_cell_angle_gamma   89.99926910
_symmetry_Int_Tables_number   1
_chemical_formula_structural   TaCr3(CuS4)2
_chemical_formula_sum   'Ta1 Cr3 Cu2 S8'
_cell_volume   239.15260872
_cell_formula_units_Z   1
loop_
 _symmetry_equiv_pos_site_id
 _symmetry_equiv_pos_as_xyz
  1  'x, y, z'
loop_
 _atom_site_type_symbol
 _atom_site_label
 _atom_site_symmetry_multiplicity
 _atom_site_fract_x
 _atom_site_fract_y
 _atom_site_fract_z
 _atom_site_occupancy
  Ta  Ta0  1  0.75000700  0.50000900  0.50001100  1
  Cr  Cr0  1  0.24997300  0.49994500  0.49999700  1
  Cr  Cr1  1  0.99770700  0.00000600  0.49999900  1
  Cr  Cr2  1  0.50224200  0.00000900  0.50000000  1
  Cu  Cu0  1  0.00820800  0.00000500  0.00000200  1
  Cu  Cu1  1  0.49182600  0.99999500  0.00000300  1
  S  S0  1  0.00468700  0.32422900  0.25996700  1
  S  S1  1  0.49532700  0.32424600  0.25996500  1
  S  S2  1  0.25001000  0.82686300  0.26770600  1
  S  S3  1  0.75001600  0.82783100  0.24955200  1
  S  S4  1  0.24999900  0.17314400  0.73230100  1
  S  S5  1  0.74999700  0.17217900  0.75045100  1
  S  S6  1  0.49531500  0.67577500  0.74001400  1
  S  S7  1  0.00468700  0.67576500  0.74003300  1
loop_
_geom_bond_atom_site_label_1
_geom_bond_atom_site_label_2
_geom_bond_distance
_geom_bond_site_symmetry_2
Cr0 S4 2.403364 1_555
Cr0 S2 2.403899 1_555
Cr0 S0 2.413572 1_555
Cr0 S7 2.413813 1_555
Cr0 S1 2.413830 1_555
Cr0 S6 2.414086 1_555
Cr1 S4 2.417005 1_655
Cr1 S2 2.417007 1_645
Cr1 S0 2.417697 1_655
Cr1 S7 2.417791 1_645
Cr1 S3 2.451060 1_545
Cr1 S5 2.451126 1_555
Cr2 S2 2.416700 1_545
Cr2 S4 2.416712 1_555
Cr2 S6 2.417681 1_545
Cr2 S1 2.417766 1_555
Cr2 S5 2.451371 1_555
Cr2 S3 2.451434 1_545
Cu0 S0 2.415348 1_555
Cu0 S7 2.415437 1_544
Cu0 S4 2.524096 1_554
Cu0 S2 2.524167 1_545
Cu0 S3 2.535683 1_445
Cu0 S5 2.535779 1_454
Cu1 S6 2.415410 1_554
Cu1 S1 2.415463 1_565
Cu1 S2 2.524200 1_555
Cu1 S4 2.524292 1_564
Cu1 S5 2.535612 1_564
Cu1 S3 2.535645 1_555
S0 Ta0 2.459894 1_455
S1 Ta0 2.459896 1_555
S3 Ta0 2.471281 1_555
S5 Ta0 2.471252 1_555
S6 Ta0 2.459788 1_555
S7 Ta0 2.459803 1_455
