# generated using pymatgen
data_EuZn11
_symmetry_space_group_name_H-M   'P 1'
_cell_length_a   6.77215187
_cell_length_b   8.18296339
_cell_length_c   8.18296339
_cell_angle_alpha   80.25360347
_cell_angle_beta   65.60412331
_cell_angle_gamma   65.60412331
_symmetry_Int_Tables_number   1
_chemical_formula_structural   EuZn11
_chemical_formula_sum   'Eu2 Zn22'
_cell_volume   376.10646811
_cell_formula_units_Z   2
loop_
 _symmetry_equiv_pos_site_id
 _symmetry_equiv_pos_as_xyz
  1  'x, y, z'
loop_
 _atom_site_type_symbol
 _atom_site_label
 _atom_site_symmetry_multiplicity
 _atom_site_fract_x
 _atom_site_fract_y
 _atom_site_fract_z
 _atom_site_occupancy
  Eu  Eu0  1  0.37517997  0.24982800  0.74982800  1
  Eu  Eu1  1  0.62482003  0.75017200  0.25017200  1
  Zn  Zn0  1  0.12503120  0.74956423  0.24956423  1
  Zn  Zn1  1  0.87496880  0.25043577  0.75043577  1
  Zn  Zn2  1  0.50000000  0.50000000  -0.00000000  1
  Zn  Zn3  1  0.00000000  0.50000000  0.50000000  1
  Zn  Zn4  1  0.00000000  -0.00000000  -0.00000000  1
  Zn  Zn5  1  0.00000000  -0.00000000  0.50000000  1
  Zn  Zn6  1  0.55727290  0.57793065  0.66643633  1
  Zn  Zn7  1  0.55727290  0.16643633  0.07793065  1
  Zn  Zn8  1  0.13542823  0.42213326  0.16622094  1
  Zn  Zn9  1  0.13542823  0.66622094  0.92213326  1
  Zn  Zn10  1  0.80110897  0.33391307  0.42191399  1
  Zn  Zn11  1  0.80110897  0.92191399  0.83391307  1
  Zn  Zn12  1  0.72310314  0.83382521  0.57803446  1
  Zn  Zn13  1  0.72310314  0.07803446  0.33382521  1
  Zn  Zn14  1  0.44272710  0.42206935  0.33356367  1
  Zn  Zn15  1  0.44272710  0.83356367  0.92206935  1
  Zn  Zn16  1  0.86457177  0.57786674  0.83377906  1
  Zn  Zn17  1  0.86457177  0.33377906  0.07786674  1
  Zn  Zn18  1  0.19889103  0.66608693  0.57808601  1
  Zn  Zn19  1  0.19889103  0.07808601  0.16608693  1
  Zn  Zn20  1  0.27689686  0.16617479  0.42196554  1
  Zn  Zn21  1  0.27689686  0.92196554  0.66617479  1
loop_
_geom_bond_atom_site_label_1
_geom_bond_atom_site_label_2
_geom_bond_distance
_geom_bond_site_symmetry_2
Eu0 Zn21 3.253117 1_545
Eu0 Zn20 3.253117 1_555
Eu0 Zn11 3.257962 1_545
Eu0 Zn10 3.257962 1_555
Eu0 Zn7 3.257966 1_556
Eu0 Zn6 3.257966 1_555
Eu0 Zn17 3.260206 1_456
Eu0 Zn16 3.260206 1_455
Eu0 Zn12 3.372570 1_545
Eu0 Zn13 3.372570 1_555
Eu0 Zn9 3.376312 1_555
Eu0 Zn8 3.376312 1_556
Eu0 Zn18 3.377675 1_555
Eu0 Zn19 3.377675 1_556
Eu0 Zn15 3.379120 1_545
Eu0 Zn14 3.379120 1_555
Eu0 Zn1 3.383404 1_455
Eu0 Zn1 3.388760 1_555
Eu1 Zn12 3.253117 1_555
Eu1 Zn13 3.253117 1_565
Eu1 Zn18 3.257962 1_555
Eu1 Zn19 3.257962 1_565
Eu1 Zn14 3.257966 1_555
Eu1 Zn15 3.257966 1_554
Eu1 Zn8 3.260206 1_655
Eu1 Zn9 3.260206 1_654
Eu1 Zn20 3.372570 1_565
Eu1 Zn21 3.372570 1_555
Eu1 Zn17 3.376312 1_555
Eu1 Zn16 3.376312 1_554
Eu1 Zn11 3.377675 1_554
Eu1 Zn10 3.377675 1_555
Eu1 Zn6 3.379120 1_555
Eu1 Zn7 3.379120 1_565
Eu1 Zn0 3.383404 1_655
Eu1 Zn0 3.388760 1_555
Zn0 Zn2 2.762883 1_555
Zn0 Zn4 2.768601 1_565
Zn0 Zn3 2.768601 1_555
Zn0 Zn5 2.769717 1_565
Zn0 Zn8 2.841160 1_555
Zn0 Zn9 2.841160 1_554
Zn0 Zn15 2.849237 1_554
Zn0 Zn14 2.849237 1_555
Zn0 Zn13 2.853465 1_465
Zn0 Zn12 2.853465 1_455
Zn0 Zn19 2.854901 1_565
Zn0 Zn18 2.854901 1_555
Zn1 Zn2 2.762883 1_556
Zn1 Zn3 2.768601 1_655
Zn1 Zn4 2.768601 1_656
Zn1 Zn5 2.769717 1_655
Zn1 Zn17 2.841160 1_556
Zn1 Zn16 2.841160 1_555
Zn1 Zn6 2.849237 1_555
Zn1 Zn7 2.849237 1_556
Zn1 Zn20 2.853465 1_655
Zn1 Zn21 2.853465 1_645
Zn1 Zn10 2.854901 1_555
Zn1 Zn11 2.854901 1_545
Zn2 Zn9 2.565875 1_554
Zn2 Zn8 2.565875 1_555
Zn2 Zn7 2.597676 1_555
Zn2 Zn6 2.597676 1_554
Zn3 Zn6 2.567540 1_455
Zn3 Zn8 2.596984 1_555
Zn4 Zn7 2.567540 1_455
Zn4 Zn9 2.596984 1_544
Zn6 Zn9 2.632529 1_555
Zn7 Zn8 2.632529 1_555
Zn8 Zn9 2.574523 1_554
Zn10 Zn3 2.566472 1_655
Zn10 Zn6 2.572370 1_555
Zn10 Zn14 2.600016 1_555
Zn10 Zn5 2.601554 1_655
Zn10 Zn13 2.630998 1_555
Zn10 Zn8 2.636371 1_655
Zn10 Zn17 2.666814 1_555
Zn10 Zn19 2.861524 1_655
Zn10 Zn20 2.934872 1_655
Zn11 Zn4 2.566472 1_666
Zn11 Zn7 2.572370 1_566
Zn11 Zn15 2.600016 1_555
Zn11 Zn5 2.601554 1_665
Zn11 Zn12 2.630998 1_555
Zn11 Zn9 2.636371 1_655
Zn11 Zn16 2.666814 1_555
Zn11 Zn18 2.861524 1_655
Zn11 Zn21 2.934872 1_655
Zn12 Zn5 2.568347 1_665
Zn12 Zn13 2.575806 1_565
Zn12 Zn21 2.597473 1_555
Zn12 Zn3 2.599245 1_655
Zn12 Zn6 2.632083 1_555
Zn12 Zn15 2.667647 1_555
Zn12 Zn16 2.863377 1_555
Zn12 Zn18 2.934872 1_655
Zn13 Zn5 2.568347 1_655
Zn13 Zn20 2.597473 1_555
Zn13 Zn4 2.599245 1_655
Zn13 Zn7 2.632083 1_555
Zn13 Zn14 2.667647 1_555
Zn13 Zn17 2.863377 1_555
Zn13 Zn19 2.934872 1_655
Zn14 Zn3 2.567540 1_555
Zn14 Zn18 2.572370 1_555
Zn14 Zn2 2.597676 1_555
Zn14 Zn20 2.632083 1_555
Zn14 Zn17 2.632529 1_555
Zn14 Zn7 2.855504 1_555
Zn14 Zn8 2.925574 1_555
Zn15 Zn4 2.567540 1_566
Zn15 Zn19 2.572370 1_566
Zn15 Zn2 2.597676 1_556
Zn15 Zn21 2.632083 1_555
Zn15 Zn16 2.632529 1_555
Zn15 Zn6 2.855504 1_555
Zn15 Zn9 2.925574 1_555
Zn16 Zn2 2.565875 1_556
Zn16 Zn17 2.574523 1_556
Zn16 Zn3 2.596984 1_655
Zn16 Zn9 2.603476 1_655
Zn16 Zn18 2.636371 1_655
Zn16 Zn6 2.925574 1_555
Zn17 Zn2 2.565875 1_555
Zn17 Zn4 2.596984 1_655
Zn17 Zn8 2.603476 1_655
Zn17 Zn19 2.636371 1_655
Zn17 Zn7 2.925574 1_555
Zn18 Zn3 2.566472 1_555
Zn18 Zn6 2.600016 1_555
Zn18 Zn5 2.601554 1_565
Zn18 Zn21 2.630998 1_555
Zn18 Zn9 2.666814 1_555
Zn19 Zn4 2.566472 1_555
Zn19 Zn7 2.600016 1_555
Zn19 Zn5 2.601554 1_555
Zn19 Zn20 2.630998 1_555
Zn19 Zn8 2.666814 1_555
Zn20 Zn5 2.568347 1_555
Zn20 Zn21 2.575806 1_545
Zn20 Zn3 2.599245 1_555
Zn20 Zn7 2.667647 1_555
Zn20 Zn8 2.863377 1_555
Zn21 Zn5 2.568347 1_565
Zn21 Zn4 2.599245 1_566
Zn21 Zn6 2.667647 1_555
Zn21 Zn9 2.863377 1_555
