# generated using pymatgen
data_TiMnSb
_symmetry_space_group_name_H-M   'P 1'
_cell_length_a   4.57489723
_cell_length_b   4.57489723
_cell_length_c   5.63308000
_cell_angle_alpha   90.00000000
_cell_angle_beta   90.00000000
_cell_angle_gamma   119.99998888
_symmetry_Int_Tables_number   1
_chemical_formula_structural   TiMnSb
_chemical_formula_sum   'Ti2 Mn2 Sb2'
_cell_volume   102.10318385
_cell_formula_units_Z   2
loop_
 _symmetry_equiv_pos_site_id
 _symmetry_equiv_pos_as_xyz
  1  'x, y, z'
loop_
 _atom_site_type_symbol
 _atom_site_label
 _atom_site_symmetry_multiplicity
 _atom_site_fract_x
 _atom_site_fract_y
 _atom_site_fract_z
 _atom_site_occupancy
  Ti  Ti0  1  0.00000000  0.00000000  0.50000000  1
  Ti  Ti1  1  0.00000000  0.00000000  0.00000000  1
  Mn  Mn0  1  0.33333300  0.66666700  0.75000000  1
  Mn  Mn1  1  0.66666700  0.33333300  0.25000000  1
  Sb  Sb0  1  0.33333300  0.66666700  0.25000000  1
  Sb  Sb1  1  0.66666700  0.33333300  0.75000000  1
loop_
_geom_bond_atom_site_label_1
_geom_bond_atom_site_label_2
_geom_bond_distance
_geom_bond_site_symmetry_2
Ti0 Ti1 2.816540 1_555
Ti0 Ti1 2.816540 1_556
Mn0 Sb1 2.641316 1_455
Mn0 Sb1 2.641316 1_565
Mn0 Sb1 2.641323 1_555
Mn0 Sb0 2.816540 1_556
Mn0 Sb0 2.816540 1_555
Mn0 Ti0 2.993288 1_565
Mn0 Ti1 2.993288 1_566
Mn0 Ti0 2.993292 1_555
Mn0 Ti0 2.993292 1_665
Mn0 Ti1 2.993292 1_556
Mn0 Ti1 2.993292 1_666
Mn1 Sb0 2.641316 1_545
Mn1 Sb0 2.641316 1_655
Mn1 Sb0 2.641323 1_555
Mn1 Sb1 2.816540 1_554
Mn1 Sb1 2.816540 1_555
Mn1 Ti0 2.993288 1_655
Mn1 Ti1 2.993288 1_655
Mn1 Ti1 2.993292 1_665
Mn1 Ti0 2.993292 1_555
Mn1 Ti0 2.993292 1_665
Mn1 Ti1 2.993292 1_555
Sb0 Ti0 2.993288 1_565
Sb0 Ti1 2.993288 1_565
Sb0 Ti1 2.993292 1_665
Sb0 Ti0 2.993292 1_555
Sb0 Ti0 2.993292 1_665
Sb0 Ti1 2.993292 1_555
Sb1 Ti1 2.993288 1_656
Sb1 Ti0 2.993288 1_655
Sb1 Ti0 2.993292 1_555
Sb1 Ti0 2.993292 1_665
Sb1 Ti1 2.993292 1_556
Sb1 Ti1 2.993292 1_666
