# generated using pymatgen
data_LiTi(SO4)2
_symmetry_space_group_name_H-M   'P 1'
_cell_length_a   9.17025700
_cell_length_b   9.33986000
_cell_length_c   13.80683630
_cell_angle_alpha   89.58722290
_cell_angle_beta   90.00000000
_cell_angle_gamma   90.00000000
_symmetry_Int_Tables_number   1
_chemical_formula_structural   LiTi(SO4)2
_chemical_formula_sum   'Li8 Ti8 S16 O64'
_cell_volume   1182.50988199
_cell_formula_units_Z   8
loop_
 _symmetry_equiv_pos_site_id
 _symmetry_equiv_pos_as_xyz
  1  'x, y, z'
loop_
 _atom_site_type_symbol
 _atom_site_label
 _atom_site_symmetry_multiplicity
 _atom_site_fract_x
 _atom_site_fract_y
 _atom_site_fract_z
 _atom_site_occupancy
  Li  Li0  1  0.28786900  0.77348000  0.37244000  1
  Li  Li1  1  0.71213100  0.77348000  0.87244000  1
  Li  Li2  1  0.20418700  0.71979800  0.87655100  1
  Li  Li3  1  0.79581300  0.71979800  0.37655100  1
  Li  Li4  1  0.80245200  0.23214500  0.12380600  1
  Li  Li5  1  0.19754800  0.23214500  0.62380600  1
  Li  Li6  1  0.47738200  0.04860300  0.62604200  1
  Li  Li7  1  0.52261800  0.04860300  0.12604200  1
  Ti  Ti0  1  0.14392000  0.85889400  0.12495100  1
  Ti  Ti1  1  0.85608000  0.85889400  0.62495100  1
  Ti  Ti2  1  0.64339400  0.63667700  0.12722200  1
  Ti  Ti3  1  0.35660600  0.63667700  0.62722200  1
  Ti  Ti4  1  0.14501700  0.35858900  0.37279000  1
  Ti  Ti5  1  0.85498300  0.35858900  0.87279000  1
  Ti  Ti6  1  0.64753600  0.14434600  0.37603800  1
  Ti  Ti7  1  0.35246400  0.14434600  0.87603800  1
  S  S0  1  0.18482800  0.92726300  0.72354200  1
  S  S1  1  0.81517200  0.92726300  0.22354200  1
  S  S2  1  0.56047900  0.84314900  0.48967700  1
  S  S3  1  0.43952100  0.84314900  0.98967700  1
  S  S4  1  0.06204800  0.65387000  0.49100700  1
  S  S5  1  0.93795200  0.65387000  0.99100700  1
  S  S6  1  0.31544700  0.57321600  0.21950800  1
  S  S7  1  0.68455300  0.57321600  0.71950800  1
  S  S8  1  0.81967900  0.42689900  0.27732600  1
  S  S9  1  0.18032100  0.42689900  0.77732600  1
  S  S10  1  0.56444500  0.33995800  0.01095800  1
  S  S11  1  0.43555500  0.33995800  0.51095800  1
  S  S12  1  0.06254800  0.15605900  0.00914400  1
  S  S13  1  0.93745200  0.15605900  0.50914400  1
  S  S14  1  0.68116600  0.07503300  0.77792300  1
  S  S15  1  0.31883400  0.07503300  0.27792300  1
  O  O0  1  0.55344700  0.00340100  0.47804500  1
  O  O1  1  0.44655300  0.00340100  0.97804500  1
  O  O2  1  0.26621100  0.97830100  0.35244500  1
  O  O3  1  0.73378900  0.97830100  0.85244500  1
  O  O4  1  0.77709100  0.97439700  0.32412800  1
  O  O5  1  0.22290900  0.97439700  0.82412800  1
  O  O6  1  0.02318000  0.92320300  0.71582200  1
  O  O7  1  0.97682000  0.92320300  0.21582200  1
  O  O8  1  0.52507800  0.81561600  0.08095900  1
  O  O9  1  0.47492200  0.81561600  0.58095900  1
  O  O10  1  0.28378700  0.79936300  0.00828500  1
  O  O11  1  0.71621300  0.79936300  0.50828500  1
  O  O12  1  0.24183500  0.77575900  0.71812500  1
  O  O13  1  0.75816500  0.77575900  0.21812500  1
  O  O14  1  0.50577300  0.76748300  0.40579000  1
  O  O15  1  0.49422700  0.76748300  0.90579000  1
  O  O16  1  0.01208500  0.73395200  0.40592500  1
  O  O17  1  0.98791500  0.73395200  0.90592500  1
  O  O18  1  0.25762900  0.72810800  0.21664800  1
  O  O19  1  0.74237100  0.72810800  0.71664800  1
  O  O20  1  0.21956200  0.69564400  0.51139500  1
  O  O21  1  0.78043800  0.69564400  0.01139500  1
  O  O22  1  0.02259800  0.68809000  0.08012800  1
  O  O23  1  0.97740200  0.68809000  0.58012800  1
  O  O24  1  0.48027300  0.58858300  0.21622400  1
  O  O25  1  0.51972700  0.58858300  0.71622400  1
  O  O26  1  0.71987500  0.52664700  0.82200900  1
  O  O27  1  0.28012500  0.52664700  0.32200900  1
  O  O28  1  0.75907500  0.51925200  0.35057300  1
  O  O29  1  0.24092500  0.51925200  0.85057300  1
  O  O30  1  0.05611400  0.49665800  0.47513400  1
  O  O31  1  0.94388600  0.49665800  0.97513400  1
  O  O32  1  0.55202000  0.49592900  0.02968400  1
  O  O33  1  0.44798000  0.49592900  0.52968400  1
  O  O34  1  0.74191700  0.48418700  0.64523600  1
  O  O35  1  0.25808300  0.48418700  0.14523600  1
  O  O36  1  0.78238800  0.47383600  0.17554400  1
  O  O37  1  0.21761200  0.47383600  0.67554400  1
  O  O38  1  0.98242000  0.41720100  0.28262400  1
  O  O39  1  0.01758000  0.41720100  0.78262400  1
  O  O40  1  0.52301900  0.30903200  0.42260000  1
  O  O41  1  0.47698100  0.30903200  0.92260000  1
  O  O42  1  0.72239200  0.30542900  0.98683700  1
  O  O43  1  0.27760800  0.30542900  0.48683700  1
  O  O44  1  0.76151900  0.27520400  0.28221500  1
  O  O45  1  0.23848100  0.27520400  0.78221500  1
  O  O46  1  0.52750500  0.25265800  0.09519700  1
  O  O47  1  0.47249500  0.25265800  0.59519700  1
  O  O48  1  0.01085500  0.23277200  0.09324800  1
  O  O49  1  0.98914500  0.23277200  0.59324800  1
  O  O50  1  0.74153100  0.22209000  0.78710000  1
  O  O51  1  0.25846900  0.22209000  0.28710000  1
  O  O52  1  0.78305700  0.19529300  0.48430300  1
  O  O53  1  0.21694300  0.19529300  0.98430300  1
  O  O54  1  0.02645000  0.18522500  0.42017900  1
  O  O55  1  0.97355000  0.18522500  0.92017900  1
  O  O56  1  0.51494100  0.08757000  0.77955400  1
  O  O57  1  0.48505900  0.08757000  0.27955400  1
  O  O58  1  0.71223700  0.02240600  0.67702500  1
  O  O59  1  0.28776300  0.02240600  0.17702500  1
  O  O60  1  0.25130400  0.02120300  0.64991700  1
  O  O61  1  0.74869600  0.02120300  0.14991700  1
  O  O62  1  0.05974600  0.99663600  0.02709300  1
  O  O63  1  0.94025400  0.99663600  0.52709300  1
loop_
_geom_bond_atom_site_label_1
_geom_bond_atom_site_label_2
_geom_bond_distance
_geom_bond_site_symmetry_2
Li0 O2 1.941035 1_555
Li0 O14 2.051276 1_555
Li0 O20 2.140449 1_555
Li0 O18 2.212779 1_555
Li0 O27 2.414083 1_555
Li0 O16 2.596820 1_555
Li1 O3 1.941035 1_555
Li1 O15 2.051276 1_555
Li1 O21 2.140449 1_556
Li1 O19 2.212779 1_555
Li1 O26 2.414083 1_555
Li1 O17 2.596820 1_555
Li2 O29 1.939130 1_555
Li2 O17 2.028814 1_455
Li2 O10 2.100639 1_556
Li2 O12 2.271663 1_555
Li2 O5 2.486575 1_555
Li3 O28 1.939130 1_555
Li3 O16 2.028814 1_655
Li3 O11 2.100639 1_555
Li3 O13 2.271663 1_555
Li3 O4 2.486575 1_555
Li4 O48 1.957126 1_655
Li4 O61 2.060171 1_555
Li4 O42 2.136618 1_554
Li4 O44 2.258060 1_555
Li4 O36 2.379714 1_555
Li4 O46 2.559056 1_555
Li5 O49 1.957126 1_455
Li5 O60 2.060171 1_555
Li5 O43 2.136618 1_555
Li5 O45 2.258060 1_555
Li5 O37 2.379714 1_555
Li5 O47 2.559056 1_555
Li6 O47 1.950366 1_555
Li6 O60 2.114490 1_555
Li6 O56 2.180492 1_555
Li6 O0 2.202858 1_555
Li6 O9 2.267760 1_545
Li6 O58 2.278425 1_555
Li7 O46 1.950366 1_555
Li7 O61 2.114490 1_555
Li7 O57 2.180492 1_555
Li7 O1 2.202858 1_554
Li7 O8 2.267760 1_545
Li7 O59 2.278425 1_555
O0 S2 1.505554 1_545
O0 Ti6 2.105765 1_555
O1 S3 1.505554 1_545
O1 Ti7 2.105765 1_555
O2 S15 1.447199 1_565
O3 S14 1.447199 1_565
O4 S1 1.501083 1_555
O4 Ti6 2.112122 1_565
O5 S0 1.501083 1_555
O5 Ti7 2.112122 1_565
O6 S0 1.486684 1_555
O6 Ti1 2.072159 1_455
O7 S1 1.486684 1_555
O7 Ti0 2.072159 1_655
O8 S3 1.505131 1_554
O8 Ti2 2.088766 1_555
O9 S2 1.505131 1_555
O9 Ti3 2.088766 1_555
O10 S3 1.507072 1_554
O10 Ti0 2.135836 1_555
O11 S2 1.507072 1_555
O11 Ti1 2.135836 1_555
O12 S0 1.510862 1_555
O12 Ti3 2.096152 1_555
O13 S1 1.510862 1_555
O13 Ti2 2.096152 1_555
O14 S2 1.450642 1_555
O15 S3 1.450642 1_555
O16 S4 1.461729 1_555
O17 S5 1.461729 1_555
O18 S6 1.541009 1_555
O18 Ti0 2.039611 1_555
O19 S7 1.541009 1_555
O19 Ti1 2.039611 1_555
O20 S4 1.522980 1_555
O20 Ti3 2.104151 1_555
O21 S5 1.522980 1_554
O21 Ti2 2.104151 1_555
O22 S5 1.491450 1_454
O22 Ti0 2.044488 1_555
O23 S4 1.491450 1_655
O23 Ti1 2.044488 1_555
O24 S6 1.518942 1_555
O24 Ti2 1.985311 1_555
O25 S7 1.518942 1_555
O25 Ti3 1.985311 1_555
O26 S7 1.512634 1_555
O26 Ti5 2.115312 1_555
O27 S6 1.512634 1_555
O27 Ti4 2.115312 1_555
O28 S8 1.445059 1_555
O29 S9 1.445059 1_555
O30 S4 1.487160 1_555
O30 Ti4 2.085794 1_555
O31 S5 1.487160 1_555
O31 Ti5 2.085794 1_555
O32 S10 1.485721 1_555
O32 Ti2 2.066225 1_555
O33 S11 1.485721 1_555
O33 Ti3 2.066225 1_555
O34 S7 1.425483 1_555
O35 S6 1.425483 1_555
O36 S8 1.508337 1_555
O36 Ti2 2.090049 1_555
O37 S9 1.508337 1_555
O37 Ti3 2.090049 1_555
O38 S8 1.496879 1_555
O38 Ti4 2.015664 1_655
O39 S9 1.496879 1_555
O39 Ti5 2.015664 1_455
O40 S11 1.489995 1_555
O40 Ti6 2.024167 1_555
O41 S10 1.489995 1_556
O41 Ti7 2.024167 1_555
O42 S10 1.521305 1_556
O42 Ti5 2.047707 1_555
O43 S11 1.521305 1_555
O43 Ti4 2.047707 1_555
O44 S8 1.514920 1_555
O44 Ti6 2.059505 1_555
O45 S9 1.514920 1_555
O45 Ti7 2.059505 1_555
O46 S10 1.455560 1_555
O47 S11 1.455560 1_555
O48 S12 1.448608 1_555
O49 S13 1.448608 1_555
O50 S14 1.487102 1_555
O50 Ti5 2.032043 1_555
O51 S15 1.487102 1_555
O51 Ti4 2.032043 1_555
O52 S13 1.501568 1_555
O52 Ti6 2.003883 1_555
O53 S12 1.501568 1_556
O53 Ti7 2.003883 1_555
O54 S13 1.498080 1_455
O54 Ti4 2.053491 1_555
O55 S12 1.498080 1_656
O55 Ti5 2.053491 1_555
O56 S14 1.528995 1_555
O56 Ti7 2.070251 1_555
O57 S15 1.528995 1_555
O57 Ti6 2.070251 1_555
O58 S14 1.507756 1_555
O58 Ti1 2.145924 1_545
O59 S15 1.507756 1_555
O59 Ti0 2.145924 1_545
O60 S0 1.470340 1_545
O61 S1 1.470340 1_545
O62 S12 1.507927 1_565
O62 Ti0 2.012793 1_555
O63 S13 1.507927 1_565
O63 Ti1 2.012793 1_555
