# generated using pymatgen
data_Sc7V9O24
_symmetry_space_group_name_H-M   'P 1'
_cell_length_a   8.38269800
_cell_length_b   8.40801222
_cell_length_c   8.46754319
_cell_angle_alpha   109.71716634
_cell_angle_beta   109.50327332
_cell_angle_gamma   108.83902812
_symmetry_Int_Tables_number   1
_chemical_formula_structural   Sc7V9O24
_chemical_formula_sum   'Sc7 V9 O24'
_cell_volume   461.39816569
_cell_formula_units_Z   1
loop_
 _symmetry_equiv_pos_site_id
 _symmetry_equiv_pos_as_xyz
  1  'x, y, z'
loop_
 _atom_site_type_symbol
 _atom_site_label
 _atom_site_symmetry_multiplicity
 _atom_site_fract_x
 _atom_site_fract_y
 _atom_site_fract_z
 _atom_site_occupancy
  Sc  Sc0  1  0.78571900  0.53481000  0.75060900  1
  Sc  Sc1  1  0.74742900  0.28792200  0.46148500  1
  Sc  Sc2  1  0.21330600  0.46258000  0.25024500  1
  Sc  Sc3  1  0.71399100  0.96404800  0.25057300  1
  Sc  Sc4  1  0.03940100  0.25169600  0.71372800  1
  Sc  Sc5  1  0.46065900  0.74973900  0.78560100  1
  Sc  Sc6  1  0.75369900  0.78789500  0.96303100  1
  V  V0  1  0.49345500  0.99719900  0.00539300  1
  V  V1  1  0.24931900  0.21127300  0.03682700  1
  V  V2  1  0.96880900  0.75176300  0.28207400  1
  V  V3  1  0.53090400  0.24661300  0.21926200  1
  V  V4  1  0.28737400  0.03734200  0.75145100  1
  V  V5  1  0.99849300  0.50033600  0.00013200  1
  V  V6  1  0.50252800  0.50107200  0.49783200  1
  V  V7  1  0.25077100  0.71832500  0.53411100  1
  V  V8  1  0.00502600  0.99981500  0.49773800  1
  O  O0  1  0.53056300  0.26388700  0.95995800  1
  O  O1  1  0.72282400  0.49455100  0.54388600  1
  O  O2  1  0.27155000  0.23105100  0.27378200  1
  O  O3  1  0.76625900  0.04882400  0.96268500  1
  O  O4  1  0.99606700  0.45813600  0.77717500  1
  O  O5  1  0.48503000  0.27090300  0.45837000  1
  O  O6  1  0.77508300  0.23110200  0.23302400  1
  O  O7  1  0.97146700  0.01216800  0.26392900  1
  O  O8  1  0.26853000  0.26335500  0.77661500  1
  O  O9  1  0.53668700  0.03826600  0.72929100  1
  O  O10  1  0.75671000  0.52721000  0.01773600  1
  O  O11  1  0.04704000  0.76990700  0.48549100  1
  O  O12  1  0.23354300  0.45932900  0.98973000  1
  O  O13  1  0.95413700  0.22522800  0.51127200  1
  O  O14  1  0.45165000  0.96634100  0.27843700  1
  O  O15  1  0.74695900  0.73020100  0.22524300  1
  O  O16  1  0.22359200  0.77477100  0.75931500  1
  O  O17  1  0.04220500  0.99157500  0.73122400  1
  O  O18  1  0.50876300  0.72989700  0.53698100  1
  O  O19  1  0.00854700  0.54735700  0.22221000  1
  O  O20  1  0.73524800  0.77122500  0.71952000  1
  O  O21  1  0.22594400  0.94673300  0.04320400  1
  O  O22  1  0.27700000  0.51489100  0.45539500  1
  O  O23  1  0.46371600  0.73066500  0.04544100  1
loop_
_geom_bond_atom_site_label_1
_geom_bond_atom_site_label_2
_geom_bond_distance
_geom_bond_site_symmetry_2
Sc1 V3 2.061128 1_555
Sc3 V0 2.442527 1_555
Sc5 V7 2.125730 1_555
Sc5 V0 2.131773 1_556
V0 V3 2.099651 1_565
V1 V3 2.202016 1_555
O0 V4 1.928978 1_555
O0 V3 2.247958 1_556
O0 V0 2.341856 1_546
O0 V1 2.592862 1_556
O1 Sc0 1.524889 1_555
O1 Sc1 1.748513 1_555
O1 V6 1.778834 1_555
O1 O5 1.931447 1_555
O1 V3 2.346168 1_555
O2 O5 1.774659 1_555
O2 V1 1.895604 1_555
O2 V6 2.074751 1_555
O2 Sc2 2.208705 1_555
O2 V3 2.341817 1_555
O3 Sc6 2.163246 1_545
O3 V0 2.359206 1_546
O3 Sc5 2.421800 1_545
O4 V5 1.791140 1_556
O4 Sc4 1.828033 1_655
O4 Sc0 2.035317 1_555
O4 Sc1 2.304326 1_555
O5 V6 1.796114 1_555
O5 V3 2.140189 1_555
O5 Sc1 2.148232 1_555
O5 Sc0 2.432807 1_555
O6 Sc1 1.942070 1_555
O6 V3 2.060021 1_555
O6 V0 2.135801 1_545
O6 Sc3 2.204417 1_545
O7 V8 1.948133 1_645
O7 Sc3 2.019185 1_545
O7 Sc6 2.193001 1_544
O7 V2 2.239583 1_545
O8 Sc4 1.772730 1_555
O8 V4 1.903862 1_555
O9 V4 2.157629 1_555
O9 V7 2.429736 1_545
O9 Sc5 2.550215 1_545
O9 V0 2.597303 1_546
O10 V2 2.014722 1_555
O10 V5 2.157763 1_555
O10 Sc0 2.373650 1_554
O10 Sc6 2.394239 1_554
O11 V2 1.556918 1_455
O11 V7 1.844879 1_555
O11 V8 2.049476 1_555
O11 V4 2.194219 1_565
O12 Sc4 2.007649 1_555
O12 V5 2.131445 1_456
O12 Sc2 2.260043 1_556
O12 V1 2.287059 1_556
O13 Sc4 1.523458 1_655
O13 Sc1 1.926178 1_555
O13 V8 2.048270 1_645
O13 Sc3 2.157470 1_545
O14 Sc3 2.294114 1_555
O14 Sc1 2.477359 1_565
O14 V3 2.500721 1_565
O14 V0 2.534278 1_555
O15 V2 1.687828 1_555
O15 Sc3 2.023419 1_555
O16 V7 1.913838 1_555
O16 Sc5 2.012319 1_555
O16 V0 2.108945 1_556
O16 V4 2.127180 1_565
O17 V4 1.900240 1_565
O17 V8 1.924996 1_555
O17 V1 2.196883 1_566
O17 Sc4 2.248425 1_565
O18 V6 1.818625 1_555
O18 O20 1.834777 1_555
O18 O22 1.874216 1_555
O18 V7 2.124761 1_555
O18 Sc5 2.235084 1_555
O18 Sc2 2.405891 1_555
O19 V5 1.752294 1_455
O19 V2 1.793407 1_455
O19 Sc2 2.035398 1_555
O19 V7 2.266474 1_555
O20 Sc6 1.968047 1_555
O20 V6 2.074822 1_555
O20 Sc0 2.240852 1_555
O20 Sc5 2.510706 1_555
O21 V1 2.189808 1_565
O21 V0 2.295158 1_555
O21 V3 2.423064 1_565
O22 Sc2 1.486470 1_555
O22 V7 1.729101 1_555
O22 V6 1.852880 1_555
O23 Sc3 1.969084 1_555
O23 Sc5 2.251751 1_554
O23 V0 2.325455 1_555
O23 Sc6 2.689099 1_554
