# generated using pymatgen
data_La3YSc4O12
_symmetry_space_group_name_H-M   'P 1'
_cell_length_a   8.13544700
_cell_length_b   5.67049500
_cell_length_c   5.83290037
_cell_angle_alpha   89.74587189
_cell_angle_beta   90.00000000
_cell_angle_gamma   90.00000000
_symmetry_Int_Tables_number   1
_chemical_formula_structural   La3YSc4O12
_chemical_formula_sum   'La3 Y1 Sc4 O12'
_cell_volume   269.08078057
_cell_formula_units_Z   1
loop_
 _symmetry_equiv_pos_site_id
 _symmetry_equiv_pos_as_xyz
  1  'x, y, z'
loop_
 _atom_site_type_symbol
 _atom_site_label
 _atom_site_symmetry_multiplicity
 _atom_site_fract_x
 _atom_site_fract_y
 _atom_site_fract_z
 _atom_site_occupancy
  La  La0  1  0.00000000  0.98808600  0.04608100  1
  La  La1  1  0.50000000  0.48809800  0.45418400  1
  La  La2  1  0.50000000  0.01340600  0.95264100  1
  Y  Y0  1  0.00000000  0.51333600  0.55315100  1
  Sc  Sc0  1  0.24748900  0.49893700  0.99955500  1
  Sc  Sc1  1  0.75307500  0.00063500  0.50037300  1
  Sc  Sc2  1  0.75251100  0.49893700  0.99955500  1
  Sc  Sc3  1  0.24692500  0.00063500  0.50037300  1
  O  O0  1  0.00000000  0.39954600  0.94864300  1
  O  O1  1  0.00000000  0.12417700  0.46474700  1
  O  O2  1  0.50000000  0.60239600  0.03623900  1
  O  O3  1  0.50000000  0.89972400  0.53459000  1
  O  O4  1  0.30366300  0.19876300  0.20030400  1
  O  O5  1  0.69730800  0.29837200  0.70230400  1
  O  O6  1  0.80737500  0.79546600  0.79534600  1
  O  O7  1  0.18696300  0.69344200  0.30698000  1
  O  O8  1  0.19262500  0.79546600  0.79534600  1
  O  O9  1  0.81303700  0.69344200  0.30698000  1
  O  O10  1  0.69633700  0.19876300  0.20030400  1
  O  O11  1  0.30269200  0.29837200  0.70230400  1
loop_
_geom_bond_atom_site_label_1
_geom_bond_atom_site_label_2
_geom_bond_distance
_geom_bond_site_symmetry_2
La0 O0 2.398956 1_564
La0 O8 2.408713 1_554
La0 O6 2.408713 1_454
La0 O1 2.564330 1_565
La0 O7 2.719988 1_555
La0 O9 2.719988 1_455
La0 O10 2.889459 1_465
La0 O4 2.889459 1_565
La1 O3 2.382814 1_555
La1 O5 2.411392 1_555
La1 O11 2.411392 1_555
La1 O2 2.519737 1_555
La1 O4 2.730866 1_555
La1 O10 2.730866 1_555
La1 O7 2.927433 1_555
La1 O9 2.927433 1_555
La2 O2 2.378976 1_546
La2 O10 2.399248 1_556
La2 O4 2.399248 1_556
La2 O3 2.524982 1_545
La2 O11 2.701663 1_555
La2 O5 2.701663 1_555
La2 O6 2.938073 1_545
La2 O8 2.938073 1_545
O0 Sc2 2.112162 1_455
O0 Sc0 2.112162 1_555
O0 Y0 2.392648 1_555
O1 Sc1 2.137314 1_455
O1 Sc3 2.137314 1_555
O1 Y0 2.268396 1_555
O2 Sc2 2.147366 1_554
O2 Sc0 2.147366 1_554
O3 Sc3 2.145980 1_565
O3 Sc1 2.145980 1_565
O4 Sc0 2.111766 1_554
O4 Sc3 2.126333 1_555
O5 Sc1 2.112155 1_555
O5 Sc2 2.125753 1_555
O5 Y0 2.880522 1_655
O6 Sc2 2.104181 1_555
O6 Sc1 2.119245 1_565
O6 Y0 2.651595 1_655
O7 Sc3 2.135935 1_565
O7 Sc0 2.166097 1_554
O7 Y0 2.324937 1_555
O8 Sc0 2.104181 1_555
O8 Sc3 2.119245 1_565
O8 Y0 2.651595 1_555
O9 Sc1 2.135935 1_565
O9 Sc2 2.166097 1_554
O9 Y0 2.324937 1_655
O10 Sc2 2.111766 1_554
O10 Sc1 2.126333 1_555
O11 Sc3 2.112155 1_555
O11 Sc0 2.125753 1_555
O11 Y0 2.880522 1_555
