# generated using pymatgen
data_NdIn2Pd
_symmetry_space_group_name_H-M   'P 1'
_cell_length_a   10.97033053
_cell_length_b   10.97032948
_cell_length_c   10.97420588
_cell_angle_alpha   100.28533446
_cell_angle_beta   100.28531400
_cell_angle_gamma   130.00865826
_symmetry_Int_Tables_number   1
_chemical_formula_structural   NdIn2Pd
_chemical_formula_sum   'Nd10 In20 Pd10'
_cell_volume   916.85655670
_cell_formula_units_Z   10
loop_
 _symmetry_equiv_pos_site_id
 _symmetry_equiv_pos_as_xyz
  1  'x, y, z'
loop_
 _atom_site_type_symbol
 _atom_site_label
 _atom_site_symmetry_multiplicity
 _atom_site_fract_x
 _atom_site_fract_y
 _atom_site_fract_z
 _atom_site_occupancy
  Nd  Nd0  1  0.33135510  0.61103877  0.72030156  1
  Nd  Nd1  1  0.89087930  0.61094966  0.27990151  1
  Nd  Nd2  1  0.61094978  0.89087851  0.27990241  1
  Nd  Nd3  1  0.61103858  0.33135448  0.72030083  1
  Nd  Nd4  1  0.32790254  0.92294762  0.00005929  1
  Nd  Nd5  1  0.92294725  0.32790273  0.00006026  1
  Nd  Nd6  1  0.92298433  0.92298415  0.59490820  1
  Nd  Nd7  1  0.32785795  0.32785783  0.40494386  1
  Nd  Nd8  1  0.53634306  0.53634326  0.99983422  1
  Nd  Nd9  1  0.00451587  0.00451601  0.99992952  1
  In  In0  1  0.73436828  0.22677379  0.21145329  1
  In  In1  1  0.01556550  0.52304802  0.78843365  1
  In  In2  1  0.22707224  0.01544444  0.49229060  1
  In  In3  1  0.73451648  0.52320471  0.50772536  1
  In  In4  1  0.52320483  0.73451625  0.50772573  1
  In  In5  1  0.01544486  0.22707262  0.49229092  1
  In  In6  1  0.22677452  0.73436871  0.21145292  1
  In  In7  1  0.52304784  0.01556530  0.78843376  1
  In  In8  1  0.75245981  0.13530029  0.61708966  1
  In  In9  1  0.51829953  0.13550835  0.38281875  1
  In  In10  1  0.13550849  0.51830006  0.38281837  1
  In  In11  1  0.13530028  0.75245951  0.61708941  1
  In  In12  1  0.64584246  0.91291124  1.00007756  1
  In  In13  1  0.91291093  0.64584250  1.00007729  1
  In  In14  1  0.91225839  0.91225835  0.26666993  1
  In  In15  1  0.64589652  0.64589638  0.73311148  1
  In  In16  1  0.11694133  0.28036391  0.83654327  1
  In  In17  1  0.44385565  0.28046945  0.16346470  1
  In  In18  1  0.28046951  0.44385555  0.16346474  1
  In  In19  1  0.28036380  0.11694126  0.83654318  1
  Pd  Pd0  1  0.88314538  0.38320809  0.50000631  1
  Pd  Pd1  1  0.38320875  0.88314543  0.50000584  1
  Pd  Pd2  1  0.62300491  0.30251416  0.00001772  1
  Pd  Pd3  1  0.30251411  0.62300482  0.00001757  1
  Pd  Pd4  1  0.30223010  0.30222988  0.67928201  1
  Pd  Pd5  1  0.62310409  0.62310385  0.32061483  1
  Pd  Pd6  1  0.75284256  0.97073389  0.78220355  1
  Pd  Pd7  1  0.18851391  0.97072878  0.21796630  1
  Pd  Pd8  1  0.97072876  0.18851414  0.21796667  1
  Pd  Pd9  1  0.97073343  0.75284224  0.78220297  1
loop_
_geom_bond_atom_site_label_1
_geom_bond_atom_site_label_2
_geom_bond_distance
_geom_bond_site_symmetry_2
Nd0 Pd4 3.129497 1_555
Nd0 Pd3 3.129934 1_556
Nd0 Pd6 3.445718 1_555
Nd1 Pd5 3.130151 1_555
Nd1 Pd2 3.130352 1_555
Nd1 Pd7 3.446912 1_655
Nd2 Pd5 3.130143 1_555
Nd2 Pd3 3.130360 1_555
Nd2 Pd8 3.446917 1_565
Nd3 Pd4 3.129497 1_555
Nd3 Pd2 3.129942 1_556
Nd3 Pd9 3.445719 1_555
Nd4 Pd3 3.118622 1_555
Nd4 Pd9 3.195455 1_454
Nd4 Pd7 3.196940 1_555
Nd4 Pd2 3.238417 1_565
Nd5 Pd2 3.118614 1_555
Nd5 Pd6 3.195456 1_544
Nd5 Pd8 3.196936 1_555
Nd5 Pd3 3.238424 1_655
Nd6 Pd5 3.117363 1_555
Nd6 Pd9 3.197759 1_555
Nd6 Pd6 3.197764 1_555
Nd6 Pd4 3.235469 1_665
Nd7 Pd4 3.118485 1_555
Nd7 Pd7 3.194523 1_545
Nd7 Pd8 3.194525 1_455
Nd7 Pd5 3.238778 1_555
Nd8 Pd3 3.258972 1_556
Nd8 Pd2 3.258976 1_556
Nd8 Pd4 3.260866 1_555
Nd8 Pd5 3.262911 1_556
Nd9 Pd6 3.079221 1_445
Nd9 Pd9 3.079226 1_445
Nd9 Pd7 3.080776 1_546
Nd9 Pd8 3.080778 1_456
In0 Pd8 2.872032 1_555
In0 Pd0 2.872080 1_555
In0 Pd2 2.923748 1_555
In0 In9 3.061100 1_555
In0 In10 3.151358 1_655
In0 In12 3.197390 1_544
In0 Nd1 3.221655 1_555
In0 Nd5 3.251804 1_555
In0 Nd4 3.287716 1_545
In0 Nd2 3.303389 1_545
In1 Pd0 2.870735 1_455
In1 Pd9 2.871470 1_455
In1 Pd3 2.923270 1_556
In1 In8 3.062635 1_455
In1 In11 3.149024 1_555
In1 In13 3.200754 1_455
In1 Nd0 3.221058 1_555
In1 Nd4 3.251469 1_556
In1 Nd5 3.290955 1_456
In1 Nd3 3.305955 1_455
In2 Pd7 2.869445 1_545
In2 Pd1 2.869869 1_545
In2 Pd4 2.922998 1_555
In2 In9 3.148044 1_555
In2 Nd3 3.222403 1_555
In2 Nd7 3.250656 1_555
In2 Nd6 3.290019 1_445
In2 Nd1 3.304443 1_445
In3 Pd9 2.871169 1_555
In3 Pd0 2.871787 1_555
In3 Pd5 2.922500 1_555
In3 In9 3.062660 1_555
In3 Nd1 3.223004 1_555
In3 Nd6 3.249694 1_555
In3 Nd7 3.288463 1_555
In3 Nd3 3.304948 1_555
In4 Pd6 2.871172 1_555
In4 Pd1 2.871785 1_555
In4 Pd5 2.922503 1_555
In4 In8 3.149044 1_565
In4 Nd2 3.222996 1_555
In4 Nd6 3.249696 1_555
In4 Nd7 3.288461 1_555
In4 Nd0 3.304948 1_555
In5 Pd8 2.869443 1_455
In5 Pd0 2.869863 1_455
In5 Pd4 2.922999 1_555
In5 In8 3.062903 1_455
In5 Nd0 3.222404 1_555
In5 Nd7 3.250657 1_555
In5 Nd6 3.290021 1_445
In5 Nd2 3.304445 1_445
In6 Pd7 2.872035 1_555
In6 Pd1 2.872079 1_555
In6 Pd3 2.923742 1_555
In6 In9 3.151355 1_565
In6 Nd2 3.221653 1_555
In6 Nd4 3.251809 1_555
In6 Nd5 3.287713 1_455
In6 Nd1 3.303384 1_455
In7 Pd1 2.870741 1_545
In7 Pd6 2.871470 1_545
In7 Pd2 2.923270 1_556
In7 In8 3.149026 1_555
In7 Nd3 3.221058 1_555
In7 Nd5 3.251472 1_556
In7 Nd4 3.290945 1_546
In7 Nd0 3.305954 1_545
In8 Pd6 2.778097 1_545
In8 Pd0 2.827547 1_555
In8 Pd1 2.859380 1_545
In8 In9 3.295419 1_555
In8 Nd2 3.513635 1_545
In8 Nd3 3.516218 1_555
In9 Pd7 2.777648 1_545
In9 Pd0 2.826141 1_555
In9 Pd1 2.862041 1_545
In9 Nd2 3.513632 1_545
In9 Nd3 3.517119 1_555
In10 Pd8 2.777647 1_455
In10 Pd1 2.826136 1_555
In10 Pd0 2.862049 1_455
In10 In6 3.061099 1_555
In10 In4 3.062663 1_555
In10 In5 3.148050 1_555
In10 In11 3.295415 1_555
In10 In18 3.365356 1_555
In10 Nd1 3.513621 1_455
In10 Nd0 3.517133 1_555
In11 Pd9 2.778098 1_455
In11 Pd1 2.827554 1_555
In11 Pd0 2.859382 1_455
In11 In7 3.062635 1_565
In11 In2 3.062904 1_565
In11 In3 3.149043 1_455
In11 In19 3.366197 1_565
In11 Nd1 3.513640 1_455
In11 Nd0 3.516223 1_555
In12 Pd8 2.842715 1_566
In12 Pd6 2.843157 1_555
In12 Pd3 2.982764 1_556
In12 Nd0 3.192535 1_555
In12 Nd2 3.193893 1_556
In12 In7 3.200752 1_565
In12 Nd9 3.377992 1_665
In12 Nd8 3.481804 1_555
In12 Nd5 3.488953 1_566
In12 Nd4 3.559656 1_556
In13 Pd7 2.842715 1_656
In13 Pd9 2.843159 1_555
In13 Pd2 2.982765 1_556
In13 Nd3 3.192539 1_555
In13 Nd1 3.193885 1_556
In13 In6 3.197397 1_656
In13 Nd9 3.377991 1_665
In13 Nd8 3.481805 1_555
In13 Nd4 3.488957 1_656
In13 Nd5 3.559656 1_556
In14 Pd7 2.843071 1_655
In14 Pd8 2.843072 1_565
In14 Pd5 2.979618 1_555
In14 Nd2 3.191998 1_555
In14 Nd1 3.192001 1_555
In14 In2 3.202835 1_665
In14 In5 3.202837 1_665
In14 Nd9 3.378815 1_664
In14 Nd8 3.477972 1_554
In14 Nd7 3.493901 1_665
In14 Nd6 3.561276 1_555
In15 Pd9 2.842293 1_555
In15 Pd6 2.842297 1_555
In15 Pd4 2.984931 1_555
In15 Nd0 3.191196 1_555
In15 Nd3 3.191197 1_555
In15 In4 3.197971 1_555
In15 In3 3.197974 1_555
In15 Nd9 3.376471 1_665
In15 Nd8 3.480199 1_555
In15 Nd6 3.491725 1_555
In15 Nd7 3.562272 1_555
In16 Pd3 2.817874 1_556
In16 Pd4 2.818044 1_555
In16 Pd6 2.971296 1_445
In16 Nd6 3.236720 1_445
In16 Nd5 3.236958 1_456
In16 Nd8 3.303289 1_555
In16 In8 3.366195 1_455
In16 Nd9 3.438311 1_555
In16 Nd0 3.474498 1_555
In17 Pd5 2.817782 1_555
In17 Pd2 2.817975 1_555
In17 Pd7 2.972513 1_545
In17 Nd7 3.236544 1_555
In17 Nd4 3.236620 1_545
In17 Nd8 3.304843 1_554
In17 In9 3.365357 1_555
In17 Nd9 3.438772 1_554
In17 Nd1 3.474657 1_555
In18 Pd5 2.817785 1_555
In18 Pd3 2.817977 1_555
In18 Pd8 2.972515 1_455
In18 Nd7 3.236544 1_555
In18 Nd5 3.236623 1_455
In18 Nd8 3.304840 1_554
In18 Nd9 3.438769 1_554
In18 Nd2 3.474651 1_555
In19 Pd2 2.817876 1_556
In19 Pd4 2.818041 1_555
In19 Pd9 2.971297 1_445
In19 Nd6 3.236718 1_445
In19 Nd4 3.236947 1_546
In19 Nd8 3.303291 1_555
In19 Nd9 3.438312 1_555
In19 Nd3 3.474502 1_555
