# generated using pymatgen
data_Sr4V2(Se2O7)3
_symmetry_space_group_name_H-M   'P 1'
_cell_length_a   14.43822714
_cell_length_b   14.27682785
_cell_length_c   9.01079125
_cell_angle_alpha   72.68883178
_cell_angle_beta   70.73984419
_cell_angle_gamma   36.57132403
_symmetry_Int_Tables_number   1
_chemical_formula_structural   Sr4V2(Se2O7)3
_chemical_formula_sum   'Sr8 V4 Se12 O42'
_cell_volume   1042.98744325
_cell_formula_units_Z   2
loop_
 _symmetry_equiv_pos_site_id
 _symmetry_equiv_pos_as_xyz
  1  'x, y, z'
loop_
 _atom_site_type_symbol
 _atom_site_label
 _atom_site_symmetry_multiplicity
 _atom_site_fract_x
 _atom_site_fract_y
 _atom_site_fract_z
 _atom_site_occupancy
  Sr  Sr0  1  0.40818400  0.84941300  0.40464700  1
  Sr  Sr1  1  0.40464700  0.33775600  0.40818400  1
  Sr  Sr2  1  0.40058700  0.84181600  0.91224400  1
  Sr  Sr3  1  0.91224400  0.84535300  0.40058700  1
  Sr  Sr4  1  0.57446300  0.99922300  0.78787500  1
  Sr  Sr5  1  0.78787500  0.63843900  0.57446300  1
  Sr  Sr6  1  0.25077700  0.67553700  0.61156100  1
  Sr  Sr7  1  0.61156100  0.46212500  0.25077700  1
  V  V0  1  0.96154500  0.29996800  0.91065100  1
  V  V1  1  0.91065100  0.82783600  0.96154500  1
  V  V2  1  0.95003200  0.28845500  0.42216400  1
  V  V3  1  0.42216400  0.33934900  0.95003200  1
  Se  Se0  1  0.21142900  0.18748500  0.09461100  1
  Se  Se1  1  0.09461100  0.50647500  0.21142900  1
  Se  Se2  1  0.06251500  0.03857100  0.74352500  1
  Se  Se3  1  0.74352500  0.15538900  0.06251500  1
  Se  Se4  1  0.72816500  0.64792700  0.04634100  1
  Se  Se5  1  0.04634100  0.57756600  0.72816500  1
  Se  Se6  1  0.60207300  0.52183500  0.67243400  1
  Se  Se7  1  0.67243400  0.20365900  0.60207300  1
  Se  Se8  1  0.29125400  0.15855900  0.58440200  1
  Se  Se9  1  0.58440200  0.96578500  0.29125400  1
  Se  Se10  1  0.09144100  0.95874600  0.28421500  1
  Se  Se11  1  0.28421500  0.66559800  0.09144100  1
  O  O0  1  0.95054000  0.38167300  0.72940800  1
  O  O1  1  0.72940800  0.93837900  0.95054000  1
  O  O2  1  0.86832700  0.29946000  0.31162100  1
  O  O3  1  0.31162100  0.52059200  0.86832700  1
  O  O4  1  0.79865300  0.35870600  0.98119400  1
  O  O5  1  0.98119400  0.86144700  0.79865300  1
  O  O6  1  0.89129400  0.45134700  0.38855300  1
  O  O7  1  0.38855300  0.26880600  0.89129400  1
  O  O8  1  0.90318300  0.44592600  0.01708200  1
  O  O9  1  0.01708200  0.63380900  0.90318300  1
  O  O10  1  0.80407400  0.34681700  0.61619100  1
  O  O11  1  0.61619100  0.23291800  0.80407400  1
  O  O12  1  0.16390100  0.14439700  0.99260100  1
  O  O13  1  0.99260100  0.69910200  0.16390100  1
  O  O14  1  0.10560300  0.08609900  0.55089800  1
  O  O15  1  0.55089800  0.25739900  0.10560300  1
  O  O16  1  0.16840300  0.14337000  0.28811000  1
  O  O17  1  0.28811000  0.40011700  0.16840300  1
  O  O18  1  0.10663000  0.08159700  0.84988300  1
  O  O19  1  0.84988300  0.96189000  0.10663000  1
  O  O20  1  0.40905600  0.01806800  0.06031000  1
  O  O21  1  0.06031000  0.51256600  0.40905600  1
  O  O22  1  0.23193200  0.84094400  0.73743400  1
  O  O23  1  0.73743400  0.18969000  0.23193200  1
  O  O24  1  0.34179100  0.22078300  0.62612400  1
  O  O25  1  0.62612400  0.81130100  0.34179100  1
  O  O26  1  0.02921700  0.90820900  0.43869900  1
  O  O27  1  0.43869900  0.62387600  0.02921700  1
  O  O28  1  0.42437200  0.96975700  0.66354000  1
  O  O29  1  0.66354000  0.94233100  0.42437200  1
  O  O30  1  0.28024300  0.82562800  0.30766900  1
  O  O31  1  0.30766900  0.58646000  0.28024300  1
  O  O32  1  0.37051400  0.12948600  0.37051400  1
  O  O33  1  0.12051400  0.87948600  0.12051400  1
  O  O34  1  0.66428500  0.73071200  0.86567800  1
  O  O35  1  0.86567800  0.73932600  0.66428500  1
  O  O36  1  0.51928800  0.58571500  0.51067400  1
  O  O37  1  0.51067400  0.38432200  0.51928800  1
  O  O38  1  0.58736600  0.67093100  0.15140200  1
  O  O39  1  0.15140200  0.59030100  0.58736600  1
  O  O40  1  0.57906900  0.66263400  0.65969900  1
  O  O41  1  0.65969900  0.09859800  0.57906900  1
loop_
_geom_bond_atom_site_label_1
_geom_bond_atom_site_label_2
_geom_bond_distance
_geom_bond_site_symmetry_2
O0 V0 1.671182 1_555
O0 Sr5 2.488341 1_555
O1 V1 1.671182 1_555
O1 Sr4 2.488341 1_555
O2 V2 1.671182 1_555
O2 Sr7 2.488341 1_555
O3 V3 1.671182 1_555
O3 Sr6 2.488341 1_555
O4 V0 1.673815 1_555
O4 Sr7 2.603258 1_556
O5 V1 1.673815 1_555
O5 Sr6 2.603258 1_655
O6 V2 1.673815 1_555
O6 Sr5 2.603258 1_555
O7 V3 1.673815 1_555
O7 Sr4 2.603258 1_545
O8 Se4 1.754860 1_555
O8 V0 1.951373 1_554
O9 Se5 1.754868 1_555
O9 V1 1.951373 1_455
O10 Se6 1.754861 1_555
O10 V2 1.951373 1_555
O11 Se7 1.754859 1_555
O11 V3 1.951373 1_555
O12 Se0 1.767743 1_556
O12 V0 2.009629 1_455
O12 Sr2 2.716805 1_545
O13 Se1 1.767755 1_655
O13 V1 2.009627 1_554
O13 Sr3 2.716796 1_555
O14 Se2 1.767750 1_555
O14 V2 2.009624 1_455
O14 Sr0 2.716802 1_545
O15 Se3 1.767756 1_555
O15 V3 2.009619 1_554
O15 Sr1 2.716804 1_555
O16 Se0 1.755850 1_555
O16 V2 2.043756 1_455
O16 Sr0 2.671963 1_545
O17 Se1 1.755850 1_555
O17 V3 2.043756 1_554
O17 Sr1 2.671963 1_555
O18 Se2 1.755850 1_555
O18 V0 2.043756 1_455
O18 Sr2 2.671963 1_545
O19 Se3 1.755850 1_565
O19 V1 2.043756 1_554
O19 Sr3 2.671963 1_555
O20 Se0 1.692678 1_555
O20 Sr4 2.701008 1_544
O21 Se1 1.692678 1_555
O21 Sr5 2.701008 1_455
O22 Se2 1.692678 1_565
O22 Sr6 2.701008 1_555
O23 Se3 1.692678 1_555
O23 Sr7 2.701008 1_555
O24 Se8 1.698184 1_555
O24 Sr1 2.603064 1_555
O24 Sr4 2.614107 1_545
O25 Se9 1.698198 1_555
O25 Sr0 2.603054 1_555
O25 Sr5 2.614107 1_555
O26 Se10 1.698189 1_555
O26 Sr3 2.603068 1_455
O26 Sr6 2.614102 1_555
O27 Se11 1.698198 1_555
O27 Sr2 2.603055 1_554
O27 Sr7 2.614100 1_555
O28 Se8 1.705018 1_565
O28 Sr2 2.557398 1_555
O28 Sr4 3.078109 1_555
O28 Sr5 3.188830 1_555
O29 Se9 1.705018 1_555
O29 Sr3 2.557398 1_555
O29 Sr5 3.078109 1_555
O29 Sr4 3.188830 1_555
O30 Se10 1.705018 1_555
O30 Sr0 2.557398 1_555
O30 Sr6 3.078109 1_555
O30 Sr7 3.188830 1_555
O31 Se11 1.705018 1_555
O31 Sr1 2.557398 1_555
O31 Sr7 3.078109 1_555
O31 Sr6 3.188830 1_555
O32 Se8 1.858614 1_555
O32 Se9 1.858614 1_545
O33 Se10 1.858614 1_555
O33 Se11 1.858614 1_555
O34 Se4 1.729807 1_556
O34 Sr2 2.613362 1_555
O34 Sr5 2.645323 1_555
O34 Sr4 2.807836 1_555
O35 Se5 1.729808 1_655
O35 Sr3 2.613355 1_555
O35 Sr4 2.645320 1_555
O35 Sr5 2.807849 1_555
O36 Se6 1.729823 1_555
O36 Sr0 2.613361 1_555
O36 Sr7 2.645315 1_555
O36 Sr6 2.807836 1_555
O37 Se7 1.729816 1_555
O37 Sr1 2.613349 1_555
O37 Sr6 2.645323 1_555
O37 Sr7 2.807844 1_555
O38 Se4 1.726184 1_555
O38 Sr7 2.599186 1_555
O38 Sr0 2.714848 1_555
O38 Sr2 2.829469 1_554
O39 Se5 1.726193 1_555
O39 Sr6 2.599186 1_555
O39 Sr1 2.714848 1_555
O39 Sr3 2.829469 1_455
O40 Se6 1.726182 1_555
O40 Sr5 2.599186 1_555
O40 Sr2 2.714848 1_555
O40 Sr0 2.829469 1_555
O41 Se7 1.726197 1_555
O41 Sr4 2.599186 1_545
O41 Sr3 2.714848 1_545
O41 Sr1 2.829469 1_555
