# generated using pymatgen
data_Tm3AlNi8
_symmetry_space_group_name_H-M   'P 1'
_cell_length_a   5.02442415
_cell_length_b   5.02442415
_cell_length_c   15.91786100
_cell_angle_alpha   90.00000000
_cell_angle_beta   90.00000000
_cell_angle_gamma   120.00000201
_symmetry_Int_Tables_number   1
_chemical_formula_structural   Tm3AlNi8
_chemical_formula_sum   'Tm6 Al2 Ni16'
_cell_volume   348.00695231
_cell_formula_units_Z   2
loop_
 _symmetry_equiv_pos_site_id
 _symmetry_equiv_pos_as_xyz
  1  'x, y, z'
loop_
 _atom_site_type_symbol
 _atom_site_label
 _atom_site_symmetry_multiplicity
 _atom_site_fract_x
 _atom_site_fract_y
 _atom_site_fract_z
 _atom_site_occupancy
  Tm  Tm0  1  0.33333300  0.66666700  0.95556400  1
  Tm  Tm1  1  0.66666700  0.33333300  0.04443600  1
  Tm  Tm2  1  0.66666700  0.33333300  0.45556400  1
  Tm  Tm3  1  0.33333300  0.66666700  0.54443600  1
  Tm  Tm4  1  0.33333300  0.66666700  0.75000000  1
  Tm  Tm5  1  0.66666700  0.33333300  0.25000000  1
  Al  Al0  1  0.00000000  0.00000000  0.50000000  1
  Al  Al1  1  0.00000000  0.00000000  0.00000000  1
  Ni  Ni0  1  0.16918700  0.83081300  0.37509800  1
  Ni  Ni1  1  0.16918700  0.33837400  0.37509800  1
  Ni  Ni2  1  0.66162600  0.83081300  0.37509800  1
  Ni  Ni3  1  0.83081300  0.16918700  0.62490200  1
  Ni  Ni4  1  0.83081300  0.66162600  0.62490200  1
  Ni  Ni5  1  0.33837400  0.16918700  0.62490200  1
  Ni  Ni6  1  0.83081300  0.16918700  0.87509800  1
  Ni  Ni7  1  0.83081300  0.66162600  0.87509800  1
  Ni  Ni8  1  0.33837400  0.16918700  0.87509800  1
  Ni  Ni9  1  0.16918700  0.83081300  0.12490200  1
  Ni  Ni10  1  0.16918700  0.33837400  0.12490200  1
  Ni  Ni11  1  0.66162600  0.83081300  0.12490200  1
  Ni  Ni12  1  0.33333300  0.66666700  0.25000000  1
  Ni  Ni13  1  0.66666700  0.33333300  0.75000000  1
  Ni  Ni14  1  0.00000000  0.00000000  0.25000000  1
  Ni  Ni15  1  0.00000000  0.00000000  0.75000000  1
loop_
_geom_bond_atom_site_label_1
_geom_bond_atom_site_label_2
_geom_bond_distance
_geom_bond_site_symmetry_2
Al0 Ni4 2.473999 1_445
Al0 Ni5 2.473999 1_555
Al0 Ni1 2.473999 1_555
Al0 Ni2 2.473999 1_445
Al0 Ni3 2.474000 1_455
Al0 Ni0 2.474000 1_545
Al0 Tm2 2.985840 1_455
Al0 Tm3 2.985840 1_545
Al0 Tm3 2.985844 1_445
Al0 Tm3 2.985844 1_555
Al0 Tm2 2.985844 1_445
Al0 Tm2 2.985844 1_555
Al1 Ni7 2.473999 1_444
Al1 Ni8 2.473999 1_554
Al1 Ni10 2.473999 1_555
Al1 Ni11 2.473999 1_445
Al1 Ni6 2.474000 1_454
Al1 Ni9 2.474000 1_545
Al1 Tm1 2.985840 1_455
Al1 Tm0 2.985840 1_544
Al1 Tm0 2.985844 1_444
Al1 Tm1 2.985844 1_555
Al1 Tm1 2.985844 1_445
Al1 Tm0 2.985844 1_554
Ni0 Ni12 2.450680 1_555
Ni0 Ni1 2.474222 1_555
Ni0 Ni2 2.474222 1_555
Ni0 Ni14 2.476507 1_565
Ni0 Ni1 2.550202 1_565
Ni0 Ni2 2.550202 1_455
Ni0 Tm2 2.819975 1_455
Ni0 Tm2 2.819975 1_565
Ni0 Tm3 3.050622 1_555
Ni0 Tm5 3.205766 1_455
Ni0 Tm5 3.205766 1_565
Ni1 Ni12 2.450682 1_555
Ni1 Ni2 2.474222 1_555
Ni1 Ni14 2.476507 1_555
Ni1 Ni2 2.550202 1_445
Ni1 Tm2 2.819973 1_455
Ni1 Tm2 2.819977 1_555
Ni1 Tm3 3.050624 1_555
Ni1 Tm5 3.205764 1_455
Ni1 Tm5 3.205768 1_555
Ni2 Tm2 2.819973 1_565
Ni2 Tm2 2.819977 1_555
Ni2 Tm3 3.050624 1_555
Ni2 Tm5 3.205764 1_565
Ni2 Tm5 3.205768 1_555
Ni3 Ni5 2.474222 1_555
Ni3 Ni4 2.474222 1_555
Ni3 Ni4 2.550202 1_545
Ni3 Ni5 2.550202 1_655
Ni3 Tm3 2.819975 1_545
Ni3 Tm3 2.819975 1_655
Ni3 Tm2 3.050622 1_555
Ni3 Tm4 3.205766 1_545
Ni3 Tm4 3.205766 1_655
Ni4 Ni5 2.474222 1_555
Ni4 Ni5 2.550202 1_665
Ni4 Tm3 2.819973 1_655
Ni4 Tm3 2.819977 1_555
Ni4 Tm2 3.050624 1_555
Ni4 Tm4 3.205764 1_655
Ni4 Tm4 3.205768 1_555
Ni5 Tm3 2.819973 1_545
Ni5 Tm3 2.819977 1_555
Ni5 Tm2 3.050624 1_555
Ni5 Tm4 3.205764 1_545
Ni5 Tm4 3.205768 1_555
Ni6 Ni8 2.474222 1_555
Ni6 Ni7 2.474222 1_555
Ni6 Ni7 2.550202 1_545
Ni6 Ni8 2.550202 1_655
Ni6 Tm0 2.819975 1_545
Ni6 Tm0 2.819975 1_655
Ni6 Tm1 3.050622 1_556
Ni6 Tm4 3.205766 1_545
Ni6 Tm4 3.205766 1_655
Ni7 Ni8 2.474222 1_555
Ni7 Ni8 2.550202 1_665
Ni7 Tm0 2.819973 1_655
Ni7 Tm0 2.819977 1_555
Ni7 Tm1 3.050624 1_556
Ni7 Tm4 3.205764 1_655
Ni7 Tm4 3.205768 1_555
Ni8 Tm0 2.819973 1_545
Ni8 Tm0 2.819977 1_555
Ni8 Tm1 3.050624 1_556
Ni8 Tm4 3.205764 1_545
Ni8 Tm4 3.205768 1_555
Ni9 Tm1 2.819975 1_455
Ni9 Tm1 2.819975 1_565
Ni9 Tm0 3.050622 1_554
Ni9 Tm5 3.205766 1_455
Ni9 Tm5 3.205766 1_565
Ni10 Ni12 2.450682 1_555
Ni10 Ni11 2.474222 1_555
Ni10 Ni9 2.474222 1_555
Ni10 Ni14 2.476507 1_555
Ni10 Ni11 2.550202 1_445
Ni10 Ni9 2.550202 1_545
Ni10 Tm1 2.819973 1_455
Ni10 Tm1 2.819977 1_555
Ni10 Tm0 3.050624 1_554
Ni10 Tm5 3.205764 1_455
Ni10 Tm5 3.205768 1_555
Ni11 Ni12 2.450682 1_555
Ni11 Ni9 2.474222 1_555
Ni11 Ni14 2.476507 1_665
Ni11 Ni9 2.550202 1_655
Ni11 Tm1 2.819973 1_565
Ni11 Tm1 2.819977 1_555
Ni11 Tm0 3.050624 1_554
Ni11 Tm5 3.205764 1_565
Ni11 Tm5 3.205768 1_555
Ni12 Ni9 2.450680 1_555
Ni12 Ni2 2.450682 1_555
Ni12 Tm5 2.900850 1_455
Ni12 Tm5 2.900850 1_565
Ni12 Tm5 2.900858 1_555
Ni13 Ni3 2.450680 1_555
Ni13 Ni6 2.450680 1_555
Ni13 Ni8 2.450682 1_555
Ni13 Ni5 2.450682 1_555
Ni13 Ni7 2.450682 1_555
Ni13 Ni4 2.450682 1_555
Ni13 Tm4 2.900850 1_545
Ni13 Tm4 2.900850 1_655
Ni13 Tm4 2.900858 1_555
Ni14 Ni2 2.476507 1_445
Ni14 Ni9 2.476507 1_545
Ni14 Tm5 2.900850 1_455
Ni14 Tm5 2.900854 1_445
Ni14 Tm5 2.900854 1_555
Ni15 Ni4 2.476507 1_445
Ni15 Ni7 2.476507 1_445
Ni15 Ni8 2.476507 1_555
Ni15 Ni5 2.476507 1_555
Ni15 Ni3 2.476507 1_455
Ni15 Ni6 2.476507 1_455
Ni15 Tm4 2.900850 1_545
Ni15 Tm4 2.900854 1_555
Ni15 Tm4 2.900854 1_445
