# generated using pymatgen
data_Pr3AlFeS7
_symmetry_space_group_name_H-M   'P 1'
_cell_length_a   10.11714561
_cell_length_b   10.11714561
_cell_length_c   5.99414700
_cell_angle_alpha   90.00000000
_cell_angle_beta   90.00000000
_cell_angle_gamma   119.99999745
_symmetry_Int_Tables_number   1
_chemical_formula_structural   Pr3AlFeS7
_chemical_formula_sum   'Pr6 Al2 Fe2 S14'
_cell_volume   531.34186206
_cell_formula_units_Z   2
loop_
 _symmetry_equiv_pos_site_id
 _symmetry_equiv_pos_as_xyz
  1  'x, y, z'
loop_
 _atom_site_type_symbol
 _atom_site_label
 _atom_site_symmetry_multiplicity
 _atom_site_fract_x
 _atom_site_fract_y
 _atom_site_fract_z
 _atom_site_occupancy
  Pr  Pr0  1  0.76886200  0.14120200  0.24379500  1
  Pr  Pr1  1  0.37234000  0.23113800  0.24379500  1
  Pr  Pr2  1  0.85879800  0.62766000  0.24379500  1
  Pr  Pr3  1  0.23113800  0.85879800  0.74379500  1
  Pr  Pr4  1  0.62766000  0.76886200  0.74379500  1
  Pr  Pr5  1  0.14120200  0.37234000  0.74379500  1
  Al  Al0  1  0.66666700  0.33333300  0.66352000  1
  Al  Al1  1  0.33333300  0.66666700  0.16352000  1
  Fe  Fe0  1  0.00000000  0.00000000  0.02325500  1
  Fe  Fe1  1  0.00000000  0.00000000  0.52325500  1
  S  S0  1  0.85739300  0.08923900  0.78643500  1
  S  S1  1  0.23184500  0.14260700  0.78643500  1
  S  S2  1  0.91076100  0.76815500  0.78643500  1
  S  S3  1  0.14260700  0.91076100  0.28643500  1
  S  S4  1  0.76815500  0.85739300  0.28643500  1
  S  S5  1  0.08923900  0.23184500  0.28643500  1
  S  S6  1  0.90123100  0.41961300  0.51794100  1
  S  S7  1  0.51838200  0.09876900  0.51794100  1
  S  S8  1  0.58038700  0.48161800  0.51794100  1
  S  S9  1  0.09876900  0.58038700  0.01794100  1
  S  S10  1  0.48161800  0.90123100  0.01794100  1
  S  S11  1  0.41961300  0.51838200  0.01794100  1
  S  S12  1  0.66666700  0.33333300  0.03342000  1
  S  S13  1  0.33333300  0.66666700  0.53342000  1
loop_
_geom_bond_atom_site_label_1
_geom_bond_atom_site_label_2
_geom_bond_distance
_geom_bond_site_symmetry_2
Pr0 S7 2.866812 1_555
Pr0 S4 2.879135 1_545
Pr0 S5 2.905152 1_655
Pr0 S12 2.906431 1_555
Pr0 S6 2.942036 1_555
Pr0 S0 3.010852 1_554
Pr0 S10 3.019435 1_545
Pr0 S0 3.482717 1_555
Pr1 S8 2.866812 1_555
Pr1 S5 2.879124 1_555
Pr1 S3 2.905149 1_545
Pr1 S12 2.906440 1_555
Pr1 S7 2.942036 1_555
Pr1 S1 3.010855 1_554
Pr1 S11 3.019435 1_555
Pr1 S1 3.482720 1_555
Pr2 S6 2.866812 1_555
Pr2 S3 2.879130 1_655
Pr2 S4 2.905142 1_555
Pr2 S12 2.906438 1_555
Pr2 S8 2.942036 1_555
Pr2 S2 3.010856 1_554
Pr2 S9 3.019435 1_655
Pr2 S2 3.482721 1_555
Pr3 S10 2.866812 1_556
Pr3 S1 2.879135 1_565
Pr3 S2 2.905152 1_455
Pr3 S13 2.906431 1_555
Pr3 S9 2.942036 1_556
Pr3 S3 3.010852 1_555
Pr3 S7 3.019435 1_565
Pr3 S3 3.482717 1_556
Pr4 S11 2.866812 1_556
Pr4 S2 2.879124 1_555
Pr4 S0 2.905149 1_565
Pr4 S13 2.906440 1_555
Pr4 S10 2.942036 1_556
Pr4 S4 3.010855 1_555
Pr4 S8 3.019435 1_555
Pr4 S4 3.482720 1_556
Pr5 S9 2.866812 1_556
Pr5 S0 2.879130 1_455
Pr5 S1 2.905142 1_555
Pr5 S13 2.906438 1_555
Pr5 S11 2.942036 1_556
Pr5 S5 3.010856 1_555
Pr5 S6 3.019435 1_455
Pr5 S5 3.482721 1_556
Al0 S12 2.217235 1_556
Al0 S6 2.254687 1_555
Al0 S7 2.254689 1_555
Al0 S8 2.254696 1_555
Al1 S13 2.217235 1_555
Al1 S9 2.254687 1_555
Al1 S10 2.254689 1_555
Al1 S11 2.254696 1_555
Fe0 S2 2.492864 1_444
Fe0 S1 2.492865 1_554
Fe0 S0 2.492871 1_454
Fe0 S5 2.586102 1_555
Fe0 S4 2.586103 1_445
Fe0 S3 2.586109 1_545
Fe1 S5 2.492864 1_555
Fe1 S4 2.492865 1_445
Fe1 S3 2.492871 1_545
Fe1 S2 2.586102 1_445
Fe1 S1 2.586103 1_555
Fe1 S0 2.586109 1_455
