# generated using pymatgen
data_Mg3Bi
_symmetry_space_group_name_H-M   'P 1'
_cell_length_a   5.77779764
_cell_length_b   5.77779764
_cell_length_c   5.77779764
_cell_angle_alpha   134.51448286
_cell_angle_beta   134.51448286
_cell_angle_gamma   66.28552675
_symmetry_Int_Tables_number   1
_chemical_formula_structural   Mg3Bi
_chemical_formula_sum   'Mg3 Bi1'
_cell_volume   96.54834713
_cell_formula_units_Z   1
loop_
 _symmetry_equiv_pos_site_id
 _symmetry_equiv_pos_as_xyz
  1  'x, y, z'
loop_
 _atom_site_type_symbol
 _atom_site_label
 _atom_site_symmetry_multiplicity
 _atom_site_fract_x
 _atom_site_fract_y
 _atom_site_fract_z
 _atom_site_occupancy
  Mg  Mg0  1  0.50000000  0.50000000  0.00000000  1
  Mg  Mg1  1  0.25000000  0.75000000  0.50000000  1
  Mg  Mg2  1  0.75000000  0.25000000  0.50000000  1
  Bi  Bi0  1  0.00000000  -0.00000000  0.00000000  1
loop_
_geom_bond_atom_site_label_1
_geom_bond_atom_site_label_2
_geom_bond_distance
_geom_bond_site_symmetry_2
Mg0 Mg1 3.292471 1_555
Mg0 Mg2 3.292471 1_555
Mg0 Mg2 3.292471 1_565
Mg0 Mg1 3.292471 1_554
Mg0 Mg2 3.292471 1_554
Mg0 Mg1 3.292471 1_544
Mg0 Mg2 3.292471 1_454
Mg0 Mg1 3.292471 1_655
Mg1 Mg2 3.158878 1_566
Mg1 Mg2 3.158878 1_465
Mg1 Mg2 3.158878 1_454
Mg1 Mg2 3.158878 1_555
Bi0 Mg0 3.158878 1_444
Bi0 Mg0 3.158878 1_455
Bi0 Mg0 3.158878 1_556
Bi0 Mg0 3.158878 1_545
Bi0 Mg1 3.292471 1_555
Bi0 Mg2 3.292471 1_454
Bi0 Mg2 3.292471 1_444
Bi0 Mg1 3.292471 1_544
Bi0 Mg2 3.292471 1_455
Bi0 Mg1 3.292471 1_545
Bi0 Mg1 3.292471 1_444
Bi0 Mg2 3.292471 1_555
