# generated using pymatgen
data_Li7Mn2(CoO4)3
_symmetry_space_group_name_H-M   'P 1'
_cell_length_a   2.90749700
_cell_length_b   5.11472500
_cell_length_c   14.47682680
_cell_angle_alpha   89.48193031
_cell_angle_beta   90.00000000
_cell_angle_gamma   90.00000000
_symmetry_Int_Tables_number   1
_chemical_formula_structural   Li7Mn2(CoO4)3
_chemical_formula_sum   'Li7 Mn2 Co3 O12'
_cell_volume   215.27677966
_cell_formula_units_Z   1
loop_
 _symmetry_equiv_pos_site_id
 _symmetry_equiv_pos_as_xyz
  1  'x, y, z'
loop_
 _atom_site_type_symbol
 _atom_site_label
 _atom_site_symmetry_multiplicity
 _atom_site_fract_x
 _atom_site_fract_y
 _atom_site_fract_z
 _atom_site_occupancy
  Li  Li0  1  0.00000000  0.64840200  0.16544500  1
  Li  Li1  1  0.50000000  0.83385700  0.32986300  1
  Li  Li2  1  0.00000000  0.00307600  0.48981500  1
  Li  Li3  1  0.50000000  0.16650500  0.66554500  1
  Li  Li4  1  0.00000000  0.33841500  0.84190200  1
  Li  Li5  1  0.50000000  0.49613900  0.00825900  1
  Li  Li6  1  0.50000000  0.17884600  0.16574700  1
  Mn  Mn0  1  0.00000000  0.01534400  0.00610400  1
  Mn  Mn1  1  0.00000000  0.66604600  0.66637900  1
  Co  Co0  1  0.00000000  0.31737300  0.32613700  1
  Co  Co1  1  0.50000000  0.49296600  0.49603200  1
  Co  Co2  1  0.50000000  0.83508800  0.83581800  1
  O  O0  1  0.00000000  0.03784100  0.25974500  1
  O  O1  1  0.50000000  0.16780800  0.41295900  1
  O  O2  1  0.00000000  0.36727000  0.58378100  1
  O  O3  1  0.50000000  0.50939800  0.73924700  1
  O  O4  1  0.00000000  0.70203700  0.91631100  1
  O  O5  1  0.50000000  0.85320800  0.07465000  1
  O  O6  1  0.00000000  0.30976500  0.07753000  1
  O  O7  1  0.50000000  0.49483700  0.25687300  1
  O  O8  1  0.00000000  0.61906800  0.41393900  1
  O  O9  1  0.50000000  0.82042700  0.59315900  1
  O  O10  1  0.00000000  0.96753300  0.74896800  1
  O  O11  1  0.50000000  0.15875100  0.92579000  1
loop_
_geom_bond_atom_site_label_1
_geom_bond_atom_site_label_2
_geom_bond_distance
_geom_bond_site_symmetry_2
Li0 O7 2.112673 1_455
Li0 O7 2.112673 1_555
Li0 O6 2.158623 1_555
Li0 O5 2.216643 1_555
Li0 O5 2.216643 1_455
Li0 O0 2.424955 1_565
Li1 O7 2.038727 1_555
Li1 O0 2.052597 1_665
Li1 O0 2.052597 1_565
Li1 O1 2.098042 1_565
Li1 O8 2.185763 1_555
Li1 O8 2.185763 1_655
Li2 O1 2.011041 1_555
Li2 O1 2.011041 1_455
Li2 O8 2.259040 1_545
Li2 O9 2.280161 1_445
Li2 O9 2.280161 1_545
Li2 O2 2.316499 1_555
Li3 O3 2.061090 1_555
Li3 O9 2.065166 1_545
Li3 O2 2.132357 1_555
Li3 O2 2.132357 1_655
Li3 O10 2.141351 1_545
Li3 O10 2.141351 1_645
Li4 O11 2.100592 1_555
Li4 O11 2.100592 1_455
Li4 O4 2.157674 1_555
Li4 O3 2.250163 1_555
Li4 O3 2.250163 1_455
Li4 O10 2.335526 1_545
Li5 O6 2.002609 1_555
Li5 O6 2.002609 1_655
Li5 O5 2.071454 1_555
Li5 O11 2.107246 1_554
Li5 O4 2.229113 1_554
Li5 O4 2.229113 1_654
Li6 O6 2.043843 1_655
Li6 O6 2.043843 1_555
Li6 O7 2.095474 1_555
Li6 O0 2.113652 1_555
Li6 O0 2.113652 1_655
Li6 O5 2.133775 1_545
Mn0 O6 1.834405 1_555
Mn0 O5 1.941887 1_445
Mn0 O5 1.941887 1_545
Mn0 O11 1.996952 1_454
Mn0 O11 1.996952 1_554
Mn0 O4 2.072534 1_544
Mn1 O2 1.948883 1_555
Mn1 O10 1.959770 1_555
Mn1 O9 1.960951 1_455
Mn1 O9 1.960951 1_555
Mn1 O3 1.962867 1_555
Mn1 O3 1.962867 1_455
Co0 O0 1.729964 1_555
Co0 O7 1.981480 1_555
Co0 O7 1.981480 1_455
Co0 O8 2.008051 1_555
Co0 O1 2.064222 1_455
Co0 O1 2.064222 1_555
Co1 O8 1.981899 1_555
Co1 O8 1.981899 1_655
Co1 O2 2.031174 1_555
Co1 O2 2.031174 1_655
Co1 O1 2.061159 1_555
Co1 O9 2.196561 1_555
Co2 O4 1.979908 1_555
Co2 O4 1.979908 1_655
Co2 O10 2.034137 1_555
Co2 O10 2.034137 1_655
Co2 O11 2.115663 1_565
Co2 O3 2.184393 1_555
