# generated using pymatgen
data_TaCr3(CuS4)2
_symmetry_space_group_name_H-M   'P 1'
_cell_length_a   5.72567800
_cell_length_b   7.07961500
_cell_length_c   12.07360600
_cell_angle_alpha   90.00000000
_cell_angle_beta   90.00000000
_cell_angle_gamma   90.00000000
_symmetry_Int_Tables_number   1
_chemical_formula_structural   TaCr3(CuS4)2
_chemical_formula_sum   'Ta2 Cr6 Cu4 S16'
_cell_volume   489.41081332
_cell_formula_units_Z   2
loop_
 _symmetry_equiv_pos_site_id
 _symmetry_equiv_pos_as_xyz
  1  'x, y, z'
loop_
 _atom_site_type_symbol
 _atom_site_label
 _atom_site_symmetry_multiplicity
 _atom_site_fract_x
 _atom_site_fract_y
 _atom_site_fract_z
 _atom_site_occupancy
  Ta  Ta0  1  0.76942300  0.50000000  0.75145800  1
  Ta  Ta1  1  0.23057700  0.50000000  0.25145800  1
  Cr  Cr0  1  0.25332400  0.75322600  0.00125000  1
  Cr  Cr1  1  0.74667600  0.75322600  0.50125000  1
  Cr  Cr2  1  0.74667600  0.24677400  0.50125000  1
  Cr  Cr3  1  0.25332400  0.24677400  0.00125000  1
  Cr  Cr4  1  0.73184500  0.00000000  0.24686800  1
  Cr  Cr5  1  0.26815500  0.00000000  0.74686800  1
  Cu  Cu0  1  0.86000900  0.50000000  0.09365300  1
  Cu  Cu1  1  0.65549900  0.00000000  0.91142900  1
  Cu  Cu2  1  0.34450100  0.00000000  0.41142900  1
  Cu  Cu3  1  0.13999100  0.50000000  0.59365300  1
  S  S0  1  0.01287400  0.76156200  0.16967600  1
  S  S1  1  0.48287600  0.74315400  0.83184700  1
  S  S2  1  0.51712400  0.74315400  0.33184700  1
  S  S3  1  0.98712600  0.76156200  0.66967600  1
  S  S4  1  0.98712600  0.23843800  0.66967600  1
  S  S5  1  0.51712400  0.25684600  0.33184700  1
  S  S6  1  0.48287600  0.25684600  0.83184700  1
  S  S7  1  0.01287400  0.23843800  0.16967600  1
  S  S8  1  0.48994300  0.00000000  0.08140900  1
  S  S9  1  0.01145600  0.50000000  0.91425500  1
  S  S10  1  0.98854400  0.50000000  0.41425500  1
  S  S11  1  0.51005700  0.00000000  0.58140900  1
  S  S12  1  0.47112700  0.50000000  0.08128500  1
  S  S13  1  0.04602200  0.00000000  0.91409800  1
  S  S14  1  0.95397800  0.00000000  0.41409800  1
  S  S15  1  0.52887300  0.50000000  0.58128500  1
loop_
_geom_bond_atom_site_label_1
_geom_bond_atom_site_label_2
_geom_bond_distance
_geom_bond_site_symmetry_2
Cr0 S13 2.359720 1_564
Cr0 S12 2.388067 1_555
Cr0 S8 2.413376 1_565
Cr0 S1 2.432252 1_554
Cr0 S0 2.456431 1_555
Cr0 S9 2.496994 1_554
Cr1 S14 2.359720 1_565
Cr1 S15 2.388067 1_555
Cr1 S11 2.413376 1_565
Cr1 S2 2.432252 1_555
Cr1 S3 2.456431 1_555
Cr1 S10 2.496994 1_555
Cr2 S14 2.359720 1_555
Cr2 S15 2.388067 1_555
Cr2 S11 2.413376 1_555
Cr2 S5 2.432252 1_555
Cr2 S4 2.456431 1_555
Cr2 S10 2.496994 1_555
Cr3 S13 2.359720 1_554
Cr3 S12 2.388067 1_555
Cr3 S8 2.413376 1_555
Cr3 S6 2.432252 1_554
Cr3 S7 2.456431 1_555
Cr3 S9 2.496994 1_554
Cr4 S14 2.386268 1_555
Cr4 S5 2.422940 1_555
Cr4 S2 2.422940 1_545
Cr4 S8 2.430869 1_555
Cr4 S7 2.511424 1_655
Cr4 S0 2.511424 1_645
Cr5 S13 2.386268 1_555
Cr5 S1 2.422940 1_545
Cr5 S6 2.422940 1_555
Cr5 S11 2.430869 1_555
Cr5 S4 2.511424 1_455
Cr5 S3 2.511424 1_445
Cu0 S12 2.231615 1_555
Cu0 S0 2.244453 1_655
Cu0 S7 2.244453 1_655
Cu0 S9 2.333109 1_654
Cu1 S13 2.236241 1_655
Cu1 S8 2.260613 1_556
Cu1 S1 2.281796 1_545
Cu1 S6 2.281796 1_555
Cu2 S14 2.236241 1_455
Cu2 S11 2.260613 1_555
Cu2 S2 2.281796 1_545
Cu2 S5 2.281796 1_555
Cu3 S15 2.231615 1_555
Cu3 S4 2.244453 1_455
Cu3 S3 2.244453 1_455
Cu3 S10 2.333109 1_455
S0 Ta1 2.440846 1_555
S1 Ta0 2.568501 1_555
S2 Ta1 2.568501 1_555
S3 Ta0 2.440846 1_555
S4 Ta0 2.440846 1_555
S5 Ta1 2.568501 1_555
S6 Ta0 2.568501 1_555
S7 Ta1 2.440846 1_555
S9 Ta0 2.404958 1_455
S10 Ta1 2.404958 1_655
S12 Ta1 2.473535 1_555
S15 Ta0 2.473535 1_555
