# generated using pymatgen
data_Sm4FeS7
_symmetry_space_group_name_H-M   'P 1'
_cell_length_a   9.70238485
_cell_length_b   9.70238485
_cell_length_c   6.83710100
_cell_angle_alpha   90.00000000
_cell_angle_beta   90.00000000
_cell_angle_gamma   120.00000578
_symmetry_Int_Tables_number   1
_chemical_formula_structural   Sm4FeS7
_chemical_formula_sum   'Sm8 Fe2 S14'
_cell_volume   557.39054301
_cell_formula_units_Z   2
loop_
 _symmetry_equiv_pos_site_id
 _symmetry_equiv_pos_as_xyz
  1  'x, y, z'
loop_
 _atom_site_type_symbol
 _atom_site_label
 _atom_site_symmetry_multiplicity
 _atom_site_fract_x
 _atom_site_fract_y
 _atom_site_fract_z
 _atom_site_occupancy
  Sm  Sm0  1  0.77684700  0.15148700  0.72396400  1
  Sm  Sm1  1  0.37464000  0.22315300  0.72396400  1
  Sm  Sm2  1  0.84851300  0.62536000  0.72396400  1
  Sm  Sm3  1  0.22315300  0.84851300  0.22396400  1
  Sm  Sm4  1  0.62536000  0.77684700  0.22396400  1
  Sm  Sm5  1  0.15148700  0.37464000  0.22396400  1
  Sm  Sm6  1  0.66666700  0.33333300  0.17584800  1
  Sm  Sm7  1  0.33333300  0.66666700  0.67584800  1
  Fe  Fe0  1  0.00000000  0.00000000  0.55885600  1
  Fe  Fe1  1  0.00000000  0.00000000  0.05885600  1
  S  S0  1  0.86888700  0.09906600  0.32941300  1
  S  S1  1  0.23017900  0.13111300  0.32941300  1
  S  S2  1  0.90093400  0.76982100  0.32941300  1
  S  S3  1  0.13111300  0.90093400  0.82941300  1
  S  S4  1  0.76982100  0.86888700  0.82941300  1
  S  S5  1  0.09906600  0.23017900  0.82941300  1
  S  S6  1  0.92824000  0.43691800  0.95886800  1
  S  S7  1  0.50867800  0.07176000  0.95886800  1
  S  S8  1  0.56308200  0.49132200  0.95886800  1
  S  S9  1  0.07176000  0.56308200  0.45886800  1
  S  S10  1  0.49132200  0.92824000  0.45886800  1
  S  S11  1  0.43691800  0.50867800  0.45886800  1
  S  S12  1  0.66666700  0.33333300  0.56141200  1
  S  S13  1  0.33333300  0.66666700  0.06141200  1
loop_
_geom_bond_atom_site_label_1
_geom_bond_atom_site_label_2
_geom_bond_distance
_geom_bond_site_symmetry_2
Fe0 S1 2.495143 1_555
Fe0 S2 2.495143 1_445
Fe0 S0 2.495143 1_455
Fe0 S4 2.680801 1_445
Fe0 S5 2.680801 1_555
Fe0 S3 2.680801 1_545
Fe1 S4 2.495143 1_444
Fe1 S5 2.495143 1_554
Fe1 S3 2.495143 1_544
Fe1 S1 2.680801 1_555
Fe1 S2 2.680801 1_445
Fe1 S0 2.680801 1_455
S0 Sm5 2.802768 1_655
S0 Sm4 2.913675 1_545
S0 Sm0 2.964338 1_555
S1 Sm3 2.802768 1_545
S1 Sm5 2.913676 1_555
S1 Sm1 2.964338 1_555
S2 Sm4 2.802768 1_555
S2 Sm3 2.913675 1_655
S2 Sm2 2.964338 1_555
S3 Sm2 2.802768 1_455
S3 Sm1 2.913675 1_565
S3 Sm3 2.964338 1_556
S4 Sm0 2.802768 1_565
S4 Sm2 2.913676 1_555
S4 Sm4 2.964338 1_556
S5 Sm1 2.802768 1_555
S5 Sm0 2.913675 1_455
S5 Sm5 2.964338 1_556
S6 Sm6 2.664789 1_556
S6 Sm2 2.816898 1_555
S6 Sm0 2.887654 1_555
S6 Sm5 3.106560 1_656
S7 Sm6 2.664790 1_556
S7 Sm0 2.816898 1_555
S7 Sm1 2.887654 1_555
S7 Sm3 3.106560 1_546
S8 Sm6 2.664797 1_556
S8 Sm1 2.816898 1_555
S8 Sm2 2.887654 1_555
S8 Sm4 3.106560 1_556
S9 Sm7 2.664789 1_555
S9 Sm5 2.816898 1_555
S9 Sm3 2.887654 1_555
S9 Sm2 3.106560 1_455
S10 Sm7 2.664790 1_555
S10 Sm3 2.816898 1_555
S10 Sm4 2.887654 1_555
S10 Sm0 3.106560 1_565
S11 Sm7 2.664797 1_555
S11 Sm4 2.816898 1_555
S11 Sm5 2.887654 1_555
S11 Sm1 3.106560 1_555
S12 Sm6 2.636140 1_555
S12 Sm0 2.716053 1_555
S12 Sm2 2.716060 1_555
S12 Sm1 2.716061 1_555
S13 Sm7 2.636140 1_554
S13 Sm3 2.716053 1_555
S13 Sm5 2.716060 1_555
S13 Sm4 2.716061 1_555
