# generated using pymatgen
data_LaMg14Mn
_symmetry_space_group_name_H-M   'P 1'
_cell_length_a   6.54239145
_cell_length_b   6.44151672
_cell_length_c   10.34707704
_cell_angle_alpha   90.00000000
_cell_angle_beta   90.00000000
_cell_angle_gamma   119.49125866
_symmetry_Int_Tables_number   1
_chemical_formula_structural   LaMg14Mn
_chemical_formula_sum   'La1 Mg14 Mn1'
_cell_volume   379.55664874
_cell_formula_units_Z   1
loop_
 _symmetry_equiv_pos_site_id
 _symmetry_equiv_pos_as_xyz
  1  'x, y, z'
loop_
 _atom_site_type_symbol
 _atom_site_label
 _atom_site_symmetry_multiplicity
 _atom_site_fract_x
 _atom_site_fract_y
 _atom_site_fract_z
 _atom_site_occupancy
  La  La0  1  0.16226746  0.83113323  0.12500000  1
  Mg  Mg0  1  0.16553051  0.33276475  0.62500000  1
  Mg  Mg1  1  0.16696683  0.83348292  0.62500000  1
  Mg  Mg2  1  0.65924871  0.33834689  0.12500000  1
  Mg  Mg3  1  0.66610452  0.33193605  0.62500000  1
  Mg  Mg4  1  0.65924871  0.82090082  0.12500000  1
  Mg  Mg5  1  0.66610452  0.83416748  0.62500000  1
  Mg  Mg6  1  0.33538016  0.17562275  0.37971241  1
  Mg  Mg7  1  0.33538016  0.17562275  0.87028759  1
  Mg  Mg8  1  0.33538016  0.65975841  0.37971241  1
  Mg  Mg9  1  0.33538016  0.65975841  0.87028759  1
  Mg  Mg10  1  0.83970762  0.16985431  0.36614118  1
  Mg  Mg11  1  0.83970762  0.16985431  0.88385882  1
  Mg  Mg12  1  0.82805667  0.66402884  0.38398683  1
  Mg  Mg13  1  0.82805667  0.66402884  0.86601317  1
  Mn  Mn0  1  0.17747951  0.33873926  0.12500000  1
loop_
_geom_bond_atom_site_label_1
_geom_bond_atom_site_label_2
_geom_bond_distance
_geom_bond_site_symmetry_2
La0 Mn0 3.221923 1_555
La0 Mn0 3.221923 1_565
La0 Mg2 3.259002 1_455
La0 Mg4 3.259003 1_455
La0 Mg9 3.267773 1_554
La0 Mg8 3.267773 1_555
La0 Mg7 3.267779 1_564
La0 Mg6 3.267779 1_565
La0 Mg2 3.284395 1_565
La0 Mg4 3.284395 1_555
La0 Mg13 3.286850 1_454
La0 Mg12 3.286850 1_455
Mg0 Mg6 3.131836 1_555
Mg0 Mg7 3.131836 1_555
Mg0 Mg8 3.131842 1_555
Mg0 Mg9 3.131842 1_555
Mg0 Mg1 3.220769 1_545
Mg0 Mg1 3.220769 1_555
Mg0 Mg10 3.258334 1_455
Mg0 Mg11 3.258334 1_455
Mg0 Mg5 3.264815 1_445
Mg0 Mg3 3.264816 1_455
Mg0 Mg5 3.277582 1_555
Mg0 Mg3 3.277582 1_555
Mg1 Mg12 3.153381 1_455
Mg1 Mg13 3.153381 1_455
Mg1 Mg8 3.181473 1_555
Mg1 Mg9 3.181473 1_555
Mg1 Mg6 3.181480 1_565
Mg1 Mg7 3.181480 1_565
Mg1 Mg3 3.263385 1_565
Mg1 Mg5 3.263386 1_555
Mg1 Mg3 3.279010 1_455
Mg1 Mg5 3.279010 1_455
Mg2 Mg4 3.108379 1_555
Mg2 Mn0 3.153168 1_555
Mg2 Mg7 3.216770 1_554
Mg2 Mg6 3.216770 1_555
Mg2 Mg4 3.333138 1_545
Mg2 Mn0 3.389225 1_655
Mg3 Mg6 3.161012 1_555
Mg3 Mg7 3.161012 1_555
Mg3 Mg5 3.206385 1_545
Mg3 Mg5 3.235132 1_555
Mg4 Mn0 3.153167 1_555
Mg4 Mg9 3.216770 1_554
Mg4 Mg8 3.216770 1_555
Mg4 Mn0 3.389225 1_665
Mg5 Mg9 3.161011 1_555
Mg5 Mg8 3.161011 1_555
Mg6 Mg8 3.118568 1_555
Mg6 Mn0 3.191538 1_555
Mg6 Mg8 3.322949 1_545
Mg7 Mg9 3.118568 1_555
Mg7 Mn0 3.191538 1_556
Mg7 Mg9 3.322949 1_545
Mg8 Mn0 3.191544 1_555
Mg9 Mn0 3.191544 1_556
Mg10 Mn0 3.150467 1_655
Mg10 Mg2 3.171604 1_555
Mg10 Mg4 3.171610 1_545
Mg10 Mg12 3.226729 1_545
Mg10 Mg12 3.226729 1_555
Mg10 Mg8 3.227809 1_655
Mg10 Mg6 3.227810 1_655
Mg10 Mg3 3.274381 1_555
Mg10 Mg5 3.274387 1_545
Mg10 Mg8 3.320927 1_545
Mg10 Mg6 3.320928 1_555
Mg11 Mn0 3.150467 1_656
Mg11 Mg2 3.171604 1_556
Mg11 Mg4 3.171610 1_546
Mg11 Mg13 3.226729 1_545
Mg11 Mg13 3.226729 1_555
Mg11 Mg9 3.227809 1_655
Mg11 Mg7 3.227810 1_655
Mg11 Mg3 3.274381 1_555
Mg11 Mg5 3.274387 1_545
Mg11 Mg9 3.320927 1_545
Mg11 Mg7 3.320928 1_555
Mg12 Mg5 3.112238 1_555
Mg12 Mg3 3.112245 1_555
Mg12 Mg6 3.210134 1_555
Mg12 Mg8 3.210135 1_555
Mg12 Mg4 3.243563 1_555
Mg12 Mg2 3.243569 1_555
Mg12 Mg6 3.333030 1_665
Mg12 Mg8 3.333030 1_655
Mg13 Mg5 3.112238 1_555
Mg13 Mg3 3.112245 1_555
Mg13 Mg7 3.210134 1_555
Mg13 Mg9 3.210135 1_555
Mg13 Mg4 3.243563 1_556
Mg13 Mg2 3.243569 1_556
Mg13 Mg7 3.333030 1_665
Mg13 Mg9 3.333030 1_655
