# generated using pymatgen
data_MgSi2
_symmetry_space_group_name_H-M   'P 1'
_cell_length_a   3.78447200
_cell_length_b   6.14314300
_cell_length_c   9.75070093
_cell_angle_alpha   77.48232805
_cell_angle_beta   90.00000000
_cell_angle_gamma   90.00000000
_symmetry_Int_Tables_number   1
_chemical_formula_structural   MgSi2
_chemical_formula_sum   'Mg4 Si8'
_cell_volume   221.30108979
_cell_formula_units_Z   4
loop_
 _symmetry_equiv_pos_site_id
 _symmetry_equiv_pos_as_xyz
  1  'x, y, z'
loop_
 _atom_site_type_symbol
 _atom_site_label
 _atom_site_symmetry_multiplicity
 _atom_site_fract_x
 _atom_site_fract_y
 _atom_site_fract_z
 _atom_site_occupancy
  Mg  Mg0  1  0.00000000  0.87689900  0.15118600  1
  Mg  Mg1  1  0.00000000  0.57565500  0.82979800  1
  Mg  Mg2  1  0.50000000  0.97091900  0.67492600  1
  Mg  Mg3  1  0.50000000  0.48007900  0.33393900  1
  Si  Si0  1  0.00000000  0.09955500  0.83997500  1
  Si  Si1  1  0.50000000  0.56200800  0.04487200  1
  Si  Si2  1  0.00000000  0.12253400  0.40243800  1
  Si  Si3  1  0.50000000  0.58010600  0.60125800  1
  Si  Si4  1  0.00000000  0.33599700  0.15291000  1
  Si  Si5  1  0.50000000  0.17284600  0.98099100  1
  Si  Si6  1  0.00000000  0.33688500  0.59605600  1
  Si  Si7  1  0.50000000  0.88683000  0.39135900  1
loop_
_geom_bond_atom_site_label_1
_geom_bond_atom_site_label_2
_geom_bond_distance
_geom_bond_site_symmetry_2
Mg0 Si4 2.823996 1_565
Mg0 Si5 2.886521 1_464
Mg0 Si5 2.886521 1_564
Mg0 Si7 3.021671 1_555
Mg0 Si7 3.021671 1_455
Mg0 Si1 3.044078 1_455
Mg0 Si1 3.044078 1_555
Mg0 Si0 3.046311 1_564
Mg0 Si2 3.143472 1_565
Mg1 Si1 2.812347 1_456
Mg1 Si1 2.812347 1_556
Mg1 Si0 2.904858 1_555
Mg1 Si3 2.919036 1_555
Mg1 Si3 2.919036 1_455
Mg1 Si6 2.965664 1_555
Mg1 Si4 3.175364 1_556
Mg1 Mg2 3.188649 1_555
Mg1 Mg2 3.188649 1_455
Mg1 Si5 3.208707 1_555
Mg1 Si5 3.208707 1_455
Mg1 Si0 3.241348 1_565
Mg2 Si3 2.650938 1_555
Mg2 Si0 2.710403 1_565
Mg2 Si0 2.710403 1_665
Mg2 Si6 2.911500 1_665
Mg2 Si6 2.911500 1_565
Mg2 Si7 2.920803 1_555
Mg2 Si2 3.230280 1_665
Mg2 Si2 3.230280 1_565
Mg3 Si7 2.676483 1_555
Mg3 Si1 2.753709 1_555
Mg3 Si3 2.804634 1_555
Mg3 Si4 2.856052 1_555
Mg3 Si4 2.856052 1_655
Mg3 Si2 2.866204 1_655
Mg3 Si2 2.866204 1_555
Mg3 Si6 3.148336 1_655
Mg3 Si6 3.148336 1_555
Si0 Si5 2.437677 1_455
Si0 Si5 2.437677 1_555
Si0 Si6 2.505832 1_555
Si1 Si4 2.446220 1_655
Si1 Si4 2.446220 1_555
Si1 Si5 2.597851 1_554
Si2 Si7 2.399298 1_545
Si2 Si7 2.399298 1_445
Si2 Si4 2.501277 1_555
Si2 Si6 2.525028 1_555
Si3 Si6 2.418355 1_655
Si3 Si6 2.418355 1_555
Si3 Si7 2.463237 1_555
Si4 Si5 2.850170 1_554
Si4 Si5 2.850170 1_454
