# generated using pymatgen
data_Pr3(ZnAs3)2
_symmetry_space_group_name_H-M   'P 1'
_cell_length_a   4.12548600
_cell_length_b   10.26534400
_cell_length_c   11.95394900
_cell_angle_alpha   90.00000000
_cell_angle_beta   90.00000000
_cell_angle_gamma   90.00000000
_symmetry_Int_Tables_number   1
_chemical_formula_structural   Pr3(ZnAs3)2
_chemical_formula_sum   'Pr6 Zn4 As12'
_cell_volume   506.24415714
_cell_formula_units_Z   2
loop_
 _symmetry_equiv_pos_site_id
 _symmetry_equiv_pos_as_xyz
  1  'x, y, z'
loop_
 _atom_site_type_symbol
 _atom_site_label
 _atom_site_symmetry_multiplicity
 _atom_site_fract_x
 _atom_site_fract_y
 _atom_site_fract_z
 _atom_site_occupancy
  Pr  Pr0  1  0.75000000  0.26412200  0.75000000  1
  Pr  Pr1  1  0.75000000  0.26850800  0.41435400  1
  Pr  Pr2  1  0.25000000  0.73149200  0.91435400  1
  Pr  Pr3  1  0.25000000  0.73149200  0.58564600  1
  Pr  Pr4  1  0.25000000  0.73587800  0.25000000  1
  Pr  Pr5  1  0.75000000  0.26850800  0.08564600  1
  Zn  Zn0  1  0.25000000  0.00340900  0.09606800  1
  Zn  Zn1  1  0.25000000  0.00340900  0.40393200  1
  Zn  Zn2  1  0.75000000  0.99659100  0.59606800  1
  Zn  Zn3  1  0.75000000  0.99659100  0.90393200  1
  As  As0  1  0.75000000  0.50228800  0.25000000  1
  As  As1  1  0.75000000  0.49829000  0.91615700  1
  As  As2  1  0.75000000  0.83704100  0.75000000  1
  As  As3  1  0.75000000  0.84502300  0.41872900  1
  As  As4  1  0.25000000  0.15497700  0.91872900  1
  As  As5  1  0.25000000  0.15497700  0.58127100  1
  As  As6  1  0.25000000  0.16295900  0.25000000  1
  As  As7  1  0.25000000  0.50171000  0.08384300  1
  As  As8  1  0.25000000  0.49771200  0.75000000  1
  As  As9  1  0.25000000  0.50171000  0.41615700  1
  As  As10  1  0.75000000  0.49829000  0.58384300  1
  As  As11  1  0.75000000  0.84502300  0.08127100  1
loop_
_geom_bond_atom_site_label_1
_geom_bond_atom_site_label_2
_geom_bond_distance
_geom_bond_site_symmetry_2
Pr0 Zn3 3.305768 1_545
Pr0 Zn2 3.305768 1_545
Pr4 Zn1 3.305768 1_565
Pr4 Zn0 3.305768 1_565
As0 As7 2.863575 1_555
As0 As7 2.863575 1_655
As0 As9 2.863575 1_655
As0 As9 2.863575 1_555
As0 Pr5 3.101477 1_555
As0 Pr1 3.101477 1_555
As0 Pr4 3.163028 1_555
As0 Pr4 3.163028 1_655
As1 As8 2.863575 1_555
As1 As8 2.863575 1_655
As1 As7 2.876491 1_656
As1 As7 2.876491 1_556
As1 Pr5 3.109474 1_556
As1 Pr0 3.118244 1_555
As1 Pr2 3.160083 1_555
As1 Pr2 3.160083 1_655
As2 Zn3 2.463424 1_555
As2 Zn2 2.463424 1_555
As2 Pr3 3.047760 1_555
As2 Pr3 3.047760 1_655
As2 Pr2 3.047760 1_555
As2 Pr2 3.047760 1_655
As3 Zn2 2.629601 1_555
As3 Zn1 2.632433 1_565
As3 Zn1 2.632433 1_665
As3 Pr4 3.094904 1_655
As3 Pr4 3.094904 1_555
As3 Pr3 3.097489 1_555
As3 Pr3 3.097489 1_655
As4 Zn0 2.629601 1_556
As4 Zn3 2.632433 1_545
As4 Zn3 2.632433 1_445
As4 Pr0 3.094904 1_455
As4 Pr0 3.094904 1_555
As4 Pr5 3.097489 1_456
As4 Pr5 3.097489 1_556
As5 Zn1 2.629601 1_555
As5 Zn2 2.632433 1_445
As5 Zn2 2.632433 1_545
As5 Pr0 3.094904 1_555
As5 Pr0 3.094904 1_455
As5 Pr1 3.097489 1_555
As5 Pr1 3.097489 1_455
As6 Zn1 2.463424 1_555
As6 Zn0 2.463424 1_555
As6 Pr1 3.047760 1_555
As6 Pr1 3.047760 1_455
As6 Pr5 3.047760 1_455
As6 Pr5 3.047760 1_555
As7 Pr2 3.109474 1_554
As7 Pr4 3.118244 1_555
As7 Pr5 3.160083 1_455
As7 Pr5 3.160083 1_555
As8 Pr3 3.101477 1_555
As8 Pr2 3.101477 1_555
As8 Pr0 3.163028 1_555
As8 Pr0 3.163028 1_455
As9 Pr3 3.109474 1_555
As9 Pr4 3.118244 1_555
As9 Pr1 3.160083 1_455
As9 Pr1 3.160083 1_555
As10 As8 2.863575 1_555
As10 As8 2.863575 1_655
As10 As9 2.876491 1_555
As10 As9 2.876491 1_655
As10 Pr1 3.109474 1_555
As10 Pr0 3.118244 1_555
As10 Pr3 3.160083 1_555
As10 Pr3 3.160083 1_655
As11 Zn3 2.629601 1_554
As11 Zn0 2.632433 1_565
As11 Zn0 2.632433 1_665
As11 Pr4 3.094904 1_555
As11 Pr4 3.094904 1_655
As11 Pr2 3.097489 1_554
As11 Pr2 3.097489 1_654
