# generated using pymatgen
data_LiPr2Zn2(PO)2
_symmetry_space_group_name_H-M   'P 1'
_cell_length_a   11.39451699
_cell_length_b   11.39451713
_cell_length_c   11.39555018
_cell_angle_alpha   20.76595276
_cell_angle_beta   20.76594853
_cell_angle_gamma   20.76688713
_symmetry_Int_Tables_number   1
_chemical_formula_structural   LiPr2Zn2(PO)2
_chemical_formula_sum   'Li1 Pr2 Zn2 P2 O2'
_cell_volume   162.83785655
_cell_formula_units_Z   1
loop_
 _symmetry_equiv_pos_site_id
 _symmetry_equiv_pos_as_xyz
  1  'x, y, z'
loop_
 _atom_site_type_symbol
 _atom_site_label
 _atom_site_symmetry_multiplicity
 _atom_site_fract_x
 _atom_site_fract_y
 _atom_site_fract_z
 _atom_site_occupancy
  Li  Li0  1  0.75145500  0.75145500  0.75035000  1
  Pr  Pr0  1  0.61471400  0.61471400  0.61467800  1
  Pr  Pr1  1  0.36662500  0.36662500  0.36606200  1
  Zn  Zn0  1  0.20073100  0.20073100  0.20092800  1
  Zn  Zn1  1  0.81697900  0.81697900  0.81794200  1
  P  P0  1  0.11700900  0.11700900  0.11656600  1
  P  P1  1  0.88758100  0.88758100  0.88759600  1
  O  O0  1  0.69449500  0.69449500  0.69401500  1
  O  O1  1  0.29884600  0.29884600  0.29873800  1
loop_
_geom_bond_atom_site_label_1
_geom_bond_atom_site_label_2
_geom_bond_distance
_geom_bond_site_symmetry_2
Li0 O0 1.897556 1_555
Li0 Zn1 2.213924 1_555
Li0 P0 2.605987 1_665
Li0 P0 2.608566 1_566
Li0 P0 2.608566 1_656
P0 Zn1 2.624869 1_544
P0 Zn1 2.624870 1_454
P0 Zn1 2.629839 1_445
P0 Zn0 2.806473 1_555
P1 Zn1 2.350091 1_555
P1 Zn0 2.464777 1_665
P1 Zn0 2.465110 1_566
P1 Zn0 2.465110 1_656
P1 Pr0 3.115702 1_655
P1 Pr0 3.115703 1_565
P1 Pr0 3.116251 1_556
O0 Pr1 2.378211 1_556
O0 Pr1 2.378423 1_655
O0 Pr1 2.378423 1_565
O0 Pr0 2.662618 1_555
O1 Pr1 2.261195 1_555
O1 Pr0 2.442050 1_455
O1 Pr0 2.442050 1_545
O1 Pr0 2.442055 1_554
