# generated using pymatgen
data_Ga3Ni5
_symmetry_space_group_name_H-M   'P 1'
_cell_length_a   3.69348620
_cell_length_b   5.00071171
_cell_length_c   5.00071226
_cell_angle_alpha   96.02418212
_cell_angle_beta   90.00000000
_cell_angle_gamma   90.00000000
_symmetry_Int_Tables_number   1
_chemical_formula_structural   Ga3Ni5
_chemical_formula_sum   'Ga3 Ni5'
_cell_volume   91.85339436
_cell_formula_units_Z   1
loop_
 _symmetry_equiv_pos_site_id
 _symmetry_equiv_pos_as_xyz
  1  'x, y, z'
loop_
 _atom_site_type_symbol
 _atom_site_label
 _atom_site_symmetry_multiplicity
 _atom_site_fract_x
 _atom_site_fract_y
 _atom_site_fract_z
 _atom_site_occupancy
  Ga  Ga0  1  0.50000000  0.71913779  0.28086221  1
  Ga  Ga1  1  0.50000000  0.28086221  0.71913779  1
  Ga  Ga2  1  -0.00000000  0.00000000  -0.00000000  1
  Ni  Ni0  1  0.50000000  0.77475327  0.77475327  1
  Ni  Ni1  1  0.50000000  0.22524673  0.22524673  1
  Ni  Ni2  1  -0.00000000  0.00000000  0.50000000  1
  Ni  Ni3  1  -0.00000000  0.50000000  0.50000000  1
  Ni  Ni4  1  -0.00000000  0.50000000  -0.00000000  1
loop_
_geom_bond_atom_site_label_1
_geom_bond_atom_site_label_2
_geom_bond_distance
_geom_bond_site_symmetry_2
Ga0 Ni1 2.456241 1_555
Ga0 Ni0 2.456241 1_555
Ga0 Ni3 2.462574 1_555
Ga0 Ni3 2.462574 1_655
Ga0 Ni2 2.502185 1_665
Ga0 Ni2 2.502185 1_565
Ga0 Ni4 2.502185 1_555
Ga0 Ni4 2.502185 1_655
Ga0 Ni1 2.574990 1_565
Ga0 Ni0 2.574990 1_554
Ga1 Ni0 2.456241 1_555
Ga1 Ni1 2.456241 1_555
Ga1 Ni3 2.462574 1_555
Ga1 Ni3 2.462574 1_655
Ga1 Ni2 2.502185 1_655
Ga1 Ni2 2.502185 1_555
Ga1 Ni4 2.502185 1_656
Ga1 Ni4 2.502185 1_556
Ga1 Ni0 2.574990 1_545
Ga1 Ni1 2.574990 1_556
Ga2 Ni0 2.383627 1_544
Ga2 Ni0 2.383627 1_444
Ga2 Ni1 2.383627 1_455
Ga2 Ni1 2.383627 1_555
Ga2 Ni4 2.500356 1_555
Ga2 Ni4 2.500356 1_545
Ga2 Ni2 2.500356 1_555
Ga2 Ni2 2.500356 1_554
Ni0 Ni3 2.605718 1_555
Ni0 Ni3 2.605718 1_655
Ni0 Ni4 2.625231 1_656
Ni0 Ni4 2.625231 1_556
Ni0 Ni2 2.625231 1_665
Ni0 Ni2 2.625231 1_565
Ni1 Ni3 2.605718 1_555
Ni1 Ni3 2.605718 1_655
Ni1 Ni4 2.625231 1_555
Ni1 Ni4 2.625231 1_655
Ni1 Ni2 2.625231 1_655
Ni1 Ni2 2.625231 1_555
Ni2 Ni3 2.500356 1_545
Ni2 Ni3 2.500356 1_555
Ni3 Ni4 2.500356 1_556
Ni3 Ni4 2.500356 1_555
