# generated using pymatgen
data_Yb3(GePd)4
_symmetry_space_group_name_H-M   'P 1'
_cell_length_a   8.10442424
_cell_length_b   8.10442424
_cell_length_c   8.10442424
_cell_angle_alpha   150.01632625
_cell_angle_beta   127.45912006
_cell_angle_gamma   61.68211253
_symmetry_Int_Tables_number   1
_chemical_formula_structural   Yb3(GePd)4
_chemical_formula_sum   'Yb3 Ge4 Pd4'
_cell_volume   209.31426257
_cell_formula_units_Z   1
loop_
 _symmetry_equiv_pos_site_id
 _symmetry_equiv_pos_as_xyz
  1  'x, y, z'
loop_
 _atom_site_type_symbol
 _atom_site_label
 _atom_site_symmetry_multiplicity
 _atom_site_fract_x
 _atom_site_fract_y
 _atom_site_fract_z
 _atom_site_occupancy
  Yb  Yb0  1  0.00000000  0.00000000  0.00000000  1
  Yb  Yb1  1  0.62689200  0.12689200  0.50000000  1
  Yb  Yb2  1  0.37310800  0.87310800  0.50000000  1
  Ge  Ge0  1  0.32259600  0.50000000  0.82259600  1
  Ge  Ge1  1  0.67740400  0.50000000  0.17740400  1
  Ge  Ge2  1  0.77943600  0.77943600  0.00000000  1
  Ge  Ge3  1  0.22056400  0.22056400  0.00000000  1
  Pd  Pd0  1  0.62630600  0.32533700  0.30096900  1
  Pd  Pd1  1  0.97563200  0.67466300  0.30096900  1
  Pd  Pd2  1  0.02436800  0.32533700  0.69903100  1
  Pd  Pd3  1  0.37369400  0.67466300  0.69903100  1
loop_
_geom_bond_atom_site_label_1
_geom_bond_atom_site_label_2
_geom_bond_distance
_geom_bond_site_symmetry_2
Ge0 Ge1 2.545455 1_556
Ge0 Pd2 2.587351 1_555
Ge0 Pd3 2.587351 1_555
Ge0 Yb1 3.022169 1_566
Ge0 Yb2 3.022169 1_545
Ge0 Yb1 3.022169 1_555
Ge0 Yb2 3.022169 1_556
Ge0 Yb0 3.122727 1_566
Ge0 Yb0 3.122727 1_555
Ge1 Pd0 2.587351 1_555
Ge1 Pd1 2.587351 1_555
Ge1 Yb2 3.022169 1_544
Ge1 Yb1 3.022169 1_554
Ge1 Yb1 3.022169 1_565
Ge1 Yb2 3.022169 1_555
Ge1 Yb0 3.122727 1_666
Ge1 Yb0 3.122727 1_655
Ge2 Pd1 2.605424 1_555
Ge2 Pd3 2.605424 1_554
Ge2 Pd2 2.615735 1_654
Ge2 Pd0 2.615735 1_554
Ge2 Pd2 2.615735 1_665
Ge2 Pd0 2.615735 1_565
Ge2 Yb1 2.983617 1_554
Ge2 Yb1 2.983617 1_565
Ge2 Yb0 3.069545 1_665
Ge3 Pd2 2.605424 1_554
Ge3 Pd0 2.605424 1_555
Ge3 Pd3 2.615735 1_544
Ge3 Pd3 2.615735 1_555
Ge3 Pd1 2.615735 1_444
Ge3 Pd1 2.615735 1_455
Ge3 Yb2 2.983617 1_555
Ge3 Yb2 2.983617 1_544
Ge3 Yb0 3.069545 1_555
Pd0 Yb2 3.082095 1_555
Pd0 Yb2 3.082095 1_544
Pd0 Yb1 3.109010 1_555
Pd1 Yb1 3.082095 1_554
Pd1 Yb1 3.082095 1_565
Pd1 Yb2 3.109010 1_655
Pd2 Yb2 3.082095 1_545
Pd2 Yb2 3.082095 1_556
Pd2 Yb1 3.109010 1_455
Pd3 Yb1 3.082095 1_555
Pd3 Yb1 3.082095 1_566
Pd3 Yb2 3.109010 1_555
