# generated using pymatgen
data_Ba4La2Cu6O13
_symmetry_space_group_name_H-M   'P 1'
_cell_length_a   12.67282713
_cell_length_b   12.64882022
_cell_length_c   5.60407948
_cell_angle_alpha   77.45314771
_cell_angle_beta   76.97442857
_cell_angle_gamma   25.57242372
_symmetry_Int_Tables_number   1
_chemical_formula_structural   Ba4La2Cu6O13
_chemical_formula_sum   'Ba4 La2 Cu6 O13'
_cell_volume   377.57389176
_cell_formula_units_Z   1
loop_
 _symmetry_equiv_pos_site_id
 _symmetry_equiv_pos_as_xyz
  1  'x, y, z'
loop_
 _atom_site_type_symbol
 _atom_site_label
 _atom_site_symmetry_multiplicity
 _atom_site_fract_x
 _atom_site_fract_y
 _atom_site_fract_z
 _atom_site_occupancy
  Ba  Ba0  1  0.16225000  0.64949800  0.83775000  1
  Ba  Ba1  1  0.64949800  0.16225000  0.35050200  1
  Ba  Ba2  1  0.83775000  0.35050200  0.16225000  1
  Ba  Ba3  1  0.35050200  0.83775000  0.64949800  1
  La  La0  1  0.00000000  0.50000000  0.00000000  1
  La  La1  1  0.50000000  0.00000000  0.50000000  1
  Cu  Cu0  1  0.57544700  0.07259800  0.92740200  1
  Cu  Cu1  1  0.07259800  0.57544700  0.42455300  1
  Cu  Cu2  1  0.42455300  0.92740200  0.07259800  1
  Cu  Cu3  1  0.92740200  0.42455300  0.57544700  1
  Cu  Cu4  1  0.26314600  0.73685400  0.26314600  1
  Cu  Cu5  1  0.73685400  0.26314600  0.73685400  1
  O  O0  1  0.31671700  0.31671700  0.68328300  1
  O  O1  1  0.81517800  0.81517800  0.18482200  1
  O  O2  1  0.31549600  0.31549600  0.18450400  1
  O  O3  1  0.81549600  0.81549600  0.68450400  1
  O  O4  1  0.18482200  0.18482200  0.81517800  1
  O  O5  1  0.68328300  0.68328300  0.31671700  1
  O  O6  1  0.18450400  0.18450400  0.31549600  1
  O  O7  1  0.68450400  0.68450400  0.81549600  1
  O  O8  1  0.69359200  0.15582200  0.84417800  1
  O  O9  1  0.15582200  0.69359200  0.30640800  1
  O  O10  1  0.30640800  0.84417800  0.15582200  1
  O  O11  1  0.84417800  0.30640800  0.69359200  1
  O  O12  1  0.50000000  0.50000000  0.50000000  1
loop_
_geom_bond_atom_site_label_1
_geom_bond_atom_site_label_2
_geom_bond_distance
_geom_bond_site_symmetry_2
Ba0 O8 2.770143 1_465
Ba0 O9 2.770143 1_556
Ba0 O0 2.872864 1_555
Ba0 O8 2.913780 1_555
Ba0 O9 2.913780 1_555
Ba0 O3 2.954400 1_455
Ba0 O2 2.954400 1_556
Ba0 O12 2.963122 1_555
Ba0 O1 2.967520 1_456
Ba1 O9 2.770143 1_645
Ba1 O8 2.770143 1_554
Ba1 O0 2.872864 1_555
Ba1 O8 2.913780 1_555
Ba1 O9 2.913780 1_555
Ba1 O3 2.954400 1_545
Ba1 O2 2.954400 1_555
Ba1 O12 2.963122 1_555
Ba1 O1 2.967520 1_545
Ba2 O10 2.770143 1_645
Ba2 O11 2.770143 1_554
Ba2 O5 2.872864 1_555
Ba2 O10 2.913780 1_555
Ba2 O11 2.913780 1_555
Ba2 O6 2.954400 1_655
Ba2 O7 2.954400 1_554
Ba2 O12 2.963122 1_555
Ba2 O4 2.967520 1_654
Ba3 O10 2.770143 1_556
Ba3 O11 2.770143 1_465
Ba3 O5 2.872864 1_555
Ba3 O10 2.913780 1_555
Ba3 O11 2.913780 1_555
Ba3 O6 2.954400 1_565
Ba3 O7 2.954400 1_555
Ba3 O12 2.963122 1_555
Ba3 O4 2.967520 1_565
La0 O1 2.511327 1_455
La0 O4 2.511327 1_554
La0 O0 2.534594 1_554
La0 O5 2.534594 1_455
La0 O2 2.546129 1_555
La0 O7 2.546129 1_454
La0 O6 2.546129 1_555
La0 O3 2.546129 1_454
La1 O1 2.511327 1_545
La1 O4 2.511327 1_555
La1 O0 2.534594 1_555
La1 O5 2.534594 1_545
La1 O2 2.546129 1_555
La1 O7 2.546129 1_545
La1 O3 2.546129 1_545
La1 O6 2.546129 1_555
Cu0 O3 1.972791 1_545
Cu0 O2 1.972791 1_556
Cu0 O1 2.000368 1_546
Cu0 O0 2.019481 1_555
Cu0 O8 2.425432 1_555
Cu1 O3 1.972791 1_455
Cu1 O2 1.972791 1_555
Cu1 O1 2.000368 1_455
Cu1 O0 2.019481 1_555
Cu1 O9 2.425432 1_555
Cu2 O7 1.972791 1_554
Cu2 O6 1.972791 1_565
Cu2 O4 2.000368 1_564
Cu2 O5 2.019481 1_555
Cu2 O10 2.425432 1_555
Cu3 O7 1.972791 1_555
Cu3 O6 1.972791 1_655
Cu3 O4 2.000368 1_655
Cu3 O5 2.019481 1_555
Cu3 O11 2.425432 1_555
Cu4 O10 1.828803 1_555
Cu4 O9 1.828803 1_555
Cu4 O12 1.895235 1_555
Cu5 O11 1.828803 1_555
Cu5 O8 1.828803 1_555
Cu5 O12 1.895235 1_555
