# generated using pymatgen
data_CrFe2N3
_symmetry_space_group_name_H-M   'P 1'
_cell_length_a   5.03270613
_cell_length_b   8.67560755
_cell_length_c   9.92142101
_cell_angle_alpha   90.00000061
_cell_angle_beta   94.19564493
_cell_angle_gamma   149.53315250
_symmetry_Int_Tables_number   1
_chemical_formula_structural   CrFe2N3
_chemical_formula_sum   'Cr4 Fe8 N12'
_cell_volume   217.34441288
_cell_formula_units_Z   4
loop_
 _symmetry_equiv_pos_site_id
 _symmetry_equiv_pos_as_xyz
  1  'x, y, z'
loop_
 _atom_site_type_symbol
 _atom_site_label
 _atom_site_symmetry_multiplicity
 _atom_site_fract_x
 _atom_site_fract_y
 _atom_site_fract_z
 _atom_site_occupancy
  Cr  Cr0  1  0.59440267  0.34843196  0.65248802  1
  Cr  Cr1  1  0.40559733  0.75402829  0.84751198  1
  Cr  Cr2  1  0.40559733  0.65156804  0.34751198  1
  Cr  Cr3  1  0.59440267  0.24597171  0.15248802  1
  Fe  Fe0  1  0.49693821  0.10160837  0.81345250  1
  Fe  Fe1  1  0.50306179  0.60467016  0.68654750  1
  Fe  Fe2  1  0.50306179  0.89839163  0.18654750  1
  Fe  Fe3  1  0.49693821  0.39532984  0.31345250  1
  Fe  Fe4  1  0.66427232  0.95731693  0.55458960  1
  Fe  Fe5  1  0.33572768  0.29304361  0.94541040  1
  Fe  Fe6  1  0.33572768  0.04268307  0.44541040  1
  Fe  Fe7  1  0.66427232  0.70695639  0.05458960  1
  N  N0  1  1.00000000  0.70254871  0.75000000  1
  N  N1  1  0.00000000  0.29745129  0.25000000  1
  N  N2  1  0.76558813  0.21991578  0.62286423  1
  N  N3  1  0.23441187  0.45432765  0.87713577  1
  N  N4  1  0.23441187  0.78008422  0.37713577  1
  N  N5  1  0.76558813  0.54567235  0.12286423  1
  N  N6  1  0.33438736  0.06449699  0.98225757  1
  N  N7  1  0.66561264  0.73010963  0.51774243  1
  N  N8  1  0.66561264  0.93550301  0.01774243  1
  N  N9  1  0.33438736  0.26989037  0.48225757  1
  N  N10  1  1.00000000  0.02815085  0.75000000  1
  N  N11  1  0.00000000  0.97184915  0.25000000  1
loop_
_geom_bond_atom_site_label_1
_geom_bond_atom_site_label_2
_geom_bond_distance
_geom_bond_site_symmetry_2
Cr0 N9 1.780079 1_555
Cr0 N0 1.855157 1_555
Cr0 N10 1.923587 1_455
Cr0 N2 1.940271 1_555
Cr1 N8 1.780082 1_556
Cr1 N0 1.855163 1_455
Cr1 N10 1.923586 1_565
Cr1 N3 1.940263 1_555
Cr2 N7 1.780079 1_555
Cr2 N1 1.855157 1_555
Cr2 N11 1.923587 1_655
Cr2 N4 1.940271 1_555
Cr3 N6 1.780082 1_554
Cr3 N1 1.855163 1_655
Cr3 N11 1.923586 1_545
Cr3 N5 1.940263 1_555
Fe0 N6 1.823251 1_555
Fe0 N0 1.865693 1_445
Fe0 N3 1.901795 1_655
Fe0 N10 2.019726 1_455
Fe0 N2 2.106867 1_555
Fe1 N7 1.823251 1_555
Fe1 N0 1.865693 1_555
Fe1 N2 1.901795 1_455
Fe1 N10 2.019726 1_565
Fe1 N3 2.106867 1_555
Fe2 N8 1.823251 1_555
Fe2 N1 1.865693 1_665
Fe2 N5 1.901795 1_455
Fe2 N11 2.019726 1_655
Fe2 N4 2.106867 1_555
Fe3 N9 1.823251 1_555
Fe3 N1 1.865693 1_555
Fe3 N4 1.901795 1_655
Fe3 N11 2.019726 1_545
Fe3 N5 2.106867 1_555
Fe4 N9 1.957357 1_665
Fe4 N4 1.962789 1_555
Fe4 N2 1.963676 1_565
Fe4 N7 2.010585 1_555
Fe4 N10 2.173012 1_565
Fe5 N8 1.957356 1_446
Fe5 N5 1.962791 1_556
Fe5 N3 1.963685 1_555
Fe5 N6 2.010576 1_555
Fe5 N10 2.173009 1_455
Fe6 N7 1.957357 1_445
Fe6 N2 1.962789 1_555
Fe6 N4 1.963676 1_545
Fe6 N9 2.010585 1_555
Fe6 N11 2.173012 1_545
Fe7 N6 1.957356 1_664
Fe7 N3 1.962791 1_554
Fe7 N5 1.963685 1_555
Fe7 N8 2.010576 1_555
Fe7 N11 2.173009 1_655
