# generated using pymatgen
data_Ho2CoPtO6
_symmetry_space_group_name_H-M   'P 1'
_cell_length_a   5.76691900
_cell_length_b   5.33001900
_cell_length_c   9.33213695
_cell_angle_alpha   55.43263033
_cell_angle_beta   90.00000000
_cell_angle_gamma   90.00000000
_symmetry_Int_Tables_number   1
_chemical_formula_structural   Ho2CoPtO6
_chemical_formula_sum   'Ho4 Co2 Pt2 O12'
_cell_volume   236.20877248
_cell_formula_units_Z   2
loop_
 _symmetry_equiv_pos_site_id
 _symmetry_equiv_pos_as_xyz
  1  'x, y, z'
loop_
 _atom_site_type_symbol
 _atom_site_label
 _atom_site_symmetry_multiplicity
 _atom_site_fract_x
 _atom_site_fract_y
 _atom_site_fract_z
 _atom_site_occupancy
  Ho  Ho0  1  0.07465700  0.72209900  0.75271500  1
  Ho  Ho1  1  0.92534300  0.27790100  0.24728500  1
  Ho  Ho2  1  0.57465700  0.27790100  0.74728500  1
  Ho  Ho3  1  0.42534300  0.72209900  0.25271500  1
  Co  Co0  1  0.50000000  0.50000000  0.00000000  1
  Co  Co1  1  0.00000000  0.50000000  0.50000000  1
  Pt  Pt0  1  0.50000000  0.00000000  0.50000000  1
  Pt  Pt1  1  0.00000000  0.00000000  0.00000000  1
  O  O0  1  0.44599000  0.88027800  0.74898000  1
  O  O1  1  0.55401000  0.11972200  0.25102000  1
  O  O2  1  0.94599000  0.11972200  0.75102000  1
  O  O3  1  0.05401000  0.88027800  0.24898000  1
  O  O4  1  0.80255500  0.74796000  0.56784500  1
  O  O5  1  0.19744500  0.25204000  0.43215500  1
  O  O6  1  0.30255500  0.25204000  0.93215500  1
  O  O7  1  0.69744500  0.74796000  0.06784500  1
  O  O8  1  0.31141300  0.62562200  0.55748800  1
  O  O9  1  0.68858700  0.37437800  0.44251200  1
  O  O10  1  0.81141300  0.37437800  0.94251200  1
  O  O11  1  0.18858700  0.62562200  0.05748800  1
loop_
_geom_bond_atom_site_label_1
_geom_bond_atom_site_label_2
_geom_bond_distance
_geom_bond_site_symmetry_2
Ho0 O2 2.237048 1_465
Ho0 O10 2.269746 1_455
Ho0 O4 2.277704 1_455
Ho0 O0 2.294445 1_555
Ho0 O6 2.459223 1_555
Ho0 O8 2.551662 1_555
Ho0 O11 2.669431 1_556
Ho0 O5 2.800085 1_565
Ho1 O3 2.237048 1_645
Ho1 O11 2.269746 1_655
Ho1 O5 2.277704 1_655
Ho1 O1 2.294445 1_555
Ho1 O7 2.459223 1_555
Ho1 O9 2.551662 1_555
Ho1 O10 2.669431 1_554
Ho1 O4 2.800085 1_545
Ho2 O0 2.237048 1_545
Ho2 O8 2.269746 1_555
Ho2 O6 2.277704 1_555
Ho2 O2 2.294445 1_555
Ho2 O4 2.459223 1_555
Ho2 O10 2.551662 1_555
Ho2 O9 2.669431 1_555
Ho2 O7 2.800085 1_546
Ho3 O1 2.237048 1_565
Ho3 O9 2.269746 1_555
Ho3 O7 2.277704 1_555
Ho3 O3 2.294445 1_555
Ho3 O5 2.459223 1_555
Ho3 O11 2.551662 1_555
Ho3 O8 2.669431 1_555
Ho3 O6 2.800085 1_564
Co0 O1 2.074837 1_555
Co0 O0 2.074837 1_554
Co0 O11 2.090213 1_555
Co0 O10 2.090213 1_554
Co0 O7 2.096098 1_555
Co0 O6 2.096098 1_554
Co1 O2 2.074837 1_455
Co1 O3 2.074837 1_555
Co1 O8 2.090213 1_555
Co1 O9 2.090213 1_455
Co1 O5 2.096098 1_555
Co1 O4 2.096098 1_455
O0 Pt0 2.054376 1_565
O1 Pt0 2.054376 1_555
O2 Pt1 2.054376 1_656
O3 Pt1 2.054376 1_565
O4 Pt0 2.069960 1_565
O5 Pt0 2.069960 1_555
O6 Pt1 2.069960 1_556
O7 Pt1 2.069960 1_665
O8 Pt0 2.058549 1_565
O9 Pt0 2.058549 1_555
O10 Pt1 2.058549 1_656
O11 Pt1 2.058549 1_565
