# generated using pymatgen
data_MgCuP4(RuO7)2
_symmetry_space_group_name_H-M   'P 1'
_cell_length_a   4.99181602
_cell_length_b   6.81584718
_cell_length_c   8.57122419
_cell_angle_alpha   93.82984880
_cell_angle_beta   94.23087039
_cell_angle_gamma   105.40117886
_symmetry_Int_Tables_number   1
_chemical_formula_structural   MgCuP4(RuO7)2
_chemical_formula_sum   'Mg1 Cu1 P4 Ru2 O14'
_cell_volume   279.25025398
_cell_formula_units_Z   1
loop_
 _symmetry_equiv_pos_site_id
 _symmetry_equiv_pos_as_xyz
  1  'x, y, z'
loop_
 _atom_site_type_symbol
 _atom_site_label
 _atom_site_symmetry_multiplicity
 _atom_site_fract_x
 _atom_site_fract_y
 _atom_site_fract_z
 _atom_site_occupancy
  Mg  Mg0  1  0.90392100  0.88415500  0.64860600  1
  Cu  Cu0  1  0.02501300  0.15941200  0.38392200  1
  P  P0  1  0.38119000  0.72379500  0.83511900  1
  P  P1  1  0.60040100  0.26165500  0.18868000  1
  P  P2  1  0.99325700  0.66317800  0.29260300  1
  P  P3  1  0.00450100  0.32870200  0.72436000  1
  Ru  Ru0  1  0.49914000  0.49335700  0.50865400  1
  Ru  Ru1  1  0.99064600  0.99211000  0.01122900  1
  O  O0  1  0.10810200  0.84389900  0.19992000  1
  O  O1  1  0.87928700  0.13294500  0.80335800  1
  O  O2  1  0.49991300  0.74131300  0.67172600  1
  O  O3  1  0.50088700  0.24721400  0.35512900  1
  O  O4  1  0.23128200  0.48481500  0.84852500  1
  O  O5  1  0.75888400  0.49812600  0.17388100  1
  O  O6  1  0.14942800  0.83724100  0.83071400  1
  O  O7  1  0.82353800  0.13767300  0.18191700  1
  O  O8  1  0.20757000  0.55653100  0.34793100  1
  O  O9  1  0.80177600  0.44195000  0.66714500  1
  O  O10  1  0.59912800  0.78541300  0.97247200  1
  O  O11  1  0.37696800  0.20171500  0.05209500  1
  O  O12  1  0.17875600  0.25632800  0.59605800  1
  O  O13  1  0.83363300  0.72662300  0.43251700  1
loop_
_geom_bond_atom_site_label_1
_geom_bond_atom_site_label_2
_geom_bond_distance
_geom_bond_site_symmetry_2
Mg0 O6 2.008258 1_655
Mg0 O2 2.023908 1_555
Mg0 O13 2.035871 1_555
Mg0 O1 2.117616 1_565
Mg0 O12 2.629654 1_665
Cu0 O7 1.913356 1_455
Cu0 O12 1.922448 1_555
Cu0 O3 2.326602 1_555
O0 P2 1.516519 1_455
O0 Ru1 2.091142 1_455
O1 P3 1.539335 1_655
O1 Ru1 2.184188 1_546
O2 P0 1.560141 1_555
O2 Ru0 2.118971 1_555
O3 P1 1.545705 1_555
O3 Ru0 2.064170 1_555
O4 P3 1.605460 1_555
O4 P0 1.617593 1_555
O5 P1 1.613862 1_555
O5 P2 1.625472 1_555
O6 P0 1.552534 1_555
O6 Ru1 2.131559 1_456
O7 P1 1.568781 1_555
O7 Ru1 2.060659 1_545
O8 P2 1.510626 1_455
O8 Ru0 2.077933 1_555
O9 P3 1.500868 1_655
O9 Ru0 2.071796 1_555
O10 P0 1.499402 1_555
O10 Ru1 2.072189 1_556
O11 P1 1.510908 1_555
O11 Ru1 2.062216 1_445
O12 P3 1.583007 1_555
O12 Ru0 2.166820 1_555
O13 P2 1.585814 1_555
O13 Ru0 2.151973 1_555
