# generated using pymatgen
data_BaNb4(FeO7)2
_symmetry_space_group_name_H-M   'P 1'
_cell_length_a   8.80190387
_cell_length_b   10.11303917
_cell_length_c   9.11004344
_cell_angle_alpha   83.64568960
_cell_angle_beta   112.18499162
_cell_angle_gamma   92.10204358
_symmetry_Int_Tables_number   1
_chemical_formula_structural   BaNb4(FeO7)2
_chemical_formula_sum   'Ba2 Nb8 Fe4 O28'
_cell_volume   746.26389719
_cell_formula_units_Z   2
loop_
 _symmetry_equiv_pos_site_id
 _symmetry_equiv_pos_as_xyz
  1  'x, y, z'
loop_
 _atom_site_type_symbol
 _atom_site_label
 _atom_site_symmetry_multiplicity
 _atom_site_fract_x
 _atom_site_fract_y
 _atom_site_fract_z
 _atom_site_occupancy
  Ba  Ba0  1  0.99998300  0.00000600  0.00000400  1
  Ba  Ba1  1  0.50001700  0.49999200  0.99999800  1
  Nb  Nb0  1  0.60367400  0.10062100  0.64477300  1
  Nb  Nb1  1  0.10371500  0.60062200  0.64478100  1
  Nb  Nb2  1  0.39632100  0.89938700  0.35523900  1
  Nb  Nb3  1  0.89629700  0.39938000  0.35521600  1
  Nb  Nb4  1  0.68316000  0.85055200  0.19922600  1
  Nb  Nb5  1  0.18311400  0.35054600  0.19918300  1
  Nb  Nb6  1  0.31683500  0.14944900  0.80078200  1
  Nb  Nb7  1  0.81688500  0.64945600  0.80081100  1
  Fe  Fe0  1  0.02860600  0.66879200  0.21667300  1
  Fe  Fe1  1  0.97138600  0.33120900  0.78330600  1
  Fe  Fe2  1  0.52855500  0.16879300  0.21665500  1
  Fe  Fe3  1  0.47145700  0.83120800  0.78335600  1
  O  O0  1  0.59950400  0.07336500  0.44078600  1
  O  O1  1  0.09953600  0.57335000  0.44079300  1
  O  O2  1  0.40050000  0.92663200  0.55923800  1
  O  O3  1  0.90044900  0.42665200  0.55919000  1
  O  O4  1  0.78325500  0.20569900  0.73631400  1
  O  O5  1  0.28333800  0.70564500  0.73638700  1
  O  O6  1  0.21672800  0.79431000  0.26368400  1
  O  O7  1  0.71666600  0.29434600  0.26362700  1
  O  O8  1  0.67326400  0.95505600  0.80444400  1
  O  O9  1  0.17320400  0.45503100  0.80439900  1
  O  O10  1  0.32676000  0.04494800  0.19558700  1
  O  O11  1  0.82679900  0.54495300  0.19556700  1
  O  O12  1  0.41892000  0.20083700  0.64695700  1
  O  O13  1  0.91897300  0.70084500  0.64699600  1
  O  O14  1  0.58105500  0.79915700  0.35303700  1
  O  O15  1  0.08101400  0.29914000  0.35299000  1
  O  O16  1  0.40635200  0.32023800  0.25141400  1
  O  O17  1  0.90640300  0.82024900  0.25145300  1
  O  O18  1  0.59364800  0.67976300  0.74857100  1
  O  O19  1  0.09359200  0.17974500  0.74855000  1
  O  O20  1  0.43753200  0.23382900  0.98219500  1
  O  O21  1  0.93758300  0.73383600  0.98222200  1
  O  O22  1  0.56248800  0.76618100  0.01781100  1
  O  O23  1  0.06242800  0.26617800  0.01776400  1
  O  O24  1  0.65480400  0.03110800  0.15868700  1
  O  O25  1  0.15482100  0.53111200  0.15867100  1
  O  O26  1  0.34519600  0.96889200  0.84132900  1
  O  O27  1  0.84518200  0.46889000  0.84133600  1
loop_
_geom_bond_atom_site_label_1
_geom_bond_atom_site_label_2
_geom_bond_distance
_geom_bond_site_symmetry_2
Ba0 O21 2.737608 1_544
Ba0 O23 2.737666 1_655
Ba0 O8 2.804423 1_544
Ba0 O10 2.804861 1_655
Ba0 O4 3.075896 1_554
Ba0 O6 3.075923 1_645
Ba0 O17 3.102231 1_545
Ba0 O19 3.102310 1_654
Ba1 O20 2.737663 1_555
Ba1 O22 2.737912 1_556
Ba1 O11 2.804899 1_556
Ba1 O9 2.805184 1_555
Ba1 O7 3.075099 1_556
Ba1 O5 3.075157 1_555
Ba1 O16 3.102374 1_556
Ba1 O18 3.102380 1_555
Nb0 O4 1.844080 1_555
Nb0 O8 1.891416 1_545
Nb0 O0 1.895217 1_555
Nb0 O12 1.954953 1_555
Nb0 O2 2.433436 1_545
Nb1 O5 1.844109 1_555
Nb1 O9 1.891276 1_555
Nb1 O1 1.895239 1_555
Nb1 O13 1.955009 1_455
Nb1 O3 2.433834 1_455
Nb2 O6 1.844169 1_555
Nb2 O10 1.891275 1_565
Nb2 O2 1.895269 1_555
Nb2 O14 1.954943 1_555
Nb2 O0 2.433414 1_565
Nb3 O7 1.844192 1_555
Nb3 O11 1.891311 1_555
Nb3 O3 1.895198 1_555
Nb3 O15 1.954954 1_655
Nb3 O1 2.433678 1_655
Nb4 O24 1.829591 1_565
Nb4 O17 1.867413 1_555
Nb4 O22 1.872853 1_555
Nb4 O14 1.948543 1_555
Nb5 O25 1.829627 1_555
Nb5 O16 1.867374 1_555
Nb5 O23 1.872890 1_555
Nb5 O15 1.948499 1_555
Nb6 O26 1.829608 1_545
Nb6 O19 1.867393 1_555
Nb6 O20 1.872936 1_555
Nb6 O12 1.948514 1_555
Nb7 O27 1.829635 1_555
Nb7 O18 1.867350 1_555
Nb7 O21 1.872925 1_555
Nb7 O13 1.948456 1_555
Fe0 O6 1.991756 1_555
Fe0 O21 2.017882 1_454
Fe0 O17 2.022149 1_455
Fe0 O1 2.033581 1_555
Fe0 O25 2.042473 1_555
Fe0 O11 2.095905 1_455
Fe1 O4 1.991768 1_555
Fe1 O23 2.017909 1_656
Fe1 O19 2.022125 1_655
Fe1 O3 2.033551 1_555
Fe1 O27 2.042553 1_555
Fe1 O9 2.095902 1_655
Fe2 O7 1.991919 1_555
Fe2 O20 2.017935 1_554
Fe2 O16 2.021968 1_555
Fe2 O0 2.033603 1_555
Fe2 O24 2.042542 1_555
Fe2 O10 2.095913 1_555
Fe3 O5 1.992035 1_555
Fe3 O22 2.017876 1_556
Fe3 O18 2.022007 1_555
Fe3 O2 2.033485 1_555
Fe3 O26 2.042630 1_555
Fe3 O8 2.095985 1_555
