# generated using pymatgen
data_Li3VCrP2(HO5)2
_symmetry_space_group_name_H-M   'P 1'
_cell_length_a   5.22824300
_cell_length_b   5.57622197
_cell_length_c   7.53242272
_cell_angle_alpha   110.89997842
_cell_angle_beta   106.99775479
_cell_angle_gamma   94.91723561
_symmetry_Int_Tables_number   1
_chemical_formula_structural   Li3VCrP2(HO5)2
_chemical_formula_sum   'Li3 V1 Cr1 P2 H2 O10'
_cell_volume   191.70048333
_cell_formula_units_Z   1
loop_
 _symmetry_equiv_pos_site_id
 _symmetry_equiv_pos_as_xyz
  1  'x, y, z'
loop_
 _atom_site_type_symbol
 _atom_site_label
 _atom_site_symmetry_multiplicity
 _atom_site_fract_x
 _atom_site_fract_y
 _atom_site_fract_z
 _atom_site_occupancy
  Li  Li0  1  0.23488900  0.60368300  0.82843400  1
  Li  Li1  1  0.77459400  0.40775100  0.26054300  1
  Li  Li2  1  0.48014400  0.14934300  0.15632600  1
  V  V0  1  0.98943900  0.99609800  0.50717900  1
  Cr  Cr0  1  0.00283000  0.00019900  0.99153000  1
  P  P0  1  0.34328500  0.63812300  0.22244300  1
  P  P1  1  0.66230100  0.36676400  0.75526800  1
  H  H0  1  0.66488400  0.91092000  0.34803000  1
  H  H1  1  0.35333400  0.06184300  0.66315900  1
  O  O0  1  0.16345800  0.95103500  0.73001100  1
  O  O1  1  0.28015000  0.78797900  0.36602600  1
  O  O2  1  0.66201600  0.65477500  0.66620500  1
  O  O3  1  0.64903700  0.75212500  0.06694200  1
  O  O4  1  0.13484400  0.66594000  0.11196700  1
  O  O5  1  0.86405600  0.32412200  0.87182600  1
  O  O6  1  0.36041700  0.23981500  0.92839800  1
  O  O7  1  0.33093800  0.34597300  0.32444900  1
  O  O8  1  0.71636900  0.23932400  0.59775300  1
  O  O9  1  0.82893000  0.05511200  0.26164200  1
loop_
_geom_bond_atom_site_label_1
_geom_bond_atom_site_label_2
_geom_bond_distance
_geom_bond_site_symmetry_2
Li0 O3 2.226768 1_556
Li0 O4 2.260654 1_556
Li0 O0 2.329671 1_555
Li0 O6 2.478700 1_555
Li1 O9 2.013325 1_555
Li2 O7 1.774256 1_555
Li2 O6 1.907272 1_554
Li2 O9 1.961271 1_555
Cr0 O0 2.298304 1_545
Cr0 Li2 2.357248 1_556
Cr0 O5 2.367738 1_455
Cr0 O9 2.396821 1_456
Cr0 O4 2.415443 1_546
Cr0 O6 2.459990 1_555
Cr0 O2 2.526080 1_445
Cr0 O3 2.528629 1_446
Cr0 O7 2.533171 1_556
Cr0 Li0 2.695059 1_545
H0 O9 1.544956 1_565
H0 V0 1.675787 1_555
H1 O0 1.424765 1_545
H1 V0 1.844082 1_445
O0 O6 1.727912 1_565
O0 V0 1.776350 1_455
O1 P0 1.260214 1_555
O1 V0 2.270293 1_455
O2 P1 1.948811 1_555
O3 O9 1.744468 1_565
O4 P0 1.222709 1_555
O5 P1 1.261151 1_555
O8 P1 1.273415 1_555
O8 V0 2.141135 1_545
O9 V0 1.951221 1_545
