# generated using pymatgen
data_Ti7Fe13O30
_symmetry_space_group_name_H-M   'P 1'
_cell_length_a   5.14558200
_cell_length_b   5.55016346
_cell_length_c   21.40908975
_cell_angle_alpha   94.74825581
_cell_angle_beta   90.03972873
_cell_angle_gamma   117.46291184
_symmetry_Int_Tables_number   1
_chemical_formula_structural   Ti7Fe13O30
_chemical_formula_sum   'Ti7 Fe13 O30'
_cell_volume   540.13289063
_cell_formula_units_Z   1
loop_
 _symmetry_equiv_pos_site_id
 _symmetry_equiv_pos_as_xyz
  1  'x, y, z'
loop_
 _atom_site_type_symbol
 _atom_site_label
 _atom_site_symmetry_multiplicity
 _atom_site_fract_x
 _atom_site_fract_y
 _atom_site_fract_z
 _atom_site_occupancy
  Ti  Ti0  1  0.20720900  0.40844900  0.03057200  1
  Ti  Ti1  1  0.90189500  0.81699500  0.13560700  1
  Ti  Ti2  1  0.01360600  0.01330200  0.43466200  1
  Ti  Ti3  1  0.30378700  0.60563700  0.32923900  1
  Ti  Ti4  1  0.39577500  0.80933100  0.62744100  1
  Ti  Ti5  1  0.80648800  0.61009000  0.82782800  1
  Ti  Ti6  1  0.10950300  0.20681300  0.72846900  1
  Fe  Fe0  1  0.49626100  0.99240100  0.06999100  1
  Fe  Fe1  1  0.59609900  0.20002000  0.22889000  1
  Fe  Fe2  1  0.89328300  0.78541700  0.27361500  1
  Fe  Fe3  1  0.19551600  0.40073100  0.17102000  1
  Fe  Fe4  1  0.30635900  0.59679500  0.47031600  1
  Fe  Fe5  1  0.59961400  0.18791600  0.36912500  1
  Fe  Fe6  1  0.69017100  0.39897400  0.67041800  1
  Fe  Fe7  1  0.69674700  0.39835200  0.52799400  1
  Fe  Fe8  1  0.99446200  0.98845700  0.57200600  1
  Fe  Fe9  1  0.10101000  0.20007700  0.87076900  1
  Fe  Fe10  1  0.40114400  0.79753900  0.77190300  1
  Fe  Fe11  1  0.50083200  0.00654300  0.92803300  1
  Fe  Fe12  1  0.79742000  0.59927100  0.97085300  1
  O  O0  1  0.24033000  0.17281100  0.08432100  1
  O  O1  1  0.74899900  0.09230800  0.14573100  1
  O  O2  1  0.79476400  0.24412100  0.01178900  1
  O  O3  1  0.64332100  0.56741700  0.18466200  1
  O  O4  1  0.65427300  0.70114100  0.05279100  1
  O  O5  1  0.62370900  0.94188500  0.29058000  1
  O  O6  1  0.15613100  0.66074600  0.10700500  1
  O  O7  1  0.14621000  0.89517300  0.35198000  1
  O  O8  1  0.14830200  0.02001400  0.20993400  1
  O  O9  1  0.03186500  0.36667900  0.38323200  1
  O  O10  1  0.05891300  0.50609900  0.25660400  1
  O  O11  1  0.02001100  0.75968900  0.48413000  1
  O  O12  1  0.54797800  0.43863200  0.31167500  1
  O  O13  1  0.55147200  0.71305700  0.55689200  1
  O  O14  1  0.60318700  0.85456200  0.40716000  1
  O  O15  1  0.42107200  0.14645300  0.58969000  1
  O  O16  1  0.44068900  0.28471400  0.44404100  1
  O  O17  1  0.40200800  0.57182400  0.68692000  1
  O  O18  1  0.97314100  0.21850900  0.50782900  1
  O  O19  1  0.92330400  0.48012000  0.75689500  1
  O  O20  1  0.99768900  0.64550500  0.60796600  1
  O  O21  1  0.85996300  0.96329900  0.78460100  1
  O  O22  1  0.86482500  0.09415800  0.65390400  1
  O  O23  1  0.81367400  0.36843400  0.88955200  1
  O  O24  1  0.34111300  0.04262500  0.70901000  1
  O  O25  1  0.35091800  0.30673700  0.95896400  1
  O  O26  1  0.40364700  0.43966900  0.80794100  1
  O  O27  1  0.23405300  0.76019700  0.98919500  1
  O  O28  1  0.24486000  0.88838100  0.85445200  1
  O  O29  1  0.75239800  0.83192800  0.91180300  1
loop_
_geom_bond_atom_site_label_1
_geom_bond_atom_site_label_2
_geom_bond_distance
_geom_bond_site_symmetry_2
Fe0 O1 1.952221 1_565
Fe0 O0 1.999234 1_565
Fe0 O2 2.043358 1_565
Fe0 O6 2.085985 1_555
Fe0 O27 2.120683 1_554
Fe0 O4 2.126976 1_555
Fe1 O8 2.068905 1_555
Fe1 O5 2.077943 1_545
Fe1 O1 2.098954 1_555
Fe1 O12 2.207007 1_555
Fe1 O3 2.230826 1_555
Fe1 O10 2.238069 1_655
Fe2 O5 1.967157 1_555
Fe2 O7 1.994031 1_655
Fe2 O8 1.999113 1_665
Fe2 O10 2.094729 1_655
Fe2 O12 2.152407 1_555
Fe2 O3 2.219179 1_555
Fe3 O3 2.058821 1_555
Fe3 O10 2.096864 1_555
Fe3 O6 2.144473 1_555
Fe3 O1 2.172449 1_455
Fe3 O0 2.231497 1_555
Fe3 O8 2.244166 1_555
Fe4 O11 2.064179 1_555
Fe4 O13 2.119135 1_555
Fe4 O14 2.124960 1_555
Fe4 O16 2.176666 1_555
Fe4 O18 2.225686 1_455
Fe4 O9 2.245079 1_555
Fe5 O16 1.947869 1_555
Fe5 O9 1.984101 1_655
Fe5 O12 2.035583 1_555
Fe5 O14 2.089813 1_545
Fe5 O5 2.117543 1_545
Fe5 O7 2.149749 1_545
Fe6 O19 2.104782 1_555
Fe6 O20 2.114843 1_555
Fe6 O17 2.121414 1_555
Fe6 O15 2.162028 1_555
Fe6 O24 2.194633 1_555
Fe6 O22 2.257990 1_555
Fe7 O15 2.047092 1_555
Fe7 O16 2.099247 1_555
Fe7 O18 2.108136 1_555
Fe7 O20 2.204370 1_555
Fe7 O11 2.215354 1_655
Fe7 O13 2.240183 1_555
Fe8 O15 1.974697 1_665
Fe8 O18 1.987347 1_565
Fe8 O22 2.013873 1_565
Fe8 O13 2.083362 1_555
Fe8 O20 2.118443 1_555
Fe8 O11 2.219845 1_655
Fe9 O26 2.095619 1_555
Fe9 O23 2.105634 1_455
Fe9 O25 2.163028 1_555
Fe9 O28 2.178089 1_545
Fe9 O21 2.181898 1_445
Fe9 O29 2.254606 1_445
Fe10 O28 2.062199 1_555
Fe10 O21 2.109136 1_555
Fe10 O24 2.109256 1_565
Fe10 O17 2.123079 1_555
Fe10 O26 2.194964 1_555
Fe10 O19 2.272075 1_455
Fe11 O28 1.917253 1_545
Fe11 O29 1.958966 1_545
Fe11 O27 2.009013 1_545
Fe11 O23 2.144270 1_555
Fe11 O25 2.193861 1_555
Fe11 O2 2.237610 1_556
Fe12 O29 1.965979 1_555
Fe12 O27 2.022270 1_655
Fe12 O4 2.039902 1_556
Fe12 O23 2.099498 1_555
Fe12 O25 2.114150 1_555
Fe12 O2 2.216942 1_556
O0 Ti0 1.875653 1_555
O0 Ti1 2.308202 1_445
O1 Ti1 2.013712 1_545
O2 Ti0 1.910590 1_655
O3 Ti1 1.826166 1_555
O4 Ti1 2.057419 1_555
O4 Ti0 2.140293 1_555
O5 Ti3 2.074068 1_555
O6 Ti1 1.948835 1_455
O6 Ti0 2.160617 1_555
O7 Ti2 2.061795 1_565
O7 Ti3 2.132991 1_555
O8 Ti1 1.947312 1_445
O9 Ti3 1.896671 1_555
O9 Ti2 2.292506 1_555
O10 Ti3 1.877242 1_555
O11 Ti2 1.842163 1_565
O12 Ti3 1.896452 1_555
O13 Ti4 1.863208 1_555
O14 Ti2 1.943978 1_665
O14 Ti3 2.171823 1_555
O15 Ti4 2.048650 1_545
O16 Ti2 2.008698 1_555
O17 Ti4 1.917564 1_555
O17 Ti6 2.156055 1_555
O18 Ti2 1.928230 1_655
O19 Ti5 1.845988 1_555
O19 Ti6 2.185811 1_655
O20 Ti4 1.847874 1_655
O21 Ti6 1.894713 1_665
O21 Ti5 2.139718 1_555
O22 Ti6 1.905344 1_655
O22 Ti4 2.230666 1_545
O23 Ti5 1.971195 1_555
O24 Ti6 1.834069 1_555
O24 Ti4 2.183470 1_545
O25 Ti0 1.859863 1_556
O26 Ti5 1.869856 1_555
O26 Ti6 2.164282 1_555
O27 Ti0 2.157052 1_556
O28 Ti5 2.106566 1_455
O29 Ti5 2.185383 1_555
