# generated using pymatgen
data_EuGaO3
_symmetry_space_group_name_H-M   'P 1'
_cell_length_a   5.46364800
_cell_length_b   5.62363700
_cell_length_c   7.68606100
_cell_angle_alpha   90.00000000
_cell_angle_beta   90.00000000
_cell_angle_gamma   90.00000000
_symmetry_Int_Tables_number   1
_chemical_formula_structural   EuGaO3
_chemical_formula_sum   'Eu4 Ga4 O12'
_cell_volume   236.15862871
_cell_formula_units_Z   4
loop_
 _symmetry_equiv_pos_site_id
 _symmetry_equiv_pos_as_xyz
  1  'x, y, z'
loop_
 _atom_site_type_symbol
 _atom_site_label
 _atom_site_symmetry_multiplicity
 _atom_site_fract_x
 _atom_site_fract_y
 _atom_site_fract_z
 _atom_site_occupancy
  Eu  Eu0  1  0.01025400  0.44692700  0.25000000  1
  Eu  Eu1  1  0.98974600  0.55307300  0.75000000  1
  Eu  Eu2  1  0.51025400  0.05307300  0.75000000  1
  Eu  Eu3  1  0.48974600  0.94692700  0.25000000  1
  Ga  Ga0  1  0.00000000  0.00000000  0.00000000  1
  Ga  Ga1  1  0.50000000  0.50000000  0.00000000  1
  Ga  Ga2  1  0.00000000  0.00000000  0.50000000  1
  Ga  Ga3  1  0.50000000  0.50000000  0.50000000  1
  O  O0  1  0.29763000  0.20048500  0.04500500  1
  O  O1  1  0.70237000  0.79951500  0.95499500  1
  O  O2  1  0.79763000  0.29951500  0.95499500  1
  O  O3  1  0.70237000  0.79951500  0.54500500  1
  O  O4  1  0.20237000  0.70048500  0.04500500  1
  O  O5  1  0.29763000  0.20048500  0.45499500  1
  O  O6  1  0.20237000  0.70048500  0.45499500  1
  O  O7  1  0.79763000  0.29951500  0.54500500  1
  O  O8  1  0.58755400  0.52693300  0.25000000  1
  O  O9  1  0.41244600  0.47306700  0.75000000  1
  O  O10  1  0.08755400  0.97306700  0.75000000  1
  O  O11  1  0.91244600  0.02693300  0.25000000  1
loop_
_geom_bond_atom_site_label_1
_geom_bond_atom_site_label_2
_geom_bond_distance
_geom_bond_site_symmetry_2
Eu0 O8 2.352902 1_455
Eu0 O4 2.370136 1_555
Eu0 O6 2.370136 1_555
Eu0 O11 2.421593 1_455
Eu0 O5 2.620788 1_555
Eu0 O0 2.620788 1_555
Eu0 O2 2.679179 1_454
Eu0 O7 2.679179 1_455
Eu1 O9 2.352902 1_655
Eu1 O2 2.370136 1_555
Eu1 O7 2.370136 1_555
Eu1 O10 2.421593 1_655
Eu1 O3 2.620788 1_555
Eu1 O1 2.620788 1_555
Eu1 O6 2.679179 1_655
Eu1 O4 2.679179 1_656
Eu2 O10 2.352902 1_545
Eu2 O1 2.370136 1_545
Eu2 O3 2.370136 1_545
Eu2 O9 2.421593 1_555
Eu2 O7 2.620788 1_555
Eu2 O2 2.620788 1_555
Eu2 O0 2.679179 1_556
Eu2 O5 2.679179 1_555
Eu3 O11 2.352902 1_565
Eu3 O5 2.370136 1_565
Eu3 O0 2.370136 1_565
Eu3 O8 2.421593 1_555
Eu3 O6 2.620788 1_555
Eu3 O4 2.620788 1_555
Eu3 O3 2.679179 1_555
Eu3 O1 2.679179 1_554
Ga0 O11 1.985949 1_455
Ga0 O10 1.985949 1_544
Ga0 O1 2.008770 1_444
Ga0 O0 2.008770 1_555
Ga0 O2 2.044324 1_454
Ga0 O4 2.044324 1_545
Ga1 O8 1.985949 1_555
Ga1 O9 1.985949 1_554
Ga1 O2 2.008770 1_554
Ga1 O4 2.008770 1_555
Ga1 O0 2.044324 1_555
Ga1 O1 2.044324 1_554
Ga2 O11 1.985949 1_455
Ga2 O10 1.985949 1_545
Ga2 O3 2.008770 1_445
Ga2 O5 2.008770 1_555
Ga2 O7 2.044324 1_455
Ga2 O6 2.044324 1_545
Ga3 O8 1.985949 1_555
Ga3 O9 1.985949 1_555
Ga3 O7 2.008770 1_555
Ga3 O6 2.008770 1_555
Ga3 O5 2.044324 1_555
Ga3 O3 2.044324 1_555
