# generated using pymatgen
data_DyB2C
_symmetry_space_group_name_H-M   'P 1'
_cell_length_a   6.78341103
_cell_length_b   6.78341103
_cell_length_c   7.46217870
_cell_angle_alpha   90.00000000
_cell_angle_beta   90.00000000
_cell_angle_gamma   90.00000000
_symmetry_Int_Tables_number   1
_chemical_formula_structural   DyB2C
_chemical_formula_sum   'Dy8 B16 C8'
_cell_volume   343.36965456
_cell_formula_units_Z   8
loop_
 _symmetry_equiv_pos_site_id
 _symmetry_equiv_pos_as_xyz
  1  'x, y, z'
loop_
 _atom_site_type_symbol
 _atom_site_label
 _atom_site_symmetry_multiplicity
 _atom_site_fract_x
 _atom_site_fract_y
 _atom_site_fract_z
 _atom_site_occupancy
  Dy  Dy0  1  0.30920595  0.80920595  0.75000000  1
  Dy  Dy1  1  0.19079405  0.30920595  0.25000000  1
  Dy  Dy2  1  0.80920595  0.69079405  0.25000000  1
  Dy  Dy3  1  0.69079405  0.19079405  0.75000000  1
  Dy  Dy4  1  0.69079405  0.19079405  0.25000000  1
  Dy  Dy5  1  0.80920595  0.69079405  0.75000000  1
  Dy  Dy6  1  0.19079405  0.30920595  0.75000000  1
  Dy  Dy7  1  0.30920595  0.80920595  0.25000000  1
  B  B0  1  0.15137515  0.03431106  -0.00000000  1
  B  B1  1  0.53431106  0.65137515  0.50000000  1
  B  B2  1  0.84862485  0.96568894  0.00000000  1
  B  B3  1  0.34862485  0.53431106  0.00000000  1
  B  B4  1  0.65137515  0.46568894  -0.00000000  1
  B  B5  1  0.03431106  0.84862485  0.50000000  1
  B  B6  1  0.96568894  0.15137515  0.50000000  1
  B  B7  1  0.46568894  0.34862485  0.50000000  1
  B  B8  1  0.09744177  0.59471541  0.00000000  1
  B  B9  1  0.40528459  0.09744177  0.50000000  1
  B  B10  1  0.59471541  0.90255823  0.50000000  1
  B  B11  1  0.59744177  0.90528459  0.00000000  1
  B  B12  1  0.40255823  0.09471541  -0.00000000  1
  B  B13  1  0.90255823  0.40528459  -0.00000000  1
  B  B14  1  0.09471541  0.59744177  0.50000000  1
  B  B15  1  0.90528459  0.40255823  0.50000000  1
  C  C0  1  0.17751877  0.04074441  0.50000000  1
  C  C1  1  0.67751877  0.45925559  0.50000000  1
  C  C2  1  0.32248123  0.54074441  0.50000000  1
  C  C3  1  0.95925559  0.17751877  -0.00000000  1
  C  C4  1  0.04074441  0.82248123  0.00000000  1
  C  C5  1  0.54074441  0.67751877  -0.00000000  1
  C  C6  1  0.82248123  0.95925559  0.50000000  1
  C  C7  1  0.45925559  0.32248123  0.00000000  1
loop_
_geom_bond_atom_site_label_1
_geom_bond_atom_site_label_2
_geom_bond_distance
_geom_bond_site_symmetry_2
B0 C4 1.621094 1_545
B0 C3 1.625450 1_455
B0 Dy7 2.637836 1_545
B0 Dy0 2.637836 1_544
B0 Dy1 2.651218 1_555
B0 Dy6 2.651218 1_554
B1 C2 1.621094 1_555
B1 C1 1.625450 1_555
B1 Dy7 2.637836 1_555
B1 Dy0 2.637836 1_555
B1 Dy5 2.651218 1_555
B1 Dy2 2.651218 1_555
B2 C3 1.621094 1_565
B2 C4 1.625450 1_655
B2 Dy3 2.637836 1_564
B2 Dy4 2.637836 1_565
B2 Dy2 2.651218 1_555
B2 Dy5 2.651218 1_554
B3 C7 1.621094 1_555
B3 C5 1.625450 1_555
B3 Dy6 2.637836 1_554
B3 Dy1 2.637836 1_555
B3 Dy7 2.651218 1_555
B3 Dy0 2.651218 1_554
B4 C5 1.621094 1_555
B4 C7 1.625450 1_555
B4 Dy5 2.637836 1_554
B4 Dy2 2.637836 1_555
B4 Dy4 2.651218 1_555
B4 Dy3 2.651218 1_554
B5 C6 1.621094 1_455
B5 C0 1.625450 1_565
B5 Dy2 2.637836 1_455
B5 Dy5 2.637836 1_455
B5 Dy7 2.651218 1_555
B5 Dy0 2.651218 1_555
B6 C0 1.621094 1_655
B6 C6 1.625450 1_545
B6 Dy1 2.637836 1_655
B6 Dy6 2.637836 1_655
B6 Dy4 2.651218 1_555
B6 Dy3 2.651218 1_555
B7 C1 1.621094 1_555
B7 C2 1.625450 1_555
B7 Dy3 2.637836 1_555
B7 Dy4 2.637836 1_555
B7 Dy1 2.651218 1_555
B7 Dy6 2.651218 1_555
B8 C4 1.592179 1_555
B8 Dy6 2.762639 1_554
B8 Dy1 2.762639 1_555
B8 Dy7 2.767797 1_555
B8 Dy0 2.767797 1_554
B8 Dy2 2.779913 1_455
B8 Dy5 2.779913 1_454
B9 C0 1.592179 1_555
B9 Dy3 2.762639 1_555
B9 Dy4 2.762639 1_555
B9 Dy1 2.767797 1_555
B9 Dy6 2.767797 1_555
B9 Dy7 2.779913 1_545
B9 Dy0 2.779913 1_545
B10 C6 1.592179 1_555
B10 Dy0 2.762639 1_555
B10 Dy7 2.762639 1_555
B10 Dy5 2.767797 1_555
B10 Dy2 2.767797 1_555
B10 Dy4 2.779913 1_565
B10 Dy3 2.779913 1_565
B11 C5 1.592179 1_555
B11 Dy4 2.762639 1_565
B11 Dy3 2.762639 1_564
B11 Dy5 2.767797 1_554
B11 Dy2 2.767797 1_555
B11 Dy0 2.779913 1_554
B11 Dy7 2.779913 1_555
B12 C7 1.592179 1_555
B12 Dy0 2.762639 1_544
B12 Dy7 2.762639 1_545
B12 Dy1 2.767797 1_555
B12 Dy6 2.767797 1_554
B12 Dy3 2.779913 1_554
B12 Dy4 2.779913 1_555
B13 C3 1.592179 1_555
B13 Dy5 2.762639 1_554
B13 Dy2 2.762639 1_555
B13 Dy4 2.767797 1_555
B13 Dy3 2.767797 1_554
B13 Dy6 2.779913 1_654
B13 Dy1 2.779913 1_655
B14 C2 1.592179 1_555
B14 Dy2 2.762639 1_455
B14 Dy5 2.762639 1_455
B14 Dy0 2.767797 1_555
B14 Dy7 2.767797 1_555
B14 Dy6 2.779913 1_555
B14 Dy1 2.779913 1_555
B15 C1 1.592179 1_555
B15 Dy1 2.762639 1_655
B15 Dy6 2.762639 1_655
B15 Dy4 2.767797 1_555
B15 Dy3 2.767797 1_555
B15 Dy5 2.779913 1_555
B15 Dy2 2.779913 1_555
C0 Dy7 2.597127 1_545
C0 Dy0 2.597127 1_545
C0 Dy1 2.608585 1_555
C0 Dy6 2.608585 1_555
C1 Dy5 2.597127 1_555
C1 Dy2 2.597127 1_555
C1 Dy3 2.608585 1_555
C1 Dy4 2.608585 1_555
C2 Dy1 2.597127 1_555
C2 Dy6 2.597127 1_555
C2 Dy0 2.608585 1_555
C2 Dy7 2.608585 1_555
C3 Dy6 2.597127 1_654
C3 Dy1 2.597127 1_655
C3 Dy3 2.608585 1_554
C3 Dy4 2.608585 1_555
C4 Dy5 2.597127 1_454
C4 Dy2 2.597127 1_455
C4 Dy7 2.608585 1_555
C4 Dy0 2.608585 1_554
C5 Dy0 2.597127 1_554
C5 Dy7 2.597127 1_555
C5 Dy5 2.608585 1_554
C5 Dy2 2.608585 1_555
C6 Dy3 2.597127 1_565
C6 Dy4 2.597127 1_565
C6 Dy2 2.608585 1_555
C6 Dy5 2.608585 1_555
C7 Dy3 2.597127 1_554
C7 Dy4 2.597127 1_555
C7 Dy1 2.608585 1_555
C7 Dy6 2.608585 1_554
