# generated using pymatgen
data_Li4MnCo2O7
_symmetry_space_group_name_H-M   'P 1'
_cell_length_a   2.97135100
_cell_length_b   5.96498089
_cell_length_c   14.30182062
_cell_angle_alpha   82.92714538
_cell_angle_beta   84.52666621
_cell_angle_gamma   85.90817477
_symmetry_Int_Tables_number   1
_chemical_formula_structural   Li4MnCo2O7
_chemical_formula_sum   'Li8 Mn2 Co4 O14'
_cell_volume   249.95403459
_cell_formula_units_Z   2
loop_
 _symmetry_equiv_pos_site_id
 _symmetry_equiv_pos_as_xyz
  1  'x, y, z'
loop_
 _atom_site_type_symbol
 _atom_site_label
 _atom_site_symmetry_multiplicity
 _atom_site_fract_x
 _atom_site_fract_y
 _atom_site_fract_z
 _atom_site_occupancy
  Li  Li0  1  0.00541600  0.49648900  0.99525600  1
  Li  Li1  1  0.57724700  0.79622600  0.85227700  1
  Li  Li2  1  0.13884700  0.07612500  0.71984500  1
  Li  Li3  1  0.42657200  0.21123700  0.14344000  1
  Li  Li4  1  0.85762200  0.92870000  0.28632200  1
  Li  Li5  1  0.28409200  0.64412000  0.43137000  1
  Li  Li6  1  0.71252500  0.35689900  0.57251600  1
  Li  Li7  1  0.56610500  0.27791800  0.85319100  1
  Mn  Mn0  1  0.00612100  0.00734000  0.99465600  1
  Mn  Mn1  1  0.85669700  0.42784900  0.28619700  1
  Co  Co0  1  0.13602400  0.56137500  0.72027700  1
  Co  Co1  1  0.71526800  0.85717600  0.57324000  1
  Co  Co2  1  0.28285900  0.13900500  0.43029800  1
  Co  Co3  1  0.43943800  0.71838500  0.14295700  1
  O  O0  1  0.52153700  0.77639900  0.00542000  1
  O  O1  1  0.06063900  0.02973500  0.86694600  1
  O  O2  1  0.61443800  0.34198700  0.71294700  1
  O  O3  1  0.90064700  0.47729000  0.14519400  1
  O  O4  1  0.32365600  0.18139800  0.29249800  1
  O  O5  1  0.75521400  0.90007400  0.43667100  1
  O  O6  1  0.18337300  0.61838000  0.58236300  1
  O  O7  1  0.47734400  0.21994000  0.99987800  1
  O  O8  1  0.08018800  0.54317100  0.84313800  1
  O  O9  1  0.67049200  0.81003400  0.70716300  1
  O  O10  1  0.96310000  0.95187900  0.13669900  1
  O  O11  1  0.38847700  0.67460100  0.27924000  1
  O  O12  1  0.81261100  0.38172700  0.42519000  1
  O  O13  1  0.24345300  0.09454000  0.56481000  1
loop_
_geom_bond_atom_site_label_1
_geom_bond_atom_site_label_2
_geom_bond_distance
_geom_bond_site_symmetry_2
Li0 O7 2.086298 1_555
Li0 O3 2.127365 1_456
Li0 O0 2.133868 1_456
Li0 O8 2.151143 1_555
Li0 O7 2.347417 1_455
Li0 O0 2.372437 1_556
Li1 O1 2.011421 1_565
Li1 O8 2.053839 1_655
Li1 O9 2.059679 1_555
Li1 O1 2.112371 1_665
Li1 O0 2.169864 1_556
Li1 O8 2.209183 1_555
Li2 O1 2.080661 1_555
Li2 O2 2.142623 1_455
Li2 O9 2.169347 1_545
Li2 O2 2.185492 1_555
Li2 O13 2.199646 1_555
Li2 O9 2.218816 1_445
Li3 O7 2.038837 1_554
Li3 O4 2.111808 1_555
Li3 O10 2.144681 1_545
Li3 O3 2.147012 1_455
Li3 O10 2.159935 1_445
Li3 O3 2.199785 1_555
Li4 O11 2.112293 1_655
Li4 O4 2.112328 1_565
Li4 O10 2.121749 1_555
Li4 O5 2.130156 1_555
Li4 O4 2.133402 1_665
Li4 O11 2.148739 1_555
Li5 O5 2.114161 1_455
Li5 O6 2.139647 1_555
Li5 O12 2.140230 1_555
Li5 O11 2.155222 1_555
Li5 O5 2.156418 1_555
Li5 O12 2.188789 1_455
Li6 O2 1.993651 1_555
Li6 O12 2.088026 1_555
Li6 O6 2.141630 1_555
Li6 O13 2.146388 1_655
Li6 O13 2.187908 1_555
Li6 O6 2.193863 1_655
Li7 O2 1.988417 1_555
Li7 O1 2.015569 1_655
Li7 O8 2.065509 1_555
Li7 O7 2.078246 1_555
Li7 O1 2.162241 1_555
Li7 O8 2.259300 1_655
Mn0 O1 1.807400 1_555
Mn0 O7 1.949101 1_455
Mn0 O7 1.967471 1_555
Mn0 O0 1.989592 1_546
Mn0 O10 2.010886 1_446
Mn0 O0 2.045274 1_446
Mn1 O4 1.947957 1_655
Mn1 O11 1.951917 1_555
Mn1 O12 1.966011 1_555
Mn1 O3 1.994869 1_555
Mn1 O11 2.222360 1_655
Mn1 O4 2.224918 1_555
Co0 O8 1.739774 1_555
Co0 O2 1.866596 1_555
Co0 O6 1.953097 1_555
Co0 O9 1.958771 1_455
Co0 O2 2.116527 1_455
Co0 O9 2.228915 1_555
Co1 O9 1.894572 1_555
Co1 O6 1.920079 1_655
Co1 O13 1.921344 1_565
Co1 O5 1.931716 1_555
Co1 O13 2.172855 1_665
Co1 O6 2.186311 1_555
Co2 O13 1.902825 1_555
Co2 O5 1.927798 1_545
Co2 O12 1.938722 1_455
Co2 O4 1.949033 1_555
Co2 O5 2.181111 1_445
Co2 O12 2.203754 1_555
Co3 O3 1.913908 1_555
Co3 O10 1.913968 1_455
Co3 O11 1.927198 1_555
Co3 O0 1.949704 1_555
Co3 O10 2.149642 1_555
Co3 O3 2.222544 1_455
