# generated using pymatgen
data_MgAl
_symmetry_space_group_name_H-M   'P 1'
_cell_length_a   5.98767256
_cell_length_b   5.98767193
_cell_length_c   9.70296598
_cell_angle_alpha   90.00000000
_cell_angle_beta   90.00000000
_cell_angle_gamma   119.99999241
_symmetry_Int_Tables_number   1
_chemical_formula_structural   MgAl
_chemical_formula_sum   'Mg8 Al8'
_cell_volume   301.26675760
_cell_formula_units_Z   8
loop_
 _symmetry_equiv_pos_site_id
 _symmetry_equiv_pos_as_xyz
  1  'x, y, z'
loop_
 _atom_site_type_symbol
 _atom_site_label
 _atom_site_symmetry_multiplicity
 _atom_site_fract_x
 _atom_site_fract_y
 _atom_site_fract_z
 _atom_site_occupancy
  Mg  Mg0_0  1  0.00000000  0.00000000  0.25000000  1
  Mg  Mg0_1  1  0.00000000  0.00000000  0.75000000  1
  Mg  Mg0_2  1  0.00000000  0.50000000  0.25000000  1
  Mg  Mg0_3  1  0.00000000  0.50000000  0.75000000  1
  Mg  Mg0_4  1  0.50000000  0.00000000  0.25000000  1
  Mg  Mg0_5  1  0.50000000  0.00000000  0.75000000  1
  Mg  Mg0_6  1  0.50000000  0.50000000  0.25000000  1
  Mg  Mg0_7  1  0.50000000  0.50000000  0.75000000  1
  Al  Al0_0  1  0.16666650  0.33333350  0.00000000  1
  Al  Al0_1  1  0.16666650  0.33333350  0.50000000  1
  Al  Al0_2  1  0.16666650  0.83333350  0.00000000  1
  Al  Al0_3  1  0.16666650  0.83333350  0.50000000  1
  Al  Al0_4  1  0.66666650  0.33333350  0.00000000  1
  Al  Al0_5  1  0.66666650  0.33333350  0.50000000  1
  Al  Al0_6  1  0.66666650  0.83333350  0.00000000  1
  Al  Al0_7  1  0.66666650  0.83333350  0.50000000  1
loop_
_geom_bond_atom_site_label_1
_geom_bond_atom_site_label_2
_geom_bond_distance
_geom_bond_site_symmetry_2
Mg0_0 Mg0_2 2.993836 1_555
Mg0_0 Mg0_2 2.993836 1_545
Mg0_0 Mg0_4 2.993836 1_555
Mg0_0 Mg0_4 2.993836 1_455
Mg0_0 Mg0_6 2.993836 1_555
Mg0_0 Mg0_6 2.993836 1_445
Mg0_1 Mg0_3 2.993836 1_545
Mg0_1 Mg0_3 2.993836 1_555
Mg0_1 Mg0_5 2.993836 1_555
Mg0_1 Mg0_5 2.993836 1_455
Mg0_1 Mg0_7 2.993836 1_555
Mg0_1 Mg0_7 2.993836 1_445
Mg0_2 Mg0_6 2.993836 1_555
Mg0_2 Mg0_6 2.993836 1_455
Mg0_2 Mg0_4 2.993836 1_565
Mg0_2 Mg0_4 2.993836 1_455
Mg0_3 Mg0_7 2.993836 1_555
Mg0_3 Mg0_7 2.993836 1_455
Mg0_3 Mg0_5 2.993836 1_565
Mg0_3 Mg0_5 2.993836 1_455
Mg0_4 Mg0_6 2.993836 1_545
Mg0_4 Mg0_6 2.993836 1_555
Mg0_5 Mg0_7 2.993836 1_555
Mg0_5 Mg0_7 2.993836 1_545
Al0_0 Mg0_2 2.978574 1_555
Al0_0 Mg0_3 2.978574 1_554
Al0_0 Mg0_0 2.978575 1_555
Al0_0 Mg0_1 2.978575 1_554
Al0_0 Mg0_6 2.978575 1_555
Al0_0 Mg0_7 2.978575 1_554
Al0_0 Al0_2 2.993836 1_545
Al0_0 Al0_2 2.993836 1_555
Al0_0 Al0_4 2.993836 1_555
Al0_0 Al0_4 2.993836 1_455
Al0_0 Al0_6 2.993836 1_445
Al0_0 Al0_6 2.993836 1_555
Al0_1 Mg0_3 2.978574 1_555
Al0_1 Mg0_2 2.978574 1_555
Al0_1 Mg0_1 2.978575 1_555
Al0_1 Mg0_0 2.978575 1_555
Al0_1 Mg0_7 2.978575 1_555
Al0_1 Mg0_6 2.978575 1_555
Al0_1 Al0_3 2.993836 1_545
Al0_1 Al0_3 2.993836 1_555
Al0_1 Al0_5 2.993836 1_555
Al0_1 Al0_5 2.993836 1_455
Al0_1 Al0_7 2.993836 1_445
Al0_1 Al0_7 2.993836 1_555
Al0_2 Mg0_0 2.978574 1_565
Al0_2 Mg0_1 2.978574 1_564
Al0_2 Mg0_2 2.978575 1_555
Al0_2 Mg0_3 2.978575 1_554
Al0_2 Mg0_4 2.978575 1_565
Al0_2 Mg0_5 2.978575 1_564
Al0_2 Al0_6 2.993836 1_555
Al0_2 Al0_6 2.993836 1_455
Al0_2 Al0_4 2.993836 1_565
Al0_2 Al0_4 2.993836 1_455
Al0_3 Mg0_1 2.978574 1_565
Al0_3 Mg0_0 2.978574 1_565
Al0_3 Mg0_3 2.978575 1_555
Al0_3 Mg0_2 2.978575 1_555
Al0_3 Mg0_5 2.978575 1_565
Al0_3 Mg0_4 2.978575 1_565
Al0_3 Al0_7 2.993836 1_555
Al0_3 Al0_7 2.993836 1_455
Al0_3 Al0_5 2.993836 1_565
Al0_3 Al0_5 2.993836 1_455
Al0_4 Mg0_6 2.978574 1_555
Al0_4 Mg0_7 2.978574 1_554
Al0_4 Mg0_4 2.978575 1_555
Al0_4 Mg0_5 2.978575 1_554
Al0_4 Mg0_2 2.978575 1_655
Al0_4 Mg0_3 2.978575 1_654
Al0_4 Al0_6 2.993836 1_545
Al0_4 Al0_6 2.993836 1_555
Al0_5 Mg0_7 2.978574 1_555
Al0_5 Mg0_6 2.978574 1_555
Al0_5 Mg0_5 2.978575 1_555
Al0_5 Mg0_4 2.978575 1_555
Al0_5 Mg0_3 2.978575 1_655
Al0_5 Mg0_2 2.978575 1_655
Al0_5 Al0_7 2.993836 1_545
Al0_5 Al0_7 2.993836 1_555
Al0_6 Mg0_4 2.978574 1_565
Al0_6 Mg0_5 2.978574 1_564
Al0_6 Mg0_6 2.978575 1_555
Al0_6 Mg0_7 2.978575 1_554
Al0_6 Mg0_0 2.978575 1_665
Al0_6 Mg0_1 2.978575 1_664
Al0_7 Mg0_5 2.978574 1_565
Al0_7 Mg0_4 2.978574 1_565
Al0_7 Mg0_7 2.978575 1_555
Al0_7 Mg0_6 2.978575 1_555
Al0_7 Mg0_1 2.978575 1_665
Al0_7 Mg0_0 2.978575 1_665
