# generated using pymatgen
data_Li4MnCo2O7
_symmetry_space_group_name_H-M   'P 1'
_cell_length_a   2.98126200
_cell_length_b   5.07706761
_cell_length_c   16.74948336
_cell_angle_alpha   89.33468913
_cell_angle_beta   87.05654998
_cell_angle_gamma   88.93526934
_symmetry_Int_Tables_number   1
_chemical_formula_structural   Li4MnCo2O7
_chemical_formula_sum   'Li8 Mn2 Co4 O14'
_cell_volume   253.12872669
_cell_formula_units_Z   2
loop_
 _symmetry_equiv_pos_site_id
 _symmetry_equiv_pos_as_xyz
  1  'x, y, z'
loop_
 _atom_site_type_symbol
 _atom_site_label
 _atom_site_symmetry_multiplicity
 _atom_site_fract_x
 _atom_site_fract_y
 _atom_site_fract_z
 _atom_site_occupancy
  Li  Li0  1  0.92217100  0.63586300  0.14772300  1
  Li  Li1  1  0.34602000  0.76578400  0.28714900  1
  Li  Li2  1  0.79331200  0.93328500  0.42938800  1
  Li  Li3  1  0.21698800  0.07213500  0.57061300  1
  Li  Li4  1  0.64296500  0.21276700  0.71274300  1
  Li  Li5  1  0.07262700  0.35653900  0.85580900  1
  Li  Li6  1  0.50396900  0.50805300  0.99825400  1
  Li  Li7  1  0.87003600  0.30249400  0.28443600  1
  Mn  Mn0  1  0.99174100  0.99656700  0.99937000  1
  Mn  Mn1  1  0.41867900  0.14908400  0.14848200  1
  Co  Co0  1  0.29180800  0.42753400  0.42339300  1
  Co  Co1  1  0.71304400  0.56566700  0.56976500  1
  Co  Co2  1  0.14821800  0.71263900  0.71305800  1
  Co  Co3  1  0.58241500  0.85557800  0.85613500  1
  O  O0  1  0.41558300  0.84232700  0.07065600  1
  O  O1  1  0.90252800  0.98852000  0.20686200  1
  O  O2  1  0.31769900  0.14442200  0.36744900  1
  O  O3  1  0.71749600  0.27032500  0.50058800  1
  O  O4  1  0.18266800  0.40969700  0.64318500  1
  O  O5  1  0.61971200  0.56299800  0.78502700  1
  O  O6  1  0.00706800  0.69214400  0.92647100  1
  O  O7  1  0.40121100  0.44589400  0.20891700  1
  O  O8  1  0.84845600  0.60153600  0.36389400  1
  O  O9  1  0.23913100  0.71658600  0.49866600  1
  O  O10  1  0.67512300  0.86846900  0.64085200  1
  O  O11  1  0.15372900  0.01272700  0.78637400  1
  O  O12  1  0.56658800  0.15875600  0.92720300  1
  O  O13  1  0.93901600  0.29161100  0.07753900  1
loop_
_geom_bond_atom_site_label_1
_geom_bond_atom_site_label_2
_geom_bond_distance
_geom_bond_site_symmetry_2
Li0 O7 2.023999 1_655
Li0 O1 2.054679 1_555
Li0 O7 2.064508 1_555
Li0 O13 2.116032 1_555
Li0 O0 2.181679 1_655
Li0 O0 2.270664 1_555
Li1 O8 2.091261 1_455
Li1 O7 2.097412 1_555
Li1 O8 2.172062 1_555
Li1 O1 2.219696 1_455
Li1 O2 2.356686 1_565
Li1 O1 2.375938 1_555
Li2 O8 2.020252 1_555
Li2 O2 2.074768 1_565
Li2 O9 2.097094 1_655
Li2 O3 2.099226 1_565
Li2 O2 2.130561 1_665
Li2 O9 2.264406 1_555
Li3 O10 2.098341 1_545
Li3 O4 2.110521 1_555
Li3 O3 2.112651 1_555
Li3 O3 2.168384 1_455
Li3 O9 2.180146 1_545
Li3 O10 2.213951 1_445
Li4 O4 2.079973 1_555
Li4 O11 2.126271 1_555
Li4 O10 2.132023 1_545
Li4 O5 2.160844 1_555
Li4 O4 2.187716 1_655
Li4 O11 2.231019 1_655
Li5 O6 2.086368 1_555
Li5 O5 2.100104 1_455
Li5 O11 2.112008 1_555
Li5 O12 2.134811 1_455
Li5 O12 2.169088 1_555
Li5 O5 2.236192 1_555
Li6 O6 2.099894 1_655
Li6 O0 2.102066 1_556
Li6 O12 2.147083 1_555
Li6 O6 2.149195 1_555
Li6 O13 2.177914 1_556
Li6 O13 2.369190 1_456
Li7 O8 2.028543 1_555
Li7 O7 2.050840 1_555
Li7 O1 2.065941 1_545
Li7 O7 2.110328 1_655
Li7 O2 2.117398 1_655
Li7 O2 2.253200 1_555
Mn0 O0 1.931832 1_656
Mn0 O12 1.959883 1_565
Mn0 O6 1.979206 1_655
Mn0 O13 1.999622 1_566
Mn0 O0 2.192472 1_556
Mn0 O12 2.211956 1_665
Mn1 O7 1.823537 1_555
Mn1 O1 1.945276 1_545
Mn1 O1 1.965229 1_445
Mn1 O13 2.023999 1_455
Mn1 O0 2.042990 1_545
Mn1 O13 2.043143 1_555
Co0 O2 1.723303 1_555
Co0 O8 1.895272 1_455
Co0 O9 1.944729 1_555
Co0 O3 2.006575 1_555
Co0 O8 2.095655 1_555
Co0 O3 2.244962 1_455
Co1 O3 1.905035 1_555
Co1 O10 1.953493 1_555
Co1 O9 2.028009 1_555
Co1 O4 2.052448 1_655
Co1 O9 2.072876 1_655
Co1 O4 2.112751 1_555
Co2 O4 1.941505 1_555
Co2 O11 1.968750 1_565
Co2 O5 2.029582 1_555
Co2 O10 2.046801 1_455
Co2 O5 2.083510 1_455
Co2 O10 2.094042 1_555
Co3 O5 1.912800 1_555
Co3 O11 1.931073 1_565
Co3 O6 1.941804 1_655
Co3 O12 1.955136 1_565
Co3 O11 2.174248 1_665
Co3 O6 2.200270 1_555
