# generated using pymatgen
data_NdV2(FeCo)5
_symmetry_space_group_name_H-M   'P 1'
_cell_length_a   4.67500500
_cell_length_b   6.44121368
_cell_length_c   6.44121368
_cell_angle_alpha   97.14005414
_cell_angle_beta   111.27827380
_cell_angle_gamma   68.72172620
_symmetry_Int_Tables_number   1
_chemical_formula_structural   NdV2(FeCo)5
_chemical_formula_sum   'Nd1 V2 Fe5 Co5'
_cell_volume   168.41240431
_cell_formula_units_Z   1
loop_
 _symmetry_equiv_pos_site_id
 _symmetry_equiv_pos_as_xyz
  1  'x, y, z'
loop_
 _atom_site_type_symbol
 _atom_site_label
 _atom_site_symmetry_multiplicity
 _atom_site_fract_x
 _atom_site_fract_y
 _atom_site_fract_z
 _atom_site_occupancy
  Nd  Nd0  1  0.00000000  0.99842400  0.99842400  1
  V  V0  1  0.00000000  0.36037600  0.36037600  1
  V  V1  1  0.00000000  0.64001000  0.64001000  1
  Fe  Fe0  1  0.50127100  0.99851500  0.50131500  1
  Fe  Fe1  1  0.00153000  0.99851500  0.50131500  1
  Fe  Fe2  1  0.49872900  0.50131500  0.99851500  1
  Fe  Fe3  1  0.99847000  0.50131500  0.99851500  1
  Fe  Fe4  1  0.50000000  0.23170500  0.23170500  1
  Co  Co0  1  0.72774700  0.77306000  0.22855500  1
  Co  Co1  1  0.27225300  0.22855500  0.77306000  1
  Co  Co2  1  0.50000000  0.77004900  0.77004900  1
  Co  Co3  1  0.64030300  0.35877800  0.63938400  1
  Co  Co4  1  0.35969700  0.63938400  0.35877800  1
loop_
_geom_bond_atom_site_label_1
_geom_bond_atom_site_label_2
_geom_bond_distance
_geom_bond_site_symmetry_2
Nd0 V1 3.055249 1_555
Nd0 V0 3.085408 1_566
V0 V1 2.383700 1_555
Fe0 Fe1 2.336292 1_555
Fe0 Fe1 2.338713 1_655
Fe0 Fe4 2.430313 1_565
Fe0 V1 2.580704 1_655
Fe0 V0 2.601179 1_565
Fe0 Nd0 3.204659 1_655
Fe0 Nd0 3.236569 1_554
Fe1 Fe4 2.430315 1_465
Fe1 V1 2.580707 1_555
Fe1 V0 2.601177 1_565
Fe1 Nd0 3.204661 1_555
Fe1 Nd0 3.236567 1_554
Fe2 Fe3 2.336292 1_555
Fe2 Fe3 2.338713 1_455
Fe2 Fe4 2.430313 1_556
Fe2 V1 2.580704 1_555
Fe2 V0 2.601179 1_656
Fe2 Nd0 3.204659 1_555
Fe2 Nd0 3.236569 1_645
Fe3 Fe4 2.430315 1_656
Fe3 V1 2.580707 1_655
Fe3 V0 2.601177 1_656
Fe3 Nd0 3.204661 1_655
Fe3 Nd0 3.236567 1_645
Fe4 V0 2.582048 1_655
Fe4 V0 2.582048 1_555
Fe4 Nd0 3.068930 1_644
Fe4 Nd0 3.068930 1_544
Co0 Fe0 2.432390 1_555
Co0 Fe1 2.432394 1_655
Co0 Fe3 2.443287 1_554
Co0 Fe2 2.443287 1_554
Co0 V1 2.589021 1_655
Co0 Co4 2.589958 1_555
Co0 Co4 2.589962 1_655
Co0 V0 2.593839 1_655
Co0 Co2 2.752216 1_554
Co0 Fe4 2.753063 1_565
Co0 Nd0 3.028144 1_554
Co0 Nd0 3.028148 1_654
Co1 Fe2 2.432390 1_555
Co1 Fe3 2.432394 1_455
Co1 Fe1 2.443287 1_545
Co1 Fe0 2.443287 1_545
Co1 V1 2.589021 1_555
Co1 Co3 2.589958 1_555
Co1 Co3 2.589962 1_455
Co1 V0 2.593839 1_555
Co1 Co2 2.752216 1_545
Co1 Fe4 2.753063 1_556
Co1 Nd0 3.028144 1_645
Co1 Nd0 3.028148 1_545
Co2 Fe3 2.410174 1_555
Co2 Fe1 2.410174 1_555
Co2 Fe2 2.410176 1_555
Co2 Fe0 2.410176 1_555
Co2 V1 2.587023 1_555
Co2 V1 2.587023 1_655
Co2 Co3 2.596445 1_555
Co2 Co4 2.596445 1_555
Co2 Nd0 3.041998 1_655
Co2 Nd0 3.041998 1_555
Co3 Co4 2.371687 1_555
Co3 Fe4 2.569244 1_555
Co3 Fe0 2.600075 1_545
Co3 Fe1 2.600077 1_645
Co3 Fe3 2.602744 1_555
Co3 Fe2 2.602746 1_555
Co3 V0 2.875438 1_555
Co3 V0 2.875438 1_655
Co3 V1 2.883285 1_555
Co3 V1 2.883285 1_655
Co3 Nd0 3.040171 1_645
Co4 Fe4 2.569244 1_555
Co4 Fe2 2.600075 1_554
Co4 Fe3 2.600077 1_454
Co4 Fe1 2.602744 1_555
Co4 Fe0 2.602746 1_555
Co4 V0 2.875438 1_655
Co4 V0 2.875438 1_555
Co4 V1 2.883285 1_655
Co4 V1 2.883285 1_555
Co4 Nd0 3.040171 1_554
