# generated using pymatgen
data_MgCu(SiO3)2
_symmetry_space_group_name_H-M   'P 1'
_cell_length_a   5.28266400
_cell_length_b   9.03880600
_cell_length_c   18.42246400
_cell_angle_alpha   90.00000000
_cell_angle_beta   90.00000000
_cell_angle_gamma   90.00000000
_symmetry_Int_Tables_number   1
_chemical_formula_structural   MgCu(SiO3)2
_chemical_formula_sum   'Mg8 Cu8 Si16 O48'
_cell_volume   879.65377406
_cell_formula_units_Z   8
loop_
 _symmetry_equiv_pos_site_id
 _symmetry_equiv_pos_as_xyz
  1  'x, y, z'
loop_
 _atom_site_type_symbol
 _atom_site_label
 _atom_site_symmetry_multiplicity
 _atom_site_fract_x
 _atom_site_fract_y
 _atom_site_fract_z
 _atom_site_occupancy
  Mg  Mg0  1  0.61377100  0.15208400  0.37578600  1
  Mg  Mg1  1  0.38622900  0.84791600  0.62421400  1
  Mg  Mg2  1  0.61377100  0.65208400  0.12421400  1
  Mg  Mg3  1  0.11377100  0.84791600  0.12421400  1
  Mg  Mg4  1  0.88622900  0.15208400  0.87578600  1
  Mg  Mg5  1  0.38622900  0.34791600  0.87578600  1
  Mg  Mg6  1  0.11377100  0.34791600  0.37578600  1
  Mg  Mg7  1  0.88622900  0.65208400  0.62421400  1
  Cu  Cu0  1  0.38036100  0.99252200  0.87551500  1
  Cu  Cu1  1  0.61963900  0.00747800  0.12448500  1
  Cu  Cu2  1  0.88036100  0.00747800  0.62448500  1
  Cu  Cu3  1  0.11963900  0.99252200  0.37551500  1
  Cu  Cu4  1  0.38036100  0.49252200  0.62448500  1
  Cu  Cu5  1  0.61963900  0.50747800  0.37551500  1
  Cu  Cu6  1  0.88036100  0.50747800  0.87551500  1
  Cu  Cu7  1  0.11963900  0.49252200  0.12448500  1
  Si  Si0  1  0.57449500  0.66185800  0.77425800  1
  Si  Si1  1  0.72700400  0.83620700  0.47390800  1
  Si  Si2  1  0.77299600  0.83620700  0.97390800  1
  Si  Si3  1  0.92550500  0.16185800  0.22574200  1
  Si  Si4  1  0.07449500  0.33814200  0.72574200  1
  Si  Si5  1  0.42550500  0.83814200  0.27425800  1
  Si  Si6  1  0.22700400  0.66379300  0.47390800  1
  Si  Si7  1  0.72700400  0.33620700  0.02609200  1
  Si  Si8  1  0.77299600  0.33620700  0.52609200  1
  Si  Si9  1  0.92550500  0.66185800  0.27425800  1
  Si  Si10  1  0.42550500  0.33814200  0.22574200  1
  Si  Si11  1  0.57449500  0.16185800  0.72574200  1
  Si  Si12  1  0.27299600  0.16379300  0.52609200  1
  Si  Si13  1  0.07449500  0.83814200  0.77425800  1
  Si  Si14  1  0.27299600  0.66379300  0.97390800  1
  Si  Si15  1  0.22700400  0.16379300  0.02609200  1
  O  O0  1  0.91910600  0.50047200  0.31370000  1
  O  O1  1  0.30956600  0.01352000  0.06856000  1
  O  O2  1  0.08089400  0.49952800  0.68630000  1
  O  O3  1  0.71697000  0.33946600  0.93678200  1
  O  O4  1  0.21697000  0.16053400  0.93678200  1
  O  O5  1  0.93329400  0.20721000  0.05065600  1
  O  O6  1  0.93297100  0.66626600  0.18627000  1
  O  O7  1  0.06702900  0.83373400  0.68627000  1
  O  O8  1  0.71697000  0.83946600  0.56321800  1
  O  O9  1  0.93297100  0.16626600  0.31373000  1
  O  O10  1  0.41910600  0.49952800  0.18630000  1
  O  O11  1  0.78303000  0.33946600  0.43678200  1
  O  O12  1  0.69043400  0.98648000  0.93144000  1
  O  O13  1  0.43297100  0.83373400  0.18627000  1
  O  O14  1  0.58089400  0.00047200  0.68630000  1
  O  O15  1  0.30956600  0.51352000  0.43144000  1
  O  O16  1  0.41910600  0.99952800  0.31370000  1
  O  O17  1  0.15885300  0.76498800  0.30563800  1
  O  O18  1  0.34114700  0.76498800  0.80563800  1
  O  O19  1  0.56670600  0.70721000  0.94934400  1
  O  O20  1  0.78303000  0.83946600  0.06321800  1
  O  O21  1  0.56702900  0.66626600  0.68627000  1
  O  O22  1  0.80956600  0.48648000  0.06856000  1
  O  O23  1  0.15885300  0.26498800  0.19436200  1
  O  O24  1  0.28303000  0.16053400  0.43678200  1
  O  O25  1  0.56702900  0.16626600  0.81373000  1
  O  O26  1  0.69043400  0.48648000  0.56856000  1
  O  O27  1  0.21697000  0.66053400  0.56321800  1
  O  O28  1  0.19043400  0.51352000  0.93144000  1
  O  O29  1  0.65885300  0.73501200  0.30563800  1
  O  O30  1  0.08089400  0.99952800  0.81370000  1
  O  O31  1  0.84114700  0.73501200  0.80563800  1
  O  O32  1  0.84114700  0.23501200  0.69436200  1
  O  O33  1  0.80956600  0.98648000  0.43144000  1
  O  O34  1  0.28303000  0.66053400  0.06321800  1
  O  O35  1  0.19043400  0.01352000  0.56856000  1
  O  O36  1  0.34114700  0.26498800  0.69436200  1
  O  O37  1  0.06670600  0.79279000  0.94934400  1
  O  O38  1  0.43329400  0.79279000  0.44934400  1
  O  O39  1  0.65885300  0.23501200  0.19436200  1
  O  O40  1  0.43329400  0.29279000  0.05065600  1
  O  O41  1  0.56670600  0.20721000  0.55065600  1
  O  O42  1  0.06670600  0.29279000  0.55065600  1
  O  O43  1  0.43297100  0.33373400  0.31373000  1
  O  O44  1  0.58089400  0.50047200  0.81370000  1
  O  O45  1  0.93329400  0.70721000  0.44934400  1
  O  O46  1  0.06702900  0.33373400  0.81373000  1
  O  O47  1  0.91910600  0.00047200  0.18630000  1
loop_
_geom_bond_atom_site_label_1
_geom_bond_atom_site_label_2
_geom_bond_distance
_geom_bond_site_symmetry_2
Mg0 O9 2.041263 1_555
Mg0 O16 2.065711 1_545
Mg0 O24 2.078753 1_555
Mg0 O33 2.088449 1_545
Mg0 O43 2.216985 1_555
Mg0 O11 2.220547 1_555
Mg1 O7 2.041263 1_555
Mg1 O14 2.065711 1_565
Mg1 O8 2.078753 1_555
Mg1 O35 2.088449 1_565
Mg1 O21 2.216985 1_555
Mg1 O27 2.220547 1_555
Mg2 O6 2.041263 1_555
Mg2 O10 2.065711 1_555
Mg2 O34 2.078753 1_555
Mg2 O22 2.088449 1_555
Mg2 O13 2.216985 1_555
Mg2 O20 2.220547 1_555
Mg3 O13 2.041263 1_555
Mg3 O47 2.065711 1_465
Mg3 O20 2.078753 1_455
Mg3 O1 2.088449 1_565
Mg3 O6 2.216985 1_455
Mg3 O34 2.220547 1_555
Mg4 O25 2.041263 1_555
Mg4 O30 2.065711 1_645
Mg4 O4 2.078753 1_655
Mg4 O12 2.088449 1_545
Mg4 O46 2.216985 1_655
Mg4 O3 2.220547 1_555
Mg5 O46 2.041263 1_555
Mg5 O44 2.065711 1_555
Mg5 O3 2.078753 1_555
Mg5 O28 2.088449 1_555
Mg5 O25 2.216985 1_555
Mg5 O4 2.220547 1_555
Mg6 O43 2.041263 1_555
Mg6 O0 2.065711 1_455
Mg6 O11 2.078753 1_455
Mg6 O15 2.088449 1_555
Mg6 O9 2.216985 1_455
Mg6 O24 2.220547 1_555
Mg7 O21 2.041263 1_555
Mg7 O2 2.065711 1_655
Mg7 O27 2.078753 1_655
Mg7 O26 2.088449 1_555
Mg7 O7 2.216985 1_655
Mg7 O8 2.220547 1_555
Cu0 O12 1.935855 1_555
Cu0 O30 1.950260 1_555
Cu0 O4 2.079707 1_565
Cu0 O25 2.175833 1_565
Cu0 O18 2.435122 1_555
Cu1 O1 1.935855 1_555
Cu1 O47 1.950260 1_555
Cu1 O20 2.079707 1_545
Cu1 O13 2.175833 1_545
Cu1 O39 2.435122 1_555
Cu2 O35 1.935855 1_655
Cu2 O14 1.950260 1_555
Cu2 O8 2.079707 1_545
Cu2 O7 2.175833 1_645
Cu2 O32 2.435122 1_555
Cu3 O33 1.935855 1_455
Cu3 O16 1.950260 1_555
Cu3 O24 2.079707 1_565
Cu3 O9 2.175833 1_465
Cu3 O17 2.435122 1_555
Cu4 O26 1.935855 1_555
Cu4 O2 1.950260 1_555
Cu4 O27 2.079707 1_555
Cu4 O21 2.175833 1_555
Cu4 O36 2.435122 1_555
Cu5 O15 1.935855 1_555
Cu5 O0 1.950260 1_555
Cu5 O11 2.079707 1_555
Cu5 O43 2.175833 1_555
Cu5 O29 2.435122 1_555
Cu6 O28 1.935855 1_655
Cu6 O44 1.950260 1_555
Cu6 O3 2.079707 1_555
Cu6 O46 2.175833 1_655
Cu6 O31 2.435122 1_555
Cu7 O22 1.935855 1_455
Cu7 O10 1.950260 1_555
Cu7 O34 2.079707 1_555
Cu7 O6 2.175833 1_455
Cu7 O23 2.435122 1_555
O0 Si9 1.630040 1_555
O1 Si15 1.627043 1_555
O2 Si4 1.630040 1_555
O3 Si7 1.646427 1_556
O4 Si15 1.646427 1_556
O5 Si7 1.658876 1_555
O5 Si15 1.663179 1_655
O6 Si9 1.621925 1_555
O7 Si13 1.621925 1_555
O8 Si1 1.646427 1_555
O9 Si3 1.621925 1_555
O10 Si10 1.630040 1_555
O11 Si8 1.646427 1_555
O12 Si2 1.627043 1_555
O13 Si5 1.621925 1_555
O14 Si11 1.630040 1_555
O15 Si6 1.627043 1_555
O16 Si5 1.630040 1_555
O17 Si9 1.650057 1_455
O17 Si5 1.660018 1_555
O18 Si0 1.650057 1_555
O18 Si13 1.660018 1_555
O19 Si2 1.658876 1_555
O19 Si14 1.663179 1_555
O20 Si2 1.646427 1_554
O21 Si0 1.621925 1_555
O22 Si7 1.627043 1_555
O23 Si3 1.650057 1_455
O23 Si10 1.660018 1_555
O24 Si12 1.646427 1_555
O25 Si11 1.621925 1_555
O26 Si8 1.627043 1_555
O27 Si6 1.646427 1_555
O28 Si14 1.627043 1_555
O29 Si5 1.650057 1_555
O29 Si9 1.660018 1_555
O30 Si13 1.630040 1_555
O31 Si13 1.650057 1_655
O31 Si0 1.660018 1_555
O32 Si4 1.650057 1_655
O32 Si11 1.660018 1_555
O33 Si1 1.627043 1_555
O34 Si14 1.646427 1_554
O35 Si12 1.627043 1_555
O36 Si11 1.650057 1_555
O36 Si4 1.660018 1_555
O37 Si14 1.658876 1_555
O37 Si2 1.663179 1_455
O38 Si6 1.658876 1_555
O38 Si1 1.663179 1_555
O39 Si10 1.650057 1_555
O39 Si3 1.660018 1_555
O40 Si15 1.658876 1_555
O40 Si7 1.663179 1_555
O41 Si8 1.658876 1_555
O41 Si12 1.663179 1_555
O42 Si12 1.658876 1_555
O42 Si8 1.663179 1_455
O43 Si10 1.621925 1_555
O44 Si0 1.630040 1_555
O45 Si1 1.658876 1_555
O45 Si6 1.663179 1_655
O46 Si4 1.621925 1_555
O47 Si3 1.630040 1_555
