# generated using pymatgen
data_Sr3CaTi2Mn2O12
_symmetry_space_group_name_H-M   'P 1'
_cell_length_a   7.79204238
_cell_length_b   7.79204238
_cell_length_c   7.78354200
_cell_angle_alpha   90.00000000
_cell_angle_beta   90.00000000
_cell_angle_gamma   90.00574018
_symmetry_Int_Tables_number   1
_chemical_formula_structural   Sr3CaTi2Mn2O12
_chemical_formula_sum   'Sr6 Ca2 Ti4 Mn4 O24'
_cell_volume   472.58494579
_cell_formula_units_Z   2
loop_
 _symmetry_equiv_pos_site_id
 _symmetry_equiv_pos_as_xyz
  1  'x, y, z'
loop_
 _atom_site_type_symbol
 _atom_site_label
 _atom_site_symmetry_multiplicity
 _atom_site_fract_x
 _atom_site_fract_y
 _atom_site_fract_z
 _atom_site_occupancy
  Sr  Sr0  1  0.24710300  0.75289700  0.75288900  1
  Sr  Sr1  1  0.75293200  0.75293200  0.75266100  1
  Sr  Sr2  1  0.75303700  0.75303700  0.24722000  1
  Sr  Sr3  1  0.24706800  0.24706800  0.75266100  1
  Sr  Sr4  1  0.75289700  0.24710300  0.75288900  1
  Sr  Sr5  1  0.24696300  0.24696300  0.24722000  1
  Ca  Ca0  1  0.24659200  0.75340800  0.24650600  1
  Ca  Ca1  1  0.75340800  0.24659200  0.24650600  1
  Ti  Ti0  1  0.50000000  0.00000000  0.49828600  1
  Ti  Ti1  1  0.50000000  0.50000000  0.00130500  1
  Ti  Ti2  1  0.00000000  0.50000000  0.49828600  1
  Ti  Ti3  1  0.50000000  0.50000000  0.49865900  1
  Mn  Mn0  1  0.00000000  0.00000000  0.00130500  1
  Mn  Mn1  1  0.50000000  0.00000000  0.00107200  1
  Mn  Mn2  1  0.00000000  0.00000000  0.49863900  1
  Mn  Mn3  1  0.00000000  0.50000000  0.00107200  1
  O  O0  1  0.00260900  0.74935400  0.00298400  1
  O  O1  1  0.49846700  0.75271600  0.00240200  1
  O  O2  1  0.00155100  0.75272100  0.49748900  1
  O  O3  1  0.49886400  0.75056100  0.49784000  1
  O  O4  1  0.99739100  0.25064600  0.00298400  1
  O  O5  1  0.50153300  0.24728400  0.00240200  1
  O  O6  1  0.99844900  0.24727900  0.49748900  1
  O  O7  1  0.50113600  0.24943900  0.49784000  1
  O  O8  1  0.00000000  0.00000000  0.74916600  1
  O  O9  1  0.50000000  0.00000000  0.75265000  1
  O  O10  1  0.00000000  0.00000000  0.25087100  1
  O  O11  1  0.50000000  0.00000000  0.24726400  1
  O  O12  1  0.00000000  0.50000000  0.75265000  1
  O  O13  1  0.50000000  0.50000000  0.75061600  1
  O  O14  1  0.00000000  0.50000000  0.24726400  1
  O  O15  1  0.50000000  0.50000000  0.24948700  1
  O  O16  1  0.25064600  0.99739100  0.00298400  1
  O  O17  1  0.74935400  0.00260900  0.00298400  1
  O  O18  1  0.24727900  0.99844900  0.49748900  1
  O  O19  1  0.75272100  0.00155100  0.49748900  1
  O  O20  1  0.24728400  0.50153300  0.00240200  1
  O  O21  1  0.75271600  0.49846700  0.00240200  1
  O  O22  1  0.24943900  0.50113600  0.49784000  1
  O  O23  1  0.75056100  0.49886400  0.49784000  1
loop_
_geom_bond_atom_site_label_1
_geom_bond_atom_site_label_2
_geom_bond_distance
_geom_bond_site_symmetry_2
Ca0 O0 2.684781 1_555
Ca0 O16 2.684781 1_555
Ca0 O10 2.717697 1_565
Ca0 O1 2.731646 1_555
Ca0 O20 2.731646 1_555
Ca0 O2 2.731671 1_555
Ca0 O18 2.731671 1_555
Ca0 O14 2.755027 1_555
Ca0 O11 2.755027 1_565
Ca0 O22 2.773359 1_555
Ca0 O3 2.773359 1_555
Ca0 O15 2.792694 1_555
Ca1 O4 2.684781 1_555
Ca1 O17 2.684781 1_555
Ca1 O10 2.717697 1_655
Ca1 O21 2.731646 1_555
Ca1 O5 2.731646 1_555
Ca1 O19 2.731671 1_555
Ca1 O6 2.731671 1_555
Ca1 O11 2.755027 1_555
Ca1 O14 2.755027 1_655
Ca1 O7 2.773359 1_555
Ca1 O23 2.773359 1_555
Ca1 O15 2.792694 1_555
Mn0 O10 1.942507 1_555
Mn0 O16 1.953196 1_545
Mn0 O4 1.953196 1_455
Mn0 O17 1.953196 1_455
Mn0 O0 1.953196 1_545
Mn0 O8 1.962534 1_554
Mn1 O11 1.916246 1_555
Mn1 O1 1.926911 1_545
Mn1 O5 1.926911 1_555
Mn1 O9 1.933603 1_554
Mn1 O17 1.943138 1_555
Mn1 O16 1.943138 1_545
Mn2 O6 1.926868 1_455
Mn2 O19 1.926868 1_455
Mn2 O2 1.926868 1_545
Mn2 O18 1.926868 1_545
Mn2 O10 1.928513 1_555
Mn2 O8 1.949987 1_555
Mn3 O14 1.916246 1_555
Mn3 O21 1.926911 1_455
Mn3 O20 1.926911 1_555
Mn3 O12 1.933603 1_554
Mn3 O0 1.943138 1_555
Mn3 O4 1.943138 1_455
O0 Sr2 2.719647 1_455
O0 Sr0 2.723882 1_554
O0 Sr1 2.753542 1_454
O1 Ti1 1.969230 1_555
O1 Sr2 2.750614 1_555
O1 Sr0 2.758261 1_554
O1 Sr1 2.776713 1_554
O2 Ti2 1.969258 1_555
O2 Sr2 2.746707 1_455
O2 Sr0 2.759117 1_555
O2 Sr1 2.774473 1_455
O3 Ti0 1.943662 1_565
O3 Ti3 1.952413 1_555
O3 Sr2 2.779951 1_555
O3 Sr0 2.791002 1_555
O3 Sr1 2.802409 1_555
O4 Sr5 2.719647 1_655
O4 Sr4 2.723882 1_554
O4 Sr3 2.753542 1_654
O5 Ti1 1.969230 1_555
O5 Sr5 2.750614 1_555
O5 Sr4 2.758261 1_554
O5 Sr3 2.776713 1_554
O6 Ti2 1.969258 1_655
O6 Sr5 2.746707 1_655
O6 Sr4 2.759117 1_555
O6 Sr3 2.774473 1_655
O7 Ti0 1.943662 1_555
O7 Ti3 1.952413 1_555
O7 Sr5 2.779951 1_555
O7 Sr4 2.791002 1_555
O7 Sr3 2.802409 1_555
O8 Sr1 2.722593 1_445
O8 Sr3 2.722593 1_555
O8 Sr4 2.723270 1_455
O8 Sr0 2.723270 1_545
O9 Ti0 1.979853 1_555
O9 Sr4 2.754951 1_555
O9 Sr0 2.754951 1_545
O9 Sr1 2.755230 1_545
O9 Sr3 2.755230 1_555
O10 Sr5 2.721448 1_555
O10 Sr2 2.721448 1_445
O11 Ti0 1.953840 1_555
O11 Sr5 2.755244 1_555
O11 Sr2 2.755244 1_545
O12 Ti2 1.979853 1_555
O12 Sr4 2.754951 1_455
O12 Sr0 2.754951 1_555
O12 Sr3 2.755230 1_555
O12 Sr1 2.755230 1_455
O13 Ti1 1.951248 1_556
O13 Ti3 1.961118 1_555
O13 Sr0 2.787023 1_555
O13 Sr4 2.787023 1_555
O13 Sr3 2.787118 1_555
O13 Sr1 2.787118 1_555
O14 Ti2 1.953840 1_555
O14 Sr2 2.755244 1_455
O14 Sr5 2.755244 1_555
O15 Ti1 1.931735 1_555
O15 Ti3 1.939441 1_555
O15 Sr2 2.788286 1_555
O15 Sr5 2.788286 1_555
O16 Sr5 2.719647 1_565
O16 Sr0 2.723882 1_554
O16 Sr3 2.753542 1_564
O17 Sr2 2.719647 1_545
O17 Sr4 2.723882 1_554
O17 Sr1 2.753542 1_544
O18 Ti0 1.969258 1_565
O18 Sr5 2.746707 1_565
O18 Sr0 2.759117 1_555
O18 Sr3 2.774473 1_565
O19 Ti0 1.969258 1_555
O19 Sr2 2.746707 1_545
O19 Sr4 2.759117 1_555
O19 Sr1 2.774473 1_545
O20 Ti1 1.969230 1_555
O20 Sr5 2.750614 1_555
O20 Sr0 2.758261 1_554
O20 Sr3 2.776713 1_554
O21 Ti1 1.969230 1_555
O21 Sr2 2.750614 1_555
O21 Sr4 2.758261 1_554
O21 Sr1 2.776713 1_554
O22 Ti2 1.943662 1_555
O22 Ti3 1.952413 1_555
O22 Sr5 2.779951 1_555
O22 Sr0 2.791002 1_555
O22 Sr3 2.802409 1_555
O23 Ti2 1.943662 1_655
O23 Ti3 1.952413 1_555
O23 Sr2 2.779951 1_555
O23 Sr4 2.791002 1_555
O23 Sr1 2.802409 1_555
