# generated using pymatgen
data_Li2MnP2O7
_symmetry_space_group_name_H-M   'P 1'
_cell_length_a   5.12607976
_cell_length_b   5.15739393
_cell_length_c   13.34384498
_cell_angle_alpha   80.06960503
_cell_angle_beta   90.03554474
_cell_angle_gamma   119.75508279
_symmetry_Int_Tables_number   1
_chemical_formula_structural   Li2MnP2O7
_chemical_formula_sum   'Li4 Mn2 P4 O14'
_cell_volume   300.18129093
_cell_formula_units_Z   2
loop_
 _symmetry_equiv_pos_site_id
 _symmetry_equiv_pos_as_xyz
  1  'x, y, z'
loop_
 _atom_site_type_symbol
 _atom_site_label
 _atom_site_symmetry_multiplicity
 _atom_site_fract_x
 _atom_site_fract_y
 _atom_site_fract_z
 _atom_site_occupancy
  Li  Li0  1  0.69452700  0.78230400  0.09543100  1
  Li  Li1  1  0.91234200  0.21799600  0.40459500  1
  Li  Li2  1  0.08814900  0.78276600  0.59535800  1
  Li  Li3  1  0.30483900  0.21695200  0.90456600  1
  Mn  Mn0  1  0.50041000  0.49994600  0.49985000  1
  Mn  Mn1  1  0.99970100  0.49963600  0.00004200  1
  P  P0  1  0.66708700  0.90943200  0.86777900  1
  P  P1  1  0.75780000  0.09038700  0.63225300  1
  P  P2  1  0.24273600  0.91032200  0.36773200  1
  P  P3  1  0.33234700  0.08988500  0.13225600  1
  O  O0  1  0.80266700  0.99968200  0.75005800  1
  O  O1  1  0.19693700  0.00020300  0.24999000  1
  O  O2  1  0.33607500  0.81666500  0.10313600  1
  O  O3  1  0.51950300  0.18336600  0.39691400  1
  O  O4  1  0.48124800  0.81787200  0.60275200  1
  O  O5  1  0.66321900  0.18240400  0.89707200  1
  O  O6  1  0.72951900  0.37675900  0.61886500  1
  O  O7  1  0.35266700  0.62340400  0.88109700  1
  O  O8  1  0.64676400  0.37589200  0.11887800  1
  O  O9  1  0.27119700  0.62407100  0.38119200  1
  O  O10  1  0.05119500  0.15322300  0.57619000  1
  O  O11  1  0.89762600  0.84646800  0.92402100  1
  O  O12  1  0.10176700  0.15269100  0.07598800  1
  O  O13  1  0.94967800  0.84767600  0.42398700  1
loop_
_geom_bond_atom_site_label_1
_geom_bond_atom_site_label_2
_geom_bond_distance
_geom_bond_site_symmetry_2
Li0 O2 1.935959 1_555
Li0 O8 1.953380 1_555
Li0 O12 1.986390 1_665
Li0 O11 2.413489 1_554
Li1 O3 1.935603 1_555
Li1 O9 1.954127 1_655
Li1 O13 1.985839 1_545
Li1 O10 2.414804 1_655
Li2 O4 1.935653 1_555
Li2 O6 1.953419 1_455
Li2 O10 1.985523 1_565
Li2 O13 2.411417 1_455
Li3 O5 1.935950 1_555
Li3 O7 1.953440 1_555
Li3 O11 1.986514 1_445
Li3 O12 2.413466 1_556
Mn0 O9 2.166113 1_555
Mn0 O6 2.166874 1_555
Mn0 O13 2.195891 1_555
Mn0 O10 2.196650 1_555
Mn0 O3 2.343999 1_555
Mn0 O4 2.349501 1_555
Mn1 O8 2.168740 1_555
Mn1 O7 2.169803 1_654
Mn1 O11 2.192022 1_554
Mn1 O12 2.192169 1_655
Mn1 O5 2.347574 1_554
Mn1 O2 2.348073 1_655
O0 P0 1.611000 1_555
O0 P1 1.611069 1_565
O1 P2 1.610844 1_545
O1 P3 1.611185 1_555
O2 P3 1.533790 1_565
O3 P2 1.533899 1_545
O4 P1 1.533768 1_565
O5 P0 1.533840 1_545
O6 P1 1.534846 1_555
O7 P0 1.534723 1_555
O8 P3 1.534629 1_555
O9 P2 1.534710 1_555
O10 P1 1.536420 1_455
O11 P0 1.536551 1_555
O12 P3 1.536477 1_555
O13 P2 1.536420 1_655
