# generated using pymatgen
data_CuSiO3
_symmetry_space_group_name_H-M   'P 1'
_cell_length_a   2.86025300
_cell_length_b   4.91823600
_cell_length_c   8.95813900
_cell_angle_alpha   90.00000000
_cell_angle_beta   90.00000000
_cell_angle_gamma   90.00000000
_symmetry_Int_Tables_number   1
_chemical_formula_structural   CuSiO3
_chemical_formula_sum   'Cu2 Si2 O6'
_cell_volume   126.01771806
_cell_formula_units_Z   2
loop_
 _symmetry_equiv_pos_site_id
 _symmetry_equiv_pos_as_xyz
  1  'x, y, z'
loop_
 _atom_site_type_symbol
 _atom_site_label
 _atom_site_symmetry_multiplicity
 _atom_site_fract_x
 _atom_site_fract_y
 _atom_site_fract_z
 _atom_site_occupancy
  Cu  Cu0  1  0.00000000  0.50000000  0.50000000  1
  Cu  Cu1  1  0.00000000  0.50000000  0.00000000  1
  Si  Si0  1  0.50000000  0.87785900  0.75000000  1
  Si  Si1  1  0.50000000  0.12214100  0.25000000  1
  O  O0  1  0.50000000  0.69565700  0.59725400  1
  O  O1  1  0.50000000  0.30434300  0.40274600  1
  O  O2  1  0.50000000  0.69565700  0.90274600  1
  O  O3  1  0.50000000  0.30434300  0.09725400  1
  O  O4  1  0.00000000  0.94523200  0.25000000  1
  O  O5  1  0.00000000  0.05476800  0.75000000  1
loop_
_geom_bond_atom_site_label_1
_geom_bond_atom_site_label_2
_geom_bond_distance
_geom_bond_site_symmetry_2
Cu0 O0 1.931392 1_455
Cu0 O0 1.931392 1_555
Cu0 O1 1.931392 1_555
Cu0 O1 1.931392 1_455
Cu1 O2 1.931392 1_554
Cu1 O2 1.931392 1_454
Cu1 O3 1.931392 1_555
Cu1 O3 1.931392 1_455
O0 Si0 1.635640 1_555
O1 Si1 1.635640 1_555
O2 Si0 1.635640 1_555
O3 Si1 1.635640 1_555
O4 Si1 1.674008 1_465
O4 Si1 1.674008 1_565
O5 Si0 1.674008 1_445
O5 Si0 1.674008 1_545
