# generated using pymatgen
data_Li6MnV3(PO4)6
_symmetry_space_group_name_H-M   'P 1'
_cell_length_a   8.70343200
_cell_length_b   8.76729492
_cell_length_c   12.27715838
_cell_angle_alpha   89.73746546
_cell_angle_beta   89.34237365
_cell_angle_gamma   89.89429353
_symmetry_Int_Tables_number   1
_chemical_formula_structural   Li6MnV3(PO4)6
_chemical_formula_sum   'Li12 Mn2 V6 P12 O48'
_cell_volume   936.74234085
_cell_formula_units_Z   2
loop_
 _symmetry_equiv_pos_site_id
 _symmetry_equiv_pos_as_xyz
  1  'x, y, z'
loop_
 _atom_site_type_symbol
 _atom_site_label
 _atom_site_symmetry_multiplicity
 _atom_site_fract_x
 _atom_site_fract_y
 _atom_site_fract_z
 _atom_site_occupancy
  Li  Li0  1  0.07738000  0.90389600  0.30339600  1
  Li  Li1  1  0.07840900  0.29597300  0.24233400  1
  Li  Li2  1  0.21239600  0.22772700  0.82052800  1
  Li  Li3  1  0.29020700  0.72626400  0.67770100  1
  Li  Li4  1  0.41947900  0.79766300  0.25639400  1
  Li  Li5  1  0.42095700  0.40642800  0.19668800  1
  Li  Li6  1  0.58194300  0.59239000  0.80375500  1
  Li  Li7  1  0.57888400  0.20565000  0.74205900  1
  Li  Li8  1  0.70738200  0.27553700  0.32275900  1
  Li  Li9  1  0.79139800  0.77403300  0.17719100  1
  Li  Li10  1  0.91722400  0.70255800  0.75899400  1
  Li  Li11  1  0.92173200  0.09503700  0.69840600  1
  Mn  Mn0  1  0.25339800  0.04124700  0.60951600  1
  Mn  Mn1  1  0.75298700  0.53346600  0.60649400  1
  V  V0  1  0.24656600  0.46752400  0.39017600  1
  V  V1  1  0.24752300  0.54200000  0.88823800  1
  V  V2  1  0.25264100  0.96875000  0.10910700  1
  V  V3  1  0.74540000  0.95866800  0.38844100  1
  V  V4  1  0.74673600  0.03286300  0.88995900  1
  V  V5  1  0.75359900  0.45855600  0.11115300  1
  P  P0  1  0.03507400  0.74540800  0.50548600  1
  P  P1  1  0.10570600  0.61180000  0.14708200  1
  P  P2  1  0.10755600  0.90237500  0.84848800  1
  P  P3  1  0.39261700  0.11130400  0.35482900  1
  P  P4  1  0.39989300  0.40538600  0.64942600  1
  P  P5  1  0.46098400  0.25178700  0.99357800  1
  P  P6  1  0.53900800  0.74871500  0.00578700  1
  P  P7  1  0.60300800  0.60006800  0.34792600  1
  P  P8  1  0.60429700  0.88917200  0.64681000  1
  P  P9  1  0.89369300  0.09904500  0.14934900  1
  P  P10  1  0.89609100  0.38824300  0.85581400  1
  P  P11  1  0.96083800  0.24737900  0.49443700  1
  O  O0  1  0.05144600  0.13268200  0.56731600  1
  O  O1  1  0.06456100  0.32254700  0.40623800  1
  O  O2  1  0.07086300  0.40724400  0.83295600  1
  O  O3  1  0.07286400  0.10554900  0.15188100  1
  O  O4  1  0.10843500  0.63463700  0.42318100  1
  O  O5  1  0.14837300  0.58538700  0.02784900  1
  O  O6  1  0.14897700  0.77830900  0.18093100  1
  O  O7  1  0.15430000  0.02532900  0.75992000  1
  O  O8  1  0.15760200  0.74006800  0.81206500  1
  O  O9  1  0.16078200  0.82307200  0.57145100  1
  O  O10  1  0.17259200  0.95089900  0.95646400  1
  O  O11  1  0.19334200  0.49135000  0.21796400  1
  O  O12  1  0.30374100  0.99158900  0.28558000  1
  O  O13  1  0.33232900  0.45058200  0.54098900  1
  O  O14  1  0.33214300  0.33384200  0.93060900  1
  O  O15  1  0.35386000  0.24478600  0.69052800  1
  O  O16  1  0.34993900  0.27773300  0.32003000  1
  O  O17  1  0.35463200  0.52843200  0.73665200  1
  O  O18  1  0.35726700  0.08736400  0.47632000  1
  O  O19  1  0.38542600  0.13937300  0.07481900  1
  O  O20  1  0.42380700  0.60712700  0.34525800  1
  O  O21  1  0.42770100  0.90673000  0.66558500  1
  O  O22  1  0.43490300  0.82492200  0.09342600  1
  O  O23  1  0.44980200  0.63594800  0.93369400  1
  O  O24  1  0.55005800  0.36418600  0.06598100  1
  O  O25  1  0.56483100  0.17543800  0.90613300  1
  O  O26  1  0.56754400  0.09367700  0.33350800  1
  O  O27  1  0.58078600  0.39979700  0.65090400  1
  O  O28  1  0.61487300  0.86073300  0.92496700  1
  O  O29  1  0.64702800  0.91538900  0.52733300  1
  O  O30  1  0.64643500  0.47774800  0.25937400  1
  O  O31  1  0.64733200  0.72333300  0.68209100  1
  O  O32  1  0.65409400  0.76273100  0.31062100  1
  O  O33  1  0.66829100  0.66631400  0.06875500  1
  O  O34  1  0.67050300  0.54922000  0.45407400  1
  O  O35  1  0.69084700  0.00919000  0.71733900  1
  O  O36  1  0.80516000  0.51006100  0.79062500  1
  O  O37  1  0.82776800  0.05055600  0.04188100  1
  O  O38  1  0.83210200  0.16465500  0.43156600  1
  O  O39  1  0.84204700  0.26017300  0.18846700  1
  O  O40  1  0.85005300  0.97604300  0.23786100  1
  O  O41  1  0.85309800  0.22235700  0.81991700  1
  O  O42  1  0.85928600  0.40722600  0.97722400  1
  O  O43  1  0.88824100  0.35776400  0.57707000  1
  O  O44  1  0.92841500  0.89805200  0.84474900  1
  O  O45  1  0.93075500  0.59441300  0.16782500  1
  O  O46  1  0.92918300  0.66789900  0.59372600  1
  O  O47  1  0.94657500  0.86063400  0.43399700  1
loop_
_geom_bond_atom_site_label_1
_geom_bond_atom_site_label_2
_geom_bond_distance
_geom_bond_site_symmetry_2
Li0 O6 1.962739 1_555
Li0 O47 1.991224 1_455
Li0 O12 2.124726 1_555
Li0 O40 2.233669 1_455
Li1 O11 2.004749 1_555
Li1 O3 2.010301 1_555
Li1 O1 2.028961 1_555
Li1 O39 2.191643 1_455
Li1 O16 2.563073 1_555
Li2 O14 1.955933 1_555
Li2 O7 1.995540 1_555
Li2 O2 2.002122 1_555
Li2 O15 2.009720 1_555
Li3 O9 1.926364 1_555
Li3 O17 1.959787 1_555
Li3 O21 1.989533 1_555
Li3 O8 2.006354 1_555
Li4 O20 1.991538 1_555
Li4 O12 2.006181 1_555
Li4 O22 2.016890 1_555
Li4 O32 2.175692 1_555
Li4 O6 2.546141 1_555
Li5 O16 1.978289 1_555
Li5 O24 1.984263 1_555
Li5 O11 2.128735 1_555
Li5 O30 2.208624 1_555
Li5 O20 2.540554 1_555
Li6 O31 1.959621 1_555
Li6 O23 1.993813 1_555
Li6 O36 2.076049 1_555
Li6 O17 2.225507 1_555
Li6 O27 2.530271 1_555
Li7 O35 2.000058 1_555
Li7 O27 2.032789 1_555
Li7 O25 2.032818 1_555
Li7 O15 2.092272 1_555
Li8 O38 1.981237 1_555
Li8 O30 2.005814 1_555
Li8 O26 2.010571 1_555
Li8 O39 2.016737 1_555
Li9 O33 1.964748 1_555
Li9 O45 1.988883 1_555
Li9 O40 1.994067 1_555
Li9 O32 2.018762 1_555
Li10 O36 1.985379 1_555
Li10 O44 2.018682 1_555
Li10 O46 2.054454 1_555
Li10 O8 2.223829 1_655
Li10 O31 2.547565 1_555
Li11 O41 1.954658 1_555
Li11 O0 1.982040 1_655
Li11 O35 2.156808 1_555
Li11 O7 2.251066 1_655
Li11 O44 2.487496 1_545
Mn0 O18 1.901626 1_555
Mn0 O0 2.003090 1_555
Mn0 O7 2.033367 1_555
Mn0 O21 2.043536 1_545
Mn0 O9 2.132957 1_545
Mn0 O15 2.231617 1_555
Mn1 O46 1.940313 1_555
Mn1 O43 1.969216 1_555
Mn1 O27 1.974525 1_555
Mn1 O34 2.016000 1_555
Mn1 O31 2.113497 1_555
Mn1 O36 2.318966 1_555
O0 P11 1.561629 1_455
O1 P11 1.547579 1_455
O1 V0 2.040025 1_555
O2 P10 1.552742 1_455
O2 V1 2.063617 1_555
O3 P9 1.561221 1_455
O3 V2 2.035297 1_545
O4 P0 1.537458 1_555
O4 V0 1.934909 1_555
O5 P1 1.524687 1_555
O5 V1 1.948863 1_554
O6 P1 1.567426 1_555
O6 V2 2.086415 1_555
O7 P2 1.578170 1_545
O8 P2 1.553598 1_555
O8 V1 2.121198 1_555
O9 P0 1.531236 1_555
O10 P2 1.510623 1_555
O10 V2 2.013680 1_556
O11 P1 1.567828 1_555
O11 V0 2.178635 1_555
O12 P3 1.564938 1_565
O12 V2 2.226750 1_555
O13 P4 1.512426 1_555
O13 V0 2.009049 1_555
O14 P5 1.544170 1_555
O14 V1 2.034382 1_555
O15 P4 1.545518 1_555
O16 P3 1.563808 1_555
O16 V0 2.075976 1_555
O17 P4 1.570057 1_555
O17 V1 2.075683 1_555
O18 P3 1.533072 1_555
O19 P5 1.541735 1_554
O19 V2 1.933903 1_545
O20 P7 1.561490 1_555
O20 V0 2.040350 1_555
O21 P8 1.559003 1_555
O22 P6 1.551458 1_555
O22 V2 2.032569 1_555
O23 P6 1.546049 1_556
O23 V1 2.030130 1_555
O24 P5 1.545609 1_554
O24 V5 2.040221 1_555
O25 P5 1.549067 1_555
O25 V4 2.023906 1_555
O26 P3 1.549405 1_555
O26 V3 2.064453 1_545
O27 P4 1.575372 1_555
O28 P6 1.537352 1_556
O28 V4 1.941237 1_565
O29 P8 1.525603 1_555
O29 V3 1.935580 1_555
O30 P7 1.573093 1_555
O30 V5 2.042774 1_555
O31 P8 1.561362 1_555
O32 P7 1.559787 1_555
O32 V3 2.129034 1_555
O33 P6 1.548381 1_555
O33 V5 2.033514 1_555
O34 P7 1.501140 1_555
O35 P8 1.565456 1_545
O35 V4 2.190688 1_555
O36 P10 1.552776 1_555
O37 P9 1.508038 1_555
O37 V4 2.008373 1_554
O38 P11 1.550865 1_555
O38 V3 2.033264 1_545
O39 P9 1.557952 1_555
O39 V5 2.124941 1_555
O40 P9 1.571419 1_565
O40 V3 2.056644 1_555
O41 P10 1.568792 1_555
O41 V4 2.081057 1_555
O42 P10 1.530759 1_555
O42 V5 1.929450 1_556
O43 P11 1.535270 1_555
O44 P2 1.560879 1_655
O44 V4 2.045555 1_565
O45 P1 1.548621 1_655
O45 V5 2.078258 1_555
O46 P0 1.567616 1_655
O47 P0 1.545532 1_655
O47 V3 2.032181 1_555
