# generated using pymatgen
data_Ti12Mn5(PO4)18
_symmetry_space_group_name_H-M   'P 1'
_cell_length_a   8.66517300
_cell_length_b   12.24589419
_cell_length_c   14.98098626
_cell_angle_alpha   114.01270961
_cell_angle_beta   106.79965891
_cell_angle_gamma   89.98986577
_symmetry_Int_Tables_number   1
_chemical_formula_structural   Ti12Mn5(PO4)18
_chemical_formula_sum   'Ti12 Mn5 P18 O72'
_cell_volume   1377.52950000
_cell_formula_units_Z   1
loop_
 _symmetry_equiv_pos_site_id
 _symmetry_equiv_pos_as_xyz
  1  'x, y, z'
loop_
 _atom_site_type_symbol
 _atom_site_label
 _atom_site_symmetry_multiplicity
 _atom_site_fract_x
 _atom_site_fract_y
 _atom_site_fract_z
 _atom_site_occupancy
  Ti  Ti0  1  0.23539300  0.38242000  0.47160500  1
  Ti  Ti1  1  0.90277600  0.04974100  0.80545300  1
  Ti  Ti2  1  0.56868600  0.71413500  0.13687300  1
  Ti  Ti3  1  0.76460700  0.61758000  0.52839500  1
  Ti  Ti4  1  0.43131400  0.28586500  0.86312700  1
  Ti  Ti5  1  0.09722400  0.95025900  0.19454700  1
  Ti  Ti6  1  0.90956200  0.54527800  0.81942200  1
  Ti  Ti7  1  0.57036600  0.21483600  0.14085700  1
  Ti  Ti8  1  0.23690400  0.88132100  0.47387800  1
  Ti  Ti9  1  0.09043800  0.45472200  0.18057800  1
  Ti  Ti10  1  0.76309600  0.11867900  0.52612200  1
  Ti  Ti11  1  0.42963400  0.78516400  0.85914300  1
  Mn  Mn0  1  0.66604000  0.66596000  0.33282200  1
  Mn  Mn1  1  0.33396000  0.33404000  0.66717800  1
  Mn  Mn2  1  0.00000000  0.00000000  0.00000000  1
  Mn  Mn3  1  0.33258600  0.83294500  0.66668300  1
  Mn  Mn4  1  0.66741400  0.16705500  0.33331700  1
  P  P0  1  0.30593800  0.55443600  0.89943300  1
  P  P1  1  0.97372200  0.22295800  0.23367800  1
  P  P2  1  0.63952400  0.88745500  0.56774900  1
  P  P3  1  0.73151900  0.27778600  0.76130800  1
  P  P4  1  0.39990700  0.94454300  0.09618000  1
  P  P5  1  0.06645500  0.60991100  0.42704300  1
  P  P6  1  0.79175500  0.75300800  0.99881900  1
  P  P7  1  0.45594900  0.41894600  0.33172000  1
  P  P8  1  0.12644900  0.08545300  0.66658500  1
  P  P9  1  0.69406200  0.44556400  0.10056700  1
  P  P10  1  0.36047600  0.11254500  0.43225100  1
  P  P11  1  0.02627800  0.77704200  0.76632200  1
  P  P12  1  0.26848100  0.72221400  0.23869200  1
  P  P13  1  0.93354500  0.39008900  0.57295700  1
  P  P14  1  0.60009300  0.05545700  0.90382000  1
  P  P15  1  0.20824500  0.24699200  0.00118100  1
  P  P16  1  0.87355100  0.91454700  0.33341500  1
  P  P17  1  0.54405100  0.58105400  0.66828000  1
  O  O0  1  0.13603500  0.52052100  0.47263900  1
  O  O1  1  0.80272500  0.18842700  0.80555000  1
  O  O2  1  0.46915500  0.85426100  0.13961100  1
  O  O3  1  0.39529400  0.40238300  0.41365200  1
  O  O4  1  0.06339600  0.06920000  0.74690600  1
  O  O5  1  0.72894500  0.73541900  0.07899200  1
  O  O6  1  0.08499500  0.26907900  0.34689100  1
  O  O7  1  0.75115700  0.93489800  0.67985300  1
  O  O8  1  0.41625700  0.60171300  0.01221400  1
  O  O9  1  0.86396500  0.47947900  0.52736100  1
  O  O10  1  0.53084500  0.14573900  0.86038900  1
  O  O11  1  0.19727500  0.81157300  0.19445000  1
  O  O12  1  0.60470600  0.59761700  0.58634800  1
  O  O13  1  0.27105500  0.26458100  0.92100800  1
  O  O14  1  0.93660400  0.93080000  0.25309400  1
  O  O15  1  0.91500500  0.73092100  0.65310900  1
  O  O16  1  0.58374300  0.39828700  0.98778600  1
  O  O17  1  0.24884300  0.06510200  0.32014700  1
  O  O18  1  0.44385500  0.70484500  0.23397100  1
  O  O19  1  0.10889000  0.37098900  0.56690200  1
  O  O20  1  0.77568600  0.03726700  0.90000600  1
  O  O21  1  0.07459300  0.13594900  0.94953900  1
  O  O22  1  0.74102900  0.80352800  0.28320700  1
  O  O23  1  0.40839200  0.47058100  0.61664800  1
  O  O24  1  0.65697800  0.57144900  0.16736700  1
  O  O25  1  0.32490800  0.23849300  0.50044500  1
  O  O26  1  0.99139700  0.90398600  0.83360300  1
  O  O27  1  0.55614500  0.29515500  0.76602900  1
  O  O28  1  0.22431400  0.96273300  0.09999400  1
  O  O29  1  0.89111000  0.62901100  0.43309800  1
  O  O30  1  0.92540700  0.86405100  0.05046100  1
  O  O31  1  0.59160800  0.52941900  0.38335200  1
  O  O32  1  0.25897100  0.19647200  0.71679300  1
  O  O33  1  0.34302200  0.42855100  0.83263300  1
  O  O34  1  0.00860300  0.09601400  0.16639700  1
  O  O35  1  0.67509200  0.76150700  0.49955500  1
  O  O36  1  0.05647000  0.56215100  0.31398500  1
  O  O37  1  0.71851600  0.22751100  0.64627100  1
  O  O38  1  0.38866200  0.89785700  0.98205000  1
  O  O39  1  0.31769500  0.44157000  0.25377900  1
  O  O40  1  0.98805300  0.10779800  0.58712200  1
  O  O41  1  0.65240500  0.77892100  0.92185800  1
  O  O42  1  0.00311500  0.30795100  0.18704900  1
  O  O43  1  0.66740000  0.97150900  0.51889200  1
  O  O44  1  0.33931500  0.63919100  0.85210100  1
  O  O45  1  0.94353000  0.43784900  0.68601500  1
  O  O46  1  0.61133800  0.10214300  0.01795000  1
  O  O47  1  0.28148400  0.77248900  0.35372900  1
  O  O48  1  0.68230500  0.55843000  0.74622100  1
  O  O49  1  0.34759500  0.22107900  0.07814200  1
  O  O50  1  0.01194700  0.89220200  0.41287800  1
  O  O51  1  0.99688500  0.69204900  0.81295100  1
  O  O52  1  0.66068500  0.36080900  0.14789900  1
  O  O53  1  0.33260000  0.02849100  0.48110800  1
  O  O54  1  0.48576600  0.93405900  0.83424100  1
  O  O55  1  0.81985800  0.26787500  0.50165800  1
  O  O56  1  0.15806600  0.60119100  0.17523400  1
  O  O57  1  0.46729300  0.69774100  0.71642000  1
  O  O58  1  0.79925200  0.03128500  0.38307800  1
  O  O59  1  0.13745900  0.36093400  0.05490300  1
  O  O60  1  0.20336700  0.78944800  0.76233700  1
  O  O61  1  0.53745900  0.12318300  0.42882900  1
  O  O62  1  0.87081600  0.45476500  0.10193700  1
  O  O63  1  0.18014200  0.73212500  0.49834200  1
  O  O64  1  0.51423400  0.06594100  0.16575900  1
  O  O65  1  0.84193400  0.39880900  0.82476600  1
  O  O66  1  0.20074800  0.96871500  0.61692200  1
  O  O67  1  0.53270700  0.30225900  0.28358000  1
  O  O68  1  0.86254100  0.63906600  0.94509700  1
  O  O69  1  0.46254100  0.87681700  0.57117100  1
  O  O70  1  0.79663300  0.21055200  0.23766300  1
  O  O71  1  0.12918400  0.54523500  0.89806300  1
loop_
_geom_bond_atom_site_label_1
_geom_bond_atom_site_label_2
_geom_bond_distance
_geom_bond_site_symmetry_2
Mn0 O24 2.245491 1_555
Mn0 O18 2.247655 1_555
Mn0 O31 2.257783 1_555
Mn0 O22 2.260842 1_555
Mn0 O35 2.263284 1_555
Mn0 O29 2.263700 1_555
Mn1 O33 2.245491 1_555
Mn1 O27 2.247655 1_555
Mn1 O23 2.257783 1_555
Mn1 O32 2.260842 1_555
Mn1 O25 2.263284 1_555
Mn1 O19 2.263700 1_555
Mn2 O21 2.251219 1_554
Mn2 O30 2.251219 1_445
Mn2 O28 2.259052 1_545
Mn2 O20 2.259052 1_454
Mn2 O26 2.260349 1_444
Mn2 O34 2.260349 1_555
Mn3 O60 2.267129 1_555
Mn3 O66 2.267359 1_555
Mn3 O54 2.267369 1_555
Mn3 O57 2.271482 1_555
Mn3 O69 2.271859 1_555
Mn3 O63 2.273776 1_555
Mn4 O70 2.267129 1_555
Mn4 O58 2.267359 1_555
Mn4 O64 2.267369 1_555
Mn4 O67 2.271482 1_555
Mn4 O61 2.271859 1_555
Mn4 O55 2.273776 1_555
O0 P5 1.548758 1_555
O0 Ti0 1.894046 1_555
O1 P3 1.539837 1_555
O1 Ti1 1.906347 1_555
O2 P4 1.537934 1_555
O2 Ti2 1.911203 1_555
O3 P7 1.549037 1_555
O3 Ti0 1.897775 1_555
O4 P8 1.536561 1_555
O4 Ti1 1.907630 1_455
O5 P6 1.540664 1_554
O5 Ti2 1.904824 1_555
O6 P1 1.549354 1_455
O6 Ti0 1.896878 1_555
O7 P2 1.536470 1_555
O7 Ti1 1.913727 1_565
O8 P0 1.540811 1_554
O8 Ti2 1.899947 1_555
O9 P13 1.548758 1_555
O9 Ti3 1.894046 1_555
O10 P14 1.537934 1_555
O10 Ti4 1.911203 1_555
O11 P12 1.539837 1_555
O11 Ti5 1.906347 1_555
O12 P17 1.549037 1_555
O12 Ti3 1.897775 1_555
O13 P15 1.540664 1_556
O13 Ti4 1.904824 1_555
O14 P16 1.536561 1_555
O14 Ti5 1.907630 1_655
O15 P11 1.549354 1_655
O15 Ti3 1.896878 1_555
O16 P9 1.540811 1_556
O16 Ti4 1.899947 1_555
O17 P10 1.536470 1_555
O17 Ti5 1.913727 1_545
O18 P12 1.552204 1_555
O18 Ti2 2.084027 1_555
O19 P13 1.560055 1_455
O19 Ti0 2.080065 1_555
O20 P14 1.551694 1_555
O20 Ti1 2.078569 1_555
O21 P15 1.554123 1_556
O21 Ti1 2.068491 1_455
O22 P16 1.549750 1_555
O22 Ti2 2.095084 1_555
O23 P17 1.560002 1_555
O23 Ti0 2.083896 1_555
O24 P9 1.552840 1_555
O24 Ti2 2.072268 1_555
O25 P10 1.554651 1_555
O25 Ti0 2.078543 1_555
O26 P11 1.557106 1_655
O26 Ti1 2.092450 1_565
O27 P3 1.552204 1_555
O27 Ti4 2.084027 1_555
O28 P4 1.551694 1_555
O28 Ti5 2.078569 1_555
O29 P5 1.560055 1_655
O29 Ti3 2.080065 1_555
O30 P6 1.554123 1_554
O30 Ti5 2.068491 1_655
O31 P7 1.560002 1_555
O31 Ti3 2.083896 1_555
O32 P8 1.549750 1_555
O32 Ti4 2.095084 1_555
O33 P0 1.552840 1_555
O33 Ti4 2.072268 1_555
O34 P1 1.557106 1_455
O34 Ti5 2.092450 1_545
O35 P2 1.554651 1_555
O35 Ti3 2.078543 1_555
O36 P5 1.525557 1_555
O36 Ti9 2.002908 1_555
O37 P3 1.544661 1_555
O37 Ti10 1.901211 1_555
O38 P4 1.538780 1_556
O38 Ti11 1.931431 1_555
O39 P7 1.526399 1_555
O39 Ti9 2.000422 1_555
O40 P8 1.539456 1_655
O40 Ti10 1.929222 1_555
O41 P6 1.543020 1_555
O41 Ti11 1.903904 1_555
O42 P1 1.526700 1_455
O42 Ti9 1.999269 1_555
O43 P2 1.539157 1_555
O43 Ti10 1.933160 1_565
O44 P0 1.543149 1_555
O44 Ti11 1.902191 1_555
O45 P13 1.525557 1_555
O45 Ti6 2.002908 1_555
O46 P14 1.538780 1_554
O46 Ti7 1.931431 1_555
O47 P12 1.544661 1_555
O47 Ti8 1.901211 1_555
O48 P17 1.526399 1_555
O48 Ti6 2.000422 1_555
O49 P15 1.543020 1_555
O49 Ti7 1.903904 1_555
O50 P16 1.539456 1_455
O50 Ti8 1.929222 1_555
O51 P11 1.526700 1_655
O51 Ti6 1.999269 1_555
O52 P9 1.543149 1_555
O52 Ti7 1.902191 1_555
O53 P10 1.539157 1_555
O53 Ti8 1.933160 1_545
O54 P14 1.555767 1_565
O54 Ti11 2.087864 1_555
O55 P13 1.562834 1_555
O55 Ti10 2.088971 1_555
O56 P12 1.530891 1_555
O56 Ti9 1.926482 1_555
O57 P17 1.562873 1_555
O57 Ti11 2.089120 1_555
O58 P16 1.556471 1_545
O58 Ti10 2.087374 1_555
O59 P15 1.530346 1_555
O59 Ti9 1.926958 1_555
O60 P11 1.562618 1_555
O60 Ti11 2.090056 1_555
O61 P10 1.556420 1_555
O61 Ti10 2.090048 1_555
O62 P9 1.529358 1_555
O62 Ti9 1.927201 1_655
O63 P5 1.562834 1_555
O63 Ti8 2.088971 1_555
O64 P4 1.555767 1_545
O64 Ti7 2.087864 1_555
O65 P3 1.530891 1_555
O65 Ti6 1.926482 1_555
O66 P8 1.556471 1_565
O66 Ti8 2.087374 1_555
O67 P7 1.562873 1_555
O67 Ti7 2.089120 1_555
O68 P6 1.530346 1_555
O68 Ti6 1.926958 1_555
O69 P2 1.556420 1_555
O69 Ti8 2.090048 1_555
O70 P1 1.562618 1_555
O70 Ti7 2.090056 1_555
O71 P0 1.529358 1_555
O71 Ti6 1.927201 1_455
