# generated using pymatgen
data_KVCl3
_symmetry_space_group_name_H-M   'P 1'
_cell_length_a   6.91495613
_cell_length_b   6.91495643
_cell_length_c   6.16009058
_cell_angle_alpha   90.00000000
_cell_angle_beta   90.00000000
_cell_angle_gamma   119.99942116
_symmetry_Int_Tables_number   1
_chemical_formula_structural   KVCl3
_chemical_formula_sum   'K2 V2 Cl6'
_cell_volume   255.09335182
_cell_formula_units_Z   2
loop_
 _symmetry_equiv_pos_site_id
 _symmetry_equiv_pos_as_xyz
  1  'x, y, z'
loop_
 _atom_site_type_symbol
 _atom_site_label
 _atom_site_symmetry_multiplicity
 _atom_site_fract_x
 _atom_site_fract_y
 _atom_site_fract_z
 _atom_site_occupancy
  K  K0  1  0.33332922  0.66666762  0.75000000  1
  K  K1  1  0.66667078  0.33333238  0.25000000  1
  V  V0  1  -0.00000000  0.00000000  -0.00000000  1
  V  V1  1  -0.00000000  0.00000000  0.50000000  1
  Cl  Cl0  1  0.16288493  0.32577108  0.25000000  1
  Cl  Cl1  1  0.83711507  0.67422892  0.75000000  1
  Cl  Cl2  1  0.67422894  0.83711508  0.25000000  1
  Cl  Cl3  1  0.32577106  0.16288492  0.75000000  1
  Cl  Cl4  1  0.16288626  0.83711364  0.25000000  1
  Cl  Cl5  1  0.83711374  0.16288636  0.75000000  1
loop_
_geom_bond_atom_site_label_1
_geom_bond_atom_site_label_2
_geom_bond_distance
_geom_bond_site_symmetry_2
Cl0 V1 2.485494 1_555
Cl0 V0 2.485494 1_555
Cl0 K1 3.457738 1_455
Cl0 K1 3.457811 1_555
Cl0 K0 3.695175 1_554
Cl0 K0 3.695175 1_555
Cl1 V0 2.485494 1_666
Cl1 V1 2.485494 1_665
Cl1 K0 3.457738 1_655
Cl1 K0 3.457811 1_555
Cl1 K1 3.695175 1_556
Cl1 K1 3.695175 1_555
Cl2 V1 2.485494 1_665
Cl2 V0 2.485494 1_665
Cl2 K1 3.457749 1_565
Cl2 K1 3.457800 1_555
Cl2 K0 3.695186 1_554
Cl2 K0 3.695186 1_555
Cl3 V0 2.485494 1_556
Cl3 V1 2.485494 1_555
Cl3 K0 3.457749 1_545
Cl3 K0 3.457800 1_555
Cl3 K1 3.695186 1_555
Cl3 K1 3.695186 1_556
Cl4 V0 2.485488 1_565
Cl4 V1 2.485488 1_565
Cl4 K1 3.457794 1_455
Cl4 K1 3.457817 1_565
Cl4 K0 3.695140 1_554
Cl4 K0 3.695140 1_555
Cl5 V0 2.485488 1_656
Cl5 V1 2.485488 1_655
Cl5 K0 3.457794 1_655
Cl5 K0 3.457817 1_545
Cl5 K1 3.695140 1_555
Cl5 K1 3.695140 1_556
