# generated using pymatgen
data_Zn(IrO2)2
_symmetry_space_group_name_H-M   'P 1'
_cell_length_a   6.18673744
_cell_length_b   6.18673744
_cell_length_c   6.18673744
_cell_angle_alpha   60.00000000
_cell_angle_beta   60.00000000
_cell_angle_gamma   60.00000000
_symmetry_Int_Tables_number   1
_chemical_formula_structural   Zn(IrO2)2
_chemical_formula_sum   'Zn2 Ir4 O8'
_cell_volume   167.44418075
_cell_formula_units_Z   2
loop_
 _symmetry_equiv_pos_site_id
 _symmetry_equiv_pos_as_xyz
  1  'x, y, z'
loop_
 _atom_site_type_symbol
 _atom_site_label
 _atom_site_symmetry_multiplicity
 _atom_site_fract_x
 _atom_site_fract_y
 _atom_site_fract_z
 _atom_site_occupancy
  Zn  Zn0  1  0.25000000  0.25000000  0.25000000  1
  Zn  Zn1  1  0.00000000  0.00000000  0.00000000  1
  Ir  Ir0  1  0.62500000  0.62500000  0.12500000  1
  Ir  Ir1  1  0.62500000  0.12500000  0.62500000  1
  Ir  Ir2  1  0.12500000  0.62500000  0.62500000  1
  Ir  Ir3  1  0.62500000  0.62500000  0.62500000  1
  O  O0  1  0.86356200  0.86356200  0.40931400  1
  O  O1  1  0.86356200  0.40931400  0.86356200  1
  O  O2  1  0.40931400  0.86356200  0.86356200  1
  O  O3  1  0.86356200  0.86356200  0.86356200  1
  O  O4  1  0.38643800  0.38643800  0.84068600  1
  O  O5  1  0.38643800  0.84068600  0.38643800  1
  O  O6  1  0.84068600  0.38643800  0.38643800  1
  O  O7  1  0.38643800  0.38643800  0.38643800  1
loop_
_geom_bond_atom_site_label_1
_geom_bond_atom_site_label_2
_geom_bond_distance
_geom_bond_site_symmetry_2
Ir0 O3 2.092059 1_554
Ir0 O5 2.092059 1_555
Ir0 O6 2.092059 1_555
Ir0 O7 2.092059 1_555
Ir0 O1 2.092059 1_554
Ir0 O2 2.092059 1_554
Ir1 O3 2.092059 1_545
Ir1 O4 2.092059 1_555
Ir1 O6 2.092059 1_555
Ir1 O7 2.092059 1_555
Ir1 O2 2.092059 1_545
Ir1 O0 2.092059 1_545
Ir2 O3 2.092059 1_455
Ir2 O4 2.092059 1_555
Ir2 O5 2.092059 1_555
Ir2 O7 2.092059 1_555
Ir2 O1 2.092059 1_455
Ir2 O0 2.092059 1_455
Ir3 O1 2.092059 1_555
Ir3 O0 2.092059 1_555
Ir3 O2 2.092059 1_555
Ir3 O4 2.092059 1_555
Ir3 O6 2.092059 1_555
Ir3 O5 2.092059 1_555
O0 Zn1 2.067629 1_665
O1 Zn1 2.067629 1_656
O2 Zn1 2.067629 1_566
O3 Zn1 2.067629 1_666
O4 Zn0 2.067629 1_556
O5 Zn0 2.067629 1_565
O6 Zn0 2.067629 1_655
O7 Zn0 2.067629 1_555
