# generated using pymatgen
data_RbSi2N3
_symmetry_space_group_name_H-M   'P 1'
_cell_length_a   5.61966818
_cell_length_b   5.78492912
_cell_length_c   5.10797300
_cell_angle_alpha   90.00000000
_cell_angle_beta   90.00000000
_cell_angle_gamma   120.97766030
_symmetry_Int_Tables_number   1
_chemical_formula_structural   RbSi2N3
_chemical_formula_sum   'Rb2 Si4 N6'
_cell_volume   142.37200570
_cell_formula_units_Z   2
loop_
 _symmetry_equiv_pos_site_id
 _symmetry_equiv_pos_as_xyz
  1  'x, y, z'
loop_
 _atom_site_type_symbol
 _atom_site_label
 _atom_site_symmetry_multiplicity
 _atom_site_fract_x
 _atom_site_fract_y
 _atom_site_fract_z
 _atom_site_occupancy
  Rb  Rb0  1  0.00000000  0.64626100  0.48563700  1
  Rb  Rb1  1  0.00000000  0.35373900  0.98563700  1
  Si  Si0  1  0.34875100  0.31182400  0.48868100  1
  Si  Si1  1  0.65124900  0.96307300  0.48868100  1
  Si  Si2  1  0.65124900  0.68817600  0.98868100  1
  Si  Si3  1  0.34875100  0.03692700  0.98868100  1
  N  N0  1  0.48068700  0.35990800  0.82247700  1
  N  N1  1  0.51931300  0.87922100  0.82247700  1
  N  N2  1  0.51931300  0.64009200  0.32247700  1
  N  N3  1  0.48068700  0.12077900  0.32247700  1
  N  N4  1  0.00000000  0.84133700  0.98004600  1
  N  N5  1  0.00000000  0.15866300  0.48004600  1
loop_
_geom_bond_atom_site_label_1
_geom_bond_atom_site_label_2
_geom_bond_distance
_geom_bond_site_symmetry_2
N0 Si0 1.822606 1_555
N0 Si3 1.826312 1_555
N0 Si2 1.836292 1_555
N0 Rb1 2.809564 1_555
N0 Rb0 3.040524 1_655
N0 Rb1 3.052857 1_655
N1 Si1 1.822606 1_555
N1 Si2 1.826312 1_555
N1 Si3 1.836292 1_565
N1 Rb1 2.809564 1_665
N1 Rb0 3.040524 1_555
N1 Rb1 3.052856 1_555
N2 Si2 1.822606 1_554
N2 Si1 1.826312 1_555
N2 Si0 1.836292 1_555
N2 Rb0 2.809564 1_655
N2 Rb1 3.040524 1_554
N2 Rb0 3.052857 1_555
N3 Si3 1.822606 1_554
N3 Si0 1.826312 1_555
N3 Si1 1.836292 1_545
N3 Rb0 2.809564 1_545
N3 Rb1 3.040524 1_654
N3 Rb0 3.052856 1_655
N4 Si3 1.685378 1_565
N4 Si2 1.685378 1_455
N4 Rb0 2.766098 1_555
N4 Rb0 2.818342 1_556
N4 Rb1 2.820864 1_555
N4 Rb1 2.964347 1_565
N5 Si1 1.685378 1_445
N5 Si0 1.685378 1_555
N5 Rb1 2.766098 1_554
N5 Rb1 2.818342 1_555
N5 Rb0 2.820864 1_555
N5 Rb0 2.964347 1_545
