# generated using pymatgen
data_K2AlMo3(P2O7)4
_symmetry_space_group_name_H-M   'P 1'
_cell_length_a   7.68221700
_cell_length_b   9.33544568
_cell_length_c   9.74605750
_cell_angle_alpha   117.95239262
_cell_angle_beta   103.25130343
_cell_angle_gamma   99.99141767
_symmetry_Int_Tables_number   1
_chemical_formula_structural   K2AlMo3(P2O7)4
_chemical_formula_sum   'K2 Al1 Mo3 P8 O28'
_cell_volume   567.98857674
_cell_formula_units_Z   1
loop_
 _symmetry_equiv_pos_site_id
 _symmetry_equiv_pos_as_xyz
  1  'x, y, z'
loop_
 _atom_site_type_symbol
 _atom_site_label
 _atom_site_symmetry_multiplicity
 _atom_site_fract_x
 _atom_site_fract_y
 _atom_site_fract_z
 _atom_site_occupancy
  K  K0  1  0.00000000  0.50000000  0.00000000  1
  K  K1  1  0.50000000  0.50000000  0.50000000  1
  Al  Al0  1  0.00000000  0.50000000  0.50000000  1
  Mo  Mo0  1  0.24822100  0.99820800  0.75244500  1
  Mo  Mo1  1  0.75177900  0.00179200  0.24755500  1
  Mo  Mo2  1  0.50000000  0.50000000  0.00000000  1
  P  P0  1  0.41397500  0.19555300  0.34359400  1
  P  P1  1  0.91904000  0.20228200  0.83451600  1
  P  P2  1  0.58602500  0.80444700  0.65640600  1
  P  P3  1  0.08096000  0.79771800  0.16548400  1
  P  P4  1  0.57029500  0.25697100  0.81307800  1
  P  P5  1  0.05685800  0.25572300  0.32823500  1
  P  P6  1  0.42970500  0.74302900  0.18692200  1
  P  P7  1  0.94314200  0.74427700  0.67176500  1
  O  O0  1  0.38823600  0.18986800  0.50838500  1
  O  O1  1  0.89186400  0.19468200  0.00141300  1
  O  O2  1  0.61176400  0.81013200  0.49161500  1
  O  O3  1  0.10813600  0.80531800  0.99858700  1
  O  O4  1  0.38747700  0.15967800  0.81743900  1
  O  O5  1  0.88172300  0.15578200  0.32610200  1
  O  O6  1  0.61252300  0.84032200  0.18256100  1
  O  O7  1  0.11827700  0.84421800  0.67389800  1
  O  O8  1  0.80157000  0.59835800  0.84980700  1
  O  O9  1  0.28369200  0.59514000  0.35660700  1
  O  O10  1  0.19843000  0.40164200  0.15019300  1
  O  O11  1  0.71630800  0.40486000  0.64339300  1
  O  O12  1  0.19176400  0.14510900  0.35831300  1
  O  O13  1  0.69407700  0.14172400  0.85577100  1
  O  O14  1  0.80823600  0.85489100  0.64168700  1
  O  O15  1  0.30592300  0.85827600  0.14422900  1
  O  O16  1  0.49924900  0.07114200  0.30459200  1
  O  O17  1  0.00357000  0.07445900  0.80222800  1
  O  O18  1  0.50075100  0.92885800  0.69540800  1
  O  O19  1  0.99643000  0.92554100  0.19777200  1
  O  O20  1  0.53801000  0.37416000  0.20606800  1
  O  O21  1  0.03406700  0.37859500  0.69391300  1
  O  O22  1  0.46199000  0.62584000  0.79393200  1
  O  O23  1  0.96593300  0.62140500  0.30608700  1
  O  O24  1  0.49570700  0.30503900  0.95510800  1
  O  O25  1  0.99337700  0.31605700  0.45740100  1
  O  O26  1  0.50429300  0.69496100  0.04489200  1
  O  O27  1  0.00662300  0.68394300  0.54259900  1
loop_
_geom_bond_atom_site_label_1
_geom_bond_atom_site_label_2
_geom_bond_distance
_geom_bond_site_symmetry_2
K0 P3 2.334674 1_555
K0 P1 2.334674 1_454
K0 O8 2.456078 1_454
K0 O10 2.456078 1_555
K0 O21 2.746523 1_554
K0 O23 2.746523 1_455
K1 P2 2.379716 1_555
K1 P0 2.379716 1_555
K1 O11 2.472724 1_555
K1 O9 2.472724 1_555
K1 O20 2.649401 1_555
K1 O22 2.649401 1_555
Al0 O25 1.554137 1_455
Al0 O27 1.554137 1_555
Mo0 O7 1.330094 1_555
Mo0 O4 1.432677 1_565
Mo1 O5 1.330094 1_555
Mo1 O6 1.432677 1_545
Mo2 O26 1.652611 1_555
Mo2 O24 1.652611 1_554
O0 P0 1.686181 1_555
O1 P1 1.718470 1_554
O2 P2 1.686181 1_555
O3 P3 1.718470 1_556
O4 P4 1.555684 1_555
O5 P5 1.488117 1_655
O6 P6 1.555684 1_555
O7 P7 1.488117 1_455
O10 O9 1.821456 1_555
O11 O8 1.821456 1_555
O12 P5 1.655958 1_555
O12 P0 1.747308 1_555
O13 P4 1.681723 1_555
O13 P1 1.812216 1_555
O14 P7 1.655958 1_555
O14 P2 1.747308 1_555
O15 P6 1.681723 1_555
O15 P3 1.812216 1_555
O16 P0 1.373629 1_555
O17 P1 1.398281 1_455
O18 P2 1.373629 1_555
O19 P3 1.398281 1_655
O24 P4 1.521947 1_555
O25 P5 1.360825 1_655
O26 P6 1.521947 1_555
O27 P7 1.360825 1_455
