# generated using pymatgen
data_MgIr
_symmetry_space_group_name_H-M   'P 1'
_cell_length_a   4.41403500
_cell_length_b   3.12043700
_cell_length_c   4.41418600
_cell_angle_alpha   90.00000000
_cell_angle_beta   90.00000000
_cell_angle_gamma   90.00000000
_symmetry_Int_Tables_number   1
_chemical_formula_structural   MgIr
_chemical_formula_sum   'Mg2 Ir2'
_cell_volume   60.79975375
_cell_formula_units_Z   2
loop_
 _symmetry_equiv_pos_site_id
 _symmetry_equiv_pos_as_xyz
  1  'x, y, z'
loop_
 _atom_site_type_symbol
 _atom_site_label
 _atom_site_symmetry_multiplicity
 _atom_site_fract_x
 _atom_site_fract_y
 _atom_site_fract_z
 _atom_site_occupancy
  Mg  Mg0  1  0.75000000  0.50000000  0.26574900  1
  Mg  Mg1  1  0.24999800  0.50000000  0.73424900  1
  Ir  Ir0  1  0.24999800  0.00000000  0.23228100  1
  Ir  Ir1  1  0.75000000  0.00000000  0.76771900  1
loop_
_geom_bond_atom_site_label_1
_geom_bond_atom_site_label_2
_geom_bond_distance
_geom_bond_site_symmetry_2
Ir0 Mg1 2.695787 1_544
Ir0 Mg1 2.695787 1_554
Ir0 Mg0 2.706842 1_445
Ir0 Mg0 2.706842 1_455
Ir0 Mg0 2.706857 1_555
Ir0 Mg0 2.706857 1_545
Ir0 Mg1 2.709975 1_545
Ir0 Mg1 2.709975 1_555
Ir1 Mg0 2.695780 1_546
Ir1 Mg0 2.695780 1_556
Ir1 Mg1 2.706843 1_655
Ir1 Mg1 2.706843 1_645
Ir1 Mg1 2.706857 1_545
Ir1 Mg1 2.706857 1_555
Ir1 Mg0 2.709982 1_555
Ir1 Mg0 2.709982 1_545
