# generated using pymatgen
data_Ca8In3
_symmetry_space_group_name_H-M   'P 1'
_cell_length_a   9.58934500
_cell_length_b   9.69175997
_cell_length_c   9.75618036
_cell_angle_alpha   98.90777871
_cell_angle_beta   101.07144810
_cell_angle_gamma   119.56157181
_symmetry_Int_Tables_number   1
_chemical_formula_structural   Ca8In3
_chemical_formula_sum   'Ca16 In6'
_cell_volume   740.18463417
_cell_formula_units_Z   2
loop_
 _symmetry_equiv_pos_site_id
 _symmetry_equiv_pos_as_xyz
  1  'x, y, z'
loop_
 _atom_site_type_symbol
 _atom_site_label
 _atom_site_symmetry_multiplicity
 _atom_site_fract_x
 _atom_site_fract_y
 _atom_site_fract_z
 _atom_site_occupancy
  Ca  Ca0  1  0.29478300  0.94299300  0.78098600  1
  Ca  Ca1  1  0.86621400  0.58036000  0.76145800  1
  Ca  Ca2  1  0.03721800  0.38078500  0.22269600  1
  Ca  Ca3  1  0.80396200  0.17787400  0.46037400  1
  Ca  Ca4  1  0.66876500  0.75686000  0.21967200  1
  Ca  Ca5  1  0.37940200  0.82145400  0.44125000  1
  Ca  Ca6  1  0.25777500  0.65067100  0.00499600  1
  Ca  Ca7  1  0.21774800  0.28278900  0.75999000  1
  Ca  Ca8  1  0.41385600  0.10813900  0.21993000  1
  Ca  Ca9  1  0.11065100  0.03153600  0.41123800  1
  Ca  Ca10  1  0.87762100  0.58967200  0.40885000  1
  Ca  Ca11  1  0.00064600  0.00071200  0.00045600  1
  Ca  Ca12  1  0.56160700  0.72557500  0.81235800  1
  Ca  Ca13  1  0.79072600  0.16870200  0.81353100  1
  Ca  Ca14  1  0.45769100  0.47905100  0.46390800  1
  Ca  Ca15  1  0.63454000  0.38062300  0.00303800  1
  In  In0  1  0.84025800  0.88049800  0.61291900  1
  In  In1  1  0.66018900  0.04039700  0.08290600  1
  In  In2  1  0.01212600  0.72066200  0.13711700  1
  In  In3  1  0.16407200  0.54338000  0.61152400  1
  In  In4  1  0.33785400  0.38210200  0.11360300  1
  In  In5  1  0.50989500  0.21886600  0.61170100  1
loop_
_geom_bond_atom_site_label_1
_geom_bond_atom_site_label_2
_geom_bond_distance
_geom_bond_site_symmetry_2
Ca0 In5 3.371261 1_565
Ca0 In3 3.425693 1_555
Ca0 In1 3.708985 1_566
Ca1 In5 3.281714 1_555
Ca1 In2 3.442202 1_656
Ca1 In0 3.536227 1_555
Ca1 In3 3.588707 1_655
Ca2 In4 3.254296 1_555
Ca2 In1 3.280053 1_455
Ca2 In3 3.583074 1_555
Ca2 In2 3.627961 1_555
Ca3 In3 3.317254 1_655
Ca3 In1 3.457720 1_555
Ca3 In0 3.572358 1_545
Ca3 In5 3.579406 1_555
Ca4 In4 3.245717 1_555
Ca4 In1 3.264181 1_565
Ca4 In0 3.615020 1_555
Ca4 In2 3.699166 1_655
Ca5 In3 3.391089 1_555
Ca5 In5 3.409954 1_565
Ca5 In2 3.722432 1_555
Ca6 In2 3.184748 1_555
Ca6 In4 3.316834 1_555
Ca6 In3 3.625192 1_554
Ca6 In1 3.652112 1_565
Ca7 In4 3.241387 1_556
Ca7 In3 3.297093 1_555
Ca7 In0 3.565160 1_445
Ca7 In5 3.649226 1_555
Ca8 In1 3.204572 1_555
Ca8 In4 3.336060 1_555
Ca8 In5 3.607150 1_555
Ca8 In2 3.631268 1_545
Ca9 In2 3.293631 1_545
Ca9 In5 3.308273 1_555
Ca9 In0 3.441480 1_445
Ca10 In2 3.323158 1_655
Ca10 In3 3.325830 1_655
Ca10 In0 3.401372 1_555
Ca11 In2 3.242790 1_545
Ca11 In4 3.302935 1_555
Ca11 In0 3.557007 1_444
Ca11 In1 3.688557 1_455
Ca12 In1 3.297251 1_566
Ca12 In3 3.302593 1_555
Ca12 In0 3.481849 1_555
Ca13 In1 3.280184 1_556
Ca13 In5 3.304180 1_555
Ca13 In0 3.439673 1_545
Ca14 In4 3.211759 1_555
Ca14 In5 3.283710 1_555
Ca14 In0 3.581313 1_555
Ca14 In3 3.660858 1_555
Ca15 In4 3.236056 1_555
Ca15 In2 3.279313 1_655
Ca15 In5 3.606648 1_554
Ca15 In1 3.614245 1_555
