# generated using pymatgen
data_Mg14FeCO16
_symmetry_space_group_name_H-M   'P 1'
_cell_length_a   8.53783827
_cell_length_b   8.49281001
_cell_length_c   4.24833936
_cell_angle_alpha   90.00000000
_cell_angle_beta   90.00000000
_cell_angle_gamma   90.00000000
_symmetry_Int_Tables_number   1
_chemical_formula_structural   Mg14FeCO16
_chemical_formula_sum   'Mg14 Fe1 C1 O16'
_cell_volume   308.04809947
_cell_formula_units_Z   1
loop_
 _symmetry_equiv_pos_site_id
 _symmetry_equiv_pos_as_xyz
  1  'x, y, z'
loop_
 _atom_site_type_symbol
 _atom_site_label
 _atom_site_symmetry_multiplicity
 _atom_site_fract_x
 _atom_site_fract_y
 _atom_site_fract_z
 _atom_site_occupancy
  Mg  Mg0  1  0.50000000  0.00000000  0.00000000  1
  Mg  Mg1  1  0.50000000  0.50000000  0.00000000  1
  Mg  Mg2  1  0.00000000  0.25328502  0.50000000  1
  Mg  Mg3  1  0.00000000  0.74671498  0.50000000  1
  Mg  Mg4  1  0.50000000  0.25032821  0.50000000  1
  Mg  Mg5  1  0.50000000  0.74967179  0.50000000  1
  Mg  Mg6  1  0.24934276  0.00000000  0.50000000  1
  Mg  Mg7  1  0.24650746  0.50000000  0.50000000  1
  Mg  Mg8  1  0.75065724  0.00000000  0.50000000  1
  Mg  Mg9  1  0.75349254  0.50000000  0.50000000  1
  Mg  Mg10  1  0.24879412  0.25195985  0.00000000  1
  Mg  Mg11  1  0.24879412  0.74804015  0.00000000  1
  Mg  Mg12  1  0.75120588  0.25195985  0.00000000  1
  Mg  Mg13  1  0.75120588  0.74804015  0.00000000  1
  Fe  Fe0  1  0.00000000  0.00000000  0.00000000  1
  C  C0  1  0.00000000  0.50000000  0.00000000  1
  O  O0  1  0.25604435  0.00000000  0.00000000  1
  O  O1  1  0.25049500  0.50000000  0.00000000  1
  O  O2  1  0.74395565  0.00000000  0.00000000  1
  O  O3  1  0.74950500  0.50000000  0.00000000  1
  O  O4  1  0.24822456  0.25104926  0.50000000  1
  O  O5  1  0.24822456  0.74895074  0.50000000  1
  O  O6  1  0.75177544  0.25104926  0.50000000  1
  O  O7  1  0.75177544  0.74895074  0.50000000  1
  O  O8  1  0.00000000  0.00000000  0.50000000  1
  O  O9  1  0.00000000  0.50000000  0.50000000  1
  O  O10  1  0.50000000  0.00000000  0.50000000  1
  O  O11  1  0.50000000  0.50000000  0.50000000  1
  O  O12  1  0.00000000  0.24939959  0.00000000  1
  O  O13  1  0.00000000  0.75060041  0.00000000  1
  O  O14  1  0.50000000  0.25193461  0.00000000  1
  O  O15  1  0.50000000  0.74806539  0.00000000  1
loop_
_geom_bond_atom_site_label_1
_geom_bond_atom_site_label_2
_geom_bond_distance
_geom_bond_site_symmetry_2
Mg0 O2 2.082854 1_555
Mg0 O0 2.082854 1_555
Mg0 O10 2.124170 1_555
Mg0 O10 2.124170 1_554
Mg0 O15 2.139633 1_545
Mg0 O14 2.139633 1_555
Mg1 O14 2.106772 1_555
Mg1 O15 2.106772 1_555
Mg1 O11 2.124170 1_554
Mg1 O11 2.124170 1_555
Mg1 O1 2.130233 1_555
Mg1 O3 2.130233 1_555
Mg2 O9 2.095303 1_555
Mg2 O4 2.119386 1_555
Mg2 O6 2.119386 1_455
Mg2 O12 2.124426 1_556
Mg2 O12 2.124426 1_555
Mg2 O8 2.151102 1_555
Mg3 O9 2.095303 1_555
Mg3 O5 2.119386 1_555
Mg3 O7 2.119386 1_455
Mg3 O13 2.124426 1_555
Mg3 O13 2.124426 1_556
Mg3 O8 2.151102 1_565
Mg4 O11 2.120415 1_555
Mg4 O14 2.124213 1_555
Mg4 O14 2.124213 1_556
Mg4 O10 2.125990 1_555
Mg4 O6 2.149627 1_555
Mg4 O4 2.149627 1_555
Mg5 O11 2.120415 1_555
Mg5 O15 2.124213 1_556
Mg5 O15 2.124213 1_555
Mg5 O10 2.125990 1_565
Mg5 O5 2.149627 1_555
Mg5 O7 2.149627 1_555
Mg6 O0 2.124940 1_555
Mg6 O0 2.124940 1_556
Mg6 O8 2.128848 1_555
Mg6 O4 2.132135 1_555
Mg6 O5 2.132135 1_545
Mg6 O10 2.140071 1_555
Mg7 O9 2.104641 1_555
Mg7 O5 2.114342 1_555
Mg7 O4 2.114342 1_555
Mg7 O1 2.124442 1_555
Mg7 O1 2.124442 1_556
Mg7 O11 2.164278 1_555
Mg8 O2 2.124940 1_555
Mg8 O2 2.124940 1_556
Mg8 O8 2.128848 1_655
Mg8 O6 2.132135 1_555
Mg8 O7 2.132135 1_545
Mg8 O10 2.140071 1_555
Mg9 O9 2.104641 1_655
Mg9 O7 2.114342 1_555
Mg9 O6 2.114342 1_555
Mg9 O3 2.124442 1_555
Mg9 O3 2.124442 1_556
Mg9 O11 2.164278 1_555
Mg10 O1 2.106608 1_555
Mg10 O4 2.124189 1_554
Mg10 O4 2.124189 1_555
Mg10 O12 2.124275 1_555
Mg10 O0 2.140742 1_555
Mg10 O14 2.144755 1_555
Mg11 O1 2.106608 1_555
Mg11 O5 2.124189 1_554
Mg11 O5 2.124189 1_555
Mg11 O13 2.124275 1_555
Mg11 O0 2.140742 1_565
Mg11 O15 2.144755 1_555
Mg12 O3 2.106608 1_555
Mg12 O6 2.124189 1_554
Mg12 O6 2.124189 1_555
Mg12 O12 2.124275 1_655
Mg12 O2 2.140742 1_555
Mg12 O14 2.144755 1_555
Mg13 O3 2.106608 1_555
Mg13 O7 2.124189 1_555
Mg13 O7 2.124189 1_554
Mg13 O13 2.124275 1_655
Mg13 O2 2.140742 1_565
Mg13 O15 2.144755 1_555
Fe0 O12 2.118103 1_555
Fe0 O13 2.118103 1_545
Fe0 O8 2.124170 1_555
Fe0 O8 2.124170 1_554
Fe0 O0 2.186065 1_555
Fe0 O2 2.186065 1_455
C0 O9 2.124170 1_554
C0 O9 2.124170 1_555
C0 O12 2.128302 1_555
C0 O13 2.128302 1_555
C0 O1 2.138686 1_555
C0 O3 2.138686 1_455
