# generated using pymatgen
data_LaFeMoO6
_symmetry_space_group_name_H-M   'P 1'
_cell_length_a   5.56540100
_cell_length_b   5.51675500
_cell_length_c   9.57746838
_cell_angle_alpha   54.87133627
_cell_angle_beta   90.00000000
_cell_angle_gamma   90.00000000
_symmetry_Int_Tables_number   1
_chemical_formula_structural   LaFeMoO6
_chemical_formula_sum   'La2 Fe2 Mo2 O12'
_cell_volume   240.49768011
_cell_formula_units_Z   2
loop_
 _symmetry_equiv_pos_site_id
 _symmetry_equiv_pos_as_xyz
  1  'x, y, z'
loop_
 _atom_site_type_symbol
 _atom_site_label
 _atom_site_symmetry_multiplicity
 _atom_site_fract_x
 _atom_site_fract_y
 _atom_site_fract_z
 _atom_site_occupancy
  La  La0  1  0.21956800  0.74605700  0.24752900  1
  La  La1  1  0.78043200  0.74605700  0.74752900  1
  Fe  Fe0  1  0.74547700  0.99834500  0.99802400  1
  Fe  Fe1  1  0.25452300  0.99834500  0.49802400  1
  Mo  Mo0  1  0.74326800  0.50031300  0.49795600  1
  Mo  Mo1  1  0.25673200  0.50031300  0.99795600  1
  O  O0  1  0.24070100  0.78644500  0.75564800  1
  O  O1  1  0.02520100  0.25875500  0.97736600  1
  O  O2  1  0.01102300  0.70105700  0.52626100  1
  O  O3  1  0.98897700  0.70105700  0.02626100  1
  O  O4  1  0.97479900  0.25875500  0.47736600  1
  O  O5  1  0.75929900  0.78644500  0.25564800  1
  O  O6  1  0.74203300  0.18554100  0.74525600  1
  O  O7  1  0.53632600  0.74218100  0.53403700  1
  O  O8  1  0.53045600  0.32073300  0.96810400  1
  O  O9  1  0.46954400  0.32073300  0.46810400  1
  O  O10  1  0.46367400  0.74218100  0.03403700  1
  O  O11  1  0.25796700  0.18554100  0.24525600  1
loop_
_geom_bond_atom_site_label_1
_geom_bond_atom_site_label_2
_geom_bond_distance
_geom_bond_site_symmetry_2
La0 O11 2.421513 1_565
La0 O10 2.465213 1_555
La0 O9 2.489866 1_555
La0 O5 2.576302 1_455
La0 O3 2.608634 1_455
La0 O4 2.667970 1_455
La0 O1 2.728159 1_564
La0 O2 2.787921 1_555
La0 O5 3.016382 1_555
La0 O11 3.112153 1_555
La0 O8 3.231498 1_564
La0 O7 3.251207 1_555
La1 O6 2.421513 1_565
La1 O7 2.465213 1_555
La1 O8 2.489866 1_555
La1 O0 2.576302 1_655
La1 O2 2.608634 1_655
La1 O1 2.667970 1_655
La1 O4 2.728159 1_565
La1 O3 2.787921 1_556
La1 O0 3.016382 1_555
La1 O6 3.112153 1_555
La1 O9 3.231498 1_565
La1 O10 3.251207 1_556
Fe0 O10 2.003708 1_556
Fe0 O6 2.012550 1_565
Fe0 O3 2.022131 1_556
Fe0 O8 2.022577 1_565
Fe0 O5 2.034957 1_556
Fe0 O1 2.049259 1_665
Fe1 O7 2.003708 1_555
Fe1 O11 2.012550 1_565
Fe1 O2 2.022131 1_555
Fe1 O9 2.022577 1_565
Fe1 O0 2.034957 1_555
Fe1 O4 2.049259 1_465
Mo0 O5 1.915601 1_555
Mo0 O9 1.926109 1_555
Mo0 O7 1.938281 1_555
Mo0 O4 1.943599 1_555
Mo0 O2 1.966224 1_655
Mo0 O6 1.972831 1_555
Mo1 O0 1.915601 1_555
Mo1 O8 1.926109 1_555
Mo1 O10 1.938281 1_556
Mo1 O1 1.943599 1_555
Mo1 O3 1.966224 1_456
Mo1 O11 1.972831 1_556
