# generated using pymatgen
data_NaH8Rh(N2O3)4
_symmetry_space_group_name_H-M   'P 1'
_cell_length_a   7.68397383
_cell_length_b   7.68397383
_cell_length_c   7.68397383
_cell_angle_alpha   60.00000000
_cell_angle_beta   60.00000000
_cell_angle_gamma   60.00000000
_symmetry_Int_Tables_number   1
_chemical_formula_structural   NaH8Rh(N2O3)4
_chemical_formula_sum   'Na1 H8 Rh1 N8 O12'
_cell_volume   320.80611136
_cell_formula_units_Z   1
loop_
 _symmetry_equiv_pos_site_id
 _symmetry_equiv_pos_as_xyz
  1  'x, y, z'
loop_
 _atom_site_type_symbol
 _atom_site_label
 _atom_site_symmetry_multiplicity
 _atom_site_fract_x
 _atom_site_fract_y
 _atom_site_fract_z
 _atom_site_occupancy
  Na  Na0  1  0.50000000  0.50000000  0.50000000  1
  H  H0  1  0.80457100  0.80457100  0.80457100  1
  H  H1  1  0.80457100  0.58628600  0.80457100  1
  H  H2  1  0.58628600  0.80457100  0.80457100  1
  H  H3  1  0.19542900  0.19542900  0.19542900  1
  H  H4  1  0.19542900  0.41371400  0.19542900  1
  H  H5  1  0.41371400  0.19542900  0.19542900  1
  H  H6  1  0.80457100  0.80457100  0.58628600  1
  H  H7  1  0.19542900  0.19542900  0.41371400  1
  Rh  Rh0  1  0.00000000  0.00000000  0.00000000  1
  N  N0  1  0.19283900  0.80716100  0.19283900  1
  N  N1  1  0.80716100  0.80716100  0.19283900  1
  N  N2  1  0.80716100  0.19283900  0.19283900  1
  N  N3  1  0.80716100  0.19283900  0.80716100  1
  N  N4  1  0.19283900  0.19283900  0.80716100  1
  N  N5  1  0.19283900  0.80716100  0.80716100  1
  N  N6  1  0.75000000  0.75000000  0.75000000  1
  N  N7  1  0.25000000  0.25000000  0.25000000  1
  O  O0  1  0.84890600  0.65000200  0.15109400  1
  O  O1  1  0.65000200  0.34999800  0.15109400  1
  O  O2  1  0.34999800  0.84890600  0.15109400  1
  O  O3  1  0.15109400  0.34999800  0.84890600  1
  O  O4  1  0.34999800  0.65000200  0.84890600  1
  O  O5  1  0.65000200  0.15109400  0.84890600  1
  O  O6  1  0.34999800  0.15109400  0.65000200  1
  O  O7  1  0.84890600  0.15109400  0.34999800  1
  O  O8  1  0.65000200  0.84890600  0.34999800  1
  O  O9  1  0.15109400  0.84890600  0.65000200  1
  O  O10  1  0.15109400  0.65000200  0.34999800  1
  O  O11  1  0.84890600  0.34999800  0.65000200  1
loop_
_geom_bond_atom_site_label_1
_geom_bond_atom_site_label_2
_geom_bond_distance
_geom_bond_site_symmetry_2
Na0 O4 2.918251 1_555
Na0 O11 2.918251 1_555
Na0 O8 2.918251 1_555
Na0 O5 2.918251 1_555
Na0 O0 2.918251 1_555
Na0 O9 2.918251 1_555
Na0 O2 2.918251 1_555
Na0 O3 2.918251 1_555
Na0 O7 2.918251 1_555
Na0 O6 2.918251 1_555
Na0 O1 2.918251 1_555
Na0 O10 2.918251 1_555
H0 N6 1.027125 1_555
H1 N6 1.027132 1_555
H2 N6 1.027132 1_555
H3 N7 1.027125 1_555
H4 N7 1.027132 1_555
H5 N7 1.027132 1_555
H6 N6 1.027132 1_555
H7 N7 1.027132 1_555
N0 O10 1.249481 1_555
N0 O2 1.249481 1_555
N0 Rh0 2.095539 1_565
N1 O0 1.249481 1_555
N1 O8 1.249481 1_555
N1 Rh0 2.095539 1_665
N2 O1 1.249481 1_555
N2 O7 1.249481 1_555
N2 Rh0 2.095539 1_655
N3 O5 1.249481 1_555
N3 O11 1.249481 1_555
N3 Rh0 2.095539 1_656
N4 O6 1.249481 1_555
N4 O3 1.249481 1_555
N4 Rh0 2.095539 1_556
N5 O9 1.249481 1_555
N5 O4 1.249481 1_555
N5 Rh0 2.095539 1_566
