# generated using pymatgen
data_TeMoWSe2S
_symmetry_space_group_name_H-M   'P 1'
_cell_length_a   3.34072413
_cell_length_b   3.34072413
_cell_length_c   38.02315600
_cell_angle_alpha   90.00000000
_cell_angle_beta   90.00000000
_cell_angle_gamma   120.00000255
_symmetry_Int_Tables_number   1
_chemical_formula_structural   TeMoWSe2S
_chemical_formula_sum   'Te2 Mo2 W2 Se4 S2'
_cell_volume   367.50225613
_cell_formula_units_Z   2
loop_
 _symmetry_equiv_pos_site_id
 _symmetry_equiv_pos_as_xyz
  1  'x, y, z'
loop_
 _atom_site_type_symbol
 _atom_site_label
 _atom_site_symmetry_multiplicity
 _atom_site_fract_x
 _atom_site_fract_y
 _atom_site_fract_z
 _atom_site_occupancy
  Te  Te0  1  0.33333300  0.66666700  0.04406600  1
  Te  Te1  1  0.33333300  0.66666700  0.14377300  1
  Mo  Mo0  1  0.00000000  0.00000000  0.09389800  1
  Mo  Mo1  1  0.00000000  0.00000000  0.46964300  1
  W  W0  1  0.33333300  0.66666700  0.28179200  1
  W  W1  1  0.33333300  0.66666700  0.65755700  1
  Se  Se0  1  0.00000000  0.00000000  0.70154500  1
  Se  Se1  1  0.33333300  0.66666700  0.42584300  1
  Se  Se2  1  0.33333300  0.66666700  0.51348300  1
  Se  Se3  1  0.00000000  0.00000000  0.61352500  1
  S  S0  1  0.00000000  0.00000000  0.32184700  1
  S  S1  1  0.00000000  0.00000000  0.24177600  1
loop_
_geom_bond_atom_site_label_1
_geom_bond_atom_site_label_2
_geom_bond_distance
_geom_bond_site_symmetry_2
Mo0 Te0 2.703755 1_545
Mo0 Te0 2.703757 1_555
Mo0 Te0 2.703757 1_445
Mo0 Te1 2.704901 1_545
Mo0 Te1 2.704903 1_445
Mo0 Te1 2.704903 1_555
Mo1 Se1 2.548282 1_545
Mo1 Se1 2.548285 1_555
Mo1 Se1 2.548285 1_445
Mo1 Se2 2.549277 1_545
Mo1 Se2 2.549279 1_445
Mo1 Se2 2.549279 1_555
Se0 W1 2.552960 1_545
Se0 W1 2.552962 1_555
Se0 W1 2.552962 1_445
Se3 W1 2.554056 1_545
Se3 W1 2.554058 1_555
Se3 W1 2.554058 1_445
S0 W0 2.457584 1_545
S0 W0 2.457587 1_445
S0 W0 2.457587 1_555
S1 W0 2.456666 1_545
S1 W0 2.456668 1_555
S1 W0 2.456668 1_445
