# generated using pymatgen
data_BaHfMg14O16
_symmetry_space_group_name_H-M   'P 1'
_cell_length_a   8.86136049
_cell_length_b   8.91997010
_cell_length_c   4.56400692
_cell_angle_alpha   90.00000000
_cell_angle_beta   90.00000000
_cell_angle_gamma   90.00000000
_symmetry_Int_Tables_number   1
_chemical_formula_structural   BaHfMg14O16
_chemical_formula_sum   'Ba1 Hf1 Mg14 O16'
_cell_volume   360.75312127
_cell_formula_units_Z   1
loop_
 _symmetry_equiv_pos_site_id
 _symmetry_equiv_pos_as_xyz
  1  'x, y, z'
loop_
 _atom_site_type_symbol
 _atom_site_label
 _atom_site_symmetry_multiplicity
 _atom_site_fract_x
 _atom_site_fract_y
 _atom_site_fract_z
 _atom_site_occupancy
  Ba  Ba0  1  0.00000000  0.00000000  0.00000000  1
  Hf  Hf0  1  0.00000000  0.50000000  0.00000000  1
  Mg  Mg0  1  0.50000000  0.00000000  0.00000000  1
  Mg  Mg1  1  0.50000000  0.50000000  0.00000000  1
  Mg  Mg2  1  0.00000000  0.25351181  0.50000000  1
  Mg  Mg3  1  0.00000000  0.74648819  0.50000000  1
  Mg  Mg4  1  0.50000000  0.25109394  0.50000000  1
  Mg  Mg5  1  0.50000000  0.74890606  0.50000000  1
  Mg  Mg6  1  0.26680927  0.00000000  0.50000000  1
  Mg  Mg7  1  0.25925423  0.50000000  0.50000000  1
  Mg  Mg8  1  0.73319073  0.00000000  0.50000000  1
  Mg  Mg9  1  0.74074577  0.50000000  0.50000000  1
  Mg  Mg10  1  0.26716509  0.25178156  0.00000000  1
  Mg  Mg11  1  0.26716509  0.74821844  0.00000000  1
  Mg  Mg12  1  0.73283491  0.25178156  -0.00000000  1
  Mg  Mg13  1  0.73283491  0.74821844  -0.00000000  1
  O  O0  1  0.28151067  0.00000000  0.00000000  1
  O  O1  1  0.25556743  0.50000000  -0.00000000  1
  O  O2  1  0.71848933  0.00000000  -0.00000000  1
  O  O3  1  0.74443257  0.50000000  0.00000000  1
  O  O4  1  0.25035022  0.24898107  0.50000000  1
  O  O5  1  0.25035022  0.75101893  0.50000000  1
  O  O6  1  0.74964978  0.24898107  0.50000000  1
  O  O7  1  0.74964978  0.75101893  0.50000000  1
  O  O8  1  0.00000000  0.00000000  0.50000000  1
  O  O9  1  0.00000000  0.50000000  0.50000000  1
  O  O10  1  0.50000000  0.00000000  0.50000000  1
  O  O11  1  0.50000000  0.50000000  0.50000000  1
  O  O12  1  0.00000000  0.27497808  0.00000000  1
  O  O13  1  0.00000000  0.72502192  0.00000000  1
  O  O14  1  0.50000000  0.25854131  0.00000000  1
  O  O15  1  0.50000000  0.74145869  -0.00000000  1
loop_
_geom_bond_atom_site_label_1
_geom_bond_atom_site_label_2
_geom_bond_distance
_geom_bond_site_symmetry_2
Ba0 O8 2.282003 1_555
Ba0 O8 2.282003 1_554
Ba0 O12 2.452796 1_555
Ba0 O13 2.452796 1_545
Ba0 O2 2.494568 1_455
Ba0 O0 2.494568 1_555
Hf0 O12 2.007189 1_555
Hf0 O13 2.007189 1_555
Hf0 O1 2.264675 1_555
Hf0 O3 2.264675 1_455
Hf0 O9 2.282003 1_554
Hf0 O9 2.282003 1_555
Mg0 O0 1.936113 1_555
Mg0 O2 1.936113 1_555
Mg0 O10 2.282003 1_555
Mg0 O10 2.282003 1_554
Mg0 O14 2.306181 1_555
Mg0 O15 2.306181 1_545
Mg1 O15 2.153804 1_555
Mg1 O14 2.153804 1_555
Mg1 O3 2.166005 1_555
Mg1 O1 2.166005 1_555
Mg1 O11 2.282003 1_554
Mg1 O11 2.282003 1_555
Mg2 O9 2.198667 1_555
Mg2 O4 2.218812 1_555
Mg2 O6 2.218812 1_455
Mg2 O8 2.261318 1_555
Mg2 O12 2.290023 1_556
Mg2 O12 2.290023 1_555
Mg3 O9 2.198667 1_555
Mg3 O5 2.218812 1_555
Mg3 O7 2.218812 1_455
Mg3 O8 2.261318 1_565
Mg3 O13 2.290023 1_556
Mg3 O13 2.290023 1_555
Mg4 O4 2.212317 1_555
Mg4 O6 2.212317 1_555
Mg4 O11 2.220235 1_555
Mg4 O10 2.239750 1_555
Mg4 O14 2.282970 1_556
Mg4 O14 2.282970 1_555
Mg5 O5 2.212317 1_555
Mg5 O7 2.212317 1_555
Mg5 O11 2.220235 1_555
Mg5 O10 2.239750 1_565
Mg5 O15 2.282970 1_556
Mg5 O15 2.282970 1_555
Mg6 O10 2.066387 1_555
Mg6 O4 2.225688 1_555
Mg6 O5 2.225688 1_545
Mg6 O0 2.285719 1_555
Mg6 O0 2.285719 1_556
Mg6 O8 2.364293 1_555
Mg7 O11 2.133335 1_555
Mg7 O5 2.240471 1_555
Mg7 O4 2.240471 1_555
Mg7 O1 2.282237 1_556
Mg7 O1 2.282237 1_555
Mg7 O9 2.297345 1_555
Mg8 O10 2.066387 1_555
Mg8 O6 2.225688 1_555
Mg8 O7 2.225688 1_545
Mg8 O2 2.285719 1_555
Mg8 O2 2.285719 1_556
Mg8 O8 2.364293 1_655
Mg9 O11 2.133335 1_555
Mg9 O6 2.240471 1_555
Mg9 O7 2.240471 1_555
Mg9 O3 2.282237 1_556
Mg9 O3 2.282237 1_555
Mg9 O9 2.297345 1_655
Mg10 O14 2.064115 1_555
Mg10 O1 2.216485 1_555
Mg10 O0 2.249479 1_555
Mg10 O4 2.286999 1_554
Mg10 O4 2.286999 1_555
Mg10 O12 2.376471 1_555
Mg11 O15 2.064115 1_555
Mg11 O1 2.216485 1_555
Mg11 O0 2.249479 1_565
Mg11 O5 2.286999 1_554
Mg11 O5 2.286999 1_555
Mg11 O13 2.376471 1_555
Mg12 O14 2.064115 1_555
Mg12 O3 2.216485 1_555
Mg12 O2 2.249479 1_555
Mg12 O6 2.286999 1_555
Mg12 O6 2.286999 1_554
Mg12 O12 2.376471 1_655
Mg13 O15 2.064115 1_555
Mg13 O3 2.216485 1_555
Mg13 O2 2.249479 1_565
Mg13 O7 2.286999 1_555
Mg13 O7 2.286999 1_554
Mg13 O13 2.376471 1_655
