# generated using pymatgen
data_Sc6InCo2
_symmetry_space_group_name_H-M   'P 1'
_cell_length_a   7.81803245
_cell_length_b   7.81803188
_cell_length_c   7.81803188
_cell_angle_alpha   110.72393510
_cell_angle_beta   110.73280180
_cell_angle_gamma   106.98541509
_symmetry_Int_Tables_number   1
_chemical_formula_structural   Sc6InCo2
_chemical_formula_sum   'Sc12 In2 Co4'
_cell_volume   367.33207246
_cell_formula_units_Z   2
loop_
 _symmetry_equiv_pos_site_id
 _symmetry_equiv_pos_as_xyz
  1  'x, y, z'
loop_
 _atom_site_type_symbol
 _atom_site_label
 _atom_site_symmetry_multiplicity
 _atom_site_fract_x
 _atom_site_fract_y
 _atom_site_fract_z
 _atom_site_occupancy
  Sc  Sc0  1  0.45207179  0.23441230  0.21765943  1
  Sc  Sc1  1  0.54793012  0.76558973  0.78234125  1
  Sc  Sc2  1  0.01675128  0.23441009  0.78234091  1
  Sc  Sc3  1  0.98324688  0.76558843  0.21765997  1
  Sc  Sc4  1  0.31245546  0.60988264  0.29742670  1
  Sc  Sc5  1  0.68754373  0.39011716  0.70257292  1
  Sc  Sc6  1  0.31245663  0.01503050  0.70257442  1
  Sc  Sc7  1  0.68754293  0.98497056  0.29742671  1
  Sc  Sc8  1  0.19092317  0.28634985  0.47727295  1
  Sc  Sc9  1  0.80907688  0.71365027  0.52272745  1
  Sc  Sc10  1  0.19092373  0.71365044  0.90457428  1
  Sc  Sc11  1  0.80907715  0.28634796  0.09542553  1
  In  In0  1  0.49999964  0.50000022  -0.00000012  1
  In  In1  1  0.00000254  -0.00000331  -0.00000113  1
  Co  Co0  1  0.37437566  -0.00000034  0.37437639  1
  Co  Co1  1  0.62562070  0.00000034  0.62562231  1
  Co  Co2  1  0.11649204  0.61649153  0.50000028  1
  Co  Co3  1  0.88350866  0.38350963  0.49999975  1
loop_
_geom_bond_atom_site_label_1
_geom_bond_atom_site_label_2
_geom_bond_distance
_geom_bond_site_symmetry_2
In0 Sc3 3.137652 1_555
In0 Sc2 3.137662 1_554
In0 Sc0 3.137662 1_555
In0 Sc1 3.137669 1_554
In0 Sc6 3.167142 1_554
In0 Sc7 3.167147 1_555
In0 Sc4 3.167159 1_555
In0 Sc5 3.167160 1_554
In0 Sc8 3.339019 1_554
In0 Sc10 3.339024 1_554
In0 Sc9 3.339024 1_555
In0 Sc11 3.339046 1_555
In1 Sc0 2.914778 1_555
In1 Sc3 2.914787 1_445
In1 Sc1 2.914795 1_444
In1 Sc2 2.914797 1_554
In1 Sc10 3.058567 1_544
In1 Sc9 3.058577 1_444
In1 Sc8 3.058608 1_555
In1 Sc11 3.058626 1_455
Co0 Co1 2.232662 1_555
Co0 Sc3 2.587338 1_445
Co0 Sc0 2.587352 1_555
Co0 Sc5 2.744269 1_555
Co0 Sc4 2.744275 1_545
Co0 Sc7 2.744277 1_545
Co0 Sc6 2.744279 1_555
Co0 Sc10 3.022273 1_544
Co0 Sc8 3.022284 1_555
Co1 Sc1 2.587343 1_545
Co1 Sc2 2.587344 1_655
Co1 Sc4 2.744263 1_545
Co1 Sc6 2.744264 1_555
Co1 Sc5 2.744267 1_555
Co1 Sc7 2.744276 1_545
Co1 Sc11 3.022271 1_556
Co1 Sc9 3.022304 1_545
Co2 Co3 2.167269 1_455
Co2 Sc4 2.562083 1_555
Co2 Sc6 2.562088 1_565
Co2 Sc8 2.767344 1_555
Co2 Sc11 2.767345 1_455
Co2 Sc10 2.767348 1_555
Co2 Sc9 2.767351 1_455
Co2 Sc1 2.866814 1_555
Co2 Sc3 2.866819 1_455
Co3 Sc7 2.562089 1_545
Co3 Sc5 2.562091 1_555
Co3 Sc9 2.767338 1_555
Co3 Sc10 2.767338 1_655
Co3 Sc11 2.767346 1_555
Co3 Sc8 2.767350 1_655
Co3 Sc0 2.866806 1_555
Co3 Sc2 2.866837 1_655
