# generated using pymatgen
data_Sr3HoRhO6
_symmetry_space_group_name_H-M   'P 1'
_cell_length_a   6.85161929
_cell_length_b   6.85161929
_cell_length_c   6.85161912
_cell_angle_alpha   92.19087735
_cell_angle_beta   92.19087735
_cell_angle_gamma   92.19088562
_symmetry_Int_Tables_number   1
_chemical_formula_structural   Sr3HoRhO6
_chemical_formula_sum   'Sr6 Ho2 Rh2 O12'
_cell_volume   320.92322860
_cell_formula_units_Z   2
loop_
 _symmetry_equiv_pos_site_id
 _symmetry_equiv_pos_as_xyz
  1  'x, y, z'
loop_
 _atom_site_type_symbol
 _atom_site_label
 _atom_site_symmetry_multiplicity
 _atom_site_fract_x
 _atom_site_fract_y
 _atom_site_fract_z
 _atom_site_occupancy
  Sr  Sr0  1  0.88119700  0.61880300  0.25000000  1
  Sr  Sr1  1  0.61880300  0.25000000  0.88119700  1
  Sr  Sr2  1  0.25000000  0.88119700  0.61880300  1
  Sr  Sr3  1  0.11880300  0.38119700  0.75000000  1
  Sr  Sr4  1  0.75000000  0.11880300  0.38119700  1
  Sr  Sr5  1  0.38119700  0.75000000  0.11880300  1
  Ho  Ho0  1  0.75000000  0.75000000  0.75000000  1
  Ho  Ho1  1  0.25000000  0.25000000  0.25000000  1
  Rh  Rh0  1  0.50000000  0.50000000  0.50000000  1
  Rh  Rh1  1  0.00000000  0.00000000  0.00000000  1
  O  O0  1  0.59141900  0.79217300  0.45724500  1
  O  O1  1  0.45724500  0.59141900  0.79217300  1
  O  O2  1  0.79217300  0.45724500  0.59141900  1
  O  O3  1  0.90858100  0.04275500  0.70782700  1
  O  O4  1  0.70782700  0.90858100  0.04275500  1
  O  O5  1  0.04275500  0.70782700  0.90858100  1
  O  O6  1  0.40858100  0.20782700  0.54275500  1
  O  O7  1  0.54275500  0.40858100  0.20782700  1
  O  O8  1  0.20782700  0.54275500  0.40858100  1
  O  O9  1  0.09141900  0.95724500  0.29217300  1
  O  O10  1  0.95724500  0.29217300  0.09141900  1
  O  O11  1  0.29217300  0.09141900  0.95724500  1
loop_
_geom_bond_atom_site_label_1
_geom_bond_atom_site_label_2
_geom_bond_distance
_geom_bond_site_symmetry_2
Ho0 O3 2.277972 1_565
Ho0 O1 2.277972 1_555
Ho0 O4 2.277973 1_556
Ho0 O0 2.277973 1_555
Ho0 O5 2.277973 1_655
Ho0 O2 2.277973 1_555
Ho1 O7 2.277972 1_555
Ho1 O9 2.277972 1_545
Ho1 O6 2.277973 1_555
Ho1 O11 2.277973 1_554
Ho1 O8 2.277973 1_555
Ho1 O10 2.277973 1_455
O0 Rh0 2.109166 1_555
O0 Sr4 2.531201 1_565
O0 Sr5 2.682703 1_555
O0 Sr2 2.706474 1_555
O0 Sr0 2.763375 1_555
O1 Rh0 2.109166 1_555
O1 Sr5 2.531201 1_556
O1 Sr3 2.682703 1_555
O1 Sr1 2.706474 1_555
O1 Sr2 2.763375 1_555
O2 Rh0 2.109167 1_555
O2 Sr3 2.531201 1_655
O2 Sr4 2.682703 1_555
O2 Sr0 2.706474 1_555
O2 Sr1 2.763374 1_555
O3 Rh1 2.109166 1_656
O3 Sr4 2.531201 1_555
O3 Sr3 2.682703 1_655
O3 Sr2 2.706474 1_645
O3 Sr1 2.763375 1_555
O4 Rh1 2.109166 1_665
O4 Sr5 2.531201 1_555
O4 Sr4 2.682703 1_565
O4 Sr1 2.706474 1_564
O4 Sr0 2.763375 1_555
O5 Rh1 2.109167 1_566
O5 Sr3 2.531201 1_555
O5 Sr5 2.682703 1_556
O5 Sr0 2.706474 1_456
O5 Sr2 2.763374 1_555
O6 Rh0 2.109166 1_555
O6 Sr2 2.531201 1_545
O6 Sr1 2.682703 1_555
O6 Sr4 2.706474 1_555
O6 Sr3 2.763375 1_555
O7 Rh0 2.109166 1_555
O7 Sr1 2.531201 1_554
O7 Sr0 2.682703 1_555
O7 Sr5 2.706474 1_555
O7 Sr4 2.763375 1_555
O8 Rh0 2.109167 1_555
O8 Sr0 2.531201 1_455
O8 Sr2 2.682703 1_555
O8 Sr3 2.706474 1_555
O8 Sr5 2.763374 1_555
O9 Rh1 2.109166 1_565
O9 Sr2 2.531201 1_555
O9 Sr0 2.682703 1_455
O9 Sr4 2.706474 1_465
O9 Sr5 2.763375 1_555
O10 Rh1 2.109167 1_655
O10 Sr0 2.531201 1_555
O10 Sr1 2.682703 1_554
O10 Sr3 2.706474 1_654
O10 Sr4 2.763374 1_555
O11 Rh1 2.109166 1_556
O11 Sr1 2.531201 1_555
O11 Sr2 2.682703 1_545
O11 Sr5 2.706474 1_546
O11 Sr3 2.763375 1_555
