# generated using pymatgen
data_RbHSO4
_symmetry_space_group_name_H-M   'P 1'
_cell_length_a   4.65457600
_cell_length_b   14.68732400
_cell_length_c   15.17773604
_cell_angle_alpha   59.23317286
_cell_angle_beta   90.00000000
_cell_angle_gamma   90.00000000
_symmetry_Int_Tables_number   1
_chemical_formula_structural   RbHSO4
_chemical_formula_sum   'Rb8 H8 S8 O32'
_cell_volume   891.56390611
_cell_formula_units_Z   8
loop_
 _symmetry_equiv_pos_site_id
 _symmetry_equiv_pos_as_xyz
  1  'x, y, z'
loop_
 _atom_site_type_symbol
 _atom_site_label
 _atom_site_symmetry_multiplicity
 _atom_site_fract_x
 _atom_site_fract_y
 _atom_site_fract_z
 _atom_site_occupancy
  Rb  Rb0  1  0.57334300  0.71636100  0.87271700  1
  Rb  Rb1  1  0.42665700  0.71636100  0.37271700  1
  Rb  Rb2  1  0.13481100  0.96681300  0.95189800  1
  Rb  Rb3  1  0.86518900  0.96681300  0.45189800  1
  Rb  Rb4  1  0.59000600  0.21246700  0.62234900  1
  Rb  Rb5  1  0.40999400  0.21246700  0.12234900  1
  Rb  Rb6  1  0.02094600  0.46635600  0.70140800  1
  Rb  Rb7  1  0.97905400  0.46635600  0.20140800  1
  H  H0  1  0.03586400  0.71416200  0.67604700  1
  H  H1  1  0.96413600  0.71416200  0.17604700  1
  H  H2  1  0.56858200  0.46727300  0.90001300  1
  H  H3  1  0.43141800  0.46727300  0.40001300  1
  H  H4  1  0.58577400  0.95788200  0.14482500  1
  H  H5  1  0.41422600  0.95788200  0.64482500  1
  H  H6  1  0.96893000  0.21887300  0.92406300  1
  H  H7  1  0.03107000  0.21887300  0.42406300  1
  S  S0  1  0.53197300  0.71874300  0.11549600  1
  S  S1  1  0.46802700  0.71874300  0.61549600  1
  S  S2  1  0.00742400  0.46302500  0.95859100  1
  S  S3  1  0.99257600  0.46302500  0.45859100  1
  S  S4  1  0.02573500  0.96428500  0.71449600  1
  S  S5  1  0.97426500  0.96428500  0.21449600  1
  S  S6  1  0.54255400  0.21298900  0.86745100  1
  S  S7  1  0.45744600  0.21298900  0.36745100  1
  O  O0  1  0.76467100  0.68448700  0.20422500  1
  O  O1  1  0.23532900  0.68448700  0.70422500  1
  O  O2  1  0.28457500  0.75427900  0.15161800  1
  O  O3  1  0.71542500  0.75427900  0.65161800  1
  O  O4  1  0.65652900  0.80511700  0.02059200  1
  O  O5  1  0.34347100  0.80511700  0.52059200  1
  O  O6  1  0.46893800  0.62361500  0.11048100  1
  O  O7  1  0.53106200  0.62361500  0.61048100  1
  O  O8  1  0.11300700  0.06036600  0.71424000  1
  O  O9  1  0.88699300  0.06036600  0.21424000  1
  O  O10  1  0.73032900  0.96917200  0.67904900  1
  O  O11  1  0.26967100  0.96917200  0.17904900  1
  O  O12  1  0.09054600  0.86766600  0.81225900  1
  O  O13  1  0.90945400  0.86766600  0.31225900  1
  O  O14  1  0.20563400  0.95891400  0.62738600  1
  O  O15  1  0.79436600  0.95891400  0.12738600  1
  O  O16  1  0.76386400  0.50209800  0.87222400  1
  O  O17  1  0.23613600  0.50209800  0.37222400  1
  O  O18  1  0.24483600  0.42691100  0.91882700  1
  O  O19  1  0.75516400  0.42691100  0.41882700  1
  O  O20  1  0.88491600  0.37631700  0.05388300  1
  O  O21  1  0.11508400  0.37631700  0.55388300  1
  O  O22  1  0.08410700  0.55631800  0.96483600  1
  O  O23  1  0.91589300  0.55631800  0.46483600  1
  O  O24  1  0.66515500  0.12503200  0.86013700  1
  O  O25  1  0.33484500  0.12503200  0.36013700  1
  O  O26  1  0.28496700  0.18052200  0.93387100  1
  O  O27  1  0.71503300  0.18052200  0.43387100  1
  O  O28  1  0.49788700  0.30878700  0.76726300  1
  O  O29  1  0.50211300  0.30878700  0.26726300  1
  O  O30  1  0.76579100  0.24256800  0.92845600  1
  O  O31  1  0.23420900  0.24256800  0.42845600  1
loop_
_geom_bond_atom_site_label_1
_geom_bond_atom_site_label_2
_geom_bond_distance
_geom_bond_site_symmetry_2
H0 O1 1.021830 1_555
H0 O3 1.576620 1_455
H1 O0 1.021830 1_555
H1 O2 1.576620 1_655
H2 O16 1.022251 1_555
H2 O18 1.590762 1_555
H3 O17 1.022251 1_555
H3 O19 1.590762 1_555
H4 O15 1.004412 1_555
H4 O11 1.596947 1_555
H5 O14 1.004412 1_555
H5 O10 1.596947 1_555
H6 O30 1.021430 1_555
H6 O26 1.554846 1_655
H7 O31 1.021430 1_555
H7 O27 1.554846 1_455
O0 S0 1.595829 1_555
O0 Rb1 3.234074 1_555
O1 S1 1.595829 1_555
O1 Rb0 3.234074 1_555
O2 S0 1.480463 1_555
O2 Rb2 3.120568 1_554
O2 Rb1 3.177538 1_555
O3 S1 1.480463 1_555
O3 Rb3 3.120568 1_555
O3 Rb0 3.177538 1_555
O4 S0 1.466553 1_555
O4 Rb2 3.024865 1_654
O4 Rb0 3.143242 1_554
O4 Rb2 3.176611 1_554
O5 S1 1.466553 1_555
O5 Rb3 3.024865 1_455
O5 Rb1 3.143242 1_555
O5 Rb3 3.176611 1_555
O6 S0 1.467236 1_555
O6 Rb7 3.029442 1_455
O6 Rb7 3.100943 1_555
O6 Rb0 3.175737 1_554
O7 S1 1.467236 1_555
O7 Rb6 3.029442 1_655
O7 Rb6 3.100943 1_555
O7 Rb1 3.175737 1_555
O8 S4 1.466569 1_545
O8 Rb4 2.945763 1_555
O8 Rb4 3.110330 1_455
O8 Rb2 3.136681 1_545
O9 S5 1.466569 1_545
O9 Rb5 2.945763 1_555
O9 Rb5 3.110330 1_655
O9 Rb3 3.136681 1_545
O10 S4 1.464817 1_655
O10 Rb4 3.284796 1_565
O10 Rb0 3.434380 1_555
O11 S5 1.464817 1_455
O11 Rb5 3.284796 1_565
O11 Rb1 3.434380 1_555
O12 S4 1.467047 1_555
O12 Rb0 2.957057 1_555
O12 Rb0 3.080519 1_455
O12 Rb2 3.132476 1_555
O13 S5 1.467047 1_555
O13 Rb1 2.957057 1_555
O13 Rb1 3.080519 1_655
O13 Rb3 3.132476 1_555
O14 S4 1.600664 1_555
O14 Rb3 3.050024 1_455
O15 S5 1.600664 1_555
O15 Rb2 3.050024 1_654
O16 S2 1.601012 1_655
O16 Rb6 3.133919 1_655
O16 Rb0 3.273201 1_555
O17 S3 1.601012 1_455
O17 Rb7 3.133919 1_455
O17 Rb1 3.273201 1_555
O18 S2 1.481298 1_555
O18 Rb5 3.177913 1_556
O18 Rb6 3.217955 1_555
O19 S3 1.481298 1_555
O19 Rb4 3.177913 1_555
O19 Rb7 3.217955 1_555
O20 S2 1.467781 1_654
O20 Rb5 3.033028 1_555
O20 Rb7 3.159714 1_555
O20 Rb5 3.207163 1_655
O21 S3 1.467781 1_455
O21 Rb4 3.033028 1_555
O21 Rb6 3.159714 1_555
O21 Rb4 3.207163 1_455
O22 S2 1.465187 1_555
O22 Rb0 3.050140 1_555
O22 Rb0 3.125662 1_455
O22 Rb7 3.166021 1_456
O23 S3 1.465187 1_555
O23 Rb1 3.050140 1_555
O23 Rb1 3.125662 1_655
O23 Rb6 3.166021 1_655
O24 S6 1.467506 1_555
O24 Rb2 2.967733 1_645
O24 Rb4 3.170996 1_555
O24 Rb2 3.181548 1_545
O25 S7 1.467506 1_555
O25 Rb3 2.967733 1_445
O25 Rb5 3.170996 1_555
O25 Rb3 3.181548 1_545
O26 S6 1.479644 1_555
O26 Rb2 3.088179 1_545
O26 Rb5 3.180473 1_556
O27 S7 1.479644 1_555
O27 Rb3 3.088179 1_545
O27 Rb4 3.180473 1_555
O28 S6 1.465017 1_555
O28 Rb6 2.986053 1_555
O28 Rb6 3.148915 1_655
O28 Rb4 3.194718 1_555
O29 S7 1.465017 1_555
O29 Rb7 2.986053 1_555
O29 Rb7 3.148915 1_455
O29 Rb5 3.194718 1_555
O30 S6 1.592882 1_555
O30 Rb5 3.204276 1_556
O31 S7 1.592882 1_555
O31 Rb4 3.204276 1_555
