# generated using pymatgen
data_YB3(H5N)6
_symmetry_space_group_name_H-M   'P 1'
_cell_length_a   11.84016000
_cell_length_b   11.84016000
_cell_length_c   11.84016000
_cell_angle_alpha   90.00000000
_cell_angle_beta   90.00000000
_cell_angle_gamma   90.00000000
_symmetry_Int_Tables_number   1
_chemical_formula_structural   YB3(H5N)6
_chemical_formula_sum   'Y4 B12 H120 N24'
_cell_volume   1659.86479400
_cell_formula_units_Z   4
loop_
 _symmetry_equiv_pos_site_id
 _symmetry_equiv_pos_as_xyz
  1  'x, y, z'
loop_
 _atom_site_type_symbol
 _atom_site_label
 _atom_site_symmetry_multiplicity
 _atom_site_fract_x
 _atom_site_fract_y
 _atom_site_fract_z
 _atom_site_occupancy
  Y  Y0  1  0.50025700  0.00025700  0.49974300  1
  Y  Y1  1  0.00025700  0.49974300  0.50025700  1
  Y  Y2  1  0.49974300  0.50025700  0.00025700  1
  Y  Y3  1  0.99974300  0.99974300  0.99974300  1
  B  B0  1  0.25951300  0.75951300  0.74048700  1
  B  B1  1  0.75951300  0.74048700  0.25951300  1
  B  B2  1  0.74048700  0.25951300  0.75951300  1
  B  B3  1  0.24048700  0.24048700  0.24048700  1
  B  B4  1  0.73549600  0.23549600  0.26450400  1
  B  B5  1  0.23549600  0.26450400  0.73549600  1
  B  B6  1  0.26450400  0.73549600  0.23549600  1
  B  B7  1  0.76450400  0.76450400  0.76450400  1
  B  B8  1  0.00074500  0.50074500  0.99925500  1
  B  B9  1  0.50074500  0.99925500  0.00074500  1
  B  B10  1  0.99925500  0.00074500  0.50074500  1
  B  B11  1  0.49925500  0.49925500  0.49925500  1
  H  H0  1  0.39028000  0.30960500  0.87140200  1
  H  H1  1  0.12859800  0.89028000  0.19039500  1
  H  H2  1  0.80960500  0.62859800  0.60972000  1
  H  H3  1  0.89028000  0.19039500  0.12859800  1
  H  H4  1  0.62859800  0.60972000  0.80960500  1
  H  H5  1  0.30960500  0.87140200  0.39028000  1
  H  H6  1  0.60972000  0.80960500  0.62859800  1
  H  H7  1  0.87140200  0.39028000  0.30960500  1
  H  H8  1  0.19039500  0.12859800  0.89028000  1
  H  H9  1  0.10972000  0.69039500  0.37140200  1
  H  H10  1  0.37140200  0.10972000  0.69039500  1
  H  H11  1  0.69039500  0.37140200  0.10972000  1
  H  H12  1  0.10576600  0.80056000  0.88739800  1
  H  H13  1  0.11260200  0.60576600  0.69944000  1
  H  H14  1  0.30056000  0.61260200  0.89423400  1
  H  H15  1  0.60576600  0.69944000  0.11260200  1
  H  H16  1  0.61260200  0.89423400  0.30056000  1
  H  H17  1  0.80056000  0.88739800  0.10576600  1
  H  H18  1  0.89423400  0.30056000  0.61260200  1
  H  H19  1  0.88739800  0.10576600  0.80056000  1
  H  H20  1  0.69944000  0.11260200  0.60576600  1
  H  H21  1  0.39423400  0.19944000  0.38739800  1
  H  H22  1  0.38739800  0.39423400  0.19944000  1
  H  H23  1  0.19944000  0.38739800  0.39423400  1
  H  H24  1  0.52849800  0.29313300  0.86721200  1
  H  H25  1  0.13278800  0.02849800  0.20686700  1
  H  H26  1  0.79313300  0.63278800  0.47150200  1
  H  H27  1  0.02849800  0.20686700  0.13278800  1
  H  H28  1  0.63278800  0.47150200  0.79313300  1
  H  H29  1  0.29313300  0.86721200  0.52849800  1
  H  H30  1  0.47150200  0.79313300  0.63278800  1
  H  H31  1  0.86721200  0.52849800  0.29313300  1
  H  H32  1  0.20686700  0.13278800  0.02849800  1
  H  H33  1  0.97150200  0.70686700  0.36721200  1
  H  H34  1  0.36721200  0.97150200  0.70686700  1
  H  H35  1  0.70686700  0.36721200  0.97150200  1
  H  H36  1  0.96783200  0.78587400  0.88248500  1
  H  H37  1  0.11751500  0.46783200  0.71412600  1
  H  H38  1  0.28587400  0.61751500  0.03216800  1
  H  H39  1  0.46783200  0.71412600  0.11751500  1
  H  H40  1  0.61751500  0.03216800  0.28587400  1
  H  H41  1  0.78587400  0.88248500  0.96783200  1
  H  H42  1  0.03216800  0.28587400  0.61751500  1
  H  H43  1  0.88248500  0.96783200  0.78587400  1
  H  H44  1  0.71412600  0.11751500  0.46783200  1
  H  H45  1  0.53216800  0.21412600  0.38248500  1
  H  H46  1  0.38248500  0.53216800  0.21412600  1
  H  H47  1  0.21412600  0.38248500  0.53216800  1
  H  H48  1  0.45713200  0.24559600  0.97407400  1
  H  H49  1  0.02592600  0.95713200  0.25440400  1
  H  H50  1  0.74559600  0.52592600  0.54286800  1
  H  H51  1  0.95713200  0.25440400  0.02592600  1
  H  H52  1  0.52592600  0.54286800  0.74559600  1
  H  H53  1  0.24559600  0.97407400  0.45713200  1
  H  H54  1  0.54286800  0.74559600  0.52592600  1
  H  H55  1  0.97407400  0.45713200  0.24559600  1
  H  H56  1  0.25440400  0.02592600  0.95713200  1
  H  H57  1  0.04286800  0.75440400  0.47407400  1
  H  H58  1  0.47407400  0.04286800  0.75440400  1
  H  H59  1  0.75440400  0.47407400  0.04286800  1
  H  H60  1  0.03688100  0.74038700  0.99207300  1
  H  H61  1  0.00792700  0.53688100  0.75961300  1
  H  H62  1  0.24038700  0.50792700  0.96311900  1
  H  H63  1  0.53688100  0.75961300  0.00792700  1
  H  H64  1  0.50792700  0.96311900  0.24038700  1
  H  H65  1  0.74038700  0.99207300  0.03688100  1
  H  H66  1  0.96311900  0.24038700  0.50792700  1
  H  H67  1  0.99207300  0.03688100  0.74038700  1
  H  H68  1  0.75961300  0.00792700  0.53688100  1
  H  H69  1  0.46311900  0.25961300  0.49207300  1
  H  H70  1  0.49207300  0.46311900  0.25961300  1
  H  H71  1  0.25961300  0.49207300  0.46311900  1
  H  H72  1  0.31960000  0.81960000  0.68040000  1
  H  H73  1  0.81960000  0.68040000  0.31960000  1
  H  H74  1  0.68040000  0.31960000  0.81960000  1
  H  H75  1  0.18040000  0.18040000  0.18040000  1
  H  H76  1  0.67553800  0.17553800  0.32446200  1
  H  H77  1  0.17553800  0.32446200  0.67553800  1
  H  H78  1  0.32446200  0.67553800  0.17553800  1
  H  H79  1  0.82446200  0.82446200  0.82446200  1
  H  H80  1  0.31140800  0.67155000  0.75961800  1
  H  H81  1  0.24038200  0.81140800  0.82845000  1
  H  H82  1  0.17155000  0.74038200  0.68859200  1
  H  H83  1  0.81140800  0.82845000  0.24038200  1
  H  H84  1  0.74038200  0.68859200  0.17155000  1
  H  H85  1  0.67155000  0.75961800  0.31140800  1
  H  H86  1  0.68859200  0.17155000  0.74038200  1
  H  H87  1  0.75961800  0.31140800  0.67155000  1
  H  H88  1  0.82845000  0.24038200  0.81140800  1
  H  H89  1  0.18859200  0.32845000  0.25961800  1
  H  H90  1  0.25961800  0.18859200  0.32845000  1
  H  H91  1  0.32845000  0.25961800  0.18859200  1
  H  H92  1  0.18520800  0.17506800  0.75130200  1
  H  H93  1  0.24869800  0.68520800  0.32493200  1
  H  H94  1  0.67506800  0.74869800  0.81479200  1
  H  H95  1  0.68520800  0.32493200  0.24869800  1
  H  H96  1  0.74869800  0.81479200  0.67506800  1
  H  H97  1  0.17506800  0.75130200  0.18520800  1
  H  H98  1  0.81479200  0.67506800  0.74869800  1
  H  H99  1  0.75130200  0.18520800  0.17506800  1
  H  H100  1  0.32493200  0.24869800  0.68520800  1
  H  H101  1  0.31479200  0.82493200  0.25130200  1
  H  H102  1  0.25130200  0.31479200  0.82493200  1
  H  H103  1  0.82493200  0.25130200  0.31479200  1
  H  H104  1  0.94033700  0.44033700  0.05966300  1
  H  H105  1  0.44033700  0.05966300  0.94033700  1
  H  H106  1  0.05966300  0.94033700  0.44033700  1
  H  H107  1  0.55966300  0.55966300  0.55966300  1
  H  H108  1  0.94971300  0.52124600  0.91053500  1
  H  H109  1  0.08946500  0.44971300  0.97875400  1
  H  H110  1  0.02124600  0.58946500  0.05028700  1
  H  H111  1  0.44971300  0.97875400  0.08946500  1
  H  H112  1  0.58946500  0.05028700  0.02124600  1
  H  H113  1  0.52124600  0.91053500  0.94971300  1
  H  H114  1  0.05028700  0.02124600  0.58946500  1
  H  H115  1  0.91053500  0.94971300  0.52124600  1
  H  H116  1  0.97875400  0.08946500  0.44971300  1
  H  H117  1  0.55028700  0.47875400  0.41053500  1
  H  H118  1  0.41053500  0.55028700  0.47875400  1
  H  H119  1  0.47875400  0.41053500  0.55028700  1
  N  N0  1  0.46247100  0.31359700  0.92062800  1
  N  N1  1  0.07937200  0.96247100  0.18640300  1
  N  N2  1  0.81359700  0.57937200  0.53752900  1
  N  N3  1  0.96247100  0.18640300  0.07937200  1
  N  N4  1  0.57937200  0.53752900  0.81359700  1
  N  N5  1  0.31359700  0.92062800  0.46247100  1
  N  N6  1  0.53752900  0.81359700  0.57937200  1
  N  N7  1  0.92062800  0.46247100  0.31359700  1
  N  N8  1  0.18640300  0.07937200  0.96247100  1
  N  N9  1  0.03752900  0.68640300  0.42062800  1
  N  N10  1  0.42062800  0.03752900  0.68640300  1
  N  N11  1  0.68640300  0.42062800  0.03752900  1
  N  N12  1  0.03334500  0.80712700  0.93590500  1
  N  N13  1  0.06409500  0.53334500  0.69287300  1
  N  N14  1  0.30712700  0.56409500  0.96665500  1
  N  N15  1  0.53334500  0.69287300  0.06409500  1
  N  N16  1  0.56409500  0.96665500  0.30712700  1
  N  N17  1  0.80712700  0.93590500  0.03334500  1
  N  N18  1  0.96665500  0.30712700  0.56409500  1
  N  N19  1  0.93590500  0.03334500  0.80712700  1
  N  N20  1  0.69287300  0.06409500  0.53334500  1
  N  N21  1  0.46665500  0.19287300  0.43590500  1
  N  N22  1  0.43590500  0.46665500  0.19287300  1
  N  N23  1  0.19287300  0.43590500  0.46665500  1
loop_
_geom_bond_atom_site_label_1
_geom_bond_atom_site_label_2
_geom_bond_distance
_geom_bond_site_symmetry_2
B0 H80 1.230270 1_555
B0 H82 1.230270 1_555
B0 H81 1.230270 1_555
B0 H72 1.232250 1_555
B1 H85 1.230270 1_555
B1 H84 1.230270 1_555
B1 H83 1.230270 1_555
B1 H73 1.232250 1_555
B2 H87 1.230270 1_555
B2 H86 1.230270 1_555
B2 H88 1.230270 1_555
B2 H74 1.232250 1_555
B3 H89 1.230270 1_555
B3 H90 1.230270 1_555
B3 H91 1.230270 1_555
B3 H75 1.232250 1_555
B4 H99 1.229184 1_555
B4 H95 1.229184 1_555
B4 H103 1.229184 1_555
B4 H76 1.229604 1_555
B5 H92 1.229184 1_555
B5 H100 1.229184 1_555
B5 H102 1.229184 1_555
B5 H77 1.229604 1_555
B6 H97 1.229184 1_555
B6 H93 1.229184 1_555
B6 H101 1.229184 1_555
B6 H78 1.229604 1_555
B7 H98 1.229184 1_555
B7 H96 1.229184 1_555
B7 H94 1.229184 1_555
B7 H79 1.229604 1_555
B8 H110 1.235910 1_556
B8 H109 1.235910 1_555
B8 H108 1.235910 1_455
B8 H104 1.238833 1_456
B9 H112 1.235910 1_565
B9 H111 1.235910 1_555
B9 H113 1.235910 1_554
B9 H105 1.238833 1_564
B10 H114 1.235910 1_655
B10 H116 1.235910 1_555
B10 H115 1.235910 1_545
B10 H106 1.238833 1_645
B11 H117 1.235910 1_555
B11 H118 1.235910 1_555
B11 H119 1.235910 1_555
B11 H107 1.238833 1_555
H0 N0 1.035637 1_555
H1 N1 1.035637 1_555
H2 N2 1.035637 1_555
H3 N3 1.035637 1_555
H4 N4 1.035637 1_555
H5 N5 1.035637 1_555
H6 N6 1.035637 1_555
H7 N7 1.035637 1_555
H8 N8 1.035637 1_555
H9 N9 1.035637 1_555
H10 N10 1.035637 1_555
H11 N11 1.035637 1_555
H12 N12 1.034972 1_555
H13 N13 1.034972 1_555
H14 N14 1.034972 1_555
H15 N15 1.034972 1_555
H16 N16 1.034972 1_555
H17 N17 1.034972 1_555
H18 N18 1.034972 1_555
H19 N19 1.034972 1_555
H20 N20 1.034972 1_555
H21 N21 1.034972 1_555
H22 N22 1.034972 1_555
H23 N23 1.034972 1_555
H24 N0 1.034345 1_555
H25 N1 1.034345 1_545
H26 N2 1.034345 1_555
H27 N3 1.034345 1_455
H28 N4 1.034345 1_555
H29 N5 1.034345 1_555
H30 N6 1.034345 1_555
H31 N7 1.034345 1_555
H32 N8 1.034345 1_554
H33 N9 1.034345 1_655
H34 N10 1.034345 1_565
H35 N11 1.034345 1_556
H36 N12 1.032021 1_655
H37 N13 1.032021 1_555
H38 N14 1.032021 1_554
H39 N15 1.032021 1_555
H40 N16 1.032021 1_545
H41 N17 1.032021 1_556
H42 N18 1.032021 1_455
H43 N19 1.032021 1_565
H44 N20 1.032021 1_555
H45 N21 1.032021 1_555
H46 N22 1.032021 1_555
H47 N23 1.032021 1_555
H48 N0 1.026011 1_555
H49 N1 1.026011 1_555
H50 N2 1.026011 1_555
H51 N3 1.026011 1_555
H52 N4 1.026011 1_555
H53 N5 1.026011 1_555
H54 N6 1.026011 1_555
H55 N7 1.026011 1_555
H56 N8 1.026011 1_555
H57 N9 1.026011 1_555
H58 N10 1.026011 1_555
H59 N11 1.026011 1_555
H60 N12 1.033665 1_555
H61 N13 1.033665 1_555
H62 N14 1.033665 1_555
H63 N15 1.033665 1_555
H64 N16 1.033665 1_555
H65 N17 1.033665 1_555
H66 N18 1.033665 1_555
H67 N19 1.033665 1_555
H68 N20 1.033665 1_555
H69 N21 1.033665 1_555
H70 N22 1.033665 1_555
H71 N23 1.033665 1_555
N0 Y2 2.442976 1_556
N1 Y3 2.442976 1_454
N2 Y1 2.442976 1_655
N3 Y3 2.442976 1_544
N4 Y2 2.442976 1_556
N5 Y0 2.442976 1_565
N6 Y0 2.442976 1_565
N7 Y1 2.442976 1_655
N8 Y3 2.442976 1_445
N9 Y1 2.442976 1_555
N10 Y0 2.442976 1_555
N11 Y2 2.442976 1_555
N12 Y3 2.435314 1_455
N13 Y1 2.435314 1_555
N14 Y2 2.435314 1_556
N15 Y2 2.435314 1_555
N16 Y0 2.435314 1_565
N17 Y3 2.435314 1_554
N18 Y1 2.435314 1_655
N19 Y3 2.435314 1_545
N20 Y0 2.435314 1_555
N21 Y0 2.435314 1_555
N22 Y2 2.435314 1_555
N23 Y1 2.435314 1_555
