# generated using pymatgen
data_YbY3
_symmetry_space_group_name_H-M   'P 1'
_cell_length_a   6.28019683
_cell_length_b   6.28019683
_cell_length_c   6.28019683
_cell_angle_alpha   132.28402677
_cell_angle_beta   132.28402677
_cell_angle_gamma   69.78080572
_symmetry_Int_Tables_number   1
_chemical_formula_structural   YbY3
_chemical_formula_sum   'Yb1 Y3'
_cell_volume   132.95348616
_cell_formula_units_Z   1
loop_
 _symmetry_equiv_pos_site_id
 _symmetry_equiv_pos_as_xyz
  1  'x, y, z'
loop_
 _atom_site_type_symbol
 _atom_site_label
 _atom_site_symmetry_multiplicity
 _atom_site_fract_x
 _atom_site_fract_y
 _atom_site_fract_z
 _atom_site_occupancy
  Yb  Yb0  1  0.00000000  0.00000000  0.00000000  1
  Y  Y0  1  0.75000000  0.25000000  0.50000000  1
  Y  Y1  1  0.25000000  0.75000000  0.50000000  1
  Y  Y2  1  0.50000000  0.50000000  0.00000000  1
loop_
_geom_bond_atom_site_label_1
_geom_bond_atom_site_label_2
_geom_bond_distance
_geom_bond_site_symmetry_2
Y0 Y1 3.592326 1_645
Y0 Y1 3.592326 1_555
Y0 Y1 3.592326 1_544
Y0 Y1 3.592326 1_656
Y0 Yb0 3.617516 1_555
Y0 Y2 3.617516 1_556
Y0 Yb0 3.617516 1_666
Y0 Yb0 3.617516 1_656
Y0 Yb0 3.617516 1_655
Y0 Y2 3.617516 1_656
Y0 Y2 3.617516 1_545
Y0 Y2 3.617516 1_555
Y1 Y2 3.617516 1_566
Y1 Y2 3.617516 1_455
Y1 Yb0 3.617516 1_555
Y1 Y2 3.617516 1_556
Y1 Yb0 3.617516 1_565
Y1 Yb0 3.617516 1_566
Y1 Yb0 3.617516 1_666
Y1 Y2 3.617516 1_555
Y2 Yb0 3.592326 1_554
Y2 Yb0 3.592326 1_655
Y2 Yb0 3.592326 1_565
Y2 Yb0 3.592326 1_666
