# generated using pymatgen
data_Rb2ZnI4
_symmetry_space_group_name_H-M   'P 1'
_cell_length_a   7.72937229
_cell_length_b   8.25262802
_cell_length_c   10.41354362
_cell_angle_alpha   90.00000000
_cell_angle_beta   109.61585382
_cell_angle_gamma   90.00000000
_symmetry_Int_Tables_number   1
_chemical_formula_structural   Rb2ZnI4
_chemical_formula_sum   'Rb4 Zn2 I8'
_cell_volume   625.70498835
_cell_formula_units_Z   2
loop_
 _symmetry_equiv_pos_site_id
 _symmetry_equiv_pos_as_xyz
  1  'x, y, z'
loop_
 _atom_site_type_symbol
 _atom_site_label
 _atom_site_symmetry_multiplicity
 _atom_site_fract_x
 _atom_site_fract_y
 _atom_site_fract_z
 _atom_site_occupancy
  Rb  Rb0  1  0.30549792  0.74799983  0.96246912  1
  Rb  Rb1  1  0.69450208  0.24799983  0.03753088  1
  Rb  Rb2  1  0.20679086  0.74717298  0.41554562  1
  Rb  Rb3  1  0.79320914  0.24717298  0.58445438  1
  Zn  Zn0  1  0.69855523  0.75578082  0.78493342  1
  Zn  Zn1  1  0.30144477  0.25578082  0.21506658  1
  I  I0  1  0.48609086  0.50021870  0.72322053  1
  I  I1  1  0.51390914  0.00021870  0.27677947  1
  I  I2  1  0.52344859  0.50539037  0.27894096  1
  I  I3  1  0.47655141  0.00539037  0.72105904  1
  I  I4  1  0.86829978  0.76043927  0.05036030  1
  I  I5  1  0.13170022  0.26043927  0.94963970  1
  I  I6  1  0.91959003  0.75759904  0.64316412  1
  I  I7  1  0.08040997  0.25759904  0.35683588  1
loop_
_geom_bond_atom_site_label_1
_geom_bond_atom_site_label_2
_geom_bond_distance
_geom_bond_site_symmetry_2
I0 Zn0 2.617136 1_555
I0 Rb1 3.755053 1_556
I0 Rb3 3.793071 1_555
I0 Rb2 3.799398 1_555
I0 Rb0 3.830413 1_555
I1 Zn1 2.617136 1_555
I1 Rb0 3.755053 1_544
I1 Rb2 3.793071 1_545
I1 Rb3 3.799398 1_555
I1 Rb1 3.830413 1_555
I2 Zn1 2.619905 1_555
I2 Rb0 3.738973 1_554
I2 Rb2 3.785937 1_555
I2 Rb3 3.815287 1_555
I2 Rb1 3.848581 1_555
I3 Zn0 2.619905 1_545
I3 Rb1 3.738973 1_556
I3 Rb3 3.785937 1_555
I3 Rb2 3.815287 1_545
I3 Rb0 3.848581 1_545
I4 Zn0 2.632083 1_554
I4 Rb0 3.787392 1_654
I4 Rb2 3.826044 1_655
I4 Rb0 4.135020 1_554
I4 Rb1 4.229862 1_565
I5 Zn1 2.632083 1_556
I5 Rb1 3.787392 1_456
I5 Rb3 3.826044 1_455
I5 Rb1 4.135020 1_556
I5 Rb0 4.229862 1_555
I6 Zn0 2.606161 1_555
I6 Rb0 3.646982 1_655
I6 Rb2 3.753210 1_655
I6 Rb3 4.153410 1_565
I6 Rb3 4.320991 1_555
I7 Zn1 2.606161 1_555
I7 Rb1 3.646982 1_455
I7 Rb3 3.753210 1_455
I7 Rb2 4.153410 1_555
I7 Rb2 4.320991 1_545
