# generated using pymatgen
data_BaRe2C3N6O11
_symmetry_space_group_name_H-M   'P 1'
_cell_length_a   7.82637500
_cell_length_b   15.20172500
_cell_length_c   15.40633977
_cell_angle_alpha   86.27483917
_cell_angle_beta   90.00000000
_cell_angle_gamma   90.00000000
_symmetry_Int_Tables_number   1
_chemical_formula_structural   BaRe2C3N6O11
_chemical_formula_sum   'Ba4 Re8 C12 N24 O44'
_cell_volume   1829.08732964
_cell_formula_units_Z   4
loop_
 _symmetry_equiv_pos_site_id
 _symmetry_equiv_pos_as_xyz
  1  'x, y, z'
loop_
 _atom_site_type_symbol
 _atom_site_label
 _atom_site_symmetry_multiplicity
 _atom_site_fract_x
 _atom_site_fract_y
 _atom_site_fract_z
 _atom_site_occupancy
  Ba  Ba0  1  0.34502600  0.86634700  0.90612500  1
  Ba  Ba1  1  0.65497400  0.13365300  0.09387500  1
  Ba  Ba2  1  0.84502600  0.13365300  0.59387500  1
  Ba  Ba3  1  0.15497400  0.86634700  0.40612500  1
  Re  Re0  1  0.06455100  0.63494800  0.91262600  1
  Re  Re1  1  0.93544900  0.36505200  0.08737400  1
  Re  Re2  1  0.56455100  0.36505200  0.58737400  1
  Re  Re3  1  0.43544900  0.63494800  0.41262600  1
  Re  Re4  1  0.36758200  0.98612000  0.63196500  1
  Re  Re5  1  0.63241800  0.01388000  0.36803500  1
  Re  Re6  1  0.86758200  0.01388000  0.86803500  1
  Re  Re7  1  0.13241800  0.98612000  0.13196500  1
  C  C0  1  0.51306000  0.66485300  0.73360800  1
  C  C1  1  0.48694000  0.33514700  0.26639200  1
  C  C2  1  0.01306000  0.33514700  0.76639200  1
  C  C3  1  0.98694000  0.66485300  0.23360800  1
  C  C4  1  0.02224400  0.65411500  0.54688500  1
  C  C5  1  0.97775600  0.34588500  0.45311500  1
  C  C6  1  0.52224400  0.34588500  0.95311500  1
  C  C7  1  0.47775600  0.65411500  0.04688500  1
  C  C8  1  0.88550400  0.86813200  0.62032200  1
  C  C9  1  0.11449600  0.13186800  0.37967800  1
  C  C10  1  0.38550400  0.13186800  0.87967800  1
  C  C11  1  0.61449600  0.86813200  0.12032200  1
  N  N0  1  0.37274200  0.71708400  0.71979400  1
  N  N1  1  0.62725800  0.28291600  0.28020600  1
  N  N2  1  0.87274200  0.28291600  0.78020600  1
  N  N3  1  0.12725800  0.71708400  0.21979400  1
  N  N4  1  0.76691700  0.80085300  0.62515700  1
  N  N5  1  0.23308300  0.19914700  0.37484300  1
  N  N6  1  0.26691700  0.19914700  0.87484300  1
  N  N7  1  0.73308300  0.80085300  0.12515700  1
  N  N8  1  0.99253300  0.57847100  0.59862700  1
  N  N9  1  0.00746700  0.42152900  0.40137300  1
  N  N10  1  0.49253300  0.42152900  0.90137300  1
  N  N11  1  0.50746700  0.57847100  0.09862700  1
  N  N12  1  0.85737600  0.81587800  0.69581400  1
  N  N13  1  0.14262400  0.18412200  0.30418600  1
  N  N14  1  0.35737600  0.18412200  0.80418600  1
  N  N15  1  0.64262400  0.81587800  0.19581400  1
  N  N16  1  0.11937700  0.39260600  0.77948000  1
  N  N17  1  0.88062300  0.60739400  0.22052000  1
  N  N18  1  0.61937700  0.60739400  0.72052000  1
  N  N19  1  0.38062300  0.39260600  0.27948000  1
  N  N20  1  0.08466300  0.41132400  0.47833800  1
  N  N21  1  0.91533700  0.58867600  0.52166200  1
  N  N22  1  0.58466300  0.58867600  0.02166200  1
  N  N23  1  0.41533700  0.41132400  0.97833800  1
  O  O0  1  0.08196700  0.98004800  0.86699900  1
  O  O1  1  0.91803300  0.01995200  0.13300100  1
  O  O2  1  0.58196700  0.01995200  0.63300100  1
  O  O3  1  0.41803300  0.98004800  0.36699900  1
  O  O4  1  0.97973500  0.26430600  0.70684200  1
  O  O5  1  0.02026500  0.73569400  0.29315800  1
  O  O6  1  0.47973500  0.73569400  0.79315800  1
  O  O7  1  0.52026500  0.26430600  0.20684200  1
  O  O8  1  0.08771500  0.72642800  0.53429900  1
  O  O9  1  0.91228500  0.27357200  0.46570100  1
  O  O10  1  0.58771500  0.27357200  0.96570100  1
  O  O11  1  0.41228500  0.72642800  0.03429900  1
  O  O12  1  0.34075200  0.91501100  0.54764100  1
  O  O13  1  0.65924800  0.08498900  0.45235900  1
  O  O14  1  0.84075200  0.08498900  0.95235900  1
  O  O15  1  0.15924800  0.91501100  0.04764100  1
  O  O16  1  0.73108800  0.92289200  0.88373400  1
  O  O17  1  0.26891200  0.07710800  0.11626600  1
  O  O18  1  0.23108800  0.07710800  0.61626600  1
  O  O19  1  0.76891200  0.92289200  0.38373400  1
  O  O20  1  0.32464600  0.92951600  0.73253900  1
  O  O21  1  0.67535400  0.07048400  0.26746100  1
  O  O22  1  0.82464600  0.07048400  0.76746100  1
  O  O23  1  0.17535400  0.92951600  0.23253900  1
  O  O24  1  0.48983700  0.62367200  0.52286700  1
  O  O25  1  0.51016300  0.37632800  0.47713300  1
  O  O26  1  0.98983700  0.37632800  0.97713300  1
  O  O27  1  0.01016300  0.62367200  0.02286700  1
  O  O28  1  0.24256600  0.56940300  0.89437100  1
  O  O29  1  0.75743400  0.43059700  0.10562900  1
  O  O30  1  0.74256600  0.43059700  0.60562900  1
  O  O31  1  0.25743400  0.56940300  0.39437100  1
  O  O32  1  0.39312600  0.39621300  0.65063900  1
  O  O33  1  0.60687400  0.60378700  0.34936100  1
  O  O34  1  0.89312600  0.60378700  0.84936100  1
  O  O35  1  0.10687400  0.39621300  0.15063900  1
  O  O36  1  0.95787300  0.92809600  0.57996200  1
  O  O37  1  0.04212700  0.07190400  0.42003800  1
  O  O38  1  0.45787300  0.07190400  0.92003800  1
  O  O39  1  0.54212700  0.92809600  0.07996200  1
  O  O40  1  0.12044800  0.74775700  0.88429900  1
  O  O41  1  0.87955200  0.25224300  0.11570100  1
  O  O42  1  0.62044800  0.25224300  0.61570100  1
  O  O43  1  0.37955200  0.74775700  0.38429900  1
loop_
_geom_bond_atom_site_label_1
_geom_bond_atom_site_label_2
_geom_bond_distance
_geom_bond_site_symmetry_2
Ba0 O40 2.555601 1_555
Ba0 O0 2.730232 1_555
Ba0 O15 2.761220 1_556
Ba0 O20 2.786734 1_555
Ba0 O11 2.855678 1_556
Ba0 O6 2.921386 1_555
Ba0 O16 3.154141 1_555
Ba0 O38 3.267644 1_565
Ba0 O39 3.280259 1_556
Ba1 O41 2.555601 1_555
Ba1 O1 2.730232 1_555
Ba1 O14 2.761220 1_554
Ba1 O21 2.786734 1_555
Ba1 O10 2.855678 1_554
Ba1 O7 2.921386 1_555
Ba1 O17 3.154141 1_555
Ba1 O39 3.267644 1_545
Ba1 O38 3.280259 1_554
Ba2 O42 2.555601 1_555
Ba2 O2 2.730232 1_555
Ba2 O13 2.761220 1_555
Ba2 O22 2.786734 1_555
Ba2 O9 2.855678 1_555
Ba2 O4 2.921386 1_555
Ba2 O18 3.154141 1_655
Ba2 O36 3.267644 1_545
Ba2 O37 3.280259 1_655
Ba3 O43 2.555601 1_555
Ba3 O3 2.730232 1_555
Ba3 O12 2.761220 1_555
Ba3 O23 2.786734 1_555
Ba3 O8 2.855678 1_555
Ba3 O5 2.921386 1_555
Ba3 O19 3.154141 1_455
Ba3 O37 3.267644 1_565
Ba3 O36 3.280259 1_455
C0 N18 1.232419 1_555
C0 N0 1.363736 1_555
C0 O6 1.482512 1_555
C1 N19 1.232419 1_555
C1 N1 1.363736 1_555
C1 O7 1.482512 1_555
C2 N16 1.232419 1_555
C2 N2 1.363736 1_455
C2 O4 1.482512 1_455
C3 N17 1.232419 1_555
C3 N3 1.363736 1_655
C3 O5 1.482512 1_655
C4 O8 1.216913 1_555
C4 N21 1.375097 1_455
C4 N8 1.375764 1_455
C5 O9 1.216913 1_555
C5 N20 1.375097 1_655
C5 N9 1.375764 1_655
C6 O10 1.216913 1_555
C6 N23 1.375097 1_555
C6 N10 1.375764 1_555
C7 O11 1.216913 1_555
C7 N22 1.375097 1_555
C7 N11 1.375764 1_555
C8 O36 1.210253 1_555
C8 N4 1.379515 1_555
C8 N12 1.382788 1_555
C9 O37 1.210253 1_555
C9 N5 1.379515 1_555
C9 N13 1.382788 1_555
C10 O38 1.210253 1_555
C10 N6 1.379515 1_555
C10 N14 1.382788 1_555
C11 O39 1.210253 1_555
C11 N7 1.379515 1_555
C11 N15 1.382788 1_555
N0 O6 1.449234 1_555
N1 O7 1.449234 1_555
N2 O4 1.449234 1_555
N3 O5 1.449234 1_555
N10 N23 1.330857 1_555
N11 N22 1.330857 1_555
N12 N4 1.330665 1_555
N13 N5 1.330665 1_555
N14 N6 1.330665 1_555
N15 N7 1.330665 1_555
N20 N9 1.330857 1_555
N21 N8 1.330857 1_555
O0 Re6 1.755288 1_465
O1 Re7 1.755288 1_645
O2 Re4 1.755288 1_545
O3 Re5 1.755288 1_565
O12 Re4 1.755794 1_555
O13 Re5 1.755794 1_555
O14 Re6 1.755794 1_555
O15 Re7 1.755794 1_555
O16 Re6 1.751960 1_565
O17 Re7 1.751960 1_545
O18 Re4 1.751960 1_545
O19 Re5 1.751960 1_565
O20 Re4 1.755270 1_555
O21 Re5 1.755270 1_555
O22 Re6 1.755270 1_555
O23 Re7 1.755270 1_555
O24 Re3 1.748524 1_555
O25 Re2 1.748524 1_555
O26 Re1 1.748524 1_556
O27 Re0 1.748524 1_554
O28 Re0 1.746241 1_555
O29 Re1 1.746241 1_555
O30 Re2 1.746241 1_555
O31 Re3 1.746241 1_555
O32 Re2 1.741947 1_555
O33 Re3 1.741947 1_555
O34 Re0 1.741947 1_655
O35 Re1 1.741947 1_455
O40 Re0 1.795952 1_555
O41 Re1 1.795952 1_555
O42 Re2 1.795952 1_555
O43 Re3 1.795952 1_555
