# generated using pymatgen
data_Cs3Ca2Cl7
_symmetry_space_group_name_H-M   'P 1'
_cell_length_a   14.54224056
_cell_length_b   14.54224056
_cell_length_c   14.54224056
_cell_angle_alpha   158.58427534
_cell_angle_beta   158.58427534
_cell_angle_gamma   30.46813628
_symmetry_Int_Tables_number   1
_chemical_formula_structural   Cs3Ca2Cl7
_chemical_formula_sum   'Cs3 Ca2 Cl7'
_cell_volume   409.74783021
_cell_formula_units_Z   1
loop_
 _symmetry_equiv_pos_site_id
 _symmetry_equiv_pos_as_xyz
  1  'x, y, z'
loop_
 _atom_site_type_symbol
 _atom_site_label
 _atom_site_symmetry_multiplicity
 _atom_site_fract_x
 _atom_site_fract_y
 _atom_site_fract_z
 _atom_site_occupancy
  Cs  Cs0  1  0.31704754  0.31704754  -0.00000000  1
  Cs  Cs1  1  0.68295246  0.68295246  0.00000000  1
  Cs  Cs2  1  0.50000000  0.50000000  0.00000000  1
  Ca  Ca0  1  0.09756344  0.09756344  -0.00000000  1
  Ca  Ca1  1  0.90243656  0.90243656  0.00000000  1
  Cl  Cl0  1  0.59512605  0.09512605  0.50000000  1
  Cl  Cl1  1  0.40487395  0.90487395  0.50000000  1
  Cl  Cl2  1  0.09512605  0.59512605  0.50000000  1
  Cl  Cl3  1  0.90487395  0.40487395  0.50000000  1
  Cl  Cl4  1  0.19393393  0.19393393  0.00000000  1
  Cl  Cl5  1  0.80606607  0.80606607  -0.00000000  1
  Cl  Cl6  1  -0.00000000  -0.00000000  0.00000000  1
loop_
_geom_bond_atom_site_label_1
_geom_bond_atom_site_label_2
_geom_bond_distance
_geom_bond_site_symmetry_2
Ca0 Cl2 2.702835 1_555
Ca0 Cl0 2.702835 1_555
Ca0 Cl2 2.702835 1_544
Ca0 Cl0 2.702835 1_454
Ca0 Cl4 2.704393 1_555
Ca0 Cl6 2.737871 1_555
Ca1 Cl1 2.702835 1_655
Ca1 Cl3 2.702835 1_565
Ca1 Cl1 2.702835 1_554
Ca1 Cl3 2.702835 1_554
Ca1 Cl5 2.704393 1_555
Ca1 Cl6 2.737871 1_665
Cl0 Cs1 3.657187 1_556
Cl0 Cs1 3.657187 1_545
Cl0 Cs2 3.798252 1_545
Cl0 Cs2 3.798252 1_556
Cl1 Cs0 3.657187 1_566
Cl1 Cs0 3.657187 1_555
Cl1 Cs2 3.798252 1_566
Cl1 Cs2 3.798252 1_555
Cl2 Cs1 3.657187 1_556
Cl2 Cs1 3.657187 1_455
Cl2 Cs2 3.798252 1_455
Cl2 Cs2 3.798252 1_556
Cl3 Cs0 3.657187 1_656
Cl3 Cs0 3.657187 1_555
Cl3 Cs2 3.798252 1_656
Cl3 Cs2 3.798252 1_555
Cl4 Cs0 3.454871 1_555
Cl4 Cs1 3.833568 1_444
Cl4 Cs1 3.833568 1_545
Cl4 Cs1 3.833568 1_556
Cl4 Cs1 3.833568 1_455
Cl5 Cs1 3.454871 1_555
Cl5 Cs0 3.833568 1_565
Cl5 Cs0 3.833568 1_655
Cl5 Cs0 3.833568 1_666
Cl5 Cs0 3.833568 1_554
Cl6 Cs2 3.821162 1_545
Cl6 Cs2 3.821162 1_556
Cl6 Cs2 3.821162 1_444
Cl6 Cs2 3.821162 1_455
