# generated using pymatgen
data_BaAlFe4O7
_symmetry_space_group_name_H-M   'P 1'
_cell_length_a   5.93439027
_cell_length_b   5.93448825
_cell_length_c   10.18086978
_cell_angle_alpha   89.99898075
_cell_angle_beta   90.00000000
_cell_angle_gamma   119.99945662
_symmetry_Int_Tables_number   1
_chemical_formula_structural   BaAlFe4O7
_chemical_formula_sum   'Ba2 Al2 Fe8 O14'
_cell_volume   310.51120044
_cell_formula_units_Z   2
loop_
 _symmetry_equiv_pos_site_id
 _symmetry_equiv_pos_as_xyz
  1  'x, y, z'
loop_
 _atom_site_type_symbol
 _atom_site_label
 _atom_site_symmetry_multiplicity
 _atom_site_fract_x
 _atom_site_fract_y
 _atom_site_fract_z
 _atom_site_occupancy
  Ba  Ba0  1  0.66667996  0.33335893  0.49900598  1
  Ba  Ba1  1  0.33332951  0.66666002  -0.00123797  1
  Al  Al0  1  0.66666568  0.33333035  0.88110470  1
  Al  Al1  1  0.33332929  0.66665958  0.38111764  1
  Fe  Fe0  1  0.80951481  0.19049312  0.18426519  1
  Fe  Fe1  1  0.61905850  0.80953535  0.68428309  1
  Fe  Fe2  1  0.19047271  0.38094642  0.68427875  1
  Fe  Fe3  1  0.80949083  0.61898066  0.18424958  1
  Fe  Fe4  1  0.38097930  0.19049312  0.18426519  1
  Fe  Fe5  1  0.19047585  0.80953535  0.68428309  1
  Fe  Fe6  1  0.99999727  0.99999454  0.42923579  1
  Fe  Fe7  1  0.99999895  0.99999790  0.92917673  1
  O  O0  1  0.82373517  0.17627533  0.99510260  1
  O  O1  1  0.64743196  0.82368860  0.49519487  1
  O  O2  1  0.17627929  0.35255858  0.49519731  1
  O  O3  1  0.82372520  0.64745040  0.99509193  1
  O  O4  1  0.35254016  0.17627533  0.99510260  1
  O  O5  1  0.17625664  0.82368860  0.49519487  1
  O  O6  1  0.00001469  0.00002937  0.74360459  1
  O  O7  1  0.99998966  0.99997932  0.24365740  1
  O  O8  1  0.48821757  0.51178353  0.28106821  1
  O  O9  1  0.97620044  0.48809785  0.78086882  1
  O  O10  1  0.51191821  0.02383742  0.78086234  1
  O  O11  1  0.48823499  0.97646899  0.28108367  1
  O  O12  1  0.51189641  0.48809785  0.78086882  1
  O  O13  1  0.02356695  0.51178353  0.28106821  1
loop_
_geom_bond_atom_site_label_1
_geom_bond_atom_site_label_2
_geom_bond_distance
_geom_bond_site_symmetry_2
Ba0 O11 2.878693 1_545
Ba0 O13 2.878742 1_655
Ba0 O8 2.878742 1_555
Ba0 O5 2.968866 1_655
Ba0 O1 2.968869 1_555
Ba0 O2 2.969086 1_655
Ba0 O2 2.969092 1_555
Ba0 O1 2.969423 1_545
Ba0 O5 2.969426 1_545
Ba0 O10 3.280950 1_555
Ba0 O9 3.281036 1_555
Ba0 O12 3.281041 1_555
Ba1 O9 2.879214 1_454
Ba1 O12 2.879214 1_554
Ba1 O10 2.879399 1_564
Ba1 O0 2.969056 1_454
Ba1 O4 2.969060 1_554
Ba1 O3 2.969069 1_454
Ba1 O3 2.969075 1_554
Ba1 O4 2.969180 1_564
Ba1 O0 2.969183 1_564
Ba1 O13 3.285558 1_555
Ba1 O8 3.285563 1_555
Ba1 O11 3.285867 1_555
Al0 O10 1.889888 1_555
Al0 O9 1.889985 1_555
Al0 O12 1.889994 1_555
Al0 O3 1.988243 1_555
Al0 O0 1.988274 1_555
Al0 O4 1.988278 1_555
Al1 O13 1.889963 1_555
Al1 O8 1.889972 1_555
Al1 O11 1.890078 1_555
Al1 O5 1.988670 1_555
Al1 O1 1.988674 1_555
Al1 O2 1.988674 1_555
Fe0 O0 1.931379 1_554
Fe0 O11 1.948926 1_545
Fe0 O13 1.948960 1_655
Fe0 O7 2.049270 1_545
Fe1 O1 1.930596 1_555
Fe1 O12 1.948594 1_555
Fe1 O10 1.948616 1_565
Fe1 O6 2.048910 1_665
Fe2 O2 1.930537 1_555
Fe2 O12 1.948555 1_555
Fe2 O9 1.948555 1_455
Fe2 O6 2.048744 1_555
Fe3 O3 1.931337 1_554
Fe3 O13 1.948947 1_655
Fe3 O8 1.948947 1_555
Fe3 O7 2.049415 1_555
Fe4 O4 1.931379 1_554
Fe4 O11 1.948926 1_545
Fe4 O8 1.948960 1_555
Fe4 O7 2.049275 1_445
Fe5 O5 1.930596 1_555
Fe5 O9 1.948594 1_455
Fe5 O10 1.948616 1_565
Fe5 O6 2.048905 1_565
Fe6 O7 1.889349 1_555
Fe6 O1 1.932386 1_555
Fe6 O5 1.932386 1_655
Fe6 O2 1.932436 1_665
Fe7 O6 1.889286 1_665
Fe7 O4 1.932165 1_665
Fe7 O0 1.932165 1_565
Fe7 O3 1.932167 1_555
