# generated using pymatgen
data_Hf2SiH
_symmetry_space_group_name_H-M   'P 1'
_cell_length_a   5.32911978
_cell_length_b   5.32911978
_cell_length_c   5.32911978
_cell_angle_alpha   104.87978850
_cell_angle_beta   104.87978850
_cell_angle_gamma   119.10530221
_symmetry_Int_Tables_number   1
_chemical_formula_structural   Hf2SiH
_chemical_formula_sum   'Hf4 Si2 H2'
_cell_volume   113.99807830
_cell_formula_units_Z   2
loop_
 _symmetry_equiv_pos_site_id
 _symmetry_equiv_pos_as_xyz
  1  'x, y, z'
loop_
 _atom_site_type_symbol
 _atom_site_label
 _atom_site_symmetry_multiplicity
 _atom_site_fract_x
 _atom_site_fract_y
 _atom_site_fract_z
 _atom_site_occupancy
  Hf  Hf0  1  0.16359490  0.66359490  0.82719080  1
  Hf  Hf1  1  0.83640510  0.33640510  0.17280920  1
  Hf  Hf2  1  0.33640510  0.16359490  0.50000000  1
  Hf  Hf3  1  0.66359490  0.83640510  0.50000000  1
  Si  Si0  1  0.25000000  0.25000000  -0.00000000  1
  Si  Si1  1  0.75000000  0.75000000  0.00000000  1
  H  H0  1  0.75000000  0.25000000  0.50000000  1
  H  H1  1  0.25000000  0.75000000  0.50000000  1
loop_
_geom_bond_atom_site_label_1
_geom_bond_atom_site_label_2
_geom_bond_distance
_geom_bond_site_symmetry_2
Hf0 Si0 2.780321 1_556
Hf0 Si1 2.780321 1_456
Hf0 Si0 2.780323 1_566
Hf0 Si1 2.780323 1_556
Hf1 Si0 2.780321 1_655
Hf1 Si1 2.780321 1_555
Hf1 Si0 2.780323 1_555
Hf1 Si1 2.780323 1_545
Hf2 Si0 2.780323 1_556
Hf2 Si0 2.780323 1_555
Hf2 Si1 2.780323 1_445
Hf2 Si1 2.780323 1_556
Hf3 Si0 2.780323 1_555
Hf3 Si0 2.780323 1_666
Hf3 Si1 2.780323 1_556
Hf3 Si1 2.780323 1_555
Si0 Si1 2.700512 1_555
Si0 Si1 2.700512 1_445
H0 Hf3 2.020578 1_545
H0 Hf2 2.020578 1_555
H0 Hf0 2.020580 1_655
H0 Hf1 2.020583 1_555
H1 Hf3 2.020578 1_555
H1 Hf2 2.020578 1_565
H1 Hf1 2.020580 1_455
H1 Hf0 2.020583 1_555
