# generated using pymatgen
data_Lu5Mg24
_symmetry_space_group_name_H-M   'P 1'
_cell_length_a   9.62929350
_cell_length_b   9.62931170
_cell_length_c   9.62931346
_cell_angle_alpha   109.47127991
_cell_angle_beta   109.47123300
_cell_angle_gamma   109.47122559
_symmetry_Int_Tables_number   1
_chemical_formula_structural   Lu5Mg24
_chemical_formula_sum   'Lu5 Mg24'
_cell_volume   687.32587356
_cell_formula_units_Z   1
loop_
 _symmetry_equiv_pos_site_id
 _symmetry_equiv_pos_as_xyz
  1  'x, y, z'
loop_
 _atom_site_type_symbol
 _atom_site_label
 _atom_site_symmetry_multiplicity
 _atom_site_fract_x
 _atom_site_fract_y
 _atom_site_fract_z
 _atom_site_occupancy
  Lu  Lu0  1  0.00000000  -0.00000000  0.00000000  1
  Lu  Lu1  1  0.63088854  1.00000000  1.00000000  1
  Lu  Lu2  1  0.00000000  0.63088854  1.00000000  1
  Lu  Lu3  1  0.00000000  1.00000000  0.63088854  1
  Lu  Lu4  1  0.36911146  0.36911146  0.36911146  1
  Mg  Mg0  1  0.39186906  0.67829817  1.00000000  1
  Mg  Mg1  1  0.71357189  0.32170083  0.32170083  1
  Mg  Mg2  1  0.39187006  1.00000000  0.67829817  1
  Mg  Mg3  1  0.67830017  0.39187106  1.00000000  1
  Mg  Mg4  1  0.00000000  0.39187106  0.67830017  1
  Mg  Mg5  1  0.32169983  0.71357089  0.32169983  1
  Mg  Mg6  1  0.32170083  0.32170083  0.71357189  1
  Mg  Mg7  1  0.00000000  0.67829917  0.39186906  1
  Mg  Mg8  1  0.67829917  1.00000000  0.39187106  1
  Mg  Mg9  1  0.60812994  0.60812994  0.28642811  1
  Mg  Mg10  1  0.28642811  0.60812994  0.60812994  1
  Mg  Mg11  1  0.60813094  0.28642911  0.60813094  1
  Mg  Mg12  1  0.37238997  0.19055664  1.00000000  1
  Mg  Mg13  1  0.18183333  0.80944236  0.80944336  1
  Mg  Mg14  1  0.37238997  0.99999900  0.19055664  1
  Mg  Mg15  1  0.19055664  0.37239097  0.00000000  1
  Mg  Mg16  1  0.00000000  0.37239197  0.19055664  1
  Mg  Mg17  1  0.80944336  0.18183533  0.80944336  1
  Mg  Mg18  1  0.80944336  0.80944236  0.18183333  1
  Mg  Mg19  1  -0.00000000  0.19055664  0.37239097  1
  Mg  Mg20  1  0.19055664  0.99999900  0.37238997  1
  Mg  Mg21  1  0.62761003  0.62760903  0.81816667  1
  Mg  Mg22  1  0.81816667  0.62760903  0.62761003  1
  Mg  Mg23  1  0.62761003  0.81816667  0.62760903  1
loop_
_geom_bond_atom_site_label_1
_geom_bond_atom_site_label_2
_geom_bond_distance
_geom_bond_site_symmetry_2
Lu0 Mg12 3.440752 1_554
Lu0 Mg14 3.440757 1_545
Lu0 Mg21 3.440757 1_444
Lu0 Mg23 3.440758 1_444
Lu0 Mg13 3.440760 1_544
Lu0 Mg22 3.440760 1_444
Lu0 Mg18 3.440763 1_445
Lu0 Mg20 3.440763 1_545
Lu0 Mg19 3.440766 1_555
Lu0 Mg15 3.440766 1_555
Lu0 Mg16 3.440773 1_555
Lu0 Mg17 3.440774 1_454
Lu0 Lu1 3.554283 1_444
Lu0 Lu4 3.554283 1_555
Lu0 Lu2 3.554289 1_544
Lu0 Lu3 3.554290 1_544
Lu1 Mg1 3.184366 1_566
Lu1 Mg2 3.184377 1_555
Lu1 Mg0 3.184381 1_555
Lu1 Mg19 3.409851 1_666
Lu1 Mg16 3.409856 1_666
Lu1 Mg21 3.409859 1_555
Lu1 Mg23 3.409859 1_555
Lu1 Mg18 3.409860 1_556
Lu1 Mg17 3.409862 1_565
Lu1 Mg13 3.550745 1_555
Lu1 Mg14 3.550750 1_556
Lu1 Mg12 3.550751 1_565
Lu1 Mg10 3.646748 1_555
Lu1 Mg3 3.646760 1_565
Lu1 Mg8 3.646762 1_556
Lu2 Mg3 3.184356 1_455
Lu2 Mg5 3.184356 1_556
Lu2 Mg4 3.184359 1_555
Lu2 Mg21 3.409841 1_455
Lu2 Mg14 3.409841 1_556
Lu2 Mg18 3.409844 1_456
Lu2 Mg20 3.409844 1_556
Lu2 Mg13 3.409847 1_555
Lu2 Mg22 3.409847 1_455
Lu2 Mg17 3.550735 1_455
Lu2 Mg16 3.550739 1_556
Lu2 Mg15 3.550744 1_556
Lu2 Mg0 3.646737 1_555
Lu2 Mg11 3.646738 1_455
Lu2 Mg7 3.646743 1_556
Lu3 Mg8 3.184363 1_455
Lu3 Mg6 3.184363 1_565
Lu3 Mg7 3.184374 1_555
Lu3 Mg23 3.409841 1_455
Lu3 Mg12 3.409846 1_565
Lu3 Mg15 3.409854 1_566
Lu3 Mg17 3.409859 1_465
Lu3 Mg13 3.409860 1_555
Lu3 Mg22 3.409860 1_455
Lu3 Mg19 3.550748 1_565
Lu3 Mg20 3.550752 1_555
Lu3 Mg18 3.550752 1_455
Lu3 Mg2 3.646747 1_555
Lu3 Mg9 3.646747 1_455
Lu3 Mg4 3.646759 1_565
Lu4 Mg10 3.184376 1_555
Lu4 Mg9 3.184377 1_555
Lu4 Mg11 3.184381 1_555
Lu4 Mg12 3.409851 1_554
Lu4 Mg19 3.409851 1_555
Lu4 Mg16 3.409856 1_555
Lu4 Mg15 3.409857 1_555
Lu4 Mg14 3.409859 1_545
Lu4 Mg20 3.409860 1_545
Lu4 Mg22 3.550745 1_555
Lu4 Mg23 3.550750 1_555
Lu4 Mg21 3.550751 1_555
Lu4 Mg1 3.646755 1_555
Lu4 Mg5 3.646760 1_555
Lu4 Mg6 3.646762 1_555
Mg0 Mg15 2.937343 1_556
Mg0 Mg14 3.134583 1_556
Mg0 Mg13 3.134583 1_555
Mg0 Mg9 3.278962 1_556
Mg0 Mg6 3.278963 1_555
Mg0 Mg4 3.318864 1_555
Mg0 Mg5 3.318871 1_556
Mg0 Mg10 3.318884 1_555
Mg0 Mg8 3.318886 1_556
Mg0 Mg18 3.357921 1_556
Mg0 Mg21 3.357925 1_555
Mg1 Mg22 2.937358 1_555
Mg1 Mg12 3.134591 1_554
Mg1 Mg14 3.134596 1_545
Mg1 Mg4 3.278968 1_655
Mg1 Mg7 3.278969 1_655
Mg1 Mg8 3.318886 1_545
Mg1 Mg3 3.318888 1_554
Mg1 Mg9 3.318889 1_555
Mg1 Mg11 3.318891 1_555
Mg1 Mg19 3.357907 1_655
Mg1 Mg16 3.357907 1_655
Mg2 Mg20 2.937349 1_555
Mg2 Mg5 3.278966 1_555
Mg2 Mg7 3.318874 1_555
Mg2 Mg6 3.318878 1_565
Mg2 Mg3 3.318886 1_565
Mg2 Mg23 3.357916 1_555
Mg3 Mg6 3.278965 1_555
Mg3 Mg9 3.278966 1_556
Mg3 Mg7 3.318867 1_656
Mg4 Mg6 3.318881 1_555
Mg4 Mg8 3.318882 1_445
Mg5 Mg8 3.278965 1_555
Mg5 Mg7 3.318867 1_555
Mg5 Mg9 3.318886 1_555
Mg7 Mg9 3.318874 1_455
Mg8 Mg9 3.318878 1_555
Mg10 Mg13 2.937348 1_555
Mg10 Mg21 3.134598 1_555
Mg10 Mg23 3.134598 1_555
Mg10 Mg4 3.278965 1_555
Mg10 Mg7 3.278966 1_555
Mg10 Mg2 3.318882 1_555
Mg10 Mg6 3.318890 1_555
Mg10 Mg5 3.318892 1_555
Mg10 Mg19 3.357914 1_555
Mg10 Mg16 3.357914 1_555
Mg11 Mg17 2.937336 1_555
Mg11 Mg21 3.134583 1_555
Mg11 Mg22 3.134583 1_555
Mg11 Mg2 3.278962 1_545
Mg11 Mg8 3.278963 1_545
Mg11 Mg4 3.318864 1_655
Mg11 Mg3 3.318871 1_555
Mg11 Mg6 3.318886 1_555
Mg11 Mg20 3.357921 1_545
Mg11 Mg14 3.357925 1_545
Mg12 Mg15 2.859262 1_556
Mg12 Mg3 2.937369 1_555
Mg12 Mg13 2.996432 1_545
Mg12 Mg14 2.996436 1_546
Mg12 Mg2 3.134597 1_545
Mg12 Mg6 3.357913 1_555
Mg12 Mg9 3.357914 1_556
Mg13 Mg22 2.859249 1_455
Mg13 Mg14 2.996425 1_556
Mg13 Mg2 3.134602 1_555
Mg13 Mg4 3.357903 1_555
Mg13 Mg7 3.357929 1_555
Mg14 Mg20 2.859254 1_555
Mg14 Mg8 2.937356 1_555
Mg14 Mg5 3.357906 1_555
Mg15 Mg17 2.996420 1_454
Mg15 Mg16 2.996425 1_555
Mg15 Mg5 3.134580 1_555
Mg15 Mg4 3.134582 1_554
Mg15 Mg6 3.357910 1_554
Mg15 Mg9 3.357910 1_555
Mg16 Mg19 2.859281 1_555
Mg16 Mg7 2.937343 1_555
Mg16 Mg17 2.996425 1_454
Mg16 Mg3 3.134572 1_454
Mg16 Mg5 3.134572 1_555
Mg17 Mg23 2.859270 1_545
Mg17 Mg3 3.134574 1_555
Mg17 Mg4 3.134576 1_655
Mg17 Mg8 3.357910 1_545
Mg17 Mg2 3.357910 1_545
Mg18 Mg21 2.859254 1_554
Mg18 Mg9 2.937349 1_555
Mg18 Mg20 2.996420 1_655
Mg18 Mg19 2.996432 1_665
Mg18 Mg7 3.134576 1_655
Mg18 Mg8 3.134598 1_555
Mg18 Mg3 3.357903 1_554
Mg19 Mg4 2.937364 1_555
Mg19 Mg20 2.996432 1_545
Mg19 Mg8 3.134586 1_445
Mg19 Mg6 3.134586 1_555
Mg20 Mg7 3.134576 1_555
Mg20 Mg6 3.134599 1_565
Mg20 Mg5 3.357903 1_555
Mg21 Mg6 2.937356 1_555
Mg21 Mg22 2.996425 1_555
Mg21 Mg23 2.996444 1_555
Mg21 Mg3 3.357906 1_555
Mg22 Mg23 2.996432 1_555
Mg22 Mg9 3.134602 1_555
Mg22 Mg4 3.357903 1_655
Mg22 Mg7 3.357929 1_655
Mg23 Mg5 2.937364 1_555
Mg23 Mg9 3.134589 1_555
Mg23 Mg8 3.357904 1_555
