# generated using pymatgen
data_CaSnS3
_symmetry_space_group_name_H-M   'P 1'
_cell_length_a   4.78198300
_cell_length_b   7.85460500
_cell_length_c   14.03250400
_cell_angle_alpha   90.00000000
_cell_angle_beta   90.00000000
_cell_angle_gamma   90.00000000
_symmetry_Int_Tables_number   1
_chemical_formula_structural   CaSnS3
_chemical_formula_sum   'Ca4 Sn4 S12'
_cell_volume   527.06909548
_cell_formula_units_Z   4
loop_
 _symmetry_equiv_pos_site_id
 _symmetry_equiv_pos_as_xyz
  1  'x, y, z'
loop_
 _atom_site_type_symbol
 _atom_site_label
 _atom_site_symmetry_multiplicity
 _atom_site_fract_x
 _atom_site_fract_y
 _atom_site_fract_z
 _atom_site_occupancy
  Ca  Ca0  1  0.44108600  0.82320600  0.50000000  1
  Ca  Ca1  1  0.55891400  0.32320600  0.50000000  1
  Ca  Ca2  1  0.25507700  0.21818400  0.00000000  1
  Ca  Ca3  1  0.74492300  0.71818400  0.00000000  1
  Sn  Sn0  1  0.05647000  0.55998400  0.71276300  1
  Sn  Sn1  1  0.05647000  0.55998400  0.28723700  1
  Sn  Sn2  1  0.94353000  0.05998400  0.28723700  1
  Sn  Sn3  1  0.94353000  0.05998400  0.71276300  1
  S  S0  1  0.05949100  0.50187000  0.50000000  1
  S  S1  1  0.94050900  0.00187000  0.50000000  1
  S  S2  1  0.24587600  0.55882600  0.00000000  1
  S  S3  1  0.75412400  0.05882600  0.00000000  1
  S  S4  1  0.44540500  0.07964700  0.65148600  1
  S  S5  1  0.44540500  0.07964700  0.34851400  1
  S  S6  1  0.55459500  0.57964700  0.34851400  1
  S  S7  1  0.55459500  0.57964700  0.65148600  1
  S  S8  1  0.03656600  0.81427700  0.82117400  1
  S  S9  1  0.03656600  0.81427700  0.17882600  1
  S  S10  1  0.96343400  0.31427700  0.17882600  1
  S  S11  1  0.96343400  0.31427700  0.82117400  1
loop_
_geom_bond_atom_site_label_1
_geom_bond_atom_site_label_2
_geom_bond_distance
_geom_bond_site_symmetry_2
Ca0 S1 2.770019 1_565
Ca0 S1 2.774778 1_465
Ca0 S6 2.910867 1_555
Ca0 S7 2.910867 1_555
Ca0 S4 2.928535 1_565
Ca0 S5 2.928535 1_565
Ca0 S0 3.114520 1_555
Ca1 S0 2.770019 1_555
Ca1 S0 2.774778 1_655
Ca1 S4 2.910867 1_555
Ca1 S5 2.910867 1_555
Ca1 S7 2.928535 1_555
Ca1 S6 2.928535 1_555
Ca1 S1 3.114520 1_555
Ca2 S2 2.675970 1_555
Ca2 S3 2.694774 1_555
Ca2 S3 2.702849 1_455
Ca2 S10 2.968442 1_455
Ca2 S11 2.968442 1_454
Ca3 S3 2.675970 1_565
Ca3 S2 2.694774 1_555
Ca3 S2 2.702849 1_655
Ca3 S9 2.968442 1_655
Ca3 S8 2.968442 1_654
S0 Sn1 3.020324 1_555
S0 Sn0 3.020324 1_555
S1 Sn2 3.020324 1_555
S1 Sn3 3.020324 1_555
S4 Sn3 2.537178 1_555
S4 Sn3 2.554022 1_455
S5 Sn2 2.537178 1_555
S5 Sn2 2.554022 1_455
S6 Sn1 2.537178 1_555
S6 Sn1 2.554022 1_655
S7 Sn0 2.537178 1_555
S7 Sn0 2.554022 1_655
S8 Sn3 2.497369 1_465
S8 Sn0 2.512536 1_555
S9 Sn2 2.497369 1_465
S9 Sn1 2.512536 1_555
S10 Sn1 2.497369 1_655
S10 Sn2 2.512536 1_555
S11 Sn0 2.497369 1_655
S11 Sn3 2.512536 1_555
