# generated using pymatgen
data_La2ZnSbO6
_symmetry_space_group_name_H-M   'P 1'
_cell_length_a   5.77686642
_cell_length_b   5.77686642
_cell_length_c   5.77686634
_cell_angle_alpha   61.07135203
_cell_angle_beta   61.07135203
_cell_angle_gamma   61.07135030
_symmetry_Int_Tables_number   1
_chemical_formula_structural   La2ZnSbO6
_chemical_formula_sum   'La2 Zn1 Sb1 O6'
_cell_volume   139.60885922
_cell_formula_units_Z   1
loop_
 _symmetry_equiv_pos_site_id
 _symmetry_equiv_pos_as_xyz
  1  'x, y, z'
loop_
 _atom_site_type_symbol
 _atom_site_label
 _atom_site_symmetry_multiplicity
 _atom_site_fract_x
 _atom_site_fract_y
 _atom_site_fract_z
 _atom_site_occupancy
  La  La0  1  0.75038700  0.75038700  0.75038700  1
  La  La1  1  0.24961300  0.24961300  0.24961300  1
  Zn  Zn0  1  0.50000000  0.50000000  0.50000000  1
  Sb  Sb0  1  0.00000000  0.00000000  0.00000000  1
  O  O0  1  0.75279300  0.34592200  0.15324900  1
  O  O1  1  0.15324900  0.75279300  0.34592200  1
  O  O2  1  0.34592200  0.15324900  0.75279300  1
  O  O3  1  0.24720700  0.65407800  0.84675100  1
  O  O4  1  0.65407800  0.84675100  0.24720700  1
  O  O5  1  0.84675100  0.24720700  0.65407800  1
loop_
_geom_bond_atom_site_label_1
_geom_bond_atom_site_label_2
_geom_bond_distance
_geom_bond_site_symmetry_2
La0 O2 2.369597 1_565
La0 O0 2.369597 1_556
La0 O1 2.369597 1_655
La0 O4 2.925397 1_556
La0 O3 2.925397 1_655
La0 O5 2.925397 1_565
La0 O4 2.961151 1_555
La0 O5 2.961151 1_555
La0 O3 2.961151 1_555
La1 O4 2.369597 1_545
La1 O3 2.369597 1_554
La1 O5 2.369597 1_455
La1 O2 2.925397 1_554
La1 O0 2.925397 1_455
La1 O1 2.925397 1_545
La1 O2 2.961151 1_555
La1 O1 2.961151 1_555
La1 O0 2.961151 1_555
O0 Sb0 2.131687 1_655
O0 Zn0 2.138876 1_555
O1 Sb0 2.131687 1_565
O1 Zn0 2.138876 1_555
O2 Sb0 2.131687 1_556
O2 Zn0 2.138876 1_555
O3 Sb0 2.131687 1_566
O3 Zn0 2.138876 1_555
O4 Sb0 2.131687 1_665
O4 Zn0 2.138876 1_555
O5 Sb0 2.131687 1_656
O5 Zn0 2.138876 1_555
