# generated using pymatgen
data_MgV8Zn4O16
_symmetry_space_group_name_H-M   'P 1'
_cell_length_a   3.18914820
_cell_length_b   10.51496618
_cell_length_c   10.34244609
_cell_angle_alpha   94.20881725
_cell_angle_beta   104.06094794
_cell_angle_gamma   90.04897896
_symmetry_Int_Tables_number   1
_chemical_formula_structural   MgV8Zn4O16
_chemical_formula_sum   'Mg1 V8 Zn4 O16'
_cell_volume   335.45997226
_cell_formula_units_Z   1
loop_
 _symmetry_equiv_pos_site_id
 _symmetry_equiv_pos_as_xyz
  1  'x, y, z'
loop_
 _atom_site_type_symbol
 _atom_site_label
 _atom_site_symmetry_multiplicity
 _atom_site_fract_x
 _atom_site_fract_y
 _atom_site_fract_z
 _atom_site_occupancy
  Mg  Mg0  1  0.32844896  0.16483255  0.87252319  1
  V  V0  1  0.57628672  0.57852898  0.37736712  1
  V  V1  1  0.90475719  0.05952764  0.13862018  1
  V  V2  1  0.31622286  0.08206096  0.60093693  1
  V  V3  1  0.90136399  0.40976511  0.10949384  1
  V  V4  1  0.18876550  0.44158010  0.59540521  1
  V  V5  1  0.69889236  0.91714201  0.39295284  1
  V  V6  1  0.16658463  0.91031515  0.89677852  1
  V  V7  1  0.25835359  0.60051961  0.88541475  1
  Zn  Zn0  1  0.96518934  0.74483108  0.15405473  1
  Zn  Zn1  1  0.58224526  0.24654995  0.34796065  1
  Zn  Zn2  1  0.45131164  0.75462335  0.64300848  1
  Zn  Zn3  1  0.83243925  0.35717711  0.80719599  1
  O  O0  1  0.28522109  0.88763623  0.52018331  1
  O  O1  1  0.71458509  0.10087672  0.46787335  1
  O  O2  1  0.10925946  0.94603205  0.26984757  1
  O  O3  1  0.75522075  0.86777067  0.00505187  1
  O  O4  1  0.85337413  0.58388665  0.02093909  1
  O  O5  1  0.98527988  0.23801826  0.22272662  1
  O  O6  1  0.32056099  0.07229393  0.03024987  1
  O  O7  1  0.27704035  0.27462168  0.70631381  1
  O  O8  1  0.51134535  0.46420613  0.22156613  1
  O  O9  1  0.76981835  0.05089590  0.79617889  1
  O  O10  1  0.16871268  0.60478601  0.49753571  1
  O  O11  1  0.05321989  0.75974651  0.76601242  1
  O  O12  1  0.57183386  0.73393911  0.28295604  1
  O  O13  1  0.72782455  0.51965677  0.72777427  1
  O  O14  1  0.25338486  0.33762672  0.97682071  1
  O  O15  1  0.61829140  0.39679807  0.47875592  1
loop_
_geom_bond_atom_site_label_1
_geom_bond_atom_site_label_2
_geom_bond_distance
_geom_bond_site_symmetry_2
Mg0 O6 1.965045 1_556
Mg0 O14 2.088214 1_555
Mg0 O9 2.099206 1_455
Mg0 O9 2.108113 1_555
Mg0 O7 2.114061 1_555
O0 Zn2 1.945642 1_555
O0 V5 2.046848 1_455
O0 V5 2.114468 1_555
O0 V2 2.143752 1_565
O1 Zn1 2.021896 1_555
O1 V5 2.024020 1_545
O1 V2 2.090955 1_655
O1 V2 2.106222 1_555
O2 V1 1.870977 1_465
O2 V5 2.035620 1_555
O2 V5 2.071677 1_455
O2 Zn0 2.340990 1_455
O3 V6 1.990365 1_654
O3 V6 2.007902 1_554
O3 Zn0 2.070459 1_555
O3 V1 2.338951 1_565
O4 Zn0 2.074842 1_555
O4 V7 2.083333 1_554
O4 V3 2.095919 1_555
O4 V7 2.139749 1_654
O5 V1 1.999018 1_555
O5 Zn1 2.023518 1_655
O5 Zn1 2.032199 1_555
O5 V3 2.205311 1_555
O6 V1 1.937316 1_555
O6 V1 1.943360 1_455
O6 V6 2.090855 1_544
O7 Zn3 1.986434 1_555
O7 Zn3 2.107274 1_455
O7 V4 2.148612 1_555
O7 V2 2.246283 1_555
O8 V0 1.907229 1_555
O8 V3 1.955169 1_555
O8 V3 2.064110 1_455
O9 V6 2.111386 1_645
O9 V2 2.226220 1_555
O10 V0 1.999555 1_455
O10 V0 2.011367 1_555
O10 V4 2.048751 1_555
O10 Zn2 2.132830 1_555
O11 V6 1.978268 1_555
O11 Zn2 2.001990 1_555
O11 Zn2 2.027125 1_455
O11 V7 2.160776 1_555
O12 V0 1.962535 1_555
O12 Zn0 2.049124 1_555
O12 Zn0 2.074350 1_455
O12 V5 2.149957 1_555
O13 Zn3 1.943887 1_555
O13 V4 2.047600 1_555
O13 V7 2.167360 1_655
O13 V4 2.350341 1_655
O13 V7 2.570522 1_555
O14 Zn3 1.957340 1_455
O14 V3 2.077436 1_456
O14 V3 2.279331 1_556
O15 V4 1.958520 1_655
O15 Zn1 1.987335 1_555
O15 V4 2.067454 1_555
O15 V0 2.235027 1_555
