# generated using pymatgen
data_K(FeP)2
_symmetry_space_group_name_H-M   'P 1'
_cell_length_a   6.82274363
_cell_length_b   6.82274363
_cell_length_c   6.82274363
_cell_angle_alpha   147.98205188
_cell_angle_beta   147.98205188
_cell_angle_gamma   45.91186173
_symmetry_Int_Tables_number   1
_chemical_formula_structural   K(FeP)2
_chemical_formula_sum   'K1 Fe2 P2'
_cell_volume   88.97240398
_cell_formula_units_Z   1
loop_
 _symmetry_equiv_pos_site_id
 _symmetry_equiv_pos_as_xyz
  1  'x, y, z'
loop_
 _atom_site_type_symbol
 _atom_site_label
 _atom_site_symmetry_multiplicity
 _atom_site_fract_x
 _atom_site_fract_y
 _atom_site_fract_z
 _atom_site_occupancy
  K  K0  1  -0.00000000  0.00000000  -0.00000000  1
  Fe  Fe0  1  0.75000000  0.25000000  0.50000000  1
  Fe  Fe1  1  0.25000000  0.75000000  0.50000000  1
  P  P0  1  0.33507265  0.33507265  0.00000000  1
  P  P1  1  0.66492735  0.66492735  -0.00000000  1
loop_
_geom_bond_atom_site_label_1
_geom_bond_atom_site_label_2
_geom_bond_distance
_geom_bond_site_symmetry_2
K0 P0 3.372748 1_545
K0 P0 3.372748 1_455
K0 P0 3.372748 1_556
K0 P1 3.372748 1_556
K0 P0 3.372748 1_444
K0 P1 3.372748 1_545
K0 P1 3.372748 1_455
K0 P1 3.372748 1_444
Fe0 P1 2.164054 1_545
Fe0 P1 2.164054 1_556
Fe0 P0 2.164054 1_656
Fe0 P0 2.164054 1_555
Fe1 P1 2.164054 1_556
Fe1 P1 2.164054 1_455
Fe1 P0 2.164054 1_555
Fe1 P0 2.164054 1_566
