# generated using pymatgen
data_V10(SiGe)3
_symmetry_space_group_name_H-M   'P 1'
_cell_length_a   7.19826358
_cell_length_b   7.19826358
_cell_length_c   4.89553400
_cell_angle_alpha   90.00000000
_cell_angle_beta   90.00000000
_cell_angle_gamma   119.99999612
_symmetry_Int_Tables_number   1
_chemical_formula_structural   V10(SiGe)3
_chemical_formula_sum   'V10 Si3 Ge3'
_cell_volume   219.67781996
_cell_formula_units_Z   1
loop_
 _symmetry_equiv_pos_site_id
 _symmetry_equiv_pos_as_xyz
  1  'x, y, z'
loop_
 _atom_site_type_symbol
 _atom_site_label
 _atom_site_symmetry_multiplicity
 _atom_site_fract_x
 _atom_site_fract_y
 _atom_site_fract_z
 _atom_site_occupancy
  V  V0  1  0.66666700  0.33333300  0.75514700  1
  V  V1  1  0.33333300  0.66666700  0.75514700  1
  V  V2  1  0.33333300  0.66666700  0.24485300  1
  V  V3  1  0.66666700  0.33333300  0.24485300  1
  V  V4  1  0.75074200  0.75074200  0.50000000  1
  V  V5  1  0.24925800  0.00000000  0.50000000  1
  V  V6  1  0.00000000  0.24925800  0.50000000  1
  V  V7  1  0.24579900  0.24579900  0.00000000  1
  V  V8  1  0.75420100  0.00000000  0.00000000  1
  V  V9  1  0.00000000  0.75420100  0.00000000  1
  Si  Si0  1  0.60944500  0.60944500  0.00000000  1
  Si  Si1  1  0.39055500  0.00000000  0.00000000  1
  Si  Si2  1  0.00000000  0.39055500  0.00000000  1
  Ge  Ge0  1  0.39287200  0.39287200  0.50000000  1
  Ge  Ge1  1  0.60712800  0.00000000  0.50000000  1
  Ge  Ge2  1  0.00000000  0.60712800  0.50000000  1
loop_
_geom_bond_atom_site_label_1
_geom_bond_atom_site_label_2
_geom_bond_distance
_geom_bond_site_symmetry_2
V0 V3 2.397372 1_556
V0 V3 2.498162 1_555
V1 V2 2.397372 1_556
V1 V2 2.498162 1_555
Si0 V9 2.461683 1_655
Si0 V8 2.461683 1_565
Si0 V0 2.524962 1_554
Si0 V3 2.524962 1_555
Si0 V2 2.524962 1_555
Si0 V1 2.524962 1_554
Si0 V7 2.617620 1_555
Si0 V4 2.650668 1_555
Si0 V4 2.650668 1_554
Si1 V7 2.461683 1_555
Si1 V9 2.461683 1_545
Si1 V1 2.524956 1_544
Si1 V2 2.524956 1_545
Si1 V3 2.524958 1_555
Si1 V0 2.524958 1_554
Si1 V8 2.617620 1_555
Si1 V5 2.650668 1_554
Si1 V5 2.650668 1_555
Si2 V7 2.461683 1_555
Si2 V8 2.461683 1_455
Si2 V3 2.524956 1_455
Si2 V0 2.524956 1_454
Si2 V2 2.524958 1_555
Si2 V1 2.524958 1_554
Si2 V9 2.617620 1_555
Si2 V6 2.650668 1_555
Si2 V6 2.650668 1_554
Ge0 V5 2.478456 1_555
Ge0 V6 2.478456 1_555
Ge0 V0 2.544167 1_555
Ge0 V1 2.544167 1_555
Ge0 V3 2.544167 1_555
Ge0 V2 2.544167 1_555
Ge0 V4 2.576043 1_555
Ge0 V7 2.666898 1_556
Ge0 V7 2.666898 1_555
Ge1 V4 2.478456 1_545
Ge1 V6 2.478456 1_655
Ge1 V3 2.544161 1_555
Ge1 V0 2.544161 1_555
Ge1 V1 2.544163 1_545
Ge1 V2 2.544163 1_545
Ge1 V5 2.576043 1_555
Ge1 V8 2.666898 1_556
Ge1 V8 2.666898 1_555
Ge2 V4 2.478456 1_455
Ge2 V5 2.478456 1_565
Ge2 V1 2.544161 1_555
Ge2 V2 2.544161 1_555
Ge2 V3 2.544163 1_455
Ge2 V0 2.544163 1_455
Ge2 V6 2.576043 1_555
Ge2 V9 2.666898 1_556
Ge2 V9 2.666898 1_555
