# generated using pymatgen
data_CoH8Se2(ClO4)2
_symmetry_space_group_name_H-M   'P 1'
_cell_length_a   5.17426883
_cell_length_b   6.56039272
_cell_length_c   14.97059700
_cell_angle_alpha   90.00000000
_cell_angle_beta   90.00000000
_cell_angle_gamma   93.15144210
_symmetry_Int_Tables_number   1
_chemical_formula_structural   CoH8Se2(ClO4)2
_chemical_formula_sum   'Co2 H16 Se4 Cl4 O16'
_cell_volume   507.41192792
_cell_formula_units_Z   2
loop_
 _symmetry_equiv_pos_site_id
 _symmetry_equiv_pos_as_xyz
  1  'x, y, z'
loop_
 _atom_site_type_symbol
 _atom_site_label
 _atom_site_symmetry_multiplicity
 _atom_site_fract_x
 _atom_site_fract_y
 _atom_site_fract_z
 _atom_site_occupancy
  Co  Co0  1  0.00000000  0.50000000  0.00000000  1
  Co  Co1  1  0.00000000  0.00000000  0.50000000  1
  H  H0  1  0.08341200  0.21392900  0.69661100  1
  H  H1  1  0.91658800  0.28607100  0.19661100  1
  H  H2  1  0.91658800  0.78607100  0.30338900  1
  H  H3  1  0.08341200  0.71392900  0.80338900  1
  H  H4  1  0.70727800  0.33365700  0.76958600  1
  H  H5  1  0.29272200  0.16634300  0.26958600  1
  H  H6  1  0.29272200  0.66634300  0.23041400  1
  H  H7  1  0.70727800  0.83365700  0.73041400  1
  H  H8  1  0.42306200  0.33960700  0.07850000  1
  H  H9  1  0.57693800  0.16039300  0.57850000  1
  H  H10  1  0.57693800  0.66039300  0.92150000  1
  H  H11  1  0.42306200  0.83960700  0.42150000  1
  H  H12  1  0.22709800  0.15231000  0.05634300  1
  H  H13  1  0.77290200  0.34769000  0.55634300  1
  H  H14  1  0.77290200  0.84769000  0.94365700  1
  H  H15  1  0.22709800  0.65231000  0.44365700  1
  Se  Se0  1  0.29290600  0.29229600  0.83100800  1
  Se  Se1  1  0.70709400  0.20770400  0.33100800  1
  Se  Se2  1  0.70709400  0.70770400  0.16899200  1
  Se  Se3  1  0.29290600  0.79229600  0.66899200  1
  Cl  Cl0  1  0.76253900  0.19643100  0.94182200  1
  Cl  Cl1  1  0.23746100  0.30356900  0.44182200  1
  Cl  Cl2  1  0.23746100  0.80356900  0.05817800  1
  Cl  Cl3  1  0.76253900  0.69643100  0.55817800  1
  O  O0  1  0.04640900  0.31317200  0.74482100  1
  O  O1  1  0.95359100  0.18682800  0.24482100  1
  O  O2  1  0.95359100  0.68682800  0.25517900  1
  O  O3  1  0.04640900  0.81317200  0.75517900  1
  O  O4  1  0.23735900  0.51454700  0.88389100  1
  O  O5  1  0.76264100  0.98545300  0.38389100  1
  O  O6  1  0.76264100  0.48545300  0.11610900  1
  O  O7  1  0.23735900  0.01454700  0.61610900  1
  O  O8  1  0.53463600  0.38590800  0.75488800  1
  O  O9  1  0.46536400  0.11409200  0.25488800  1
  O  O10  1  0.46536400  0.61409200  0.24511200  1
  O  O11  1  0.53463600  0.88590800  0.74511200  1
  O  O12  1  0.23952600  0.30071500  0.06765000  1
  O  O13  1  0.76047400  0.19928500  0.56765000  1
  O  O14  1  0.76047400  0.69928500  0.93235000  1
  O  O15  1  0.23952600  0.80071500  0.43235000  1
loop_
_geom_bond_atom_site_label_1
_geom_bond_atom_site_label_2
_geom_bond_distance
_geom_bond_site_symmetry_2
Co0 O12 2.109300 1_555
Co0 O14 2.109300 1_454
Co0 O6 2.127442 1_455
Co0 O4 2.127442 1_554
Co1 O13 2.109300 1_455
Co1 O15 2.109300 1_545
Co1 O5 2.127442 1_445
Co1 O7 2.127442 1_555
H0 O0 0.997576 1_555
H1 O1 0.997576 1_555
H2 O2 0.997576 1_555
H3 O3 0.997576 1_555
H4 O8 0.998782 1_555
H5 O9 0.998782 1_555
H6 O10 0.998782 1_555
H7 O11 0.998782 1_555
H8 O12 0.983212 1_555
H9 O13 0.983212 1_555
H10 O14 0.983212 1_555
H11 O15 0.983212 1_555
H12 O12 0.986809 1_555
H13 O13 0.986809 1_555
H14 O14 0.986809 1_555
H15 O15 0.986809 1_555
Cl0 Co0 2.442416 1_656
Cl1 Co1 2.442416 1_555
Cl2 Co0 2.442416 1_555
Cl3 Co1 2.442416 1_665
O0 Se0 1.824695 1_555
O1 Se1 1.824695 1_555
O2 Se2 1.824695 1_555
O3 Se3 1.824695 1_555
O4 Se0 1.697462 1_555
O5 Se1 1.697462 1_565
O6 Se2 1.697462 1_555
O7 Se3 1.697462 1_545
O8 Se0 1.776441 1_555
O9 Se1 1.776441 1_555
O10 Se2 1.776441 1_555
O11 Se3 1.776441 1_555
