# generated using pymatgen
data_AlCuNi6
_symmetry_space_group_name_H-M   'P 1'
_cell_length_a   3.54276100
_cell_length_b   3.54276100
_cell_length_c   7.09128800
_cell_angle_alpha   90.00000000
_cell_angle_beta   90.00000000
_cell_angle_gamma   90.00000000
_symmetry_Int_Tables_number   1
_chemical_formula_structural   AlCuNi6
_chemical_formula_sum   'Al1 Cu1 Ni6'
_cell_volume   89.00385841
_cell_formula_units_Z   1
loop_
 _symmetry_equiv_pos_site_id
 _symmetry_equiv_pos_as_xyz
  1  'x, y, z'
loop_
 _atom_site_type_symbol
 _atom_site_label
 _atom_site_symmetry_multiplicity
 _atom_site_fract_x
 _atom_site_fract_y
 _atom_site_fract_z
 _atom_site_occupancy
  Al  Al0  1  0.00000000  0.00000000  0.00000000  1
  Cu  Cu0  1  0.00000000  0.00000000  0.50000000  1
  Ni  Ni0  1  0.50000000  0.50000000  0.00000000  1
  Ni  Ni1  1  0.50000000  0.50000000  0.50000000  1
  Ni  Ni2  1  0.50000000  0.00000000  0.25060000  1
  Ni  Ni3  1  0.50000000  0.00000000  0.74940000  1
  Ni  Ni4  1  0.00000000  0.50000000  0.25060000  1
  Ni  Ni5  1  0.00000000  0.50000000  0.74940000  1
loop_
_geom_bond_atom_site_label_1
_geom_bond_atom_site_label_2
_geom_bond_distance
_geom_bond_site_symmetry_2
Al0 Ni0 2.505110 1_455
Al0 Ni0 2.505110 1_555
Al0 Ni0 2.505110 1_445
Al0 Ni0 2.505110 1_545
Al0 Ni3 2.509141 1_454
Al0 Ni5 2.509141 1_554
Al0 Ni3 2.509141 1_554
Al0 Ni5 2.509141 1_544
Al0 Ni2 2.509141 1_455
Al0 Ni4 2.509141 1_555
Al0 Ni4 2.509141 1_545
Al0 Ni2 2.509141 1_555
Cu0 Ni4 2.503122 1_555
Cu0 Ni4 2.503122 1_545
Cu0 Ni2 2.503122 1_555
Cu0 Ni2 2.503122 1_455
Cu0 Ni3 2.503122 1_455
Cu0 Ni5 2.503122 1_555
Cu0 Ni5 2.503122 1_545
Cu0 Ni3 2.503122 1_555
Cu0 Ni1 2.505110 1_445
Cu0 Ni1 2.505110 1_555
Cu0 Ni1 2.505110 1_455
Cu0 Ni1 2.505110 1_545
Ni0 Ni5 2.509141 1_554
Ni0 Ni3 2.509141 1_554
Ni0 Ni5 2.509141 1_654
Ni0 Ni3 2.509141 1_564
Ni0 Ni2 2.509141 1_565
Ni0 Ni4 2.509141 1_655
Ni0 Ni4 2.509141 1_555
Ni0 Ni2 2.509141 1_555
Ni1 Ni4 2.503122 1_655
Ni1 Ni2 2.503122 1_565
Ni1 Ni4 2.503122 1_555
Ni1 Ni2 2.503122 1_555
Ni1 Ni3 2.503122 1_565
Ni1 Ni5 2.503122 1_555
Ni1 Ni3 2.503122 1_555
Ni1 Ni5 2.503122 1_655
Ni2 Ni4 2.505110 1_655
Ni2 Ni4 2.505110 1_645
Ni2 Ni4 2.505110 1_555
Ni2 Ni4 2.505110 1_545
Ni3 Ni5 2.505110 1_645
Ni3 Ni5 2.505110 1_655
Ni3 Ni5 2.505110 1_545
Ni3 Ni5 2.505110 1_555
