# generated using pymatgen
data_Mg2InW3S8
_symmetry_space_group_name_H-M   'P 1'
_cell_length_a   7.68331663
_cell_length_b   7.73132813
_cell_length_c   7.69031154
_cell_angle_alpha   54.27590251
_cell_angle_beta   54.06094919
_cell_angle_gamma   54.30923616
_symmetry_Int_Tables_number   1
_chemical_formula_structural   Mg2InW3S8
_chemical_formula_sum   'Mg2 In1 W3 S8'
_cell_volume   279.40795262
_cell_formula_units_Z   1
loop_
 _symmetry_equiv_pos_site_id
 _symmetry_equiv_pos_as_xyz
  1  'x, y, z'
loop_
 _atom_site_type_symbol
 _atom_site_label
 _atom_site_symmetry_multiplicity
 _atom_site_fract_x
 _atom_site_fract_y
 _atom_site_fract_z
 _atom_site_occupancy
  Mg  Mg0  1  0.88094100  0.87678700  0.88151200  1
  Mg  Mg1  1  0.13900800  0.13514900  0.13849100  1
  In  In0  1  0.48616600  0.48620000  0.48571100  1
  W  W0  1  0.53412600  0.53018100  0.94077500  1
  W  W1  1  0.94175300  0.52975700  0.53410900  1
  W  W2  1  0.52943800  0.94851000  0.52977000  1
  S  S0  1  0.75453900  0.75685800  0.75441200  1
  S  S1  1  0.23489800  0.23807700  0.72895700  1
  S  S2  1  0.23639900  0.72868600  0.23573900  1
  S  S3  1  0.72906300  0.23832800  0.23458700  1
  S  S4  1  0.73824400  0.28178200  0.73896000  1
  S  S5  1  0.28701100  0.73831800  0.73828600  1
  S  S6  1  0.27021400  0.27248100  0.27084300  1
  S  S7  1  0.73820400  0.73888300  0.28784900  1
loop_
_geom_bond_atom_site_label_1
_geom_bond_atom_site_label_2
_geom_bond_distance
_geom_bond_site_symmetry_2
Mg0 S5 2.353559 1_655
Mg0 S7 2.356937 1_556
Mg0 S4 2.367439 1_565
Mg0 S0 2.445744 1_555
Mg1 S3 2.475411 1_455
Mg1 S1 2.475620 1_554
Mg1 S2 2.482585 1_545
Mg1 S6 2.625818 1_555
In0 S1 2.607272 1_555
In0 S3 2.608270 1_555
In0 S2 2.610911 1_555
In0 S4 2.702549 1_555
In0 S7 2.713997 1_555
In0 S5 2.714017 1_555
S0 W0 2.382050 1_555
S0 W1 2.385027 1_555
S0 W2 2.387287 1_555
S1 W1 2.548119 1_455
S1 W2 2.550226 1_545
S2 W1 2.568930 1_455
S2 W0 2.571288 1_554
S3 W2 2.551359 1_545
S3 W0 2.552555 1_554
S4 W0 2.380257 1_555
S4 W1 2.383615 1_555
S5 W0 2.366154 1_555
S5 W2 2.379992 1_555
S6 W2 2.686230 1_545
S6 W1 2.696700 1_455
S6 W0 2.700119 1_554
S7 W1 2.365832 1_555
S7 W2 2.376043 1_555
