# generated using pymatgen
data_Li4Mn3O7
_symmetry_space_group_name_H-M   'P 1'
_cell_length_a   3.00550600
_cell_length_b   7.85564611
_cell_length_c   11.29925305
_cell_angle_alpha   80.76536914
_cell_angle_beta   83.25866402
_cell_angle_gamma   83.56039905
_symmetry_Int_Tables_number   1
_chemical_formula_structural   Li4Mn3O7
_chemical_formula_sum   'Li8 Mn6 O14'
_cell_volume   260.31169015
_cell_formula_units_Z   2
loop_
 _symmetry_equiv_pos_site_id
 _symmetry_equiv_pos_as_xyz
  1  'x, y, z'
loop_
 _atom_site_type_symbol
 _atom_site_label
 _atom_site_symmetry_multiplicity
 _atom_site_fract_x
 _atom_site_fract_y
 _atom_site_fract_z
 _atom_site_occupancy
  Li  Li0  1  0.68362500  0.16045700  0.93224600  1
  Li  Li1  1  0.85092500  0.57781700  0.20312300  1
  Li  Li2  1  0.00000000  0.00000000  0.50000000  1
  Li  Li3  1  0.14907500  0.42218300  0.79687700  1
  Li  Li4  1  0.31637500  0.83954300  0.06775400  1
  Li  Li5  1  0.43327800  0.28404800  0.35591400  1
  Li  Li6  1  0.56672200  0.71595200  0.64408600  1
  Li  Li7  1  0.50000000  0.50000000  0.00000000  1
  Mn  Mn0  1  0.93602500  0.77570800  0.86292500  1
  Mn  Mn1  1  0.06397500  0.22429200  0.13707500  1
  Mn  Mn2  1  0.21433800  0.64280100  0.42770900  1
  Mn  Mn3  1  0.36752100  0.06753700  0.71495100  1
  Mn  Mn4  1  0.63247900  0.93246300  0.28504900  1
  Mn  Mn5  1  0.78566200  0.35719900  0.57229100  1
  O  O0  1  0.36746400  0.94327000  0.88305200  1
  O  O1  1  0.50177600  0.36956000  0.17287700  1
  O  O2  1  0.57803300  0.82218700  0.45529300  1
  O  O3  1  0.72532000  0.24819100  0.74396600  1
  O  O4  1  0.88576300  0.69200000  0.02458900  1
  O  O5  1  0.00484200  0.10675800  0.31062900  1
  O  O6  1  0.14719400  0.53596900  0.59930800  1
  O  O7  1  0.11423700  0.30800000  0.97541100  1
  O  O8  1  0.27468000  0.75180900  0.25603400  1
  O  O9  1  0.42196700  0.17781300  0.54470700  1
  O  O10  1  0.49822400  0.63044000  0.82712300  1
  O  O11  1  0.63253600  0.05673000  0.11694800  1
  O  O12  1  0.85280600  0.46403100  0.40069200  1
  O  O13  1  0.99515800  0.89324200  0.68937100  1
loop_
_geom_bond_atom_site_label_1
_geom_bond_atom_site_label_2
_geom_bond_distance
_geom_bond_site_symmetry_2
Li0 O7 1.980493 1_655
Li0 O7 2.012555 1_555
Li0 O11 2.109530 1_556
Li0 O3 2.121987 1_555
Li0 O0 2.216952 1_545
Li0 O0 2.587216 1_645
Li1 O4 2.067790 1_555
Li1 O1 2.131475 1_555
Li1 O8 2.163144 1_655
Li1 O8 2.171018 1_555
Li1 O12 2.268024 1_555
Li1 O1 2.434008 1_655
Li2 O9 2.142189 1_555
Li2 O2 2.142189 1_445
Li2 O2 2.168082 1_545
Li2 O9 2.168082 1_455
Li2 O13 2.168307 1_445
Li2 O5 2.168307 1_555
Li3 O7 2.067790 1_555
Li3 O10 2.131475 1_555
Li3 O3 2.163144 1_455
Li3 O3 2.171018 1_555
Li3 O6 2.268024 1_555
Li3 O10 2.434008 1_455
Li4 O4 1.980493 1_455
Li4 O4 2.012555 1_555
Li4 O0 2.109530 1_554
Li4 O8 2.121987 1_555
Li4 O11 2.216952 1_565
Li4 O11 2.587216 1_465
Li5 O1 2.063047 1_555
Li5 O12 2.150391 1_555
Li5 O5 2.153644 1_655
Li5 O5 2.155293 1_555
Li5 O9 2.160139 1_555
Li5 O12 2.183527 1_455
Li6 O10 2.063047 1_555
Li6 O6 2.150391 1_555
Li6 O13 2.153644 1_455
Li6 O13 2.155293 1_555
Li6 O2 2.160139 1_555
Li6 O6 2.183527 1_655
Li7 O10 2.055361 1_554
Li7 O1 2.055361 1_555
Li7 O4 2.073340 1_555
Li7 O7 2.073340 1_554
Li7 O4 2.269289 1_455
Li7 O7 2.269289 1_654
Mn0 O4 1.834113 1_556
Mn0 O10 1.951217 1_555
Mn0 O10 1.968795 1_655
Mn0 O0 2.003491 1_655
Mn0 O13 2.025727 1_555
Mn0 O0 2.050542 1_555
Mn1 O7 1.834113 1_554
Mn1 O1 1.951217 1_555
Mn1 O1 1.968795 1_455
Mn1 O11 2.003491 1_455
Mn1 O5 2.025727 1_555
Mn1 O11 2.050542 1_555
Mn2 O12 1.950342 1_455
Mn2 O2 1.960685 1_555
Mn2 O6 1.982016 1_555
Mn2 O8 1.986986 1_555
Mn2 O2 2.266458 1_455
Mn2 O12 2.267870 1_555
Mn3 O13 1.938401 1_445
Mn3 O3 1.962733 1_555
Mn3 O9 1.975003 1_555
Mn3 O0 1.991378 1_545
Mn3 O13 2.221775 1_545
Mn3 O3 2.287632 1_455
Mn4 O5 1.938401 1_665
Mn4 O8 1.962733 1_555
Mn4 O2 1.975003 1_555
Mn4 O11 1.991378 1_565
Mn4 O5 2.221775 1_565
Mn4 O8 2.287632 1_655
Mn5 O6 1.950342 1_655
Mn5 O9 1.960685 1_555
Mn5 O12 1.982016 1_555
Mn5 O3 1.986986 1_555
Mn5 O9 2.266458 1_655
Mn5 O6 2.267870 1_555
