# generated using pymatgen
data_Ce4CdNi
_symmetry_space_group_name_H-M   'P 1'
_cell_length_a   9.63661668
_cell_length_b   9.63661668
_cell_length_c   9.63661668
_cell_angle_alpha   60.00000000
_cell_angle_beta   60.00000000
_cell_angle_gamma   60.00000000
_symmetry_Int_Tables_number   1
_chemical_formula_structural   Ce4CdNi
_chemical_formula_sum   'Ce16 Cd4 Ni4'
_cell_volume   632.78875713
_cell_formula_units_Z   4
loop_
 _symmetry_equiv_pos_site_id
 _symmetry_equiv_pos_as_xyz
  1  'x, y, z'
loop_
 _atom_site_type_symbol
 _atom_site_label
 _atom_site_symmetry_multiplicity
 _atom_site_fract_x
 _atom_site_fract_y
 _atom_site_fract_z
 _atom_site_occupancy
  Ce  Ce0  1  0.59912700  0.59912700  0.59912700  1
  Ce  Ce1  1  0.59912700  0.59912700  0.20261800  1
  Ce  Ce2  1  0.59912700  0.20261800  0.59912700  1
  Ce  Ce3  1  0.20261800  0.59912700  0.59912700  1
  Ce  Ce4  1  0.05719300  0.44280700  0.44280700  1
  Ce  Ce5  1  0.44280700  0.05719300  0.05719300  1
  Ce  Ce6  1  0.44280700  0.05719300  0.44280700  1
  Ce  Ce7  1  0.05719300  0.44280700  0.05719300  1
  Ce  Ce8  1  0.44280700  0.44280700  0.05719300  1
  Ce  Ce9  1  0.05719300  0.05719300  0.44280700  1
  Ce  Ce10  1  0.18672800  0.81327200  0.81327200  1
  Ce  Ce11  1  0.81327200  0.18672800  0.18672800  1
  Ce  Ce12  1  0.81327200  0.18672800  0.81327200  1
  Ce  Ce13  1  0.18672800  0.81327200  0.18672800  1
  Ce  Ce14  1  0.81327200  0.81327200  0.18672800  1
  Ce  Ce15  1  0.18672800  0.18672800  0.81327200  1
  Cd  Cd0  1  0.82937900  0.82937900  0.82937900  1
  Cd  Cd1  1  0.82937900  0.82937900  0.51186400  1
  Cd  Cd2  1  0.82937900  0.51186400  0.82937900  1
  Cd  Cd3  1  0.51186400  0.82937900  0.82937900  1
  Ni  Ni0  1  0.39095200  0.39095200  0.39095200  1
  Ni  Ni1  1  0.39095200  0.39095200  0.82714500  1
  Ni  Ni2  1  0.39095200  0.82714500  0.39095200  1
  Ni  Ni3  1  0.82714500  0.39095200  0.39095200  1
loop_
_geom_bond_atom_site_label_1
_geom_bond_atom_site_label_2
_geom_bond_distance
_geom_bond_site_symmetry_2
Ce0 Ni3 2.843494 1_555
Ce0 Ni1 2.843494 1_555
Ce0 Ni2 2.843494 1_555
Ce1 Ni0 2.843493 1_555
Ce1 Ni3 2.843507 1_555
Ce1 Ni2 2.843507 1_555
Ce2 Ni0 2.843493 1_555
Ce2 Ni1 2.843507 1_555
Ce2 Ni3 2.843507 1_555
Ce3 Ni0 2.843493 1_555
Ce3 Ni2 2.843507 1_555
Ce3 Ni1 2.843507 1_555
Ce4 Ni3 2.807006 1_455
Ce4 Ni0 2.807015 1_555
Ce5 Ni2 2.807012 1_545
Ce5 Ni1 2.807012 1_554
Ce6 Ni2 2.807006 1_545
Ce6 Ni0 2.807015 1_555
Ce7 Ni1 2.807012 1_554
Ce7 Ni3 2.807012 1_455
Ce8 Ni1 2.807006 1_554
Ce8 Ni0 2.807015 1_555
Ce9 Ni2 2.807012 1_545
Ce9 Ni3 2.807012 1_455
Ce10 Ni2 3.487611 1_555
Ce10 Ni1 3.487611 1_555
Ce11 Ni0 3.487613 1_555
Ce11 Ni3 3.487619 1_555
Ce12 Ni3 3.487611 1_555
Ce12 Ni1 3.487611 1_555
Ce13 Ni0 3.487613 1_555
Ce13 Ni2 3.487619 1_555
Ce14 Ni2 3.487611 1_555
Ce14 Ni3 3.487611 1_555
Ce15 Ni0 3.487613 1_555
Ce15 Ni1 3.487619 1_555
Cd0 Cd3 3.059770 1_555
Cd0 Cd1 3.059770 1_555
Cd0 Cd2 3.059770 1_555
Cd0 Ce10 3.295737 1_655
Cd0 Ce12 3.295737 1_565
Cd0 Ce14 3.295737 1_556
Cd0 Ce3 3.427132 1_655
Cd0 Ce2 3.427132 1_565
Cd0 Ce1 3.427132 1_556
Cd0 Ce9 3.461176 1_665
Cd0 Ce7 3.461176 1_656
Cd0 Ce5 3.461176 1_566
Cd1 Cd3 3.059770 1_555
Cd1 Cd2 3.059770 1_555
Cd1 Ce13 3.295741 1_655
Cd1 Ce11 3.295741 1_565
Cd1 Ce14 3.295746 1_555
Cd1 Ce2 3.427123 1_565
Cd1 Ce3 3.427123 1_655
Cd1 Ce0 3.427139 1_555
Cd1 Ce9 3.461172 1_665
Cd1 Ce4 3.461180 1_655
Cd1 Ce6 3.461180 1_565
Cd2 Cd3 3.059770 1_555
Cd2 Ce15 3.295741 1_655
Cd2 Ce11 3.295741 1_556
Cd2 Ce12 3.295746 1_555
Cd2 Ce1 3.427123 1_556
Cd2 Ce3 3.427123 1_655
Cd2 Ce0 3.427139 1_555
Cd2 Ce7 3.461172 1_656
Cd2 Ce4 3.461180 1_655
Cd2 Ce8 3.461180 1_556
Cd3 Ce15 3.295741 1_565
Cd3 Ce13 3.295741 1_556
Cd3 Ce10 3.295746 1_555
Cd3 Ce1 3.427123 1_556
Cd3 Ce2 3.427123 1_565
Cd3 Ce0 3.427139 1_555
Cd3 Ce5 3.461172 1_566
Cd3 Ce6 3.461180 1_565
Cd3 Ce8 3.461180 1_556
