# generated using pymatgen
data_CoB10(H7C4)3
_symmetry_space_group_name_H-M   'P 1'
_cell_length_a   7.59497200
_cell_length_b   9.67542037
_cell_length_c   13.57569826
_cell_angle_alpha   102.93469411
_cell_angle_beta   98.26662146
_cell_angle_gamma   102.45791295
_symmetry_Int_Tables_number   1
_chemical_formula_structural   CoB10(H7C4)3
_chemical_formula_sum   'Co2 B20 H42 C24'
_cell_volume   929.86182359
_cell_formula_units_Z   2
loop_
 _symmetry_equiv_pos_site_id
 _symmetry_equiv_pos_as_xyz
  1  'x, y, z'
loop_
 _atom_site_type_symbol
 _atom_site_label
 _atom_site_symmetry_multiplicity
 _atom_site_fract_x
 _atom_site_fract_y
 _atom_site_fract_z
 _atom_site_occupancy
  Co  Co0  1  0.67318900  0.56237500  0.78921900  1
  Co  Co1  1  0.32681100  0.43762500  0.21078100  1
  B  B0  1  0.70176200  0.39150500  0.87158500  1
  B  B1  1  0.29823800  0.60849500  0.12841500  1
  B  B2  1  0.87282300  0.46409500  0.71659000  1
  B  B3  1  0.12717700  0.53590500  0.28341000  1
  B  B4  1  0.81278100  0.28416600  0.76237700  1
  B  B5  1  0.18721900  0.71583400  0.23762300  1
  B  B6  1  0.47469500  0.36577300  0.79661900  1
  B  B7  1  0.52530500  0.63422700  0.20338100  1
  B  B8  1  0.66172400  0.45332500  0.63011400  1
  B  B9  1  0.33827600  0.54667500  0.36988600  1
  B  B10  1  0.57830500  0.21691100  0.78648300  1
  B  B11  1  0.42169500  0.78308900  0.21351700  1
  B  B12  1  0.45399900  0.40757900  0.67368100  1
  B  B13  1  0.54600100  0.59242100  0.32631900  1
  B  B14  1  0.62207900  0.17006800  0.66238400  1
  B  B15  1  0.37792100  0.82993200  0.33761600  1
  B  B16  1  0.52560000  0.27436200  0.58630600  1
  B  B17  1  0.47440000  0.72563800  0.41369400  1
  B  B18  1  0.41594300  0.22239100  0.68330100  1
  B  B19  1  0.58405700  0.77760900  0.31669900  1
  H  H0  1  0.99801400  0.51481200  0.88398000  1
  H  H1  1  0.00198600  0.48518800  0.11602000  1
  H  H2  1  0.72070000  0.39848400  0.96205200  1
  H  H3  1  0.27930000  0.60151600  0.03794800  1
  H  H4  1  0.01328200  0.52244800  0.69607500  1
  H  H5  1  0.98671800  0.47755200  0.30392500  1
  H  H6  1  0.93537100  0.22705700  0.77682100  1
  H  H7  1  0.06462900  0.77294300  0.22317900  1
  H  H8  1  0.36249600  0.38002500  0.84964100  1
  H  H9  1  0.63750400  0.61997500  0.15035900  1
  H  H10  1  0.69378200  0.51904700  0.56714000  1
  H  H11  1  0.30621800  0.48095300  0.43286000  1
  H  H12  1  0.54855700  0.12413400  0.83188500  1
  H  H13  1  0.45144300  0.87586600  0.16811500  1
  H  H14  1  0.32538900  0.44970700  0.64228800  1
  H  H15  1  0.67461100  0.55029300  0.35771200  1
  H  H16  1  0.63186900  0.04867300  0.62462400  1
  H  H17  1  0.36813100  0.95132700  0.37537600  1
  H  H18  1  0.46179100  0.22349100  0.49642000  1
  H  H19  1  0.53820900  0.77650900  0.50358000  1
  H  H20  1  0.26657400  0.13824300  0.65802100  1
  H  H21  1  0.73342600  0.86175700  0.34197900  1
  H  H22  1  0.51457500  0.73590400  0.67926000  1
  H  H23  1  0.48542500  0.26409600  0.32074000  1
  H  H24  1  0.36623400  0.65756900  0.83441500  1
  H  H25  1  0.63376600  0.34243100  0.16558500  1
  H  H26  1  0.64318800  0.69227600  0.99491900  1
  H  H27  1  0.35681200  0.30772400  0.00508100  1
  H  H28  1  0.04704600  0.81415000  0.02820000  1
  H  H29  1  0.95295400  0.18585000  0.97180000  1
  H  H30  1  0.29213300  0.92029100  0.94336500  1
  H  H31  1  0.70786700  0.07970900  0.05663500  1
  H  H32  1  0.21930900  0.95073600  0.76709000  1
  H  H33  1  0.78069100  0.04926400  0.23291000  1
  H  H34  1  0.89636800  0.87044900  0.66661600  1
  H  H35  1  0.10363200  0.12955100  0.33338400  1
  H  H36  1  0.90326400  0.35007200  0.50738500  1
  H  H37  1  0.09673600  0.64992800  0.49261500  1
  H  H38  1  0.99426100  0.24217400  0.58111400  1
  H  H39  1  0.00573900  0.75782600  0.41888600  1
  H  H40  1  0.78573700  0.16156200  0.48721500  1
  H  H41  1  0.21426300  0.83843800  0.51278500  1
  C  C0  1  0.86752200  0.46217000  0.82984500  1
  C  C1  1  0.13247800  0.53783000  0.17015500  1
  C  C2  1  0.75374500  0.30629000  0.62599400  1
  C  C3  1  0.24625500  0.69371000  0.37400600  1
  C  C4  1  0.78735800  0.79050300  0.78930400  1
  C  C5  1  0.21264200  0.20949700  0.21069600  1
  C  C6  1  0.59060400  0.73632800  0.75346600  1
  C  C7  1  0.40939600  0.26367200  0.24653400  1
  C  C8  1  0.51228200  0.69656500  0.83660600  1
  C  C9  1  0.48771800  0.30343500  0.16339400  1
  C  C10  1  0.65855300  0.71376000  0.92093200  1
  C  C11  1  0.34144700  0.28624000  0.07906800  1
  C  C12  1  0.82968600  0.77545900  0.89353900  1
  C  C13  1  0.17031400  0.22454100  0.10646100  1
  C  C14  1  0.01452400  0.82141900  0.94892100  1
  C  C15  1  0.98547600  0.17858100  0.05107900  1
  C  C16  1  0.14969700  0.88171100  0.90150800  1
  C  C17  1  0.85030300  0.11828900  0.09849200  1
  C  C18  1  0.10785200  0.89868700  0.79954800  1
  C  C19  1  0.89214800  0.10131300  0.20045200  1
  C  C20  1  0.92964700  0.85367600  0.74320500  1
  C  C21  1  0.07035300  0.14632400  0.25679500  1
  C  C22  1  0.86623300  0.26208000  0.54549400  1
  C  C23  1  0.13376700  0.73792000  0.45450600  1
loop_
_geom_bond_atom_site_label_1
_geom_bond_atom_site_label_2
_geom_bond_distance
_geom_bond_site_symmetry_2
B0 H2 1.200622 1_555
B0 C0 1.542954 1_555
B0 Co0 2.223333 1_555
B1 H3 1.200622 1_555
B1 C1 1.542954 1_555
B1 Co1 2.223333 1_555
B2 H4 1.195961 1_655
B2 C0 1.547973 1_555
B2 C2 1.704553 1_555
B2 Co0 2.192600 1_555
B3 H5 1.195961 1_455
B3 C1 1.547973 1_555
B3 C3 1.704553 1_555
B3 Co1 2.192600 1_555
B4 H6 1.195250 1_555
B4 C0 1.689180 1_555
B4 C2 1.911808 1_555
B5 H7 1.195250 1_555
B5 C1 1.689180 1_555
B5 C3 1.911808 1_555
B6 H8 1.202475 1_555
B6 Co0 2.189307 1_555
B7 H9 1.202475 1_555
B7 Co1 2.189307 1_555
B8 H10 1.196223 1_555
B8 C2 1.708812 1_555
B8 Co0 2.161546 1_555
B9 H11 1.196223 1_555
B9 C3 1.708812 1_555
B9 Co1 2.161546 1_555
B10 H12 1.198739 1_555
B11 H13 1.198739 1_555
B12 H14 1.196549 1_555
B12 Co0 2.143937 1_555
B13 H15 1.196549 1_555
B13 Co1 2.143937 1_555
B14 H16 1.194555 1_555
B14 C2 1.687039 1_555
B15 H17 1.194555 1_555
B15 C3 1.687039 1_555
B16 H18 1.193448 1_555
B16 C2 1.677572 1_555
B17 H19 1.193448 1_555
B17 C3 1.677572 1_555
B18 H20 1.196700 1_555
B19 H21 1.196700 1_555
C0 H0 1.089477 1_555
C0 Co0 2.011290 1_555
C1 H1 1.089477 1_555
C1 Co1 2.011290 1_555
C2 C22 1.524486 1_555
C4 C6 1.443377 1_555
C4 Co0 2.190111 1_555
C5 C7 1.443377 1_555
C5 Co1 2.190111 1_555
C6 H22 1.085428 1_555
C6 Co0 2.048258 1_555
C7 H23 1.085428 1_555
C7 Co1 2.048258 1_555
C8 H24 1.085613 1_555
C8 Co0 2.032181 1_555
C9 H25 1.085613 1_555
C9 Co1 2.032181 1_555
C10 H26 1.087385 1_555
C10 C12 1.444862 1_555
C10 Co0 2.076038 1_555
C11 H27 1.087385 1_555
C11 C13 1.444862 1_555
C11 Co1 2.076038 1_555
C12 C14 1.418190 1_655
C12 C4 1.452075 1_555
C12 Co0 2.195564 1_555
C13 C15 1.418190 1_455
C13 C5 1.452075 1_555
C13 Co1 2.195564 1_555
C14 H28 1.090526 1_556
C15 H29 1.090526 1_554
C16 H30 1.089297 1_555
C16 C18 1.428893 1_555
C17 H31 1.089297 1_555
C17 C19 1.428893 1_555
C18 H32 1.089512 1_555
C18 C20 1.380381 1_455
C19 H33 1.089512 1_555
C19 C21 1.380381 1_655
C20 H34 1.090397 1_555
C20 C4 1.419108 1_555
C21 H35 1.090397 1_555
C21 C5 1.419108 1_555
C22 H38 1.097139 1_555
C22 H40 1.097950 1_555
C22 H36 1.098768 1_555
C23 H39 1.097139 1_555
C23 H41 1.097950 1_555
C23 H37 1.098768 1_555
C23 C3 1.524486 1_555
