# generated using pymatgen
data_CaCr4O8
_symmetry_space_group_name_H-M   'P 1'
_cell_length_a   7.09521641
_cell_length_b   7.09521641
_cell_length_c   9.20955360
_cell_angle_alpha   49.88203898
_cell_angle_beta   49.88203898
_cell_angle_gamma   24.67318839
_symmetry_Int_Tables_number   1
_chemical_formula_structural   CaCr4O8
_chemical_formula_sum   'Ca1 Cr4 O8'
_cell_volume   145.46734219
_cell_formula_units_Z   1
loop_
 _symmetry_equiv_pos_site_id
 _symmetry_equiv_pos_as_xyz
  1  'x, y, z'
loop_
 _atom_site_type_symbol
 _atom_site_label
 _atom_site_symmetry_multiplicity
 _atom_site_fract_x
 _atom_site_fract_y
 _atom_site_fract_z
 _atom_site_occupancy
  Ca  Ca0  1  0.58877300  0.58877300  0.90101200  1
  Cr  Cr0  1  0.36540200  0.36540200  0.44171600  1
  Cr  Cr1  1  0.86003000  0.86003000  0.78435700  1
  Cr  Cr2  1  0.16642700  0.16642700  0.15722500  1
  Cr  Cr3  1  0.65652800  0.65652800  0.49837400  1
  O  O0  1  0.14825800  0.14825800  0.37449200  1
  O  O1  1  0.55209600  0.55209600  0.21936900  1
  O  O2  1  0.46937700  0.46937700  0.71702800  1
  O  O3  1  0.87510700  0.87510700  0.56963900  1
  O  O4  1  0.84511700  0.84511700  0.32268900  1
  O  O5  1  0.22149900  0.22149900  0.89486500  1
  O  O6  1  0.16591900  0.16591900  0.64406100  1
  O  O7  1  0.79008800  0.79008800  0.04452700  1
loop_
_geom_bond_atom_site_label_1
_geom_bond_atom_site_label_2
_geom_bond_distance
_geom_bond_site_symmetry_2
Ca0 O5 2.355682 1_655
Ca0 O5 2.355682 1_565
Ca0 O6 2.388111 1_565
Ca0 O6 2.388111 1_655
Ca0 O1 2.624531 1_556
Cr0 O1 1.974867 1_555
Cr0 O3 1.978174 1_455
Cr0 O3 1.978174 1_545
Cr0 O4 1.996339 1_545
Cr0 O4 1.996339 1_455
Cr0 O6 2.078900 1_555
Cr1 O3 1.846291 1_555
Cr1 O7 1.901694 1_556
Cr1 O2 1.934003 1_655
Cr1 O2 1.934003 1_565
Cr1 O5 2.107963 1_655
Cr1 O5 2.107963 1_565
Cr2 O0 1.844539 1_555
Cr2 O1 1.985194 1_545
Cr2 O1 1.985194 1_455
Cr2 O7 1.991698 1_545
Cr2 O7 1.991698 1_455
Cr2 O5 1.996876 1_554
Cr3 O0 1.945601 1_565
Cr3 O0 1.945601 1_655
Cr3 O4 1.967896 1_555
Cr3 O2 1.973345 1_555
Cr3 O6 2.084608 1_565
Cr3 O6 2.084608 1_655
