# generated using pymatgen
data_Rb2LiNd2(WO4)4
_symmetry_space_group_name_H-M   'P 1'
_cell_length_a   7.84408857
_cell_length_b   7.84408943
_cell_length_c   7.50543556
_cell_angle_alpha   63.31048230
_cell_angle_beta   63.31048178
_cell_angle_gamma   92.61062976
_symmetry_Int_Tables_number   1
_chemical_formula_structural   Rb2LiNd2(WO4)4
_chemical_formula_sum   'Rb2 Li1 Nd2 W4 O16'
_cell_volume   350.50729310
_cell_formula_units_Z   1
loop_
 _symmetry_equiv_pos_site_id
 _symmetry_equiv_pos_as_xyz
  1  'x, y, z'
loop_
 _atom_site_type_symbol
 _atom_site_label
 _atom_site_symmetry_multiplicity
 _atom_site_fract_x
 _atom_site_fract_y
 _atom_site_fract_z
 _atom_site_occupancy
  Rb  Rb0  1  0.78593400  0.21406600  0.75000000  1
  Rb  Rb1  1  0.24462600  0.75537400  0.25000000  1
  Li  Li0  1  0.00628200  0.99371800  0.25000000  1
  Nd  Nd0  1  0.22793500  0.77206500  0.75000000  1
  Nd  Nd1  1  0.75567000  0.24433000  0.25000000  1
  W  W0  1  0.69115200  0.71210800  0.78937900  1
  W  W1  1  0.70848400  0.69185000  0.29182300  1
  W  W2  1  0.30815000  0.29151600  0.20817700  1
  W  W3  1  0.28789200  0.30884800  0.71062100  1
  O  O0  1  0.57707700  0.37491500  0.48076400  1
  O  O1  1  0.20964100  0.03517000  0.83110100  1
  O  O2  1  0.06288300  0.37464000  0.86614000  1
  O  O3  1  0.38155600  0.07010400  0.36256300  1
  O  O4  1  0.76277700  0.64809000  0.54338400  1
  O  O5  1  0.35191000  0.23722300  0.95661600  1
  O  O6  1  0.62536000  0.93711700  0.63386000  1
  O  O7  1  0.41886800  0.62721900  0.52670900  1
  O  O8  1  0.03433000  0.20994300  0.31298800  1
  O  O9  1  0.79005700  0.96567000  0.18701200  1
  O  O10  1  0.37278100  0.58113200  0.97329100  1
  O  O11  1  0.92989600  0.61844400  0.13743700  1
  O  O12  1  0.24079400  0.35563900  0.45568200  1
  O  O13  1  0.64436100  0.75920600  0.04431800  1
  O  O14  1  0.96483000  0.79035900  0.66889900  1
  O  O15  1  0.62508500  0.42292300  0.01923600  1
loop_
_geom_bond_atom_site_label_1
_geom_bond_atom_site_label_2
_geom_bond_distance
_geom_bond_site_symmetry_2
Li0 O9 1.982006 1_455
Li0 O8 1.982006 1_565
Li0 O5 2.496913 1_564
Li0 O4 2.496913 1_455
Li0 Rb1 2.703546 1_555
Nd0 O14 2.393212 1_455
Nd0 O1 2.393212 1_565
Nd0 O11 2.421184 1_456
Nd0 O3 2.421184 1_565
Nd0 O10 2.439960 1_555
Nd0 O7 2.439960 1_555
Nd0 O6 2.886503 1_555
Nd0 O2 2.886503 1_555
Nd1 O15 2.357188 1_555
Nd1 O0 2.357188 1_555
Nd1 O8 2.437531 1_655
Nd1 O9 2.437531 1_545
Nd1 O2 2.458820 1_654
Nd1 O6 2.458820 1_545
Nd1 O3 2.750198 1_555
Nd1 O11 2.750198 1_555
O0 W3 1.991169 1_555
O0 W1 2.130846 1_555
O0 Rb0 3.038285 1_555
O1 W3 1.854870 1_555
O1 Rb1 3.067306 1_546
O2 W3 1.875477 1_555
O2 Rb0 3.082823 1_455
O3 W2 1.890302 1_555
O3 Rb1 3.226367 1_545
O4 W0 1.975698 1_555
O4 W1 2.004364 1_555
O4 Rb0 3.097625 1_555
O4 Rb1 3.226761 1_655
O5 W3 1.975698 1_555
O5 W2 2.004364 1_556
O5 Rb0 3.097625 1_555
O5 Rb1 3.226761 1_546
O6 W0 1.875477 1_555
O6 Rb0 3.082823 1_565
O7 W1 2.005090 1_555
O7 W3 2.143183 1_555
O7 Rb1 2.826907 1_555
O8 W2 1.883193 1_555
O8 Rb0 2.985922 1_455
O9 W1 1.883193 1_555
O9 Rb0 2.985922 1_564
O10 W2 2.005090 1_556
O10 W0 2.143183 1_555
O10 Rb1 2.826907 1_556
O11 W1 1.890302 1_555
O11 Rb1 3.226367 1_655
O12 W3 1.987184 1_555
O12 W2 1.991189 1_555
O12 Rb1 2.795930 1_555
O12 Rb0 3.032903 1_455
O13 W0 1.987184 1_554
O13 W1 1.991189 1_555
O13 Rb1 2.795929 1_555
O13 Rb0 3.032903 1_564
O14 W0 1.854870 1_555
O14 Rb1 3.067306 1_655
O15 W0 1.991169 1_554
O15 W2 2.130846 1_555
O15 Rb0 3.038285 1_554
