# generated using pymatgen
data_MgTe4H4(O3F4)2
_symmetry_space_group_name_H-M   'P 1'
_cell_length_a   5.48197680
_cell_length_b   6.30650523
_cell_length_c   11.07751104
_cell_angle_alpha   84.07387691
_cell_angle_beta   74.74878819
_cell_angle_gamma   69.62508124
_symmetry_Int_Tables_number   1
_chemical_formula_structural   MgTe4H4(O3F4)2
_chemical_formula_sum   'Mg1 Te4 H4 O6 F8'
_cell_volume   346.33952034
_cell_formula_units_Z   1
loop_
 _symmetry_equiv_pos_site_id
 _symmetry_equiv_pos_as_xyz
  1  'x, y, z'
loop_
 _atom_site_type_symbol
 _atom_site_label
 _atom_site_symmetry_multiplicity
 _atom_site_fract_x
 _atom_site_fract_y
 _atom_site_fract_z
 _atom_site_occupancy
  Mg  Mg0  1  0.34451200  0.91629700  0.05334000  1
  Te  Te0  1  0.79271700  0.21789700  0.91116100  1
  Te  Te1  1  0.89898100  0.70435500  0.13563200  1
  Te  Te2  1  0.42389500  0.70819400  0.61110900  1
  Te  Te3  1  0.77346700  0.27636500  0.40845900  1
  H  H0  1  0.11458200  0.20948900  0.71162700  1
  H  H1  1  0.21221900  0.72387200  0.27245700  1
  H  H2  1  0.58005300  0.76774100  0.78957900  1
  H  H3  1  0.16251700  0.27909000  0.20536600  1
  O  O0  1  0.76630000  0.50865800  0.51248200  1
  O  O1  1  0.99056500  0.97804100  0.00507100  1
  O  O2  1  0.53616200  0.64022900  0.76567600  1
  O  O3  1  0.96925600  0.39246700  0.25806500  1
  O  O4  1  0.01362700  0.10436300  0.74505300  1
  O  O5  1  0.09969500  0.84246600  0.22566100  1
  F  F0  1  0.44471200  0.52542800  0.36857900  1
  F  F1  1  0.33430200  0.42121900  0.64814100  1
  F  F2  1  0.37724000  0.16708500  0.12586700  1
  F  F3  1  0.59804300  0.97436700  0.89275200  1
  F  F4  1  0.12724300  0.11353900  0.44415500  1
  F  F5  1  0.61996900  0.93144100  0.57949200  1
  F  F6  1  0.58838800  0.60647000  0.04520900  1
  F  F7  1  0.06505600  0.35551300  0.90411500  1
loop_
_geom_bond_atom_site_label_1
_geom_bond_atom_site_label_2
_geom_bond_distance
_geom_bond_site_symmetry_2
Mg0 O1 2.044295 1_455
Mg0 O5 2.136730 1_555
H0 O4 0.989910 1_555
H1 O5 0.987687 1_555
H2 O2 0.993421 1_555
H3 O3 1.099000 1_455
O0 Te3 1.939112 1_555
O0 Te2 1.964874 1_555
O1 Te0 1.916491 1_564
O1 Te1 2.242505 1_555
O2 Te2 1.927004 1_555
O3 Te3 1.954030 1_555
O3 Te1 2.247893 1_555
O4 Te0 1.964942 1_455
O5 Te1 2.094739 1_455
F0 Te3 2.052992 1_555
F1 Te2 2.011110 1_555
F2 H3 1.290033 1_555
F2 Mg0 1.927414 1_545
F3 Mg0 2.037029 1_556
F3 Te0 2.204476 1_565
F4 Te3 1.976092 1_455
F5 Te2 2.003524 1_555
F6 Mg0 1.940958 1_555
F6 Te1 2.457702 1_555
F7 Te0 1.953241 1_455
