# generated using pymatgen
data_ZnHC4O3
_symmetry_space_group_name_H-M   'P 1'
_cell_length_a   15.29476641
_cell_length_b   15.29476641
_cell_length_c   15.29476693
_cell_angle_alpha   117.84470261
_cell_angle_beta   117.84470261
_cell_angle_gamma   117.84470305
_symmetry_Int_Tables_number   1
_chemical_formula_structural   ZnHC4O3
_chemical_formula_sum   'Zn6 H6 C24 O18'
_cell_volume   1346.94023408
_cell_formula_units_Z   6
loop_
 _symmetry_equiv_pos_site_id
 _symmetry_equiv_pos_as_xyz
  1  'x, y, z'
loop_
 _atom_site_type_symbol
 _atom_site_label
 _atom_site_symmetry_multiplicity
 _atom_site_fract_x
 _atom_site_fract_y
 _atom_site_fract_z
 _atom_site_occupancy
  Zn  Zn0  1  0.47690200  0.88522100  0.21188900  1
  Zn  Zn1  1  0.52309800  0.11477900  0.78811100  1
  Zn  Zn2  1  0.11477900  0.78811100  0.52309800  1
  Zn  Zn3  1  0.88522100  0.21188900  0.47690200  1
  Zn  Zn4  1  0.78811100  0.52309800  0.11477900  1
  Zn  Zn5  1  0.21188900  0.47690200  0.88522100  1
  H  H0  1  0.37430700  0.81862200  0.34999700  1
  H  H1  1  0.62569300  0.18137800  0.65000300  1
  H  H2  1  0.18137800  0.65000300  0.62569300  1
  H  H3  1  0.81862200  0.34999700  0.37430700  1
  H  H4  1  0.65000300  0.62569300  0.18137800  1
  H  H5  1  0.34999700  0.37430700  0.81862200  1
  C  C0  1  0.43750100  0.96984300  0.86907900  1
  C  C1  1  0.56249900  0.03015700  0.13092100  1
  C  C2  1  0.82864200  0.91396900  0.37870900  1
  C  C3  1  0.17135800  0.08603100  0.62129100  1
  C  C4  1  0.96984300  0.86907900  0.43750100  1
  C  C5  1  0.03015700  0.13092100  0.56249900  1
  C  C6  1  0.37870900  0.82864200  0.91396900  1
  C  C7  1  0.62129100  0.17135800  0.08603100  1
  C  C8  1  0.63951200  0.80968400  0.24341500  1
  C  C9  1  0.36048800  0.19031600  0.75658500  1
  C  C10  1  0.32215100  0.80460400  0.79064800  1
  C  C11  1  0.67784900  0.19539600  0.20935200  1
  C  C12  1  0.80460400  0.79064800  0.32215100  1
  C  C13  1  0.19539600  0.20935200  0.67784900  1
  C  C14  1  0.19031600  0.75658500  0.36048800  1
  C  C15  1  0.80968400  0.24341500  0.63951200  1
  C  C16  1  0.20935200  0.67784900  0.19539600  1
  C  C17  1  0.79064800  0.32215100  0.80460400  1
  C  C18  1  0.24341500  0.63951200  0.80968400  1
  C  C19  1  0.75658500  0.36048800  0.19031600  1
  C  C20  1  0.08603100  0.62129100  0.17135800  1
  C  C21  1  0.91396900  0.37870900  0.82864200  1
  C  C22  1  0.13092100  0.56249900  0.03015700  1
  C  C23  1  0.86907900  0.43750100  0.96984300  1
  O  O0  1  0.65464400  0.91592300  0.28246700  1
  O  O1  1  0.34535600  0.08407700  0.71753300  1
  O  O2  1  0.36735400  0.92735300  0.73472400  1
  O  O3  1  0.63264600  0.07264700  0.26527600  1
  O  O4  1  0.38091100  0.90808100  0.53329300  1
  O  O5  1  0.61908900  0.09191900  0.46670700  1
  O  O6  1  0.92735300  0.73472400  0.36735400  1
  O  O7  1  0.07264700  0.26527600  0.63264600  1
  O  O8  1  0.08407700  0.71753300  0.34535600  1
  O  O9  1  0.91592300  0.28246700  0.65464400  1
  O  O10  1  0.28246700  0.65464400  0.91592300  1
  O  O11  1  0.71753300  0.34535600  0.08407700  1
  O  O12  1  0.26527600  0.63264600  0.07264700  1
  O  O13  1  0.73472400  0.36735400  0.92735300  1
  O  O14  1  0.46670700  0.61908900  0.09191900  1
  O  O15  1  0.53329300  0.38091100  0.90808100  1
  O  O16  1  0.90808100  0.53329300  0.38091100  1
  O  O17  1  0.09191900  0.46670700  0.61908900  1
loop_
_geom_bond_atom_site_label_1
_geom_bond_atom_site_label_2
_geom_bond_distance
_geom_bond_site_symmetry_2
C0 O2 1.355648 1_555
C0 C7 1.432257 1_566
C1 O3 1.355648 1_555
C1 C6 1.432257 1_544
C2 C5 1.432257 1_665
C2 C8 1.486186 1_555
C3 C4 1.432257 1_445
C3 C9 1.486186 1_555
C4 O6 1.355648 1_555
C5 O7 1.355648 1_555
C8 O14 1.274473 1_555
C8 O0 1.289788 1_555
C9 O15 1.274473 1_555
C9 O1 1.289788 1_555
C10 H2 1.090436 1_555
C10 C6 1.404287 1_555
C11 H3 1.090436 1_555
C11 C7 1.404287 1_555
C12 H4 1.090436 1_555
C12 C2 1.404287 1_555
C13 H5 1.090436 1_555
C13 C3 1.404287 1_555
C14 O4 1.274473 1_555
C14 O8 1.289788 1_555
C14 C20 1.486186 1_555
C15 O5 1.274473 1_555
C15 O9 1.289788 1_555
C15 C21 1.486186 1_555
C16 H0 1.090436 1_555
C16 C20 1.404287 1_555
C17 H1 1.090436 1_555
C17 C21 1.404287 1_555
C18 O17 1.274473 1_555
C18 O10 1.289788 1_555
C18 C6 1.486186 1_555
C19 O16 1.274473 1_555
C19 O11 1.289788 1_555
C19 C7 1.486186 1_555
C20 C23 1.432257 1_454
C21 C22 1.432257 1_656
C22 O12 1.355648 1_555
C23 O13 1.355648 1_555
O0 Zn0 2.090159 1_555
O0 Zn3 2.118207 1_565
O1 Zn1 2.090159 1_555
O1 Zn2 2.118207 1_545
O2 Zn2 2.032306 1_555
O2 Zn1 2.043557 1_565
O3 Zn3 2.032306 1_555
O3 Zn0 2.043557 1_545
O4 Zn1 2.015813 1_565
O5 Zn0 2.015813 1_545
O6 Zn4 2.032306 1_555
O6 Zn2 2.043557 1_655
O7 Zn5 2.032306 1_555
O7 Zn3 2.043557 1_455
O8 Zn2 2.090159 1_555
O8 Zn4 2.118207 1_455
O9 Zn3 2.090159 1_555
O9 Zn5 2.118207 1_655
O10 Zn5 2.090159 1_555
O10 Zn0 2.118207 1_556
O11 Zn4 2.090159 1_555
O11 Zn1 2.118207 1_554
O12 Zn0 2.032306 1_555
O12 Zn5 2.043557 1_554
O13 Zn1 2.032306 1_555
O13 Zn4 2.043557 1_556
O14 Zn5 2.015813 1_554
O15 Zn4 2.015813 1_556
O16 Zn2 2.015813 1_655
O17 Zn3 2.015813 1_455
