# generated using pymatgen
data_Sm2MgS4
_symmetry_space_group_name_H-M   'P 1'
_cell_length_a   13.82769400
_cell_length_b   8.10780100
_cell_length_c   6.60650300
_cell_angle_alpha   90.00000000
_cell_angle_beta   90.00000000
_cell_angle_gamma   90.00000000
_symmetry_Int_Tables_number   1
_chemical_formula_structural   Sm2MgS4
_chemical_formula_sum   'Sm8 Mg4 S16'
_cell_volume   740.66952777
_cell_formula_units_Z   4
loop_
 _symmetry_equiv_pos_site_id
 _symmetry_equiv_pos_as_xyz
  1  'x, y, z'
loop_
 _atom_site_type_symbol
 _atom_site_label
 _atom_site_symmetry_multiplicity
 _atom_site_fract_x
 _atom_site_fract_y
 _atom_site_fract_z
 _atom_site_occupancy
  Sm  Sm0  1  0.00000000  0.00000000  0.50000000  1
  Sm  Sm1  1  0.50000000  0.00000000  0.00000000  1
  Sm  Sm2  1  0.50000000  0.50000000  0.00000000  1
  Sm  Sm3  1  0.00000000  0.50000000  0.50000000  1
  Sm  Sm4  1  0.23113300  0.75000000  0.99878900  1
  Sm  Sm5  1  0.76886700  0.25000000  0.00121100  1
  Sm  Sm6  1  0.26886700  0.25000000  0.49878900  1
  Sm  Sm7  1  0.73113300  0.75000000  0.50121100  1
  Mg  Mg0  1  0.09301600  0.25000000  0.92292600  1
  Mg  Mg1  1  0.90698400  0.75000000  0.07707400  1
  Mg  Mg2  1  0.40698400  0.75000000  0.42292600  1
  Mg  Mg3  1  0.59301600  0.25000000  0.57707400  1
  S  S0  1  0.16789000  0.01428000  0.74648100  1
  S  S1  1  0.83211000  0.98572000  0.25351900  1
  S  S2  1  0.33211000  0.98572000  0.24648100  1
  S  S3  1  0.66789000  0.01428000  0.75351900  1
  S  S4  1  0.66789000  0.48572000  0.75351900  1
  S  S5  1  0.33211000  0.51428000  0.24648100  1
  S  S6  1  0.83211000  0.51428000  0.25351900  1
  S  S7  1  0.16789000  0.48572000  0.74648100  1
  S  S8  1  0.06783500  0.75000000  0.24427400  1
  S  S9  1  0.93216500  0.25000000  0.75572600  1
  S  S10  1  0.43216500  0.25000000  0.74427400  1
  S  S11  1  0.56783500  0.75000000  0.25572600  1
  S  S12  1  0.09214700  0.25000000  0.28703300  1
  S  S13  1  0.90785300  0.75000000  0.71296600  1
  S  S14  1  0.40785300  0.75000000  0.78703400  1
  S  S15  1  0.59214700  0.25000000  0.21296700  1
loop_
_geom_bond_atom_site_label_1
_geom_bond_atom_site_label_2
_geom_bond_distance
_geom_bond_site_symmetry_2
Mg0 S12 2.405504 1_556
Mg0 S7 2.466437 1_555
Mg0 S0 2.466437 1_555
Mg0 S9 2.483388 1_455
Mg1 S13 2.405511 1_554
Mg1 S6 2.466437 1_555
Mg1 S1 2.466437 1_555
Mg1 S8 2.483388 1_655
Mg2 S14 2.405511 1_555
Mg2 S5 2.466437 1_555
Mg2 S2 2.466437 1_555
Mg2 S11 2.483388 1_555
Mg3 S15 2.405504 1_555
Mg3 S4 2.466437 1_555
Mg3 S3 2.466437 1_555
Mg3 S10 2.483388 1_555
S0 Sm0 2.838050 1_555
S0 Sm4 2.852107 1_545
S0 Sm6 2.877482 1_555
S1 Sm0 2.838050 1_665
S1 Sm5 2.852107 1_565
S1 Sm7 2.877482 1_555
S2 Sm1 2.838050 1_565
S2 Sm6 2.852107 1_565
S2 Sm4 2.877482 1_554
S3 Sm1 2.838050 1_556
S3 Sm7 2.852107 1_545
S3 Sm5 2.877482 1_556
S4 Sm2 2.838050 1_556
S4 Sm7 2.852107 1_555
S4 Sm5 2.877482 1_556
S5 Sm2 2.838050 1_555
S5 Sm6 2.852107 1_555
S5 Sm4 2.877482 1_554
S6 Sm3 2.838050 1_655
S6 Sm5 2.852107 1_555
S6 Sm7 2.877482 1_555
S7 Sm3 2.838050 1_555
S7 Sm4 2.852107 1_555
S7 Sm6 2.877482 1_555
S8 Sm4 2.780099 1_554
S8 Sm0 2.800470 1_565
S8 Sm3 2.800470 1_555
S9 Sm5 2.780099 1_556
S9 Sm0 2.800470 1_655
S9 Sm3 2.800470 1_655
S10 Sm6 2.780099 1_555
S10 Sm2 2.800470 1_556
S10 Sm1 2.800470 1_556
S11 Sm7 2.780099 1_555
S11 Sm1 2.800470 1_565
S11 Sm2 2.800470 1_555
S12 Sm3 2.776980 1_555
S12 Sm0 2.776980 1_555
S12 Sm6 2.815748 1_555
S13 Sm3 2.776977 1_655
S13 Sm0 2.776977 1_665
S13 Sm7 2.815745 1_555
S14 Sm2 2.776977 1_556
S14 Sm1 2.776977 1_566
S14 Sm4 2.815745 1_555
S15 Sm2 2.776980 1_555
S15 Sm1 2.776980 1_555
S15 Sm5 2.815748 1_555
