# generated using pymatgen
data_Na21ZnS10Cl3O40
_symmetry_space_group_name_H-M   'P 1'
_cell_length_a   13.87664967
_cell_length_b   13.96206174
_cell_length_c   13.87923089
_cell_angle_alpha   70.52944107
_cell_angle_beta   70.76534048
_cell_angle_gamma   109.46309098
_symmetry_Int_Tables_number   1
_chemical_formula_structural   Na21ZnS10Cl3O40
_chemical_formula_sum   'Na42 Zn2 S20 Cl6 O80'
_cell_volume   2076.27083347
_cell_formula_units_Z   2
loop_
 _symmetry_equiv_pos_site_id
 _symmetry_equiv_pos_as_xyz
  1  'x, y, z'
loop_
 _atom_site_type_symbol
 _atom_site_label
 _atom_site_symmetry_multiplicity
 _atom_site_fract_x
 _atom_site_fract_y
 _atom_site_fract_z
 _atom_site_occupancy
  Na  Na0  1  0.53812550  0.24905456  0.20558087  1
  Na  Na1  1  0.95697434  0.75164519  0.29521292  1
  Na  Na2  1  0.28907093  0.75094544  0.95463543  1
  Na  Na3  1  0.20532915  0.24835481  0.54685811  1
  Na  Na4  1  0.70593202  0.45685841  0.74781162  1
  Na  Na5  1  0.79550267  0.03867928  0.24967425  1
  Na  Na6  1  0.45442764  0.70470846  0.25699914  1
  Na  Na7  1  0.04660188  0.79565015  0.74715317  1
  Na  Na8  1  0.74971918  0.29529154  0.46170760  1
  Na  Na9  1  0.25095174  0.20434985  0.04280331  1
  Na  Na10  1  0.24907361  0.54314159  0.70467003  1
  Na  Na11  1  0.75682339  0.96132072  0.78835354  1
  Na  Na12  1  0.46328575  0.24106468  0.53098270  1
  Na  Na13  1  0.23042240  0.25579057  0.27559571  1
  Na  Na14  1  0.03418089  0.50832520  0.22427392  1
  Na  Na15  1  0.26817789  0.99508009  0.97141958  1
  Na  Na16  1  0.22222107  0.75893532  0.27204738  1
  Na  Na17  1  0.97463183  0.74420943  0.03138628  1
  Na  Na18  1  0.52585569  0.49167480  0.23259912  1
  Na  Na19  1  0.27309780  0.00491991  0.46649967  1
  Na  Na20  1  0.77635586  0.53487807  0.99112490  1
  Na  Na21  1  0.02862854  0.76989808  0.50564672  1
  Na  Na22  1  0.46901322  0.96399176  0.26065616  1
  Na  Na23  1  0.72495411  0.73053592  0.24409395  1
  Na  Na24  1  0.53326075  0.77282182  0.49458877  1
  Na  Na25  1  0.77243609  0.02827247  0.00498807  1
  Na  Na26  1  0.96840665  0.47400431  0.75575299  1
  Na  Na27  1  0.73298662  0.72395182  0.73829237  1
  Na  Na28  1  0.76043892  0.22717818  0.76741059  1
  Na  Na29  1  0.74416362  0.97172753  0.53326054  1
  Na  Na30  1  0.49440234  0.52599569  0.72975730  1
  Na  Na31  1  0.00903480  0.27604818  0.96224419  1
  Na  Na32  1  0.24147779  0.46512193  0.02600297  1
  Na  Na33  1  0.25873047  0.23010192  0.77554480  1
  Na  Na34  1  0.50502146  0.03600824  0.72464792  1
  Na  Na35  1  0.99441818  0.26946408  0.47462987  1
  Na  Na36  1  0.49964737  0.15364355  0.00023548  1
  Na  Na37  1  0.65041738  0.49971715  0.50033619  1
  Na  Na38  1  0.99979664  0.99937408  0.34961680  1
  Na  Na39  1  0.34600383  0.84635645  0.65387903  1
  Na  Na40  1  0.15070023  0.50028285  0.50005334  1
  Na  Na41  1  0.00042256  0.00062592  0.84899088  1
  Zn  Zn0  1  0.83383735  0.33376147  0.16625428  1
  Zn  Zn1  1  0.50007588  0.66623853  0.00001575  1
  S  S0  1  0.73489390  0.24897827  0.02325870  1
  S  S1  1  0.76892360  0.74992248  0.48074236  1
  S  S2  1  0.48591562  0.75102173  0.77223698  1
  S  S3  1  0.01900112  0.25007752  0.73066484  1
  S  S4  1  0.51962454  0.26906077  0.75011201  1
  S  S5  1  0.97692586  0.23516925  0.25094816  1
  S  S6  1  0.27240171  0.52309167  0.24158297  1
  S  S7  1  0.23066743  0.98058974  0.74996780  1
  S  S8  1  0.74931004  0.47690833  0.26467464  1
  S  S9  1  0.25007769  0.01941026  0.23055754  1
  S  S10  1  0.25056377  0.73093923  0.51917279  1
  S  S11  1  0.74175660  0.76483075  0.98611741  1
  S  S12  1  0.58318208  0.08300398  0.41719326  1
  S  S13  1  0.50000955  0.41979903  0.00026495  1
  S  S14  1  0.91849048  0.49991847  0.49958297  1
  S  S15  1  0.99937282  0.99978936  0.08189988  1
  S  S16  1  0.50017809  0.91699602  0.00019724  1
  S  S17  1  0.08021052  0.58020097  0.92006398  1
  S  S18  1  0.41857201  0.50008153  0.49950144  1
  S  S19  1  0.99958346  0.00021064  0.58168924  1
  Cl  Cl0  1  0.37541100  0.25056757  0.37526754  1
  Cl  Cl1  1  0.12484343  0.74943243  0.12583511  1
  Cl  Cl2  1  0.87450500  0.62453975  0.75095292  1
  Cl  Cl3  1  0.62503200  0.87615180  0.24879007  1
  Cl  Cl4  1  0.74888020  0.12384820  0.62494188  1
  Cl  Cl5  1  0.24996524  0.37546025  0.87549268  1
  O  O0  1  0.54916477  0.11205867  0.51281508  1
  O  O1  1  0.37515176  0.39258285  0.06391133  1
  O  O2  1  0.95501439  0.43851971  0.43608121  1
  O  O3  1  0.12354695  0.06098773  0.98432786  1
  O  O4  1  0.43710610  0.88794133  0.12487375  1
  O  O5  1  0.98256891  0.60741715  0.95649417  1
  O  O6  1  0.51649468  0.56148029  0.37460091  1
  O  O7  1  0.06255922  0.93901227  0.54531559  1
  O  O8  1  0.56383849  0.45561927  0.06207085  1
  O  O9  1  0.01620377  0.62360159  0.43854269  1
  O  O10  1  0.48771548  0.04929739  0.38742880  1
  O  O11  1  0.93605823  0.87572343  0.10805427  1
  O  O12  1  0.45505048  0.56330974  0.56097833  1
  O  O13  1  0.62475920  0.01235399  0.93907429  1
  O  O14  1  0.04387213  0.48294631  0.89303950  1
  O  O15  1  0.87450936  0.93707586  0.60862913  1
  O  O16  1  0.89174074  0.43669026  0.62428807  1
  O  O17  1  0.61240521  0.98764601  0.45142828  1
  O  O18  1  0.56092582  0.51705369  0.87598581  1
  O  O19  1  0.93743350  0.06292414  0.04570499  1
  O  O20  1  0.10821923  0.54438073  0.01769011  1
  O  O21  1  0.39260218  0.37639841  0.56214428  1
  O  O22  1  0.43841809  0.95070261  0.93672619  1
  O  O23  1  0.06033480  0.12427657  0.48377770  1
  O  O24  1  0.80235504  0.18924119  0.04241281  1
  O  O25  1  0.76840331  0.31249454  0.89825975  1
  O  O26  1  0.69773698  0.65796056  0.60705354  1
  O  O27  1  0.73442490  0.84223638  0.45904720  1
  O  O28  1  0.61311385  0.81075881  0.73165399  1
  O  O29  1  0.45590877  0.68750546  0.71075428  1
  O  O30  1  0.03977642  0.34203944  0.76501410  1
  O  O31  1  0.89218851  0.15776362  0.80128358  1
  O  O32  1  0.39330354  0.19809035  0.84225191  1
  O  O33  1  0.54156992  0.23556776  0.65695896  1
  O  O34  1  0.95816864  0.30206421  0.31137582  1
  O  O35  1  0.10202622  0.26878324  0.18750556  1
  O  O36  1  0.21148267  0.39843608  0.33233069  1
  O  O37  1  0.23094668  0.54178672  0.15524485  1
  O  O38  1  0.30186600  0.95858664  0.80600618  1
  O  O39  1  0.26425430  0.10629555  0.69527173  1
  O  O40  1  0.81304659  0.60156392  0.23076677  1
  O  O41  1  0.68915996  0.45821328  0.19703157  1
  O  O42  1  0.34327936  0.04141336  0.26459282  1
  O  O43  1  0.15795875  0.89370445  0.30156728  1
  O  O44  1  0.19521319  0.80190965  0.54034226  1
  O  O45  1  0.30600216  0.76443224  0.39252672  1
  O  O46  1  0.65610443  0.69793579  0.11344003  1
  O  O47  1  0.83324298  0.73121676  0.95628880  1
  O  O48  1  0.69067655  0.19001816  0.30999375  1
  O  O49  1  0.50044746  0.31382929  0.00036334  1
  O  O50  1  0.81202733  0.49956954  0.49889857  1
  O  O51  1  0.99892714  0.99969645  0.18862024  1
  O  O52  1  0.50065839  0.80998184  0.00001191  1
  O  O53  1  0.18661816  0.68617071  0.81419264  1
  O  O54  1  0.31245779  0.50043046  0.49846811  1
  O  O55  1  0.99923069  0.00030355  0.68831668  1
  O  O56  1  0.60652982  0.16319227  0.09685719  1
  O  O57  1  0.75944493  0.33982338  0.06466589  1
  O  O58  1  0.89594733  0.80201984  0.44676768  1
  O  O59  1  0.75146590  0.69784306  0.40538448  1
  O  O60  1  0.44333755  0.83680773  0.76004946  1
  O  O61  1  0.41962154  0.66017662  0.90448927  1
  O  O62  1  0.09392749  0.19798016  0.74878752  1
  O  O63  1  0.05362284  0.30215694  0.60322754  1
  O  O64  1  0.55392591  0.39544296  0.69845341  1
  O  O65  1  0.59517790  0.25118166  0.80256836  1
  O  O66  1  0.90349248  0.10738053  0.33622802  1
  O  O67  1  0.93585026  0.26041502  0.15933963  1
  O  O68  1  0.40482819  0.56424123  0.17552699  1
  O  O69  1  0.26014048  0.59641555  0.29641370  1
  O  O70  1  0.10348781  0.90536386  0.84220045  1
  O  O71  1  0.24889239  0.94665142  0.65669522  1
  O  O72  1  0.84058696  0.43575877  0.23976822  1
  O  O73  1  0.66372492  0.40358445  0.39282925  1
  O  O74  1  0.19812396  0.09463614  0.24756431  1
  O  O75  1  0.30224097  0.05334858  0.10334664  1
  O  O76  1  0.15848295  0.60455704  0.59389636  1
  O  O77  1  0.34399624  0.74881834  0.55375002  1
  O  O78  1  0.79611195  0.89261947  0.94360855  1
  O  O79  1  0.67543523  0.73958498  0.91975465  1
loop_
_geom_bond_atom_site_label_1
_geom_bond_atom_site_label_2
_geom_bond_distance
_geom_bond_site_symmetry_2
Na0 O56 2.373984 1_555
Na0 O57 2.580630 1_555
Na0 O8 2.725599 1_555
Na0 O10 2.735329 1_555
Na0 O42 2.849652 1_555
Na0 O41 2.908815 1_555
Na0 O49 2.963605 1_555
Na1 O58 2.417831 1_555
Na1 O59 2.443069 1_555
Na1 O9 2.741267 1_655
Na1 O11 2.768557 1_555
Na1 O43 2.883154 1_655
Na1 O40 2.969427 1_555
Na1 O51 3.032383 1_555
Na1 O50 3.054115 1_555
Na2 O60 2.373984 1_555
Na2 O61 2.580630 1_555
Na2 O20 2.725599 1_556
Na2 O22 2.735329 1_555
Na2 O38 2.849652 1_555
Na2 O37 2.908815 1_556
Na2 O53 2.963605 1_555
Na3 O62 2.417831 1_555
Na3 O63 2.443069 1_555
Na3 O21 2.741267 1_555
Na3 O23 2.768557 1_555
Na3 O39 2.883154 1_555
Na3 O36 2.969427 1_555
Na3 O55 3.032383 1_455
Na3 O54 3.054115 1_555
Na4 O64 2.406705 1_555
Na4 O65 2.453675 1_555
Na4 O16 2.749510 1_555
Na4 O18 2.772215 1_555
Na4 O26 2.900976 1_555
Na4 O25 2.953928 1_555
Na4 O50 3.024662 1_555
Na4 O49 3.059204 1_556
Na5 O66 2.367532 1_555
Na5 O67 2.595187 1_555
Na5 O19 2.692779 1_555
Na5 O17 2.753199 1_545
Na5 O27 2.863608 1_545
Na5 O24 2.891086 1_555
Na5 O51 2.956022 1_545
Na6 O69 2.369477 1_555
Na6 O68 2.586576 1_555
Na6 O6 2.702418 1_555
Na6 O4 2.745584 1_555
Na6 O45 2.848376 1_555
Na6 O46 2.905006 1_555
Na6 O54 2.963255 1_555
Na7 O71 2.422911 1_555
Na7 O70 2.436660 1_555
Na7 O7 2.731481 1_555
Na7 O5 2.791186 1_455
Na7 O44 2.883056 1_555
Na7 O47 2.970248 1_455
Na7 O53 3.033064 1_555
Na7 O55 3.051797 1_465
Na8 O73 2.369477 1_555
Na8 O72 2.586576 1_555
Na8 O2 2.702418 1_555
Na8 O0 2.745584 1_555
Na8 O33 2.848376 1_555
Na8 O34 2.905006 1_555
Na8 O50 2.963255 1_555
Na9 O75 2.422911 1_555
Na9 O74 2.436660 1_555
Na9 O3 2.731481 1_554
Na9 O1 2.791186 1_555
Na9 O32 2.883056 1_554
Na9 O35 2.970249 1_555
Na9 O49 3.033064 1_555
Na9 O51 3.051797 1_445
Na10 O76 2.406705 1_555
Na10 O77 2.453675 1_555
Na10 O12 2.749510 1_555
Na10 O14 2.772215 1_555
Na10 O30 2.900976 1_555
Na10 O29 2.953928 1_555
Na10 O54 3.024662 1_555
Na10 O53 3.059204 1_555
Na11 O78 2.367532 1_555
Na11 O79 2.595187 1_555
Na11 O15 2.692779 1_555
Na11 O13 2.753199 1_565
Na11 O31 2.863608 1_565
Na11 O28 2.891087 1_555
Na11 O55 2.956022 1_565
Na12 O33 2.336800 1_555
Na12 O39 2.427984 1_555
Na12 O73 2.437513 1_555
Na12 O21 2.493961 1_555
Na12 O0 2.502650 1_555
Na13 O74 2.332678 1_555
Na13 O36 2.431800 1_555
Na13 O1 2.475581 1_555
Na13 O35 2.490984 1_555
Na13 O23 2.524425 1_555
Na14 O34 2.383723 1_455
Na14 O37 2.391537 1_555
Na14 O72 2.439259 1_455
Na14 O2 2.459136 1_455
Na14 O20 2.506422 1_555
Na15 O32 2.354714 1_565
Na15 O75 2.354799 1_566
Na15 O38 2.445469 1_555
Na15 O3 2.451659 1_565
Na15 O22 2.573200 1_555
Na16 O45 2.336800 1_555
Na16 O43 2.427984 1_555
Na16 O69 2.437513 1_555
Na16 O9 2.493961 1_555
Na16 O4 2.502650 1_555
Na17 O70 2.332678 1_654
Na17 O40 2.431800 1_555
Na17 O5 2.475581 1_554
Na17 O47 2.490984 1_554
Na17 O11 2.524425 1_555
Na18 O46 2.383723 1_555
Na18 O41 2.391537 1_555
Na18 O68 2.439259 1_555
Na18 O6 2.459136 1_555
Na18 O8 2.506421 1_555
Na19 O44 2.354714 1_545
Na19 O71 2.354799 1_545
Na19 O42 2.445469 1_555
Na19 O7 2.451659 1_545
Na19 O10 2.573200 1_555
Na20 O41 2.365644 1_556
Na20 O47 2.407173 1_555
Na20 O8 2.465060 1_556
Na20 O57 2.465120 1_556
Na20 O5 2.506622 1_555
Na21 O43 2.356076 1_555
Na21 O58 2.357148 1_455
Na21 O44 2.442073 1_555
Na21 O9 2.491724 1_555
Na21 O7 2.529147 1_555
Na22 O42 2.334328 1_565
Na22 O45 2.429493 1_555
Na22 O56 2.436158 1_565
Na22 O10 2.464494 1_565
Na22 O4 2.538804 1_555
Na23 O59 2.308316 1_555
Na23 O46 2.410446 1_555
Na23 O11 2.470341 1_555
Na23 O40 2.512189 1_555
Na23 O6 2.523393 1_555
Na24 O77 2.343800 1_555
Na24 O27 2.438469 1_555
Na24 O12 2.452023 1_555
Na24 O29 2.493189 1_555
Na24 O17 2.595169 1_555
Na25 O31 2.349105 1_554
Na25 O78 2.393070 1_544
Na25 O24 2.406604 1_555
Na25 O19 2.468268 1_555
Na25 O13 2.480530 1_554
Na26 O76 2.342733 1_655
Na26 O30 2.352486 1_655
Na26 O25 2.437006 1_555
Na26 O14 2.475696 1_655
Na26 O16 2.505166 1_555
Na27 O28 2.369495 1_555
Na27 O26 2.410717 1_555
Na27 O15 2.481349 1_555
Na27 O79 2.487159 1_555
Na27 O18 2.532736 1_555
Na28 O65 2.343799 1_555
Na28 O31 2.438469 1_555
Na28 O16 2.452023 1_555
Na28 O25 2.493189 1_555
Na28 O13 2.595169 1_555
Na29 O27 2.349105 1_555
Na29 O66 2.393070 1_565
Na29 O28 2.406604 1_555
Na29 O15 2.468268 1_555
Na29 O17 2.480530 1_555
Na30 O64 2.342733 1_555
Na30 O26 2.352486 1_555
Na30 O29 2.437006 1_555
Na30 O18 2.475696 1_555
Na30 O12 2.505166 1_555
Na31 O24 2.369495 1_456
Na31 O30 2.410717 1_555
Na31 O19 2.481349 1_456
Na31 O67 2.487159 1_456
Na31 O14 2.532736 1_555
Na32 O37 2.365644 1_555
Na32 O35 2.407173 1_555
Na32 O20 2.465060 1_555
Na32 O61 2.465120 1_554
Na32 O1 2.506622 1_555
Na33 O39 2.356076 1_555
Na33 O62 2.357148 1_555
Na33 O32 2.442073 1_555
Na33 O21 2.491724 1_555
Na33 O3 2.529147 1_555
Na34 O38 2.334328 1_545
Na34 O33 2.429493 1_555
Na34 O60 2.436158 1_545
Na34 O22 2.464494 1_545
Na34 O0 2.538804 1_555
Na35 O63 2.308316 1_655
Na35 O34 2.410446 1_555
Na35 O23 2.470342 1_655
Na35 O36 2.512189 1_655
Na35 O2 2.523392 1_555
Na36 O49 2.233444 1_555
Na36 O75 2.244488 1_555
Na36 O65 2.246900 1_554
Na36 O56 2.305179 1_555
Na37 O50 2.236806 1_555
Na37 O64 2.253820 1_555
Na37 O59 2.263268 1_555
Na37 O73 2.319649 1_555
Na38 O51 2.237027 1_555
Na38 O58 2.254805 1_555
Na38 O74 2.255174 1_665
Na38 O66 2.326855 1_565
Na39 O53 2.233445 1_555
Na39 O71 2.244488 1_555
Na39 O77 2.246900 1_555
Na39 O60 2.305179 1_555
Na40 O54 2.236806 1_555
Na40 O76 2.253820 1_555
Na40 O63 2.263268 1_555
Na40 O69 2.319649 1_555
Na41 O55 2.237027 1_455
Na41 O62 2.254805 1_555
Na41 O70 2.255174 1_545
Na41 O78 2.326855 1_445
Cl0 Na0 2.684501 1_555
Cl0 Na3 2.728006 1_555
Cl0 Na18 2.785829 1_555
Cl0 Na12 2.797932 1_555
Cl0 Na13 2.798455 1_555
Cl0 Na19 2.838595 1_555
Cl1 Na2 2.684501 1_554
Cl1 Na1 2.728006 1_455
Cl1 Na14 2.785829 1_555
Cl1 Na16 2.797932 1_555
Cl1 Na17 2.798455 1_455
Cl1 Na15 2.838595 1_554
Cl2 Na4 2.727760 1_555
Cl2 Na7 2.728459 1_655
Cl2 Na20 2.761214 1_555
Cl2 Na27 2.774011 1_555
Cl2 Na26 2.812255 1_555
Cl2 Na21 2.826331 1_655
Cl3 Na5 2.684374 1_565
Cl3 Na6 2.685426 1_555
Cl3 Na22 2.808508 1_555
Cl3 Na25 2.810410 1_565
Cl3 Na23 2.822723 1_555
Cl3 Na24 2.823751 1_555
Cl4 Na11 2.684374 1_545
Cl4 Na8 2.685426 1_555
Cl4 Na34 2.808508 1_555
Cl4 Na29 2.810410 1_545
Cl4 Na35 2.822723 1_555
Cl4 Na28 2.823750 1_555
Cl5 Na10 2.727760 1_555
Cl5 Na9 2.728459 1_556
Cl5 Na32 2.761214 1_556
Cl5 Na31 2.774011 1_555
Cl5 Na30 2.812255 1_555
Cl5 Na33 2.826331 1_555
O0 S12 1.490799 1_555
O1 S13 1.501903 1_555
O2 S14 1.505805 1_555
O3 S15 1.497709 1_446
O4 S16 1.490799 1_555
O5 S17 1.501903 1_655
O6 S18 1.505805 1_555
O7 S19 1.497709 1_465
O8 S13 1.503965 1_555
O9 S14 1.498604 1_455
O10 S12 1.490582 1_555
O11 S15 1.503578 1_555
O12 S18 1.500846 1_555
O13 S16 1.492596 1_546
O14 S17 1.498878 1_555
O15 S19 1.504104 1_565
O16 S14 1.500846 1_555
O17 S12 1.492596 1_565
O18 S13 1.498878 1_556
O19 S15 1.504104 1_545
O20 S17 1.503965 1_554
O21 S18 1.498604 1_555
O22 S16 1.490582 1_556
O23 S19 1.503578 1_455
O24 S0 1.476190 1_555
O25 S0 1.476660 1_556
O26 S1 1.486925 1_555
O27 S1 1.492826 1_555
O28 S2 1.476190 1_555
O29 S2 1.476661 1_555
O30 S3 1.486925 1_555
O31 S3 1.492826 1_655
O32 S4 1.486852 1_555
O33 S4 1.490478 1_555
O34 S5 1.477791 1_555
O35 S5 1.477712 1_455
O36 S6 1.478781 1_555
O37 S6 1.476728 1_555
O38 S7 1.491551 1_555
O39 S7 1.485757 1_545
O40 S8 1.478781 1_555
O41 S8 1.476728 1_555
O42 S9 1.491551 1_555
O43 S9 1.485757 1_565
O44 S10 1.486852 1_555
O45 S10 1.490478 1_555
O46 S11 1.477791 1_554
O47 S11 1.477712 1_555
O48 S12 1.497227 1_555
O48 Zn0 2.004256 1_555
O49 S13 1.481140 1_555
O50 S14 1.478906 1_555
O51 S15 1.478736 1_555
O52 S16 1.497227 1_555
O52 Zn1 2.004256 1_555
O53 S17 1.481140 1_555
O54 S18 1.478906 1_555
O55 S19 1.478736 1_555
O56 S0 1.488184 1_555
O57 S0 1.543415 1_555
O57 Zn0 1.999635 1_555
O58 S1 1.492554 1_555
O59 S1 1.495959 1_555
O60 S2 1.488184 1_555
O61 S2 1.543415 1_555
O61 Zn1 1.999636 1_556
O62 S3 1.492554 1_555
O63 S3 1.495959 1_555
O64 S4 1.492081 1_555
O65 S4 1.499252 1_555
O66 S5 1.486132 1_555
O67 S5 1.542192 1_555
O67 Zn0 2.000976 1_555
O68 S6 1.543621 1_555
O68 Zn1 2.005141 1_555
O69 S6 1.485359 1_555
O70 S7 1.495453 1_555
O71 S7 1.495807 1_555
O72 S8 1.543621 1_555
O72 Zn0 2.005141 1_555
O73 S8 1.485359 1_555
O74 S9 1.495453 1_555
O75 S9 1.495807 1_555
O76 S10 1.492081 1_555
O77 S10 1.499251 1_555
O78 S11 1.486132 1_555
O79 S11 1.542192 1_555
O79 Zn1 2.000976 1_556
