# generated using pymatgen
data_BaCu2SnS4
_symmetry_space_group_name_H-M   'P 1'
_cell_length_a   6.43650042
_cell_length_b   6.43650042
_cell_length_c   15.83099500
_cell_angle_alpha   90.00000000
_cell_angle_beta   90.00000000
_cell_angle_gamma   120.00000435
_symmetry_Int_Tables_number   1
_chemical_formula_structural   BaCu2SnS4
_chemical_formula_sum   'Ba3 Cu6 Sn3 S12'
_cell_volume   567.98704304
_cell_formula_units_Z   3
loop_
 _symmetry_equiv_pos_site_id
 _symmetry_equiv_pos_as_xyz
  1  'x, y, z'
loop_
 _atom_site_type_symbol
 _atom_site_label
 _atom_site_symmetry_multiplicity
 _atom_site_fract_x
 _atom_site_fract_y
 _atom_site_fract_z
 _atom_site_occupancy
  Ba  Ba0  1  0.42640200  0.42640200  0.50000000  1
  Ba  Ba1  1  0.00000000  0.57359800  0.16666700  1
  Ba  Ba2  1  0.57359800  0.00000000  0.83333300  1
  Cu  Cu0  1  0.36978200  0.43384000  0.74519900  1
  Cu  Cu1  1  0.93594200  0.56616000  0.92146800  1
  Cu  Cu2  1  0.43384000  0.36978200  0.25480100  1
  Cu  Cu3  1  0.06405800  0.63021800  0.41186500  1
  Cu  Cu4  1  0.56616000  0.93594200  0.07853200  1
  Cu  Cu5  1  0.63021800  0.06405800  0.58813500  1
  Sn  Sn0  1  0.70499200  0.00000000  0.33333300  1
  Sn  Sn1  1  0.00000000  0.70499200  0.66666700  1
  Sn  Sn2  1  0.29500800  0.29500800  0.00000000  1
  S  S0  1  0.76519500  0.65191000  0.33581900  1
  S  S1  1  0.88671500  0.23480500  0.00248600  1
  S  S2  1  0.34809000  0.11328500  0.66915300  1
  S  S3  1  0.11328500  0.34809000  0.33084700  1
  S  S4  1  0.23480500  0.88671500  0.99751400  1
  S  S5  1  0.65191000  0.76519500  0.66418100  1
  S  S6  1  0.93958700  0.44044700  0.54641000  1
  S  S7  1  0.50086000  0.06041300  0.21307700  1
  S  S8  1  0.06041300  0.50086000  0.78692300  1
  S  S9  1  0.44044700  0.93958700  0.45359000  1
  S  S10  1  0.49914000  0.55955300  0.12025700  1
  S  S11  1  0.55955300  0.49914000  0.87974300  1
loop_
_geom_bond_atom_site_label_1
_geom_bond_atom_site_label_2
_geom_bond_distance
_geom_bond_site_symmetry_2
Ba0 S5 3.233018 1_555
Ba0 S0 3.233018 1_555
Ba0 S2 3.235876 1_555
Ba0 S3 3.235876 1_555
Ba0 S9 3.263333 1_545
Ba0 S6 3.263333 1_455
Ba0 S9 3.340651 1_555
Ba0 S6 3.340651 1_555
Ba1 S3 3.233006 1_555
Ba1 S1 3.233018 1_455
Ba1 S0 3.235863 1_455
Ba1 S4 3.235876 1_554
Ba1 S7 3.263333 1_565
Ba1 S10 3.263333 1_455
Ba1 S7 3.340651 1_455
Ba1 S10 3.340651 1_555
Ba2 S2 3.233006 1_555
Ba2 S4 3.233018 1_545
Ba2 S5 3.235863 1_545
Ba2 S1 3.235876 1_556
Ba2 S8 3.263333 1_655
Ba2 S11 3.263333 1_545
Ba2 S8 3.340651 1_545
Ba2 S11 3.340651 1_555
Cu0 S2 2.331902 1_555
Cu0 S8 2.333764 1_555
Cu0 S5 2.370310 1_555
Cu0 S11 2.385789 1_555
Cu1 S4 2.331902 1_655
Cu1 S11 2.333768 1_555
Cu1 S1 2.370311 1_556
Cu1 S8 2.385803 1_655
Cu2 S3 2.331902 1_555
Cu2 S7 2.333764 1_555
Cu2 S0 2.370310 1_555
Cu2 S10 2.385789 1_555
Cu3 S0 2.331902 1_455
Cu3 S9 2.333768 1_555
Cu3 S3 2.370311 1_555
Cu3 S6 2.385803 1_455
Cu4 S1 2.331902 1_565
Cu4 S10 2.333768 1_555
Cu4 S4 2.370311 1_554
Cu4 S7 2.385803 1_565
Cu5 S5 2.331902 1_545
Cu5 S6 2.333768 1_555
Cu5 S2 2.370311 1_555
Cu5 S9 2.385803 1_545
S0 Sn0 2.457568 1_565
S1 Sn2 2.457568 1_655
S2 Sn1 2.457567 1_545
S3 Sn0 2.457567 1_455
S4 Sn2 2.457568 1_566
S5 Sn1 2.457568 1_655
S6 Sn1 2.452109 1_655
S7 Sn0 2.452097 1_555
S8 Sn1 2.452097 1_555
S9 Sn0 2.452109 1_565
S10 Sn2 2.452109 1_555
S11 Sn2 2.452109 1_556
