# generated using pymatgen
data_Tl6V7P5O31
_symmetry_space_group_name_H-M   'P 1'
_cell_length_a   7.27913800
_cell_length_b   13.58478500
_cell_length_c   14.72061300
_cell_angle_alpha   90.00000000
_cell_angle_beta   90.00000000
_cell_angle_gamma   90.00000000
_symmetry_Int_Tables_number   1
_chemical_formula_structural   Tl6V7P5O31
_chemical_formula_sum   'Tl12 V14 P10 O62'
_cell_volume   1455.65554064
_cell_formula_units_Z   2
loop_
 _symmetry_equiv_pos_site_id
 _symmetry_equiv_pos_as_xyz
  1  'x, y, z'
loop_
 _atom_site_type_symbol
 _atom_site_label
 _atom_site_symmetry_multiplicity
 _atom_site_fract_x
 _atom_site_fract_y
 _atom_site_fract_z
 _atom_site_occupancy
  Tl  Tl0  1  0.87620500  0.00000000  0.57639700  1
  Tl  Tl1  1  0.12379500  0.50000000  0.07639700  1
  Tl  Tl2  1  0.14607200  0.25685600  0.90422500  1
  Tl  Tl3  1  0.14607200  0.74314400  0.90422500  1
  Tl  Tl4  1  0.85392800  0.24314400  0.40422500  1
  Tl  Tl5  1  0.85392800  0.75685600  0.40422500  1
  Tl  Tl6  1  0.38448000  0.00000000  0.05199500  1
  Tl  Tl7  1  0.61552000  0.50000000  0.55199500  1
  Tl  Tl8  1  0.35567700  0.23611800  0.22175900  1
  Tl  Tl9  1  0.35567700  0.76388200  0.22175900  1
  Tl  Tl10  1  0.64432300  0.26388200  0.72175900  1
  Tl  Tl11  1  0.64432300  0.73611800  0.72175900  1
  V  V0  1  0.90942000  0.12714300  0.13576300  1
  V  V1  1  0.90942000  0.87285700  0.13576300  1
  V  V2  1  0.09058000  0.37285700  0.63576300  1
  V  V3  1  0.09058000  0.62714300  0.63576300  1
  V  V4  1  0.49344800  0.00000000  0.80249200  1
  V  V5  1  0.50655200  0.50000000  0.30249200  1
  V  V6  1  0.99356400  0.00000000  0.81913000  1
  V  V7  1  0.00643600  0.50000000  0.31913000  1
  V  V8  1  0.59129900  0.37553200  0.98490400  1
  V  V9  1  0.59129900  0.62446800  0.98490400  1
  V  V10  1  0.40870100  0.12446800  0.48490400  1
  V  V11  1  0.40870100  0.87553200  0.48490400  1
  V  V12  1  0.02141700  0.00000000  0.32204300  1
  V  V13  1  0.97858300  0.50000000  0.82204300  1
  P  P0  1  0.71430100  0.15028300  0.94110500  1
  P  P1  1  0.71430100  0.84971700  0.94110500  1
  P  P2  1  0.28569900  0.34971700  0.44110500  1
  P  P3  1  0.28569900  0.65028300  0.44110500  1
  P  P4  1  0.78357500  0.35000000  0.18032900  1
  P  P5  1  0.78357500  0.65000000  0.18032900  1
  P  P6  1  0.21642500  0.15000000  0.68032900  1
  P  P7  1  0.21642500  0.85000000  0.68032900  1
  P  P8  1  0.39153900  0.50000000  0.82786100  1
  P  P9  1  0.60846100  0.00000000  0.32786100  1
  O  O0  1  0.04021700  0.89418000  0.72364500  1
  O  O1  1  0.04021700  0.10582000  0.72364500  1
  O  O2  1  0.95978300  0.60582000  0.22364500  1
  O  O3  1  0.95978300  0.39418000  0.22364500  1
  O  O4  1  0.42319700  0.31247600  0.03158600  1
  O  O5  1  0.42319700  0.68752400  0.03158600  1
  O  O6  1  0.57680300  0.18752400  0.53158600  1
  O  O7  1  0.57680300  0.81247600  0.53158600  1
  O  O8  1  0.17330500  0.00000000  0.40734400  1
  O  O9  1  0.82669500  0.50000000  0.90734400  1
  O  O10  1  0.21329900  0.00000000  0.85835200  1
  O  O11  1  0.78670100  0.50000000  0.35835200  1
  O  O12  1  0.52787200  0.50000000  0.01819100  1
  O  O13  1  0.47212800  0.00000000  0.51819100  1
  O  O14  1  0.65155000  0.00000000  0.22711800  1
  O  O15  1  0.34845000  0.50000000  0.72711800  1
  O  O16  1  0.89004000  0.10590300  0.89848300  1
  O  O17  1  0.89004000  0.89409700  0.89848300  1
  O  O18  1  0.10996000  0.39409700  0.39848300  1
  O  O19  1  0.10996000  0.60590300  0.39848300  1
  O  O20  1  0.70653400  0.13064800  0.04510600  1
  O  O21  1  0.70653400  0.86935200  0.04510600  1
  O  O22  1  0.29346600  0.36935200  0.54510600  1
  O  O23  1  0.29346600  0.63064800  0.54510600  1
  O  O24  1  0.03195900  0.10704900  0.25696000  1
  O  O25  1  0.03195900  0.89295100  0.25696000  1
  O  O26  1  0.96804100  0.39295100  0.75696000  1
  O  O27  1  0.96804100  0.60704900  0.75696000  1
  O  O28  1  0.53758200  0.10489200  0.89906400  1
  O  O29  1  0.53758200  0.89510800  0.89906400  1
  O  O30  1  0.46241800  0.39510800  0.39906400  1
  O  O31  1  0.46241800  0.60489200  0.39906400  1
  O  O32  1  0.77531300  0.23698900  0.19934200  1
  O  O33  1  0.77531300  0.76301100  0.19934200  1
  O  O34  1  0.22468700  0.26301100  0.69934200  1
  O  O35  1  0.22468700  0.73698900  0.69934200  1
  O  O36  1  0.39215500  0.89425200  0.72296000  1
  O  O37  1  0.39215500  0.10574800  0.72296000  1
  O  O38  1  0.60784500  0.60574800  0.22296000  1
  O  O39  1  0.60784500  0.39425200  0.22296000  1
  O  O40  1  0.72192300  0.26299400  0.92107100  1
  O  O41  1  0.72192300  0.73700600  0.92107100  1
  O  O42  1  0.27807700  0.23700600  0.42107100  1
  O  O43  1  0.27807700  0.76299400  0.42107100  1
  O  O44  1  0.49202300  0.40443600  0.85900300  1
  O  O45  1  0.49202300  0.59556400  0.85900300  1
  O  O46  1  0.50797700  0.09556400  0.35900300  1
  O  O47  1  0.50797700  0.90443600  0.35900300  1
  O  O48  1  0.07575500  0.18759700  0.08453000  1
  O  O49  1  0.07575500  0.81240300  0.08453000  1
  O  O50  1  0.92424500  0.31240300  0.58453000  1
  O  O51  1  0.92424500  0.68759700  0.58453000  1
  O  O52  1  0.71394700  0.00000000  0.76400700  1
  O  O53  1  0.28605300  0.50000000  0.26400700  1
  O  O54  1  0.96173100  0.00000000  0.10777400  1
  O  O55  1  0.03826900  0.50000000  0.60777400  1
  O  O56  1  0.79173700  0.36959500  0.07637800  1
  O  O57  1  0.79173700  0.63040500  0.07637800  1
  O  O58  1  0.20826300  0.13040500  0.57637800  1
  O  O59  1  0.20826300  0.86959500  0.57637800  1
  O  O60  1  0.20062300  0.50000000  0.88403000  1
  O  O61  1  0.79937700  0.00000000  0.38403000  1
loop_
_geom_bond_atom_site_label_1
_geom_bond_atom_site_label_2
_geom_bond_distance
_geom_bond_site_symmetry_2
O0 P7 1.553050 1_555
O0 V6 2.039009 1_465
O1 P6 1.553050 1_555
O1 V6 2.039009 1_455
O2 P5 1.553050 1_555
O2 V7 2.039009 1_655
O3 P4 1.553050 1_555
O3 V7 2.039009 1_655
O4 V8 1.644166 1_554
O4 Tl2 2.855718 1_554
O5 V9 1.644166 1_554
O5 Tl3 2.855718 1_554
O6 V10 1.644166 1_555
O6 Tl4 2.855718 1_555
O7 V11 1.644166 1_555
O7 Tl5 2.855718 1_555
O8 V12 1.673058 1_555
O9 V13 1.673058 1_555
O10 V6 1.700500 1_455
O10 V4 2.198790 1_555
O11 V7 1.700500 1_655
O11 V5 2.198790 1_555
O12 V9 1.819976 1_554
O12 V8 1.819976 1_554
O13 V10 1.819976 1_555
O13 V11 1.819976 1_545
O14 P9 1.515804 1_555
O15 P8 1.515804 1_555
O16 P0 1.547115 1_555
O16 V6 2.000537 1_555
O16 Tl2 2.772312 1_655
O17 P1 1.547115 1_555
O17 V6 2.000537 1_565
O17 Tl3 2.772312 1_655
O18 P2 1.547115 1_555
O18 V7 2.000537 1_555
O18 Tl4 2.772312 1_455
O19 P3 1.547115 1_555
O19 V7 2.000537 1_555
O19 Tl5 2.772312 1_455
O20 P0 1.555050 1_554
O20 V0 1.991048 1_555
O21 P1 1.555050 1_554
O21 V1 1.991048 1_555
O22 P2 1.555050 1_555
O22 V2 1.991048 1_555
O23 P3 1.555050 1_555
O23 V3 1.991048 1_555
O24 V12 1.743152 1_555
O24 V0 2.013239 1_455
O25 V12 1.743152 1_565
O25 V1 2.013239 1_455
O26 V13 1.743152 1_555
O26 V2 2.013239 1_655
O27 V13 1.743152 1_555
O27 V3 2.013239 1_655
O28 P0 1.554978 1_555
O28 V4 2.038281 1_555
O29 P1 1.554978 1_555
O29 V4 2.038281 1_565
O30 P2 1.554978 1_555
O30 V5 2.038281 1_555
O31 P3 1.554978 1_555
O31 V5 2.038281 1_555
O32 P4 1.561692 1_555
O32 V0 2.013864 1_555
O33 P5 1.561692 1_555
O33 V1 2.013864 1_555
O34 P6 1.561692 1_555
O34 V2 2.013864 1_555
O35 P7 1.561692 1_555
O35 V3 2.013864 1_555
O36 P7 1.546437 1_555
O36 V4 1.994503 1_565
O36 Tl11 2.825676 1_555
O37 P6 1.546437 1_555
O37 V4 1.994503 1_555
O37 Tl10 2.825676 1_555
O38 P5 1.546437 1_555
O38 V5 1.994503 1_555
O38 Tl9 2.825676 1_555
O39 P4 1.546437 1_555
O39 V5 1.994503 1_555
O39 Tl8 2.825676 1_555
O40 P0 1.560284 1_555
O40 V8 2.030833 1_555
O41 P1 1.560284 1_555
O41 V9 2.030833 1_555
O42 P2 1.560284 1_555
O42 V10 2.030833 1_555
O43 P3 1.560284 1_555
O43 V11 2.030833 1_555
O44 P8 1.559014 1_555
O44 V8 2.027624 1_555
O45 P8 1.559014 1_555
O45 V9 2.027624 1_555
O46 P9 1.559014 1_555
O46 V10 2.027624 1_555
O47 P9 1.559014 1_565
O47 V11 2.027624 1_555
O48 V0 1.645972 1_455
O48 Tl2 2.862167 1_554
O49 V1 1.645972 1_455
O49 Tl3 2.862167 1_554
O50 V2 1.645972 1_655
O50 Tl4 2.862167 1_555
O51 V3 1.645972 1_655
O51 Tl5 2.862167 1_555
O52 V4 1.702090 1_555
O52 V6 2.191159 1_555
O53 V5 1.702090 1_555
O53 V7 2.191159 1_555
O54 V1 1.816041 1_545
O54 V0 1.816041 1_555
O55 V2 1.816041 1_555
O55 V3 1.816041 1_555
O56 P4 1.554339 1_555
O56 V8 1.987068 1_554
O57 P5 1.554339 1_555
O57 V9 1.987068 1_554
O58 P6 1.554339 1_555
O58 V10 1.987068 1_555
O59 P7 1.554339 1_555
O59 V11 1.987068 1_555
O60 P8 1.617079 1_555
O60 V13 1.856052 1_455
O61 P9 1.617079 1_555
O61 V12 1.856052 1_655
