# generated using pymatgen
data_Ca2MnAlO5
_symmetry_space_group_name_H-M   'P 1'
_cell_length_a   5.35092627
_cell_length_b   5.61678950
_cell_length_c   8.37289785
_cell_angle_alpha   109.59584796
_cell_angle_beta   108.63501439
_cell_angle_gamma   90.00000147
_symmetry_Int_Tables_number   1
_chemical_formula_structural   Ca2MnAlO5
_chemical_formula_sum   'Ca4 Mn2 Al2 O10'
_cell_volume   223.01907493
_cell_formula_units_Z   2
loop_
 _symmetry_equiv_pos_site_id
 _symmetry_equiv_pos_as_xyz
  1  'x, y, z'
loop_
 _atom_site_type_symbol
 _atom_site_label
 _atom_site_symmetry_multiplicity
 _atom_site_fract_x
 _atom_site_fract_y
 _atom_site_fract_z
 _atom_site_occupancy
  Ca  Ca0  1  0.12211800  0.64169300  0.22333200  1
  Ca  Ca1  1  0.39874100  0.91835400  0.77666700  1
  Ca  Ca2  1  0.89878600  0.35830700  0.77666800  1
  Ca  Ca3  1  0.62207400  0.08164600  0.22333300  1
  Mn  Mn0  1  0.49899900  0.50000000  0.00000000  1
  Mn  Mn1  1  0.99898200  0.00000000  0.00000000  1
  Al  Al0  1  0.28719300  0.32323500  0.50001100  1
  Al  Al1  1  0.78718200  0.67676500  0.49998900  1
  O  O0  1  0.61963400  0.39539900  0.50000500  1
  O  O1  1  0.11963000  0.60460100  0.49999500  1
  O  O2  1  0.61445800  0.72176000  0.29716600  1
  O  O3  1  0.31729300  0.27824000  0.70283500  1
  O  O4  1  0.11447800  0.07542500  0.29719000  1
  O  O5  1  0.81728700  0.92457500  0.70281000  1
  O  O6  1  0.23627000  0.73923700  0.97087500  1
  O  O7  1  0.26539600  0.26076300  0.02912500  1
  O  O8  1  0.76542600  0.26839200  0.02917400  1
  O  O9  1  0.73625300  0.73160800  0.97082600  1
loop_
_geom_bond_atom_site_label_1
_geom_bond_atom_site_label_2
_geom_bond_distance
_geom_bond_site_symmetry_2
Ca0 O4 2.307529 1_565
Ca0 O1 2.398551 1_555
Ca0 O7 2.504560 1_555
Ca0 O2 2.509496 1_555
Ca0 O8 2.532336 1_455
Ca0 O6 2.596802 1_554
Ca0 O9 2.629548 1_454
Ca0 O2 2.974939 1_455
Ca1 O3 2.307420 1_565
Ca1 O1 2.398579 1_555
Ca1 O9 2.504426 1_555
Ca1 O5 2.509796 1_555
Ca1 O6 2.532369 1_555
Ca1 O8 2.597302 1_566
Ca1 O7 2.629279 1_566
Ca1 O5 2.974697 1_455
Ca2 O5 2.307530 1_545
Ca2 O0 2.398553 1_555
Ca2 O6 2.504557 1_655
Ca2 O3 2.509497 1_655
Ca2 O9 2.532333 1_555
Ca2 O7 2.596805 1_656
Ca2 O8 2.629550 1_556
Ca2 O3 2.974935 1_555
Ca3 O2 2.307424 1_545
Ca3 O0 2.398580 1_555
Ca3 O8 2.504423 1_555
Ca3 O4 2.509802 1_655
Ca3 O7 2.532366 1_555
Ca3 O9 2.597305 1_544
Ca3 O6 2.629282 1_544
Ca3 O4 2.974692 1_555
Mn0 O8 1.942939 1_555
Mn0 O9 1.942943 1_554
Mn0 O7 1.960154 1_555
Mn0 O6 1.960158 1_554
Mn0 O3 2.250057 1_554
Mn0 O2 2.250064 1_555
Mn1 O6 1.942971 1_644
Mn1 O7 1.942975 1_655
Mn1 O9 1.960143 1_544
Mn1 O8 1.960146 1_555
Mn1 O4 2.250192 1_655
Mn1 O5 2.250192 1_544
Al0 O3 1.756947 1_555
Al0 O4 1.756950 1_555
Al0 O1 1.817022 1_555
Al0 O0 1.824481 1_555
Al1 O2 1.756940 1_555
Al1 O5 1.756951 1_555
Al1 O0 1.817024 1_555
Al1 O1 1.824487 1_655
