# generated using pymatgen
data_YP4NO12
_symmetry_space_group_name_H-M   'P 1'
_cell_length_a   8.02102567
_cell_length_b   8.02102567
_cell_length_c   17.58961500
_cell_angle_alpha   90.00000000
_cell_angle_beta   90.00000000
_cell_angle_gamma   98.05602575
_symmetry_Int_Tables_number   1
_chemical_formula_structural   YP4NO12
_chemical_formula_sum   'Y4 P16 N4 O48'
_cell_volume   1120.49268641
_cell_formula_units_Z   4
loop_
 _symmetry_equiv_pos_site_id
 _symmetry_equiv_pos_as_xyz
  1  'x, y, z'
loop_
 _atom_site_type_symbol
 _atom_site_label
 _atom_site_symmetry_multiplicity
 _atom_site_fract_x
 _atom_site_fract_y
 _atom_site_fract_z
 _atom_site_occupancy
  Y  Y0  1  0.90450200  0.52983300  0.14005400  1
  Y  Y1  1  0.47016700  0.09549800  0.35994600  1
  Y  Y2  1  0.09549800  0.47016700  0.64005400  1
  Y  Y3  1  0.52983300  0.90450200  0.85994600  1
  P  P0  1  0.15752200  0.15752200  0.50000000  1
  P  P1  1  0.84247800  0.84247800  0.00000000  1
  P  P2  1  0.27669900  0.82877500  0.51696000  1
  P  P3  1  0.17122500  0.72330100  0.98304000  1
  P  P4  1  0.72330100  0.17122500  0.01696000  1
  P  P5  1  0.82877500  0.27669900  0.48304000  1
  P  P6  1  0.46177200  0.77625800  0.65685500  1
  P  P7  1  0.22374200  0.53822800  0.84314500  1
  P  P8  1  0.53822800  0.22374200  0.15685500  1
  P  P9  1  0.77625800  0.46177200  0.34314500  1
  P  P10  1  0.81062800  0.77808000  0.69602800  1
  P  P11  1  0.22192000  0.18937200  0.80397200  1
  P  P12  1  0.18937200  0.22192000  0.19602800  1
  P  P13  1  0.77808000  0.81062800  0.30397200  1
  P  P14  1  0.87408300  0.12591700  0.75000000  1
  P  P15  1  0.12591700  0.87408300  0.25000000  1
  N  N0  1  0.28330000  0.54519000  0.36760000  1
  N  N1  1  0.45481000  0.71670000  0.13240000  1
  N  N2  1  0.71670000  0.45481000  0.86760000  1
  N  N3  1  0.54519000  0.28330000  0.63240000  1
  O  O0  1  0.27343200  0.18992300  0.43328100  1
  O  O1  1  0.81007700  0.72656800  0.06671900  1
  O  O2  1  0.72656800  0.81007700  0.93328100  1
  O  O3  1  0.18992300  0.27343200  0.56671900  1
  O  O4  1  0.96528000  0.14857000  0.47206300  1
  O  O5  1  0.85143000  0.03472000  0.02793700  1
  O  O6  1  0.03472000  0.85143000  0.97206300  1
  O  O7  1  0.14857000  0.96528000  0.52793700  1
  O  O8  1  0.18128300  0.65765600  0.53085700  1
  O  O9  1  0.34234400  0.81871700  0.96914300  1
  O  O10  1  0.81871700  0.34234400  0.03085700  1
  O  O11  1  0.65765600  0.18128300  0.46914300  1
  O  O12  1  0.37897400  0.86651600  0.44585200  1
  O  O13  1  0.13348400  0.62102600  0.05414800  1
  O  O14  1  0.62102600  0.13348400  0.94585200  1
  O  O15  1  0.86651600  0.37897400  0.55414800  1
  O  O16  1  0.40507300  0.88333300  0.58777000  1
  O  O17  1  0.11666700  0.59492700  0.91223000  1
  O  O18  1  0.59492700  0.11666700  0.08777000  1
  O  O19  1  0.88333300  0.40507300  0.41223000  1
  O  O20  1  0.37103000  0.59816100  0.65601400  1
  O  O21  1  0.40183900  0.62897000  0.84398600  1
  O  O22  1  0.62897000  0.40183900  0.15601400  1
  O  O23  1  0.59816100  0.37103000  0.34398600  1
  O  O24  1  0.44335300  0.87192500  0.72927400  1
  O  O25  1  0.12807500  0.55664700  0.77072600  1
  O  O26  1  0.55664700  0.12807500  0.22927400  1
  O  O27  1  0.87192500  0.44335300  0.27072600  1
  O  O28  1  0.65558300  0.77484800  0.63560400  1
  O  O29  1  0.22515200  0.34441700  0.86439600  1
  O  O30  1  0.34441700  0.22515200  0.13560400  1
  O  O31  1  0.77484800  0.65558300  0.36439600  1
  O  O32  1  0.74276000  0.73780100  0.77460000  1
  O  O33  1  0.26219900  0.25724000  0.72540000  1
  O  O34  1  0.25724000  0.26219900  0.27460000  1
  O  O35  1  0.73780100  0.74276000  0.22540000  1
  O  O36  1  0.93436600  0.68079400  0.65923400  1
  O  O37  1  0.31920600  0.06563400  0.84076600  1
  O  O38  1  0.06563400  0.31920600  0.15923400  1
  O  O39  1  0.68079400  0.93436600  0.34076600  1
  O  O40  1  0.89026900  0.97492600  0.69087100  1
  O  O41  1  0.02507400  0.10973100  0.80912900  1
  O  O42  1  0.10973100  0.02507400  0.19087100  1
  O  O43  1  0.97492600  0.89026900  0.30912900  1
  O  O44  1  0.90701300  0.28589100  0.70560200  1
  O  O45  1  0.71410900  0.09298700  0.79439800  1
  O  O46  1  0.09298700  0.71410900  0.20560200  1
  O  O47  1  0.28589100  0.90701300  0.29439800  1
loop_
_geom_bond_atom_site_label_1
_geom_bond_atom_site_label_2
_geom_bond_distance
_geom_bond_site_symmetry_2
O0 P0 1.497144 1_555
O0 Y1 2.250041 1_555
O1 P1 1.497144 1_555
O1 Y0 2.250041 1_555
O2 P1 1.497144 1_556
O2 Y3 2.250041 1_555
O3 P0 1.497144 1_555
O3 Y2 2.250041 1_555
O4 P0 1.610371 1_655
O4 P5 1.614844 1_555
O5 P1 1.610371 1_545
O5 P4 1.614844 1_555
O6 P1 1.610371 1_456
O6 P3 1.614844 1_555
O7 P0 1.610371 1_565
O7 P2 1.614844 1_555
O8 P2 1.494977 1_555
O8 Y2 2.476736 1_555
O9 P3 1.494977 1_555
O9 Y3 2.476736 1_555
O10 P4 1.494977 1_555
O10 Y0 2.476736 1_555
O11 P5 1.494977 1_555
O11 Y1 2.476736 1_555
O12 P2 1.503136 1_555
O12 Y1 2.411458 1_565
O13 P3 1.503136 1_554
O13 Y0 2.411458 1_455
O14 P4 1.503136 1_556
O14 Y3 2.411458 1_545
O15 P5 1.503136 1_555
O15 Y2 2.411458 1_655
O16 P6 1.590783 1_555
O16 P2 1.636091 1_555
O17 P7 1.590783 1_555
O17 P3 1.636091 1_555
O18 P8 1.590783 1_555
O18 P4 1.636091 1_555
O19 P9 1.590783 1_555
O19 P5 1.636091 1_555
O20 P6 1.509710 1_555
O20 Y2 2.319737 1_555
O21 P7 1.509710 1_555
O21 Y3 2.319737 1_555
O22 P8 1.509710 1_555
O22 Y0 2.319737 1_555
O23 P9 1.509710 1_555
O23 Y1 2.319737 1_555
O24 P6 1.505007 1_555
O24 Y3 2.404496 1_555
O25 P7 1.505007 1_555
O25 Y2 2.404496 1_555
O26 P8 1.505007 1_555
O26 Y1 2.404496 1_555
O27 P9 1.505007 1_555
O27 Y0 2.404496 1_555
O28 P6 1.600452 1_555
O28 P10 1.633354 1_555
O29 P7 1.600452 1_555
O29 P11 1.633354 1_555
O30 P8 1.600452 1_555
O30 P12 1.633354 1_555
O31 P9 1.600452 1_555
O31 P13 1.633354 1_555
O32 P10 1.503825 1_555
O32 Y3 2.756528 1_555
O33 P11 1.503825 1_555
O33 Y2 2.756528 1_555
O34 P12 1.503825 1_555
O34 Y1 2.756528 1_555
O35 P13 1.503825 1_555
O35 Y0 2.756528 1_555
O36 P10 1.493292 1_555
O36 Y2 2.291387 1_655
O37 P11 1.493292 1_555
O37 Y3 2.291387 1_545
O38 P12 1.493292 1_555
O38 Y0 2.291387 1_455
O39 P13 1.493292 1_555
O39 Y1 2.291387 1_565
O40 P14 1.615368 1_565
O40 P10 1.620663 1_555
O41 P14 1.615368 1_455
O41 P11 1.620663 1_555
O42 P15 1.615368 1_545
O42 P12 1.620663 1_555
O43 P15 1.615368 1_655
O43 P13 1.620663 1_555
O44 P14 1.493698 1_555
O44 Y2 2.274510 1_655
O45 P14 1.493698 1_555
O45 Y3 2.274510 1_545
O46 P15 1.493698 1_555
O46 Y0 2.274510 1_455
O47 P15 1.493698 1_555
O47 Y1 2.274510 1_565
