# generated using pymatgen
data_CaCo4(CuO4)3
_symmetry_space_group_name_H-M   'P 1'
_cell_length_a   7.25866804
_cell_length_b   7.25880461
_cell_length_c   7.25917908
_cell_angle_alpha   89.99981189
_cell_angle_beta   89.99981633
_cell_angle_gamma   90.00150300
_symmetry_Int_Tables_number   1
_chemical_formula_structural   CaCo4(CuO4)3
_chemical_formula_sum   'Ca2 Co8 Cu6 O24'
_cell_volume   382.48072349
_cell_formula_units_Z   2
loop_
 _symmetry_equiv_pos_site_id
 _symmetry_equiv_pos_as_xyz
  1  'x, y, z'
loop_
 _atom_site_type_symbol
 _atom_site_label
 _atom_site_symmetry_multiplicity
 _atom_site_fract_x
 _atom_site_fract_y
 _atom_site_fract_z
 _atom_site_occupancy
  Ca  Ca0  1  0.00001400  0.99997600  0.99999300  1
  Ca  Ca1  1  0.49998600  0.50002300  0.50000700  1
  Co  Co0  1  0.25000000  0.25000100  0.25000000  1
  Co  Co1  1  0.75000000  0.74999900  0.75000000  1
  Co  Co2  1  0.24999900  0.74999900  0.75000000  1
  Co  Co3  1  0.75000100  0.25000100  0.25000000  1
  Co  Co4  1  0.25000000  0.75000000  0.25000000  1
  Co  Co5  1  0.75000000  0.25000100  0.75000000  1
  Co  Co6  1  0.75000000  0.74999900  0.25000000  1
  Co  Co7  1  0.24999900  0.25000100  0.75000000  1
  Cu  Cu0  1  0.99999500  0.50000000  0.49999800  1
  Cu  Cu1  1  0.99999800  0.00000700  0.49999900  1
  Cu  Cu2  1  0.50000300  0.49999200  0.00000200  1
  Cu  Cu3  1  0.99999700  0.49999200  0.00000100  1
  Cu  Cu4  1  0.50000200  0.00000700  0.49999600  1
  Cu  Cu5  1  0.50000600  0.00000400  0.00000100  1
  O  O0  1  0.80917700  0.49996400  0.32577600  1
  O  O1  1  0.30918400  0.99999400  0.82578700  1
  O  O2  1  0.69082200  0.00003600  0.17422200  1
  O  O3  1  0.19081700  0.50000700  0.67421600  1
  O  O4  1  0.19080400  0.49999600  0.32576400  1
  O  O5  1  0.69080600  0.00000500  0.82576600  1
  O  O6  1  0.17422100  0.69084300  0.99999700  1
  O  O7  1  0.67423200  0.19084700  0.49998400  1
  O  O8  1  0.00000900  0.82578500  0.30918000  1
  O  O9  1  0.50001800  0.32578400  0.80918100  1
  O  O10  1  0.49999900  0.67419800  0.80916900  1
  O  O11  1  0.99997300  0.17420700  0.30916500  1
  O  O12  1  0.17423000  0.30917500  0.00000100  1
  O  O13  1  0.67423500  0.80917500  0.50000300  1
  O  O14  1  0.49999000  0.67421200  0.19081800  1
  O  O15  1  0.99998200  0.17421800  0.69082200  1
  O  O16  1  0.30919600  0.00000300  0.17423500  1
  O  O17  1  0.80919300  0.49999500  0.67423500  1
  O  O18  1  0.32577800  0.80915600  0.50000300  1
  O  O19  1  0.82576900  0.30915300  0.00001600  1
  O  O20  1  0.00000100  0.82579900  0.69083400  1
  O  O21  1  0.50002700  0.32579500  0.19083300  1
  O  O22  1  0.32576900  0.19082500  0.49999900  1
  O  O23  1  0.82576600  0.69082500  0.99999800  1
loop_
_geom_bond_atom_site_label_1
_geom_bond_atom_site_label_2
_geom_bond_distance
_geom_bond_site_symmetry_2
Ca0 O6 2.575730 1_555
Ca0 O20 2.575875 1_555
Ca0 O23 2.575932 1_455
Ca0 O1 2.575935 1_555
Ca0 O8 2.576095 1_556
Ca0 O12 2.576122 1_566
Ca0 O19 2.576144 1_466
Ca0 O16 2.576146 1_566
Ca0 O11 2.576150 1_466
Ca0 O2 2.576156 1_466
Ca0 O15 2.576175 1_465
Ca0 O5 2.576257 1_465
Ca1 O18 2.575734 1_555
Ca1 O10 2.575887 1_555
Ca1 O3 2.575939 1_555
Ca1 O13 2.575942 1_555
Ca1 O14 2.576100 1_555
Ca1 O22 2.576119 1_555
Ca1 O7 2.576141 1_555
Ca1 O4 2.576150 1_555
Ca1 O21 2.576151 1_555
Ca1 O0 2.576157 1_555
Ca1 O9 2.576183 1_555
Ca1 O17 2.576254 1_555
Co0 O4 1.944265 1_555
Co0 O16 1.944287 1_555
Co0 O12 1.944339 1_555
Co0 O22 1.944340 1_555
Co0 O11 1.944433 1_455
Co0 O21 1.944437 1_555
Co1 O20 1.944271 1_655
Co1 O10 1.944278 1_555
Co1 O13 1.944318 1_555
Co1 O17 1.944323 1_555
Co1 O23 1.944324 1_555
Co1 O5 1.944340 1_565
Co2 O3 1.944243 1_555
Co2 O1 1.944274 1_555
Co2 O20 1.944280 1_555
Co2 O10 1.944301 1_555
Co2 O6 1.944303 1_555
Co2 O18 1.944307 1_555
Co3 O0 1.944020 1_555
Co3 O2 1.944043 1_555
Co3 O11 1.944090 1_555
Co3 O21 1.944107 1_555
Co3 O19 1.944188 1_555
Co3 O7 1.944193 1_555
Co4 O8 1.944223 1_555
Co4 O14 1.944225 1_555
Co4 O16 1.944297 1_565
Co4 O4 1.944301 1_555
Co4 O18 1.944350 1_555
Co4 O6 1.944353 1_554
Co5 O15 1.944154 1_555
Co5 O9 1.944159 1_555
Co5 O17 1.944231 1_555
Co5 O5 1.944248 1_555
Co5 O19 1.944413 1_556
Co5 O7 1.944414 1_555
Co6 O8 1.944322 1_655
Co6 O14 1.944334 1_555
Co6 O23 1.944350 1_554
Co6 O13 1.944358 1_555
Co6 O0 1.944527 1_555
Co6 O2 1.944547 1_565
Co7 O12 1.944350 1_556
Co7 O22 1.944355 1_555
Co7 O3 1.944355 1_555
Co7 O15 1.944367 1_455
Co7 O1 1.944373 1_545
Co7 O9 1.944386 1_555
Cu0 O17 1.875604 1_555
Cu0 O0 1.875622 1_555
Cu0 O3 1.875624 1_655
Cu0 O4 1.875627 1_655
Cu1 O11 1.875622 1_555
Cu1 O15 1.875623 1_555
Cu1 O8 1.875656 1_645
Cu1 O20 1.875667 1_645
Cu2 O21 1.875591 1_555
Cu2 O9 1.875598 1_554
Cu2 O14 1.875630 1_555
Cu2 O10 1.875646 1_554
Cu3 O12 1.875651 1_655
Cu3 O19 1.875696 1_555
Cu3 O23 1.875727 1_554
Cu3 O6 1.875741 1_654
Cu4 O22 1.875657 1_555
Cu4 O7 1.875711 1_555
Cu4 O13 1.875732 1_545
Cu4 O18 1.875741 1_545
Cu5 O5 1.875583 1_554
Cu5 O1 1.875604 1_544
Cu5 O2 1.875607 1_555
Cu5 O16 1.875632 1_555
