# generated using pymatgen
data_Mo3P
_symmetry_space_group_name_H-M   'P 1'
_cell_length_a   4.81725157
_cell_length_b   7.33952268
_cell_length_c   7.33952376
_cell_angle_alpha   83.81743925
_cell_angle_beta   70.84214494
_cell_angle_gamma   70.84214899
_symmetry_Int_Tables_number   1
_chemical_formula_structural   Mo3P
_chemical_formula_sum   'Mo12 P4'
_cell_volume   231.55144019
_cell_formula_units_Z   4
loop_
 _symmetry_equiv_pos_site_id
 _symmetry_equiv_pos_as_xyz
  1  'x, y, z'
loop_
 _atom_site_type_symbol
 _atom_site_label
 _atom_site_symmetry_multiplicity
 _atom_site_fract_x
 _atom_site_fract_y
 _atom_site_fract_z
 _atom_site_occupancy
  Mo  Mo0  1  0.46795133  -0.00000000  0.59844058  1
  Mo  Mo1  1  0.93360809  0.59844058  0.00000000  1
  Mo  Mo2  1  0.53204867  0.40155942  0.00000000  1
  Mo  Mo3  1  0.06639191  -0.00000000  0.40155942  1
  Mo  Mo4  1  0.35504464  0.64495536  0.64495536  1
  Mo  Mo5  1  0.00000000  0.64495536  0.35504464  1
  Mo  Mo6  1  -0.00000000  0.35504464  0.64495536  1
  Mo  Mo7  1  0.64495536  0.35504464  0.35504464  1
  Mo  Mo8  1  0.67370446  0.00000000  0.18494945  1
  Mo  Mo9  1  0.14134609  0.18494945  -0.00000000  1
  Mo  Mo10  1  0.32629554  0.81505055  -0.00000000  1
  Mo  Mo11  1  0.85865391  0.00000000  0.81505055  1
  P  P0  1  0.20840489  0.29159511  0.29159511  1
  P  P1  1  0.50000000  0.29159511  0.70840489  1
  P  P2  1  0.50000000  0.70840489  0.29159511  1
  P  P3  1  0.79159511  0.70840489  0.70840489  1
loop_
_geom_bond_atom_site_label_1
_geom_bond_atom_site_label_2
_geom_bond_distance
_geom_bond_site_symmetry_2
Mo0 P1 2.434387 1_555
Mo0 P3 2.434388 1_545
Mo0 Mo11 2.834391 1_555
Mo0 Mo11 2.842505 1_455
Mo0 Mo8 2.866757 1_555
Mo0 Mo9 3.069338 1_556
Mo0 Mo10 3.069338 1_546
Mo1 P3 2.434388 1_554
Mo1 P2 2.434388 1_555
Mo1 Mo10 2.834392 1_555
Mo1 Mo10 2.842505 1_655
Mo1 Mo9 2.866757 1_655
Mo1 Mo8 3.069337 1_565
Mo1 Mo11 3.069337 1_564
Mo2 P1 2.434388 1_554
Mo2 P0 2.434388 1_555
Mo2 Mo9 2.834391 1_555
Mo2 Mo9 2.842505 1_655
Mo2 Mo8 3.069337 1_555
Mo3 P0 2.434387 1_555
Mo3 P2 2.434388 1_545
Mo3 Mo8 2.834391 1_555
Mo3 Mo8 2.842505 1_455
Mo3 Mo9 3.069338 1_555
Mo4 P3 2.487669 1_555
Mo4 P3 2.487670 1_455
Mo4 P1 2.489044 1_555
Mo4 P2 2.489044 1_555
Mo5 P2 2.487669 1_555
Mo5 P2 2.487670 1_455
Mo5 P0 2.489044 1_555
Mo5 P3 2.489044 1_455
Mo5 Mo8 2.952727 1_465
Mo6 P1 2.487669 1_455
Mo6 P1 2.487670 1_555
Mo6 P3 2.489044 1_455
Mo6 P0 2.489044 1_555
Mo6 Mo9 2.952727 1_556
Mo7 P0 2.487669 1_555
Mo7 P0 2.487670 1_655
Mo7 P2 2.489044 1_555
Mo7 P1 2.489044 1_555
Mo7 Mo8 2.952727 1_555
Mo7 Mo9 2.952727 1_655
Mo8 P2 2.505572 1_545
Mo8 P0 2.505572 1_555
Mo8 Mo9 2.891931 1_655
Mo8 Mo9 3.140872 1_555
Mo9 P0 2.505572 1_555
Mo9 P1 2.505572 1_554
Mo10 P2 2.505572 1_555
Mo10 P3 2.505572 1_554
Mo10 Mo9 2.564526 1_565
Mo10 Mo2 2.866757 1_555
Mo10 Mo11 2.891932 1_464
Mo10 Mo8 2.891932 1_465
Mo10 Mo4 2.952727 1_554
Mo10 Mo5 2.952727 1_555
Mo10 Mo3 3.069338 1_565
Mo10 Mo8 3.140872 1_565
Mo10 Mo11 3.140872 1_564
Mo11 P3 2.505571 1_545
Mo11 P1 2.505572 1_555
Mo11 Mo8 2.564526 1_556
Mo11 Mo3 2.866757 1_655
Mo11 Mo9 2.891931 1_656
Mo11 Mo6 2.952727 1_655
Mo11 Mo4 2.952727 1_645
Mo11 Mo2 3.069337 1_556
Mo11 Mo9 3.140872 1_556
