# generated using pymatgen
data_K2Cd(BH4)4
_symmetry_space_group_name_H-M   'P 1'
_cell_length_a   7.83188454
_cell_length_b   10.45015000
_cell_length_c   13.77012160
_cell_angle_alpha   90.00000000
_cell_angle_beta   98.14585689
_cell_angle_gamma   90.00000000
_symmetry_Int_Tables_number   1
_chemical_formula_structural   K2Cd(BH4)4
_chemical_formula_sum   'K8 Cd4 B16 H64'
_cell_volume   1115.63604483
_cell_formula_units_Z   4
loop_
 _symmetry_equiv_pos_site_id
 _symmetry_equiv_pos_as_xyz
  1  'x, y, z'
loop_
 _atom_site_type_symbol
 _atom_site_label
 _atom_site_symmetry_multiplicity
 _atom_site_fract_x
 _atom_site_fract_y
 _atom_site_fract_z
 _atom_site_occupancy
  K  K0  1  0.74612000  0.88719800  0.99199800  1
  K  K1  1  0.24612000  0.61280200  0.49199800  1
  K  K2  1  0.25388000  0.11280200  0.00800200  1
  K  K3  1  0.75388000  0.38719800  0.50800200  1
  K  K4  1  0.20560500  0.07703700  0.33813300  1
  K  K5  1  0.70560500  0.42296300  0.83813300  1
  K  K6  1  0.79439500  0.92296300  0.66186700  1
  K  K7  1  0.29439500  0.57703700  0.16186700  1
  Cd  Cd0  1  0.79605800  0.34146700  0.18578300  1
  Cd  Cd1  1  0.29605800  0.15853300  0.68578300  1
  Cd  Cd2  1  0.20394200  0.65853300  0.81421700  1
  Cd  Cd3  1  0.70394200  0.84146700  0.31421700  1
  B  B0  1  0.48271000  0.89623200  0.15944700  1
  B  B1  1  0.98271000  0.60376800  0.65944700  1
  B  B2  1  0.51729000  0.10376800  0.84055300  1
  B  B3  1  0.01729000  0.39623200  0.34055300  1
  B  B4  1  0.25772900  0.96923300  0.56650500  1
  B  B5  1  0.75772900  0.53076700  0.06650500  1
  B  B6  1  0.74227100  0.03076700  0.43349500  1
  B  B7  1  0.24227100  0.46923300  0.93349500  1
  B  B8  1  0.98755400  0.19677600  0.71916900  1
  B  B9  1  0.48755400  0.30322400  0.21916900  1
  B  B10  1  0.01244600  0.80322400  0.28083100  1
  B  B11  1  0.51244600  0.69677600  0.78083100  1
  B  B12  1  0.07301000  0.84134500  0.91054600  1
  B  B13  1  0.57301000  0.65865500  0.41054600  1
  B  B14  1  0.92699000  0.15865500  0.08945400  1
  B  B15  1  0.42699000  0.34134500  0.58945400  1
  H  H0  1  0.37347400  0.97561200  0.17059700  1
  H  H1  1  0.87347400  0.52438800  0.67059700  1
  H  H2  1  0.62652600  0.02438800  0.82940300  1
  H  H3  1  0.12652600  0.47561200  0.32940300  1
  H  H4  1  0.46592600  0.81065600  0.22040900  1
  H  H5  1  0.96592600  0.68934400  0.72040900  1
  H  H6  1  0.53407400  0.18934400  0.77959100  1
  H  H7  1  0.03407400  0.31065600  0.27959100  1
  H  H8  1  0.46235700  0.84504800  0.07918000  1
  H  H9  1  0.96235700  0.65495200  0.57918000  1
  H  H10  1  0.53764300  0.15495200  0.92082000  1
  H  H11  1  0.03764300  0.34504800  0.42082000  1
  H  H12  1  0.62435400  0.95100200  0.17270400  1
  H  H13  1  0.12435400  0.54899800  0.67270400  1
  H  H14  1  0.37564600  0.04899800  0.82729600  1
  H  H15  1  0.87564600  0.45100200  0.32729600  1
  H  H16  1  0.34876500  0.90408000  0.52097100  1
  H  H17  1  0.84876500  0.59592000  0.02097100  1
  H  H18  1  0.65123500  0.09592000  0.47902900  1
  H  H19  1  0.15123500  0.40408000  0.97902900  1
  H  H20  1  0.34628400  0.97600500  0.64997600  1
  H  H21  1  0.84628400  0.52399500  0.14997600  1
  H  H22  1  0.65371600  0.02399500  0.35002400  1
  H  H23  1  0.15371600  0.47600500  0.85002400  1
  H  H24  1  0.23342600  0.07425300  0.52630200  1
  H  H25  1  0.73342600  0.42574700  0.02630200  1
  H  H26  1  0.76657400  0.92574700  0.47369800  1
  H  H27  1  0.26657400  0.57425300  0.97369800  1
  H  H28  1  0.12020700  0.92018800  0.57578800  1
  H  H29  1  0.62020800  0.57981200  0.07578800  1
  H  H30  1  0.87979200  0.07981200  0.42421200  1
  H  H31  1  0.37979200  0.42018800  0.92421200  1
  H  H32  1  0.11852400  0.23704600  0.77334500  1
  H  H33  1  0.61852400  0.26295400  0.27334500  1
  H  H34  1  0.88147600  0.76295400  0.22665500  1
  H  H35  1  0.38147600  0.73704600  0.72665500  1
  H  H36  1  0.01591300  0.15154900  0.63967200  1
  H  H37  1  0.51591300  0.34845100  0.13967200  1
  H  H38  1  0.98408700  0.84845100  0.36032800  1
  H  H39  1  0.48408700  0.65154900  0.86032800  1
  H  H40  1  0.92255100  0.11693700  0.76563000  1
  H  H41  1  0.42255100  0.38306300  0.26563000  1
  H  H42  1  0.07744900  0.88306300  0.23437000  1
  H  H43  1  0.57744900  0.61693700  0.73437000  1
  H  H44  1  0.89660000  0.29092900  0.69945700  1
  H  H45  1  0.39660000  0.20907100  0.19945700  1
  H  H46  1  0.10340000  0.70907100  0.30054300  1
  H  H47  1  0.60340000  0.79092900  0.80054300  1
  H  H48  1  0.98777800  0.93110000  0.87266500  1
  H  H49  1  0.48777800  0.56890000  0.37266500  1
  H  H50  1  0.01222200  0.06890000  0.12733500  1
  H  H51  1  0.51222200  0.43110000  0.62733500  1
  H  H52  1  0.12091800  0.85698000  0.99791400  1
  H  H53  1  0.62091800  0.64302000  0.49791400  1
  H  H54  1  0.87908200  0.14302000  0.00208600  1
  H  H55  1  0.37908200  0.35698000  0.50208600  1
  H  H56  1  0.98562900  0.74310600  0.90024000  1
  H  H57  1  0.48562900  0.75689400  0.40024000  1
  H  H58  1  0.01437100  0.25689400  0.09976000  1
  H  H59  1  0.51437100  0.24310600  0.59976000  1
  H  H60  1  0.20617900  0.83996000  0.87027600  1
  H  H61  1  0.70617900  0.66004000  0.37027600  1
  H  H62  1  0.79382100  0.16004000  0.12972400  1
  H  H63  1  0.29382100  0.33996000  0.62972400  1
loop_
_geom_bond_atom_site_label_1
_geom_bond_atom_site_label_2
_geom_bond_distance
_geom_bond_site_symmetry_2
Cd0 H21 2.022662 1_555
Cd0 H62 2.046204 1_555
Cd0 H33 2.129639 1_555
Cd0 H7 2.136543 1_655
Cd0 H37 2.197183 1_555
Cd0 H15 2.269758 1_555
Cd0 H25 2.352399 1_555
Cd0 H58 2.383618 1_655
Cd1 H20 2.022662 1_545
Cd1 H63 2.046204 1_555
Cd1 H32 2.129639 1_555
Cd1 H6 2.136543 1_555
Cd1 H36 2.197183 1_555
Cd1 H14 2.269758 1_555
Cd1 H24 2.352399 1_555
Cd1 H59 2.383618 1_555
Cd2 H23 2.022662 1_555
Cd2 H60 2.046204 1_555
Cd2 H35 2.129639 1_555
Cd2 H5 2.136543 1_455
Cd2 H39 2.197183 1_555
Cd2 H13 2.269758 1_555
Cd2 H27 2.352399 1_555
Cd2 H56 2.383618 1_455
Cd3 H22 2.022662 1_565
Cd3 H61 2.046204 1_555
Cd3 H34 2.129639 1_555
Cd3 H4 2.136543 1_555
Cd3 H38 2.197183 1_555
Cd3 H12 2.269758 1_555
Cd3 H26 2.352399 1_555
Cd3 H57 2.383618 1_555
B0 H0 1.216899 1_555
B0 H8 1.217882 1_555
B0 H12 1.238612 1_555
B0 H4 1.246184 1_555
B1 H1 1.216899 1_555
B1 H9 1.217882 1_555
B1 H13 1.238612 1_655
B1 H5 1.246184 1_555
B2 H2 1.216899 1_555
B2 H10 1.217882 1_555
B2 H14 1.238612 1_555
B2 H6 1.246184 1_555
B3 H3 1.216899 1_555
B3 H11 1.217882 1_555
B3 H15 1.238612 1_455
B3 H7 1.246184 1_555
B4 H28 1.215768 1_555
B4 H16 1.221369 1_555
B4 H24 1.231784 1_565
B4 H20 1.257477 1_555
B5 H29 1.215761 1_555
B5 H17 1.221369 1_555
B5 H25 1.231784 1_555
B5 H21 1.257477 1_555
B6 H30 1.215761 1_555
B6 H18 1.221369 1_555
B6 H26 1.231784 1_545
B6 H22 1.257477 1_555
B7 H31 1.215761 1_555
B7 H19 1.221369 1_555
B7 H27 1.231784 1_555
B7 H23 1.257477 1_555
B8 H40 1.207019 1_555
B8 H44 1.222456 1_555
B8 H36 1.240944 1_655
B8 H32 1.252566 1_655
B9 H41 1.207019 1_555
B9 H45 1.222456 1_555
B9 H37 1.240944 1_555
B9 H33 1.252566 1_555
B10 H42 1.207019 1_555
B10 H46 1.222456 1_555
B10 H38 1.240944 1_455
B10 H34 1.252566 1_455
B11 H43 1.207019 1_555
B11 H47 1.222456 1_555
B11 H39 1.240944 1_555
B11 H35 1.252566 1_555
B12 H52 1.219397 1_555
B12 H48 1.224241 1_455
B12 H56 1.230811 1_455
B12 H60 1.248750 1_555
B13 H53 1.219397 1_555
B13 H49 1.224241 1_555
B13 H57 1.230811 1_555
B13 H61 1.248750 1_555
B14 H54 1.219397 1_555
B14 H50 1.224241 1_655
B14 H58 1.230811 1_655
B14 H62 1.248750 1_555
B15 H55 1.219397 1_555
B15 H51 1.224241 1_555
B15 H59 1.230811 1_555
B15 H63 1.248750 1_555
H0 K2 2.711327 1_565
H0 K4 3.005605 1_565
H1 K3 2.711327 1_555
H1 K5 3.005605 1_555
H2 K0 2.711327 1_545
H2 K6 3.005605 1_545
H3 K1 2.711327 1_555
H3 K7 3.005605 1_555
H4 K7 2.847439 1_555
H5 K6 2.847439 1_555
H6 K5 2.847439 1_555
H7 K4 2.847439 1_555
H8 K0 2.707465 1_554
H9 K1 2.707465 1_655
H10 K2 2.707465 1_556
H11 K3 2.707465 1_455
H12 K0 2.866770 1_554
H13 K1 2.866770 1_555
H14 K2 2.866770 1_556
H15 K3 2.866770 1_555
H24 K4 2.569471 1_555
H25 K5 2.569471 1_554
H26 K6 2.569471 1_555
H27 K7 2.569471 1_556
H28 K6 2.962134 1_455
H29 K7 2.962141 1_555
H30 K4 2.962141 1_655
H31 K5 2.962141 1_555
H36 K6 2.993280 1_445
H37 K7 2.993280 1_555
H38 K4 2.993280 1_665
H39 K5 2.993280 1_555
H40 K6 2.598369 1_545
H41 K7 2.598369 1_555
H42 K4 2.598369 1_565
H43 K5 2.598369 1_555
H44 K3 2.894267 1_555
H44 K5 2.932123 1_555
H45 K2 2.894267 1_555
H45 K4 2.932123 1_555
H46 K1 2.894267 1_555
H46 K7 2.932123 1_555
H47 K0 2.894267 1_555
H47 K6 2.932123 1_555
H48 K0 2.715531 1_555
H48 K6 3.079122 1_555
H49 K1 2.715531 1_555
H49 K7 3.079122 1_555
H50 K2 2.715531 1_555
H50 K4 3.079122 1_555
H51 K3 2.715531 1_555
H51 K5 3.079122 1_555
H52 K2 2.865249 1_566
H52 K0 2.941940 1_455
H53 K3 2.865249 1_555
H53 K1 2.941940 1_555
H54 K0 2.865249 1_544
H54 K2 2.941940 1_655
H55 K1 2.865249 1_555
H55 K3 2.941940 1_555
H56 K0 2.837988 1_555
H57 K1 2.837988 1_555
H58 K2 2.837988 1_555
H59 K3 2.837988 1_555
