# generated using pymatgen
data_DySiRh
_symmetry_space_group_name_H-M   'P 1'
_cell_length_a   4.23796847
_cell_length_b   6.89106045
_cell_length_c   7.33972044
_cell_angle_alpha   89.99983593
_cell_angle_beta   90.00000000
_cell_angle_gamma   90.00000000
_symmetry_Int_Tables_number   1
_chemical_formula_structural   DySiRh
_chemical_formula_sum   'Dy4 Si4 Rh4'
_cell_volume   214.34990704
_cell_formula_units_Z   4
loop_
 _symmetry_equiv_pos_site_id
 _symmetry_equiv_pos_as_xyz
  1  'x, y, z'
loop_
 _atom_site_type_symbol
 _atom_site_label
 _atom_site_symmetry_multiplicity
 _atom_site_fract_x
 _atom_site_fract_y
 _atom_site_fract_z
 _atom_site_occupancy
  Dy  Dy0  1  0.25000000  0.49739375  0.18931948  1
  Dy  Dy1  1  0.75000000  0.50266973  0.81067741  1
  Dy  Dy2  1  0.75000000  0.00261274  0.68940571  1
  Dy  Dy3  1  0.25000000  0.99732578  0.31058964  1
  Si  Si0  1  0.25000000  0.79761802  0.89580887  1
  Si  Si1  1  0.75000000  0.20237454  0.10419394  1
  Si  Si2  1  0.75000000  0.70241674  0.39577890  1
  Si  Si3  1  0.25000000  0.29759224  0.60422312  1
  Rh  Rh0  1  0.25000000  0.65209775  0.56909643  1
  Rh  Rh1  1  0.75000000  0.34794325  0.43090337  1
  Rh  Rh2  1  0.75000000  0.84796094  0.06904944  1
  Rh  Rh3  1  0.25000000  0.15199452  0.93095470  1
loop_
_geom_bond_atom_site_label_1
_geom_bond_atom_site_label_2
_geom_bond_distance
_geom_bond_site_symmetry_2
Dy0 Rh1 2.948696 1_455
Dy0 Rh1 2.948696 1_555
Dy0 Si2 2.963525 1_455
Dy0 Si2 2.963525 1_555
Dy0 Rh0 2.984367 1_555
Dy0 Si0 2.986824 1_554
Dy0 Si1 3.002256 1_555
Dy0 Si1 3.002256 1_455
Dy0 Rh3 3.043234 1_554
Dy0 Rh2 3.332464 1_455
Dy0 Rh2 3.332464 1_555
Dy1 Rh0 2.948630 1_555
Dy1 Rh0 2.948630 1_655
Dy1 Si3 2.963685 1_555
Dy1 Si3 2.963685 1_655
Dy1 Rh1 2.984402 1_555
Dy1 Si1 2.987194 1_556
Dy1 Si0 3.001934 1_555
Dy1 Si0 3.001934 1_655
Dy1 Rh2 3.042685 1_556
Dy1 Rh3 3.333018 1_655
Dy1 Rh3 3.333018 1_555
Dy2 Rh3 2.948381 1_655
Dy2 Rh3 2.948381 1_555
Dy2 Si0 2.963217 1_545
Dy2 Si0 2.963217 1_645
Dy2 Rh2 2.983320 1_546
Dy2 Si2 2.987313 1_545
Dy2 Si3 3.002156 1_655
Dy2 Si3 3.002156 1_555
Dy2 Rh1 3.043484 1_555
Dy2 Rh0 3.332284 1_545
Dy2 Rh0 3.332284 1_645
Dy3 Rh2 2.948301 1_455
Dy3 Rh2 2.948301 1_555
Dy3 Si1 2.963367 1_465
Dy3 Si1 2.963367 1_565
Dy3 Rh3 2.983301 1_564
Dy3 Si3 2.987685 1_565
Dy3 Si2 3.001837 1_555
Dy3 Si2 3.001837 1_455
Dy3 Rh0 3.042952 1_555
Dy3 Rh1 3.332804 1_565
Dy3 Rh1 3.332804 1_465
Rh0 Si3 2.456485 1_555
Rh0 Si2 2.495711 1_555
Rh0 Si2 2.495711 1_455
Rh0 Si0 2.599211 1_555
Rh1 Si2 2.456264 1_555
Rh1 Si3 2.495750 1_555
Rh1 Si3 2.495750 1_655
Rh1 Si1 2.599319 1_555
Rh2 Si1 2.455871 1_565
Rh2 Si0 2.495447 1_554
Rh2 Si0 2.495447 1_654
Rh2 Si2 2.599385 1_555
Rh3 Si0 2.455617 1_545
Rh3 Si1 2.495477 1_456
Rh3 Si1 2.495477 1_556
Rh3 Si3 2.599541 1_555
