# generated using pymatgen
data_Al8O3
_symmetry_space_group_name_H-M   'P 1'
_cell_length_a   5.73023793
_cell_length_b   5.73829885
_cell_length_c   49.64508371
_cell_angle_alpha   92.01092030
_cell_angle_beta   91.56035935
_cell_angle_gamma   59.58455244
_symmetry_Int_Tables_number   1
_chemical_formula_structural   Al8O3
_chemical_formula_sum   'Al32 O12'
_cell_volume   1406.81050053
_cell_formula_units_Z   4
loop_
 _symmetry_equiv_pos_site_id
 _symmetry_equiv_pos_as_xyz
  1  'x, y, z'
loop_
 _atom_site_type_symbol
 _atom_site_label
 _atom_site_symmetry_multiplicity
 _atom_site_fract_x
 _atom_site_fract_y
 _atom_site_fract_z
 _atom_site_occupancy
  Al  Al0  1  0.49219795  0.49957443  0.00123052  1
  Al  Al1  1  0.99191607  0.49927341  0.00164076  1
  Al  Al2  1  0.49176626  0.99922283  0.00148942  1
  Al  Al3  1  0.16265918  0.16638087  0.04879269  1
  Al  Al4  1  0.16385958  0.66825933  0.04871318  1
  Al  Al5  1  0.66286283  0.66616470  0.04877362  1
  Al  Al6  1  0.66419914  0.16820047  0.04872459  1
  Al  Al7  1  0.33332500  0.33335000  0.09523900  1
  Al  Al8  1  0.33332500  0.83335000  0.09523900  1
  Al  Al9  1  0.83332500  0.83335000  0.09523900  1
  Al  Al10  1  0.83332500  0.33335000  0.09523900  1
  Al  Al11  1  0.49999200  0.00001700  0.14285800  1
  Al  Al12  1  0.49999200  0.50001700  0.14285800  1
  Al  Al13  1  0.99999200  0.50001700  0.14285800  1
  Al  Al14  1  0.99999200  0.00001700  0.14285800  1
  Al  Al15  1  0.17846557  0.16669371  0.18919885  1
  Al  Al16  1  0.67114960  0.16425973  0.18900593  1
  Al  Al17  1  0.67879170  0.66910929  0.18963093  1
  Al  Al18  1  0.17273488  0.66467559  0.18951420  1
  Al  Al19  1  0.85091824  0.32887898  0.23359274  1
  Al  Al20  1  0.34966241  0.83842105  0.23417679  1
  Al  Al21  1  0.35740653  0.34048310  0.23990156  1
  Al  Al22  1  0.85127927  0.84402225  0.24105597  1
  Al  Al23  1  0.95619148  0.43999599  0.28260513  1
  Al  Al24  1  0.50933311  0.96663005  0.29458748  1
  Al  Al25  1  0.43760971  0.46174015  0.31034760  1
  Al  Al26  1  0.98025834  0.00374356  0.32453927  1
  Al  Al27  1  0.24482073  0.74649807  0.37079463  1
  Al  Al28  1  0.75186134  0.26758049  0.38140862  1
  Al  Al29  1  0.70430368  0.73256178  0.39335011  1
  Al  Al30  1  0.21761731  0.23972846  0.39660537  1
  Al  Al31  1  0.99219027  0.99963325  0.00133153  1
  O  O0  1  0.33298960  0.34398135  0.28071263  1
  O  O1  1  0.84531331  0.81065730  0.27845060  1
  O  O2  1  0.63182154  0.60597569  0.30263260  1
  O  O3  1  0.13923983  0.11493918  0.30310663  1
  O  O4  1  0.63066677  0.12545845  0.32249273  1
  O  O5  1  0.18003144  0.66206925  0.33324675  1
  O  O6  1  0.03556178  0.08987118  0.36035068  1
  O  O7  1  0.59727497  0.57793830  0.36503104  1
  O  O8  1  0.08168784  0.59496631  0.38692775  1
  O  O9  1  0.58193538  0.10166583  0.38929134  1
  O  O10  1  0.34021748  0.88884348  0.40312393  1
  O  O11  1  0.86978391  0.38699676  0.40910087  1
loop_
_geom_bond_atom_site_label_1
_geom_bond_atom_site_label_2
_geom_bond_distance
_geom_bond_site_symmetry_2
Al0 Al5 2.846695 1_555
Al0 Al4 2.875935 1_555
Al0 Al6 2.904669 1_555
Al1 Al4 2.838169 1_655
Al1 Al5 2.863964 1_555
Al1 Al3 2.895271 1_655
Al2 Al6 2.846022 1_565
Al2 Al3 2.871048 1_565
Al2 Al5 2.901128 1_555
Al3 Al7 2.803950 1_555
Al3 Al31 2.843292 1_445
Al3 Al5 2.847925 1_455
Al3 Al5 2.850302 1_545
Al3 Al6 2.850933 1_455
Al3 Al4 2.854758 1_545
Al3 Al8 2.866951 1_545
Al3 Al6 2.879338 1_555
Al3 Al4 2.883558 1_555
Al4 Al8 2.798441 1_555
Al4 Al9 2.843910 1_455
Al4 Al6 2.847976 1_465
Al4 Al6 2.850251 1_555
Al4 Al5 2.853261 1_555
Al4 Al7 2.875966 1_555
Al4 Al5 2.877018 1_455
Al5 Al9 2.804732 1_555
Al5 Al8 2.838135 1_555
Al5 Al6 2.853514 1_555
Al5 Al6 2.884802 1_565
Al6 Al7 2.844446 1_555
Al6 Al9 2.875369 1_545
Al7 Al9 2.849113 1_455
Al7 Al9 2.849113 1_545
Al7 Al8 2.869149 1_545
Al7 Al8 2.869149 1_555
Al8 Al9 2.865119 1_555
Al8 Al9 2.865119 1_455
Al10 Al6 2.797185 1_555
Al10 Al3 2.836791 1_655
Al10 Al13 2.838787 1_555
Al10 Al8 2.849113 1_645
Al10 Al8 2.849113 1_555
Al10 Al7 2.865119 1_655
Al10 Al7 2.865119 1_555
Al10 Al5 2.867100 1_555
Al10 Al9 2.869149 1_555
Al10 Al9 2.869149 1_545
Al10 Al12 2.896442 1_555
Al10 Al14 2.916200 1_555
Al11 Al16 2.785852 1_555
Al11 Al15 2.809662 1_555
Al11 Al8 2.838787 1_545
Al11 Al13 2.849113 1_455
Al11 Al13 2.849113 1_545
Al11 Al14 2.865119 1_455
Al11 Al14 2.865119 1_555
Al11 Al12 2.869149 1_555
Al11 Al12 2.869149 1_545
Al11 Al17 2.873543 1_545
Al11 Al9 2.896442 1_545
Al11 Al7 2.916200 1_555
Al12 Al7 2.838787 1_555
Al12 Al18 2.839591 1_555
Al12 Al17 2.846406 1_555
Al12 Al14 2.849113 1_555
Al12 Al14 2.849113 1_465
Al12 Al16 2.863014 1_555
Al12 Al13 2.865119 1_455
Al12 Al13 2.865119 1_555
Al12 Al8 2.916200 1_555
Al13 Al18 2.811786 1_655
Al13 Al17 2.826195 1_555
Al13 Al15 2.863066 1_655
Al13 Al14 2.869149 1_555
Al13 Al14 2.869149 1_565
Al13 Al7 2.896442 1_655
Al13 Al9 2.916200 1_555
Al14 Al15 2.821573 1_655
Al14 Al16 2.823676 1_555
Al14 Al9 2.838787 1_545
Al14 Al18 2.882190 1_645
Al14 Al8 2.896442 1_645
Al15 Al19 2.749360 1_455
Al15 Al20 2.793131 1_545
Al15 Al16 2.816428 1_555
Al15 Al18 2.840581 1_555
Al15 Al17 2.843419 1_545
Al15 Al17 2.855028 1_455
Al15 Al18 2.898087 1_545
Al15 Al16 2.913891 1_455
Al15 Al21 3.016712 1_555
Al16 Al19 2.750906 1_555
Al16 Al17 2.820659 1_545
Al16 Al18 2.845723 1_555
Al16 Al18 2.852755 1_645
Al16 Al17 2.918463 1_555
Al16 Al21 2.977639 1_555
Al16 Al22 3.063806 1_545
Al17 Al20 2.759091 1_555
Al17 Al19 2.789222 1_555
Al17 Al18 2.817780 1_655
Al17 Al18 2.912636 1_555
Al17 Al22 3.031400 1_555
Al18 Al20 2.772022 1_555
Al18 Al21 3.004522 1_555
Al18 Al22 3.025230 1_455
Al19 Al23 2.625201 1_555
Al19 Al22 2.818633 1_545
Al19 Al20 2.818948 1_645
Al19 Al21 2.820616 1_555
Al19 Al20 2.880141 1_555
Al19 Al21 2.944584 1_655
Al19 Al22 2.967285 1_555
Al20 Al21 2.859182 1_555
Al20 Al22 2.869316 1_455
Al20 Al22 2.901562 1_555
Al20 Al21 2.907593 1_565
Al21 O0 2.033390 1_555
Al22 O1 1.875978 1_555
Al23 O2 1.895315 1_555
Al23 O1 1.904083 1_555
Al23 O3 1.925991 1_655
Al23 O0 1.943498 1_655
Al24 O1 1.854284 1_555
Al24 O2 1.872732 1_555
Al24 O3 1.896511 1_565
Al24 O4 1.932311 1_565
Al24 O0 2.008880 1_565
Al25 O2 1.745947 1_555
Al25 O5 1.753300 1_555
Al25 O4 1.787423 1_555
Al25 O0 1.809119 1_555
Al26 O3 1.748777 1_655
Al26 O4 1.757368 1_555
Al26 O5 1.761068 1_645
Al26 O6 1.889897 1_655
Al27 O7 1.769317 1_555
Al27 O8 1.784400 1_555
Al27 O6 1.798502 1_565
Al27 O10 1.963246 1_555
Al27 O5 1.982007 1_555
Al28 O9 1.730105 1_555
Al28 O7 1.755704 1_555
Al28 O6 1.764877 1_655
Al28 O11 1.779981 1_555
Al29 O10 1.876831 1_555
Al29 O9 1.880642 1_565
Al29 O7 1.885853 1_555
Al29 O11 1.899281 1_555
Al29 O8 1.921596 1_655
Al30 O10 1.803740 1_545
Al30 O11 1.843029 1_455
Al30 O8 1.852978 1_555
Al30 O9 1.861222 1_555
Al30 O6 2.400992 1_555
Al31 Al6 2.871271 1_565
Al31 Al4 2.900091 1_655
