# generated using pymatgen
data_Sc3(Ge2Mo)2
_symmetry_space_group_name_H-M   'P 1'
_cell_length_a   6.79072200
_cell_length_b   6.97791600
_cell_length_c   13.30084900
_cell_angle_alpha   90.00000000
_cell_angle_beta   90.00000000
_cell_angle_gamma   90.00000000
_symmetry_Int_Tables_number   1
_chemical_formula_structural   Sc3(Ge2Mo)2
_chemical_formula_sum   'Sc12 Ge16 Mo8'
_cell_volume   630.26189629
_cell_formula_units_Z   4
loop_
 _symmetry_equiv_pos_site_id
 _symmetry_equiv_pos_as_xyz
  1  'x, y, z'
loop_
 _atom_site_type_symbol
 _atom_site_label
 _atom_site_symmetry_multiplicity
 _atom_site_fract_x
 _atom_site_fract_y
 _atom_site_fract_z
 _atom_site_occupancy
  Sc  Sc0  1  0.18159700  0.50316800  0.75000000  1
  Sc  Sc1  1  0.81840300  0.49683200  0.25000000  1
  Sc  Sc2  1  0.31840300  0.00316800  0.25000000  1
  Sc  Sc3  1  0.68159700  0.99683200  0.75000000  1
  Sc  Sc4  1  0.36314200  0.16251300  0.62209700  1
  Sc  Sc5  1  0.63685800  0.83748700  0.37790300  1
  Sc  Sc6  1  0.13685800  0.66251300  0.37790300  1
  Sc  Sc7  1  0.63685800  0.83748700  0.12209700  1
  Sc  Sc8  1  0.86314200  0.33748700  0.62209700  1
  Sc  Sc9  1  0.36314200  0.16251300  0.87790300  1
  Sc  Sc10  1  0.86314200  0.33748700  0.87790300  1
  Sc  Sc11  1  0.13685800  0.66251300  0.12209700  1
  Ge  Ge0  1  0.05196900  0.09524200  0.75000000  1
  Ge  Ge1  1  0.94803100  0.90475800  0.25000000  1
  Ge  Ge2  1  0.44803100  0.59524200  0.25000000  1
  Ge  Ge3  1  0.55196900  0.40475800  0.75000000  1
  Ge  Ge4  1  0.32284300  0.84672400  0.75000000  1
  Ge  Ge5  1  0.67715700  0.15327600  0.25000000  1
  Ge  Ge6  1  0.17715700  0.34672400  0.25000000  1
  Ge  Ge7  1  0.82284300  0.65327600  0.75000000  1
  Ge  Ge8  1  0.21236100  0.47109300  0.54184800  1
  Ge  Ge9  1  0.78763900  0.52890700  0.45815200  1
  Ge  Ge10  1  0.28763900  0.97109300  0.45815200  1
  Ge  Ge11  1  0.78763900  0.52890700  0.04184800  1
  Ge  Ge12  1  0.71236100  0.02890700  0.54184800  1
  Ge  Ge13  1  0.21236100  0.47109300  0.95815200  1
  Ge  Ge14  1  0.71236100  0.02890700  0.95815200  1
  Ge  Ge15  1  0.28763900  0.97109300  0.04184800  1
  Mo  Mo0  1  0.97058700  0.18512500  0.09506600  1
  Mo  Mo1  1  0.02941300  0.81487500  0.90493400  1
  Mo  Mo2  1  0.52941300  0.68512500  0.90493400  1
  Mo  Mo3  1  0.02941300  0.81487500  0.59506600  1
  Mo  Mo4  1  0.47058700  0.31487500  0.09506600  1
  Mo  Mo5  1  0.97058700  0.18512500  0.40493400  1
  Mo  Mo6  1  0.47058700  0.31487500  0.40493400  1
  Mo  Mo7  1  0.52941300  0.68512500  0.59506600  1
loop_
_geom_bond_atom_site_label_1
_geom_bond_atom_site_label_2
_geom_bond_distance
_geom_bond_site_symmetry_2
Ge0 Ge4 2.527991 1_545
Ge0 Sc3 2.607153 1_445
Ge0 Sc8 2.719504 1_455
Ge0 Sc10 2.719504 1_455
Ge0 Sc4 2.753114 1_555
Ge0 Sc9 2.753114 1_555
Ge0 Mo3 2.845625 1_545
Ge0 Mo1 2.845625 1_545
Ge0 Sc0 2.979477 1_555
Ge1 Ge5 2.527991 1_565
Ge1 Sc2 2.607153 1_665
Ge1 Sc11 2.719504 1_655
Ge1 Sc6 2.719504 1_655
Ge1 Sc7 2.753114 1_555
Ge1 Sc5 2.753114 1_555
Ge1 Mo5 2.845625 1_565
Ge1 Mo0 2.845625 1_565
Ge1 Sc1 2.979477 1_555
Ge2 Ge6 2.527991 1_555
Ge2 Sc1 2.607153 1_555
Ge2 Sc7 2.719504 1_555
Ge2 Sc5 2.719504 1_555
Ge2 Sc6 2.753114 1_555
Ge2 Sc11 2.753114 1_555
Ge2 Mo6 2.845625 1_555
Ge2 Mo4 2.845625 1_555
Ge2 Sc2 2.979477 1_565
Ge3 Ge7 2.527991 1_555
Ge3 Sc0 2.607153 1_555
Ge3 Sc4 2.719504 1_555
Ge3 Sc9 2.719504 1_555
Ge3 Sc10 2.753114 1_555
Ge3 Sc8 2.753114 1_555
Ge3 Mo7 2.845625 1_555
Ge3 Mo2 2.845625 1_555
Ge3 Sc3 2.979477 1_545
Ge4 Sc0 2.582066 1_555
Ge4 Sc3 2.651829 1_555
Ge4 Mo7 2.736051 1_555
Ge4 Mo2 2.736051 1_555
Ge4 Sc4 2.797260 1_565
Ge4 Sc9 2.797260 1_565
Ge4 Mo3 2.875162 1_555
Ge4 Mo1 2.875162 1_555
Ge5 Sc1 2.582066 1_555
Ge5 Sc2 2.651829 1_555
Ge5 Mo6 2.736051 1_555
Ge5 Mo4 2.736051 1_555
Ge5 Sc5 2.797260 1_545
Ge5 Sc7 2.797260 1_545
Ge5 Mo0 2.875162 1_555
Ge5 Mo5 2.875162 1_555
Ge6 Sc2 2.582066 1_555
Ge6 Sc1 2.651829 1_455
Ge6 Mo5 2.736051 1_455
Ge6 Mo0 2.736051 1_455
Ge6 Sc11 2.797260 1_555
Ge6 Sc6 2.797260 1_555
Ge6 Mo4 2.875162 1_555
Ge6 Mo6 2.875162 1_555
Ge7 Sc3 2.582066 1_555
Ge7 Sc0 2.651829 1_655
Ge7 Mo3 2.736051 1_655
Ge7 Mo1 2.736051 1_655
Ge7 Sc8 2.797260 1_555
Ge7 Sc10 2.797260 1_555
Ge7 Mo7 2.875162 1_555
Ge7 Mo2 2.875162 1_555
Ge8 Sc6 2.608076 1_555
Ge8 Sc4 2.612309 1_555
Ge8 Mo7 2.714229 1_555
Ge8 Mo6 2.753085 1_555
Ge8 Sc8 2.762651 1_455
Ge8 Sc0 2.785476 1_555
Ge8 Mo3 2.792689 1_555
Ge8 Mo5 3.161288 1_455
Ge9 Sc8 2.608076 1_555
Ge9 Sc5 2.612309 1_555
Ge9 Mo6 2.714229 1_555
Ge9 Mo7 2.753085 1_555
Ge9 Sc6 2.762651 1_655
Ge9 Sc1 2.785476 1_555
Ge9 Mo5 2.792689 1_555
Ge9 Mo3 3.161288 1_655
Ge10 Sc4 2.608076 1_565
Ge10 Sc6 2.612309 1_555
Ge10 Mo5 2.714229 1_465
Ge10 Mo3 2.753085 1_555
Ge10 Sc5 2.762651 1_555
Ge10 Sc2 2.785476 1_565
Ge10 Mo6 2.792689 1_565
Ge10 Mo7 3.161288 1_555
Ge11 Sc10 2.608076 1_554
Ge11 Sc7 2.612309 1_555
Ge11 Mo4 2.714229 1_555
Ge11 Mo2 2.753085 1_554
Ge11 Sc11 2.762651 1_655
Ge11 Sc1 2.785476 1_555
Ge11 Mo0 2.792689 1_555
Ge11 Mo1 3.161288 1_654
Ge12 Sc5 2.608076 1_545
Ge12 Sc8 2.612309 1_555
Ge12 Mo3 2.714229 1_645
Ge12 Mo5 2.753085 1_555
Ge12 Sc4 2.762651 1_555
Ge12 Sc3 2.785476 1_545
Ge12 Mo7 2.792689 1_545
Ge12 Mo6 3.161288 1_555
Ge13 Sc11 2.608076 1_556
Ge13 Sc9 2.612309 1_555
Ge13 Mo2 2.714229 1_555
Ge13 Mo4 2.753085 1_556
Ge13 Sc10 2.762651 1_455
Ge13 Sc0 2.785476 1_555
Ge13 Mo1 2.792689 1_555
Ge13 Mo0 3.161288 1_456
Ge14 Sc7 2.608076 1_546
Ge14 Sc10 2.612309 1_555
Ge14 Mo1 2.714229 1_645
Ge14 Mo0 2.753085 1_556
Ge14 Sc9 2.762651 1_555
Ge14 Sc3 2.785476 1_545
Ge14 Mo2 2.792689 1_545
Ge14 Mo4 3.161288 1_556
Ge15 Sc9 2.608076 1_564
Ge15 Sc11 2.612309 1_555
Ge15 Mo0 2.714229 1_465
Ge15 Mo1 2.753085 1_554
Ge15 Sc7 2.762651 1_555
Ge15 Sc2 2.785476 1_565
Ge15 Mo4 2.792689 1_565
Ge15 Mo2 3.161288 1_554
Mo0 Sc10 3.163202 1_554
Mo0 Sc1 3.169481 1_555
Mo0 Sc7 3.339110 1_545
Mo1 Sc11 3.163202 1_556
Mo1 Sc0 3.169481 1_555
Mo1 Sc9 3.339110 1_565
Mo2 Sc7 3.163202 1_556
Mo2 Sc3 3.169481 1_555
Mo2 Sc10 3.339110 1_555
Mo3 Sc6 3.163202 1_555
Mo3 Sc0 3.169481 1_555
Mo3 Sc4 3.339110 1_565
Mo4 Sc9 3.163202 1_554
Mo4 Sc2 3.169481 1_555
Mo4 Sc11 3.339110 1_555
Mo5 Sc8 3.163202 1_555
Mo5 Sc1 3.169481 1_555
Mo5 Sc5 3.339110 1_545
Mo6 Sc4 3.163202 1_555
Mo6 Sc2 3.169481 1_555
Mo6 Sc6 3.339110 1_555
Mo7 Sc5 3.163202 1_555
Mo7 Sc3 3.169481 1_555
Mo7 Sc8 3.339110 1_555
