# generated using pymatgen
data_Sr2TaVO6
_symmetry_space_group_name_H-M   'P 1'
_cell_length_a   5.65087213
_cell_length_b   5.65087072
_cell_length_c   8.13837400
_cell_angle_alpha   90.00091961
_cell_angle_beta   90.00043733
_cell_angle_gamma   89.99518206
_symmetry_Int_Tables_number   1
_chemical_formula_structural   Sr2TaVO6
_chemical_formula_sum   'Sr4 Ta2 V2 O12'
_cell_volume   259.87738857
_cell_formula_units_Z   2
loop_
 _symmetry_equiv_pos_site_id
 _symmetry_equiv_pos_as_xyz
  1  'x, y, z'
loop_
 _atom_site_type_symbol
 _atom_site_label
 _atom_site_symmetry_multiplicity
 _atom_site_fract_x
 _atom_site_fract_y
 _atom_site_fract_z
 _atom_site_occupancy
  Sr  Sr0  1  0.00000100  0.00000000  0.99999700  1
  Sr  Sr1  1  0.50000400  0.49999500  0.50000400  1
  Sr  Sr2  1  0.00000000  0.00000000  0.50000400  1
  Sr  Sr3  1  0.49999600  0.50000600  0.99999700  1
  Ta  Ta0  1  0.50000000  0.00000000  0.75000100  1
  Ta  Ta1  1  0.00000100  0.50000100  0.25000100  1
  V  V0  1  0.99999300  0.50000800  0.74999400  1
  V  V1  1  0.50000300  0.99998700  0.24999200  1
  O  O0  1  0.74938100  0.24938200  0.75000100  1
  O  O1  1  0.24940100  0.74940100  0.25000100  1
  O  O2  1  0.25061800  0.75061900  0.75000100  1
  O  O3  1  0.75060000  0.25059900  0.25000000  1
  O  O4  1  0.50000000  0.99999600  0.50525800  1
  O  O5  1  0.99999700  0.50000100  0.00525500  1
  O  O6  1  0.50000100  0.00000500  0.99474300  1
  O  O7  1  0.00000300  0.50000000  0.49474700  1
  O  O8  1  0.25062100  0.24937900  0.75000100  1
  O  O9  1  0.75059900  0.74940200  0.25000100  1
  O  O10  1  0.74937900  0.75062100  0.75000100  1
  O  O11  1  0.24940200  0.25059800  0.25000000  1
loop_
_geom_bond_atom_site_label_1
_geom_bond_atom_site_label_2
_geom_bond_distance
_geom_bond_site_symmetry_2
O0 Ta0 1.993026 1_555
O0 V0 2.002916 1_555
O0 Sr1 2.851419 1_555
O0 Sr2 2.851433 1_655
O0 Sr0 2.851447 1_655
O0 Sr3 2.851450 1_555
O1 Ta1 1.993174 1_555
O1 V1 2.002716 1_555
O1 Sr3 2.851443 1_554
O1 Sr2 2.851465 1_565
O1 Sr0 2.851485 1_564
O1 Sr1 2.851507 1_555
O2 Ta0 1.993026 1_565
O2 V0 2.002908 1_455
O2 Sr3 2.851416 1_555
O2 Sr0 2.851419 1_565
O2 Sr2 2.851444 1_565
O2 Sr1 2.851458 1_555
O3 Ta1 1.993186 1_655
O3 V1 2.002800 1_545
O3 Sr1 2.851448 1_555
O3 Sr0 2.851465 1_654
O3 Sr2 2.851485 1_655
O3 Sr3 2.851513 1_554
O4 Ta0 1.991810 1_565
O4 V1 2.077450 1_555
O4 Sr1 2.825754 1_565
O4 Sr2 2.825759 1_565
O4 Sr2 2.825760 1_665
O4 Sr1 2.825764 1_555
O5 Ta1 1.991834 1_655
O5 V0 2.077409 1_554
O5 Sr0 2.825754 1_664
O5 Sr3 2.825755 1_654
O5 Sr0 2.825764 1_654
O5 Sr3 2.825765 1_554
O6 Ta0 1.991802 1_555
O6 V1 2.077312 1_546
O6 Sr3 2.825754 1_545
O6 Sr0 2.825759 1_655
O6 Sr0 2.825760 1_555
O6 Sr3 2.825764 1_555
O7 Ta1 1.991834 1_555
O7 V0 2.077296 1_455
O7 Sr1 2.825755 1_455
O7 Sr2 2.825759 1_565
O7 Sr2 2.825760 1_555
O7 Sr1 2.825765 1_555
O8 Ta0 1.992838 1_555
O8 V0 2.002823 1_455
O8 Sr3 2.851533 1_555
O8 Sr2 2.851533 1_555
O8 Sr0 2.851572 1_555
O8 Sr1 2.851578 1_555
O9 Ta1 1.993018 1_655
O9 V1 2.002520 1_555
O9 Sr2 2.851564 1_665
O9 Sr3 2.851570 1_554
O9 Sr1 2.851621 1_555
O9 Sr0 2.851621 1_664
O10 Ta0 1.992838 1_565
O10 V0 2.002703 1_555
O10 Sr0 2.851530 1_665
O10 Sr1 2.851536 1_555
O10 Sr3 2.851569 1_555
O10 Sr2 2.851580 1_665
O11 Ta1 1.993022 1_555
O11 V1 2.002643 1_545
O11 Sr0 2.851564 1_554
O11 Sr1 2.851570 1_555
O11 Sr3 2.851621 1_554
O11 Sr2 2.851621 1_555
