# generated using pymatgen
data_Pr4NiS7
_symmetry_space_group_name_H-M   'P 1'
_cell_length_a   10.05146609
_cell_length_b   10.05146609
_cell_length_c   6.73346300
_cell_angle_alpha   90.00000000
_cell_angle_beta   90.00000000
_cell_angle_gamma   120.00000056
_symmetry_Int_Tables_number   1
_chemical_formula_structural   Pr4NiS7
_chemical_formula_sum   'Pr8 Ni2 S14'
_cell_volume   589.15277901
_cell_formula_units_Z   2
loop_
 _symmetry_equiv_pos_site_id
 _symmetry_equiv_pos_as_xyz
  1  'x, y, z'
loop_
 _atom_site_type_symbol
 _atom_site_label
 _atom_site_symmetry_multiplicity
 _atom_site_fract_x
 _atom_site_fract_y
 _atom_site_fract_z
 _atom_site_occupancy
  Pr  Pr0  1  0.66666700  0.33333300  0.82428000  1
  Pr  Pr1  1  0.33333300  0.66666700  0.32428000  1
  Pr  Pr2  1  0.62986900  0.85758200  0.78136800  1
  Pr  Pr3  1  0.22771400  0.37013100  0.78136800  1
  Pr  Pr4  1  0.37013100  0.14241800  0.28136800  1
  Pr  Pr5  1  0.14241800  0.77228600  0.78136800  1
  Pr  Pr6  1  0.77228600  0.62986900  0.28136800  1
  Pr  Pr7  1  0.85758200  0.22771400  0.28136800  1
  Ni  Ni0  1  0.00000000  0.00000000  0.98695900  1
  Ni  Ni1  1  0.00000000  0.00000000  0.48695900  1
  S  S0  1  0.49977100  0.57067900  0.53571100  1
  S  S1  1  0.07090800  0.50022900  0.53571100  1
  S  S2  1  0.50022900  0.42932100  0.03571100  1
  S  S3  1  0.42932100  0.92909200  0.53571100  1
  S  S4  1  0.92909200  0.49977100  0.03571100  1
  S  S5  1  0.57067900  0.07090800  0.03571100  1
  S  S6  1  0.66666700  0.33333300  0.42715300  1
  S  S7  1  0.33333300  0.66666700  0.92715300  1
  S  S8  1  0.91236400  0.13294900  0.70479000  1
  S  S9  1  0.22058400  0.08763600  0.70479000  1
  S  S10  1  0.08763600  0.86705100  0.20479000  1
  S  S11  1  0.86705100  0.77941600  0.70479000  1
  S  S12  1  0.77941600  0.91236400  0.20479000  1
  S  S13  1  0.13294900  0.22058400  0.20479000  1
loop_
_geom_bond_atom_site_label_1
_geom_bond_atom_site_label_2
_geom_bond_distance
_geom_bond_site_symmetry_2
Pr0 S6 2.674040 1_555
Pr0 S5 2.714865 1_556
Pr0 S4 2.714866 1_556
Pr0 S2 2.714873 1_556
Pr1 S7 2.674040 1_554
Pr1 S3 2.714865 1_555
Pr1 S1 2.714866 1_555
Pr1 S0 2.714873 1_555
Pr2 S7 2.794717 1_555
Pr2 S8 2.851363 1_565
Pr2 S11 2.905142 1_555
Pr2 S3 2.960598 1_555
Pr2 S0 2.998557 1_555
Pr2 S5 3.026625 1_566
Pr2 S12 3.140663 1_556
Pr3 S7 2.794720 1_555
Pr3 S9 2.851353 1_555
Pr3 S8 2.905156 1_455
Pr3 S0 2.960592 1_555
Pr3 S1 2.998565 1_555
Pr3 S2 3.026617 1_556
Pr3 S13 3.140663 1_556
Pr4 S6 2.794717 1_555
Pr4 S10 2.851363 1_545
Pr4 S13 2.905142 1_555
Pr4 S5 2.960598 1_555
Pr4 S2 2.998557 1_555
Pr4 S3 3.026625 1_545
Pr4 S9 3.140663 1_555
Pr5 S7 2.794703 1_555
Pr5 S11 2.851373 1_455
Pr5 S9 2.905161 1_565
Pr5 S1 2.960590 1_555
Pr5 S3 2.998558 1_555
Pr5 S4 3.026620 1_456
Pr5 S10 3.140663 1_556
Pr6 S6 2.794720 1_555
Pr6 S12 2.851353 1_555
Pr6 S10 2.905156 1_655
Pr6 S2 2.960592 1_555
Pr6 S4 2.998565 1_555
Pr6 S0 3.026617 1_555
Pr6 S11 3.140663 1_555
Pr7 S6 2.794703 1_555
Pr7 S13 2.851373 1_655
Pr7 S12 2.905161 1_545
Pr7 S4 2.960590 1_555
Pr7 S5 2.998558 1_555
Pr7 S1 3.026620 1_655
Pr7 S8 3.140663 1_555
Ni0 S12 2.426972 1_446
Ni0 S13 2.426973 1_556
Ni0 S10 2.426979 1_546
Ni0 S9 2.710852 1_555
Ni0 S11 2.710853 1_445
Ni0 S8 2.710859 1_455
Ni1 S9 2.426972 1_555
Ni1 S11 2.426973 1_445
Ni1 S8 2.426979 1_455
Ni1 S12 2.710852 1_445
Ni1 S13 2.710853 1_555
Ni1 S10 2.710859 1_545
