# generated using pymatgen
data_SrMn(GeO3)2
_symmetry_space_group_name_H-M   'P 1'
_cell_length_a   7.10376006
_cell_length_b   8.16587467
_cell_length_c   9.85595157
_cell_angle_alpha   76.37016419
_cell_angle_beta   79.62858137
_cell_angle_gamma   92.55765455
_symmetry_Int_Tables_number   1
_chemical_formula_structural   SrMn(GeO3)2
_chemical_formula_sum   'Sr4 Mn4 Ge8 O24'
_cell_volume   544.27858045
_cell_formula_units_Z   4
loop_
 _symmetry_equiv_pos_site_id
 _symmetry_equiv_pos_as_xyz
  1  'x, y, z'
loop_
 _atom_site_type_symbol
 _atom_site_label
 _atom_site_symmetry_multiplicity
 _atom_site_fract_x
 _atom_site_fract_y
 _atom_site_fract_z
 _atom_site_occupancy
  Sr  Sr0  1  0.19095200  0.27963200  0.52974400  1
  Sr  Sr1  1  0.19101100  0.77958500  0.02972900  1
  Sr  Sr2  1  0.80903200  0.72038900  0.47026000  1
  Sr  Sr3  1  0.80901100  0.22042900  0.97028300  1
  Mn  Mn0  1  0.59337000  0.57844800  0.82761700  1
  Mn  Mn1  1  0.40640300  0.42169500  0.17231100  1
  Mn  Mn2  1  0.59343500  0.07806100  0.32794700  1
  Mn  Mn3  1  0.40661800  0.92185100  0.67201400  1
  Ge  Ge0  1  0.12216200  0.04734700  0.26636700  1
  Ge  Ge1  1  0.12214500  0.54734200  0.76637900  1
  Ge  Ge2  1  0.87790600  0.95265200  0.73361300  1
  Ge  Ge3  1  0.87781000  0.45262600  0.23363200  1
  Ge  Ge4  1  0.68645600  0.29819100  0.57921500  1
  Ge  Ge5  1  0.68649400  0.79824900  0.07921300  1
  Ge  Ge6  1  0.31355400  0.70175600  0.42078300  1
  Ge  Ge7  1  0.31355700  0.20175900  0.92079400  1
  O  O0  1  0.87597900  0.40662400  0.42442600  1
  O  O1  1  0.87601700  0.90668700  0.92438700  1
  O  O2  1  0.12402600  0.59338800  0.57558100  1
  O  O3  1  0.12403000  0.09331900  0.07562300  1
  O  O4  1  0.16880500  0.82095400  0.30325400  1
  O  O5  1  0.16879100  0.32096400  0.80323700  1
  O  O6  1  0.83121200  0.17904500  0.69675000  1
  O  O7  1  0.83123900  0.67903800  0.19677100  1
  O  O8  1  0.30151100  0.16928100  0.30806000  1
  O  O9  1  0.30148400  0.66933300  0.80800400  1
  O  O10  1  0.69847900  0.83071500  0.69195900  1
  O  O11  1  0.69852100  0.33066000  0.19200500  1
  O  O12  1  0.52287100  0.16825600  0.52974200  1
  O  O13  1  0.52292500  0.66830600  0.02977500  1
  O  O14  1  0.47709700  0.83174600  0.47027500  1
  O  O15  1  0.47709200  0.33169700  0.97024400  1
  O  O16  1  0.88695200  0.03672600  0.35682400  1
  O  O17  1  0.88689400  0.53673700  0.85681400  1
  O  O18  1  0.11303900  0.96329600  0.64316500  1
  O  O19  1  0.11309700  0.46324900  0.14320500  1
  O  O20  1  0.60618700  0.96639800  0.14626000  1
  O  O21  1  0.60617200  0.46635400  0.64619200  1
  O  O22  1  0.39382900  0.03357300  0.85374300  1
  O  O23  1  0.39383200  0.53364100  0.35380400  1
loop_
_geom_bond_atom_site_label_1
_geom_bond_atom_site_label_2
_geom_bond_distance
_geom_bond_site_symmetry_2
Mn0 O21 2.182603 1_555
Mn0 O17 2.186275 1_555
Mn0 O10 2.189497 1_555
Mn0 O15 2.194718 1_555
Mn0 O9 2.258663 1_555
Mn0 O13 2.263083 1_556
Mn1 O23 2.182615 1_555
Mn1 O19 2.184297 1_555
Mn1 O8 2.190439 1_555
Mn1 O13 2.193923 1_555
Mn1 O11 2.260792 1_555
Mn1 O15 2.263014 1_554
Mn2 O20 2.182827 1_545
Mn2 O16 2.184874 1_555
Mn2 O14 2.191091 1_545
Mn2 O11 2.192503 1_555
Mn2 O8 2.260345 1_555
Mn2 O12 2.261360 1_555
Mn3 O22 2.183477 1_565
Mn3 O18 2.185384 1_555
Mn3 O12 2.191313 1_565
Mn3 O9 2.192206 1_555
Mn3 O10 2.259781 1_555
Mn3 O14 2.260409 1_555
Ge0 O16 1.734490 1_455
Ge0 O8 1.746883 1_555
Ge0 O3 1.825740 1_555
Ge0 O4 1.854972 1_545
Ge1 O17 1.734686 1_455
Ge1 O9 1.746771 1_555
Ge1 O2 1.826221 1_555
Ge1 O5 1.854862 1_555
Ge2 O18 1.733964 1_655
Ge2 O10 1.747119 1_555
Ge2 O1 1.826004 1_555
Ge2 O6 1.855067 1_565
Ge3 O19 1.734866 1_655
Ge3 O11 1.746394 1_555
Ge3 O0 1.826263 1_555
Ge3 O7 1.854990 1_555
Ge4 O21 1.734433 1_555
Ge4 O12 1.746928 1_555
Ge4 O6 1.825643 1_555
Ge4 O0 1.855121 1_555
Ge5 O20 1.734730 1_555
Ge5 O13 1.746705 1_555
Ge5 O7 1.825944 1_555
Ge5 O1 1.855342 1_554
Ge6 O23 1.734080 1_555
Ge6 O14 1.747113 1_555
Ge6 O4 1.825746 1_555
Ge6 O2 1.855059 1_555
Ge7 O22 1.734947 1_555
Ge7 O15 1.746577 1_555
Ge7 O5 1.826022 1_555
Ge7 O3 1.855379 1_556
O0 Sr2 2.751694 1_555
O0 Sr0 2.774027 1_655
O1 Sr3 2.751803 1_565
O1 Sr1 2.774551 1_656
O2 Sr0 2.751605 1_555
O2 Sr2 2.774196 1_455
O3 Sr1 2.751700 1_545
O3 Sr3 2.774721 1_454
O4 Sr2 2.752539 1_455
O4 Sr1 2.772625 1_555
O5 Sr3 2.752693 1_455
O5 Sr0 2.772242 1_555
O6 Sr0 2.752371 1_655
O6 Sr3 2.772751 1_555
O7 Sr1 2.752644 1_655
O7 Sr2 2.772221 1_555
O8 Sr0 2.564346 1_555
O9 Sr1 2.564141 1_556
O10 Sr2 2.564353 1_555
O11 Sr3 2.564038 1_554
O12 Sr0 2.564782 1_555
O13 Sr1 2.564474 1_555
O14 Sr2 2.564816 1_555
O15 Sr3 2.564466 1_555
O16 Sr2 2.552952 1_545
O17 Sr3 2.552767 1_555
O18 Sr0 2.552916 1_565
O19 Sr1 2.553004 1_555
O20 Sr3 2.554418 1_564
O21 Sr2 2.554371 1_555
O22 Sr1 2.554215 1_546
O23 Sr0 2.554326 1_555
