# generated using pymatgen
data_CaEr4Zr4O14
_symmetry_space_group_name_H-M   'P 1'
_cell_length_a   3.48985600
_cell_length_b   15.48887123
_cell_length_c   13.27206832
_cell_angle_alpha   31.03220203
_cell_angle_beta   58.27149352
_cell_angle_gamma   63.21604249
_symmetry_Int_Tables_number   1
_chemical_formula_structural   CaEr4Zr4O14
_chemical_formula_sum   'Ca1 Er4 Zr4 O14'
_cell_volume   314.56530398
_cell_formula_units_Z   1
loop_
 _symmetry_equiv_pos_site_id
 _symmetry_equiv_pos_as_xyz
  1  'x, y, z'
loop_
 _atom_site_type_symbol
 _atom_site_label
 _atom_site_symmetry_multiplicity
 _atom_site_fract_x
 _atom_site_fract_y
 _atom_site_fract_z
 _atom_site_occupancy
  Ca  Ca0  1  0.58393100  0.50000000  0.20803500  1
  Er  Er0  1  0.01837600  0.24611100  0.99470100  1
  Er  Er1  1  0.94881600  0.00000000  0.52559200  1
  Er  Er2  1  0.01837600  0.75388900  0.48692300  1
  Er  Er3  1  0.03477700  0.50000000  0.48261200  1
  Zr  Zr0  1  0.97893200  0.00000000  0.01053400  1
  Zr  Zr1  1  0.12561800  0.50000000  0.93719100  1
  Zr  Zr2  1  0.95371700  0.17886600  0.59427500  1
  Zr  Zr3  1  0.95371700  0.82113400  0.95200800  1
  O  O0  1  0.20542800  0.00000000  0.14728600  1
  O  O1  1  0.22871300  0.22871400  0.15693000  1
  O  O2  1  0.25231600  0.00000000  0.62384100  1
  O  O3  1  0.40389000  0.50000000  0.04805500  1
  O  O4  1  0.20299700  0.22975500  0.66874700  1
  O  O5  1  0.20299700  0.77024500  0.12825700  1
  O  O6  1  0.67522600  0.23569000  0.42669800  1
  O  O7  1  0.66293100  0.00000000  0.91853500  1
  O  O8  1  0.79069500  0.50000000  0.35465400  1
  O  O9  1  0.74379500  0.30305500  0.82504700  1
  O  O10  1  0.74379500  0.69694500  0.43115800  1
  O  O11  1  0.22871300  0.77128600  0.61435700  1
  O  O12  1  0.86701900  0.50000000  0.81649100  1
  O  O13  1  0.67522600  0.76431000  0.89807600  1
loop_
_geom_bond_atom_site_label_1
_geom_bond_atom_site_label_2
_geom_bond_distance
_geom_bond_site_symmetry_2
Ca0 O6 2.172463 1_555
Ca0 O13 2.172468 1_554
Ca0 O8 2.405028 1_455
Ca0 O8 2.405038 1_555
Ca0 O3 2.511213 1_655
Ca0 O3 2.511218 1_555
Er0 O12 2.199912 1_455
Er0 O9 2.206883 1_555
Er0 O9 2.206889 1_455
Er0 O0 2.230802 1_556
Er0 O1 2.395224 1_456
Er0 O1 2.395229 1_556
Er1 O2 2.067566 1_655
Er1 O2 2.067577 1_555
Er1 O1 2.414737 1_655
Er1 O11 2.414744 1_645
Er1 O13 2.434395 1_545
Er1 O6 2.434409 1_555
Er2 O12 2.199912 1_455
Er2 O10 2.206877 1_455
Er2 O10 2.206882 1_555
Er2 O0 2.230802 1_565
Er2 O11 2.395216 1_555
Er2 O11 2.395221 1_455
Er3 O8 2.265219 1_455
Er3 O8 2.265229 1_555
Er3 O9 2.273843 1_455
Er3 O10 2.273851 1_455
Er3 O4 2.357512 1_555
Er3 O5 2.357512 1_555
O0 Zr0 2.329782 1_555
O0 Zr0 2.329782 1_455
O1 Zr1 2.242964 1_554
O2 Zr2 2.209140 1_455
O2 Zr3 2.209149 1_445
O3 Zr1 2.147326 1_654
O3 Zr1 2.147327 1_554
O4 Zr0 2.228227 1_456
O4 Zr2 2.283089 1_555
O4 Zr2 2.283099 1_455
O5 Zr0 2.228227 1_465
O5 Zr3 2.283087 1_554
O5 Zr3 2.283087 1_454
O6 Zr2 2.194017 1_555
O6 Zr2 2.194033 1_455
O7 Zr0 2.030595 1_556
O7 Zr0 2.030601 1_456
O7 Zr3 2.175679 1_545
O7 Zr2 2.175688 1_555
O8 Zr3 2.724296 1_554
O8 Zr2 2.724299 1_555
O9 Zr0 2.759893 1_556
O10 Zr0 2.759898 1_565
O11 Zr1 2.242967 1_555
O12 Zr1 2.213876 1_655
O12 Zr1 2.213881 1_555
O13 Zr3 2.194036 1_455
O13 Zr3 2.194053 1_555
