# generated using pymatgen
data_RbNaMg6O7
_symmetry_space_group_name_H-M   'P 1'
_cell_length_a   8.16778825
_cell_length_b   4.67603832
_cell_length_c   4.67603832
_cell_angle_alpha   90.00000000
_cell_angle_beta   90.00000000
_cell_angle_gamma   90.00000000
_symmetry_Int_Tables_number   1
_chemical_formula_structural   RbNaMg6O7
_chemical_formula_sum   'Rb1 Na1 Mg6 O7'
_cell_volume   178.59142115
_cell_formula_units_Z   1
loop_
 _symmetry_equiv_pos_site_id
 _symmetry_equiv_pos_as_xyz
  1  'x, y, z'
loop_
 _atom_site_type_symbol
 _atom_site_label
 _atom_site_symmetry_multiplicity
 _atom_site_fract_x
 _atom_site_fract_y
 _atom_site_fract_z
 _atom_site_occupancy
  Rb  Rb0  1  0.43025229  0.00000000  -0.00000000  1
  Na  Na0  1  0.99614528  -0.00000000  -0.00000000  1
  Mg  Mg0  1  0.00449666  0.50000000  0.50000000  1
  Mg  Mg1  1  0.51305575  0.50000000  0.50000000  1
  Mg  Mg2  1  0.25463335  0.00000000  0.50000000  1
  Mg  Mg3  1  0.75037296  0.00000000  0.50000000  1
  Mg  Mg4  1  0.25463335  0.50000000  0.00000000  1
  Mg  Mg5  1  0.75037296  0.50000000  -0.00000000  1
  O  O0  1  0.73987846  -0.00000000  -0.00000000  1
  O  O1  1  0.25920361  0.50000000  0.50000000  1
  O  O2  1  0.75871041  0.50000000  0.50000000  1
  O  O3  1  0.02056026  0.00000000  0.50000000  1
  O  O4  1  0.49856220  -0.00000000  0.50000000  1
  O  O5  1  0.02056026  0.50000000  -0.00000000  1
  O  O6  1  0.49856220  0.50000000  -0.00000000  1
loop_
_geom_bond_atom_site_label_1
_geom_bond_atom_site_label_2
_geom_bond_distance
_geom_bond_site_symmetry_2
Na0 O0 2.093133 1_555
Na0 O3 2.346508 1_655
Na0 O5 2.346508 1_645
Na0 O5 2.346508 1_655
Na0 O3 2.346508 1_654
Mg0 O2 2.007530 1_455
Mg0 O1 2.080392 1_555
Mg0 O5 2.341698 1_555
Mg0 O3 2.341698 1_555
Mg0 O3 2.341698 1_565
Mg0 O5 2.341698 1_556
Mg1 O2 2.006455 1_555
Mg1 O1 2.073411 1_555
Mg1 O4 2.341014 1_565
Mg1 O6 2.341014 1_556
Mg1 O6 2.341014 1_555
Mg1 O4 2.341014 1_555
Mg2 O3 1.911859 1_555
Mg2 O4 1.992359 1_555
Mg2 O1 2.338317 1_545
Mg2 O1 2.338317 1_555
Mg3 O4 2.056737 1_555
Mg3 O3 2.206833 1_655
Mg3 O2 2.339011 1_555
Mg3 O2 2.339011 1_545
Mg3 O0 2.339590 1_555
Mg3 O0 2.339590 1_556
Mg4 O5 1.911859 1_555
Mg4 O6 1.992359 1_555
Mg4 O1 2.338317 1_554
Mg4 O1 2.338317 1_555
Mg5 O6 2.056737 1_555
Mg5 O5 2.206833 1_655
Mg5 O2 2.339011 1_554
Mg5 O2 2.339011 1_555
Mg5 O0 2.339590 1_565
Mg5 O0 2.339590 1_555
O0 Rb0 2.528961 1_555
O4 Rb0 2.403670 1_555
O4 Rb0 2.403670 1_556
O6 Rb0 2.403670 1_565
O6 Rb0 2.403670 1_555
