# generated using pymatgen
data_K3(FeSe)8
_symmetry_space_group_name_H-M   'P 1'
_cell_length_a   7.45119600
_cell_length_b   8.08963059
_cell_length_c   8.21158134
_cell_angle_alpha   71.97647875
_cell_angle_beta   63.06483668
_cell_angle_gamma   76.65286711
_symmetry_Int_Tables_number   1
_chemical_formula_structural   K3(FeSe)8
_chemical_formula_sum   'K3 Fe8 Se8'
_cell_volume   417.21631147
_cell_formula_units_Z   1
loop_
 _symmetry_equiv_pos_site_id
 _symmetry_equiv_pos_as_xyz
  1  'x, y, z'
loop_
 _atom_site_type_symbol
 _atom_site_label
 _atom_site_symmetry_multiplicity
 _atom_site_fract_x
 _atom_site_fract_y
 _atom_site_fract_z
 _atom_site_occupancy
  K  K0  1  0.76326300  0.00005400  0.47370800  1
  K  K1  1  0.50000000  0.00000000  0.00000000  1
  K  K2  1  0.23673700  0.99994600  0.52629200  1
  Fe  Fe0  1  0.06280000  0.49869200  0.62491200  1
  Fe  Fe1  1  0.56283800  0.49954600  0.62447500  1
  Fe  Fe2  1  0.81213900  0.49924000  0.12489800  1
  Fe  Fe3  1  0.31302000  0.50042300  0.12505100  1
  Fe  Fe4  1  0.93720000  0.50130800  0.37508800  1
  Fe  Fe5  1  0.43716200  0.50045400  0.37552500  1
  Fe  Fe6  1  0.68698000  0.49957700  0.87494900  1
  Fe  Fe7  1  0.18786100  0.50076000  0.87510200  1
  Se  Se0  1  0.16217500  0.71450300  0.31989300  1
  Se  Se1  1  0.66090100  0.71436800  0.31953300  1
  Se  Se2  1  0.91009200  0.71312500  0.82034300  1
  Se  Se3  1  0.41237700  0.71395100  0.82039300  1
  Se  Se4  1  0.83782500  0.28549700  0.68010700  1
  Se  Se5  1  0.33909900  0.28563200  0.68046700  1
  Se  Se6  1  0.58762300  0.28604900  0.17960700  1
  Se  Se7  1  0.08990800  0.28687500  0.17965700  1
loop_
_geom_bond_atom_site_label_1
_geom_bond_atom_site_label_2
_geom_bond_distance
_geom_bond_site_symmetry_2
K0 Se6 3.302385 1_555
K0 Se7 3.309688 1_655
K0 Se0 3.316709 1_645
K0 Se1 3.320384 1_545
K0 Se2 3.499590 1_545
K0 Se3 3.502898 1_545
K0 Se4 3.518596 1_555
K0 Se5 3.521836 1_555
K1 Se1 3.388266 1_545
K1 Se5 3.388266 1_554
K1 Se0 3.392649 1_545
K1 Se4 3.392649 1_554
K1 Se3 3.411462 1_544
K1 Se6 3.411462 1_555
K1 Se7 3.414643 1_555
K1 Se2 3.414643 1_544
K2 Se3 3.302385 1_555
K2 Se2 3.309688 1_455
K2 Se4 3.316709 1_465
K2 Se5 3.320384 1_565
K2 Se7 3.499590 1_565
K2 Se6 3.502898 1_565
K2 Se0 3.518596 1_555
K2 Se1 3.521836 1_555
Fe0 Se2 2.456879 1_455
Fe0 Se0 2.465841 1_555
Fe0 Se5 2.478571 1_555
Fe0 Se4 2.480480 1_455
Fe1 Se3 2.459344 1_555
Fe1 Se1 2.461717 1_555
Fe1 Se4 2.475033 1_555
Fe1 Se5 2.475977 1_555
Fe2 Se2 2.456127 1_554
Fe2 Se1 2.457039 1_555
Fe2 Se6 2.479231 1_555
Fe2 Se7 2.482081 1_655
Fe3 Se0 2.451356 1_555
Fe3 Se3 2.455372 1_554
Fe3 Se6 2.471066 1_555
Fe3 Se7 2.473949 1_555
Fe4 Se7 2.456879 1_655
Fe4 Se4 2.465841 1_555
Fe4 Se1 2.478571 1_555
Fe4 Se0 2.480480 1_655
Fe5 Se6 2.459344 1_555
Fe5 Se5 2.461717 1_555
Fe5 Se0 2.475033 1_555
Fe5 Se1 2.475977 1_555
Fe6 Se4 2.451356 1_555
Fe6 Se6 2.455372 1_556
Fe6 Se3 2.471066 1_555
Fe6 Se2 2.473949 1_555
Fe7 Se7 2.456127 1_556
Fe7 Se5 2.457039 1_555
Fe7 Se3 2.479231 1_555
Fe7 Se2 2.482081 1_455
