# generated using pymatgen
data_GaN
_symmetry_space_group_name_H-M   'P 1'
_cell_length_a   11.22754694
_cell_length_b   11.45982188
_cell_length_c   12.15697066
_cell_angle_alpha   88.61837338
_cell_angle_beta   90.03154698
_cell_angle_gamma   89.48532843
_symmetry_Int_Tables_number   1
_chemical_formula_structural   GaN
_chemical_formula_sum   'Ga50 N50'
_cell_volume   1563.66669557
_cell_formula_units_Z   50
loop_
 _symmetry_equiv_pos_site_id
 _symmetry_equiv_pos_as_xyz
  1  'x, y, z'
loop_
 _atom_site_type_symbol
 _atom_site_label
 _atom_site_symmetry_multiplicity
 _atom_site_fract_x
 _atom_site_fract_y
 _atom_site_fract_z
 _atom_site_occupancy
  Ga  Ga0  1  0.90871722  0.94793680  0.43417238  1
  Ga  Ga1  1  0.08348694  0.79572231  0.29869077  1
  Ga  Ga2  1  0.79379542  0.85826069  -0.00145442  1
  Ga  Ga3  1  0.06249928  0.92495878  0.80926889  1
  Ga  Ga4  1  0.22163807  0.17777968  0.12908582  1
  Ga  Ga5  1  0.15931387  0.58579366  0.82968809  1
  Ga  Ga6  1  0.56895095  0.77917743  0.81933661  1
  Ga  Ga7  1  0.93942764  0.14587001  0.25224074  1
  Ga  Ga8  1  0.36948593  0.11478223  0.69828941  1
  Ga  Ga9  1  0.50536012  0.03108344  0.07492932  1
  Ga  Ga10  1  0.37011788  0.83402208  0.58734988  1
  Ga  Ga11  1  0.34276714  0.01391406  0.89265346  1
  Ga  Ga12  1  0.43661746  0.34615643  0.17891931  1
  Ga  Ga13  1  0.71583609  0.37610705  0.23084923  1
  Ga  Ga14  1  0.11318028  0.12022943  0.48169347  1
  Ga  Ga15  1  0.60747619  0.04936434  0.87992789  1
  Ga  Ga16  1  0.19634008  0.99182459  0.64671866  1
  Ga  Ga17  1  0.48918589  0.54887094  0.86291349  1
  Ga  Ga18  1  0.13961890  0.78977139  0.56773371  1
  Ga  Ga19  1  0.08599332  0.34907408  0.49127989  1
  Ga  Ga20  1  0.66511605  0.91226537  0.41765549  1
  Ga  Ga21  1  0.51782232  0.64742352  0.58837296  1
  Ga  Ga22  1  0.88774954  0.56687757  0.30826699  1
  Ga  Ga23  1  0.79784059  0.30335351  0.83104777  1
  Ga  Ga24  1  0.31186121  0.37574621  0.57991172  1
  Ga  Ga25  1  0.34451077  0.79413397  0.81370860  1
  Ga  Ga26  1  0.94559645  0.61982472  0.09136353  1
  Ga  Ga27  1  0.14024538  0.31652222  0.28798722  1
  Ga  Ga28  1  0.47324831  0.83263687  0.29415847  1
  Ga  Ga29  1  0.70525990  0.10746218  0.15170740  1
  Ga  Ga30  1  0.84319484  0.39529445  0.65780734  1
  Ga  Ga31  1  0.81719297  0.16601187  0.56822139  1
  Ga  Ga32  1  0.53615511  0.97560258  0.63852983  1
  Ga  Ga33  1  0.93056349  0.67447959  0.54067486  1
  Ga  Ga34  1  0.27636279  0.92015347  0.11996219  1
  Ga  Ga35  1  0.08639782  0.54844666  0.63278600  1
  Ga  Ga36  1  0.74868719  0.59427835  0.69269779  1
  Ga  Ga37  1  0.78939704  0.89941760  0.67481330  1
  Ga  Ga38  1  0.95947582  0.72727868  0.81281099  1
  Ga  Ga39  1  0.80316066  0.78399736  0.21442926  1
  Ga  Ga40  1  0.76709449  0.38521196  0.44693795  1
  Ga  Ga41  1  0.88336282  0.36102180  0.07795015  1
  Ga  Ga42  1  0.97463075  0.93119365  0.10116035  1
  Ga  Ga43  1  0.57353239  0.26755370  0.69209194  1
  Ga  Ga44  1  0.57846983  0.76611476  0.08335896  1
  Ga  Ga45  1  0.31157315  0.59268564  0.64645200  1
  Ga  Ga46  1  0.28542454  0.77795116  0.39124276  1
  Ga  Ga47  1  0.67909862  0.66826611  0.44742783  1
  Ga  Ga48  1  0.59718563  0.36539956  0.96096515  1
  Ga  Ga49  1  0.73984662  0.58160578  0.95161767  1
  N  N0  1  0.59208619  0.15135867  0.37551982  1
  N  N1  1  0.32677472  0.34709751  0.94800555  1
  N  N2  1  0.36092858  0.02438965  0.38743220  1
  N  N3  1  0.77452770  0.99279110  0.53621440  1
  N  N4  1  0.00392233  0.80820895  0.45645192  1
  N  N5  1  0.84664321  0.73658524  0.67762500  1
  N  N6  1  0.69713411  0.29803571  0.58688898  1
  N  N7  1  0.58860503  0.63047493  0.73715742  1
  N  N8  1  0.83579213  0.01203962  0.21556796  1
  N  N9  1  0.33480275  0.62651687  0.16405612  1
  N  N10  1  0.58187789  0.35834244  0.12311697  1
  N  N11  1  0.58852896  0.66883588  0.95596521  1
  N  N12  1  0.10977986  0.54395612  0.39365436  1
  N  N13  1  0.82427555  0.56732274  0.45313568  1
  N  N14  1  0.12672635  0.30104385  0.73589872  1
  N  N15  1  0.90184573  0.02078448  0.75678621  1
  N  N16  1  0.06828982  0.22080190  0.17630480  1
  N  N17  1  0.67552253  0.67770362  0.28959052  1
  N  N18  1  0.40770563  0.27415790  0.66928017  1
  N  N19  1  0.87110704  0.68657689  0.95405391  1
  N  N20  1  0.12109488  0.68658270  0.05756784  1
  N  N21  1  0.17310030  0.68573834  0.97628149  1
  N  N22  1  0.29294036  0.27782385  0.89289918  1
  N  N23  1  0.12252839  0.91289844  0.17994213  1
  N  N24  1  0.47443145  0.45240299  0.33508714  1
  N  N25  1  0.33007372  0.61330994  0.81197544  1
  N  N26  1  0.91510017  0.31724522  0.52867789  1
  N  N27  1  0.44548450  0.87564914  0.13120371  1
  N  N28  1  0.43635194  0.51638732  0.39476864  1
  N  N29  1  0.09197200  0.45876266  0.93614784  1
  N  N30  1  0.57803366  0.71050081  0.23791338  1
  N  N31  1  0.97662625  0.09423958  0.40035716  1
  N  N32  1  0.80830729  0.92428037  0.29962472  1
  N  N33  1  0.20114262  0.58667348  0.38181743  1
  N  N34  1  0.32230550  0.07187112  0.05580587  1
  N  N35  1  0.95923086  0.69774294  0.23513527  1
  N  N36  1  0.35895425  0.55140813  0.11111838  1
  N  N37  1  0.02788288  0.46669727  0.01296449  1
  N  N38  1  0.97250139  0.19898107  0.93079148  1
  N  N39  1  0.84754905  0.49150873  0.17563120  1
  N  N40  1  0.80956449  0.24117183  0.17333228  1
  N  N41  1  0.51708899  0.21147952  0.39710123  1
  N  N42  1  0.27973971  0.07459074  0.35668334  1
  N  N43  1  0.09060695  0.21143270  0.72285065  1
  N  N44  1  0.87945399  0.12088660  0.73004198  1
  N  N45  1  0.63692676  0.22622717  0.84481277  1
  N  N46  1  0.64491257  0.92388340  0.76261321  1
  N  N47  1  0.03271076  0.12028182  0.94448676  1
  N  N48  1  0.29088255  0.30099765  0.21045332  1
  N  N49  1  0.76911590  0.41353910  0.95458339  1
loop_
_geom_bond_atom_site_label_1
_geom_bond_atom_site_label_2
_geom_bond_distance
_geom_bond_site_symmetry_2
Ga0 N31 1.884516 1_565
Ga0 N4 1.930800 1_655
Ga0 N32 2.011159 1_555
Ga0 N3 2.022847 1_555
Ga1 N35 1.967939 1_455
Ga1 N23 1.999285 1_555
Ga1 N4 2.123592 1_555
Ga2 N19 2.222181 1_554
Ga3 N15 2.189946 1_465
Ga4 N16 1.880537 1_555
Ga4 N34 1.890173 1_555
Ga4 N48 1.913906 1_555
Ga5 N25 1.956925 1_555
Ga5 N29 2.072655 1_555
Ga5 N21 2.147810 1_555
Ga6 N46 1.980855 1_555
Ga6 N7 2.006577 1_555
Ga6 N11 2.073517 1_555
Ga7 N16 1.915306 1_655
Ga7 N31 1.926187 1_555
Ga7 N8 1.992305 1_555
Ga7 N40 2.039174 1_555
Ga8 N18 1.904598 1_555
Ga9 N27 2.013966 1_545
Ga9 N34 2.115083 1_555
Ga10 Ga32 2.568373 1_555
Ga10 Ga18 2.653333 1_555
Ga10 Ga46 2.661434 1_555
Ga10 Ga21 2.694066 1_555
Ga10 Ga16 2.756642 1_555
Ga10 Ga25 2.794062 1_555
Ga10 Ga45 2.921405 1_555
Ga11 N34 2.118780 1_556
Ga12 N48 1.760232 1_555
Ga12 N10 1.772103 1_555
Ga12 N24 2.320991 1_555
Ga12 N36 2.615567 1_555
Ga13 N40 2.002800 1_555
Ga13 N10 2.008737 1_555
Ga13 N39 2.092818 1_555
Ga14 N31 1.854124 1_455
Ga14 N42 2.470659 1_555
Ga14 Ga16 2.625418 1_545
Ga15 N46 2.089785 1_545
Ga15 N45 2.090461 1_555
Ga16 Ga8 2.499632 1_565
Ga16 Ga3 2.588681 1_555
Ga16 Ga18 2.611921 1_555
Ga17 N25 2.018215 1_555
Ga17 N7 2.099874 1_555
Ga17 N11 2.124832 1_555
Ga18 N4 2.043081 1_555
Ga18 Ga35 2.924966 1_555
Ga19 N26 2.006673 1_455
Ga19 N12 2.520084 1_555
Ga19 Ga35 2.892977 1_555
Ga20 N3 2.126160 1_555
Ga20 N32 2.158595 1_555
Ga21 N7 1.979809 1_555
Ga22 N13 1.900357 1_555
Ga22 N39 1.903438 1_555
Ga22 N35 1.908330 1_555
Ga23 N49 2.009619 1_555
Ga23 N45 2.023644 1_555
Ga23 N38 2.575239 1_555
Ga23 N44 2.609696 1_555
Ga24 N18 1.899709 1_555
Ga25 N25 2.080604 1_555
Ga26 N35 1.988236 1_555
Ga26 N19 1.999120 1_554
Ga26 N39 2.093154 1_555
Ga26 N20 2.156255 1_655
Ga26 N37 2.212194 1_655
Ga27 N48 1.945505 1_555
Ga27 N16 1.945735 1_555
Ga28 N30 1.956565 1_555
Ga28 N27 2.052829 1_555
Ga29 N40 1.959537 1_555
Ga29 N8 1.968601 1_555
Ga30 N26 1.993050 1_555
Ga30 N6 2.180016 1_555
Ga31 N6 2.034170 1_555
Ga31 N3 2.091778 1_545
Ga31 N26 2.106599 1_555
Ga31 N44 2.137539 1_555
Ga32 N46 2.014865 1_555
Ga33 N4 2.005812 1_655
Ga33 N13 2.037784 1_555
Ga33 N5 2.052567 1_555
Ga33 Ga35 2.505127 1_655
Ga34 N23 1.876916 1_555
Ga34 N34 1.961755 1_565
Ga34 N27 1.965520 1_555
Ga35 Ga5 2.576217 1_555
Ga35 Ga45 2.588991 1_555
Ga36 N7 1.921739 1_555
Ga36 N5 1.980083 1_555
Ga37 N46 1.964085 1_555
Ga37 N5 1.967663 1_555
Ga37 N3 1.980261 1_555
Ga37 N15 2.149071 1_565
Ga38 N19 2.030247 1_555
Ga38 N5 2.074609 1_555
Ga39 N32 1.934525 1_555
Ga39 N35 2.016760 1_555
Ga39 N17 2.086023 1_555
Ga40 N26 2.071982 1_555
Ga40 N6 2.107921 1_555
Ga40 N13 2.191993 1_555
Ga41 N40 1.965249 1_555
Ga41 N39 1.970610 1_555
Ga41 N49 2.048742 1_554
Ga41 N37 2.171208 1_655
Ga42 N23 1.923773 1_655
Ga42 N8 2.293757 1_565
Ga43 N18 1.882797 1_555
Ga43 N6 1.916426 1_555
Ga43 N45 2.031756 1_555
Ga44 N11 1.932682 1_554
Ga44 N30 1.969478 1_555
Ga44 N27 2.036122 1_555
Ga45 N25 2.042442 1_555
Ga46 N33 2.400569 1_555
Ga47 N17 1.919641 1_555
Ga47 N13 1.990465 1_555
Ga48 N10 1.978620 1_556
Ga48 N49 2.013421 1_555
Ga48 N45 2.198453 1_555
Ga49 N19 1.911380 1_555
Ga49 N49 1.950408 1_555
Ga49 N11 1.964831 1_555
N0 N41 1.118517 1_555
N1 N22 1.119871 1_555
N2 N42 1.132016 1_555
N12 N33 1.148199 1_555
N14 N43 1.122259 1_555
N15 N44 1.208973 1_555
N17 N30 1.309379 1_555
N20 N21 1.148282 1_554
N24 N28 1.125711 1_555
N29 N37 1.183972 1_556
N32 N8 1.451641 1_565
N36 N9 1.118604 1_555
N38 N47 1.131269 1_655
