# generated using pymatgen
data_HoSbO4
_symmetry_space_group_name_H-M   'P 1'
_cell_length_a   5.31466721
_cell_length_b   7.45557207
_cell_length_c   7.56190050
_cell_angle_alpha   81.26763429
_cell_angle_beta   90.00000000
_cell_angle_gamma   90.00000000
_symmetry_Int_Tables_number   1
_chemical_formula_structural   HoSbO4
_chemical_formula_sum   'Ho4 Sb4 O16'
_cell_volume   296.15862366
_cell_formula_units_Z   4
loop_
 _symmetry_equiv_pos_site_id
 _symmetry_equiv_pos_as_xyz
  1  'x, y, z'
loop_
 _atom_site_type_symbol
 _atom_site_label
 _atom_site_symmetry_multiplicity
 _atom_site_fract_x
 _atom_site_fract_y
 _atom_site_fract_z
 _atom_site_occupancy
  Ho  Ho0  1  0.72560253  0.88890474  0.35562347  1
  Ho  Ho1  1  0.27439747  0.11109526  0.64437653  1
  Ho  Ho2  1  0.77439747  0.38890474  0.35562347  1
  Ho  Ho3  1  0.22560253  0.61109526  0.64437653  1
  Sb  Sb0  1  0.76887604  0.30718682  0.83646756  1
  Sb  Sb1  1  0.23112396  0.69281318  0.16353244  1
  Sb  Sb2  1  0.26887604  0.19281318  0.16353244  1
  Sb  Sb3  1  0.73112396  0.80718682  0.83646756  1
  O  O0  1  0.90612718  0.80791683  0.06730229  1
  O  O1  1  0.09387282  0.19208317  0.93269771  1
  O  O2  1  0.38198330  0.93851135  0.17072497  1
  O  O3  1  0.61801670  0.06148865  0.82927503  1
  O  O4  1  0.11801670  0.43851135  0.17072497  1
  O  O5  1  0.88198330  0.56148865  0.82927503  1
  O  O6  1  0.59387282  0.30791683  0.06730229  1
  O  O7  1  0.40612718  0.69208317  0.93269771  1
  O  O8  1  0.97649935  0.32521035  0.61306683  1
  O  O9  1  0.02350065  0.67478965  0.38693317  1
  O  O10  1  0.47649935  0.17478965  0.38693317  1
  O  O11  1  0.52350065  0.82521035  0.61306683  1
  O  O12  1  0.51105620  0.61866404  0.32289365  1
  O  O13  1  0.48894380  0.38133596  0.67710635  1
  O  O14  1  0.98894380  0.11866404  0.32289365  1
  O  O15  1  0.01105620  0.88133596  0.67710635  1
loop_
_geom_bond_atom_site_label_1
_geom_bond_atom_site_label_2
_geom_bond_distance
_geom_bond_site_symmetry_2
Ho0 O14 2.196736 1_565
Ho0 O11 2.210969 1_555
Ho0 O9 2.235228 1_655
Ho0 O2 2.295599 1_555
Ho0 O12 2.360559 1_555
Ho0 O0 2.537388 1_555
Ho0 O10 2.550493 1_565
Ho0 O15 2.858839 1_655
Ho1 O15 2.196736 1_545
Ho1 O10 2.210969 1_555
Ho1 O8 2.235228 1_455
Ho1 O3 2.295599 1_555
Ho1 O13 2.360559 1_555
Ho1 O1 2.537388 1_555
Ho1 O11 2.550493 1_545
Ho1 O14 2.858839 1_455
Ho2 O12 2.196736 1_555
Ho2 O8 2.210969 1_555
Ho2 O10 2.235228 1_555
Ho2 O4 2.295599 1_655
Ho2 O14 2.360559 1_555
Ho2 O6 2.537388 1_555
Ho2 O9 2.550493 1_655
Ho2 O13 2.858839 1_555
Ho3 O13 2.196736 1_555
Ho3 O9 2.210969 1_555
Ho3 O11 2.235228 1_555
Ho3 O5 2.295599 1_455
Ho3 O15 2.360559 1_555
Ho3 O7 2.537388 1_555
Ho3 O8 2.550493 1_455
Ho3 O12 2.858839 1_555
O0 Sb3 1.978614 1_554
O0 Sb1 2.014881 1_655
O1 Sb2 1.978614 1_556
O1 Sb0 2.014881 1_455
O2 Sb2 1.981839 1_565
O2 Sb1 2.007886 1_555
O3 Sb3 1.981839 1_545
O3 Sb0 2.007886 1_555
O4 Sb1 1.981839 1_555
O4 Sb2 2.007886 1_555
O5 Sb0 1.981839 1_555
O5 Sb3 2.007886 1_555
O6 Sb0 1.978614 1_554
O6 Sb2 2.014881 1_555
O7 Sb1 1.978614 1_556
O7 Sb3 2.014881 1_555
O8 Sb0 2.005138 1_555
O9 Sb1 2.005138 1_555
O10 Sb2 2.005138 1_555
O11 Sb3 2.005138 1_555
O12 Sb1 1.941372 1_555
O13 Sb0 1.941372 1_555
O14 Sb2 1.941372 1_655
O15 Sb3 1.941372 1_455
