# generated using pymatgen
data_HfCrSi2
_symmetry_space_group_name_H-M   'P 1'
_cell_length_a   7.99617800
_cell_length_b   9.05462700
_cell_length_c   9.72496200
_cell_angle_alpha   90.00000000
_cell_angle_beta   90.00000000
_cell_angle_gamma   90.00000000
_symmetry_Int_Tables_number   1
_chemical_formula_structural   HfCrSi2
_chemical_formula_sum   'Hf12 Cr12 Si24'
_cell_volume   704.11067833
_cell_formula_units_Z   12
loop_
 _symmetry_equiv_pos_site_id
 _symmetry_equiv_pos_as_xyz
  1  'x, y, z'
loop_
 _atom_site_type_symbol
 _atom_site_label
 _atom_site_symmetry_multiplicity
 _atom_site_fract_x
 _atom_site_fract_y
 _atom_site_fract_z
 _atom_site_occupancy
  Hf  Hf0  1  0.74634700  0.82816200  0.04801600  1
  Hf  Hf1  1  0.74634700  0.17183800  0.95198400  1
  Hf  Hf2  1  0.25365300  0.67183800  0.54801600  1
  Hf  Hf3  1  0.25365300  0.32816200  0.45198400  1
  Hf  Hf4  1  0.25365300  0.17183800  0.95198400  1
  Hf  Hf5  1  0.25365300  0.82816200  0.04801600  1
  Hf  Hf6  1  0.74634700  0.32816200  0.45198400  1
  Hf  Hf7  1  0.74634700  0.67183800  0.54801600  1
  Hf  Hf8  1  0.50000000  0.83088600  0.32028800  1
  Hf  Hf9  1  0.50000000  0.16911400  0.67971200  1
  Hf  Hf10  1  0.50000000  0.66911400  0.82028800  1
  Hf  Hf11  1  0.50000000  0.33088600  0.17971200  1
  Cr  Cr0  1  0.74863000  0.57937600  0.24799200  1
  Cr  Cr1  1  0.74863000  0.42062400  0.75200800  1
  Cr  Cr2  1  0.25137000  0.92062400  0.74799200  1
  Cr  Cr3  1  0.25137000  0.07937600  0.25200800  1
  Cr  Cr4  1  0.25137000  0.42062400  0.75200800  1
  Cr  Cr5  1  0.25137000  0.57937600  0.24799200  1
  Cr  Cr6  1  0.74863000  0.07937600  0.25200800  1
  Cr  Cr7  1  0.74863000  0.92062400  0.74799200  1
  Cr  Cr8  1  0.74449500  0.00000000  0.50000000  1
  Cr  Cr9  1  0.25550500  0.50000000  0.00000000  1
  Cr  Cr10  1  0.25550500  0.00000000  0.50000000  1
  Cr  Cr11  1  0.74449500  0.50000000  0.00000000  1
  Si  Si0  1  0.85106500  0.82886100  0.31888900  1
  Si  Si1  1  0.85106500  0.17113900  0.68111100  1
  Si  Si2  1  0.14893500  0.67113900  0.81888900  1
  Si  Si3  1  0.14893500  0.32886100  0.18111100  1
  Si  Si4  1  0.14893500  0.17113900  0.68111100  1
  Si  Si5  1  0.14893500  0.82886100  0.31888900  1
  Si  Si6  1  0.85106500  0.32886100  0.18111100  1
  Si  Si7  1  0.85106500  0.67113900  0.81888900  1
  Si  Si8  1  0.50000000  0.53937000  0.38037700  1
  Si  Si9  1  0.50000000  0.46063000  0.61962300  1
  Si  Si10  1  0.50000000  0.96063000  0.88037700  1
  Si  Si11  1  0.50000000  0.03937000  0.11962300  1
  Si  Si12  1  0.00000000  0.53963200  0.37647400  1
  Si  Si13  1  0.00000000  0.46036800  0.62352600  1
  Si  Si14  1  0.00000000  0.96036800  0.87647400  1
  Si  Si15  1  0.00000000  0.03963200  0.12352600  1
  Si  Si16  1  0.50000000  0.62661400  0.10399500  1
  Si  Si17  1  0.50000000  0.37338600  0.89600500  1
  Si  Si18  1  0.50000000  0.87338600  0.60399500  1
  Si  Si19  1  0.50000000  0.12661400  0.39600500  1
  Si  Si20  1  0.00000000  0.61362100  0.09800700  1
  Si  Si21  1  0.00000000  0.38637900  0.90199300  1
  Si  Si22  1  0.00000000  0.88637900  0.59800700  1
  Si  Si23  1  0.00000000  0.11362100  0.40199300  1
loop_
_geom_bond_atom_site_label_1
_geom_bond_atom_site_label_2
_geom_bond_distance
_geom_bond_site_symmetry_2
Hf0 Si16 2.739895 1_555
Hf0 Si0 2.764118 1_555
Hf0 Si7 2.772674 1_554
Hf0 Si10 2.824313 1_554
Hf0 Si11 2.832401 1_565
Hf0 Si20 2.850231 1_655
Hf0 Si15 2.884346 1_665
Hf0 Si14 2.886145 1_654
Hf1 Si17 2.739895 1_555
Hf1 Si1 2.764118 1_555
Hf1 Si6 2.772674 1_556
Hf1 Si11 2.824313 1_556
Hf1 Si10 2.832401 1_545
Hf1 Si21 2.850231 1_655
Hf1 Si14 2.884346 1_645
Hf1 Si15 2.886145 1_656
Hf2 Si18 2.739895 1_555
Hf2 Si2 2.764118 1_555
Hf2 Si5 2.772674 1_555
Hf2 Si8 2.824313 1_555
Hf2 Si9 2.832401 1_555
Hf2 Si22 2.850231 1_555
Hf2 Si13 2.884346 1_555
Hf2 Si12 2.886145 1_555
Hf3 Si19 2.739895 1_555
Hf3 Si3 2.764118 1_555
Hf3 Si4 2.772674 1_555
Hf3 Si9 2.824313 1_555
Hf3 Si8 2.832401 1_555
Hf3 Si23 2.850231 1_555
Hf3 Si12 2.884346 1_555
Hf3 Si13 2.886145 1_555
Hf4 Si17 2.739895 1_555
Hf4 Si4 2.764118 1_555
Hf4 Si3 2.772674 1_556
Hf4 Si11 2.824313 1_556
Hf4 Si10 2.832401 1_545
Hf4 Si21 2.850231 1_555
Hf4 Si14 2.884346 1_545
Hf4 Si15 2.886145 1_556
Hf5 Si16 2.739895 1_555
Hf5 Si5 2.764118 1_555
Hf5 Si2 2.772674 1_554
Hf5 Si10 2.824313 1_554
Hf5 Si11 2.832401 1_565
Hf5 Si20 2.850231 1_555
Hf5 Si15 2.884346 1_565
Hf5 Si14 2.886145 1_554
Hf6 Si19 2.739895 1_555
Hf6 Si6 2.764118 1_555
Hf6 Si1 2.772674 1_555
Hf6 Si9 2.824313 1_555
Hf6 Si8 2.832401 1_555
Hf6 Si23 2.850231 1_655
Hf6 Si12 2.884346 1_655
Hf6 Si13 2.886145 1_655
Hf7 Si18 2.739895 1_555
Hf7 Si7 2.764118 1_555
Hf7 Si0 2.772674 1_555
Hf7 Si8 2.824313 1_555
Hf7 Si9 2.832401 1_555
Hf7 Si22 2.850231 1_655
Hf7 Si13 2.884346 1_655
Hf7 Si12 2.886145 1_655
Hf8 Si8 2.703480 1_555
Hf8 Si11 2.715101 1_565
Hf8 Si19 2.777106 1_565
Hf8 Si18 2.785747 1_555
Hf8 Si16 2.800984 1_555
Hf8 Si0 2.807271 1_555
Hf8 Si5 2.807271 1_555
Hf9 Si9 2.703480 1_555
Hf9 Si10 2.715101 1_545
Hf9 Si18 2.777106 1_545
Hf9 Si19 2.785747 1_555
Hf9 Si17 2.800984 1_555
Hf9 Si4 2.807271 1_555
Hf9 Si1 2.807271 1_555
Hf10 Si10 2.703480 1_555
Hf10 Si9 2.715101 1_555
Hf10 Si17 2.777106 1_555
Hf10 Si16 2.785747 1_556
Hf10 Si18 2.800984 1_555
Hf10 Si7 2.807271 1_555
Hf10 Si2 2.807271 1_555
Hf11 Si11 2.703480 1_555
Hf11 Si8 2.715101 1_555
Hf11 Si16 2.777106 1_555
Hf11 Si17 2.785747 1_554
Hf11 Si19 2.800984 1_555
Hf11 Si3 2.807271 1_555
Hf11 Si6 2.807271 1_555
Cr0 Si12 2.393911 1_655
Cr0 Si8 2.396084 1_555
Cr0 Si16 2.469103 1_555
Cr0 Si6 2.497843 1_555
Cr0 Si0 2.499866 1_555
Cr0 Si20 2.502749 1_655
Cr0 Cr11 2.516746 1_555
Cr1 Si13 2.393911 1_655
Cr1 Si9 2.396084 1_555
Cr1 Si17 2.469103 1_555
Cr1 Si7 2.497843 1_555
Cr1 Si1 2.499866 1_555
Cr1 Si21 2.502749 1_655
Cr1 Cr11 2.516746 1_556
Cr2 Si14 2.393911 1_555
Cr2 Si10 2.396084 1_555
Cr2 Si18 2.469103 1_555
Cr2 Si4 2.497843 1_565
Cr2 Si2 2.499866 1_555
Cr2 Si22 2.502749 1_555
Cr3 Si15 2.393911 1_555
Cr3 Si11 2.396084 1_555
Cr3 Si19 2.469103 1_555
Cr3 Si5 2.497843 1_545
Cr3 Si3 2.499866 1_555
Cr3 Si23 2.502749 1_555
Cr4 Si13 2.393911 1_555
Cr4 Si9 2.396084 1_555
Cr4 Si17 2.469103 1_555
Cr4 Si2 2.497843 1_555
Cr4 Si4 2.499866 1_555
Cr4 Si21 2.502749 1_555
Cr4 Cr9 2.516746 1_556
Cr5 Si12 2.393911 1_555
Cr5 Si8 2.396084 1_555
Cr5 Si16 2.469103 1_555
Cr5 Si3 2.497843 1_555
Cr5 Si5 2.499866 1_555
Cr5 Si20 2.502749 1_555
Cr5 Cr9 2.516746 1_555
Cr6 Si15 2.393911 1_655
Cr6 Si11 2.396084 1_555
Cr6 Si19 2.469103 1_555
Cr6 Si0 2.497843 1_545
Cr6 Si6 2.499866 1_555
Cr6 Si23 2.502749 1_655
Cr6 Cr8 2.516746 1_555
Cr7 Si14 2.393911 1_655
Cr7 Si10 2.396084 1_555
Cr7 Si18 2.469103 1_555
Cr7 Si1 2.497843 1_565
Cr7 Si7 2.499866 1_555
Cr7 Si22 2.502749 1_655
Cr7 Cr8 2.516746 1_565
Cr8 Si22 2.478095 1_645
Cr8 Si23 2.478095 1_655
Cr8 Si18 2.481789 1_545
Cr8 Si19 2.481789 1_555
Cr8 Si1 2.495915 1_555
Cr8 Si0 2.495915 1_545
Cr8 Hf6 3.007888 1_555
Cr8 Hf7 3.007888 1_545
Cr8 Hf9 3.036663 1_555
Cr8 Hf8 3.036663 1_545
Cr9 Si20 2.478095 1_555
Cr9 Si21 2.478095 1_554
Cr9 Si17 2.481789 1_554
Cr9 Si16 2.481789 1_555
Cr9 Si3 2.495915 1_555
Cr9 Si2 2.495915 1_554
Cr9 Hf4 3.007888 1_554
Cr9 Hf5 3.007888 1_555
Cr9 Hf10 3.036663 1_554
Cr9 Hf11 3.036663 1_555
Cr10 Si22 2.478095 1_545
Cr10 Si23 2.478095 1_555
Cr10 Si18 2.481789 1_545
Cr10 Si19 2.481789 1_555
Cr10 Si4 2.495915 1_555
Cr10 Si5 2.495915 1_545
Cr10 Cr3 2.516746 1_555
Cr10 Cr2 2.516746 1_545
Cr10 Hf3 3.007888 1_555
Cr10 Hf2 3.007888 1_545
Cr10 Hf9 3.036663 1_555
Cr10 Hf8 3.036663 1_545
Cr11 Si20 2.478095 1_655
Cr11 Si21 2.478095 1_654
Cr11 Si17 2.481789 1_554
Cr11 Si16 2.481789 1_555
Cr11 Si6 2.495915 1_555
Cr11 Si7 2.495915 1_554
Cr11 Hf0 3.007888 1_555
Cr11 Hf1 3.007888 1_554
Cr11 Hf10 3.036663 1_554
Cr11 Hf11 3.036663 1_555
Si0 Si5 2.381822 1_655
Si1 Si4 2.381822 1_655
Si2 Si7 2.381822 1_455
Si3 Si6 2.381822 1_455
Si8 Si9 2.433445 1_555
Si10 Si11 2.433445 1_566
Si12 Si13 2.507479 1_555
Si14 Si15 2.507479 1_566
