# generated using pymatgen
data_Li3B11O18
_symmetry_space_group_name_H-M   'P 1'
_cell_length_a   7.95230100
_cell_length_b   9.77193800
_cell_length_c   17.99760465
_cell_angle_alpha   79.31452179
_cell_angle_beta   90.00000000
_cell_angle_gamma   90.00000000
_symmetry_Int_Tables_number   1
_chemical_formula_structural   Li3B11O18
_chemical_formula_sum   'Li12 B44 O72'
_cell_volume   1374.33124536
_cell_formula_units_Z   4
loop_
 _symmetry_equiv_pos_site_id
 _symmetry_equiv_pos_as_xyz
  1  'x, y, z'
loop_
 _atom_site_type_symbol
 _atom_site_label
 _atom_site_symmetry_multiplicity
 _atom_site_fract_x
 _atom_site_fract_y
 _atom_site_fract_z
 _atom_site_occupancy
  Li  Li0  1  0.18315300  0.99269600  0.04190200  1
  Li  Li1  1  0.68315300  0.50730400  0.95809800  1
  Li  Li2  1  0.81684700  0.00730400  0.95809800  1
  Li  Li3  1  0.31684700  0.49269600  0.04190200  1
  Li  Li4  1  0.42234200  0.77799600  0.24643900  1
  Li  Li5  1  0.92234200  0.72200400  0.75356100  1
  Li  Li6  1  0.57765800  0.22200400  0.75356100  1
  Li  Li7  1  0.07765800  0.27799600  0.24643900  1
  Li  Li8  1  0.05951400  0.63552600  0.42053100  1
  Li  Li9  1  0.55951400  0.86447400  0.57946900  1
  Li  Li10  1  0.94048600  0.36447400  0.57946900  1
  Li  Li11  1  0.44048600  0.13552600  0.42053100  1
  B  B0  1  0.63084300  0.74921800  0.00682400  1
  B  B1  1  0.13084300  0.75078200  0.99317600  1
  B  B2  1  0.36915700  0.25078200  0.99317600  1
  B  B3  1  0.86915700  0.24921800  0.00682400  1
  B  B4  1  0.58054400  0.90245500  0.09615300  1
  B  B5  1  0.08054400  0.59754500  0.90384700  1
  B  B6  1  0.41945600  0.09754500  0.90384700  1
  B  B7  1  0.91945600  0.40245500  0.09615300  1
  B  B8  1  0.38545300  0.50872200  0.19294400  1
  B  B9  1  0.88545300  0.99127800  0.80705600  1
  B  B10  1  0.61454700  0.49127800  0.80705600  1
  B  B11  1  0.11454700  0.00872200  0.19294400  1
  B  B12  1  0.60142100  0.49086000  0.28701700  1
  B  B13  1  0.10142100  0.00914000  0.71298300  1
  B  B14  1  0.39857900  0.50914000  0.71298300  1
  B  B15  1  0.89857900  0.99086000  0.28701700  1
  B  B16  1  0.65527300  0.65430700  0.37534100  1
  B  B17  1  0.15527300  0.84569300  0.62465900  1
  B  B18  1  0.34472700  0.34569300  0.62465900  1
  B  B19  1  0.84472700  0.15430700  0.37534100  1
  B  B20  1  0.71017600  0.75041500  0.48606400  1
  B  B21  1  0.21017600  0.74958500  0.51393600  1
  B  B22  1  0.28982400  0.24958500  0.51393600  1
  B  B23  1  0.78982400  0.25041500  0.48606400  1
  B  B24  1  0.94167700  0.46509300  0.69205900  1
  B  B25  1  0.44167700  0.03490700  0.30794100  1
  B  B26  1  0.05832300  0.53490700  0.30794100  1
  B  B27  1  0.55832300  0.96509300  0.69205900  1
  B  B28  1  0.06583600  0.42779300  0.81593100  1
  B  B29  1  0.56583600  0.07220700  0.18406900  1
  B  B30  1  0.93416400  0.57220700  0.18406900  1
  B  B31  1  0.43416400  0.92779300  0.81593100  1
  B  B32  1  0.37496000  0.71858800  0.08648300  1
  B  B33  1  0.87496000  0.78141200  0.91351700  1
  B  B34  1  0.62504000  0.28141200  0.91351700  1
  B  B35  1  0.12504000  0.21858800  0.08648300  1
  B  B36  1  0.94168500  0.68614500  0.58578100  1
  B  B37  1  0.44168500  0.81385500  0.41421900  1
  B  B38  1  0.05831500  0.31385500  0.41421900  1
  B  B39  1  0.55831500  0.18614500  0.58578100  1
  B  B40  1  0.00858400  0.22220100  0.75716400  1
  B  B41  1  0.50858400  0.27779900  0.24283600  1
  B  B42  1  0.99141600  0.77779900  0.24283600  1
  B  B43  1  0.49141600  0.72220100  0.75716400  1
  O  O0  1  0.23598700  0.79661800  0.04302500  1
  O  O1  1  0.73598700  0.70338200  0.95697500  1
  O  O2  1  0.76401300  0.20338200  0.95697500  1
  O  O3  1  0.26401300  0.29661800  0.04302500  1
  O  O4  1  0.49685300  0.66794100  0.03402200  1
  O  O5  1  0.99685300  0.83205900  0.96597800  1
  O  O6  1  0.50314700  0.33205900  0.96597800  1
  O  O7  1  0.00314700  0.16794100  0.03402200  1
  O  O8  1  0.45785500  0.81371400  0.12931500  1
  O  O9  1  0.95785500  0.68628600  0.87068500  1
  O  O10  1  0.54214500  0.18628600  0.87068500  1
  O  O11  1  0.04214500  0.31371400  0.12931500  1
  O  O12  1  0.66035400  0.87767100  0.03006200  1
  O  O13  1  0.16035400  0.62232900  0.96993800  1
  O  O14  1  0.33964600  0.12232900  0.96993800  1
  O  O15  1  0.83964600  0.37767100  0.03006200  1
  O  O16  1  0.30654500  0.59112800  0.13266500  1
  O  O17  1  0.80654500  0.90887200  0.86733500  1
  O  O18  1  0.69345500  0.40887200  0.86733500  1
  O  O19  1  0.19345500  0.09112800  0.13266500  1
  O  O20  1  0.47883000  0.57313300  0.24318900  1
  O  O21  1  0.97883000  0.92686700  0.75681100  1
  O  O22  1  0.52117000  0.42686700  0.75681100  1
  O  O23  1  0.02117000  0.07313300  0.24318900  1
  O  O24  1  0.69623900  0.54795400  0.33778000  1
  O  O25  1  0.19623900  0.95204600  0.66222000  1
  O  O26  1  0.30376100  0.45204600  0.66222000  1
  O  O27  1  0.80376100  0.04795400  0.33778000  1
  O  O28  1  0.51087400  0.72987800  0.36053800  1
  O  O29  1  0.01087400  0.77012200  0.63946200  1
  O  O30  1  0.48912600  0.27012200  0.63946200  1
  O  O31  1  0.98912600  0.22987800  0.36053800  1
  O  O32  1  0.48764800  0.98040200  0.24389500  1
  O  O33  1  0.98764800  0.51959800  0.75610500  1
  O  O34  1  0.51235200  0.01959800  0.75610500  1
  O  O35  1  0.01235200  0.48040200  0.24389500  1
  O  O36  1  0.76514400  0.67040800  0.43393200  1
  O  O37  1  0.26514400  0.82959200  0.56606800  1
  O  O38  1  0.23485600  0.32959200  0.56606800  1
  O  O39  1  0.73485600  0.17040800  0.43393200  1
  O  O40  1  0.56353400  0.82524100  0.47457200  1
  O  O41  1  0.06353400  0.67475900  0.52542800  1
  O  O42  1  0.43646600  0.17475900  0.52542800  1
  O  O43  1  0.93646600  0.32524100  0.47457200  1
  O  O44  1  0.78857300  0.75651000  0.55240900  1
  O  O45  1  0.28857300  0.74349000  0.44759100  1
  O  O46  1  0.21142700  0.24349000  0.44759100  1
  O  O47  1  0.71142700  0.25651000  0.55240900  1
  O  O48  1  0.89942600  0.54427000  0.62438700  1
  O  O49  1  0.39942600  0.95573000  0.37561300  1
  O  O50  1  0.10057400  0.45573000  0.37561300  1
  O  O51  1  0.60057400  0.04427000  0.62438700  1
  O  O52  1  0.93168600  0.32435200  0.69547400  1
  O  O53  1  0.43168600  0.17564800  0.30452600  1
  O  O54  1  0.06831400  0.67564800  0.30452600  1
  O  O55  1  0.56831400  0.82435200  0.69547400  1
  O  O56  1  0.13146200  0.14084700  0.72217600  1
  O  O57  1  0.63146200  0.35915300  0.27782400  1
  O  O58  1  0.86853800  0.85915300  0.27782400  1
  O  O59  1  0.36853800  0.64084700  0.72217600  1
  O  O60  1  0.87311000  0.13183200  0.79642300  1
  O  O61  1  0.37311000  0.36816800  0.20357700  1
  O  O62  1  0.12689000  0.86816800  0.20357700  1
  O  O63  1  0.62689000  0.63183200  0.79642300  1
  O  O64  1  0.09188200  0.29284200  0.81289900  1
  O  O65  1  0.59188200  0.20715800  0.18710100  1
  O  O66  1  0.90811800  0.70715800  0.18710100  1
  O  O67  1  0.40811800  0.79284200  0.81289900  1
  O  O68  1  0.12615900  0.47993500  0.87780000  1
  O  O69  1  0.62615900  0.02006500  0.12220000  1
  O  O70  1  0.87384100  0.52006500  0.12220000  1
  O  O71  1  0.37384100  0.97993500  0.87780000  1
loop_
_geom_bond_atom_site_label_1
_geom_bond_atom_site_label_2
_geom_bond_distance
_geom_bond_site_symmetry_2
Li0 O0 1.958027 1_555
Li0 O19 2.045227 1_565
Li0 O14 2.054870 1_564
Li0 O7 2.216243 1_565
Li1 O1 1.958027 1_555
Li1 O18 2.045227 1_555
Li1 O15 2.054870 1_556
Li1 O6 2.216243 1_555
Li2 O2 1.958027 1_555
Li2 O17 2.045227 1_545
Li2 O12 2.054870 1_546
Li2 O5 2.216243 1_545
Li3 O3 1.958027 1_555
Li3 O16 2.045227 1_555
Li3 O13 2.054870 1_554
Li3 O4 2.216243 1_555
Li4 O32 2.037230 1_555
Li4 O20 2.063073 1_555
Li4 O8 2.090980 1_555
Li4 O28 2.139062 1_555
Li4 O62 2.576762 1_555
Li5 O33 2.037230 1_555
Li5 O21 2.063073 1_555
Li5 O9 2.090980 1_555
Li5 O29 2.139062 1_655
Li5 O63 2.576762 1_555
Li6 O34 2.037230 1_555
Li6 O22 2.063073 1_555
Li6 O10 2.090980 1_555
Li6 O30 2.139062 1_555
Li6 O60 2.576762 1_555
Li7 O35 2.037230 1_555
Li7 O23 2.063073 1_555
Li7 O11 2.090980 1_555
Li7 O31 2.139062 1_455
Li7 O61 2.576762 1_555
Li8 O41 1.995133 1_555
Li8 O54 2.052808 1_555
Li8 O50 2.091354 1_555
Li8 O45 2.204272 1_555
Li8 O36 2.384271 1_455
Li9 O40 1.995133 1_555
Li9 O55 2.052808 1_555
Li9 O51 2.091354 1_565
Li9 O44 2.204272 1_555
Li9 O37 2.384271 1_555
Li10 O43 1.995133 1_555
Li10 O52 2.052808 1_555
Li10 O48 2.091354 1_555
Li10 O47 2.204272 1_555
Li10 O38 2.384271 1_655
Li11 O42 1.995133 1_555
Li11 O53 2.052808 1_555
Li11 O49 2.091354 1_545
Li11 O46 2.204272 1_555
Li11 O39 2.384271 1_555
B0 O1 1.361493 1_554
B0 O4 1.364403 1_555
B0 O12 1.414314 1_555
B1 O0 1.361493 1_556
B1 O5 1.364403 1_455
B1 O13 1.414314 1_555
B2 O3 1.361493 1_556
B2 O6 1.364403 1_555
B2 O14 1.414314 1_555
B3 O2 1.361493 1_554
B3 O7 1.364403 1_655
B3 O15 1.414314 1_555
B4 O8 1.366815 1_555
B4 O69 1.368200 1_565
B4 O12 1.408246 1_555
B5 O9 1.366815 1_455
B5 O68 1.368200 1_555
B5 O13 1.408246 1_555
B6 O10 1.366815 1_555
B6 O71 1.368200 1_545
B6 O14 1.408246 1_555
B7 O11 1.366815 1_655
B7 O70 1.368200 1_555
B7 O15 1.408246 1_555
B8 O61 1.354713 1_555
B8 O16 1.376664 1_555
B8 O20 1.405838 1_555
B9 O60 1.354713 1_565
B9 O17 1.376664 1_555
B9 O21 1.405838 1_555
B10 O63 1.354713 1_555
B10 O18 1.376664 1_555
B10 O22 1.405838 1_555
B11 O62 1.354713 1_545
B11 O19 1.376664 1_555
B11 O23 1.405838 1_555
B12 O57 1.349024 1_555
B12 O24 1.379686 1_555
B12 O20 1.408470 1_555
B13 O56 1.349024 1_555
B13 O25 1.379686 1_545
B13 O21 1.408470 1_445
B14 O59 1.349024 1_555
B14 O26 1.379686 1_555
B14 O22 1.408470 1_555
B15 O58 1.349024 1_555
B15 O27 1.379686 1_565
B15 O23 1.408470 1_665
B16 O28 1.364539 1_555
B16 O24 1.379761 1_555
B16 O36 1.400588 1_555
B17 O29 1.364539 1_555
B17 O25 1.379761 1_555
B17 O37 1.400588 1_555
B18 O30 1.364539 1_555
B18 O26 1.379761 1_555
B18 O38 1.400588 1_555
B19 O31 1.364539 1_555
B19 O27 1.379761 1_555
B19 O39 1.400588 1_555
B20 O44 1.358069 1_555
B20 O40 1.371579 1_555
B20 O36 1.398093 1_555
B21 O45 1.358069 1_555
B21 O41 1.371579 1_555
B21 O37 1.398093 1_555
B22 O46 1.358069 1_555
B22 O42 1.371579 1_555
B22 O38 1.398093 1_555
B23 O47 1.358069 1_555
B23 O43 1.371579 1_555
B23 O39 1.398093 1_555
B24 O48 1.358468 1_555
B24 O52 1.367563 1_555
B24 O33 1.404869 1_555
B25 O49 1.358468 1_545
B25 O53 1.367563 1_555
B25 O32 1.404869 1_545
B26 O50 1.358468 1_555
B26 O54 1.367563 1_555
B26 O35 1.404869 1_555
B27 O51 1.358468 1_565
B27 O55 1.367563 1_555
B27 O34 1.404869 1_565
B28 O64 1.345965 1_555
B28 O68 1.392840 1_555
B28 O33 1.411575 1_455
B29 O65 1.345965 1_555
B29 O69 1.392840 1_555
B29 O32 1.411575 1_545
B30 O66 1.345965 1_555
B30 O70 1.392840 1_555
B30 O35 1.411575 1_655
B31 O67 1.345965 1_555
B31 O71 1.392840 1_555
B31 O34 1.411575 1_565
B32 O16 1.467746 1_555
B32 O8 1.469225 1_555
B32 O0 1.481001 1_555
B32 O4 1.499765 1_555
B33 O17 1.467746 1_555
B33 O9 1.469225 1_555
B33 O1 1.481001 1_555
B33 O5 1.499765 1_555
B34 O18 1.467746 1_555
B34 O10 1.469225 1_555
B34 O2 1.481001 1_555
B34 O6 1.499765 1_555
B35 O19 1.467746 1_555
B35 O11 1.469225 1_555
B35 O3 1.481001 1_555
B35 O7 1.499765 1_555
B36 O48 1.469887 1_555
B36 O44 1.470687 1_555
B36 O41 1.475117 1_655
B36 O29 1.484439 1_655
B37 O49 1.469887 1_555
B37 O45 1.470687 1_555
B37 O40 1.475117 1_555
B37 O28 1.484439 1_555
B38 O50 1.469887 1_555
B38 O46 1.470687 1_555
B38 O43 1.475117 1_455
B38 O31 1.484439 1_455
B39 O51 1.469887 1_555
B39 O47 1.470687 1_555
B39 O42 1.475117 1_555
B39 O30 1.484439 1_555
B40 O56 1.472757 1_555
B40 O64 1.475901 1_555
B40 O52 1.480572 1_455
B40 O60 1.486043 1_455
B41 O57 1.472757 1_555
B41 O65 1.475901 1_555
B41 O53 1.480572 1_555
B41 O61 1.486043 1_555
B42 O58 1.472757 1_555
B42 O66 1.475901 1_555
B42 O54 1.480572 1_655
B42 O62 1.486043 1_655
B43 O59 1.472757 1_555
B43 O67 1.475901 1_555
B43 O55 1.480572 1_555
B43 O63 1.486043 1_555
