# generated using pymatgen
data_RbSb4S7O
_symmetry_space_group_name_H-M   'P 1'
_cell_length_a   26.82375400
_cell_length_b   7.52052400
_cell_length_c   9.99490640
_cell_angle_alpha   50.92105412
_cell_angle_beta   90.00000000
_cell_angle_gamma   90.00000000
_symmetry_Int_Tables_number   1
_chemical_formula_structural   RbSb4S7O
_chemical_formula_sum   'Rb4 Sb16 S28 O4'
_cell_volume   1565.17797349
_cell_formula_units_Z   4
loop_
 _symmetry_equiv_pos_site_id
 _symmetry_equiv_pos_as_xyz
  1  'x, y, z'
loop_
 _atom_site_type_symbol
 _atom_site_label
 _atom_site_symmetry_multiplicity
 _atom_site_fract_x
 _atom_site_fract_y
 _atom_site_fract_z
 _atom_site_occupancy
  Rb  Rb0  1  0.56701100  0.68917500  0.34903800  1
  Rb  Rb1  1  0.93298900  0.68917500  0.84903800  1
  Rb  Rb2  1  0.43298900  0.31082500  0.65096200  1
  Rb  Rb3  1  0.06701100  0.31082500  0.15096200  1
  Sb  Sb0  1  0.67883300  0.19702400  0.40271300  1
  Sb  Sb1  1  0.82116700  0.19702400  0.90271300  1
  Sb  Sb2  1  0.32116700  0.80297600  0.59728700  1
  Sb  Sb3  1  0.17883300  0.80297600  0.09728700  1
  Sb  Sb4  1  0.67705400  0.19192300  0.79654700  1
  Sb  Sb5  1  0.82294600  0.19192300  0.29654700  1
  Sb  Sb6  1  0.32294600  0.80807700  0.20345300  1
  Sb  Sb7  1  0.17705400  0.80807700  0.70345300  1
  Sb  Sb8  1  0.61610100  0.46600000  0.96783300  1
  Sb  Sb9  1  0.88389900  0.46600000  0.46783300  1
  Sb  Sb10  1  0.38389900  0.53400000  0.03216700  1
  Sb  Sb11  1  0.11610100  0.53400000  0.53216700  1
  Sb  Sb12  1  0.74327900  0.66113200  0.38289300  1
  Sb  Sb13  1  0.75672100  0.66113200  0.88289300  1
  Sb  Sb14  1  0.25672100  0.33886800  0.61710700  1
  Sb  Sb15  1  0.24327900  0.33886800  0.11710700  1
  S  S0  1  0.52017400  0.62742800  0.86478300  1
  S  S1  1  0.97982600  0.62742800  0.36478300  1
  S  S2  1  0.47982600  0.37257200  0.13521700  1
  S  S3  1  0.02017400  0.37257200  0.63521700  1
  S  S4  1  0.59520800  0.19357000  0.92052800  1
  S  S5  1  0.90479200  0.19357000  0.42052800  1
  S  S6  1  0.40479200  0.80643000  0.07947200  1
  S  S7  1  0.09520800  0.80643000  0.57947200  1
  S  S8  1  0.76868400  0.26174900  0.57057700  1
  S  S9  1  0.73131600  0.26174900  0.07057700  1
  S  S10  1  0.23131600  0.73825100  0.42942300  1
  S  S11  1  0.26868400  0.73825100  0.92942300  1
  S  S12  1  0.67838900  0.62263100  0.58191700  1
  S  S13  1  0.82161100  0.62263100  0.08191700  1
  S  S14  1  0.32161100  0.37736900  0.41808300  1
  S  S15  1  0.17838900  0.37736900  0.91808300  1
  S  S16  1  0.59636600  0.21292600  0.27477400  1
  S  S17  1  0.90363400  0.21292600  0.77477400  1
  S  S18  1  0.40363400  0.78707400  0.72522600  1
  S  S19  1  0.09636600  0.78707400  0.22522600  1
  S  S20  1  0.68127000  0.62707600  0.21084800  1
  S  S21  1  0.81873000  0.62707600  0.71084800  1
  S  S22  1  0.31873000  0.37292400  0.78915200  1
  S  S23  1  0.18127000  0.37292400  0.28915200  1
  S  S24  1  0.62224300  0.12295900  0.63256100  1
  S  S25  1  0.87775700  0.12295900  0.13256100  1
  S  S26  1  0.37775700  0.87704100  0.36743900  1
  S  S27  1  0.12224300  0.87704100  0.86743900  1
  O  O0  1  0.50695400  0.56138500  0.75347000  1
  O  O1  1  0.99304600  0.56138500  0.25347000  1
  O  O2  1  0.49304600  0.43861500  0.24653000  1
  O  O3  1  0.00695400  0.43861500  0.74653000  1
loop_
_geom_bond_atom_site_label_1
_geom_bond_atom_site_label_2
_geom_bond_distance
_geom_bond_site_symmetry_2
Rb0 S20 3.511752 1_555
Rb0 S4 3.580706 1_564
Rb0 S16 3.605501 1_565
Rb0 S12 3.622870 1_555
Rb0 S24 3.625481 1_555
Rb1 S21 3.511752 1_555
Rb1 S5 3.580706 1_565
Rb1 S17 3.605501 1_565
Rb1 S13 3.622870 1_556
Rb1 S25 3.625481 1_556
Rb2 S22 3.511752 1_555
Rb2 S6 3.580706 1_546
Rb2 S18 3.605501 1_545
Rb2 S14 3.622870 1_555
Rb2 S26 3.625481 1_555
Rb3 S23 3.511752 1_555
Rb3 S7 3.580706 1_545
Rb3 S19 3.605501 1_545
Rb3 S15 3.622870 1_554
Rb3 S27 3.625481 1_554
S0 Sb8 2.753028 1_555
S1 Sb9 2.753028 1_555
S2 Sb10 2.753028 1_555
S3 Sb11 2.753028 1_555
S4 Sb8 2.440614 1_555
S4 Sb4 2.524861 1_555
S5 Sb9 2.440614 1_555
S5 Sb5 2.524861 1_555
S6 Sb10 2.440614 1_555
S6 Sb6 2.524861 1_555
S7 Sb11 2.440614 1_555
S7 Sb7 2.524861 1_555
S8 Sb12 2.429213 1_555
S9 Sb13 2.429213 1_554
S10 Sb14 2.429213 1_555
S11 Sb15 2.429213 1_556
S12 Sb4 2.516856 1_555
S12 Sb12 2.518798 1_555
S13 Sb5 2.516856 1_555
S13 Sb13 2.518798 1_554
S14 Sb6 2.516856 1_555
S14 Sb14 2.518798 1_555
S15 Sb7 2.516856 1_555
S15 Sb15 2.518798 1_556
S16 Sb8 2.439820 1_554
S16 Sb0 2.519909 1_555
S17 Sb9 2.439820 1_555
S17 Sb1 2.519909 1_555
S18 Sb10 2.439820 1_556
S18 Sb2 2.519909 1_555
S19 Sb11 2.439820 1_555
S19 Sb3 2.519909 1_555
S20 Sb0 2.514422 1_555
S20 Sb12 2.518812 1_555
S21 Sb1 2.514422 1_555
S21 Sb13 2.518812 1_555
S22 Sb2 2.514422 1_555
S22 Sb14 2.518812 1_555
S23 Sb3 2.514422 1_555
S23 Sb15 2.518812 1_555
S24 Sb4 2.487719 1_555
S24 Sb0 2.505745 1_555
S25 Sb5 2.487719 1_555
S25 Sb1 2.505745 1_554
S26 Sb6 2.487719 1_555
S26 Sb2 2.505745 1_555
S27 Sb7 2.487719 1_555
S27 Sb3 2.505745 1_556
O0 S0 1.518856 1_555
O0 Rb2 3.312232 1_555
O1 S1 1.518856 1_555
O1 Rb3 3.312232 1_655
O2 S2 1.518856 1_555
O2 Rb0 3.312232 1_555
O3 S3 1.518856 1_555
O3 Rb1 3.312232 1_455
