# generated using pymatgen
data_PmGaPd2
_symmetry_space_group_name_H-M   'P 1'
_cell_length_a   4.73398382
_cell_length_b   4.73398382
_cell_length_c   4.73398382
_cell_angle_alpha   60.00000000
_cell_angle_beta   60.00000000
_cell_angle_gamma   60.00000000
_symmetry_Int_Tables_number   1
_chemical_formula_structural   PmGaPd2
_chemical_formula_sum   'Pm1 Ga1 Pd2'
_cell_volume   75.01797027
_cell_formula_units_Z   1
loop_
 _symmetry_equiv_pos_site_id
 _symmetry_equiv_pos_as_xyz
  1  'x, y, z'
loop_
 _atom_site_type_symbol
 _atom_site_label
 _atom_site_symmetry_multiplicity
 _atom_site_fract_x
 _atom_site_fract_y
 _atom_site_fract_z
 _atom_site_occupancy
  Pm  Pm0  1  -0.00000000  0.00000000  0.00000000  1
  Ga  Ga0  1  0.50000000  0.50000000  0.50000000  1
  Pd  Pd0  1  0.25000000  0.25000000  0.25000000  1
  Pd  Pd1  1  0.75000000  0.75000000  0.75000000  1
loop_
_geom_bond_atom_site_label_1
_geom_bond_atom_site_label_2
_geom_bond_distance
_geom_bond_site_symmetry_2
Ga0 Pd1 2.898961 1_554
Ga0 Pd0 2.898961 1_565
Ga0 Pd0 2.898961 1_655
Ga0 Pd1 2.898961 1_455
Ga0 Pd0 2.898961 1_555
Ga0 Pd1 2.898961 1_555
Ga0 Pd1 2.898961 1_545
Ga0 Pd0 2.898961 1_556
Pd0 Pm0 2.898961 1_565
Pd0 Pm0 2.898961 1_655
Pd0 Pm0 2.898961 1_555
Pd0 Pm0 2.898961 1_556
Pd1 Pm0 2.898961 1_656
Pd1 Pm0 2.898961 1_665
Pd1 Pm0 2.898961 1_566
Pd1 Pm0 2.898961 1_666
