# generated using pymatgen
data_Ca8TiMn7O21
_symmetry_space_group_name_H-M   'P 1'
_cell_length_a   11.01871333
_cell_length_b   15.42236444
_cell_length_c   10.99542519
_cell_angle_alpha   89.99648855
_cell_angle_beta   91.41896180
_cell_angle_gamma   90.47115878
_symmetry_Int_Tables_number   1
_chemical_formula_structural   Ca8TiMn7O21
_chemical_formula_sum   'Ca32 Ti4 Mn28 O84'
_cell_volume   1867.86716700
_cell_formula_units_Z   4
loop_
 _symmetry_equiv_pos_site_id
 _symmetry_equiv_pos_as_xyz
  1  'x, y, z'
loop_
 _atom_site_type_symbol
 _atom_site_label
 _atom_site_symmetry_multiplicity
 _atom_site_fract_x
 _atom_site_fract_y
 _atom_site_fract_z
 _atom_site_occupancy
  Ca  Ca0  1  0.99112969  0.10944201  0.51817827  1
  Ca  Ca1  1  0.98796981  0.11683168  0.01189493  1
  Ca  Ca2  1  0.00611106  0.62385115  0.51374466  1
  Ca  Ca3  1  0.01828176  0.62219266  0.99199628  1
  Ca  Ca4  1  0.54368087  0.12554339  0.47498116  1
  Ca  Ca5  1  0.54997526  0.12667914  0.98654176  1
  Ca  Ca6  1  0.52990556  0.63036149  0.51246158  1
  Ca  Ca7  1  0.53375657  0.62134258  0.97400919  1
  Ca  Ca8  1  0.51035623  0.38635137  0.98598806  1
  Ca  Ca9  1  0.49628042  0.38012285  0.51098393  1
  Ca  Ca10  1  0.51955883  0.86011070  0.98091316  1
  Ca  Ca11  1  0.48967268  0.86510734  0.50632115  1
  Ca  Ca12  1  0.96497162  0.38758582  0.00539890  1
  Ca  Ca13  1  0.95927404  0.38890806  0.50421555  1
  Ca  Ca14  1  0.95514125  0.87620694  0.99646968  1
  Ca  Ca15  1  0.96601691  0.87010949  0.51487350  1
  Ca  Ca16  1  0.23887985  0.39216410  0.24671979  1
  Ca  Ca17  1  0.23748844  0.40490780  0.77335491  1
  Ca  Ca18  1  0.23654268  0.88284981  0.27640976  1
  Ca  Ca19  1  0.22347842  0.87325667  0.72937681  1
  Ca  Ca20  1  0.74863735  0.37925056  0.24666992  1
  Ca  Ca21  1  0.73389615  0.38460662  0.75459371  1
  Ca  Ca22  1  0.74663814  0.86449251  0.24947580  1
  Ca  Ca23  1  0.73234065  0.86634828  0.74558793  1
  Ca  Ca24  1  0.22815716  0.12153357  0.24274378  1
  Ca  Ca25  1  0.22101857  0.11367330  0.72966185  1
  Ca  Ca26  1  0.23852655  0.62467614  0.26551818  1
  Ca  Ca27  1  0.26484404  0.63014519  0.73898428  1
  Ca  Ca28  1  0.77645584  0.11809281  0.25202097  1
  Ca  Ca29  1  0.78059173  0.12404884  0.75141721  1
  Ca  Ca30  1  0.77981399  0.62229364  0.25805400  1
  Ca  Ca31  1  0.77393095  0.62377641  0.75632671  1
  Ti  Ti0  1  0.98994665  0.99252375  0.26096066  1
  Ti  Ti1  1  0.23501330  0.98901963  0.01879497  1
  Ti  Ti2  1  0.26931126  0.23174499  0.94591625  1
  Ti  Ti3  1  0.99259507  0.25435105  0.27155014  1
  Mn  Mn0  1  0.99170489  0.99457937  0.75463366  1
  Mn  Mn1  1  0.00208129  0.50154597  0.25282915  1
  Mn  Mn2  1  0.99747447  0.49987860  0.75597017  1
  Mn  Mn3  1  0.50427654  0.99018369  0.22880055  1
  Mn  Mn4  1  0.50537929  0.99537501  0.73267558  1
  Mn  Mn5  1  0.50732172  0.49034098  0.24362513  1
  Mn  Mn6  1  0.49624729  0.50053596  0.74942416  1
  Mn  Mn7  1  0.23781850  0.00414692  0.50850304  1
  Mn  Mn8  1  0.25396108  0.51606822  0.01306734  1
  Mn  Mn9  1  0.23710498  0.49455584  0.51024383  1
  Mn  Mn10  1  0.74456912  0.99966226  0.99312070  1
  Mn  Mn11  1  0.74159550  0.99678062  0.49667054  1
  Mn  Mn12  1  0.75212909  0.50349966  0.00245302  1
  Mn  Mn13  1  0.74399740  0.50260585  0.50226673  1
  Mn  Mn14  1  0.26646855  0.24576688  0.44921434  1
  Mn  Mn15  1  0.26354992  0.75354090  0.98035304  1
  Mn  Mn16  1  0.24819523  0.74976309  0.49901525  1
  Mn  Mn17  1  0.75770943  0.25022211  0.00404136  1
  Mn  Mn18  1  0.74978522  0.25074849  0.50417774  1
  Mn  Mn19  1  0.75404448  0.74516823  0.00057011  1
  Mn  Mn20  1  0.75237741  0.74623518  0.50387729  1
  Mn  Mn21  1  0.99317303  0.25848406  0.76283868  1
  Mn  Mn22  1  0.99749637  0.74900731  0.26335749  1
  Mn  Mn23  1  0.99903306  0.75071265  0.75171262  1
  Mn  Mn24  1  0.51683894  0.25268441  0.25021063  1
  Mn  Mn25  1  0.51166180  0.24747538  0.75255367  1
  Mn  Mn26  1  0.51091841  0.75179943  0.26083120  1
  Mn  Mn27  1  0.50284252  0.74667090  0.74834812  1
  O  O0  1  0.10047686  0.77046758  0.60863017  1
  O  O1  1  0.59024761  0.26078562  0.09445438  1
  O  O2  1  0.56991724  0.25063954  0.58622377  1
  O  O3  1  0.59830458  0.75862005  0.11141250  1
  O  O4  1  0.60545867  0.76279757  0.60028545  1
  O  O5  1  0.40093596  0.18787037  0.34402396  1
  O  O6  1  0.39431625  0.17936573  0.86179551  1
  O  O7  1  0.40019939  0.70364651  0.37060272  1
  O  O8  1  0.40976917  0.73061233  0.89964168  1
  O  O9  1  0.92810279  0.23635174  0.41880151  1
  O  O10  1  0.90965874  0.23921203  0.92237370  1
  O  O11  1  0.89424062  0.72967121  0.40790162  1
  O  O12  1  0.89982526  0.73303568  0.90261453  1
  O  O13  1  0.16240159  0.25524259  0.28540698  1
  O  O14  1  0.17178259  0.25258577  0.81040366  1
  O  O15  1  0.15783638  0.74841595  0.33791794  1
  O  O16  1  0.14534771  0.73750179  0.85168817  1
  O  O17  1  0.65871713  0.22342237  0.34418044  1
  O  O18  1  0.66055101  0.22718972  0.85710823  1
  O  O19  1  0.65652640  0.72566977  0.35403053  1
  O  O20  1  0.65041839  0.72773937  0.85625174  1
  O  O21  1  0.35324454  0.76324829  0.64148387  1
  O  O22  1  0.85973178  0.26889153  0.15552226  1
  O  O23  1  0.85413708  0.27705860  0.65584764  1
  O  O24  1  0.86727286  0.77117016  0.14269379  1
  O  O25  1  0.85292806  0.77128805  0.64859392  1
  O  O26  1  0.35621823  0.51277769  0.16698030  1
  O  O27  1  0.35285358  0.48797715  0.64404886  1
  O  O28  1  0.35219544  0.02281681  0.14344762  1
  O  O29  1  0.34543359  0.00627706  0.65303164  1
  O  O30  1  0.85828848  0.48358326  0.14646428  1
  O  O31  1  0.85603022  0.47991517  0.64691659  1
  O  O32  1  0.85481478  0.97966241  0.14600690  1
  O  O33  1  0.84265402  0.97958391  0.64220725  1
  O  O34  1  0.15092867  0.00897482  0.35305303  1
  O  O35  1  0.17111134  0.01160360  0.86691061  1
  O  O36  1  0.15010278  0.50751727  0.35539773  1
  O  O37  1  0.15056944  0.52554433  0.86449507  1
  O  O38  1  0.63656605  0.02205258  0.34159970  1
  O  O39  1  0.63643416  0.03042108  0.84675491  1
  O  O40  1  0.62134446  0.52801503  0.36290669  1
  O  O41  1  0.64328962  0.51673649  0.85741957  1
  O  O42  1  0.39277081  0.51059662  0.90545662  1
  O  O43  1  0.89101276  0.01265213  0.39190021  1
  O  O44  1  0.89265399  0.01305990  0.89665518  1
  O  O45  1  0.89372615  0.51991476  0.39037327  1
  O  O46  1  0.89353897  0.51742375  0.89932515  1
  O  O47  1  0.11212442  0.47636260  0.10767169  1
  O  O48  1  0.09915765  0.47330075  0.61980265  1
  O  O49  1  0.10236847  0.96974110  0.10838584  1
  O  O50  1  0.09306074  0.98249394  0.61678866  1
  O  O51  1  0.61097574  0.48817568  0.10644547  1
  O  O52  1  0.60184599  0.48496460  0.61337495  1
  O  O53  1  0.59535274  0.98967953  0.08006451  1
  O  O54  1  0.59003944  0.99157766  0.57741905  1
  O  O55  1  0.99574284  0.37878100  0.28707232  1
  O  O56  1  0.01547073  0.37954768  0.80144218  1
  O  O57  1  0.00327765  0.87275959  0.29060996  1
  O  O58  1  0.00969957  0.87314013  0.79413474  1
  O  O59  1  0.47518191  0.37454011  0.29193222  1
  O  O60  1  0.49037372  0.37460339  0.77560328  1
  O  O61  1  0.46053222  0.87192293  0.28247893  1
  O  O62  1  0.51151148  0.87084472  0.77260148  1
  O  O63  1  0.48550655  0.62349252  0.71975035  1
  O  O64  1  0.99855705  0.12490946  0.22502191  1
  O  O65  1  0.99864501  0.13145928  0.72684386  1
  O  O66  1  0.00650803  0.62690957  0.21428978  1
  O  O67  1  0.98945834  0.62460324  0.71999309  1
  O  O68  1  0.20191214  0.14671390  0.03755575  1
  O  O69  1  0.21229846  0.13290410  0.52304340  1
  O  O70  1  0.22802790  0.65089605  0.06048896  1
  O  O71  1  0.22711223  0.62130590  0.52510393  1
  O  O72  1  0.75633457  0.12545192  0.04055084  1
  O  O73  1  0.75467663  0.12355161  0.53406316  1
  O  O74  1  0.74525118  0.62443163  0.04209114  1
  O  O75  1  0.74555852  0.62478042  0.54418371  1
  O  O76  1  0.28110354  0.37318041  0.47048364  1
  O  O77  1  0.30533720  0.33471804  0.01649228  1
  O  O78  1  0.27846046  0.88365738  0.47836604  1
  O  O79  1  0.29570175  0.87821730  0.99568381  1
  O  O80  1  0.74370174  0.37712310  0.46168626  1
  O  O81  1  0.74903262  0.37634389  0.97089835  1
  O  O82  1  0.74792720  0.87275346  0.45951115  1
  O  O83  1  0.74304751  0.87260539  0.96395128  1
loop_
_geom_bond_atom_site_label_1
_geom_bond_atom_site_label_2
_geom_bond_distance
_geom_bond_site_symmetry_2
Ca0 O43 2.295733 1_555
Ca0 O65 2.318728 1_555
Ca0 O9 2.343416 1_555
Ca0 O69 2.460037 1_655
Ca0 O50 2.499163 1_645
Ca0 O73 2.626381 1_555
Ca0 O33 2.933174 1_545
Ca1 O44 2.275215 1_554
Ca1 O10 2.293516 1_554
Ca1 O64 2.346702 1_555
Ca1 O68 2.407985 1_655
Ca1 O72 2.583934 1_555
Ca1 O49 2.800193 1_645
Ca2 O67 2.279763 1_455
Ca2 O11 2.345014 1_455
Ca2 O45 2.414019 1_455
Ca2 O71 2.435898 1_555
Ca2 O0 2.681500 1_555
Ca2 O48 2.789555 1_555
Ca3 O46 2.330796 1_455
Ca3 O12 2.358970 1_455
Ca3 O70 2.449791 1_556
Ca3 O66 2.451973 1_556
Ca3 O37 2.539497 1_555
Ca3 O16 2.751098 1_555
Ca3 O47 2.778111 1_556
Ca4 O2 2.296827 1_555
Ca4 O5 2.320300 1_555
Ca4 O73 2.398855 1_555
Ca4 O54 2.405578 1_545
Ca4 O38 2.418123 1_555
Ca4 O17 2.452010 1_555
Ca5 O6 2.321569 1_555
Ca5 O72 2.336040 1_556
Ca5 O39 2.360057 1_555
Ca5 O53 2.400679 1_546
Ca5 O1 2.416929 1_556
Ca5 O18 2.442811 1_555
Ca6 O63 2.345161 1_555
Ca6 O7 2.380951 1_555
Ca6 O4 2.393686 1_555
Ca6 O75 2.395369 1_555
Ca6 O40 2.513803 1_555
Ca6 O52 2.621660 1_555
Ca6 O19 2.688508 1_555
Ca7 O8 2.314595 1_555
Ca7 O42 2.407724 1_555
Ca7 O41 2.410725 1_555
Ca7 O74 2.430060 1_556
Ca7 O20 2.463515 1_555
Ca7 O51 2.651291 1_556
Ca7 O3 2.681996 1_556
Ca7 O63 2.833067 1_555
Ca8 O51 2.312665 1_556
Ca8 O60 2.325230 1_555
Ca8 O77 2.420289 1_556
Ca8 O1 2.433757 1_556
Ca8 O42 2.473501 1_555
Ca8 O81 2.645004 1_555
Ca8 O41 2.870753 1_555
Ca9 O52 2.267013 1_555
Ca9 O2 2.307319 1_555
Ca9 O76 2.403086 1_555
Ca9 O59 2.415495 1_555
Ca9 O27 2.750113 1_555
Ca9 O80 2.793518 1_555
Ca9 O60 2.913164 1_555
Ca10 O3 2.285196 1_556
Ca10 O62 2.296014 1_555
Ca10 O53 2.409730 1_556
Ca10 O83 2.480130 1_555
Ca10 O8 2.481462 1_555
Ca10 O79 2.493938 1_555
Ca10 O20 2.876142 1_555
Ca11 O4 2.269893 1_555
Ca11 O54 2.358052 1_555
Ca11 O78 2.359682 1_555
Ca11 O61 2.476537 1_555
Ca11 O21 2.647221 1_555
Ca12 O56 2.327482 1_654
Ca12 O47 2.375198 1_655
Ca12 O81 2.404971 1_554
Ca12 O46 2.443285 1_554
Ca12 O30 2.469567 1_555
Ca12 O10 2.528005 1_554
Ca12 O22 2.734926 1_555
Ca13 O48 2.356940 1_655
Ca13 O80 2.414911 1_555
Ca13 O31 2.416812 1_555
Ca13 O55 2.436188 1_555
Ca13 O45 2.479834 1_555
Ca13 O9 2.550798 1_555
Ca13 O23 2.675785 1_555
Ca14 O58 2.319462 1_655
Ca14 O83 2.355628 1_555
Ca14 O49 2.467736 1_656
Ca14 O44 2.473741 1_565
Ca14 O24 2.489482 1_556
Ca14 O12 2.501782 1_555
Ca14 O32 2.567216 1_556
Ca15 O0 2.362394 1_655
Ca15 O82 2.464978 1_555
Ca15 O25 2.469121 1_555
Ca15 O50 2.470242 1_655
Ca15 O57 2.510103 1_655
Ca15 O11 2.574120 1_555
Ca15 O33 2.605912 1_555
Ca15 O43 2.705217 1_565
Ca16 O13 2.310528 1_555
Ca16 O36 2.374132 1_555
Ca16 O47 2.428635 1_555
Ca16 O26 2.432467 1_555
Ca16 O76 2.510199 1_555
Ca16 O59 2.654810 1_555
Ca16 O55 2.732504 1_455
Ca16 O77 2.798594 1_555
Ca17 O27 2.311086 1_555
Ca17 O37 2.336673 1_555
Ca17 O48 2.487007 1_555
Ca17 O14 2.489018 1_555
Ca17 O56 2.500928 1_555
Ca17 O42 2.743265 1_555
Ca17 O60 2.828686 1_555
Ca17 O77 2.965086 1_556
Ca18 O78 2.256910 1_555
Ca18 O34 2.335263 1_565
Ca18 O15 2.346770 1_555
Ca18 O61 2.474457 1_555
Ca18 O57 2.582292 1_555
Ca18 O49 2.700328 1_555
Ca18 O28 2.909917 1_565
Ca19 O21 2.442418 1_555
Ca19 O0 2.447120 1_555
Ca19 O58 2.477641 1_555
Ca19 O50 2.527303 1_555
Ca19 O29 2.594102 1_565
Ca19 O16 2.638291 1_555
Ca19 O35 2.689999 1_565
Ca19 O78 2.844531 1_555
Ca19 O79 3.016106 1_555
Ca20 O30 2.301425 1_555
Ca20 O22 2.344123 1_555
Ca20 O80 2.366387 1_555
Ca20 O51 2.725041 1_555
Ca20 O17 2.814238 1_555
Ca21 O31 2.327991 1_555
Ca21 O81 2.383553 1_555
Ca21 O23 2.406851 1_555
Ca21 O41 2.552864 1_555
Ca21 O52 2.616975 1_555
Ca21 O60 2.702068 1_555
Ca21 O18 2.798238 1_555
Ca22 O24 2.307776 1_555
Ca22 O82 2.312633 1_555
Ca22 O32 2.429417 1_555
Ca22 O19 2.629175 1_555
Ca22 O3 2.734137 1_555
Ca22 O57 2.854508 1_655
Ca22 O38 2.917418 1_565
Ca23 O25 2.270378 1_555
Ca23 O83 2.402880 1_555
Ca23 O33 2.419223 1_555
Ca23 O62 2.460148 1_555
Ca23 O20 2.624391 1_555
Ca23 O4 2.628785 1_555
Ca24 O13 2.244735 1_555
Ca24 O34 2.288065 1_555
Ca24 O68 2.300866 1_555
Ca24 O28 2.342262 1_555
Ca24 O5 2.402994 1_555
Ca24 O64 2.533538 1_455
Ca25 O35 2.254851 1_555
Ca25 O69 2.290875 1_555
Ca25 O29 2.329669 1_555
Ca25 O14 2.390690 1_555
Ca25 O65 2.467249 1_455
Ca25 O6 2.571863 1_555
Ca25 O50 2.736395 1_545
Ca26 O15 2.264775 1_555
Ca26 O36 2.282376 1_555
Ca26 O70 2.290608 1_555
Ca26 O7 2.419586 1_555
Ca26 O26 2.437296 1_555
Ca26 O66 2.604711 1_555
Ca26 O71 2.860585 1_555
Ca27 O71 2.381730 1_555
Ca27 O63 2.448798 1_555
Ca27 O16 2.475400 1_555
Ca27 O37 2.478866 1_555
Ca27 O21 2.516050 1_555
Ca27 O27 2.631119 1_555
Ca27 O8 2.809139 1_555
Ca27 O42 2.941306 1_555
Ca27 O67 3.036910 1_455
Ca28 O72 2.333122 1_555
Ca28 O17 2.334234 1_555
Ca28 O38 2.361650 1_555
Ca28 O64 2.473875 1_555
Ca28 O43 2.557443 1_555
Ca28 O32 2.596659 1_545
Ca28 O22 2.718339 1_555
Ca29 O18 2.396090 1_555
Ca29 O39 2.398246 1_555
Ca29 O73 2.399873 1_555
Ca29 O65 2.426212 1_555
Ca29 O33 2.634310 1_545
Ca29 O44 2.634705 1_555
Ca29 O23 2.709224 1_555
Ca29 O10 2.921797 1_555
Ca30 O19 2.368067 1_555
Ca30 O74 2.395887 1_555
Ca30 O45 2.475291 1_555
Ca30 O66 2.555898 1_655
Ca30 O40 2.559297 1_555
Ca30 O11 2.628671 1_555
Ca30 O30 2.629221 1_555
Ca30 O24 2.798777 1_555
Ca31 O75 2.345841 1_555
Ca31 O20 2.395886 1_555
Ca31 O67 2.417870 1_555
Ca31 O41 2.464311 1_555
Ca31 O46 2.613817 1_555
Ca31 O12 2.683709 1_555
Ca31 O31 2.697288 1_555
Ca31 O25 2.711932 1_555
Mn0 O50 1.914820 1_655
Mn0 O58 1.933231 1_655
Mn0 O44 1.949500 1_565
Mn0 O33 2.042588 1_555
Mn0 O65 2.134013 1_565
Mn0 O35 2.317648 1_665
Mn1 O55 1.931416 1_455
Mn1 O36 1.961378 1_555
Mn1 O30 1.963656 1_455
Mn1 O45 1.971800 1_455
Mn1 O66 1.979740 1_555
Mn1 O47 2.066926 1_555
Mn2 O56 1.932429 1_655
Mn2 O48 1.937969 1_655
Mn2 O31 1.965003 1_555
Mn2 O67 1.966036 1_555
Mn2 O46 1.990953 1_555
Mn2 O37 2.077411 1_655
Mn3 O53 1.939886 1_555
Mn3 O38 1.950224 1_565
Mn3 O28 1.969284 1_565
Mn3 O61 1.976525 1_555
Mn4 O29 1.956939 1_565
Mn4 O39 1.961725 1_565
Mn4 O54 1.966632 1_555
Mn4 O62 1.971387 1_555
Mn5 O26 1.882023 1_555
Mn5 O40 1.882215 1_555
Mn5 O59 1.896276 1_555
Mn5 O51 1.914851 1_555
Mn6 O63 1.928224 1_555
Mn6 O52 1.933950 1_555
Mn6 O27 1.944415 1_555
Mn6 O60 1.964151 1_555
Mn6 O41 1.998918 1_555
Mn6 O42 2.089817 1_555
Mn7 O34 1.940050 1_555
Mn7 O78 1.945377 1_545
Mn7 O29 1.959235 1_555
Mn7 O69 2.014757 1_555
Mn7 O50 2.039257 1_545
Mn8 O42 1.959156 1_554
Mn8 O37 1.974454 1_554
Mn8 O47 1.991042 1_555
Mn8 O26 2.010628 1_555
Mn8 O70 2.166696 1_555
Mn9 O27 1.926311 1_555
Mn9 O36 1.944245 1_555
Mn9 O71 1.965827 1_555
Mn9 O48 1.987832 1_555
Mn9 O76 1.988890 1_555
Mn10 O53 1.927323 1_556
Mn10 O44 1.977457 1_565
Mn10 O83 1.985479 1_555
Mn10 O72 2.011199 1_566
Mn10 O39 2.036903 1_565
Mn10 O32 2.074049 1_556
Mn11 O54 1.911728 1_555
Mn11 O33 1.946179 1_555
Mn11 O82 1.958133 1_555
Mn11 O73 2.001199 1_565
Mn11 O43 2.045694 1_565
Mn11 O38 2.075596 1_565
Mn12 O74 1.917862 1_555
Mn12 O46 1.960036 1_554
Mn12 O51 1.965797 1_555
Mn12 O30 1.970816 1_555
Mn12 O41 1.982997 1_554
Mn12 O81 1.991389 1_554
Mn13 O75 1.939636 1_555
Mn13 O80 1.985999 1_555
Mn13 O31 2.021334 1_555
Mn13 O52 2.026728 1_555
Mn13 O40 2.057703 1_555
Mn13 O45 2.097637 1_555
Mn14 O76 1.983676 1_555
Mn14 O69 2.012890 1_555
Mn14 O5 2.106441 1_555
Mn14 O13 2.116779 1_555
Mn15 O70 1.855338 1_556
Mn15 O8 1.894370 1_555
Mn15 O16 1.913756 1_555
Mn15 O79 1.958821 1_555
Mn16 O21 1.934758 1_555
Mn16 O15 2.010390 1_555
Mn16 O71 2.014132 1_555
Mn16 O0 2.075974 1_555
Mn16 O78 2.102193 1_555
Mn16 O7 2.332711 1_555
Mn17 O10 1.928101 1_554
Mn17 O18 1.946939 1_554
Mn17 O72 1.965668 1_555
Mn17 O81 1.981562 1_554
Mn17 O22 2.005703 1_555
Mn17 O1 2.124962 1_555
Mn18 O73 1.989935 1_555
Mn18 O80 2.005455 1_555
Mn18 O23 2.040912 1_555
Mn18 O17 2.045764 1_555
Mn18 O2 2.197799 1_555
Mn18 O9 2.211256 1_555
Mn19 O74 1.919413 1_555
Mn19 O20 1.949193 1_554
Mn19 O12 1.966210 1_554
Mn19 O83 2.010207 1_554
Mn19 O24 2.013640 1_555
Mn19 O3 2.140729 1_555
Mn20 O75 1.926102 1_555
Mn20 O11 1.926301 1_555
Mn20 O25 1.953079 1_555
Mn20 O19 1.959365 1_555
Mn20 O4 1.975213 1_555
Mn20 O82 2.011933 1_555
Mn21 O56 1.927157 1_655
Mn21 O23 1.931564 1_555
Mn21 O65 2.000316 1_555
Mn21 O10 2.021779 1_555
Mn21 O14 2.026567 1_655
Mn22 O15 1.929274 1_655
Mn22 O57 1.932239 1_655
Mn22 O24 1.962076 1_555
Mn22 O66 1.962809 1_655
Mn22 O11 1.998315 1_555
Mn23 O16 1.940799 1_655
Mn23 O58 1.946826 1_655
Mn23 O25 1.973821 1_555
Mn23 O0 1.974541 1_655
Mn23 O67 1.977451 1_555
Mn23 O12 2.026623 1_555
Mn24 O17 1.909645 1_555
Mn24 O1 1.915677 1_555
Mn24 O5 1.933471 1_555
Mn24 O59 1.994401 1_555
Mn25 O2 1.953661 1_555
Mn25 O60 1.993447 1_555
Mn25 O18 2.006479 1_555
Mn25 O6 2.066983 1_555
Mn26 O7 1.885361 1_555
Mn26 O3 1.927190 1_555
Mn26 O19 1.927650 1_555
Mn26 O61 1.954608 1_555
Mn27 O63 1.932708 1_555
Mn27 O62 1.934803 1_555
Mn27 O8 1.990152 1_555
Mn27 O20 2.012289 1_555
Mn27 O21 2.018451 1_555
Mn27 O4 2.019220 1_555
O6 Ti2 1.867293 1_555
O9 Ti3 1.804766 1_555
O13 Ti3 1.873416 1_455
O14 Ti2 1.845165 1_555
O22 Ti3 1.932356 1_555
O28 Ti1 1.928422 1_545
O32 Ti0 1.938034 1_555
O34 Ti0 2.034653 1_445
O35 Ti1 1.830800 1_546
O43 Ti0 1.854973 1_545
O49 Ti1 1.805305 1_555
O49 Ti0 2.140682 1_455
O55 Ti3 1.926541 1_555
O57 Ti0 1.881875 1_455
O64 Ti3 2.062811 1_555
O64 Ti0 2.081410 1_545
O68 Ti2 1.818631 1_554
O68 Ti1 2.471573 1_545
O77 Ti2 1.804529 1_554
O79 Ti1 1.859872 1_556
