# generated using pymatgen
data_ErIrO3
_symmetry_space_group_name_H-M   'P 1'
_cell_length_a   3.96279300
_cell_length_b   3.96279300
_cell_length_c   3.96279300
_cell_angle_alpha   90.00000000
_cell_angle_beta   90.00000000
_cell_angle_gamma   90.00000000
_symmetry_Int_Tables_number   1
_chemical_formula_structural   ErIrO3
_chemical_formula_sum   'Er1 Ir1 O3'
_cell_volume   62.23062482
_cell_formula_units_Z   1
loop_
 _symmetry_equiv_pos_site_id
 _symmetry_equiv_pos_as_xyz
  1  'x, y, z'
loop_
 _atom_site_type_symbol
 _atom_site_label
 _atom_site_symmetry_multiplicity
 _atom_site_fract_x
 _atom_site_fract_y
 _atom_site_fract_z
 _atom_site_occupancy
  Er  Er0  1  0.00000000  0.00000000  0.00000000  1
  Ir  Ir0  1  0.50000000  0.50000000  0.50000000  1
  O  O0  1  0.50000000  0.50000000  0.00000000  1
  O  O1  1  0.50000000  0.00000000  0.50000000  1
  O  O2  1  0.00000000  0.50000000  0.50000000  1
loop_
_geom_bond_atom_site_label_1
_geom_bond_atom_site_label_2
_geom_bond_distance
_geom_bond_site_symmetry_2
Er0 O2 2.802118 1_544
Er0 O1 2.802118 1_455
Er0 O2 2.802118 1_545
Er0 O1 2.802118 1_555
Er0 O1 2.802118 1_454
Er0 O0 2.802118 1_555
Er0 O1 2.802118 1_554
Er0 O0 2.802118 1_545
Er0 O2 2.802118 1_555
Er0 O0 2.802118 1_445
Er0 O2 2.802118 1_554
Er0 O0 2.802118 1_455
Ir0 O1 1.981397 1_555
Ir0 O0 1.981397 1_555
Ir0 O2 1.981397 1_555
Ir0 O1 1.981397 1_565
Ir0 O2 1.981397 1_655
Ir0 O0 1.981397 1_556
