# generated using pymatgen
data_BaYb2NiO5
_symmetry_space_group_name_H-M   'P 1'
_cell_length_a   3.79854355
_cell_length_b   5.71701185
_cell_length_c   6.41727771
_cell_angle_alpha   116.45150667
_cell_angle_beta   107.21494117
_cell_angle_gamma   89.99968427
_symmetry_Int_Tables_number   1
_chemical_formula_structural   BaYb2NiO5
_chemical_formula_sum   'Ba1 Yb2 Ni1 O5'
_cell_volume   117.75633167
_cell_formula_units_Z   1
loop_
 _symmetry_equiv_pos_site_id
 _symmetry_equiv_pos_as_xyz
  1  'x, y, z'
loop_
 _atom_site_type_symbol
 _atom_site_label
 _atom_site_symmetry_multiplicity
 _atom_site_fract_x
 _atom_site_fract_y
 _atom_site_fract_z
 _atom_site_occupancy
  Ba  Ba0  1  0.49999400  0.49999400  0.99998800  1
  Yb  Yb0  1  0.70757500  0.20757700  0.41515500  1
  Yb  Yb1  1  0.29242500  0.79242200  0.58484300  1
  Ni  Ni0  1  0.00001200  0.00001200  0.00002400  1
  O  O0  1  0.50000000  0.99999900  0.99999900  1
  O  O1  1  0.86552600  0.63732900  0.73095400  1
  O  O2  1  0.13447200  0.36266700  0.26904000  1
  O  O3  1  0.13446300  0.90637100  0.26902800  1
  O  O4  1  0.86553500  0.09362800  0.73096800  1
loop_
_geom_bond_atom_site_label_1
_geom_bond_atom_site_label_2
_geom_bond_distance
_geom_bond_site_symmetry_2
Ba0 O4 2.854838 1_455
Ba0 O1 2.854857 1_455
Ba0 O3 2.854897 1_656
Ba0 O2 2.854913 1_656
Ba0 O4 2.855067 1_555
Ba0 O1 2.855099 1_555
Ba0 O3 2.855126 1_556
Ba0 O2 2.855149 1_556
Ba0 O0 2.858503 1_555
Ba0 O0 2.858509 1_545
Ni0 O0 1.899270 1_444
Ni0 O0 1.899274 1_544
Ni0 O3 1.956758 1_545
Ni0 O2 1.956823 1_555
Ni0 O4 1.956972 1_454
Ni0 O1 1.957045 1_444
O0 Yb0 2.251176 1_566
O0 Yb1 2.251176 1_555
O1 Yb0 2.312543 1_555
O1 Yb1 2.436301 1_655
O1 Yb1 2.436570 1_555
O2 Yb1 2.312562 1_555
O2 Yb0 2.436305 1_455
O2 Yb0 2.436574 1_555
O3 Yb1 2.312621 1_555
O3 Yb0 2.436291 1_465
O3 Yb0 2.436600 1_565
O4 Yb0 2.312609 1_555
O4 Yb1 2.436293 1_645
O4 Yb1 2.436597 1_545
