# generated using pymatgen
data_Cs3LaBr6
_symmetry_space_group_name_H-M   'P 1'
_cell_length_a   8.83822233
_cell_length_b   13.90127149
_cell_length_c   14.86516032
_cell_angle_alpha   72.25843142
_cell_angle_beta   90.00000000
_cell_angle_gamma   90.00000000
_symmetry_Int_Tables_number   1
_chemical_formula_structural   Cs3LaBr6
_chemical_formula_sum   'Cs12 La4 Br24'
_cell_volume   1739.51015503
_cell_formula_units_Z   4
loop_
 _symmetry_equiv_pos_site_id
 _symmetry_equiv_pos_as_xyz
  1  'x, y, z'
loop_
 _atom_site_type_symbol
 _atom_site_label
 _atom_site_symmetry_multiplicity
 _atom_site_fract_x
 _atom_site_fract_y
 _atom_site_fract_z
 _atom_site_occupancy
  Cs  Cs0  1  0.43661448  0.73686648  0.31532321  1
  Cs  Cs1  1  0.56338552  0.26313352  0.68467679  1
  Cs  Cs2  1  0.93661448  0.76313352  0.68467679  1
  Cs  Cs3  1  0.06338552  0.23686648  0.31532321  1
  Cs  Cs4  1  0.95136138  0.64145893  0.09618769  1
  Cs  Cs5  1  0.04863862  0.35854107  0.90381231  1
  Cs  Cs6  1  0.45136138  0.85854107  0.90381231  1
  Cs  Cs7  1  0.54863862  0.14145893  0.09618769  1
  Cs  Cs8  1  0.93023851  0.88510607  0.31955592  1
  Cs  Cs9  1  0.06976149  0.11489393  0.68044408  1
  Cs  Cs10  1  0.43023851  0.61489393  0.68044408  1
  Cs  Cs11  1  0.56976149  0.38510607  0.31955592  1
  La  La0  1  0.00000000  0.50000000  0.50000000  1
  La  La1  1  0.50000000  0.00000000  0.50000000  1
  La  La2  1  0.00000000  0.00000000  -0.00000000  1
  La  La3  1  0.50000000  0.50000000  -0.00000000  1
  Br  Br0  1  0.50638943  0.62715023  0.12341088  1
  Br  Br1  1  0.49361057  0.37284977  0.87658912  1
  Br  Br2  1  0.00638943  0.87284977  0.87658912  1
  Br  Br3  1  0.99361057  0.12715023  0.12341088  1
  Br  Br4  1  0.29574674  0.99243022  0.34591127  1
  Br  Br5  1  0.70425326  0.00756978  0.65408873  1
  Br  Br6  1  0.79574674  0.50756978  0.65408873  1
  Br  Br7  1  0.20425326  0.49243022  0.34591127  1
  Br  Br8  1  0.79389592  0.60889440  0.34654742  1
  Br  Br9  1  0.20610408  0.39110560  0.65345258  1
  Br  Br10  1  0.29389592  0.89110560  0.65345258  1
  Br  Br11  1  0.70610408  0.10889440  0.34654742  1
  Br  Br12  1  0.64173640  0.80682288  0.50116170  1
  Br  Br13  1  0.35826360  0.19317712  0.49883830  1
  Br  Br14  1  0.14173640  0.69317712  0.49883830  1
  Br  Br15  1  0.85826360  0.30682288  0.50116170  1
  Br  Br16  1  0.18665681  0.84679838  0.13135745  1
  Br  Br17  1  0.81334319  0.15320162  0.86864255  1
  Br  Br18  1  0.68665681  0.65320162  0.86864255  1
  Br  Br19  1  0.31334319  0.34679838  0.13135745  1
  Br  Br20  1  0.72569129  0.89422774  0.09904506  1
  Br  Br21  1  0.27430871  0.10577226  0.90095494  1
  Br  Br22  1  0.22569129  0.60577226  0.90095494  1
  Br  Br23  1  0.77430871  0.39422774  0.09904506  1
loop_
_geom_bond_atom_site_label_1
_geom_bond_atom_site_label_2
_geom_bond_distance
_geom_bond_site_symmetry_2
Br0 La3 2.910171 1_555
Br0 Cs0 3.673799 1_555
Br0 Cs11 3.762641 1_555
Br0 Cs6 3.852267 1_554
Br0 Cs4 3.952326 1_555
Br1 La3 2.910171 1_556
Br1 Cs1 3.673799 1_555
Br1 Cs10 3.762641 1_555
Br1 Cs7 3.852267 1_556
Br1 Cs5 3.952326 1_555
Br2 La2 2.910171 1_566
Br2 Cs2 3.673799 1_455
Br2 Cs9 3.762641 1_565
Br2 Cs4 3.852267 1_456
Br2 Cs6 3.952326 1_555
Br3 La2 2.910171 1_655
Br3 Cs3 3.673799 1_655
Br3 Cs8 3.762641 1_545
Br3 Cs5 3.852267 1_654
Br3 Cs7 3.952326 1_555
Br4 La1 2.943380 1_565
Br4 Cs8 3.629238 1_455
Br4 Cs3 3.876709 1_565
Br4 Cs0 3.919530 1_555
Br4 Cs7 4.287303 1_565
Br5 La1 2.943380 1_555
Br5 Cs9 3.629238 1_655
Br5 Cs2 3.876709 1_545
Br5 Cs1 3.919530 1_555
Br5 Cs6 4.287303 1_545
Br6 La0 2.943380 1_655
Br6 Cs10 3.629238 1_555
Br6 Cs1 3.876709 1_555
Br6 Cs2 3.919530 1_555
Br6 Cs5 4.287303 1_655
Br7 La0 2.943380 1_555
Br7 Cs11 3.629238 1_555
Br7 Cs0 3.876709 1_555
Br7 Cs3 3.919530 1_555
Br7 Cs4 4.287303 1_455
Br8 La0 2.951042 1_655
Br8 Cs0 3.584443 1_555
Br8 Cs11 3.811015 1_555
Br8 Cs4 3.868542 1_555
Br8 Cs8 3.926499 1_555
Br9 La0 2.951042 1_555
Br9 Cs1 3.584443 1_555
Br9 Cs10 3.811015 1_555
Br9 Cs5 3.868542 1_555
Br9 Cs9 3.926499 1_555
Br10 La1 2.951042 1_565
Br10 Cs2 3.584443 1_455
Br10 Cs9 3.811015 1_565
Br10 Cs6 3.868542 1_555
Br10 Cs10 3.926499 1_555
Br11 La1 2.951042 1_555
Br11 Cs3 3.584443 1_655
Br11 Cs8 3.811015 1_545
Br11 Cs7 3.868542 1_555
Br11 Cs11 3.926499 1_555
Br12 La1 2.958496 1_565
Br12 Cs8 3.630891 1_555
Br12 Cs10 3.658104 1_555
Br12 Cs0 3.674394 1_555
Br12 Cs2 3.686905 1_555
Br13 La1 2.958496 1_555
Br13 Cs9 3.630891 1_555
Br13 Cs11 3.658104 1_555
Br13 Cs1 3.674394 1_555
Br13 Cs3 3.686905 1_555
Br14 La0 2.958496 1_555
Br14 Cs10 3.630891 1_555
Br14 Cs8 3.658104 1_455
Br14 Cs2 3.674394 1_455
Br14 Cs0 3.686905 1_555
Br15 La0 2.958496 1_655
Br15 Cs11 3.630891 1_555
Br15 Cs9 3.658104 1_655
Br15 Cs3 3.674394 1_655
Br15 Cs1 3.686905 1_555
Br16 La2 2.921572 1_565
Br16 Cs0 3.485309 1_555
Br16 Cs4 3.695346 1_455
Br16 Cs8 3.762199 1_455
Br16 Cs6 4.074893 1_554
Br17 La2 2.921572 1_656
Br17 Cs1 3.485309 1_555
Br17 Cs5 3.695346 1_655
Br17 Cs9 3.762199 1_655
Br17 Cs7 4.074893 1_556
Br18 La3 2.921572 1_556
Br18 Cs2 3.485309 1_555
Br18 Cs6 3.695346 1_555
Br18 Cs10 3.762199 1_555
Br18 Cs4 4.074893 1_556
Br19 La3 2.921572 1_555
Br19 Cs3 3.485309 1_555
Br19 Cs7 3.695346 1_555
Br19 Cs11 3.762199 1_555
Br19 Cs5 4.074893 1_554
Br20 La2 2.981286 1_665
Br20 Cs8 3.711583 1_555
Br20 Cs7 3.764747 1_565
Br20 Cs6 3.927435 1_554
Br20 Cs4 4.051880 1_555
Br20 Cs0 4.166892 1_555
Br21 La2 2.981286 1_556
Br21 Cs9 3.711583 1_555
Br21 Cs6 3.764747 1_545
Br21 Cs7 3.927435 1_556
Br21 Cs5 4.051880 1_555
Br21 Cs1 4.166892 1_555
Br22 La3 2.981286 1_556
Br22 Cs10 3.711583 1_555
Br22 Cs5 3.764747 1_555
Br22 Cs4 3.927435 1_456
Br22 Cs6 4.051880 1_555
Br22 Cs2 4.166892 1_455
Br23 La3 2.981286 1_555
Br23 Cs11 3.711583 1_555
Br23 Cs4 3.764747 1_555
Br23 Cs5 3.927435 1_654
Br23 Cs7 4.051880 1_555
Br23 Cs3 4.166892 1_655
