# generated using pymatgen
data_MgAgBiO5
_symmetry_space_group_name_H-M   'P 1'
_cell_length_a   5.33461200
_cell_length_b   10.20492100
_cell_length_c   15.48165200
_cell_angle_alpha   90.00000000
_cell_angle_beta   90.00000000
_cell_angle_gamma   90.00000000
_symmetry_Int_Tables_number   1
_chemical_formula_structural   MgAgBiO5
_chemical_formula_sum   'Mg8 Ag8 Bi8 O40'
_cell_volume   842.81020523
_cell_formula_units_Z   8
loop_
 _symmetry_equiv_pos_site_id
 _symmetry_equiv_pos_as_xyz
  1  'x, y, z'
loop_
 _atom_site_type_symbol
 _atom_site_label
 _atom_site_symmetry_multiplicity
 _atom_site_fract_x
 _atom_site_fract_y
 _atom_site_fract_z
 _atom_site_occupancy
  Mg  Mg0  1  0.56108000  0.36839600  0.56692100  1
  Mg  Mg1  1  0.06108000  0.13160400  0.56692100  1
  Mg  Mg2  1  0.06108000  0.63160400  0.93307900  1
  Mg  Mg3  1  0.93892000  0.36839600  0.06692100  1
  Mg  Mg4  1  0.43892000  0.13160400  0.06692100  1
  Mg  Mg5  1  0.93892000  0.86839600  0.43307900  1
  Mg  Mg6  1  0.43892000  0.63160400  0.43307900  1
  Mg  Mg7  1  0.56108000  0.86839600  0.93307900  1
  Ag  Ag0  1  0.04959700  0.38427100  0.42370400  1
  Ag  Ag1  1  0.45040300  0.88427100  0.57629600  1
  Ag  Ag2  1  0.95040300  0.61572900  0.57629600  1
  Ag  Ag3  1  0.54959700  0.11572900  0.42370400  1
  Ag  Ag4  1  0.95040300  0.11572900  0.92370400  1
  Ag  Ag5  1  0.04959700  0.88427100  0.07629600  1
  Ag  Ag6  1  0.45040300  0.38427100  0.92370400  1
  Ag  Ag7  1  0.54959700  0.61572900  0.07629600  1
  Bi  Bi0  1  0.99929000  0.85819100  0.75457400  1
  Bi  Bi1  1  0.00071000  0.14180900  0.24542600  1
  Bi  Bi2  1  0.50071000  0.35819100  0.24542600  1
  Bi  Bi3  1  0.00071000  0.64180900  0.25457400  1
  Bi  Bi4  1  0.49929000  0.14180900  0.74542600  1
  Bi  Bi5  1  0.49929000  0.64180900  0.75457400  1
  Bi  Bi6  1  0.50071000  0.85819100  0.25457400  1
  Bi  Bi7  1  0.99929000  0.35819100  0.74542600  1
  O  O0  1  0.83797100  0.30628100  0.32317700  1
  O  O1  1  0.26565900  0.97977700  0.98542700  1
  O  O2  1  0.23434100  0.47977700  0.01457300  1
  O  O3  1  0.31539500  0.79678400  0.83334400  1
  O  O4  1  0.18460500  0.29678400  0.16665600  1
  O  O5  1  0.83797100  0.80628100  0.17682300  1
  O  O6  1  0.18460500  0.79678400  0.33334400  1
  O  O7  1  0.66202900  0.80628100  0.67682300  1
  O  O8  1  0.26565900  0.47977700  0.51457300  1
  O  O9  1  0.16202900  0.69371900  0.67682300  1
  O  O10  1  0.66202900  0.30628100  0.82317700  1
  O  O11  1  0.85126700  0.26972900  0.50254100  1
  O  O12  1  0.76565900  0.02022300  0.51457300  1
  O  O13  1  0.68460500  0.70321600  0.33334400  1
  O  O14  1  0.25402500  0.00241700  0.16325900  1
  O  O15  1  0.76565900  0.52022300  0.98542700  1
  O  O16  1  0.16202900  0.19371900  0.82317700  1
  O  O17  1  0.81539500  0.20321600  0.66665600  1
  O  O18  1  0.35126700  0.73027100  0.99745900  1
  O  O19  1  0.23434100  0.97977700  0.48542700  1
  O  O20  1  0.14873300  0.73027100  0.49745900  1
  O  O21  1  0.74597500  0.99758300  0.83674100  1
  O  O22  1  0.68460500  0.20321600  0.16665600  1
  O  O23  1  0.75402500  0.99758300  0.33674100  1
  O  O24  1  0.14873300  0.23027100  0.00254100  1
  O  O25  1  0.35126700  0.23027100  0.50254100  1
  O  O26  1  0.73434100  0.52022300  0.48542700  1
  O  O27  1  0.73434100  0.02022300  0.01457300  1
  O  O28  1  0.75402500  0.49758300  0.16325900  1
  O  O29  1  0.64873300  0.76972900  0.49745900  1
  O  O30  1  0.64873300  0.26972900  0.00254100  1
  O  O31  1  0.85126700  0.76972900  0.99745900  1
  O  O32  1  0.74597500  0.49758300  0.66325900  1
  O  O33  1  0.81539500  0.70321600  0.83334400  1
  O  O34  1  0.31539500  0.29678400  0.66665600  1
  O  O35  1  0.25402500  0.50241700  0.33674100  1
  O  O36  1  0.24597500  0.50241700  0.83674100  1
  O  O37  1  0.33797100  0.19371900  0.32317700  1
  O  O38  1  0.24597500  0.00241700  0.66325900  1
  O  O39  1  0.33797100  0.69371900  0.17682300  1
loop_
_geom_bond_atom_site_label_1
_geom_bond_atom_site_label_2
_geom_bond_distance
_geom_bond_site_symmetry_2
Mg0 O25 2.057435 1_555
Mg0 O11 2.098491 1_555
Mg0 O8 2.105322 1_555
Mg0 O34 2.153126 1_555
Mg0 O26 2.201516 1_555
Mg0 O32 2.221573 1_555
Mg0 O17 2.658214 1_555
Mg1 O11 2.057435 1_455
Mg1 O25 2.098491 1_555
Mg1 O12 2.105322 1_455
Mg1 O17 2.153126 1_455
Mg1 O19 2.201516 1_545
Mg1 O38 2.221573 1_555
Mg1 O34 2.658214 1_555
Mg2 O31 2.057435 1_455
Mg2 O18 2.098491 1_555
Mg2 O15 2.105322 1_455
Mg2 O33 2.153126 1_455
Mg2 O2 2.201516 1_556
Mg2 O36 2.221573 1_555
Mg2 O3 2.658214 1_555
Mg3 O24 2.057435 1_655
Mg3 O30 2.098491 1_555
Mg3 O2 2.105322 1_655
Mg3 O4 2.153126 1_655
Mg3 O15 2.201516 1_554
Mg3 O28 2.221573 1_555
Mg3 O22 2.658214 1_555
Mg4 O30 2.057435 1_555
Mg4 O24 2.098491 1_555
Mg4 O27 2.105322 1_555
Mg4 O22 2.153126 1_555
Mg4 O1 2.201516 1_544
Mg4 O14 2.221573 1_555
Mg4 O4 2.658214 1_555
Mg5 O20 2.057435 1_655
Mg5 O29 2.098491 1_555
Mg5 O19 2.105322 1_655
Mg5 O6 2.153126 1_655
Mg5 O12 2.201516 1_565
Mg5 O23 2.221573 1_555
Mg5 O13 2.658214 1_555
Mg6 O29 2.057435 1_555
Mg6 O20 2.098491 1_555
Mg6 O26 2.105322 1_555
Mg6 O13 2.153126 1_555
Mg6 O8 2.201516 1_555
Mg6 O35 2.221573 1_555
Mg6 O6 2.658214 1_555
Mg7 O18 2.057435 1_555
Mg7 O31 2.098491 1_555
Mg7 O1 2.105322 1_555
Mg7 O3 2.153126 1_555
Mg7 O27 2.201516 1_566
Mg7 O21 2.221573 1_555
Mg7 O33 2.658214 1_555
Ag0 O11 1.993837 1_455
Ag0 O8 2.063371 1_555
Ag0 O0 2.080885 1_455
Ag0 O35 2.110814 1_555
Ag0 O26 2.380397 1_455
Ag0 O25 2.559160 1_555
Ag1 O29 1.993837 1_555
Ag1 O19 2.063371 1_555
Ag1 O7 2.080885 1_555
Ag1 O38 2.110814 1_565
Ag1 O12 2.380397 1_565
Ag1 O20 2.559160 1_555
Ag2 O20 1.993837 1_655
Ag2 O26 2.063371 1_555
Ag2 O9 2.080885 1_655
Ag2 O32 2.110814 1_555
Ag2 O8 2.380397 1_655
Ag2 O29 2.559160 1_555
Ag3 O25 1.993837 1_555
Ag3 O12 2.063371 1_555
Ag3 O37 2.080885 1_555
Ag3 O23 2.110814 1_545
Ag3 O19 2.380397 1_545
Ag3 O11 2.559160 1_555
Ag4 O24 1.993837 1_656
Ag4 O27 2.063371 1_556
Ag4 O16 2.080885 1_655
Ag4 O21 2.110814 1_545
Ag4 O1 2.380397 1_645
Ag4 O30 2.559160 1_556
Ag5 O31 1.993837 1_454
Ag5 O1 2.063371 1_554
Ag5 O5 2.080885 1_455
Ag5 O14 2.110814 1_565
Ag5 O27 2.380397 1_465
Ag5 O18 2.559160 1_554
Ag6 O30 1.993837 1_556
Ag6 O2 2.063371 1_556
Ag6 O10 2.080885 1_555
Ag6 O36 2.110814 1_555
Ag6 O15 2.380397 1_555
Ag6 O24 2.559160 1_556
Ag7 O18 1.993837 1_554
Ag7 O15 2.063371 1_554
Ag7 O39 2.080885 1_555
Ag7 O28 2.110814 1_555
Ag7 O2 2.380397 1_555
Ag7 O31 2.559160 1_554
Bi0 O3 2.173350 1_655
Bi0 O33 2.225017 1_555
Bi0 O7 2.228568 1_555
Bi0 O9 2.240472 1_655
Bi0 O21 2.338325 1_555
Bi0 O38 2.428288 1_665
Bi1 O22 2.173350 1_455
Bi1 O4 2.225017 1_555
Bi1 O37 2.228568 1_555
Bi1 O0 2.240472 1_455
Bi1 O14 2.338325 1_555
Bi1 O23 2.428288 1_445
Bi2 O4 2.173350 1_555
Bi2 O22 2.225017 1_555
Bi2 O0 2.228568 1_555
Bi2 O37 2.240472 1_555
Bi2 O28 2.338325 1_555
Bi2 O35 2.428288 1_555
Bi3 O13 2.173350 1_455
Bi3 O6 2.225017 1_555
Bi3 O39 2.228568 1_555
Bi3 O5 2.240472 1_455
Bi3 O35 2.338325 1_555
Bi3 O28 2.428288 1_455
Bi4 O17 2.173350 1_555
Bi4 O34 2.225017 1_555
Bi4 O16 2.228568 1_555
Bi4 O10 2.240472 1_555
Bi4 O38 2.338325 1_555
Bi4 O21 2.428288 1_545
Bi5 O33 2.173350 1_555
Bi5 O3 2.225017 1_555
Bi5 O9 2.228568 1_555
Bi5 O7 2.240472 1_555
Bi5 O36 2.338325 1_555
Bi5 O32 2.428288 1_555
Bi6 O6 2.173350 1_555
Bi6 O13 2.225017 1_555
Bi6 O5 2.228568 1_555
Bi6 O39 2.240472 1_555
Bi6 O23 2.338325 1_555
Bi6 O14 2.428288 1_565
Bi7 O34 2.173350 1_655
Bi7 O17 2.225017 1_555
Bi7 O10 2.228568 1_555
Bi7 O16 2.240472 1_655
Bi7 O32 2.338325 1_555
Bi7 O36 2.428288 1_655
