# generated using pymatgen
data_Ba2LaSbO6
_symmetry_space_group_name_H-M   'P 1'
_cell_length_a   8.73399310
_cell_length_b   8.73399310
_cell_length_c   8.73399310
_cell_angle_alpha   90.00000000
_cell_angle_beta   90.00000000
_cell_angle_gamma   90.00000000
_symmetry_Int_Tables_number   1
_chemical_formula_structural   Ba2LaSbO6
_chemical_formula_sum   'Ba8 La4 Sb4 O24'
_cell_volume   666.25201185
_cell_formula_units_Z   4
loop_
 _symmetry_equiv_pos_site_id
 _symmetry_equiv_pos_as_xyz
  1  'x, y, z'
loop_
 _atom_site_type_symbol
 _atom_site_label
 _atom_site_symmetry_multiplicity
 _atom_site_fract_x
 _atom_site_fract_y
 _atom_site_fract_z
 _atom_site_occupancy
  Ba  Ba0  1  0.50000000  0.50000000  0.50000000  1
  Ba  Ba1  1  -0.00000000  0.00000000  0.00000000  1
  Ba  Ba2  1  -0.00000000  0.00000000  0.50000000  1
  Ba  Ba3  1  -0.00000000  0.50000000  0.00000000  1
  Ba  Ba4  1  0.50000000  0.00000000  0.00000000  1
  Ba  Ba5  1  0.50000000  0.50000000  0.00000000  1
  Ba  Ba6  1  0.50000000  0.00000000  0.50000000  1
  Ba  Ba7  1  -0.00000000  0.50000000  0.50000000  1
  La  La0  1  0.75000000  0.75000000  0.75000000  1
  La  La1  1  0.75000000  0.25000000  0.25000000  1
  La  La2  1  0.25000000  0.75000000  0.25000000  1
  La  La3  1  0.25000000  0.25000000  0.75000000  1
  Sb  Sb0  1  0.25000000  0.25000000  0.25000000  1
  Sb  Sb1  1  0.25000000  0.75000000  0.75000000  1
  Sb  Sb2  1  0.75000000  0.25000000  0.75000000  1
  Sb  Sb3  1  0.75000000  0.75000000  0.25000000  1
  O  O0  1  0.24038541  0.26089028  0.48038686  1
  O  O1  1  0.24038541  0.73910972  0.51961314  1
  O  O2  1  0.75961459  0.26089028  0.51961314  1
  O  O3  1  0.75961459  0.73910972  0.48038686  1
  O  O4  1  0.26089028  0.48038686  0.24038541  1
  O  O5  1  0.73910972  0.51961314  0.24038541  1
  O  O6  1  0.26089028  0.51961314  0.75961459  1
  O  O7  1  0.73910972  0.48038686  0.75961459  1
  O  O8  1  0.48038686  0.24038541  0.26089028  1
  O  O9  1  0.51961314  0.24038541  0.73910972  1
  O  O10  1  0.51961314  0.75961459  0.26089028  1
  O  O11  1  0.48038686  0.75961459  0.73910972  1
  O  O12  1  0.25961459  0.23910972  0.01961314  1
  O  O13  1  0.25961459  0.76089028  0.98038686  1
  O  O14  1  0.74038541  0.23910972  0.98038686  1
  O  O15  1  0.74038541  0.76089028  0.01961314  1
  O  O16  1  0.23910972  0.01961314  0.25961459  1
  O  O17  1  0.76089028  0.98038686  0.25961459  1
  O  O18  1  0.23910972  0.98038686  0.74038541  1
  O  O19  1  0.76089028  0.01961314  0.74038541  1
  O  O20  1  0.01961314  0.25961459  0.23910972  1
  O  O21  1  0.98038686  0.25961459  0.76089028  1
  O  O22  1  0.98038686  0.74038541  0.23910972  1
  O  O23  1  0.01961314  0.74038541  0.76089028  1
loop_
_geom_bond_atom_site_label_1
_geom_bond_atom_site_label_2
_geom_bond_distance
_geom_bond_site_symmetry_2
Ba0 O9 3.087412 1_555
Ba0 O10 3.087412 1_555
Ba0 O0 3.087412 1_555
Ba0 O2 3.087412 1_555
Ba0 O3 3.087412 1_555
Ba0 O7 3.087412 1_555
Ba0 O1 3.087412 1_555
Ba0 O4 3.087412 1_555
Ba0 O11 3.087412 1_555
Ba0 O8 3.087412 1_555
Ba0 O5 3.087412 1_555
Ba0 O6 3.087412 1_555
Ba1 O21 3.087412 1_454
Ba1 O18 3.087412 1_544
Ba1 O12 3.087412 1_555
Ba1 O16 3.087412 1_555
Ba1 O20 3.087412 1_555
Ba1 O22 3.087412 1_445
Ba1 O13 3.087412 1_544
Ba1 O17 3.087412 1_445
Ba1 O14 3.087412 1_454
Ba1 O23 3.087412 1_544
Ba1 O19 3.087412 1_454
Ba1 O15 3.087412 1_445
Ba2 O16 2.966258 1_555
Ba2 O18 2.966258 1_545
Ba2 O17 2.966258 1_445
Ba2 O19 2.966258 1_455
Ba2 O0 3.103132 1_555
Ba2 O2 3.103132 1_455
Ba2 O1 3.103132 1_545
Ba2 O3 3.103132 1_445
Ba2 O23 3.219139 1_545
Ba2 O20 3.219139 1_555
Ba2 O22 3.219139 1_445
Ba2 O21 3.219139 1_455
Ba3 O21 2.966258 1_454
Ba3 O20 2.966258 1_555
Ba3 O23 2.966258 1_554
Ba3 O22 2.966258 1_455
Ba3 O6 3.103132 1_554
Ba3 O4 3.103132 1_555
Ba3 O5 3.103132 1_455
Ba3 O7 3.103132 1_454
Ba3 O12 3.219139 1_555
Ba3 O13 3.219139 1_554
Ba3 O15 3.219139 1_455
Ba3 O14 3.219139 1_454
Ba4 O12 2.966258 1_555
Ba4 O13 2.966258 1_544
Ba4 O14 2.966258 1_554
Ba4 O15 2.966258 1_545
Ba4 O10 3.103132 1_545
Ba4 O8 3.103132 1_555
Ba4 O11 3.103132 1_544
Ba4 O9 3.103132 1_554
Ba4 O16 3.219139 1_555
Ba4 O19 3.219139 1_554
Ba4 O17 3.219139 1_545
Ba4 O18 3.219139 1_544
Ba5 O7 2.966258 1_554
Ba5 O5 2.966258 1_555
Ba5 O6 2.966258 1_554
Ba5 O4 2.966258 1_555
Ba5 O14 3.103132 1_554
Ba5 O15 3.103132 1_555
Ba5 O13 3.103132 1_554
Ba5 O12 3.103132 1_555
Ba5 O10 3.219139 1_555
Ba5 O11 3.219139 1_554
Ba5 O8 3.219139 1_555
Ba5 O9 3.219139 1_554
Ba6 O9 2.966258 1_555
Ba6 O11 2.966258 1_545
Ba6 O8 2.966258 1_555
Ba6 O10 2.966258 1_545
Ba6 O19 3.103132 1_555
Ba6 O17 3.103132 1_545
Ba6 O16 3.103132 1_555
Ba6 O18 3.103132 1_545
Ba6 O1 3.219139 1_545
Ba6 O0 3.219139 1_555
Ba6 O2 3.219139 1_555
Ba6 O3 3.219139 1_545
Ba7 O3 2.966258 1_455
Ba7 O0 2.966258 1_555
Ba7 O2 2.966258 1_455
Ba7 O1 2.966258 1_555
Ba7 O21 3.103132 1_455
Ba7 O22 3.103132 1_455
Ba7 O20 3.103132 1_555
Ba7 O23 3.103132 1_555
Ba7 O6 3.219139 1_555
Ba7 O7 3.219139 1_455
Ba7 O4 3.219139 1_555
Ba7 O5 3.219139 1_455
La0 O15 2.358215 1_556
La0 O19 2.358215 1_565
La0 O23 2.358215 1_655
La0 O3 2.358215 1_555
La0 O11 2.358215 1_555
La0 O7 2.358215 1_555
La1 O20 2.358215 1_655
La1 O8 2.358215 1_555
La1 O17 2.358215 1_545
La1 O2 2.358215 1_555
La1 O14 2.358215 1_554
La1 O5 2.358215 1_555
La2 O16 2.358215 1_565
La2 O4 2.358215 1_555
La2 O22 2.358215 1_455
La2 O13 2.358215 1_554
La2 O10 2.358215 1_555
La2 O1 2.358215 1_555
La3 O12 2.358215 1_556
La3 O0 2.358215 1_555
La3 O6 2.358215 1_555
La3 O9 2.358215 1_555
La3 O18 2.358215 1_545
La3 O21 2.358215 1_455
O0 Sb0 2.016194 1_555
O1 Sb1 2.016194 1_555
O2 Sb2 2.016194 1_555
O3 Sb3 2.016194 1_555
O4 Sb0 2.016194 1_555
O5 Sb3 2.016194 1_555
O6 Sb1 2.016194 1_555
O7 Sb2 2.016194 1_555
O8 Sb0 2.016194 1_555
O9 Sb2 2.016194 1_555
O10 Sb3 2.016194 1_555
O11 Sb1 2.016194 1_555
O12 Sb0 2.016194 1_555
O13 Sb1 2.016194 1_555
O14 Sb2 2.016194 1_555
O15 Sb3 2.016194 1_555
O16 Sb0 2.016194 1_555
O17 Sb3 2.016194 1_555
O18 Sb1 2.016194 1_555
O19 Sb2 2.016194 1_555
O20 Sb0 2.016194 1_555
O21 Sb2 2.016194 1_555
O22 Sb3 2.016194 1_555
O23 Sb1 2.016194 1_555
