# generated using pymatgen
data_Li12Cr3NiP4(CO7)4
_symmetry_space_group_name_H-M   'P 1'
_cell_length_a   6.46255000
_cell_length_b   8.61857400
_cell_length_c   9.99521450
_cell_angle_alpha   85.41046906
_cell_angle_beta   90.00000000
_cell_angle_gamma   90.00000000
_symmetry_Int_Tables_number   1
_chemical_formula_structural   Li12Cr3NiP4(CO7)4
_chemical_formula_sum   'Li12 Cr3 Ni1 P4 C4 O28'
_cell_volume   554.92801948
_cell_formula_units_Z   1
loop_
 _symmetry_equiv_pos_site_id
 _symmetry_equiv_pos_as_xyz
  1  'x, y, z'
loop_
 _atom_site_type_symbol
 _atom_site_label
 _atom_site_symmetry_multiplicity
 _atom_site_fract_x
 _atom_site_fract_y
 _atom_site_fract_z
 _atom_site_occupancy
  Li  Li0  1  0.00000000  0.90308500  0.61294200  1
  Li  Li1  1  0.00000000  0.89379200  0.11787600  1
  Li  Li2  1  0.22718600  0.72663600  0.87145900  1
  Li  Li3  1  0.77281400  0.72663600  0.87145900  1
  Li  Li4  1  0.22892600  0.72684500  0.37208700  1
  Li  Li5  1  0.77107400  0.72684500  0.37208700  1
  Li  Li6  1  0.72500100  0.27333400  0.62490400  1
  Li  Li7  1  0.27499900  0.27333400  0.62490400  1
  Li  Li8  1  0.72725200  0.27241200  0.12935600  1
  Li  Li9  1  0.27274800  0.27241200  0.12935600  1
  Li  Li10  1  0.50000000  0.10360800  0.88475900  1
  Li  Li11  1  0.50000000  0.10486300  0.38380500  1
  Cr  Cr0  1  0.50000000  0.66564200  0.60332100  1
  Cr  Cr1  1  0.50000000  0.66400800  0.10739000  1
  Cr  Cr2  1  0.00000000  0.33223900  0.89415600  1
  Ni  Ni0  1  0.00000000  0.33301300  0.39884000  1
  P  P0  1  0.00000000  0.58816900  0.63638100  1
  P  P1  1  0.00000000  0.58292100  0.14265300  1
  P  P2  1  0.50000000  0.41095800  0.86035900  1
  P  P3  1  0.50000000  0.41014300  0.36098300  1
  C  C0  1  0.50000000  0.96797200  0.64803400  1
  C  C1  1  0.50000000  0.96762900  0.14829100  1
  C  C2  1  0.00000000  0.02961400  0.85237000  1
  C  C3  1  0.00000000  0.04307200  0.35028200  1
  O  O0  1  0.50000000  0.94234200  0.52296700  1
  O  O1  1  0.00000000  0.88887900  0.81347600  1
  O  O2  1  0.50000000  0.93972200  0.02373700  1
  O  O3  1  0.50000000  0.84869500  0.73844200  1
  O  O4  1  0.00000000  0.89956500  0.31831000  1
  O  O5  1  0.50000000  0.85001400  0.24025000  1
  O  O6  1  0.18660800  0.68855000  0.58035800  1
  O  O7  1  0.81339200  0.68855000  0.58035800  1
  O  O8  1  0.18603200  0.68637500  0.09058100  1
  O  O9  1  0.81396800  0.68637500  0.09058100  1
  O  O10  1  0.50000000  0.57801000  0.90734100  1
  O  O11  1  0.00000000  0.57868500  0.79199000  1
  O  O12  1  0.50000000  0.57813200  0.40626200  1
  O  O13  1  0.00000000  0.56343700  0.29933600  1
  O  O14  1  0.50000000  0.42009900  0.70476700  1
  O  O15  1  0.00000000  0.42100300  0.58951200  1
  O  O16  1  0.50000000  0.41917500  0.20508500  1
  O  O17  1  0.00000000  0.42068000  0.08870800  1
  O  O18  1  0.31342100  0.31119000  0.91675500  1
  O  O19  1  0.68657900  0.31119000  0.91675500  1
  O  O20  1  0.68780200  0.31147300  0.41711200  1
  O  O21  1  0.31219800  0.31147300  0.41711200  1
  O  O22  1  0.00000000  0.14835900  0.76152900  1
  O  O23  1  0.50000000  0.10858600  0.68648500  1
  O  O24  1  0.00000000  0.15893700  0.25744600  1
  O  O25  1  0.00000000  0.05500500  0.97728700  1
  O  O26  1  0.50000000  0.10896500  0.18514200  1
  O  O27  1  0.00000000  0.07735200  0.47426300  1
loop_
_geom_bond_atom_site_label_1
_geom_bond_atom_site_label_2
_geom_bond_distance
_geom_bond_site_symmetry_2
Li0 O27 1.960607 1_565
Li0 O1 1.998314 1_555
Li0 O7 2.252895 1_455
Li0 O6 2.252895 1_555
Li1 O25 1.895438 1_564
Li1 O4 2.007975 1_555
Li1 O8 2.189410 1_555
Li1 O9 2.189410 1_455
Li2 O1 2.077753 1_555
Li2 O11 2.138827 1_555
Li2 O10 2.191884 1_555
Li2 O8 2.205985 1_556
Li2 O3 2.399773 1_555
Li3 O1 2.077753 1_655
Li3 O11 2.138827 1_655
Li3 O10 2.191884 1_555
Li3 O9 2.205985 1_556
Li3 O3 2.399773 1_555
Li4 O6 2.099357 1_555
Li4 O4 2.136717 1_555
Li4 O12 2.181344 1_555
Li4 O13 2.205640 1_555
Li4 O5 2.389216 1_555
Li5 O7 2.099357 1_555
Li5 O4 2.136717 1_655
Li5 O12 2.181344 1_555
Li5 O13 2.205640 1_655
Li5 O5 2.389216 1_555
Li6 O23 2.090321 1_555
Li6 O20 2.090503 1_555
Li6 O14 2.124411 1_555
Li6 O15 2.198014 1_655
Li6 O22 2.438860 1_655
Li7 O23 2.090321 1_555
Li7 O21 2.090503 1_555
Li7 O14 2.124411 1_555
Li7 O15 2.198014 1_555
Li7 O22 2.438860 1_555
Li8 O26 2.080013 1_555
Li8 O16 2.117302 1_555
Li8 O19 2.140730 1_554
Li8 O17 2.195867 1_655
Li8 O24 2.345666 1_655
Li9 O26 2.080013 1_555
Li9 O16 2.117302 1_555
Li9 O18 2.140730 1_554
Li9 O17 2.195867 1_555
Li9 O24 2.345666 1_555
Li10 O2 1.900183 1_546
Li10 O23 1.978820 1_555
Li10 O19 2.201925 1_555
Li10 O18 2.201925 1_555
Li11 O0 1.893388 1_545
Li11 O26 1.983164 1_555
Li11 O20 2.202170 1_555
Li11 O21 2.202170 1_555
Cr0 O7 2.046044 1_555
Cr0 O6 2.046044 1_555
Cr0 O3 2.157315 1_555
Cr0 O12 2.164735 1_555
Cr0 O14 2.272262 1_555
Cr0 O0 2.454714 1_555
Cr1 O9 2.043816 1_555
Cr1 O8 2.043816 1_555
Cr1 O5 2.161974 1_555
Cr1 O10 2.187384 1_554
Cr1 O16 2.253074 1_555
Cr1 O2 2.455151 1_555
Cr2 O18 2.044510 1_555
Cr2 O19 2.044510 1_455
Cr2 O17 2.144676 1_556
Cr2 O22 2.145939 1_555
Cr2 O11 2.281910 1_555
Cr2 O25 2.466119 1_555
Ni0 O21 2.032998 1_555
Ni0 O20 2.032998 1_455
Ni0 O15 2.106771 1_555
Ni0 O24 2.141843 1_555
Ni0 O13 2.148714 1_555
Ni0 O27 2.271036 1_555
C0 O0 1.286726 1_555
C0 O23 1.300356 1_565
C0 O3 1.313276 1_555
C1 O2 1.286722 1_555
C1 O26 1.300491 1_565
C1 O5 1.312732 1_555
C2 O25 1.284736 1_555
C2 O1 1.302997 1_545
C2 O22 1.312663 1_555
C3 O27 1.296741 1_555
C3 O4 1.301965 1_545
C3 O24 1.307640 1_555
O6 P0 1.561681 1_555
O7 P0 1.561681 1_655
O8 P1 1.561091 1_555
O9 P1 1.561091 1_655
O10 P2 1.549709 1_555
O11 P0 1.550946 1_555
O12 P3 1.551091 1_555
O13 P1 1.561640 1_555
O14 P2 1.550861 1_555
O15 P0 1.550220 1_555
O16 P3 1.553944 1_555
O17 P1 1.538372 1_555
O18 P2 1.559946 1_555
O19 P2 1.559946 1_555
O20 P3 1.560316 1_555
O21 P3 1.560316 1_555
