# generated using pymatgen
data_Al12Co4Cu
_symmetry_space_group_name_H-M   'P 1'
_cell_length_a   8.53701348
_cell_length_b   8.53701348
_cell_length_c   12.25216289
_cell_angle_alpha   73.95259804
_cell_angle_beta   73.95259804
_cell_angle_gamma   55.45327673
_symmetry_Int_Tables_number   1
_chemical_formula_structural   Al12Co4Cu
_chemical_formula_sum   'Al36 Co12 Cu3'
_cell_volume   698.70249238
_cell_formula_units_Z   3
loop_
 _symmetry_equiv_pos_site_id
 _symmetry_equiv_pos_as_xyz
  1  'x, y, z'
loop_
 _atom_site_type_symbol
 _atom_site_label
 _atom_site_symmetry_multiplicity
 _atom_site_fract_x
 _atom_site_fract_y
 _atom_site_fract_z
 _atom_site_occupancy
  Al  Al0  1  0.96318212  0.39542729  0.16250321  1
  Al  Al1  1  0.39542729  0.96318212  0.16250321  1
  Al  Al2  1  0.97231770  0.39914227  0.38598868  1
  Al  Al3  1  0.39914227  0.97231770  0.38598868  1
  Al  Al4  1  0.14790690  0.59417915  0.38946393  1
  Al  Al5  1  0.59417915  0.14790690  0.38946393  1
  Al  Al6  1  0.25768007  0.72574789  0.17264449  1
  Al  Al7  1  0.72574789  0.25768007  0.17264449  1
  Al  Al8  1  0.16103401  0.57727769  0.02126939  1
  Al  Al9  1  0.57727769  0.16103401  0.02126939  1
  Al  Al10  1  0.25083044  0.74916956  0.50000000  1
  Al  Al11  1  0.74916956  0.25083044  0.50000000  1
  Al  Al12  1  0.03681788  0.60457271  0.83749679  1
  Al  Al13  1  0.60457271  0.03681788  0.83749679  1
  Al  Al14  1  0.02768230  0.60085773  0.61401132  1
  Al  Al15  1  0.51985394  0.51985394  0.33167371  1
  Al  Al16  1  0.23774505  0.23774505  0.54290475  1
  Al  Al17  1  0.05688847  0.05688847  0.32474181  1
  Al  Al18  1  0.23522900  0.23522900  0.96403658  1
  Al  Al19  1  0.48014606  0.48014606  0.66832629  1
  Al  Al20  1  0.76225495  0.76225495  0.45709525  1
  Al  Al21  1  0.94311153  0.94311153  0.67525819  1
  Al  Al22  1  0.76477100  0.76477100  0.03596342  1
  Al  Al23  1  0.07542239  0.07542239  0.91247805  1
  Al  Al24  1  0.30101731  0.30101731  0.73040407  1
  Al  Al25  1  0.92457761  0.92457761  0.08752195  1
  Al  Al26  1  0.69898269  0.69898269  0.26959593  1
  Al  Al27  1  0.66262810  0.66262810  0.78235106  1
  Al  Al28  1  0.33737190  0.33737190  0.21764894  1
  Al  Al29  1  0.42272231  0.83896599  0.97873061  1
  Al  Al30  1  0.83896599  0.42272231  0.97873061  1
  Al  Al31  1  0.27425211  0.74231993  0.82735551  1
  Al  Al32  1  0.74231993  0.27425211  0.82735551  1
  Al  Al33  1  0.40582085  0.85209310  0.61053607  1
  Al  Al34  1  0.85209310  0.40582085  0.61053607  1
  Al  Al35  1  0.60085773  0.02768230  0.61401132  1
  Co  Co0  1  0.03562031  0.59949898  0.22018836  1
  Co  Co1  1  0.59949898  0.03562031  0.22018836  1
  Co  Co2  1  0.96437969  0.40050102  0.77981164  1
  Co  Co3  1  0.40050102  0.96437969  0.77981164  1
  Co  Co4  1  0.91334160  0.91334160  0.89001188  1
  Co  Co5  1  0.90795144  0.90795144  0.49550571  1
  Co  Co6  1  0.60045039  0.60045039  0.48224093  1
  Co  Co7  1  0.39716543  0.39716543  0.86902840  1
  Co  Co8  1  0.08665840  0.08665840  0.10998812  1
  Co  Co9  1  0.09204856  0.09204856  0.50449429  1
  Co  Co10  1  0.39954961  0.39954961  0.51775907  1
  Co  Co11  1  0.60283457  0.60283457  0.13097160  1
  Cu  Cu0  1  0.91213536  0.91213536  0.28565771  1
  Cu  Cu1  1  0.08786464  0.08786464  0.71434229  1
  Cu  Cu2  1  0.50000000  0.50000000  -0.00000000  1
loop_
_geom_bond_atom_site_label_1
_geom_bond_atom_site_label_2
_geom_bond_distance
_geom_bond_site_symmetry_2
Al0 Co8 2.425857 1_655
Al0 Co0 2.461983 1_655
Al0 Co11 2.617080 1_555
Al0 Al26 2.671908 1_555
Al1 Co8 2.425857 1_565
Al1 Co1 2.461983 1_565
Al1 Co11 2.617080 1_555
Al1 Al26 2.671908 1_555
Al2 Co9 2.388064 1_655
Al2 Co0 2.421722 1_655
Al2 Al26 2.660488 1_555
Al2 Al34 2.661755 1_555
Al2 Co6 2.699153 1_555
Al2 Al4 2.815384 1_655
Al3 Co9 2.388064 1_565
Al3 Co1 2.421722 1_565
Al3 Al33 2.661755 1_555
Al3 Co6 2.699153 1_555
Al3 Al5 2.815384 1_565
Al4 Co0 2.494015 1_555
Al4 Co10 2.494262 1_555
Al4 Cu0 2.519335 1_455
Al4 Co5 2.699803 1_455
Al4 Al6 2.713788 1_555
Al5 Co1 2.494015 1_555
Al5 Co10 2.494262 1_555
Al5 Cu0 2.519335 1_545
Al5 Co5 2.699803 1_545
Al5 Al7 2.713788 1_555
Al6 Co11 2.449873 1_555
Al6 Co8 2.534594 1_565
Al6 Co0 2.540552 1_555
Al6 Cu0 2.605273 1_455
Al6 Cu2 2.789422 1_555
Al7 Co11 2.449873 1_555
Al7 Co8 2.534594 1_655
Al7 Co1 2.540552 1_555
Al7 Cu0 2.605273 1_545
Al7 Cu2 2.789422 1_555
Al8 Co0 2.388471 1_555
Al8 Co7 2.428702 1_554
Al8 Cu2 2.527829 1_555
Al9 Co1 2.388471 1_555
Al9 Co7 2.428702 1_554
Al9 Cu2 2.527829 1_555
Al10 Co5 2.440585 1_455
Al10 Co9 2.440585 1_565
Al10 Co6 2.462444 1_555
Al10 Co10 2.462444 1_555
Al10 Al33 2.706309 1_555
Al10 Al4 2.706309 1_555
Al11 Co5 2.440585 1_545
Al11 Co9 2.440585 1_655
Al11 Co6 2.462444 1_555
Al11 Co10 2.462444 1_555
Al11 Al34 2.706309 1_555
Al11 Al5 2.706309 1_555
Al12 Co4 2.425857 1_455
Al12 Co2 2.461983 1_455
Al12 Co7 2.617080 1_555
Al12 Al24 2.671908 1_555
Al13 Co4 2.425857 1_545
Al13 Co3 2.461983 1_545
Al13 Co7 2.617080 1_555
Al13 Al24 2.671908 1_555
Al14 Co5 2.388064 1_455
Al14 Co2 2.421722 1_455
Al14 Al24 2.660488 1_555
Al14 Al4 2.661755 1_555
Al14 Co10 2.699153 1_555
Al14 Al34 2.815384 1_455
Al15 Co11 2.386110 1_555
Al15 Co10 2.432063 1_555
Al15 Co6 2.508079 1_555
Al15 Al26 2.573270 1_555
Al15 Al5 2.776128 1_555
Al15 Al4 2.776128 1_555
Al16 Co10 2.367389 1_555
Al16 Co9 2.391125 1_555
Al16 Cu1 2.563487 1_555
Al16 Al34 2.715895 1_455
Al16 Al33 2.715895 1_545
Al16 Al24 2.750271 1_555
Al16 Al4 2.892975 1_555
Al16 Al5 2.892975 1_555
Al17 Cu0 2.381137 1_445
Al17 Co9 2.421510 1_555
Al17 Co8 2.527098 1_555
Al17 Co5 2.550055 1_445
Al18 Co7 2.359143 1_555
Al18 Co8 2.394116 1_556
Al18 Al23 2.680557 1_555
Al18 Al24 2.721192 1_555
Al19 Co7 2.386110 1_555
Al19 Co6 2.432063 1_555
Al19 Co10 2.508079 1_555
Al19 Al24 2.573270 1_555
Al19 Al33 2.776128 1_555
Al19 Al34 2.776128 1_555
Al20 Co6 2.367389 1_555
Al20 Co5 2.391125 1_555
Al20 Cu0 2.563487 1_555
Al20 Al4 2.715895 1_655
Al20 Al5 2.715895 1_565
Al20 Al26 2.750271 1_555
Al20 Al33 2.892975 1_555
Al20 Al34 2.892975 1_555
Al21 Cu1 2.381137 1_665
Al21 Co5 2.421510 1_555
Al21 Co4 2.527098 1_555
Al21 Co9 2.550055 1_665
Al22 Co11 2.359143 1_555
Al22 Co4 2.394116 1_554
Al22 Al25 2.680557 1_555
Al22 Al26 2.721192 1_555
Al23 Cu1 2.375593 1_555
Al23 Co8 2.478214 1_556
Al23 Co4 2.549024 1_445
Al23 Co3 2.572290 1_545
Al23 Co2 2.572290 1_455
Al23 Al25 2.596776 1_446
Al23 Al29 2.676030 1_545
Al23 Al30 2.676030 1_455
Al23 Al32 2.691099 1_455
Al23 Al31 2.691099 1_545
Al24 Co3 2.429226 1_545
Al24 Co2 2.429226 1_455
Al24 Co7 2.556923 1_555
Al24 Co10 2.565594 1_555
Al24 Al35 2.660488 1_555
Al25 Cu0 2.375593 1_555
Al25 Co4 2.478214 1_554
Al25 Co8 2.549024 1_665
Al25 Co0 2.572290 1_655
Al25 Co1 2.572290 1_565
Al25 Al9 2.676030 1_565
Al25 Al8 2.676030 1_655
Al25 Al6 2.691099 1_655
Al25 Al7 2.691099 1_565
Al26 Co0 2.429226 1_655
Al26 Co1 2.429226 1_565
Al26 Co11 2.556923 1_555
Al26 Co6 2.565594 1_555
Al26 Al3 2.660488 1_555
Al27 Co3 2.258511 1_555
Al27 Co2 2.258511 1_555
Al27 Al34 2.915720 1_555
Al27 Al33 2.915720 1_555
Al27 Cu2 3.009751 1_556
Al28 Co0 2.258511 1_555
Al28 Co1 2.258511 1_555
Al28 Al4 2.915720 1_555
Al28 Al5 2.915720 1_555
Al28 Cu2 3.009751 1_555
Al29 Co3 2.388471 1_555
Al29 Co11 2.428702 1_556
Al29 Cu2 2.527829 1_556
Al30 Co2 2.388471 1_555
Al30 Co11 2.428702 1_556
Al30 Cu2 2.527829 1_556
Al31 Co7 2.449873 1_555
Al31 Co4 2.534594 1_455
Al31 Co3 2.540552 1_555
Al31 Cu1 2.605273 1_565
Al31 Al33 2.713788 1_555
Al31 Cu2 2.789422 1_556
Al32 Co7 2.449873 1_555
Al32 Co4 2.534594 1_545
Al32 Co2 2.540552 1_555
Al32 Cu1 2.605273 1_655
Al32 Al34 2.713788 1_555
Al32 Cu2 2.789422 1_556
Al33 Co3 2.494015 1_555
Al33 Co6 2.494262 1_555
Al33 Cu1 2.519335 1_565
Al33 Co9 2.699803 1_565
Al33 Al35 2.815384 1_565
Al34 Co2 2.494015 1_555
Al34 Co6 2.494262 1_555
Al34 Cu1 2.519335 1_655
Al34 Co9 2.699803 1_655
Al35 Co5 2.388064 1_545
Al35 Co3 2.421722 1_545
Al35 Al5 2.661755 1_555
Al35 Co10 2.699153 1_555
Co0 Cu0 2.530464 1_455
Co1 Cu0 2.530464 1_545
Co2 Cu1 2.530464 1_655
Co3 Cu1 2.530464 1_565
Co5 Cu0 2.552052 1_555
Co7 Cu2 2.558952 1_556
Co9 Cu1 2.552052 1_555
Co11 Cu2 2.558952 1_555
