# generated using pymatgen
data_Li3Pr2(BO3)3
_symmetry_space_group_name_H-M   'P 1'
_cell_length_a   14.27751600
_cell_length_b   5.88563600
_cell_length_c   9.46884474
_cell_angle_alpha   66.79822103
_cell_angle_beta   90.00000000
_cell_angle_gamma   90.00000000
_symmetry_Int_Tables_number   1
_chemical_formula_structural   Li3Pr2(BO3)3
_chemical_formula_sum   'Li12 Pr8 B12 O36'
_cell_volume   731.33563468
_cell_formula_units_Z   4
loop_
 _symmetry_equiv_pos_site_id
 _symmetry_equiv_pos_as_xyz
  1  'x, y, z'
loop_
 _atom_site_type_symbol
 _atom_site_label
 _atom_site_symmetry_multiplicity
 _atom_site_fract_x
 _atom_site_fract_y
 _atom_site_fract_z
 _atom_site_occupancy
  Li  Li0  1  0.88824600  0.94848900  0.20806900  1
  Li  Li1  1  0.38824600  0.05151100  0.29193100  1
  Li  Li2  1  0.11175400  0.05151100  0.79193100  1
  Li  Li3  1  0.61175400  0.94848900  0.70806900  1
  Li  Li4  1  0.83471000  0.42504000  0.00340300  1
  Li  Li5  1  0.33471000  0.57496000  0.49659700  1
  Li  Li6  1  0.16529000  0.57496000  0.99659700  1
  Li  Li7  1  0.66529000  0.42504000  0.50340300  1
  Li  Li8  1  0.78509200  0.57977200  0.21077300  1
  Li  Li9  1  0.28509200  0.42022800  0.28922700  1
  Li  Li10  1  0.21490800  0.42022800  0.78922700  1
  Li  Li11  1  0.71490800  0.57977200  0.71077300  1
  Pr  Pr0  1  0.50292600  0.65322700  0.15893200  1
  Pr  Pr1  1  0.00292600  0.34677300  0.34106800  1
  Pr  Pr2  1  0.49707400  0.34677300  0.84106800  1
  Pr  Pr3  1  0.99707400  0.65322700  0.65893200  1
  Pr  Pr4  1  0.66397400  0.05835500  0.30798900  1
  Pr  Pr5  1  0.16397400  0.94164500  0.19201100  1
  Pr  Pr6  1  0.33602600  0.94164500  0.69201100  1
  Pr  Pr7  1  0.83602600  0.05835500  0.80798900  1
  B  B0  1  0.98498800  0.73612900  0.01381400  1
  B  B1  1  0.48498800  0.26387100  0.48618600  1
  B  B2  1  0.01501200  0.26387100  0.98618600  1
  B  B3  1  0.51501200  0.73612900  0.51381400  1
  B  B4  1  0.67715900  0.11363900  0.98313800  1
  B  B5  1  0.17715900  0.88636100  0.51686200  1
  B  B6  1  0.32284100  0.88636100  0.01686200  1
  B  B7  1  0.82284100  0.11363900  0.48313800  1
  B  B8  1  0.66355000  0.61522800  0.97169100  1
  B  B9  1  0.16355000  0.38477200  0.52830900  1
  B  B10  1  0.33645000  0.38477200  0.02830900  1
  B  B11  1  0.83645000  0.61522800  0.47169100  1
  O  O0  1  0.89725700  0.69033600  0.08078500  1
  O  O1  1  0.39725700  0.30966400  0.41921500  1
  O  O2  1  0.10274300  0.30966400  0.91921500  1
  O  O3  1  0.60274300  0.69033600  0.58078500  1
  O  O4  1  0.50684900  0.84256600  0.35480600  1
  O  O5  1  0.00684900  0.15743400  0.14519400  1
  O  O6  1  0.49315100  0.15743400  0.64519400  1
  O  O7  1  0.99315100  0.84256600  0.85480600  1
  O  O8  1  0.56460100  0.32298700  0.39416300  1
  O  O9  1  0.06460100  0.67701300  0.10583700  1
  O  O10  1  0.43539900  0.67701300  0.60583700  1
  O  O11  1  0.93539900  0.32298700  0.89416300  1
  O  O12  1  0.66968200  0.21257100  0.82374000  1
  O  O13  1  0.16968200  0.78742900  0.67626000  1
  O  O14  1  0.33031800  0.78742900  0.17626000  1
  O  O15  1  0.83031800  0.21257100  0.32374000  1
  O  O16  1  0.76247600  0.09420300  0.05548200  1
  O  O17  1  0.26247600  0.90579700  0.44451800  1
  O  O18  1  0.23752400  0.90579700  0.94451800  1
  O  O19  1  0.73752400  0.09420300  0.55548200  1
  O  O20  1  0.59518500  0.04245100  0.06941100  1
  O  O21  1  0.09518500  0.95754900  0.43058900  1
  O  O22  1  0.40481500  0.95754900  0.93058900  1
  O  O23  1  0.90481500  0.04245100  0.56941100  1
  O  O24  1  0.74215900  0.68178200  0.87898200  1
  O  O25  1  0.24215900  0.31821800  0.62101800  1
  O  O26  1  0.25784100  0.31821800  0.12101800  1
  O  O27  1  0.75784100  0.68178200  0.37898200  1
  O  O28  1  0.57467900  0.66291400  0.90675100  1
  O  O29  1  0.07467900  0.33708600  0.59324900  1
  O  O30  1  0.42532100  0.33708600  0.09324900  1
  O  O31  1  0.92532100  0.66291400  0.40675100  1
  O  O32  1  0.66877100  0.50476600  0.13079100  1
  O  O33  1  0.16877100  0.49523400  0.36920900  1
  O  O34  1  0.33122900  0.49523400  0.86920900  1
  O  O35  1  0.83122900  0.50476600  0.63079100  1
loop_
_geom_bond_atom_site_label_1
_geom_bond_atom_site_label_2
_geom_bond_distance
_geom_bond_site_symmetry_2
Li0 O31 2.037890 1_555
Li0 O5 2.038959 1_665
Li0 O16 2.251923 1_565
Li0 O0 2.284862 1_555
Li0 O15 2.375046 1_565
Li0 O27 2.558903 1_555
Li1 O30 2.037890 1_555
Li1 O4 2.038959 1_545
Li1 O17 2.251923 1_545
Li1 O1 2.284862 1_555
Li1 O14 2.375046 1_545
Li1 O26 2.558903 1_555
Li2 O29 2.037890 1_555
Li2 O7 2.038959 1_445
Li2 O18 2.251923 1_545
Li2 O2 2.284862 1_555
Li2 O13 2.375046 1_545
Li2 O25 2.558903 1_555
Li3 O28 2.037890 1_555
Li3 O6 2.038959 1_565
Li3 O19 2.251923 1_565
Li3 O3 2.284862 1_555
Li3 O12 2.375046 1_565
Li3 O24 2.558903 1_555
Li4 O11 1.996727 1_554
Li4 O24 2.003679 1_554
Li4 O16 2.083685 1_555
Li4 O0 2.161923 1_555
Li5 O10 1.996727 1_555
Li5 O25 2.003679 1_555
Li5 O17 2.083685 1_555
Li5 O1 2.161923 1_555
Li6 O9 1.996727 1_556
Li6 O26 2.003679 1_556
Li6 O18 2.083685 1_555
Li6 O2 2.161923 1_555
Li7 O8 1.996727 1_555
Li7 O27 2.003679 1_555
Li7 O19 2.083685 1_555
Li7 O3 2.161923 1_555
Li8 O32 1.946806 1_555
Li8 O27 1.949917 1_555
Li8 O0 1.967719 1_555
Li8 O15 2.100102 1_555
Li9 O33 1.946806 1_555
Li9 O26 1.949917 1_555
Li9 O1 1.967719 1_555
Li9 O14 2.100102 1_555
Li10 O34 1.946806 1_555
Li10 O25 1.949917 1_555
Li10 O2 1.967719 1_555
Li10 O13 2.100102 1_555
Li11 O35 1.946806 1_555
Li11 O24 1.949917 1_555
Li11 O3 1.967719 1_555
Li11 O12 2.100102 1_555
B0 O0 1.381688 1_555
B0 O7 1.389150 1_554
B0 O9 1.390490 1_655
B1 O1 1.381688 1_555
B1 O6 1.389150 1_555
B1 O8 1.390490 1_555
B2 O2 1.381688 1_555
B2 O5 1.389150 1_556
B2 O11 1.390490 1_455
B3 O3 1.381688 1_555
B3 O4 1.389150 1_555
B3 O10 1.390490 1_555
B4 O16 1.379996 1_556
B4 O12 1.391402 1_555
B4 O20 1.393914 1_556
B5 O17 1.379996 1_555
B5 O13 1.391402 1_555
B5 O21 1.393914 1_555
B6 O18 1.379996 1_554
B6 O14 1.391402 1_555
B6 O22 1.393914 1_554
B7 O19 1.379996 1_555
B7 O15 1.391402 1_555
B7 O23 1.393914 1_555
B8 O24 1.383026 1_555
B8 O32 1.387813 1_556
B8 O28 1.389567 1_555
B9 O25 1.383026 1_555
B9 O33 1.387813 1_555
B9 O29 1.389567 1_555
B10 O26 1.383026 1_555
B10 O34 1.387813 1_554
B10 O30 1.389567 1_555
B11 O27 1.383026 1_555
B11 O35 1.387813 1_555
B11 O31 1.389567 1_555
O0 Pr7 2.778424 1_564
O0 Pr1 2.917594 1_655
O1 Pr6 2.778424 1_545
O1 Pr0 2.917594 1_555
O2 Pr5 2.778424 1_546
O2 Pr3 2.917594 1_455
O3 Pr4 2.778424 1_565
O3 Pr2 2.917594 1_555
O4 Pr0 2.512657 1_555
O4 Pr4 2.529540 1_565
O5 Pr1 2.512657 1_555
O5 Pr5 2.529540 1_545
O6 Pr2 2.512657 1_555
O6 Pr6 2.529540 1_545
O7 Pr3 2.512657 1_555
O7 Pr7 2.529540 1_565
O8 Pr0 2.470467 1_555
O8 Pr4 2.471048 1_555
O9 Pr1 2.470467 1_555
O9 Pr5 2.471048 1_555
O10 Pr2 2.470467 1_555
O10 Pr6 2.471048 1_555
O11 Pr3 2.470467 1_555
O11 Pr7 2.471048 1_555
O12 Pr7 2.567738 1_555
O12 Pr2 2.612710 1_555
O13 Pr6 2.567738 1_555
O13 Pr3 2.612710 1_455
O14 Pr5 2.567738 1_555
O14 Pr0 2.612710 1_555
O15 Pr4 2.567738 1_555
O15 Pr1 2.612710 1_655
O16 Pr7 2.651171 1_554
O16 Pr4 2.709526 1_555
O17 Pr6 2.651171 1_555
O17 Pr5 2.709526 1_555
O18 Pr5 2.651171 1_556
O18 Pr6 2.709526 1_555
O19 Pr4 2.651171 1_555
O19 Pr7 2.709526 1_555
O20 Pr0 2.484244 1_545
O20 Pr4 2.498662 1_555
O20 Pr2 2.606484 1_554
O21 Pr1 2.484244 1_565
O21 Pr5 2.498662 1_555
O21 Pr3 2.606484 1_455
O22 Pr2 2.484244 1_565
O22 Pr6 2.498662 1_555
O22 Pr0 2.606484 1_556
O23 Pr3 2.484244 1_545
O23 Pr7 2.498662 1_555
O23 Pr1 2.606484 1_655
O24 Pr7 2.446700 1_565
O25 Pr6 2.446700 1_545
O26 Pr5 2.446700 1_545
O27 Pr4 2.446700 1_565
O28 Pr2 2.447141 1_555
O28 Pr0 2.578250 1_556
O29 Pr3 2.447141 1_455
O29 Pr1 2.578250 1_555
O30 Pr0 2.447141 1_555
O30 Pr2 2.578250 1_554
O31 Pr1 2.447141 1_655
O31 Pr3 2.578250 1_555
O32 Pr4 2.499924 1_555
O32 Pr0 2.573849 1_555
O33 Pr5 2.499924 1_555
O33 Pr1 2.573849 1_555
O34 Pr6 2.499924 1_555
O34 Pr2 2.573849 1_555
O35 Pr7 2.499924 1_555
O35 Pr3 2.573849 1_555
