# generated using pymatgen
data_Ca(NiO2)2
_symmetry_space_group_name_H-M   'P 1'
_cell_length_a   5.01221753
_cell_length_b   5.72548773
_cell_length_c   10.92304738
_cell_angle_alpha   90.00000000
_cell_angle_beta   90.00000000
_cell_angle_gamma   90.00000000
_symmetry_Int_Tables_number   1
_chemical_formula_structural   Ca(NiO2)2
_chemical_formula_sum   'Ca4 Ni8 O16'
_cell_volume   313.46295030
_cell_formula_units_Z   4
loop_
 _symmetry_equiv_pos_site_id
 _symmetry_equiv_pos_as_xyz
  1  'x, y, z'
loop_
 _atom_site_type_symbol
 _atom_site_label
 _atom_site_symmetry_multiplicity
 _atom_site_fract_x
 _atom_site_fract_y
 _atom_site_fract_z
 _atom_site_occupancy
  Ca  Ca0  1  0.84488321  -0.00000000  0.50000000  1
  Ca  Ca1  1  0.15511679  0.50000000  0.00000000  1
  Ca  Ca2  1  0.54065088  -0.00000000  0.00000000  1
  Ca  Ca3  1  0.45934912  0.50000000  0.50000000  1
  Ni  Ni0  1  0.50500615  0.50000000  0.24281136  1
  Ni  Ni1  1  0.50500615  0.50000000  0.75718864  1
  Ni  Ni2  1  0.49499385  -0.00000000  0.25718864  1
  Ni  Ni3  1  0.49499385  -0.00000000  0.74281136  1
  Ni  Ni4  1  -0.00000000  0.25000000  0.25000000  1
  Ni  Ni5  1  -0.00000000  0.75000000  0.75000000  1
  Ni  Ni6  1  -0.00000000  0.75000000  0.25000000  1
  Ni  Ni7  1  -0.00000000  0.25000000  0.75000000  1
  O  O0  1  0.83377828  0.50000000  0.16142647  1
  O  O1  1  0.83377828  0.50000000  0.83857353  1
  O  O2  1  0.16622172  -0.00000000  0.33857353  1
  O  O3  1  0.16622172  -0.00000000  0.66142647  1
  O  O4  1  0.18164971  0.50000000  0.32993604  1
  O  O5  1  0.18164971  0.50000000  0.67006396  1
  O  O6  1  0.81835029  -0.00000000  0.17006396  1
  O  O7  1  0.81835029  -0.00000000  0.82993604  1
  O  O8  1  0.65195192  0.25200786  0.35437059  1
  O  O9  1  0.65195192  0.74799214  0.64562941  1
  O  O10  1  0.34804808  0.75200786  0.14562941  1
  O  O11  1  0.34804808  0.24799214  0.85437059  1
  O  O12  1  0.34804808  0.24799214  0.14562941  1
  O  O13  1  0.34804808  0.75200786  0.85437059  1
  O  O14  1  0.65195192  0.74799214  0.35437059  1
  O  O15  1  0.65195192  0.25200786  0.64562941  1
loop_
_geom_bond_atom_site_label_1
_geom_bond_atom_site_label_2
_geom_bond_distance
_geom_bond_site_symmetry_2
Ca0 O9 2.355284 1_545
Ca0 O15 2.355284 1_555
Ca0 O8 2.355284 1_555
Ca0 O14 2.355284 1_545
Ca0 O2 2.388139 1_655
Ca0 O3 2.388139 1_655
Ca1 O12 2.355284 1_555
Ca1 O13 2.355284 1_554
Ca1 O10 2.355284 1_555
Ca1 O11 2.355284 1_554
Ca1 O0 2.388139 1_455
Ca1 O1 2.388139 1_454
Ca2 O6 2.321228 1_555
Ca2 O7 2.321228 1_554
Ca2 O13 2.340590 1_544
Ca2 O10 2.340590 1_545
Ca2 O12 2.340590 1_555
Ca2 O11 2.340590 1_554
Ca3 O4 2.321228 1_555
Ca3 O5 2.321228 1_555
Ca3 O15 2.340590 1_555
Ca3 O9 2.340590 1_555
Ca3 O14 2.340590 1_555
Ca3 O8 2.340590 1_555
Ni0 O0 1.872370 1_555
Ni0 O4 1.879480 1_555
Ni0 O10 1.956427 1_555
Ni0 O12 1.956427 1_555
Ni0 O14 2.010826 1_555
Ni0 O8 2.010826 1_555
Ni1 O1 1.872370 1_555
Ni1 O5 1.879480 1_555
Ni1 O11 1.956427 1_555
Ni1 O13 1.956427 1_555
Ni1 O9 2.010826 1_555
Ni1 O15 2.010826 1_555
Ni2 O2 1.872370 1_555
Ni2 O6 1.879480 1_555
Ni2 O8 1.956427 1_555
Ni2 O14 1.956427 1_545
Ni2 O10 2.010826 1_545
Ni2 O12 2.010826 1_555
Ni3 O3 1.872370 1_555
Ni3 O7 1.879480 1_555
Ni3 O15 1.956427 1_555
Ni3 O9 1.956427 1_545
Ni3 O11 2.010826 1_555
Ni3 O13 2.010826 1_545
Ni4 O4 1.907920 1_555
Ni4 O6 1.907920 1_455
Ni4 O2 1.918069 1_555
Ni4 O0 1.918069 1_455
Ni4 O12 2.084008 1_555
Ni4 O8 2.084008 1_455
Ni5 O7 1.907920 1_465
Ni5 O5 1.907920 1_555
Ni5 O3 1.918069 1_565
Ni5 O1 1.918069 1_455
Ni5 O9 2.084008 1_455
Ni5 O13 2.084008 1_555
Ni6 O4 1.907920 1_555
Ni6 O6 1.907920 1_465
Ni6 O0 1.918069 1_455
Ni6 O2 1.918069 1_565
Ni6 O10 2.084008 1_555
Ni6 O14 2.084008 1_455
Ni7 O7 1.907920 1_455
Ni7 O5 1.907920 1_555
Ni7 O1 1.918069 1_455
Ni7 O3 1.918069 1_555
Ni7 O11 2.084008 1_555
Ni7 O15 2.084008 1_455
