# generated using pymatgen
data_Yb2AgPd
_symmetry_space_group_name_H-M   'P 1'
_cell_length_a   3.56475700
_cell_length_b   3.56475700
_cell_length_c   7.14096200
_cell_angle_alpha   90.00000000
_cell_angle_beta   90.00000000
_cell_angle_gamma   90.00000000
_symmetry_Int_Tables_number   1
_chemical_formula_structural   Yb2AgPd
_chemical_formula_sum   'Yb2 Ag1 Pd1'
_cell_volume   90.74372084
_cell_formula_units_Z   1
loop_
 _symmetry_equiv_pos_site_id
 _symmetry_equiv_pos_as_xyz
  1  'x, y, z'
loop_
 _atom_site_type_symbol
 _atom_site_label
 _atom_site_symmetry_multiplicity
 _atom_site_fract_x
 _atom_site_fract_y
 _atom_site_fract_z
 _atom_site_occupancy
  Yb  Yb0  1  0.50000000  0.50000000  0.26492300  1
  Yb  Yb1  1  0.50000000  0.50000000  0.73507700  1
  Ag  Ag0  1  0.00000000  0.00000000  0.00000000  1
  Pd  Pd0  1  0.00000000  0.00000000  0.50000000  1
loop_
_geom_bond_atom_site_label_1
_geom_bond_atom_site_label_2
_geom_bond_distance
_geom_bond_site_symmetry_2
Ag0 Yb1 3.151614 1_544
Ag0 Yb0 3.151614 1_455
Ag0 Yb1 3.151614 1_444
Ag0 Yb0 3.151614 1_545
Ag0 Yb0 3.151614 1_555
Ag0 Yb1 3.151614 1_454
Ag0 Yb0 3.151614 1_445
Ag0 Yb1 3.151614 1_554
Pd0 Yb0 3.028481 1_545
Pd0 Yb1 3.028481 1_455
Pd0 Yb0 3.028481 1_555
Pd0 Yb1 3.028481 1_445
Pd0 Yb0 3.028481 1_445
Pd0 Yb1 3.028481 1_545
Pd0 Yb1 3.028481 1_555
Pd0 Yb0 3.028481 1_455
