# generated using pymatgen
data_Rb2VAgSe4
_symmetry_space_group_name_H-M   'P 1'
_cell_length_a   14.16300263
_cell_length_b   12.63641405
_cell_length_c   7.69558378
_cell_angle_alpha   84.59784614
_cell_angle_beta   62.65417209
_cell_angle_gamma   32.74798177
_symmetry_Int_Tables_number   1
_chemical_formula_structural   Rb2VAgSe4
_chemical_formula_sum   'Rb4 V2 Ag2 Se8'
_cell_volume   525.34032611
_cell_formula_units_Z   2
loop_
 _symmetry_equiv_pos_site_id
 _symmetry_equiv_pos_as_xyz
  1  'x, y, z'
loop_
 _atom_site_type_symbol
 _atom_site_label
 _atom_site_symmetry_multiplicity
 _atom_site_fract_x
 _atom_site_fract_y
 _atom_site_fract_z
 _atom_site_occupancy
  Rb  Rb0  1  0.68091400  0.68091400  0.31908600  1
  Rb  Rb1  1  0.31908600  0.31908600  0.68091400  1
  Rb  Rb2  1  0.93091400  0.93091400  0.56908600  1
  Rb  Rb3  1  0.56908600  0.56908600  0.93091400  1
  V  V0  1  0.75000000  0.75000000  0.75000000  1
  V  V1  1  0.50000000  0.50000000  0.50000000  1
  Ag  Ag0  1  0.25000000  0.25000000  0.25000000  1
  Ag  Ag1  1  0.00000000  0.00000000  0.00000000  1
  Se  Se0  1  0.55336300  0.33438200  0.25036800  1
  Se  Se1  1  0.86188700  0.25036800  0.33438200  1
  Se  Se2  1  0.99963200  0.38811300  0.69663700  1
  Se  Se3  1  0.91561800  0.69663700  0.38811300  1
  Se  Se4  1  0.25036800  0.86188700  0.55336300  1
  Se  Se5  1  0.33438200  0.55336300  0.86188700  1
  Se  Se6  1  0.38811300  0.99963200  0.91561800  1
  Se  Se7  1  0.69663700  0.91561800  0.99963200  1
loop_
_geom_bond_atom_site_label_1
_geom_bond_atom_site_label_2
_geom_bond_distance
_geom_bond_site_symmetry_2
Rb0 Se6 3.519804 1_555
Rb0 Se2 3.519804 1_554
Rb0 Se1 3.589279 1_555
Rb0 Se4 3.589279 1_555
Rb0 Se3 3.758251 1_555
Rb0 Se7 3.758251 1_554
Rb0 Se6 3.936066 1_644
Rb0 Se2 3.936066 1_465
Rb1 Se3 3.519804 1_545
Rb1 Se7 3.519804 1_455
Rb1 Se5 3.589279 1_555
Rb1 Se0 3.589279 1_555
Rb1 Se6 3.758251 1_545
Rb1 Se2 3.758251 1_455
Rb1 Se3 3.936066 1_456
Rb1 Se7 3.936066 1_544
Rb2 Se5 3.519804 1_565
Rb2 Se0 3.519804 1_655
Rb2 Se3 3.589279 1_555
Rb2 Se7 3.589279 1_555
Rb2 Se1 3.758251 1_565
Rb2 Se4 3.758251 1_655
Rb2 Se5 3.936066 1_654
Rb2 Se0 3.936066 1_566
Rb3 Se1 3.519804 1_555
Rb3 Se4 3.519804 1_556
Rb3 Se6 3.589279 1_555
Rb3 Se2 3.589279 1_555
Rb3 Se5 3.758251 1_555
Rb3 Se0 3.758251 1_556
Rb3 Se1 3.936066 1_466
Rb3 Se4 3.936066 1_645
Ag0 Se7 2.637400 1_544
Ag0 Se3 2.637400 1_455
Ag0 Se2 2.637400 1_455
Ag0 Se6 2.637400 1_544
Ag1 Se1 2.637400 1_455
Ag1 Se4 2.637400 1_544
Ag1 Se5 2.637400 1_544
Ag1 Se0 2.637400 1_455
Se0 V1 2.324667 1_555
Se1 V1 2.324667 1_555
Se2 V0 2.324667 1_555
Se3 V0 2.324667 1_555
Se4 V1 2.324667 1_555
Se5 V1 2.324667 1_555
Se6 V0 2.324667 1_555
Se7 V0 2.324667 1_555
