# generated using pymatgen
data_LiVPO5
_symmetry_space_group_name_H-M   'P 1'
_cell_length_a   5.97328660
_cell_length_b   10.27884505
_cell_length_c   8.73566061
_cell_angle_alpha   115.49861483
_cell_angle_beta   69.82603974
_cell_angle_gamma   106.86318318
_symmetry_Int_Tables_number   1
_chemical_formula_structural   LiVPO5
_chemical_formula_sum   'Li4 V4 P4 O20'
_cell_volume   448.01864318
_cell_formula_units_Z   4
loop_
 _symmetry_equiv_pos_site_id
 _symmetry_equiv_pos_as_xyz
  1  'x, y, z'
loop_
 _atom_site_type_symbol
 _atom_site_label
 _atom_site_symmetry_multiplicity
 _atom_site_fract_x
 _atom_site_fract_y
 _atom_site_fract_z
 _atom_site_occupancy
  Li  Li0  1  0.87802900  0.39235200  0.66893800  1
  Li  Li1  1  0.84715000  0.89018200  0.16506000  1
  Li  Li2  1  0.12459400  0.60873800  0.33215000  1
  Li  Li3  1  0.15140000  0.11020900  0.83561100  1
  V  V0  1  0.21223100  0.75046500  0.75022300  1
  V  V1  1  0.78817700  0.25003700  0.24900300  1
  V  V2  1  0.24196900  0.24632300  0.25257200  1
  V  V3  1  0.75496800  0.75144900  0.74848000  1
  P  P0  1  0.35332800  0.72276700  0.00183200  1
  P  P1  1  0.36955900  0.22188800  0.50272900  1
  P  P2  1  0.64478100  0.27706400  0.99807600  1
  P  P3  1  0.63219900  0.77797900  0.49718700  1
  O  O0  1  0.96563200  0.61284000  0.72306300  1
  O  O1  1  0.92949900  0.11119700  0.21948200  1
  O  O2  1  0.03346200  0.38718700  0.27597200  1
  O  O3  1  0.07245000  0.88822300  0.77811700  1
  O  O4  1  0.40816400  0.63051100  0.79284400  1
  O  O5  1  0.43014100  0.12716100  0.29532400  1
  O  O6  1  0.58898000  0.36790500  0.20769400  1
  O  O7  1  0.57002400  0.87158300  0.70533900  1
  O  O8  1  0.23686600  0.64141700  0.12145500  1
  O  O9  1  0.27956300  0.14361200  0.62562900  1
  O  O10  1  0.76271900  0.35991900  0.88003300  1
  O  O11  1  0.72020900  0.85796400  0.37607100  1
  O  O12  1  0.18571100  0.82006400  0.00378500  1
  O  O13  1  0.18732200  0.31161900  0.51178600  1
  O  O14  1  0.61476200  0.80960000  0.01243600  1
  O  O15  1  0.63230600  0.31876700  0.50381000  1
  O  O16  1  0.38450400  0.19052500  0.98669800  1
  O  O17  1  0.36963400  0.68084000  0.49558900  1
  O  O18  1  0.81331800  0.17996800  0.99568100  1
  O  O19  1  0.81634900  0.68964600  0.48733100  1
loop_
_geom_bond_atom_site_label_1
_geom_bond_atom_site_label_2
_geom_bond_distance
_geom_bond_site_symmetry_2
Li0 O10 1.872456 1_555
Li0 O13 2.036117 1_655
Li0 O0 2.047870 1_555
Li0 O15 2.164291 1_555
Li1 O11 1.870370 1_555
Li1 O14 2.012267 1_555
Li1 O1 2.052326 1_565
Li1 O12 2.144833 1_655
Li2 O8 1.870953 1_555
Li2 O19 2.028693 1_455
Li2 O2 2.055731 1_555
Li2 O17 2.152010 1_555
Li3 O9 1.868125 1_555
Li3 O16 2.006200 1_555
Li3 O3 2.057537 1_545
Li3 O18 2.139342 1_455
O0 V0 1.723470 1_655
O0 V3 2.058573 1_555
O1 V1 1.745761 1_555
O1 V2 2.004704 1_655
O2 V1 1.715620 1_455
O2 V2 2.074916 1_555
O3 V0 1.734960 1_555
O3 V3 2.029372 1_455
O4 P0 1.617627 1_556
O4 V3 2.086589 1_555
O4 V0 2.135805 1_555
O5 P1 1.610904 1_555
O5 V2 2.094099 1_555
O5 V1 2.146805 1_555
O6 P2 1.619738 1_554
O6 V2 2.090555 1_555
O6 V1 2.126682 1_555
O7 P3 1.614081 1_555
O7 V3 2.089629 1_555
O7 V0 2.137726 1_555
O8 P0 1.479380 1_555
O9 P1 1.477733 1_555
O10 P2 1.480512 1_555
O11 P3 1.478600 1_555
O12 P0 1.599192 1_555
O12 V0 1.975513 1_554
O13 P1 1.581825 1_555
O13 V2 1.998329 1_555
O14 P0 1.569652 1_555
O14 V3 2.036500 1_554
O15 P1 1.596970 1_555
O15 V1 1.979615 1_555
O16 P2 1.564085 1_555
O16 V2 2.054435 1_556
O17 P3 1.597344 1_555
O17 V0 1.980242 1_555
O18 P2 1.600130 1_555
O18 V1 1.974753 1_556
O19 P3 1.577523 1_555
O19 V3 2.013159 1_555
