# generated using pymatgen
data_ZrScB4
_symmetry_space_group_name_H-M   'P 1'
_cell_length_a   4.47278980
_cell_length_b   4.47278980
_cell_length_c   4.47278980
_cell_angle_alpha   90.00000000
_cell_angle_beta   60.00000000
_cell_angle_gamma   120.00000000
_symmetry_Int_Tables_number   1
_chemical_formula_structural   ZrScB4
_chemical_formula_sum   'Zr1 Sc1 B4'
_cell_volume   63.27329765
_cell_formula_units_Z   1
loop_
 _symmetry_equiv_pos_site_id
 _symmetry_equiv_pos_as_xyz
  1  'x, y, z'
loop_
 _atom_site_type_symbol
 _atom_site_label
 _atom_site_symmetry_multiplicity
 _atom_site_fract_x
 _atom_site_fract_y
 _atom_site_fract_z
 _atom_site_occupancy
  Zr  Zr0  1  0.00000000  0.00000000  0.00000000  1
  Sc  Sc0  1  0.50000000  0.75000000  0.75000000  1
  B  B0  1  0.79685700  0.39842900  0.80471400  1
  B  B1  1  0.20314300  0.39842900  0.39842900  1
  B  B2  1  0.20314300  0.80471400  0.39842900  1
  B  B3  1  0.79685700  0.39842900  0.39842900  1
loop_
_geom_bond_atom_site_label_1
_geom_bond_atom_site_label_2
_geom_bond_distance
_geom_bond_site_symmetry_2
Sc0 Zr0 2.739013 1_665
Sc0 Zr0 2.739013 1_556
Sc0 Zr0 2.739013 1_566
Sc0 Zr0 2.739013 1_666
B0 B3 1.817227 1_555
B0 B2 1.817227 1_655
B0 B1 1.817230 1_655
B0 Sc0 2.590083 1_555
B0 Sc0 2.590087 1_545
B0 Sc0 2.590087 1_655
B0 Zr0 2.679038 1_556
B0 Zr0 2.679038 1_666
B0 Zr0 2.679042 1_656
B1 B2 1.817227 1_555
B1 B3 1.817232 1_455
B1 Sc0 2.590083 1_555
B1 Sc0 2.590087 1_554
B1 Sc0 2.590087 1_445
B1 Zr0 2.679038 1_665
B1 Zr0 2.679038 1_556
B1 Zr0 2.679042 1_555
B2 B3 1.817230 1_455
B2 Sc0 2.590083 1_555
B2 Sc0 2.590087 1_554
B2 Sc0 2.590087 1_455
B2 Zr0 2.679038 1_665
B2 Zr0 2.679038 1_566
B2 Zr0 2.679042 1_565
B3 Sc0 2.590083 1_555
B3 Sc0 2.590087 1_545
B3 Sc0 2.590087 1_654
B3 Zr0 2.679038 1_556
B3 Zr0 2.679038 1_665
B3 Zr0 2.679042 1_655
