# generated using pymatgen
data_Na3MnCoNiO6
_symmetry_space_group_name_H-M   'P 1'
_cell_length_a   7.97762755
_cell_length_b   7.97762755
_cell_length_c   5.63711369
_cell_angle_alpha   72.48857871
_cell_angle_beta   72.48857871
_cell_angle_gamma   21.88936910
_symmetry_Int_Tables_number   1
_chemical_formula_structural   Na3MnCoNiO6
_chemical_formula_sum   'Na3 Mn1 Co1 Ni1 O6'
_cell_volume   127.31533261
_cell_formula_units_Z   1
loop_
 _symmetry_equiv_pos_site_id
 _symmetry_equiv_pos_as_xyz
  1  'x, y, z'
loop_
 _atom_site_type_symbol
 _atom_site_label
 _atom_site_symmetry_multiplicity
 _atom_site_fract_x
 _atom_site_fract_y
 _atom_site_fract_z
 _atom_site_occupancy
  Na  Na0  1  0.33348900  0.33348900  0.00178500  1
  Na  Na1  1  0.99987700  0.99987700  0.99972500  1
  Na  Na2  1  0.66797500  0.66797500  0.99566200  1
  Mn  Mn0  1  0.50017700  0.50017700  0.50073300  1
  Co  Co0  1  0.82626400  0.82626400  0.49349200  1
  Ni  Ni0  1  0.16703600  0.16703600  0.50580000  1
  O  O0  1  0.92768300  0.92768300  0.69008100  1
  O  O1  1  0.58132100  0.58132100  0.69828000  1
  O  O2  1  0.25880500  0.25880500  0.71081800  1
  O  O3  1  0.07075400  0.07075400  0.30547000  1
  O  O4  1  0.75122900  0.75122900  0.29142500  1
  O  O5  1  0.41538900  0.41538900  0.30672800  1
loop_
_geom_bond_atom_site_label_1
_geom_bond_atom_site_label_2
_geom_bond_distance
_geom_bond_site_symmetry_2
Na0 O2 2.288062 1_554
Na0 O4 2.308867 1_455
Na0 O4 2.308867 1_545
Na0 O5 2.439826 1_555
Na0 O0 2.443288 1_454
Na0 O0 2.443288 1_544
Na1 O3 2.318662 1_666
Na1 O1 2.341063 1_655
Na1 O1 2.341063 1_565
Na1 O0 2.352809 1_555
Na1 O5 2.374216 1_566
Na1 O5 2.374216 1_656
Na2 O2 2.344473 1_655
Na2 O2 2.344473 1_565
Na2 O4 2.411094 1_556
Na2 O3 2.456279 1_566
Na2 O3 2.456279 1_656
Na2 O1 2.459201 1_555
Mn0 O1 1.929632 1_555
Mn0 O5 1.962268 1_555
Mn0 O0 1.995019 1_455
Mn0 O0 1.995019 1_545
Mn0 O3 1.995530 1_565
Mn0 O3 1.995530 1_655
Co0 O4 1.870771 1_555
Co0 O2 2.029331 1_565
Co0 O2 2.029331 1_655
Co0 O5 2.109699 1_565
Co0 O5 2.109699 1_655
Co0 O0 2.198028 1_555
Ni0 O1 2.093170 1_545
Ni0 O1 2.093170 1_455
Ni0 O2 2.102523 1_555
Ni0 O4 2.125336 1_545
Ni0 O4 2.125336 1_455
Ni0 O3 2.143392 1_555
