# generated using pymatgen
data_Ca2Ta2MnO8
_symmetry_space_group_name_H-M   'P 1'
_cell_length_a   5.48951076
_cell_length_b   10.15898626
_cell_length_c   12.84338358
_cell_angle_alpha   108.40128802
_cell_angle_beta   89.99492983
_cell_angle_gamma   91.71041622
_symmetry_Int_Tables_number   1
_chemical_formula_structural   Ca2Ta2MnO8
_chemical_formula_sum   'Ca8 Ta8 Mn4 O32'
_cell_volume   679.28983045
_cell_formula_units_Z   4
loop_
 _symmetry_equiv_pos_site_id
 _symmetry_equiv_pos_as_xyz
  1  'x, y, z'
loop_
 _atom_site_type_symbol
 _atom_site_label
 _atom_site_symmetry_multiplicity
 _atom_site_fract_x
 _atom_site_fract_y
 _atom_site_fract_z
 _atom_site_occupancy
  Ca  Ca0  1  0.75508500  0.57998400  0.55986200  1
  Ca  Ca1  1  0.75516700  0.58006800  0.05988900  1
  Ca  Ca2  1  0.74379900  0.42009000  0.26972500  1
  Ca  Ca3  1  0.74374500  0.41996100  0.76965100  1
  Ca  Ca4  1  0.24374500  0.42065700  0.44105900  1
  Ca  Ca5  1  0.24378000  0.42071800  0.94102300  1
  Ca  Ca6  1  0.25502100  0.58048300  0.73112800  1
  Ca  Ca7  1  0.25508000  0.58055600  0.23118300  1
  Ta  Ta0  1  0.75048700  0.22817100  0.48411500  1
  Ta  Ta1  1  0.75046800  0.22811700  0.98406400  1
  Ta  Ta2  1  0.74842600  0.77233600  0.87032300  1
  Ta  Ta3  1  0.74845400  0.77239200  0.37027300  1
  Ta  Ta4  1  0.24836400  0.77249400  0.51670200  1
  Ta  Ta5  1  0.24841400  0.77260300  0.01678800  1
  Ta  Ta6  1  0.25047000  0.22841100  0.13052400  1
  Ta  Ta7  1  0.25034900  0.22827000  0.63052400  1
  Mn  Mn0  1  0.74967900  0.00046000  0.17907700  1
  Mn  Mn1  1  0.24946700  0.00049900  0.82147700  1
  Mn  Mn2  1  0.74919200  0.99958300  0.67913000  1
  Mn  Mn3  1  0.25004000  0.00015900  0.32110200  1
  O  O0  1  0.08134600  0.14469600  0.47619500  1
  O  O1  1  0.08124300  0.14469600  0.97627300  1
  O  O2  1  0.41752900  0.85587500  0.90406300  1
  O  O3  1  0.41756500  0.85583500  0.40398500  1
  O  O4  1  0.91747600  0.85597300  0.52461400  1
  O  O5  1  0.91758700  0.85606600  0.02465000  1
  O  O6  1  0.58143600  0.14493300  0.09690600  1
  O  O7  1  0.58128800  0.14482300  0.59680100  1
  O  O8  1  0.59070700  0.11771400  0.35569400  1
  O  O9  1  0.59043600  0.11772900  0.85586500  1
  O  O10  1  0.90827300  0.88275700  0.79713200  1
  O  O11  1  0.90855300  0.88276000  0.29711800  1
  O  O12  1  0.40807600  0.88295400  0.64509700  1
  O  O13  1  0.40836700  0.88307300  0.14512100  1
  O  O14  1  0.09057400  0.11789200  0.20370700  1
  O  O15  1  0.09018200  0.11784400  0.70363200  1
  O  O16  1  0.49032300  0.36512400  0.55868200  1
  O  O17  1  0.49022400  0.36512500  0.05870100  1
  O  O18  1  0.00863200  0.63551800  0.37660700  1
  O  O19  1  0.00866300  0.63553700  0.87663300  1
  O  O20  1  0.99030800  0.36523600  0.62426400  1
  O  O21  1  0.99035600  0.36527500  0.12431600  1
  O  O22  1  0.50857900  0.63559600  0.44220400  1
  O  O23  1  0.50864400  0.63565100  0.94223500  1
  O  O24  1  0.34284700  0.37232300  0.26507900  1
  O  O25  1  0.34275300  0.37225800  0.76503500  1
  O  O26  1  0.15580400  0.62861800  0.57930000  1
  O  O27  1  0.15589000  0.62864700  0.07933900  1
  O  O28  1  0.65602000  0.62836300  0.73586000  1
  O  O29  1  0.65604900  0.62835300  0.23583100  1
  O  O30  1  0.84303400  0.37214100  0.42159200  1
  O  O31  1  0.84303800  0.37217200  0.92161100  1
loop_
_geom_bond_atom_site_label_1
_geom_bond_atom_site_label_2
_geom_bond_distance
_geom_bond_site_symmetry_2
Ca0 O28 2.227352 1_555
Ca0 O26 2.236668 1_655
Ca0 O22 2.240273 1_555
Ca0 O30 2.353393 1_555
Ca0 O16 2.582018 1_555
Ca0 O20 2.901482 1_555
Ca0 O18 2.930169 1_655
Ca1 O29 2.226833 1_555
Ca1 O27 2.236608 1_655
Ca1 O23 2.240149 1_554
Ca1 O31 2.353700 1_554
Ca1 O17 2.583223 1_555
Ca1 O21 2.901953 1_555
Ca1 O19 2.929764 1_654
Ca2 O30 2.225826 1_555
Ca2 O24 2.236416 1_555
Ca2 O21 2.240020 1_555
Ca2 O29 2.353773 1_555
Ca2 O18 2.588687 1_655
Ca2 O22 2.911010 1_555
Ca2 O17 2.931518 1_555
Ca3 O31 2.226218 1_555
Ca3 O25 2.236531 1_555
Ca3 O20 2.239824 1_555
Ca3 O28 2.354482 1_555
Ca3 O19 2.590270 1_655
Ca3 O23 2.912393 1_555
Ca3 O16 2.930664 1_555
Ca4 O24 2.227226 1_555
Ca4 O30 2.236454 1_455
Ca4 O16 2.239788 1_555
Ca4 O26 2.354005 1_555
Ca4 O22 2.583012 1_555
Ca4 O18 2.902517 1_555
Ca4 O20 2.928836 1_455
Ca5 O25 2.227028 1_555
Ca5 O31 2.236638 1_455
Ca5 O17 2.240165 1_556
Ca5 O27 2.354178 1_556
Ca5 O23 2.582825 1_555
Ca5 O19 2.901746 1_555
Ca5 O21 2.929875 1_456
Ca6 O26 2.226278 1_555
Ca6 O28 2.236829 1_555
Ca6 O19 2.240293 1_555
Ca6 O25 2.353456 1_555
Ca6 O20 2.587057 1_455
Ca6 O16 2.910214 1_555
Ca6 O23 2.932326 1_555
Ca7 O27 2.226210 1_555
Ca7 O29 2.236561 1_555
Ca7 O18 2.239805 1_555
Ca7 O24 2.353513 1_555
Ca7 O21 2.587328 1_455
Ca7 O17 2.910435 1_555
Ca7 O22 2.931201 1_555
Mn0 O14 2.157269 1_655
Mn0 O13 2.158994 1_545
Mn0 O5 2.275673 1_545
Mn0 O6 2.275939 1_555
Mn0 O8 2.383641 1_555
Mn0 O11 2.386568 1_545
Mn1 O9 2.156815 1_555
Mn1 O10 2.160287 1_445
Mn1 O1 2.278817 1_555
Mn1 O2 2.280310 1_545
Mn1 O12 2.381091 1_545
Mn1 O15 2.382863 1_555
Mn2 O12 2.154553 1_555
Mn2 O15 2.161822 1_665
Mn2 O4 2.274289 1_555
Mn2 O7 2.282769 1_565
Mn2 O10 2.380286 1_555
Mn2 O9 2.386312 1_565
Mn3 O8 2.157012 1_555
Mn3 O11 2.160120 1_445
Mn3 O3 2.279168 1_545
Mn3 O0 2.283776 1_555
Mn3 O13 2.375450 1_545
Mn3 O14 2.381471 1_555
O0 Ta0 2.016363 1_455
O0 Ta7 2.097891 1_555
O1 Ta1 2.015842 1_455
O1 Ta6 2.097736 1_556
O2 Ta2 2.016746 1_555
O2 Ta5 2.097535 1_556
O3 Ta3 2.016306 1_555
O3 Ta4 2.098080 1_555
O4 Ta4 2.016534 1_655
O4 Ta3 2.098068 1_555
O5 Ta5 2.016211 1_655
O5 Ta2 2.098392 1_554
O6 Ta6 2.016729 1_555
O6 Ta1 2.098024 1_554
O7 Ta7 2.016584 1_555
O7 Ta0 2.097794 1_555
O8 Ta0 1.876676 1_555
O9 Ta1 1.875117 1_555
O10 Ta2 1.875847 1_555
O11 Ta3 1.875751 1_555
O12 Ta4 1.876287 1_555
O13 Ta5 1.876364 1_555
O14 Ta6 1.876636 1_555
O15 Ta7 1.875940 1_555
O16 Ta0 2.041992 1_555
O16 Ta7 2.284738 1_555
O17 Ta1 2.042846 1_554
O17 Ta6 2.282896 1_555
O18 Ta3 2.042058 1_455
O18 Ta4 2.283874 1_555
O19 Ta2 2.041668 1_455
O19 Ta5 2.284705 1_556
O20 Ta7 2.041942 1_655
O20 Ta0 2.284870 1_555
O21 Ta6 2.041321 1_655
O21 Ta1 2.286187 1_554
O22 Ta4 2.041659 1_555
O22 Ta3 2.284692 1_555
O23 Ta5 2.042201 1_556
O23 Ta2 2.283451 1_555
O24 Ta6 1.934389 1_555
O25 Ta7 1.934414 1_555
O26 Ta4 1.933496 1_555
O27 Ta5 1.933768 1_555
O28 Ta2 1.933942 1_555
O29 Ta3 1.934078 1_555
O30 Ta0 1.933688 1_555
O31 Ta1 1.933891 1_555
