# generated using pymatgen
data_AlInN2
_symmetry_space_group_name_H-M   'P 1'
_cell_length_a   5.76307900
_cell_length_b   6.70041300
_cell_length_c   5.41111800
_cell_angle_alpha   90.00000000
_cell_angle_beta   90.00000000
_cell_angle_gamma   90.00000000
_symmetry_Int_Tables_number   1
_chemical_formula_structural   AlInN2
_chemical_formula_sum   'Al4 In4 N8'
_cell_volume   208.95037271
_cell_formula_units_Z   4
loop_
 _symmetry_equiv_pos_site_id
 _symmetry_equiv_pos_as_xyz
  1  'x, y, z'
loop_
 _atom_site_type_symbol
 _atom_site_label
 _atom_site_symmetry_multiplicity
 _atom_site_fract_x
 _atom_site_fract_y
 _atom_site_fract_z
 _atom_site_occupancy
  Al  Al0  1  0.57610900  0.37440900  0.00451900  1
  Al  Al1  1  0.42389100  0.62559100  0.50451900  1
  Al  Al2  1  0.92389100  0.87440900  0.50451900  1
  Al  Al3  1  0.07610900  0.12559100  0.00451900  1
  In  In0  1  0.59094600  0.87642800  0.00196600  1
  In  In1  1  0.40905400  0.12357200  0.50196600  1
  In  In2  1  0.90905400  0.37642800  0.50196600  1
  In  In3  1  0.09094600  0.62357200  0.00196600  1
  N  N0  1  0.55922100  0.39727600  0.35544800  1
  N  N1  1  0.44077900  0.60272400  0.85544800  1
  N  N2  1  0.94077900  0.89727600  0.85544800  1
  N  N3  1  0.05922100  0.10272400  0.35544800  1
  N  N4  1  0.60455800  0.85248600  0.40806600  1
  N  N5  1  0.39544200  0.14751400  0.90806600  1
  N  N6  1  0.89544200  0.35248600  0.90806600  1
  N  N7  1  0.10455800  0.64751400  0.40806600  1
loop_
_geom_bond_atom_site_label_1
_geom_bond_atom_site_label_2
_geom_bond_distance
_geom_bond_site_symmetry_2
Al0 N1 1.897167 1_554
Al0 N0 1.907574 1_555
Al0 N5 1.915144 1_554
Al0 N6 1.918550 1_554
Al1 N0 1.897167 1_555
Al1 N1 1.907574 1_555
Al1 N4 1.915144 1_555
Al1 N7 1.918550 1_555
Al2 N3 1.897167 1_665
Al2 N2 1.907574 1_555
Al2 N7 1.915144 1_655
Al2 N4 1.918550 1_555
Al3 N2 1.897167 1_444
Al3 N3 1.907574 1_555
Al3 N6 1.915144 1_454
Al3 N5 1.918550 1_554
In0 N2 2.170900 1_554
In0 N1 2.177345 1_554
In0 N5 2.197021 1_564
In0 N4 2.204699 1_555
In1 N3 2.170900 1_555
In1 N0 2.177345 1_555
In1 N4 2.197021 1_545
In1 N5 2.204699 1_555
In2 N0 2.170900 1_555
In2 N3 2.177345 1_655
In2 N7 2.197021 1_655
In2 N6 2.204699 1_555
In3 N1 2.170900 1_554
In3 N2 2.177345 1_454
In3 N6 2.197021 1_454
In3 N7 2.204699 1_555
