# generated using pymatgen
data_TaAlZn
_symmetry_space_group_name_H-M   'P 1'
_cell_length_a   4.98846296
_cell_length_b   4.98846296
_cell_length_c   8.26947782
_cell_angle_alpha   90.00000000
_cell_angle_beta   90.00000000
_cell_angle_gamma   119.31478697
_symmetry_Int_Tables_number   1
_chemical_formula_structural   TaAlZn
_chemical_formula_sum   'Ta4 Al4 Zn4'
_cell_volume   179.43190088
_cell_formula_units_Z   4
loop_
 _symmetry_equiv_pos_site_id
 _symmetry_equiv_pos_as_xyz
  1  'x, y, z'
loop_
 _atom_site_type_symbol
 _atom_site_label
 _atom_site_symmetry_multiplicity
 _atom_site_fract_x
 _atom_site_fract_y
 _atom_site_fract_z
 _atom_site_occupancy
  Ta  Ta0  1  0.66525930  0.33474070  0.31418276  1
  Ta  Ta1  1  0.33652442  0.66347558  0.19114586  1
  Ta  Ta2  1  0.33652442  0.66347558  0.80885414  1
  Ta  Ta3  1  0.66525930  0.33474070  0.68581724  1
  Al  Al0  1  0.00271973  0.99728027  0.24233071  1
  Al  Al1  1  0.00271973  0.99728027  0.75766929  1
  Al  Al2  1  0.65409227  0.83268811  0.50000000  1
  Al  Al3  1  0.16731189  0.34590773  0.50000000  1
  Zn  Zn0  1  0.16655760  0.83344240  0.50000000  1
  Zn  Zn1  1  0.34721190  0.17219983  -0.00000000  1
  Zn  Zn2  1  0.82780017  0.65278810  0.00000000  1
  Zn  Zn3  1  0.82806227  0.17193773  -0.00000000  1
loop_
_geom_bond_atom_site_label_1
_geom_bond_atom_site_label_2
_geom_bond_distance
_geom_bond_site_symmetry_2
Ta0 Zn2 2.943673 1_555
Ta0 Zn1 2.943673 1_555
Ta0 Zn0 2.951576 1_655
Ta0 Zn0 2.951576 1_545
Ta0 Zn3 2.952161 1_555
Ta0 Ta1 3.007814 1_555
Ta0 Ta3 3.073223 1_555
Ta0 Ta1 3.091969 1_655
Ta0 Ta1 3.091969 1_545
Ta1 Zn1 2.938589 1_555
Ta1 Zn2 2.938589 1_555
Ta1 Zn0 2.943630 1_555
Ta1 Zn2 2.968009 1_455
Ta1 Zn1 2.968009 1_565
Ta1 Zn3 2.975625 1_565
Ta1 Zn3 2.975625 1_455
Ta1 Ta2 3.161353 1_554
Ta2 Zn1 2.938589 1_556
Ta2 Zn2 2.938589 1_556
Ta2 Zn0 2.943630 1_555
Ta2 Zn2 2.968009 1_456
Ta2 Zn1 2.968009 1_566
Ta2 Zn3 2.975625 1_456
Ta2 Zn3 2.975625 1_566
Ta2 Ta3 3.007814 1_555
Ta2 Ta3 3.091969 1_455
Ta2 Ta3 3.091969 1_565
Ta3 Zn2 2.943673 1_556
Ta3 Zn1 2.943673 1_556
Ta3 Zn0 2.951576 1_655
Ta3 Zn0 2.951576 1_545
Ta3 Zn3 2.952161 1_556
Al0 Zn1 2.502409 1_565
Al0 Zn2 2.502409 1_455
Al0 Zn3 2.505469 1_465
Al0 Zn0 2.555449 1_555
Al0 Al2 2.615471 1_455
Al0 Al3 2.615471 1_565
Al0 Ta1 2.905155 1_555
Al0 Ta1 2.928718 1_565
Al0 Ta1 2.928718 1_455
Al0 Ta0 2.943159 1_565
Al0 Ta0 2.943159 1_455
Al0 Ta0 2.965762 1_465
Al1 Zn1 2.502409 1_566
Al1 Zn2 2.502409 1_456
Al1 Zn3 2.505469 1_466
Al1 Zn0 2.555449 1_555
Al1 Al2 2.615471 1_455
Al1 Al3 2.615471 1_565
Al1 Ta2 2.905155 1_555
Al1 Ta2 2.928718 1_565
Al1 Ta2 2.928718 1_455
Al1 Ta3 2.943159 1_565
Al1 Ta3 2.943159 1_455
Al1 Ta3 2.965762 1_465
Al2 Zn0 2.433893 1_555
Al2 Al3 2.453392 1_555
Al2 Zn0 2.554574 1_655
Al2 Al3 2.586647 1_665
Al2 Ta1 2.904470 1_555
Al2 Ta2 2.904470 1_555
Al2 Ta3 2.915482 1_565
Al2 Ta0 2.915482 1_565
Al2 Ta0 2.944485 1_555
Al2 Ta3 2.944485 1_555
Al3 Zn0 2.433893 1_555
Al3 Zn0 2.554574 1_545
Al3 Ta1 2.904470 1_555
Al3 Ta2 2.904470 1_555
Al3 Ta0 2.915482 1_455
Al3 Ta3 2.915482 1_455
Al3 Ta0 2.944485 1_555
Al3 Ta3 2.944485 1_555
Zn1 Zn3 2.399345 1_555
Zn1 Zn2 2.422184 1_555
Zn1 Zn3 2.589119 1_455
Zn1 Zn2 2.617855 1_445
Zn2 Zn3 2.399345 1_555
Zn2 Zn3 2.589119 1_565
