# generated using pymatgen
data_K2BeCl4
_symmetry_space_group_name_H-M   'P 1'
_cell_length_a   6.82833039
_cell_length_b   8.76911681
_cell_length_c   12.02198346
_cell_angle_alpha   90.00000000
_cell_angle_beta   90.00000000
_cell_angle_gamma   90.00000000
_symmetry_Int_Tables_number   1
_chemical_formula_structural   K2BeCl4
_chemical_formula_sum   'K8 Be4 Cl16'
_cell_volume   719.85745669
_cell_formula_units_Z   4
loop_
 _symmetry_equiv_pos_site_id
 _symmetry_equiv_pos_as_xyz
  1  'x, y, z'
loop_
 _atom_site_type_symbol
 _atom_site_label
 _atom_site_symmetry_multiplicity
 _atom_site_fract_x
 _atom_site_fract_y
 _atom_site_fract_z
 _atom_site_occupancy
  K  K0  1  0.75000000  0.51724481  0.32241166  1
  K  K1  1  0.25000000  0.48275519  0.67758834  1
  K  K2  1  0.25000000  0.98275519  0.82241166  1
  K  K3  1  0.75000000  0.01724481  0.17758834  1
  K  K4  1  0.75000000  0.86441324  0.58535097  1
  K  K5  1  0.25000000  0.13558676  0.41464903  1
  K  K6  1  0.25000000  0.63558676  0.08535097  1
  K  K7  1  0.75000000  0.36441324  0.91464903  1
  Be  Be0  1  0.75000000  0.76951610  0.92225786  1
  Be  Be1  1  0.25000000  0.23048390  0.07774214  1
  Be  Be2  1  0.25000000  0.73048390  0.42225786  1
  Be  Be3  1  0.75000000  0.26951610  0.57774214  1
  Cl  Cl0  1  0.99094557  0.68315131  0.84708204  1
  Cl  Cl1  1  0.00905443  0.31684869  0.15291796  1
  Cl  Cl2  1  0.00905443  0.81684869  0.34708204  1
  Cl  Cl3  1  0.49094557  0.31684869  0.15291796  1
  Cl  Cl4  1  0.99094557  0.18315131  0.65291796  1
  Cl  Cl5  1  0.50905443  0.68315131  0.84708204  1
  Cl  Cl6  1  0.50905443  0.18315131  0.65291796  1
  Cl  Cl7  1  0.49094557  0.81684869  0.34708204  1
  Cl  Cl8  1  0.75000000  0.99907131  0.91382138  1
  Cl  Cl9  1  0.25000000  0.00092869  0.08617862  1
  Cl  Cl10  1  0.25000000  0.50092869  0.41382138  1
  Cl  Cl11  1  0.75000000  0.49907131  0.58617862  1
  Cl  Cl12  1  0.75000000  0.18924845  0.41828623  1
  Cl  Cl13  1  0.25000000  0.81075155  0.58171377  1
  Cl  Cl14  1  0.25000000  0.31075155  0.91828623  1
  Cl  Cl15  1  0.75000000  0.68924845  0.08171377  1
loop_
_geom_bond_atom_site_label_1
_geom_bond_atom_site_label_2
_geom_bond_distance
_geom_bond_site_symmetry_2
Be0 Cl8 2.015550 1_555
Be0 Cl5 2.024160 1_555
Be0 Cl0 2.024160 1_555
Be0 Cl15 2.042117 1_556
Be1 Cl9 2.015550 1_555
Be1 Cl1 2.024160 1_555
Be1 Cl3 2.024160 1_555
Be1 Cl14 2.042117 1_554
Be2 Cl10 2.015550 1_555
Be2 Cl2 2.024160 1_555
Be2 Cl7 2.024160 1_555
Be2 Cl13 2.042117 1_555
Be3 Cl11 2.015550 1_555
Be3 Cl6 2.024160 1_555
Be3 Cl4 2.024160 1_555
Be3 Cl12 2.042117 1_555
Cl0 K2 3.181117 1_655
Cl0 K1 3.220117 1_655
Cl0 K7 3.343500 1_555
Cl0 K6 3.392370 1_656
Cl1 K3 3.181117 1_455
Cl1 K0 3.220117 1_455
Cl1 K6 3.343500 1_555
Cl1 K7 3.392370 1_454
Cl2 K0 3.181117 1_455
Cl2 K3 3.220117 1_465
Cl2 K5 3.343500 1_565
Cl2 K4 3.392370 1_455
Cl3 K3 3.181117 1_555
Cl3 K0 3.220117 1_555
Cl3 K6 3.343500 1_555
Cl3 K7 3.392370 1_554
Cl4 K1 3.181117 1_655
Cl4 K2 3.220117 1_645
Cl4 K4 3.343500 1_545
Cl4 K5 3.392370 1_655
Cl5 K2 3.181117 1_555
Cl5 K1 3.220117 1_555
Cl5 K7 3.343500 1_555
Cl5 K6 3.392370 1_556
Cl6 K1 3.181117 1_555
Cl6 K2 3.220117 1_545
Cl6 K4 3.343500 1_545
Cl6 K5 3.392370 1_555
Cl7 K0 3.181117 1_555
Cl7 K3 3.220117 1_565
Cl7 K5 3.343500 1_565
Cl7 K4 3.392370 1_555
Cl8 K3 3.175004 1_566
Cl8 K7 3.203742 1_565
Cl8 K2 3.589517 1_555
Cl8 K2 3.589517 1_655
Cl9 K2 3.175004 1_544
Cl9 K6 3.203742 1_545
Cl9 K3 3.589517 1_555
Cl9 K3 3.589517 1_455
Cl10 K1 3.175004 1_555
Cl10 K5 3.203742 1_555
Cl10 K0 3.589517 1_455
Cl10 K0 3.589517 1_555
Cl11 K0 3.175004 1_555
Cl11 K4 3.203742 1_555
Cl11 K1 3.589517 1_555
Cl11 K1 3.589517 1_655
Cl12 K0 3.098587 1_555
Cl12 K3 3.263178 1_555
Cl12 K5 3.446718 1_555
Cl12 K5 3.446718 1_655
Cl12 K4 3.485387 1_545
Cl13 K1 3.098587 1_555
Cl13 K2 3.263178 1_555
Cl13 K4 3.446718 1_455
Cl13 K4 3.446718 1_555
Cl13 K5 3.485387 1_565
Cl14 K2 3.098587 1_545
Cl14 K1 3.263178 1_555
Cl14 K7 3.446718 1_455
Cl14 K7 3.446718 1_555
Cl14 K6 3.485387 1_556
Cl15 K3 3.098587 1_565
Cl15 K0 3.263178 1_555
Cl15 K6 3.446718 1_655
Cl15 K6 3.446718 1_555
Cl15 K7 3.485387 1_554
