# generated using pymatgen
data_LiMnO2
_symmetry_space_group_name_H-M   'P 1'
_cell_length_a   5.94136711
_cell_length_b   5.94731121
_cell_length_c   8.52085236
_cell_angle_alpha   89.55408579
_cell_angle_beta   89.68026330
_cell_angle_gamma   88.87693758
_symmetry_Int_Tables_number   1
_chemical_formula_structural   LiMnO2
_chemical_formula_sum   'Li8 Mn8 O16'
_cell_volume   301.01428440
_cell_formula_units_Z   8
loop_
 _symmetry_equiv_pos_site_id
 _symmetry_equiv_pos_as_xyz
  1  'x, y, z'
loop_
 _atom_site_type_symbol
 _atom_site_label
 _atom_site_symmetry_multiplicity
 _atom_site_fract_x
 _atom_site_fract_y
 _atom_site_fract_z
 _atom_site_occupancy
  Li  Li0  1  0.99734100  0.49858100  0.00017000  1
  Li  Li1  1  0.50132200  0.00041600  0.50067500  1
  Li  Li2  1  0.99848100  0.49898800  0.50065400  1
  Li  Li3  1  0.50203700  0.00274500  0.00024700  1
  Li  Li4  1  0.24813700  0.74968600  0.24657700  1
  Li  Li5  1  0.75005800  0.25223200  0.75146500  1
  Li  Li6  1  0.24702300  0.25086700  0.24447200  1
  Li  Li7  1  0.75392200  0.75016700  0.75477000  1
  Mn  Mn0  1  0.50040600  0.50035300  0.00009800  1
  Mn  Mn1  1  0.00008400  0.00002500  0.49726700  1
  Mn  Mn2  1  0.25645400  0.74587700  0.75272800  1
  Mn  Mn3  1  0.74468500  0.25262000  0.25029600  1
  Mn  Mn4  1  0.25247800  0.24825100  0.74980800  1
  Mn  Mn5  1  0.74629100  0.75001500  0.25009400  1
  Mn  Mn6  1  0.50244900  0.49783400  0.49928000  1
  Mn  Mn7  1  0.99869500  0.00095400  0.00154100  1
  O  O0  1  0.04034000  0.50468000  0.75158600  1
  O  O1  1  0.53506400  0.00683700  0.25120900  1
  O  O2  1  0.95873000  0.49456800  0.24951300  1
  O  O3  1  0.46660800  0.99239900  0.75017900  1
  O  O4  1  0.47701500  0.49774900  0.22978100  1
  O  O5  1  0.00703600  0.97018700  0.75677700  1
  O  O6  1  0.50364600  0.52399500  0.76652700  1
  O  O7  1  0.01392900  0.00705700  0.24154200  1
  O  O8  1  0.26575200  0.26497900  0.51666300  1
  O  O9  1  0.76807600  0.76979100  0.01525700  1
  O  O10  1  0.26363000  0.73812600  0.52101000  1
  O  O11  1  0.73378800  0.26602000  0.00038800  1
  O  O12  1  0.73449300  0.73412600  0.48501400  1
  O  O13  1  0.23116600  0.23113700  0.98248200  1
  O  O14  1  0.73750500  0.26173700  0.49934700  1
  O  O15  1  0.26335900  0.73699900  0.98258200  1
loop_
_geom_bond_atom_site_label_1
_geom_bond_atom_site_label_2
_geom_bond_distance
_geom_bond_site_symmetry_2
Li0 O9 2.094944 1_555
Li0 O13 2.096998 1_654
Li0 O11 2.109446 1_555
Li0 O0 2.132196 1_654
Li0 O2 2.135689 1_555
Li0 O15 2.147776 1_654
Li1 O12 2.088150 1_545
Li1 O8 2.089989 1_555
Li1 O14 2.114162 1_555
Li1 O10 2.130057 1_545
Li1 O1 2.134097 1_555
Li1 O3 2.135075 1_545
Li2 O12 2.084917 1_555
Li2 O8 2.095218 1_655
Li2 O14 2.116950 1_555
Li2 O10 2.151570 1_655
Li2 O0 2.154552 1_655
Li2 O2 2.154658 1_555
Li3 O9 2.085160 1_545
Li3 O13 2.090875 1_554
Li3 O11 2.105262 1_555
Li3 O3 2.143811 1_544
Li3 O1 2.148854 1_555
Li3 O15 2.150681 1_544
Li4 O4 2.008982 1_555
Li4 O7 2.048718 1_565
Li4 O15 2.252567 1_554
Li4 O1 2.313118 1_565
Li4 O2 2.315277 1_455
Li4 O10 2.341149 1_555
Li5 O11 2.124846 1_556
Li5 O14 2.150236 1_555
Li5 O6 2.163448 1_555
Li5 O5 2.246345 1_645
Li5 O3 2.307966 1_545
Li5 O0 2.308724 1_655
Li6 O7 2.025036 1_555
Li6 O4 2.027964 1_555
Li6 O2 2.222433 1_455
Li6 O1 2.222794 1_555
Li6 O13 2.238976 1_554
Li6 O8 2.324834 1_555
Li7 O5 2.012922 1_655
Li7 O6 2.026112 1_555
Li7 O3 2.212327 1_555
Li7 O0 2.220550 1_655
Li7 O9 2.225689 1_556
Li7 O12 2.304901 1_555
Mn0 O11 1.946583 1_555
Mn0 O4 1.961212 1_555
Mn0 O15 1.976864 1_554
Mn0 O6 1.994105 1_554
Mn0 O9 2.284517 1_555
Mn0 O13 2.291681 1_554
Mn1 O7 2.180195 1_555
Mn1 O14 2.182139 1_455
Mn1 O10 2.195873 1_545
Mn1 O5 2.217528 1_545
Mn1 O12 2.259182 1_445
Mn1 O8 2.259702 1_555
Mn2 O0 1.943979 1_555
Mn2 O3 1.944226 1_555
Mn2 O6 1.958487 1_555
Mn2 O15 1.959489 1_555
Mn2 O5 1.974712 1_555
Mn2 O10 1.975534 1_555
Mn3 O1 1.938803 1_555
Mn3 O2 1.938905 1_555
Mn3 O14 2.123410 1_555
Mn3 O11 2.131597 1_555
Mn3 O4 2.143198 1_555
Mn3 O7 2.146206 1_655
Mn4 O0 1.959446 1_555
Mn4 O3 1.964183 1_545
Mn4 O13 1.987859 1_555
Mn4 O8 1.989512 1_555
Mn4 O5 2.226415 1_545
Mn4 O6 2.244666 1_555
Mn5 O2 1.956026 1_555
Mn5 O1 1.957795 1_565
Mn5 O12 2.004113 1_555
Mn5 O9 2.007156 1_555
Mn5 O4 2.222987 1_555
Mn5 O7 2.227791 1_665
Mn6 O14 1.960894 1_555
Mn6 O12 1.990419 1_555
Mn6 O8 1.997072 1_555
Mn6 O10 2.002896 1_555
Mn6 O6 2.283749 1_555
Mn6 O4 2.302174 1_555
Mn7 O9 1.962323 1_545
Mn7 O13 1.968834 1_654
Mn7 O7 2.048155 1_655
Mn7 O5 2.095254 1_644
Mn7 O11 2.205695 1_555
Mn7 O15 2.206227 1_644
