# generated using pymatgen
data_KCeSnWO6
_symmetry_space_group_name_H-M   'P 1'
_cell_length_a   6.03134849
_cell_length_b   6.03134849
_cell_length_c   8.49967874
_cell_angle_alpha   90.00000000
_cell_angle_beta   90.00000000
_cell_angle_gamma   90.00000000
_symmetry_Int_Tables_number   1
_chemical_formula_structural   KCeSnWO6
_chemical_formula_sum   'K2 Ce2 Sn2 W2 O12'
_cell_volume   309.19421264
_cell_formula_units_Z   2
loop_
 _symmetry_equiv_pos_site_id
 _symmetry_equiv_pos_as_xyz
  1  'x, y, z'
loop_
 _atom_site_type_symbol
 _atom_site_label
 _atom_site_symmetry_multiplicity
 _atom_site_fract_x
 _atom_site_fract_y
 _atom_site_fract_z
 _atom_site_occupancy
  K  K0  1  -0.00000000  -0.00000000  0.25000000  1
  K  K1  1  -0.00000000  0.00000000  0.75000000  1
  Ce  Ce0  1  0.00000000  0.50000000  0.00000000  1
  Ce  Ce1  1  0.50000000  -0.00000000  0.50000000  1
  Sn  Sn0  1  0.50000000  0.50000000  0.75000000  1
  Sn  Sn1  1  0.50000000  0.50000000  0.25000000  1
  W  W0  1  -0.00000000  0.50000000  0.50000000  1
  W  W1  1  0.50000000  0.00000000  0.00000000  1
  O  O0  1  0.00000000  0.50000000  0.73086015  1
  O  O1  1  0.50000000  -0.00000000  0.76913985  1
  O  O2  1  0.23528442  0.72519837  0.50000000  1
  O  O3  1  0.76471558  0.27480163  0.50000000  1
  O  O4  1  0.27480163  0.76471558  -0.00000000  1
  O  O5  1  0.72519837  0.23528442  -0.00000000  1
  O  O6  1  0.23528442  0.27480163  0.50000000  1
  O  O7  1  0.27480163  0.23528442  0.00000000  1
  O  O8  1  0.76471558  0.72519837  0.50000000  1
  O  O9  1  0.72519837  0.76471558  -0.00000000  1
  O  O10  1  0.00000000  0.50000000  0.26913985  1
  O  O11  1  0.50000000  -0.00000000  0.23086015  1
loop_
_geom_bond_atom_site_label_1
_geom_bond_atom_site_label_2
_geom_bond_distance
_geom_bond_site_symmetry_2
K0 O11 3.020059 1_455
K0 O10 3.020059 1_545
K0 O10 3.020059 1_555
K0 O11 3.020059 1_555
K0 O6 3.045675 1_555
K0 O9 3.045675 1_445
K0 O5 3.045675 1_455
K0 O2 3.045675 1_545
K0 O7 3.045675 1_555
K0 O4 3.045675 1_545
K0 O3 3.045675 1_455
K0 O8 3.045675 1_445
K1 O0 3.020059 1_555
K1 O1 3.020059 1_455
K1 O1 3.020059 1_555
K1 O0 3.020059 1_545
K1 O6 3.045675 1_555
K1 O5 3.045675 1_456
K1 O2 3.045675 1_545
K1 O7 3.045675 1_556
K1 O9 3.045675 1_446
K1 O4 3.045675 1_546
K1 O3 3.045675 1_455
K1 O8 3.045675 1_445
Ce0 O0 2.287602 1_554
Ce0 O10 2.287602 1_555
Ce0 O4 2.301339 1_555
Ce0 O5 2.301339 1_455
Ce0 O7 2.301339 1_555
Ce0 O9 2.301339 1_455
Ce1 O11 2.287602 1_555
Ce1 O1 2.287602 1_555
Ce1 O6 2.301339 1_555
Ce1 O2 2.301339 1_545
Ce1 O3 2.301339 1_555
Ce1 O8 2.301339 1_545
O0 W0 1.962237 1_555
O1 W1 1.962237 1_556
O2 W0 1.964341 1_555
O3 W0 1.964341 1_655
O4 W1 1.964341 1_565
O5 W1 1.964341 1_555
O6 W0 1.964341 1_555
O7 W1 1.964341 1_555
O8 W0 1.964341 1_655
O9 W1 1.964341 1_565
O10 W0 1.962237 1_555
O11 W1 1.962237 1_555
