# generated using pymatgen
data_Ba(NiO2)4
_symmetry_space_group_name_H-M   'P 1'
_cell_length_a   5.73530737
_cell_length_b   5.73484773
_cell_length_c   13.22361165
_cell_angle_alpha   89.99736698
_cell_angle_beta   77.47342483
_cell_angle_gamma   119.99469509
_symmetry_Int_Tables_number   1
_chemical_formula_structural   Ba(NiO2)4
_chemical_formula_sum   'Ba2 Ni8 O16'
_cell_volume   364.68252413
_cell_formula_units_Z   2
loop_
 _symmetry_equiv_pos_site_id
 _symmetry_equiv_pos_as_xyz
  1  'x, y, z'
loop_
 _atom_site_type_symbol
 _atom_site_label
 _atom_site_symmetry_multiplicity
 _atom_site_fract_x
 _atom_site_fract_y
 _atom_site_fract_z
 _atom_site_occupancy
  Ba  Ba0  1  0.50015100  0.75007800  0.74976500  1
  Ba  Ba1  1  0.49984900  0.24992200  0.25023400  1
  Ni  Ni0  1  0.50000100  0.00000100  0.49999900  1
  Ni  Ni1  1  0.49999800  0.50000000  0.99999900  1
  Ni  Ni2  1  0.49999900  0.49999700  0.49999900  1
  Ni  Ni3  1  0.50000000  0.99999900  0.99999800  1
  Ni  Ni4  1  0.00000200  0.00000100  0.49999900  1
  Ni  Ni5  1  0.00000100  0.50000200  0.99999800  1
  Ni  Ni6  1  0.00000000  0.50000000  0.50000000  1
  Ni  Ni7  1  0.00000100  0.00000100  0.00000000  1
  O  O0  1  0.71703200  0.85851500  0.42443500  1
  O  O1  1  0.71675800  0.35837400  0.92463800  1
  O  O2  1  0.28324300  0.64162600  0.07536400  1
  O  O3  1  0.28296800  0.14148500  0.57556600  1
  O  O4  1  0.22876800  0.84911200  0.92224000  1
  O  O5  1  0.22887300  0.34904200  0.42209600  1
  O  O6  1  0.77112900  0.12016700  0.57790200  1
  O  O7  1  0.77124000  0.62035300  0.07776500  1
  O  O8  1  0.77112800  0.65095900  0.57790500  1
  O  O9  1  0.77123200  0.15088700  0.07776100  1
  O  O10  1  0.30191800  0.65095700  0.57790700  1
  O  O11  1  0.30190200  0.15094300  0.07775900  1
  O  O12  1  0.22875900  0.37964700  0.92223500  1
  O  O13  1  0.22887200  0.87983200  0.42209800  1
  O  O14  1  0.69809700  0.84905600  0.92224200  1
  O  O15  1  0.69808200  0.34904200  0.42209400  1
loop_
_geom_bond_atom_site_label_1
_geom_bond_atom_site_label_2
_geom_bond_distance
_geom_bond_site_symmetry_2
Ba0 O6 2.693385 1_565
Ba0 O8 2.693419 1_555
Ba0 O10 2.693531 1_555
Ba0 O12 2.700136 1_555
Ba0 O4 2.700186 1_555
Ba0 O14 2.700367 1_555
Ba1 O13 2.693398 1_545
Ba1 O5 2.693438 1_555
Ba1 O15 2.693555 1_555
Ba1 O7 2.700126 1_555
Ba1 O9 2.700170 1_555
Ba1 O11 2.700345 1_555
Ni0 O15 1.891336 1_555
Ni0 O10 1.891365 1_545
Ni0 O13 1.891459 1_545
Ni0 O6 1.891475 1_555
Ni0 O0 1.917438 1_545
Ni0 O3 1.917453 1_555
Ni1 O12 1.890580 1_555
Ni1 O14 1.890586 1_555
Ni1 O11 1.890608 1_556
Ni1 O7 1.890612 1_556
Ni1 O2 1.915855 1_556
Ni1 O1 1.915856 1_555
Ni2 O15 1.891325 1_555
Ni2 O10 1.891355 1_555
Ni2 O5 1.891475 1_555
Ni2 O8 1.891518 1_555
Ni2 O3 1.917438 1_555
Ni2 O0 1.917448 1_555
Ni3 O4 1.890504 1_555
Ni3 O14 1.890514 1_555
Ni3 O11 1.890550 1_566
Ni3 O9 1.890552 1_566
Ni3 O1 1.915810 1_565
Ni3 O2 1.915832 1_556
Ni4 O13 1.891320 1_545
Ni4 O6 1.891331 1_455
Ni4 O5 1.891346 1_555
Ni4 O8 1.891367 1_445
Ni4 O0 1.917707 1_445
Ni4 O3 1.917718 1_555
Ni5 O4 1.890845 1_555
Ni5 O12 1.890874 1_555
Ni5 O7 1.890891 1_456
Ni5 O9 1.890892 1_456
Ni5 O1 1.916979 1_455
Ni5 O2 1.917031 1_556
Ni6 O5 2.020767 1_555
Ni6 O13 2.020770 1_555
Ni6 O8 2.020772 1_455
Ni6 O6 2.020774 1_455
Ni6 O15 2.020956 1_455
Ni6 O10 2.020965 1_555
Ni7 O12 2.019298 1_554
Ni7 O7 2.019307 1_445
Ni7 O4 2.019309 1_544
Ni7 O9 2.019310 1_455
Ni7 O11 2.019531 1_555
Ni7 O14 2.019535 1_444
