# generated using pymatgen
data_Li9Mn2Co5O16
_symmetry_space_group_name_H-M   'P 1'
_cell_length_a   5.06508600
_cell_length_b   5.90363749
_cell_length_c   10.39413461
_cell_angle_alpha   75.76043098
_cell_angle_beta   76.79336801
_cell_angle_gamma   75.24094348
_symmetry_Int_Tables_number   1
_chemical_formula_structural   Li9Mn2Co5O16
_chemical_formula_sum   'Li9 Mn2 Co5 O16'
_cell_volume   286.72656569
_cell_formula_units_Z   1
loop_
 _symmetry_equiv_pos_site_id
 _symmetry_equiv_pos_as_xyz
  1  'x, y, z'
loop_
 _atom_site_type_symbol
 _atom_site_label
 _atom_site_symmetry_multiplicity
 _atom_site_fract_x
 _atom_site_fract_y
 _atom_site_fract_z
 _atom_site_occupancy
  Li  Li0  1  0.48420800  0.80938600  0.13329800  1
  Li  Li1  1  0.50237900  0.29897900  0.13445700  1
  Li  Li2  1  0.51456800  0.43796300  0.37469600  1
  Li  Li3  1  0.50358500  0.93602400  0.37512900  1
  Li  Li4  1  0.49951200  0.06472600  0.62149000  1
  Li  Li5  1  0.49717900  0.56250000  0.62312900  1
  Li  Li6  1  0.49315000  0.69626600  0.86925900  1
  Li  Li7  1  0.50953400  0.18764800  0.87056300  1
  Li  Li8  1  0.99494400  0.62693300  0.25285500  1
  Mn  Mn0  1  0.00402300  0.99297500  0.00255000  1
  Mn  Mn1  1  0.00266100  0.49511500  0.00346500  1
  Co  Co0  1  0.00118500  0.12372500  0.24894100  1
  Co  Co1  1  0.99859600  0.26108500  0.49576600  1
  Co  Co2  1  0.99434500  0.75231800  0.49324400  1
  Co  Co3  1  0.99926700  0.87428700  0.74988900  1
  Co  Co4  1  0.00363400  0.37391400  0.74710400  1
  O  O0  1  0.23529900  0.13325100  0.07199700  1
  O  O1  1  0.22216800  0.67728000  0.05331400  1
  O  O2  1  0.21861200  0.82290900  0.31196700  1
  O  O3  1  0.21768200  0.27008100  0.31563000  1
  O  O4  1  0.23819700  0.41214400  0.55958100  1
  O  O5  1  0.21691300  0.90538200  0.57261600  1
  O  O6  1  0.22243000  0.02426000  0.81657900  1
  O  O7  1  0.23444300  0.50934900  0.82085200  1
  O  O8  1  0.78278400  0.43828500  0.18478900  1
  O  O9  1  0.78110900  0.97998200  0.17961900  1
  O  O10  1  0.76803100  0.10070700  0.42541200  1
  O  O11  1  0.75995900  0.60261100  0.44335100  1
  O  O12  1  0.77482000  0.71986300  0.69349100  1
  O  O13  1  0.76646200  0.23593300  0.68119900  1
  O  O14  1  0.78648000  0.31691000  0.94314600  1
  O  O15  1  0.77183900  0.85721300  0.93062300  1
loop_
_geom_bond_atom_site_label_1
_geom_bond_atom_site_label_2
_geom_bond_distance
_geom_bond_site_symmetry_2
Li0 O2 2.035103 1_555
Li0 O0 2.047116 1_565
Li0 O1 2.100381 1_555
Li0 O9 2.201978 1_555
Li0 O15 2.270400 1_554
Li0 O8 2.340556 1_555
Li1 O8 2.028188 1_555
Li1 O9 2.067213 1_545
Li1 O3 2.093137 1_555
Li1 O0 2.144042 1_555
Li1 O14 2.168565 1_554
Li1 O1 2.391415 1_555
Li2 O11 2.088304 1_555
Li2 O10 2.093039 1_555
Li2 O4 2.100293 1_555
Li2 O8 2.125121 1_555
Li2 O3 2.258553 1_555
Li2 O2 2.412214 1_555
Li3 O2 2.024891 1_555
Li3 O10 2.060547 1_565
Li3 O11 2.120203 1_555
Li3 O3 2.173245 1_565
Li3 O9 2.189551 1_555
Li3 O5 2.223497 1_555
Li4 O5 2.108385 1_545
Li4 O13 2.150203 1_555
Li4 O10 2.171698 1_555
Li4 O4 2.174715 1_555
Li4 O6 2.184211 1_555
Li4 O12 2.220456 1_545
Li5 O11 2.031231 1_555
Li5 O4 2.054886 1_555
Li5 O13 2.098922 1_555
Li5 O7 2.176912 1_555
Li5 O5 2.177622 1_555
Li5 O12 2.201226 1_555
Li6 O12 2.043938 1_555
Li6 O1 2.080736 1_556
Li6 O6 2.097184 1_565
Li6 O7 2.121101 1_555
Li6 O15 2.166826 1_555
Li6 O14 2.406827 1_555
Li7 O7 2.076852 1_555
Li7 O13 2.095592 1_555
Li7 O15 2.102312 1_545
Li7 O14 2.105100 1_555
Li7 O6 2.171127 1_555
Li7 O0 2.232459 1_556
Li8 O11 2.056253 1_555
Li8 O8 2.059240 1_555
Li8 O2 2.082101 1_655
Li8 O1 2.120132 1_655
Li8 O9 2.131371 1_555
Li8 O3 2.141485 1_655
Mn0 O9 1.921777 1_455
Mn0 O1 1.925149 1_555
Mn0 O0 1.937488 1_565
Mn0 O15 1.939368 1_454
Mn0 O14 1.977106 1_464
Mn0 O6 1.986403 1_564
Mn1 O1 1.951345 1_555
Mn1 O8 1.955816 1_455
Mn1 O14 1.980909 1_454
Mn1 O7 1.985377 1_554
Mn1 O0 2.193633 1_555
Mn1 O15 2.201068 1_454
Co0 O3 1.885267 1_555
Co0 O2 1.885912 1_545
Co0 O9 1.905690 1_445
Co0 O10 1.935712 1_455
Co0 O0 1.943826 1_555
Co0 O8 1.948886 1_455
Co1 O3 1.942084 1_655
Co1 O4 1.979484 1_655
Co1 O13 2.008009 1_555
Co1 O10 2.022189 1_555
Co1 O11 2.083710 1_555
Co1 O5 2.160060 1_645
Co2 O11 1.871065 1_555
Co2 O2 1.972615 1_655
Co2 O5 2.019603 1_655
Co2 O12 2.111905 1_555
Co2 O4 2.116175 1_655
Co2 O10 2.120381 1_565
Co3 O12 1.887503 1_555
Co3 O5 1.911206 1_655
Co3 O6 1.926640 1_665
Co3 O15 1.960455 1_555
Co3 O13 2.193309 1_565
Co3 O7 2.217382 1_655
Co4 O13 1.930039 1_455
Co4 O7 1.944442 1_555
Co4 O4 2.030690 1_555
Co4 O14 2.074213 1_455
Co4 O12 2.086657 1_455
Co4 O6 2.115999 1_555
