# generated using pymatgen
data_Hf6BCl14
_symmetry_space_group_name_H-M   'P 1'
_cell_length_a   9.46963390
_cell_length_b   9.46963390
_cell_length_c   11.46981503
_cell_angle_alpha   90.00000000
_cell_angle_beta   90.00000000
_cell_angle_gamma   96.60654375
_symmetry_Int_Tables_number   1
_chemical_formula_structural   Hf6BCl14
_chemical_formula_sum   'Hf12 B2 Cl28'
_cell_volume   1021.71389525
_cell_formula_units_Z   2
loop_
 _symmetry_equiv_pos_site_id
 _symmetry_equiv_pos_as_xyz
  1  'x, y, z'
loop_
 _atom_site_type_symbol
 _atom_site_label
 _atom_site_symmetry_multiplicity
 _atom_site_fract_x
 _atom_site_fract_y
 _atom_site_fract_z
 _atom_site_occupancy
  Hf  Hf0  1  0.18690053  0.95160951  0.11593374  1
  Hf  Hf1  1  0.81309947  0.04839049  0.88406626  1
  Hf  Hf2  1  0.31309947  0.54839049  0.61593374  1
  Hf  Hf3  1  0.45160951  0.68690053  0.38406626  1
  Hf  Hf4  1  0.68690053  0.45160951  0.38406626  1
  Hf  Hf5  1  0.54839049  0.31309947  0.61593374  1
  Hf  Hf6  1  0.04839049  0.81309947  0.88406626  1
  Hf  Hf7  1  0.95160951  0.18690053  0.11593374  1
  Hf  Hf8  1  0.35057569  0.35057569  0.39239157  1
  Hf  Hf9  1  0.64942431  0.64942431  0.60760843  1
  Hf  Hf10  1  0.14942431  0.14942431  0.89239157  1
  Hf  Hf11  1  0.85057569  0.85057569  0.10760843  1
  B  B0  1  0.00000000  0.00000000  -0.00000000  1
  B  B1  1  0.50000000  0.50000000  0.50000000  1
  Cl  Cl0  1  0.53414877  0.28956946  0.25095875  1
  Cl  Cl1  1  0.46585123  0.71043054  0.74904125  1
  Cl  Cl2  1  0.96585123  0.21043054  0.75095875  1
  Cl  Cl3  1  0.78956946  0.03414877  0.24904125  1
  Cl  Cl4  1  0.03414877  0.78956946  0.24904125  1
  Cl  Cl5  1  0.21043054  0.96585123  0.75095875  1
  Cl  Cl6  1  0.71043054  0.46585123  0.74904125  1
  Cl  Cl7  1  0.28956946  0.53414877  0.25095875  1
  Cl  Cl8  1  0.36620387  0.11998969  0.00964022  1
  Cl  Cl9  1  0.63379613  0.88001031  0.99035978  1
  Cl  Cl10  1  0.13379613  0.38001031  0.50964022  1
  Cl  Cl11  1  0.61998969  0.86620387  0.49035978  1
  Cl  Cl12  1  0.86620387  0.61998969  0.49035978  1
  Cl  Cl13  1  0.38001031  0.13379613  0.50964022  1
  Cl  Cl14  1  0.88001031  0.63379613  0.99035978  1
  Cl  Cl15  1  0.11998969  0.36620387  0.00964022  1
  Cl  Cl16  1  0.39964298  0.89964298  0.25000000  1
  Cl  Cl17  1  0.60035702  0.10035702  0.75000000  1
  Cl  Cl18  1  0.10035702  0.60035702  0.75000000  1
  Cl  Cl19  1  0.89964298  0.39964298  0.25000000  1
  Cl  Cl20  1  0.25181679  0.74818321  -0.00000000  1
  Cl  Cl21  1  0.74818321  0.25181679  -0.00000000  1
  Cl  Cl22  1  0.24818321  0.75181679  0.50000000  1
  Cl  Cl23  1  0.75181679  0.24818321  0.50000000  1
  Cl  Cl24  1  0.15750055  0.15750055  0.26088646  1
  Cl  Cl25  1  0.84249945  0.84249945  0.73911354  1
  Cl  Cl26  1  0.34249945  0.34249945  0.76088646  1
  Cl  Cl27  1  0.65750055  0.65750055  0.23911354  1
loop_
_geom_bond_atom_site_label_1
_geom_bond_atom_site_label_2
_geom_bond_distance
_geom_bond_site_symmetry_2
B0 Hf10 2.251016 1_554
B0 Hf11 2.251016 1_445
B0 Hf1 2.301582 1_454
B0 Hf6 2.301582 1_544
B0 Hf0 2.301582 1_545
B0 Hf7 2.301582 1_455
B1 Hf9 2.251016 1_555
B1 Hf8 2.251016 1_555
B1 Hf3 2.301582 1_555
B1 Hf2 2.301582 1_555
B1 Hf4 2.301582 1_555
B1 Hf5 2.301582 1_555
Cl0 Hf8 2.493655 1_555
Cl0 Hf4 2.503413 1_555
Cl1 Hf9 2.493655 1_555
Cl1 Hf2 2.503413 1_555
Cl2 Hf10 2.493655 1_655
Cl2 Hf1 2.503413 1_555
Cl3 Hf11 2.493655 1_545
Cl3 Hf7 2.503413 1_555
Cl4 Hf11 2.493655 1_455
Cl4 Hf0 2.503413 1_555
Cl5 Hf10 2.493655 1_565
Cl5 Hf6 2.503413 1_555
Cl6 Hf9 2.493655 1_555
Cl6 Hf5 2.503413 1_555
Cl7 Hf8 2.493655 1_555
Cl7 Hf3 2.503413 1_555
Cl8 Hf10 2.496393 1_554
Cl8 Hf0 2.507752 1_545
Cl9 Hf11 2.496393 1_556
Cl9 Hf1 2.507752 1_565
Cl10 Hf8 2.496393 1_555
Cl10 Hf2 2.507752 1_555
Cl11 Hf9 2.496393 1_555
Cl11 Hf3 2.507752 1_555
Cl12 Hf9 2.496393 1_555
Cl12 Hf4 2.507752 1_555
Cl13 Hf8 2.496393 1_555
Cl13 Hf5 2.507752 1_555
Cl14 Hf11 2.496393 1_556
Cl14 Hf6 2.507752 1_655
Cl15 Hf10 2.496393 1_554
Cl15 Hf7 2.507752 1_455
Cl16 Hf3 2.625536 1_555
Cl16 Hf0 2.625536 1_555
Cl17 Hf5 2.625536 1_555
Cl17 Hf1 2.625536 1_555
Cl18 Hf2 2.625536 1_555
Cl18 Hf6 2.625536 1_555
Cl19 Hf4 2.625536 1_555
Cl19 Hf7 2.625536 1_555
Cl20 Hf0 2.475783 1_555
Cl20 Hf6 2.475783 1_554
Cl21 Hf1 2.475783 1_554
Cl21 Hf7 2.475783 1_555
Cl22 Hf3 2.475783 1_555
Cl22 Hf2 2.475783 1_555
Cl23 Hf4 2.475783 1_555
Cl23 Hf5 2.475783 1_555
Cl24 Hf7 2.601532 1_455
Cl24 Hf0 2.601532 1_545
Cl24 Hf8 2.862101 1_555
Cl25 Hf6 2.601532 1_655
Cl25 Hf1 2.601532 1_565
Cl25 Hf9 2.862101 1_555
Cl26 Hf5 2.601532 1_555
Cl26 Hf2 2.601532 1_555
Cl26 Hf10 2.862101 1_555
Cl27 Hf4 2.601532 1_555
Cl27 Hf3 2.601532 1_555
Cl27 Hf11 2.862101 1_555
