# generated using pymatgen
data_Ca2ReN3
_symmetry_space_group_name_H-M   'P 1'
_cell_length_a   6.06534937
_cell_length_b   10.75755626
_cell_length_c   12.34777212
_cell_angle_alpha   89.98624235
_cell_angle_beta   89.98780477
_cell_angle_gamma   27.52523426
_symmetry_Int_Tables_number   1
_chemical_formula_structural   Ca2ReN3
_chemical_formula_sum   'Ca8 Re4 N12'
_cell_volume   372.33243804
_cell_formula_units_Z   4
loop_
 _symmetry_equiv_pos_site_id
 _symmetry_equiv_pos_as_xyz
  1  'x, y, z'
loop_
 _atom_site_type_symbol
 _atom_site_label
 _atom_site_symmetry_multiplicity
 _atom_site_fract_x
 _atom_site_fract_y
 _atom_site_fract_z
 _atom_site_occupancy
  Ca  Ca0  1  0.00000343  0.44903100  0.63152956  1
  Ca  Ca1  1  0.99999657  0.55096900  0.36847044  1
  Ca  Ca2  1  0.99999775  0.05088427  0.13153188  1
  Ca  Ca3  1  0.00000225  0.94911573  0.86846812  1
  Ca  Ca4  1  0.99999474  0.14140080  0.58101063  1
  Ca  Ca5  1  0.00000526  0.85859920  0.41898937  1
  Ca  Ca6  1  0.00000610  0.35853302  0.08105133  1
  Ca  Ca7  1  0.99999390  0.64146698  0.91894867  1
  Re  Re0  1  0.99999504  0.25959894  0.84574439  1
  Re  Re1  1  0.00000496  0.74040106  0.15425561  1
  Re  Re2  1  0.00000424  0.24049907  0.34570535  1
  Re  Re3  1  0.99999576  0.75950093  0.65429465  1
  N  N0  1  0.00000376  0.15349538  0.96845381  1
  N  N1  1  0.99999624  0.84650462  0.03154619  1
  N  N2  1  0.99999694  0.34650386  0.46842201  1
  N  N3  1  0.00000306  0.65349614  0.53157799  1
  N  N4  1  0.99999415  0.42777629  0.87619733  1
  N  N5  1  0.00000585  0.57222371  0.12380267  1
  N  N6  1  0.00000500  0.07227860  0.37619418  1
  N  N7  1  0.99999500  0.92772140  0.62380582  1
  N  N8  1  0.50019833  0.46411714  0.74994473  1
  N  N9  1  0.50021631  0.03567475  0.25005864  1
  N  N10  1  0.49980167  0.53588286  0.25005527  1
  N  N11  1  0.49978369  0.96432525  0.74994136  1
loop_
_geom_bond_atom_site_label_1
_geom_bond_atom_site_label_2
_geom_bond_distance
_geom_bond_site_symmetry_2
Ca0 N2 2.296493 1_455
Ca0 N3 2.521881 1_555
Ca0 N7 2.813991 1_545
Ca0 N7 2.814041 1_355
Ca0 N4 3.029691 1_455
Ca1 N3 2.296493 1_655
Ca1 N2 2.521881 1_555
Ca1 N6 2.813991 1_565
Ca1 N6 2.814041 1_755
Ca1 N5 3.029691 1_655
Ca2 N0 2.296142 1_654
Ca2 N1 2.521811 1_545
Ca2 N5 2.814017 1_555
Ca2 N5 2.814065 1_745
Ca2 N6 3.029846 1_655
Ca3 N1 2.296142 1_456
Ca3 N0 2.521811 1_565
Ca3 N4 2.814017 1_555
Ca3 N4 2.814065 1_365
Ca3 N7 3.029846 1_455
Ca4 N7 2.358499 1_545
Ca4 N2 2.607589 1_555
Ca4 N11 2.632127 1_645
Ca4 N8 2.632163 1_555
Ca4 N6 2.636232 1_655
Ca4 N3 2.871645 1_555
Ca4 N3 2.871692 1_745
Ca5 N6 2.358499 1_565
Ca5 N3 2.607589 1_555
Ca5 N9 2.632127 1_465
Ca5 N10 2.632163 1_555
Ca5 N7 2.636232 1_455
Ca5 N2 2.871645 1_555
Ca5 N2 2.871692 1_365
Ca6 N5 2.358744 1_555
Ca6 N0 2.607618 1_554
Ca6 N10 2.632952 1_455
Ca6 N9 2.632991 1_555
Ca6 N4 2.636699 1_454
Ca6 N1 2.871813 1_545
Ca6 N1 2.871868 1_355
Ca7 N4 2.358744 1_555
Ca7 N1 2.607618 1_556
Ca7 N8 2.632952 1_655
Ca7 N11 2.632991 1_555
Ca7 N5 2.636699 1_656
Ca7 N0 2.871813 1_565
Ca7 N0 2.871868 1_755
N0 Re0 1.896756 1_455
N1 Re1 1.896756 1_655
N2 Re2 1.896631 1_655
N3 Re3 1.896631 1_455
N4 Re0 1.847925 1_555
N5 Re1 1.847925 1_555
N6 Re2 1.848293 1_555
N7 Re3 1.848293 1_555
N8 Re3 1.896779 1_455
N8 Re0 1.897509 1_555
N9 Re2 1.896775 1_555
N9 Re1 1.897512 1_645
N10 Re2 1.896779 1_655
N10 Re1 1.897509 1_555
N11 Re3 1.896775 1_555
N11 Re0 1.897512 1_465
