# generated using pymatgen
data_ZrP2
_symmetry_space_group_name_H-M   'P 1'
_cell_length_a   3.52562158
_cell_length_b   6.52591046
_cell_length_c   8.78827969
_cell_angle_alpha   90.00000000
_cell_angle_beta   90.00000000
_cell_angle_gamma   90.00000000
_symmetry_Int_Tables_number   1
_chemical_formula_structural   ZrP2
_chemical_formula_sum   'Zr4 P8'
_cell_volume   202.19977896
_cell_formula_units_Z   4
loop_
 _symmetry_equiv_pos_site_id
 _symmetry_equiv_pos_as_xyz
  1  'x, y, z'
loop_
 _atom_site_type_symbol
 _atom_site_label
 _atom_site_symmetry_multiplicity
 _atom_site_fract_x
 _atom_site_fract_y
 _atom_site_fract_z
 _atom_site_occupancy
  Zr  Zr0  1  0.25000000  0.78115217  0.33705528  1
  Zr  Zr1  1  0.75000000  0.21884783  0.66294472  1
  Zr  Zr2  1  0.25000000  0.28115217  0.16294472  1
  Zr  Zr3  1  0.75000000  0.71884783  0.83705528  1
  P  P0  1  0.25000000  0.40407982  0.85524480  1
  P  P1  1  0.75000000  0.59592018  0.14475520  1
  P  P2  1  0.25000000  0.90407982  0.64475520  1
  P  P3  1  0.75000000  0.09592018  0.35524480  1
  P  P4  1  0.75000000  0.10700786  0.96075088  1
  P  P5  1  0.25000000  0.89299214  0.03924912  1
  P  P6  1  0.75000000  0.60700786  0.53924912  1
  P  P7  1  0.25000000  0.39299214  0.46075088  1
loop_
_geom_bond_atom_site_label_1
_geom_bond_atom_site_label_2
_geom_bond_distance
_geom_bond_site_symmetry_2
P0 Zr3 2.711564 1_555
P0 Zr3 2.711564 1_455
P0 Zr1 2.724844 1_555
P0 Zr1 2.724844 1_455
P0 P4 2.779506 1_455
P0 P4 2.779506 1_555
P0 Zr2 2.820637 1_556
P1 Zr2 2.711564 1_655
P1 Zr2 2.711564 1_555
P1 Zr0 2.724844 1_555
P1 Zr0 2.724844 1_655
P1 P5 2.779506 1_555
P1 P5 2.779506 1_655
P1 Zr3 2.820637 1_554
P2 Zr1 2.711564 1_565
P2 Zr1 2.711564 1_465
P2 Zr3 2.724844 1_555
P2 Zr3 2.724844 1_455
P2 P6 2.779506 1_555
P2 P6 2.779506 1_455
P2 Zr0 2.820637 1_555
P3 Zr0 2.711564 1_545
P3 Zr0 2.711564 1_645
P3 Zr2 2.724844 1_555
P3 Zr2 2.724844 1_655
P3 P7 2.779506 1_555
P3 P7 2.779506 1_655
P3 Zr1 2.820637 1_555
P4 P5 2.352454 1_646
P4 P5 2.352454 1_546
P4 Zr1 2.717066 1_555
P4 Zr2 2.748913 1_656
P4 Zr2 2.748913 1_556
P4 Zr3 2.756503 1_545
P5 Zr0 2.717066 1_555
P5 Zr3 2.748913 1_554
P5 Zr3 2.748913 1_454
P5 Zr2 2.756503 1_565
P6 P7 2.352454 1_555
P6 P7 2.352454 1_655
P6 Zr3 2.717066 1_555
P6 Zr0 2.748913 1_655
P6 Zr0 2.748913 1_555
P6 Zr1 2.756503 1_555
P7 Zr2 2.717066 1_555
P7 Zr1 2.748913 1_455
P7 Zr1 2.748913 1_555
P7 Zr0 2.756503 1_555
