# generated using pymatgen
data_LiFe2(PO4)3
_symmetry_space_group_name_H-M   'P 1'
_cell_length_a   8.61814598
_cell_length_b   8.61814598
_cell_length_c   8.72383402
_cell_angle_alpha   59.96477970
_cell_angle_beta   59.96477970
_cell_angle_gamma   60.52057042
_symmetry_Int_Tables_number   1
_chemical_formula_structural   LiFe2(PO4)3
_chemical_formula_sum   'Li2 Fe4 P6 O24'
_cell_volume   459.69138616
_cell_formula_units_Z   2
loop_
 _symmetry_equiv_pos_site_id
 _symmetry_equiv_pos_as_xyz
  1  'x, y, z'
loop_
 _atom_site_type_symbol
 _atom_site_label
 _atom_site_symmetry_multiplicity
 _atom_site_fract_x
 _atom_site_fract_y
 _atom_site_fract_z
 _atom_site_occupancy
  Li  Li0  1  0.50000000  0.00000000  0.00000000  1
  Li  Li1  1  0.00000000  0.50000000  0.50000000  1
  Fe  Fe0  1  0.63895500  0.14034300  0.14869700  1
  Fe  Fe1  1  0.36104500  0.85965700  0.85130300  1
  Fe  Fe2  1  0.85965700  0.36104500  0.35130300  1
  Fe  Fe3  1  0.14034300  0.63895500  0.64869700  1
  P  P0  1  0.74524600  0.55002400  0.96495000  1
  P  P1  1  0.55002400  0.74524600  0.46495000  1
  P  P2  1  0.95844400  0.04155600  0.75000000  1
  P  P3  1  0.44997600  0.25475400  0.53505000  1
  P  P4  1  0.04155600  0.95844400  0.25000000  1
  P  P5  1  0.25475400  0.44997600  0.03505000  1
  O  O0  1  0.55820200  0.90477700  0.27032500  1
  O  O1  1  0.81041200  0.52687000  0.11250000  1
  O  O2  1  0.76650000  0.06215300  0.91478900  1
  O  O3  1  0.25586700  0.41521000  0.55790100  1
  O  O4  1  0.09522300  0.44179800  0.22967500  1
  O  O5  1  0.67972700  0.38568000  0.02504000  1
  O  O6  1  0.38568000  0.67972700  0.52504000  1
  O  O7  1  0.23350000  0.93784700  0.08521100  1
  O  O8  1  0.44179800  0.09522300  0.72967500  1
  O  O9  1  0.87679800  0.99075500  0.20198900  1
  O  O10  1  0.06215300  0.76650000  0.41478900  1
  O  O11  1  0.32027300  0.61432000  0.97496000  1
  O  O12  1  0.12320200  0.00924500  0.79801100  1
  O  O13  1  0.47313000  0.18958800  0.38750000  1
  O  O14  1  0.18958800  0.47313000  0.88750000  1
  O  O15  1  0.99075500  0.87679800  0.70198900  1
  O  O16  1  0.58479000  0.74413300  0.94209900  1
  O  O17  1  0.74413300  0.58479000  0.44209900  1
  O  O18  1  0.00924500  0.12320200  0.29801100  1
  O  O19  1  0.93784700  0.23350000  0.58521100  1
  O  O20  1  0.61432000  0.32027300  0.47496000  1
  O  O21  1  0.90477700  0.55820200  0.77032500  1
  O  O22  1  0.41521000  0.25586700  0.05790100  1
  O  O23  1  0.52687000  0.81041200  0.61250000  1
loop_
_geom_bond_atom_site_label_1
_geom_bond_atom_site_label_2
_geom_bond_distance
_geom_bond_site_symmetry_2
Li0 O16 2.193442 1_544
Li0 O22 2.193442 1_555
Li0 O7 2.284204 1_545
Li0 O2 2.284204 1_554
Li0 O0 2.308278 1_545
Li0 O8 2.308278 1_554
Li1 O17 2.193442 1_455
Li1 O3 2.193442 1_555
Li1 O19 2.284204 1_455
Li1 O10 2.284204 1_555
Li1 O4 2.308278 1_555
Li1 O21 2.308278 1_455
Fe0 O5 1.956047 1_555
Fe0 O9 1.957760 1_545
Fe0 O13 1.967296 1_555
Fe0 O22 2.046188 1_555
Fe0 O0 2.055872 1_545
Fe0 O2 2.056301 1_554
Fe1 O11 1.956047 1_555
Fe1 O12 1.957760 1_565
Fe1 O23 1.967296 1_555
Fe1 O16 2.046188 1_555
Fe1 O8 2.055872 1_565
Fe1 O7 2.056301 1_556
Fe2 O20 1.956047 1_555
Fe2 O18 1.957760 1_655
Fe2 O1 1.967296 1_555
Fe2 O17 2.046188 1_555
Fe2 O4 2.055872 1_655
Fe2 O19 2.056301 1_555
Fe3 O6 1.956047 1_555
Fe3 O15 1.957760 1_455
Fe3 O14 1.967296 1_555
Fe3 O3 2.046188 1_555
Fe3 O21 2.055872 1_455
Fe3 O10 2.056301 1_555
O0 P1 1.554588 1_555
O1 P0 1.538948 1_554
O2 P2 1.555769 1_555
O3 P3 1.554272 1_555
O4 P5 1.554588 1_555
O5 P0 1.532059 1_554
O6 P1 1.532059 1_555
O7 P4 1.555769 1_555
O8 P3 1.554588 1_555
O9 P4 1.535757 1_655
O10 P4 1.555769 1_555
O11 P5 1.532059 1_556
O12 P2 1.535757 1_455
O13 P3 1.538948 1_555
O14 P5 1.538948 1_556
O15 P2 1.535757 1_565
O16 P0 1.554272 1_555
O17 P1 1.554272 1_555
O18 P4 1.535757 1_545
O19 P2 1.555769 1_555
O20 P3 1.532059 1_555
O21 P0 1.554588 1_555
O22 P5 1.554272 1_555
O23 P1 1.538948 1_555
