# generated using pymatgen
data_Eu2Co2O5
_symmetry_space_group_name_H-M   'P 1'
_cell_length_a   3.89145600
_cell_length_b   3.89145600
_cell_length_c   7.55327200
_cell_angle_alpha   90.00000000
_cell_angle_beta   90.00000000
_cell_angle_gamma   90.00000000
_symmetry_Int_Tables_number   1
_chemical_formula_structural   Eu2Co2O5
_chemical_formula_sum   'Eu2 Co2 O5'
_cell_volume   114.38244429
_cell_formula_units_Z   1
loop_
 _symmetry_equiv_pos_site_id
 _symmetry_equiv_pos_as_xyz
  1  'x, y, z'
loop_
 _atom_site_type_symbol
 _atom_site_label
 _atom_site_symmetry_multiplicity
 _atom_site_fract_x
 _atom_site_fract_y
 _atom_site_fract_z
 _atom_site_occupancy
  Eu  Eu0  1  0.00000000  0.00000000  0.00000000  1
  Eu  Eu1  1  0.00000000  0.00000000  0.50000000  1
  Co  Co0  1  0.50000000  0.50000000  0.23909100  1
  Co  Co1  1  0.50000000  0.50000000  0.76090900  1
  O  O0  1  0.50000000  0.00000000  0.21144600  1
  O  O1  1  0.50000000  0.00000000  0.78855400  1
  O  O2  1  0.50000000  0.50000000  0.50000000  1
  O  O3  1  0.00000000  0.50000000  0.21144600  1
  O  O4  1  0.00000000  0.50000000  0.78855400  1
loop_
_geom_bond_atom_site_label_1
_geom_bond_atom_site_label_2
_geom_bond_distance
_geom_bond_site_symmetry_2
Eu0 O4 2.517263 1_554
Eu0 O1 2.517263 1_554
Eu0 O3 2.517263 1_545
Eu0 O4 2.517263 1_544
Eu0 O0 2.517263 1_455
Eu0 O1 2.517263 1_454
Eu0 O3 2.517263 1_555
Eu0 O0 2.517263 1_555
Eu1 O2 2.751675 1_455
Eu1 O2 2.751675 1_545
Eu1 O2 2.751675 1_555
Eu1 O2 2.751675 1_445
Eu1 O3 2.921677 1_545
Eu1 O4 2.921677 1_545
Eu1 O3 2.921677 1_555
Eu1 O4 2.921677 1_555
Eu1 O0 2.921677 1_455
Eu1 O0 2.921677 1_555
Eu1 O1 2.921677 1_455
Eu1 O1 2.921677 1_555
Co0 O3 1.956900 1_555
Co0 O0 1.956900 1_555
Co0 O0 1.956900 1_565
Co0 O3 1.956900 1_655
Co0 O2 1.970717 1_555
Co1 O1 1.956900 1_565
Co1 O4 1.956900 1_555
Co1 O1 1.956900 1_555
Co1 O4 1.956900 1_655
Co1 O2 1.970717 1_555
