# generated using pymatgen
data_Nd2Fe17C3
_symmetry_space_group_name_H-M   'P 1'
_cell_length_a   6.54117806
_cell_length_b   6.54117806
_cell_length_c   6.54117794
_cell_angle_alpha   83.83468488
_cell_angle_beta   83.83468488
_cell_angle_gamma   83.83468200
_symmetry_Int_Tables_number   1
_chemical_formula_structural   Nd2Fe17C3
_chemical_formula_sum   'Nd2 Fe17 C3'
_cell_volume   275.34519313
_cell_formula_units_Z   1
loop_
 _symmetry_equiv_pos_site_id
 _symmetry_equiv_pos_as_xyz
  1  'x, y, z'
loop_
 _atom_site_type_symbol
 _atom_site_label
 _atom_site_symmetry_multiplicity
 _atom_site_fract_x
 _atom_site_fract_y
 _atom_site_fract_z
 _atom_site_occupancy
  Nd  Nd0  1  0.65587300  0.65587300  0.65587300  1
  Nd  Nd1  1  0.34412700  0.34412700  0.34412700  1
  Fe  Fe0  1  0.00000000  0.00000000  0.50000000  1
  Fe  Fe1  1  0.50000000  0.00000000  0.00000000  1
  Fe  Fe2  1  0.00000000  0.50000000  0.00000000  1
  Fe  Fe3  1  0.71645400  0.28354600  0.00000000  1
  Fe  Fe4  1  0.00000000  0.71645400  0.28354600  1
  Fe  Fe5  1  0.28354600  0.00000000  0.71645400  1
  Fe  Fe6  1  0.00000000  0.28354600  0.71645400  1
  Fe  Fe7  1  0.71645400  0.00000000  0.28354600  1
  Fe  Fe8  1  0.28354600  0.71645400  0.00000000  1
  Fe  Fe9  1  0.34157800  0.85885300  0.34157800  1
  Fe  Fe10  1  0.34157800  0.34157800  0.85885300  1
  Fe  Fe11  1  0.85885300  0.34157800  0.34157800  1
  Fe  Fe12  1  0.65842200  0.14114700  0.65842200  1
  Fe  Fe13  1  0.65842200  0.65842200  0.14114700  1
  Fe  Fe14  1  0.14114700  0.65842200  0.65842200  1
  Fe  Fe15  1  0.90522200  0.90522200  0.90522200  1
  Fe  Fe16  1  0.09477800  0.09477800  0.09477800  1
  C  C0  1  0.50000000  0.50000000  0.00000000  1
  C  C1  1  0.00000000  0.50000000  0.50000000  1
  C  C2  1  0.50000000  0.00000000  0.50000000  1
loop_
_geom_bond_atom_site_label_1
_geom_bond_atom_site_label_2
_geom_bond_distance
_geom_bond_site_symmetry_2
Fe0 Fe7 2.451272 1_455
Fe0 Fe4 2.451272 1_545
Fe0 Fe6 2.451272 1_555
Fe0 Fe5 2.451272 1_555
Fe0 Fe9 2.486675 1_545
Fe0 Fe11 2.486675 1_455
Fe0 Fe12 2.486675 1_455
Fe0 Fe14 2.486675 1_545
Fe0 Fe16 2.677901 1_555
Fe0 Fe15 2.677901 1_445
Fe0 Nd0 3.357968 1_445
Fe0 Nd1 3.357968 1_555
Fe1 Fe5 2.451272 1_554
Fe1 Fe7 2.451272 1_555
Fe1 Fe8 2.451272 1_545
Fe1 Fe3 2.451272 1_555
Fe1 Fe10 2.486675 1_554
Fe1 Fe13 2.486675 1_545
Fe1 Fe9 2.486675 1_545
Fe1 Fe12 2.486675 1_554
Fe1 Fe15 2.677901 1_544
Fe1 Fe16 2.677901 1_555
Fe1 Nd0 3.357968 1_544
Fe1 Nd1 3.357968 1_555
Fe2 Fe6 2.451272 1_554
Fe2 Fe4 2.451272 1_555
Fe2 Fe3 2.451272 1_455
Fe2 Fe8 2.451272 1_555
Fe2 Nd0 3.357968 1_454
Fe2 Nd1 3.357968 1_555
Fe10 Fe2 2.486675 1_556
Fe10 Fe16 2.661471 1_556
Fe11 Fe2 2.486675 1_655
Fe11 Fe16 2.661471 1_655
Fe12 Fe15 2.661471 1_545
Fe13 Fe2 2.486675 1_655
Fe13 Fe15 2.661471 1_554
Fe14 Fe2 2.486675 1_556
Fe14 Fe15 2.661471 1_455
Fe15 Fe16 2.367040 1_666
Fe15 Fe2 2.677901 1_656
Fe15 Fe3 2.746240 1_566
Fe15 Fe8 2.746240 1_656
Fe15 Fe4 2.746240 1_656
Fe15 Fe7 2.746240 1_566
Fe15 Fe6 2.746240 1_665
Fe15 Fe5 2.746240 1_665
Fe15 Nd0 3.113693 1_555
Fe16 Fe9 2.661471 1_545
Fe16 Fe2 2.677901 1_555
Fe16 Fe3 2.746240 1_455
Fe16 Fe8 2.746240 1_545
Fe16 Fe6 2.746240 1_554
Fe16 Fe5 2.746240 1_554
Fe16 Fe4 2.746240 1_545
Fe16 Fe7 2.746240 1_455
Fe16 Nd1 3.113693 1_555
C0 Fe3 1.891758 1_555
C0 Fe8 1.891758 1_555
C0 Fe13 1.908347 1_555
C0 Fe10 1.908347 1_554
C0 Nd0 2.526552 1_554
C0 Nd1 2.526552 1_555
C1 Fe4 1.891758 1_555
C1 Fe6 1.891758 1_555
C1 Fe14 1.908347 1_555
C1 Fe11 1.908347 1_455
C1 Nd1 2.526552 1_555
C1 Nd0 2.526552 1_455
C2 Fe7 1.891758 1_555
C2 Fe5 1.891758 1_555
C2 Fe12 1.908347 1_555
C2 Fe9 1.908347 1_545
C2 Nd0 2.526552 1_545
C2 Nd1 2.526552 1_555
