# generated using pymatgen
data_SrCa7Mn6(FeO12)2
_symmetry_space_group_name_H-M   'P 1'
_cell_length_a   7.67731996
_cell_length_b   7.67731996
_cell_length_c   7.63125900
_cell_angle_alpha   90.00000000
_cell_angle_beta   90.00000000
_cell_angle_gamma   90.00582595
_symmetry_Int_Tables_number   1
_chemical_formula_structural   SrCa7Mn6(FeO12)2
_chemical_formula_sum   'Sr1 Ca7 Mn6 Fe2 O24'
_cell_volume   449.79587971
_cell_formula_units_Z   1
loop_
 _symmetry_equiv_pos_site_id
 _symmetry_equiv_pos_as_xyz
  1  'x, y, z'
loop_
 _atom_site_type_symbol
 _atom_site_label
 _atom_site_symmetry_multiplicity
 _atom_site_fract_x
 _atom_site_fract_y
 _atom_site_fract_z
 _atom_site_occupancy
  Sr  Sr0  1  0.74991600  0.74991600  0.00000000  1
  Ca  Ca0  1  0.74974500  0.25027200  0.50000000  1
  Ca  Ca1  1  0.74971400  0.25019800  0.00000000  1
  Ca  Ca2  1  0.25020300  0.25020300  0.50000000  1
  Ca  Ca3  1  0.25026300  0.25026300  0.00000000  1
  Ca  Ca4  1  0.74975100  0.74975100  0.50000000  1
  Ca  Ca5  1  0.25027200  0.74974500  0.50000000  1
  Ca  Ca6  1  0.25019800  0.74971400  0.00000000  1
  Mn  Mn0  1  0.49952100  0.00059500  0.74945100  1
  Mn  Mn1  1  0.49952100  0.00059500  0.25054900  1
  Mn  Mn2  1  0.00059500  0.49952100  0.74945100  1
  Mn  Mn3  1  0.00059500  0.49952100  0.25054900  1
  Mn  Mn4  1  0.49949300  0.49949300  0.74946700  1
  Mn  Mn5  1  0.49949300  0.49949300  0.25053300  1
  Fe  Fe0  1  0.00060900  0.00060900  0.74947000  1
  Fe  Fe1  1  0.00060900  0.00060900  0.25053000  1
  O  O0  1  0.00044100  0.25361500  0.74954600  1
  O  O1  1  0.00044100  0.25361500  0.25045400  1
  O  O2  1  0.49972600  0.25058300  0.74970600  1
  O  O3  1  0.49972600  0.25058300  0.25029400  1
  O  O4  1  0.00246900  0.74637300  0.74758700  1
  O  O5  1  0.00246900  0.74637300  0.25241300  1
  O  O6  1  0.49726200  0.74941100  0.74733100  1
  O  O7  1  0.49726200  0.74941100  0.25266900  1
  O  O8  1  0.74637300  0.00246900  0.74758700  1
  O  O9  1  0.74637300  0.00246900  0.25241300  1
  O  O10  1  0.25361500  0.00044100  0.74954600  1
  O  O11  1  0.25361500  0.00044100  0.25045400  1
  O  O12  1  0.74941100  0.49726200  0.74733100  1
  O  O13  1  0.74941100  0.49726200  0.25266900  1
  O  O14  1  0.25058300  0.49972600  0.74970600  1
  O  O15  1  0.25058300  0.49972600  0.25029400  1
  O  O16  1  0.00044600  0.00044600  0.50000000  1
  O  O17  1  0.00230900  0.00230900  0.00000000  1
  O  O18  1  0.49957100  0.00024400  0.50000000  1
  O  O19  1  0.49745000  0.00262000  0.00000000  1
  O  O20  1  0.00024400  0.49957100  0.50000000  1
  O  O21  1  0.00262000  0.49745000  0.00000000  1
  O  O22  1  0.49973200  0.49973200  0.50000000  1
  O  O23  1  0.49736800  0.49736800  0.00000000  1
loop_
_geom_bond_atom_site_label_1
_geom_bond_atom_site_label_2
_geom_bond_distance
_geom_bond_site_symmetry_2
Ca0 O12 2.675466 1_555
Ca0 O13 2.675466 1_555
Ca0 O8 2.681391 1_555
Ca0 O9 2.681391 1_555
Ca0 O2 2.704736 1_555
Ca0 O3 2.704736 1_555
Ca0 O0 2.707686 1_655
Ca0 O1 2.707686 1_655
Ca0 O22 2.711621 1_555
Ca0 O20 2.713116 1_655
Ca0 O18 2.715301 1_555
Ca0 O16 2.717346 1_655
Ca1 O12 2.704756 1_554
Ca1 O13 2.704756 1_555
Ca1 O8 2.707067 1_554
Ca1 O9 2.707067 1_555
Ca1 O3 2.707731 1_555
Ca1 O2 2.707731 1_554
Ca1 O23 2.711998 1_555
Ca1 O1 2.712739 1_655
Ca1 O0 2.712739 1_654
Ca1 O19 2.713466 1_555
Ca1 O21 2.715236 1_655
Ca1 O17 2.717228 1_655
Ca2 O2 2.702035 1_555
Ca2 O14 2.702035 1_555
Ca2 O15 2.702035 1_555
Ca2 O3 2.702035 1_555
Ca2 O10 2.702603 1_555
Ca2 O0 2.702603 1_555
Ca2 O11 2.702603 1_555
Ca2 O1 2.702603 1_555
Ca2 O22 2.709091 1_555
Ca2 O18 2.710829 1_555
Ca2 O20 2.710829 1_555
Ca2 O16 2.711566 1_555
Ca3 O23 2.682774 1_555
Ca3 O19 2.686414 1_555
Ca3 O21 2.686414 1_555
Ca3 O17 2.691991 1_555
Ca3 O3 2.704875 1_555
Ca3 O15 2.704875 1_555
Ca3 O14 2.704875 1_554
Ca3 O2 2.704875 1_554
Ca3 O1 2.707812 1_555
Ca3 O11 2.707812 1_555
Ca3 O10 2.707812 1_554
Ca3 O0 2.707812 1_554
Ca4 O6 2.705551 1_555
Ca4 O12 2.705551 1_555
Ca4 O7 2.705551 1_555
Ca4 O13 2.705551 1_555
Ca4 O9 2.708299 1_565
Ca4 O4 2.708299 1_655
Ca4 O8 2.708299 1_565
Ca4 O5 2.708299 1_655
Ca4 O22 2.714411 1_555
Ca4 O20 2.718135 1_655
Ca4 O18 2.718135 1_565
Ca4 O16 2.721750 1_665
Ca5 O6 2.675466 1_555
Ca5 O7 2.675466 1_555
Ca5 O4 2.681391 1_555
Ca5 O5 2.681391 1_555
Ca5 O14 2.704736 1_555
Ca5 O15 2.704736 1_555
Ca5 O10 2.707686 1_565
Ca5 O11 2.707686 1_565
Ca5 O22 2.711621 1_555
Ca5 O18 2.713116 1_565
Ca5 O20 2.715301 1_555
Ca5 O16 2.717346 1_565
Ca6 O7 2.704756 1_555
Ca6 O6 2.704756 1_554
Ca6 O4 2.707067 1_554
Ca6 O5 2.707067 1_555
Ca6 O15 2.707731 1_555
Ca6 O14 2.707731 1_554
Ca6 O23 2.711998 1_555
Ca6 O11 2.712739 1_565
Ca6 O10 2.712739 1_564
Ca6 O21 2.713466 1_555
Ca6 O19 2.715236 1_565
Ca6 O17 2.717228 1_565
Mn0 O10 1.887899 1_555
Mn0 O8 1.895268 1_555
Mn0 O18 1.903627 1_555
Mn0 O19 1.912134 1_556
Mn0 O2 1.919239 1_555
Mn0 O6 1.928564 1_545
Mn1 O11 1.887899 1_555
Mn1 O9 1.895268 1_555
Mn1 O18 1.903627 1_555
Mn1 O19 1.912134 1_555
Mn1 O3 1.919239 1_555
Mn1 O7 1.928564 1_545
Mn2 O0 1.887899 1_555
Mn2 O4 1.895268 1_555
Mn2 O20 1.903627 1_555
Mn2 O21 1.912134 1_556
Mn2 O14 1.919239 1_555
Mn2 O12 1.928564 1_455
Mn3 O1 1.887899 1_555
Mn3 O5 1.895268 1_555
Mn3 O20 1.903627 1_555
Mn3 O21 1.912134 1_555
Mn3 O15 1.919239 1_555
Mn3 O13 1.928564 1_455
Mn4 O22 1.903749 1_555
Mn4 O14 1.910964 1_555
Mn4 O2 1.910964 1_555
Mn4 O23 1.912021 1_556
Mn4 O6 1.918848 1_555
Mn4 O12 1.918848 1_555
Mn5 O22 1.903749 1_555
Mn5 O15 1.910964 1_555
Mn5 O3 1.910964 1_555
Mn5 O23 1.912021 1_555
Mn5 O7 1.918848 1_555
Mn5 O13 1.918848 1_555
Fe0 O16 1.903771 1_555
Fe0 O17 1.911948 1_556
Fe0 O10 1.942409 1_555
Fe0 O0 1.942409 1_555
Fe0 O4 1.951958 1_545
Fe0 O8 1.951958 1_455
Fe1 O16 1.903771 1_555
Fe1 O17 1.911948 1_555
Fe1 O11 1.942409 1_555
Fe1 O1 1.942409 1_555
Fe1 O9 1.951958 1_455
Fe1 O5 1.951958 1_545
O4 Sr0 2.733232 1_456
O5 Sr0 2.733232 1_455
O6 Sr0 2.735025 1_556
O7 Sr0 2.735025 1_555
O8 Sr0 2.733232 1_546
O9 Sr0 2.733232 1_545
O12 Sr0 2.735025 1_556
O13 Sr0 2.735025 1_555
O17 Sr0 2.740185 1_445
O19 Sr0 2.742549 1_545
O21 Sr0 2.742549 1_455
O23 Sr0 2.741868 1_555
