# generated using pymatgen
data_Sr2Ca6TiMn7O20
_symmetry_space_group_name_H-M   'P 1'
_cell_length_a   10.94783871
_cell_length_b   11.18284986
_cell_length_c   17.30870167
_cell_angle_alpha   108.76857573
_cell_angle_beta   108.33810850
_cell_angle_gamma   89.99692177
_symmetry_Int_Tables_number   1
_chemical_formula_structural   Sr2Ca6TiMn7O20
_chemical_formula_sum   'Sr8 Ca24 Ti4 Mn28 O80'
_cell_volume   1892.39261826
_cell_formula_units_Z   4
loop_
 _symmetry_equiv_pos_site_id
 _symmetry_equiv_pos_as_xyz
  1  'x, y, z'
loop_
 _atom_site_type_symbol
 _atom_site_label
 _atom_site_symmetry_multiplicity
 _atom_site_fract_x
 _atom_site_fract_y
 _atom_site_fract_z
 _atom_site_occupancy
  Sr  Sr0  1  0.31057300  0.56140200  0.61011200  1
  Sr  Sr1  1  0.80724600  0.06045600  0.60841200  1
  Sr  Sr2  1  0.20112600  0.44042400  0.89050500  1
  Sr  Sr3  1  0.05744700  0.29734100  0.60792000  1
  Sr  Sr4  1  0.06000500  0.80055200  0.60952600  1
  Sr  Sr5  1  0.56068600  0.30128000  0.61071100  1
  Sr  Sr6  1  0.44717400  0.20283200  0.88910700  1
  Sr  Sr7  1  0.94638800  0.19837800  0.38567500  1
  Ca  Ca0  1  0.30539000  0.06822200  0.11303200  1
  Ca  Ca1  1  0.30669800  0.06141400  0.60230700  1
  Ca  Ca2  1  0.31033100  0.56650700  0.11182000  1
  Ca  Ca3  1  0.80459600  0.06744100  0.10992000  1
  Ca  Ca4  1  0.80291600  0.56254300  0.11088900  1
  Ca  Ca5  1  0.80405100  0.56428600  0.60508900  1
  Ca  Ca6  1  0.20124800  0.43485500  0.39308100  1
  Ca  Ca7  1  0.19842300  0.93341100  0.39206200  1
  Ca  Ca8  1  0.19481500  0.93657100  0.89236500  1
  Ca  Ca9  1  0.69847300  0.43480500  0.39274800  1
  Ca  Ca10  1  0.69540700  0.43043000  0.89194700  1
  Ca  Ca11  1  0.69959800  0.93331800  0.39148000  1
  Ca  Ca12  1  0.69567500  0.94147500  0.88938500  1
  Ca  Ca13  1  0.05732800  0.29576900  0.11269600  1
  Ca  Ca14  1  0.05800300  0.79243500  0.11103400  1
  Ca  Ca15  1  0.55539200  0.29629000  0.11152900  1
  Ca  Ca16  1  0.55163000  0.79086400  0.11121300  1
  Ca  Ca17  1  0.55809400  0.79277100  0.60543800  1
  Ca  Ca18  1  0.44988700  0.20691500  0.39219600  1
  Ca  Ca19  1  0.44868000  0.70517200  0.39178700  1
  Ca  Ca20  1  0.43851700  0.70401700  0.89097900  1
  Ca  Ca21  1  0.94974100  0.20701600  0.89225000  1
  Ca  Ca22  1  0.94872400  0.70572100  0.39161400  1
  Ca  Ca23  1  0.95061200  0.70744800  0.89120500  1
  Ti  Ti0  1  0.00735500  0.00172500  0.00226000  1
  Ti  Ti1  1  0.00608000  0.50083000  0.00200500  1
  Ti  Ti2  1  0.50595800  0.00138400  0.00296100  1
  Ti  Ti3  1  0.75235200  0.74982800  0.99750100  1
  Mn  Mn0  1  0.00450600  0.99778000  0.49714600  1
  Mn  Mn1  1  0.00302000  0.50009300  0.49660300  1
  Mn  Mn2  1  0.50350600  0.99772300  0.49695600  1
  Mn  Mn3  1  0.50799800  0.50144000  0.00214400  1
  Mn  Mn4  1  0.50538500  0.50132700  0.49796800  1
  Mn  Mn5  1  0.25595400  0.25144800  0.00316300  1
  Mn  Mn6  1  0.25535900  0.24823900  0.49651400  1
  Mn  Mn7  1  0.25636000  0.75347600  0.00329900  1
  Mn  Mn8  1  0.25661000  0.74936100  0.49744600  1
  Mn  Mn9  1  0.75696400  0.24996800  0.00198300  1
  Mn  Mn10  1  0.75368600  0.24968900  0.49742600  1
  Mn  Mn11  1  0.75419000  0.74745500  0.49627000  1
  Mn  Mn12  1  0.11384100  0.08931600  0.24805400  1
  Mn  Mn13  1  0.10760500  0.09327400  0.75179800  1
  Mn  Mn14  1  0.11102600  0.59373700  0.25092300  1
  Mn  Mn15  1  0.10380000  0.59881600  0.74750900  1
  Mn  Mn16  1  0.60756000  0.09037100  0.24977700  1
  Mn  Mn17  1  0.60538000  0.09289200  0.74510600  1
  Mn  Mn18  1  0.61038900  0.59182300  0.25031700  1
  Mn  Mn19  1  0.61637400  0.60329200  0.75400200  1
  Mn  Mn20  1  0.35702500  0.40414600  0.25225800  1
  Mn  Mn21  1  0.36822900  0.40677300  0.75108200  1
  Mn  Mn22  1  0.35679900  0.90404500  0.25326000  1
  Mn  Mn23  1  0.36800500  0.90612600  0.75008400  1
  Mn  Mn24  1  0.85699700  0.40750500  0.25197700  1
  Mn  Mn25  1  0.85947600  0.40988600  0.75218800  1
  Mn  Mn26  1  0.85618900  0.89566900  0.24558900  1
  Mn  Mn27  1  0.85900100  0.90169100  0.75087300  1
  O  O0  1  0.12791400  0.11855800  0.48999700  1
  O  O1  1  0.12336500  0.12081900  0.98614700  1
  O  O2  1  0.12202400  0.62077000  0.48475600  1
  O  O3  1  0.12169700  0.62602200  0.99035400  1
  O  O4  1  0.61978500  0.11738900  0.48363500  1
  O  O5  1  0.62968900  0.11737400  0.99080300  1
  O  O6  1  0.62177900  0.61752400  0.48398000  1
  O  O7  1  0.62676200  0.62330100  0.98565300  1
  O  O8  1  0.13924600  0.38195800  0.01873600  1
  O  O9  1  0.13186700  0.37838800  0.50414200  1
  O  O10  1  0.13968300  0.88432000  0.01585900  1
  O  O11  1  0.13608600  0.87928800  0.50547900  1
  O  O12  1  0.64179800  0.37586300  0.01437900  1
  O  O13  1  0.63404600  0.38182000  0.50665100  1
  O  O14  1  0.64089700  0.88090500  0.01873300  1
  O  O15  1  0.63033400  0.87372900  0.50616900  1
  O  O16  1  0.37203800  0.11358500  0.48510300  1
  O  O17  1  0.37357900  0.11677800  0.99185900  1
  O  O18  1  0.37463300  0.61712300  0.48409500  1
  O  O19  1  0.37482200  0.62955900  0.99443900  1
  O  O20  1  0.87154500  0.11457800  0.48656400  1
  O  O21  1  0.87577800  0.11775100  0.98906700  1
  O  O22  1  0.87112000  0.61582500  0.48389300  1
  O  O23  1  0.87465900  0.61799600  0.98841000  1
  O  O24  1  0.38616600  0.38231100  0.01714800  1
  O  O25  1  0.38454200  0.37948900  0.50533400  1
  O  O26  1  0.38702200  0.88392000  0.01322300  1
  O  O27  1  0.38749900  0.88200400  0.51155000  1
  O  O28  1  0.88616100  0.38272300  0.01252900  1
  O  O29  1  0.88078900  0.38490400  0.50766200  1
  O  O30  1  0.89264000  0.88777600  0.01974800  1
  O  O31  1  0.88348200  0.87703700  0.50339000  1
  O  O32  1  0.08632500  0.09717700  0.12843100  1
  O  O33  1  0.07417300  0.07866200  0.63355500  1
  O  O34  1  0.07739100  0.59299200  0.12842500  1
  O  O35  1  0.06970100  0.58439200  0.62959400  1
  O  O36  1  0.58052400  0.09399200  0.12907200  1
  O  O37  1  0.57430000  0.08338800  0.62863900  1
  O  O38  1  0.58282500  0.59280800  0.12967900  1
  O  O39  1  0.57794600  0.59142000  0.62865700  1
  O  O40  1  0.44378800  0.40880200  0.36660000  1
  O  O41  1  0.44743700  0.41627400  0.87306800  1
  O  O42  1  0.44329400  0.90743000  0.36764900  1
  O  O43  1  0.46002500  0.90881100  0.87475700  1
  O  O44  1  0.94355300  0.41504700  0.36613500  1
  O  O45  1  0.95364600  0.40828400  0.87489500  1
  O  O46  1  0.94526400  0.90865300  0.36222300  1
  O  O47  1  0.95214300  0.90627800  0.87482200  1
  O  O48  1  0.33473100  0.28952200  0.14164100  1
  O  O49  1  0.32456300  0.29232200  0.62826700  1
  O  O50  1  0.33380500  0.79260800  0.14206900  1
  O  O51  1  0.32573300  0.79058400  0.62657000  1
  O  O52  1  0.83903100  0.29169300  0.14172100  1
  O  O53  1  0.82035000  0.29451200  0.62759100  1
  O  O54  1  0.83073600  0.78230400  0.13167300  1
  O  O55  1  0.82128400  0.78753000  0.62611500  1
  O  O56  1  0.19698100  0.21136500  0.36852500  1
  O  O57  1  0.19165400  0.20634300  0.86273500  1
  O  O58  1  0.20249300  0.71499600  0.37042900  1
  O  O59  1  0.19204600  0.71075300  0.86075400  1
  O  O60  1  0.69354800  0.21362000  0.36955800  1
  O  O61  1  0.69084700  0.20322200  0.85930300  1
  O  O62  1  0.69708400  0.71310300  0.36916300  1
  O  O63  1  0.71156900  0.72718900  0.87627500  1
  O  O64  1  0.41883300  0.06836600  0.25041500  1
  O  O65  1  0.42410700  0.07850300  0.74191600  1
  O  O66  1  0.42144800  0.56774400  0.24963300  1
  O  O67  1  0.43449000  0.57999300  0.75845200  1
  O  O68  1  0.92312500  0.05361700  0.23969800  1
  O  O69  1  0.93019700  0.07897000  0.75696300  1
  O  O70  1  0.92023800  0.57075500  0.24939800  1
  O  O71  1  0.92406300  0.58579800  0.75029900  1
  O  O72  1  0.17537900  0.41801400  0.25109700  1
  O  O73  1  0.18271300  0.44314000  0.74947200  1
  O  O74  1  0.17517200  0.91395800  0.25012100  1
  O  O75  1  0.18497900  0.93746400  0.75935000  1
  O  O76  1  0.67507600  0.41687400  0.25010900  1
  O  O77  1  0.67755200  0.43239200  0.76011900  1
  O  O78  1  0.67490000  0.91569200  0.24924800  1
  O  O79  1  0.66963500  0.92777200  0.74915600  1
loop_
_geom_bond_atom_site_label_1
_geom_bond_atom_site_label_2
_geom_bond_distance
_geom_bond_site_symmetry_2
Ca0 O64 2.310013 1_555
Ca0 O48 2.363105 1_555
Ca0 O10 2.490774 1_545
Ca0 O32 2.504853 1_555
Ca0 O26 2.590578 1_545
Ca0 O17 2.639908 1_554
Ca0 O1 2.686572 1_554
Ca0 O36 2.942007 1_555
Ca1 O65 2.297028 1_555
Ca1 O49 2.471050 1_555
Ca1 O27 2.474189 1_545
Ca1 O11 2.505962 1_545
Ca1 O0 2.534426 1_555
Ca1 O16 2.577264 1_555
Ca1 O33 2.758486 1_555
Ca1 O37 2.817595 1_555
Ca2 O66 2.307127 1_555
Ca2 O50 2.407650 1_555
Ca2 O24 2.510228 1_555
Ca2 O8 2.514968 1_555
Ca2 O19 2.635914 1_554
Ca2 O34 2.660854 1_555
Ca2 O3 2.701131 1_554
Ca2 O38 2.905681 1_555
Ca3 O68 2.267782 1_555
Ca3 O52 2.390672 1_555
Ca3 O14 2.481171 1_545
Ca3 O30 2.516021 1_545
Ca3 O5 2.546722 1_554
Ca3 O36 2.581483 1_555
Ca3 O21 2.661314 1_554
Ca3 O32 3.005994 1_655
Ca4 O70 2.307912 1_555
Ca4 O54 2.371493 1_555
Ca4 O12 2.482371 1_555
Ca4 O38 2.539351 1_555
Ca4 O28 2.558484 1_555
Ca4 O7 2.682668 1_554
Ca4 O23 2.718346 1_554
Ca4 O34 2.932104 1_655
Ca5 O71 2.373667 1_555
Ca5 O55 2.402659 1_555
Ca5 O29 2.507597 1_555
Ca5 O13 2.509667 1_555
Ca5 O6 2.627056 1_555
Ca5 O39 2.634684 1_555
Ca5 O22 2.649365 1_555
Ca5 O35 2.801985 1_655
Ca6 O72 2.327979 1_555
Ca6 O56 2.394383 1_555
Ca6 O18 2.508371 1_555
Ca6 O2 2.517050 1_555
Ca6 O9 2.524079 1_555
Ca6 O25 2.550641 1_555
Ca6 O44 2.707656 1_455
Ca6 O40 2.832904 1_555
Ca7 O74 2.326075 1_555
Ca7 O58 2.351590 1_555
Ca7 O16 2.500428 1_565
Ca7 O11 2.508681 1_555
Ca7 O0 2.514140 1_565
Ca7 O27 2.638890 1_555
Ca7 O46 2.651829 1_455
Ca7 O42 2.843136 1_555
Ca8 O75 2.274016 1_555
Ca8 O59 2.403711 1_555
Ca8 O1 2.477645 1_565
Ca8 O17 2.550182 1_565
Ca8 O47 2.586790 1_455
Ca8 O10 2.624939 1_556
Ca8 O26 2.678273 1_556
Ca8 O43 3.019151 1_555
Ca9 O76 2.341958 1_555
Ca9 O60 2.372685 1_555
Ca9 O6 2.476192 1_555
Ca9 O22 2.495651 1_555
Ca9 O13 2.522344 1_555
Ca9 O29 2.543120 1_555
Ca9 O40 2.680497 1_555
Ca9 O44 2.858699 1_555
Ca10 O77 2.235336 1_555
Ca10 O61 2.415786 1_555
Ca10 O7 2.522526 1_555
Ca10 O23 2.592974 1_555
Ca10 O12 2.611961 1_556
Ca10 O41 2.628723 1_555
Ca10 O28 2.641138 1_556
Ca10 O45 2.935852 1_555
Ca11 O78 2.332715 1_555
Ca11 O62 2.365525 1_555
Ca11 O20 2.503037 1_565
Ca11 O4 2.511760 1_565
Ca11 O31 2.555677 1_555
Ca11 O15 2.599663 1_555
Ca11 O42 2.705992 1_555
Ca11 O46 2.886702 1_555
Ca12 O79 2.306778 1_555
Ca12 O63 2.345005 1_555
Ca12 O5 2.459364 1_565
Ca12 O43 2.526414 1_555
Ca12 O21 2.534098 1_565
Ca12 O14 2.766153 1_556
Ca12 O30 2.812818 1_556
Ca12 O47 2.912631 1_555
Ca13 O72 2.285270 1_555
Ca13 O32 2.332756 1_555
Ca13 O8 2.510930 1_555
Ca13 O28 2.550158 1_455
Ca13 O52 2.595427 1_455
Ca13 O21 2.659975 1_454
Ca13 O1 2.717880 1_554
Ca13 O48 2.923032 1_555
Ca14 O74 2.289026 1_555
Ca14 O34 2.345602 1_555
Ca14 O30 2.488897 1_455
Ca14 O10 2.566229 1_555
Ca14 O3 2.593761 1_554
Ca14 O54 2.629900 1_455
Ca14 O23 2.644711 1_454
Ca14 O50 2.895560 1_555
Ca15 O76 2.286885 1_555
Ca15 O36 2.382259 1_555
Ca15 O24 2.476490 1_555
Ca15 O12 2.545220 1_555
Ca15 O48 2.632672 1_555
Ca15 O17 2.648134 1_554
Ca15 O5 2.722172 1_554
Ca15 O52 2.985695 1_555
Ca16 O78 2.302897 1_555
Ca16 O38 2.347559 1_555
Ca16 O19 2.505658 1_554
Ca16 O26 2.533659 1_555
Ca16 O14 2.559855 1_555
Ca16 O50 2.601382 1_555
Ca16 O7 2.723067 1_554
Ca16 O54 2.968533 1_555
Ca17 O79 2.372867 1_555
Ca17 O39 2.409586 1_555
Ca17 O15 2.500709 1_555
Ca17 O27 2.501649 1_555
Ca17 O18 2.644772 1_555
Ca17 O6 2.649028 1_555
Ca17 O51 2.682687 1_555
Ca17 O55 2.792554 1_555
Ca18 O64 2.359414 1_555
Ca18 O40 2.433686 1_555
Ca18 O4 2.476673 1_555
Ca18 O16 2.518767 1_555
Ca18 O25 2.553524 1_555
Ca18 O13 2.609377 1_555
Ca18 O56 2.671280 1_555
Ca18 O60 2.819873 1_555
Ca19 O66 2.368540 1_555
Ca19 O42 2.426198 1_555
Ca19 O18 2.450887 1_555
Ca19 O6 2.490332 1_555
Ca19 O15 2.559127 1_555
Ca19 O58 2.609992 1_555
Ca19 O27 2.625242 1_555
Ca19 O62 2.872159 1_555
Ca20 O67 2.253112 1_555
Ca20 O43 2.415505 1_555
Ca20 O19 2.476229 1_555
Ca20 O7 2.563944 1_555
Ca20 O59 2.587931 1_555
Ca20 O26 2.617920 1_556
Ca20 O14 2.795433 1_556
Ca21 O69 2.259771 1_555
Ca21 O45 2.366664 1_555
Ca21 O1 2.499522 1_655
Ca21 O21 2.527995 1_555
Ca21 O28 2.637979 1_556
Ca21 O8 2.703859 1_656
Ca21 O61 2.706991 1_555
Ca21 O57 2.850278 1_655
Ca22 O70 2.358147 1_555
Ca22 O46 2.478099 1_555
Ca22 O2 2.482305 1_655
Ca22 O22 2.484109 1_555
Ca22 O31 2.531364 1_555
Ca22 O11 2.618036 1_655
Ca22 O62 2.663522 1_555
Ca22 O58 2.920492 1_655
Ca23 O71 2.302682 1_555
Ca23 O47 2.330945 1_555
Ca23 O3 2.503042 1_655
Ca23 O23 2.546825 1_555
Ca23 O63 2.564240 1_555
Ca23 O10 2.701118 1_656
Ca23 O30 2.724129 1_556
Ca23 O59 2.855651 1_655
Mn0 O31 1.942821 1_455
Mn0 O11 1.960552 1_555
Mn0 O20 1.960710 1_465
Mn0 O0 1.969219 1_565
Mn0 O46 2.101677 1_455
Mn0 O33 2.113563 1_565
Mn1 O22 1.947228 1_455
Mn1 O29 1.951068 1_455
Mn1 O9 1.964028 1_555
Mn1 O2 1.976609 1_555
Mn1 O44 2.029997 1_455
Mn1 O35 2.065587 1_555
Mn2 O27 1.940047 1_555
Mn2 O16 1.943565 1_565
Mn2 O4 1.961613 1_565
Mn2 O15 1.969460 1_555
Mn2 O42 2.020101 1_555
Mn2 O37 2.048631 1_565
Mn3 O38 1.999692 1_555
Mn3 O41 2.009177 1_554
Mn3 O24 2.015442 1_555
Mn3 O7 2.028089 1_554
Mn3 O12 2.039260 1_555
Mn3 O19 2.048567 1_554
Mn4 O18 1.940917 1_555
Mn4 O6 1.941030 1_555
Mn4 O13 1.946409 1_555
Mn4 O25 1.959850 1_555
Mn4 O39 2.041037 1_555
Mn4 O40 2.053491 1_555
Mn5 O1 1.944758 1_554
Mn5 O24 1.946150 1_555
Mn5 O8 1.949000 1_555
Mn5 O17 1.983254 1_554
Mn5 O48 2.170869 1_555
Mn5 O57 2.189144 1_554
Mn6 O0 1.964293 1_555
Mn6 O25 1.974321 1_555
Mn6 O16 1.976199 1_555
Mn6 O9 1.987966 1_555
Mn6 O56 2.001860 1_555
Mn6 O49 2.051101 1_555
Mn7 O19 1.901045 1_554
Mn7 O10 1.946725 1_555
Mn7 O3 1.960106 1_554
Mn7 O26 1.971806 1_555
Mn7 O50 2.172977 1_555
Mn7 O59 2.227062 1_554
Mn8 O11 1.963840 1_555
Mn8 O27 1.964763 1_555
Mn8 O18 1.969146 1_555
Mn8 O2 1.969884 1_555
Mn8 O58 1.992193 1_555
Mn8 O51 2.013221 1_555
Mn9 O12 1.895636 1_555
Mn9 O5 1.955382 1_554
Mn9 O21 1.974377 1_554
Mn9 O28 1.975167 1_555
Mn9 O52 2.186638 1_555
Mn9 O61 2.222750 1_554
Mn10 O13 1.975841 1_555
Mn10 O29 1.981612 1_555
Mn10 O4 1.986857 1_555
Mn10 O20 1.988156 1_555
Mn10 O60 2.000802 1_555
Mn10 O53 2.024480 1_555
Mn11 O22 1.954699 1_555
Mn11 O15 1.962728 1_555
Mn11 O6 1.965993 1_555
Mn11 O31 1.973361 1_555
Mn11 O62 1.992325 1_555
Mn11 O55 2.025965 1_555
Mn12 O56 2.003452 1_555
Mn12 O32 2.027355 1_555
Mn12 O68 2.076692 1_455
Mn12 O74 2.080272 1_545
Mn13 O57 1.859711 1_555
Mn13 O33 1.913848 1_555
Mn13 O75 1.961457 1_545
Mn13 O69 1.980997 1_455
Mn14 O58 2.003003 1_555
Mn14 O34 2.031896 1_555
Mn14 O72 2.088120 1_555
Mn14 O70 2.095348 1_455
Mn15 O59 1.889979 1_555
Mn15 O35 1.907776 1_555
Mn15 O73 1.948767 1_555
Mn15 O71 1.989935 1_455
Mn16 O60 2.004359 1_555
Mn16 O36 2.029660 1_555
Mn16 O64 2.084664 1_555
Mn16 O78 2.086140 1_545
Mn17 O61 1.889911 1_555
Mn17 O37 1.903001 1_555
Mn17 O65 1.973002 1_555
Mn17 O79 1.990350 1_545
Mn18 O62 1.986982 1_555
Mn18 O38 2.017324 1_555
Mn18 O76 2.079921 1_555
Mn18 O66 2.081807 1_555
Mn19 O39 2.035171 1_555
Mn19 O67 2.036743 1_555
Mn19 O77 2.048838 1_555
Mn19 O63 2.051887 1_555
Mn20 O48 1.869540 1_555
Mn20 O40 1.890137 1_555
Mn20 O66 1.979984 1_555
Mn20 O72 1.988953 1_555
Mn21 O41 1.981132 1_555
Mn21 O49 1.998841 1_555
Mn21 O67 2.019342 1_555
Mn21 O73 2.064635 1_555
Mn22 O50 1.863374 1_555
Mn22 O42 1.894794 1_555
Mn22 O74 1.976092 1_555
Mn22 O64 1.979836 1_565
Mn23 O51 2.013483 1_555
Mn23 O43 2.064658 1_555
Mn23 O75 2.080741 1_555
Mn23 O65 2.084048 1_565
Mn24 O44 1.877211 1_555
Mn24 O52 1.879184 1_555
Mn24 O70 1.971341 1_555
Mn24 O76 1.985018 1_555
Mn25 O53 2.031592 1_555
Mn25 O77 2.049076 1_555
Mn25 O45 2.054457 1_555
Mn25 O71 2.104043 1_555
Mn26 O54 1.902201 1_555
Mn26 O46 1.902669 1_555
Mn26 O68 1.957115 1_565
Mn26 O78 2.015737 1_555
Mn27 O55 2.031832 1_555
Mn27 O47 2.048843 1_555
Mn27 O79 2.085818 1_555
Mn27 O69 2.088751 1_565
O0 Sr7 2.604921 1_455
O0 Sr3 2.668923 1_555
O1 Ti0 1.981574 1_556
O2 Sr4 2.701020 1_555
O2 Sr0 2.741906 1_555
O3 Ti1 1.986279 1_556
O3 Sr2 2.586125 1_555
O4 Sr1 2.716118 1_555
O4 Sr5 2.733152 1_555
O5 Ti2 1.979107 1_556
O5 Sr6 2.621709 1_555
O7 Ti3 1.889606 1_555
O8 Ti1 1.989533 1_555
O8 Sr2 2.773563 1_554
O9 Sr3 2.584646 1_555
O9 Sr0 2.589859 1_555
O9 Sr7 2.665411 1_455
O10 Ti0 1.965198 1_565
O11 Sr4 2.583928 1_555
O12 Sr6 2.716441 1_554
O13 Sr5 2.579643 1_555
O14 Ti3 1.925583 1_554
O14 Ti2 2.013659 1_565
O15 Sr1 2.590187 1_565
O16 Sr5 2.763397 1_555
O17 Ti2 1.945928 1_556
O17 Sr6 2.596425 1_555
O18 Sr0 2.734032 1_555
O19 Sr2 2.593307 1_555
O20 Sr7 2.559777 1_555
O20 Sr1 2.658098 1_555
O20 Sr3 2.698021 1_655
O21 Ti0 1.947851 1_656
O22 Sr4 2.748177 1_655
O23 Ti1 1.956364 1_656
O23 Ti3 1.993539 1_555
O24 Sr2 2.730098 1_554
O24 Sr6 2.730398 1_554
O25 Sr5 2.573612 1_555
O25 Sr0 2.575480 1_555
O26 Ti2 1.936065 1_565
O28 Ti1 1.951074 1_655
O29 Sr3 2.586901 1_655
O29 Sr7 2.728515 1_555
O30 Ti0 1.944279 1_665
O30 Ti3 2.032917 1_554
O31 Sr4 2.572569 1_655
O31 Sr1 2.600645 1_565
O32 Ti0 1.992001 1_555
O33 Sr3 2.618724 1_555
O33 Sr1 2.813064 1_455
O33 Sr4 2.999437 1_545
O34 Ti1 1.983358 1_555
O35 Sr4 2.547992 1_555
O35 Sr0 2.763586 1_555
O35 Sr3 3.107507 1_555
O36 Ti2 1.981861 1_555
O37 Sr5 2.552098 1_555
O37 Sr1 2.682558 1_555
O39 Sr0 2.850175 1_555
O39 Sr5 3.158190 1_555
O41 Sr6 2.490226 1_555
O41 Sr2 2.809826 1_555
O43 Ti2 2.017022 1_566
O44 Sr7 2.550859 1_555
O45 Ti1 1.995302 1_656
O45 Sr2 2.649501 1_655
O46 Sr7 3.132533 1_565
O47 Ti0 2.004046 1_666
O49 Sr5 2.701609 1_555
O49 Sr3 2.836125 1_555
O49 Sr0 3.123285 1_555
O51 Sr0 2.485494 1_555
O51 Sr4 2.836139 1_555
O53 Sr1 2.528356 1_555
O53 Sr3 2.723535 1_655
O53 Sr5 2.768383 1_555
O54 Ti3 2.113020 1_554
O55 Sr4 2.726366 1_655
O55 Sr1 3.163050 1_565
O56 Sr7 2.859365 1_455
O57 Sr2 2.500622 1_555
O57 Sr6 2.691343 1_555
O60 Sr7 2.704373 1_555
O61 Sr6 2.872304 1_555
O63 Ti3 1.932571 1_555
O65 Sr6 2.409020 1_555
O67 Sr0 2.437376 1_555
O68 Sr7 2.456144 1_555
O69 Sr1 2.438351 1_555
O73 Sr2 2.395535 1_555
O73 Sr3 2.420196 1_555
O75 Sr4 2.480677 1_555
O77 Sr5 2.439814 1_555
