# generated using pymatgen
data_Dy5(Si5Ir2)2
_symmetry_space_group_name_H-M   'P 1'
_cell_length_a   12.62907100
_cell_length_b   12.62907100
_cell_length_c   4.27371500
_cell_angle_alpha   90.00000000
_cell_angle_beta   90.00000000
_cell_angle_gamma   90.00000000
_symmetry_Int_Tables_number   1
_chemical_formula_structural   Dy5(Si5Ir2)2
_chemical_formula_sum   'Dy10 Si20 Ir8'
_cell_volume   681.62948267
_cell_formula_units_Z   2
loop_
 _symmetry_equiv_pos_site_id
 _symmetry_equiv_pos_as_xyz
  1  'x, y, z'
loop_
 _atom_site_type_symbol
 _atom_site_label
 _atom_site_symmetry_multiplicity
 _atom_site_fract_x
 _atom_site_fract_y
 _atom_site_fract_z
 _atom_site_occupancy
  Dy  Dy0  1  0.50000000  0.50000000  0.00000000  1
  Dy  Dy1  1  0.00000000  0.00000000  0.00000000  1
  Dy  Dy2  1  0.67576500  0.17576500  0.50000000  1
  Dy  Dy3  1  0.32423500  0.82423500  0.50000000  1
  Dy  Dy4  1  0.17576500  0.32423500  0.50000000  1
  Dy  Dy5  1  0.82423500  0.67576500  0.50000000  1
  Dy  Dy6  1  0.88373400  0.38373400  0.50000000  1
  Dy  Dy7  1  0.11626600  0.61626600  0.50000000  1
  Dy  Dy8  1  0.38373400  0.11626600  0.50000000  1
  Dy  Dy9  1  0.61626600  0.88373400  0.50000000  1
  Si  Si0  1  0.56556600  0.06556600  0.00000000  1
  Si  Si1  1  0.43443400  0.93443400  0.00000000  1
  Si  Si2  1  0.06556600  0.43443400  0.00000000  1
  Si  Si3  1  0.93443400  0.56556600  0.00000000  1
  Si  Si4  1  0.66349300  0.70072700  0.00000000  1
  Si  Si5  1  0.33650700  0.29927300  0.00000000  1
  Si  Si6  1  0.16349300  0.79927300  0.00000000  1
  Si  Si7  1  0.83650700  0.20072700  0.00000000  1
  Si  Si8  1  0.29927300  0.66349300  0.00000000  1
  Si  Si9  1  0.70072700  0.33650700  0.00000000  1
  Si  Si10  1  0.20072700  0.16349300  0.00000000  1
  Si  Si11  1  0.79927300  0.83650700  0.00000000  1
  Si  Si12  1  0.65700000  0.50328200  0.50000000  1
  Si  Si13  1  0.34300000  0.49671800  0.50000000  1
  Si  Si14  1  0.15700000  0.99671800  0.50000000  1
  Si  Si15  1  0.84300000  0.00328200  0.50000000  1
  Si  Si16  1  0.49671800  0.65700000  0.50000000  1
  Si  Si17  1  0.50328200  0.34300000  0.50000000  1
  Si  Si18  1  0.00328200  0.15700000  0.50000000  1
  Si  Si19  1  0.99671800  0.84300000  0.50000000  1
  Ir  Ir0  1  0.74545500  0.52040900  0.00000000  1
  Ir  Ir1  1  0.25454500  0.47959100  0.00000000  1
  Ir  Ir2  1  0.24545500  0.97959100  0.00000000  1
  Ir  Ir3  1  0.75454500  0.02040900  0.00000000  1
  Ir  Ir4  1  0.47959100  0.74545500  0.00000000  1
  Ir  Ir5  1  0.52040900  0.25454500  0.00000000  1
  Ir  Ir6  1  0.02040900  0.24545500  0.00000000  1
  Ir  Ir7  1  0.97959100  0.75454500  0.00000000  1
loop_
_geom_bond_atom_site_label_1
_geom_bond_atom_site_label_2
_geom_bond_distance
_geom_bond_site_symmetry_2
Dy0 Si13 2.915344 1_554
Dy0 Si17 2.915344 1_554
Dy0 Si13 2.915344 1_555
Dy0 Si17 2.915344 1_555
Dy0 Si12 2.915344 1_554
Dy0 Si16 2.915344 1_554
Dy0 Si12 2.915344 1_555
Dy0 Si16 2.915344 1_555
Dy0 Ir4 3.110566 1_555
Dy0 Ir0 3.110566 1_555
Dy0 Ir5 3.110566 1_555
Dy0 Ir1 3.110566 1_555
Dy0 Si4 3.269473 1_555
Dy0 Si5 3.269473 1_555
Dy0 Si8 3.269473 1_555
Dy0 Si9 3.269473 1_555
Dy1 Si18 2.915344 1_555
Dy1 Si15 2.915344 1_454
Dy1 Si14 2.915344 1_544
Dy1 Si18 2.915344 1_554
Dy1 Si14 2.915344 1_545
Dy1 Si15 2.915344 1_455
Dy1 Si19 2.915344 1_444
Dy1 Si19 2.915344 1_445
Dy1 Ir2 3.110566 1_545
Dy1 Ir6 3.110566 1_555
Dy1 Ir7 3.110566 1_445
Dy1 Ir3 3.110566 1_455
Dy1 Si6 3.269473 1_545
Dy1 Si7 3.269473 1_455
Dy1 Si10 3.269473 1_555
Dy1 Si11 3.269473 1_445
Dy2 Si0 2.905147 1_556
Dy2 Si0 2.905147 1_555
Dy2 Si9 2.964208 1_556
Dy2 Si7 2.964208 1_555
Dy2 Si9 2.964208 1_555
Dy2 Si7 2.964208 1_556
Dy2 Si17 3.034078 1_555
Dy2 Si15 3.034078 1_555
Dy2 Ir5 3.066835 1_556
Dy2 Ir5 3.066835 1_555
Dy2 Ir3 3.066835 1_555
Dy2 Ir3 3.066835 1_556
Dy3 Si1 2.905147 1_555
Dy3 Si1 2.905147 1_556
Dy3 Si8 2.964208 1_556
Dy3 Si8 2.964208 1_555
Dy3 Si6 2.964208 1_555
Dy3 Si6 2.964208 1_556
Dy3 Si16 3.034078 1_555
Dy3 Si14 3.034078 1_555
Dy3 Ir4 3.066835 1_556
Dy3 Ir4 3.066835 1_555
Dy3 Ir2 3.066835 1_555
Dy3 Ir2 3.066835 1_556
Dy4 Si2 2.905147 1_556
Dy4 Si2 2.905147 1_555
Dy4 Si10 2.964208 1_555
Dy4 Si10 2.964208 1_556
Dy4 Si5 2.964208 1_555
Dy4 Si5 2.964208 1_556
Dy4 Si13 3.034078 1_555
Dy4 Si18 3.034078 1_555
Dy4 Ir1 3.066835 1_556
Dy4 Ir1 3.066835 1_555
Dy4 Ir6 3.066835 1_555
Dy4 Ir6 3.066835 1_556
Dy5 Si3 2.905147 1_555
Dy5 Si3 2.905147 1_556
Dy5 Si4 2.964208 1_556
Dy5 Si4 2.964208 1_555
Dy5 Si11 2.964208 1_555
Dy5 Si11 2.964208 1_556
Dy5 Si12 3.034078 1_555
Dy5 Si19 3.034078 1_555
Dy5 Ir0 3.066835 1_555
Dy5 Ir0 3.066835 1_556
Dy5 Ir7 3.066835 1_555
Dy5 Ir7 3.066835 1_556
Dy6 Si2 3.201476 1_655
Dy6 Si2 3.201476 1_656
Dy6 Si3 3.201476 1_555
Dy6 Si3 3.201476 1_556
Dy6 Si7 3.203682 1_556
Dy6 Si9 3.203682 1_556
Dy6 Si9 3.203682 1_555
Dy6 Si7 3.203682 1_555
Dy6 Si18 3.237086 1_655
Dy6 Si12 3.237086 1_555
Dy6 Ir0 3.255026 1_556
Dy6 Ir0 3.255026 1_555
Dy6 Ir6 3.255026 1_655
Dy6 Ir6 3.255026 1_656
Dy7 Si3 3.201476 1_456
Dy7 Si2 3.201476 1_556
Dy7 Si3 3.201476 1_455
Dy7 Si2 3.201476 1_555
Dy7 Si6 3.203682 1_555
Dy7 Si6 3.203682 1_556
Dy7 Si8 3.203682 1_555
Dy7 Si8 3.203682 1_556
Dy7 Si19 3.237086 1_455
Dy7 Si13 3.237086 1_555
Dy7 Ir1 3.255026 1_555
Dy7 Ir1 3.255026 1_556
Dy7 Ir7 3.255026 1_455
Dy7 Ir7 3.255026 1_456
Dy8 Si1 3.201476 1_546
Dy8 Si1 3.201476 1_545
Dy8 Si0 3.201476 1_556
Dy8 Si0 3.201476 1_555
Dy8 Si10 3.203682 1_556
Dy8 Si10 3.203682 1_555
Dy8 Si5 3.203682 1_555
Dy8 Si5 3.203682 1_556
Dy8 Si14 3.237086 1_545
Dy8 Si17 3.237086 1_555
Dy8 Ir5 3.255026 1_556
Dy8 Ir5 3.255026 1_555
Dy8 Ir2 3.255026 1_546
Dy8 Ir2 3.255026 1_545
Dy9 Si1 3.201476 1_555
Dy9 Si1 3.201476 1_556
Dy9 Si0 3.201476 1_565
Dy9 Si0 3.201476 1_566
Dy9 Si4 3.203682 1_556
Dy9 Si4 3.203682 1_555
Dy9 Si11 3.203682 1_555
Dy9 Si11 3.203682 1_556
Dy9 Si16 3.237086 1_555
Dy9 Si15 3.237086 1_565
Dy9 Ir4 3.255026 1_555
Dy9 Ir4 3.255026 1_556
Dy9 Ir3 3.255026 1_565
Dy9 Ir3 3.255026 1_566
Si0 Si1 2.342044 1_545
Si2 Si3 2.342044 1_455
Si6 Si8 2.425058 1_555
Si7 Si9 2.425058 1_555
Si10 Si5 2.425058 1_555
Si11 Si4 2.425058 1_555
Si12 Si17 2.804665 1_555
Si12 Si16 2.804665 1_555
Si13 Si17 2.804665 1_555
Si13 Si16 2.804665 1_555
Si14 Si19 2.804665 1_455
Si14 Si18 2.804665 1_565
Si15 Si19 2.804665 1_545
Si15 Si18 2.804665 1_655
Ir0 Si9 2.390218 1_555
Ir0 Si12 2.420923 1_554
Ir0 Si12 2.420923 1_555
Ir0 Si3 2.453820 1_555
Ir0 Si4 2.501460 1_555
Ir1 Si8 2.390218 1_555
Ir1 Si13 2.420923 1_555
Ir1 Si13 2.420923 1_554
Ir1 Si2 2.453820 1_555
Ir1 Si5 2.501460 1_555
Ir2 Si10 2.390218 1_565
Ir2 Si14 2.420923 1_554
Ir2 Si14 2.420923 1_555
Ir2 Si1 2.453820 1_555
Ir2 Si6 2.501460 1_555
Ir3 Si11 2.390218 1_545
Ir3 Si15 2.420923 1_554
Ir3 Si15 2.420923 1_555
Ir3 Si0 2.453820 1_555
Ir3 Si7 2.501460 1_555
Ir4 Si4 2.390218 1_555
Ir4 Si16 2.420923 1_554
Ir4 Si16 2.420923 1_555
Ir4 Si1 2.453820 1_555
Ir4 Si8 2.501460 1_555
Ir5 Si5 2.390218 1_555
Ir5 Si17 2.420923 1_555
Ir5 Si17 2.420923 1_554
Ir5 Si0 2.453820 1_555
Ir5 Si9 2.501460 1_555
Ir6 Si7 2.390218 1_455
Ir6 Si18 2.420923 1_555
Ir6 Si18 2.420923 1_554
Ir6 Si2 2.453820 1_555
Ir6 Si10 2.501460 1_555
Ir7 Si6 2.390218 1_655
Ir7 Si19 2.420923 1_554
Ir7 Si19 2.420923 1_555
Ir7 Si3 2.453820 1_555
Ir7 Si11 2.501460 1_555
