# generated using pymatgen
data_Rb2Be2Cu(O3F4)2
_symmetry_space_group_name_H-M   'P 1'
_cell_length_a   6.17706443
_cell_length_b   8.44563323
_cell_length_c   11.68037600
_cell_angle_alpha   90.00000000
_cell_angle_beta   90.00000000
_cell_angle_gamma   102.85635057
_symmetry_Int_Tables_number   1
_chemical_formula_structural   Rb2Be2Cu(O3F4)2
_chemical_formula_sum   'Rb4 Be4 Cu2 O12 F16'
_cell_volume   594.08015753
_cell_formula_units_Z   2
loop_
 _symmetry_equiv_pos_site_id
 _symmetry_equiv_pos_as_xyz
  1  'x, y, z'
loop_
 _atom_site_type_symbol
 _atom_site_label
 _atom_site_symmetry_multiplicity
 _atom_site_fract_x
 _atom_site_fract_y
 _atom_site_fract_z
 _atom_site_occupancy
  Rb  Rb0  1  0.83916900  0.60745400  0.14420300  1
  Rb  Rb1  1  0.16083100  0.39254600  0.85579700  1
  Rb  Rb2  1  0.16083100  0.89254600  0.64420300  1
  Rb  Rb3  1  0.83916900  0.10745400  0.35579700  1
  Be  Be0  1  0.74552200  0.60523300  0.84329200  1
  Be  Be1  1  0.25447800  0.39476700  0.15670800  1
  Be  Be2  1  0.25447800  0.89476700  0.34329200  1
  Be  Be3  1  0.74552200  0.10523300  0.65670800  1
  Cu  Cu0  1  0.50000000  0.00000000  0.00000000  1
  Cu  Cu1  1  0.50000000  0.50000000  0.50000000  1
  O  O0  1  0.34121700  0.86182800  0.89570200  1
  O  O1  1  0.65878300  0.13817200  0.10429800  1
  O  O2  1  0.65878300  0.63817200  0.39570200  1
  O  O3  1  0.34121700  0.36182800  0.60429800  1
  O  O4  1  0.41157300  0.61524700  0.61597000  1
  O  O5  1  0.58842700  0.38475300  0.38403000  1
  O  O6  1  0.58842700  0.88475300  0.11597000  1
  O  O7  1  0.41157300  0.11524700  0.88403000  1
  O  O8  1  0.83051100  0.99447200  0.92752400  1
  O  O9  1  0.16948900  0.00552800  0.07247600  1
  O  O10  1  0.16948900  0.50552800  0.42752400  1
  O  O11  1  0.83051100  0.49447200  0.57247600  1
  F  F0  1  0.52585300  0.64305100  0.79952000  1
  F  F1  1  0.47414700  0.35694900  0.20048000  1
  F  F2  1  0.47414700  0.85694900  0.29952000  1
  F  F3  1  0.52585300  0.14305100  0.70048000  1
  F  F4  1  0.72078700  0.95707900  0.57859900  1
  F  F5  1  0.27921300  0.04292100  0.42140100  1
  F  F6  1  0.27921300  0.54292100  0.07859900  1
  F  F7  1  0.72078700  0.45707900  0.92140100  1
  F  F8  1  0.87640100  0.75777500  0.91950200  1
  F  F9  1  0.12359900  0.24222500  0.08049800  1
  F  F10  1  0.12359900  0.74222500  0.41950200  1
  F  F11  1  0.87640100  0.25777500  0.58049800  1
  F  F12  1  0.90558900  0.59162200  0.73891000  1
  F  F13  1  0.09441100  0.40837800  0.26109000  1
  F  F14  1  0.09441100  0.90837800  0.23891000  1
  F  F15  1  0.90558900  0.09162200  0.76109000  1
loop_
_geom_bond_atom_site_label_1
_geom_bond_atom_site_label_2
_geom_bond_distance
_geom_bond_site_symmetry_2
Be0 F7 1.528487 1_555
Be0 F0 1.548381 1_555
Be0 F12 1.589940 1_555
Be0 F8 1.625494 1_555
Be1 F6 1.528487 1_555
Be1 F1 1.548381 1_555
Be1 F13 1.589940 1_555
Be1 F9 1.625494 1_555
Be2 F5 1.528487 1_565
Be2 F2 1.548381 1_555
Be2 F14 1.589940 1_555
Be2 F10 1.625494 1_555
Be3 F4 1.528487 1_545
Be3 F3 1.548381 1_555
Be3 F15 1.589940 1_555
Be3 F11 1.625494 1_555
Cu0 O1 1.816185 1_555
Cu0 O0 1.816185 1_544
Cu0 O7 1.821317 1_554
Cu0 O6 1.821317 1_545
Cu0 O9 2.220207 1_555
Cu0 O8 2.220207 1_544
Cu1 O2 1.816185 1_555
Cu1 O3 1.816185 1_555
Cu1 O5 1.821317 1_555
Cu1 O4 1.821317 1_555
Cu1 O11 2.220207 1_555
Cu1 O10 2.220207 1_555
O0 Rb2 3.172858 1_555
O1 Rb3 3.172858 1_555
O2 Rb0 3.172858 1_555
O3 Rb1 3.172858 1_555
O4 Rb2 3.099470 1_555
O5 Rb3 3.099470 1_555
O6 Rb0 3.099470 1_555
O7 Rb1 3.099470 1_555
F0 Rb1 2.805219 1_555
F1 Rb0 2.805219 1_555
F2 Rb3 2.805219 1_565
F3 Rb2 2.805219 1_545
F4 Rb3 2.916663 1_565
F4 Rb2 2.988647 1_655
F5 Rb2 2.916663 1_545
F5 Rb3 2.988647 1_455
F6 Rb1 2.916663 1_554
F6 Rb0 2.988647 1_455
F7 Rb0 2.916663 1_556
F7 Rb1 2.988647 1_655
F8 Rb0 2.902278 1_556
F9 Rb1 2.902278 1_554
F10 Rb2 2.902278 1_555
F11 Rb3 2.902278 1_555
F12 Rb1 2.890732 1_655
F12 Rb2 2.895776 1_655
F13 Rb0 2.890732 1_455
F13 Rb3 2.895776 1_455
F14 Rb3 2.890732 1_465
F14 Rb0 2.895776 1_455
F15 Rb2 2.890732 1_645
F15 Rb1 2.895776 1_655
