# generated using pymatgen
data_Na4Eu2SnP4
_symmetry_space_group_name_H-M   'P 1'
_cell_length_a   9.54974131
_cell_length_b   9.54974131
_cell_length_c   7.23790647
_cell_angle_alpha   89.08154347
_cell_angle_beta   89.08154347
_cell_angle_gamma   120.11590640
_symmetry_Int_Tables_number   1
_chemical_formula_structural   Na4Eu2SnP4
_chemical_formula_sum   'Na8 Eu4 Sn2 P8'
_cell_volume   570.68218666
_cell_formula_units_Z   2
loop_
 _symmetry_equiv_pos_site_id
 _symmetry_equiv_pos_as_xyz
  1  'x, y, z'
loop_
 _atom_site_type_symbol
 _atom_site_label
 _atom_site_symmetry_multiplicity
 _atom_site_fract_x
 _atom_site_fract_y
 _atom_site_fract_z
 _atom_site_occupancy
  Na  Na0  1  0.46765300  0.93066500  0.38001300  1
  Na  Na1  1  0.93066500  0.46765300  0.88001300  1
  Na  Na2  1  0.86617100  0.72376200  0.18647700  1
  Na  Na3  1  0.28788400  0.13562200  0.22334800  1
  Na  Na4  1  0.85152700  0.13645100  0.20876800  1
  Na  Na5  1  0.13562200  0.28788400  0.72334800  1
  Na  Na6  1  0.72376200  0.86617100  0.68647700  1
  Na  Na7  1  0.13645100  0.85152700  0.70876800  1
  Eu  Eu0  1  0.05467100  0.53073400  0.38375800  1
  Eu  Eu1  1  0.48388200  0.53393600  0.37466700  1
  Eu  Eu2  1  0.53073400  0.05467100  0.88375800  1
  Eu  Eu3  1  0.53393600  0.48388200  0.87466700  1
  Sn  Sn0  1  0.66131200  0.32427400  0.49838700  1
  Sn  Sn1  1  0.32427400  0.66131200  0.99838700  1
  P  P0  1  0.19265500  0.37303300  0.12963300  1
  P  P1  1  0.62623200  0.81193000  0.08950700  1
  P  P2  1  0.19371700  0.81785600  0.10686900  1
  P  P3  1  0.81193000  0.62623200  0.58950700  1
  P  P4  1  0.37303300  0.19265500  0.62963300  1
  P  P5  1  0.81785600  0.19371700  0.60686900  1
  P  P6  1  0.65872700  0.33494800  0.14237600  1
  P  P7  1  0.33494800  0.65872700  0.64237600  1
loop_
_geom_bond_atom_site_label_1
_geom_bond_atom_site_label_2
_geom_bond_distance
_geom_bond_site_symmetry_2
Na0 P7 2.901432 1_555
Na0 P2 3.052638 1_555
Na0 P1 3.114120 1_555
Na1 P6 2.901432 1_556
Na1 P5 3.052638 1_555
Na1 P3 3.114120 1_555
Na2 P2 2.833505 1_655
Na2 P1 2.901809 1_555
Na2 P3 3.004255 1_555
Na2 P6 3.238840 1_555
Na3 P2 2.845346 1_545
Na3 P0 2.909795 1_555
Na3 P4 3.047765 1_555
Na3 P6 3.105096 1_555
Na4 P1 2.903912 1_545
Na4 P0 2.925379 1_655
Na4 P5 2.983674 1_555
Na4 P6 3.273486 1_555
Na5 P5 2.845346 1_455
Na5 P4 2.909795 1_555
Na5 P0 3.047765 1_556
Na5 P7 3.105096 1_555
Na6 P5 2.833505 1_565
Na6 P3 2.901809 1_555
Na6 P1 3.004255 1_556
Na6 P7 3.238840 1_555
Na7 P3 2.903912 1_455
Na7 P4 2.925379 1_565
Na7 P2 2.983674 1_556
Na7 P7 3.273486 1_555
Eu0 P7 3.018746 1_555
Eu0 P2 3.063121 1_555
Eu0 P0 3.064325 1_555
Eu0 P3 3.236882 1_455
Eu0 P5 3.239256 1_455
Eu1 P7 2.980631 1_555
Eu1 P0 3.032876 1_555
Eu1 P1 3.044433 1_555
Eu1 P3 3.230843 1_555
Eu1 P4 3.380917 1_555
Eu2 P6 3.018746 1_556
Eu2 P5 3.063121 1_555
Eu2 P4 3.064325 1_555
Eu2 P1 3.236882 1_546
Eu2 P2 3.239256 1_546
Eu3 P6 2.980631 1_556
Eu3 P4 3.032876 1_555
Eu3 P3 3.044433 1_555
Eu3 P1 3.230843 1_556
Eu3 P0 3.380917 1_556
P0 Sn1 2.542965 1_554
P1 Sn1 2.597746 1_554
P2 Sn1 2.506499 1_554
P3 Sn0 2.597746 1_555
P4 Sn0 2.542965 1_555
P5 Sn0 2.506499 1_555
P6 Sn0 2.578160 1_555
P7 Sn1 2.578160 1_555
