# generated using pymatgen
data_Er6InCo2
_symmetry_space_group_name_H-M   'P 1'
_cell_length_a   8.27907644
_cell_length_b   8.27907650
_cell_length_c   8.27908198
_cell_angle_alpha   111.33829453
_cell_angle_beta   109.93661673
_cell_angle_gamma   107.16635086
_symmetry_Int_Tables_number   1
_chemical_formula_structural   Er6InCo2
_chemical_formula_sum   'Er12 In2 Co4'
_cell_volume   436.24557944
_cell_formula_units_Z   2
loop_
 _symmetry_equiv_pos_site_id
 _symmetry_equiv_pos_as_xyz
  1  'x, y, z'
loop_
 _atom_site_type_symbol
 _atom_site_label
 _atom_site_symmetry_multiplicity
 _atom_site_fract_x
 _atom_site_fract_y
 _atom_site_fract_z
 _atom_site_occupancy
  Er  Er0  1  0.18668466  0.28960832  0.47629287  1
  Er  Er1  1  0.81331306  0.71038795  0.52370362  1
  Er  Er2  1  0.18668295  0.71038864  0.89707261  1
  Er  Er3  1  0.81331608  0.28961131  0.10292815  1
  Er  Er4  1  0.31544862  0.61588799  0.30044034  1
  Er  Er5  1  0.68455059  0.38410929  0.69955688  1
  Er  Er6  1  0.31545016  0.01501127  0.69956002  1
  Er  Er7  1  0.68455177  0.98499331  0.30044365  1
  Er  Er8  1  0.44326085  0.22963628  0.21361990  1
  Er  Er9  1  0.55673646  0.77035903  0.78638108  1
  Er  Er10  1  0.01601904  0.22964110  0.78637868  1
  Er  Er11  1  0.98397839  0.77035827  0.21362042  1
  In  In0  1  0.50000048  0.49999938  -0.00000009  1
  In  In1  1  -0.00000051  -0.00000004  -0.00000129  1
  Co  Co0  1  0.11073238  0.61073186  0.50000222  1
  Co  Co1  1  0.88927671  0.38927603  0.50000229  1
  Co  Co2  1  0.38202746  0.00000303  0.38202861  1
  Co  Co3  1  0.61797085  -0.00000301  0.61797001  1
loop_
_geom_bond_atom_site_label_1
_geom_bond_atom_site_label_2
_geom_bond_distance
_geom_bond_site_symmetry_2
Er0 In1 3.234604 1_555
Er0 Er9 3.438122 1_555
Er0 Er10 3.438134 1_555
Er0 Er11 3.532024 1_445
Er0 Er8 3.532025 1_555
Er0 Er3 3.548816 1_455
Er0 In0 3.567728 1_556
Er0 Er4 3.574037 1_555
Er0 Er7 3.574043 1_445
Er0 Er6 3.587007 1_555
Er0 Er5 3.587018 1_555
Er1 In1 3.234613 1_666
Er1 Er11 3.438120 1_555
Er1 Er8 3.438127 1_555
Er1 Er10 3.532046 1_665
Er1 Er9 3.532056 1_555
Er1 Er2 3.548825 1_655
Er1 In0 3.567705 1_555
Er1 Er5 3.574033 1_555
Er1 Er6 3.574071 1_665
Er1 Er4 3.587009 1_555
Er1 Er7 3.587021 1_555
Er2 In1 3.234612 1_566
Er2 Er9 3.438100 1_555
Er2 Er8 3.532010 1_566
Er2 In0 3.567731 1_556
Er2 Er5 3.574034 1_455
Er2 Er6 3.574063 1_565
Er2 Er4 3.587041 1_556
Er2 Er7 3.587046 1_556
Er3 In1 3.234617 1_655
Er3 Er8 3.438114 1_555
Er3 Er9 3.532040 1_544
Er3 In0 3.567712 1_555
Er3 Er4 3.574036 1_655
Er3 Er7 3.574047 1_545
Er3 Er6 3.587025 1_554
Er3 Er5 3.587054 1_554
Er4 Er9 3.328455 1_555
Er4 In0 3.341027 1_555
Er4 Er8 3.564509 1_555
Er5 Er8 3.328425 1_555
Er5 In0 3.341034 1_556
Er5 Er9 3.564504 1_555
Er6 Er9 3.328450 1_545
Er6 In0 3.340997 1_556
Er6 Er8 3.564484 1_556
Er7 Er8 3.328415 1_565
Er7 In0 3.341039 1_555
Er7 Er9 3.564493 1_554
Er8 In1 3.036147 1_555
Er8 In0 3.344489 1_555
Er9 In1 3.036162 1_666
Er9 In0 3.344454 1_556
Er10 In1 3.036151 1_556
Er10 Er7 3.328418 1_445
Er10 Er5 3.328432 1_455
Er10 In0 3.344471 1_556
Er10 Er2 3.438112 1_555
Er10 Er3 3.532047 1_456
Er10 Er4 3.564485 1_556
Er10 Er6 3.564490 1_555
Er11 In1 3.036167 1_665
Er11 Er6 3.328451 1_665
Er11 Er4 3.328456 1_655
Er11 In0 3.344448 1_555
Er11 Er3 3.438112 1_555
Er11 Er2 3.532046 1_654
Er11 Er7 3.564493 1_555
Er11 Er5 3.564499 1_554
Co0 Co1 2.176874 1_455
Co0 Er4 2.742695 1_555
Co0 Er6 2.742702 1_565
Co0 Er2 2.862373 1_555
Co0 Er3 2.862391 1_455
Co0 Er0 2.862403 1_555
Co0 Er1 2.862404 1_455
Co0 Er9 3.141856 1_555
Co0 Er11 3.141891 1_455
Co1 Er5 2.742717 1_555
Co1 Er7 2.742727 1_545
Co1 Er2 2.862341 1_655
Co1 Er3 2.862368 1_555
Co1 Er1 2.862372 1_555
Co1 Er0 2.862380 1_655
Co1 Er10 3.141892 1_655
Co1 Er8 3.141919 1_555
Co2 Co3 2.242631 1_555
Co2 Er8 2.767224 1_555
Co2 Er11 2.767273 1_445
Co2 Er5 2.832134 1_555
Co2 Er6 2.832155 1_555
Co2 Er7 2.832163 1_545
Co2 Er4 2.832195 1_545
Co2 Er0 3.280442 1_555
Co2 Er2 3.280500 1_544
Co3 Er10 2.767265 1_655
Co3 Er9 2.767273 1_545
Co3 Er7 2.832138 1_545
Co3 Er4 2.832146 1_545
Co3 Er6 2.832164 1_555
Co3 Er5 2.832174 1_555
Co3 Er1 3.280466 1_545
Co3 Er3 3.280513 1_556
