# generated using pymatgen
data_CaCu3(PtO3)4
_symmetry_space_group_name_H-M   'P 1'
_cell_length_a   6.59640119
_cell_length_b   6.59640119
_cell_length_c   6.59640119
_cell_angle_alpha   109.47122063
_cell_angle_beta   109.47122063
_cell_angle_gamma   109.47122063
_symmetry_Int_Tables_number   1
_chemical_formula_structural   CaCu3(PtO3)4
_chemical_formula_sum   'Ca1 Cu3 Pt4 O12'
_cell_volume   220.95268956
_cell_formula_units_Z   1
loop_
 _symmetry_equiv_pos_site_id
 _symmetry_equiv_pos_as_xyz
  1  'x, y, z'
loop_
 _atom_site_type_symbol
 _atom_site_label
 _atom_site_symmetry_multiplicity
 _atom_site_fract_x
 _atom_site_fract_y
 _atom_site_fract_z
 _atom_site_occupancy
  Ca  Ca0  1  0.00000000  0.00000000  0.00000000  1
  Cu  Cu0  1  0.50000000  0.50000000  0.00000000  1
  Cu  Cu1  1  0.50000000  0.00000000  0.50000000  1
  Cu  Cu2  1  0.00000000  0.50000000  0.50000000  1
  Pt  Pt0  1  0.00000000  0.00000000  0.50000000  1
  Pt  Pt1  1  0.50000000  0.00000000  0.00000000  1
  Pt  Pt2  1  0.00000000  0.50000000  0.00000000  1
  Pt  Pt3  1  0.50000000  0.50000000  0.50000000  1
  O  O0  1  0.69342700  0.83370100  0.52712800  1
  O  O1  1  0.69342700  0.16629900  0.85972600  1
  O  O2  1  0.30657300  0.83370100  0.14027400  1
  O  O3  1  0.30657300  0.16629900  0.47287200  1
  O  O4  1  0.83370100  0.52712800  0.69342700  1
  O  O5  1  0.16629900  0.85972600  0.69342700  1
  O  O6  1  0.83370100  0.14027400  0.30657300  1
  O  O7  1  0.16629900  0.47287200  0.30657300  1
  O  O8  1  0.52712800  0.69342700  0.83370100  1
  O  O9  1  0.85972600  0.69342700  0.16629900  1
  O  O10  1  0.14027400  0.30657300  0.83370100  1
  O  O11  1  0.47287200  0.30657300  0.16629900  1
loop_
_geom_bond_atom_site_label_1
_geom_bond_atom_site_label_2
_geom_bond_distance
_geom_bond_site_symmetry_2
Ca0 O8 2.656555 1_444
Ca0 O2 2.656555 1_545
Ca0 O3 2.656555 1_555
Ca0 O9 2.656555 1_445
Ca0 O5 2.656555 1_544
Ca0 O10 2.656555 1_554
Ca0 O7 2.656555 1_555
Ca0 O0 2.656555 1_444
Ca0 O4 2.656555 1_444
Ca0 O1 2.656555 1_454
Ca0 O6 2.656555 1_455
Ca0 O11 2.656555 1_555
Cu0 O10 1.942964 1_554
Cu0 O9 1.942964 1_555
Cu0 O8 1.942964 1_554
Cu0 O11 1.942964 1_555
Cu1 O2 1.942964 1_545
Cu1 O0 1.942964 1_545
Cu1 O3 1.942964 1_555
Cu1 O1 1.942964 1_555
Cu2 O4 1.942964 1_455
Cu2 O5 1.942964 1_555
Cu2 O6 1.942964 1_455
Cu2 O7 1.942964 1_555
O0 Pt3 2.053821 1_555
O0 Pt0 2.053821 1_665
O1 Pt2 2.053821 1_656
O1 Pt1 2.053821 1_556
O2 Pt2 2.053821 1_555
O2 Pt1 2.053821 1_565
O3 Pt3 2.053821 1_555
O3 Pt0 2.053821 1_555
O4 Pt3 2.053821 1_555
O4 Pt2 2.053821 1_656
O5 Pt0 2.053821 1_565
O5 Pt1 2.053821 1_566
O6 Pt0 2.053821 1_655
O6 Pt1 2.053821 1_555
O7 Pt2 2.053821 1_555
O7 Pt3 2.053821 1_555
O8 Pt3 2.053821 1_555
O8 Pt1 2.053821 1_566
O9 Pt0 2.053821 1_665
O9 Pt2 2.053821 1_655
O10 Pt2 2.053821 1_556
O10 Pt0 2.053821 1_555
O11 Pt1 2.053821 1_555
O11 Pt3 2.053821 1_555
