# generated using pymatgen
data_Na2Mn2Fe(PO4)3
_symmetry_space_group_name_H-M   'P 1'
_cell_length_a   8.80829695
_cell_length_b   8.80829695
_cell_length_c   6.60911425
_cell_angle_alpha   73.50195513
_cell_angle_beta   73.50195513
_cell_angle_gamma   92.86348334
_symmetry_Int_Tables_number   1
_chemical_formula_structural   Na2Mn2Fe(PO4)3
_chemical_formula_sum   'Na4 Mn4 Fe2 P6 O24'
_cell_volume   466.64094148
_cell_formula_units_Z   2
loop_
 _symmetry_equiv_pos_site_id
 _symmetry_equiv_pos_as_xyz
  1  'x, y, z'
loop_
 _atom_site_type_symbol
 _atom_site_label
 _atom_site_symmetry_multiplicity
 _atom_site_fract_x
 _atom_site_fract_y
 _atom_site_fract_z
 _atom_site_occupancy
  Na  Na0  1  0.02131700  0.97868300  0.00000000  1
  Na  Na1  1  0.98292400  0.01707600  0.50000000  1
  Na  Na2  1  0.50031300  0.49987900  0.25090800  1
  Na  Na3  1  0.50012100  0.49968700  0.74909200  1
  Mn  Mn0  1  0.93361400  0.62506000  0.39030700  1
  Mn  Mn1  1  0.37494000  0.06638600  0.60969200  1
  Mn  Mn2  1  0.26862900  0.73137100  0.50000000  1
  Mn  Mn3  1  0.72855000  0.27145000  0.00000000  1
  Fe  Fe0  1  0.06349500  0.38099400  0.11514100  1
  Fe  Fe1  1  0.61900600  0.93650500  0.88485900  1
  P  P0  1  0.65681900  0.87340100  0.37723600  1
  P  P1  1  0.12659900  0.34318100  0.62276400  1
  P  P2  1  0.34467500  0.12842800  0.12246900  1
  P  P3  1  0.87157200  0.65532500  0.87753100  1
  P  P4  1  0.28670700  0.71329300  0.00000000  1
  P  P5  1  0.71515400  0.28484600  0.50000000  1
  O  O0  1  0.66312200  0.99921500  0.14718200  1
  O  O1  1  0.00078500  0.33687800  0.85281800  1
  O  O2  1  0.31763600  0.99816900  0.34944200  1
  O  O3  1  0.00183100  0.68236400  0.65055800  1
  O  O4  1  0.53443900  0.72637800  0.42576300  1
  O  O5  1  0.27362200  0.46556100  0.57423700  1
  O  O6  1  0.46808400  0.27379900  0.07850400  1
  O  O7  1  0.72620100  0.53191600  0.92149600  1
  O  O8  1  0.26106000  0.53607000  0.00143200  1
  O  O9  1  0.46393000  0.73894000  0.99856800  1
  O  O10  1  0.73681300  0.45090900  0.52449200  1
  O  O11  1  0.54909100  0.26318700  0.47550800  1
  O  O12  1  0.60434700  0.94872400  0.56953700  1
  O  O13  1  0.05127600  0.39565300  0.43046300  1
  O  O14  1  0.40624600  0.04948900  0.93547900  1
  O  O15  1  0.95051100  0.59375400  0.06452100  1
  O  O16  1  0.83085800  0.84056300  0.35339500  1
  O  O17  1  0.15943700  0.16914200  0.64660500  1
  O  O18  1  0.17545100  0.18105700  0.12591800  1
  O  O19  1  0.81894300  0.82454900  0.87408200  1
  O  O20  1  0.17871500  0.74426700  0.21009400  1
  O  O21  1  0.25573300  0.82128500  0.78990600  1
  O  O22  1  0.83756100  0.26012800  0.28714400  1
  O  O23  1  0.73987200  0.16243900  0.71285600  1
loop_
_geom_bond_atom_site_label_1
_geom_bond_atom_site_label_2
_geom_bond_distance
_geom_bond_site_symmetry_2
Na0 O16 2.388811 1_455
Na0 O17 2.388811 1_564
Na0 O18 2.637391 1_565
Na0 O19 2.637391 1_454
Na0 O20 2.804387 1_555
Na0 O21 2.804387 1_554
Na1 O19 2.533846 1_545
Na1 O18 2.533846 1_655
Na1 O16 2.556352 1_545
Na1 O17 2.556352 1_655
Na1 O22 2.790731 1_555
Na1 O23 2.790731 1_555
Na1 O3 2.861287 1_645
Na1 O2 2.861287 1_645
Na2 O11 2.329955 1_555
Na2 O9 2.386321 1_554
Na2 O5 2.407116 1_555
Na2 O7 2.431667 1_554
Na2 O6 2.600092 1_555
Na2 O4 2.617828 1_555
Na3 O10 2.329955 1_555
Na3 O8 2.386321 1_556
Na3 O4 2.407116 1_555
Na3 O6 2.431667 1_556
Na3 O7 2.600092 1_555
Na3 O5 2.617828 1_555
Mn0 O10 2.057435 1_555
Mn0 O16 2.125089 1_555
Mn0 O3 2.150378 1_655
Mn0 O20 2.187422 1_655
Mn0 O15 2.212145 1_555
Mn0 O13 2.299697 1_655
Mn1 O11 2.057436 1_555
Mn1 O17 2.125089 1_555
Mn1 O2 2.150372 1_545
Mn1 O21 2.187422 1_545
Mn1 O14 2.212152 1_555
Mn1 O12 2.299697 1_545
Mn2 O3 2.241804 1_555
Mn2 O2 2.241804 1_555
Mn2 O21 2.249118 1_555
Mn2 O20 2.249118 1_555
Mn2 O4 2.257121 1_555
Mn2 O5 2.257121 1_555
Mn3 O7 2.206359 1_554
Mn3 O6 2.206359 1_555
Mn3 O0 2.290660 1_545
Mn3 O1 2.290660 1_654
Mn3 O22 2.338909 1_555
Mn3 O23 2.338909 1_554
Fe0 O8 1.973734 1_555
Fe0 O22 2.049927 1_455
Fe0 O18 2.054557 1_555
Fe0 O1 2.089740 1_554
Fe0 O13 2.097173 1_555
Fe0 O15 2.152618 1_455
Fe1 O9 1.973734 1_555
Fe1 O23 2.049927 1_565
Fe1 O19 2.054557 1_555
Fe1 O0 2.089740 1_556
Fe1 O12 2.097173 1_555
Fe1 O14 2.152618 1_565
O0 P0 1.591189 1_555
O1 P1 1.591189 1_555
O2 P2 1.554239 1_565
O3 P3 1.554239 1_455
O4 P0 1.539547 1_555
O5 P1 1.539547 1_555
O6 P2 1.541386 1_555
O7 P3 1.541386 1_555
O8 P4 1.563044 1_555
O9 P4 1.563044 1_556
O10 P5 1.525228 1_555
O11 P5 1.525228 1_555
O12 P0 1.563658 1_555
O13 P1 1.563658 1_555
O14 P2 1.565231 1_556
O15 P3 1.565231 1_554
O16 P0 1.546460 1_555
O17 P1 1.546460 1_555
O18 P2 1.578916 1_555
O19 P3 1.578916 1_555
O20 P4 1.548617 1_555
O21 P4 1.548617 1_556
O22 P5 1.588993 1_555
O23 P5 1.588993 1_555
