# generated using pymatgen
data_Mg5Ni9P7
_symmetry_space_group_name_H-M   'P 1'
_cell_length_a   3.63803427
_cell_length_b   9.22417052
_cell_length_c   9.22330664
_cell_angle_alpha   119.99532449
_cell_angle_beta   89.99999519
_cell_angle_gamma   89.99998636
_symmetry_Int_Tables_number   1
_chemical_formula_structural   Mg5Ni9P7
_chemical_formula_sum   'Mg5 Ni9 P7'
_cell_volume   268.05989725
_cell_formula_units_Z   1
loop_
 _symmetry_equiv_pos_site_id
 _symmetry_equiv_pos_as_xyz
  1  'x, y, z'
loop_
 _atom_site_type_symbol
 _atom_site_label
 _atom_site_symmetry_multiplicity
 _atom_site_fract_x
 _atom_site_fract_y
 _atom_site_fract_z
 _atom_site_occupancy
  Mg  Mg0  1  0.50000008  0.77353471  0.89326371  1
  Mg  Mg1  1  0.49999999  0.11969890  0.22649671  1
  Mg  Mg2  1  0.50000011  0.10677409  0.88027480  1
  Mg  Mg3  1  0.00000082  0.66673369  0.33326632  1
  Mg  Mg4  1  0.49999959  0.33323688  0.66694416  1
  Ni  Ni0  1  -0.00000112  0.56743250  0.92815278  1
  Ni  Ni1  1  -0.00000236  0.36047162  0.43244175  1
  Ni  Ni2  1  0.00000049  0.07198660  0.63943881  1
  Ni  Ni3  1  0.50000049  0.94482041  0.39351517  1
  Ni  Ni4  1  0.49999974  0.44857898  0.05505877  1
  Ni  Ni5  1  0.49999933  0.60664096  0.55132113  1
  Ni  Ni6  1  0.00000196  0.87187672  0.16428638  1
  Ni  Ni7  1  0.00000006  0.29224944  0.12784359  1
  Ni  Ni8  1  -0.00000018  0.83605409  0.70776600  1
  P  P0  1  0.50000133  0.71402856  0.13730247  1
  P  P1  1  0.49999988  0.42321220  0.28588047  1
  P  P2  1  0.50000007  0.86274142  0.57678279  1
  P  P3  1  0.00000014  0.00000360  0.00000956  1
  P  P4  1  -0.00000034  0.57390985  0.68675243  1
  P  P5  1  -0.00000000  0.11286645  0.42612142  1
  P  P6  1  -0.00000007  0.31314832  0.88708077  1
loop_
_geom_bond_atom_site_label_1
_geom_bond_atom_site_label_2
_geom_bond_distance
_geom_bond_site_symmetry_2
Mg0 P3 2.566244 1_566
Mg0 P3 2.566245 1_666
Mg0 P0 2.569609 1_556
Mg0 P4 2.611632 1_655
Mg0 P4 2.611635 1_555
Mg0 Ni5 2.731689 1_555
Mg0 Ni8 2.748654 1_655
Mg0 Ni8 2.748655 1_555
Mg0 Ni0 2.763748 1_655
Mg0 Ni0 2.763754 1_555
Mg0 Ni6 2.848343 1_556
Mg0 Ni6 2.848352 1_656
Mg1 P3 2.566227 1_555
Mg1 P3 2.566227 1_655
Mg1 P1 2.569996 1_555
Mg1 P5 2.611290 1_555
Mg1 P5 2.611290 1_655
Mg1 Ni3 2.731250 1_545
Mg1 Ni6 2.748118 1_545
Mg1 Ni6 2.748127 1_645
Mg1 Ni1 2.762490 1_655
Mg1 Ni1 2.762501 1_555
Mg1 Ni7 2.849227 1_555
Mg1 Ni7 2.849228 1_655
Mg2 P3 2.566294 1_656
Mg2 P3 2.566295 1_556
Mg2 P2 2.569516 1_545
Mg2 P6 2.610956 1_655
Mg2 P6 2.610957 1_555
Mg2 Ni4 2.730827 1_556
Mg2 Ni7 2.746590 1_556
Mg2 Ni7 2.746591 1_656
Mg2 Ni2 2.762842 1_555
Mg2 Ni2 2.762843 1_655
Mg2 Ni8 2.846679 1_645
Mg2 Ni8 2.846681 1_545
Mg3 P0 2.748518 1_455
Mg3 P0 2.748520 1_555
Mg3 P2 2.749925 1_555
Mg3 P2 2.749928 1_455
Mg3 P1 2.750274 1_555
Mg3 P1 2.750279 1_455
Mg3 Ni3 2.961796 1_555
Mg3 Ni3 2.961797 1_455
Mg3 Ni5 2.962361 1_555
Mg3 Ni5 2.962368 1_455
Mg3 Ni4 2.963048 1_555
Mg3 Ni4 2.963054 1_455
Mg3 Ni6 2.993090 1_555
Mg3 Ni8 2.996047 1_555
Mg3 Ni7 2.996359 1_555
Mg4 P6 2.800322 1_555
Mg4 P6 2.800324 1_655
Mg4 P5 2.803577 1_555
Mg4 P5 2.803578 1_655
Mg4 P4 2.804479 1_555
Mg4 P4 2.804480 1_655
Mg4 Ni2 2.927308 1_555
Mg4 Ni2 2.927311 1_655
Mg4 Ni0 2.928488 1_655
Mg4 Ni0 2.928490 1_555
Mg4 Ni1 2.931428 1_655
Mg4 Ni1 2.931437 1_555
Ni0 P6 2.180995 1_555
Ni0 P4 2.256973 1_555
Ni0 P0 2.500080 1_456
Ni0 P0 2.500094 1_556
Ni0 Ni6 2.552318 1_556
Ni1 P4 2.181878 1_555
Ni1 P5 2.255374 1_555
Ni1 P1 2.500647 1_455
Ni1 P1 2.500659 1_555
Ni1 Ni7 2.553637 1_555
Ni2 P5 2.180600 1_555
Ni2 P6 2.255047 1_555
Ni2 P2 2.500574 1_545
Ni2 P2 2.500577 1_445
Ni2 Ni8 2.550424 1_545
Ni3 P2 2.170261 1_555
Ni3 P0 2.255298 1_555
Ni3 P5 2.309962 1_665
Ni3 P5 2.309964 1_565
Ni3 Ni6 2.609446 1_555
Ni3 Ni6 2.609453 1_655
Ni4 P0 2.171108 1_555
Ni4 P1 2.255040 1_555
Ni4 P6 2.309675 1_554
Ni4 P6 2.309675 1_654
Ni4 Ni7 2.608982 1_555
Ni4 Ni7 2.608984 1_655
Ni5 P1 2.171379 1_555
Ni5 P2 2.254105 1_555
Ni5 P4 2.310274 1_555
Ni5 P4 2.310275 1_655
Ni5 Ni8 2.610732 1_555
Ni5 Ni8 2.610736 1_655
Ni6 P0 2.264602 1_555
Ni6 P0 2.264606 1_455
Ni6 P5 2.325078 1_565
Ni6 P3 2.341589 1_565
Ni7 P1 2.265439 1_555
Ni7 P1 2.265439 1_455
Ni7 P6 2.323010 1_554
Ni7 P3 2.340758 1_555
Ni8 P2 2.264128 1_455
Ni8 P2 2.264129 1_555
Ni8 P4 2.327231 1_555
Ni8 P3 2.340247 1_566
