# generated using pymatgen
data_YbZnCuAs2
_symmetry_space_group_name_H-M   'P 1'
_cell_length_a   4.05698224
_cell_length_b   4.05698224
_cell_length_c   6.63705831
_cell_angle_alpha   90.00000000
_cell_angle_beta   90.00000000
_cell_angle_gamma   120.00001041
_symmetry_Int_Tables_number   1
_chemical_formula_structural   YbZnCuAs2
_chemical_formula_sum   'Yb1 Zn1 Cu1 As2'
_cell_volume   94.60463912
_cell_formula_units_Z   1
loop_
 _symmetry_equiv_pos_site_id
 _symmetry_equiv_pos_as_xyz
  1  'x, y, z'
loop_
 _atom_site_type_symbol
 _atom_site_label
 _atom_site_symmetry_multiplicity
 _atom_site_fract_x
 _atom_site_fract_y
 _atom_site_fract_z
 _atom_site_occupancy
  Yb  Yb0  1  0.33333300  0.66666700  0.98291847  1
  Zn  Zn0  1  0.00000000  0.00000000  0.37922343  1
  Cu  Cu0  1  0.66666700  0.33333300  0.63863970  1
  As  As0  1  0.66666700  0.33333300  0.24721290  1
  As  As1  1  0.00000000  0.00000000  0.75200652  1
loop_
_geom_bond_atom_site_label_1
_geom_bond_atom_site_label_2
_geom_bond_distance
_geom_bond_site_symmetry_2
Cu0 Zn0 2.907029 1_655
Cu0 Zn0 2.907032 1_555
Cu0 Zn0 2.907032 1_665
Cu0 Yb0 3.272243 1_655
Cu0 Yb0 3.272243 1_545
Cu0 Yb0 3.272248 1_555
As0 Zn0 2.500803 1_655
As0 Zn0 2.500806 1_555
As0 Zn0 2.500806 1_665
As0 Cu0 2.597922 1_555
As0 Yb0 2.926321 1_544
As0 Yb0 2.926321 1_654
As0 Yb0 2.926327 1_554
As1 Cu0 2.460182 1_455
As1 Cu0 2.460185 1_555
As1 Cu0 2.460185 1_445
As1 Zn0 2.474183 1_555
As1 Yb0 2.799133 1_545
As1 Yb0 2.799136 1_555
As1 Yb0 2.799136 1_445
