# generated using pymatgen
data_CoBP2HPbO9
_symmetry_space_group_name_H-M   'P 1'
_cell_length_a   5.28189200
_cell_length_b   7.87942435
_cell_length_c   8.48225331
_cell_angle_alpha   89.96251323
_cell_angle_beta   99.77725593
_cell_angle_gamma   92.33928104
_symmetry_Int_Tables_number   1
_chemical_formula_structural   CoBP2HPbO9
_chemical_formula_sum   'Co2 B2 P4 H2 Pb2 O18'
_cell_volume   347.59228590
_cell_formula_units_Z   2
loop_
 _symmetry_equiv_pos_site_id
 _symmetry_equiv_pos_as_xyz
  1  'x, y, z'
loop_
 _atom_site_type_symbol
 _atom_site_label
 _atom_site_symmetry_multiplicity
 _atom_site_fract_x
 _atom_site_fract_y
 _atom_site_fract_z
 _atom_site_occupancy
  Co  Co0  1  0.26681400  0.79846000  0.19911400  1
  Co  Co1  1  0.73318600  0.20154000  0.80088600  1
  B  B0  1  0.11611500  0.75025300  0.54323300  1
  B  B1  1  0.88388500  0.24974700  0.45676700  1
  P  P0  1  0.22876200  0.93442000  0.82234100  1
  P  P1  1  0.77123800  0.06558000  0.17765900  1
  P  P2  1  0.18845800  0.42978400  0.69861100  1
  P  P3  1  0.81154200  0.57021600  0.30138900  1
  H  H0  1  0.46288000  0.85039500  0.49961500  1
  H  H1  1  0.53712000  0.14960500  0.50038500  1
  Pb  Pb0  1  0.72053600  0.69477300  0.91097600  1
  Pb  Pb1  1  0.27946400  0.30522700  0.08902400  1
  O  O0  1  0.50816500  0.97101900  0.79531200  1
  O  O1  1  0.49183500  0.02898100  0.20468800  1
  O  O2  1  0.43333000  0.38149100  0.81276400  1
  O  O3  1  0.56667000  0.61850900  0.18723600  1
  O  O4  1  0.28763200  0.82981700  0.44218800  1
  O  O5  1  0.71236800  0.17018300  0.55781200  1
  O  O6  1  0.25722800  0.60515800  0.62604000  1
  O  O7  1  0.74277200  0.39484200  0.37396000  1
  O  O8  1  0.23337500  0.78674200  0.94607100  1
  O  O9  1  0.76662500  0.21325800  0.05392900  1
  O  O10  1  0.13169200  0.29860000  0.55599000  1
  O  O11  1  0.86830800  0.70140000  0.44401000  1
  O  O12  1  0.09995900  0.09258000  0.87038300  1
  O  O13  1  0.90004100  0.90742000  0.12961700  1
  O  O14  1  0.05110500  0.86624200  0.66473400  1
  O  O15  1  0.94889500  0.13375800  0.33526600  1
  O  O16  1  0.04296600  0.56431900  0.21354700  1
  O  O17  1  0.95703400  0.43568100  0.78645300  1
loop_
_geom_bond_atom_site_label_1
_geom_bond_atom_site_label_2
_geom_bond_distance
_geom_bond_site_symmetry_2
Co0 O4 2.060502 1_555
Co0 O8 2.125281 1_554
Co0 O1 2.125761 1_565
Co0 O13 2.141215 1_455
Co0 O16 2.165031 1_555
Co0 O3 2.183294 1_555
Co1 O5 2.060502 1_555
Co1 O9 2.125281 1_556
Co1 O0 2.125761 1_545
Co1 O12 2.141215 1_655
Co1 O17 2.165031 1_555
Co1 O2 2.183294 1_555
B0 O11 1.467945 1_455
B0 O14 1.470494 1_555
B0 O4 1.471392 1_555
B0 O6 1.498882 1_555
B1 O10 1.467945 1_655
B1 O15 1.470494 1_555
B1 O5 1.471392 1_555
B1 O7 1.498882 1_555
H0 O4 0.977287 1_555
H1 O5 0.977287 1_555
O0 P0 1.547168 1_555
O0 Pb0 2.604111 1_555
O1 P1 1.547168 1_555
O1 Pb1 2.604111 1_555
O2 P2 1.539335 1_555
O2 Pb1 2.667916 1_556
O2 Pb0 2.890751 1_555
O3 P3 1.539335 1_555
O3 Pb0 2.667916 1_554
O3 Pb1 2.890751 1_555
O6 P2 1.566593 1_555
O7 P3 1.566593 1_555
O8 P0 1.564641 1_555
O8 Pb0 2.741771 1_455
O8 Pb0 2.765396 1_555
O9 P1 1.564641 1_555
O9 Pb1 2.741771 1_655
O9 Pb1 2.765396 1_555
O10 P2 1.573204 1_555
O11 P3 1.573204 1_555
O12 P0 1.531657 1_545
O12 Pb1 2.534357 1_556
O13 P1 1.531657 1_565
O13 Pb0 2.534357 1_554
O14 P0 1.577987 1_555
O15 P1 1.577987 1_555
O16 P3 1.538018 1_455
O16 Pb1 2.739133 1_555
O17 P2 1.538018 1_655
O17 Pb0 2.739133 1_555
