# generated using pymatgen
data_MnCrAs
_symmetry_space_group_name_H-M   'P 1'
_cell_length_a   3.57799300
_cell_length_b   3.57799300
_cell_length_c   6.12626500
_cell_angle_alpha   90.00000000
_cell_angle_beta   90.00000000
_cell_angle_gamma   90.00000000
_symmetry_Int_Tables_number   1
_chemical_formula_structural   MnCrAs
_chemical_formula_sum   'Mn2 Cr2 As2'
_cell_volume   78.42865226
_cell_formula_units_Z   2
loop_
 _symmetry_equiv_pos_site_id
 _symmetry_equiv_pos_as_xyz
  1  'x, y, z'
loop_
 _atom_site_type_symbol
 _atom_site_label
 _atom_site_symmetry_multiplicity
 _atom_site_fract_x
 _atom_site_fract_y
 _atom_site_fract_z
 _atom_site_occupancy
  Mn  Mn0  1  0.75000000  0.25000000  0.00000000  1
  Mn  Mn1  1  0.25000000  0.75000000  0.00000000  1
  Cr  Cr0  1  0.75000000  0.75000000  0.66529000  1
  Cr  Cr1  1  0.25000000  0.25000000  0.33471000  1
  As  As0  1  0.75000000  0.75000000  0.27193600  1
  As  As1  1  0.25000000  0.25000000  0.72806400  1
loop_
_geom_bond_atom_site_label_1
_geom_bond_atom_site_label_2
_geom_bond_distance
_geom_bond_site_symmetry_2
As0 Cr0 2.409791 1_555
As0 Mn0 2.444566 1_555
As0 Mn0 2.444566 1_565
As0 Mn1 2.444566 1_655
As0 Mn1 2.444566 1_555
As0 Cr1 2.559084 1_565
As0 Cr1 2.559084 1_655
As0 Cr1 2.559084 1_555
As0 Cr1 2.559084 1_665
As1 Cr1 2.409791 1_555
As1 Mn0 2.444566 1_556
As1 Mn1 2.444566 1_556
As1 Mn1 2.444566 1_546
As1 Mn0 2.444566 1_456
As1 Cr0 2.559084 1_555
As1 Cr0 2.559084 1_545
As1 Cr0 2.559084 1_445
As1 Cr0 2.559084 1_455
