# generated using pymatgen
data_Y2Mg
_symmetry_space_group_name_H-M   'P 1'
_cell_length_a   7.10099966
_cell_length_b   7.10099966
_cell_length_c   33.42351800
_cell_angle_alpha   90.00000000
_cell_angle_beta   90.00000000
_cell_angle_gamma   119.99999683
_symmetry_Int_Tables_number   1
_chemical_formula_structural   Y2Mg
_chemical_formula_sum   'Y32 Mg16'
_cell_volume   1459.55944960
_cell_formula_units_Z   16
loop_
 _symmetry_equiv_pos_site_id
 _symmetry_equiv_pos_as_xyz
  1  'x, y, z'
loop_
 _atom_site_type_symbol
 _atom_site_label
 _atom_site_symmetry_multiplicity
 _atom_site_fract_x
 _atom_site_fract_y
 _atom_site_fract_z
 _atom_site_occupancy
  Y  Y0_0  1  0.00000000  0.00000000  0.25000000  1
  Y  Y0_1  1  0.00000000  0.00000000  0.75000000  1
  Y  Y0_2  1  0.00000000  0.50000000  0.25000000  1
  Y  Y0_3  1  0.00000000  0.50000000  0.75000000  1
  Y  Y0_4  1  0.50000000  0.00000000  0.25000000  1
  Y  Y0_5  1  0.50000000  0.00000000  0.75000000  1
  Y  Y0_6  1  0.50000000  0.50000000  0.25000000  1
  Y  Y0_7  1  0.50000000  0.50000000  0.75000000  1
  Y  Y1_0  1  0.33333350  0.16666650  0.16444650  1
  Y  Y1_1  1  0.33333350  0.16666650  0.66444650  1
  Y  Y1_2  1  0.33333350  0.66666650  0.16444650  1
  Y  Y1_3  1  0.33333350  0.66666650  0.66444650  1
  Y  Y1_4  1  0.83333350  0.16666650  0.16444650  1
  Y  Y1_5  1  0.83333350  0.16666650  0.66444650  1
  Y  Y1_6  1  0.83333350  0.66666650  0.16444650  1
  Y  Y1_7  1  0.83333350  0.66666650  0.66444650  1
  Y  Y2_0  1  0.33333350  0.16666650  0.00000000  1
  Y  Y2_1  1  0.33333350  0.16666650  0.50000000  1
  Y  Y2_2  1  0.33333350  0.66666650  0.00000000  1
  Y  Y2_3  1  0.33333350  0.66666650  0.50000000  1
  Y  Y2_4  1  0.83333350  0.16666650  0.00000000  1
  Y  Y2_5  1  0.83333350  0.16666650  0.50000000  1
  Y  Y2_6  1  0.83333350  0.66666650  0.00000000  1
  Y  Y2_7  1  0.83333350  0.66666650  0.50000000  1
  Y  Y3_0  1  0.33333350  0.16666650  0.33555350  1
  Y  Y3_1  1  0.33333350  0.16666650  0.83555350  1
  Y  Y3_2  1  0.33333350  0.66666650  0.33555350  1
  Y  Y3_3  1  0.33333350  0.66666650  0.83555350  1
  Y  Y3_4  1  0.83333350  0.16666650  0.33555350  1
  Y  Y3_5  1  0.83333350  0.16666650  0.83555350  1
  Y  Y3_6  1  0.83333350  0.66666650  0.33555350  1
  Y  Y3_7  1  0.83333350  0.66666650  0.83555350  1
  Mg  Mg0_0  1  0.00000000  0.00000000  0.08236150  1
  Mg  Mg0_1  1  0.00000000  0.00000000  0.58236150  1
  Mg  Mg0_2  1  0.00000000  0.50000000  0.08236150  1
  Mg  Mg0_3  1  0.00000000  0.50000000  0.58236150  1
  Mg  Mg0_4  1  0.50000000  0.00000000  0.08236150  1
  Mg  Mg0_5  1  0.50000000  0.00000000  0.58236150  1
  Mg  Mg0_6  1  0.50000000  0.50000000  0.08236150  1
  Mg  Mg0_7  1  0.50000000  0.50000000  0.58236150  1
  Mg  Mg1_0  1  0.00000000  0.00000000  0.41763850  1
  Mg  Mg1_1  1  0.00000000  0.00000000  0.91763850  1
  Mg  Mg1_2  1  0.00000000  0.50000000  0.41763850  1
  Mg  Mg1_3  1  0.00000000  0.50000000  0.91763850  1
  Mg  Mg1_4  1  0.50000000  0.00000000  0.41763850  1
  Mg  Mg1_5  1  0.50000000  0.00000000  0.91763850  1
  Mg  Mg1_6  1  0.50000000  0.50000000  0.41763850  1
  Mg  Mg1_7  1  0.50000000  0.50000000  0.91763850  1
loop_
_geom_bond_atom_site_label_1
_geom_bond_atom_site_label_2
_geom_bond_distance
_geom_bond_site_symmetry_2
Y0_0 Y1_4 3.518344 1_455
Y0_0 Y3_4 3.518344 1_455
Y0_0 Y3_0 3.518345 1_555
Y0_0 Y1_0 3.518345 1_555
Y0_0 Y3_6 3.518345 1_445
Y0_0 Y1_6 3.518345 1_445
Y0_0 Y0_2 3.550500 1_555
Y0_0 Y0_4 3.550500 1_455
Y0_0 Y0_4 3.550500 1_555
Y0_0 Y0_2 3.550500 1_545
Y0_0 Y0_6 3.550500 1_445
Y0_0 Y0_6 3.550500 1_555
Y0_1 Y3_5 3.518344 1_455
Y0_1 Y1_5 3.518344 1_455
Y0_1 Y3_1 3.518345 1_555
Y0_1 Y1_1 3.518345 1_555
Y0_1 Y1_7 3.518345 1_445
Y0_1 Y3_7 3.518345 1_445
Y0_1 Y0_3 3.550500 1_555
Y0_1 Y0_5 3.550500 1_555
Y0_1 Y0_3 3.550500 1_545
Y0_1 Y0_5 3.550500 1_455
Y0_1 Y0_7 3.550500 1_555
Y0_1 Y0_7 3.550500 1_445
Y0_2 Y1_6 3.518344 1_455
Y0_2 Y3_6 3.518344 1_455
Y0_2 Y3_2 3.518345 1_555
Y0_2 Y1_2 3.518345 1_555
Y0_2 Y1_4 3.518345 1_455
Y0_2 Y3_4 3.518345 1_455
Y0_2 Y0_6 3.550500 1_555
Y0_2 Y0_6 3.550500 1_455
Y0_2 Y0_4 3.550500 1_455
Y0_2 Y0_4 3.550500 1_565
Y0_3 Y3_7 3.518344 1_455
Y0_3 Y1_7 3.518344 1_455
Y0_3 Y1_5 3.518345 1_455
Y0_3 Y1_3 3.518345 1_555
Y0_3 Y3_5 3.518345 1_455
Y0_3 Y3_3 3.518345 1_555
Y0_3 Y0_7 3.550500 1_455
Y0_3 Y0_7 3.550500 1_555
Y0_3 Y0_5 3.550500 1_565
Y0_3 Y0_5 3.550500 1_455
Y0_4 Y1_0 3.518344 1_555
Y0_4 Y3_0 3.518344 1_555
Y0_4 Y3_4 3.518345 1_555
Y0_4 Y1_4 3.518345 1_555
Y0_4 Y1_2 3.518345 1_545
Y0_4 Y3_2 3.518345 1_545
Y0_4 Y0_6 3.550500 1_555
Y0_4 Y0_6 3.550500 1_545
Y0_5 Y1_1 3.518344 1_555
Y0_5 Y3_1 3.518344 1_555
Y0_5 Y1_5 3.518345 1_555
Y0_5 Y3_5 3.518345 1_555
Y0_5 Y3_3 3.518345 1_545
Y0_5 Y1_3 3.518345 1_545
Y0_5 Y0_7 3.550500 1_555
Y0_5 Y0_7 3.550500 1_545
Y0_6 Y1_2 3.518344 1_555
Y0_6 Y3_2 3.518344 1_555
Y0_6 Y3_0 3.518345 1_555
Y0_6 Y3_6 3.518345 1_555
Y0_6 Y1_0 3.518345 1_555
Y0_6 Y1_6 3.518345 1_555
Y0_7 Y1_3 3.518344 1_555
Y0_7 Y3_3 3.518344 1_555
Y0_7 Y3_1 3.518345 1_555
Y0_7 Y1_1 3.518345 1_555
Y0_7 Y1_7 3.518345 1_555
Y0_7 Y3_7 3.518345 1_555
Y1_0 Y1_4 3.550500 1_555
Y1_0 Y1_2 3.550500 1_555
Y1_0 Y1_2 3.550500 1_545
Y1_0 Y1_4 3.550500 1_455
Y1_0 Y1_6 3.550500 1_445
Y1_0 Y1_6 3.550500 1_555
Y1_1 Y1_5 3.550500 1_555
Y1_1 Y1_3 3.550500 1_555
Y1_1 Y1_3 3.550500 1_545
Y1_1 Y1_5 3.550500 1_455
Y1_1 Y1_7 3.550500 1_445
Y1_1 Y1_7 3.550500 1_555
Y1_2 Y1_6 3.550500 1_455
Y1_2 Y1_6 3.550500 1_555
Y1_2 Y1_4 3.550500 1_565
Y1_2 Y1_4 3.550500 1_455
Y1_3 Y1_7 3.550500 1_455
Y1_3 Y1_7 3.550500 1_555
Y1_3 Y1_5 3.550500 1_565
Y1_3 Y1_5 3.550500 1_455
Y1_4 Y1_6 3.550500 1_555
Y1_4 Y1_6 3.550500 1_545
Y1_5 Y1_7 3.550500 1_555
Y1_5 Y1_7 3.550500 1_545
Y2_0 Y2_2 3.550500 1_555
Y2_0 Y2_4 3.550500 1_555
Y2_0 Y2_2 3.550500 1_545
Y2_0 Y2_4 3.550500 1_455
Y2_0 Y2_6 3.550500 1_445
Y2_0 Y2_6 3.550500 1_555
Y2_1 Y2_5 3.550500 1_555
Y2_1 Y2_3 3.550500 1_555
Y2_1 Y2_3 3.550500 1_545
Y2_1 Y2_5 3.550500 1_455
Y2_1 Y2_7 3.550500 1_445
Y2_1 Y2_7 3.550500 1_555
Y2_2 Y2_6 3.550500 1_455
Y2_2 Y2_6 3.550500 1_555
Y2_2 Y2_4 3.550500 1_455
Y2_2 Y2_4 3.550500 1_565
Y2_3 Y2_7 3.550500 1_455
Y2_3 Y2_7 3.550500 1_555
Y2_3 Y2_5 3.550500 1_455
Y2_3 Y2_5 3.550500 1_565
Y2_4 Y2_6 3.550500 1_555
Y2_4 Y2_6 3.550500 1_545
Y2_5 Y2_7 3.550500 1_555
Y2_5 Y2_7 3.550500 1_545
Y3_0 Y3_4 3.550500 1_555
Y3_0 Y3_2 3.550500 1_555
Y3_0 Y3_4 3.550500 1_455
Y3_0 Y3_2 3.550500 1_545
Y3_0 Y3_6 3.550500 1_445
Y3_0 Y3_6 3.550500 1_555
Y3_1 Y3_3 3.550500 1_555
Y3_1 Y3_5 3.550500 1_555
Y3_1 Y3_5 3.550500 1_455
Y3_1 Y3_3 3.550500 1_545
Y3_1 Y3_7 3.550500 1_445
Y3_1 Y3_7 3.550500 1_555
Y3_2 Y3_6 3.550500 1_455
Y3_2 Y3_6 3.550500 1_555
Y3_2 Y3_4 3.550500 1_565
Y3_2 Y3_4 3.550500 1_455
Y3_3 Y3_7 3.550500 1_455
Y3_3 Y3_7 3.550500 1_555
Y3_3 Y3_5 3.550500 1_565
Y3_3 Y3_5 3.550500 1_455
Y3_4 Y3_6 3.550500 1_555
Y3_4 Y3_6 3.550500 1_545
Y3_5 Y3_7 3.550500 1_555
Y3_5 Y3_7 3.550500 1_545
Mg0_0 Y1_4 3.424789 1_455
Mg0_0 Y1_6 3.424791 1_445
Mg0_0 Y1_0 3.424791 1_555
Mg0_0 Y2_4 3.432197 1_455
Mg0_0 Y2_6 3.432199 1_445
Mg0_0 Y2_0 3.432199 1_555
Mg0_1 Y1_5 3.424789 1_455
Mg0_1 Y1_1 3.424791 1_555
Mg0_1 Y1_7 3.424791 1_445
Mg0_1 Y2_5 3.432197 1_455
Mg0_1 Y2_7 3.432199 1_445
Mg0_1 Y2_1 3.432199 1_555
Mg0_2 Y1_6 3.424789 1_455
Mg0_2 Y1_2 3.424791 1_555
Mg0_2 Y1_4 3.424791 1_455
Mg0_2 Y2_6 3.432197 1_455
Mg0_2 Y2_2 3.432199 1_555
Mg0_2 Y2_4 3.432199 1_455
Mg0_3 Y1_7 3.424789 1_455
Mg0_3 Y1_5 3.424791 1_455
Mg0_3 Y1_3 3.424791 1_555
Mg0_3 Y2_7 3.432197 1_455
Mg0_3 Y2_3 3.432199 1_555
Mg0_3 Y2_5 3.432199 1_455
Mg0_4 Y1_0 3.424789 1_555
Mg0_4 Y1_2 3.424791 1_545
Mg0_4 Y1_4 3.424791 1_555
Mg0_4 Y2_0 3.432197 1_555
Mg0_4 Y2_2 3.432199 1_545
Mg0_4 Y2_4 3.432199 1_555
Mg0_5 Y1_1 3.424789 1_555
Mg0_5 Y1_5 3.424791 1_555
Mg0_5 Y1_3 3.424791 1_545
Mg0_5 Y2_1 3.432197 1_555
Mg0_5 Y2_5 3.432199 1_555
Mg0_5 Y2_3 3.432199 1_545
Mg0_6 Y1_2 3.424789 1_555
Mg0_6 Y1_6 3.424791 1_555
Mg0_6 Y1_0 3.424791 1_555
Mg0_6 Y2_2 3.432197 1_555
Mg0_6 Y2_6 3.432199 1_555
Mg0_6 Y2_0 3.432199 1_555
Mg0_7 Y1_3 3.424789 1_555
Mg0_7 Y1_1 3.424791 1_555
Mg0_7 Y1_7 3.424791 1_555
Mg0_7 Y2_3 3.432197 1_555
Mg0_7 Y2_1 3.432199 1_555
Mg0_7 Y2_7 3.432199 1_555
Mg1_0 Y3_4 3.424789 1_455
Mg1_0 Y3_0 3.424791 1_555
Mg1_0 Y3_6 3.424791 1_445
Mg1_0 Y2_5 3.432197 1_455
Mg1_0 Y2_1 3.432199 1_555
Mg1_0 Y2_7 3.432199 1_445
Mg1_1 Y3_5 3.424789 1_455
Mg1_1 Y3_1 3.424791 1_555
Mg1_1 Y3_7 3.424791 1_445
Mg1_1 Y2_4 3.432197 1_456
Mg1_1 Y2_0 3.432199 1_556
Mg1_1 Y2_6 3.432199 1_446
Mg1_2 Y3_6 3.424789 1_455
Mg1_2 Y3_4 3.424791 1_455
Mg1_2 Y3_2 3.424791 1_555
Mg1_2 Y2_7 3.432197 1_455
Mg1_2 Y2_3 3.432199 1_555
Mg1_2 Y2_5 3.432199 1_455
Mg1_3 Y3_7 3.424789 1_455
Mg1_3 Y3_5 3.424791 1_455
Mg1_3 Y3_3 3.424791 1_555
Mg1_3 Y2_6 3.432197 1_456
Mg1_3 Y2_2 3.432199 1_556
Mg1_3 Y2_4 3.432199 1_456
Mg1_4 Y3_0 3.424789 1_555
Mg1_4 Y3_4 3.424791 1_555
Mg1_4 Y3_2 3.424791 1_545
Mg1_4 Y2_1 3.432197 1_555
Mg1_4 Y2_5 3.432199 1_555
Mg1_4 Y2_3 3.432199 1_545
Mg1_5 Y3_1 3.424789 1_555
Mg1_5 Y3_5 3.424791 1_555
Mg1_5 Y3_3 3.424791 1_545
Mg1_5 Y2_0 3.432197 1_556
Mg1_5 Y2_4 3.432199 1_556
Mg1_5 Y2_2 3.432199 1_546
Mg1_6 Y3_2 3.424789 1_555
Mg1_6 Y3_0 3.424791 1_555
Mg1_6 Y3_6 3.424791 1_555
Mg1_6 Y2_3 3.432197 1_555
Mg1_6 Y2_1 3.432199 1_555
Mg1_6 Y2_7 3.432199 1_555
Mg1_7 Y3_3 3.424789 1_555
Mg1_7 Y3_1 3.424791 1_555
Mg1_7 Y3_7 3.424791 1_555
Mg1_7 Y2_2 3.432197 1_556
Mg1_7 Y2_6 3.432199 1_556
Mg1_7 Y2_0 3.432199 1_556
