# generated using pymatgen
data_Sc5(In2Rh)2
_symmetry_space_group_name_H-M   'P 1'
_cell_length_a   6.63637462
_cell_length_b   15.41704258
_cell_length_c   35.28902940
_cell_angle_alpha   90.00000000
_cell_angle_beta   90.00000000
_cell_angle_gamma   90.00000000
_symmetry_Int_Tables_number   1
_chemical_formula_structural   Sc5(In2Rh)2
_chemical_formula_sum   'Sc80 In64 Rh32'
_cell_volume   3610.53599634
_cell_formula_units_Z   16
loop_
 _symmetry_equiv_pos_site_id
 _symmetry_equiv_pos_as_xyz
  1  'x, y, z'
loop_
 _atom_site_type_symbol
 _atom_site_label
 _atom_site_symmetry_multiplicity
 _atom_site_fract_x
 _atom_site_fract_y
 _atom_site_fract_z
 _atom_site_occupancy
  Sc  Sc0_0  1  0.00000000  0.00000000  0.00000000  1
  Sc  Sc0_1  1  0.00000000  0.00000000  0.50000000  1
  Sc  Sc0_2  1  0.00000000  0.50000000  0.00000000  1
  Sc  Sc0_3  1  0.00000000  0.50000000  0.50000000  1
  Sc  Sc0_4  1  0.50000000  0.00000000  0.00000000  1
  Sc  Sc0_5  1  0.50000000  0.00000000  0.50000000  1
  Sc  Sc0_6  1  0.50000000  0.50000000  0.00000000  1
  Sc  Sc0_7  1  0.50000000  0.50000000  0.50000000  1
  Sc  Sc1_0  1  0.00000000  0.25000000  0.25000000  1
  Sc  Sc1_1  1  0.00000000  0.25000000  0.75000000  1
  Sc  Sc1_2  1  0.00000000  0.75000000  0.25000000  1
  Sc  Sc1_3  1  0.00000000  0.75000000  0.75000000  1
  Sc  Sc1_4  1  0.50000000  0.25000000  0.25000000  1
  Sc  Sc1_5  1  0.50000000  0.25000000  0.75000000  1
  Sc  Sc1_6  1  0.50000000  0.75000000  0.25000000  1
  Sc  Sc1_7  1  0.50000000  0.75000000  0.75000000  1
  Sc  Sc2_0  1  0.00000000  0.37260537  0.38955683  1
  Sc  Sc2_1  1  0.00000000  0.37260537  0.88955683  1
  Sc  Sc2_2  1  0.00000000  0.87260537  0.38955683  1
  Sc  Sc2_3  1  0.00000000  0.87260537  0.88955683  1
  Sc  Sc2_4  1  0.50000000  0.37260537  0.38955683  1
  Sc  Sc2_5  1  0.50000000  0.37260537  0.88955683  1
  Sc  Sc2_6  1  0.50000000  0.87260537  0.38955683  1
  Sc  Sc2_7  1  0.50000000  0.87260537  0.88955683  1
  Sc  Sc3_0  1  0.00000000  0.12739463  0.11044317  1
  Sc  Sc3_1  1  0.00000000  0.12739463  0.61044317  1
  Sc  Sc3_2  1  0.00000000  0.62739463  0.11044317  1
  Sc  Sc3_3  1  0.00000000  0.62739463  0.61044317  1
  Sc  Sc3_4  1  0.50000000  0.12739463  0.11044317  1
  Sc  Sc3_5  1  0.50000000  0.12739463  0.61044317  1
  Sc  Sc3_6  1  0.50000000  0.62739463  0.11044317  1
  Sc  Sc3_7  1  0.50000000  0.62739463  0.61044317  1
  Sc  Sc4_0  1  0.00000000  0.12260537  0.36044317  1
  Sc  Sc4_1  1  0.00000000  0.12260537  0.86044317  1
  Sc  Sc4_2  1  0.00000000  0.62260537  0.36044317  1
  Sc  Sc4_3  1  0.00000000  0.62260537  0.86044317  1
  Sc  Sc4_4  1  0.50000000  0.12260537  0.36044317  1
  Sc  Sc4_5  1  0.50000000  0.12260537  0.86044317  1
  Sc  Sc4_6  1  0.50000000  0.62260537  0.36044317  1
  Sc  Sc4_7  1  0.50000000  0.62260537  0.86044317  1
  Sc  Sc5_0  1  0.00000000  0.37739463  0.13955683  1
  Sc  Sc5_1  1  0.00000000  0.37739463  0.63955683  1
  Sc  Sc5_2  1  0.00000000  0.87739463  0.13955683  1
  Sc  Sc5_3  1  0.00000000  0.87739463  0.63955683  1
  Sc  Sc5_4  1  0.50000000  0.37739463  0.13955683  1
  Sc  Sc5_5  1  0.50000000  0.37739463  0.63955683  1
  Sc  Sc5_6  1  0.50000000  0.87739463  0.13955683  1
  Sc  Sc5_7  1  0.50000000  0.87739463  0.63955683  1
  Sc  Sc6_0  1  0.00000000  0.43745678  0.29285769  1
  Sc  Sc6_1  1  0.00000000  0.43745678  0.79285770  1
  Sc  Sc6_2  1  0.00000000  0.93745678  0.29285769  1
  Sc  Sc6_3  1  0.00000000  0.93745678  0.79285770  1
  Sc  Sc6_4  1  0.50000000  0.43745678  0.29285769  1
  Sc  Sc6_5  1  0.50000000  0.43745678  0.79285770  1
  Sc  Sc6_6  1  0.50000000  0.93745678  0.29285769  1
  Sc  Sc6_7  1  0.50000000  0.93745678  0.79285770  1
  Sc  Sc7_0  1  0.00000000  0.06254323  0.20714230  1
  Sc  Sc7_1  1  0.00000000  0.06254323  0.70714230  1
  Sc  Sc7_2  1  0.00000000  0.56254322  0.20714230  1
  Sc  Sc7_3  1  0.00000000  0.56254322  0.70714230  1
  Sc  Sc7_4  1  0.50000000  0.06254323  0.20714230  1
  Sc  Sc7_5  1  0.50000000  0.06254323  0.70714230  1
  Sc  Sc7_6  1  0.50000000  0.56254322  0.20714230  1
  Sc  Sc7_7  1  0.50000000  0.56254322  0.70714230  1
  Sc  Sc8_0  1  0.00000000  0.18745677  0.45714231  1
  Sc  Sc8_1  1  0.00000000  0.18745677  0.95714231  1
  Sc  Sc8_2  1  0.00000000  0.68745678  0.45714231  1
  Sc  Sc8_3  1  0.00000000  0.68745678  0.95714231  1
  Sc  Sc8_4  1  0.50000000  0.18745677  0.45714231  1
  Sc  Sc8_5  1  0.50000000  0.18745677  0.95714231  1
  Sc  Sc8_6  1  0.50000000  0.68745678  0.45714231  1
  Sc  Sc8_7  1  0.50000000  0.68745678  0.95714231  1
  Sc  Sc9_0  1  0.00000000  0.31254322  0.04285770  1
  Sc  Sc9_1  1  0.00000000  0.31254322  0.54285770  1
  Sc  Sc9_2  1  0.00000000  0.81254323  0.04285770  1
  Sc  Sc9_3  1  0.00000000  0.81254323  0.54285770  1
  Sc  Sc9_4  1  0.50000000  0.31254322  0.04285770  1
  Sc  Sc9_5  1  0.50000000  0.31254322  0.54285770  1
  Sc  Sc9_6  1  0.50000000  0.81254323  0.04285770  1
  Sc  Sc9_7  1  0.50000000  0.81254323  0.54285770  1
  In  In0_0  1  0.25000000  0.39834570  0.21633672  1
  In  In0_1  1  0.25000000  0.39834570  0.71633672  1
  In  In0_2  1  0.25000000  0.89834570  0.21633672  1
  In  In0_3  1  0.25000000  0.89834570  0.71633672  1
  In  In0_4  1  0.75000000  0.39834570  0.21633672  1
  In  In0_5  1  0.75000000  0.39834570  0.71633672  1
  In  In0_6  1  0.75000000  0.89834570  0.21633672  1
  In  In0_7  1  0.75000000  0.89834570  0.71633672  1
  In  In1_0  1  0.25000000  0.10165431  0.28366328  1
  In  In1_1  1  0.25000000  0.10165431  0.78366329  1
  In  In1_2  1  0.25000000  0.60165431  0.28366328  1
  In  In1_3  1  0.25000000  0.60165431  0.78366329  1
  In  In1_4  1  0.75000000  0.10165431  0.28366328  1
  In  In1_5  1  0.75000000  0.10165431  0.78366329  1
  In  In1_6  1  0.75000000  0.60165431  0.28366328  1
  In  In1_7  1  0.75000000  0.60165431  0.78366329  1
  In  In2_0  1  0.25000000  0.14834569  0.03366329  1
  In  In2_1  1  0.25000000  0.14834569  0.53366329  1
  In  In2_2  1  0.25000000  0.64834570  0.03366329  1
  In  In2_3  1  0.25000000  0.64834570  0.53366329  1
  In  In2_4  1  0.75000000  0.14834569  0.03366329  1
  In  In2_5  1  0.75000000  0.14834569  0.53366329  1
  In  In2_6  1  0.75000000  0.64834570  0.03366329  1
  In  In2_7  1  0.75000000  0.64834570  0.53366329  1
  In  In3_0  1  0.25000000  0.35165431  0.46633672  1
  In  In3_1  1  0.25000000  0.35165431  0.96633671  1
  In  In3_2  1  0.25000000  0.85165431  0.46633672  1
  In  In3_3  1  0.25000000  0.85165431  0.96633671  1
  In  In3_4  1  0.75000000  0.35165431  0.46633672  1
  In  In3_5  1  0.75000000  0.35165431  0.96633671  1
  In  In3_6  1  0.75000000  0.85165431  0.46633672  1
  In  In3_7  1  0.75000000  0.85165431  0.96633671  1
  In  In4_0  1  0.25000000  0.46558120  0.07494914  1
  In  In4_1  1  0.25000000  0.46558120  0.57494914  1
  In  In4_2  1  0.25000000  0.96558120  0.07494914  1
  In  In4_3  1  0.25000000  0.96558120  0.57494914  1
  In  In4_4  1  0.75000000  0.46558120  0.07494914  1
  In  In4_5  1  0.75000000  0.46558120  0.57494914  1
  In  In4_6  1  0.75000000  0.96558120  0.07494914  1
  In  In4_7  1  0.75000000  0.96558120  0.57494914  1
  In  In5_0  1  0.25000000  0.03441880  0.42505086  1
  In  In5_1  1  0.25000000  0.03441880  0.92505086  1
  In  In5_2  1  0.25000000  0.53441880  0.42505086  1
  In  In5_3  1  0.25000000  0.53441880  0.92505086  1
  In  In5_4  1  0.75000000  0.03441880  0.42505086  1
  In  In5_5  1  0.75000000  0.03441880  0.92505086  1
  In  In5_6  1  0.75000000  0.53441880  0.42505086  1
  In  In5_7  1  0.75000000  0.53441880  0.92505086  1
  In  In6_0  1  0.25000000  0.21558120  0.17505086  1
  In  In6_1  1  0.25000000  0.21558120  0.67505086  1
  In  In6_2  1  0.25000000  0.71558120  0.17505086  1
  In  In6_3  1  0.25000000  0.71558120  0.67505086  1
  In  In6_4  1  0.75000000  0.21558120  0.17505086  1
  In  In6_5  1  0.75000000  0.21558120  0.67505086  1
  In  In6_6  1  0.75000000  0.71558120  0.17505086  1
  In  In6_7  1  0.75000000  0.71558120  0.67505086  1
  In  In7_0  1  0.25000000  0.28441880  0.32494914  1
  In  In7_1  1  0.25000000  0.28441880  0.82494914  1
  In  In7_2  1  0.25000000  0.78441880  0.32494914  1
  In  In7_3  1  0.25000000  0.78441880  0.82494914  1
  In  In7_4  1  0.75000000  0.28441880  0.32494914  1
  In  In7_5  1  0.75000000  0.28441880  0.82494914  1
  In  In7_6  1  0.75000000  0.78441880  0.32494914  1
  In  In7_7  1  0.75000000  0.78441880  0.82494914  1
  Rh  Rh0_0  1  0.25000000  0.48180487  0.34709343  1
  Rh  Rh0_1  1  0.25000000  0.48180487  0.84709343  1
  Rh  Rh0_2  1  0.25000000  0.98180487  0.34709343  1
  Rh  Rh0_3  1  0.25000000  0.98180487  0.84709343  1
  Rh  Rh0_4  1  0.75000000  0.48180487  0.34709343  1
  Rh  Rh0_5  1  0.75000000  0.48180487  0.84709343  1
  Rh  Rh0_6  1  0.75000000  0.98180487  0.34709343  1
  Rh  Rh0_7  1  0.75000000  0.98180487  0.84709343  1
  Rh  Rh1_0  1  0.25000000  0.01819513  0.15290657  1
  Rh  Rh1_1  1  0.25000000  0.01819513  0.65290658  1
  Rh  Rh1_2  1  0.25000000  0.51819513  0.15290657  1
  Rh  Rh1_3  1  0.25000000  0.51819513  0.65290658  1
  Rh  Rh1_4  1  0.75000000  0.01819513  0.15290657  1
  Rh  Rh1_5  1  0.75000000  0.01819513  0.65290658  1
  Rh  Rh1_6  1  0.75000000  0.51819513  0.15290657  1
  Rh  Rh1_7  1  0.75000000  0.51819513  0.65290658  1
  Rh  Rh2_0  1  0.25000000  0.23180487  0.40290657  1
  Rh  Rh2_1  1  0.25000000  0.23180487  0.90290658  1
  Rh  Rh2_2  1  0.25000000  0.73180487  0.40290657  1
  Rh  Rh2_3  1  0.25000000  0.73180487  0.90290658  1
  Rh  Rh2_4  1  0.75000000  0.23180487  0.40290657  1
  Rh  Rh2_5  1  0.75000000  0.23180487  0.90290658  1
  Rh  Rh2_6  1  0.75000000  0.73180487  0.40290657  1
  Rh  Rh2_7  1  0.75000000  0.73180487  0.90290658  1
  Rh  Rh3_0  1  0.25000000  0.26819513  0.09709342  1
  Rh  Rh3_1  1  0.25000000  0.26819513  0.59709343  1
  Rh  Rh3_2  1  0.25000000  0.76819513  0.09709342  1
  Rh  Rh3_3  1  0.25000000  0.76819513  0.59709343  1
  Rh  Rh3_4  1  0.75000000  0.26819513  0.09709342  1
  Rh  Rh3_5  1  0.75000000  0.26819513  0.59709343  1
  Rh  Rh3_6  1  0.75000000  0.76819513  0.09709342  1
  Rh  Rh3_7  1  0.75000000  0.76819513  0.59709343  1
loop_
_geom_bond_atom_site_label_1
_geom_bond_atom_site_label_2
_geom_bond_distance
_geom_bond_site_symmetry_2
In0_0 Rh1_2 2.902493 1_555
In0_0 Sc7_2 3.044020 1_555
In0_0 Sc7_6 3.044020 1_555
In0_0 Sc1_0 3.065030 1_555
In0_0 Sc1_4 3.065030 1_555
In0_0 In6_0 3.172071 1_555
In0_0 Sc5_0 3.193469 1_555
In0_0 Sc5_4 3.193469 1_555
In0_0 Sc6_0 3.226154 1_555
In0_0 Sc6_4 3.226154 1_555
In0_0 In0_4 3.318187 1_455
In0_0 In0_4 3.318187 1_555
In0_1 Rh1_3 2.902493 1_555
In0_1 Sc7_3 3.044020 1_555
In0_1 Sc7_7 3.044020 1_555
In0_1 Sc1_1 3.065030 1_555
In0_1 Sc1_5 3.065030 1_555
In0_1 In6_1 3.172071 1_555
In0_1 Sc5_5 3.193469 1_555
In0_1 Sc5_1 3.193469 1_555
In0_1 Sc6_5 3.226154 1_555
In0_1 Sc6_1 3.226154 1_555
In0_1 In0_5 3.318187 1_455
In0_1 In0_5 3.318187 1_555
In0_2 Rh1_0 2.902493 1_565
In0_2 Sc7_0 3.044020 1_565
In0_2 Sc7_4 3.044020 1_565
In0_2 Sc1_2 3.065030 1_555
In0_2 Sc1_6 3.065030 1_555
In0_2 In6_2 3.172071 1_555
In0_2 Sc5_2 3.193469 1_555
In0_2 Sc5_6 3.193469 1_555
In0_2 Sc6_2 3.226154 1_555
In0_2 Sc6_6 3.226154 1_555
In0_2 In0_6 3.318187 1_555
In0_2 In0_6 3.318187 1_455
In0_3 Rh1_1 2.902493 1_565
In0_3 Sc7_1 3.044020 1_565
In0_3 Sc7_5 3.044020 1_565
In0_3 Sc1_7 3.065030 1_555
In0_3 Sc1_3 3.065030 1_555
In0_3 In6_3 3.172071 1_555
In0_3 Sc5_3 3.193469 1_555
In0_3 Sc5_7 3.193469 1_555
In0_3 Sc6_7 3.226154 1_555
In0_3 Sc6_3 3.226154 1_555
In0_3 In0_7 3.318187 1_555
In0_3 In0_7 3.318187 1_455
In0_4 Rh1_6 2.902493 1_555
In0_4 Sc7_6 3.044020 1_555
In0_4 Sc7_2 3.044020 1_655
In0_4 Sc1_0 3.065030 1_655
In0_4 Sc1_4 3.065030 1_555
In0_4 In6_4 3.172071 1_555
In0_4 Sc5_0 3.193469 1_655
In0_4 Sc5_4 3.193469 1_555
In0_4 Sc6_0 3.226154 1_655
In0_4 Sc6_4 3.226154 1_555
In0_5 Rh1_7 2.902493 1_555
In0_5 Sc7_3 3.044020 1_655
In0_5 Sc7_7 3.044020 1_555
In0_5 Sc1_1 3.065030 1_655
In0_5 Sc1_5 3.065030 1_555
In0_5 In6_5 3.172071 1_555
In0_5 Sc5_1 3.193469 1_655
In0_5 Sc5_5 3.193469 1_555
In0_5 Sc6_1 3.226154 1_655
In0_5 Sc6_5 3.226154 1_555
In0_6 Rh1_4 2.902493 1_565
In0_6 Sc7_0 3.044020 1_665
In0_6 Sc7_4 3.044020 1_565
In0_6 Sc1_6 3.065030 1_555
In0_6 Sc1_2 3.065030 1_655
In0_6 In6_6 3.172071 1_555
In0_6 Sc5_2 3.193469 1_655
In0_6 Sc5_6 3.193469 1_555
In0_6 Sc6_2 3.226154 1_655
In0_6 Sc6_6 3.226154 1_555
In0_7 Rh1_5 2.902493 1_565
In0_7 Sc7_1 3.044020 1_665
In0_7 Sc7_5 3.044020 1_565
In0_7 Sc1_3 3.065030 1_655
In0_7 Sc1_7 3.065030 1_555
In0_7 In6_7 3.172071 1_555
In0_7 Sc5_3 3.193469 1_655
In0_7 Sc5_7 3.193469 1_555
In0_7 Sc6_3 3.226154 1_655
In0_7 Sc6_7 3.226154 1_555
In1_0 Rh0_2 2.902493 1_545
In1_0 Sc6_2 3.044020 1_545
In1_0 Sc6_6 3.044020 1_545
In1_0 Sc1_0 3.065030 1_555
In1_0 Sc1_4 3.065030 1_555
In1_0 In7_0 3.172071 1_555
In1_0 Sc4_0 3.193469 1_555
In1_0 Sc4_4 3.193469 1_555
In1_0 Sc7_0 3.226154 1_555
In1_0 Sc7_4 3.226154 1_555
In1_0 In1_4 3.318187 1_455
In1_0 In1_4 3.318187 1_555
In1_1 Rh0_3 2.902493 1_545
In1_1 Sc6_3 3.044020 1_545
In1_1 Sc6_7 3.044020 1_545
In1_1 Sc1_1 3.065030 1_555
In1_1 Sc1_5 3.065030 1_555
In1_1 In7_1 3.172071 1_555
In1_1 Sc4_1 3.193469 1_555
In1_1 Sc4_5 3.193469 1_555
In1_1 Sc7_1 3.226154 1_555
In1_1 Sc7_5 3.226154 1_555
In1_1 In1_5 3.318187 1_555
In1_1 In1_5 3.318187 1_455
In1_2 Rh0_0 2.902493 1_555
In1_2 Sc6_4 3.044020 1_555
In1_2 Sc6_0 3.044020 1_555
In1_2 Sc1_2 3.065030 1_555
In1_2 Sc1_6 3.065030 1_555
In1_2 In7_2 3.172071 1_555
In1_2 Sc4_2 3.193469 1_555
In1_2 Sc4_6 3.193469 1_555
In1_2 Sc7_6 3.226154 1_555
In1_2 Sc7_2 3.226154 1_555
In1_2 In1_6 3.318187 1_555
In1_2 In1_6 3.318187 1_455
In1_3 Rh0_1 2.902493 1_555
In1_3 Sc6_1 3.044020 1_555
In1_3 Sc6_5 3.044020 1_555
In1_3 Sc1_7 3.065030 1_555
In1_3 Sc1_3 3.065030 1_555
In1_3 In7_3 3.172071 1_555
In1_3 Sc4_3 3.193469 1_555
In1_3 Sc4_7 3.193469 1_555
In1_3 Sc7_7 3.226154 1_555
In1_3 Sc7_3 3.226154 1_555
In1_3 In1_7 3.318187 1_455
In1_3 In1_7 3.318187 1_555
In1_4 Rh0_6 2.902493 1_545
In1_4 Sc6_2 3.044020 1_645
In1_4 Sc6_6 3.044020 1_545
In1_4 Sc1_4 3.065030 1_555
In1_4 Sc1_0 3.065030 1_655
In1_4 In7_4 3.172071 1_555
In1_4 Sc4_4 3.193469 1_555
In1_4 Sc4_0 3.193469 1_655
In1_4 Sc7_4 3.226154 1_555
In1_4 Sc7_0 3.226154 1_655
In1_5 Rh0_7 2.902493 1_545
In1_5 Sc6_3 3.044020 1_645
In1_5 Sc6_7 3.044020 1_545
In1_5 Sc1_5 3.065030 1_555
In1_5 Sc1_1 3.065030 1_655
In1_5 In7_5 3.172071 1_555
In1_5 Sc4_1 3.193469 1_655
In1_5 Sc4_5 3.193469 1_555
In1_5 Sc7_5 3.226154 1_555
In1_5 Sc7_1 3.226154 1_655
In1_6 Rh0_4 2.902493 1_555
In1_6 Sc6_0 3.044020 1_655
In1_6 Sc6_4 3.044020 1_555
In1_6 Sc1_2 3.065030 1_655
In1_6 Sc1_6 3.065030 1_555
In1_6 In7_6 3.172071 1_555
In1_6 Sc4_6 3.193469 1_555
In1_6 Sc4_2 3.193469 1_655
In1_6 Sc7_2 3.226154 1_655
In1_6 Sc7_6 3.226154 1_555
In1_7 Rh0_5 2.902493 1_555
In1_7 Sc6_5 3.044020 1_555
In1_7 Sc6_1 3.044020 1_655
In1_7 Sc1_3 3.065030 1_655
In1_7 Sc1_7 3.065030 1_555
In1_7 In7_7 3.172071 1_555
In1_7 Sc4_3 3.193469 1_655
In1_7 Sc4_7 3.193469 1_555
In1_7 Sc7_7 3.226154 1_555
In1_7 Sc7_3 3.226154 1_655
In2_0 Rh3_0 2.902493 1_555
In2_0 Sc9_0 3.044020 1_555
In2_0 Sc9_4 3.044020 1_555
In2_0 Sc0_0 3.065030 1_555
In2_0 Sc0_4 3.065030 1_555
In2_0 In4_2 3.172071 1_545
In2_0 Sc3_0 3.193469 1_555
In2_0 Sc3_4 3.193469 1_555
In2_0 Sc8_1 3.226154 1_554
In2_0 Sc8_5 3.226154 1_554
In2_0 In2_4 3.318187 1_455
In2_0 In2_4 3.318187 1_555
In2_1 Rh3_1 2.902493 1_555
In2_1 Sc9_1 3.044020 1_555
In2_1 Sc9_5 3.044020 1_555
In2_1 Sc0_1 3.065030 1_555
In2_1 Sc0_5 3.065030 1_555
In2_1 In4_3 3.172071 1_545
In2_1 Sc3_1 3.193469 1_555
In2_1 Sc3_5 3.193469 1_555
In2_1 Sc8_0 3.226154 1_555
In2_1 Sc8_4 3.226154 1_555
In2_1 In2_5 3.318187 1_455
In2_1 In2_5 3.318187 1_555
In2_2 Rh3_2 2.902493 1_555
In2_2 Sc9_2 3.044020 1_555
In2_2 Sc9_6 3.044020 1_555
In2_2 Sc0_2 3.065030 1_555
In2_2 Sc0_6 3.065030 1_555
In2_2 In4_0 3.172071 1_555
In2_2 Sc3_6 3.193469 1_555
In2_2 Sc3_2 3.193469 1_555
In2_2 Sc8_7 3.226154 1_554
In2_2 Sc8_3 3.226154 1_554
In2_2 In2_6 3.318187 1_555
In2_2 In2_6 3.318187 1_455
In2_3 Rh3_3 2.902493 1_555
In2_3 Sc9_7 3.044020 1_555
In2_3 Sc9_3 3.044020 1_555
In2_3 Sc0_7 3.065030 1_555
In2_3 Sc0_3 3.065030 1_555
In2_3 In4_1 3.172071 1_555
In2_3 Sc3_7 3.193469 1_555
In2_3 Sc3_3 3.193469 1_555
In2_3 Sc8_6 3.226154 1_555
In2_3 Sc8_2 3.226154 1_555
In2_3 In2_7 3.318187 1_555
In2_3 In2_7 3.318187 1_455
In2_4 Rh3_4 2.902493 1_555
In2_4 Sc9_0 3.044020 1_655
In2_4 Sc9_4 3.044020 1_555
In2_4 Sc0_0 3.065030 1_655
In2_4 Sc0_4 3.065030 1_555
In2_4 In4_6 3.172071 1_545
In2_4 Sc3_0 3.193469 1_655
In2_4 Sc3_4 3.193469 1_555
In2_4 Sc8_5 3.226154 1_554
In2_4 Sc8_1 3.226154 1_654
In2_5 Rh3_5 2.902493 1_555
In2_5 Sc9_1 3.044020 1_655
In2_5 Sc9_5 3.044020 1_555
In2_5 Sc0_1 3.065030 1_655
In2_5 Sc0_5 3.065030 1_555
In2_5 In4_7 3.172071 1_545
In2_5 Sc3_5 3.193469 1_555
In2_5 Sc3_1 3.193469 1_655
In2_5 Sc8_0 3.226154 1_655
In2_5 Sc8_4 3.226154 1_555
In2_6 Rh3_6 2.902493 1_555
In2_6 Sc9_2 3.044020 1_655
In2_6 Sc9_6 3.044020 1_555
In2_6 Sc0_2 3.065030 1_655
In2_6 Sc0_6 3.065030 1_555
In2_6 In4_4 3.172071 1_555
In2_6 Sc3_2 3.193469 1_655
In2_6 Sc3_6 3.193469 1_555
In2_6 Sc8_3 3.226154 1_654
In2_6 Sc8_7 3.226154 1_554
In2_7 Rh3_7 2.902493 1_555
In2_7 Sc9_3 3.044020 1_655
In2_7 Sc9_7 3.044020 1_555
In2_7 Sc0_3 3.065030 1_655
In2_7 Sc0_7 3.065030 1_555
In2_7 In4_5 3.172071 1_555
In2_7 Sc3_7 3.193469 1_555
In2_7 Sc3_3 3.193469 1_655
In2_7 Sc8_2 3.226154 1_655
In2_7 Sc8_6 3.226154 1_555
In3_0 Rh2_0 2.902493 1_555
In3_0 Sc8_4 3.044020 1_555
In3_0 Sc8_0 3.044020 1_555
In3_0 Sc0_3 3.065030 1_555
In3_0 Sc0_7 3.065030 1_555
In3_0 In5_2 3.172071 1_555
In3_0 Sc2_4 3.193469 1_555
In3_0 Sc2_0 3.193469 1_555
In3_0 Sc9_5 3.226154 1_555
In3_0 Sc9_1 3.226154 1_555
In3_0 In3_4 3.318187 1_555
In3_0 In3_4 3.318187 1_455
In3_1 Rh2_1 2.902493 1_555
In3_1 Sc8_5 3.044020 1_555
In3_1 Sc8_1 3.044020 1_555
In3_1 Sc0_6 3.065030 1_556
In3_1 Sc0_2 3.065030 1_556
In3_1 In5_3 3.172071 1_555
In3_1 Sc2_1 3.193469 1_555
In3_1 Sc2_5 3.193469 1_555
In3_1 Sc9_0 3.226154 1_556
In3_1 Sc9_4 3.226154 1_556
In3_1 In3_5 3.318187 1_555
In3_1 In3_5 3.318187 1_455
In3_2 Rh2_2 2.902493 1_555
In3_2 Sc8_2 3.044020 1_555
In3_2 Sc8_6 3.044020 1_555
In3_2 Sc0_1 3.065030 1_565
In3_2 Sc0_5 3.065030 1_565
In3_2 In5_0 3.172071 1_565
In3_2 Sc2_2 3.193469 1_555
In3_2 Sc2_6 3.193469 1_555
In3_2 Sc9_7 3.226154 1_555
In3_2 Sc9_3 3.226154 1_555
In3_2 In3_6 3.318187 1_555
In3_2 In3_6 3.318187 1_455
In3_3 Rh2_3 2.902493 1_555
In3_3 Sc8_7 3.044020 1_555
In3_3 Sc8_3 3.044020 1_555
In3_3 Sc0_0 3.065030 1_566
In3_3 Sc0_4 3.065030 1_566
In3_3 In5_1 3.172071 1_565
In3_3 Sc2_3 3.193469 1_555
In3_3 Sc2_7 3.193469 1_555
In3_3 Sc9_2 3.226154 1_556
In3_3 Sc9_6 3.226154 1_556
In3_3 In3_7 3.318187 1_455
In3_3 In3_7 3.318187 1_555
In3_4 Rh2_4 2.902493 1_555
In3_4 Sc8_0 3.044020 1_655
In3_4 Sc8_4 3.044020 1_555
In3_4 Sc0_3 3.065030 1_655
In3_4 Sc0_7 3.065030 1_555
In3_4 In5_6 3.172071 1_555
In3_4 Sc2_0 3.193469 1_655
In3_4 Sc2_4 3.193469 1_555
In3_4 Sc9_1 3.226154 1_655
In3_4 Sc9_5 3.226154 1_555
In3_5 Rh2_5 2.902493 1_555
In3_5 Sc8_1 3.044020 1_655
In3_5 Sc8_5 3.044020 1_555
In3_5 Sc0_6 3.065030 1_556
In3_5 Sc0_2 3.065030 1_656
In3_5 In5_7 3.172071 1_555
In3_5 Sc2_1 3.193469 1_655
In3_5 Sc2_5 3.193469 1_555
In3_5 Sc9_0 3.226154 1_656
In3_5 Sc9_4 3.226154 1_556
In3_6 Rh2_6 2.902493 1_555
In3_6 Sc8_2 3.044020 1_655
In3_6 Sc8_6 3.044020 1_555
In3_6 Sc0_5 3.065030 1_565
In3_6 Sc0_1 3.065030 1_665
In3_6 In5_4 3.172071 1_565
In3_6 Sc2_6 3.193469 1_555
In3_6 Sc2_2 3.193469 1_655
In3_6 Sc9_3 3.226154 1_655
In3_6 Sc9_7 3.226154 1_555
In3_7 Rh2_7 2.902493 1_555
In3_7 Sc8_7 3.044020 1_555
In3_7 Sc8_3 3.044020 1_655
In3_7 Sc0_0 3.065030 1_666
In3_7 Sc0_4 3.065030 1_566
In3_7 In5_5 3.172071 1_565
In3_7 Sc2_3 3.193469 1_655
In3_7 Sc2_7 3.193469 1_555
In3_7 Sc9_2 3.226154 1_656
In3_7 Sc9_6 3.226154 1_556
In4_0 Rh1_2 2.868135 1_555
In4_0 Sc9_0 3.098682 1_555
In4_0 Sc9_4 3.098682 1_555
In4_0 Sc5_0 3.130364 1_555
In4_0 Sc5_4 3.130364 1_555
In4_0 Rh3_0 3.141843 1_555
In4_0 Sc0_2 3.166950 1_555
In4_0 Sc0_6 3.166950 1_555
In4_0 Sc3_2 3.247295 1_555
In4_0 Sc3_6 3.247295 1_555
In4_0 In4_4 3.318187 1_555
In4_0 In4_4 3.318187 1_455
In4_1 Rh1_3 2.868135 1_555
In4_1 Sc9_5 3.098682 1_555
In4_1 Sc9_1 3.098682 1_555
In4_1 Sc5_5 3.130364 1_555
In4_1 Sc5_1 3.130364 1_555
In4_1 Rh3_1 3.141843 1_555
In4_1 Sc0_3 3.166950 1_555
In4_1 Sc0_7 3.166950 1_555
In4_1 Sc3_7 3.247295 1_555
In4_1 Sc3_3 3.247295 1_555
In4_1 In4_5 3.318187 1_455
In4_1 In4_5 3.318187 1_555
In4_2 Rh1_0 2.868135 1_565
In4_2 Sc9_2 3.098682 1_555
In4_2 Sc9_6 3.098682 1_555
In4_2 Sc5_2 3.130364 1_555
In4_2 Sc5_6 3.130364 1_555
In4_2 Rh3_2 3.141843 1_555
In4_2 Sc0_0 3.166950 1_565
In4_2 Sc0_4 3.166950 1_565
In4_2 Sc3_0 3.247295 1_565
In4_2 Sc3_4 3.247295 1_565
In4_2 In4_6 3.318187 1_555
In4_2 In4_6 3.318187 1_455
In4_3 Rh1_1 2.868135 1_565
In4_3 Sc9_3 3.098682 1_555
In4_3 Sc9_7 3.098682 1_555
In4_3 Sc5_3 3.130364 1_555
In4_3 Sc5_7 3.130364 1_555
In4_3 Rh3_3 3.141843 1_555
In4_3 Sc0_1 3.166950 1_565
In4_3 Sc0_5 3.166950 1_565
In4_3 Sc3_1 3.247295 1_565
In4_3 Sc3_5 3.247295 1_565
In4_3 In4_7 3.318187 1_555
In4_3 In4_7 3.318187 1_455
In4_4 Rh1_6 2.868135 1_555
In4_4 Sc9_0 3.098682 1_655
In4_4 Sc9_4 3.098682 1_555
In4_4 Sc5_4 3.130364 1_555
In4_4 Sc5_0 3.130364 1_655
In4_4 Rh3_4 3.141843 1_555
In4_4 Sc0_6 3.166950 1_555
In4_4 Sc0_2 3.166950 1_655
In4_4 Sc3_2 3.247295 1_655
In4_4 Sc3_6 3.247295 1_555
In4_5 Rh1_7 2.868135 1_555
In4_5 Sc9_1 3.098682 1_655
In4_5 Sc9_5 3.098682 1_555
In4_5 Sc5_1 3.130364 1_655
In4_5 Sc5_5 3.130364 1_555
In4_5 Rh3_5 3.141843 1_555
In4_5 Sc0_3 3.166950 1_655
In4_5 Sc0_7 3.166950 1_555
In4_5 Sc3_3 3.247295 1_655
In4_5 Sc3_7 3.247295 1_555
In4_6 Rh1_4 2.868135 1_565
In4_6 Sc9_2 3.098682 1_655
In4_6 Sc9_6 3.098682 1_555
In4_6 Sc5_2 3.130364 1_655
In4_6 Sc5_6 3.130364 1_555
In4_6 Rh3_6 3.141843 1_555
In4_6 Sc0_4 3.166950 1_565
In4_6 Sc0_0 3.166950 1_665
In4_6 Sc3_0 3.247295 1_665
In4_6 Sc3_4 3.247295 1_565
In4_7 Rh1_5 2.868135 1_565
In4_7 Sc9_7 3.098682 1_555
In4_7 Sc9_3 3.098682 1_655
In4_7 Sc5_3 3.130364 1_655
In4_7 Sc5_7 3.130364 1_555
In4_7 Rh3_7 3.141843 1_555
In4_7 Sc0_5 3.166950 1_565
In4_7 Sc0_1 3.166950 1_665
In4_7 Sc3_1 3.247295 1_665
In4_7 Sc3_5 3.247295 1_565
In5_0 Rh0_2 2.868135 1_545
In5_0 Sc8_0 3.098682 1_555
In5_0 Sc8_4 3.098682 1_555
In5_0 Sc4_0 3.130364 1_555
In5_0 Sc4_4 3.130364 1_555
In5_0 Rh2_0 3.141843 1_555
In5_0 Sc0_1 3.166950 1_555
In5_0 Sc0_5 3.166950 1_555
In5_0 Sc2_2 3.247295 1_545
In5_0 Sc2_6 3.247295 1_545
In5_0 In5_4 3.318187 1_555
In5_0 In5_4 3.318187 1_455
In5_1 Rh0_3 2.868135 1_545
In5_1 Sc8_1 3.098682 1_555
In5_1 Sc8_5 3.098682 1_555
In5_1 Sc4_1 3.130364 1_555
In5_1 Sc4_5 3.130364 1_555
In5_1 Rh2_1 3.141843 1_555
In5_1 Sc0_0 3.166950 1_556
In5_1 Sc0_4 3.166950 1_556
In5_1 Sc2_7 3.247295 1_545
In5_1 Sc2_3 3.247295 1_545
In5_1 In5_5 3.318187 1_555
In5_1 In5_5 3.318187 1_455
In5_2 Rh0_0 2.868135 1_555
In5_2 Sc8_2 3.098682 1_555
In5_2 Sc8_6 3.098682 1_555
In5_2 Sc4_6 3.130364 1_555
In5_2 Sc4_2 3.130364 1_555
In5_2 Rh2_2 3.141843 1_555
In5_2 Sc0_3 3.166950 1_555
In5_2 Sc0_7 3.166950 1_555
In5_2 Sc2_4 3.247295 1_555
In5_2 Sc2_0 3.247295 1_555
In5_2 In5_6 3.318187 1_455
In5_2 In5_6 3.318187 1_555
In5_3 Rh0_1 2.868135 1_555
In5_3 Sc8_3 3.098682 1_555
In5_3 Sc8_7 3.098682 1_555
In5_3 Sc4_7 3.130364 1_555
In5_3 Sc4_3 3.130364 1_555
In5_3 Rh2_3 3.141843 1_555
In5_3 Sc0_2 3.166950 1_556
In5_3 Sc0_6 3.166950 1_556
In5_3 Sc2_1 3.247295 1_555
In5_3 Sc2_5 3.247295 1_555
In5_3 In5_7 3.318187 1_555
In5_3 In5_7 3.318187 1_455
In5_4 Rh0_6 2.868135 1_545
In5_4 Sc8_0 3.098682 1_655
In5_4 Sc8_4 3.098682 1_555
In5_4 Sc4_0 3.130364 1_655
In5_4 Sc4_4 3.130364 1_555
In5_4 Rh2_4 3.141843 1_555
In5_4 Sc0_1 3.166950 1_655
In5_4 Sc0_5 3.166950 1_555
In5_4 Sc2_2 3.247295 1_645
In5_4 Sc2_6 3.247295 1_545
In5_5 Rh0_7 2.868135 1_545
In5_5 Sc8_1 3.098682 1_655
In5_5 Sc8_5 3.098682 1_555
In5_5 Sc4_1 3.130364 1_655
In5_5 Sc4_5 3.130364 1_555
In5_5 Rh2_5 3.141843 1_555
In5_5 Sc0_0 3.166950 1_656
In5_5 Sc0_4 3.166950 1_556
In5_5 Sc2_7 3.247295 1_545
In5_5 Sc2_3 3.247295 1_645
In5_6 Rh0_4 2.868135 1_555
In5_6 Sc8_2 3.098682 1_655
In5_6 Sc8_6 3.098682 1_555
In5_6 Sc4_2 3.130364 1_655
In5_6 Sc4_6 3.130364 1_555
In5_6 Rh2_6 3.141843 1_555
In5_6 Sc0_7 3.166950 1_555
In5_6 Sc0_3 3.166950 1_655
In5_6 Sc2_0 3.247295 1_655
In5_6 Sc2_4 3.247295 1_555
In5_7 Rh0_5 2.868135 1_555
In5_7 Sc8_3 3.098682 1_655
In5_7 Sc8_7 3.098682 1_555
In5_7 Sc4_7 3.130364 1_555
In5_7 Sc4_3 3.130364 1_655
In5_7 Rh2_7 3.141843 1_555
In5_7 Sc0_2 3.166950 1_656
In5_7 Sc0_6 3.166950 1_556
In5_7 Sc2_1 3.247295 1_655
In5_7 Sc2_5 3.247295 1_555
In6_0 Rh3_0 2.868135 1_555
In6_0 Sc7_0 3.098682 1_555
In6_0 Sc7_4 3.098682 1_555
In6_0 Sc3_0 3.130364 1_555
In6_0 Sc3_4 3.130364 1_555
In6_0 Rh1_0 3.141843 1_555
In6_0 Sc1_0 3.166950 1_555
In6_0 Sc1_4 3.166950 1_555
In6_0 Sc5_4 3.247295 1_555
In6_0 Sc5_0 3.247295 1_555
In6_0 In6_4 3.318187 1_555
In6_0 In6_4 3.318187 1_455
In6_1 Rh3_1 2.868135 1_555
In6_1 Sc7_1 3.098682 1_555
In6_1 Sc7_5 3.098682 1_555
In6_1 Sc3_1 3.130364 1_555
In6_1 Sc3_5 3.130364 1_555
In6_1 Rh1_1 3.141843 1_555
In6_1 Sc1_1 3.166950 1_555
In6_1 Sc1_5 3.166950 1_555
In6_1 Sc5_5 3.247295 1_555
In6_1 Sc5_1 3.247295 1_555
In6_1 In6_5 3.318187 1_455
In6_1 In6_5 3.318187 1_555
In6_2 Rh3_2 2.868135 1_555
In6_2 Sc7_2 3.098682 1_555
In6_2 Sc7_6 3.098682 1_555
In6_2 Sc3_2 3.130364 1_555
In6_2 Sc3_6 3.130364 1_555
In6_2 Rh1_2 3.141843 1_555
In6_2 Sc1_2 3.166950 1_555
In6_2 Sc1_6 3.166950 1_555
In6_2 Sc5_2 3.247295 1_555
In6_2 Sc5_6 3.247295 1_555
In6_2 In6_6 3.318187 1_555
In6_2 In6_6 3.318187 1_455
In6_3 Rh3_3 2.868135 1_555
In6_3 Sc7_3 3.098682 1_555
In6_3 Sc7_7 3.098682 1_555
In6_3 Sc3_7 3.130364 1_555
In6_3 Sc3_3 3.130364 1_555
In6_3 Rh1_3 3.141843 1_555
In6_3 Sc1_3 3.166950 1_555
In6_3 Sc1_7 3.166950 1_555
In6_3 Sc5_3 3.247295 1_555
In6_3 Sc5_7 3.247295 1_555
In6_3 In6_7 3.318187 1_555
In6_3 In6_7 3.318187 1_455
In6_4 Rh3_4 2.868135 1_555
In6_4 Sc7_4 3.098682 1_555
In6_4 Sc7_0 3.098682 1_655
In6_4 Sc3_0 3.130364 1_655
In6_4 Sc3_4 3.130364 1_555
In6_4 Rh1_4 3.141843 1_555
In6_4 Sc1_4 3.166950 1_555
In6_4 Sc1_0 3.166950 1_655
In6_4 Sc5_0 3.247295 1_655
In6_4 Sc5_4 3.247295 1_555
In6_5 Rh3_5 2.868135 1_555
In6_5 Sc7_1 3.098682 1_655
In6_5 Sc7_5 3.098682 1_555
In6_5 Sc3_1 3.130364 1_655
In6_5 Sc3_5 3.130364 1_555
In6_5 Rh1_5 3.141843 1_555
In6_5 Sc1_1 3.166950 1_655
In6_5 Sc1_5 3.166950 1_555
In6_5 Sc5_1 3.247295 1_655
In6_5 Sc5_5 3.247295 1_555
In6_6 Rh3_6 2.868135 1_555
In6_6 Sc7_2 3.098682 1_655
In6_6 Sc7_6 3.098682 1_555
In6_6 Sc3_2 3.130364 1_655
In6_6 Sc3_6 3.130364 1_555
In6_6 Rh1_6 3.141843 1_555
In6_6 Sc1_6 3.166950 1_555
In6_6 Sc1_2 3.166950 1_655
In6_6 Sc5_2 3.247295 1_655
In6_6 Sc5_6 3.247295 1_555
In6_7 Rh3_7 2.868135 1_555
In6_7 Sc7_3 3.098682 1_655
In6_7 Sc7_7 3.098682 1_555
In6_7 Sc3_3 3.130364 1_655
In6_7 Sc3_7 3.130364 1_555
In6_7 Rh1_7 3.141843 1_555
In6_7 Sc1_3 3.166950 1_655
In6_7 Sc1_7 3.166950 1_555
In6_7 Sc5_3 3.247295 1_655
In6_7 Sc5_7 3.247295 1_555
In7_0 Rh2_0 2.868135 1_555
In7_0 Sc6_0 3.098682 1_555
In7_0 Sc6_4 3.098682 1_555
In7_0 Sc2_4 3.130364 1_555
In7_0 Sc2_0 3.130364 1_555
In7_0 Rh0_0 3.141843 1_555
In7_0 Sc1_0 3.166950 1_555
In7_0 Sc1_4 3.166950 1_555
In7_0 Sc4_0 3.247295 1_555
In7_0 Sc4_4 3.247295 1_555
In7_0 In7_4 3.318187 1_555
In7_0 In7_4 3.318187 1_455
In7_1 Rh2_1 2.868135 1_555
In7_1 Sc6_1 3.098682 1_555
In7_1 Sc6_5 3.098682 1_555
In7_1 Sc2_1 3.130364 1_555
In7_1 Sc2_5 3.130364 1_555
In7_1 Rh0_1 3.141843 1_555
In7_1 Sc1_5 3.166950 1_555
In7_1 Sc1_1 3.166950 1_555
In7_1 Sc4_5 3.247295 1_555
In7_1 Sc4_1 3.247295 1_555
In7_1 In7_5 3.318187 1_455
In7_1 In7_5 3.318187 1_555
In7_2 Rh2_2 2.868135 1_555
In7_2 Sc6_6 3.098682 1_555
In7_2 Sc6_2 3.098682 1_555
In7_2 Sc2_2 3.130364 1_555
In7_2 Sc2_6 3.130364 1_555
In7_2 Rh0_2 3.141843 1_555
In7_2 Sc1_2 3.166950 1_555
In7_2 Sc1_6 3.166950 1_555
In7_2 Sc4_2 3.247295 1_555
In7_2 Sc4_6 3.247295 1_555
In7_2 In7_6 3.318187 1_455
In7_2 In7_6 3.318187 1_555
In7_3 Rh2_3 2.868135 1_555
In7_3 Sc6_7 3.098682 1_555
In7_3 Sc6_3 3.098682 1_555
In7_3 Sc2_7 3.130364 1_555
In7_3 Sc2_3 3.130364 1_555
In7_3 Rh0_3 3.141843 1_555
In7_3 Sc1_3 3.166950 1_555
In7_3 Sc1_7 3.166950 1_555
In7_3 Sc4_3 3.247295 1_555
In7_3 Sc4_7 3.247295 1_555
In7_3 In7_7 3.318187 1_455
In7_3 In7_7 3.318187 1_555
In7_4 Rh2_4 2.868135 1_555
In7_4 Sc6_0 3.098682 1_655
In7_4 Sc6_4 3.098682 1_555
In7_4 Sc2_0 3.130364 1_655
In7_4 Sc2_4 3.130364 1_555
In7_4 Rh0_4 3.141843 1_555
In7_4 Sc1_4 3.166950 1_555
In7_4 Sc1_0 3.166950 1_655
In7_4 Sc4_0 3.247295 1_655
In7_4 Sc4_4 3.247295 1_555
In7_5 Rh2_5 2.868135 1_555
In7_5 Sc6_1 3.098682 1_655
In7_5 Sc6_5 3.098682 1_555
In7_5 Sc2_1 3.130364 1_655
In7_5 Sc2_5 3.130364 1_555
In7_5 Rh0_5 3.141843 1_555
In7_5 Sc1_1 3.166950 1_655
In7_5 Sc1_5 3.166950 1_555
In7_5 Sc4_5 3.247295 1_555
In7_5 Sc4_1 3.247295 1_655
In7_6 Rh2_6 2.868135 1_555
In7_6 Sc6_2 3.098682 1_655
In7_6 Sc6_6 3.098682 1_555
In7_6 Sc2_6 3.130364 1_555
In7_6 Sc2_2 3.130364 1_655
In7_6 Rh0_6 3.141843 1_555
In7_6 Sc1_2 3.166950 1_655
In7_6 Sc1_6 3.166950 1_555
In7_6 Sc4_2 3.247295 1_655
In7_6 Sc4_6 3.247295 1_555
In7_7 Rh2_7 2.868135 1_555
In7_7 Sc6_3 3.098682 1_655
In7_7 Sc6_7 3.098682 1_555
In7_7 Sc2_3 3.130364 1_655
In7_7 Sc2_7 3.130364 1_555
In7_7 Rh0_7 3.141843 1_555
In7_7 Sc1_3 3.166950 1_655
In7_7 Sc1_7 3.166950 1_555
In7_7 Sc4_3 3.247295 1_655
In7_7 Sc4_7 3.247295 1_555
Rh0_0 Sc6_0 2.623580 1_555
Rh0_0 Sc6_4 2.623580 1_555
Rh0_0 Sc4_2 2.772469 1_555
Rh0_0 Sc4_6 2.772469 1_555
Rh0_0 Sc2_0 2.798635 1_555
Rh0_0 Sc2_4 2.798635 1_555
Rh0_1 Sc6_5 2.623580 1_555
Rh0_1 Sc6_1 2.623580 1_555
Rh0_1 Sc4_3 2.772469 1_555
Rh0_1 Sc4_7 2.772469 1_555
Rh0_1 Sc2_1 2.798635 1_555
Rh0_1 Sc2_5 2.798635 1_555
Rh0_2 Sc6_2 2.623580 1_555
Rh0_2 Sc6_6 2.623580 1_555
Rh0_2 Sc4_4 2.772469 1_565
Rh0_2 Sc4_0 2.772469 1_565
Rh0_2 Sc2_6 2.798635 1_555
Rh0_2 Sc2_2 2.798635 1_555
Rh0_3 Sc6_7 2.623580 1_555
Rh0_3 Sc6_3 2.623580 1_555
Rh0_3 Sc4_5 2.772469 1_565
Rh0_3 Sc4_1 2.772469 1_565
Rh0_3 Sc2_3 2.798635 1_555
Rh0_3 Sc2_7 2.798635 1_555
Rh0_4 Sc6_0 2.623580 1_655
Rh0_4 Sc6_4 2.623580 1_555
Rh0_4 Sc4_2 2.772469 1_655
Rh0_4 Sc4_6 2.772469 1_555
Rh0_4 Sc2_0 2.798635 1_655
Rh0_4 Sc2_4 2.798635 1_555
Rh0_5 Sc6_1 2.623580 1_655
Rh0_5 Sc6_5 2.623580 1_555
Rh0_5 Sc4_7 2.772469 1_555
Rh0_5 Sc4_3 2.772469 1_655
Rh0_5 Sc2_1 2.798635 1_655
Rh0_5 Sc2_5 2.798635 1_555
Rh0_6 Sc6_2 2.623580 1_655
Rh0_6 Sc6_6 2.623580 1_555
Rh0_6 Sc4_4 2.772469 1_565
Rh0_6 Sc4_0 2.772469 1_665
Rh0_6 Sc2_2 2.798635 1_655
Rh0_6 Sc2_6 2.798635 1_555
Rh0_7 Sc6_3 2.623580 1_655
Rh0_7 Sc6_7 2.623580 1_555
Rh0_7 Sc4_1 2.772469 1_665
Rh0_7 Sc4_5 2.772469 1_565
Rh0_7 Sc2_3 2.798635 1_655
Rh0_7 Sc2_7 2.798635 1_555
Rh1_0 Sc7_0 2.623580 1_555
Rh1_0 Sc7_4 2.623580 1_555
Rh1_0 Sc5_2 2.772469 1_545
Rh1_0 Sc5_6 2.772469 1_545
Rh1_0 Sc3_0 2.798635 1_555
Rh1_0 Sc3_4 2.798635 1_555
Rh1_1 Sc7_1 2.623580 1_555
Rh1_1 Sc7_5 2.623580 1_555
Rh1_1 Sc5_3 2.772469 1_545
Rh1_1 Sc5_7 2.772469 1_545
Rh1_1 Sc3_1 2.798635 1_555
Rh1_1 Sc3_5 2.798635 1_555
Rh1_2 Sc7_2 2.623580 1_555
Rh1_2 Sc7_6 2.623580 1_555
Rh1_2 Sc5_0 2.772469 1_555
Rh1_2 Sc5_4 2.772469 1_555
Rh1_2 Sc3_6 2.798635 1_555
Rh1_2 Sc3_2 2.798635 1_555
Rh1_3 Sc7_7 2.623580 1_555
Rh1_3 Sc7_3 2.623580 1_555
Rh1_3 Sc5_5 2.772469 1_555
Rh1_3 Sc5_1 2.772469 1_555
Rh1_3 Sc3_3 2.798635 1_555
Rh1_3 Sc3_7 2.798635 1_555
Rh1_4 Sc7_0 2.623580 1_655
Rh1_4 Sc7_4 2.623580 1_555
Rh1_4 Sc5_2 2.772469 1_645
Rh1_4 Sc5_6 2.772469 1_545
Rh1_4 Sc3_0 2.798635 1_655
Rh1_4 Sc3_4 2.798635 1_555
Rh1_5 Sc7_1 2.623580 1_655
Rh1_5 Sc7_5 2.623580 1_555
Rh1_5 Sc5_3 2.772469 1_645
Rh1_5 Sc5_7 2.772469 1_545
Rh1_5 Sc3_1 2.798635 1_655
Rh1_5 Sc3_5 2.798635 1_555
Rh1_6 Sc7_2 2.623580 1_655
Rh1_6 Sc7_6 2.623580 1_555
Rh1_6 Sc5_4 2.772469 1_555
Rh1_6 Sc5_0 2.772469 1_655
Rh1_6 Sc3_2 2.798635 1_655
Rh1_6 Sc3_6 2.798635 1_555
Rh1_7 Sc7_3 2.623580 1_655
Rh1_7 Sc7_7 2.623580 1_555
Rh1_7 Sc5_1 2.772469 1_655
Rh1_7 Sc5_5 2.772469 1_555
Rh1_7 Sc3_3 2.798635 1_655
Rh1_7 Sc3_7 2.798635 1_555
Rh2_0 Sc8_4 2.623580 1_555
Rh2_0 Sc8_0 2.623580 1_555
Rh2_0 Sc2_4 2.772469 1_555
Rh2_0 Sc2_0 2.772469 1_555
Rh2_0 Sc4_4 2.798635 1_555
Rh2_0 Sc4_0 2.798635 1_555
Rh2_1 Sc8_1 2.623580 1_555
Rh2_1 Sc8_5 2.623580 1_555
Rh2_1 Sc2_1 2.772469 1_555
Rh2_1 Sc2_5 2.772469 1_555
Rh2_1 Sc4_1 2.798635 1_555
Rh2_1 Sc4_5 2.798635 1_555
Rh2_2 Sc8_2 2.623580 1_555
Rh2_2 Sc8_6 2.623580 1_555
Rh2_2 Sc2_6 2.772469 1_555
Rh2_2 Sc2_2 2.772469 1_555
Rh2_2 Sc4_2 2.798635 1_555
Rh2_2 Sc4_6 2.798635 1_555
Rh2_3 Sc8_7 2.623580 1_555
Rh2_3 Sc8_3 2.623580 1_555
Rh2_3 Sc2_7 2.772469 1_555
Rh2_3 Sc2_3 2.772469 1_555
Rh2_3 Sc4_7 2.798635 1_555
Rh2_3 Sc4_3 2.798635 1_555
Rh2_4 Sc8_0 2.623580 1_655
Rh2_4 Sc8_4 2.623580 1_555
Rh2_4 Sc2_0 2.772469 1_655
Rh2_4 Sc2_4 2.772469 1_555
Rh2_4 Sc4_0 2.798635 1_655
Rh2_4 Sc4_4 2.798635 1_555
Rh2_5 Sc8_1 2.623580 1_655
Rh2_5 Sc8_5 2.623580 1_555
Rh2_5 Sc2_1 2.772469 1_655
Rh2_5 Sc2_5 2.772469 1_555
Rh2_5 Sc4_1 2.798635 1_655
Rh2_5 Sc4_5 2.798635 1_555
Rh2_6 Sc8_2 2.623580 1_655
Rh2_6 Sc8_6 2.623580 1_555
Rh2_6 Sc2_2 2.772469 1_655
Rh2_6 Sc2_6 2.772469 1_555
Rh2_6 Sc4_2 2.798635 1_655
Rh2_6 Sc4_6 2.798635 1_555
Rh2_7 Sc8_3 2.623580 1_655
Rh2_7 Sc8_7 2.623580 1_555
Rh2_7 Sc2_3 2.772469 1_655
Rh2_7 Sc2_7 2.772469 1_555
Rh2_7 Sc4_3 2.798635 1_655
Rh2_7 Sc4_7 2.798635 1_555
Rh3_0 Sc9_4 2.623580 1_555
Rh3_0 Sc9_0 2.623580 1_555
Rh3_0 Sc3_0 2.772469 1_555
Rh3_0 Sc3_4 2.772469 1_555
Rh3_0 Sc5_4 2.798635 1_555
Rh3_0 Sc5_0 2.798635 1_555
Rh3_1 Sc9_1 2.623580 1_555
Rh3_1 Sc9_5 2.623580 1_555
Rh3_1 Sc3_5 2.772469 1_555
Rh3_1 Sc3_1 2.772469 1_555
Rh3_1 Sc5_5 2.798635 1_555
Rh3_1 Sc5_1 2.798635 1_555
Rh3_2 Sc9_2 2.623580 1_555
Rh3_2 Sc9_6 2.623580 1_555
Rh3_2 Sc3_2 2.772469 1_555
Rh3_2 Sc3_6 2.772469 1_555
Rh3_2 Sc5_6 2.798635 1_555
Rh3_2 Sc5_2 2.798635 1_555
Rh3_3 Sc9_3 2.623580 1_555
Rh3_3 Sc9_7 2.623580 1_555
Rh3_3 Sc3_7 2.772469 1_555
Rh3_3 Sc3_3 2.772469 1_555
Rh3_3 Sc5_3 2.798635 1_555
Rh3_3 Sc5_7 2.798635 1_555
Rh3_4 Sc9_0 2.623580 1_655
Rh3_4 Sc9_4 2.623580 1_555
Rh3_4 Sc3_0 2.772469 1_655
Rh3_4 Sc3_4 2.772469 1_555
Rh3_4 Sc5_0 2.798635 1_655
Rh3_4 Sc5_4 2.798635 1_555
Rh3_5 Sc9_1 2.623580 1_655
Rh3_5 Sc9_5 2.623580 1_555
Rh3_5 Sc3_1 2.772469 1_655
Rh3_5 Sc3_5 2.772469 1_555
Rh3_5 Sc5_1 2.798635 1_655
Rh3_5 Sc5_5 2.798635 1_555
Rh3_6 Sc9_2 2.623580 1_655
Rh3_6 Sc9_6 2.623580 1_555
Rh3_6 Sc3_2 2.772469 1_655
Rh3_6 Sc3_6 2.772469 1_555
Rh3_6 Sc5_2 2.798635 1_655
Rh3_6 Sc5_6 2.798635 1_555
Rh3_7 Sc9_3 2.623580 1_655
Rh3_7 Sc9_7 2.623580 1_555
Rh3_7 Sc3_3 2.772469 1_655
Rh3_7 Sc3_7 2.772469 1_555
Rh3_7 Sc5_3 2.798635 1_655
Rh3_7 Sc5_7 2.798635 1_555
