# generated using pymatgen
data_LuSnPt
_symmetry_space_group_name_H-M   'P 1'
_cell_length_a   7.39625719
_cell_length_b   7.39625719
_cell_length_c   3.94068251
_cell_angle_alpha   90.00000000
_cell_angle_beta   90.00000000
_cell_angle_gamma   120.00000007
_symmetry_Int_Tables_number   1
_chemical_formula_structural   LuSnPt
_chemical_formula_sum   'Lu3 Sn3 Pt3'
_cell_volume   186.69216257
_cell_formula_units_Z   3
loop_
 _symmetry_equiv_pos_site_id
 _symmetry_equiv_pos_as_xyz
  1  'x, y, z'
loop_
 _atom_site_type_symbol
 _atom_site_label
 _atom_site_symmetry_multiplicity
 _atom_site_fract_x
 _atom_site_fract_y
 _atom_site_fract_z
 _atom_site_occupancy
  Lu  Lu0  1  0.40378564  0.40378564  0.50000000  1
  Lu  Lu1  1  0.59621436  0.00000000  0.50000000  1
  Lu  Lu2  1  0.00000000  0.59621436  0.50000000  1
  Sn  Sn0  1  0.73837213  0.73837213  -0.00000000  1
  Sn  Sn1  1  0.26162787  -0.00000000  -0.00000000  1
  Sn  Sn2  1  0.00000000  0.26162787  -0.00000000  1
  Pt  Pt0  1  0.66666700  0.33333300  0.00000000  1
  Pt  Pt1  1  0.33333300  0.66666700  -0.00000000  1
  Pt  Pt2  1  -0.00000000  -0.00000000  0.50000000  1
loop_
_geom_bond_atom_site_label_1
_geom_bond_atom_site_label_2
_geom_bond_distance
_geom_bond_site_symmetry_2
Lu0 Pt2 2.986502 1_555
Lu0 Pt0 2.991219 1_555
Lu0 Pt1 2.991219 1_555
Lu0 Pt1 2.991219 1_556
Lu0 Pt0 2.991219 1_556
Lu0 Sn0 3.163277 1_555
Lu0 Sn0 3.163277 1_556
Lu0 Sn2 3.281287 1_555
Lu0 Sn1 3.281287 1_555
Lu0 Sn2 3.281287 1_556
Lu0 Sn1 3.281287 1_556
Lu1 Pt2 2.986502 1_655
Lu1 Pt0 2.991214 1_555
Lu1 Pt0 2.991214 1_556
Lu1 Pt1 2.991216 1_546
Lu1 Pt1 2.991216 1_545
Lu1 Sn1 3.163277 1_555
Lu1 Sn1 3.163277 1_556
Lu1 Sn2 3.281287 1_655
Lu1 Sn2 3.281287 1_656
Lu1 Sn0 3.281287 1_545
Lu1 Sn0 3.281287 1_546
Lu2 Pt2 2.986502 1_565
Lu2 Pt1 2.991214 1_555
Lu2 Pt1 2.991214 1_556
Lu2 Pt0 2.991216 1_455
Lu2 Pt0 2.991216 1_456
Lu2 Sn2 3.163277 1_556
Lu2 Sn2 3.163277 1_555
Lu2 Sn1 3.281287 1_566
Lu2 Sn1 3.281287 1_565
Lu2 Sn0 3.281287 1_455
Lu2 Sn0 3.281287 1_456
Pt0 Sn2 2.768950 1_655
Pt0 Sn1 2.768954 1_555
Pt0 Sn0 2.768957 1_555
Pt1 Sn1 2.768950 1_565
Pt1 Sn2 2.768954 1_555
Pt1 Sn0 2.768957 1_555
Pt2 Sn0 2.761653 1_445
Pt2 Sn0 2.761653 1_446
Pt2 Sn2 2.761653 1_556
Pt2 Sn1 2.761653 1_556
Pt2 Sn2 2.761653 1_555
Pt2 Sn1 2.761653 1_555
