# generated using pymatgen
data_Mn4Ga
_symmetry_space_group_name_H-M   'P 1'
_cell_length_a   5.12345249
_cell_length_b   5.12345249
_cell_length_c   20.64649200
_cell_angle_alpha   82.87263090
_cell_angle_beta   90.00000000
_cell_angle_gamma   120.00000000
_symmetry_Int_Tables_number   1
_chemical_formula_structural   Mn4Ga
_chemical_formula_sum   'Mn32 Ga8'
_cell_volume   464.51390666
_cell_formula_units_Z   8
loop_
 _symmetry_equiv_pos_site_id
 _symmetry_equiv_pos_as_xyz
  1  'x, y, z'
loop_
 _atom_site_type_symbol
 _atom_site_label
 _atom_site_symmetry_multiplicity
 _atom_site_fract_x
 _atom_site_fract_y
 _atom_site_fract_z
 _atom_site_occupancy
  Mn  Mn0_0  1  0.29808600  0.09617200  0.10574200  1
  Mn  Mn0_1  1  0.29808600  0.09617200  0.60574200  1
  Mn  Mn0_2  1  0.29808600  0.59617200  0.10574200  1
  Mn  Mn0_3  1  0.29808600  0.59617200  0.60574200  1
  Mn  Mn0_4  1  0.79808600  0.09617200  0.10574200  1
  Mn  Mn0_5  1  0.79808600  0.09617200  0.60574200  1
  Mn  Mn0_6  1  0.79808600  0.59617200  0.10574200  1
  Mn  Mn0_7  1  0.79808600  0.59617200  0.60574200  1
  Mn  Mn1_0  1  0.10056000  0.20112000  0.19831950  1
  Mn  Mn1_1  1  0.10056000  0.20112000  0.69831950  1
  Mn  Mn1_2  1  0.10056000  0.70112000  0.19831950  1
  Mn  Mn1_3  1  0.10056000  0.70112000  0.69831950  1
  Mn  Mn1_4  1  0.60056000  0.20112000  0.19831950  1
  Mn  Mn1_5  1  0.60056000  0.20112000  0.69831950  1
  Mn  Mn1_6  1  0.60056000  0.70112000  0.19831950  1
  Mn  Mn1_7  1  0.60056000  0.70112000  0.69831950  1
  Mn  Mn2_0  1  0.39944000  0.29888000  0.30168050  1
  Mn  Mn2_1  1  0.39944000  0.29888000  0.80168050  1
  Mn  Mn2_2  1  0.39944000  0.79888000  0.30168050  1
  Mn  Mn2_3  1  0.39944000  0.79888000  0.80168050  1
  Mn  Mn2_4  1  0.89944000  0.29888000  0.30168050  1
  Mn  Mn2_5  1  0.89944000  0.29888000  0.80168050  1
  Mn  Mn2_6  1  0.89944000  0.79888000  0.30168050  1
  Mn  Mn2_7  1  0.89944000  0.79888000  0.80168050  1
  Mn  Mn3_0  1  0.20191400  0.40382800  0.39425800  1
  Mn  Mn3_1  1  0.20191400  0.40382800  0.89425800  1
  Mn  Mn3_2  1  0.20191400  0.90382800  0.39425800  1
  Mn  Mn3_3  1  0.20191400  0.90382800  0.89425800  1
  Mn  Mn3_4  1  0.70191400  0.40382800  0.39425800  1
  Mn  Mn3_5  1  0.70191400  0.40382800  0.89425800  1
  Mn  Mn3_6  1  0.70191400  0.90382800  0.39425800  1
  Mn  Mn3_7  1  0.70191400  0.90382800  0.89425800  1
  Ga  Ga0_0  1  0.00000000  0.00000000  0.00000000  1
  Ga  Ga0_1  1  0.00000000  0.00000000  0.50000000  1
  Ga  Ga0_2  1  0.00000000  0.50000000  0.00000000  1
  Ga  Ga0_3  1  0.00000000  0.50000000  0.50000000  1
  Ga  Ga0_4  1  0.50000000  0.00000000  0.00000000  1
  Ga  Ga0_5  1  0.50000000  0.00000000  0.50000000  1
  Ga  Ga0_6  1  0.50000000  0.50000000  0.00000000  1
  Ga  Ga0_7  1  0.50000000  0.50000000  0.50000000  1
loop_
_geom_bond_atom_site_label_1
_geom_bond_atom_site_label_2
_geom_bond_distance
_geom_bond_site_symmetry_2
Mn0_0 Mn1_0 2.401237 1_555
Mn0_0 Mn1_4 2.401237 1_555
Mn0_0 Mn1_2 2.401238 1_545
Mn0_0 Mn0_6 2.561726 1_555
Mn0_0 Mn0_4 2.561726 1_555
Mn0_0 Mn0_2 2.561726 1_555
Mn0_0 Mn0_2 2.561726 1_545
Mn0_0 Mn0_6 2.561726 1_445
Mn0_0 Mn0_4 2.561726 1_455
Mn0_1 Mn1_1 2.401237 1_555
Mn0_1 Mn1_5 2.401237 1_555
Mn0_1 Mn1_3 2.401238 1_545
Mn0_1 Mn0_3 2.561726 1_545
Mn0_1 Mn0_5 2.561726 1_555
Mn0_1 Mn0_7 2.561726 1_445
Mn0_1 Mn0_5 2.561726 1_455
Mn0_1 Mn0_3 2.561726 1_555
Mn0_1 Mn0_7 2.561726 1_555
Mn0_2 Mn1_2 2.401237 1_555
Mn0_2 Mn1_6 2.401237 1_555
Mn0_2 Mn1_0 2.401238 1_555
Mn0_2 Mn0_6 2.561726 1_455
Mn0_2 Mn0_4 2.561726 1_565
Mn0_2 Mn0_6 2.561726 1_555
Mn0_2 Mn0_4 2.561726 1_455
Mn0_3 Mn1_3 2.401237 1_555
Mn0_3 Mn1_7 2.401237 1_555
Mn0_3 Mn1_1 2.401238 1_555
Mn0_3 Mn0_5 2.561726 1_565
Mn0_3 Mn0_7 2.561726 1_555
Mn0_3 Mn0_7 2.561726 1_455
Mn0_3 Mn0_5 2.561726 1_455
Mn0_4 Mn1_4 2.401237 1_555
Mn0_4 Mn1_0 2.401237 1_655
Mn0_4 Mn1_6 2.401238 1_545
Mn0_4 Mn0_6 2.561726 1_555
Mn0_4 Mn0_6 2.561726 1_545
Mn0_5 Mn1_5 2.401237 1_555
Mn0_5 Mn1_1 2.401237 1_655
Mn0_5 Mn1_7 2.401238 1_545
Mn0_5 Mn0_7 2.561726 1_545
Mn0_5 Mn0_7 2.561726 1_555
Mn0_6 Mn1_6 2.401237 1_555
Mn0_6 Mn1_2 2.401237 1_655
Mn0_6 Mn1_4 2.401238 1_555
Mn0_7 Mn1_7 2.401237 1_555
Mn0_7 Mn1_3 2.401237 1_655
Mn0_7 Mn1_5 2.401238 1_555
Mn1_0 Mn1_4 2.561726 1_555
Mn1_0 Mn1_2 2.561726 1_545
Mn1_0 Mn1_2 2.561726 1_555
Mn1_0 Mn1_6 2.561726 1_555
Mn1_0 Mn1_6 2.561726 1_445
Mn1_0 Mn1_4 2.561726 1_455
Mn1_0 Mn2_6 2.578397 1_445
Mn1_0 Mn2_4 2.578399 1_455
Mn1_0 Mn2_0 2.578399 1_555
Mn1_1 Mn1_7 2.561726 1_555
Mn1_1 Mn1_5 2.561726 1_455
Mn1_1 Mn1_3 2.561726 1_555
Mn1_1 Mn1_3 2.561726 1_545
Mn1_1 Mn1_5 2.561726 1_555
Mn1_1 Mn1_7 2.561726 1_445
Mn1_1 Mn2_7 2.578397 1_445
Mn1_1 Mn2_5 2.578399 1_455
Mn1_1 Mn2_1 2.578399 1_555
Mn1_2 Mn1_4 2.561726 1_565
Mn1_2 Mn1_6 2.561726 1_455
Mn1_2 Mn1_6 2.561726 1_555
Mn1_2 Mn1_4 2.561726 1_455
Mn1_2 Mn2_4 2.578397 1_455
Mn1_2 Mn2_2 2.578399 1_555
Mn1_2 Mn2_6 2.578399 1_455
Mn1_3 Mn1_7 2.561726 1_455
Mn1_3 Mn1_5 2.561726 1_455
Mn1_3 Mn1_5 2.561726 1_565
Mn1_3 Mn1_7 2.561726 1_555
Mn1_3 Mn2_5 2.578397 1_455
Mn1_3 Mn2_7 2.578399 1_455
Mn1_3 Mn2_3 2.578399 1_555
Mn1_4 Mn1_6 2.561726 1_545
Mn1_4 Mn1_6 2.561726 1_555
Mn1_4 Mn2_2 2.578397 1_545
Mn1_4 Mn2_0 2.578399 1_555
Mn1_4 Mn2_4 2.578399 1_555
Mn1_5 Mn1_7 2.561726 1_555
Mn1_5 Mn1_7 2.561726 1_545
Mn1_5 Mn2_3 2.578397 1_545
Mn1_5 Mn2_5 2.578399 1_555
Mn1_5 Mn2_1 2.578399 1_555
Mn1_6 Mn2_0 2.578397 1_555
Mn1_6 Mn2_2 2.578399 1_555
Mn1_6 Mn2_6 2.578399 1_555
Mn1_7 Mn2_1 2.578397 1_555
Mn1_7 Mn2_7 2.578399 1_555
Mn1_7 Mn2_3 2.578399 1_555
Mn2_0 Mn3_4 2.401237 1_555
Mn2_0 Mn3_0 2.401237 1_555
Mn2_0 Mn3_2 2.401238 1_545
Mn2_0 Mn2_4 2.561726 1_555
Mn2_0 Mn2_2 2.561726 1_545
Mn2_0 Mn2_6 2.561726 1_555
Mn2_0 Mn2_6 2.561726 1_445
Mn2_0 Mn2_2 2.561726 1_555
Mn2_0 Mn2_4 2.561726 1_455
Mn2_1 Mn3_1 2.401237 1_555
Mn2_1 Mn3_5 2.401237 1_555
Mn2_1 Mn3_3 2.401238 1_545
Mn2_1 Mn2_5 2.561726 1_455
Mn2_1 Mn2_3 2.561726 1_545
Mn2_1 Mn2_7 2.561726 1_445
Mn2_1 Mn2_7 2.561726 1_555
Mn2_1 Mn2_3 2.561726 1_555
Mn2_1 Mn2_5 2.561726 1_555
Mn2_2 Mn3_6 2.401237 1_555
Mn2_2 Mn3_2 2.401237 1_555
Mn2_2 Mn3_0 2.401238 1_555
Mn2_2 Mn2_6 2.561726 1_555
Mn2_2 Mn2_4 2.561726 1_565
Mn2_2 Mn2_4 2.561726 1_455
Mn2_2 Mn2_6 2.561726 1_455
Mn2_3 Mn3_7 2.401237 1_555
Mn2_3 Mn3_3 2.401237 1_555
Mn2_3 Mn3_1 2.401238 1_555
Mn2_3 Mn2_7 2.561726 1_455
Mn2_3 Mn2_7 2.561726 1_555
Mn2_3 Mn2_5 2.561726 1_565
Mn2_3 Mn2_5 2.561726 1_455
Mn2_4 Mn3_0 2.401237 1_655
Mn2_4 Mn3_4 2.401237 1_555
Mn2_4 Mn3_6 2.401238 1_545
Mn2_4 Mn2_6 2.561726 1_545
Mn2_4 Mn2_6 2.561726 1_555
Mn2_5 Mn3_1 2.401237 1_655
Mn2_5 Mn3_5 2.401237 1_555
Mn2_5 Mn3_7 2.401238 1_545
Mn2_5 Mn2_7 2.561726 1_545
Mn2_5 Mn2_7 2.561726 1_555
Mn2_6 Mn3_2 2.401237 1_655
Mn2_6 Mn3_6 2.401237 1_555
Mn2_6 Mn3_4 2.401238 1_555
Mn2_7 Mn3_3 2.401237 1_655
Mn2_7 Mn3_7 2.401237 1_555
Mn2_7 Mn3_5 2.401238 1_555
Mn3_0 Mn3_4 2.561726 1_555
Mn3_0 Mn3_2 2.561726 1_555
Mn3_0 Mn3_6 2.561726 1_555
Mn3_0 Mn3_2 2.561726 1_545
Mn3_0 Mn3_6 2.561726 1_445
Mn3_0 Mn3_4 2.561726 1_455
Mn3_1 Mn3_3 2.561726 1_545
Mn3_1 Mn3_5 2.561726 1_455
Mn3_1 Mn3_7 2.561726 1_445
Mn3_1 Mn3_3 2.561726 1_555
Mn3_1 Mn3_5 2.561726 1_555
Mn3_1 Mn3_7 2.561726 1_555
Mn3_2 Mn3_6 2.561726 1_555
Mn3_2 Mn3_4 2.561726 1_565
Mn3_2 Mn3_4 2.561726 1_455
Mn3_2 Mn3_6 2.561726 1_455
Mn3_3 Mn3_7 2.561726 1_455
Mn3_3 Mn3_5 2.561726 1_455
Mn3_3 Mn3_7 2.561726 1_555
Mn3_3 Mn3_5 2.561726 1_565
Mn3_4 Mn3_6 2.561726 1_555
Mn3_4 Mn3_6 2.561726 1_545
Mn3_5 Mn3_7 2.561726 1_545
Mn3_5 Mn3_7 2.561726 1_555
Ga0_0 Ga0_4 2.561726 1_555
Ga0_0 Ga0_6 2.561726 1_555
Ga0_0 Ga0_2 2.561726 1_545
Ga0_0 Ga0_6 2.561726 1_445
Ga0_0 Ga0_2 2.561726 1_555
Ga0_0 Ga0_4 2.561726 1_455
Ga0_0 Mn0_0 2.618399 1_555
Ga0_0 Mn0_4 2.618399 1_455
Ga0_0 Mn3_3 2.618399 1_544
Ga0_0 Mn3_7 2.618399 1_444
Ga0_0 Mn0_6 2.618399 1_445
Ga0_0 Mn3_1 2.618399 1_554
Ga0_1 Ga0_5 2.561726 1_555
Ga0_1 Ga0_7 2.561726 1_555
Ga0_1 Ga0_3 2.561726 1_555
Ga0_1 Ga0_3 2.561726 1_545
Ga0_1 Ga0_7 2.561726 1_445
Ga0_1 Ga0_5 2.561726 1_455
Ga0_1 Mn0_1 2.618399 1_555
Ga0_1 Mn0_5 2.618399 1_455
Ga0_1 Mn3_2 2.618399 1_545
Ga0_1 Mn3_6 2.618399 1_445
Ga0_1 Mn0_7 2.618399 1_445
Ga0_1 Mn3_0 2.618399 1_555
Ga0_2 Ga0_6 2.561726 1_555
Ga0_2 Ga0_4 2.561726 1_565
Ga0_2 Ga0_4 2.561726 1_455
Ga0_2 Ga0_6 2.561726 1_455
Ga0_2 Mn0_2 2.618399 1_555
Ga0_2 Mn0_6 2.618399 1_455
Ga0_2 Mn3_5 2.618399 1_454
Ga0_2 Mn3_1 2.618399 1_554
Ga0_2 Mn0_4 2.618399 1_455
Ga0_2 Mn3_3 2.618399 1_554
Ga0_3 Ga0_5 2.561726 1_565
Ga0_3 Ga0_7 2.561726 1_555
Ga0_3 Ga0_5 2.561726 1_455
Ga0_3 Ga0_7 2.561726 1_455
Ga0_3 Mn0_3 2.618399 1_555
Ga0_3 Mn0_7 2.618399 1_455
Ga0_3 Mn3_0 2.618399 1_555
Ga0_3 Mn3_4 2.618399 1_455
Ga0_3 Mn0_5 2.618399 1_455
Ga0_3 Mn3_2 2.618399 1_555
Ga0_4 Ga0_6 2.561726 1_555
Ga0_4 Ga0_6 2.561726 1_545
Ga0_4 Mn0_4 2.618399 1_555
Ga0_4 Mn0_0 2.618399 1_555
Ga0_4 Mn3_7 2.618399 1_544
Ga0_4 Mn3_3 2.618399 1_544
Ga0_4 Mn0_2 2.618399 1_545
Ga0_4 Mn3_5 2.618399 1_554
Ga0_5 Ga0_7 2.561726 1_545
Ga0_5 Ga0_7 2.561726 1_555
Ga0_5 Mn0_5 2.618399 1_555
Ga0_5 Mn0_1 2.618399 1_555
Ga0_5 Mn3_6 2.618399 1_545
Ga0_5 Mn3_2 2.618399 1_545
Ga0_5 Mn0_3 2.618399 1_545
Ga0_5 Mn3_4 2.618399 1_555
Ga0_6 Mn0_6 2.618399 1_555
Ga0_6 Mn0_2 2.618399 1_555
Ga0_6 Mn3_5 2.618399 1_554
Ga0_6 Mn3_1 2.618399 1_554
Ga0_6 Mn0_0 2.618399 1_555
Ga0_6 Mn3_7 2.618399 1_554
Ga0_7 Mn0_7 2.618399 1_555
Ga0_7 Mn0_3 2.618399 1_555
Ga0_7 Mn3_4 2.618399 1_555
Ga0_7 Mn3_0 2.618399 1_555
Ga0_7 Mn0_1 2.618399 1_555
Ga0_7 Mn3_6 2.618399 1_555
