# generated using pymatgen
data_Ca2Nb2BiO8
_symmetry_space_group_name_H-M   'P 1'
_cell_length_a   10.59644551
_cell_length_b   10.59644551
_cell_length_c   5.58391897
_cell_angle_alpha   88.90348164
_cell_angle_beta   88.90348164
_cell_angle_gamma   36.38105876
_symmetry_Int_Tables_number   1
_chemical_formula_structural   Ca2Nb2BiO8
_chemical_formula_sum   'Ca4 Nb4 Bi2 O16'
_cell_volume   371.82446292
_cell_formula_units_Z   2
loop_
 _symmetry_equiv_pos_site_id
 _symmetry_equiv_pos_as_xyz
  1  'x, y, z'
loop_
 _atom_site_type_symbol
 _atom_site_label
 _atom_site_symmetry_multiplicity
 _atom_site_fract_x
 _atom_site_fract_y
 _atom_site_fract_z
 _atom_site_occupancy
  Ca  Ca0  1  0.87323300  0.55803500  0.75442800  1
  Ca  Ca1  1  0.44196500  0.12676700  0.74557200  1
  Ca  Ca2  1  0.12676700  0.44196500  0.24557200  1
  Ca  Ca3  1  0.55803500  0.87323300  0.25442800  1
  Nb  Nb0  1  0.02780100  0.73168600  0.74223500  1
  Nb  Nb1  1  0.26831400  0.97219900  0.75776500  1
  Nb  Nb2  1  0.97219900  0.26831400  0.25776500  1
  Nb  Nb3  1  0.73168600  0.02780100  0.24223500  1
  Bi  Bi0  1  0.67737300  0.32262700  0.75000000  1
  Bi  Bi1  1  0.32262700  0.67737300  0.25000000  1
  O  O0  1  0.02937600  0.82538800  0.06152400  1
  O  O1  1  0.17461200  0.97062400  0.43847600  1
  O  O2  1  0.97062400  0.17461200  0.93847600  1
  O  O3  1  0.82538800  0.02937600  0.56152400  1
  O  O4  1  0.28980400  0.58229300  0.60705500  1
  O  O5  1  0.41770700  0.71019600  0.89294500  1
  O  O6  1  0.71019600  0.41770700  0.39294500  1
  O  O7  1  0.58229300  0.28980400  0.10705500  1
  O  O8  1  0.89260000  0.73793700  0.47189700  1
  O  O9  1  0.26206300  0.10740000  0.02810300  1
  O  O10  1  0.47448300  0.14756800  0.35219800  1
  O  O11  1  0.85243200  0.52551700  0.14780200  1
  O  O12  1  0.52551700  0.85243200  0.64780200  1
  O  O13  1  0.14756800  0.47448300  0.85219800  1
  O  O14  1  0.73793700  0.89260000  0.97189700  1
  O  O15  1  0.10740000  0.26206300  0.52810300  1
loop_
_geom_bond_atom_site_label_1
_geom_bond_atom_site_label_2
_geom_bond_distance
_geom_bond_site_symmetry_2
Ca0 O11 2.251005 1_556
Ca0 O15 2.256402 1_655
Ca0 O12 2.273158 1_555
Ca0 O13 2.330349 1_655
Ca0 O8 2.582156 1_555
Ca0 O14 2.830662 1_555
Ca1 O10 2.251005 1_555
Ca1 O14 2.256402 1_545
Ca1 O13 2.273158 1_555
Ca1 O12 2.330349 1_545
Ca1 O9 2.582156 1_556
Ca1 O15 2.830662 1_555
Ca2 O13 2.251005 1_554
Ca2 O8 2.256402 1_455
Ca2 O10 2.273158 1_555
Ca2 O11 2.330349 1_455
Ca2 O15 2.582156 1_555
Ca2 O9 2.830662 1_555
Ca3 O12 2.251005 1_555
Ca3 O9 2.256402 1_565
Ca3 O11 2.273158 1_555
Ca3 O10 2.330349 1_565
Ca3 O14 2.582156 1_554
Ca3 O8 2.830662 1_555
Nb0 O4 1.916360 1_555
Nb0 O13 1.952445 1_555
Nb0 O0 2.064072 1_556
Nb0 O8 2.064400 1_455
Nb0 O3 2.153137 1_465
Nb0 O14 2.342266 1_455
Nb1 O5 1.916360 1_555
Nb1 O12 1.952445 1_555
Nb1 O1 2.064072 1_555
Nb1 O9 2.064400 1_566
Nb1 O2 2.153137 1_465
Nb1 O15 2.342266 1_565
Nb2 O6 1.916360 1_555
Nb2 O11 1.952445 1_555
Nb2 O2 2.064072 1_554
Nb2 O15 2.064400 1_655
Nb2 O1 2.153137 1_645
Nb2 O9 2.342266 1_655
Nb3 O7 1.916360 1_555
Nb3 O10 1.952445 1_555
Nb3 O3 2.064072 1_555
Nb3 O14 2.064400 1_544
Nb3 O0 2.153137 1_645
Nb3 O8 2.342266 1_545
Bi0 O2 2.331948 1_555
Bi0 O3 2.331948 1_555
Bi0 O6 2.360501 1_555
Bi0 O7 2.360501 1_556
Bi0 O5 2.630671 1_555
Bi0 O4 2.630671 1_555
Bi1 O1 2.331948 1_555
Bi1 O0 2.331948 1_555
Bi1 O5 2.360501 1_554
Bi1 O4 2.360501 1_555
Bi1 O6 2.630671 1_555
Bi1 O7 2.630671 1_555
