# generated using pymatgen
data_SrCaMn2O6
_symmetry_space_group_name_H-M   'P 1'
_cell_length_a   7.70267400
_cell_length_b   7.70267400
_cell_length_c   7.70125100
_cell_angle_alpha   90.00000000
_cell_angle_beta   90.00000000
_cell_angle_gamma   90.00000000
_symmetry_Int_Tables_number   1
_chemical_formula_structural   SrCaMn2O6
_chemical_formula_sum   'Sr4 Ca4 Mn8 O24'
_cell_volume   456.92436129
_cell_formula_units_Z   4
loop_
 _symmetry_equiv_pos_site_id
 _symmetry_equiv_pos_as_xyz
  1  'x, y, z'
loop_
 _atom_site_type_symbol
 _atom_site_label
 _atom_site_symmetry_multiplicity
 _atom_site_fract_x
 _atom_site_fract_y
 _atom_site_fract_z
 _atom_site_occupancy
  Sr  Sr0  1  0.50000000  0.00000000  0.50000000  1
  Sr  Sr1  1  0.00000000  0.00000000  0.50000000  1
  Sr  Sr2  1  0.00000000  0.50000000  0.50000000  1
  Sr  Sr3  1  0.50000000  0.50000000  0.00000000  1
  Ca  Ca0  1  0.50000000  0.00000000  0.00000000  1
  Ca  Ca1  1  0.00000000  0.00000000  0.00000000  1
  Ca  Ca2  1  0.50000000  0.50000000  0.50000000  1
  Ca  Ca3  1  0.00000000  0.50000000  0.00000000  1
  Mn  Mn0  1  0.74996500  0.25003500  0.75088500  1
  Mn  Mn1  1  0.25003500  0.25003500  0.75088500  1
  Mn  Mn2  1  0.74996500  0.25003500  0.24911500  1
  Mn  Mn3  1  0.25003500  0.25003500  0.24911500  1
  Mn  Mn4  1  0.74996500  0.74996500  0.75088500  1
  Mn  Mn5  1  0.25003500  0.74996500  0.75088500  1
  Mn  Mn6  1  0.74996500  0.74996500  0.24911500  1
  Mn  Mn7  1  0.25003500  0.74996500  0.24911500  1
  O  O0  1  0.74998800  0.00000000  0.75437100  1
  O  O1  1  0.25001200  0.00000000  0.75437100  1
  O  O2  1  0.74998800  0.00000000  0.24562900  1
  O  O3  1  0.25001200  0.00000000  0.24562900  1
  O  O4  1  0.75002000  0.50000000  0.75038300  1
  O  O5  1  0.24998000  0.50000000  0.75038300  1
  O  O6  1  0.75002000  0.50000000  0.24961700  1
  O  O7  1  0.24998000  0.50000000  0.24961700  1
  O  O8  1  0.74798300  0.25201700  0.50000000  1
  O  O9  1  0.25201700  0.25201700  0.50000000  1
  O  O10  1  0.75198300  0.24801700  0.00000000  1
  O  O11  1  0.24801700  0.24801700  0.00000000  1
  O  O12  1  0.74798300  0.74798300  0.50000000  1
  O  O13  1  0.25201700  0.74798300  0.50000000  1
  O  O14  1  0.75198300  0.75198300  0.00000000  1
  O  O15  1  0.24801700  0.75198300  0.00000000  1
  O  O16  1  0.50000000  0.24998000  0.75038300  1
  O  O17  1  0.00000000  0.25001200  0.75437100  1
  O  O18  1  0.50000000  0.24998000  0.24961700  1
  O  O19  1  0.00000000  0.25001200  0.24562900  1
  O  O20  1  0.50000000  0.75002000  0.75038300  1
  O  O21  1  0.00000000  0.74998800  0.75437100  1
  O  O22  1  0.50000000  0.75002000  0.24961700  1
  O  O23  1  0.00000000  0.74998800  0.24562900  1
loop_
_geom_bond_atom_site_label_1
_geom_bond_atom_site_label_2
_geom_bond_distance
_geom_bond_site_symmetry_2
Ca0 O0 2.699293 1_554
Ca0 O1 2.699293 1_554
Ca0 O2 2.699293 1_555
Ca0 O3 2.699293 1_555
Ca0 O20 2.720861 1_544
Ca0 O22 2.720861 1_545
Ca0 O18 2.720861 1_555
Ca0 O16 2.720861 1_554
Ca0 O10 2.723392 1_555
Ca0 O11 2.723392 1_555
Ca0 O14 2.723392 1_545
Ca0 O15 2.723392 1_545
Ca1 O21 2.699425 1_544
Ca1 O1 2.699425 1_554
Ca1 O19 2.699425 1_555
Ca1 O3 2.699425 1_555
Ca1 O2 2.699425 1_455
Ca1 O17 2.699425 1_554
Ca1 O0 2.699425 1_454
Ca1 O23 2.699425 1_545
Ca1 O15 2.701705 1_545
Ca1 O11 2.701705 1_555
Ca1 O10 2.701705 1_455
Ca1 O14 2.701705 1_445
Ca2 O8 2.701335 1_555
Ca2 O12 2.701335 1_555
Ca2 O13 2.701335 1_555
Ca2 O9 2.701335 1_555
Ca2 O18 2.725250 1_555
Ca2 O6 2.725250 1_555
Ca2 O5 2.725250 1_555
Ca2 O7 2.725250 1_555
Ca2 O16 2.725250 1_555
Ca2 O22 2.725250 1_555
Ca2 O20 2.725250 1_555
Ca2 O4 2.725250 1_555
Ca3 O19 2.699293 1_555
Ca3 O17 2.699293 1_554
Ca3 O23 2.699293 1_555
Ca3 O21 2.699293 1_554
Ca3 O4 2.720861 1_454
Ca3 O6 2.720861 1_455
Ca3 O7 2.720861 1_555
Ca3 O5 2.720861 1_554
Ca3 O15 2.723392 1_555
Ca3 O11 2.723392 1_555
Ca3 O14 2.723392 1_455
Ca3 O10 2.723392 1_455
Mn0 O10 1.918623 1_556
Mn0 O4 1.925403 1_555
Mn0 O16 1.925403 1_555
Mn0 O17 1.926125 1_655
Mn0 O0 1.926125 1_555
Mn0 O8 1.932249 1_555
Mn1 O11 1.918623 1_556
Mn1 O5 1.925403 1_555
Mn1 O16 1.925403 1_555
Mn1 O1 1.926125 1_555
Mn1 O17 1.926125 1_555
Mn1 O9 1.932249 1_555
Mn2 O10 1.918623 1_555
Mn2 O6 1.925403 1_555
Mn2 O18 1.925403 1_555
Mn2 O2 1.926125 1_555
Mn2 O19 1.926125 1_655
Mn2 O8 1.932249 1_555
Mn3 O11 1.918623 1_555
Mn3 O7 1.925403 1_555
Mn3 O18 1.925403 1_555
Mn3 O19 1.926125 1_555
Mn3 O3 1.926125 1_555
Mn3 O9 1.932249 1_555
Mn4 O14 1.918623 1_556
Mn4 O4 1.925403 1_555
Mn4 O20 1.925403 1_555
Mn4 O21 1.926125 1_655
Mn4 O0 1.926125 1_565
Mn4 O12 1.932249 1_555
Mn5 O15 1.918623 1_556
Mn5 O5 1.925403 1_555
Mn5 O20 1.925403 1_555
Mn5 O21 1.926125 1_555
Mn5 O1 1.926125 1_565
Mn5 O13 1.932249 1_555
Mn6 O14 1.918623 1_555
Mn6 O6 1.925403 1_555
Mn6 O22 1.925403 1_555
Mn6 O2 1.926125 1_565
Mn6 O23 1.926125 1_655
Mn6 O12 1.932249 1_555
Mn7 O15 1.918623 1_555
Mn7 O7 1.925403 1_555
Mn7 O22 1.925403 1_555
Mn7 O3 1.926125 1_565
Mn7 O23 1.926125 1_555
Mn7 O13 1.932249 1_555
O0 Sr0 2.746894 1_555
O0 Sr1 2.747023 1_655
O1 Sr0 2.746894 1_555
O1 Sr1 2.747023 1_555
O2 Sr0 2.746894 1_555
O2 Sr1 2.747023 1_655
O3 Sr0 2.746894 1_555
O3 Sr1 2.747023 1_555
O4 Sr3 2.721079 1_556
O4 Sr2 2.725032 1_655
O5 Sr3 2.721079 1_556
O5 Sr2 2.725032 1_555
O6 Sr3 2.721079 1_555
O6 Sr2 2.725032 1_655
O7 Sr3 2.721079 1_555
O7 Sr2 2.725032 1_555
O8 Sr0 2.723395 1_555
O8 Sr2 2.723395 1_655
O8 Sr1 2.745278 1_655
O9 Sr2 2.723395 1_555
O9 Sr0 2.723395 1_555
O9 Sr1 2.745278 1_555
O10 Sr3 2.744908 1_555
O11 Sr3 2.744908 1_555
O12 Sr0 2.723395 1_565
O12 Sr2 2.723395 1_655
O12 Sr1 2.745278 1_665
O13 Sr2 2.723395 1_555
O13 Sr0 2.723395 1_565
O13 Sr1 2.745278 1_565
O14 Sr3 2.744908 1_555
O15 Sr3 2.744908 1_555
O16 Sr3 2.721079 1_556
O16 Sr0 2.725032 1_555
O17 Sr2 2.746894 1_555
O17 Sr1 2.747023 1_555
O18 Sr3 2.721079 1_555
O18 Sr0 2.725032 1_555
O19 Sr2 2.746894 1_555
O19 Sr1 2.747023 1_555
O20 Sr3 2.721079 1_556
O20 Sr0 2.725032 1_565
O21 Sr2 2.746894 1_555
O21 Sr1 2.747023 1_565
O22 Sr3 2.721079 1_555
O22 Sr0 2.725032 1_565
O23 Sr2 2.746894 1_555
O23 Sr1 2.747023 1_565
