# generated using pymatgen
data_Si3N4
_symmetry_space_group_name_H-M   'P 1'
_cell_length_a   10.56110328
_cell_length_b   10.10411414
_cell_length_c   10.98113807
_cell_angle_alpha   85.71973034
_cell_angle_beta   89.50014613
_cell_angle_gamma   88.00412909
_symmetry_Int_Tables_number   1
_chemical_formula_structural   Si3N4
_chemical_formula_sum   'Si45 N60'
_cell_volume   1167.80451288
_cell_formula_units_Z   15
loop_
 _symmetry_equiv_pos_site_id
 _symmetry_equiv_pos_as_xyz
  1  'x, y, z'
loop_
 _atom_site_type_symbol
 _atom_site_label
 _atom_site_symmetry_multiplicity
 _atom_site_fract_x
 _atom_site_fract_y
 _atom_site_fract_z
 _atom_site_occupancy
  Si  Si0  1  0.88334200  0.81953000  0.56178800  1
  Si  Si1  1  0.14831500  0.18279000  0.48130600  1
  Si  Si2  1  0.95956400  0.41004300  0.83781800  1
  Si  Si3  1  0.39033700  0.46144700  0.89607500  1
  Si  Si4  1  0.19205600  0.96168400  0.90468900  1
  Si  Si5  1  0.22319900  0.68848300  0.51587300  1
  Si  Si6  1  0.49482700  0.86733600  0.26289600  1
  Si  Si7  1  0.75719300  0.26407400  0.70605900  1
  Si  Si8  1  0.69493900  0.69893900  0.61898000  1
  Si  Si9  1  0.22344400  0.19925800  0.21550000  1
  Si  Si10  1  0.63475600  0.30726200  0.96105500  1
  Si  Si11  1  0.64061200  0.06987200  0.90129300  1
  Si  Si12  1  0.76411900  0.70473400  0.06252700  1
  Si  Si13  1  0.74794400  0.96731700  0.12749800  1
  Si  Si14  1  0.14690400  0.45973800  0.37002100  1
  Si  Si15  1  0.10429600  0.25292800  0.97463400  1
  Si  Si16  1  0.16913400  0.67135200  0.79582800  1
  Si  Si17  1  0.90303400  0.33495600  0.37329000  1
  Si  Si18  1  0.44245300  0.42021100  0.28410100  1
  Si  Si19  1  0.87096200  0.07567500  0.52737200  1
  Si  Si20  1  0.64056900  0.01292100  0.64039400  1
  Si  Si21  1  0.70196100  0.44195400  0.20280600  1
  Si  Si22  1  0.49011900  0.63719400  0.09825600  1
  Si  Si23  1  0.00273600  0.32724200  0.58886100  1
  Si  Si24  1  0.65680700  0.45625400  0.47124800  1
  Si  Si25  1  0.50512100  0.16024000  0.16783100  1
  Si  Si26  1  0.96900600  0.50591200  0.17069200  1
  Si  Si27  1  0.04296400  0.73215300  0.02487900  1
  Si  Si28  1  0.36462800  0.48676700  0.53761300  1
  Si  Si29  1  0.02775200  0.74261400  0.30833800  1
  Si  Si30  1  0.23036800  0.48429700  0.11345500  1
  Si  Si31  1  0.89333200  0.65307700  0.82232300  1
  Si  Si32  1  0.24496800  0.29570500  0.74005000  1
  Si  Si33  1  0.03454100  0.00198800  0.13582700  1
  Si  Si34  1  0.65458900  0.00993400  0.36856500  1
  Si  Si35  1  0.42937600  0.69649600  0.68749900  1
  Si  Si36  1  0.50447400  0.27805500  0.56116800  1
  Si  Si37  1  0.86917900  0.25091800  0.10659300  1
  Si  Si38  1  0.74308500  0.74608600  0.35336400  1
  Si  Si39  1  0.39814800  0.97873300  0.51318500  1
  Si  Si40  1  0.37717300  0.14835900  0.97882600  1
  Si  Si41  1  0.21792800  0.94223200  0.35418900  1
  Si  Si42  1  0.13528900  0.93068500  0.63203600  1
  Si  Si43  1  0.39448700  0.97890000  0.77335400  1
  Si  Si44  1  0.64654700  0.57184000  0.86777300  1
  N  N0  1  0.51461400  0.10039600  0.53402000  1
  N  N1  1  0.34506800  0.28567800  0.87563600  1
  N  N2  1  0.36498000  0.53287800  0.03312600  1
  N  N3  1  0.58497200  0.65388200  0.72884700  1
  N  N4  1  0.16269300  0.75917300  0.64702500  1
  N  N5  1  0.60334200  0.02431500  0.21504400  1
  N  N6  1  0.80084000  0.51816600  0.85557300  1
  N  N7  1  0.75801900  0.80005100  0.19133800  1
  N  N8  1  0.97223200  0.19760600  0.48061400  1
  N  N9  1  0.38205700  0.93962600  0.36227200  1
  N  N10  1  0.28518000  0.48594800  0.26208700  1
  N  N11  1  0.89173500  0.73674400  0.95868800  1
  N  N12  1  0.88045700  0.07527500  0.13923400  1
  N  N13  1  0.43890000  0.77441600  0.16352500  1
  N  N14  1  0.60941000  0.84669000  0.38016800  1
  N  N15  1  0.71484700  0.31714600  0.09776500  1
  N  N16  1  0.97721000  0.94853400  0.58949300  1
  N  N17  1  0.35424800  0.99309800  0.92495100  1
  N  N18  1  0.69384800  0.61906700  0.47913400  1
  N  N19  1  0.21168800  0.52250200  0.49602600  1
  N  N20  1  0.14633200  0.79491500  0.90945000  1
  N  N21  1  0.41658300  0.87446300  0.65126100  1
  N  N22  1  0.03858500  0.57293600  0.81010000  1
  N  N23  1  0.37525500  0.34552500  0.63945100  1
  N  N24  1  0.10716500  0.06883700  0.99651800  1
  N  N25  1  0.18102600  0.31677400  0.09795300  1
  N  N26  1  0.64752000  0.34593400  0.60325000  1
  N  N27  1  0.89448300  0.77921500  0.40670600  1
  N  N28  1  0.71195000  0.94918700  0.98361300  1
  N  N29  1  0.76978500  0.11147400  0.64536500  1
  N  N30  1  0.38849800  0.65468000  0.54640600  1
  N  N31  1  0.99492600  0.43165400  0.46020800  1
  N  N32  1  0.08644900  0.56527200  0.06505700  1
  N  N33  1  0.20120400  0.27239000  0.35702600  1
  N  N34  1  0.21614700  0.00266800  0.74804100  1
  N  N35  1  0.21937100  0.01883200  0.50441700  1
  N  N36  1  0.74421200  0.38713700  0.35673800  1
  N  N37  1  0.78959500  0.06799100  0.39824200  1
  N  N38  1  0.48695000  0.42135700  0.44540400  1
  N  N39  1  0.55162900  0.43844300  0.89098400  1
  N  N40  1  0.11921700  0.33321200  0.83193300  1
  N  N41  1  0.71202400  0.87154500  0.58941500  1
  N  N42  1  0.32767800  0.59892200  0.79133300  1
  N  N43  1  0.62048100  0.66437900  0.99413300  1
  N  N44  1  0.94758600  0.30715000  0.97708100  1
  N  N45  1  0.49977100  0.26749700  0.27020100  1
  N  N46  1  0.89948900  0.34116000  0.70454600  1
  N  N47  1  0.15036800  0.25362900  0.61831600  1
  N  N48  1  0.53975600  0.16929600  0.00373300  1
  N  N49  1  0.81378700  0.55660400  0.14725600  1
  N  N50  1  0.85335400  0.69365300  0.67078300  1
  N  N51  1  0.16044000  0.78827800  0.39078700  1
  N  N52  1  0.13580100  0.04905100  0.25185900  1
  N  N53  1  0.55525300  0.52247900  0.21114900  1
  N  N54  1  0.35064300  0.12798000  0.13602500  1
  N  N55  1  0.55296100  0.02665800  0.77514500  1
  N  N56  1  0.94626600  0.33482500  0.22106500  1
  N  N57  1  0.04278200  0.57876600  0.28794900  1
  N  N58  1  0.03657900  0.82795500  0.15640600  1
  N  N59  1  0.71117000  0.22066900  0.85258400  1
loop_
_geom_bond_atom_site_label_1
_geom_bond_atom_site_label_2
_geom_bond_distance
_geom_bond_site_symmetry_2
N0 Si39 1.796846 1_545
N0 Si36 1.840818 1_555
N0 Si20 1.925169 1_555
N1 Si40 1.750242 1_555
N1 Si32 1.828152 1_555
N1 Si3 1.885100 1_555
N2 Si3 1.731829 1_554
N2 Si30 1.732699 1_555
N2 Si22 1.896091 1_555
N3 Si8 1.715226 1_555
N3 Si35 1.739663 1_555
N3 Si44 1.796776 1_555
N4 Si42 1.742808 1_555
N4 Si5 1.760220 1_555
N4 Si16 1.800934 1_555
N5 Si25 1.742103 1_555
N5 Si34 1.769168 1_555
N5 Si13 1.893107 1_545
N5 Si6 2.024114 1_545
N6 Si44 1.706702 1_555
N6 Si31 1.719859 1_555
N6 Si2 1.984957 1_555
N7 Si12 1.769159 1_555
N7 Si13 1.780743 1_555
N7 Si38 1.828696 1_555
N8 Si19 1.706788 1_555
N8 Si1 1.860479 1_655
N8 Si23 1.871082 1_655
N8 Si17 1.883949 1_555
N9 Si41 1.735611 1_555
N9 Si39 1.743173 1_555
N9 Si6 1.782837 1_555
N10 Si30 1.737960 1_555
N10 Si18 1.778947 1_555
N10 Si14 1.886113 1_555
N11 Si27 1.758238 1_656
N11 Si31 1.773363 1_555
N11 Si12 1.780392 1_556
N12 Si33 1.765495 1_655
N12 Si37 1.784194 1_555
N12 Si13 1.815356 1_545
N13 Si6 1.619842 1_555
N13 Si22 1.678701 1_555
N14 Si34 1.728272 1_565
N14 Si38 1.746551 1_555
N14 Si6 1.770819 1_555
N15 Si10 1.740560 1_554
N15 Si37 1.740954 1_555
N15 Si21 1.772501 1_555
N16 Si0 1.711383 1_555
N16 Si42 1.737247 1_655
N16 Si19 1.776766 1_565
N17 Si43 1.729592 1_555
N17 Si40 1.742747 1_565
N17 Si4 1.771845 1_555
N18 Si24 1.712748 1_555
N18 Si8 1.787644 1_555
N18 Si38 1.895877 1_555
N19 Si28 1.701610 1_555
N19 Si5 1.715848 1_555
N19 Si14 1.721216 1_555
N20 Si27 1.762008 1_556
N20 Si4 1.765903 1_555
N20 Si16 1.838430 1_555
N21 Si43 1.775978 1_555
N21 Si39 1.788647 1_555
N21 Si35 1.813099 1_555
N22 Si31 1.718452 1_455
N22 Si16 1.727078 1_555
N22 Si2 1.874709 1_455
N23 Si28 1.747191 1_555
N23 Si36 1.751663 1_555
N23 Si32 1.818176 1_555
N24 Si4 1.752833 1_545
N24 Si33 1.801688 1_556
N24 Si15 1.856887 1_555
N25 Si9 1.738105 1_555
N25 Si15 1.758582 1_554
N25 Si30 1.808775 1_555
N26 Si36 1.760083 1_555
N26 Si7 1.765492 1_555
N26 Si24 1.765569 1_555
N27 Si38 1.759155 1_555
N27 Si0 1.782308 1_555
N27 Si29 1.811462 1_655
N28 Si11 1.629448 1_565
N28 Si13 1.653198 1_556
N29 Si20 1.720742 1_555
N29 Si19 1.723465 1_555
N29 Si7 1.725364 1_555
N30 Si35 1.699268 1_555
N30 Si28 1.733793 1_555
N30 Si5 1.796738 1_555
N31 Si23 1.699759 1_655
N31 Si17 1.740361 1_555
N31 Si14 1.897253 1_655
N32 Si27 1.757081 1_555
N32 Si30 1.767673 1_555
N32 Si26 1.779492 1_455
N33 Si1 1.682740 1_555
N33 Si9 1.780290 1_555
N33 Si14 1.973804 1_555
N34 Si42 1.755424 1_545
N34 Si4 1.757437 1_545
N34 Si43 1.910511 1_545
N35 Si1 1.796110 1_555
N35 Si42 1.841951 1_545
N35 Si41 1.874179 1_545
N35 Si39 1.918944 1_545
N36 Si24 1.728272 1_555
N36 Si17 1.747538 1_555
N36 Si21 1.794257 1_555
N37 Si34 1.605666 1_555
N37 Si19 1.672578 1_555
N38 Si28 1.774421 1_555
N38 Si18 1.837501 1_555
N38 Si36 1.859427 1_555
N38 Si24 1.868353 1_555
N39 Si10 1.702397 1_555
N39 Si44 1.710247 1_555
N39 Si3 1.712161 1_555
N40 Si32 1.709991 1_555
N40 Si15 1.718509 1_555
N40 Si2 1.834181 1_455
N41 Si20 1.720562 1_565
N41 Si8 1.765214 1_555
N41 Si0 1.894686 1_555
N42 Si16 1.805613 1_555
N42 Si35 1.819408 1_555
N42 Si3 1.844208 1_555
N43 Si44 1.744848 1_555
N43 Si12 1.772067 1_556
N43 Si22 1.797295 1_556
N44 Si37 1.709602 1_556
N44 Si15 1.725766 1_655
N44 Si2 1.789965 1_555
N45 Si25 1.617976 1_555
N45 Si18 1.655050 1_555
N46 Si23 1.677608 1_655
N46 Si7 1.715960 1_555
N46 Si2 1.796588 1_555
N47 Si1 1.714289 1_555
N47 Si23 1.726537 1_555
N47 Si32 1.761705 1_555
N48 Si40 1.763512 1_554
N48 Si10 1.777992 1_554
N48 Si25 1.831811 1_555
N48 Si11 1.866123 1_554
N49 Si26 1.716109 1_555
N49 Si21 1.756729 1_555
N49 Si12 1.768324 1_555
N50 Si0 1.716020 1_555
N50 Si31 1.736053 1_555
N50 Si8 1.769562 1_555
N51 Si41 1.708254 1_555
N51 Si5 1.762210 1_555
N51 Si29 1.768012 1_555
N52 Si41 1.717752 1_545
N52 Si33 1.772827 1_555
N52 Si9 1.822237 1_555
N53 Si21 1.729702 1_555
N53 Si18 1.753347 1_555
N53 Si22 1.760221 1_555
N54 Si25 1.718682 1_555
N54 Si40 1.744498 1_554
N54 Si9 1.758106 1_555
N55 Si20 1.750064 1_555
N55 Si43 1.758587 1_545
N55 Si11 1.762750 1_555
N56 Si17 1.729074 1_555
N56 Si37 1.785138 1_555
N56 Si26 1.798850 1_555
N57 Si29 1.688946 1_555
N57 Si26 1.733741 1_455
N57 Si14 1.797569 1_555
N58 Si33 1.755507 1_565
N58 Si27 1.797236 1_555
N58 Si29 1.823155 1_555
N59 Si7 1.706862 1_555
N59 Si10 1.710327 1_555
N59 Si11 1.764490 1_555
