# generated using pymatgen
data_Cu12PdN4
_symmetry_space_group_name_H-M   'P 1'
_cell_length_a   7.44667500
_cell_length_b   7.44667500
_cell_length_c   3.93628900
_cell_angle_alpha   90.00000000
_cell_angle_beta   90.00000000
_cell_angle_gamma   90.00000000
_symmetry_Int_Tables_number   1
_chemical_formula_structural   Cu12PdN4
_chemical_formula_sum   'Cu12 Pd1 N4'
_cell_volume   218.27891014
_cell_formula_units_Z   1
loop_
 _symmetry_equiv_pos_site_id
 _symmetry_equiv_pos_as_xyz
  1  'x, y, z'
loop_
 _atom_site_type_symbol
 _atom_site_label
 _atom_site_symmetry_multiplicity
 _atom_site_fract_x
 _atom_site_fract_y
 _atom_site_fract_z
 _atom_site_occupancy
  Cu  Cu0  1  0.25085700  0.50000000  0.00000000  1
  Cu  Cu1  1  0.74914300  0.50000000  0.00000000  1
  Cu  Cu2  1  0.50000000  0.74914300  0.00000000  1
  Cu  Cu3  1  0.50000000  0.25085700  0.00000000  1
  Cu  Cu4  1  0.25608400  0.00000000  0.00000000  1
  Cu  Cu5  1  0.74391600  0.00000000  0.00000000  1
  Cu  Cu6  1  0.00000000  0.74391600  0.00000000  1
  Cu  Cu7  1  0.00000000  0.25608400  0.00000000  1
  Cu  Cu8  1  0.25124100  0.25124100  0.50000000  1
  Cu  Cu9  1  0.74875900  0.74875900  0.50000000  1
  Cu  Cu10  1  0.25124100  0.74875900  0.50000000  1
  Cu  Cu11  1  0.74875900  0.25124100  0.50000000  1
  Pd  Pd0  1  0.00000000  0.00000000  0.50000000  1
  N  N0  1  0.00000000  0.00000000  0.00000000  1
  N  N1  1  0.50000000  0.50000000  0.00000000  1
  N  N2  1  0.00000000  0.50000000  0.00000000  1
  N  N3  1  0.50000000  0.00000000  0.00000000  1
loop_
_geom_bond_atom_site_label_1
_geom_bond_atom_site_label_2
_geom_bond_distance
_geom_bond_site_symmetry_2
Cu0 N1 1.855287 1_555
Cu0 N2 1.868051 1_555
Cu0 Cu10 2.702793 1_555
Cu0 Cu10 2.702793 1_554
Cu0 Cu8 2.702793 1_555
Cu0 Cu8 2.702793 1_554
Cu1 N1 1.855287 1_555
Cu1 N2 1.868051 1_655
Cu1 Cu9 2.702793 1_554
Cu1 Cu9 2.702793 1_555
Cu1 Cu11 2.702793 1_554
Cu1 Cu11 2.702793 1_555
Cu2 N1 1.855287 1_555
Cu2 N3 1.868051 1_565
Cu2 Cu9 2.702793 1_554
Cu2 Cu9 2.702793 1_555
Cu3 N1 1.855287 1_555
Cu3 N3 1.868051 1_555
Cu3 Cu8 2.702793 1_555
Cu3 Cu8 2.702793 1_554
Cu4 N3 1.816363 1_555
Cu4 N0 1.906974 1_555
Cu4 Cu8 2.715732 1_555
Cu4 Cu8 2.715732 1_554
Cu5 N3 1.816363 1_555
Cu5 N0 1.906974 1_655
Cu5 Cu9 2.715732 1_544
Cu5 Cu9 2.715732 1_545
Cu6 N2 1.816363 1_555
Cu6 N0 1.906974 1_565
Cu6 Cu9 2.715732 1_454
Cu6 Cu9 2.715732 1_455
Cu7 N2 1.816363 1_555
Cu7 N0 1.906974 1_555
Cu7 Cu8 2.715732 1_555
Cu7 Cu8 2.715732 1_554
Cu8 Pd0 2.645866 1_555
Cu9 Pd0 2.645866 1_665
Cu10 Pd0 2.645866 1_565
Cu10 Cu2 2.702793 1_555
Cu10 Cu2 2.702793 1_556
Cu10 Cu6 2.715732 1_555
Cu10 Cu6 2.715732 1_556
Cu10 Cu4 2.715732 1_566
Cu10 Cu4 2.715732 1_565
Cu11 Pd0 2.645866 1_655
Cu11 Cu3 2.702793 1_556
Cu11 Cu3 2.702793 1_555
Cu11 Cu5 2.715732 1_555
Cu11 Cu5 2.715732 1_556
Cu11 Cu7 2.715732 1_655
Cu11 Cu7 2.715732 1_656
N0 Pd0 1.968144 1_554
N0 Pd0 1.968144 1_555
