# generated using pymatgen
data_AcNdMg2
_symmetry_space_group_name_H-M   'P 1'
_cell_length_a   5.65970672
_cell_length_b   5.65970672
_cell_length_c   5.65970672
_cell_angle_alpha   60.00000000
_cell_angle_beta   60.00000000
_cell_angle_gamma   60.00000000
_symmetry_Int_Tables_number   1
_chemical_formula_structural   AcNdMg2
_chemical_formula_sum   'Ac1 Nd1 Mg2'
_cell_volume   128.19372966
_cell_formula_units_Z   1
loop_
 _symmetry_equiv_pos_site_id
 _symmetry_equiv_pos_as_xyz
  1  'x, y, z'
loop_
 _atom_site_type_symbol
 _atom_site_label
 _atom_site_symmetry_multiplicity
 _atom_site_fract_x
 _atom_site_fract_y
 _atom_site_fract_z
 _atom_site_occupancy
  Ac  Ac0  1  0.50000000  0.50000000  0.50000000  1
  Nd  Nd0  1  0.00000000  0.00000000  0.00000000  1
  Mg  Mg0  1  0.25000000  0.25000000  0.25000000  1
  Mg  Mg1  1  0.75000000  0.75000000  0.75000000  1
loop_
_geom_bond_atom_site_label_1
_geom_bond_atom_site_label_2
_geom_bond_distance
_geom_bond_site_symmetry_2
Ac0 Mg1 3.465848 1_545
Ac0 Mg0 3.465848 1_655
Ac0 Mg0 3.465848 1_556
Ac0 Mg1 3.465848 1_555
Ac0 Mg1 3.465848 1_554
Ac0 Mg0 3.465848 1_565
Ac0 Mg1 3.465848 1_455
Ac0 Mg0 3.465848 1_555
Mg0 Nd0 3.465848 1_556
Mg0 Nd0 3.465848 1_565
Mg0 Nd0 3.465848 1_655
Mg0 Nd0 3.465848 1_555
Mg1 Nd0 3.465848 1_665
Mg1 Nd0 3.465848 1_566
Mg1 Nd0 3.465848 1_666
Mg1 Nd0 3.465848 1_656
