# generated using pymatgen
data_FeB
_symmetry_space_group_name_H-M   'P 1'
_cell_length_a   2.91754635
_cell_length_b   2.91749025
_cell_length_c   7.93961078
_cell_angle_alpha   100.58915965
_cell_angle_beta   100.58983140
_cell_angle_gamma   90.00361502
_symmetry_Int_Tables_number   1
_chemical_formula_structural   FeB
_chemical_formula_sum   'Fe4 B4'
_cell_volume   65.25888518
_cell_formula_units_Z   4
loop_
 _symmetry_equiv_pos_site_id
 _symmetry_equiv_pos_as_xyz
  1  'x, y, z'
loop_
 _atom_site_type_symbol
 _atom_site_label
 _atom_site_symmetry_multiplicity
 _atom_site_fract_x
 _atom_site_fract_y
 _atom_site_fract_z
 _atom_site_occupancy
  Fe  Fe0  1  0.67611158  0.92586124  0.35264088  1
  Fe  Fe1  1  0.92588462  0.67614162  0.85269132  1
  Fe  Fe2  1  0.32393365  0.07418268  0.64744933  1
  Fe  Fe3  1  0.07406549  0.32380714  0.14721574  1
  B  B0  1  0.21721882  0.46724042  0.43451195  1
  B  B1  1  0.46725543  0.21723592  0.93453718  1
  B  B2  1  0.78277430  0.53275224  0.56547539  1
  B  B3  1  0.53275612  0.78277672  0.06547922  1
loop_
_geom_bond_atom_site_label_1
_geom_bond_atom_site_label_2
_geom_bond_distance
_geom_bond_site_symmetry_2
B0 B2 1.770793 1_455
B0 B2 1.771053 1_555
B0 Fe0 2.155142 1_555
B0 Fe0 2.155896 1_455
B0 Fe0 2.156976 1_545
B0 Fe0 2.157481 1_445
B0 Fe2 2.188455 1_555
B0 Fe2 2.190190 1_565
B0 Fe3 2.202635 1_555
B1 B3 1.770680 1_546
B1 B3 1.770935 1_556
B1 Fe1 2.155078 1_555
B1 Fe1 2.155838 1_545
B1 Fe1 2.156922 1_455
B1 Fe1 2.157433 1_445
B1 Fe3 2.187008 1_556
B1 Fe3 2.188716 1_656
B1 Fe2 2.201037 1_555
B2 Fe2 2.155371 1_555
B2 Fe2 2.156127 1_655
B2 Fe2 2.157204 1_565
B2 Fe2 2.157712 1_665
B2 Fe0 2.187866 1_555
B2 Fe0 2.189603 1_545
B2 Fe1 2.202019 1_555
B3 Fe3 2.154865 1_555
B3 Fe3 2.155589 1_565
B3 Fe3 2.156683 1_655
B3 Fe3 2.157157 1_665
B3 Fe1 2.187620 1_554
B3 Fe1 2.189353 1_454
B3 Fe0 2.201603 1_555
