# generated using pymatgen
data_Ti2(CN2)3
_symmetry_space_group_name_H-M   'P 1'
_cell_length_a   10.20873811
_cell_length_b   5.64886431
_cell_length_c   29.02683773
_cell_angle_alpha   89.99999601
_cell_angle_beta   161.37273575
_cell_angle_gamma   73.93855881
_symmetry_Int_Tables_number   1
_chemical_formula_structural   Ti2(CN2)3
_chemical_formula_sum   'Ti4 C6 N12'
_cell_volume   267.18558317
_cell_formula_units_Z   2
loop_
 _symmetry_equiv_pos_site_id
 _symmetry_equiv_pos_as_xyz
  1  'x, y, z'
loop_
 _atom_site_type_symbol
 _atom_site_label
 _atom_site_symmetry_multiplicity
 _atom_site_fract_x
 _atom_site_fract_y
 _atom_site_fract_z
 _atom_site_occupancy
  Ti  Ti0  1  0.00233283  0.99993325  0.16740584  1
  Ti  Ti1  1  0.00233283  0.99773393  0.66740584  1
  Ti  Ti2  1  0.99769832  0.00005069  0.83262125  1
  Ti  Ti3  1  0.99769832  0.00224999  0.33262125  1
  C  C0  1  0.94787733  0.68392618  0.06606559  1
  C  C1  1  0.00000942  0.68432836  0.75000770  1
  C  C2  1  0.05209385  0.63180304  0.43393856  1
  C  C3  1  0.94787733  0.36819649  0.56606559  1
  C  C4  1  0.05209385  0.31610211  0.93393856  1
  C  C5  1  0.00000942  0.31566222  0.25000770  1
  N  N0  1  0.84289865  0.77832538  0.07228935  1
  N  N1  1  0.17701335  0.60077782  0.85024835  1
  N  N2  1  0.97716602  0.62224117  0.45021515  1
  N  N3  1  0.84289865  0.37877597  0.57228935  1
  N  N4  1  0.97716602  0.40059282  0.95021515  1
  N  N5  1  0.17701335  0.22220883  0.35024835  1
  N  N6  1  0.15709197  0.22169631  0.92772866  1
  N  N7  1  0.82304540  0.39918189  0.14979253  1
  N  N8  1  0.02277187  0.37778139  0.54978600  1
  N  N9  1  0.15709197  0.62121173  0.42772866  1
  N  N10  1  0.02277187  0.59944674  0.04978600  1
  N  N11  1  0.82304540  0.77777271  0.64979253  1
loop_
_geom_bond_atom_site_label_1
_geom_bond_atom_site_label_2
_geom_bond_distance
_geom_bond_site_symmetry_2
C0 N0 1.231358 1_555
C0 N10 1.232259 1_655
C1 N11 1.231548 1_455
C1 N1 1.231906 1_555
C2 N9 1.231152 1_555
C2 N2 1.232484 1_455
C3 N3 1.231358 1_555
C3 N8 1.232259 1_655
C4 N6 1.231151 1_555
C4 N4 1.232486 1_455
C5 N7 1.231548 1_455
C5 N5 1.231906 1_555
N0 Ti0 2.109431 1_655
N0 Ti2 2.161457 1_464
N1 Ti0 2.105197 1_646
N1 Ti2 2.154087 1_465
N2 Ti0 2.097471 1_555
N2 Ti2 2.161422 1_655
N3 Ti1 2.109431 1_645
N3 Ti3 2.161454 1_465
N4 Ti1 2.097471 1_555
N4 Ti3 2.161421 1_656
N5 Ti1 2.105197 1_645
N5 Ti3 2.154091 1_455
N6 Ti2 2.109577 1_455
N6 Ti0 2.161520 1_646
N7 Ti2 2.105333 1_464
N7 Ti0 2.154109 1_645
N8 Ti2 2.097686 1_555
N8 Ti0 2.161404 1_455
N9 Ti3 2.109572 1_465
N9 Ti1 2.161520 1_645
N10 Ti3 2.097688 1_555
N10 Ti1 2.161403 1_454
N11 Ti3 2.105336 1_465
N11 Ti1 2.154109 1_655
