# generated using pymatgen
data_Li2VSiO5
_symmetry_space_group_name_H-M   'P 1'
_cell_length_a   4.54033200
_cell_length_b   9.08670398
_cell_length_c   9.08596859
_cell_angle_alpha   89.99998216
_cell_angle_beta   90.00168378
_cell_angle_gamma   90.00046530
_symmetry_Int_Tables_number   1
_chemical_formula_structural   Li2VSiO5
_chemical_formula_sum   'Li8 V4 Si4 O20'
_cell_volume   374.85665150
_cell_formula_units_Z   4
loop_
 _symmetry_equiv_pos_site_id
 _symmetry_equiv_pos_as_xyz
  1  'x, y, z'
loop_
 _atom_site_type_symbol
 _atom_site_label
 _atom_site_symmetry_multiplicity
 _atom_site_fract_x
 _atom_site_fract_y
 _atom_site_fract_z
 _atom_site_occupancy
  Li  Li0  1  0.49996100  0.00000800  0.00002000  1
  Li  Li1  1  0.50001300  0.49998200  0.49999000  1
  Li  Li2  1  0.49998600  0.49998900  0.00001900  1
  Li  Li3  1  0.50001800  0.99999400  0.49998900  1
  Li  Li4  1  0.49994700  0.25000100  0.75006800  1
  Li  Li5  1  0.50006300  0.74999400  0.24994600  1
  Li  Li6  1  0.49991100  0.25000200  0.24994000  1
  Li  Li7  1  0.50005800  0.74999200  0.75006400  1
  V  V0  1  0.08367500  0.75000400  0.50012700  1
  V  V1  1  0.91662900  0.24998300  0.49994800  1
  V  V2  1  0.08320700  0.25001400  0.99994500  1
  V  V3  1  0.91664000  0.75000300  0.00003200  1
  Si  Si0  1  0.99994100  0.49999900  0.74997900  1
  Si  Si1  1  0.00003700  0.99999300  0.25001100  1
  Si  Si2  1  0.00003400  0.50000900  0.25001700  1
  Si  Si3  1  0.99994000  0.00000200  0.74998500  1
  O  O0  1  0.71283600  0.25002200  0.99997600  1
  O  O1  1  0.71331300  0.75000100  0.50006200  1
  O  O2  1  0.28707800  0.75000700  0.99993200  1
  O  O3  1  0.28686600  0.24999500  0.49999500  1
  O  O4  1  0.21676600  0.60277000  0.35277400  1
  O  O5  1  0.21659300  0.10280000  0.85273700  1
  O  O6  1  0.21658100  0.39719900  0.14721000  1
  O  O7  1  0.21684900  0.89727700  0.64730400  1
  O  O8  1  0.78321200  0.39724500  0.35274100  1
  O  O9  1  0.78333200  0.89719800  0.85275500  1
  O  O10  1  0.78337200  0.60279300  0.14723400  1
  O  O11  1  0.78321400  0.10277000  0.64723800  1
  O  O12  1  0.78323600  0.39721100  0.64723600  1
  O  O13  1  0.78337300  0.89721000  0.14722800  1
  O  O14  1  0.78333000  0.60280700  0.85274800  1
  O  O15  1  0.78319400  0.10273600  0.35273800  1
  O  O16  1  0.21684900  0.60272700  0.64729800  1
  O  O17  1  0.21656700  0.10281600  0.14720900  1
  O  O18  1  0.21660800  0.39721100  0.85273800  1
  O  O19  1  0.21677100  0.89723400  0.35276700  1
loop_
_geom_bond_atom_site_label_1
_geom_bond_atom_site_label_2
_geom_bond_distance
_geom_bond_site_symmetry_2
Li0 O17 2.077726 1_555
Li0 O13 2.077798 1_545
Li0 O5 2.078089 1_554
Li0 O9 2.078114 1_544
Li0 O2 2.468756 1_544
Li0 O0 2.468850 1_554
Li1 O8 2.077239 1_555
Li1 O4 2.077340 1_555
Li1 O12 2.077379 1_555
Li1 O16 2.077519 1_555
Li1 O3 2.469108 1_555
Li1 O1 2.469648 1_555
Li2 O6 2.077686 1_555
Li2 O10 2.077781 1_555
Li2 O18 2.078039 1_554
Li2 O14 2.078096 1_554
Li2 O0 2.468427 1_554
Li2 O2 2.468957 1_554
Li3 O15 2.077197 1_565
Li3 O19 2.077252 1_555
Li3 O11 2.077332 1_565
Li3 O7 2.077450 1_555
Li3 O3 2.469249 1_565
Li3 O1 2.469436 1_555
Li4 O5 2.077133 1_555
Li4 O18 2.077161 1_555
Li4 O12 2.077668 1_555
Li4 O11 2.077735 1_555
Li4 O0 2.467801 1_555
Li4 O3 2.469522 1_555
Li5 O10 2.077196 1_555
Li5 O13 2.077297 1_555
Li5 O4 2.077757 1_555
Li5 O19 2.077821 1_555
Li5 O2 2.468858 1_554
Li5 O1 2.470182 1_555
Li6 O17 2.077237 1_555
Li6 O6 2.077271 1_555
Li6 O8 2.077735 1_555
Li6 O15 2.077820 1_555
Li6 O0 2.468385 1_554
Li6 O3 2.469359 1_555
Li7 O14 2.076849 1_555
Li7 O9 2.076993 1_555
Li7 O16 2.077462 1_555
Li7 O7 2.077568 1_555
Li7 O2 2.467681 1_555
Li7 O1 2.469290 1_555
O0 V2 1.681607 1_655
O1 V0 1.681567 1_655
O2 V3 1.681912 1_456
O3 V1 1.680999 1_455
O4 Si2 1.646772 1_555
O4 V0 1.986862 1_555
O5 Si3 1.646723 1_455
O5 V2 1.986260 1_555
O6 Si2 1.646823 1_555
O6 V2 1.986384 1_554
O7 Si3 1.646718 1_465
O7 V0 1.986107 1_555
O8 Si2 1.646894 1_655
O8 V1 1.986566 1_555
O9 Si3 1.646757 1_565
O9 V3 1.986433 1_556
O10 Si2 1.646844 1_655
O10 V3 1.986028 1_555
O11 Si3 1.646749 1_555
O11 V1 1.986788 1_555
O12 Si0 1.646766 1_555
O12 V1 1.986845 1_555
O13 Si1 1.646835 1_655
O13 V3 1.985979 1_555
O14 Si0 1.646790 1_555
O14 V3 1.986479 1_556
O15 Si1 1.646868 1_645
O15 V1 1.986511 1_555
O16 Si0 1.646721 1_455
O16 V0 1.986101 1_555
O17 Si1 1.646808 1_545
O17 V2 1.986444 1_554
O18 Si0 1.646754 1_455
O18 V2 1.986163 1_555
O19 Si1 1.646771 1_555
O19 V0 1.986880 1_555
