# generated using pymatgen
data_KCrO2
_symmetry_space_group_name_H-M   'P 1'
_cell_length_a   3.06010222
_cell_length_b   3.06010222
_cell_length_c   11.86256845
_cell_angle_alpha   90.00000000
_cell_angle_beta   90.00000000
_cell_angle_gamma   119.99774198
_symmetry_Int_Tables_number   1
_chemical_formula_structural   KCrO2
_chemical_formula_sum   'K2 Cr2 O4'
_cell_volume   96.20355306
_cell_formula_units_Z   2
loop_
 _symmetry_equiv_pos_site_id
 _symmetry_equiv_pos_as_xyz
  1  'x, y, z'
loop_
 _atom_site_type_symbol
 _atom_site_label
 _atom_site_symmetry_multiplicity
 _atom_site_fract_x
 _atom_site_fract_y
 _atom_site_fract_z
 _atom_site_occupancy
  K  K0  1  0.66670961  0.33329039  0.75000000  1
  K  K1  1  0.33329039  0.66670961  0.25000000  1
  Cr  Cr0  1  0.00000000  -0.00000000  0.50000000  1
  Cr  Cr1  1  0.00000000  -0.00000000  0.00000000  1
  O  O0  1  0.66665836  0.33334164  0.08519664  1
  O  O1  1  0.33334164  0.66665836  0.91480336  1
  O  O2  1  0.33334164  0.66665836  0.58519664  1
  O  O3  1  0.66665836  0.33334164  0.41480336  1
loop_
_geom_bond_atom_site_label_1
_geom_bond_atom_site_label_2
_geom_bond_distance
_geom_bond_site_symmetry_2
K0 O1 2.634998 1_545
K0 O2 2.634998 1_545
K0 O2 2.634998 1_655
K0 O1 2.634998 1_655
K0 O2 2.635143 1_555
K0 O1 2.635143 1_555
K1 O3 2.634998 1_455
K1 O0 2.634998 1_455
K1 O3 2.634998 1_565
K1 O0 2.634998 1_565
K1 O0 2.635143 1_555
K1 O3 2.635143 1_555
Cr0 O3 2.035409 1_555
Cr0 O3 2.035409 1_445
Cr0 O2 2.035409 1_555
Cr0 O2 2.035409 1_445
Cr0 O3 2.035414 1_455
Cr0 O2 2.035414 1_545
Cr1 O0 2.035409 1_555
Cr1 O0 2.035409 1_445
Cr1 O1 2.035409 1_554
Cr1 O1 2.035409 1_444
Cr1 O0 2.035414 1_455
Cr1 O1 2.035414 1_544
