# generated using pymatgen
data_Li2VPO4F
_symmetry_space_group_name_H-M   'P 1'
_cell_length_a   5.42330400
_cell_length_b   5.43843579
_cell_length_c   7.44815057
_cell_angle_alpha   106.93873821
_cell_angle_beta   106.75918891
_cell_angle_gamma   95.27448538
_symmetry_Int_Tables_number   1
_chemical_formula_structural   Li2VPO4F
_chemical_formula_sum   'Li4 V2 P2 O8 F2'
_cell_volume   197.47490818
_cell_formula_units_Z   2
loop_
 _symmetry_equiv_pos_site_id
 _symmetry_equiv_pos_as_xyz
  1  'x, y, z'
loop_
 _atom_site_type_symbol
 _atom_site_label
 _atom_site_symmetry_multiplicity
 _atom_site_fract_x
 _atom_site_fract_y
 _atom_site_fract_z
 _atom_site_occupancy
  Li  Li0  1  0.41727500  0.76294300  0.84797100  1
  Li  Li1  1  0.87151400  0.53895400  0.15092800  1
  Li  Li2  1  0.00989900  0.50313200  0.52394600  1
  Li  Li3  1  0.55149000  0.19116200  0.16596300  1
  V  V0  1  0.99908300  0.00329300  0.99425100  1
  V  V1  1  0.00711900  0.01158200  0.50347800  1
  P  P0  1  0.62564600  0.34388300  0.75793400  1
  P  P1  1  0.37817300  0.66031900  0.23433100  1
  O  O0  1  0.21383500  0.72595900  0.37559200  1
  O  O1  1  0.77144400  0.27304300  0.60702000  1
  O  O2  1  0.67627300  0.67222500  0.33785900  1
  O  O3  1  0.35029300  0.85519000  0.11352600  1
  O  O4  1  0.65527600  0.16113100  0.88916700  1
  O  O5  1  0.74428900  0.62971000  0.91039000  1
  O  O6  1  0.33192100  0.34488000  0.65658000  1
  O  O7  1  0.26303700  0.37509900  0.09256800  1
  F  F0  1  0.91397400  0.17749000  0.26821500  1
  F  F1  1  0.08782700  0.84212200  0.72887000  1
loop_
_geom_bond_atom_site_label_1
_geom_bond_atom_site_label_2
_geom_bond_distance
_geom_bond_site_symmetry_2
Li0 O5 1.960484 1_555
Li0 O3 2.040925 1_556
Li0 O6 2.225545 1_555
Li0 O4 2.306553 1_565
Li1 O5 1.947914 1_554
Li1 O2 1.997055 1_555
Li1 O0 2.037318 1_655
Li1 O4 2.302721 1_554
Li1 O7 2.479129 1_655
Li2 O1 2.058194 1_455
Li2 O6 2.131527 1_555
Li2 O0 2.269656 1_555
Li2 O2 2.375460 1_455
Li3 O3 1.911421 1_545
Li3 O7 1.964667 1_555
Li3 O4 2.254699 1_554
Li3 O2 2.482910 1_555
O0 P1 1.552152 1_555
O0 V1 2.156579 1_565
O1 P0 1.534053 1_555
O1 V1 2.124594 1_655
O2 P1 1.563711 1_555
O2 V1 2.221573 1_665
O3 P1 1.569161 1_555
O3 V0 2.188397 1_464
O4 P0 1.572857 1_555
O4 V0 2.161060 1_555
O5 P0 1.576692 1_555
O5 V0 2.161953 1_565
O6 P0 1.554960 1_555
O6 V1 2.176913 1_555
O7 P1 1.548607 1_555
O7 V0 2.162078 1_454
F0 Li3 1.909608 1_555
F0 Li2 2.080523 1_655
F0 V1 2.152753 1_655
F0 V0 2.184358 1_554
F0 Li1 2.376632 1_555
F1 Li0 1.901216 1_555
F1 Li2 1.937036 1_555
F1 V1 2.100252 1_565
F1 V0 2.126852 1_465
