# generated using pymatgen
data_Sm5Ge3C
_symmetry_space_group_name_H-M   'P 1'
_cell_length_a   8.73606000
_cell_length_b   8.73606010
_cell_length_c   6.64861700
_cell_angle_alpha   90.00000000
_cell_angle_beta   90.00000000
_cell_angle_gamma   119.99999964
_symmetry_Int_Tables_number   1
_chemical_formula_structural   Sm5Ge3C
_chemical_formula_sum   'Sm10 Ge6 C2'
_cell_volume   439.43350809
_cell_formula_units_Z   2
loop_
 _symmetry_equiv_pos_site_id
 _symmetry_equiv_pos_as_xyz
  1  'x, y, z'
loop_
 _atom_site_type_symbol
 _atom_site_label
 _atom_site_symmetry_multiplicity
 _atom_site_fract_x
 _atom_site_fract_y
 _atom_site_fract_z
 _atom_site_occupancy
  Sm  Sm0  1  0.66666700  0.33333300  0.00000000  1
  Sm  Sm1  1  0.33333300  0.66666700  0.00000000  1
  Sm  Sm2  1  0.33333300  0.66666700  0.50000000  1
  Sm  Sm3  1  0.66666700  0.33333300  0.50000000  1
  Sm  Sm4  1  0.77760600  0.77760600  0.75000000  1
  Sm  Sm5  1  0.22239400  0.00000000  0.75000000  1
  Sm  Sm6  1  0.00000000  0.22239400  0.75000000  1
  Sm  Sm7  1  0.22239400  0.22239400  0.25000000  1
  Sm  Sm8  1  0.77760600  0.00000000  0.25000000  1
  Sm  Sm9  1  0.00000000  0.77760600  0.25000000  1
  Ge  Ge0  1  0.40694100  0.40694100  0.75000000  1
  Ge  Ge1  1  0.59305900  0.00000000  0.75000000  1
  Ge  Ge2  1  0.00000000  0.59305900  0.75000000  1
  Ge  Ge3  1  0.59305900  0.59305900  0.25000000  1
  Ge  Ge4  1  0.40694100  0.00000000  0.25000000  1
  Ge  Ge5  1  0.00000000  0.40694100  0.25000000  1
  C  C0  1  0.00000000  0.00000000  0.00000000  1
  C  C1  1  0.00000000  0.00000000  0.50000000  1
loop_
_geom_bond_atom_site_label_1
_geom_bond_atom_site_label_2
_geom_bond_distance
_geom_bond_site_symmetry_2
Ge0 Sm6 3.083208 1_555
Ge0 Sm5 3.083208 1_555
Ge0 Sm0 3.127874 1_556
Ge0 Sm3 3.127874 1_555
Ge0 Sm1 3.127874 1_556
Ge0 Sm2 3.127874 1_555
Ge0 Sm4 3.238152 1_555
Ge0 Sm7 3.694626 1_556
Ge0 Sm7 3.694626 1_555
Ge1 Sm6 3.083208 1_655
Ge1 Sm4 3.083208 1_545
Ge1 Sm3 3.127867 1_555
Ge1 Sm0 3.127867 1_556
Ge1 Sm2 3.127869 1_545
Ge1 Sm1 3.127869 1_546
Ge1 Sm5 3.238152 1_555
Ge1 Sm8 3.694626 1_555
Ge1 Sm8 3.694626 1_556
Ge2 Sm4 3.083208 1_455
Ge2 Sm5 3.083208 1_565
Ge2 Sm1 3.127867 1_556
Ge2 Sm2 3.127867 1_555
Ge2 Sm3 3.127869 1_455
Ge2 Sm0 3.127869 1_456
Ge2 Sm6 3.238152 1_555
Ge2 Sm9 3.694626 1_555
Ge2 Sm9 3.694626 1_556
Ge3 Sm9 3.083208 1_655
Ge3 Sm8 3.083208 1_565
Ge3 Sm2 3.127874 1_555
Ge3 Sm1 3.127874 1_555
Ge3 Sm3 3.127874 1_555
Ge3 Sm0 3.127874 1_555
Ge3 Sm7 3.238152 1_555
Ge3 Sm4 3.694626 1_555
Ge3 Sm4 3.694626 1_554
Ge4 Sm9 3.083208 1_545
Ge4 Sm7 3.083208 1_555
Ge4 Sm1 3.127867 1_545
Ge4 Sm2 3.127867 1_545
Ge4 Sm3 3.127869 1_555
Ge4 Sm0 3.127869 1_555
Ge4 Sm8 3.238152 1_555
Ge4 Sm5 3.694626 1_555
Ge4 Sm5 3.694626 1_554
Ge5 Sm7 3.083208 1_555
Ge5 Sm8 3.083208 1_455
Ge5 Sm3 3.127867 1_455
Ge5 Sm0 3.127867 1_455
Ge5 Sm2 3.127869 1_555
Ge5 Sm1 3.127869 1_555
Ge5 Sm9 3.238152 1_555
Ge5 Sm6 3.694626 1_554
Ge5 Sm6 3.694626 1_555
C0 Sm8 2.556836 1_455
C0 Sm5 2.556836 1_554
C0 Sm4 2.556836 1_444
C0 Sm6 2.556836 1_554
C0 Sm9 2.556836 1_545
C0 Sm7 2.556836 1_555
C1 Sm8 2.556836 1_455
C1 Sm5 2.556836 1_555
C1 Sm4 2.556836 1_445
C1 Sm6 2.556836 1_555
C1 Sm9 2.556836 1_545
C1 Sm7 2.556836 1_555
