# generated using pymatgen
data_Mg(NiO2)4
_symmetry_space_group_name_H-M   'P 1'
_cell_length_a   6.86702392
_cell_length_b   6.86702392
_cell_length_c   9.12500623
_cell_angle_alpha   49.91731231
_cell_angle_beta   49.91731231
_cell_angle_gamma   24.42843667
_symmetry_Int_Tables_number   1
_chemical_formula_structural   Mg(NiO2)4
_chemical_formula_sum   'Mg1 Ni4 O8'
_cell_volume   133.87630049
_cell_formula_units_Z   1
loop_
 _symmetry_equiv_pos_site_id
 _symmetry_equiv_pos_as_xyz
  1  'x, y, z'
loop_
 _atom_site_type_symbol
 _atom_site_label
 _atom_site_symmetry_multiplicity
 _atom_site_fract_x
 _atom_site_fract_y
 _atom_site_fract_z
 _atom_site_occupancy
  Mg  Mg0  1  0.65064400  0.65064400  0.81785100  1
  Ni  Ni0  1  0.36426400  0.36426400  0.44082900  1
  Ni  Ni1  1  0.85379900  0.85379900  0.79641200  1
  Ni  Ni2  1  0.16319700  0.16319700  0.15808200  1
  Ni  Ni3  1  0.65063000  0.65063000  0.50482300  1
  O  O0  1  0.13925700  0.13925700  0.38224800  1
  O  O1  1  0.54817100  0.54817100  0.22948700  1
  O  O2  1  0.46956800  0.46956800  0.72217100  1
  O  O3  1  0.86174300  0.86174300  0.57595400  1
  O  O4  1  0.84289400  0.84289400  0.32661600  1
  O  O5  1  0.20664100  0.20664100  0.91022400  1
  O  O6  1  0.16910300  0.16910300  0.64375300  1
  O  O7  1  0.78525100  0.78525100  0.06090300  1
loop_
_geom_bond_atom_site_label_1
_geom_bond_atom_site_label_2
_geom_bond_distance
_geom_bond_site_symmetry_2
Mg0 O6 2.043838 1_655
Mg0 O6 2.043838 1_565
Mg0 O5 2.054512 1_565
Mg0 O5 2.054512 1_655
Mg0 O3 2.158790 1_555
Ni0 O1 1.881590 1_555
Ni0 O3 1.891358 1_455
Ni0 O3 1.891358 1_545
Ni0 O4 1.916533 1_455
Ni0 O4 1.916533 1_545
Ni0 O6 1.974830 1_555
Ni1 O2 1.896691 1_655
Ni1 O2 1.896691 1_565
Ni1 O7 1.935327 1_556
Ni1 O3 1.943087 1_555
Ni1 O5 2.094802 1_655
Ni1 O5 2.094802 1_565
Ni2 O0 1.849676 1_555
Ni2 O1 1.895704 1_545
Ni2 O1 1.895704 1_455
Ni2 O7 1.914946 1_545
Ni2 O7 1.914946 1_455
Ni2 O5 1.928095 1_554
Ni3 O2 1.867943 1_555
Ni3 O0 1.900017 1_565
Ni3 O0 1.900017 1_655
Ni3 O4 1.942976 1_555
Ni3 O6 2.047824 1_565
Ni3 O6 2.047824 1_655
