# generated using pymatgen
data_YCrTeO6
_symmetry_space_group_name_H-M   'P 1'
_cell_length_a   5.19189045
_cell_length_b   5.19098312
_cell_length_c   9.83498401
_cell_angle_alpha   90.00403651
_cell_angle_beta   89.99798071
_cell_angle_gamma   119.99421183
_symmetry_Int_Tables_number   1
_chemical_formula_structural   YCrTeO6
_chemical_formula_sum   'Y2 Cr2 Te2 O12'
_cell_volume   229.56451247
_cell_formula_units_Z   2
loop_
 _symmetry_equiv_pos_site_id
 _symmetry_equiv_pos_as_xyz
  1  'x, y, z'
loop_
 _atom_site_type_symbol
 _atom_site_label
 _atom_site_symmetry_multiplicity
 _atom_site_fract_x
 _atom_site_fract_y
 _atom_site_fract_z
 _atom_site_occupancy
  Y  Y0  1  0.00000000  0.00000000  0.00000000  1
  Y  Y1  1  0.00000000  0.00000000  0.50000000  1
  Cr  Cr0  1  0.33301300  0.66650700  0.25000000  1
  Cr  Cr1  1  0.66698700  0.33349300  0.75000000  1
  Te  Te0  1  0.33352500  0.66676200  0.75000000  1
  Te  Te1  1  0.66647500  0.33323800  0.25000000  1
  O  O0  1  0.36533900  0.35540700  0.13969400  1
  O  O1  1  0.64447600  0.00991600  0.13971900  1
  O  O2  1  0.98993300  0.63454600  0.13968400  1
  O  O3  1  0.63466100  0.64459300  0.86030600  1
  O  O4  1  0.35552400  0.99008400  0.86028100  1
  O  O5  1  0.01006700  0.36545400  0.86031600  1
  O  O6  1  0.64447600  0.63456000  0.36028100  1
  O  O7  1  0.36533900  0.00993200  0.36030600  1
  O  O8  1  0.98993300  0.35538800  0.36031600  1
  O  O9  1  0.35552400  0.36544000  0.63971900  1
  O  O10  1  0.63466100  0.99006800  0.63969400  1
  O  O11  1  0.01006700  0.64461200  0.63968400  1
loop_
_geom_bond_atom_site_label_1
_geom_bond_atom_site_label_2
_geom_bond_distance
_geom_bond_site_symmetry_2
Cr0 O2 2.020418 1_455
Cr0 O8 2.020418 1_455
Cr0 O7 2.020828 1_565
Cr0 O0 2.020832 1_555
Cr0 O1 2.021658 1_565
Cr0 O6 2.021660 1_555
Cr1 O5 2.020418 1_655
Cr1 O11 2.020418 1_655
Cr1 O10 2.020828 1_545
Cr1 O3 2.020832 1_555
Cr1 O4 2.021658 1_545
Cr1 O9 2.021660 1_555
O0 Te1 1.953103 1_555
O0 Y0 2.321665 1_555
O1 Te1 1.953051 1_555
O1 Y0 2.322247 1_655
O2 Te1 1.953880 1_555
O2 Y0 2.321662 1_665
O3 Te0 1.953103 1_555
O3 Y0 2.321665 1_666
O4 Te0 1.953051 1_555
O4 Y0 2.322247 1_566
O5 Te0 1.953880 1_555
O5 Y0 2.321662 1_556
O6 Te1 1.953046 1_555
O6 Y1 2.322248 1_665
O7 Te1 1.953105 1_555
O7 Y1 2.321665 1_555
O8 Te1 1.953880 1_555
O8 Y1 2.321666 1_655
O9 Te0 1.953046 1_555
O9 Y1 2.322248 1_555
O10 Te0 1.953105 1_555
O10 Y1 2.321665 1_665
O11 Te0 1.953880 1_555
O11 Y1 2.321666 1_565
