# generated using pymatgen
data_LiV2N3
_symmetry_space_group_name_H-M   'P 1'
_cell_length_a   5.80755174
_cell_length_b   5.90380186
_cell_length_c   4.08703214
_cell_angle_alpha   90.00014551
_cell_angle_beta   89.99991835
_cell_angle_gamma   120.55030974
_symmetry_Int_Tables_number   1
_chemical_formula_structural   LiV2N3
_chemical_formula_sum   'Li2 V4 N6'
_cell_volume   120.67809621
_cell_formula_units_Z   2
loop_
 _symmetry_equiv_pos_site_id
 _symmetry_equiv_pos_as_xyz
  1  'x, y, z'
loop_
 _atom_site_type_symbol
 _atom_site_label
 _atom_site_symmetry_multiplicity
 _atom_site_fract_x
 _atom_site_fract_y
 _atom_site_fract_z
 _atom_site_occupancy
  Li  Li0  1  -0.00002008  0.65157183  0.43275147  1
  Li  Li1  1  0.00001965  0.34840110  0.93274123  1
  V  V0  1  0.32950043  0.32531174  0.43103316  1
  V  V1  1  0.67050639  0.99581676  0.43103178  1
  V  V2  1  0.67050263  0.67468703  0.93103231  1
  V  V3  1  0.32949291  0.00418975  0.93103266  1
  N  N0  1  0.35332416  0.33687485  0.93096417  1
  N  N1  1  0.64667576  0.98354353  0.93096412  1
  N  N2  1  0.64665396  0.66312494  0.43096437  1
  N  N3  1  0.35334826  0.01647592  0.43096437  1
  N  N4  1  0.00000009  0.70899039  0.93125952  1
  N  N5  1  -0.00000517  0.29101416  0.43125785  1
loop_
_geom_bond_atom_site_label_1
_geom_bond_atom_site_label_2
_geom_bond_distance
_geom_bond_site_symmetry_2
Li0 N4 2.065416 1_555
Li0 N4 2.077449 1_554
Li0 N2 2.087468 1_455
Li0 N3 2.087641 1_565
Li0 N5 2.128714 1_555
Li1 N5 2.065419 1_556
Li1 N5 2.077380 1_555
Li1 N0 2.087258 1_555
Li1 N1 2.087430 1_445
Li1 N4 2.128914 1_555
N0 V3 1.897505 1_555
N0 V2 1.906821 1_555
N0 V0 2.046706 1_555
N0 V0 2.047269 1_556
N1 V2 1.897509 1_555
N1 V3 1.906904 1_565
N1 V1 2.046714 1_555
N1 V1 2.047266 1_556
N2 V1 1.897489 1_555
N2 V0 1.906761 1_555
N2 V2 2.046718 1_554
N2 V2 2.047272 1_555
N3 V0 1.897455 1_555
N3 V1 1.906803 1_545
N3 V3 2.046718 1_554
N3 V3 2.047276 1_555
N4 V3 1.818999 1_565
N4 V2 1.819014 1_455
N5 V1 1.818980 1_445
N5 V0 1.819076 1_555
