# generated using pymatgen
data_TaCr3(CuS4)2
_symmetry_space_group_name_H-M   'P 1'
_cell_length_a   5.96839800
_cell_length_b   6.85567400
_cell_length_c   13.95910999
_cell_angle_alpha   61.42009716
_cell_angle_beta   90.00000000
_cell_angle_gamma   90.00000000
_symmetry_Int_Tables_number   1
_chemical_formula_structural   TaCr3(CuS4)2
_chemical_formula_sum   'Ta2 Cr6 Cu4 S16'
_cell_volume   501.57372591
_cell_formula_units_Z   2
loop_
 _symmetry_equiv_pos_site_id
 _symmetry_equiv_pos_as_xyz
  1  'x, y, z'
loop_
 _atom_site_type_symbol
 _atom_site_label
 _atom_site_symmetry_multiplicity
 _atom_site_fract_x
 _atom_site_fract_y
 _atom_site_fract_z
 _atom_site_occupancy
  Ta  Ta0  1  0.50000000  0.50000000  0.00000000  1
  Ta  Ta1  1  0.50000000  0.50000000  0.50000000  1
  Cr  Cr0  1  0.99608000  0.75300900  0.99575600  1
  Cr  Cr1  1  0.99608000  0.24699100  0.50424400  1
  Cr  Cr2  1  0.00392000  0.24699100  0.00424400  1
  Cr  Cr3  1  0.00392000  0.75300900  0.49575600  1
  Cr  Cr4  1  0.50000000  0.00000000  0.00000000  1
  Cr  Cr5  1  0.50000000  0.00000000  0.50000000  1
  Cu  Cu0  1  0.35251000  0.00000000  0.75000000  1
  Cu  Cu1  1  0.64749000  0.00000000  0.25000000  1
  Cu  Cu2  1  0.02942600  0.50000000  0.25000000  1
  Cu  Cu3  1  0.97057400  0.50000000  0.75000000  1
  S  S0  1  0.84007700  0.38655700  0.11625400  1
  S  S1  1  0.84007700  0.61344300  0.38374600  1
  S  S2  1  0.16982100  0.10474000  0.88848100  1
  S  S3  1  0.16982100  0.89526000  0.61151900  1
  S  S4  1  0.15992300  0.61344300  0.88374600  1
  S  S5  1  0.15992300  0.38655700  0.61625400  1
  S  S6  1  0.83017900  0.89526000  0.11151900  1
  S  S7  1  0.83017900  0.10474000  0.38848100  1
  S  S8  1  0.66043100  0.86892100  0.88572900  1
  S  S9  1  0.66043100  0.13107900  0.61427100  1
  S  S10  1  0.33956900  0.13107900  0.11427100  1
  S  S11  1  0.33956900  0.86892100  0.38572900  1
  S  S12  1  0.32284200  0.64519500  0.11124500  1
  S  S13  1  0.32284200  0.35480500  0.38875500  1
  S  S14  1  0.67715800  0.35480500  0.88875500  1
  S  S15  1  0.67715800  0.64519500  0.61124500  1
loop_
_geom_bond_atom_site_label_1
_geom_bond_atom_site_label_2
_geom_bond_distance
_geom_bond_site_symmetry_2
Cr0 S2 2.382749 1_665
Cr0 S4 2.397465 1_655
Cr0 S12 2.410116 1_656
Cr0 S8 2.415746 1_555
Cr0 S0 2.442265 1_556
Cr0 S6 2.459790 1_556
Cr1 S3 2.382749 1_645
Cr1 S5 2.397465 1_655
Cr1 S13 2.410116 1_655
Cr1 S9 2.415746 1_555
Cr1 S1 2.442265 1_555
Cr1 S7 2.459790 1_555
Cr2 S6 2.382749 1_445
Cr2 S0 2.397465 1_455
Cr2 S14 2.410116 1_454
Cr2 S10 2.415746 1_555
Cr2 S4 2.442265 1_554
Cr2 S2 2.459790 1_554
Cr3 S7 2.382749 1_465
Cr3 S1 2.397465 1_455
Cr3 S15 2.410116 1_455
Cr3 S11 2.415746 1_555
Cr3 S5 2.442265 1_555
Cr3 S3 2.459790 1_555
Cr4 S10 2.374922 1_555
Cr4 S8 2.374922 1_544
Cr4 S6 2.398516 1_545
Cr4 S2 2.398516 1_554
Cr4 S12 2.414987 1_545
Cr4 S14 2.414987 1_554
Cr5 S11 2.374922 1_545
Cr5 S9 2.374922 1_555
Cr5 S7 2.398516 1_555
Cr5 S3 2.398516 1_545
Cr5 S13 2.414987 1_555
Cr5 S15 2.414987 1_545
Cu0 S8 2.479064 1_545
Cu0 S9 2.479064 1_555
Cu0 S3 2.601793 1_545
Cu0 S2 2.601793 1_555
Cu0 S4 2.663848 1_545
Cu0 S5 2.663848 1_555
Cu1 S11 2.479064 1_545
Cu1 S10 2.479064 1_555
Cu1 S7 2.601793 1_555
Cu1 S6 2.601793 1_545
Cu1 S0 2.663848 1_555
Cu1 S1 2.663848 1_545
Cu2 S12 2.442240 1_555
Cu2 S13 2.442240 1_555
Cu2 S1 2.599391 1_455
Cu2 S0 2.599391 1_455
Cu2 S6 2.735338 1_455
Cu2 S7 2.735338 1_455
Cu3 S15 2.442240 1_555
Cu3 S14 2.442240 1_555
Cu3 S4 2.599391 1_655
Cu3 S5 2.599391 1_655
Cu3 S3 2.735338 1_655
Cu3 S2 2.735338 1_655
S0 Ta0 2.480031 1_555
S1 Ta1 2.480031 1_555
S4 Ta0 2.480031 1_556
S5 Ta1 2.480031 1_555
S8 Ta0 2.449111 1_556
S9 Ta1 2.449111 1_555
S10 Ta0 2.449111 1_555
S11 Ta1 2.449111 1_555
S12 Ta0 2.449325 1_555
S13 Ta1 2.449325 1_555
S14 Ta0 2.449325 1_556
S15 Ta1 2.449325 1_555
