# generated using pymatgen
data_Tm(MnSi)2
_symmetry_space_group_name_H-M   'P 1'
_cell_length_a   5.86923335
_cell_length_b   5.86923335
_cell_length_c   5.86923335
_cell_angle_alpha   141.76390549
_cell_angle_beta   141.76390549
_cell_angle_gamma   55.18459558
_symmetry_Int_Tables_number   1
_chemical_formula_structural   Tm(MnSi)2
_chemical_formula_sum   'Tm1 Mn2 Si2'
_cell_volume   76.88328360
_cell_formula_units_Z   1
loop_
 _symmetry_equiv_pos_site_id
 _symmetry_equiv_pos_as_xyz
  1  'x, y, z'
loop_
 _atom_site_type_symbol
 _atom_site_label
 _atom_site_symmetry_multiplicity
 _atom_site_fract_x
 _atom_site_fract_y
 _atom_site_fract_z
 _atom_site_occupancy
  Tm  Tm0  1  -0.00000000  -0.00000000  0.00000000  1
  Mn  Mn0  1  0.75000000  0.25000000  0.50000000  1
  Mn  Mn1  1  0.25000000  0.75000000  0.50000000  1
  Si  Si0  1  0.38385539  0.38385539  -0.00000000  1
  Si  Si1  1  0.61614461  0.61614461  0.00000000  1
loop_
_geom_bond_atom_site_label_1
_geom_bond_atom_site_label_2
_geom_bond_distance
_geom_bond_site_symmetry_2
Mn0 Si0 2.373669 1_656
Mn0 Si1 2.373669 1_556
Mn0 Si0 2.373669 1_555
Mn0 Si1 2.373669 1_545
Mn1 Si0 2.373669 1_566
Mn1 Si1 2.373669 1_455
Mn1 Si0 2.373669 1_555
Mn1 Si1 2.373669 1_556
Si0 Si1 2.416598 1_555
Si0 Tm0 2.974927 1_666
Si0 Tm0 2.974927 1_554
Si0 Tm0 2.974927 1_565
Si0 Tm0 2.974927 1_655
Si1 Tm0 2.974927 1_655
Si1 Tm0 2.974927 1_666
Si1 Tm0 2.974927 1_554
Si1 Tm0 2.974927 1_565
