# generated using pymatgen
data_Be4FeGe
_symmetry_space_group_name_H-M   'P 1'
_cell_length_a   4.22528546
_cell_length_b   4.22528546
_cell_length_c   4.22528546
_cell_angle_alpha   60.00000000
_cell_angle_beta   60.00000000
_cell_angle_gamma   60.00000000
_symmetry_Int_Tables_number   1
_chemical_formula_structural   Be4FeGe
_chemical_formula_sum   'Be4 Fe1 Ge1'
_cell_volume   53.34001914
_cell_formula_units_Z   1
loop_
 _symmetry_equiv_pos_site_id
 _symmetry_equiv_pos_as_xyz
  1  'x, y, z'
loop_
 _atom_site_type_symbol
 _atom_site_label
 _atom_site_symmetry_multiplicity
 _atom_site_fract_x
 _atom_site_fract_y
 _atom_site_fract_z
 _atom_site_occupancy
  Be  Be0  1  0.62385000  0.62385000  0.12845100  1
  Be  Be1  1  0.62385000  0.12845100  0.62385000  1
  Be  Be2  1  0.12845100  0.62385000  0.62385000  1
  Be  Be3  1  0.62385000  0.62385000  0.62385000  1
  Fe  Fe0  1  0.25000000  0.25000000  0.25000000  1
  Ge  Ge0  1  0.00000000  0.00000000  0.00000000  1
loop_
_geom_bond_atom_site_label_1
_geom_bond_atom_site_label_2
_geom_bond_distance
_geom_bond_site_symmetry_2
Be0 Be3 2.093202 1_555
Be0 Be1 2.093202 1_555
Be0 Be2 2.093202 1_555
Be0 Be2 2.132083 1_654
Be0 Be1 2.132083 1_564
Be0 Be3 2.132083 1_554
Be0 Fe0 2.475247 1_655
Be0 Fe0 2.475247 1_565
Be0 Fe0 2.475251 1_555
Be0 Ge0 2.479391 1_665
Be0 Ge0 2.479395 1_565
Be0 Ge0 2.479395 1_655
Be1 Be3 2.093202 1_555
Be1 Be2 2.093202 1_555
Be1 Be3 2.132083 1_545
Be1 Be2 2.132083 1_645
Be1 Fe0 2.475247 1_556
Be1 Fe0 2.475247 1_655
Be1 Fe0 2.475251 1_555
Be1 Ge0 2.479391 1_656
Be1 Ge0 2.479395 1_655
Be1 Ge0 2.479395 1_556
Be2 Be3 2.093202 1_555
Be2 Be3 2.132083 1_455
Be2 Fe0 2.475247 1_556
Be2 Fe0 2.475247 1_565
Be2 Fe0 2.475251 1_555
Be2 Ge0 2.479391 1_566
Be2 Ge0 2.479395 1_556
Be2 Ge0 2.479395 1_565
Be3 Fe0 2.475249 1_655
Be3 Fe0 2.475249 1_556
Be3 Fe0 2.475249 1_565
Be3 Ge0 2.479393 1_665
Be3 Ge0 2.479393 1_656
Be3 Ge0 2.479393 1_566
Fe0 Ge0 2.587448 1_555
Fe0 Ge0 2.587448 1_556
Fe0 Ge0 2.587448 1_565
Fe0 Ge0 2.587448 1_655
