# generated using pymatgen
data_Li6Zn3(PS4)4
_symmetry_space_group_name_H-M   'P 1'
_cell_length_a   9.32777907
_cell_length_b   11.59993643
_cell_length_c   23.15356960
_cell_angle_alpha   89.92955871
_cell_angle_beta   89.99981657
_cell_angle_gamma   89.99987923
_symmetry_Int_Tables_number   1
_chemical_formula_structural   Li6Zn3(PS4)4
_chemical_formula_sum   'Li24 Zn12 P16 S64'
_cell_volume   2505.25240881
_cell_formula_units_Z   4
loop_
 _symmetry_equiv_pos_site_id
 _symmetry_equiv_pos_as_xyz
  1  'x, y, z'
loop_
 _atom_site_type_symbol
 _atom_site_label
 _atom_site_symmetry_multiplicity
 _atom_site_fract_x
 _atom_site_fract_y
 _atom_site_fract_z
 _atom_site_occupancy
  Li  Li0  1  0.74910388  0.00517707  0.62588934  1
  Li  Li1  1  0.74876641  0.99712166  0.87480106  1
  Li  Li2  1  0.24877637  0.75286986  0.75019789  1
  Li  Li3  1  0.24910769  0.74483033  0.99910067  1
  Li  Li4  1  0.50167035  0.49924215  0.25037067  1
  Li  Li5  1  0.50053976  0.99989365  0.25023783  1
  Li  Li6  1  0.49802182  0.49879612  0.50033885  1
  Li  Li7  1  0.49922792  0.00133703  0.49909079  1
  Li  Li8  1  0.00053034  0.75009950  0.37476410  1
  Li  Li9  1  0.00167726  0.25076235  0.37462665  1
  Li  Li10  1  0.50586996  0.49789439  0.74964671  1
  Li  Li11  1  0.49395101  0.00288756  0.75011662  1
  Li  Li12  1  0.00087728  0.74854105  0.62396476  1
  Li  Li13  1  0.00262087  0.25161669  0.62560382  1
  Li  Li14  1  0.50260498  0.49838524  0.99939111  1
  Li  Li15  1  0.50087543  0.00146224  0.00103922  1
  Li  Li16  1  0.99396018  0.74713457  0.87488255  1
  Li  Li17  1  0.00585041  0.25209290  0.87535407  1
  Li  Li18  1  0.99921995  0.74865628  0.12591068  1
  Li  Li19  1  0.99800749  0.25120330  0.12467037  1
  Li  Li20  1  0.49632075  0.25153436  0.62536143  1
  Li  Li21  1  0.50484328  0.74824459  0.87545567  1
  Li  Li22  1  0.00482293  0.00177359  0.74954697  1
  Li  Li23  1  0.99633361  0.49846261  0.99963327  1
  Zn  Zn0  1  0.50046355  0.25097618  0.12416375  1
  Zn  Zn1  1  0.50511938  0.74741541  0.12598924  1
  Zn  Zn2  1  0.50029373  0.25019116  0.37517696  1
  Zn  Zn3  1  0.49884956  0.74959549  0.37479724  1
  Zn  Zn4  1  0.00026683  0.49981696  0.24983367  1
  Zn  Zn5  1  0.99888972  0.00039920  0.25019800  1
  Zn  Zn6  1  0.49792784  0.75000423  0.62370993  1
  Zn  Zn7  1  0.00046554  0.49902995  0.50082957  1
  Zn  Zn8  1  0.00510284  0.00258889  0.49899382  1
  Zn  Zn9  1  0.49538748  0.25239473  0.87510430  1
  Zn  Zn10  1  0.99540643  0.49759892  0.74989569  1
  Zn  Zn11  1  0.99792723  0.00000423  0.00129948  1
  P  P0  1  0.74999852  0.24980815  0.24995541  1
  P  P1  1  0.75018863  0.75005350  0.25017395  1
  P  P2  1  0.75299533  0.24589455  0.49977730  1
  P  P3  1  0.74721754  0.74977990  0.50007312  1
  P  P4  1  0.25000386  0.50018406  0.37504193  1
  P  P5  1  0.25018641  0.99994566  0.37482490  1
  P  P6  1  0.74989611  0.25326360  0.74819712  1
  P  P7  1  0.75013122  0.74697695  0.75143941  1
  P  P8  1  0.24675103  0.50099443  0.62345567  1
  P  P9  1  0.25285070  0.99468614  0.62645240  1
  P  P10  1  0.74677638  0.24900816  0.00155371  1
  P  P11  1  0.75288196  0.75530249  0.99854549  1
  P  P12  1  0.24987363  0.49669430  0.87679955  1
  P  P13  1  0.25011560  0.00306948  0.87356707  1
  P  P14  1  0.25295641  0.50412222  0.12523340  1
  P  P15  1  0.24721842  0.00020196  0.12491880  1
  S  S0  1  0.86383773  0.35513230  0.05171758  1
  S  S1  1  0.86908053  0.86147328  0.05347617  1
  S  S2  1  0.86456563  0.36128359  0.30192568  1
  S  S3  1  0.86478931  0.86133646  0.30219935  1
  S  S4  1  0.36957142  0.61163346  0.17850807  1
  S  S5  1  0.36563259  0.10938575  0.17609215  1
  S  S6  1  0.86506308  0.35892948  0.55195121  1
  S  S7  1  0.86853413  0.86170749  0.55153289  1
  S  S8  1  0.36465425  0.61142557  0.42707845  1
  S  S9  1  0.36370577  0.11151106  0.42686512  1
  S  S10  1  0.86880112  0.35716473  0.80249473  1
  S  S11  1  0.86951932  0.85814183  0.80143041  1
  S  S12  1  0.36744965  0.61193548  0.67700862  1
  S  S13  1  0.36564752  0.10447524  0.67677721  1
  S  S14  1  0.36834336  0.60793711  0.92707335  1
  S  S15  1  0.37087680  0.10713274  0.92708043  1
  S  S16  1  0.63581262  0.64618656  0.30606199  1
  S  S17  1  0.63517149  0.14596025  0.30574459  1
  S  S18  1  0.63629700  0.64519114  0.55616427  1
  S  S19  1  0.63224235  0.14461303  0.55392773  1
  S  S20  1  0.13628915  0.89521497  0.43046491  1
  S  S21  1  0.13511689  0.39654536  0.43077967  1
  S  S22  1  0.62844172  0.64575957  0.80231975  1
  S  S23  1  0.63183054  0.14677733  0.80541237  1
  S  S24  1  0.12747675  0.89057373  0.67813551  1
  S  S25  1  0.13540101  0.39806884  0.68073262  1
  S  S26  1  0.63360173  0.65039019  0.05354028  1
  S  S27  1  0.63030348  0.14254759  0.05544264  1
  S  S28  1  0.13074883  0.89593172  0.93013103  1
  S  S29  1  0.13120108  0.39559681  0.92871714  1
  S  S30  1  0.13451187  0.89562271  0.18057518  1
  S  S31  1  0.13571167  0.39897618  0.17986583  1
  S  S32  1  0.86463472  0.13856264  0.19790263  1
  S  S33  1  0.86371423  0.63849155  0.19812688  1
  S  S34  1  0.86957252  0.13836862  0.44646809  1
  S  S35  1  0.86560247  0.64056987  0.44889136  1
  S  S36  1  0.36460031  0.38871529  0.32308823  1
  S  S37  1  0.36480995  0.88868315  0.32281479  1
  S  S38  1  0.86834646  0.14203391  0.69790560  1
  S  S39  1  0.87086263  0.64285246  0.69791354  1
  S  S40  1  0.36381177  0.39487478  0.57329136  1
  S  S41  1  0.36908033  0.88852024  0.57153830  1
  S  S42  1  0.86743021  0.13805258  0.94799213  1
  S  S43  1  0.86569407  0.64553244  0.94820661  1
  S  S44  1  0.36880902  0.39283728  0.82250115  1
  S  S45  1  0.36950286  0.89188021  0.82357084  1
  S  S46  1  0.36507459  0.39110197  0.07305931  1
  S  S47  1  0.36852290  0.88828895  0.07345096  1
  S  S48  1  0.63509243  0.35342502  0.19422016  1
  S  S49  1  0.63629836  0.85475875  0.19454311  1
  S  S50  1  0.63570557  0.35101019  0.44515186  1
  S  S51  1  0.63447168  0.85432046  0.44443133  1
  S  S52  1  0.13519535  0.60406989  0.31925610  1
  S  S53  1  0.13581065  0.10383374  0.31894281  1
  S  S54  1  0.63119349  0.35436705  0.69629023  1
  S  S55  1  0.63076907  0.85411515  0.69486570  1
  S  S56  1  0.13029643  0.60749281  0.56955577  1
  S  S57  1  0.13355399  0.09960299  0.57144901  1
  S  S58  1  0.63538427  0.35191172  0.94427491  1
  S  S59  1  0.62750720  0.85941753  0.94687436  1
  S  S60  1  0.13180430  0.60322309  0.81958904  1
  S  S61  1  0.12843604  0.10429195  0.82268148  1
  S  S62  1  0.13220509  0.60539383  0.07106981  1
  S  S63  1  0.13625476  0.10482234  0.06885767  1
loop_
_geom_bond_atom_site_label_1
_geom_bond_atom_site_label_2
_geom_bond_distance
_geom_bond_site_symmetry_2
Li0 S38 2.558175 1_555
Li0 S19 2.563954 1_555
Li0 S55 2.613933 1_545
Li0 S7 2.642294 1_545
Li1 S59 2.570813 1_555
Li1 S11 2.600065 1_555
Li1 S42 2.603136 1_565
Li1 S23 2.603405 1_565
Li2 S24 2.570815 1_555
Li2 S45 2.600221 1_555
Li2 S12 2.603164 1_555
Li2 S60 2.603512 1_555
Li3 S14 2.558568 1_555
Li3 S62 2.564232 1_556
Li3 S28 2.614240 1_555
Li3 S47 2.642069 1_556
Li4 S4 2.445642 1_555
Li4 S48 2.470938 1_555
Li4 S36 2.471424 1_555
Li4 S16 2.477744 1_555
Li5 S37 2.466891 1_555
Li5 S17 2.470830 1_565
Li5 S49 2.471063 1_555
Li5 S5 2.477604 1_565
Li6 S40 2.422493 1_555
Li6 S8 2.475138 1_555
Li6 S18 2.494694 1_555
Li6 S50 2.495258 1_555
Li7 S19 2.432879 1_555
Li7 S41 2.448409 1_545
Li7 S9 2.454097 1_555
Li7 S51 2.471175 1_545
Li8 S3 2.466915 1_455
Li8 S52 2.470700 1_555
Li8 S20 2.470992 1_555
Li8 S35 2.477627 1_455
Li9 S34 2.445348 1_455
Li9 S21 2.470788 1_555
Li9 S2 2.471333 1_455
Li9 S53 2.477478 1_555
Li10 S54 2.381112 1_555
Li10 S22 2.396184 1_555
Li10 S44 2.441308 1_555
Li10 S12 2.498030 1_555
Li11 S13 2.387357 1_555
Li11 S45 2.427491 1_545
Li11 S23 2.466666 1_555
Li11 S55 2.499766 1_545
Li12 S24 2.384790 1_555
Li12 S56 2.392980 1_555
Li12 S39 2.429027 1_455
Li12 S7 2.460542 1_455
Li13 S38 2.445757 1_455
Li13 S25 2.460621 1_555
Li13 S6 2.469586 1_455
Li13 S57 2.485686 1_555
Li14 S14 2.445766 1_555
Li14 S58 2.460629 1_555
Li14 S46 2.469527 1_556
Li14 S26 2.485848 1_556
Li15 S59 2.384957 1_544
Li15 S27 2.393257 1_555
Li15 S15 2.429013 1_554
Li15 S47 2.460308 1_545
Li16 S43 2.387010 1_555
Li16 S11 2.427427 1_555
Li16 S60 2.466629 1_655
Li16 S28 2.499803 1_655
Li17 S29 2.381132 1_555
Li17 S61 2.395699 1_555
Li17 S10 2.441418 1_455
Li17 S42 2.498022 1_455
Li18 S62 2.432672 1_655
Li18 S1 2.448169 1_555
Li18 S33 2.453810 1_555
Li18 S30 2.471071 1_655
Li19 S0 2.422351 1_555
Li19 S32 2.474782 1_555
Li19 S63 2.494288 1_655
Li19 S31 2.495360 1_655
Li20 S54 2.389029 1_555
Li20 S40 2.396038 1_555
Li20 S13 2.409960 1_555
Li20 S19 2.426168 1_555
Li21 S22 2.369570 1_555
Li21 S14 2.386137 1_555
Li21 S59 2.389951 1_555
Li21 S45 2.409993 1_555
Li22 S61 2.369815 1_555
Li22 S38 2.385922 1_455
Li22 S24 2.389951 1_545
Li22 S11 2.409766 1_445
Li23 S29 2.388985 1_655
Li23 S0 2.396059 1_556
Li23 S43 2.410014 1_555
Li23 S62 2.426035 1_656
P0 S48 2.062760 1_555
P0 S17 2.064716 1_555
P0 S32 2.065182 1_555
P0 S2 2.065410 1_555
P1 S33 2.062064 1_555
P1 S49 2.063734 1_555
P1 S16 2.064098 1_555
P1 S3 2.064919 1_555
P2 S19 2.053607 1_555
P2 S34 2.065299 1_555
P2 S6 2.067652 1_555
P2 S50 2.068718 1_555
P3 S18 2.055521 1_555
P3 S35 2.057247 1_555
P3 S51 2.057293 1_555
P3 S7 2.095163 1_555
P4 S21 2.062849 1_555
P4 S52 2.064836 1_555
P4 S8 2.065009 1_555
P4 S36 2.065273 1_555
P5 S9 2.061974 1_565
P5 S20 2.064072 1_555
P5 S53 2.064156 1_565
P5 S37 2.064667 1_555
P6 S54 2.010557 1_555
P6 S38 2.060363 1_555
P6 S10 2.065676 1_555
P6 S23 2.118854 1_555
P7 S22 2.012811 1_555
P7 S11 2.060682 1_555
P7 S39 2.065591 1_555
P7 S55 2.120368 1_555
P8 S40 2.014979 1_555
P8 S25 2.063754 1_555
P8 S56 2.063921 1_555
P8 S12 2.113071 1_555
P9 S13 2.022444 1_565
P9 S24 2.062664 1_555
P9 S41 2.076653 1_555
P9 S57 2.082662 1_565
P10 S0 2.015015 1_555
P10 S27 2.063594 1_555
P10 S58 2.063833 1_554
P10 S42 2.113061 1_554
P11 S43 2.022560 1_555
P11 S59 2.062527 1_555
P11 S1 2.076778 1_556
P11 S26 2.082426 1_556
P12 S29 2.010509 1_555
P12 S14 2.060330 1_555
P12 S44 2.065533 1_555
P12 S60 2.119093 1_555
P13 S61 2.012865 1_555
P13 S45 2.060916 1_545
P13 S15 2.065160 1_555
P13 S28 2.120247 1_545
P14 S62 2.053721 1_555
P14 S4 2.064910 1_555
P14 S46 2.067778 1_555
P14 S31 2.068801 1_555
P15 S63 2.055503 1_555
P15 S5 2.057100 1_555
P15 S30 2.057580 1_545
P15 S47 2.095096 1_545
S1 Zn11 2.341242 1_565
S2 Zn4 2.373722 1_655
S3 Zn5 2.368899 1_565
S4 Zn1 2.356559 1_555
S5 Zn0 2.391670 1_555
S6 Zn7 2.373311 1_655
S7 Zn8 2.401737 1_665
S8 Zn3 2.365638 1_555
S9 Zn2 2.374574 1_555
S10 Zn10 2.350885 1_555
S12 Zn6 2.358894 1_555
S15 Zn9 2.373069 1_555
S16 Zn3 2.368225 1_555
S17 Zn2 2.373575 1_555
S18 Zn6 2.365288 1_555
S20 Zn8 2.360329 1_565
S21 Zn7 2.371942 1_555
S23 Zn9 2.393616 1_555
S25 Zn10 2.367932 1_455
S26 Zn1 2.349784 1_555
S27 Zn0 2.363346 1_555
S28 Zn11 2.390082 1_466
S30 Zn5 2.383475 1_465
S31 Zn4 2.365067 1_555
S32 Zn5 2.366049 1_555
S33 Zn4 2.374571 1_655
S34 Zn8 2.356537 1_655
S35 Zn7 2.391540 1_655
S36 Zn2 2.373572 1_555
S37 Zn3 2.368574 1_555
S39 Zn10 2.373222 1_555
S41 Zn6 2.341067 1_555
S42 Zn11 2.358929 1_556
S44 Zn9 2.350876 1_555
S46 Zn0 2.373247 1_555
S47 Zn1 2.401803 1_555
S48 Zn0 2.371734 1_555
S49 Zn1 2.360503 1_555
S50 Zn2 2.364898 1_555
S51 Zn3 2.383355 1_555
S52 Zn4 2.373808 1_555
S53 Zn5 2.368321 1_455
S55 Zn6 2.390208 1_555
S56 Zn7 2.363602 1_555
S57 Zn8 2.349684 1_555
S58 Zn9 2.367996 1_555
S60 Zn10 2.393463 1_455
S63 Zn11 2.365307 1_455
