# generated using pymatgen
data_Tm3C4
_symmetry_space_group_name_H-M   'P 1'
_cell_length_a   7.92543360
_cell_length_b   7.92543360
_cell_length_c   15.71969417
_cell_angle_alpha   90.00000000
_cell_angle_beta   90.00000000
_cell_angle_gamma   90.00000000
_symmetry_Int_Tables_number   1
_chemical_formula_structural   Tm3C4
_chemical_formula_sum   'Tm30 C40'
_cell_volume   987.39325465
_cell_formula_units_Z   10
loop_
 _symmetry_equiv_pos_site_id
 _symmetry_equiv_pos_as_xyz
  1  'x, y, z'
loop_
 _atom_site_type_symbol
 _atom_site_label
 _atom_site_symmetry_multiplicity
 _atom_site_fract_x
 _atom_site_fract_y
 _atom_site_fract_z
 _atom_site_occupancy
  Tm  Tm0  1  0.50000000  0.50000000  0.50000000  1
  Tm  Tm1  1  -0.00000000  -0.00000000  0.00000000  1
  Tm  Tm2  1  0.50000000  0.50000000  0.18724107  1
  Tm  Tm3  1  -0.00000000  -0.00000000  0.68724107  1
  Tm  Tm4  1  0.50000000  0.50000000  0.81275893  1
  Tm  Tm5  1  -0.00000000  -0.00000000  0.31275893  1
  Tm  Tm6  1  0.70249847  0.90431569  0.50000000  1
  Tm  Tm7  1  0.29750153  0.09568431  0.50000000  1
  Tm  Tm8  1  0.79750153  0.40431569  0.00000000  1
  Tm  Tm9  1  0.20249847  0.59568431  0.00000000  1
  Tm  Tm10  1  0.90431569  0.29750153  0.50000000  1
  Tm  Tm11  1  0.09568431  0.70249847  0.50000000  1
  Tm  Tm12  1  0.40431569  0.20249847  0.00000000  1
  Tm  Tm13  1  0.59568431  0.79750153  0.00000000  1
  Tm  Tm14  1  0.78800294  0.59992698  0.35422221  1
  Tm  Tm15  1  0.21199706  0.40007302  0.35422221  1
  Tm  Tm16  1  0.71199706  0.09992698  0.85422221  1
  Tm  Tm17  1  0.28800294  0.90007302  0.85422221  1
  Tm  Tm18  1  0.59992698  0.21199706  0.35422221  1
  Tm  Tm19  1  0.40007302  0.78800294  0.35422221  1
  Tm  Tm20  1  0.09992698  0.28800294  0.85422221  1
  Tm  Tm21  1  0.90007302  0.71199706  0.85422221  1
  Tm  Tm22  1  0.21199706  0.40007302  0.64577779  1
  Tm  Tm23  1  0.78800294  0.59992698  0.64577779  1
  Tm  Tm24  1  0.28800294  0.90007302  0.14577779  1
  Tm  Tm25  1  0.71199706  0.09992698  0.14577779  1
  Tm  Tm26  1  0.40007302  0.78800294  0.64577779  1
  Tm  Tm27  1  0.59992698  0.21199706  0.64577779  1
  Tm  Tm28  1  0.90007302  0.71199706  0.14577779  1
  Tm  Tm29  1  0.09992698  0.28800294  0.14577779  1
  C  C0  1  0.50000000  0.50000000  0.95855223  1
  C  C1  1  -0.00000000  -0.00000000  0.45855223  1
  C  C2  1  0.50000000  0.50000000  0.04144777  1
  C  C3  1  -0.00000000  -0.00000000  0.54144777  1
  C  C4  1  0.50000000  0.50000000  0.34277349  1
  C  C5  1  -0.00000000  -0.00000000  0.84277349  1
  C  C6  1  0.50000000  0.50000000  0.65722651  1
  C  C7  1  -0.00000000  -0.00000000  0.15722651  1
  C  C8  1  0.60618041  0.19595990  0.50000000  1
  C  C9  1  0.39381959  0.80404010  0.50000000  1
  C  C10  1  0.89381959  0.69595990  0.00000000  1
  C  C11  1  0.10618041  0.30404010  0.00000000  1
  C  C12  1  0.19595990  0.39381959  0.50000000  1
  C  C13  1  0.80404010  0.60618041  0.50000000  1
  C  C14  1  0.69595990  0.10618041  0.00000000  1
  C  C15  1  0.30404010  0.89381959  0.00000000  1
  C  C16  1  0.69346457  0.90187182  0.32830728  1
  C  C17  1  0.30653543  0.09812818  0.32830728  1
  C  C18  1  0.80653543  0.40187182  0.82830728  1
  C  C19  1  0.19346457  0.59812818  0.82830728  1
  C  C20  1  0.90187182  0.30653543  0.32830728  1
  C  C21  1  0.09812818  0.69346457  0.32830728  1
  C  C22  1  0.40187182  0.19346457  0.82830728  1
  C  C23  1  0.59812818  0.80653543  0.82830728  1
  C  C24  1  0.30653543  0.09812818  0.67169272  1
  C  C25  1  0.69346457  0.90187182  0.67169272  1
  C  C26  1  0.19346457  0.59812818  0.17169272  1
  C  C27  1  0.80653543  0.40187182  0.17169272  1
  C  C28  1  0.09812818  0.69346457  0.67169272  1
  C  C29  1  0.90187182  0.30653543  0.67169272  1
  C  C30  1  0.59812818  0.80653543  0.17169272  1
  C  C31  1  0.40187182  0.19346457  0.17169272  1
  C  C32  1  0.64984783  0.85015217  0.25000000  1
  C  C33  1  0.35015217  0.14984783  0.25000000  1
  C  C34  1  0.85015217  0.35015217  0.75000000  1
  C  C35  1  0.14984783  0.64984783  0.75000000  1
  C  C36  1  0.85015217  0.35015217  0.25000000  1
  C  C37  1  0.14984783  0.64984783  0.25000000  1
  C  C38  1  0.35015217  0.14984783  0.75000000  1
  C  C39  1  0.64984783  0.85015217  0.75000000  1
loop_
_geom_bond_atom_site_label_1
_geom_bond_atom_site_label_2
_geom_bond_distance
_geom_bond_site_symmetry_2
C0 C2 1.303093 1_556
C0 Tm4 2.291826 1_555
C0 Tm8 2.561044 1_556
C0 Tm12 2.561044 1_556
C0 Tm9 2.561044 1_556
C0 Tm13 2.561044 1_556
C1 C3 1.303093 1_555
C1 Tm5 2.291826 1_555
C1 Tm7 2.561044 1_555
C1 Tm11 2.561044 1_545
C1 Tm10 2.561044 1_455
C1 Tm6 2.561044 1_445
C2 Tm2 2.291826 1_555
C2 Tm13 2.561044 1_555
C2 Tm9 2.561044 1_555
C2 Tm8 2.561044 1_555
C2 Tm12 2.561044 1_555
C3 Tm3 2.291826 1_555
C3 Tm7 2.561044 1_555
C3 Tm11 2.561044 1_545
C3 Tm10 2.561044 1_455
C3 Tm6 2.561044 1_445
C4 Tm15 2.422731 1_555
C4 Tm18 2.422731 1_555
C4 Tm14 2.422731 1_555
C4 Tm19 2.422731 1_555
C4 Tm2 2.444922 1_555
C4 Tm0 2.471553 1_555
C5 Tm17 2.422731 1_545
C5 Tm20 2.422731 1_555
C5 Tm16 2.422731 1_455
C5 Tm21 2.422731 1_445
C5 Tm3 2.444922 1_555
C5 Tm1 2.471553 1_556
C6 Tm26 2.422731 1_555
C6 Tm22 2.422731 1_555
C6 Tm23 2.422731 1_555
C6 Tm27 2.422731 1_555
C6 Tm4 2.444922 1_555
C6 Tm0 2.471553 1_555
C7 Tm29 2.422731 1_555
C7 Tm24 2.422731 1_545
C7 Tm25 2.422731 1_455
C7 Tm28 2.422731 1_445
C7 Tm5 2.444922 1_555
C7 Tm1 2.471553 1_555
C8 Tm27 2.295639 1_555
C8 Tm18 2.295639 1_555
C8 Tm6 2.434199 1_545
C8 Tm10 2.496139 1_555
C8 Tm0 2.552367 1_555
C8 Tm7 2.572262 1_555
C9 Tm19 2.295639 1_555
C9 Tm26 2.295639 1_555
C9 Tm7 2.434199 1_565
C9 Tm11 2.496139 1_555
C9 Tm0 2.552367 1_555
C9 Tm6 2.572262 1_555
C10 Tm28 2.295639 1_555
C10 Tm21 2.295639 1_554
C10 Tm8 2.434199 1_555
C10 Tm13 2.496139 1_555
C10 Tm1 2.552367 1_665
C10 Tm9 2.572262 1_655
C11 Tm29 2.295639 1_555
C11 Tm20 2.295639 1_554
C11 Tm9 2.434199 1_555
C11 Tm12 2.496139 1_555
C11 Tm1 2.552367 1_555
C11 Tm8 2.572262 1_455
C12 Tm22 2.295639 1_555
C12 Tm15 2.295639 1_555
C12 Tm10 2.434199 1_455
C12 Tm7 2.496139 1_555
C12 Tm0 2.552367 1_555
C12 Tm11 2.572262 1_555
C13 Tm14 2.295639 1_555
C13 Tm23 2.295639 1_555
C13 Tm11 2.434199 1_655
C13 Tm6 2.496139 1_555
C13 Tm0 2.552367 1_555
C13 Tm10 2.572262 1_555
C14 Tm25 2.295639 1_555
C14 Tm16 2.295639 1_554
C14 Tm12 2.434199 1_555
C14 Tm8 2.496139 1_555
C14 Tm1 2.552367 1_655
C14 Tm13 2.572262 1_545
C15 Tm24 2.295639 1_555
C15 Tm17 2.295639 1_554
C15 Tm13 2.434199 1_555
C15 Tm9 2.496139 1_555
C15 Tm1 2.552367 1_565
C15 Tm12 2.572262 1_565
C16 C32 1.342681 1_555
C16 Tm19 2.527291 1_555
C16 Tm14 2.540472 1_555
C16 Tm5 2.562554 1_665
C16 Tm18 2.599361 1_565
C16 Tm6 2.699976 1_555
C17 C33 1.342681 1_555
C17 Tm18 2.527291 1_555
C17 Tm15 2.540472 1_555
C17 Tm5 2.562554 1_555
C17 Tm19 2.599361 1_545
C17 Tm7 2.699976 1_555
C18 C34 1.342681 1_555
C18 Tm20 2.527291 1_655
C18 Tm16 2.540472 1_555
C18 Tm4 2.562554 1_555
C18 Tm21 2.599361 1_555
C18 Tm8 2.699976 1_556
C19 C35 1.342681 1_555
C19 Tm21 2.527291 1_455
C19 Tm17 2.540472 1_555
C19 Tm4 2.562554 1_555
C19 Tm20 2.599361 1_555
C19 Tm9 2.699976 1_556
C20 C36 1.342681 1_555
C20 Tm14 2.527291 1_555
C20 Tm18 2.540472 1_555
C20 Tm5 2.562554 1_655
C20 Tm15 2.599361 1_655
C20 Tm10 2.699976 1_555
C21 C37 1.342681 1_555
C21 Tm15 2.527291 1_555
C21 Tm19 2.540472 1_555
C21 Tm5 2.562554 1_565
C21 Tm14 2.599361 1_455
C21 Tm11 2.699976 1_555
C22 C38 1.342681 1_555
C22 Tm17 2.527291 1_545
C22 Tm20 2.540472 1_555
C22 Tm4 2.562554 1_555
C22 Tm16 2.599361 1_555
C22 Tm12 2.699976 1_556
C23 C39 1.342681 1_555
C23 Tm16 2.527291 1_565
C23 Tm21 2.540472 1_555
C23 Tm4 2.562554 1_555
C23 Tm17 2.599361 1_555
C23 Tm13 2.699976 1_556
C24 C38 1.342681 1_555
C24 Tm27 2.527291 1_555
C24 Tm22 2.540472 1_555
C24 Tm3 2.562554 1_555
C24 Tm26 2.599361 1_545
C24 Tm7 2.699976 1_555
C25 C39 1.342681 1_555
C25 Tm26 2.527291 1_555
C25 Tm23 2.540472 1_555
C25 Tm3 2.562554 1_665
C25 Tm27 2.599361 1_565
C25 Tm6 2.699976 1_555
C26 C37 1.342681 1_555
C26 Tm28 2.527291 1_455
C26 Tm24 2.540472 1_555
C26 Tm2 2.562554 1_555
C26 Tm29 2.599361 1_555
C26 Tm9 2.699976 1_555
C27 C36 1.342681 1_555
C27 Tm29 2.527291 1_655
C27 Tm25 2.540472 1_555
C27 Tm2 2.562554 1_555
C27 Tm28 2.599361 1_555
C27 Tm8 2.699976 1_555
C28 C35 1.342681 1_555
C28 Tm22 2.527291 1_555
C28 Tm26 2.540472 1_555
C28 Tm3 2.562554 1_565
C28 Tm23 2.599361 1_455
C28 Tm11 2.699976 1_555
C29 C34 1.342681 1_555
C29 Tm23 2.527291 1_555
C29 Tm27 2.540472 1_555
C29 Tm3 2.562554 1_655
C29 Tm22 2.599361 1_655
C29 Tm10 2.699976 1_555
C30 C32 1.342681 1_555
C30 Tm25 2.527291 1_565
C30 Tm28 2.540472 1_555
C30 Tm2 2.562554 1_555
C30 Tm24 2.599361 1_555
C30 Tm13 2.699976 1_555
C31 C33 1.342681 1_555
C31 Tm24 2.527291 1_545
C31 Tm29 2.540472 1_555
C31 Tm2 2.562554 1_555
C31 Tm25 2.599361 1_555
C31 Tm12 2.699976 1_555
C32 Tm19 2.616389 1_555
C32 Tm25 2.616389 1_565
C32 Tm14 2.795695 1_555
C32 Tm28 2.795695 1_555
C33 Tm18 2.616389 1_555
C33 Tm24 2.616389 1_545
C33 Tm15 2.795695 1_555
C33 Tm29 2.795695 1_555
C34 Tm23 2.616389 1_555
C34 Tm20 2.616389 1_655
C34 Tm27 2.795695 1_555
C34 Tm16 2.795695 1_555
C35 Tm22 2.616389 1_555
C35 Tm21 2.616389 1_455
C35 Tm17 2.795695 1_555
C35 Tm26 2.795695 1_555
C36 Tm14 2.616389 1_555
C36 Tm29 2.616389 1_655
C36 Tm18 2.795695 1_555
C36 Tm25 2.795695 1_555
C37 Tm15 2.616389 1_555
C37 Tm28 2.616389 1_455
C37 Tm24 2.795695 1_555
C37 Tm19 2.795695 1_555
C38 Tm27 2.616389 1_555
C38 Tm17 2.616389 1_545
C38 Tm20 2.795695 1_555
C38 Tm22 2.795695 1_555
C39 Tm26 2.616389 1_555
C39 Tm16 2.616389 1_565
C39 Tm23 2.795695 1_555
C39 Tm21 2.795695 1_555
