# generated using pymatgen
data_Tm6Al43V4
_symmetry_space_group_name_H-M   'P 1'
_cell_length_a   10.96773737
_cell_length_b   10.96773737
_cell_length_c   17.49252500
_cell_angle_alpha   90.00000000
_cell_angle_beta   90.00000000
_cell_angle_gamma   119.99999619
_symmetry_Int_Tables_number   1
_chemical_formula_structural   Tm6Al43V4
_chemical_formula_sum   'Tm12 Al86 V8'
_cell_volume   1822.28892746
_cell_formula_units_Z   2
loop_
 _symmetry_equiv_pos_site_id
 _symmetry_equiv_pos_as_xyz
  1  'x, y, z'
loop_
 _atom_site_type_symbol
 _atom_site_label
 _atom_site_symmetry_multiplicity
 _atom_site_fract_x
 _atom_site_fract_y
 _atom_site_fract_z
 _atom_site_occupancy
  Tm  Tm0  1  0.53089500  0.00000000  0.59608100  1
  Tm  Tm1  1  0.46910500  0.00000000  0.40391900  1
  Tm  Tm2  1  0.00000000  0.53089500  0.59608100  1
  Tm  Tm3  1  0.46910500  0.00000000  0.09608100  1
  Tm  Tm4  1  0.00000000  0.53089500  0.90391900  1
  Tm  Tm5  1  0.00000000  0.46910500  0.40391900  1
  Tm  Tm6  1  0.53089500  0.00000000  0.90391900  1
  Tm  Tm7  1  0.00000000  0.46910500  0.09608100  1
  Tm  Tm8  1  0.46910500  0.46910500  0.59608100  1
  Tm  Tm9  1  0.53089500  0.53089500  0.40391900  1
  Tm  Tm10  1  0.53089500  0.53089500  0.09608100  1
  Tm  Tm11  1  0.46910500  0.46910500  0.90391900  1
  Al  Al0  1  0.14632200  0.59810000  0.75000000  1
  Al  Al1  1  0.85367800  0.40190000  0.25000000  1
  Al  Al2  1  0.40190000  0.54822300  0.75000000  1
  Al  Al3  1  0.59810000  0.14632200  0.75000000  1
  Al  Al4  1  0.59810000  0.45177700  0.25000000  1
  Al  Al5  1  0.40190000  0.85367800  0.25000000  1
  Al  Al6  1  0.45177700  0.85367800  0.75000000  1
  Al  Al7  1  0.54822300  0.40190000  0.75000000  1
  Al  Al8  1  0.54822300  0.14632200  0.25000000  1
  Al  Al9  1  0.45177700  0.59810000  0.25000000  1
  Al  Al10  1  0.85367800  0.45177700  0.75000000  1
  Al  Al11  1  0.14632200  0.54822300  0.25000000  1
  Al  Al12  1  0.15603000  0.00000000  0.11549200  1
  Al  Al13  1  0.84397000  0.00000000  0.88450800  1
  Al  Al14  1  0.00000000  0.15603000  0.11549200  1
  Al  Al15  1  0.84397000  0.00000000  0.61549200  1
  Al  Al16  1  0.00000000  0.15603000  0.38450800  1
  Al  Al17  1  0.00000000  0.84397000  0.88450800  1
  Al  Al18  1  0.15603000  0.00000000  0.38450800  1
  Al  Al19  1  0.00000000  0.84397000  0.61549200  1
  Al  Al20  1  0.84397000  0.84397000  0.11549200  1
  Al  Al21  1  0.15603000  0.15603000  0.88450800  1
  Al  Al22  1  0.15603000  0.15603000  0.61549200  1
  Al  Al23  1  0.84397000  0.84397000  0.38450800  1
  Al  Al24  1  0.24688400  0.49376700  0.50000000  1
  Al  Al25  1  0.75311600  0.50623300  0.50000000  1
  Al  Al26  1  0.50623300  0.75311600  0.50000000  1
  Al  Al27  1  0.75311600  0.50623300  0.00000000  1
  Al  Al28  1  0.49376700  0.24688400  0.00000000  1
  Al  Al29  1  0.49376700  0.24688400  0.50000000  1
  Al  Al30  1  0.24688400  0.49376700  0.00000000  1
  Al  Al31  1  0.50623300  0.75311600  0.00000000  1
  Al  Al32  1  0.24688400  0.75311600  0.50000000  1
  Al  Al33  1  0.75311600  0.24688400  0.50000000  1
  Al  Al34  1  0.75311600  0.24688400  0.00000000  1
  Al  Al35  1  0.24688400  0.75311600  0.00000000  1
  Al  Al36  1  0.14562400  0.00000000  0.75000000  1
  Al  Al37  1  0.85437600  0.00000000  0.25000000  1
  Al  Al38  1  0.00000000  0.14562400  0.75000000  1
  Al  Al39  1  0.00000000  0.85437600  0.25000000  1
  Al  Al40  1  0.85437600  0.85437600  0.75000000  1
  Al  Al41  1  0.14562400  0.14562400  0.25000000  1
  Al  Al42  1  0.33333300  0.66666700  0.62717400  1
  Al  Al43  1  0.66666700  0.33333300  0.37282600  1
  Al  Al44  1  0.66666700  0.33333300  0.12717400  1
  Al  Al45  1  0.66666700  0.33333300  0.87282600  1
  Al  Al46  1  0.33333300  0.66666700  0.87282600  1
  Al  Al47  1  0.33333300  0.66666700  0.12717400  1
  Al  Al48  1  0.33333300  0.66666700  0.37282600  1
  Al  Al49  1  0.66666700  0.33333300  0.62717400  1
  Al  Al50  1  0.25354300  0.00000000  0.53001300  1
  Al  Al51  1  0.74645700  0.00000000  0.46998700  1
  Al  Al52  1  0.00000000  0.25354300  0.53001300  1
  Al  Al53  1  0.74645700  0.00000000  0.03001300  1
  Al  Al54  1  0.00000000  0.25354300  0.96998700  1
  Al  Al55  1  0.00000000  0.74645700  0.46998700  1
  Al  Al56  1  0.25354300  0.00000000  0.96998700  1
  Al  Al57  1  0.00000000  0.74645700  0.03001300  1
  Al  Al58  1  0.74645700  0.74645700  0.53001300  1
  Al  Al59  1  0.25354300  0.25354300  0.46998700  1
  Al  Al60  1  0.25354300  0.25354300  0.03001300  1
  Al  Al61  1  0.74645700  0.74645700  0.96998700  1
  Al  Al62  1  0.15774000  0.39201800  0.66513900  1
  Al  Al63  1  0.84226000  0.60798200  0.33486100  1
  Al  Al64  1  0.60798200  0.76572200  0.66513900  1
  Al  Al65  1  0.84226000  0.60798200  0.16513900  1
  Al  Al66  1  0.39201800  0.15774000  0.83486100  1
  Al  Al67  1  0.39201800  0.23427800  0.33486100  1
  Al  Al68  1  0.15774000  0.39201800  0.83486100  1
  Al  Al69  1  0.60798200  0.84226000  0.16513900  1
  Al  Al70  1  0.23427800  0.84226000  0.66513900  1
  Al  Al71  1  0.39201800  0.23427800  0.16513900  1
  Al  Al72  1  0.76572200  0.60798200  0.83486100  1
  Al  Al73  1  0.76572200  0.15774000  0.33486100  1
  Al  Al74  1  0.60798200  0.76572200  0.83486100  1
  Al  Al75  1  0.23427800  0.39201800  0.16513900  1
  Al  Al76  1  0.60798200  0.84226000  0.33486100  1
  Al  Al77  1  0.39201800  0.15774000  0.66513900  1
  Al  Al78  1  0.76572200  0.15774000  0.16513900  1
  Al  Al79  1  0.23427800  0.39201800  0.33486100  1
  Al  Al80  1  0.23427800  0.84226000  0.83486100  1
  Al  Al81  1  0.76572200  0.60798200  0.66513900  1
  Al  Al82  1  0.84226000  0.23427800  0.83486100  1
  Al  Al83  1  0.15774000  0.76572200  0.16513900  1
  Al  Al84  1  0.15774000  0.76572200  0.33486100  1
  Al  Al85  1  0.84226000  0.23427800  0.66513900  1
  V  V0  1  0.00000000  0.00000000  0.50000000  1
  V  V1  1  0.00000000  0.00000000  0.00000000  1
  V  V2  1  0.72964000  0.00000000  0.75000000  1
  V  V3  1  0.27036000  0.00000000  0.25000000  1
  V  V4  1  0.00000000  0.72964000  0.75000000  1
  V  V5  1  0.00000000  0.27036000  0.25000000  1
  V  V6  1  0.27036000  0.27036000  0.75000000  1
  V  V7  1  0.72964000  0.72964000  0.25000000  1
loop_
_geom_bond_atom_site_label_1
_geom_bond_atom_site_label_2
_geom_bond_distance
_geom_bond_site_symmetry_2
Tm0 Tm1 3.429034 1_555
Tm0 V2 3.464195 1_555
Tm1 V3 3.464195 1_555
Tm2 Tm5 3.429034 1_555
Tm2 V4 3.464195 1_555
Tm3 Tm6 3.429034 1_554
Tm3 V3 3.464195 1_555
Tm4 Tm7 3.429034 1_556
Tm4 V4 3.464195 1_555
Tm5 V5 3.464195 1_555
Tm6 V2 3.464195 1_555
Tm7 V5 3.464195 1_555
Tm8 Tm9 3.429034 1_555
Tm8 V6 3.464195 1_555
Tm9 V7 3.464195 1_555
Tm10 Tm11 3.429034 1_554
Tm10 V7 3.464195 1_555
Tm11 V6 3.464195 1_555
Al0 V4 2.640472 1_555
Al0 Al68 2.758808 1_555
Al0 Al62 2.758808 1_555
Al0 Al80 2.778832 1_555
Al0 Al70 2.778832 1_555
Al0 Al10 2.779632 1_455
Al0 Al42 2.801115 1_555
Al0 Al46 2.801115 1_555
Al0 Tm4 3.030684 1_555
Al0 Tm2 3.030684 1_555
Al1 V5 2.640472 1_655
Al1 Al63 2.758808 1_555
Al1 Al65 2.758808 1_555
Al1 Al73 2.778832 1_555
Al1 Al78 2.778832 1_555
Al1 Al11 2.779632 1_655
Al1 Al43 2.801115 1_555
Al1 Al44 2.801115 1_555
Al1 Tm5 3.030684 1_655
Al1 Tm7 3.030684 1_655
Al2 V6 2.640482 1_555
Al2 Al74 2.758803 1_555
Al2 Al64 2.758803 1_555
Al2 Al68 2.778833 1_555
Al2 Al62 2.778833 1_555
Al2 Al7 2.779651 1_555
Al2 Al46 2.801115 1_555
Al2 Al42 2.801115 1_555
Al2 Tm11 3.030688 1_555
Al2 Tm8 3.030688 1_555
Al3 V2 2.640472 1_555
Al3 Al66 2.758808 1_555
Al3 Al77 2.758808 1_555
Al3 Al82 2.778832 1_555
Al3 Al85 2.778832 1_555
Al3 Al6 2.779632 1_545
Al3 Al45 2.801115 1_555
Al3 Al49 2.801115 1_555
Al3 Tm6 3.030684 1_555
Al3 Tm0 3.030684 1_555
Al4 V7 2.640482 1_555
Al4 Al67 2.758803 1_555
Al4 Al71 2.758803 1_555
Al4 Al63 2.778833 1_555
Al4 Al65 2.778833 1_555
Al4 Al9 2.779651 1_555
Al4 Al43 2.801115 1_555
Al4 Al44 2.801115 1_555
Al4 Tm9 3.030688 1_555
Al4 Tm10 3.030688 1_555
Al5 V3 2.640472 1_565
Al5 Al76 2.758808 1_555
Al5 Al69 2.758808 1_555
Al5 Al84 2.778832 1_555
Al5 Al83 2.778832 1_555
Al5 Al8 2.779632 1_565
Al5 Tm1 3.030684 1_565
Al5 Tm3 3.030684 1_565
Al6 V2 2.640482 1_565
Al6 Al80 2.758798 1_555
Al6 Al70 2.758798 1_555
Al6 Al74 2.778841 1_555
Al6 Al64 2.778841 1_555
Al6 Tm6 3.030684 1_565
Al6 Tm0 3.030684 1_565
Al7 V6 2.640482 1_555
Al7 Al72 2.758803 1_555
Al7 Al81 2.758803 1_555
Al7 Al77 2.778833 1_555
Al7 Tm11 3.030688 1_555
Al7 Tm8 3.030688 1_555
Al8 V3 2.640482 1_555
Al8 Tm1 3.030684 1_555
Al8 Tm3 3.030684 1_555
Al9 V7 2.640482 1_555
Al9 Tm9 3.030688 1_555
Al9 Tm10 3.030688 1_555
Al10 V4 2.640482 1_655
Al10 Al82 2.758798 1_555
Al10 Al85 2.758798 1_555
Al10 Al72 2.778841 1_555
Al10 Al81 2.778841 1_555
Al10 Al49 2.801115 1_555
Al10 Al45 2.801115 1_555
Al10 Tm4 3.030684 1_655
Al10 Tm2 3.030684 1_655
Al11 V5 2.640482 1_555
Al11 Al84 2.758798 1_555
Al11 Al83 2.758798 1_555
Al11 Al79 2.778841 1_555
Al11 Al75 2.778841 1_555
Al11 Al48 2.801115 1_555
Al11 Al47 2.801115 1_555
Al11 Tm5 3.030684 1_555
Al11 Tm7 3.030684 1_555
Al12 V1 2.647627 1_555
Al12 V3 2.666165 1_555
Al12 Al83 2.721227 1_545
Al12 Al71 2.721227 1_555
Al12 Al56 2.760819 1_554
Al12 Al60 2.852777 1_555
Al12 Al57 2.852777 1_545
Al12 Al41 2.877901 1_555
Al12 Al39 2.877901 1_545
Al12 Al14 2.964052 1_555
Al12 Al20 2.964052 1_445
Al12 Tm3 3.450472 1_555
Al13 V1 2.647627 1_656
Al13 V2 2.666165 1_555
Al13 Al82 2.721227 1_555
Al13 Al74 2.721227 1_545
Al13 Al53 2.760819 1_556
Al13 Al61 2.852777 1_545
Al13 Al54 2.852777 1_655
Al13 Al40 2.877901 1_545
Al13 Al38 2.877901 1_655
Al13 Al17 2.964052 1_645
Al13 Al21 2.964052 1_655
Al13 Tm6 3.450472 1_555
Al14 V1 2.647627 1_555
Al14 V5 2.666165 1_555
Al14 Al78 2.721227 1_455
Al14 Al75 2.721227 1_555
Al14 Al54 2.760819 1_554
Al14 Al60 2.852777 1_555
Al14 Al53 2.852777 1_455
Al14 Al41 2.877901 1_555
Al14 Al37 2.877901 1_455
Al14 Al20 2.964052 1_445
Al14 Tm7 3.450472 1_555
Al15 V0 2.647627 1_655
Al15 V2 2.666165 1_555
Al15 Al85 2.721227 1_555
Al15 Al64 2.721227 1_545
Al15 Al51 2.760819 1_555
Al15 Al58 2.852777 1_545
Al15 Al52 2.852777 1_655
Al15 Al40 2.877901 1_545
Al15 Al38 2.877901 1_655
Al15 Al19 2.964052 1_645
Al15 Al22 2.964052 1_655
Al15 Tm0 3.450472 1_555
Al16 V0 2.647627 1_555
Al16 V5 2.666165 1_555
Al16 Al73 2.721227 1_455
Al16 Al79 2.721227 1_555
Al16 Al52 2.760819 1_555
Al16 Al59 2.852777 1_555
Al16 Al51 2.852777 1_455
Al16 Al41 2.877901 1_555
Al16 Al37 2.877901 1_455
Al16 Al18 2.964052 1_555
Al16 Al23 2.964052 1_445
Al16 Tm5 3.450472 1_555
Al17 V1 2.647627 1_566
Al17 V4 2.666165 1_555
Al17 Al80 2.721227 1_555
Al17 Al72 2.721227 1_455
Al17 Al57 2.760819 1_556
Al17 Al61 2.852777 1_455
Al17 Al56 2.852777 1_565
Al17 Al40 2.877901 1_455
Al17 Al36 2.877901 1_565
Al17 Al21 2.964052 1_565
Al17 Tm4 3.450472 1_555
Al18 V0 2.647627 1_555
Al18 V3 2.666165 1_555
Al18 Al84 2.721227 1_545
Al18 Al67 2.721227 1_555
Al18 Al50 2.760819 1_555
Al18 Al59 2.852777 1_555
Al18 Al55 2.852777 1_545
Al18 Al41 2.877901 1_555
Al18 Al39 2.877901 1_545
Al18 Al23 2.964052 1_445
Al18 Tm1 3.450472 1_555
Al19 V0 2.647627 1_565
Al19 V4 2.666165 1_555
Al19 Al70 2.721227 1_555
Al19 Al81 2.721227 1_455
Al19 Al55 2.760819 1_555
Al19 Al58 2.852777 1_455
Al19 Al50 2.852777 1_565
Al19 Al40 2.877901 1_455
Al19 Al36 2.877901 1_565
Al19 Al22 2.964052 1_565
Al19 Tm2 3.450472 1_555
Al20 V1 2.647627 1_665
Al20 V7 2.666165 1_555
Al20 Al65 2.721227 1_555
Al20 Al69 2.721227 1_555
Al20 Al61 2.760819 1_554
Al20 Al53 2.852777 1_565
Al20 Al57 2.852777 1_655
Al20 Al39 2.877901 1_655
Al20 Al37 2.877901 1_565
Al20 Tm10 3.450472 1_555
Al21 V1 2.647627 1_556
Al21 V6 2.666165 1_555
Al21 Al68 2.721227 1_555
Al21 Al66 2.721227 1_555
Al21 Al60 2.760819 1_556
Al21 Al54 2.852777 1_555
Al21 Al56 2.852777 1_555
Al21 Al38 2.877901 1_555
Al21 Al36 2.877901 1_555
Al21 Tm11 3.450472 1_555
Al22 V0 2.647627 1_555
Al22 V6 2.666165 1_555
Al22 Al62 2.721227 1_555
Al22 Al77 2.721227 1_555
Al22 Al59 2.760819 1_555
Al22 Al52 2.852777 1_555
Al22 Al50 2.852777 1_555
Al22 Al36 2.877901 1_555
Al22 Al38 2.877901 1_555
Al22 Tm8 3.450472 1_555
Al23 V0 2.647627 1_665
Al23 V7 2.666165 1_555
Al23 Al76 2.721227 1_555
Al23 Al63 2.721227 1_555
Al23 Al58 2.760819 1_555
Al23 Al51 2.852777 1_565
Al23 Al55 2.852777 1_655
Al23 Al39 2.877901 1_655
Al23 Al37 2.877901 1_565
Al23 Tm9 3.450472 1_555
Al24 Al59 2.723069 1_555
Al24 Al52 2.723074 1_555
Al24 Al42 2.765113 1_555
Al24 Al48 2.765113 1_555
Al24 Al32 2.844472 1_555
Al24 Al26 2.844472 1_555
Al24 Al79 3.074859 1_555
Al24 Al62 3.074861 1_555
Al24 Tm8 3.081786 1_555
Al24 Tm5 3.081795 1_555
Al24 Tm9 3.380102 1_555
Al24 Tm2 3.380112 1_555
Al25 Al58 2.723069 1_555
Al25 Al55 2.723074 1_655
Al25 Al49 2.765113 1_555
Al25 Al43 2.765113 1_555
Al25 Al33 2.844472 1_555
Al25 Al29 2.844472 1_555
Al25 Al81 3.074859 1_555
Al25 Al63 3.074861 1_555
Al25 Tm9 3.081786 1_555
Al25 Tm2 3.081795 1_655
Al25 Tm8 3.380102 1_555
Al25 Tm5 3.380112 1_655
Al26 Al58 2.723069 1_555
Al26 Al51 2.723074 1_565
Al26 Al42 2.765113 1_555
Al26 Al48 2.765113 1_555
Al26 Al32 2.844472 1_555
Al26 Al64 3.074859 1_555
Al26 Al76 3.074861 1_555
Al26 Tm9 3.081786 1_555
Al26 Tm0 3.081795 1_565
Al26 Tm8 3.380102 1_555
Al26 Tm1 3.380112 1_565
Al27 Al61 2.723069 1_554
Al27 Al57 2.723074 1_655
Al27 Al44 2.765113 1_555
Al27 Al45 2.765113 1_554
Al27 Al34 2.844472 1_555
Al27 Al28 2.844472 1_555
Al27 Al72 3.074859 1_554
Al27 Al65 3.074861 1_555
Al27 Tm10 3.081786 1_555
Al27 Tm4 3.081795 1_654
Al27 Tm11 3.380102 1_554
Al27 Tm7 3.380112 1_655
Al28 Al60 2.723069 1_555
Al28 Al56 2.723074 1_554
Al28 Al44 2.765113 1_555
Al28 Al45 2.765113 1_554
Al28 Al34 2.844472 1_555
Al28 Al71 3.074859 1_555
Al28 Al66 3.074861 1_554
Al28 Tm11 3.081786 1_554
Al28 Tm3 3.081795 1_555
Al28 Tm10 3.380102 1_555
Al28 Tm6 3.380112 1_554
Al29 Al59 2.723069 1_555
Al29 Al50 2.723074 1_555
Al29 Al49 2.765113 1_555
Al29 Al43 2.765113 1_555
Al29 Al33 2.844472 1_555
Al29 Al67 3.074859 1_555
Al29 Al77 3.074861 1_555
Al29 Tm8 3.081786 1_555
Al29 Tm1 3.081795 1_555
Al29 Tm9 3.380102 1_555
Al29 Tm0 3.380112 1_555
Al30 Al60 2.723069 1_555
Al30 Al54 2.723074 1_554
Al30 Al47 2.765113 1_555
Al30 Al46 2.765113 1_554
Al30 Al35 2.844472 1_555
Al30 Al31 2.844472 1_555
Al30 Al75 3.074859 1_555
Al30 Al68 3.074861 1_554
Al30 Tm11 3.081786 1_554
Al30 Tm7 3.081795 1_555
Al30 Tm10 3.380102 1_555
Al30 Tm4 3.380112 1_554
Al31 Al61 2.723069 1_554
Al31 Al53 2.723074 1_565
Al31 Al47 2.765113 1_555
Al31 Al46 2.765113 1_554
Al31 Al35 2.844472 1_555
Al31 Al74 3.074859 1_554
Al31 Al69 3.074861 1_555
Al31 Tm10 3.081786 1_555
Al31 Tm6 3.081795 1_564
Al31 Tm11 3.380102 1_554
Al31 Tm3 3.380112 1_565
Al32 Al55 2.723079 1_555
Al32 Al50 2.723079 1_565
Al32 Al42 2.765101 1_555
Al32 Al48 2.765101 1_555
Al32 Al70 3.074863 1_555
Al32 Al84 3.074863 1_555
Al32 Tm2 3.081791 1_555
Al32 Tm1 3.081791 1_565
Al32 Tm0 3.380106 1_565
Al32 Tm5 3.380106 1_555
Al33 Al51 2.723079 1_555
Al33 Al52 2.723079 1_655
Al33 Al49 2.765101 1_555
Al33 Al43 2.765101 1_555
Al33 Al85 3.074863 1_555
Al33 Al73 3.074863 1_555
Al33 Tm0 3.081791 1_555
Al33 Tm5 3.081791 1_655
Al33 Tm2 3.380106 1_655
Al33 Tm1 3.380106 1_555
Al34 Al53 2.723079 1_555
Al34 Al54 2.723079 1_654
Al34 Al44 2.765101 1_555
Al34 Al45 2.765101 1_554
Al34 Al78 3.074863 1_555
Al34 Al82 3.074863 1_554
Al34 Tm7 3.081791 1_655
Al34 Tm6 3.081791 1_554
Al34 Tm3 3.380106 1_555
Al34 Tm4 3.380106 1_654
Al35 Al57 2.723079 1_555
Al35 Al56 2.723079 1_564
Al35 Al47 2.765101 1_555
Al35 Al46 2.765101 1_554
Al35 Al83 3.074863 1_555
Al35 Al80 3.074863 1_554
Al35 Tm3 3.081791 1_565
Al35 Tm4 3.081791 1_554
Al35 Tm7 3.380106 1_555
Al35 Tm6 3.380106 1_564
Al36 V6 2.570525 1_555
Al36 V4 2.570525 1_545
Al36 Al38 2.766372 1_555
Al36 Al40 2.766372 1_445
Al36 Al80 2.797184 1_545
Al36 Al70 2.797184 1_545
Al36 Al66 2.797184 1_555
Al36 Al77 2.797184 1_555
Al37 V7 2.570525 1_545
Al37 V5 2.570525 1_655
Al37 Al39 2.766372 1_645
Al37 Al41 2.766372 1_655
Al37 Al73 2.797184 1_555
Al37 Al78 2.797184 1_555
Al37 Al76 2.797184 1_545
Al37 Al69 2.797184 1_545
Al38 V6 2.570525 1_555
Al38 V2 2.570525 1_455
Al38 Al40 2.766372 1_445
Al38 Al82 2.797184 1_455
Al38 Al85 2.797184 1_455
Al38 Al68 2.797184 1_555
Al38 Al62 2.797184 1_555
Al39 V7 2.570525 1_455
Al39 V3 2.570525 1_565
Al39 Al41 2.766372 1_565
Al39 Al84 2.797184 1_555
Al39 Al83 2.797184 1_555
Al39 Al63 2.797184 1_455
Al39 Al65 2.797184 1_455
Al40 V4 2.570524 1_655
Al40 V2 2.570524 1_565
Al40 Al74 2.797184 1_555
Al40 Al72 2.797184 1_555
Al40 Al81 2.797184 1_555
Al40 Al64 2.797184 1_555
Al41 V5 2.570524 1_555
Al41 V3 2.570524 1_555
Al41 Al79 2.797184 1_555
Al41 Al67 2.797184 1_555
Al41 Al71 2.797184 1_555
Al41 Al75 2.797184 1_555
Al42 Al70 2.724430 1_555
Al42 Al62 2.724438 1_555
Al42 Al64 2.724440 1_555
Al42 Al6 2.801115 1_555
Al42 Tm2 3.230308 1_555
Al42 Tm0 3.230309 1_565
Al42 Tm8 3.230318 1_555
Al43 Al73 2.724430 1_555
Al43 Al63 2.724438 1_555
Al43 Al67 2.724440 1_555
Al43 Al8 2.801115 1_555
Al43 Tm5 3.230308 1_655
Al43 Tm1 3.230309 1_555
Al43 Tm9 3.230318 1_555
Al44 Al78 2.724430 1_555
Al44 Al65 2.724438 1_555
Al44 Al71 2.724440 1_555
Al44 Al8 2.801115 1_555
Al44 Tm7 3.230308 1_655
Al44 Tm3 3.230309 1_555
Al44 Tm10 3.230318 1_555
Al45 Al82 2.724430 1_555
Al45 Al66 2.724438 1_555
Al45 Al72 2.724440 1_555
Al45 Al7 2.801115 1_555
Al45 Tm6 3.230308 1_555
Al45 Tm4 3.230309 1_655
Al45 Tm11 3.230318 1_555
Al46 Al80 2.724430 1_555
Al46 Al68 2.724438 1_555
Al46 Al74 2.724440 1_555
Al46 Al6 2.801115 1_555
Al46 Tm4 3.230308 1_555
Al46 Tm6 3.230309 1_565
Al46 Tm11 3.230318 1_555
Al47 Al83 2.724430 1_555
Al47 Al69 2.724438 1_555
Al47 Al75 2.724440 1_555
Al47 Al9 2.801115 1_555
Al47 Al5 2.801115 1_555
Al47 Tm3 3.230308 1_565
Al47 Tm7 3.230309 1_555
Al47 Tm10 3.230318 1_555
Al48 Al84 2.724430 1_555
Al48 Al76 2.724438 1_555
Al48 Al79 2.724440 1_555
Al48 Al9 2.801115 1_555
Al48 Al5 2.801115 1_555
Al48 Tm1 3.230308 1_565
Al48 Tm5 3.230309 1_555
Al48 Tm9 3.230318 1_555
Al49 Al85 2.724430 1_555
Al49 Al77 2.724438 1_555
Al49 Al81 2.724440 1_555
Al49 Al7 2.801115 1_555
Al49 Tm0 3.230308 1_555
Al49 Tm2 3.230309 1_655
Al49 Tm8 3.230318 1_555
Al50 V0 2.829918 1_555
Al50 Al70 2.873887 1_545
Al50 Al77 2.873887 1_555
Al50 Al59 2.972427 1_555
Al50 Al55 2.972427 1_545
Al50 Tm1 3.233372 1_555
Al50 Tm0 3.254064 1_555
Al51 V0 2.829918 1_655
Al51 Al73 2.873887 1_555
Al51 Al76 2.873887 1_545
Al51 Al58 2.972427 1_545
Al51 Al52 2.972427 1_655
Al51 Tm0 3.233372 1_555
Al51 Tm1 3.254064 1_555
Al52 V0 2.829918 1_555
Al52 Al85 2.873887 1_455
Al52 Al62 2.873887 1_555
Al52 Al59 2.972427 1_555
Al52 Tm5 3.233372 1_555
Al52 Tm2 3.254064 1_555
Al53 V1 2.829918 1_655
Al53 Al78 2.873887 1_555
Al53 Al69 2.873887 1_545
Al53 Al61 2.972427 1_544
Al53 Al54 2.972427 1_654
Al53 Tm6 3.233372 1_554
Al53 Tm3 3.254064 1_555
Al54 V1 2.829918 1_556
Al54 Al82 2.873887 1_455
Al54 Al68 2.873887 1_555
Al54 Al60 2.972427 1_556
Al54 Tm7 3.233372 1_556
Al54 Tm4 3.254064 1_555
Al55 V0 2.829918 1_565
Al55 Al84 2.873887 1_555
Al55 Al63 2.873887 1_455
Al55 Al58 2.972427 1_455
Al55 Tm2 3.233372 1_555
Al55 Tm5 3.254064 1_555
Al56 V1 2.829918 1_556
Al56 Al80 2.873887 1_545
Al56 Al66 2.873887 1_555
Al56 Al60 2.972427 1_556
Al56 Al57 2.972427 1_546
Al56 Tm3 3.233372 1_556
Al56 Tm6 3.254064 1_555
Al57 V1 2.829918 1_565
Al57 Al83 2.873887 1_555
Al57 Al65 2.873887 1_455
Al57 Al61 2.972427 1_454
Al57 Tm4 3.233372 1_554
Al57 Tm7 3.254064 1_555
Al58 V0 2.829919 1_665
Al58 Al81 2.873887 1_555
Al58 Al64 2.873887 1_555
Al58 Tm9 3.233372 1_555
Al58 Tm8 3.254064 1_555
Al59 V0 2.829919 1_555
Al59 Al79 2.873887 1_555
Al59 Al67 2.873887 1_555
Al59 Tm8 3.233372 1_555
Al59 Tm9 3.254064 1_555
Al60 V1 2.829919 1_555
Al60 Al71 2.873887 1_555
Al60 Al75 2.873887 1_555
Al60 Tm11 3.233372 1_554
Al60 Tm10 3.254064 1_555
Al61 V1 2.829919 1_666
Al61 Al72 2.873887 1_555
Al61 Al74 2.873887 1_555
Al61 Tm10 3.233372 1_556
Al61 Tm11 3.254064 1_555
Al62 V6 2.675396 1_555
Al62 Al68 2.968866 1_555
Al62 Al85 2.996536 1_455
Al62 Tm2 3.067169 1_555
Al62 Tm8 3.308904 1_555
Al63 V7 2.675396 1_555
Al63 Al65 2.968866 1_555
Al63 Al84 2.996536 1_655
Al63 Tm5 3.067169 1_655
Al63 Tm9 3.308904 1_555
Al64 V2 2.675396 1_565
Al64 Al74 2.968866 1_555
Al64 Al81 2.996536 1_555
Al64 Tm8 3.067170 1_555
Al64 Tm0 3.308904 1_565
Al65 V7 2.675396 1_555
Al65 Al83 2.996536 1_655
Al65 Tm7 3.067169 1_655
Al65 Tm10 3.308904 1_555
Al66 V6 2.675396 1_555
Al66 Al7 2.778833 1_555
Al66 Al77 2.968866 1_555
Al66 Al80 2.996536 1_545
Al66 Tm6 3.067169 1_555
Al66 Tm11 3.308904 1_555
Al67 V3 2.675396 1_555
Al67 Al8 2.778841 1_555
Al67 Al71 2.968866 1_555
Al67 Al79 2.996536 1_555
Al67 Tm9 3.067170 1_555
Al67 Tm1 3.308904 1_555
Al68 V6 2.675396 1_555
Al68 Al82 2.996536 1_455
Al68 Tm4 3.067169 1_555
Al68 Tm11 3.308904 1_555
Al69 V7 2.675396 1_555
Al69 Al9 2.778833 1_555
Al69 Al76 2.968866 1_555
Al69 Al78 2.996536 1_565
Al69 Tm3 3.067169 1_565
Al69 Tm10 3.308904 1_555
Al70 V4 2.675396 1_555
Al70 Al80 2.968866 1_555
Al70 Al77 2.996536 1_565
Al70 Tm0 3.067170 1_565
Al70 Tm2 3.308904 1_555
Al71 V3 2.675396 1_555
Al71 Al8 2.778841 1_555
Al71 Al75 2.996536 1_555
Al71 Tm10 3.067170 1_555
Al71 Tm3 3.308904 1_555
Al72 V4 2.675396 1_655
Al72 Al81 2.968866 1_555
Al72 Al74 2.996536 1_555
Al72 Tm11 3.067170 1_555
Al72 Tm4 3.308904 1_655
Al73 V5 2.675396 1_655
Al73 Al8 2.758798 1_555
Al73 Al78 2.968866 1_555
Al73 Al76 2.996536 1_545
Al73 Tm1 3.067170 1_555
Al73 Tm5 3.308904 1_655
Al74 V2 2.675396 1_565
Al74 Tm11 3.067170 1_555
Al74 Tm6 3.308904 1_565
Al75 V5 2.675396 1_555
Al75 Al9 2.758803 1_555
Al75 Al79 2.968866 1_555
Al75 Tm10 3.067170 1_555
Al75 Tm7 3.308904 1_555
Al76 V7 2.675396 1_555
Al76 Al9 2.778833 1_555
Al76 Tm1 3.067169 1_565
Al76 Tm9 3.308904 1_555
Al77 V6 2.675396 1_555
Al77 Tm0 3.067169 1_555
Al77 Tm8 3.308904 1_555
Al78 V5 2.675396 1_655
Al78 Al8 2.758798 1_555
Al78 Tm3 3.067170 1_555
Al78 Tm7 3.308904 1_655
Al79 V5 2.675396 1_555
Al79 Al9 2.758803 1_555
Al79 Tm9 3.067170 1_555
Al79 Tm5 3.308904 1_555
Al80 V4 2.675396 1_555
Al80 Tm6 3.067170 1_565
Al80 Tm4 3.308904 1_555
Al81 V4 2.675396 1_655
Al81 Tm8 3.067170 1_555
Al81 Tm2 3.308904 1_655
Al82 V2 2.675396 1_555
Al82 Al85 2.968866 1_555
Al82 Tm4 3.067170 1_655
Al82 Tm6 3.308904 1_555
Al83 V3 2.675396 1_565
Al83 Al84 2.968866 1_555
Al83 Tm7 3.067170 1_555
Al83 Tm3 3.308904 1_565
Al84 V3 2.675396 1_565
Al84 Tm5 3.067170 1_555
Al84 Tm1 3.308904 1_565
Al85 V2 2.675396 1_555
Al85 Tm2 3.067170 1_655
Al85 Tm0 3.308904 1_555
