# generated using pymatgen
data_CoN5Cl3
_symmetry_space_group_name_H-M   'P 1'
_cell_length_a   5.55663100
_cell_length_b   9.74040500
_cell_length_c   14.09823700
_cell_angle_alpha   90.00000000
_cell_angle_beta   90.00000000
_cell_angle_gamma   90.00000000
_symmetry_Int_Tables_number   1
_chemical_formula_structural   CoN5Cl3
_chemical_formula_sum   'Co4 N20 Cl12'
_cell_volume   763.05067257
_cell_formula_units_Z   4
loop_
 _symmetry_equiv_pos_site_id
 _symmetry_equiv_pos_as_xyz
  1  'x, y, z'
loop_
 _atom_site_type_symbol
 _atom_site_label
 _atom_site_symmetry_multiplicity
 _atom_site_fract_x
 _atom_site_fract_y
 _atom_site_fract_z
 _atom_site_occupancy
  Co  Co0  1  0.78688100  0.75000000  0.13782900  1
  Co  Co1  1  0.71311900  0.75000000  0.63782900  1
  Co  Co2  1  0.21311900  0.25000000  0.86217100  1
  Co  Co3  1  0.28688100  0.25000000  0.36217100  1
  N  N0  1  0.52025000  0.75000000  0.18953500  1
  N  N1  1  0.97975000  0.75000000  0.68953500  1
  N  N2  1  0.47975000  0.25000000  0.81046500  1
  N  N3  1  0.02025000  0.25000000  0.31046500  1
  N  N4  1  0.01271200  0.75000000  0.20623800  1
  N  N5  1  0.48728800  0.75000000  0.70623800  1
  N  N6  1  0.98728800  0.25000000  0.79376200  1
  N  N7  1  0.51271200  0.25000000  0.29376200  1
  N  N8  1  0.73115000  0.57170600  0.08717900  1
  N  N9  1  0.76885000  0.92829400  0.58717900  1
  N  N10  1  0.26885000  0.07170600  0.91282100  1
  N  N11  1  0.23115000  0.42829400  0.41282100  1
  N  N12  1  0.26885000  0.42829400  0.91282100  1
  N  N13  1  0.23115000  0.07170600  0.41282100  1
  N  N14  1  0.73115000  0.92829400  0.08717900  1
  N  N15  1  0.76885000  0.57170600  0.58717900  1
  N  N16  1  0.72413200  0.75000000  0.00185300  1
  N  N17  1  0.77586800  0.75000000  0.50185300  1
  N  N18  1  0.27586800  0.25000000  0.99814700  1
  N  N19  1  0.22413200  0.25000000  0.49814700  1
  Cl  Cl0  1  0.97225600  0.75000000  0.93473900  1
  Cl  Cl1  1  0.52774400  0.75000000  0.43473900  1
  Cl  Cl2  1  0.02774400  0.25000000  0.06526100  1
  Cl  Cl3  1  0.47225600  0.25000000  0.56526100  1
  Cl  Cl4  1  0.96736900  0.48279000  0.36759000  1
  Cl  Cl5  1  0.53263100  0.01721000  0.86759000  1
  Cl  Cl6  1  0.03263100  0.98279000  0.63241000  1
  Cl  Cl7  1  0.46736900  0.51721000  0.13241000  1
  Cl  Cl8  1  0.03263100  0.51721000  0.63241000  1
  Cl  Cl9  1  0.46736900  0.98279000  0.13241000  1
  Cl  Cl10  1  0.96736900  0.01721000  0.36759000  1
  Cl  Cl11  1  0.53263100  0.48279000  0.86759000  1
loop_
_geom_bond_atom_site_label_1
_geom_bond_atom_site_label_2
_geom_bond_distance
_geom_bond_site_symmetry_2
Co0 N4 1.582665 1_655
Co0 N0 1.651193 1_555
Co0 N14 1.903097 1_555
Co0 N8 1.903097 1_555
Co0 N16 1.948473 1_555
Co1 N5 1.582665 1_555
Co1 N1 1.651193 1_555
Co1 N9 1.903097 1_555
Co1 N15 1.903097 1_555
Co1 N17 1.948473 1_555
Co2 N6 1.582665 1_455
Co2 N2 1.651193 1_555
Co2 N12 1.903097 1_555
Co2 N10 1.903097 1_555
Co2 N18 1.948473 1_555
Co3 N7 1.582665 1_555
Co3 N3 1.651193 1_555
Co3 N11 1.903097 1_555
Co3 N13 1.903097 1_555
Co3 N19 1.948473 1_555
Cl0 N16 1.672178 1_556
Cl1 N17 1.672178 1_555
Cl2 N18 1.672178 1_554
Cl3 N19 1.672178 1_555
Cl4 N11 1.684271 1_655
Cl5 N10 1.684271 1_555
Cl6 N9 1.684271 1_455
Cl7 N8 1.684271 1_555
Cl8 N15 1.684271 1_455
Cl9 N14 1.684271 1_555
Cl10 N13 1.684271 1_655
Cl11 N12 1.684271 1_555
