# generated using pymatgen
data_MgCu3O4
_symmetry_space_group_name_H-M   'P 1'
_cell_length_a   3.23932600
_cell_length_b   4.02890000
_cell_length_c   18.65474000
_cell_angle_alpha   90.00000000
_cell_angle_beta   90.00000000
_cell_angle_gamma   90.00000000
_symmetry_Int_Tables_number   1
_chemical_formula_structural   MgCu3O4
_chemical_formula_sum   'Mg3 Cu9 O12'
_cell_volume   243.46152909
_cell_formula_units_Z   3
loop_
 _symmetry_equiv_pos_site_id
 _symmetry_equiv_pos_as_xyz
  1  'x, y, z'
loop_
 _atom_site_type_symbol
 _atom_site_label
 _atom_site_symmetry_multiplicity
 _atom_site_fract_x
 _atom_site_fract_y
 _atom_site_fract_z
 _atom_site_occupancy
  Mg  Mg0  1  0.63981500  0.50000000  0.50000000  1
  Mg  Mg1  1  0.35966300  0.00000000  0.75003000  1
  Mg  Mg2  1  0.35966300  0.00000000  0.24997000  1
  Cu  Cu0  1  0.18181500  0.00000000  0.91738600  1
  Cu  Cu1  1  0.17659000  0.00000000  0.41765800  1
  Cu  Cu2  1  0.18181500  0.00000000  0.08261400  1
  Cu  Cu3  1  0.17659000  0.00000000  0.58234200  1
  Cu  Cu4  1  0.81275500  0.50000000  0.83264200  1
  Cu  Cu5  1  0.82213900  0.50000000  0.33230400  1
  Cu  Cu6  1  0.82213900  0.50000000  0.66769600  1
  Cu  Cu7  1  0.81275500  0.50000000  0.16735800  1
  Cu  Cu8  1  0.65241500  0.50000000  0.00000000  1
  O  O0  1  0.13321900  0.50000000  0.92036300  1
  O  O1  1  0.12704300  0.50000000  0.42255700  1
  O  O2  1  0.13321900  0.50000000  0.07963700  1
  O  O3  1  0.12704300  0.50000000  0.57744300  1
  O  O4  1  0.87956300  0.00000000  0.82791500  1
  O  O5  1  0.87217300  0.00000000  0.32753700  1
  O  O6  1  0.87217300  0.00000000  0.67246300  1
  O  O7  1  0.87956300  0.00000000  0.17208500  1
  O  O8  1  0.52113300  0.00000000  0.00000000  1
  O  O9  1  0.53030300  0.00000000  0.50000000  1
  O  O10  1  0.46320500  0.50000000  0.74921600  1
  O  O11  1  0.46320500  0.50000000  0.25078400  1
loop_
_geom_bond_atom_site_label_1
_geom_bond_atom_site_label_2
_geom_bond_distance
_geom_bond_site_symmetry_2
Mg0 O9 2.045447 1_555
Mg0 O9 2.045447 1_565
Mg0 O3 2.139649 1_655
Mg0 O1 2.139649 1_655
Mg0 O3 2.201394 1_555
Mg0 O1 2.201394 1_555
Mg1 O10 2.042238 1_545
Mg1 O10 2.042238 1_555
Mg1 O4 2.128295 1_455
Mg1 O6 2.141837 1_455
Mg1 O6 2.202273 1_555
Mg1 O4 2.224246 1_555
Mg2 O11 2.042238 1_545
Mg2 O11 2.042238 1_555
Mg2 O7 2.128295 1_455
Mg2 O5 2.141837 1_455
Mg2 O5 2.202273 1_555
Mg2 O7 2.224246 1_555
Cu0 O8 1.892955 1_556
Cu0 O4 1.935040 1_455
Cu0 O0 2.021354 1_545
Cu0 O0 2.021354 1_555
Cu1 O9 1.916336 1_555
Cu1 O5 1.949047 1_455
Cu1 O1 2.022899 1_545
Cu1 O1 2.022899 1_555
Cu2 O8 1.892955 1_555
Cu2 O7 1.935040 1_455
Cu2 O2 2.021354 1_555
Cu2 O2 2.021354 1_545
Cu3 O9 1.916336 1_555
Cu3 O6 1.949047 1_455
Cu3 O3 2.022899 1_545
Cu3 O3 2.022899 1_555
Cu4 O10 1.924619 1_555
Cu4 O0 1.937904 1_655
Cu4 O4 2.027959 1_555
Cu4 O4 2.027959 1_565
Cu5 O11 1.914292 1_555
Cu5 O1 1.951969 1_655
Cu5 O5 2.022915 1_555
Cu5 O5 2.022915 1_565
Cu6 O10 1.914292 1_555
Cu6 O3 1.951969 1_655
Cu6 O6 2.022915 1_565
Cu6 O6 2.022915 1_555
Cu7 O11 1.924619 1_555
Cu7 O2 1.937904 1_655
Cu7 O7 2.027959 1_555
Cu7 O7 2.027959 1_565
Cu8 O8 2.058849 1_555
Cu8 O8 2.058849 1_565
Cu8 O2 2.152389 1_655
Cu8 O0 2.152389 1_654
Cu8 O2 2.244022 1_555
Cu8 O0 2.244022 1_554
