# generated using pymatgen
data_Mg4HgAu
_symmetry_space_group_name_H-M   'P 1'
_cell_length_a   4.53308606
_cell_length_b   6.08612243
_cell_length_c   8.63781731
_cell_angle_alpha   90.00000000
_cell_angle_beta   90.00000000
_cell_angle_gamma   90.00000000
_symmetry_Int_Tables_number   1
_chemical_formula_structural   Mg4HgAu
_chemical_formula_sum   'Mg8 Hg2 Au2'
_cell_volume   238.30802264
_cell_formula_units_Z   2
loop_
 _symmetry_equiv_pos_site_id
 _symmetry_equiv_pos_as_xyz
  1  'x, y, z'
loop_
 _atom_site_type_symbol
 _atom_site_label
 _atom_site_symmetry_multiplicity
 _atom_site_fract_x
 _atom_site_fract_y
 _atom_site_fract_z
 _atom_site_occupancy
  Mg  Mg0  1  0.75000000  0.04980143  0.30038696  1
  Mg  Mg1  1  0.75000000  0.54980143  0.19961304  1
  Mg  Mg2  1  0.25000000  0.96138356  0.70840283  1
  Mg  Mg3  1  0.25000000  0.46138356  0.79159717  1
  Mg  Mg4  1  0.75000000  0.66970514  0.56952009  1
  Mg  Mg5  1  0.75000000  0.16970514  0.93047991  1
  Mg  Mg6  1  0.25000000  0.31828770  0.44747346  1
  Mg  Mg7  1  0.25000000  0.81828770  0.05252654  1
  Hg  Hg0  1  0.25000000  0.77975326  0.38248265  1
  Hg  Hg1  1  0.25000000  0.27975326  0.11751735  1
  Au  Au0  1  0.75000000  0.22106891  0.61644096  1
  Au  Au1  1  0.75000000  0.72106891  0.88355904  1
loop_
_geom_bond_atom_site_label_1
_geom_bond_atom_site_label_2
_geom_bond_distance
_geom_bond_site_symmetry_2
Hg0 Mg7 2.859733 1_555
Hg0 Mg4 2.862857 1_455
Hg0 Mg4 2.862857 1_555
Hg0 Mg6 2.864091 1_555
Hg0 Mg0 2.888135 1_565
Hg0 Mg0 2.888135 1_465
Hg0 Mg2 3.024489 1_555
Hg0 Mg1 3.096930 1_555
Hg0 Mg1 3.096930 1_455
Hg0 Mg6 3.325315 1_565
Hg1 Mg6 2.859733 1_555
Hg1 Mg5 2.862857 1_454
Hg1 Mg5 2.862857 1_554
Hg1 Mg7 2.864091 1_545
Hg1 Mg1 2.888135 1_555
Hg1 Mg1 2.888135 1_455
Hg1 Mg3 3.024489 1_554
Hg1 Mg0 3.096930 1_455
Hg1 Mg0 3.096930 1_555
Hg1 Mg7 3.325315 1_555
Au0 Mg5 2.730564 1_555
Au0 Mg6 2.759978 1_655
Au0 Mg6 2.759978 1_555
Au0 Mg4 2.760371 1_555
Au0 Mg2 2.875085 1_545
Au0 Mg2 2.875085 1_645
Au0 Mg0 2.922241 1_555
Au0 Mg3 3.092805 1_555
Au0 Mg3 3.092805 1_655
Au0 Mg4 3.380054 1_545
Au1 Mg4 2.730564 1_555
Au1 Mg7 2.759978 1_556
Au1 Mg7 2.759978 1_656
Au1 Mg5 2.760371 1_565
Au1 Mg3 2.875085 1_555
Au1 Mg3 2.875085 1_655
Au1 Mg1 2.922241 1_556
Au1 Mg2 3.092805 1_555
Au1 Mg2 3.092805 1_655
Au1 Mg5 3.380054 1_555
