# generated using pymatgen
data_CoAsSe
_symmetry_space_group_name_H-M   'P 1'
_cell_length_a   3.56141900
_cell_length_b   4.83412100
_cell_length_c   5.78817987
_cell_angle_alpha   88.73044007
_cell_angle_beta   90.00000000
_cell_angle_gamma   90.00000000
_symmetry_Int_Tables_number   1
_chemical_formula_structural   CoAsSe
_chemical_formula_sum   'Co2 As2 Se2'
_cell_volume   99.62675476
_cell_formula_units_Z   2
loop_
 _symmetry_equiv_pos_site_id
 _symmetry_equiv_pos_as_xyz
  1  'x, y, z'
loop_
 _atom_site_type_symbol
 _atom_site_label
 _atom_site_symmetry_multiplicity
 _atom_site_fract_x
 _atom_site_fract_y
 _atom_site_fract_z
 _atom_site_occupancy
  Co  Co0  1  0.50000000  0.50000000  0.50000000  1
  Co  Co1  1  0.00000000  0.00000000  0.00000000  1
  As  As0  1  0.50000000  0.29211600  0.12852200  1
  As  As1  1  0.50000000  0.70788400  0.87147800  1
  Se  Se0  1  0.00000000  0.78418100  0.36287700  1
  Se  Se1  1  0.00000000  0.21581900  0.63712300  1
loop_
_geom_bond_atom_site_label_1
_geom_bond_atom_site_label_2
_geom_bond_distance
_geom_bond_site_symmetry_2
Co0 Se0 2.374824 1_555
Co0 Se0 2.374824 1_655
Co0 Se1 2.374824 1_555
Co0 Se1 2.374824 1_655
Co1 Se1 2.324442 1_554
Co1 Se0 2.324442 1_545
As0 Co0 2.393518 1_555
As0 Co1 2.401035 1_655
As0 Co1 2.401035 1_555
As0 As1 2.474001 1_554
As1 Co0 2.393518 1_555
As1 Co1 2.401035 1_666
As1 Co1 2.401035 1_566
