# generated using pymatgen
data_KMg30CO32
_symmetry_space_group_name_H-M   'P 1'
_cell_length_a   8.62835400
_cell_length_b   8.62835400
_cell_length_c   8.44720200
_cell_angle_alpha   90.00000000
_cell_angle_beta   90.00000000
_cell_angle_gamma   90.00000000
_symmetry_Int_Tables_number   1
_chemical_formula_structural   KMg30CO32
_chemical_formula_sum   'K1 Mg30 C1 O32'
_cell_volume   628.88145685
_cell_formula_units_Z   1
loop_
 _symmetry_equiv_pos_site_id
 _symmetry_equiv_pos_as_xyz
  1  'x, y, z'
loop_
 _atom_site_type_symbol
 _atom_site_label
 _atom_site_symmetry_multiplicity
 _atom_site_fract_x
 _atom_site_fract_y
 _atom_site_fract_z
 _atom_site_occupancy
  K  K0  1  0.00000000  0.00000000  0.00000000  1
  Mg  Mg0  1  0.50000000  0.00000000  0.00000000  1
  Mg  Mg1  1  0.50000000  0.00000000  0.50000000  1
  Mg  Mg2  1  0.00000000  0.50000000  0.00000000  1
  Mg  Mg3  1  0.00000000  0.50000000  0.50000000  1
  Mg  Mg4  1  0.50000000  0.50000000  0.00000000  1
  Mg  Mg5  1  0.50000000  0.50000000  0.50000000  1
  Mg  Mg6  1  0.25711100  0.00000000  0.25299900  1
  Mg  Mg7  1  0.25711100  0.00000000  0.74700100  1
  Mg  Mg8  1  0.74288900  0.00000000  0.25299900  1
  Mg  Mg9  1  0.74288900  0.00000000  0.74700100  1
  Mg  Mg10  1  0.25073400  0.50000000  0.25027800  1
  Mg  Mg11  1  0.25073400  0.50000000  0.74972200  1
  Mg  Mg12  1  0.74926600  0.50000000  0.25027800  1
  Mg  Mg13  1  0.74926600  0.50000000  0.74972200  1
  Mg  Mg14  1  0.00000000  0.25711100  0.25299900  1
  Mg  Mg15  1  0.00000000  0.25711100  0.74700100  1
  Mg  Mg16  1  0.50000000  0.25073400  0.25027800  1
  Mg  Mg17  1  0.50000000  0.25073400  0.74972200  1
  Mg  Mg18  1  0.00000000  0.74288900  0.25299900  1
  Mg  Mg19  1  0.00000000  0.74288900  0.74700100  1
  Mg  Mg20  1  0.50000000  0.74926600  0.25027800  1
  Mg  Mg21  1  0.50000000  0.74926600  0.74972200  1
  Mg  Mg22  1  0.25180700  0.25180700  0.00000000  1
  Mg  Mg23  1  0.24747000  0.24747000  0.50000000  1
  Mg  Mg24  1  0.74819300  0.25180700  0.00000000  1
  Mg  Mg25  1  0.75253000  0.24747000  0.50000000  1
  Mg  Mg26  1  0.25180700  0.74819300  0.00000000  1
  Mg  Mg27  1  0.24747000  0.75253000  0.50000000  1
  Mg  Mg28  1  0.74819300  0.74819300  0.00000000  1
  Mg  Mg29  1  0.75253000  0.75253000  0.50000000  1
  C  C0  1  0.00000000  0.00000000  0.50000000  1
  O  O0  1  0.00000000  0.27192900  0.00000000  1
  O  O1  1  0.00000000  0.25330100  0.50000000  1
  O  O2  1  0.50000000  0.25428300  0.00000000  1
  O  O3  1  0.50000000  0.24991100  0.50000000  1
  O  O4  1  0.00000000  0.72807100  0.00000000  1
  O  O5  1  0.00000000  0.74669900  0.50000000  1
  O  O6  1  0.50000000  0.74571700  0.00000000  1
  O  O7  1  0.50000000  0.75008900  0.50000000  1
  O  O8  1  0.24811800  0.24811800  0.25055500  1
  O  O9  1  0.24811800  0.24811800  0.74944500  1
  O  O10  1  0.75188200  0.24811800  0.25055500  1
  O  O11  1  0.75188200  0.24811800  0.74944500  1
  O  O12  1  0.24811800  0.75188200  0.25055500  1
  O  O13  1  0.24811800  0.75188200  0.74944500  1
  O  O14  1  0.75188200  0.75188200  0.25055500  1
  O  O15  1  0.75188200  0.75188200  0.74944500  1
  O  O16  1  0.00000000  0.00000000  0.30140400  1
  O  O17  1  0.00000000  0.00000000  0.69859600  1
  O  O18  1  0.50000000  0.00000000  0.25517900  1
  O  O19  1  0.50000000  0.00000000  0.74482100  1
  O  O20  1  0.00000000  0.50000000  0.25517900  1
  O  O21  1  0.00000000  0.50000000  0.74482100  1
  O  O22  1  0.50000000  0.50000000  0.25189400  1
  O  O23  1  0.50000000  0.50000000  0.74810600  1
  O  O24  1  0.27192900  0.00000000  0.00000000  1
  O  O25  1  0.25330100  0.00000000  0.50000000  1
  O  O26  1  0.72807100  0.00000000  0.00000000  1
  O  O27  1  0.74669900  0.00000000  0.50000000  1
  O  O28  1  0.25428300  0.50000000  0.00000000  1
  O  O29  1  0.24991100  0.50000000  0.50000000  1
  O  O30  1  0.74571700  0.50000000  0.00000000  1
  O  O31  1  0.75008900  0.50000000  0.50000000  1
loop_
_geom_bond_atom_site_label_1
_geom_bond_atom_site_label_2
_geom_bond_distance
_geom_bond_site_symmetry_2
K0 O24 2.346300 1_555
K0 O0 2.346300 1_555
K0 O26 2.346300 1_455
K0 O4 2.346300 1_545
K0 O17 2.546020 1_554
K0 O16 2.546020 1_555
Mg0 O26 1.967877 1_555
Mg0 O24 1.967877 1_555
Mg0 O18 2.155549 1_555
Mg0 O19 2.155549 1_554
Mg0 O2 2.194044 1_555
Mg0 O6 2.194044 1_545
Mg1 O19 2.068052 1_555
Mg1 O18 2.068052 1_555
Mg1 O27 2.128606 1_555
Mg1 O25 2.128606 1_555
Mg1 O7 2.156321 1_545
Mg1 O3 2.156321 1_555
Mg2 O4 1.967877 1_555
Mg2 O0 1.967877 1_555
Mg2 O20 2.155549 1_555
Mg2 O21 2.155549 1_554
Mg2 O28 2.194044 1_555
Mg2 O30 2.194044 1_455
Mg3 O21 2.068052 1_555
Mg3 O20 2.068052 1_555
Mg3 O1 2.128606 1_555
Mg3 O5 2.128606 1_555
Mg3 O29 2.156321 1_555
Mg3 O31 2.156321 1_455
Mg4 O6 2.120133 1_555
Mg4 O30 2.120133 1_555
Mg4 O2 2.120133 1_555
Mg4 O28 2.120133 1_555
Mg4 O22 2.127800 1_555
Mg4 O23 2.127800 1_554
Mg5 O23 2.095801 1_555
Mg5 O22 2.095801 1_555
Mg5 O3 2.157856 1_555
Mg5 O7 2.157856 1_555
Mg5 O29 2.157856 1_555
Mg5 O31 2.157856 1_555
Mg6 O25 2.086726 1_555
Mg6 O18 2.095813 1_555
Mg6 O24 2.140955 1_555
Mg6 O8 2.142355 1_555
Mg6 O12 2.142355 1_545
Mg6 O16 2.255811 1_555
Mg7 O25 2.086726 1_555
Mg7 O19 2.095813 1_555
Mg7 O24 2.140955 1_556
Mg7 O9 2.142355 1_555
Mg7 O13 2.142355 1_545
Mg7 O17 2.255811 1_555
Mg8 O27 2.086726 1_555
Mg8 O18 2.095813 1_555
Mg8 O26 2.140955 1_555
Mg8 O10 2.142355 1_555
Mg8 O14 2.142355 1_545
Mg8 O16 2.255811 1_655
Mg9 O27 2.086726 1_555
Mg9 O19 2.095813 1_555
Mg9 O26 2.140955 1_556
Mg9 O11 2.142355 1_555
Mg9 O15 2.142355 1_545
Mg9 O17 2.255811 1_655
Mg10 O29 2.109464 1_555
Mg10 O28 2.114371 1_555
Mg10 O22 2.150799 1_555
Mg10 O20 2.163818 1_555
Mg10 O12 2.173446 1_555
Mg10 O8 2.173446 1_555
Mg11 O29 2.109464 1_555
Mg11 O28 2.114371 1_556
Mg11 O23 2.150799 1_555
Mg11 O21 2.163818 1_555
Mg11 O13 2.173446 1_555
Mg11 O9 2.173446 1_555
Mg12 O31 2.109464 1_555
Mg12 O30 2.114371 1_555
Mg12 O22 2.150799 1_555
Mg12 O20 2.163818 1_655
Mg12 O14 2.173446 1_555
Mg12 O10 2.173446 1_555
Mg13 O31 2.109464 1_555
Mg13 O30 2.114371 1_556
Mg13 O23 2.150799 1_555
Mg13 O21 2.163818 1_655
Mg13 O15 2.173446 1_555
Mg13 O11 2.173446 1_555
Mg14 O1 2.086726 1_555
Mg14 O20 2.095813 1_555
Mg14 O0 2.140955 1_555
Mg14 O8 2.142355 1_555
Mg14 O10 2.142355 1_455
Mg14 O16 2.255811 1_555
Mg15 O1 2.086726 1_555
Mg15 O21 2.095813 1_555
Mg15 O0 2.140955 1_556
Mg15 O9 2.142355 1_555
Mg15 O11 2.142355 1_455
Mg15 O17 2.255811 1_555
Mg16 O3 2.109464 1_555
Mg16 O2 2.114371 1_555
Mg16 O22 2.150799 1_555
Mg16 O18 2.163818 1_555
Mg16 O10 2.173446 1_555
Mg16 O8 2.173446 1_555
Mg17 O3 2.109464 1_555
Mg17 O2 2.114371 1_556
Mg17 O23 2.150799 1_555
Mg17 O19 2.163818 1_555
Mg17 O11 2.173446 1_555
Mg17 O9 2.173446 1_555
Mg18 O5 2.086726 1_555
Mg18 O20 2.095813 1_555
Mg18 O4 2.140955 1_555
Mg18 O12 2.142355 1_555
Mg18 O14 2.142355 1_455
Mg18 O16 2.255811 1_565
Mg19 O5 2.086726 1_555
Mg19 O21 2.095813 1_555
Mg19 O4 2.140955 1_556
Mg19 O13 2.142355 1_555
Mg19 O15 2.142355 1_455
Mg19 O17 2.255811 1_565
Mg20 O7 2.109464 1_555
Mg20 O6 2.114371 1_555
Mg20 O22 2.150799 1_555
Mg20 O18 2.163818 1_565
Mg20 O14 2.173446 1_555
Mg20 O12 2.173446 1_555
Mg21 O7 2.109464 1_555
Mg21 O6 2.114371 1_556
Mg21 O23 2.150799 1_555
Mg21 O19 2.163818 1_565
Mg21 O15 2.173446 1_555
Mg21 O13 2.173446 1_555
Mg22 O8 2.116967 1_555
Mg22 O9 2.116967 1_554
Mg22 O2 2.141604 1_555
Mg22 O28 2.141604 1_555
Mg22 O0 2.179606 1_555
Mg22 O24 2.179606 1_555
Mg23 O9 2.107127 1_555
Mg23 O8 2.107127 1_555
Mg23 O25 2.135851 1_555
Mg23 O1 2.135851 1_555
Mg23 O3 2.179020 1_555
Mg23 O29 2.179020 1_555
Mg24 O10 2.116967 1_555
Mg24 O11 2.116967 1_554
Mg24 O30 2.141604 1_555
Mg24 O2 2.141604 1_555
Mg24 O0 2.179606 1_655
Mg24 O26 2.179606 1_555
Mg25 O11 2.107127 1_555
Mg25 O10 2.107127 1_555
Mg25 O1 2.135851 1_655
Mg25 O27 2.135851 1_555
Mg25 O31 2.179020 1_555
Mg25 O3 2.179020 1_555
Mg26 O12 2.116967 1_555
Mg26 O13 2.116967 1_554
Mg26 O6 2.141604 1_555
Mg26 O28 2.141604 1_555
Mg26 O24 2.179606 1_565
Mg26 O4 2.179606 1_555
Mg27 O13 2.107127 1_555
Mg27 O12 2.107127 1_555
Mg27 O25 2.135851 1_565
Mg27 O5 2.135851 1_555
Mg27 O7 2.179020 1_555
Mg27 O29 2.179020 1_555
Mg28 O14 2.116967 1_555
Mg28 O15 2.116967 1_554
Mg28 O30 2.141604 1_555
Mg28 O6 2.141604 1_555
Mg28 O26 2.179606 1_565
Mg28 O4 2.179606 1_655
Mg29 O15 2.107127 1_555
Mg29 O14 2.107127 1_555
Mg29 O27 2.135851 1_565
Mg29 O5 2.135851 1_655
Mg29 O31 2.179020 1_555
Mg29 O7 2.179020 1_555
C0 O16 1.677581 1_555
C0 O17 1.677581 1_555
