# generated using pymatgen
data_SrMg3GeN4
_symmetry_space_group_name_H-M   'P 1'
_cell_length_a   3.37990700
_cell_length_b   6.24345082
_cell_length_c   6.21395657
_cell_angle_alpha   94.03667112
_cell_angle_beta   105.78099265
_cell_angle_gamma   74.29548699
_symmetry_Int_Tables_number   1
_chemical_formula_structural   SrMg3GeN4
_chemical_formula_sum   'Sr1 Mg3 Ge1 N4'
_cell_volume   121.47499410
_cell_formula_units_Z   1
loop_
 _symmetry_equiv_pos_site_id
 _symmetry_equiv_pos_as_xyz
  1  'x, y, z'
loop_
 _atom_site_type_symbol
 _atom_site_label
 _atom_site_symmetry_multiplicity
 _atom_site_fract_x
 _atom_site_fract_y
 _atom_site_fract_z
 _atom_site_occupancy
  Sr  Sr0  1  0.98938200  0.00270800  0.98147200  1
  Mg  Mg0  1  0.17658900  0.45130900  0.80448700  1
  Mg  Mg1  1  0.64173200  0.17968400  0.46314800  1
  Mg  Mg2  1  0.36795600  0.81267500  0.54858600  1
  Ge  Ge0  1  0.79961600  0.56461300  0.16384500  1
  N  N0  1  0.60406500  0.64992000  0.85805000  1
  N  N1  1  0.39716600  0.38182200  0.17615300  1
  N  N2  1  0.76678500  0.81078300  0.34435300  1
  N  N3  1  0.25671000  0.14648700  0.65990600  1
loop_
_geom_bond_atom_site_label_1
_geom_bond_atom_site_label_2
_geom_bond_distance
_geom_bond_site_symmetry_2
Mg0 N3 2.028558 1_555
Mg0 N0 2.094320 1_455
Mg0 N0 2.094320 1_555
Mg0 N1 2.259941 1_556
Mg1 N3 2.068433 1_555
Mg1 N3 2.068436 1_655
Mg1 N1 2.099227 1_555
Mg1 N2 2.330601 1_545
Mg2 N2 2.085100 1_555
Mg2 N2 2.085102 1_455
Mg2 N0 2.090154 1_555
Mg2 N3 2.116078 1_565
Ge0 N2 1.834483 1_555
Ge0 N0 1.897383 1_554
Ge0 N1 2.016882 1_555
Ge0 N1 2.016884 1_655
N0 Sr0 2.812040 1_465
N0 Sr0 2.812040 1_565
N1 Sr0 3.069480 1_554
N1 Sr0 3.069482 1_454
N2 Sr0 2.979568 1_464
N2 Sr0 2.979569 1_564
N3 Sr0 2.699750 1_555
N3 Sr0 2.699752 1_455
