# generated using pymatgen
data_Zn(CuO2)2
_symmetry_space_group_name_H-M   'P 1'
_cell_length_a   5.94798205
_cell_length_b   5.94748765
_cell_length_c   17.81412391
_cell_angle_alpha   59.95163507
_cell_angle_beta   59.95286035
_cell_angle_gamma   59.98902078
_symmetry_Int_Tables_number   1
_chemical_formula_structural   Zn(CuO2)2
_chemical_formula_sum   'Zn6 Cu12 O24'
_cell_volume   445.24887603
_cell_formula_units_Z   6
loop_
 _symmetry_equiv_pos_site_id
 _symmetry_equiv_pos_as_xyz
  1  'x, y, z'
loop_
 _atom_site_type_symbol
 _atom_site_label
 _atom_site_symmetry_multiplicity
 _atom_site_fract_x
 _atom_site_fract_y
 _atom_site_fract_z
 _atom_site_occupancy
  Zn  Zn0  1  0.12161300  0.12170600  0.04504600  1
  Zn  Zn1  1  0.12393400  0.12408500  0.37599900  1
  Zn  Zn2  1  0.50012400  0.50000100  0.99983900  1
  Zn  Zn3  1  0.12334600  0.12327300  0.71000700  1
  Zn  Zn4  1  0.87751500  0.87734500  0.28926900  1
  Zn  Zn5  1  0.87479400  0.87483100  0.62519400  1
  Cu  Cu0  1  0.00002700  0.50004700  0.16666100  1
  Cu  Cu1  1  0.50005400  0.50004200  0.16660600  1
  Cu  Cu2  1  0.99981500  0.50010200  0.50001000  1
  Cu  Cu3  1  0.50008200  0.00002000  0.16664000  1
  Cu  Cu4  1  0.49844600  0.49838100  0.33484900  1
  Cu  Cu5  1  0.50005400  0.50010300  0.49998400  1
  Cu  Cu6  1  0.00013300  0.49949300  0.83362100  1
  Cu  Cu7  1  0.50007200  0.99980500  0.50002100  1
  Cu  Cu8  1  0.49949300  0.00015100  0.83360700  1
  Cu  Cu9  1  0.50082800  0.50084100  0.66587900  1
  Cu  Cu10  1  0.49960700  0.49962600  0.83355700  1
  Cu  Cu11  1  0.87673700  0.87663300  0.95658800  1
  O  O0  1  0.25311400  0.25359100  0.09249800  1
  O  O1  1  0.25912300  0.25922900  0.24103400  1
  O  O2  1  0.25294200  0.71576800  0.09266900  1
  O  O3  1  0.71578300  0.25329100  0.09259800  1
  O  O4  1  0.28999900  0.73796600  0.24463400  1
  O  O5  1  0.26100100  0.26100500  0.42029100  1
  O  O6  1  0.73833400  0.28993400  0.24457300  1
  O  O7  1  0.74471800  0.74449000  0.08846600  1
  O  O8  1  0.26135400  0.71725000  0.42009400  1
  O  O9  1  0.26020100  0.26029200  0.57282500  1
  O  O10  1  0.73847700  0.73799200  0.24464400  1
  O  O11  1  0.71717700  0.26138200  0.42010400  1
  O  O12  1  0.28258900  0.73908800  0.57964500  1
  O  O13  1  0.26184400  0.26128200  0.75437800  1
  O  O14  1  0.73913700  0.28263000  0.57960900  1
  O  O15  1  0.74067900  0.74065400  0.42624000  1
  O  O16  1  0.25906600  0.25870500  0.90800100  1
  O  O17  1  0.26141500  0.71393300  0.75422600  1
  O  O18  1  0.73945300  0.73941800  0.57950900  1
  O  O19  1  0.71380400  0.26109500  0.75429200  1
  O  O20  1  0.27763900  0.74953800  0.90820000  1
  O  O21  1  0.73795800  0.73835600  0.76163500  1
  O  O22  1  0.74912700  0.27753100  0.90827400  1
  O  O23  1  0.74839100  0.74909800  0.90818200  1
loop_
_geom_bond_atom_site_label_1
_geom_bond_atom_site_label_2
_geom_bond_distance
_geom_bond_site_symmetry_2
Cu0 O2 1.974313 1_555
Cu0 O0 1.974978 1_555
Cu0 O10 1.988732 1_455
Cu0 O6 1.989010 1_455
Cu0 O1 2.029294 1_555
Cu0 O7 2.059569 1_455
Cu1 O3 1.974370 1_555
Cu1 O2 1.975147 1_555
Cu1 O4 1.989365 1_555
Cu1 O6 1.990180 1_555
Cu1 O1 2.027691 1_555
Cu1 O7 2.056752 1_555
Cu2 O18 2.011762 1_555
Cu2 O14 2.013786 1_555
Cu2 O5 2.013835 1_655
Cu2 O9 2.016149 1_655
Cu2 O8 2.016258 1_655
Cu2 O15 2.022180 1_555
Cu3 O3 1.975766 1_555
Cu3 O0 1.977054 1_555
Cu3 O4 1.990451 1_545
Cu3 O10 1.991022 1_545
Cu3 O1 2.029982 1_555
Cu3 O7 2.060205 1_545
Cu4 O11 1.996604 1_555
Cu4 O8 1.996995 1_555
Cu4 O5 1.998589 1_555
Cu4 O4 2.021178 1_555
Cu4 O6 2.021965 1_555
Cu4 O10 2.023818 1_555
Cu5 O12 2.012429 1_555
Cu5 O14 2.012442 1_555
Cu5 O11 2.014279 1_555
Cu5 O8 2.014368 1_555
Cu5 O9 2.020272 1_555
Cu5 O15 2.025898 1_555
Cu6 O22 1.991321 1_455
Cu6 O23 1.992362 1_455
Cu6 O17 2.004318 1_555
Cu6 O13 2.004816 1_555
Cu6 O21 2.014074 1_455
Cu6 O16 2.028668 1_555
Cu7 O18 2.011933 1_555
Cu7 O5 2.013900 1_565
Cu7 O12 2.013974 1_555
Cu7 O11 2.016226 1_565
Cu7 O9 2.016401 1_565
Cu7 O15 2.022321 1_555
Cu8 O20 1.989148 1_545
Cu8 O23 1.989433 1_545
Cu8 O13 2.002196 1_555
Cu8 O19 2.002288 1_555
Cu8 O21 2.012175 1_545
Cu8 O16 2.027129 1_555
Cu9 O12 2.007424 1_555
Cu9 O14 2.007748 1_555
Cu9 O18 2.009112 1_555
Cu9 O17 2.014643 1_555
Cu9 O19 2.015089 1_555
Cu9 O13 2.017001 1_555
Cu10 O22 1.993872 1_555
Cu10 O20 1.994652 1_555
Cu10 O17 2.005919 1_555
Cu10 O19 2.006531 1_555
Cu10 O21 2.010022 1_555
Cu10 O16 2.026447 1_555
Cu11 O7 1.916857 1_556
Cu11 O22 1.946955 1_565
Cu11 O20 1.947198 1_655
Cu11 O23 1.948126 1_555
O0 Zn0 1.970143 1_555
O0 Zn2 2.081740 1_554
O1 Zn1 1.961727 1_555
O2 Zn0 1.970961 1_565
O2 Zn2 2.084748 1_554
O3 Zn0 1.970607 1_655
O3 Zn2 2.083408 1_554
O4 Zn4 2.002706 1_455
O5 Zn1 1.975381 1_555
O6 Zn4 2.003017 1_545
O8 Zn1 1.975079 1_565
O9 Zn3 1.993951 1_555
O10 Zn4 2.001652 1_555
O11 Zn1 1.974886 1_655
O12 Zn5 1.979831 1_455
O13 Zn3 1.988800 1_555
O14 Zn5 1.979661 1_545
O15 Zn4 1.990884 1_555
O16 Zn0 1.991960 1_556
O17 Zn3 1.987265 1_565
O18 Zn5 1.979899 1_555
O19 Zn3 1.988430 1_655
O20 Zn2 2.095521 1_555
O21 Zn5 1.983181 1_555
O22 Zn2 2.094446 1_555
O23 Zn2 2.095906 1_555
