# generated using pymatgen
data_Zr2InNi2
_symmetry_space_group_name_H-M   'P 1'
_cell_length_a   7.23873300
_cell_length_b   7.23873300
_cell_length_c   6.67060500
_cell_angle_alpha   90.00000000
_cell_angle_beta   90.00000000
_cell_angle_gamma   90.00000000
_symmetry_Int_Tables_number   1
_chemical_formula_structural   Zr2InNi2
_chemical_formula_sum   'Zr8 In4 Ni8'
_cell_volume   349.53473537
_cell_formula_units_Z   4
loop_
 _symmetry_equiv_pos_site_id
 _symmetry_equiv_pos_as_xyz
  1  'x, y, z'
loop_
 _atom_site_type_symbol
 _atom_site_label
 _atom_site_symmetry_multiplicity
 _atom_site_fract_x
 _atom_site_fract_y
 _atom_site_fract_z
 _atom_site_occupancy
  Zr  Zr0  1  0.66128400  0.33871600  0.00000000  1
  Zr  Zr1  1  0.33871600  0.66128400  0.00000000  1
  Zr  Zr2  1  0.83871600  0.83871600  0.50000000  1
  Zr  Zr3  1  0.16128400  0.16128400  0.50000000  1
  Zr  Zr4  1  0.17692000  0.17692000  0.00000000  1
  Zr  Zr5  1  0.82308000  0.82308000  0.00000000  1
  Zr  Zr6  1  0.32308000  0.67692000  0.50000000  1
  Zr  Zr7  1  0.67692000  0.32308000  0.50000000  1
  In  In0  1  0.50000000  0.00000000  0.25000000  1
  In  In1  1  0.00000000  0.50000000  0.25000000  1
  In  In2  1  0.00000000  0.50000000  0.75000000  1
  In  In3  1  0.50000000  0.00000000  0.75000000  1
  Ni  Ni0  1  0.37521800  0.37521800  0.26957700  1
  Ni  Ni1  1  0.62478200  0.62478200  0.26957700  1
  Ni  Ni2  1  0.12478200  0.87521800  0.23042300  1
  Ni  Ni3  1  0.87521800  0.12478200  0.23042300  1
  Ni  Ni4  1  0.62478200  0.62478200  0.73042300  1
  Ni  Ni5  1  0.37521800  0.37521800  0.73042300  1
  Ni  Ni6  1  0.12478200  0.87521800  0.76957700  1
  Ni  Ni7  1  0.87521800  0.12478200  0.76957700  1
loop_
_geom_bond_atom_site_label_1
_geom_bond_atom_site_label_2
_geom_bond_distance
_geom_bond_site_symmetry_2
In0 Ni2 2.865337 1_545
In0 Ni0 2.865337 1_555
In0 Ni1 2.865337 1_545
In0 Ni3 2.865337 1_555
In0 Zr7 3.144943 1_555
In0 Zr5 3.144943 1_545
In0 Zr6 3.144943 1_545
In0 Zr4 3.144943 1_555
In0 Zr0 3.186815 1_555
In0 Zr2 3.186815 1_545
In0 Zr3 3.186815 1_555
In0 Zr1 3.186815 1_545
In0 In3 3.335303 1_555
In0 In3 3.335303 1_554
In1 Ni0 2.865337 1_555
In1 Ni3 2.865337 1_455
In1 Ni1 2.865337 1_455
In1 Ni2 2.865337 1_555
In1 Zr6 3.144943 1_555
In1 Zr4 3.144943 1_555
In1 Zr5 3.144943 1_455
In1 Zr7 3.144943 1_455
In1 Zr0 3.186815 1_455
In1 Zr1 3.186815 1_555
In1 Zr2 3.186815 1_455
In1 Zr3 3.186815 1_555
In1 In2 3.335303 1_554
In1 In2 3.335303 1_555
In2 Ni7 2.865337 1_455
In2 Ni5 2.865337 1_555
In2 Ni4 2.865337 1_455
In2 Ni6 2.865337 1_555
In2 Zr6 3.144943 1_555
In2 Zr4 3.144943 1_556
In2 Zr5 3.144943 1_456
In2 Zr7 3.144943 1_455
In2 Zr0 3.186815 1_456
In2 Zr1 3.186815 1_556
In2 Zr2 3.186815 1_455
In2 Zr3 3.186815 1_555
In3 Ni5 2.865337 1_555
In3 Ni6 2.865337 1_545
In3 Ni4 2.865337 1_545
In3 Ni7 2.865337 1_555
In3 Zr7 3.144943 1_555
In3 Zr5 3.144943 1_546
In3 Zr6 3.144943 1_545
In3 Zr4 3.144943 1_556
In3 Zr1 3.186815 1_546
In3 Zr2 3.186815 1_545
In3 Zr3 3.186815 1_555
In3 Zr0 3.186815 1_556
Ni0 Ni1 2.554815 1_555
Ni0 Zr3 2.675621 1_555
Ni0 Zr6 2.697145 1_555
Ni0 Zr7 2.697145 1_555
Ni0 Zr4 2.711931 1_555
Ni0 Zr1 2.755271 1_555
Ni0 Zr0 2.755271 1_555
Ni1 Zr2 2.675621 1_555
Ni1 Zr6 2.697145 1_555
Ni1 Zr7 2.697145 1_555
Ni1 Zr5 2.711931 1_555
Ni1 Zr0 2.755271 1_555
Ni1 Zr1 2.755271 1_555
Ni2 Ni3 2.554815 1_465
Ni2 Zr1 2.675621 1_555
Ni2 Zr4 2.697145 1_565
Ni2 Zr5 2.697145 1_455
Ni2 Zr6 2.711931 1_555
Ni2 Zr3 2.755271 1_565
Ni2 Zr2 2.755271 1_455
Ni3 Zr0 2.675621 1_555
Ni3 Zr4 2.697145 1_655
Ni3 Zr5 2.697145 1_545
Ni3 Zr7 2.711931 1_555
Ni3 Zr3 2.755271 1_655
Ni3 Zr2 2.755271 1_545
Ni4 Ni5 2.554815 1_555
Ni4 Zr2 2.675621 1_555
Ni4 Zr6 2.697145 1_555
Ni4 Zr7 2.697145 1_555
Ni4 Zr5 2.711931 1_556
Ni4 Zr1 2.755271 1_556
Ni4 Zr0 2.755271 1_556
Ni5 Zr3 2.675621 1_555
Ni5 Zr6 2.697145 1_555
Ni5 Zr7 2.697145 1_555
Ni5 Zr4 2.711931 1_556
Ni5 Zr0 2.755271 1_556
Ni5 Zr1 2.755271 1_556
Ni6 Ni7 2.554815 1_465
Ni6 Zr1 2.675621 1_556
Ni6 Zr4 2.697145 1_566
Ni6 Zr5 2.697145 1_456
Ni6 Zr6 2.711931 1_555
Ni6 Zr3 2.755271 1_565
Ni6 Zr2 2.755271 1_455
Ni7 Zr0 2.675621 1_556
Ni7 Zr4 2.697145 1_656
Ni7 Zr5 2.697145 1_546
Ni7 Zr7 2.711931 1_555
Ni7 Zr3 2.755271 1_655
Ni7 Zr2 2.755271 1_545
