# generated using pymatgen
data_Th(BRh)4
_symmetry_space_group_name_H-M   'P 1'
_cell_length_a   5.39230400
_cell_length_b   5.39230400
_cell_length_c   7.62243600
_cell_angle_alpha   90.00000000
_cell_angle_beta   90.00000000
_cell_angle_gamma   90.00000000
_symmetry_Int_Tables_number   1
_chemical_formula_structural   Th(BRh)4
_chemical_formula_sum   'Th2 B8 Rh8'
_cell_volume   221.63713274
_cell_formula_units_Z   2
loop_
 _symmetry_equiv_pos_site_id
 _symmetry_equiv_pos_as_xyz
  1  'x, y, z'
loop_
 _atom_site_type_symbol
 _atom_site_label
 _atom_site_symmetry_multiplicity
 _atom_site_fract_x
 _atom_site_fract_y
 _atom_site_fract_z
 _atom_site_occupancy
  Th  Th0  1  0.00000000  0.00000000  0.00000000  1
  Th  Th1  1  0.50000000  0.50000000  0.50000000  1
  B  B0  1  0.83387500  0.50000000  0.15209100  1
  B  B1  1  0.16612500  0.50000000  0.15209100  1
  B  B2  1  0.00000000  0.33387500  0.65209100  1
  B  B3  1  0.00000000  0.66612500  0.65209100  1
  B  B4  1  0.66612500  0.00000000  0.34790900  1
  B  B5  1  0.33387500  0.00000000  0.34790900  1
  B  B6  1  0.50000000  0.16612500  0.84790900  1
  B  B7  1  0.50000000  0.83387500  0.84790900  1
  Rh  Rh0  1  0.24953800  0.50000000  0.85521900  1
  Rh  Rh1  1  0.75046200  0.50000000  0.85521900  1
  Rh  Rh2  1  0.00000000  0.74953800  0.35521900  1
  Rh  Rh3  1  0.00000000  0.25046200  0.35521900  1
  Rh  Rh4  1  0.25046200  0.00000000  0.64478100  1
  Rh  Rh5  1  0.74953800  0.00000000  0.64478100  1
  Rh  Rh6  1  0.50000000  0.75046200  0.14478100  1
  Rh  Rh7  1  0.50000000  0.24953800  0.14478100  1
loop_
_geom_bond_atom_site_label_1
_geom_bond_atom_site_label_2
_geom_bond_distance
_geom_bond_site_symmetry_2
B0 B1 1.791593 1_655
B0 Rh2 2.238387 1_655
B0 Rh3 2.238387 1_655
B0 Rh6 2.251314 1_555
B0 Rh7 2.251314 1_555
B0 Rh1 2.307156 1_554
B0 Th0 3.068497 1_655
B0 Th0 3.068497 1_665
B0 Th1 3.205297 1_555
B1 Rh2 2.238387 1_555
B1 Rh3 2.238387 1_555
B1 Rh6 2.251314 1_555
B1 Rh7 2.251314 1_555
B1 Rh0 2.307156 1_554
B1 Th0 3.068497 1_565
B1 Th0 3.068497 1_555
B1 Th1 3.205297 1_555
B2 B3 1.791593 1_555
B2 Rh0 2.238387 1_555
B2 Rh1 2.238387 1_455
B2 Rh5 2.251314 1_455
B2 Rh4 2.251314 1_555
B2 Rh3 2.307156 1_555
B2 Th1 3.068497 1_555
B2 Th1 3.068497 1_455
B2 Th0 3.205297 1_556
B3 Rh0 2.238387 1_555
B3 Rh1 2.238387 1_455
B3 Rh5 2.251314 1_465
B3 Rh4 2.251314 1_565
B3 Rh2 2.307156 1_555
B3 Th1 3.068497 1_555
B3 Th1 3.068497 1_455
B3 Th0 3.205297 1_566
B4 B5 1.791593 1_555
B4 Rh7 2.238387 1_555
B4 Rh6 2.238387 1_545
B4 Rh2 2.251314 1_645
B4 Rh3 2.251314 1_655
B4 Rh5 2.307156 1_555
B4 Th1 3.068497 1_555
B4 Th1 3.068497 1_545
B4 Th0 3.205297 1_655
B5 Rh7 2.238387 1_555
B5 Rh6 2.238387 1_545
B5 Rh2 2.251314 1_545
B5 Rh3 2.251314 1_555
B5 Rh4 2.307156 1_555
B5 Th1 3.068497 1_555
B5 Th1 3.068497 1_545
B5 Th0 3.205297 1_555
B6 B7 1.791593 1_545
B6 Rh5 2.238387 1_555
B6 Rh4 2.238387 1_555
B6 Rh1 2.251314 1_555
B6 Rh0 2.251314 1_555
B6 Rh7 2.307156 1_556
B6 Th0 3.068497 1_656
B6 Th0 3.068497 1_556
B6 Th1 3.205297 1_555
B7 Rh4 2.238387 1_565
B7 Rh5 2.238387 1_565
B7 Rh1 2.251314 1_555
B7 Rh0 2.251314 1_555
B7 Rh6 2.307156 1_556
B7 Th0 3.068497 1_666
B7 Th0 3.068497 1_566
B7 Th1 3.205297 1_555
Rh0 Th1 3.025775 1_555
Rh0 Th0 3.209008 1_556
Rh0 Th0 3.209008 1_566
Rh1 Th1 3.025775 1_555
Rh1 Th0 3.209008 1_666
Rh1 Th0 3.209008 1_656
Rh2 Th0 3.025775 1_565
Rh2 Th1 3.209008 1_555
Rh2 Th1 3.209008 1_455
Rh3 Th0 3.025775 1_555
Rh3 Th1 3.209008 1_555
Rh3 Th1 3.209008 1_455
Rh4 Th0 3.025775 1_556
Rh4 Th1 3.209008 1_555
Rh4 Th1 3.209008 1_545
Rh5 Th0 3.025775 1_656
Rh5 Th1 3.209008 1_555
Rh5 Th1 3.209008 1_545
Rh6 Th1 3.025775 1_555
Rh6 Th0 3.209008 1_665
Rh6 Th0 3.209008 1_565
Rh7 Th1 3.025775 1_555
Rh7 Th0 3.209008 1_655
Rh7 Th0 3.209008 1_555
