# generated using pymatgen
data_Co2SiO4
_symmetry_space_group_name_H-M   'P 1'
_cell_length_a   5.80591519
_cell_length_b   5.80591519
_cell_length_c   5.80591519
_cell_angle_alpha   60.00000000
_cell_angle_beta   60.00000000
_cell_angle_gamma   60.00000000
_symmetry_Int_Tables_number   1
_chemical_formula_structural   Co2SiO4
_chemical_formula_sum   'Co4 Si2 O8'
_cell_volume   138.38756390
_cell_formula_units_Z   2
loop_
 _symmetry_equiv_pos_site_id
 _symmetry_equiv_pos_as_xyz
  1  'x, y, z'
loop_
 _atom_site_type_symbol
 _atom_site_label
 _atom_site_symmetry_multiplicity
 _atom_site_fract_x
 _atom_site_fract_y
 _atom_site_fract_z
 _atom_site_occupancy
  Co  Co0  1  0.87500000  0.37500000  0.37500000  1
  Co  Co1  1  0.37500000  0.37500000  0.37500000  1
  Co  Co2  1  0.37500000  0.87500000  0.37500000  1
  Co  Co3  1  0.37500000  0.37500000  0.87500000  1
  Si  Si0  1  0.00000000  0.00000000  0.00000000  1
  Si  Si1  1  0.75000000  0.75000000  0.75000000  1
  O  O0  1  0.11719900  0.11719900  0.11719900  1
  O  O1  1  0.11719900  0.11719900  0.64840300  1
  O  O2  1  0.63280100  0.63280100  0.63280100  1
  O  O3  1  0.64840300  0.11719900  0.11719900  1
  O  O4  1  0.63280100  0.63280100  0.10159700  1
  O  O5  1  0.11719900  0.64840300  0.11719900  1
  O  O6  1  0.10159700  0.63280100  0.63280100  1
  O  O7  1  0.63280100  0.10159700  0.63280100  1
loop_
_geom_bond_atom_site_label_1
_geom_bond_atom_site_label_2
_geom_bond_distance
_geom_bond_site_symmetry_2
Co0 O2 2.118691 1_555
Co0 O1 2.118691 1_655
Co0 O0 2.118691 1_655
Co0 O5 2.118691 1_655
Co0 O4 2.118691 1_555
Co0 O7 2.118691 1_555
Co1 O6 2.118691 1_555
Co1 O3 2.118691 1_555
Co1 O7 2.118691 1_555
Co1 O4 2.118691 1_555
Co1 O5 2.118691 1_555
Co1 O1 2.118691 1_555
Co2 O2 2.118691 1_555
Co2 O0 2.118691 1_565
Co2 O1 2.118691 1_565
Co2 O3 2.118691 1_565
Co2 O4 2.118691 1_555
Co2 O6 2.118691 1_555
Co3 O2 2.118691 1_555
Co3 O3 2.118691 1_556
Co3 O5 2.118691 1_556
Co3 O0 2.118691 1_556
Co3 O7 2.118691 1_555
Co3 O6 2.118691 1_555
O0 Si0 1.666749 1_555
O1 Si0 1.666749 1_556
O2 Si1 1.666749 1_555
O3 Si0 1.666749 1_655
O4 Si1 1.666749 1_554
O5 Si0 1.666749 1_565
O6 Si1 1.666749 1_455
O7 Si1 1.666749 1_545
