# generated using pymatgen
data_Y2AlSi2
_symmetry_space_group_name_H-M   'P 1'
_cell_length_a   4.09002695
_cell_length_b   5.60398488
_cell_length_c   5.60398533
_cell_angle_alpha   60.71465980
_cell_angle_beta   68.59725300
_cell_angle_gamma   68.59725383
_symmetry_Int_Tables_number   1
_chemical_formula_structural   Y2AlSi2
_chemical_formula_sum   'Y2 Al1 Si2'
_cell_volume   101.51841759
_cell_formula_units_Z   1
loop_
 _symmetry_equiv_pos_site_id
 _symmetry_equiv_pos_as_xyz
  1  'x, y, z'
loop_
 _atom_site_type_symbol
 _atom_site_label
 _atom_site_symmetry_multiplicity
 _atom_site_fract_x
 _atom_site_fract_y
 _atom_site_fract_z
 _atom_site_occupancy
  Y  Y0  1  0.78975262  0.71024738  0.71024738  1
  Y  Y1  1  0.21024738  0.28975262  0.28975262  1
  Al  Al0  1  0.00000000  -0.00000000  0.00000000  1
  Si  Si0  1  0.50000000  0.28958854  0.71041146  1
  Si  Si1  1  0.50000000  0.71041146  0.28958854  1
loop_
_geom_bond_atom_site_label_1
_geom_bond_atom_site_label_2
_geom_bond_distance
_geom_bond_site_symmetry_2
Al0 Si1 2.621607 1_445
Al0 Si0 2.621607 1_554
Al0 Si0 2.621607 1_454
Al0 Si1 2.621607 1_545
Si0 Si1 2.383714 1_555
Si0 Y0 2.999612 1_455
Si0 Y1 2.999612 1_655
Si0 Y0 2.999613 1_555
Si0 Y1 2.999613 1_555
Si0 Y0 3.023078 1_545
Si0 Y1 3.023079 1_556
Si1 Y1 2.999612 1_655
Si1 Y0 2.999612 1_455
Si1 Y1 2.999613 1_555
Si1 Y0 2.999613 1_555
Si1 Y1 3.023078 1_565
Si1 Y0 3.023079 1_554
