# generated using pymatgen
data_Ce4Se3N2
_symmetry_space_group_name_H-M   'P 1'
_cell_length_a   8.33568922
_cell_length_b   8.33568922
_cell_length_c   6.50426929
_cell_angle_alpha   90.17803823
_cell_angle_beta   90.17803823
_cell_angle_gamma   75.50873806
_symmetry_Int_Tables_number   1
_chemical_formula_structural   Ce4Se3N2
_chemical_formula_sum   'Ce8 Se6 N4'
_cell_volume   437.55928379
_cell_formula_units_Z   2
loop_
 _symmetry_equiv_pos_site_id
 _symmetry_equiv_pos_as_xyz
  1  'x, y, z'
loop_
 _atom_site_type_symbol
 _atom_site_label
 _atom_site_symmetry_multiplicity
 _atom_site_fract_x
 _atom_site_fract_y
 _atom_site_fract_z
 _atom_site_occupancy
  Ce  Ce0  1  0.80708928  0.44445481  0.02869716  1
  Ce  Ce1  1  0.55554519  0.19291072  0.47130284  1
  Ce  Ce2  1  0.19291072  0.55554519  0.97130284  1
  Ce  Ce3  1  0.44445481  0.80708928  0.52869716  1
  Ce  Ce4  1  0.24098583  0.08851752  0.07498253  1
  Ce  Ce5  1  0.91148248  0.75901417  0.42501747  1
  Ce  Ce6  1  0.75901417  0.91148248  0.92501747  1
  Ce  Ce7  1  0.08851752  0.24098583  0.57498253  1
  Se  Se0  1  0.90226254  0.09773746  0.25000000  1
  Se  Se1  1  0.09773746  0.90226254  0.75000000  1
  Se  Se2  1  0.48574749  0.74815986  0.03765773  1
  Se  Se3  1  0.25184014  0.51425251  0.46234227  1
  Se  Se4  1  0.51425251  0.25184014  0.96234227  1
  Se  Se5  1  0.74815986  0.48574749  0.53765773  1
  N  N0  1  0.91949746  0.66928474  0.08341247  1
  N  N1  1  0.33071526  0.08050254  0.41658753  1
  N  N2  1  0.08050254  0.33071526  0.91658753  1
  N  N3  1  0.66928474  0.91949746  0.58341247  1
loop_
_geom_bond_atom_site_label_1
_geom_bond_atom_site_label_2
_geom_bond_distance
_geom_bond_site_symmetry_2
Ce0 N0 2.321538 1_555
Ce0 N2 2.355733 1_654
Ce0 Se0 3.150461 1_555
Ce0 Se2 3.192744 1_555
Ce0 Se5 3.236191 1_554
Ce0 Se4 3.266983 1_554
Ce0 Se5 3.352169 1_555
Ce1 N1 2.321538 1_555
Ce1 N3 2.355733 1_545
Ce1 Se0 3.150461 1_555
Ce1 Se3 3.192744 1_555
Ce1 Se4 3.236191 1_555
Ce1 Se5 3.266983 1_555
Ce1 Se4 3.352169 1_554
Ce2 N2 2.321538 1_555
Ce2 N0 2.355733 1_456
Ce2 Se1 3.150461 1_555
Ce2 Se4 3.192744 1_555
Ce2 Se3 3.236191 1_556
Ce2 Se2 3.266983 1_556
Ce2 Se3 3.352169 1_555
Ce3 N3 2.321538 1_555
Ce3 N1 2.355733 1_565
Ce3 Se1 3.150461 1_555
Ce3 Se5 3.192744 1_555
Ce3 Se2 3.236191 1_555
Ce3 Se3 3.266983 1_555
Ce3 Se2 3.352169 1_556
Ce4 N1 2.338009 1_555
Ce4 N2 2.362113 1_554
Ce4 Se4 3.024472 1_554
Ce4 Se0 3.030629 1_455
Ce4 Se1 3.032495 1_544
Ce4 Se2 3.061486 1_545
Ce5 N0 2.338009 1_555
Ce5 N3 2.362113 1_555
Ce5 Se5 3.024472 1_555
Ce5 Se0 3.030629 1_565
Ce5 Se1 3.032495 1_655
Ce5 Se3 3.061486 1_655
Ce6 N3 2.338009 1_555
Ce6 N0 2.362113 1_556
Ce6 Se2 3.024472 1_556
Ce6 Se1 3.030629 1_655
Ce6 Se0 3.032495 1_566
Ce6 Se4 3.061486 1_565
Ce7 N2 2.338009 1_555
Ce7 N1 2.362113 1_555
Ce7 Se3 3.024472 1_555
Ce7 Se1 3.030629 1_545
Ce7 Se0 3.032495 1_455
Ce7 Se5 3.061486 1_455
