# generated using pymatgen
data_ZrAu4
_symmetry_space_group_name_H-M   'P 1'
_cell_length_a   4.93081182
_cell_length_b   5.07944016
_cell_length_c   14.45290451
_cell_angle_alpha   90.00000000
_cell_angle_beta   90.00000000
_cell_angle_gamma   90.00000000
_symmetry_Int_Tables_number   1
_chemical_formula_structural   ZrAu4
_chemical_formula_sum   'Zr4 Au16'
_cell_volume   361.98402940
_cell_formula_units_Z   4
loop_
 _symmetry_equiv_pos_site_id
 _symmetry_equiv_pos_as_xyz
  1  'x, y, z'
loop_
 _atom_site_type_symbol
 _atom_site_label
 _atom_site_symmetry_multiplicity
 _atom_site_fract_x
 _atom_site_fract_y
 _atom_site_fract_z
 _atom_site_occupancy
  Zr  Zr0  1  0.25000000  0.65528054  0.09810112  1
  Zr  Zr1  1  0.75000000  0.34471946  0.90189888  1
  Zr  Zr2  1  0.25000000  0.15528054  0.40189888  1
  Zr  Zr3  1  0.75000000  0.84471946  0.59810112  1
  Au  Au0  1  0.75000000  0.84503937  0.79850288  1
  Au  Au1  1  0.25000000  0.15496063  0.20149712  1
  Au  Au2  1  0.75000000  0.34503937  0.70149712  1
  Au  Au3  1  0.25000000  0.65496063  0.29850288  1
  Au  Au4  1  0.75000000  0.83876016  0.39918144  1
  Au  Au5  1  0.25000000  0.16123984  0.60081856  1
  Au  Au6  1  0.75000000  0.33876016  0.10081856  1
  Au  Au7  1  0.25000000  0.66123984  0.89918144  1
  Au  Au8  1  0.75000000  0.82103477  0.19616917  1
  Au  Au9  1  0.25000000  0.17896523  0.80383083  1
  Au  Au10  1  0.75000000  0.32103477  0.30383083  1
  Au  Au11  1  0.25000000  0.67896523  0.69616917  1
  Au  Au12  1  0.25000000  0.66042957  0.49974600  1
  Au  Au13  1  0.75000000  0.33957043  0.50025400  1
  Au  Au14  1  0.25000000  0.16042957  0.00025400  1
  Au  Au15  1  0.75000000  0.83957043  -0.00025400  1
loop_
_geom_bond_atom_site_label_1
_geom_bond_atom_site_label_2
_geom_bond_distance
_geom_bond_site_symmetry_2
Au0 Zr3 2.896388 1_555
Au0 Au2 2.901004 1_565
Au0 Au2 2.901004 1_555
Au0 Au15 2.908680 1_556
Au0 Zr1 2.945348 1_565
Au0 Zr1 2.948149 1_555
Au0 Au9 2.993510 1_565
Au0 Au9 2.993510 1_665
Au0 Au11 2.996218 1_555
Au0 Au11 2.996218 1_655
Au0 Au7 3.011170 1_555
Au0 Au7 3.011170 1_655
Au1 Zr2 2.896388 1_555
Au1 Au3 2.901004 1_545
Au1 Au3 2.901004 1_555
Au1 Au14 2.908680 1_555
Au1 Zr0 2.945348 1_545
Au1 Zr0 2.948149 1_555
Au1 Au8 2.993510 1_445
Au1 Au8 2.993510 1_545
Au1 Au10 2.996218 1_455
Au1 Au10 2.996218 1_555
Au1 Au6 3.011170 1_555
Au1 Au6 3.011170 1_455
Au2 Zr1 2.896388 1_555
Au2 Zr3 2.945348 1_555
Au2 Zr3 2.948149 1_545
Au2 Au9 2.996218 1_555
Au2 Au9 2.996218 1_655
Au2 Au5 3.011170 1_655
Au2 Au5 3.011170 1_555
Au3 Zr0 2.896388 1_555
Au3 Zr2 2.945348 1_555
Au3 Zr2 2.948149 1_565
Au3 Au8 2.996218 1_455
Au3 Au8 2.996218 1_555
Au3 Au4 3.011170 1_555
Au3 Au4 3.011170 1_455
Au4 Zr3 2.875126 1_555
Au4 Au8 2.935498 1_555
Au4 Zr2 2.943572 1_665
Au4 Zr2 2.943572 1_565
Au5 Zr2 2.875126 1_555
Au5 Au9 2.935498 1_555
Au5 Zr3 2.943572 1_545
Au5 Zr3 2.943572 1_445
Au6 Au8 2.810711 1_555
Au6 Zr1 2.875126 1_554
Au6 Zr0 2.943572 1_655
Au6 Zr0 2.943572 1_555
Au6 Au8 2.968965 1_545
Au7 Au9 2.810711 1_555
Au7 Zr0 2.875126 1_556
Au7 Zr1 2.943572 1_555
Au7 Zr1 2.943572 1_455
Au7 Au9 2.968965 1_565
Au8 Zr0 2.965808 1_555
Au8 Zr0 2.965808 1_655
Au9 Zr1 2.965808 1_555
Au9 Zr1 2.965808 1_455
Au10 Au4 2.810711 1_545
Au10 Au13 2.840446 1_555
Au10 Au6 2.935498 1_555
Au10 Zr2 2.965808 1_555
Au10 Zr2 2.965808 1_655
Au10 Au4 2.968965 1_555
Au10 Au8 2.978488 1_545
Au10 Au8 2.978488 1_555
Au10 Au3 2.993510 1_555
Au10 Au3 2.993510 1_655
Au11 Au5 2.810711 1_565
Au11 Au12 2.840446 1_555
Au11 Au7 2.935498 1_555
Au11 Zr3 2.965808 1_455
Au11 Zr3 2.965808 1_555
Au11 Au5 2.968965 1_555
Au11 Au9 2.978488 1_565
Au11 Au9 2.978488 1_555
Au11 Au2 2.993510 1_455
Au11 Au2 2.993510 1_555
Au12 Zr2 2.884078 1_565
Au12 Au3 2.908680 1_555
Au12 Au5 2.926295 1_555
Au12 Zr2 2.929778 1_555
Au12 Au5 2.933430 1_565
Au12 Au13 2.955415 1_555
Au12 Au13 2.955415 1_455
Au12 Zr3 2.995864 1_455
Au12 Zr3 2.995864 1_555
Au12 Au4 3.001875 1_455
Au12 Au4 3.001875 1_555
Au13 Zr3 2.884078 1_545
Au13 Au2 2.908680 1_555
Au13 Au4 2.926295 1_555
Au13 Zr3 2.929778 1_555
Au13 Au4 2.933430 1_545
Au13 Zr2 2.995864 1_555
Au13 Zr2 2.995864 1_655
Au13 Au5 3.001875 1_655
Au13 Au5 3.001875 1_555
Au14 Au9 2.840446 1_554
Au14 Zr0 2.884078 1_555
Au14 Au7 2.926295 1_544
Au14 Zr0 2.929778 1_545
Au14 Au7 2.933430 1_554
Au14 Au15 2.955415 1_445
Au14 Au15 2.955415 1_545
Au14 Zr1 2.995864 1_454
Au14 Zr1 2.995864 1_554
Au14 Au6 3.001875 1_455
Au14 Au6 3.001875 1_555
Au15 Au8 2.840446 1_555
Au15 Zr1 2.884078 1_554
Au15 Au6 2.926295 1_565
Au15 Zr1 2.929778 1_564
Au15 Au6 2.933430 1_555
Au15 Zr0 2.995864 1_655
Au15 Zr0 2.995864 1_555
Au15 Au7 3.001875 1_554
Au15 Au7 3.001875 1_654
