# generated using pymatgen
data_Li3FeNi2(PO4)3
_symmetry_space_group_name_H-M   'P 1'
_cell_length_a   5.97312300
_cell_length_b   13.95825621
_cell_length_c   11.27390017
_cell_angle_alpha   67.58292514
_cell_angle_beta   90.00000000
_cell_angle_gamma   90.00000000
_symmetry_Int_Tables_number   1
_chemical_formula_structural   Li3FeNi2(PO4)3
_chemical_formula_sum   'Li12 Fe4 Ni8 P12 O48'
_cell_volume   868.92437613
_cell_formula_units_Z   4
loop_
 _symmetry_equiv_pos_site_id
 _symmetry_equiv_pos_as_xyz
  1  'x, y, z'
loop_
 _atom_site_type_symbol
 _atom_site_label
 _atom_site_symmetry_multiplicity
 _atom_site_fract_x
 _atom_site_fract_y
 _atom_site_fract_z
 _atom_site_occupancy
  Li  Li0  1  0.99973500  0.66671500  0.83364700  1
  Li  Li1  1  0.99983800  0.99969500  0.50028000  1
  Li  Li2  1  0.99937900  0.33354600  0.16661300  1
  Li  Li3  1  0.50034000  0.66649300  0.33278500  1
  Li  Li4  1  0.50019700  0.99988500  0.99955200  1
  Li  Li5  1  0.50043700  0.33357200  0.66609600  1
  Li  Li6  1  0.50026500  0.66671500  0.83364700  1
  Li  Li7  1  0.50016200  0.99969500  0.50028000  1
  Li  Li8  1  0.50062100  0.33354600  0.16661300  1
  Li  Li9  1  0.99966000  0.66649300  0.33278500  1
  Li  Li10  1  0.99980300  0.99988500  0.99955200  1
  Li  Li11  1  0.99956300  0.33357200  0.66609600  1
  Fe  Fe0  1  0.75000000  0.91574400  0.30619500  1
  Fe  Fe1  1  0.75000000  0.24924700  0.97275900  1
  Fe  Fe2  1  0.75000000  0.58239600  0.63963200  1
  Fe  Fe3  1  0.75000000  0.23225400  0.48939500  1
  Ni  Ni0  1  0.75000000  0.56897900  0.15473700  1
  Ni  Ni1  1  0.75000000  0.90227100  0.82136100  1
  Ni  Ni2  1  0.25000000  0.08578000  0.68963100  1
  Ni  Ni3  1  0.25000000  0.42045400  0.35525800  1
  Ni  Ni4  1  0.25000000  0.75274100  0.02225200  1
  Ni  Ni5  1  0.25000000  0.76424500  0.51269400  1
  Ni  Ni6  1  0.25000000  0.09756000  0.17882700  1
  Ni  Ni7  1  0.25000000  0.43110300  0.84593400  1
  P  P0  1  0.75000000  0.49654600  0.91087600  1
  P  P1  1  0.75000000  0.82983100  0.57765200  1
  P  P2  1  0.75000000  0.16311400  0.24290200  1
  P  P3  1  0.75000000  0.77356500  0.13058200  1
  P  P4  1  0.75000000  0.10686900  0.79848600  1
  P  P5  1  0.75000000  0.44097000  0.46384700  1
  P  P6  1  0.25000000  0.83735000  0.75679800  1
  P  P7  1  0.25000000  0.17032900  0.42295000  1
  P  P8  1  0.25000000  0.50400900  0.09010900  1
  P  P9  1  0.25000000  0.55850900  0.53481300  1
  P  P10  1  0.25000000  0.89172100  0.20154800  1
  P  P11  1  0.25000000  0.22528200  0.86793600  1
  O  O0  1  0.75000000  0.72102700  0.68351100  1
  O  O1  1  0.75000000  0.05457200  0.35010800  1
  O  O2  1  0.75000000  0.38761100  0.01668300  1
  O  O3  1  0.75000000  0.88068000  0.01977200  1
  O  O4  1  0.75000000  0.21420200  0.68986900  1
  O  O5  1  0.75000000  0.54814100  0.35278900  1
  O  O6  1  0.25000000  0.61392500  0.98545300  1
  O  O7  1  0.25000000  0.94725600  0.65216800  1
  O  O8  1  0.25000000  0.28028400  0.31906600  1
  O  O9  1  0.25000000  0.45264600  0.64696900  1
  O  O10  1  0.25000000  0.78590300  0.31364300  1
  O  O11  1  0.25000000  0.11913600  0.98020300  1
  O  O12  1  0.75000000  0.44676100  0.59875900  1
  O  O13  1  0.75000000  0.78002400  0.26502700  1
  O  O14  1  0.75000000  0.11231000  0.93353800  1
  O  O15  1  0.75000000  0.58414300  0.96480400  1
  O  O16  1  0.75000000  0.91759500  0.63139500  1
  O  O17  1  0.75000000  0.25147400  0.29468600  1
  O  O18  1  0.25000000  0.88407800  0.06754600  1
  O  O19  1  0.25000000  0.21735100  0.73418700  1
  O  O20  1  0.25000000  0.55121400  0.40068400  1
  O  O21  1  0.25000000  0.75049800  0.70205900  1
  O  O22  1  0.25000000  0.08344100  0.36851000  1
  O  O23  1  0.25000000  0.41709200  0.03541900  1
  O  O24  1  0.95758200  0.51816000  0.81825500  1
  O  O25  1  0.95757100  0.85157900  0.48492000  1
  O  O26  1  0.95827800  0.18423600  0.15095200  1
  O  O27  1  0.54297600  0.70386500  0.12962300  1
  O  O28  1  0.54317300  0.03714000  0.79648700  1
  O  O29  1  0.54152900  0.37250700  0.46271400  1
  O  O30  1  0.45621200  0.81449600  0.85106900  1
  O  O31  1  0.45400000  0.14736400  0.51818300  1
  O  O32  1  0.45621200  0.48111500  0.18434300  1
  O  O33  1  0.04597200  0.62957600  0.53584900  1
  O  O34  1  0.04595300  0.96278100  0.20251200  1
  O  O35  1  0.04603200  0.29615900  0.86910600  1
  O  O36  1  0.04378800  0.81449600  0.85106900  1
  O  O37  1  0.04600000  0.14736400  0.51818300  1
  O  O38  1  0.04378800  0.48111500  0.18434300  1
  O  O39  1  0.45402800  0.62957600  0.53584900  1
  O  O40  1  0.45404700  0.96278100  0.20251200  1
  O  O41  1  0.45396800  0.29615900  0.86910600  1
  O  O42  1  0.54241800  0.51816000  0.81825500  1
  O  O43  1  0.54242900  0.85157900  0.48492000  1
  O  O44  1  0.54172200  0.18423600  0.15095200  1
  O  O45  1  0.95702400  0.70386500  0.12962300  1
  O  O46  1  0.95682700  0.03714000  0.79648700  1
  O  O47  1  0.95847100  0.37250700  0.46271400  1
loop_
_geom_bond_atom_site_label_1
_geom_bond_atom_site_label_2
_geom_bond_distance
_geom_bond_site_symmetry_2
Li0 O15 2.107169 1_555
Li0 O21 2.116569 1_655
Li0 O24 2.160469 1_555
Li0 O36 2.161441 1_655
Li0 O0 2.164756 1_555
Li0 O6 2.178256 1_655
Li1 O16 2.105540 1_555
Li1 O22 2.116994 1_665
Li1 O25 2.154319 1_555
Li1 O37 2.163936 1_665
Li1 O1 2.165867 1_565
Li1 O7 2.178258 1_655
Li2 O17 2.086725 1_555
Li2 O23 2.114955 1_655
Li2 O38 2.160356 1_655
Li2 O2 2.161607 1_555
Li2 O26 2.171542 1_555
Li2 O8 2.184765 1_655
Li3 O13 2.096509 1_555
Li3 O20 2.114633 1_555
Li3 O27 2.161428 1_555
Li3 O39 2.164098 1_555
Li3 O5 2.172464 1_555
Li3 O10 2.187754 1_555
Li4 O14 2.086165 1_565
Li4 O18 2.118704 1_556
Li4 O28 2.160877 1_565
Li4 O40 2.162411 1_556
Li4 O3 2.181191 1_556
Li4 O11 2.185117 1_565
Li5 O12 2.092794 1_555
Li5 O19 2.123407 1_555
Li5 O29 2.159311 1_555
Li5 O41 2.162497 1_555
Li5 O4 2.174753 1_555
Li5 O9 2.184788 1_555
Li6 O15 2.107169 1_555
Li6 O21 2.116569 1_555
Li6 O42 2.160469 1_555
Li6 O30 2.161441 1_555
Li6 O0 2.164756 1_555
Li6 O6 2.178256 1_555
Li7 O16 2.105540 1_555
Li7 O22 2.116994 1_565
Li7 O43 2.154319 1_555
Li7 O31 2.163936 1_565
Li7 O1 2.165867 1_565
Li7 O7 2.178258 1_555
Li8 O17 2.086725 1_555
Li8 O23 2.114955 1_555
Li8 O32 2.160356 1_555
Li8 O2 2.161607 1_555
Li8 O44 2.171542 1_555
Li8 O8 2.184765 1_555
Li9 O13 2.096509 1_555
Li9 O20 2.114633 1_655
Li9 O45 2.161428 1_555
Li9 O33 2.164098 1_655
Li9 O5 2.172464 1_555
Li9 O10 2.187754 1_655
Li10 O14 2.086165 1_565
Li10 O18 2.118704 1_656
Li10 O46 2.160877 1_565
Li10 O34 2.162411 1_656
Li10 O3 2.181191 1_556
Li10 O11 2.185117 1_665
Li11 O12 2.092794 1_555
Li11 O19 2.123407 1_655
Li11 O47 2.159311 1_555
Li11 O35 2.162497 1_655
Li11 O4 2.174753 1_555
Li11 O9 2.184788 1_655
Fe0 O34 2.082565 1_655
Fe0 O40 2.082565 1_555
Fe0 O13 2.115374 1_555
Fe0 O1 2.175279 1_565
Fe0 O43 2.241190 1_555
Fe0 O25 2.241190 1_555
Fe1 O41 2.082640 1_555
Fe1 O35 2.082640 1_655
Fe1 O14 2.119806 1_555
Fe1 O2 2.169018 1_556
Fe1 O44 2.239773 1_556
Fe1 O26 2.239773 1_556
Fe2 O33 2.083361 1_655
Fe2 O39 2.083361 1_555
Fe2 O12 2.112349 1_555
Fe2 O0 2.172373 1_555
Fe2 O42 2.240424 1_555
Fe2 O24 2.240424 1_555
Fe3 O31 2.083755 1_555
Fe3 O37 2.083755 1_655
Fe3 O17 2.107467 1_555
Fe3 O4 2.176535 1_555
Fe3 O47 2.241534 1_555
Fe3 O29 2.241534 1_555
Ni0 O15 2.069838 1_554
Ni0 O38 2.093504 1_655
Ni0 O32 2.093504 1_555
Ni0 O5 2.138868 1_555
Ni0 O45 2.178889 1_555
Ni0 O27 2.178889 1_555
Ni1 O16 2.069557 1_555
Ni1 O36 2.092779 1_655
Ni1 O30 2.092779 1_555
Ni1 O3 2.140150 1_556
Ni1 O46 2.178570 1_565
Ni1 O28 2.178570 1_565
Ni2 O19 2.080542 1_555
Ni2 O28 2.086855 1_555
Ni2 O46 2.086855 1_455
Ni2 O7 2.130695 1_545
Ni2 O37 2.166225 1_555
Ni2 O31 2.166225 1_555
Ni3 O20 2.075204 1_555
Ni3 O29 2.080722 1_555
Ni3 O47 2.080722 1_455
Ni3 O8 2.145543 1_555
Ni3 O38 2.168548 1_555
Ni3 O32 2.168548 1_555
Ni4 O18 2.082181 1_555
Ni4 O27 2.088852 1_555
Ni4 O45 2.088852 1_455
Ni4 O6 2.130639 1_554
Ni4 O30 2.171617 1_554
Ni4 O36 2.171617 1_554
Ni5 O21 2.069325 1_555
Ni5 O43 2.084219 1_555
Ni5 O25 2.084219 1_455
Ni5 O10 2.147062 1_555
Ni5 O39 2.170834 1_555
Ni5 O33 2.170834 1_555
Ni6 O22 2.071340 1_555
Ni6 O44 2.075761 1_555
Ni6 O26 2.075761 1_455
Ni6 O11 2.142585 1_554
Ni6 O34 2.170910 1_545
Ni6 O40 2.170910 1_545
Ni7 O23 2.069567 1_556
Ni7 O42 2.082204 1_555
Ni7 O24 2.082204 1_455
Ni7 O9 2.146515 1_555
Ni7 O41 2.173742 1_555
Ni7 O35 2.173742 1_555
O0 P1 1.532456 1_555
O1 P2 1.536094 1_555
O2 P0 1.533491 1_554
O3 P3 1.539975 1_555
O4 P4 1.531281 1_555
O5 P5 1.541726 1_555
O6 P8 1.537973 1_556
O7 P6 1.537762 1_555
O8 P7 1.535014 1_555
O9 P9 1.535338 1_555
O10 P10 1.534617 1_555
O11 P11 1.538472 1_555
O12 P5 1.553608 1_555
O13 P3 1.552339 1_555
O14 P4 1.553112 1_555
O15 P0 1.559360 1_555
O16 P1 1.560099 1_555
O17 P2 1.552790 1_555
O18 P10 1.554540 1_555
O19 P11 1.553463 1_555
O20 P9 1.553841 1_555
O21 P6 1.555994 1_555
O22 P7 1.554125 1_555
O23 P8 1.556455 1_555
O24 P0 1.574321 1_555
O25 P1 1.574894 1_555
O26 P2 1.573577 1_555
O27 P3 1.576003 1_555
O28 P4 1.578215 1_555
O29 P5 1.572664 1_555
O30 P6 1.577938 1_555
O31 P7 1.574093 1_555
O32 P8 1.577659 1_555
O33 P9 1.574221 1_555
O34 P10 1.574046 1_555
O35 P11 1.572640 1_555
O36 P6 1.577938 1_555
O37 P7 1.574093 1_555
O38 P8 1.577659 1_555
O39 P9 1.574221 1_555
O40 P10 1.574046 1_555
O41 P11 1.572640 1_555
O42 P0 1.574321 1_555
O43 P1 1.574894 1_555
O44 P2 1.573577 1_555
O45 P3 1.576003 1_555
O46 P4 1.578215 1_555
O47 P5 1.572664 1_555
