# generated using pymatgen
data_Dy6GaNi2
_symmetry_space_group_name_H-M   'P 1'
_cell_length_a   8.28022523
_cell_length_b   8.28022523
_cell_length_c   8.28022581
_cell_angle_alpha   112.37316623
_cell_angle_beta   109.19673682
_cell_angle_gamma   106.89087186
_symmetry_Int_Tables_number   1
_chemical_formula_structural   Dy6GaNi2
_chemical_formula_sum   'Dy12 Ga2 Ni4'
_cell_volume   436.01032599
_cell_formula_units_Z   2
loop_
 _symmetry_equiv_pos_site_id
 _symmetry_equiv_pos_as_xyz
  1  'x, y, z'
loop_
 _atom_site_type_symbol
 _atom_site_label
 _atom_site_symmetry_multiplicity
 _atom_site_fract_x
 _atom_site_fract_y
 _atom_site_fract_z
 _atom_site_occupancy
  Dy  Dy0  1  0.03726939  0.73336328  0.30390611  1
  Dy  Dy1  1  0.96273061  0.26663672  0.69609389  1
  Dy  Dy2  1  0.57054283  0.26663672  0.30390611  1
  Dy  Dy3  1  0.42945717  0.73336328  0.69609389  1
  Dy  Dy4  1  0.67245361  0.86544580  0.19299219  1
  Dy  Dy5  1  0.32754739  0.52054059  0.19299219  1
  Dy  Dy6  1  0.32754739  0.13455420  0.80700781  1
  Dy  Dy7  1  0.67245361  0.47945941  0.80700781  1
  Dy  Dy8  1  0.17932345  0.21338119  0.39270464  1
  Dy  Dy9  1  0.82067655  0.21338119  0.03405875  1
  Dy  Dy10  1  0.17932345  0.78661881  0.96594125  1
  Dy  Dy11  1  0.82067655  0.78661881  0.60729536  1
  Ga  Ga0  1  0.00000000  0.50000000  0.50000000  1
  Ga  Ga1  1  0.50000000  0.00000000  0.50000000  1
  Ni  Ni0  1  0.64945185  0.50000000  0.14945185  1
  Ni  Ni1  1  0.35054815  0.50000000  0.85054815  1
  Ni  Ni2  1  0.87768592  0.87768592  0.00000000  1
  Ni  Ni3  1  0.12231408  0.12231408  0.00000000  1
loop_
_geom_bond_atom_site_label_1
_geom_bond_atom_site_label_2
_geom_bond_distance
_geom_bond_site_symmetry_2
Dy0 Ni0 2.737424 1_455
Dy0 Ga0 2.972695 1_555
Dy0 Ga1 3.233478 1_565
Dy0 Ni2 3.244481 1_455
Dy1 Ni1 2.737424 1_655
Dy1 Ga0 2.972695 1_655
Dy1 Ga1 3.233478 1_555
Dy1 Ni3 3.244481 1_656
Dy2 Ni0 2.737424 1_555
Dy2 Ga0 2.972695 1_655
Dy2 Ga1 3.233478 1_555
Dy2 Ni3 3.244481 1_555
Dy3 Ni1 2.737424 1_555
Dy3 Ga0 2.972695 1_555
Dy3 Ga1 3.233478 1_565
Dy3 Ni2 3.244481 1_556
Dy4 Ni2 2.694600 1_555
Dy4 Ni0 2.848194 1_555
Dy4 Ni1 2.848194 1_554
Dy4 Ga1 3.301236 1_565
Dy5 Ni3 2.694615 1_555
Dy5 Ni1 2.848186 1_554
Dy5 Ni0 2.848190 1_555
Dy5 Ga1 3.301224 1_565
Dy6 Ni3 2.694607 1_556
Dy6 Ni0 2.848191 1_556
Dy6 Ni1 2.848196 1_555
Dy6 Ga1 3.301229 1_555
Dy7 Ni2 2.694614 1_556
Dy7 Ni0 2.848189 1_556
Dy7 Ni1 2.848198 1_555
Dy7 Ga1 3.301223 1_555
Dy8 Ni2 2.877845 1_445
Dy8 Ni3 2.877845 1_555
Dy8 Ni1 3.110515 1_555
Dy8 Ga0 3.152236 1_555
Dy8 Ga1 3.651213 1_555
Dy9 Ni2 2.877843 1_545
Dy9 Ni3 2.877848 1_655
Dy9 Ni0 3.110513 1_555
Dy9 Ga0 3.152230 1_655
Dy9 Ga1 3.651220 1_554
Dy10 Ni3 2.877843 1_566
Dy10 Ni2 2.877848 1_456
Dy10 Ni1 3.110513 1_555
Dy10 Ga0 3.152230 1_555
Dy10 Ga1 3.651220 1_566
Dy11 Ni3 2.877845 1_666
Dy11 Ni2 2.877845 1_556
Dy11 Ni0 3.110515 1_555
Dy11 Ga0 3.152236 1_655
Dy11 Ga1 3.651213 1_565
Ni2 Ni3 2.412818 1_665
