# generated using pymatgen
data_Sr2VMoO6
_symmetry_space_group_name_H-M   'P 1'
_cell_length_a   6.92367076
_cell_length_b   6.92390302
_cell_length_c   6.92341191
_cell_angle_alpha   70.48487951
_cell_angle_beta   70.73900284
_cell_angle_gamma   109.63649379
_symmetry_Int_Tables_number   1
_chemical_formula_structural   Sr2VMoO6
_chemical_formula_sum   'Sr4 V2 Mo2 O12'
_cell_volume   255.49808734
_cell_formula_units_Z   2
loop_
 _symmetry_equiv_pos_site_id
 _symmetry_equiv_pos_as_xyz
  1  'x, y, z'
loop_
 _atom_site_type_symbol
 _atom_site_label
 _atom_site_symmetry_multiplicity
 _atom_site_fract_x
 _atom_site_fract_y
 _atom_site_fract_z
 _atom_site_occupancy
  Sr  Sr0  1  0.50000000  0.50000000  0.50000000  1
  Sr  Sr1  1  0.00000000  0.50000000  0.00000000  1
  Sr  Sr2  1  0.50000000  0.00000000  0.00000000  1
  Sr  Sr3  1  0.00000000  0.00000000  0.50000000  1
  V  V0  1  0.50000000  0.00000000  0.50000000  1
  V  V1  1  0.00000000  0.00000000  0.00000000  1
  Mo  Mo0  1  0.00000000  0.50000000  0.50000000  1
  Mo  Mo1  1  0.50000000  0.50000000  0.00000000  1
  O  O0  1  0.24984900  0.99996800  0.75016000  1
  O  O1  1  0.75015100  0.00003200  0.24984000  1
  O  O2  1  0.75906900  0.50001200  0.74088700  1
  O  O3  1  0.24093100  0.49998800  0.25911400  1
  O  O4  1  0.23734800  0.23734400  0.00003200  1
  O  O5  1  0.74891600  0.24895000  0.50000200  1
  O  O6  1  0.76265200  0.76265600  0.99996800  1
  O  O7  1  0.25108400  0.75105000  0.49999800  1
  O  O8  1  0.50001300  0.23763700  0.26235100  1
  O  O9  1  0.00006300  0.24910800  0.75089800  1
  O  O10  1  0.49998600  0.76236400  0.73764900  1
  O  O11  1  0.99993700  0.75089200  0.24910200  1
loop_
_geom_bond_atom_site_label_1
_geom_bond_atom_site_label_2
_geom_bond_distance
_geom_bond_site_symmetry_2
Mo0 O3 1.931013 1_555
Mo0 O2 1.931017 1_455
Mo0 O7 2.003151 1_555
Mo0 O5 2.003151 1_455
Mo0 O9 2.005008 1_555
Mo0 O11 2.005008 1_455
Mo1 O2 2.076656 1_554
Mo1 O3 2.076660 1_555
Mo1 O6 2.095480 1_554
Mo1 O4 2.095480 1_555
Mo1 O8 2.096394 1_555
Mo1 O10 2.096402 1_554
O0 V1 2.002718 1_566
O0 V0 2.004954 1_565
O0 Sr2 2.822802 1_566
O0 Sr1 2.822864 1_556
O0 Sr3 2.822904 1_565
O0 Sr0 2.823225 1_565
O1 V1 2.002718 1_655
O1 V0 2.004954 1_555
O1 Sr2 2.822802 1_555
O1 Sr1 2.822864 1_655
O1 Sr3 2.822904 1_655
O1 Sr0 2.823225 1_545
O2 Sr0 2.823546 1_555
O2 Sr3 2.823917 1_665
O2 Sr1 2.824037 1_656
O2 Sr2 2.824051 1_556
O3 Sr0 2.823541 1_555
O3 Sr3 2.823917 1_555
O3 Sr1 2.824043 1_555
O3 Sr2 2.824051 1_565
O4 V1 1.893813 1_555
O4 Sr3 2.831004 1_555
O4 Sr2 2.831274 1_555
O4 Sr1 2.831326 1_555
O4 Sr0 2.831378 1_554
O5 V0 1.986141 1_555
O5 Sr0 2.829325 1_555
O5 Sr2 2.829395 1_556
O5 Sr1 2.829420 1_655
O5 Sr3 2.829709 1_655
O6 V1 1.893813 1_666
O6 Sr3 2.831004 1_665
O6 Sr2 2.831274 1_566
O6 Sr1 2.831326 1_656
O6 Sr0 2.831378 1_556
O7 V0 1.986141 1_565
O7 Sr0 2.829325 1_555
O7 Sr2 2.829395 1_565
O7 Sr1 2.829420 1_556
O7 Sr3 2.829709 1_565
O8 V0 1.898815 1_555
O8 Sr2 2.828987 1_555
O8 Sr1 2.829040 1_655
O8 Sr0 2.829138 1_555
O8 Sr3 2.829183 1_555
O9 V1 1.990202 1_556
O9 Sr0 2.827040 1_555
O9 Sr1 2.827315 1_556
O9 Sr3 2.827378 1_555
O9 Sr2 2.827752 1_456
O10 V0 1.898807 1_565
O10 Sr2 2.828981 1_566
O10 Sr1 2.829035 1_556
O10 Sr0 2.829144 1_555
O10 Sr3 2.829189 1_665
O11 V1 1.990202 1_665
O11 Sr0 2.827040 1_555
O11 Sr1 2.827315 1_655
O11 Sr3 2.827378 1_665
O11 Sr2 2.827752 1_665
