# generated using pymatgen
data_MgV3CoSn2(PO4)6
_symmetry_space_group_name_H-M   'P 1'
_cell_length_a   9.73720710
_cell_length_b   8.50326614
_cell_length_c   8.46540728
_cell_angle_alpha   60.30382020
_cell_angle_beta   64.04105894
_cell_angle_gamma   64.17007962
_symmetry_Int_Tables_number   1
_chemical_formula_structural   MgV3CoSn2(PO4)6
_chemical_formula_sum   'Mg1 V3 Co1 Sn2 P6 O24'
_cell_volume   525.50326130
_cell_formula_units_Z   1
loop_
 _symmetry_equiv_pos_site_id
 _symmetry_equiv_pos_as_xyz
  1  'x, y, z'
loop_
 _atom_site_type_symbol
 _atom_site_label
 _atom_site_symmetry_multiplicity
 _atom_site_fract_x
 _atom_site_fract_y
 _atom_site_fract_z
 _atom_site_occupancy
  Mg  Mg0  1  0.67703700  0.44334500  0.44917100  1
  V  V0  1  0.01729600  0.66125600  0.66502500  1
  V  V1  1  0.46270500  0.84613400  0.84351200  1
  V  V2  1  0.99847500  0.33061800  0.33620900  1
  Co  Co0  1  0.52086700  0.16038200  0.15181700  1
  Sn  Sn0  1  0.91249500  0.03204000  0.02924200  1
  Sn  Sn1  1  0.36515500  0.54250300  0.53894400  1
  P  P0  1  0.26276000  0.24252600  0.53082500  1
  P  P1  1  0.26103300  0.96037200  0.24356300  1
  P  P2  1  0.26320900  0.53263600  0.95838400  1
  P  P3  1  0.75409700  0.46646600  0.03519700  1
  P  P4  1  0.75641000  0.03066900  0.75039700  1
  P  P5  1  0.75874300  0.74808500  0.46423300  1
  O  O0  1  0.10739700  0.12646100  0.24619000  1
  O  O1  1  0.11610500  0.51295900  0.13141400  1
  O  O2  1  0.11113500  0.23554300  0.51947700  1
  O  O3  1  0.31869800  0.07044100  0.69298200  1
  O  O4  1  0.39455000  0.28985700  0.34510000  1
  O  O5  1  0.19671300  0.42498400  0.58973300  1
  O  O6  1  0.31396300  0.92252800  0.06576500  1
  O  O7  1  0.19925400  0.78223400  0.42313000  1
  O  O8  1  0.60953300  0.63594600  0.01527000  1
  O  O9  1  0.19818700  0.59046800  0.78156000  1
  O  O10  1  0.72528200  0.29148200  0.05389200  1
  O  O11  1  0.61575400  0.00683300  0.74009400  1
  O  O12  1  0.39322300  0.96793600  0.28863300  1
  O  O13  1  0.31891000  0.69443800  0.91436600  1
  O  O14  1  0.80606300  0.42012200  0.20643200  1
  O  O15  1  0.39897900  0.35147600  0.95700900  1
  O  O16  1  0.80741600  0.20240500  0.57552500  1
  O  O17  1  0.72192500  0.05337600  0.93667100  1
  O  O18  1  0.81628200  0.56961300  0.41790700  1
  O  O19  1  0.61171800  0.73835100  0.63327500  1
  O  O20  1  0.72748900  0.93040300  0.28922900  1
  O  O21  1  0.90850800  0.74631700  0.49391200  1
  O  O22  1  0.90977200  0.49215300  0.86227400  1
  O  O23  1  0.91286500  0.86070800  0.74551900  1
loop_
_geom_bond_atom_site_label_1
_geom_bond_atom_site_label_2
_geom_bond_distance
_geom_bond_site_symmetry_2
Mg0 O16 1.924664 1_555
Mg0 O18 1.932373 1_555
Mg0 O14 1.940542 1_555
Mg0 Sn1 2.625665 1_555
Co0 O15 2.036300 1_554
Co0 O12 2.048982 1_545
Co0 O4 2.060373 1_555
Co0 O17 2.223947 1_554
Co0 O10 2.337767 1_555
Co0 O20 2.364684 1_545
O0 P1 1.547246 1_545
O0 V2 1.928222 1_455
O1 P2 1.534432 1_554
O1 V2 1.966563 1_455
O2 P0 1.548785 1_555
O2 V2 1.933484 1_455
O3 P0 1.513964 1_555
O3 V1 2.013351 1_545
O4 P0 1.528879 1_555
O5 P0 1.638822 1_555
O5 Sn1 2.063670 1_555
O5 V0 2.174889 1_555
O6 P1 1.513558 1_555
O6 V1 2.016198 1_554
O7 P1 1.636813 1_555
O7 Sn1 2.064711 1_555
O7 V0 2.171514 1_555
O8 P3 1.511978 1_555
O8 V1 2.090676 1_554
O9 P2 1.646936 1_555
O9 Sn1 2.087280 1_555
O9 V0 2.108778 1_555
O10 P3 1.552201 1_555
O10 Sn0 2.202773 1_555
O11 P4 1.512770 1_555
O11 V1 2.074034 1_545
O12 P1 1.527377 1_555
O13 P2 1.513714 1_555
O13 V1 2.013978 1_555
O14 P3 1.554023 1_555
O14 V2 2.242181 1_555
O15 P2 1.533147 1_555
O16 P4 1.554702 1_555
O16 V2 2.243523 1_555
O17 P4 1.555064 1_555
O17 Sn0 2.220173 1_556
O18 P5 1.557946 1_555
O18 V2 2.220890 1_555
O19 P5 1.515439 1_555
O19 V1 2.075905 1_555
O20 P5 1.548803 1_555
O20 Sn0 2.199347 1_565
O21 P5 1.577301 1_555
O21 V0 1.838779 1_655
O22 P3 1.586655 1_556
O22 V0 1.831513 1_655
O23 P4 1.580100 1_565
O23 V0 1.846714 1_655
