# generated using pymatgen
data_Te4Mo3W(SeS)2
_symmetry_space_group_name_H-M   'P 1'
_cell_length_a   3.40150771
_cell_length_b   3.40150771
_cell_length_c   40.68593200
_cell_angle_alpha   90.00000000
_cell_angle_beta   90.00000000
_cell_angle_gamma   119.99999429
_symmetry_Int_Tables_number   1
_chemical_formula_structural   Te4Mo3W(SeS)2
_chemical_formula_sum   'Te4 Mo3 W1 Se2 S2'
_cell_volume   407.67853345
_cell_formula_units_Z   1
loop_
 _symmetry_equiv_pos_site_id
 _symmetry_equiv_pos_as_xyz
  1  'x, y, z'
loop_
 _atom_site_type_symbol
 _atom_site_label
 _atom_site_symmetry_multiplicity
 _atom_site_fract_x
 _atom_site_fract_y
 _atom_site_fract_z
 _atom_site_occupancy
  Te  Te0  1  0.33333300  0.66666700  0.70620500  1
  Te  Te1  1  0.66666700  0.33333300  0.42128900  1
  Te  Te2  1  0.66666700  0.33333300  0.51337600  1
  Te  Te3  1  0.33333300  0.66666700  0.61359200  1
  Mo  Mo0  1  0.33333300  0.66666700  0.09397500  1
  Mo  Mo1  1  0.33333300  0.66666700  0.46733900  1
  Mo  Mo2  1  0.66666700  0.33333300  0.28170100  1
  W  W0  1  0.66666700  0.33333300  0.65991300  1
  Se  Se0  1  0.66666700  0.33333300  0.05346900  1
  Se  Se1  1  0.66666700  0.33333300  0.13448400  1
  S  S0  1  0.33333300  0.66666700  0.31863400  1
  S  S1  1  0.33333300  0.66666700  0.24477100  1
loop_
_geom_bond_atom_site_label_1
_geom_bond_atom_site_label_2
_geom_bond_distance
_geom_bond_site_symmetry_2
Te0 W0 2.721041 1_455
Te0 W0 2.721041 1_565
Te0 W0 2.721045 1_555
Te3 W0 2.721858 1_455
Te3 W0 2.721858 1_565
Te3 W0 2.721862 1_555
Mo0 Se0 2.563733 1_455
Mo0 Se0 2.563733 1_565
Mo0 Se0 2.563738 1_555
Mo0 Se1 2.563812 1_455
Mo0 Se1 2.563812 1_565
Mo0 Se1 2.563816 1_555
Mo1 Te2 2.713870 1_455
Mo1 Te2 2.713870 1_565
Mo1 Te2 2.713874 1_555
Mo1 Te1 2.714235 1_455
Mo1 Te1 2.714235 1_565
Mo1 Te1 2.714239 1_555
Mo2 S1 2.472720 1_545
Mo2 S1 2.472720 1_655
Mo2 S1 2.472725 1_555
Mo2 S0 2.472794 1_545
Mo2 S0 2.472794 1_655
Mo2 S0 2.472799 1_555
