# generated using pymatgen
data_Li4Mn3CoO8
_symmetry_space_group_name_H-M   'P 1'
_cell_length_a   5.13711986
_cell_length_b   5.13711986
_cell_length_c   10.90929229
_cell_angle_alpha   85.00128809
_cell_angle_beta   85.00128809
_cell_angle_gamma   32.28215984
_symmetry_Int_Tables_number   1
_chemical_formula_structural   Li4Mn3CoO8
_chemical_formula_sum   'Li4 Mn3 Co1 O8'
_cell_volume   153.12835255
_cell_formula_units_Z   1
loop_
 _symmetry_equiv_pos_site_id
 _symmetry_equiv_pos_as_xyz
  1  'x, y, z'
loop_
 _atom_site_type_symbol
 _atom_site_label
 _atom_site_symmetry_multiplicity
 _atom_site_fract_x
 _atom_site_fract_y
 _atom_site_fract_z
 _atom_site_occupancy
  Li  Li0  1  0.25502800  0.25502800  0.11351400  1
  Li  Li1  1  0.74895100  0.74895100  0.37771000  1
  Li  Li2  1  0.25104900  0.25104900  0.62229000  1
  Li  Li3  1  0.74497200  0.74497200  0.88648600  1
  Mn  Mn0  1  0.50932600  0.50932600  0.24173800  1
  Mn  Mn1  1  0.00000000  0.00000000  0.50000000  1
  Mn  Mn2  1  0.49067400  0.49067400  0.75826200  1
  Co  Co0  1  0.00000000  0.00000000  0.00000000  1
  O  O0  1  0.37849100  0.37849100  0.94548700  1
  O  O1  1  0.89531200  0.89531200  0.18135600  1
  O  O2  1  0.38420500  0.38420500  0.44359000  1
  O  O3  1  0.87961500  0.87961500  0.69538100  1
  O  O4  1  0.12038500  0.12038500  0.30461900  1
  O  O5  1  0.61579500  0.61579500  0.55641000  1
  O  O6  1  0.10468800  0.10468800  0.81864400  1
  O  O7  1  0.62150900  0.62150900  0.05451300  1
loop_
_geom_bond_atom_site_label_1
_geom_bond_atom_site_label_2
_geom_bond_distance
_geom_bond_site_symmetry_2
Li0 O7 2.084264 1_545
Li0 O7 2.084264 1_455
Li0 O0 2.107034 1_554
Li0 O1 2.165654 1_545
Li0 O1 2.165654 1_455
Li0 O4 2.368470 1_555
Li1 O4 2.113977 1_565
Li1 O4 2.113977 1_655
Li1 O2 2.124144 1_565
Li1 O2 2.124144 1_655
Li1 O5 2.250048 1_555
Li1 O1 2.472585 1_555
Li2 O3 2.113977 1_545
Li2 O3 2.113977 1_455
Li2 O5 2.124144 1_545
Li2 O5 2.124144 1_455
Li2 O2 2.250048 1_555
Li2 O6 2.472585 1_555
Li3 O0 2.084264 1_565
Li3 O0 2.084264 1_655
Li3 O7 2.107034 1_556
Li3 O6 2.165654 1_565
Li3 O6 2.165654 1_655
Li3 O3 2.368470 1_555
Mn0 O4 1.961612 1_565
Mn0 O4 1.961612 1_655
Mn0 O1 1.968275 1_545
Mn0 O1 1.968275 1_455
Mn0 O7 2.233232 1_555
Mn0 O2 2.424998 1_555
Mn1 O5 1.962621 1_545
Mn1 O5 1.962621 1_455
Mn1 O2 1.962621 1_545
Mn1 O2 1.962621 1_455
Mn1 O3 2.344212 1_445
Mn1 O4 2.344212 1_555
Mn2 O3 1.961612 1_545
Mn2 O3 1.961612 1_455
Mn2 O6 1.968275 1_565
Mn2 O6 1.968275 1_655
Mn2 O0 2.233232 1_555
Mn2 O5 2.424998 1_555
Co0 O7 1.990152 1_545
Co0 O7 1.990152 1_455
Co0 O0 1.990152 1_454
Co0 O0 1.990152 1_544
Co0 O1 2.147316 1_445
Co0 O6 2.147316 1_554
