# generated using pymatgen
data_MoW3S8
_symmetry_space_group_name_H-M   'P 1'
_cell_length_a   3.18463015
_cell_length_b   3.18463015
_cell_length_c   34.70023046
_cell_angle_alpha   90.00000000
_cell_angle_beta   90.00000000
_cell_angle_gamma   119.99999272
_symmetry_Int_Tables_number   1
_chemical_formula_structural   MoW3S8
_chemical_formula_sum   'Mo1 W3 S8'
_cell_volume   304.77618420
_cell_formula_units_Z   1
loop_
 _symmetry_equiv_pos_site_id
 _symmetry_equiv_pos_as_xyz
  1  'x, y, z'
loop_
 _atom_site_type_symbol
 _atom_site_label
 _atom_site_symmetry_multiplicity
 _atom_site_fract_x
 _atom_site_fract_y
 _atom_site_fract_z
 _atom_site_occupancy
  Mo  Mo0  1  0.66666700  0.33333300  0.28161787  1
  W  W0  1  0.33333300  0.66666700  0.09403659  1
  W  W1  1  0.33333300  0.66666700  0.46991028  1
  W  W2  1  0.66666700  0.33333300  0.65736476  1
  S  S0  1  0.33333300  0.66666700  0.32632571  1
  S  S1  1  0.33333300  0.66666700  0.70227872  1
  S  S2  1  0.66666700  0.33333300  0.04910358  1
  S  S3  1  0.66666700  0.33333300  0.42497367  1
  S  S4  1  0.66666700  0.33333300  0.13897797  1
  S  S5  1  0.66666700  0.33333300  0.51484386  1
  S  S6  1  0.33333300  0.66666700  0.23690611  1
  S  S7  1  0.33333300  0.66666700  0.61240986  1
loop_
_geom_bond_atom_site_label_1
_geom_bond_atom_site_label_2
_geom_bond_distance
_geom_bond_site_symmetry_2
Mo0 S0 2.405696 1_545
Mo0 S0 2.405696 1_655
Mo0 S0 2.405700 1_555
Mo0 S6 2.405784 1_655
Mo0 S6 2.405784 1_545
Mo0 S6 2.405788 1_555
S1 W2 2.410315 1_455
S1 W2 2.410315 1_565
S1 W2 2.410319 1_555
S2 W0 2.410742 1_655
S2 W0 2.410742 1_545
S2 W0 2.410746 1_555
S3 W1 2.410823 1_545
S3 W1 2.410823 1_655
S3 W1 2.410827 1_555
S4 W0 2.410930 1_545
S4 W0 2.410930 1_655
S4 W0 2.410934 1_555
S5 W1 2.410755 1_545
S5 W1 2.410755 1_655
S5 W1 2.410759 1_555
S7 W2 2.411233 1_455
S7 W2 2.411233 1_565
S7 W2 2.411237 1_555
