# generated using pymatgen
data_CePr4O10
_symmetry_space_group_name_H-M   'P 1'
_cell_length_a   6.93260266
_cell_length_b   6.93260266
_cell_length_c   6.93260266
_cell_angle_alpha   99.75063961
_cell_angle_beta   99.75063961
_cell_angle_gamma   131.39748879
_symmetry_Int_Tables_number   1
_chemical_formula_structural   CePr4O10
_chemical_formula_sum   'Ce1 Pr4 O10'
_cell_volume   227.79152993
_cell_formula_units_Z   1
loop_
 _symmetry_equiv_pos_site_id
 _symmetry_equiv_pos_as_xyz
  1  'x, y, z'
loop_
 _atom_site_type_symbol
 _atom_site_label
 _atom_site_symmetry_multiplicity
 _atom_site_fract_x
 _atom_site_fract_y
 _atom_site_fract_z
 _atom_site_occupancy
  Ce  Ce0  1  0.00000000  0.00000000  0.00000000  1
  Pr  Pr0  1  0.39967800  0.20080500  0.60048300  1
  Pr  Pr1  1  0.79919500  0.39967800  0.19887300  1
  Pr  Pr2  1  0.20080500  0.60032200  0.80112700  1
  Pr  Pr3  1  0.60032200  0.79919500  0.39951700  1
  O  O0  1  0.75000000  0.25000000  0.50000000  1
  O  O1  1  0.14547800  0.43484900  0.09673100  1
  O  O2  1  0.56515100  0.66188200  0.71062900  1
  O  O3  1  0.95125300  0.85452200  0.28937100  1
  O  O4  1  0.33811800  0.04874700  0.90326900  1
  O  O5  1  0.85452200  0.56515100  0.90326900  1
  O  O6  1  0.25000000  0.75000000  0.50000000  1
  O  O7  1  0.66188200  0.95125300  0.09673100  1
  O  O8  1  0.04874700  0.14547800  0.71062900  1
  O  O9  1  0.43484900  0.33811800  0.28937100  1
loop_
_geom_bond_atom_site_label_1
_geom_bond_atom_site_label_2
_geom_bond_distance
_geom_bond_site_symmetry_2
Ce0 O1 2.370644 1_555
Ce0 O9 2.370644 1_555
Ce0 O3 2.370644 1_445
Ce0 O4 2.370644 1_554
Ce0 O7 2.370644 1_445
Ce0 O8 2.370644 1_554
Ce0 O5 2.370644 1_444
Ce0 O2 2.370644 1_444
O0 Pr2 2.461291 1_655
O0 Pr3 2.461291 1_545
O0 Pr0 2.461291 1_555
O0 Pr1 2.461291 1_555
O1 Pr2 2.478578 1_554
O1 Pr3 2.481438 1_555
O1 Pr1 2.486783 1_455
O2 Pr0 2.478578 1_555
O2 Pr2 2.481438 1_555
O2 Pr3 2.486783 1_555
O3 Pr3 2.478578 1_555
O3 Pr1 2.481438 1_555
O3 Pr0 2.486783 1_665
O4 Pr1 2.478578 1_556
O4 Pr0 2.481438 1_555
O4 Pr2 2.486783 1_545
O5 Pr1 2.478578 1_556
O5 Pr0 2.481438 1_555
O5 Pr2 2.486783 1_655
O6 Pr0 2.461291 1_565
O6 Pr1 2.461291 1_455
O6 Pr2 2.461291 1_555
O6 Pr3 2.461291 1_555
O7 Pr2 2.478578 1_554
O7 Pr3 2.481438 1_555
O7 Pr1 2.486783 1_565
O8 Pr0 2.478578 1_555
O8 Pr2 2.481438 1_555
O8 Pr3 2.486783 1_445
O9 Pr3 2.478578 1_555
O9 Pr1 2.481438 1_555
O9 Pr0 2.486783 1_555
