# generated using pymatgen
data_LiV3O5F
_symmetry_space_group_name_H-M   'P 1'
_cell_length_a   5.11223700
_cell_length_b   5.11955931
_cell_length_c   5.48923273
_cell_angle_alpha   117.36853133
_cell_angle_beta   89.70058895
_cell_angle_gamma   119.46378869
_symmetry_Int_Tables_number   1
_chemical_formula_structural   LiV3O5F
_chemical_formula_sum   'Li1 V3 O5 F1'
_cell_volume   106.45489182
_cell_formula_units_Z   1
loop_
 _symmetry_equiv_pos_site_id
 _symmetry_equiv_pos_as_xyz
  1  'x, y, z'
loop_
 _atom_site_type_symbol
 _atom_site_label
 _atom_site_symmetry_multiplicity
 _atom_site_fract_x
 _atom_site_fract_y
 _atom_site_fract_z
 _atom_site_occupancy
  Li  Li0  1  0.11044000  0.86311900  0.40078700  1
  V  V0  1  0.87611600  0.17193200  0.56029000  1
  V  V1  1  0.67339000  0.36590500  0.94369200  1
  V  V2  1  0.34480600  0.63909300  0.03356400  1
  O  O0  1  0.57858000  0.06957800  0.78983200  1
  O  O1  1  0.71618600  0.51570100  0.24110000  1
  O  O2  1  0.04845400  0.27191300  0.23763500  1
  O  O3  1  0.93911800  0.75126200  0.76155400  1
  O  O4  1  0.26160100  0.42409300  0.76130200  1
  F  F0  1  0.45131100  0.92740100  0.27024400  1
loop_
_geom_bond_atom_site_label_1
_geom_bond_atom_site_label_2
_geom_bond_distance
_geom_bond_site_symmetry_2
Li0 O1 1.747173 1_455
Li0 O3 2.355398 1_455
Li0 O2 2.575006 1_555
O0 V1 1.163014 1_555
O0 V0 1.994693 1_555
O1 V1 1.410232 1_554
O2 V0 2.132766 1_455
O2 V2 2.490071 1_555
O3 V1 2.428997 1_555
O3 V0 2.484399 1_555
O4 V2 1.288267 1_556
O4 V0 1.725694 1_455
F0 V2 1.271477 1_555
F0 Li0 1.816067 1_555
F0 V0 2.085048 1_565
