# generated using pymatgen
data_Li3V3P8O29
_symmetry_space_group_name_H-M   'P 1'
_cell_length_a   9.78857172
_cell_length_b   9.78857172
_cell_length_c   14.48859999
_cell_angle_alpha   89.61558883
_cell_angle_beta   89.61558883
_cell_angle_gamma   59.81617870
_symmetry_Int_Tables_number   1
_chemical_formula_structural   Li3V3P8O29
_chemical_formula_sum   'Li6 V6 P16 O58'
_cell_volume   1199.98348597
_cell_formula_units_Z   2
loop_
 _symmetry_equiv_pos_site_id
 _symmetry_equiv_pos_as_xyz
  1  'x, y, z'
loop_
 _atom_site_type_symbol
 _atom_site_label
 _atom_site_symmetry_multiplicity
 _atom_site_fract_x
 _atom_site_fract_y
 _atom_site_fract_z
 _atom_site_occupancy
  Li  Li0  1  0.76759000  0.91253100  0.80980600  1
  Li  Li1  1  0.32299400  0.90294500  0.30555600  1
  Li  Li2  1  0.08746900  0.23241000  0.19019400  1
  Li  Li3  1  0.09705500  0.67700600  0.69444400  1
  Li  Li4  1  0.01163600  0.06959700  0.75724800  1
  Li  Li5  1  0.93040300  0.98836400  0.24275200  1
  V  V0  1  0.56204300  0.00348900  0.00052800  1
  V  V1  1  0.43574900  0.00101000  0.50649300  1
  V  V2  1  0.56334600  0.43665400  0.50000000  1
  V  V3  1  0.44155700  0.55844300  0.00000000  1
  V  V4  1  0.99651100  0.43795700  0.99947200  1
  V  V5  1  0.99899000  0.56425100  0.49350700  1
  P  P0  1  0.91331100  0.30874500  0.58330800  1
  P  P1  1  0.78163500  0.29895800  0.09183300  1
  P  P2  1  0.91344700  0.77931800  0.08802900  1
  P  P3  1  0.66649600  0.67029600  0.88410000  1
  P  P4  1  0.66159300  0.67000600  0.38497000  1
  P  P5  1  0.77650600  0.90734800  0.59385600  1
  P  P6  1  0.69125500  0.08668900  0.41669200  1
  P  P7  1  0.30436300  0.77755700  0.59059600  1
  P  P8  1  0.70104200  0.21836500  0.90816700  1
  P  P9  1  0.31691700  0.90723900  0.08911300  1
  P  P10  1  0.22068200  0.08655300  0.91197100  1
  P  P11  1  0.32970400  0.33350400  0.11590000  1
  P  P12  1  0.32999400  0.33840700  0.61503000  1
  P  P13  1  0.09265200  0.22349400  0.40614400  1
  P  P14  1  0.22244300  0.69563700  0.40940400  1
  P  P15  1  0.09276100  0.68308300  0.91088700  1
  O  O0  1  0.02613500  0.21986800  0.31478600  1
  O  O1  1  0.91476400  0.34352900  0.08569100  1
  O  O2  1  0.79977600  0.19542400  0.82588800  1
  O  O3  1  0.73876000  0.34804300  0.57849500  1
  O  O4  1  0.91795300  0.46433100  0.57008300  1
  O  O5  1  0.81652500  0.52540800  0.93220600  1
  O  O6  1  0.92109500  0.61794400  0.07811100  1
  O  O7  1  0.01047300  0.75993500  0.82249000  1
  O  O8  1  0.91971900  0.73699100  0.58337100  1
  O  O9  1  0.66269000  0.52424700  0.43120900  1
  O  O10  1  0.61907000  0.45438900  0.07867100  1
  O  O11  1  0.81403200  0.66533400  0.42714400  1
  O  O12  1  0.67409400  0.66206200  0.78237100  1
  O  O13  1  0.65827500  0.67148400  0.28282900  1
  O  O14  1  0.66915300  0.81974200  0.92040100  1
  O  O15  1  0.45939800  0.61746900  0.57871600  1
  O  O16  1  0.52505600  0.66429100  0.93202900  1
  O  O17  1  0.73786100  0.91351500  0.07584200  1
  O  O18  1  0.79070800  0.00792500  0.51081200  1
  O  O19  1  0.78630200  0.00264600  0.33503900  1
  O  O20  1  0.78013200  0.97386500  0.68521400  1
  O  O21  1  0.61980900  0.90558800  0.57623400  1
  O  O22  1  0.51345700  0.81926400  0.42646700  1
  O  O23  1  0.65647100  0.08523600  0.91430900  1
  O  O24  1  0.47480400  0.90547600  0.07122000  1
  O  O25  1  0.34717800  0.73695800  0.08208200  1
  O  O26  1  0.80199200  0.19800800  0.00000000  1
  O  O27  1  0.80457600  0.20022400  0.17411200  1
  O  O28  1  0.20746100  0.79351700  0.32704800  1
  O  O29  1  0.65195700  0.26124000  0.42150500  1
  O  O30  1  0.53566900  0.08204700  0.42991700  1
  O  O31  1  0.34421100  0.91281600  0.58248700  1
  O  O32  1  0.47459200  0.18347500  0.06779400  1
  O  O33  1  0.38205600  0.07890500  0.92188900  1
  O  O34  1  0.19773500  0.01366000  0.82976200  1
  O  O35  1  0.24006500  0.98952700  0.17751000  1
  O  O36  1  0.20252800  0.00311100  0.00513500  1
  O  O37  1  0.26300900  0.08028100  0.41662900  1
  O  O38  1  0.47575300  0.33731000  0.56879100  1
  O  O39  1  0.54561100  0.38093000  0.92132900  1
  O  O40  1  0.33466600  0.18596800  0.57285600  1
  O  O41  1  0.32851600  0.34172500  0.71717100  1
  O  O42  1  0.33793800  0.32590600  0.21762900  1
  O  O43  1  0.18025800  0.33084700  0.07959900  1
  O  O44  1  0.38253100  0.54060200  0.42128400  1
  O  O45  1  0.33570900  0.47494400  0.06797100  1
  O  O46  1  0.08648500  0.26213900  0.92415800  1
  O  O47  1  0.99207500  0.20929200  0.48918800  1
  O  O48  1  0.99735400  0.21369800  0.66496100  1
  O  O49  1  0.09441200  0.38019100  0.42376600  1
  O  O50  1  0.18073600  0.48654300  0.57353300  1
  O  O51  1  0.09452400  0.52519600  0.92878000  1
  O  O52  1  0.26304200  0.65282200  0.91791800  1
  O  O53  1  0.20648300  0.79253900  0.67295200  1
  O  O54  1  0.20020600  0.79979400  0.50000000  1
  O  O55  1  0.08718400  0.65578900  0.41751300  1
  O  O56  1  0.98634000  0.80226500  0.17023800  1
  O  O57  1  0.99688900  0.79747200  0.99486500  1
loop_
_geom_bond_atom_site_label_1
_geom_bond_atom_site_label_2
_geom_bond_distance
_geom_bond_site_symmetry_2
Li0 O20 1.921128 1_555
Li0 O7 2.085314 1_655
Li0 O23 2.120554 1_565
Li0 O14 2.271732 1_555
Li1 O28 1.931874 1_555
Li1 O35 2.031339 1_555
Li1 O37 2.224347 1_565
Li1 O22 2.388445 1_555
Li2 O0 1.921128 1_555
Li2 O35 2.085314 1_545
Li2 O1 2.120554 1_455
Li2 O43 2.271732 1_555
Li3 O53 1.931874 1_555
Li3 O7 2.031339 1_555
Li3 O8 2.224347 1_455
Li3 O50 2.388445 1_555
Li4 O48 1.891018 1_455
Li4 O34 1.933132 1_555
Li4 O2 2.055978 1_455
Li5 O19 1.891018 1_565
Li5 O56 1.933132 1_555
Li5 O27 2.055978 1_565
O0 P13 1.487508 1_555
O1 P1 1.570372 1_555
O1 V4 1.941639 1_554
O2 P8 1.474958 1_555
O3 P0 1.553224 1_555
O3 V2 1.873337 1_555
O4 P0 1.556841 1_555
O4 V5 1.889597 1_555
O5 P3 1.600008 1_555
O5 V4 1.811598 1_555
O6 P2 1.550950 1_555
O6 V4 1.911792 1_554
O7 P15 1.498880 1_555
O8 P5 1.555280 1_555
O8 V5 1.962917 1_555
O9 P4 1.567315 1_555
O9 V2 1.867645 1_555
O10 P1 1.564937 1_555
O10 V3 1.894004 1_555
O11 P4 1.595383 1_555
O11 V5 1.841358 1_555
O12 P3 1.475986 1_555
O13 P4 1.480268 1_555
O14 P3 1.570361 1_555
O14 V0 1.948715 1_566
O15 P7 1.548247 1_555
O15 V2 1.915529 1_555
O16 P3 1.571907 1_555
O16 V3 1.881073 1_556
O17 P2 1.562520 1_555
O17 V0 1.848351 1_565
O18 P5 1.598665 1_545
O18 P6 1.628096 1_555
O19 P6 1.473297 1_555
O20 P5 1.487508 1_555
O21 P5 1.565258 1_555
O21 V1 1.859861 1_565
O22 P4 1.571137 1_555
O22 V1 1.934688 1_565
O23 P8 1.570372 1_555
O23 V0 1.941639 1_556
O24 P9 1.556889 1_555
O24 V0 1.870197 1_565
O25 P9 1.543299 1_555
O25 V3 1.926419 1_555
O26 P1 1.613245 1_555
O26 P8 1.613245 1_554
O27 P1 1.474958 1_555
O28 P14 1.486262 1_555
O29 P6 1.553224 1_555
O29 V2 1.873337 1_555
O30 P6 1.556841 1_555
O30 V1 1.889597 1_555
O31 P7 1.560608 1_555
O31 V1 1.874107 1_565
O32 P11 1.600008 1_555
O32 V0 1.811598 1_555
O33 P10 1.550950 1_555
O33 V0 1.911792 1_556
O34 P10 1.467794 1_555
O35 P9 1.498880 1_555
O36 P9 1.600369 1_545
O36 P10 1.627465 1_554
O37 P13 1.555280 1_555
O37 V1 1.962917 1_555
O38 P12 1.567315 1_555
O38 V2 1.867645 1_555
O39 P8 1.564937 1_555
O39 V3 1.894004 1_556
O40 P12 1.595383 1_555
O40 V1 1.841358 1_555
O41 P12 1.480268 1_555
O42 P11 1.475986 1_555
O43 P11 1.570361 1_555
O43 V4 1.948715 1_454
O44 P14 1.548247 1_555
O44 V2 1.915529 1_555
O45 P11 1.571907 1_555
O45 V3 1.881073 1_555
O46 P10 1.562520 1_555
O46 V4 1.848351 1_455
O47 P13 1.598665 1_655
O47 P0 1.628096 1_555
O48 P0 1.473297 1_555
O49 P13 1.565258 1_555
O49 V5 1.859861 1_455
O50 P12 1.571137 1_555
O50 V5 1.934688 1_455
O51 P15 1.556889 1_555
O51 V4 1.870197 1_455
O52 P15 1.543299 1_555
O52 V3 1.926419 1_556
O53 P7 1.486262 1_555
O54 P7 1.612690 1_555
O54 P14 1.612690 1_555
O55 P14 1.560608 1_555
O55 V5 1.874107 1_455
O56 P2 1.467794 1_555
O57 P15 1.600369 1_655
O57 P2 1.627465 1_556
