# generated using pymatgen
data_Er2Sc3Si4
_symmetry_space_group_name_H-M   'P 1'
_cell_length_a   7.04888356
_cell_length_b   7.36287350
_cell_length_c   13.90933045
_cell_angle_alpha   90.00000000
_cell_angle_beta   90.00000000
_cell_angle_gamma   90.00000000
_symmetry_Int_Tables_number   1
_chemical_formula_structural   Er2Sc3Si4
_chemical_formula_sum   'Er8 Sc12 Si16'
_cell_volume   721.89477847
_cell_formula_units_Z   4
loop_
 _symmetry_equiv_pos_site_id
 _symmetry_equiv_pos_as_xyz
  1  'x, y, z'
loop_
 _atom_site_type_symbol
 _atom_site_label
 _atom_site_symmetry_multiplicity
 _atom_site_fract_x
 _atom_site_fract_y
 _atom_site_fract_z
 _atom_site_occupancy
  Er  Er0  1  0.01167174  0.17675530  0.09709875  1
  Er  Er1  1  0.98832826  0.82324470  0.90290125  1
  Er  Er2  1  0.48832826  0.67675530  0.90290125  1
  Er  Er3  1  0.98832826  0.82324470  0.59709875  1
  Er  Er4  1  0.51167174  0.32324470  0.09709875  1
  Er  Er5  1  0.01167174  0.17675530  0.40290125  1
  Er  Er6  1  0.51167174  0.32324470  0.40290125  1
  Er  Er7  1  0.48832826  0.67675530  0.59709875  1
  Sc  Sc0  1  0.16260951  0.50363897  0.75000000  1
  Sc  Sc1  1  0.83739049  0.49636103  0.25000000  1
  Sc  Sc2  1  0.33739049  0.00363897  0.25000000  1
  Sc  Sc3  1  0.66260951  0.99636103  0.75000000  1
  Sc  Sc4  1  0.32992726  0.17692410  0.62554997  1
  Sc  Sc5  1  0.67007274  0.82307590  0.37445003  1
  Sc  Sc6  1  0.17007274  0.67692410  0.37445003  1
  Sc  Sc7  1  0.67007274  0.82307590  0.12554997  1
  Sc  Sc8  1  0.82992726  0.32307590  0.62554997  1
  Sc  Sc9  1  0.32992726  0.17692410  0.87445003  1
  Sc  Sc10  1  0.82992726  0.32307590  0.87445003  1
  Sc  Sc11  1  0.17007274  0.67692410  0.12554997  1
  Si  Si0  1  0.03327370  0.11317030  0.75000000  1
  Si  Si1  1  0.96672630  0.88682970  0.25000000  1
  Si  Si2  1  0.46672630  0.61317030  0.25000000  1
  Si  Si3  1  0.53327370  0.38682970  0.75000000  1
  Si  Si4  1  0.28542196  0.87056913  0.75000000  1
  Si  Si5  1  0.71457804  0.12943087  0.25000000  1
  Si  Si6  1  0.21457804  0.37056913  0.25000000  1
  Si  Si7  1  0.78542196  0.62943087  0.75000000  1
  Si  Si8  1  0.15903492  0.46565035  0.53861870  1
  Si  Si9  1  0.84096508  0.53434965  0.46138130  1
  Si  Si10  1  0.34096508  0.96565035  0.46138130  1
  Si  Si11  1  0.84096508  0.53434965  0.03861870  1
  Si  Si12  1  0.65903492  0.03434965  0.53861870  1
  Si  Si13  1  0.15903492  0.46565035  0.96138130  1
  Si  Si14  1  0.65903492  0.03434965  0.96138130  1
  Si  Si15  1  0.34096508  0.96565035  0.03861870  1
loop_
_geom_bond_atom_site_label_1
_geom_bond_atom_site_label_2
_geom_bond_distance
_geom_bond_site_symmetry_2
Er0 Si15 2.909529 1_545
Er0 Si6 2.933452 1_555
Er0 Si5 3.005009 1_455
Er0 Si11 3.006965 1_455
Er0 Si13 3.027721 1_554
Er0 Si1 3.029907 1_445
Er0 Si14 3.292662 1_454
Er1 Si14 2.909529 1_565
Er1 Si7 2.933452 1_555
Er1 Si4 3.005009 1_655
Er1 Si13 3.006965 1_655
Er1 Si11 3.027721 1_556
Er1 Si0 3.029907 1_665
Er1 Si15 3.292662 1_656
Er2 Si13 2.909529 1_555
Er2 Si4 2.933452 1_555
Er2 Si7 3.005009 1_555
Er2 Si14 3.006965 1_565
Er2 Si15 3.027721 1_556
Er2 Si3 3.029907 1_555
Er2 Si11 3.292662 1_556
Er3 Si12 2.909529 1_565
Er3 Si7 2.933452 1_555
Er3 Si4 3.005009 1_655
Er3 Si8 3.006965 1_655
Er3 Si9 3.027721 1_555
Er3 Si0 3.029907 1_665
Er3 Si10 3.292662 1_655
Er4 Si11 2.909529 1_555
Er4 Si5 2.933452 1_555
Er4 Si6 3.005009 1_555
Er4 Si15 3.006965 1_545
Er4 Si14 3.027721 1_554
Er4 Si2 3.029907 1_555
Er4 Si13 3.292662 1_554
Er5 Si10 2.909529 1_545
Er5 Si6 2.933452 1_555
Er5 Si5 3.005009 1_455
Er5 Si9 3.006965 1_455
Er5 Si8 3.027721 1_555
Er5 Si1 3.029907 1_445
Er5 Si12 3.292662 1_455
Er6 Si9 2.909529 1_555
Er6 Si5 2.933452 1_555
Er6 Si6 3.005009 1_555
Er6 Si10 3.006965 1_545
Er6 Si12 3.027721 1_555
Er6 Si2 3.029907 1_555
Er6 Si8 3.292662 1_555
Er7 Si8 2.909529 1_555
Er7 Si4 2.933452 1_555
Er7 Si7 3.005009 1_555
Er7 Si12 3.006965 1_565
Er7 Si10 3.027721 1_555
Er7 Si3 3.029907 1_555
Er7 Si9 3.292662 1_555
Sc0 Si3 2.750682 1_555
Sc0 Si7 2.815455 1_455
Sc0 Si4 2.836968 1_555
Sc0 Si13 2.953554 1_555
Sc0 Si8 2.953554 1_555
Sc0 Si0 3.016058 1_555
Sc1 Si2 2.750682 1_555
Sc1 Si6 2.815455 1_655
Sc1 Si5 2.836968 1_555
Sc1 Si11 2.953554 1_555
Sc1 Si9 2.953554 1_555
Sc1 Si1 3.016058 1_555
Sc2 Si1 2.750682 1_445
Sc2 Si5 2.815455 1_555
Sc2 Si6 2.836968 1_555
Sc2 Si15 2.953554 1_545
Sc2 Si10 2.953554 1_545
Sc2 Si2 3.016058 1_545
Sc3 Si0 2.750682 1_665
Sc3 Si4 2.815455 1_555
Sc3 Si7 2.836968 1_555
Sc3 Si14 2.953554 1_565
Sc3 Si12 2.953554 1_565
Sc3 Si3 3.016058 1_565
Sc4 Si8 2.726239 1_555
Sc4 Si3 2.727554 1_555
Sc4 Si0 2.754880 1_555
Sc4 Si10 2.764083 1_545
Sc4 Si12 2.818814 1_555
Sc4 Si4 2.860560 1_545
Sc5 Si9 2.726239 1_555
Sc5 Si2 2.727554 1_555
Sc5 Si1 2.754880 1_555
Sc5 Si12 2.764083 1_565
Sc5 Si10 2.818814 1_555
Sc5 Si5 2.860560 1_565
Sc6 Si10 2.726239 1_555
Sc6 Si1 2.727554 1_455
Sc6 Si2 2.754880 1_555
Sc6 Si8 2.764083 1_555
Sc6 Si9 2.818814 1_455
Sc6 Si6 2.860560 1_555
Sc7 Si11 2.726239 1_555
Sc7 Si2 2.727554 1_555
Sc7 Si1 2.754880 1_555
Sc7 Si14 2.764083 1_564
Sc7 Si15 2.818814 1_555
Sc7 Si5 2.860560 1_565
Sc8 Si12 2.726239 1_555
Sc8 Si0 2.727554 1_655
Sc8 Si3 2.754880 1_555
Sc8 Si9 2.764083 1_555
Sc8 Si8 2.818814 1_655
Sc8 Si7 2.860560 1_555
Sc9 Si13 2.726239 1_555
Sc9 Si3 2.727554 1_555
Sc9 Si0 2.754880 1_555
Sc9 Si15 2.764083 1_546
Sc9 Si14 2.818814 1_555
Sc9 Si4 2.860560 1_545
Sc10 Si14 2.726239 1_555
Sc10 Si0 2.727554 1_655
Sc10 Si3 2.754880 1_555
Sc10 Si11 2.764083 1_556
Sc10 Si13 2.818814 1_655
Sc10 Si7 2.860560 1_555
Sc11 Si15 2.726239 1_555
Sc11 Si1 2.727554 1_455
Sc11 Si2 2.754880 1_555
Sc11 Si13 2.764083 1_554
Sc11 Si11 2.818814 1_455
Sc11 Si6 2.860560 1_555
Si0 Si4 2.519857 1_545
Si1 Si5 2.519857 1_565
Si2 Si6 2.519857 1_555
Si3 Si7 2.519857 1_555
Si8 Si9 2.537076 1_455
Si10 Si12 2.537076 1_565
Si11 Si13 2.537076 1_654
Si14 Si15 2.537076 1_546
