# generated using pymatgen
data_NaMg14MnO16
_symmetry_space_group_name_H-M   'P 1'
_cell_length_a   4.30295000
_cell_length_b   8.49676000
_cell_length_c   8.58592900
_cell_angle_alpha   90.00000000
_cell_angle_beta   90.00000000
_cell_angle_gamma   90.00000000
_symmetry_Int_Tables_number   1
_chemical_formula_structural   NaMg14MnO16
_chemical_formula_sum   'Na1 Mg14 Mn1 O16'
_cell_volume   313.91129589
_cell_formula_units_Z   1
loop_
 _symmetry_equiv_pos_site_id
 _symmetry_equiv_pos_as_xyz
  1  'x, y, z'
loop_
 _atom_site_type_symbol
 _atom_site_label
 _atom_site_symmetry_multiplicity
 _atom_site_fract_x
 _atom_site_fract_y
 _atom_site_fract_z
 _atom_site_occupancy
  Na  Na0  1  0.00000000  0.50000000  0.00000000  1
  Mg  Mg0  1  0.00000000  0.00000000  0.50000000  1
  Mg  Mg1  1  0.00000000  0.50000000  0.50000000  1
  Mg  Mg2  1  0.50000000  0.74407200  0.00000000  1
  Mg  Mg3  1  0.50000000  0.25592800  0.00000000  1
  Mg  Mg4  1  0.50000000  0.74803300  0.50000000  1
  Mg  Mg5  1  0.50000000  0.25196700  0.50000000  1
  Mg  Mg6  1  0.50000000  0.00000000  0.74839200  1
  Mg  Mg7  1  0.50000000  0.50000000  0.75259000  1
  Mg  Mg8  1  0.50000000  0.00000000  0.25160800  1
  Mg  Mg9  1  0.50000000  0.50000000  0.24741000  1
  Mg  Mg10  1  0.00000000  0.74596300  0.74750900  1
  Mg  Mg11  1  0.00000000  0.25403700  0.74750900  1
  Mg  Mg12  1  0.00000000  0.74596300  0.25249100  1
  Mg  Mg13  1  0.00000000  0.25403700  0.25249100  1
  Mn  Mn0  1  0.00000000  0.00000000  0.00000000  1
  O  O0  1  0.00000000  0.00000000  0.75147500  1
  O  O1  1  0.00000000  0.50000000  0.73698100  1
  O  O2  1  0.00000000  0.00000000  0.24852500  1
  O  O3  1  0.00000000  0.50000000  0.26301900  1
  O  O4  1  0.50000000  0.75160900  0.75141100  1
  O  O5  1  0.50000000  0.24839100  0.75141100  1
  O  O6  1  0.50000000  0.75160900  0.24858900  1
  O  O7  1  0.50000000  0.24839100  0.24858900  1
  O  O8  1  0.50000000  0.00000000  0.00000000  1
  O  O9  1  0.50000000  0.50000000  0.00000000  1
  O  O10  1  0.50000000  0.00000000  0.50000000  1
  O  O11  1  0.50000000  0.50000000  0.50000000  1
  O  O12  1  0.00000000  0.77325500  0.00000000  1
  O  O13  1  0.00000000  0.22674500  0.00000000  1
  O  O14  1  0.00000000  0.75456200  0.50000000  1
  O  O15  1  0.00000000  0.24543800  0.50000000  1
loop_
_geom_bond_atom_site_label_1
_geom_bond_atom_site_label_2
_geom_bond_distance
_geom_bond_site_symmetry_2
Na0 O9 2.151475 1_555
Na0 O9 2.151475 1_455
Na0 O3 2.258262 1_555
Na0 O1 2.258262 1_554
Na0 O12 2.321782 1_555
Na0 O13 2.321782 1_555
Mg0 O15 2.085428 1_555
Mg0 O14 2.085428 1_545
Mg0 O10 2.151475 1_455
Mg0 O10 2.151475 1_555
Mg0 O0 2.159146 1_555
Mg0 O2 2.159146 1_555
Mg1 O1 2.034702 1_555
Mg1 O3 2.034702 1_555
Mg1 O11 2.151475 1_455
Mg1 O11 2.151475 1_555
Mg1 O14 2.162952 1_555
Mg1 O15 2.162952 1_555
Mg2 O9 2.073821 1_555
Mg2 O6 2.135328 1_555
Mg2 O4 2.135328 1_554
Mg2 O12 2.165717 1_655
Mg2 O12 2.165717 1_555
Mg2 O8 2.174559 1_565
Mg3 O9 2.073821 1_555
Mg3 O7 2.135328 1_555
Mg3 O5 2.135328 1_554
Mg3 O13 2.165717 1_555
Mg3 O13 2.165717 1_655
Mg3 O8 2.174559 1_555
Mg4 O11 2.107477 1_555
Mg4 O10 2.140903 1_565
Mg4 O14 2.152190 1_555
Mg4 O14 2.152190 1_655
Mg4 O4 2.158811 1_555
Mg4 O6 2.158811 1_555
Mg5 O11 2.107477 1_555
Mg5 O10 2.140903 1_555
Mg5 O15 2.152190 1_655
Mg5 O15 2.152190 1_555
Mg5 O5 2.158811 1_555
Mg5 O7 2.158811 1_555
Mg6 O5 2.110678 1_555
Mg6 O4 2.110678 1_545
Mg6 O10 2.132676 1_555
Mg6 O0 2.151638 1_555
Mg6 O0 2.151638 1_655
Mg6 O8 2.160288 1_556
Mg7 O9 2.124245 1_556
Mg7 O4 2.137885 1_555
Mg7 O5 2.137885 1_555
Mg7 O1 2.155645 1_655
Mg7 O1 2.155645 1_555
Mg7 O11 2.168720 1_555
Mg8 O7 2.110678 1_555
Mg8 O6 2.110678 1_545
Mg8 O10 2.132676 1_555
Mg8 O2 2.151638 1_655
Mg8 O2 2.151638 1_555
Mg8 O8 2.160288 1_555
Mg9 O9 2.124245 1_555
Mg9 O6 2.137885 1_555
Mg9 O7 2.137885 1_555
Mg9 O3 2.155645 1_655
Mg9 O3 2.155645 1_555
Mg9 O11 2.168720 1_555
Mg10 O1 2.091843 1_555
Mg10 O14 2.126350 1_555
Mg10 O4 2.152271 1_455
Mg10 O4 2.152271 1_555
Mg10 O0 2.158760 1_565
Mg10 O12 2.180237 1_556
Mg11 O1 2.091843 1_555
Mg11 O15 2.126350 1_555
Mg11 O5 2.152271 1_555
Mg11 O5 2.152271 1_455
Mg11 O0 2.158760 1_555
Mg11 O13 2.180237 1_556
Mg12 O3 2.091843 1_555
Mg12 O14 2.126350 1_555
Mg12 O6 2.152271 1_455
Mg12 O6 2.152271 1_555
Mg12 O2 2.158760 1_565
Mg12 O12 2.180237 1_555
Mg13 O3 2.091843 1_555
Mg13 O15 2.126350 1_555
Mg13 O7 2.152271 1_555
Mg13 O7 2.152271 1_455
Mg13 O2 2.158760 1_555
Mg13 O13 2.180237 1_555
Mn0 O13 1.926598 1_555
Mn0 O12 1.926598 1_545
Mn0 O0 2.133818 1_554
Mn0 O2 2.133818 1_555
Mn0 O8 2.151475 1_455
Mn0 O8 2.151475 1_555
