# generated using pymatgen
data_Yb2Al3Cu
_symmetry_space_group_name_H-M   'P 1'
_cell_length_a   5.53275451
_cell_length_b   5.53275451
_cell_length_c   5.53275454
_cell_angle_alpha   60.13399236
_cell_angle_beta   60.13399236
_cell_angle_gamma   60.13399022
_symmetry_Int_Tables_number   1
_chemical_formula_structural   Yb2Al3Cu
_chemical_formula_sum   'Yb2 Al3 Cu1'
_cell_volume   120.12279980
_cell_formula_units_Z   1
loop_
 _symmetry_equiv_pos_site_id
 _symmetry_equiv_pos_as_xyz
  1  'x, y, z'
loop_
 _atom_site_type_symbol
 _atom_site_label
 _atom_site_symmetry_multiplicity
 _atom_site_fract_x
 _atom_site_fract_y
 _atom_site_fract_z
 _atom_site_occupancy
  Yb  Yb0  1  0.62514600  0.62514600  0.62514600  1
  Yb  Yb1  1  0.37485400  0.37485400  0.37485400  1
  Al  Al0  1  0.00000000  0.50000000  0.00000000  1
  Al  Al1  1  0.50000000  0.00000000  0.00000000  1
  Al  Al2  1  0.00000000  0.00000000  0.50000000  1
  Cu  Cu0  1  0.00000000  0.00000000  0.00000000  1
loop_
_geom_bond_atom_site_label_1
_geom_bond_atom_site_label_2
_geom_bond_distance
_geom_bond_site_symmetry_2
Al0 Cu0 2.766377 1_565
Al0 Cu0 2.766377 1_555
Al0 Al1 2.771978 1_555
Al0 Al1 2.771978 1_465
Al0 Al2 2.771978 1_564
Al0 Al2 2.771978 1_555
Al0 Yb1 3.241249 1_555
Al0 Yb0 3.241249 1_454
Al0 Yb1 3.248778 1_554
Al0 Yb0 3.248778 1_455
Al0 Yb0 3.248778 1_554
Al0 Yb1 3.248778 1_455
Al1 Cu0 2.766377 1_655
Al1 Cu0 2.766377 1_555
Al1 Al2 2.771978 1_654
Al1 Al2 2.771978 1_555
Al1 Yb0 3.241249 1_544
Al1 Yb1 3.241249 1_555
Al1 Yb0 3.248778 1_545
Al1 Yb1 3.248778 1_554
Al1 Yb0 3.248778 1_554
Al1 Yb1 3.248778 1_545
Al2 Cu0 2.766377 1_555
Al2 Cu0 2.766377 1_556
Al2 Yb0 3.241249 1_445
Al2 Yb1 3.241249 1_555
Al2 Yb0 3.248778 1_545
Al2 Yb1 3.248778 1_455
Al2 Yb1 3.248778 1_545
Al2 Yb0 3.248778 1_455
Cu0 Yb0 3.249792 1_454
Cu0 Yb1 3.249792 1_455
Cu0 Yb1 3.249792 1_545
Cu0 Yb0 3.249792 1_544
Cu0 Yb0 3.249792 1_445
Cu0 Yb1 3.249792 1_554
