# generated using pymatgen
data_Li2Fe2Si2O7
_symmetry_space_group_name_H-M   'P 1'
_cell_length_a   5.36738011
_cell_length_b   8.15673280
_cell_length_c   9.29536541
_cell_angle_alpha   88.67470333
_cell_angle_beta   89.96811504
_cell_angle_gamma   91.19573098
_symmetry_Int_Tables_number   1
_chemical_formula_structural   Li2Fe2Si2O7
_chemical_formula_sum   'Li4 Fe4 Si4 O14'
_cell_volume   406.75607469
_cell_formula_units_Z   2
loop_
 _symmetry_equiv_pos_site_id
 _symmetry_equiv_pos_as_xyz
  1  'x, y, z'
loop_
 _atom_site_type_symbol
 _atom_site_label
 _atom_site_symmetry_multiplicity
 _atom_site_fract_x
 _atom_site_fract_y
 _atom_site_fract_z
 _atom_site_occupancy
  Li  Li0  1  0.49579600  0.22807500  0.16885000  1
  Li  Li1  1  0.99581400  0.22813000  0.66883200  1
  Li  Li2  1  0.00402900  0.77184200  0.33109200  1
  Li  Li3  1  0.50403100  0.77181300  0.83109200  1
  Fe  Fe0  1  0.00332700  0.77254200  0.66483800  1
  Fe  Fe1  1  0.99642300  0.22711100  0.33538300  1
  Fe  Fe2  1  0.50328500  0.77243000  0.16447600  1
  Fe  Fe3  1  0.49669500  0.22708200  0.83549000  1
  Si  Si0  1  0.99811700  0.29914100  0.00108400  1
  Si  Si1  1  0.49788800  0.29921000  0.50102900  1
  Si  Si2  1  0.50208500  0.70086100  0.49891600  1
  Si  Si3  1  0.00202300  0.70083900  0.99890700  1
  O  O0  1  0.00064600  0.50000100  0.00004300  1
  O  O1  1  0.50056400  0.49999400  0.50012900  1
  O  O2  1  0.86078300  0.76148700  0.14471800  1
  O  O3  1  0.36076800  0.76154300  0.64473600  1
  O  O4  1  0.79384600  0.76682400  0.49592700  1
  O  O5  1  0.29371700  0.76690000  0.99576500  1
  O  O6  1  0.14544600  0.23417600  0.14597400  1
  O  O7  1  0.64516000  0.23414300  0.64592000  1
  O  O8  1  0.35478400  0.76559700  0.35394400  1
  O  O9  1  0.85448700  0.76572100  0.85408200  1
  O  O10  1  0.70609700  0.23367800  0.00409600  1
  O  O11  1  0.20584200  0.23377800  0.50407000  1
  O  O12  1  0.63917300  0.23850100  0.35519300  1
  O  O13  1  0.13936600  0.23857900  0.85521700  1
loop_
_geom_bond_atom_site_label_1
_geom_bond_atom_site_label_2
_geom_bond_distance
_geom_bond_site_symmetry_2
Li0 O6 1.894120 1_555
Li0 O12 1.898758 1_555
Li0 O10 1.901110 1_555
Li1 O7 1.895747 1_555
Li1 O13 1.899505 1_655
Li1 O11 1.900299 1_655
Li2 O8 1.896307 1_555
Li2 O2 1.898703 1_455
Li2 O4 1.901380 1_455
Li3 O9 1.894801 1_555
Li3 O3 1.898548 1_555
Li3 O5 1.900593 1_555
Fe0 O9 1.930742 1_455
Fe0 O3 1.931644 1_555
Fe0 O4 1.932541 1_455
Fe1 O12 1.930587 1_555
Fe1 O11 1.930908 1_655
Fe1 O6 1.932543 1_655
Fe2 O5 1.931255 1_554
Fe2 O2 1.931608 1_555
Fe2 O8 1.931888 1_555
Fe3 O10 1.930223 1_556
Fe3 O13 1.930997 1_555
Fe3 O7 1.932671 1_555
O0 Si3 1.637834 1_554
O0 Si0 1.637939 1_455
O1 Si1 1.637332 1_555
O1 Si2 1.638046 1_555
O2 Si3 1.643763 1_654
O3 Si2 1.644117 1_555
O4 Si2 1.645201 1_555
O5 Si3 1.645120 1_555
O6 Si0 1.644889 1_455
O7 Si1 1.645008 1_555
O8 Si2 1.644851 1_555
O9 Si3 1.644730 1_655
O10 Si0 1.645272 1_555
O11 Si1 1.645329 1_555
O12 Si1 1.644233 1_555
O13 Si0 1.643988 1_456
