# generated using pymatgen
data_YbTmS2
_symmetry_space_group_name_H-M   'P 1'
_cell_length_a   6.82553159
_cell_length_b   6.82553159
_cell_length_c   6.82553154
_cell_angle_alpha   33.03889594
_cell_angle_beta   33.03889594
_cell_angle_gamma   33.03889618
_symmetry_Int_Tables_number   1
_chemical_formula_structural   YbTmS2
_chemical_formula_sum   'Yb1 Tm1 S2'
_cell_volume   84.12199884
_cell_formula_units_Z   1
loop_
 _symmetry_equiv_pos_site_id
 _symmetry_equiv_pos_as_xyz
  1  'x, y, z'
loop_
 _atom_site_type_symbol
 _atom_site_label
 _atom_site_symmetry_multiplicity
 _atom_site_fract_x
 _atom_site_fract_y
 _atom_site_fract_z
 _atom_site_occupancy
  Yb  Yb0  1  0.00000000  0.00000000  0.00000000  1
  Tm  Tm0  1  0.50000000  0.50000000  0.50000000  1
  S  S0  1  0.24754500  0.24754500  0.24754500  1
  S  S1  1  0.75245500  0.75245500  0.75245500  1
loop_
_geom_bond_atom_site_label_1
_geom_bond_atom_site_label_2
_geom_bond_distance
_geom_bond_site_symmetry_2
S0 Tm0 2.732984 1_554
S0 Tm0 2.732984 1_545
S0 Tm0 2.732984 1_455
S0 Yb0 2.788428 1_556
S0 Yb0 2.788428 1_655
S0 Yb0 2.788428 1_565
S1 Tm0 2.732984 1_556
S1 Tm0 2.732984 1_565
S1 Tm0 2.732984 1_655
S1 Yb0 2.788428 1_665
S1 Yb0 2.788428 1_656
S1 Yb0 2.788428 1_566
