# generated using pymatgen
data_H8C3S3N4O5
_symmetry_space_group_name_H-M   'P 1'
_cell_length_a   5.62494200
_cell_length_b   10.24710145
_cell_length_c   10.39080852
_cell_angle_alpha   88.03873850
_cell_angle_beta   74.29591274
_cell_angle_gamma   82.73599674
_symmetry_Int_Tables_number   1
_chemical_formula_structural   H8C3S3N4O5
_chemical_formula_sum   'H16 C6 S6 N8 O10'
_cell_volume   571.93580864
_cell_formula_units_Z   2
loop_
 _symmetry_equiv_pos_site_id
 _symmetry_equiv_pos_as_xyz
  1  'x, y, z'
loop_
 _atom_site_type_symbol
 _atom_site_label
 _atom_site_symmetry_multiplicity
 _atom_site_fract_x
 _atom_site_fract_y
 _atom_site_fract_z
 _atom_site_occupancy
  H  H0  1  0.81109900  0.84598400  0.05599800  1
  H  H1  1  0.86709700  0.34598400  0.94400200  1
  H  H2  1  0.82745200  0.73830900  0.91986200  1
  H  H3  1  0.74731400  0.23830900  0.08013800  1
  H  H4  1  0.47221100  0.82810200  0.26978800  1
  H  H5  1  0.74200000  0.32810200  0.73021200  1
  H  H6  1  0.29069500  0.31640000  0.33587500  1
  H  H7  1  0.62657000  0.81640000  0.66412500  1
  H  H8  1  0.05598900  0.40763100  0.46143600  1
  H  H9  1  0.51742600  0.90763100  0.53856400  1
  H  H10  1  0.05020100  0.12475800  0.32690700  1
  H  H11  1  0.37710800  0.62475800  0.67309300  1
  H  H12  1  0.80527300  0.09936500  0.47320400  1
  H  H13  1  0.27847700  0.59936500  0.52679600  1
  H  H14  1  0.02015500  0.96180200  0.39323900  1
  H  H15  1  0.41339400  0.46180200  0.60676100  1
  C  C0  1  0.55781300  0.71425600  0.09077100  1
  C  C1  1  0.64858500  0.21425600  0.90922900  1
  C  C2  1  0.23181600  0.58616500  0.20322600  1
  C  C3  1  0.43504300  0.08616500  0.79677400  1
  C  C4  1  0.91935400  0.05698400  0.37756200  1
  C  C5  1  0.29691600  0.55698400  0.62243800  1
  S  S0  1  0.43789400  0.58123200  0.04401500  1
  S  S1  1  0.48190900  0.08123200  0.95598500  1
  S  S2  1  0.03093300  0.45913700  0.25077800  1
  S  S3  1  0.28171100  0.95913700  0.74922200  1
  S  S4  1  0.72123300  0.03355200  0.27548200  1
  S  S5  1  0.99671500  0.53355200  0.72451800  1
  N  N0  1  0.74598300  0.77070300  0.01620300  1
  N  N1  1  0.76218600  0.27070300  0.98379700  1
  N  N2  1  0.24878900  0.67863100  0.28130800  1
  N  N3  1  0.53009700  0.17863100  0.71869200  1
  N  N4  1  0.42999400  0.75147800  0.21704500  1
  N  N5  1  0.64703800  0.25147800  0.78295500  1
  N  N6  1  0.12149500  0.37327900  0.36438200  1
  N  N7  1  0.48587700  0.87327900  0.63561800  1
  O  O0  1  0.09211100  0.38055900  0.13070000  1
  O  O1  1  0.22281100  0.88055900  0.86930000  1
  O  O2  1  0.78245900  0.52136400  0.30803400  1
  O  O3  1  0.09049300  0.02136400  0.69196600  1
  O  O4  1  0.87703100  0.96968100  0.15095800  1
  O  O5  1  0.02798900  0.46968100  0.84904200  1
  O  O6  1  0.54083400  0.94636600  0.35482000  1
  O  O7  1  0.89565500  0.44636600  0.64518000  1
  O  O8  1  0.59767100  0.16436100  0.25083300  1
  O  O9  1  0.84850400  0.66436100  0.74916700  1
loop_
_geom_bond_atom_site_label_1
_geom_bond_atom_site_label_2
_geom_bond_distance
_geom_bond_site_symmetry_2
H0 N0 1.037059 1_555
H1 N1 1.037059 1_555
H2 N0 1.028714 1_556
H3 N1 1.028714 1_554
H4 N4 1.058440 1_555
H4 O6 1.665677 1_555
H5 N5 1.058445 1_555
H5 O7 1.665677 1_555
H6 N6 1.025761 1_555
H7 N7 1.025761 1_555
H8 N6 1.032973 1_555
H9 N7 1.032972 1_555
C0 N0 1.317351 1_555
C0 N4 1.355807 1_555
C0 S0 1.733307 1_555
C1 N1 1.317347 1_555
C1 N5 1.355809 1_555
C1 S1 1.733310 1_555
C2 N2 1.297143 1_555
C2 S0 1.742372 1_555
C2 S2 1.800268 1_555
C3 N3 1.297141 1_555
C3 S1 1.742370 1_555
C3 S3 1.800272 1_545
C4 H10 1.093429 1_655
C4 H14 1.094800 1_645
C4 H12 1.096293 1_555
C5 H11 1.093429 1_555
C5 H15 1.094800 1_555
C5 H13 1.096293 1_555
N2 N4 1.353461 1_555
N3 N5 1.353457 1_555
N6 S2 1.602518 1_555
N7 S3 1.602518 1_555
O0 S2 1.445614 1_555
O1 S3 1.445614 1_555
O2 S2 1.436815 1_655
O3 S3 1.436815 1_545
O4 S4 1.472968 1_565
O5 S5 1.472968 1_455
O6 S4 1.494478 1_565
O7 S5 1.494474 1_555
O8 S4 1.477378 1_555
O9 S5 1.477378 1_555
