# generated using pymatgen
data_Tb3Sc
_symmetry_space_group_name_H-M   'P 1'
_cell_length_a   6.01111719
_cell_length_b   6.01111719
_cell_length_c   6.01111719
_cell_angle_alpha   131.08040466
_cell_angle_beta   131.08040466
_cell_angle_gamma   71.68536403
_symmetry_Int_Tables_number   1
_chemical_formula_structural   Tb3Sc
_chemical_formula_sum   'Tb3 Sc1'
_cell_volume   120.74312991
_cell_formula_units_Z   1
loop_
 _symmetry_equiv_pos_site_id
 _symmetry_equiv_pos_as_xyz
  1  'x, y, z'
loop_
 _atom_site_type_symbol
 _atom_site_label
 _atom_site_symmetry_multiplicity
 _atom_site_fract_x
 _atom_site_fract_y
 _atom_site_fract_z
 _atom_site_occupancy
  Tb  Tb0  1  0.75000000  0.25000000  0.50000000  1
  Tb  Tb1  1  0.25000000  0.75000000  0.50000000  1
  Tb  Tb2  1  0.50000000  0.50000000  0.00000000  1
  Sc  Sc0  1  0.00000000  0.00000000  0.00000000  1
loop_
_geom_bond_atom_site_label_1
_geom_bond_atom_site_label_2
_geom_bond_distance
_geom_bond_site_symmetry_2
Tb0 Tb2 3.482926 1_545
Tb0 Tb2 3.482926 1_555
Tb0 Tb2 3.482926 1_556
Tb0 Tb2 3.482926 1_656
Tb0 Tb1 3.519880 1_555
Tb0 Tb1 3.519880 1_656
Tb0 Tb1 3.519880 1_544
Tb0 Tb1 3.519880 1_645
Tb1 Tb2 3.482926 1_566
Tb1 Tb2 3.482926 1_555
Tb1 Tb2 3.482926 1_556
Tb1 Tb2 3.482926 1_455
Sc0 Tb1 3.482926 1_555
Sc0 Tb0 3.482926 1_444
Sc0 Tb1 3.482926 1_544
Sc0 Tb1 3.482926 1_545
Sc0 Tb0 3.482926 1_454
Sc0 Tb0 3.482926 1_455
Sc0 Tb0 3.482926 1_555
Sc0 Tb1 3.482926 1_444
Sc0 Tb2 3.519880 1_545
Sc0 Tb2 3.519880 1_455
Sc0 Tb2 3.519880 1_556
Sc0 Tb2 3.519880 1_444
