# generated using pymatgen
data_Rb2CaNd2(WO4)4
_symmetry_space_group_name_H-M   'P 1'
_cell_length_a   6.78126199
_cell_length_b   10.01042410
_cell_length_c   7.76316222
_cell_angle_alpha   54.68171675
_cell_angle_beta   72.58777546
_cell_angle_gamma   93.25222896
_symmetry_Int_Tables_number   1
_chemical_formula_structural   Rb2CaNd2(WO4)4
_chemical_formula_sum   'Rb2 Ca1 Nd2 W4 O16'
_cell_volume   392.02639612
_cell_formula_units_Z   1
loop_
 _symmetry_equiv_pos_site_id
 _symmetry_equiv_pos_as_xyz
  1  'x, y, z'
loop_
 _atom_site_type_symbol
 _atom_site_label
 _atom_site_symmetry_multiplicity
 _atom_site_fract_x
 _atom_site_fract_y
 _atom_site_fract_z
 _atom_site_occupancy
  Rb  Rb0  1  0.80379380  0.15080551  0.70093513  1
  Rb  Rb1  1  0.21342193  0.87785623  0.28385794  1
  Ca  Ca0  1  0.08681533  0.50107381  0.85326547  1
  Nd  Nd0  1  0.25744980  0.86107943  0.80474623  1
  Nd  Nd1  1  0.73178200  0.11689433  0.23145800  1
  W  W0  1  0.68088508  0.68219362  0.82681601  1
  W  W1  1  0.68213548  0.68150516  0.32517713  1
  W  W2  1  0.31966266  0.31238173  0.19472859  1
  W  W3  1  0.33027171  0.30920706  0.68829125  1
  O  O0  1  0.63101301  0.41743390  0.49620008  1
  O  O1  1  0.33493465  0.08300967  0.81434770  1
  O  O2  1  0.02607446  0.27300838  0.85856073  1
  O  O3  1  0.36374133  0.08637141  0.40045903  1
  O  O4  1  0.74290255  0.66742410  0.58131671  1
  O  O5  1  0.37793345  0.28365172  0.94390163  1
  O  O6  1  0.64105769  0.90500346  0.63210828  1
  O  O7  1  0.36041421  0.57171123  0.53344751  1
  O  O8  1  0.02675997  0.26266725  0.24339257  1
  O  O9  1  0.65768654  0.91241880  0.20596013  1
  O  O10  1  0.35470114  0.58304571  0.94247866  1
  O  O11  1  0.97664884  0.73514850  0.15662259  1
  O  O12  1  0.26374930  0.33369269  0.44658614  1
  O  O13  1  0.61948017  0.70242135  0.06619708  1
  O  O14  1  0.98395335  0.74112004  0.75506609  1
  O  O15  1  0.64939854  0.42387492  0.04979332  1
loop_
_geom_bond_atom_site_label_1
_geom_bond_atom_site_label_2
_geom_bond_distance
_geom_bond_site_symmetry_2
Ca0 O2 2.271176 1_555
Ca0 O7 2.273969 1_555
Ca0 O14 2.287424 1_455
Ca0 O10 2.386210 1_555
Ca0 O8 2.414195 1_556
Ca0 O15 2.718761 1_456
Nd0 O1 2.302104 1_565
Nd0 O11 2.304351 1_456
Nd0 O3 2.394523 1_565
Nd0 O14 2.396120 1_455
Nd0 O6 2.420501 1_555
Nd0 O10 2.552251 1_555
Nd1 O9 2.211944 1_545
Nd1 O3 2.352412 1_555
Nd1 O6 2.372827 1_545
Nd1 O2 2.400608 1_654
Nd1 O8 2.464818 1_655
Nd1 O15 2.720255 1_555
O0 W3 1.902065 1_555
O0 W1 2.105556 1_555
O0 Rb0 2.754500 1_555
O1 W3 1.884258 1_555
O1 Rb1 2.745421 1_546
O1 Rb0 2.955273 1_555
O2 W3 1.965530 1_555
O2 Rb0 2.809166 1_455
O3 W2 1.985785 1_555
O3 Rb1 2.951412 1_545
O4 W0 1.919415 1_555
O4 W1 2.077627 1_555
O4 Rb1 3.025532 1_655
O5 W3 1.978335 1_555
O5 W2 2.056791 1_556
O5 Rb1 3.168448 1_546
O6 W0 1.935731 1_555
O6 Rb0 3.020385 1_565
O7 W1 2.035681 1_555
O7 W3 2.128774 1_555
O7 Rb1 2.962542 1_555
O8 W2 1.885987 1_555
O8 Rb0 2.855063 1_455
O9 W1 1.972058 1_555
O9 Rb1 2.847993 1_555
O9 Rb0 2.938817 1_564
O10 W0 2.053244 1_555
O10 W2 2.178556 1_556
O11 W1 1.868446 1_555
O11 Rb1 2.813344 1_655
O12 W3 1.942111 1_555
O12 W2 2.014918 1_555
O12 Rb0 2.909575 1_455
O13 W0 1.910340 1_554
O13 W1 2.073910 1_555
O14 W0 1.918183 1_555
O14 Rb1 2.870295 1_655
O15 W0 2.066249 1_554
O15 W2 2.066540 1_555
