# generated using pymatgen
data_Mg14MnSn
_symmetry_space_group_name_H-M   'P 1'
_cell_length_a   6.29739853
_cell_length_b   6.29039667
_cell_length_c   10.30028502
_cell_angle_alpha   90.00000000
_cell_angle_beta   90.00000000
_cell_angle_gamma   119.96323181
_symmetry_Int_Tables_number   1
_chemical_formula_structural   Mg14MnSn
_chemical_formula_sum   'Mg14 Mn1 Sn1'
_cell_volume   353.49222977
_cell_formula_units_Z   1
loop_
 _symmetry_equiv_pos_site_id
 _symmetry_equiv_pos_as_xyz
  1  'x, y, z'
loop_
 _atom_site_type_symbol
 _atom_site_label
 _atom_site_symmetry_multiplicity
 _atom_site_fract_x
 _atom_site_fract_y
 _atom_site_fract_z
 _atom_site_occupancy
  Mg  Mg0  1  0.16707928  0.33353914  0.62500000  1
  Mg  Mg1  1  0.16664073  0.83331987  0.62500000  1
  Mg  Mg2  1  0.66791285  0.33328930  0.12500000  1
  Mg  Mg3  1  0.66631648  0.33342077  0.62500000  1
  Mg  Mg4  1  0.66791285  0.83462255  0.12500000  1
  Mg  Mg5  1  0.66631648  0.83289470  0.62500000  1
  Mg  Mg6  1  0.33158766  0.16937732  0.37214806  1
  Mg  Mg7  1  0.33158766  0.16937732  0.87785194  1
  Mg  Mg8  1  0.33158766  0.66221135  0.37214806  1
  Mg  Mg9  1  0.33158766  0.66221135  0.87785194  1
  Mg  Mg10  1  0.83790523  0.16895311  0.37228068  1
  Mg  Mg11  1  0.83790523  0.16895311  0.87771932  1
  Mg  Mg12  1  0.83275820  0.66637960  0.37653135  1
  Mg  Mg13  1  0.83275820  0.66637960  0.87346865  1
  Mn  Mn0  1  0.16553121  0.33276511  0.12500000  1
  Sn  Sn0  1  0.16461262  0.83230581  0.12500000  1
loop_
_geom_bond_atom_site_label_1
_geom_bond_atom_site_label_2
_geom_bond_distance
_geom_bond_site_symmetry_2
Mg0 Mg5 3.144267 1_555
Mg0 Mg3 3.144268 1_555
Mg0 Mg1 3.145199 1_545
Mg0 Mg1 3.145199 1_555
Mg0 Mg5 3.153131 1_445
Mg0 Mg3 3.153131 1_455
Mg0 Mg7 3.160909 1_555
Mg0 Mg6 3.160909 1_555
Mg0 Mg9 3.160915 1_555
Mg0 Mg8 3.160915 1_555
Mg0 Mg10 3.162472 1_455
Mg0 Mg11 3.162472 1_455
Mg1 Mg12 3.141358 1_455
Mg1 Mg13 3.141358 1_455
Mg1 Mg3 3.147994 1_565
Mg1 Mg5 3.147994 1_555
Mg1 Mg3 3.149406 1_455
Mg1 Mg5 3.149406 1_455
Mg1 Mg9 3.183931 1_555
Mg1 Mg8 3.183931 1_555
Mg1 Mg7 3.183937 1_565
Mg1 Mg6 3.183937 1_565
Mg2 Sn0 3.135220 1_655
Mg2 Mn0 3.135349 1_655
Mg2 Mg4 3.136812 1_545
Mg2 Mg7 3.138173 1_554
Mg2 Mg6 3.138173 1_555
Mg2 Mg4 3.153585 1_555
Mg2 Mn0 3.162052 1_555
Mg2 Sn0 3.162229 1_545
Mg3 Mg5 3.141889 1_555
Mg3 Mg5 3.148508 1_545
Mg3 Mg6 3.180966 1_555
Mg3 Mg7 3.180966 1_555
Mg4 Sn0 3.135220 1_655
Mg4 Mn0 3.135349 1_665
Mg4 Mg8 3.138173 1_555
Mg4 Mg9 3.138173 1_554
Mg4 Mn0 3.162052 1_555
Mg4 Sn0 3.162229 1_555
Mg5 Mg9 3.180966 1_555
Mg5 Mg8 3.180966 1_555
Mg6 Mg8 3.100122 1_555
Mg6 Mn0 3.115124 1_555
Mg6 Sn0 3.139254 1_545
Mg6 Mg8 3.190275 1_545
Mg7 Mg9 3.100122 1_555
Mg7 Mn0 3.115124 1_556
Mg7 Sn0 3.139254 1_546
Mg7 Mg9 3.190275 1_545
Mg8 Mn0 3.115130 1_555
Mg8 Sn0 3.139248 1_555
Mg9 Mn0 3.115130 1_556
Mg9 Sn0 3.139248 1_556
Mg10 Mg8 3.107583 1_655
Mg10 Mg6 3.107583 1_655
Mg10 Mn0 3.111665 1_655
Mg10 Mg2 3.131698 1_555
Mg10 Mg4 3.131704 1_545
Mg10 Mg12 3.145628 1_545
Mg10 Mg12 3.145628 1_555
Mg10 Mg3 3.182868 1_555
Mg10 Mg5 3.182874 1_545
Mg10 Mg8 3.189817 1_545
Mg10 Mg6 3.189817 1_555
Mg11 Mg9 3.107583 1_655
Mg11 Mg7 3.107583 1_655
Mg11 Mn0 3.111665 1_656
Mg11 Mg2 3.131698 1_556
Mg11 Mg4 3.131704 1_546
Mg11 Mg13 3.145628 1_545
Mg11 Mg13 3.145628 1_555
Mg11 Mg3 3.182868 1_555
Mg11 Mg5 3.182874 1_545
Mg11 Mg9 3.189817 1_545
Mg11 Mg7 3.189817 1_555
Mg12 Mg5 3.137264 1_555
Mg12 Mg3 3.137270 1_555
Mg12 Mg6 3.143381 1_555
Mg12 Mg8 3.143382 1_555
Mg12 Mg6 3.154828 1_665
Mg12 Mg8 3.154828 1_655
Mg12 Sn0 3.160761 1_655
Mg12 Mg4 3.163473 1_555
Mg12 Mg2 3.163479 1_555
Mg13 Mg5 3.137264 1_555
Mg13 Mg3 3.137270 1_555
Mg13 Mg7 3.143381 1_555
Mg13 Mg9 3.143382 1_555
Mg13 Mg7 3.154828 1_665
Mg13 Mg9 3.154828 1_655
Mg13 Sn0 3.160761 1_656
Mg13 Mg4 3.163473 1_556
Mg13 Mg2 3.163479 1_556
Mn0 Sn0 3.145202 1_555
Mn0 Sn0 3.145202 1_545
