# generated using pymatgen
data_Mg14TiCrO16
_symmetry_space_group_name_H-M   'P 1'
_cell_length_a   8.64745526
_cell_length_b   8.53548578
_cell_length_c   4.24762508
_cell_angle_alpha   90.00000000
_cell_angle_beta   90.00000000
_cell_angle_gamma   90.00000000
_symmetry_Int_Tables_number   1
_chemical_formula_structural   Mg14TiCrO16
_chemical_formula_sum   'Mg14 Ti1 Cr1 O16'
_cell_volume   313.51819008
_cell_formula_units_Z   1
loop_
 _symmetry_equiv_pos_site_id
 _symmetry_equiv_pos_as_xyz
  1  'x, y, z'
loop_
 _atom_site_type_symbol
 _atom_site_label
 _atom_site_symmetry_multiplicity
 _atom_site_fract_x
 _atom_site_fract_y
 _atom_site_fract_z
 _atom_site_occupancy
  Mg  Mg0  1  0.50000000  0.00000000  0.00000000  1
  Mg  Mg1  1  0.50000000  0.50000000  0.00000000  1
  Mg  Mg2  1  0.00000000  0.25276235  0.50000000  1
  Mg  Mg3  1  0.00000000  0.74723765  0.50000000  1
  Mg  Mg4  1  0.50000000  0.25055561  0.50000000  1
  Mg  Mg5  1  0.50000000  0.74944439  0.50000000  1
  Mg  Mg6  1  0.25331431  0.00000000  0.50000000  1
  Mg  Mg7  1  0.25357089  0.50000000  0.50000000  1
  Mg  Mg8  1  0.74668569  0.00000000  0.50000000  1
  Mg  Mg9  1  0.74642911  0.50000000  0.50000000  1
  Mg  Mg10  1  0.25285997  0.25151915  0.00000000  1
  Mg  Mg11  1  0.25285997  0.74848085  0.00000000  1
  Mg  Mg12  1  0.74714003  0.25151915  -0.00000000  1
  Mg  Mg13  1  0.74714003  0.74848085  -0.00000000  1
  Ti  Ti0  1  0.00000000  0.00000000  0.00000000  1
  Cr  Cr0  1  0.00000000  0.50000000  0.00000000  1
  O  O0  1  0.25591002  0.00000000  -0.00000000  1
  O  O1  1  0.26498349  0.50000000  0.00000000  1
  O  O2  1  0.74408998  0.00000000  0.00000000  1
  O  O3  1  0.73501651  0.50000000  0.00000000  1
  O  O4  1  0.24859608  0.24977137  0.50000000  1
  O  O5  1  0.24859608  0.75022863  0.50000000  1
  O  O6  1  0.75140392  0.24977137  0.50000000  1
  O  O7  1  0.75140392  0.75022863  0.50000000  1
  O  O8  1  0.00000000  0.00000000  0.50000000  1
  O  O9  1  0.00000000  0.50000000  0.50000000  1
  O  O10  1  0.50000000  0.00000000  0.50000000  1
  O  O11  1  0.50000000  0.50000000  0.50000000  1
  O  O12  1  0.00000000  0.25099482  0.00000000  1
  O  O13  1  0.00000000  0.74900518  0.00000000  1
  O  O14  1  0.50000000  0.24757882  -0.00000000  1
  O  O15  1  0.50000000  0.75242118  0.00000000  1
loop_
_geom_bond_atom_site_label_1
_geom_bond_atom_site_label_2
_geom_bond_distance
_geom_bond_site_symmetry_2
Mg0 O0 2.110757 1_555
Mg0 O2 2.110757 1_555
Mg0 O15 2.113205 1_545
Mg0 O14 2.113205 1_555
Mg0 O10 2.123813 1_555
Mg0 O10 2.123813 1_554
Mg1 O3 2.032295 1_555
Mg1 O1 2.032295 1_555
Mg1 O11 2.123813 1_554
Mg1 O11 2.123813 1_555
Mg1 O15 2.154537 1_555
Mg1 O14 2.154537 1_555
Mg2 O9 2.110293 1_555
Mg2 O12 2.123866 1_556
Mg2 O12 2.123866 1_555
Mg2 O4 2.149875 1_555
Mg2 O6 2.149875 1_455
Mg2 O8 2.157449 1_555
Mg3 O9 2.110293 1_555
Mg3 O13 2.123866 1_555
Mg3 O13 2.123866 1_556
Mg3 O7 2.149875 1_455
Mg3 O5 2.149875 1_555
Mg3 O8 2.157449 1_565
Mg4 O14 2.123965 1_556
Mg4 O14 2.123965 1_555
Mg4 O11 2.129129 1_555
Mg4 O10 2.138614 1_555
Mg4 O4 2.174014 1_555
Mg4 O6 2.174014 1_555
Mg5 O15 2.123965 1_556
Mg5 O15 2.123965 1_555
Mg5 O11 2.129129 1_555
Mg5 O10 2.138614 1_565
Mg5 O7 2.174014 1_555
Mg5 O5 2.174014 1_555
Mg6 O0 2.123931 1_555
Mg6 O0 2.123931 1_556
Mg6 O4 2.132310 1_555
Mg6 O5 2.132310 1_545
Mg6 O10 2.133203 1_555
Mg6 O8 2.190524 1_555
Mg7 O1 2.126104 1_556
Mg7 O1 2.126104 1_555
Mg7 O11 2.130985 1_555
Mg7 O5 2.136256 1_555
Mg7 O4 2.136256 1_555
Mg7 O9 2.192743 1_555
Mg8 O2 2.123931 1_555
Mg8 O2 2.123931 1_556
Mg8 O6 2.132310 1_555
Mg8 O7 2.132310 1_545
Mg8 O10 2.133203 1_555
Mg8 O8 2.190524 1_655
Mg9 O3 2.126104 1_556
Mg9 O3 2.126104 1_555
Mg9 O11 2.130985 1_555
Mg9 O7 2.136256 1_555
Mg9 O6 2.136256 1_555
Mg9 O9 2.192743 1_655
Mg10 O1 2.123494 1_555
Mg10 O4 2.124185 1_554
Mg10 O4 2.124185 1_555
Mg10 O14 2.137397 1_555
Mg10 O0 2.147000 1_555
Mg10 O12 2.186600 1_555
Mg11 O1 2.123494 1_555
Mg11 O5 2.124185 1_554
Mg11 O5 2.124185 1_555
Mg11 O15 2.137397 1_555
Mg11 O0 2.147000 1_565
Mg11 O13 2.186600 1_555
Mg12 O3 2.123494 1_555
Mg12 O6 2.124185 1_555
Mg12 O6 2.124185 1_554
Mg12 O14 2.137397 1_555
Mg12 O2 2.147000 1_555
Mg12 O12 2.186600 1_655
Mg13 O3 2.123494 1_555
Mg13 O7 2.124185 1_554
Mg13 O7 2.124185 1_555
Mg13 O15 2.137397 1_555
Mg13 O2 2.147000 1_565
Mg13 O13 2.186600 1_655
Cr0 O9 2.123813 1_554
Cr0 O9 2.123813 1_555
Cr0 O12 2.125380 1_555
Cr0 O13 2.125380 1_555
Cr0 O1 2.291433 1_555
Cr0 O3 2.291433 1_455
O0 Ti0 2.212970 1_555
O2 Ti0 2.212970 1_655
O8 Ti0 2.123813 1_555
O8 Ti0 2.123813 1_556
O12 Ti0 2.142363 1_555
O13 Ti0 2.142363 1_565
