# generated using pymatgen
data_TbMgSn
_symmetry_space_group_name_H-M   'P 1'
_cell_length_a   8.53782209
_cell_length_b   8.53782209
_cell_length_c   8.53782209
_cell_angle_alpha   150.15628903
_cell_angle_beta   150.15628903
_cell_angle_gamma   42.71203607
_symmetry_Int_Tables_number   1
_chemical_formula_structural   TbMgSn
_chemical_formula_sum   'Tb2 Mg2 Sn2'
_cell_volume   153.73285666
_cell_formula_units_Z   2
loop_
 _symmetry_equiv_pos_site_id
 _symmetry_equiv_pos_as_xyz
  1  'x, y, z'
loop_
 _atom_site_type_symbol
 _atom_site_label
 _atom_site_symmetry_multiplicity
 _atom_site_fract_x
 _atom_site_fract_y
 _atom_site_fract_z
 _atom_site_occupancy
  Tb  Tb0  1  0.66669753  0.66669753  -0.00000000  1
  Tb  Tb1  1  0.33330247  0.33330247  0.00000000  1
  Mg  Mg0  1  0.00000000  0.50000000  0.50000000  1
  Mg  Mg1  1  0.50000000  0.00000000  0.50000000  1
  Sn  Sn0  1  0.86415738  0.86415738  0.00000000  1
  Sn  Sn1  1  0.13584262  0.13584262  -0.00000000  1
loop_
_geom_bond_atom_site_label_1
_geom_bond_atom_site_label_2
_geom_bond_distance
_geom_bond_site_symmetry_2
Mg0 Sn1 3.082275 1_555
Mg0 Sn1 3.082275 1_566
Mg0 Sn0 3.082275 1_445
Mg0 Sn0 3.082275 1_456
Mg0 Mg1 3.109150 1_566
Mg0 Mg1 3.109150 1_454
Mg0 Mg1 3.109150 1_555
Mg0 Mg1 3.109150 1_465
Mg0 Tb1 3.444023 1_556
Mg0 Tb1 3.444023 1_455
Mg0 Tb0 3.444023 1_556
Mg0 Tb0 3.444023 1_455
Mg1 Sn0 3.082275 1_445
Mg1 Sn0 3.082275 1_546
Mg1 Sn1 3.082275 1_656
Mg1 Sn1 3.082275 1_555
Mg1 Tb1 3.444023 1_556
Mg1 Tb1 3.444023 1_545
Mg1 Tb0 3.444023 1_556
Mg1 Tb0 3.444023 1_545
Sn0 Tb0 3.140235 1_555
Sn0 Tb1 3.147633 1_666
Sn0 Tb1 3.147633 1_554
Sn0 Tb1 3.147633 1_655
Sn0 Tb1 3.147633 1_565
Sn1 Tb1 3.140235 1_555
Sn1 Tb0 3.147633 1_444
Sn1 Tb0 3.147633 1_455
Sn1 Tb0 3.147633 1_545
Sn1 Tb0 3.147633 1_556
