# generated using pymatgen
data_Ba3Nb2NiO9
_symmetry_space_group_name_H-M   'P 1'
_cell_length_a   5.84486612
_cell_length_b   20.24583981
_cell_length_c   7.17986900
_cell_angle_alpha   89.99951133
_cell_angle_beta   89.99997922
_cell_angle_gamma   89.99997008
_symmetry_Int_Tables_number   1
_chemical_formula_structural   Ba3Nb2NiO9
_chemical_formula_sum   'Ba12 Nb8 Ni4 O36'
_cell_volume   849.62422054
_cell_formula_units_Z   4
loop_
 _symmetry_equiv_pos_site_id
 _symmetry_equiv_pos_as_xyz
  1  'x, y, z'
loop_
 _atom_site_type_symbol
 _atom_site_label
 _atom_site_symmetry_multiplicity
 _atom_site_fract_x
 _atom_site_fract_y
 _atom_site_fract_z
 _atom_site_occupancy
  Ba  Ba0  1  0.00000000  0.99998900  0.00000200  1
  Ba  Ba1  1  0.50000100  0.25000100  0.00001600  1
  Ba  Ba2  1  0.99999900  0.49999800  0.99998300  1
  Ba  Ba3  1  0.50000000  0.75001000  0.99999800  1
  Ba  Ba4  1  0.50000000  0.08336300  0.33486400  1
  Ba  Ba5  1  0.00000100  0.33332300  0.33482900  1
  Ba  Ba6  1  0.50000000  0.58330600  0.33485500  1
  Ba  Ba7  1  0.00000100  0.83334600  0.33485900  1
  Ba  Ba8  1  0.99999800  0.16669400  0.66514500  1
  Ba  Ba9  1  0.50000000  0.41667700  0.66517300  1
  Ba  Ba10  1  0.99999800  0.66663600  0.66513600  1
  Ba  Ba11  1  0.50000000  0.91665300  0.66514000  1
  Nb  Nb0  1  0.50000000  0.08332900  0.82136700  1
  Nb  Nb1  1  0.99999900  0.33333100  0.82142400  1
  Nb  Nb2  1  0.50000000  0.58335200  0.82132500  1
  Nb  Nb3  1  0.99999900  0.83334300  0.82125700  1
  Nb  Nb4  1  0.00000000  0.16664800  0.17867600  1
  Nb  Nb5  1  0.50000100  0.41666900  0.17857800  1
  Nb  Nb6  1  0.00000000  0.66667100  0.17863200  1
  Nb  Nb7  1  0.50000100  0.91665600  0.17874200  1
  Ni  Ni0  1  0.49999300  0.25027200  0.50027100  1
  Ni  Ni1  1  0.00000700  0.49973700  0.49972500  1
  Ni  Ni2  1  0.00000100  0.00029800  0.50018900  1
  Ni  Ni3  1  0.50000000  0.74970700  0.49981400  1
  O  O0  1  0.25003700  0.12500300  0.99998400  1
  O  O1  1  0.75000000  0.37500000  0.00000000  1
  O  O2  1  0.24996400  0.62499600  0.00001700  1
  O  O3  1  0.75000000  0.87500000  0.00000000  1
  O  O4  1  0.74996500  0.12500300  0.99998300  1
  O  O5  1  0.24999900  0.37500000  0.00000100  1
  O  O6  1  0.75003600  0.62499600  0.00001700  1
  O  O7  1  0.25000000  0.87499900  0.00000000  1
  O  O8  1  0.50000100  0.00000600  0.99998700  1
  O  O9  1  0.00000000  0.25000100  0.00001100  1
  O  O10  1  0.50000000  0.49999900  0.99998900  1
  O  O11  1  0.99999900  0.74999300  0.00001300  1
  O  O12  1  0.50000000  0.16457000  0.67363700  1
  O  O13  1  0.00000200  0.41453000  0.67366200  1
  O  O14  1  0.50000000  0.66450700  0.67367600  1
  O  O15  1  0.00000100  0.91454400  0.67369000  1
  O  O16  1  0.00000000  0.08549200  0.32632500  1
  O  O17  1  0.50000000  0.33547000  0.32633700  1
  O  O18  1  0.00000000  0.58542900  0.32636400  1
  O  O19  1  0.50000000  0.83545400  0.32631100  1
  O  O20  1  0.74356500  0.04276200  0.67367500  1
  O  O21  1  0.24353900  0.29275200  0.67371800  1
  O  O22  1  0.74361500  0.54271600  0.67365500  1
  O  O23  1  0.24363200  0.79270700  0.67364700  1
  O  O24  1  0.75638500  0.20728400  0.32634400  1
  O  O25  1  0.25646000  0.45724800  0.32628200  1
  O  O26  1  0.75643400  0.70723700  0.32632300  1
  O  O27  1  0.25636900  0.95729200  0.32635200  1
  O  O28  1  0.25643400  0.04276200  0.67367600  1
  O  O29  1  0.75646000  0.29275200  0.67371800  1
  O  O30  1  0.25638600  0.54271600  0.67365500  1
  O  O31  1  0.75636800  0.79270700  0.67364700  1
  O  O32  1  0.24361300  0.20728400  0.32634400  1
  O  O33  1  0.74354000  0.45724800  0.32628200  1
  O  O34  1  0.24356500  0.70723700  0.32632400  1
  O  O35  1  0.74363100  0.95729200  0.32635200  1
loop_
_geom_bond_atom_site_label_1
_geom_bond_atom_site_label_2
_geom_bond_distance
_geom_bond_site_symmetry_2
Ba0 O15 2.912339 1_554
Ba0 O35 2.912541 1_455
Ba0 O27 2.912542 1_555
Ba0 O28 2.913055 1_564
Ba0 O20 2.913065 1_464
Ba0 O16 2.913100 1_565
Ba0 O3 2.922093 1_455
Ba0 O7 2.922109 1_555
Ba0 O8 2.922427 1_464
Ba0 O8 2.922439 1_564
Ba0 O4 2.922632 1_464
Ba0 O0 2.922639 1_564
Ba1 O12 2.912558 1_554
Ba1 O24 2.912580 1_555
Ba1 O32 2.912592 1_555
Ba1 O17 2.912680 1_555
Ba1 O29 2.912836 1_554
Ba1 O21 2.912846 1_554
Ba1 O4 2.922144 1_554
Ba1 O0 2.922145 1_554
Ba1 O1 2.922265 1_555
Ba1 O5 2.922272 1_555
Ba1 O9 2.922427 1_655
Ba1 O9 2.922439 1_555
Ba2 O18 2.912569 1_656
Ba2 O22 2.912586 1_555
Ba2 O30 2.912595 1_655
Ba2 O13 2.912667 1_655
Ba2 O33 2.912836 1_556
Ba2 O25 2.912843 1_656
Ba2 O6 2.922141 1_556
Ba2 O2 2.922148 1_656
Ba2 O1 2.922247 1_556
Ba2 O5 2.922249 1_656
Ba2 O10 2.922427 1_555
Ba2 O10 2.922439 1_655
Ba3 O19 2.912333 1_556
Ba3 O31 2.912544 1_555
Ba3 O23 2.912545 1_555
Ba3 O26 2.913050 1_556
Ba3 O34 2.913058 1_556
Ba3 O14 2.913094 1_555
Ba3 O7 2.922091 1_556
Ba3 O3 2.922110 1_556
Ba3 O11 2.922427 1_556
Ba3 O11 2.922439 1_456
Ba3 O6 2.922635 1_556
Ba3 O2 2.922636 1_556
Ba4 O24 2.922988 1_555
Ba4 O32 2.922992 1_555
Ba4 O16 2.923394 1_555
Ba4 O16 2.923394 1_655
Ba4 O35 2.923405 1_545
Ba4 O27 2.923406 1_545
Ba4 O12 2.935890 1_555
Ba4 O20 2.935973 1_555
Ba4 O28 2.935981 1_555
Ba4 O0 2.937058 1_554
Ba4 O4 2.937070 1_554
Ba4 O8 2.937547 1_554
Ba5 O32 2.922781 1_555
Ba5 O24 2.922794 1_455
Ba5 O25 2.923283 1_555
Ba5 O33 2.923288 1_455
Ba5 O17 2.923386 1_555
Ba5 O17 2.923398 1_455
Ba5 O21 2.936191 1_555
Ba5 O29 2.936199 1_455
Ba5 O13 2.936247 1_555
Ba5 O9 2.936793 1_555
Ba5 O5 2.937069 1_555
Ba5 O1 2.937084 1_455
Ba6 O33 2.922925 1_555
Ba6 O25 2.922927 1_555
Ba6 O26 2.923310 1_555
Ba6 O34 2.923311 1_555
Ba6 O18 2.923385 1_555
Ba6 O18 2.923385 1_655
Ba6 O30 2.935984 1_555
Ba6 O22 2.935987 1_555
Ba6 O14 2.936108 1_555
Ba6 O10 2.936901 1_554
Ba6 O6 2.937314 1_555
Ba6 O2 2.937315 1_555
Ba7 O27 2.923369 1_555
Ba7 O35 2.923374 1_455
Ba7 O19 2.923383 1_555
Ba7 O19 2.923395 1_455
Ba7 O34 2.923889 1_555
Ba7 O26 2.923899 1_455
Ba7 O15 2.936133 1_555
Ba7 O23 2.936239 1_555
Ba7 O31 2.936244 1_455
Ba7 O7 2.937115 1_555
Ba7 O3 2.937127 1_455
Ba7 O11 2.937318 1_455
Ba8 O29 2.922920 1_555
Ba8 O21 2.922929 1_655
Ba8 O20 2.923324 1_555
Ba8 O28 2.923332 1_655
Ba8 O12 2.923374 1_555
Ba8 O12 2.923397 1_655
Ba8 O24 2.935987 1_555
Ba8 O32 2.935992 1_655
Ba8 O16 2.936113 1_655
Ba8 O9 2.936901 1_656
Ba8 O4 2.937311 1_555
Ba8 O0 2.937335 1_655
Ba9 O30 2.922786 1_555
Ba9 O22 2.922791 1_555
Ba9 O29 2.923284 1_555
Ba9 O21 2.923289 1_555
Ba9 O13 2.923380 1_555
Ba9 O13 2.923403 1_655
Ba9 O33 2.936208 1_555
Ba9 O25 2.936208 1_555
Ba9 O17 2.936265 1_555
Ba9 O10 2.936781 1_555
Ba9 O1 2.937070 1_556
Ba9 O5 2.937078 1_556
Ba10 O22 2.922964 1_555
Ba10 O30 2.922978 1_655
Ba10 O14 2.923382 1_555
Ba10 O31 2.923402 1_555
Ba10 O14 2.923406 1_655
Ba10 O23 2.923415 1_655
Ba10 O18 2.935884 1_655
Ba10 O26 2.935982 1_555
Ba10 O34 2.935984 1_655
Ba10 O6 2.937061 1_556
Ba10 O2 2.937073 1_656
Ba10 O11 2.937547 1_556
Ba11 O31 2.923368 1_555
Ba11 O23 2.923369 1_555
Ba11 O15 2.923384 1_555
Ba11 O15 2.923395 1_655
Ba11 O20 2.923894 1_565
Ba11 O28 2.923895 1_565
Ba11 O19 2.936133 1_555
Ba11 O35 2.936238 1_555
Ba11 O27 2.936239 1_555
Ba11 O3 2.937124 1_556
Ba11 O7 2.937129 1_556
Ba11 O8 2.937324 1_565
Nb0 O20 1.955936 1_555
Nb0 O28 1.955938 1_555
Nb0 O12 1.957130 1_555
Nb0 O8 2.119072 1_555
Nb0 O0 2.119217 1_555
Nb0 O4 2.119222 1_555
Nb1 O29 1.955983 1_555
Nb1 O21 1.955986 1_655
Nb1 O13 1.956540 1_655
Nb1 O9 2.119042 1_656
Nb1 O1 2.119143 1_556
Nb1 O5 2.119153 1_656
Nb2 O14 1.955352 1_555
Nb2 O30 1.956647 1_555
Nb2 O22 1.956650 1_555
Nb2 O2 2.119595 1_556
Nb2 O6 2.119596 1_556
Nb2 O10 2.119747 1_555
Nb3 O15 1.955815 1_655
Nb3 O31 1.956486 1_555
Nb3 O23 1.956493 1_655
Nb3 O3 2.119772 1_556
Nb3 O7 2.119774 1_656
Nb3 O11 2.120099 1_556
Nb4 O16 1.955369 1_555
Nb4 O32 1.956635 1_555
Nb4 O24 1.956642 1_455
Nb4 O4 2.119605 1_454
Nb4 O0 2.119607 1_554
Nb4 O9 2.119752 1_555
Nb5 O33 1.955975 1_555
Nb5 O25 1.955983 1_555
Nb5 O17 1.956528 1_555
Nb5 O10 2.119051 1_554
Nb5 O1 2.119152 1_555
Nb5 O5 2.119161 1_555
Nb6 O26 1.955928 1_455
Nb6 O34 1.955929 1_555
Nb6 O18 1.957155 1_555
Nb6 O11 2.119052 1_455
Nb6 O2 2.119220 1_555
Nb6 O6 2.119221 1_455
Nb7 O19 1.955840 1_555
Nb7 O35 1.956482 1_555
Nb7 O27 1.956489 1_555
Nb7 O3 2.119760 1_555
Nb7 O7 2.119777 1_555
Nb7 O8 2.120094 1_564
Ni0 O17 2.129512 1_555
Ni0 O21 2.130105 1_555
Ni0 O29 2.130160 1_555
Ni0 O12 2.135406 1_555
Ni0 O32 2.135989 1_555
Ni0 O24 2.136037 1_555
Ni1 O13 2.129672 1_555
Ni1 O25 2.130158 1_555
Ni1 O33 2.130217 1_455
Ni1 O18 2.135220 1_555
Ni1 O30 2.135923 1_555
Ni1 O22 2.135975 1_455
Ni2 O16 2.129151 1_555
Ni2 O28 2.130057 1_555
Ni2 O20 2.130064 1_455
Ni2 O27 2.135709 1_545
Ni2 O35 2.135719 1_445
Ni2 O15 2.136826 1_545
Ni3 O14 2.129241 1_555
Ni3 O26 2.130126 1_555
Ni3 O34 2.130127 1_555
Ni3 O23 2.135643 1_555
Ni3 O31 2.135644 1_555
Ni3 O19 2.136719 1_555
