# generated using pymatgen
data_RbNd(MoO4)2
_symmetry_space_group_name_H-M   'P 1'
_cell_length_a   7.67756664
_cell_length_b   7.67756664
_cell_length_c   7.90463294
_cell_angle_alpha   61.89230367
_cell_angle_beta   61.89230367
_cell_angle_gamma   88.86362963
_symmetry_Int_Tables_number   1
_chemical_formula_structural   RbNd(MoO4)2
_chemical_formula_sum   'Rb2 Nd2 Mo4 O16'
_cell_volume   350.06956346
_cell_formula_units_Z   2
loop_
 _symmetry_equiv_pos_site_id
 _symmetry_equiv_pos_as_xyz
  1  'x, y, z'
loop_
 _atom_site_type_symbol
 _atom_site_label
 _atom_site_symmetry_multiplicity
 _atom_site_fract_x
 _atom_site_fract_y
 _atom_site_fract_z
 _atom_site_occupancy
  Rb  Rb0  1  0.19947900  0.80052100  0.75000000  1
  Rb  Rb1  1  0.80052100  0.19947900  0.25000000  1
  Nd  Nd0  1  0.77012500  0.22987500  0.75000000  1
  Nd  Nd1  1  0.22987500  0.77012500  0.25000000  1
  Mo  Mo0  1  0.69293800  0.69547600  0.76220800  1
  Mo  Mo1  1  0.30706200  0.30452400  0.23779200  1
  Mo  Mo2  1  0.30452400  0.30706200  0.73779200  1
  Mo  Mo3  1  0.69547600  0.69293800  0.26220800  1
  O  O0  1  0.61624100  0.76367100  0.56351900  1
  O  O1  1  0.38375900  0.23632900  0.43648100  1
  O  O2  1  0.23632900  0.38375900  0.93648100  1
  O  O3  1  0.76367100  0.61624100  0.06351900  1
  O  O4  1  0.38467400  0.07422400  0.86848800  1
  O  O5  1  0.61532600  0.92577600  0.13151200  1
  O  O6  1  0.92577600  0.61532600  0.63151200  1
  O  O7  1  0.07422400  0.38467400  0.36848800  1
  O  O8  1  0.58102600  0.36932900  0.97461100  1
  O  O9  1  0.41897400  0.63067100  0.02538900  1
  O  O10  1  0.63067100  0.41897400  0.52538900  1
  O  O11  1  0.36932900  0.58102600  0.47461100  1
  O  O12  1  0.79307500  0.94602900  0.69148200  1
  O  O13  1  0.20692500  0.05397100  0.30851800  1
  O  O14  1  0.05397100  0.20692500  0.80851800  1
  O  O15  1  0.94602900  0.79307500  0.19148200  1
loop_
_geom_bond_atom_site_label_1
_geom_bond_atom_site_label_2
_geom_bond_distance
_geom_bond_site_symmetry_2
Nd0 O8 2.388952 1_555
Nd0 O10 2.388952 1_555
Nd0 O12 2.419077 1_545
Nd0 O14 2.419077 1_655
Nd0 O5 2.461004 1_546
Nd0 O7 2.461004 1_655
Nd0 O4 2.745335 1_555
Nd0 O6 2.745335 1_555
Nd1 O9 2.388952 1_555
Nd1 O11 2.388952 1_555
Nd1 O15 2.419077 1_455
Nd1 O13 2.419077 1_565
Nd1 O6 2.461004 1_455
Nd1 O4 2.461004 1_564
Nd1 O7 2.745335 1_555
Nd1 O5 2.745335 1_555
Mo0 O0 1.780985 1_555
Mo0 O12 1.801201 1_555
Mo0 O6 1.859248 1_555
Mo0 O9 1.985623 1_556
Mo0 O8 2.142871 1_555
Mo0 O3 2.485585 1_556
Mo1 O1 1.780985 1_555
Mo1 O13 1.801201 1_555
Mo1 O7 1.859248 1_555
Mo1 O8 1.985623 1_554
Mo1 O9 2.142871 1_555
Mo1 O2 2.485585 1_554
Mo2 O2 1.780985 1_555
Mo2 O14 1.801201 1_555
Mo2 O4 1.859248 1_555
Mo2 O11 1.985623 1_555
Mo2 O10 2.142871 1_555
Mo2 O1 2.485585 1_555
Mo3 O3 1.780985 1_555
Mo3 O15 1.801201 1_555
Mo3 O5 1.859248 1_555
Mo3 O10 1.985623 1_555
Mo3 O11 2.142871 1_555
Mo3 O0 2.485585 1_555
O0 Rb0 2.898948 1_555
O0 Rb1 2.899900 1_565
O1 Rb1 2.898948 1_555
O1 Rb0 2.899900 1_545
O2 Rb0 2.898948 1_555
O2 Rb1 2.899900 1_456
O3 Rb1 2.898948 1_555
O3 Rb0 2.899900 1_654
O4 Rb0 3.246919 1_545
O5 Rb1 3.246919 1_565
O6 Rb0 3.246919 1_655
O7 Rb1 3.246919 1_455
O8 Rb1 3.158113 1_556
O9 Rb0 3.158113 1_554
O10 Rb1 3.158113 1_555
O11 Rb0 3.158113 1_555
O12 Rb1 3.063653 1_565
O12 Rb0 3.454327 1_655
O13 Rb0 3.063653 1_545
O13 Rb1 3.454327 1_455
O14 Rb1 3.063653 1_456
O14 Rb0 3.454327 1_545
O15 Rb0 3.063653 1_654
O15 Rb1 3.454327 1_565
