# generated using pymatgen
data_MgBi
_symmetry_space_group_name_H-M   'P 1'
_cell_length_a   13.16311178
_cell_length_b   13.16311178
_cell_length_c   16.10713499
_cell_angle_alpha   74.17927279
_cell_angle_beta   74.17927279
_cell_angle_gamma   30.46129861
_symmetry_Int_Tables_number   1
_chemical_formula_structural   MgBi
_chemical_formula_sum   'Mg24 Bi24'
_cell_volume   1357.18337454
_cell_formula_units_Z   24
loop_
 _symmetry_equiv_pos_site_id
 _symmetry_equiv_pos_as_xyz
  1  'x, y, z'
loop_
 _atom_site_type_symbol
 _atom_site_label
 _atom_site_symmetry_multiplicity
 _atom_site_fract_x
 _atom_site_fract_y
 _atom_site_fract_z
 _atom_site_occupancy
  Mg  Mg0_0  1  0.30605450  0.30605450  0.13607800  1
  Mg  Mg0_1  1  0.30605450  0.30605450  0.63607800  1
  Mg  Mg0_2  1  0.30605450  0.80605450  0.13607800  1
  Mg  Mg0_3  1  0.30605450  0.80605450  0.63607800  1
  Mg  Mg0_4  1  0.80605450  0.30605450  0.13607800  1
  Mg  Mg0_5  1  0.80605450  0.30605450  0.63607800  1
  Mg  Mg0_6  1  0.80605450  0.80605450  0.13607800  1
  Mg  Mg0_7  1  0.80605450  0.80605450  0.63607800  1
  Mg  Mg1_0  1  0.16760950  0.16760950  0.16475200  1
  Mg  Mg1_1  1  0.16760950  0.16760950  0.66475200  1
  Mg  Mg1_2  1  0.16760950  0.66760950  0.16475200  1
  Mg  Mg1_3  1  0.16760950  0.66760950  0.66475200  1
  Mg  Mg1_4  1  0.66760950  0.16760950  0.16475200  1
  Mg  Mg1_5  1  0.66760950  0.16760950  0.66475200  1
  Mg  Mg1_6  1  0.66760950  0.66760950  0.16475200  1
  Mg  Mg1_7  1  0.66760950  0.66760950  0.66475200  1
  Mg  Mg2_0  1  0.46904800  0.46904800  0.30927850  1
  Mg  Mg2_1  1  0.46904800  0.46904800  0.80927850  1
  Mg  Mg2_2  1  0.46904800  0.96904800  0.30927850  1
  Mg  Mg2_3  1  0.46904800  0.96904800  0.80927850  1
  Mg  Mg2_4  1  0.96904800  0.46904800  0.30927850  1
  Mg  Mg2_5  1  0.96904800  0.46904800  0.80927850  1
  Mg  Mg2_6  1  0.96904800  0.96904800  0.30927850  1
  Mg  Mg2_7  1  0.96904800  0.96904800  0.80927850  1
  Bi  Bi0_0  1  0.00333500  0.00333500  0.01772350  1
  Bi  Bi0_1  1  0.00333500  0.00333500  0.51772350  1
  Bi  Bi0_2  1  0.00333500  0.50333500  0.01772350  1
  Bi  Bi0_3  1  0.00333500  0.50333500  0.51772350  1
  Bi  Bi0_4  1  0.50333500  0.00333500  0.01772350  1
  Bi  Bi0_5  1  0.50333500  0.00333500  0.51772350  1
  Bi  Bi0_6  1  0.50333500  0.50333500  0.01772350  1
  Bi  Bi0_7  1  0.50333500  0.50333500  0.51772350  1
  Bi  Bi1_0  1  0.33393550  0.33393550  0.30172950  1
  Bi  Bi1_1  1  0.33393550  0.33393550  0.80172950  1
  Bi  Bi1_2  1  0.33393550  0.83393550  0.30172950  1
  Bi  Bi1_3  1  0.33393550  0.83393550  0.80172950  1
  Bi  Bi1_4  1  0.83393550  0.33393550  0.30172950  1
  Bi  Bi1_5  1  0.83393550  0.33393550  0.80172950  1
  Bi  Bi1_6  1  0.83393550  0.83393550  0.30172950  1
  Bi  Bi1_7  1  0.83393550  0.83393550  0.80172950  1
  Bi  Bi2_0  1  0.13668350  0.13668350  0.48710450  1
  Bi  Bi2_1  1  0.13668350  0.13668350  0.98710450  1
  Bi  Bi2_2  1  0.13668350  0.63668350  0.48710450  1
  Bi  Bi2_3  1  0.13668350  0.63668350  0.98710450  1
  Bi  Bi2_4  1  0.63668350  0.13668350  0.48710450  1
  Bi  Bi2_5  1  0.63668350  0.13668350  0.98710450  1
  Bi  Bi2_6  1  0.63668350  0.63668350  0.48710450  1
  Bi  Bi2_7  1  0.63668350  0.63668350  0.98710450  1
loop_
_geom_bond_atom_site_label_1
_geom_bond_atom_site_label_2
_geom_bond_distance
_geom_bond_site_symmetry_2
Mg0_0 Mg1_0 3.415077 1_555
Mg0_0 Mg0_6 3.458020 1_455
Mg0_0 Mg0_6 3.458020 1_545
Mg0_0 Mg1_2 3.460065 1_555
Mg0_0 Mg1_4 3.460065 1_555
Mg0_0 Mg2_4 3.488919 1_455
Mg0_0 Mg2_2 3.488919 1_545
Mg0_1 Mg1_1 3.415077 1_555
Mg0_1 Mg0_7 3.458020 1_455
Mg0_1 Mg0_7 3.458020 1_545
Mg0_1 Mg1_3 3.460065 1_555
Mg0_1 Mg1_5 3.460065 1_555
Mg0_1 Mg2_3 3.488919 1_545
Mg0_1 Mg2_5 3.488919 1_455
Mg0_2 Mg1_2 3.415077 1_555
Mg0_2 Mg0_4 3.458020 1_555
Mg0_2 Mg0_4 3.458020 1_465
Mg0_2 Mg1_6 3.460065 1_555
Mg0_2 Mg1_0 3.460065 1_565
Mg0_2 Mg2_0 3.488919 1_555
Mg0_2 Mg2_6 3.488919 1_455
Mg0_3 Mg1_3 3.415077 1_555
Mg0_3 Mg0_5 3.458020 1_465
Mg0_3 Mg0_5 3.458020 1_555
Mg0_3 Mg1_7 3.460065 1_555
Mg0_3 Mg1_1 3.460065 1_565
Mg0_3 Mg2_1 3.488919 1_555
Mg0_3 Mg2_7 3.488919 1_455
Mg0_4 Mg1_4 3.415077 1_555
Mg0_4 Mg1_6 3.460065 1_555
Mg0_4 Mg1_0 3.460065 1_655
Mg0_4 Mg2_0 3.488919 1_555
Mg0_4 Mg2_6 3.488919 1_545
Mg0_5 Mg1_5 3.415077 1_555
Mg0_5 Mg1_7 3.460065 1_555
Mg0_5 Mg1_1 3.460065 1_655
Mg0_5 Mg2_1 3.488919 1_555
Mg0_5 Mg2_7 3.488919 1_545
Mg0_6 Mg1_6 3.415077 1_555
Mg0_6 Mg1_4 3.460065 1_565
Mg0_6 Mg1_2 3.460065 1_655
Mg0_6 Mg2_2 3.488919 1_555
Mg0_6 Mg2_4 3.488919 1_555
Mg0_7 Mg1_7 3.415077 1_555
Mg0_7 Mg1_3 3.460065 1_655
Mg0_7 Mg1_5 3.460065 1_565
Mg0_7 Mg2_3 3.488919 1_555
Mg0_7 Mg2_5 3.488919 1_555
Mg1_0 Mg2_2 3.440167 1_545
Mg1_0 Mg2_4 3.440167 1_455
Mg1_0 Mg1_6 3.458020 1_455
Mg1_0 Mg1_6 3.458020 1_545
Mg1_1 Mg2_3 3.440167 1_545
Mg1_1 Mg2_5 3.440167 1_455
Mg1_1 Mg1_7 3.458020 1_545
Mg1_1 Mg1_7 3.458020 1_455
Mg1_2 Mg2_6 3.440167 1_455
Mg1_2 Mg2_0 3.440167 1_555
Mg1_2 Mg1_4 3.458020 1_555
Mg1_2 Mg1_4 3.458020 1_465
Mg1_3 Mg2_7 3.440167 1_455
Mg1_3 Mg2_1 3.440167 1_555
Mg1_3 Mg1_5 3.458020 1_555
Mg1_3 Mg1_5 3.458020 1_465
Mg1_4 Mg2_6 3.440167 1_545
Mg1_4 Mg2_0 3.440167 1_555
Mg1_5 Mg2_7 3.440167 1_545
Mg1_5 Mg2_1 3.440167 1_555
Mg1_6 Mg2_4 3.440167 1_555
Mg1_6 Mg2_2 3.440167 1_555
Mg1_7 Mg2_3 3.440167 1_555
Mg1_7 Mg2_5 3.440167 1_555
Mg2_0 Mg2_6 3.458020 1_455
Mg2_0 Mg2_6 3.458020 1_545
Mg2_1 Mg2_7 3.458020 1_545
Mg2_1 Mg2_7 3.458020 1_455
Mg2_2 Mg2_4 3.458020 1_465
Mg2_2 Mg2_4 3.458020 1_555
Mg2_3 Mg2_5 3.458020 1_555
Mg2_3 Mg2_5 3.458020 1_465
Bi0_0 Mg0_4 3.140009 1_455
Bi0_0 Mg0_2 3.140009 1_545
Bi0_0 Mg1_4 3.228847 1_455
Bi0_0 Mg1_2 3.228847 1_545
Bi0_0 Bi2_1 3.282181 1_554
Bi0_0 Bi0_6 3.458020 1_455
Bi0_0 Bi0_6 3.458020 1_545
Bi0_0 Bi2_5 3.583108 1_454
Bi0_0 Bi2_3 3.583108 1_544
Bi0_1 Mg0_5 3.140009 1_455
Bi0_1 Mg0_3 3.140009 1_545
Bi0_1 Mg1_3 3.228847 1_545
Bi0_1 Mg1_5 3.228847 1_455
Bi0_1 Bi2_0 3.282181 1_555
Bi0_1 Bi0_7 3.458020 1_545
Bi0_1 Bi0_7 3.458020 1_455
Bi0_1 Bi2_2 3.583108 1_545
Bi0_1 Bi2_4 3.583108 1_455
Bi0_2 Mg0_6 3.140009 1_455
Bi0_2 Mg0_0 3.140009 1_555
Bi0_2 Mg1_0 3.228847 1_555
Bi0_2 Mg1_6 3.228847 1_455
Bi0_2 Bi2_3 3.282181 1_554
Bi0_2 Bi0_4 3.458020 1_555
Bi0_2 Bi0_4 3.458020 1_465
Bi0_2 Bi2_1 3.583108 1_554
Bi0_2 Bi2_7 3.583108 1_454
Bi0_3 Mg0_7 3.140009 1_455
Bi0_3 Mg0_1 3.140009 1_555
Bi0_3 Mg1_1 3.228847 1_555
Bi0_3 Mg1_7 3.228847 1_455
Bi0_3 Bi2_2 3.282181 1_555
Bi0_3 Bi0_5 3.458020 1_555
Bi0_3 Bi0_5 3.458020 1_465
Bi0_3 Bi2_0 3.583108 1_555
Bi0_3 Bi2_6 3.583108 1_455
Bi0_4 Mg0_6 3.140009 1_545
Bi0_4 Mg0_0 3.140009 1_555
Bi0_4 Mg1_0 3.228847 1_555
Bi0_4 Mg1_6 3.228847 1_545
Bi0_4 Bi2_5 3.282181 1_554
Bi0_4 Bi2_1 3.583108 1_554
Bi0_4 Bi2_7 3.583108 1_544
Bi0_5 Mg0_7 3.140009 1_545
Bi0_5 Mg0_1 3.140009 1_555
Bi0_5 Mg1_1 3.228847 1_555
Bi0_5 Mg1_7 3.228847 1_545
Bi0_5 Bi2_4 3.282181 1_555
Bi0_5 Bi2_0 3.583108 1_555
Bi0_5 Bi2_6 3.583108 1_545
Bi0_6 Mg0_4 3.140009 1_555
Bi0_6 Mg0_2 3.140009 1_555
Bi0_6 Mg1_2 3.228847 1_555
Bi0_6 Mg1_4 3.228847 1_555
Bi0_6 Bi2_7 3.282181 1_554
Bi0_6 Bi2_5 3.583108 1_554
Bi0_6 Bi2_3 3.583108 1_554
Bi0_7 Mg0_3 3.140009 1_555
Bi0_7 Mg0_5 3.140009 1_555
Bi0_7 Mg1_3 3.228847 1_555
Bi0_7 Mg1_5 3.228847 1_555
Bi0_7 Bi2_6 3.282181 1_555
Bi0_7 Bi2_2 3.583108 1_555
Bi0_7 Bi2_4 3.583108 1_555
Bi1_0 Mg0_0 2.947637 1_555
Bi1_0 Mg1_4 3.118465 1_555
Bi1_0 Mg1_2 3.118465 1_555
Bi1_0 Mg2_2 3.364569 1_545
Bi1_0 Mg2_4 3.364569 1_455
Bi1_0 Bi1_6 3.458020 1_545
Bi1_0 Bi1_6 3.458020 1_455
Bi1_0 Mg2_0 3.468384 1_555
Bi1_1 Mg0_1 2.947637 1_555
Bi1_1 Mg1_5 3.118465 1_555
Bi1_1 Mg1_3 3.118465 1_555
Bi1_1 Mg2_5 3.364569 1_455
Bi1_1 Mg2_3 3.364569 1_545
Bi1_1 Bi1_7 3.458020 1_545
Bi1_1 Bi1_7 3.458020 1_455
Bi1_1 Mg2_1 3.468384 1_555
Bi1_2 Mg0_2 2.947637 1_555
Bi1_2 Mg1_0 3.118465 1_565
Bi1_2 Mg1_6 3.118465 1_555
Bi1_2 Mg2_6 3.364569 1_455
Bi1_2 Mg2_0 3.364569 1_555
Bi1_2 Bi1_4 3.458020 1_465
Bi1_2 Bi1_4 3.458020 1_555
Bi1_2 Mg2_2 3.468384 1_555
Bi1_3 Mg0_3 2.947637 1_555
Bi1_3 Mg1_7 3.118465 1_555
Bi1_3 Mg1_1 3.118465 1_565
Bi1_3 Mg2_1 3.364569 1_555
Bi1_3 Mg2_7 3.364569 1_455
Bi1_3 Bi1_5 3.458020 1_465
Bi1_3 Bi1_5 3.458020 1_555
Bi1_3 Mg2_3 3.468384 1_555
Bi1_4 Mg0_4 2.947637 1_555
Bi1_4 Mg1_0 3.118465 1_655
Bi1_4 Mg1_6 3.118465 1_555
Bi1_4 Mg2_6 3.364569 1_545
Bi1_4 Mg2_0 3.364569 1_555
Bi1_4 Mg2_4 3.468384 1_555
Bi1_5 Mg0_5 2.947637 1_555
Bi1_5 Mg1_7 3.118465 1_555
Bi1_5 Mg1_1 3.118465 1_655
Bi1_5 Mg2_1 3.364569 1_555
Bi1_5 Mg2_7 3.364569 1_545
Bi1_5 Mg2_5 3.468384 1_555
Bi1_6 Mg0_6 2.947637 1_555
Bi1_6 Mg1_2 3.118465 1_655
Bi1_6 Mg1_4 3.118465 1_565
Bi1_6 Mg2_2 3.364569 1_555
Bi1_6 Mg2_4 3.364569 1_555
Bi1_6 Mg2_6 3.468384 1_555
Bi1_7 Mg0_7 2.947637 1_555
Bi1_7 Mg1_3 3.118465 1_655
Bi1_7 Mg1_5 3.118465 1_565
Bi1_7 Mg2_5 3.364569 1_555
Bi1_7 Mg2_3 3.364569 1_555
Bi1_7 Mg2_7 3.468384 1_555
Bi2_0 Mg1_1 3.174104 1_555
Bi2_0 Mg0_5 3.188222 1_455
Bi2_0 Mg0_3 3.188222 1_545
Bi2_0 Bi2_6 3.458020 1_455
Bi2_0 Bi2_6 3.458020 1_545
Bi2_0 Mg2_4 3.490602 1_455
Bi2_0 Mg2_2 3.490602 1_545
Bi2_1 Mg1_0 3.174104 1_556
Bi2_1 Mg0_4 3.188222 1_456
Bi2_1 Mg0_2 3.188222 1_546
Bi2_1 Bi2_7 3.458020 1_455
Bi2_1 Bi2_7 3.458020 1_545
Bi2_1 Mg2_5 3.490602 1_455
Bi2_1 Mg2_3 3.490602 1_545
Bi2_2 Mg1_3 3.174104 1_555
Bi2_2 Mg0_1 3.188222 1_555
Bi2_2 Mg0_7 3.188222 1_455
Bi2_2 Bi2_4 3.458020 1_465
Bi2_2 Bi2_4 3.458020 1_555
Bi2_2 Mg2_0 3.490602 1_555
Bi2_2 Mg2_6 3.490602 1_455
Bi2_3 Mg1_2 3.174104 1_556
Bi2_3 Mg0_0 3.188222 1_556
Bi2_3 Mg0_6 3.188222 1_456
Bi2_3 Bi2_5 3.458020 1_465
Bi2_3 Bi2_5 3.458020 1_555
Bi2_3 Mg2_7 3.490602 1_455
Bi2_3 Mg2_1 3.490602 1_555
Bi2_4 Mg1_5 3.174104 1_555
Bi2_4 Mg0_1 3.188222 1_555
Bi2_4 Mg0_7 3.188222 1_545
Bi2_4 Mg2_6 3.490602 1_545
Bi2_4 Mg2_0 3.490602 1_555
Bi2_5 Mg1_4 3.174104 1_556
Bi2_5 Mg0_0 3.188222 1_556
Bi2_5 Mg0_6 3.188222 1_546
Bi2_5 Mg2_7 3.490602 1_545
Bi2_5 Mg2_1 3.490602 1_555
Bi2_6 Mg1_7 3.174104 1_555
Bi2_6 Mg0_5 3.188222 1_555
Bi2_6 Mg0_3 3.188222 1_555
Bi2_6 Mg2_4 3.490602 1_555
Bi2_6 Mg2_2 3.490602 1_555
Bi2_7 Mg1_6 3.174104 1_556
Bi2_7 Mg0_4 3.188222 1_556
Bi2_7 Mg0_2 3.188222 1_556
Bi2_7 Mg2_5 3.490602 1_555
Bi2_7 Mg2_3 3.490602 1_555
