# generated using pymatgen
data_SrNb2CuO6F
_symmetry_space_group_name_H-M   'P 1'
_cell_length_a   10.70751137
_cell_length_b   10.70751137
_cell_length_c   10.70751137
_cell_angle_alpha   159.23197548
_cell_angle_beta   159.23197548
_cell_angle_gamma   29.53584999
_symmetry_Int_Tables_number   1
_chemical_formula_structural   SrNb2CuO6F
_chemical_formula_sum   'Sr1 Nb2 Cu1 O6 F1'
_cell_volume   154.26303216
_cell_formula_units_Z   1
loop_
 _symmetry_equiv_pos_site_id
 _symmetry_equiv_pos_as_xyz
  1  'x, y, z'
loop_
 _atom_site_type_symbol
 _atom_site_label
 _atom_site_symmetry_multiplicity
 _atom_site_fract_x
 _atom_site_fract_y
 _atom_site_fract_z
 _atom_site_occupancy
  Sr  Sr0  1  0.00000000  0.00000000  0.00000000  1
  Nb  Nb0  1  0.61945500  0.61945500  0.00000000  1
  Nb  Nb1  1  0.38054500  0.38054500  0.00000000  1
  Cu  Cu0  1  0.75000000  0.25000000  0.50000000  1
  O  O0  1  0.70782600  0.70782600  0.00000000  1
  O  O1  1  0.59188900  0.09188900  0.50000000  1
  O  O2  1  0.90811100  0.40811100  0.50000000  1
  O  O3  1  0.29217400  0.29217400  0.00000000  1
  O  O4  1  0.09328000  0.59328000  0.50000000  1
  O  O5  1  0.40672000  0.90672000  0.50000000  1
  F  F0  1  0.50000000  0.50000000  0.00000000  1
loop_
_geom_bond_atom_site_label_1
_geom_bond_atom_site_label_2
_geom_bond_distance
_geom_bond_site_symmetry_2
Nb0 O0 1.829952 1_555
Nb0 O4 2.004639 1_655
Nb0 O4 2.004639 1_554
Nb0 O1 2.012619 1_554
Nb0 O1 2.012619 1_565
Nb1 O3 1.829952 1_555
Nb1 O5 2.004639 1_555
Nb1 O5 2.004639 1_544
Nb1 O2 2.012619 1_555
Nb1 O2 2.012619 1_454
Cu0 O3 2.118368 1_656
Cu0 O3 2.118368 1_555
Cu0 O0 2.118368 1_556
Cu0 O0 2.118368 1_545
O1 Sr0 2.710248 1_656
O1 Sr0 2.710248 1_555
O2 Sr0 2.710248 1_666
O2 Sr0 2.710248 1_655
O4 Sr0 2.730548 1_566
O4 Sr0 2.730548 1_555
O5 Sr0 2.730548 1_565
O5 Sr0 2.730548 1_666
F0 Nb0 2.473627 1_555
F0 Nb1 2.473627 1_555
F0 Sr0 2.729393 1_554
F0 Sr0 2.729393 1_565
F0 Sr0 2.729393 1_666
F0 Sr0 2.729393 1_655
