# generated using pymatgen
data_Nd4Rh6Pb19
_symmetry_space_group_name_H-M   'P 1'
_cell_length_a   10.28433053
_cell_length_b   10.28433053
_cell_length_c   10.28433053
_cell_angle_alpha   109.47122063
_cell_angle_beta   109.47122063
_cell_angle_gamma   109.47122063
_symmetry_Int_Tables_number   1
_chemical_formula_structural   Nd4Rh6Pb19
_chemical_formula_sum   'Nd4 Rh6 Pb19'
_cell_volume   837.34838583
_cell_formula_units_Z   1
loop_
 _symmetry_equiv_pos_site_id
 _symmetry_equiv_pos_as_xyz
  1  'x, y, z'
loop_
 _atom_site_type_symbol
 _atom_site_label
 _atom_site_symmetry_multiplicity
 _atom_site_fract_x
 _atom_site_fract_y
 _atom_site_fract_z
 _atom_site_occupancy
  Nd  Nd0  1  0.65926800  0.65926800  0.65926800  1
  Nd  Nd1  1  0.34073200  0.00000000  0.00000000  1
  Nd  Nd2  1  0.00000000  0.34073200  0.00000000  1
  Nd  Nd3  1  0.00000000  0.00000000  0.34073200  1
  Rh  Rh0  1  0.37910600  0.87910600  0.50000000  1
  Rh  Rh1  1  0.62089400  0.12089400  0.50000000  1
  Rh  Rh2  1  0.87910600  0.50000000  0.37910600  1
  Rh  Rh3  1  0.12089400  0.50000000  0.62089400  1
  Rh  Rh4  1  0.50000000  0.37910600  0.87910600  1
  Rh  Rh5  1  0.50000000  0.62089400  0.12089400  1
  Pb  Pb0  1  0.69347500  0.69347500  0.00000000  1
  Pb  Pb1  1  0.30652500  0.30652500  0.00000000  1
  Pb  Pb2  1  0.69347500  0.00000000  0.69347500  1
  Pb  Pb3  1  0.30652500  0.00000000  0.30652500  1
  Pb  Pb4  1  0.00000000  0.69347500  0.69347500  1
  Pb  Pb5  1  0.00000000  0.30652500  0.30652500  1
  Pb  Pb6  1  0.00000000  0.00000000  0.00000000  1
  Pb  Pb7  1  0.37132400  0.60110400  0.33133300  1
  Pb  Pb8  1  0.62867600  0.96000900  0.22978100  1
  Pb  Pb9  1  0.73022900  0.39889600  0.77021900  1
  Pb  Pb10  1  0.60110400  0.33133300  0.37132400  1
  Pb  Pb11  1  0.26977100  0.03999100  0.66866700  1
  Pb  Pb12  1  0.96000900  0.22978100  0.62867600  1
  Pb  Pb13  1  0.39889600  0.77021900  0.73022900  1
  Pb  Pb14  1  0.03999100  0.66866700  0.26977100  1
  Pb  Pb15  1  0.33133300  0.37132400  0.60110400  1
  Pb  Pb16  1  0.77021900  0.73022900  0.39889600  1
  Pb  Pb17  1  0.66866700  0.26977100  0.03999100  1
  Pb  Pb18  1  0.22978100  0.62867600  0.96000900  1
loop_
_geom_bond_atom_site_label_1
_geom_bond_atom_site_label_2
_geom_bond_distance
_geom_bond_site_symmetry_2
Nd0 Pb0 3.286449 1_556
Nd0 Pb2 3.286449 1_565
Nd0 Pb4 3.286449 1_655
Nd0 Pb7 3.364148 1_555
Nd0 Pb10 3.364148 1_555
Nd0 Pb15 3.364148 1_555
Nd0 Pb13 3.433594 1_555
Nd0 Pb9 3.433594 1_555
Nd0 Pb16 3.433594 1_555
Nd0 Pb6 3.504201 1_666
Nd1 Pb1 3.286449 1_555
Nd1 Pb4 3.286449 1_544
Nd1 Pb3 3.286449 1_555
Nd1 Pb17 3.364148 1_555
Nd1 Pb8 3.364153 1_545
Nd1 Pb13 3.364153 1_544
Nd1 Pb10 3.433600 1_555
Nd1 Pb11 3.433600 1_554
Nd1 Pb18 3.433601 1_544
Nd1 Pb6 3.504201 1_555
Nd2 Pb1 3.286449 1_555
Nd2 Pb5 3.286449 1_555
Nd2 Pb2 3.286449 1_454
Nd2 Pb14 3.364148 1_555
Nd2 Pb18 3.364153 1_554
Nd2 Pb9 3.364153 1_454
Nd2 Pb7 3.433600 1_555
Nd2 Pb17 3.433600 1_455
Nd2 Pb12 3.433601 1_454
Nd2 Pb6 3.504201 1_555
Nd3 Pb5 3.286449 1_555
Nd3 Pb0 3.286449 1_445
Nd3 Pb3 3.286449 1_555
Nd3 Pb11 3.364148 1_555
Nd3 Pb12 3.364153 1_455
Nd3 Pb16 3.364153 1_445
Nd3 Pb14 3.433600 1_545
Nd3 Pb15 3.433600 1_555
Nd3 Pb8 3.433601 1_445
Nd3 Pb6 3.504201 1_555
Rh0 Rh1 2.871310 1_565
Rh2 Rh3 2.871310 1_655
Rh4 Rh5 2.871310 1_556
Pb0 Rh5 2.709238 1_555
Pb0 Rh4 2.709238 1_554
Pb1 Rh4 2.709238 1_554
Pb1 Rh5 2.709238 1_555
Pb2 Rh1 2.709238 1_555
Pb2 Rh0 2.709238 1_545
Pb3 Rh1 2.709238 1_555
Pb3 Rh0 2.709238 1_545
Pb4 Rh2 2.709238 1_455
Pb4 Rh3 2.709238 1_555
Pb5 Rh2 2.709238 1_455
Pb5 Rh3 2.709238 1_555
Pb7 Rh0 2.763732 1_555
Pb7 Rh5 2.915472 1_555
Pb8 Rh1 2.763724 1_565
Pb8 Rh5 2.915470 1_555
Pb9 Rh1 2.763727 1_555
Pb9 Rh4 2.915479 1_555
Pb10 Rh2 2.763732 1_555
Pb10 Rh1 2.915472 1_555
Pb11 Rh0 2.763732 1_545
Pb11 Rh4 2.915472 1_555
Pb12 Rh3 2.763724 1_655
Pb12 Rh1 2.915470 1_555
Pb13 Rh3 2.763727 1_555
Pb13 Rh0 2.915479 1_555
Pb14 Rh2 2.763732 1_455
Pb14 Rh0 2.915472 1_555
Pb15 Rh4 2.763732 1_555
Pb15 Rh3 2.915472 1_555
Pb16 Rh5 2.763727 1_555
Pb16 Rh2 2.915479 1_555
Pb17 Rh4 2.763732 1_554
Pb17 Rh2 2.915472 1_555
Pb18 Rh5 2.763724 1_556
Pb18 Rh3 2.915470 1_555
