# generated using pymatgen
data_TbWBrO4
_symmetry_space_group_name_H-M   'P 1'
_cell_length_a   7.00720800
_cell_length_b   7.34943906
_cell_length_c   11.12948485
_cell_angle_alpha   104.71565830
_cell_angle_beta   107.85922522
_cell_angle_gamma   93.42850906
_symmetry_Int_Tables_number   1
_chemical_formula_structural   TbWBrO4
_chemical_formula_sum   'Tb4 W4 Br4 O16'
_cell_volume   521.70791385
_cell_formula_units_Z   4
loop_
 _symmetry_equiv_pos_site_id
 _symmetry_equiv_pos_as_xyz
  1  'x, y, z'
loop_
 _atom_site_type_symbol
 _atom_site_label
 _atom_site_symmetry_multiplicity
 _atom_site_fract_x
 _atom_site_fract_y
 _atom_site_fract_z
 _atom_site_occupancy
  Tb  Tb0  1  0.65378600  0.11813600  0.73076800  1
  Tb  Tb1  1  0.34621400  0.88186400  0.26923200  1
  Tb  Tb2  1  0.38436500  0.65587300  0.76788700  1
  Tb  Tb3  1  0.61563500  0.34412700  0.23211300  1
  W  W0  1  0.72997000  0.81321600  0.13306800  1
  W  W1  1  0.27003000  0.18678400  0.86693200  1
  W  W2  1  0.77003500  0.59069500  0.62710900  1
  W  W3  1  0.22996500  0.40930500  0.37289100  1
  Br  Br0  1  0.26259800  0.99657800  0.51868200  1
  Br  Br1  1  0.73740200  0.00342200  0.48131800  1
  Br  Br2  1  0.19288300  0.71845900  0.98130800  1
  Br  Br3  1  0.80711700  0.28154100  0.01869200  1
  O  O0  1  0.65964100  0.72929900  0.95658200  1
  O  O1  1  0.34035900  0.27070100  0.04341800  1
  O  O2  1  0.00193400  0.87075300  0.20692300  1
  O  O3  1  0.99806600  0.12924700  0.79307700  1
  O  O4  1  0.62912200  0.64256300  0.20050300  1
  O  O5  1  0.37087800  0.35743700  0.79949700  1
  O  O6  1  0.39677300  0.98236700  0.81758300  1
  O  O7  1  0.60322700  0.01763300  0.18241700  1
  O  O8  1  0.03981800  0.64940000  0.67243700  1
  O  O9  1  0.96018200  0.35060000  0.32756300  1
  O  O10  1  0.71756200  0.40921200  0.70063200  1
  O  O11  1  0.28243800  0.59078800  0.29936800  1
  O  O12  1  0.66825800  0.50293000  0.44851900  1
  O  O13  1  0.33174200  0.49707000  0.55148100  1
  O  O14  1  0.65541100  0.79240100  0.70153500  1
  O  O15  1  0.34458900  0.20759900  0.29846500  1
loop_
_geom_bond_atom_site_label_1
_geom_bond_atom_site_label_2
_geom_bond_distance
_geom_bond_site_symmetry_2
Br0 Tb0 2.924157 1_565
Br0 Tb1 2.937570 1_555
Br1 Tb1 2.924157 1_545
Br1 Tb0 2.937570 1_555
Br2 Tb1 2.940051 1_556
Br2 Tb2 3.021143 1_555
Br3 Tb0 2.940051 1_554
Br3 Tb3 3.021143 1_555
O0 W0 1.798830 1_556
O0 Tb2 2.288527 1_555
O1 W1 1.798830 1_554
O1 Tb3 2.288527 1_555
O2 W0 1.803445 1_455
O2 Tb1 2.286698 1_555
O3 W1 1.803445 1_655
O3 Tb0 2.286698 1_555
O4 W0 1.825704 1_555
O4 Tb3 2.308905 1_555
O4 Tb1 2.876063 1_555
O5 W1 1.825704 1_555
O5 Tb2 2.308905 1_555
O5 Tb0 2.876063 1_555
O6 W1 1.840386 1_565
O6 Tb2 2.311404 1_555
O6 Tb0 2.552406 1_565
O7 W0 1.840386 1_545
O7 Tb3 2.311404 1_555
O7 Tb1 2.552406 1_545
O8 W2 1.794791 1_455
O8 Tb2 2.312390 1_555
O9 W3 1.794791 1_655
O9 Tb3 2.312390 1_555
O10 W2 1.806697 1_555
O10 Tb0 2.287069 1_555
O11 W3 1.806697 1_555
O11 Tb1 2.287069 1_555
O12 W2 1.816446 1_555
O12 Tb3 2.296656 1_555
O13 W3 1.816446 1_555
O13 Tb2 2.296656 1_555
O14 W2 1.858889 1_555
O14 Tb0 2.333860 1_565
O14 Tb2 2.483580 1_555
O15 W3 1.858889 1_555
O15 Tb1 2.333860 1_545
O15 Tb3 2.483580 1_555
