# generated using pymatgen
data_NaSrVF6
_symmetry_space_group_name_H-M   'P 1'
_cell_length_a   5.49317500
_cell_length_b   9.50487400
_cell_length_c   10.54423900
_cell_angle_alpha   90.00000000
_cell_angle_beta   90.00000000
_cell_angle_gamma   90.00000000
_symmetry_Int_Tables_number   1
_chemical_formula_structural   NaSrVF6
_chemical_formula_sum   'Na4 Sr4 V4 F24'
_cell_volume   550.53513431
_cell_formula_units_Z   4
loop_
 _symmetry_equiv_pos_site_id
 _symmetry_equiv_pos_as_xyz
  1  'x, y, z'
loop_
 _atom_site_type_symbol
 _atom_site_label
 _atom_site_symmetry_multiplicity
 _atom_site_fract_x
 _atom_site_fract_y
 _atom_site_fract_z
 _atom_site_occupancy
  Na  Na0  1  0.04403100  0.64664500  0.08310000  1
  Na  Na1  1  0.45596900  0.35335500  0.58309900  1
  Na  Na2  1  0.95596900  0.14664500  0.41690100  1
  Na  Na3  1  0.54403100  0.85335500  0.91690100  1
  Sr  Sr0  1  0.50569300  0.31442400  0.17708000  1
  Sr  Sr1  1  0.99430700  0.68557600  0.67708000  1
  Sr  Sr2  1  0.49430700  0.81442400  0.32292000  1
  Sr  Sr3  1  0.00569300  0.18557600  0.82292000  1
  V  V0  1  0.03702600  0.00049600  0.12664400  1
  V  V1  1  0.46297400  0.99950400  0.62664400  1
  V  V2  1  0.96297400  0.50049600  0.37335600  1
  V  V3  1  0.53702600  0.49950400  0.87335600  1
  F  F0  1  0.20893800  0.14300600  0.58567700  1
  F  F1  1  0.29106200  0.85699400  0.08567700  1
  F  F2  1  0.79106200  0.64300600  0.91432300  1
  F  F3  1  0.70893800  0.35699400  0.41432300  1
  F  F4  1  0.21276000  0.62312100  0.29611200  1
  F  F5  1  0.28724000  0.37687900  0.79611200  1
  F  F6  1  0.78724000  0.12312100  0.20388800  1
  F  F7  1  0.71276000  0.87687900  0.70388800  1
  F  F8  1  0.21976700  0.16049400  0.04790400  1
  F  F9  1  0.28023300  0.83950600  0.54790400  1
  F  F10  1  0.78023300  0.66049400  0.45209600  1
  F  F11  1  0.71976700  0.33950600  0.95209600  1
  F  F12  1  0.15852300  0.33785500  0.31692300  1
  F  F13  1  0.34147700  0.66214500  0.81692300  1
  F  F14  1  0.84147700  0.83785500  0.18307700  1
  F  F15  1  0.65852300  0.16214500  0.68307700  1
  F  F16  1  0.35931800  0.50464000  0.03493500  1
  F  F17  1  0.14068200  0.49536000  0.53493500  1
  F  F18  1  0.64068200  0.00464000  0.46506500  1
  F  F19  1  0.85931800  0.99536000  0.96506500  1
  F  F20  1  0.22064700  0.02123800  0.28530000  1
  F  F21  1  0.27935300  0.97876200  0.78530000  1
  F  F22  1  0.77935300  0.52123800  0.21470000  1
  F  F23  1  0.72064700  0.47876200  0.71470000  1
loop_
_geom_bond_atom_site_label_1
_geom_bond_atom_site_label_2
_geom_bond_distance
_geom_bond_site_symmetry_2
F0 V1 1.998581 1_545
F0 Na2 2.258145 1_455
F0 Na1 2.416508 1_555
F0 Sr3 2.769105 1_555
F1 V0 1.998581 1_565
F1 Na3 2.258145 1_554
F1 Na0 2.416508 1_555
F1 Sr2 2.769105 1_555
F2 V3 1.998581 1_555
F2 Na0 2.258154 1_656
F2 Na3 2.416508 1_555
F2 Sr1 2.769105 1_555
F3 V2 1.998581 1_555
F3 Na1 2.258145 1_555
F3 Na2 2.416508 1_555
F3 Sr0 2.769105 1_555
F4 V2 1.975995 1_455
F4 Sr2 2.403765 1_555
F4 Na0 2.440040 1_555
F5 V3 1.975995 1_555
F5 Sr3 2.403765 1_555
F5 Na1 2.440050 1_555
F6 V0 1.975995 1_655
F6 Sr0 2.403765 1_555
F6 Na2 2.440050 1_555
F7 V1 1.975995 1_555
F7 Sr1 2.403765 1_555
F7 Na3 2.440050 1_555
F8 V0 2.002425 1_555
F8 Sr0 2.542194 1_555
F8 Sr3 2.658462 1_554
F9 V1 2.002425 1_555
F9 Sr1 2.542194 1_455
F9 Sr2 2.658462 1_555
F10 V2 2.002425 1_555
F10 Sr2 2.542194 1_555
F10 Sr1 2.658462 1_555
F11 V3 2.002425 1_555
F11 Sr3 2.542194 1_655
F11 Sr0 2.658462 1_556
F12 V2 1.974260 1_455
F12 Na2 2.377474 1_455
F12 Sr0 2.420901 1_555
F13 V3 1.974260 1_555
F13 Na3 2.377474 1_555
F13 Sr1 2.420901 1_455
F14 V0 1.974260 1_665
F14 Na0 2.377470 1_655
F14 Sr2 2.420901 1_555
F15 V1 1.974260 1_545
F15 Na1 2.377474 1_555
F15 Sr3 2.420901 1_655
F16 V3 1.964179 1_554
F16 Na0 2.253729 1_555
F16 Sr0 2.482285 1_555
F17 V2 1.964179 1_455
F17 Na1 2.253726 1_555
F17 Sr1 2.482285 1_455
F18 V1 1.964179 1_545
F18 Na2 2.253726 1_555
F18 Sr2 2.482285 1_545
F19 V0 1.964179 1_666
F19 Na3 2.253726 1_555
F19 Sr3 2.482285 1_665
F20 V0 1.963386 1_555
F20 Na2 2.336713 1_455
F20 Sr2 2.506249 1_545
F21 V1 1.963386 1_555
F21 Na3 2.336713 1_555
F21 Sr3 2.506249 1_565
F22 V2 1.963386 1_555
F22 Na0 2.336706 1_655
F22 Sr0 2.506249 1_555
F23 V3 1.963386 1_555
F23 Na1 2.336713 1_555
F23 Sr1 2.506249 1_555
