# generated using pymatgen
data_Mg16ScAl12
_symmetry_space_group_name_H-M   'P 1'
_cell_length_a   9.16029477
_cell_length_b   9.16029477
_cell_length_c   9.01834046
_cell_angle_alpha   70.75163882
_cell_angle_beta   70.75163882
_cell_angle_gamma   109.59220650
_symmetry_Int_Tables_number   1
_chemical_formula_structural   Mg16ScAl12
_chemical_formula_sum   'Mg16 Sc1 Al12'
_cell_volume   584.85483172
_cell_formula_units_Z   1
loop_
 _symmetry_equiv_pos_site_id
 _symmetry_equiv_pos_as_xyz
  1  'x, y, z'
loop_
 _atom_site_type_symbol
 _atom_site_label
 _atom_site_symmetry_multiplicity
 _atom_site_fract_x
 _atom_site_fract_y
 _atom_site_fract_z
 _atom_site_occupancy
  Mg  Mg0  1  0.40108800  0.40108800  0.28036500  1
  Mg  Mg1  1  0.00566000  0.00566000  0.64904300  1
  Mg  Mg2  1  0.65506500  0.65506500  0.35051500  1
  Mg  Mg3  1  0.00072600  0.00072600  0.00228500  1
  Mg  Mg4  1  0.60435200  0.31362600  0.99755900  1
  Mg  Mg5  1  0.71533700  0.39885900  0.60284500  1
  Mg  Mg6  1  0.31813100  0.00003500  0.39516500  1
  Mg  Mg7  1  0.33769600  0.99674500  0.00679500  1
  Mg  Mg8  1  0.68379200  0.28857500  0.31566200  1
  Mg  Mg9  1  0.00155000  0.59820700  0.68533100  1
  Mg  Mg10  1  0.59820700  0.00155000  0.68533100  1
  Mg  Mg11  1  0.28857500  0.68379200  0.31566200  1
  Mg  Mg12  1  0.99674500  0.33769600  0.00679500  1
  Mg  Mg13  1  0.00003500  0.31813100  0.39516500  1
  Mg  Mg14  1  0.39885900  0.71533700  0.60284500  1
  Mg  Mg15  1  0.31362600  0.60435200  0.99755900  1
  Sc  Sc0  1  0.68484000  0.68484000  0.72150500  1
  Al  Al0  1  0.37190100  0.37190100  0.81480100  1
  Al  Al1  1  0.18470700  0.18470700  0.18004400  1
  Al  Al2  1  0.81346400  0.63363000  0.99793700  1
  Al  Al3  1  0.99627100  0.81167800  0.37137300  1
  Al  Al4  1  0.36442100  0.17943500  0.63383900  1
  Al  Al5  1  0.18416600  0.82166900  0.81208000  1
  Al  Al6  1  0.99996500  0.63428700  0.18212200  1
  Al  Al7  1  0.63428700  0.99996500  0.18212200  1
  Al  Al8  1  0.82166900  0.18416600  0.81208000  1
  Al  Al9  1  0.17943500  0.36442100  0.63383900  1
  Al  Al10  1  0.81167800  0.99627100  0.37137300  1
  Al  Al11  1  0.63363000  0.81346400  0.99793700  1
loop_
_geom_bond_atom_site_label_1
_geom_bond_atom_site_label_2
_geom_bond_distance
_geom_bond_site_symmetry_2
Mg0 Mg2 3.088098 1_555
Mg0 Mg15 3.135312 1_554
Mg0 Mg4 3.135312 1_554
Mg0 Mg8 3.160229 1_555
Mg0 Mg11 3.160229 1_555
Mg0 Mg13 3.201116 1_555
Mg0 Mg6 3.201116 1_555
Mg1 Mg6 3.048518 1_555
Mg1 Mg13 3.048518 1_555
Mg1 Sc0 3.061972 1_445
Mg1 Mg3 3.156147 1_556
Mg2 Mg5 3.027761 1_555
Mg2 Mg3 3.174566 1_665
Mg2 Sc0 3.534970 1_555
Mg3 Mg7 3.112598 1_545
Mg4 Mg7 3.057876 1_546
Mg4 Mg5 3.092499 1_555
Mg4 Sc0 3.135477 1_555
Mg4 Mg8 3.141072 1_556
Mg4 Mg6 3.153194 1_556
Mg4 Mg9 3.163393 1_655
Mg5 Mg9 3.119695 1_655
Mg5 Mg8 3.135994 1_555
Mg5 Sc0 3.198107 1_555
Mg6 Mg8 3.154260 1_555
Mg6 Mg9 3.208333 1_545
Mg6 Mg7 3.458259 1_545
Mg9 Sc0 3.200567 1_455
Mg10 Mg7 3.063545 1_546
Mg10 Mg14 3.119695 1_545
Mg10 Mg8 3.123598 1_555
Mg10 Mg15 3.163393 1_545
Mg10 Mg5 3.165468 1_555
Mg10 Sc0 3.200567 1_545
Mg10 Mg13 3.208333 1_655
Mg11 Mg7 3.036968 1_555
Mg11 Mg9 3.123598 1_555
Mg11 Mg14 3.135994 1_555
Mg11 Mg15 3.141072 1_554
Mg11 Mg13 3.154260 1_555
Mg11 Mg6 3.154474 1_565
Mg12 Mg8 3.036968 1_555
Mg12 Mg15 3.057876 1_654
Mg12 Mg9 3.063545 1_654
Mg12 Mg3 3.112598 1_655
Mg12 Mg13 3.458259 1_655
Mg13 Mg5 3.137203 1_455
Mg13 Mg15 3.153194 1_554
Mg13 Mg8 3.154474 1_455
Mg14 Mg2 3.027761 1_555
Mg14 Mg15 3.092499 1_555
Mg14 Mg6 3.137203 1_565
Mg14 Mg9 3.165468 1_555
Mg14 Sc0 3.198107 1_555
Mg15 Sc0 3.135477 1_555
Al0 Al1 2.703786 1_556
Al0 Al4 2.768778 1_555
Al0 Al9 2.768778 1_555
Al0 Sc0 2.907125 1_555
Al0 Mg5 2.968979 1_555
Al0 Mg14 2.968979 1_555
Al0 Mg7 3.146898 1_546
Al0 Mg12 3.146898 1_456
Al0 Mg15 3.167262 1_555
Al0 Mg4 3.167262 1_555
Al0 Mg3 3.262829 1_556
Al1 Al3 2.797541 1_445
Al1 Al10 2.797541 1_445
Al1 Mg0 2.899306 1_555
Al1 Mg13 2.984176 1_555
Al1 Mg6 2.984176 1_555
Al1 Mg7 3.052532 1_545
Al1 Mg12 3.052532 1_455
Al1 Mg3 3.147746 1_555
Al1 Mg4 3.222258 1_554
Al1 Mg15 3.222258 1_554
Al2 Al6 2.747442 1_556
Al2 Al5 2.780015 1_655
Al2 Mg4 2.916700 1_555
Al2 Mg9 2.965997 1_655
Al2 Mg8 2.979675 1_556
Al2 Sc0 3.059312 1_555
Al2 Mg2 3.132890 1_556
Al2 Mg1 3.141267 1_665
Al2 Mg0 3.158642 1_556
Al2 Mg3 3.242629 1_666
Al3 Al6 2.716964 1_555
Al3 Mg9 2.888961 1_655
Al3 Sc0 2.979573 1_555
Al3 Mg6 2.994209 1_665
Al3 Mg2 3.069359 1_555
Al3 Mg7 3.074907 1_655
Al3 Mg5 3.163418 1_555
Al3 Mg3 3.184722 1_665
Al3 Mg11 3.224746 1_655
Al4 Al5 2.682947 1_545
Al4 Al9 2.769214 1_555
Al4 Mg8 2.898988 1_555
Al4 Mg0 2.994387 1_555
Al4 Mg5 3.025758 1_555
Al4 Mg1 3.066511 1_555
Al4 Mg7 3.105554 1_546
Al4 Mg10 3.155020 1_555
Al4 Mg6 3.159125 1_555
Al4 Mg3 3.205804 1_556
Al5 Al6 2.738308 1_456
Al5 Mg14 2.902893 1_555
Al5 Mg9 2.966822 1_555
Al5 Mg15 2.977043 1_555
Al5 Mg1 3.078276 1_565
Al5 Mg7 3.099341 1_556
Al5 Mg6 3.142456 1_565
Al5 Mg10 3.180424 1_565
Al5 Mg3 3.203014 1_566
Al6 Mg13 2.900358 1_655
Al6 Mg15 2.962636 1_654
Al6 Mg8 2.983616 1_555
Al6 Mg7 3.085403 1_655
Al6 Mg2 3.123239 1_555
Al6 Mg5 3.186929 1_555
Al6 Mg3 3.207060 1_665
Al6 Mg11 3.209472 1_655
Al7 Al8 2.738308 1_564
Al7 Mg6 2.900358 1_565
Al7 Mg4 2.962636 1_564
Al7 Mg11 2.983616 1_555
Al7 Mg12 3.085403 1_565
Al7 Mg2 3.123239 1_555
Al7 Mg14 3.186929 1_555
Al7 Mg3 3.207060 1_665
Al7 Mg8 3.209472 1_565
Al8 Al9 2.682947 1_655
Al8 Mg5 2.902893 1_555
Al8 Mg10 2.966822 1_555
Al8 Mg4 2.977043 1_555
Al8 Mg1 3.078276 1_655
Al8 Mg12 3.099341 1_556
Al8 Mg13 3.142456 1_655
Al8 Mg9 3.180424 1_655
Al8 Mg3 3.203014 1_656
Al9 Mg11 2.898988 1_555
Al9 Mg0 2.994387 1_555
Al9 Mg14 3.025758 1_555
Al9 Mg1 3.066511 1_555
Al9 Mg12 3.105554 1_456
Al9 Mg9 3.155020 1_555
Al9 Mg13 3.159125 1_555
Al9 Mg3 3.205804 1_556
Al10 Al7 2.716964 1_555
Al10 Al3 2.763331 1_555
Al10 Mg10 2.888961 1_565
Al10 Sc0 2.979573 1_555
Al10 Mg13 2.994209 1_665
Al10 Mg2 3.069359 1_555
Al10 Mg12 3.074907 1_565
Al10 Mg14 3.163418 1_555
Al10 Mg3 3.184722 1_665
Al10 Mg8 3.224746 1_565
Al11 Al2 2.692089 1_555
Al11 Al7 2.747442 1_556
Al11 Al8 2.780015 1_565
Al11 Mg15 2.916700 1_555
Al11 Mg10 2.965997 1_565
Al11 Mg11 2.979675 1_556
Al11 Sc0 3.059312 1_555
Al11 Mg2 3.132890 1_556
Al11 Mg1 3.141267 1_665
Al11 Mg0 3.158642 1_556
Al11 Mg3 3.242629 1_666
