# generated using pymatgen
data_NpZn
_symmetry_space_group_name_H-M   'P 1'
_cell_length_a   5.38372417
_cell_length_b   5.38410528
_cell_length_c   10.86130401
_cell_angle_alpha   90.00669370
_cell_angle_beta   89.99378307
_cell_angle_gamma   120.02560158
_symmetry_Int_Tables_number   1
_chemical_formula_structural   NpZn
_chemical_formula_sum   'Np8 Zn8'
_cell_volume   272.58179449
_cell_formula_units_Z   8
loop_
 _symmetry_equiv_pos_site_id
 _symmetry_equiv_pos_as_xyz
  1  'x, y, z'
loop_
 _atom_site_type_symbol
 _atom_site_label
 _atom_site_symmetry_multiplicity
 _atom_site_fract_x
 _atom_site_fract_y
 _atom_site_fract_z
 _atom_site_occupancy
  Np  Np0_0  1  0.33333250  0.16665450  0.37499950  1
  Np  Np0_1  1  0.33333250  0.16665450  0.87499950  1
  Np  Np0_2  1  0.33333250  0.66665450  0.37499950  1
  Np  Np0_3  1  0.33333250  0.66665450  0.87499950  1
  Np  Np0_4  1  0.83333250  0.16665450  0.37499950  1
  Np  Np0_5  1  0.83333250  0.16665450  0.87499950  1
  Np  Np0_6  1  0.83333250  0.66665450  0.37499950  1
  Np  Np0_7  1  0.83333250  0.66665450  0.87499950  1
  Zn  Zn0_0  1  0.16666800  0.33334600  0.12500100  1
  Zn  Zn0_1  1  0.16666800  0.33334600  0.62500100  1
  Zn  Zn0_2  1  0.16666800  0.83334600  0.12500100  1
  Zn  Zn0_3  1  0.16666800  0.83334600  0.62500100  1
  Zn  Zn0_4  1  0.66666800  0.33334600  0.12500100  1
  Zn  Zn0_5  1  0.66666800  0.33334600  0.62500100  1
  Zn  Zn0_6  1  0.66666800  0.83334600  0.12500100  1
  Zn  Zn0_7  1  0.66666800  0.83334600  0.62500100  1
loop_
_geom_bond_atom_site_label_1
_geom_bond_atom_site_label_2
_geom_bond_distance
_geom_bond_site_symmetry_2
Np0_0 Np0_6 2.690916 1_445
Np0_0 Np0_6 2.690916 1_555
Np0_0 Np0_4 2.691862 1_455
Np0_0 Np0_4 2.691862 1_555
Np0_0 Np0_2 2.692053 1_545
Np0_0 Np0_2 2.692053 1_555
Np0_0 Zn0_2 3.128323 1_545
Np0_0 Zn0_4 3.128351 1_555
Np0_0 Zn0_5 3.128535 1_555
Np0_0 Zn0_3 3.128547 1_545
Np0_0 Zn0_1 3.128655 1_555
Np0_0 Zn0_0 3.128978 1_555
Np0_1 Np0_7 2.690916 1_445
Np0_1 Np0_7 2.690916 1_555
Np0_1 Np0_5 2.691862 1_455
Np0_1 Np0_5 2.691862 1_555
Np0_1 Np0_3 2.692053 1_545
Np0_1 Np0_3 2.692053 1_555
Np0_1 Zn0_3 3.128323 1_545
Np0_1 Zn0_5 3.128351 1_555
Np0_1 Zn0_4 3.128535 1_556
Np0_1 Zn0_2 3.128547 1_546
Np0_1 Zn0_0 3.128655 1_556
Np0_1 Zn0_1 3.128978 1_555
Np0_2 Np0_4 2.690916 1_455
Np0_2 Np0_4 2.690916 1_565
Np0_2 Np0_6 2.691862 1_455
Np0_2 Np0_6 2.691862 1_555
Np0_2 Zn0_0 3.128323 1_555
Np0_2 Zn0_6 3.128351 1_555
Np0_2 Zn0_7 3.128535 1_555
Np0_2 Zn0_1 3.128547 1_555
Np0_2 Zn0_3 3.128655 1_555
Np0_2 Zn0_2 3.128978 1_555
Np0_3 Np0_5 2.690916 1_455
Np0_3 Np0_5 2.690916 1_565
Np0_3 Np0_7 2.691862 1_455
Np0_3 Np0_7 2.691862 1_555
Np0_3 Zn0_1 3.128323 1_555
Np0_3 Zn0_7 3.128351 1_555
Np0_3 Zn0_6 3.128535 1_556
Np0_3 Zn0_0 3.128547 1_556
Np0_3 Zn0_2 3.128655 1_556
Np0_3 Zn0_3 3.128978 1_555
Np0_4 Np0_6 2.692053 1_545
Np0_4 Np0_6 2.692053 1_555
Np0_4 Zn0_6 3.128323 1_545
Np0_4 Zn0_0 3.128351 1_655
Np0_4 Zn0_1 3.128535 1_655
Np0_4 Zn0_7 3.128547 1_545
Np0_4 Zn0_5 3.128655 1_555
Np0_4 Zn0_4 3.128978 1_555
Np0_5 Np0_7 2.692053 1_545
Np0_5 Np0_7 2.692053 1_555
Np0_5 Zn0_7 3.128323 1_545
Np0_5 Zn0_1 3.128351 1_655
Np0_5 Zn0_0 3.128535 1_656
Np0_5 Zn0_6 3.128547 1_546
Np0_5 Zn0_4 3.128655 1_556
Np0_5 Zn0_5 3.128978 1_555
Np0_6 Zn0_4 3.128323 1_555
Np0_6 Zn0_2 3.128351 1_655
Np0_6 Zn0_3 3.128535 1_655
Np0_6 Zn0_5 3.128547 1_555
Np0_6 Zn0_7 3.128655 1_555
Np0_6 Zn0_6 3.128978 1_555
Np0_7 Zn0_5 3.128323 1_555
Np0_7 Zn0_3 3.128351 1_655
Np0_7 Zn0_2 3.128535 1_656
Np0_7 Zn0_4 3.128547 1_556
Np0_7 Zn0_6 3.128655 1_556
Np0_7 Zn0_7 3.128978 1_555
Zn0_0 Zn0_6 2.690916 1_555
Zn0_0 Zn0_6 2.690916 1_445
Zn0_0 Zn0_4 2.691862 1_455
Zn0_0 Zn0_4 2.691862 1_555
Zn0_0 Zn0_2 2.692053 1_545
Zn0_0 Zn0_2 2.692053 1_555
Zn0_1 Zn0_7 2.690916 1_555
Zn0_1 Zn0_7 2.690916 1_445
Zn0_1 Zn0_5 2.691862 1_455
Zn0_1 Zn0_5 2.691862 1_555
Zn0_1 Zn0_3 2.692053 1_555
Zn0_1 Zn0_3 2.692053 1_545
Zn0_2 Zn0_4 2.690916 1_565
Zn0_2 Zn0_4 2.690916 1_455
Zn0_2 Zn0_6 2.691862 1_455
Zn0_2 Zn0_6 2.691862 1_555
Zn0_3 Zn0_5 2.690916 1_455
Zn0_3 Zn0_5 2.690916 1_565
Zn0_3 Zn0_7 2.691862 1_455
Zn0_3 Zn0_7 2.691862 1_555
Zn0_4 Zn0_6 2.692053 1_545
Zn0_4 Zn0_6 2.692053 1_555
Zn0_5 Zn0_7 2.692053 1_555
Zn0_5 Zn0_7 2.692053 1_545
