# generated using pymatgen
data_Y3Ga8Ag3
_symmetry_space_group_name_H-M   'P 1'
_cell_length_a   4.34886600
_cell_length_b   8.36341468
_cell_length_c   8.36341468
_cell_angle_alpha   70.16904843
_cell_angle_beta   74.93032676
_cell_angle_gamma   74.93032676
_symmetry_Int_Tables_number   1
_chemical_formula_structural   Y3Ga8Ag3
_chemical_formula_sum   'Y3 Ga8 Ag3'
_cell_volume   271.32257865
_cell_formula_units_Z   1
loop_
 _symmetry_equiv_pos_site_id
 _symmetry_equiv_pos_as_xyz
  1  'x, y, z'
loop_
 _atom_site_type_symbol
 _atom_site_label
 _atom_site_symmetry_multiplicity
 _atom_site_fract_x
 _atom_site_fract_y
 _atom_site_fract_z
 _atom_site_occupancy
  Y  Y0  1  0.00000000  0.00000000  0.00000000  1
  Y  Y1  1  0.29979400  0.70020600  0.70020600  1
  Y  Y2  1  0.70020600  0.29979400  0.29979400  1
  Ga  Ga0  1  0.34123100  0.28967700  0.02786100  1
  Ga  Ga1  1  0.65876900  0.71032300  0.97213900  1
  Ga  Ga2  1  0.34123100  0.02786100  0.28967700  1
  Ga  Ga3  1  0.65876900  0.97213900  0.71032300  1
  Ga  Ga4  1  0.14235400  0.57732900  0.13796400  1
  Ga  Ga5  1  0.85764600  0.42267100  0.86203600  1
  Ga  Ga6  1  0.14235400  0.13796400  0.57732900  1
  Ga  Ga7  1  0.85764600  0.86203600  0.42267100  1
  Ag  Ag0  1  0.50000000  0.30915600  0.69084400  1
  Ag  Ag1  1  0.50000000  0.69084400  0.30915600  1
  Ag  Ag2  1  0.00000000  0.50000000  0.50000000  1
loop_
_geom_bond_atom_site_label_1
_geom_bond_atom_site_label_2
_geom_bond_distance
_geom_bond_site_symmetry_2
Ga0 Ga2 2.517182 1_555
Ga0 Ga5 2.614763 1_554
Ga0 Ga5 2.614767 1_454
Ga0 Ga4 2.718569 1_555
Ga0 Y2 3.108398 1_455
Ga0 Y2 3.108398 1_555
Ga0 Y0 3.249331 1_555
Ga0 Y0 3.249331 1_655
Ga1 Ga3 2.517182 1_555
Ga1 Ga4 2.614763 1_556
Ga1 Ga4 2.614767 1_656
Ga1 Ga5 2.718569 1_555
Ga1 Y1 3.108398 1_555
Ga1 Y1 3.108398 1_655
Ga1 Y0 3.249331 1_566
Ga1 Y0 3.249331 1_666
Ga2 Ga7 2.614763 1_545
Ga2 Ga7 2.614767 1_445
Ga2 Ga6 2.718569 1_555
Ga2 Y2 3.108398 1_455
Ga2 Y2 3.108398 1_555
Ga2 Y0 3.249331 1_555
Ga2 Y0 3.249331 1_655
Ga3 Ga6 2.614763 1_565
Ga3 Ga6 2.614767 1_665
Ga3 Ga7 2.718569 1_555
Ga3 Y1 3.108398 1_555
Ga3 Y1 3.108398 1_655
Ga3 Y0 3.249331 1_566
Ga3 Y0 3.249331 1_666
Ga4 Y2 3.122956 1_555
Ga4 Y2 3.122959 1_455
Ga4 Y0 3.267521 1_565
Ga4 Y1 3.382091 1_554
Ga5 Y1 3.122956 1_555
Ga5 Y1 3.122959 1_655
Ga5 Y0 3.267521 1_656
Ga5 Y2 3.382091 1_556
Ga6 Y2 3.122956 1_555
Ga6 Y2 3.122959 1_455
Ga6 Y0 3.267521 1_556
Ga6 Y1 3.382091 1_545
Ga7 Y1 3.122956 1_555
Ga7 Y1 3.122959 1_655
Ga7 Y0 3.267521 1_665
Ga7 Y2 3.382091 1_565
Ag0 Ga0 2.680079 1_556
Ag0 Ga3 2.680079 1_545
Ag0 Ag2 2.845132 1_655
Ag0 Ag2 2.845132 1_555
Ag0 Ga5 2.866768 1_555
Ag0 Ga6 2.866768 1_555
Ag0 Ga6 2.866772 1_655
Ag0 Ga5 2.866772 1_455
Ag0 Y2 3.180891 1_555
Ag0 Y1 3.180891 1_555
Ag1 Ga2 2.680079 1_565
Ag1 Ga1 2.680079 1_554
Ag1 Ag2 2.845132 1_555
Ag1 Ag2 2.845132 1_655
Ag1 Ga7 2.866768 1_555
Ag1 Ga4 2.866768 1_555
Ag1 Ga4 2.866772 1_655
Ag1 Ga7 2.866772 1_455
Ag1 Y1 3.180891 1_555
Ag1 Y2 3.180891 1_555
Ag2 Ga5 2.806117 1_455
Ag2 Ga7 2.806117 1_455
Ag2 Ga6 2.806117 1_555
Ag2 Ga4 2.806117 1_555
Ag2 Y2 3.388157 1_455
Ag2 Y1 3.388157 1_555
Ag2 Y2 3.388157 1_555
Ag2 Y1 3.388157 1_455
