# generated using pymatgen
data_CoNi3
_symmetry_space_group_name_H-M   'P 1'
_cell_length_a   4.91774764
_cell_length_b   4.91774764
_cell_length_c   4.04043444
_cell_angle_alpha   90.00000000
_cell_angle_beta   90.00000000
_cell_angle_gamma   120.00001540
_symmetry_Int_Tables_number   1
_chemical_formula_structural   CoNi3
_chemical_formula_sum   'Co2 Ni6'
_cell_volume   84.62352398
_cell_formula_units_Z   2
loop_
 _symmetry_equiv_pos_site_id
 _symmetry_equiv_pos_as_xyz
  1  'x, y, z'
loop_
 _atom_site_type_symbol
 _atom_site_label
 _atom_site_symmetry_multiplicity
 _atom_site_fract_x
 _atom_site_fract_y
 _atom_site_fract_z
 _atom_site_occupancy
  Co  Co0  1  0.33333300  0.66666700  0.75000000  1
  Co  Co1  1  0.66666700  0.33333400  0.25000000  1
  Ni  Ni0  1  0.16695210  0.33390320  0.25000000  1
  Ni  Ni1  1  0.66609780  0.83304790  0.25000000  1
  Ni  Ni2  1  0.16695010  0.83304890  0.25000000  1
  Ni  Ni3  1  0.83304976  0.66609951  0.75000000  1
  Ni  Ni4  1  0.33390049  0.16695024  0.75000000  1
  Ni  Ni5  1  0.83304976  0.16695024  0.75000000  1
loop_
_geom_bond_atom_site_label_1
_geom_bond_atom_site_label_2
_geom_bond_distance
_geom_bond_site_symmetry_2
Co0 Ni3 2.458873 1_455
Co0 Ni4 2.458873 1_565
Co0 Ni5 2.458874 1_455
Co0 Ni5 2.458874 1_565
Co0 Ni4 2.458877 1_555
Co0 Ni3 2.458877 1_555
Co0 Ni0 2.467742 1_556
Co0 Ni0 2.467742 1_555
Co0 Ni1 2.467744 1_556
Co0 Ni1 2.467744 1_555
Co0 Ni2 2.467744 1_555
Co0 Ni2 2.467744 1_556
Co1 Ni1 2.458868 1_555
Co1 Ni2 2.458870 1_655
Co1 Ni0 2.458873 1_555
Co1 Ni0 2.458877 1_655
Co1 Ni2 2.458879 1_545
Co1 Ni1 2.458882 1_545
Co1 Ni3 2.467746 1_554
Co1 Ni3 2.467746 1_555
Co1 Ni4 2.467748 1_555
Co1 Ni4 2.467748 1_554
Co1 Ni5 2.467749 1_555
Co1 Ni5 2.467749 1_554
Ni0 Ni1 2.454670 1_555
Ni0 Ni2 2.454678 1_555
Ni0 Ni2 2.463070 1_545
Ni0 Ni1 2.463077 1_445
Ni0 Ni4 2.470527 1_554
Ni0 Ni4 2.470527 1_555
Ni0 Ni5 2.470530 1_455
Ni0 Ni5 2.470530 1_454
Ni1 Ni2 2.454685 1_555
Ni1 Ni2 2.463063 1_655
Ni1 Ni3 2.470525 1_554
Ni1 Ni3 2.470525 1_555
Ni1 Ni5 2.470530 1_564
Ni1 Ni5 2.470530 1_565
Ni2 Ni3 2.470525 1_454
Ni2 Ni3 2.470525 1_455
Ni2 Ni4 2.470527 1_564
Ni2 Ni4 2.470527 1_565
Ni3 Ni4 2.454690 1_555
Ni3 Ni5 2.454690 1_555
Ni3 Ni4 2.463057 1_665
Ni3 Ni5 2.463057 1_565
Ni4 Ni5 2.454690 1_555
Ni4 Ni5 2.463057 1_455
