# generated using pymatgen
data_Ba2FeMoO6
_symmetry_space_group_name_H-M   'P 1'
_cell_length_a   5.80056409
_cell_length_b   5.80076706
_cell_length_c   10.03382888
_cell_angle_alpha   90.04039950
_cell_angle_beta   106.73852204
_cell_angle_gamma   120.03941138
_symmetry_Int_Tables_number   1
_chemical_formula_structural   Ba2FeMoO6
_chemical_formula_sum   'Ba4 Fe2 Mo2 O12'
_cell_volume   275.57648782
_cell_formula_units_Z   2
loop_
 _symmetry_equiv_pos_site_id
 _symmetry_equiv_pos_as_xyz
  1  'x, y, z'
loop_
 _atom_site_type_symbol
 _atom_site_label
 _atom_site_symmetry_multiplicity
 _atom_site_fract_x
 _atom_site_fract_y
 _atom_site_fract_z
 _atom_site_occupancy
  Ba  Ba0  1  0.75234900  0.37680000  0.12441500  1
  Ba  Ba1  1  0.74820100  0.87294500  0.62586400  1
  Ba  Ba2  1  0.25233900  0.62799600  0.87537200  1
  Ba  Ba3  1  0.24725400  0.12239600  0.37429300  1
  Fe  Fe0  1  0.01096000  0.51122100  0.49989700  1
  Fe  Fe1  1  0.99162200  0.99184600  0.00007800  1
  Mo  Mo0  1  0.50071300  0.74941000  0.25099700  1
  Mo  Mo1  1  0.49853400  0.24977100  0.74901900  1
  O  O0  1  0.75349700  0.62767500  0.87313200  1
  O  O1  1  0.73419300  0.10390500  0.37066400  1
  O  O2  1  0.26467800  0.39554300  0.12908700  1
  O  O3  1  0.24603700  0.87272400  0.62644700  1
  O  O4  1  0.73403000  0.36351900  0.62947200  1
  O  O5  1  0.75418400  0.88038300  0.12665600  1
  O  O6  1  0.24207000  0.36780600  0.62427300  1
  O  O7  1  0.25535200  0.88233600  0.12418600  1
  O  O8  1  0.26579300  0.13562500  0.87078700  1
  O  O9  1  0.24670400  0.61943700  0.37376800  1
  O  O10  1  0.75799900  0.13131600  0.87599100  1
  O  O11  1  0.74349100  0.61734800  0.37560300  1
loop_
_geom_bond_atom_site_label_1
_geom_bond_atom_site_label_2
_geom_bond_distance
_geom_bond_site_symmetry_2
Ba0 O7 2.873217 1_545
Ba0 O9 2.878413 1_655
Ba0 O8 2.881608 1_554
Ba0 O5 2.885022 1_545
Ba0 O10 2.886327 1_554
Ba0 O2 2.898316 1_555
Ba0 O2 2.905487 1_655
Ba0 O11 2.905752 1_555
Ba0 O0 2.912061 1_554
Ba0 O5 2.915901 1_555
Ba0 O7 2.924047 1_655
Ba0 O1 2.934352 1_555
Ba1 O0 2.861047 1_555
Ba1 O6 2.870590 1_665
Ba1 O3 2.886693 1_655
Ba1 O4 2.888230 1_565
Ba1 O1 2.890042 1_565
Ba1 O10 2.894043 1_565
Ba1 O11 2.901586 1_555
Ba1 O3 2.913883 1_555
Ba1 O9 2.914859 1_555
Ba1 O4 2.915326 1_555
Ba1 O8 2.922274 1_665
Ba1 O6 2.926700 1_555
Ba2 O3 2.873909 1_555
Ba2 O10 2.874396 1_455
Ba2 O2 2.881074 1_556
Ba2 O0 2.886238 1_455
Ba2 O7 2.890271 1_556
Ba2 O8 2.896675 1_555
Ba2 O6 2.906462 1_555
Ba2 O8 2.907109 1_565
Ba2 O5 2.911126 1_556
Ba2 O0 2.914482 1_555
Ba2 O10 2.922865 1_565
Ba2 O4 2.929879 1_455
Ba3 O5 2.864709 1_445
Ba3 O11 2.869298 1_555
Ba3 O9 2.884824 1_555
Ba3 O1 2.890209 1_555
Ba3 O4 2.891597 1_555
Ba3 O7 2.892673 1_545
Ba3 O6 2.898286 1_555
Ba3 O1 2.913356 1_455
Ba3 O9 2.915952 1_545
Ba3 O3 2.916173 1_545
Ba3 O2 2.926172 1_555
Ba3 O11 2.927971 1_445
Fe0 O9 2.001033 1_555
Fe0 O3 2.001292 1_555
Fe0 O11 2.045538 1_455
Fe0 O6 2.049637 1_555
Fe0 O4 2.198045 1_455
Fe0 O1 2.200052 1_455
Fe1 O5 2.011257 1_555
Fe1 O0 2.013529 1_554
Fe1 O10 2.041656 1_564
Fe1 O7 2.042362 1_655
Fe1 O2 2.183890 1_665
Fe1 O8 2.183961 1_664
Mo0 O1 1.943200 1_565
Mo0 O2 1.949974 1_555
Mo0 O9 2.047293 1_555
Mo0 O11 2.049504 1_555
Mo0 O5 2.057920 1_555
Mo0 O7 2.072714 1_555
Mo1 O4 1.944921 1_555
Mo1 O8 1.951941 1_555
Mo1 O3 2.047641 1_545
Mo1 O6 2.048661 1_555
Mo1 O0 2.057410 1_555
Mo1 O10 2.071854 1_555
