# generated using pymatgen
data_CaLaMg14
_symmetry_space_group_name_H-M   'P 1'
_cell_length_a   6.65690760
_cell_length_b   6.62594990
_cell_length_c   10.56389659
_cell_angle_alpha   90.00000000
_cell_angle_beta   90.00000000
_cell_angle_gamma   119.84628858
_symmetry_Int_Tables_number   1
_chemical_formula_structural   CaLaMg14
_chemical_formula_sum   'Ca1 La1 Mg14'
_cell_volume   404.15322217
_cell_formula_units_Z   1
loop_
 _symmetry_equiv_pos_site_id
 _symmetry_equiv_pos_as_xyz
  1  'x, y, z'
loop_
 _atom_site_type_symbol
 _atom_site_label
 _atom_site_symmetry_multiplicity
 _atom_site_fract_x
 _atom_site_fract_y
 _atom_site_fract_z
 _atom_site_occupancy
  Ca  Ca0  1  0.17208865  0.33604383  0.12500000  1
  La  La0  1  0.17227875  0.83613887  0.12500000  1
  Mg  Mg0  1  0.16461842  0.33230871  0.62500000  1
  Mg  Mg1  1  0.16487404  0.83243652  0.62500000  1
  Mg  Mg2  1  0.66340384  0.33587404  0.12500000  1
  Mg  Mg3  1  0.66764769  0.33366882  0.62500000  1
  Mg  Mg4  1  0.66340384  0.82752879  0.12500000  1
  Mg  Mg5  1  0.66764769  0.83397787  0.62500000  1
  Mg  Mg6  1  0.33852264  0.16988156  0.38719393  1
  Mg  Mg7  1  0.33852264  0.16988156  0.86280607  1
  Mg  Mg8  1  0.33852264  0.66864207  0.38719393  1
  Mg  Mg9  1  0.33852264  0.66864207  0.86280607  1
  Mg  Mg10  1  0.82761920  0.16381010  0.37739809  1
  Mg  Mg11  1  0.82761920  0.16381010  0.87260191  1
  Mg  Mg12  1  0.82735406  0.66367753  0.38063388  1
  Mg  Mg13  1  0.82735406  0.66367753  0.86936612  1
loop_
_geom_bond_atom_site_label_1
_geom_bond_atom_site_label_2
_geom_bond_distance
_geom_bond_site_symmetry_2
Ca0 Mg4 3.271200 1_555
Ca0 Mg2 3.271200 1_555
Ca0 La0 3.312975 1_555
Ca0 La0 3.312975 1_545
Ca0 Mg11 3.326429 1_454
Ca0 Mg10 3.326429 1_455
Ca0 Mg7 3.365348 1_554
Ca0 Mg6 3.365348 1_555
Ca0 Mg9 3.365354 1_554
Ca0 Mg8 3.365354 1_555
Ca0 Mg4 3.385708 1_445
Ca0 Mg2 3.385708 1_455
La0 Mg2 3.298138 1_565
La0 Mg4 3.298138 1_555
La0 Mg13 3.355450 1_454
La0 Mg12 3.355450 1_455
La0 Mg2 3.359505 1_455
La0 Mg4 3.359505 1_455
La0 Mg9 3.369075 1_554
La0 Mg8 3.369075 1_555
La0 Mg6 3.369081 1_565
La0 Mg7 3.369081 1_564
Mg0 Mg6 3.170100 1_555
Mg0 Mg7 3.170100 1_555
Mg0 Mg9 3.170106 1_555
Mg0 Mg8 3.170106 1_555
Mg0 Mg10 3.260030 1_455
Mg0 Mg11 3.260030 1_455
Mg0 Mg5 3.312782 1_445
Mg0 Mg3 3.312783 1_455
Mg0 Mg1 3.312975 1_555
Mg0 Mg1 3.312975 1_545
Mg0 Mg5 3.344143 1_555
Mg0 Mg3 3.344143 1_555
Mg1 Mg8 3.173922 1_555
Mg1 Mg9 3.173922 1_555
Mg1 Mg7 3.173928 1_565
Mg1 Mg6 3.173928 1_565
Mg1 Mg12 3.234479 1_455
Mg1 Mg13 3.234479 1_455
Mg1 Mg3 3.315084 1_455
Mg1 Mg5 3.315084 1_455
Mg1 Mg3 3.341846 1_565
Mg1 Mg5 3.341847 1_555
Mg2 Mg4 3.257680 1_555
Mg2 Mg7 3.345311 1_554
Mg2 Mg6 3.345311 1_555
Mg2 Mg4 3.368270 1_545
Mg3 Mg7 3.149971 1_555
Mg3 Mg6 3.149971 1_555
Mg3 Mg5 3.310927 1_545
Mg3 Mg5 3.315023 1_555
Mg4 Mg8 3.345311 1_555
Mg4 Mg9 3.345311 1_554
Mg5 Mg8 3.149971 1_555
Mg5 Mg9 3.149971 1_555
Mg6 Mg8 3.304762 1_555
Mg6 Mg8 3.321188 1_545
Mg7 Mg9 3.304762 1_555
Mg7 Mg9 3.321188 1_545
Mg10 Mg3 3.230368 1_555
Mg10 Mg5 3.230375 1_545
Mg10 Mg8 3.277711 1_545
Mg10 Mg6 3.277711 1_555
Mg10 Mg2 3.293101 1_555
Mg10 Mg4 3.293108 1_545
Mg10 Mg12 3.313152 1_545
Mg10 Mg12 3.313152 1_555
Mg10 Mg8 3.382779 1_655
Mg10 Mg6 3.382779 1_655
Mg11 Mg3 3.230368 1_555
Mg11 Mg5 3.230375 1_545
Mg11 Mg9 3.277711 1_545
Mg11 Mg7 3.277711 1_555
Mg11 Mg2 3.293101 1_556
Mg11 Mg4 3.293108 1_546
Mg11 Mg13 3.313152 1_545
Mg11 Mg13 3.313152 1_555
Mg11 Mg9 3.382779 1_655
Mg11 Mg7 3.382779 1_655
Mg12 Mg5 3.203371 1_555
Mg12 Mg3 3.203378 1_555
Mg12 Mg6 3.271335 1_555
Mg12 Mg8 3.271335 1_555
Mg12 Mg4 3.292700 1_555
Mg12 Mg2 3.292707 1_555
Mg12 Mg6 3.387260 1_665
Mg12 Mg8 3.387260 1_655
Mg13 Mg5 3.203371 1_555
Mg13 Mg3 3.203378 1_555
Mg13 Mg7 3.271335 1_555
Mg13 Mg9 3.271335 1_555
Mg13 Mg4 3.292700 1_556
Mg13 Mg2 3.292707 1_556
Mg13 Mg7 3.387260 1_665
Mg13 Mg9 3.387260 1_655
