# generated using pymatgen
data_Zr10Al6O
_symmetry_space_group_name_H-M   'P 1'
_cell_length_a   8.28248439
_cell_length_b   8.28248439
_cell_length_c   5.58719900
_cell_angle_alpha   90.00000000
_cell_angle_beta   90.00000000
_cell_angle_gamma   120.00000311
_symmetry_Int_Tables_number   1
_chemical_formula_structural   Zr10Al6O
_chemical_formula_sum   'Zr10 Al6 O1'
_cell_volume   331.92962100
_cell_formula_units_Z   1
loop_
 _symmetry_equiv_pos_site_id
 _symmetry_equiv_pos_as_xyz
  1  'x, y, z'
loop_
 _atom_site_type_symbol
 _atom_site_label
 _atom_site_symmetry_multiplicity
 _atom_site_fract_x
 _atom_site_fract_y
 _atom_site_fract_z
 _atom_site_occupancy
  Zr  Zr0  1  0.00000000  0.76723500  0.25201700  1
  Zr  Zr1  1  0.23276500  0.23276500  0.25201700  1
  Zr  Zr2  1  0.76723500  0.00000000  0.25201700  1
  Zr  Zr3  1  0.00000000  0.23276500  0.74798300  1
  Zr  Zr4  1  0.76723500  0.76723500  0.74798300  1
  Zr  Zr5  1  0.23276500  0.00000000  0.74798300  1
  Zr  Zr6  1  0.33333300  0.66666700  0.50000000  1
  Zr  Zr7  1  0.66666700  0.33333300  0.50000000  1
  Zr  Zr8  1  0.66666700  0.33333300  0.00000000  1
  Zr  Zr9  1  0.33333300  0.66666700  0.00000000  1
  Al  Al0  1  0.00000000  0.39848900  0.24650500  1
  Al  Al1  1  0.60151100  0.60151100  0.24650500  1
  Al  Al2  1  0.39848900  0.00000000  0.24650500  1
  Al  Al3  1  0.00000000  0.60151100  0.75349500  1
  Al  Al4  1  0.39848900  0.39848900  0.75349500  1
  Al  Al5  1  0.60151100  0.00000000  0.75349500  1
  O  O0  1  0.00000000  0.00000000  0.50000000  1
loop_
_geom_bond_atom_site_label_1
_geom_bond_atom_site_label_2
_geom_bond_distance
_geom_bond_site_symmetry_2
Zr6 Zr9 2.793600 1_556
Zr6 Zr9 2.793600 1_555
Zr7 Zr8 2.793600 1_556
Zr7 Zr8 2.793600 1_555
Al0 Zr2 2.871916 1_455
Al0 Zr1 2.871916 1_555
Al0 Zr8 2.884506 1_455
Al0 Zr9 2.884508 1_555
Al0 Zr7 2.903356 1_455
Al0 Zr6 2.903358 1_555
Al0 Zr0 3.054288 1_555
Al0 Zr3 3.105185 1_554
Al0 Zr3 3.120009 1_555
Al1 Zr0 2.871916 1_655
Al1 Zr2 2.871916 1_565
Al1 Zr8 2.884513 1_555
Al1 Zr9 2.884513 1_555
Al1 Zr7 2.903363 1_555
Al1 Zr6 2.903363 1_555
Al1 Zr1 3.054288 1_555
Al1 Zr4 3.105185 1_554
Al1 Zr4 3.120009 1_555
Al2 Zr0 2.871916 1_545
Al2 Zr1 2.871916 1_555
Al2 Zr9 2.884506 1_545
Al2 Zr8 2.884508 1_555
Al2 Zr6 2.903356 1_545
Al2 Zr7 2.903358 1_555
Al2 Zr2 3.054288 1_555
Al2 Zr5 3.105185 1_554
Al2 Zr5 3.120009 1_555
Al3 Zr5 2.871916 1_565
Al3 Zr4 2.871916 1_455
Al3 Zr9 2.884506 1_556
Al3 Zr8 2.884508 1_456
Al3 Zr6 2.903356 1_555
Al3 Zr7 2.903358 1_455
Al3 Zr3 3.054288 1_555
Al3 Zr0 3.105185 1_556
Al3 Zr0 3.120009 1_555
Al4 Zr3 2.871916 1_555
Al4 Zr5 2.871916 1_555
Al4 Zr9 2.884513 1_556
Al4 Zr8 2.884513 1_556
Al4 Zr6 2.903363 1_555
Al4 Zr7 2.903363 1_555
Al4 Zr4 3.054288 1_555
Al4 Zr1 3.105185 1_556
Al4 Zr1 3.120009 1_555
Al5 Zr3 2.871916 1_655
Al5 Zr4 2.871916 1_545
Al5 Zr8 2.884506 1_556
Al5 Zr9 2.884508 1_546
Al5 Zr7 2.903356 1_555
Al5 Zr6 2.903358 1_545
Al5 Zr5 3.054288 1_555
Al5 Zr2 3.105185 1_556
Al5 Zr2 3.120009 1_555
O0 Zr1 2.374107 1_555
O0 Zr4 2.374107 1_445
O0 Zr3 2.374108 1_555
O0 Zr2 2.374108 1_455
O0 Zr5 2.374108 1_555
O0 Zr0 2.374108 1_545
