# generated using pymatgen
data_YbZnSn
_symmetry_space_group_name_H-M   'P 1'
_cell_length_a   4.58452748
_cell_length_b   4.58452748
_cell_length_c   7.04729473
_cell_angle_alpha   90.00000000
_cell_angle_beta   90.00000000
_cell_angle_gamma   119.99999277
_symmetry_Int_Tables_number   1
_chemical_formula_structural   YbZnSn
_chemical_formula_sum   'Yb2 Zn2 Sn2'
_cell_volume   128.27506957
_cell_formula_units_Z   2
loop_
 _symmetry_equiv_pos_site_id
 _symmetry_equiv_pos_as_xyz
  1  'x, y, z'
loop_
 _atom_site_type_symbol
 _atom_site_label
 _atom_site_symmetry_multiplicity
 _atom_site_fract_x
 _atom_site_fract_y
 _atom_site_fract_z
 _atom_site_occupancy
  Yb  Yb0  1  0.00000000  0.00000000  0.73924020  1
  Yb  Yb1  1  0.00000000  0.00000000  0.23924020  1
  Zn  Zn0  1  0.66666700  0.33333300  0.47865721  1
  Zn  Zn1  1  0.33333300  0.66666700  0.97865721  1
  Sn  Sn0  1  0.66666700  0.33333300  0.99240259  1
  Sn  Sn1  1  0.33333300  0.66666700  0.49240259  1
loop_
_geom_bond_atom_site_label_1
_geom_bond_atom_site_label_2
_geom_bond_distance
_geom_bond_site_symmetry_2
Yb0 Zn1 3.138907 1_545
Yb0 Zn1 3.138910 1_555
Yb0 Zn1 3.138910 1_445
Yb0 Zn0 3.221542 1_455
Yb0 Zn0 3.221546 1_555
Yb0 Zn0 3.221546 1_445
Yb1 Zn0 3.138907 1_455
Yb1 Zn0 3.138910 1_555
Yb1 Zn0 3.138910 1_445
Yb1 Zn1 3.221542 1_544
Yb1 Zn1 3.221546 1_554
Yb1 Zn1 3.221546 1_444
Sn0 Zn1 2.648648 1_655
Sn0 Zn1 2.648648 1_545
Sn0 Zn1 2.648655 1_555
Sn0 Yb1 3.167324 1_656
Sn0 Yb1 3.167327 1_556
Sn0 Yb1 3.167327 1_666
Sn0 Yb0 3.192021 1_655
Sn0 Yb0 3.192025 1_555
Sn0 Yb0 3.192025 1_665
Sn1 Zn0 2.648648 1_565
Sn1 Zn0 2.648648 1_455
Sn1 Zn0 2.648655 1_555
Sn1 Yb0 3.167324 1_565
Sn1 Yb0 3.167327 1_555
Sn1 Yb0 3.167327 1_665
Sn1 Yb1 3.192021 1_565
Sn1 Yb1 3.192025 1_555
Sn1 Yb1 3.192025 1_665
