# generated using pymatgen
data_CaNdCoO4
_symmetry_space_group_name_H-M   'P 1'
_cell_length_a   6.64447935
_cell_length_b   6.64447935
_cell_length_c   5.34466800
_cell_angle_alpha   90.00000000
_cell_angle_beta   90.00000000
_cell_angle_gamma   132.71489776
_symmetry_Int_Tables_number   1
_chemical_formula_structural   CaNdCoO4
_chemical_formula_sum   'Ca2 Nd2 Co2 O8'
_cell_volume   173.37053413
_cell_formula_units_Z   2
loop_
 _symmetry_equiv_pos_site_id
 _symmetry_equiv_pos_as_xyz
  1  'x, y, z'
loop_
 _atom_site_type_symbol
 _atom_site_label
 _atom_site_symmetry_multiplicity
 _atom_site_fract_x
 _atom_site_fract_y
 _atom_site_fract_z
 _atom_site_occupancy
  Ca  Ca0  1  0.60624600  0.39375400  0.25000000  1
  Ca  Ca1  1  0.39375400  0.60624600  0.75000000  1
  Nd  Nd0  1  0.11129000  0.88871000  0.75000000  1
  Nd  Nd1  1  0.88871000  0.11129000  0.25000000  1
  Co  Co0  1  0.25118500  0.74881500  0.25000000  1
  Co  Co1  1  0.74881500  0.25118500  0.75000000  1
  O  O0  1  0.00000000  0.50000000  0.50000000  1
  O  O1  1  0.50000000  0.00000000  0.00000000  1
  O  O2  1  0.50000000  0.00000000  0.50000000  1
  O  O3  1  0.00000000  0.50000000  0.00000000  1
  O  O4  1  0.92210100  0.07789900  0.75000000  1
  O  O5  1  0.41865800  0.58134200  0.25000000  1
  O  O6  1  0.07789900  0.92210100  0.25000000  1
  O  O7  1  0.58134200  0.41865800  0.75000000  1
loop_
_geom_bond_atom_site_label_1
_geom_bond_atom_site_label_2
_geom_bond_distance
_geom_bond_site_symmetry_2
Ca0 O5 2.283612 1_555
Ca0 O1 2.573499 1_555
Ca0 O2 2.573499 1_555
Ca0 O0 2.573499 1_655
Ca0 O3 2.573499 1_655
Ca0 O6 2.686884 1_655
Ca0 O6 2.686884 1_545
Ca0 O7 2.689476 1_554
Ca0 O7 2.689476 1_555
Ca1 O7 2.283612 1_555
Ca1 O1 2.573499 1_566
Ca1 O3 2.573499 1_556
Ca1 O2 2.573499 1_565
Ca1 O0 2.573499 1_555
Ca1 O4 2.686884 1_565
Ca1 O4 2.686884 1_455
Ca1 O5 2.689476 1_555
Ca1 O5 2.689476 1_556
Nd0 O4 2.303102 1_465
Nd0 O1 2.532145 1_566
Nd0 O2 2.532145 1_565
Nd0 O0 2.532145 1_555
Nd0 O3 2.532145 1_556
Nd0 O7 2.689457 1_565
Nd0 O7 2.689457 1_455
Nd0 O6 2.703072 1_556
Nd0 O6 2.703072 1_555
Nd1 O6 2.303102 1_645
Nd1 O1 2.532145 1_555
Nd1 O3 2.532145 1_655
Nd1 O2 2.532145 1_555
Nd1 O0 2.532145 1_655
Nd1 O5 2.689457 1_545
Nd1 O5 2.689457 1_655
Nd1 O4 2.703072 1_555
Nd1 O4 2.703072 1_554
Co0 O1 1.886960 1_565
Co0 O0 1.886960 1_555
Co0 O3 1.886960 1_555
Co0 O2 1.886960 1_565
Co0 O5 2.038741 1_555
Co0 O6 2.109506 1_555
Co1 O2 1.886960 1_555
Co1 O1 1.886960 1_556
Co1 O0 1.886960 1_655
Co1 O3 1.886960 1_656
Co1 O7 2.038741 1_555
Co1 O4 2.109506 1_555
