# generated using pymatgen
data_Na3Sm2(SiSe3)2
_symmetry_space_group_name_H-M   'P 1'
_cell_length_a   7.33953407
_cell_length_b   7.33953407
_cell_length_c   7.67634008
_cell_angle_alpha   80.81250291
_cell_angle_beta   80.81250291
_cell_angle_gamma   119.92282476
_symmetry_Int_Tables_number   1
_chemical_formula_structural   Na3Sm2(SiSe3)2
_chemical_formula_sum   'Na3 Sm2 Si2 Se6'
_cell_volume   339.67315431
_cell_formula_units_Z   1
loop_
 _symmetry_equiv_pos_site_id
 _symmetry_equiv_pos_as_xyz
  1  'x, y, z'
loop_
 _atom_site_type_symbol
 _atom_site_label
 _atom_site_symmetry_multiplicity
 _atom_site_fract_x
 _atom_site_fract_y
 _atom_site_fract_z
 _atom_site_occupancy
  Na  Na0  1  0.00000000  0.00000000  0.00000000  1
  Na  Na1  1  0.67099000  0.32901000  0.00000000  1
  Na  Na2  1  0.32901000  0.67099000  0.00000000  1
  Sm  Sm0  1  0.83412900  0.16587100  0.50000000  1
  Sm  Sm1  1  0.16587100  0.83412900  0.50000000  1
  Si  Si0  1  0.55619100  0.55619100  0.33028600  1
  Si  Si1  1  0.44380900  0.44380900  0.66971400  1
  Se  Se0  1  0.23434300  0.23434300  0.26232500  1
  Se  Se1  1  0.76565700  0.76565700  0.73767500  1
  Se  Se2  1  0.57760200  0.92186400  0.26530200  1
  Se  Se3  1  0.42239800  0.07813600  0.73469800  1
  Se  Se4  1  0.07813600  0.42239800  0.73469800  1
  Se  Se5  1  0.92186400  0.57760200  0.26530200  1
loop_
_geom_bond_atom_site_label_1
_geom_bond_atom_site_label_2
_geom_bond_distance
_geom_bond_site_symmetry_2
Na0 Se0 3.038449 1_555
Na0 Se1 3.038449 1_444
Na0 Se2 3.150364 1_445
Na0 Se5 3.150364 1_445
Na0 Se3 3.150364 1_554
Na0 Se4 3.150364 1_554
Na1 Se4 3.019019 1_654
Na1 Se2 3.019019 1_545
Na1 Se5 3.146302 1_555
Na1 Se3 3.146302 1_554
Na1 Se1 3.174787 1_554
Na1 Se0 3.174787 1_555
Na2 Se3 3.019019 1_564
Na2 Se5 3.019019 1_455
Na2 Se2 3.146302 1_555
Na2 Se4 3.146302 1_554
Na2 Se1 3.174787 1_554
Na2 Se0 3.174787 1_555
Se0 Si0 2.579205 1_555
Se0 Sm0 2.955097 1_455
Se0 Sm1 2.955097 1_545
Se1 Si1 2.579205 1_555
Se1 Sm0 2.955097 1_565
Se1 Sm1 2.955097 1_655
Se2 Si0 2.569699 1_555
Se2 Sm1 2.956699 1_555
Se2 Sm0 2.957628 1_565
Se3 Si1 2.569699 1_555
Se3 Sm0 2.956699 1_555
Se3 Sm1 2.957628 1_545
Se4 Si1 2.569699 1_555
Se4 Sm1 2.956699 1_555
Se4 Sm0 2.957628 1_455
Se5 Si0 2.569699 1_555
Se5 Sm0 2.956699 1_555
Se5 Sm1 2.957628 1_655
