# generated using pymatgen
data_NiSn2Au
_symmetry_space_group_name_H-M   'P 1'
_cell_length_a   4.12388023
_cell_length_b   4.12388023
_cell_length_c   5.31248253
_cell_angle_alpha   90.00000000
_cell_angle_beta   90.00000000
_cell_angle_gamma   119.99998704
_symmetry_Int_Tables_number   1
_chemical_formula_structural   NiSn2Au
_chemical_formula_sum   'Ni1 Sn2 Au1'
_cell_volume   78.24206263
_cell_formula_units_Z   1
loop_
 _symmetry_equiv_pos_site_id
 _symmetry_equiv_pos_as_xyz
  1  'x, y, z'
loop_
 _atom_site_type_symbol
 _atom_site_label
 _atom_site_symmetry_multiplicity
 _atom_site_fract_x
 _atom_site_fract_y
 _atom_site_fract_z
 _atom_site_occupancy
  Ni  Ni0  1  0.00000000  -0.00000000  -0.00000000  1
  Sn  Sn0  1  0.33333300  0.66666700  0.21032739  1
  Sn  Sn1  1  0.66666700  0.33333300  0.78967261  1
  Au  Au0  1  0.00000000  -0.00000000  0.50000000  1
loop_
_geom_bond_atom_site_label_1
_geom_bond_atom_site_label_2
_geom_bond_distance
_geom_bond_site_symmetry_2
Ni0 Sn0 2.630072 1_545
Ni0 Sn1 2.630072 1_454
Ni0 Sn1 2.630076 1_444
Ni0 Sn0 2.630076 1_445
Ni0 Sn1 2.630076 1_554
Ni0 Sn0 2.630076 1_555
Au0 Ni0 2.656241 1_555
Au0 Ni0 2.656241 1_556
Au0 Sn0 2.834949 1_545
Au0 Sn1 2.834949 1_455
Au0 Sn0 2.834953 1_555
Au0 Sn1 2.834953 1_555
Au0 Sn1 2.834953 1_445
Au0 Sn0 2.834953 1_445
