# generated using pymatgen
data_Tl3In5Se8
_symmetry_space_group_name_H-M   'P 1'
_cell_length_a   8.25757800
_cell_length_b   8.25757800
_cell_length_c   6.96263600
_cell_angle_alpha   90.00000000
_cell_angle_beta   90.00000000
_cell_angle_gamma   90.00000000
_symmetry_Int_Tables_number   1
_chemical_formula_structural   Tl3In5Se8
_chemical_formula_sum   'Tl3 In5 Se8'
_cell_volume   474.76539970
_cell_formula_units_Z   1
loop_
 _symmetry_equiv_pos_site_id
 _symmetry_equiv_pos_as_xyz
  1  'x, y, z'
loop_
 _atom_site_type_symbol
 _atom_site_label
 _atom_site_symmetry_multiplicity
 _atom_site_fract_x
 _atom_site_fract_y
 _atom_site_fract_z
 _atom_site_occupancy
  Tl  Tl0  1  0.50000000  0.50000000  0.50000000  1
  Tl  Tl1  1  0.50000000  0.50000000  0.00000000  1
  Tl  Tl2  1  0.00000000  0.00000000  0.50000000  1
  In  In0  1  0.50000000  0.00000000  0.50000000  1
  In  In1  1  0.00000000  0.50000000  0.00000000  1
  In  In2  1  0.00000000  0.50000000  0.50000000  1
  In  In3  1  0.50000000  0.00000000  0.00000000  1
  In  In4  1  0.00000000  0.00000000  0.00000000  1
  Se  Se0  1  0.17140000  0.67220700  0.24950000  1
  Se  Se1  1  0.67220700  0.17140000  0.75050000  1
  Se  Se2  1  0.32779300  0.82860000  0.75050000  1
  Se  Se3  1  0.82860000  0.32779300  0.24950000  1
  Se  Se4  1  0.67220700  0.82860000  0.24950000  1
  Se  Se5  1  0.17140000  0.32779300  0.75050000  1
  Se  Se6  1  0.82860000  0.67220700  0.75050000  1
  Se  Se7  1  0.32779300  0.17140000  0.24950000  1
loop_
_geom_bond_atom_site_label_1
_geom_bond_atom_site_label_2
_geom_bond_distance
_geom_bond_site_symmetry_2
In0 Se4 2.658450 1_545
In0 Se2 2.658450 1_545
In0 Se7 2.658450 1_555
In0 Se1 2.658450 1_555
In1 Se5 2.653888 1_554
In1 Se6 2.653888 1_454
In1 Se0 2.653888 1_555
In1 Se3 2.653888 1_455
In2 Se5 2.658450 1_555
In2 Se6 2.658450 1_455
In2 Se0 2.658450 1_555
In2 Se3 2.658450 1_455
In3 Se2 2.653888 1_544
In3 Se1 2.653888 1_554
In3 Se7 2.653888 1_555
In3 Se4 2.653888 1_545
In4 Tl2 3.481318 1_554
In4 Tl2 3.481318 1_555
