# generated using pymatgen
data_CeSe2
_symmetry_space_group_name_H-M   'P 1'
_cell_length_a   7.28891400
_cell_length_b   7.49119314
_cell_length_c   10.10166250
_cell_angle_alpha   95.43420538
_cell_angle_beta   96.91939818
_cell_angle_gamma   104.38844791
_symmetry_Int_Tables_number   1
_chemical_formula_structural   CeSe2
_chemical_formula_sum   'Ce4 Se8'
_cell_volume   525.91069824
_cell_formula_units_Z   4
loop_
 _symmetry_equiv_pos_site_id
 _symmetry_equiv_pos_as_xyz
  1  'x, y, z'
loop_
 _atom_site_type_symbol
 _atom_site_label
 _atom_site_symmetry_multiplicity
 _atom_site_fract_x
 _atom_site_fract_y
 _atom_site_fract_z
 _atom_site_occupancy
  Ce  Ce0  1  0.51691100  0.10686500  0.09298200  1
  Ce  Ce1  1  0.99536600  0.01633200  0.80777800  1
  Ce  Ce2  1  0.45147600  0.09534300  0.50657900  1
  Ce  Ce3  1  0.21309200  0.53867500  0.13777200  1
  Se  Se0  1  0.81169200  0.22041300  0.64228600  1
  Se  Se1  1  0.72421800  0.89835000  0.96624900  1
  Se  Se2  1  0.49495300  0.84979000  0.29644000  1
  Se  Se3  1  0.15824600  0.87168700  0.59878300  1
  Se  Se4  1  0.83126100  0.42353900  0.13344700  1
  Se  Se5  1  0.20087900  0.80381300  0.96128600  1
  Se  Se6  1  0.30988500  0.31486300  0.92763100  1
  Se  Se7  1  0.36897200  0.30583000  0.30551700  1
loop_
_geom_bond_atom_site_label_1
_geom_bond_atom_site_label_2
_geom_bond_distance
_geom_bond_site_symmetry_2
Ce0 Se1 2.760888 1_544
Ce0 Se4 2.816724 1_555
Ce0 Se5 2.884536 1_544
Ce0 Se6 2.923878 1_554
Ce0 Se2 2.938396 1_545
Ce0 Se7 2.957062 1_555
Ce1 Se1 2.722498 1_545
Ce1 Se3 2.801914 1_645
Ce1 Se0 2.808266 1_555
Ce1 Se6 2.827206 1_655
Ce1 Se5 2.876835 1_645
Ce2 Se3 2.690420 1_545
Ce2 Se0 2.705124 1_555
Ce2 Se2 2.775324 1_545
Ce2 Se7 2.785084 1_555
Ce3 Se4 2.694850 1_455
Ce3 Se5 2.802074 1_554
Ce3 Se6 2.844221 1_554
Ce3 Se7 2.878492 1_555
Ce3 Se2 2.888078 1_555
