# generated using pymatgen
data_Li2Ti2V3O10
_symmetry_space_group_name_H-M   'P 1'
_cell_length_a   5.21626032
_cell_length_b   9.87026492
_cell_length_c   8.41245456
_cell_angle_alpha   68.77799270
_cell_angle_beta   94.61739201
_cell_angle_gamma   77.57037302
_symmetry_Int_Tables_number   1
_chemical_formula_structural   Li2Ti2V3O10
_chemical_formula_sum   'Li4 Ti4 V6 O20'
_cell_volume   388.27097418
_cell_formula_units_Z   2
loop_
 _symmetry_equiv_pos_site_id
 _symmetry_equiv_pos_as_xyz
  1  'x, y, z'
loop_
 _atom_site_type_symbol
 _atom_site_label
 _atom_site_symmetry_multiplicity
 _atom_site_fract_x
 _atom_site_fract_y
 _atom_site_fract_z
 _atom_site_occupancy
  Li  Li0  1  0.75105700  0.47710700  0.91807800  1
  Li  Li1  1  0.23848900  0.96782600  0.42623000  1
  Li  Li2  1  0.26153800  0.53217900  0.07380100  1
  Li  Li3  1  0.74887400  0.02294400  0.58193800  1
  Ti  Ti0  1  0.78631900  0.34831300  0.33420400  1
  Ti  Ti1  1  0.27651200  0.84624000  0.83994100  1
  Ti  Ti2  1  0.22343600  0.65375400  0.66002300  1
  Ti  Ti3  1  0.71376000  0.15167000  0.16583200  1
  V  V0  1  0.24994100  0.75004200  0.25001000  1
  V  V1  1  0.26560100  0.42207900  0.46428000  1
  V  V2  1  0.23454400  0.07782500  0.03570000  1
  V  V3  1  0.75011300  0.24995900  0.75005200  1
  V  V4  1  0.76262600  0.92973600  0.96824800  1
  V  V5  1  0.73742100  0.57023100  0.53174300  1
  O  O0  1  0.51246800  0.53320900  0.32426600  1
  O  O1  1  0.01724900  0.04622200  0.82613300  1
  O  O2  1  0.48276000  0.45379500  0.67381200  1
  O  O3  1  0.98748500  0.96678100  0.17572300  1
  O  O4  1  0.41899100  0.64042800  0.86445700  1
  O  O5  1  0.90570400  0.14047000  0.37299500  1
  O  O6  1  0.59435200  0.35951000  0.12706600  1
  O  O7  1  0.08083800  0.85961800  0.63546900  1
  O  O8  1  0.44645100  0.87095300  0.07810300  1
  O  O9  1  0.95679200  0.35624900  0.56795900  1
  O  O10  1  0.54319500  0.14375000  0.93206000  1
  O  O11  1  0.05353900  0.62908900  0.42183900  1
  O  O12  1  0.96784200  0.24773200  0.97067600  1
  O  O13  1  0.43627300  0.74821900  0.46850900  1
  O  O14  1  0.06368600  0.75183000  0.03147700  1
  O  O15  1  0.53221500  0.25218900  0.52941200  1
  O  O16  1  0.06650200  0.42335500  0.25933400  1
  O  O17  1  0.55448800  0.92455400  0.76684900  1
  O  O18  1  0.94534700  0.57544100  0.73313400  1
  O  O19  1  0.43359300  0.07670000  0.24064500  1
loop_
_geom_bond_atom_site_label_1
_geom_bond_atom_site_label_2
_geom_bond_distance
_geom_bond_site_symmetry_2
Li0 O4 1.986999 1_555
Li0 O18 1.993449 1_555
Li0 O6 2.066106 1_556
Li0 O12 2.166167 1_555
Li0 O2 2.500399 1_555
Li1 O19 2.034690 1_565
Li1 O7 2.040938 1_555
Li1 O5 2.041230 1_465
Li1 O13 2.075910 1_555
Li1 O3 2.394313 1_455
Li2 O16 2.034004 1_555
Li2 O4 2.041077 1_554
Li2 O6 2.041432 1_555
Li2 O14 2.076289 1_555
Li2 O0 2.393768 1_555
Li3 O7 1.986768 1_645
Li3 O17 1.993782 1_545
Li3 O5 2.065993 1_555
Li3 O15 2.165011 1_555
Li3 O1 2.499953 1_655
O0 Ti0 2.031291 1_555
O0 V1 2.040990 1_555
O0 V0 2.116289 1_555
O0 V5 2.207578 1_555
O1 V3 2.028194 1_455
O1 Ti1 2.097186 1_545
O1 V4 2.105512 1_445
O1 V2 2.172262 1_556
O2 V3 2.029282 1_555
O2 Ti2 2.097202 1_555
O2 V5 2.105271 1_555
O2 V1 2.172288 1_555
O3 Ti3 2.031043 1_565
O3 V2 2.041423 1_665
O3 V0 2.115397 1_655
O3 V4 2.207446 1_554
O4 Ti2 1.873912 1_555
O4 Ti1 1.934849 1_555
O5 Ti3 1.893093 1_555
O5 Ti0 1.906693 1_555
O6 Ti0 1.892977 1_555
O6 Ti3 1.906726 1_555
O7 Ti1 1.874272 1_555
O7 Ti2 1.935321 1_555
O8 V2 1.988957 1_565
O8 V0 2.020437 1_555
O8 V4 2.044469 1_554
O8 Ti1 2.240614 1_554
O9 V1 2.011010 1_655
O9 V3 2.049094 1_555
O9 V5 2.073801 1_555
O9 Ti0 2.126916 1_555
O10 V2 2.010456 1_556
O10 V3 2.049247 1_555
O10 V4 2.074232 1_545
O10 Ti3 2.127141 1_556
O11 V1 1.990288 1_555
O11 V0 2.019873 1_555
O11 V5 2.044589 1_455
O11 Ti2 2.240459 1_555
O12 V2 1.804453 1_656
O12 V3 2.086960 1_555
O12 Ti3 2.261688 1_556
O13 V5 1.959032 1_555
O13 V0 2.001141 1_555
O13 Ti2 2.084143 1_555
O14 V4 1.958261 1_454
O14 V0 2.001375 1_555
O14 Ti1 2.084071 1_554
O15 V1 1.804007 1_555
O15 V3 2.087476 1_555
O15 Ti0 2.262217 1_555
O16 Ti0 1.832426 1_455
O16 V1 1.934329 1_555
O17 Ti1 1.833032 1_555
O17 V4 1.960195 1_555
O18 Ti2 1.833603 1_655
O18 V5 1.959724 1_555
O19 Ti3 1.831904 1_555
O19 V2 1.934845 1_555
