# generated using pymatgen
data_CsNaB10(H2O9)2
_symmetry_space_group_name_H-M   'P 1'
_cell_length_a   9.10244800
_cell_length_b   7.77058200
_cell_length_c   12.04672941
_cell_angle_alpha   64.39072874
_cell_angle_beta   90.00000000
_cell_angle_gamma   90.00000000
_symmetry_Int_Tables_number   1
_chemical_formula_structural   CsNaB10(H2O9)2
_chemical_formula_sum   'Cs2 Na2 B20 H8 O36'
_cell_volume   768.37482587
_cell_formula_units_Z   2
loop_
 _symmetry_equiv_pos_site_id
 _symmetry_equiv_pos_as_xyz
  1  'x, y, z'
loop_
 _atom_site_type_symbol
 _atom_site_label
 _atom_site_symmetry_multiplicity
 _atom_site_fract_x
 _atom_site_fract_y
 _atom_site_fract_z
 _atom_site_occupancy
  Cs  Cs0  1  0.32588400  0.50618500  0.74982400  1
  Cs  Cs1  1  0.67411600  0.50618500  0.24982400  1
  Na  Na0  1  0.91554000  0.05519000  0.25379300  1
  Na  Na1  1  0.08446000  0.05519000  0.75379300  1
  B  B0  1  0.04433400  0.69293500  0.03079400  1
  B  B1  1  0.04280500  0.30740700  0.46797100  1
  B  B2  1  0.95719500  0.30740700  0.96797100  1
  B  B3  1  0.95566600  0.69293500  0.53079400  1
  B  B4  1  0.23491300  0.45584400  0.08104100  1
  B  B5  1  0.23426700  0.54437000  0.41814300  1
  B  B6  1  0.76573300  0.54437000  0.91814300  1
  B  B7  1  0.76508700  0.45584400  0.58104100  1
  B  B8  1  0.58479800  0.00042400  0.24987500  1
  B  B9  1  0.41520200  0.00042400  0.74987500  1
  B  B10  1  0.64949100  0.08515900  0.03360700  1
  B  B11  1  0.64863000  0.91527100  0.46709800  1
  B  B12  1  0.35137000  0.91527100  0.96709800  1
  B  B13  1  0.35050900  0.08515900  0.53360700  1
  B  B14  1  0.10821200  0.49970600  0.24925400  1
  B  B15  1  0.89178800  0.49970600  0.74925400  1
  B  B16  1  0.45318900  0.25254500  0.07873100  1
  B  B17  1  0.45307800  0.74721400  0.42116400  1
  B  B18  1  0.54692200  0.74721400  0.92116400  1
  B  B19  1  0.54681100  0.25254500  0.57873100  1
  H  H0  1  0.71578000  0.14678000  0.86231900  1
  H  H1  1  0.71756500  0.85285000  0.63815100  1
  H  H2  1  0.28243500  0.85285000  0.13815100  1
  H  H3  1  0.28422000  0.14678000  0.36231900  1
  H  H4  1  0.88828500  0.89832100  0.95916300  1
  H  H5  1  0.88874300  0.09795600  0.54406000  1
  H  H6  1  0.11125700  0.09795600  0.04406000  1
  H  H7  1  0.11171500  0.89832100  0.45916300  1
  O  O0  1  0.15625700  0.60753000  0.99260700  1
  O  O1  1  0.15413200  0.39347000  0.50657300  1
  O  O2  1  0.84586800  0.39347000  0.00657300  1
  O  O3  1  0.84374300  0.60753000  0.49260700  1
  O  O4  1  0.96990600  0.83674800  0.93567000  1
  O  O5  1  0.96773700  0.16698400  0.56413200  1
  O  O6  1  0.03226300  0.16698400  0.06413200  1
  O  O7  1  0.03009400  0.83674800  0.43567000  1
  O  O8  1  0.01299300  0.63540600  0.15196300  1
  O  O9  1  0.01297300  0.36071200  0.34689500  1
  O  O10  1  0.98702700  0.36071200  0.84689500  1
  O  O11  1  0.98700700  0.63540600  0.65196300  1
  O  O12  1  0.48879900  0.16993400  0.19959100  1
  O  O13  1  0.48958000  0.82999500  0.30046000  1
  O  O14  1  0.51042000  0.82999500  0.80046000  1
  O  O15  1  0.51120100  0.16993400  0.69959100  1
  O  O16  1  0.20645200  0.39022900  0.20309700  1
  O  O17  1  0.20651900  0.60770900  0.29631700  1
  O  O18  1  0.79348100  0.60770900  0.79631700  1
  O  O19  1  0.79354800  0.39022900  0.70309700  1
  O  O20  1  0.34209100  0.38440400  0.03055400  1
  O  O21  1  0.34147200  0.61563400  0.46887500  1
  O  O22  1  0.65852800  0.61563400  0.96887500  1
  O  O23  1  0.65790900  0.38440400  0.53055400  1
  O  O24  1  0.73616800  0.05730000  0.94811500  1
  O  O25  1  0.73623500  0.94285200  0.55217700  1
  O  O26  1  0.26376500  0.94285200  0.05217700  1
  O  O27  1  0.26383200  0.05730000  0.44811500  1
  O  O28  1  0.53231500  0.21310000  0.99238400  1
  O  O29  1  0.53210100  0.78654500  0.50772100  1
  O  O30  1  0.46789900  0.78654500  0.00772100  1
  O  O31  1  0.46768500  0.21310000  0.49238400  1
  O  O32  1  0.68227500  0.98696400  0.15554500  1
  O  O33  1  0.68045300  0.01632800  0.34513700  1
  O  O34  1  0.31954700  0.01632800  0.84513700  1
  O  O35  1  0.31772500  0.98696400  0.65554500  1
loop_
_geom_bond_atom_site_label_1
_geom_bond_atom_site_label_2
_geom_bond_distance
_geom_bond_site_symmetry_2
Cs0 O20 3.096421 1_556
Cs0 O21 3.116099 1_555
Cs0 O14 3.294185 1_555
Cs0 O11 3.299936 1_455
Cs0 O10 3.319077 1_455
Cs0 O29 3.359035 1_555
Cs0 O15 3.377210 1_555
Cs0 O28 3.391614 1_555
Cs0 O35 3.403622 1_555
Cs0 O34 3.468819 1_555
Cs1 O23 3.096421 1_555
Cs1 O22 3.116099 1_554
Cs1 O13 3.294185 1_555
Cs1 O8 3.299936 1_655
Cs1 O9 3.319077 1_655
Cs1 O30 3.359035 1_555
Cs1 O12 3.377210 1_555
Cs1 O31 3.391614 1_555
Cs1 O32 3.403622 1_555
Cs1 O33 3.468819 1_555
Na0 O6 2.321200 1_655
Na0 O7 2.356708 1_645
Na0 O33 2.365129 1_555
Na0 O32 2.594736 1_545
Na1 O5 2.321200 1_455
Na1 O4 2.356708 1_445
Na1 O34 2.365129 1_555
Na1 O35 2.594736 1_545
B0 O8 1.359349 1_555
B0 O4 1.383453 1_454
B0 O0 1.397809 1_554
B1 O9 1.360317 1_555
B1 O5 1.380864 1_455
B1 O1 1.399716 1_555
B2 O10 1.360317 1_555
B2 O6 1.380864 1_656
B2 O2 1.399716 1_556
B3 O11 1.359349 1_555
B3 O7 1.383453 1_655
B3 O3 1.397809 1_555
B4 O16 1.356834 1_555
B4 O20 1.386258 1_555
B4 O0 1.396907 1_554
B5 O17 1.354797 1_555
B5 O21 1.387432 1_555
B5 O1 1.400720 1_555
B6 O18 1.354797 1_555
B6 O22 1.387432 1_555
B6 O2 1.400720 1_556
B7 O19 1.356834 1_555
B7 O23 1.386258 1_555
B7 O3 1.396907 1_555
B8 O12 1.475043 1_555
B8 O13 1.476062 1_545
B8 O32 1.480636 1_545
B8 O33 1.487602 1_555
B9 O15 1.475043 1_555
B9 O14 1.476062 1_545
B9 O35 1.480636 1_545
B9 O34 1.487602 1_555
B10 O32 1.363875 1_545
B10 O24 1.386639 1_554
B10 O28 1.394925 1_554
B11 O33 1.364488 1_565
B11 O25 1.386424 1_555
B11 O29 1.393542 1_555
B12 O34 1.364488 1_565
B12 O26 1.386424 1_556
B12 O30 1.393542 1_556
B13 O35 1.363875 1_545
B13 O27 1.386639 1_555
B13 O31 1.394925 1_555
B14 O8 1.472556 1_555
B14 O9 1.484386 1_555
B14 O17 1.495936 1_555
B14 O16 1.497138 1_555
B15 O11 1.472556 1_555
B15 O10 1.484386 1_555
B15 O18 1.495936 1_555
B15 O19 1.497138 1_555
B16 O12 1.352416 1_555
B16 O20 1.376689 1_555
B16 O28 1.403683 1_554
B17 O13 1.352764 1_555
B17 O21 1.378323 1_555
B17 O29 1.404840 1_555
B18 O14 1.352764 1_555
B18 O22 1.378323 1_555
B18 O30 1.404840 1_556
B19 O15 1.352416 1_555
B19 O23 1.376689 1_555
B19 O31 1.403683 1_555
H0 O24 0.982295 1_555
H1 O25 0.982098 1_555
H2 O26 0.982098 1_555
H3 O27 0.982295 1_555
H4 O4 0.988965 1_555
H5 O5 0.987582 1_555
H6 O6 0.987582 1_555
H7 O7 0.988965 1_555
