# generated using pymatgen
data_SrGe7N10
_symmetry_space_group_name_H-M   'P 1'
_cell_length_a   7.26460534
_cell_length_b   7.16673800
_cell_length_c   10.24159671
_cell_angle_alpha   90.00000000
_cell_angle_beta   105.47053344
_cell_angle_gamma   90.00000000
_symmetry_Int_Tables_number   1
_chemical_formula_structural   SrGe7N10
_chemical_formula_sum   'Sr2 Ge14 N20'
_cell_volume   513.89408595
_cell_formula_units_Z   2
loop_
 _symmetry_equiv_pos_site_id
 _symmetry_equiv_pos_as_xyz
  1  'x, y, z'
loop_
 _atom_site_type_symbol
 _atom_site_label
 _atom_site_symmetry_multiplicity
 _atom_site_fract_x
 _atom_site_fract_y
 _atom_site_fract_z
 _atom_site_occupancy
  Sr  Sr0  1  0.91455400  0.02402300  0.63493900  1
  Sr  Sr1  1  0.91455400  0.97597700  0.13493900  1
  Ge  Ge0  1  0.54511600  0.97076300  0.82679900  1
  Ge  Ge1  1  0.54511600  0.02923700  0.32679900  1
  Ge  Ge2  1  0.34949700  0.02806400  0.01756900  1
  Ge  Ge3  1  0.34949700  0.97193600  0.51756900  1
  Ge  Ge4  1  0.11197800  0.39316200  0.07520600  1
  Ge  Ge5  1  0.11197800  0.60683800  0.57520600  1
  Ge  Ge6  1  0.66554300  0.36541200  0.99326900  1
  Ge  Ge7  1  0.66554300  0.63458800  0.49326900  1
  Ge  Ge8  1  0.85146600  0.62748700  0.81280300  1
  Ge  Ge9  1  0.85146600  0.37251300  0.31280300  1
  Ge  Ge10  1  0.29722200  0.62186600  0.88440100  1
  Ge  Ge11  1  0.29722200  0.37813400  0.38440100  1
  Ge  Ge12  1  0.48624200  0.36998500  0.68910400  1
  Ge  Ge13  1  0.48624200  0.63001500  0.18910400  1
  N  N0  1  0.77265300  0.86010700  0.84228500  1
  N  N1  1  0.77265300  0.13989300  0.34228500  1
  N  N2  1  0.57297200  0.12669800  0.97981800  1
  N  N3  1  0.57297200  0.87330200  0.47981800  1
  N  N4  1  0.31753200  0.87480000  0.86240300  1
  N  N5  1  0.31753200  0.12520000  0.36240300  1
  N  N6  1  0.14186200  0.15446300  0.02677100  1
  N  N7  1  0.14186200  0.84553700  0.52677100  1
  N  N8  1  0.28409300  0.49840300  0.72535800  1
  N  N9  1  0.28409300  0.50159700  0.22535800  1
  N  N10  1  0.45896500  0.11594900  0.67221500  1
  N  N11  1  0.45896500  0.88405100  0.17221500  1
  N  N12  1  0.88679200  0.37239400  0.13376500  1
  N  N13  1  0.88679200  0.62760600  0.63376500  1
  N  N14  1  0.08034800  0.58350100  0.94364900  1
  N  N15  1  0.08034800  0.41649900  0.44364900  1
  N  N16  1  0.70779200  0.41473200  0.82493400  1
  N  N17  1  0.70779200  0.58526800  0.32493400  1
  N  N18  1  0.49767600  0.53859100  0.02401200  1
  N  N19  1  0.49767600  0.46140900  0.52401200  1
loop_
_geom_bond_atom_site_label_1
_geom_bond_atom_site_label_2
_geom_bond_distance
_geom_bond_site_symmetry_2
Ge0 N0 1.801807 1_555
Ge0 N10 1.858019 1_565
Ge0 N2 1.891206 1_565
Ge0 N4 1.913374 1_555
Ge1 N1 1.801807 1_555
Ge1 N11 1.858019 1_545
Ge1 N3 1.891206 1_545
Ge1 N5 1.913374 1_555
Ge2 N6 1.783409 1_555
Ge2 N11 1.879948 1_545
Ge2 N4 1.894448 1_544
Ge2 N2 1.902535 1_554
Ge3 N7 1.783409 1_555
Ge3 N10 1.879948 1_565
Ge3 N5 1.894448 1_565
Ge3 N3 1.902535 1_555
Ge4 N6 1.810282 1_555
Ge4 N9 1.872521 1_555
Ge4 N14 1.887801 1_554
Ge4 N12 1.892451 1_455
Ge5 N7 1.810282 1_555
Ge5 N8 1.872521 1_555
Ge5 N15 1.887801 1_555
Ge5 N13 1.892451 1_455
Ge6 N18 1.825246 1_556
Ge6 N2 1.829929 1_555
Ge6 N12 1.850002 1_556
Ge6 N16 1.863778 1_555
Ge7 N19 1.825246 1_555
Ge7 N3 1.829929 1_555
Ge7 N13 1.850002 1_555
Ge7 N17 1.863778 1_555
Ge8 N0 1.813978 1_555
Ge8 N14 1.863104 1_655
Ge8 N16 1.870532 1_555
Ge8 N13 1.918102 1_555
Ge9 N1 1.813978 1_555
Ge9 N15 1.863104 1_655
Ge9 N17 1.870532 1_555
Ge9 N12 1.918102 1_555
Ge10 N8 1.833658 1_555
Ge10 N4 1.837440 1_555
Ge10 N18 1.846726 1_556
Ge10 N14 1.853652 1_555
Ge11 N9 1.833658 1_555
Ge11 N5 1.837440 1_555
Ge11 N19 1.846726 1_555
Ge11 N15 1.853652 1_555
Ge12 N10 1.834535 1_555
Ge12 N19 1.835743 1_555
Ge12 N8 1.852664 1_555
Ge12 N16 1.853104 1_555
Ge13 N11 1.834535 1_555
Ge13 N18 1.835743 1_555
Ge13 N9 1.852664 1_555
Ge13 N17 1.853104 1_555
N0 Sr0 2.849562 1_565
N0 Sr1 3.014530 1_556
N1 Sr1 2.849562 1_545
N1 Sr0 3.014530 1_555
N2 Sr1 2.783021 1_546
N3 Sr0 2.783021 1_565
N6 Sr1 2.562466 1_445
N7 Sr0 2.562466 1_465
N12 Sr1 2.847965 1_545
N13 Sr0 2.847965 1_565
