# generated using pymatgen
data_VH6(OF)3
_symmetry_space_group_name_H-M   'P 1'
_cell_length_a   5.05988959
_cell_length_b   5.06014586
_cell_length_c   20.23482389
_cell_angle_alpha   91.61661348
_cell_angle_beta   91.59624167
_cell_angle_gamma   91.69317437
_symmetry_Int_Tables_number   1
_chemical_formula_structural   VH6(OF)3
_chemical_formula_sum   'V4 H24 O12 F12'
_cell_volume   517.44220132
_cell_formula_units_Z   4
loop_
 _symmetry_equiv_pos_site_id
 _symmetry_equiv_pos_as_xyz
  1  'x, y, z'
loop_
 _atom_site_type_symbol
 _atom_site_label
 _atom_site_symmetry_multiplicity
 _atom_site_fract_x
 _atom_site_fract_y
 _atom_site_fract_z
 _atom_site_occupancy
  V  V0  1  0.00090300  0.00089600  0.49991400  1
  V  V1  1  0.00127900  0.00130900  0.75063200  1
  V  V2  1  0.00238700  0.00262200  0.00042600  1
  V  V3  1  0.00119100  0.00128000  0.25058900  1
  H  H0  1  0.55056100  0.77822100  0.04631500  1
  H  H1  1  0.54916900  0.77681000  0.29631200  1
  H  H2  1  0.54907100  0.77663800  0.54593500  1
  H  H3  1  0.54908800  0.77690000  0.79625800  1
  H  H4  1  0.18483200  0.54972100  0.19467100  1
  H  H5  1  0.18388000  0.54961700  0.44376200  1
  H  H6  1  0.18529600  0.55005400  0.69466300  1
  H  H7  1  0.18530500  0.55064700  0.94402200  1
  H  H8  1  0.77824800  0.55063100  0.04632800  1
  H  H9  1  0.77693500  0.54924100  0.29630300  1
  H  H10  1  0.77671800  0.54911700  0.54594200  1
  H  H11  1  0.77704600  0.54915000  0.79625600  1
  H  H12  1  0.54973800  0.18474400  0.19468300  1
  H  H13  1  0.54954200  0.18396500  0.44376700  1
  H  H14  1  0.55005600  0.18510000  0.69467200  1
  H  H15  1  0.55056400  0.18532000  0.94402100  1
  H  H16  1  0.18469600  0.77702700  0.13769100  1
  H  H17  1  0.18381700  0.77824900  0.38714000  1
  H  H18  1  0.18401600  0.77672300  0.63753000  1
  H  H19  1  0.18541100  0.77965300  0.88751800  1
  H  H20  1  0.77718800  0.18468000  0.13769200  1
  H  H21  1  0.77825300  0.18390200  0.38712700  1
  H  H22  1  0.77691600  0.18388900  0.63753500  1
  H  H23  1  0.77965000  0.18546400  0.88752100  1
  O  O0  1  0.12860000  0.73044800  0.18294600  1
  O  O1  1  0.12702600  0.73038300  0.43226800  1
  O  O2  1  0.12916800  0.73079400  0.68294500  1
  O  O3  1  0.13080300  0.73262400  0.93289100  1
  O  O4  1  0.73205200  0.73205200  0.03264100  1
  O  O5  1  0.73055300  0.73056300  0.28256200  1
  O  O6  1  0.73031600  0.73030000  0.53213800  1
  O  O7  1  0.73053700  0.73055500  0.78254900  1
  O  O8  1  0.73049700  0.12864600  0.18295200  1
  O  O9  1  0.73042100  0.12701600  0.43226900  1
  O  O10  1  0.73087500  0.12903700  0.68294800  1
  O  O11  1  0.73234600  0.13042700  0.93281700  1
  F  F0  1  0.26320500  0.87423100  0.06578900  1
  F  F1  1  0.26292100  0.87323900  0.31575600  1
  F  F2  1  0.26107400  0.87096300  0.56524300  1
  F  F3  1  0.26285200  0.87305900  0.81580400  1
  F  F4  1  0.26290000  0.26314300  0.21908000  1
  F  F5  1  0.26165100  0.26167700  0.46683600  1
  F  F6  1  0.26293500  0.26290600  0.71911500  1
  F  F7  1  0.26239800  0.26244200  0.96671600  1
  F  F8  1  0.87422000  0.26329400  0.06593800  1
  F  F9  1  0.87322000  0.26296100  0.31576500  1
  F  F10  1  0.87090900  0.26113800  0.56525500  1
  F  F11  1  0.87360500  0.26336900  0.81575300  1
loop_
_geom_bond_atom_site_label_1
_geom_bond_atom_site_label_2
_geom_bond_distance
_geom_bond_site_symmetry_2
H0 O4 0.998821 1_555
H1 O5 0.998872 1_555
H2 O6 0.998616 1_555
H3 O7 0.999058 1_555
H4 O0 0.998710 1_555
H5 O1 0.998677 1_555
H6 O2 0.998575 1_555
H7 O3 0.998979 1_555
H8 O4 0.998757 1_555
H9 O5 0.998853 1_555
H10 O6 0.998603 1_555
H11 O7 0.999204 1_555
H12 O8 0.998545 1_555
H13 O9 0.999240 1_555
H14 O10 0.998738 1_555
H15 O11 0.998870 1_555
H16 O0 0.998689 1_555
H17 O1 0.999040 1_555
H18 O2 0.998988 1_555
H19 O3 0.999244 1_555
H20 O8 0.998848 1_555
H21 O9 0.999421 1_555
H22 O10 0.999114 1_555
H23 O11 0.998805 1_555
O0 V3 2.040277 1_565
O1 V0 2.036950 1_565
O2 V1 2.040667 1_565
O3 V2 2.037855 1_566
O4 V2 2.039570 1_665
O5 V3 2.039330 1_665
O6 V0 2.040563 1_665
O7 V1 2.039399 1_665
O8 V3 2.040103 1_655
O9 V0 2.037272 1_655
O10 V1 2.040412 1_655
O11 V2 2.038332 1_656
F0 H0 1.602576 1_555
F0 H16 1.605482 1_555
F0 V2 1.978615 1_565
F1 H17 1.593007 1_555
F1 H1 1.597931 1_555
F1 V3 1.978398 1_565
F2 H2 1.601962 1_555
F2 H18 1.605959 1_555
F2 V0 1.978887 1_565
F3 H19 1.594403 1_555
F3 H3 1.597975 1_555
F3 V1 1.978327 1_565
F4 H4 1.601951 1_555
F4 H12 1.603263 1_555
F4 V3 1.976581 1_555
F5 H13 1.598710 1_555
F5 H5 1.599306 1_555
F5 V0 1.981456 1_555
F6 H14 1.604092 1_555
F6 H6 1.604320 1_555
F6 V1 1.975575 1_555
F7 H15 1.596880 1_555
F7 H7 1.597270 1_555
F7 V2 1.980668 1_556
F8 H20 1.602547 1_555
F8 H8 1.603381 1_555
F8 V2 1.979266 1_655
F9 H21 1.592470 1_555
F9 H9 1.598169 1_555
F9 V3 1.977789 1_655
F10 H10 1.601917 1_555
F10 H22 1.605656 1_555
F10 V0 1.978960 1_655
F11 H11 1.596478 1_555
F11 H23 1.596878 1_555
F11 V1 1.977776 1_655
