# generated using pymatgen
data_Ag32Te20As3
_symmetry_space_group_name_H-M   'P 1'
_cell_length_a   13.98586938
_cell_length_b   13.98586938
_cell_length_c   8.58322000
_cell_angle_alpha   90.00000000
_cell_angle_beta   90.00000000
_cell_angle_gamma   119.99999707
_symmetry_Int_Tables_number   1
_chemical_formula_structural   Ag32Te20As3
_chemical_formula_sum   'Ag32 Te20 As3'
_cell_volume   1453.98465988
_cell_formula_units_Z   1
loop_
 _symmetry_equiv_pos_site_id
 _symmetry_equiv_pos_as_xyz
  1  'x, y, z'
loop_
 _atom_site_type_symbol
 _atom_site_label
 _atom_site_symmetry_multiplicity
 _atom_site_fract_x
 _atom_site_fract_y
 _atom_site_fract_z
 _atom_site_occupancy
  Ag  Ag0  1  0.87863700  0.12136300  0.00000000  1
  Ag  Ag1  1  0.87863700  0.75727400  0.00000000  1
  Ag  Ag2  1  0.24272600  0.12136300  0.00000000  1
  Ag  Ag3  1  0.12136300  0.87863700  0.00000000  1
  Ag  Ag4  1  0.75727400  0.87863700  0.00000000  1
  Ag  Ag5  1  0.12136300  0.24272600  0.00000000  1
  Ag  Ag6  1  0.53917800  0.66523400  0.50000000  1
  Ag  Ag7  1  0.33476600  0.87394400  0.50000000  1
  Ag  Ag8  1  0.12605600  0.46082200  0.50000000  1
  Ag  Ag9  1  0.66523400  0.53917800  0.50000000  1
  Ag  Ag10  1  0.87394400  0.33476600  0.50000000  1
  Ag  Ag11  1  0.46082200  0.12605600  0.50000000  1
  Ag  Ag12  1  0.46082200  0.33476600  0.50000000  1
  Ag  Ag13  1  0.66523400  0.12605600  0.50000000  1
  Ag  Ag14  1  0.87394400  0.53917800  0.50000000  1
  Ag  Ag15  1  0.33476600  0.46082200  0.50000000  1
  Ag  Ag16  1  0.12605600  0.66523400  0.50000000  1
  Ag  Ag17  1  0.53917800  0.87394400  0.50000000  1
  Ag  Ag18  1  0.76128400  0.23871600  0.80107600  1
  Ag  Ag19  1  0.76128400  0.52256800  0.80107600  1
  Ag  Ag20  1  0.47743200  0.23871600  0.80107600  1
  Ag  Ag21  1  0.23871600  0.76128400  0.80107600  1
  Ag  Ag22  1  0.52256800  0.76128400  0.80107600  1
  Ag  Ag23  1  0.23871600  0.47743200  0.80107600  1
  Ag  Ag24  1  0.23871600  0.76128400  0.19892400  1
  Ag  Ag25  1  0.23871600  0.47743200  0.19892400  1
  Ag  Ag26  1  0.52256800  0.76128400  0.19892400  1
  Ag  Ag27  1  0.76128400  0.23871600  0.19892400  1
  Ag  Ag28  1  0.47743200  0.23871600  0.19892400  1
  Ag  Ag29  1  0.76128400  0.52256800  0.19892400  1
  Ag  Ag30  1  0.00000000  0.00000000  0.84316000  1
  Ag  Ag31  1  0.00000000  0.00000000  0.15684000  1
  Te  Te0  1  0.66666700  0.33333300  0.00000000  1
  Te  Te1  1  0.33333300  0.66666700  0.00000000  1
  Te  Te2  1  0.80369600  0.80369600  0.50000000  1
  Te  Te3  1  0.19630400  0.00000000  0.50000000  1
  Te  Te4  1  0.00000000  0.19630400  0.50000000  1
  Te  Te5  1  0.19630400  0.19630400  0.50000000  1
  Te  Te6  1  0.80369600  0.00000000  0.50000000  1
  Te  Te7  1  0.00000000  0.80369600  0.50000000  1
  Te  Te8  1  0.65103100  0.65103100  0.78650400  1
  Te  Te9  1  0.34896900  0.00000000  0.78650400  1
  Te  Te10  1  0.00000000  0.34896900  0.78650400  1
  Te  Te11  1  0.34896900  0.34896900  0.78650400  1
  Te  Te12  1  0.65103100  0.00000000  0.78650400  1
  Te  Te13  1  0.00000000  0.65103100  0.78650400  1
  Te  Te14  1  0.34896900  0.34896900  0.21349600  1
  Te  Te15  1  0.65103100  0.00000000  0.21349600  1
  Te  Te16  1  0.00000000  0.65103100  0.21349600  1
  Te  Te17  1  0.65103100  0.65103100  0.21349600  1
  Te  Te18  1  0.34896900  0.00000000  0.21349600  1
  Te  Te19  1  0.00000000  0.34896900  0.21349600  1
  As  As0  1  0.50000000  0.50000000  0.00000000  1
  As  As1  1  0.50000000  0.00000000  0.00000000  1
  As  As2  1  0.00000000  0.50000000  0.00000000  1
loop_
_geom_bond_atom_site_label_1
_geom_bond_atom_site_label_2
_geom_bond_distance
_geom_bond_site_symmetry_2
Ag0 Ag4 2.939926 1_545
Ag0 Ag5 2.939926 1_655
Ag0 Ag30 3.233481 1_654
Ag0 Ag31 3.233481 1_655
Ag0 Te19 3.311959 1_655
Ag0 Te10 3.311959 1_654
Ag0 Te12 3.311959 1_554
Ag0 Te15 3.311959 1_555
Ag0 Ag27 3.316124 1_555
Ag0 Ag18 3.316124 1_554
Ag1 Ag4 2.939926 1_555
Ag1 Ag3 2.939926 1_655
Ag1 Ag31 3.233481 1_665
Ag1 Ag30 3.233481 1_664
Ag1 Te16 3.311958 1_655
Ag1 Te13 3.311958 1_654
Ag1 Te8 3.311959 1_554
Ag1 Te17 3.311959 1_555
Ag1 Ag29 3.316124 1_555
Ag1 Ag19 3.316124 1_554
Ag2 Ag5 2.939926 1_555
Ag2 Ag3 2.939926 1_545
Ag2 Ag30 3.233481 1_554
Ag2 Ag31 3.233481 1_555
Ag2 Te18 3.311958 1_555
Ag2 Te9 3.311958 1_554
Ag2 Te11 3.311959 1_554
Ag2 Te14 3.311959 1_555
Ag2 Ag20 3.316124 1_554
Ag2 Ag28 3.316124 1_555
Ag3 Ag31 3.233481 1_565
Ag3 Ag30 3.233481 1_564
Ag3 Te16 3.311959 1_555
Ag3 Te9 3.311959 1_564
Ag3 Te18 3.311959 1_565
Ag3 Te13 3.311959 1_554
Ag4 Te15 3.311958 1_565
Ag4 Te12 3.311958 1_564
Ag4 Te8 3.311959 1_554
Ag4 Te17 3.311959 1_555
Ag5 Te19 3.311958 1_555
Ag5 Te10 3.311958 1_554
Ag5 Te11 3.311959 1_554
Ag5 Te14 3.311959 1_555
Ag6 Te8 2.974010 1_555
Ag6 Te17 2.974010 1_555
Ag6 Ag9 3.053610 1_555
Ag6 Te2 3.205048 1_555
Ag7 Te18 2.974010 1_565
Ag7 Te9 2.974010 1_565
Ag7 Te3 3.205048 1_565
Ag8 Te19 2.974010 1_555
Ag8 Te10 2.974010 1_555
Ag8 Te4 3.205048 1_555
Ag9 Te8 2.974010 1_555
Ag9 Te17 2.974010 1_555
Ag9 Te2 3.205048 1_555
Ag10 Ag14 2.858880 1_555
Ag10 Ag13 2.918991 1_555
Ag10 Te19 2.974010 1_655
Ag10 Te10 2.974010 1_655
Ag10 Ag18 2.974676 1_555
Ag10 Ag27 2.974676 1_555
Ag10 Ag8 3.053610 1_655
Ag10 Te4 3.205048 1_655
Ag11 Ag13 2.858880 1_555
Ag11 Ag12 2.918991 1_555
Ag11 Te18 2.974010 1_555
Ag11 Te9 2.974010 1_555
Ag11 Ag28 2.974676 1_555
Ag11 Ag20 2.974676 1_555
Ag11 Ag7 3.053610 1_545
Ag11 Te3 3.205048 1_555
Ag12 Ag9 2.858880 1_555
Ag12 Te11 2.974010 1_555
Ag12 Te14 2.974010 1_555
Ag12 Ag28 2.974676 1_555
Ag12 Ag20 2.974676 1_555
Ag12 Ag15 3.053610 1_555
Ag12 Te5 3.205048 1_555
Ag13 Te12 2.974010 1_555
Ag13 Te15 2.974010 1_555
Ag13 Ag18 2.974676 1_555
Ag13 Ag27 2.974676 1_555
Ag13 Ag17 3.053610 1_545
Ag13 Te6 3.205048 1_555
Ag14 Ag9 2.918991 1_555
Ag14 Te13 2.974010 1_655
Ag14 Te16 2.974010 1_655
Ag14 Ag29 2.974676 1_555
Ag14 Ag19 2.974676 1_555
Ag14 Ag16 3.053610 1_655
Ag14 Te7 3.205048 1_655
Ag15 Ag6 2.858880 1_555
Ag15 Ag8 2.918991 1_555
Ag15 Te11 2.974010 1_555
Ag15 Te14 2.974010 1_555
Ag15 Ag25 2.974676 1_555
Ag15 Ag23 2.974676 1_555
Ag15 Te5 3.205048 1_555
Ag16 Ag8 2.858880 1_555
Ag16 Ag7 2.918991 1_555
Ag16 Te16 2.974010 1_555
Ag16 Te13 2.974010 1_555
Ag16 Ag21 2.974676 1_555
Ag16 Ag24 2.974676 1_555
Ag16 Te7 3.205048 1_555
Ag17 Ag7 2.858880 1_555
Ag17 Ag6 2.918991 1_555
Ag17 Te15 2.974010 1_565
Ag17 Te12 2.974010 1_565
Ag17 Ag22 2.974676 1_555
Ag17 Ag26 2.974676 1_555
Ag17 Te6 3.205048 1_565
Ag18 Te0 2.858080 1_556
Ag18 Te12 2.896861 1_555
Ag18 Te10 2.896861 1_655
Ag19 Te0 2.858090 1_556
Ag19 Te8 2.896861 1_555
Ag19 Te13 2.896861 1_655
Ag19 Ag9 2.974676 1_555
Ag20 Te0 2.858090 1_556
Ag20 Te11 2.896861 1_555
Ag20 Te9 2.896861 1_555
Ag21 Te1 2.858080 1_556
Ag21 Te13 2.896861 1_555
Ag21 Te9 2.896861 1_565
Ag21 Ag7 2.974676 1_555
Ag21 Ag3 3.316124 1_556
Ag22 Te1 2.858090 1_556
Ag22 Te8 2.896861 1_555
Ag22 Te12 2.896861 1_565
Ag22 Ag6 2.974676 1_555
Ag22 Ag4 3.316124 1_556
Ag23 Te1 2.858090 1_556
Ag23 Te11 2.896861 1_555
Ag23 Te10 2.896861 1_555
Ag23 Ag8 2.974676 1_555
Ag23 Ag5 3.316124 1_556
Ag24 Te1 2.858080 1_555
Ag24 Te16 2.896861 1_555
Ag24 Te18 2.896861 1_565
Ag24 Ag7 2.974676 1_555
Ag24 Ag3 3.316124 1_555
Ag25 Te1 2.858090 1_555
Ag25 Te14 2.896861 1_555
Ag25 Te19 2.896861 1_555
Ag25 Ag8 2.974676 1_555
Ag25 Ag5 3.316124 1_555
Ag26 Te1 2.858090 1_555
Ag26 Te17 2.896861 1_555
Ag26 Te15 2.896861 1_565
Ag26 Ag6 2.974676 1_555
Ag26 Ag4 3.316124 1_555
Ag27 Te0 2.858080 1_555
Ag27 Te15 2.896861 1_555
Ag27 Te19 2.896861 1_655
Ag28 Te0 2.858090 1_555
Ag28 Te14 2.896861 1_555
Ag28 Te18 2.896861 1_555
Ag29 Te0 2.858090 1_555
Ag29 Te17 2.896861 1_555
Ag29 Te16 2.896861 1_655
Ag29 Ag9 2.974676 1_555
Ag30 Ag31 2.692384 1_556
Ag30 Ag4 3.233481 1_446
Ag30 Ag5 3.233481 1_556
Ag31 Ag4 3.233481 1_445
Ag31 Ag5 3.233481 1_555
Te2 Te7 2.745482 1_655
Te2 Te6 2.745482 1_565
Te2 Te8 3.256713 1_555
Te3 Te5 2.745482 1_555
Te3 Te7 2.745482 1_545
Te3 Te9 3.256713 1_555
Te4 Te5 2.745482 1_555
Te4 Te6 2.745482 1_455
Te10 Te4 3.256713 1_555
Te11 Te5 3.256713 1_555
Te12 Te6 3.256713 1_555
Te13 Te7 3.256713 1_555
Te14 Te5 3.256713 1_555
Te15 Te6 3.256713 1_555
Te16 Te7 3.256713 1_555
Te17 Te2 3.256713 1_555
Te18 Te3 3.256713 1_555
Te19 Te4 3.256713 1_555
As0 Te14 2.796392 1_555
As0 Te11 2.796392 1_554
As0 Te17 2.796392 1_555
As0 Te8 2.796392 1_554
As1 Te15 2.796391 1_555
As1 Te18 2.796391 1_555
As1 Te12 2.796391 1_554
As1 Te9 2.796391 1_554
As2 Te19 2.796391 1_555
As2 Te16 2.796391 1_555
As2 Te10 2.796391 1_554
As2 Te13 2.796391 1_554
