# generated using pymatgen
data_ZnW5O7
_symmetry_space_group_name_H-M   'P 1'
_cell_length_a   5.79147534
_cell_length_b   5.79147534
_cell_length_c   19.44508200
_cell_angle_alpha   90.00000000
_cell_angle_beta   90.00000000
_cell_angle_gamma   147.15201379
_symmetry_Int_Tables_number   1
_chemical_formula_structural   ZnW5O7
_chemical_formula_sum   'Zn2 W10 O14'
_cell_volume   353.76714678
_cell_formula_units_Z   2
loop_
 _symmetry_equiv_pos_site_id
 _symmetry_equiv_pos_as_xyz
  1  'x, y, z'
loop_
 _atom_site_type_symbol
 _atom_site_label
 _atom_site_symmetry_multiplicity
 _atom_site_fract_x
 _atom_site_fract_y
 _atom_site_fract_z
 _atom_site_occupancy
  Zn  Zn0  1  0.16379400  0.83620600  0.75000000  1
  Zn  Zn1  1  0.83620600  0.16379400  0.25000000  1
  W  W0  1  0.73003600  0.26996400  0.58196200  1
  W  W1  1  0.52640500  0.47359500  0.15174100  1
  W  W2  1  0.00000000  0.00000000  0.50000000  1
  W  W3  1  0.00000000  0.00000000  0.00000000  1
  W  W4  1  0.47359500  0.52640500  0.84825900  1
  W  W5  1  0.26996400  0.73003600  0.41803800  1
  W  W6  1  0.26996400  0.73003600  0.08196200  1
  W  W7  1  0.73003600  0.26996400  0.91803800  1
  W  W8  1  0.47359500  0.52640500  0.65174100  1
  W  W9  1  0.52640500  0.47359500  0.34825900  1
  O  O0  1  0.33906800  0.66093200  0.96206300  1
  O  O1  1  0.66093200  0.33906800  0.03793700  1
  O  O2  1  0.66093200  0.33906800  0.46206300  1
  O  O3  1  0.33906800  0.66093200  0.53793700  1
  O  O4  1  0.85482700  0.14517300  0.83559500  1
  O  O5  1  0.14517300  0.85482700  0.16440500  1
  O  O6  1  0.14517300  0.85482700  0.33559500  1
  O  O7  1  0.85482700  0.14517300  0.66440500  1
  O  O8  1  0.12709100  0.87290900  0.86001700  1
  O  O9  1  0.87290900  0.12709100  0.13998300  1
  O  O10  1  0.87290900  0.12709100  0.36001700  1
  O  O11  1  0.12709100  0.87290900  0.63998300  1
  O  O12  1  0.55394800  0.44605200  0.75000000  1
  O  O13  1  0.44605200  0.55394800  0.25000000  1
loop_
_geom_bond_atom_site_label_1
_geom_bond_atom_site_label_2
_geom_bond_distance
_geom_bond_site_symmetry_2
O0 W7 2.209458 1_565
O0 W7 2.209458 1_455
O0 W6 2.454609 1_556
O0 W3 2.534276 1_556
O0 W3 2.534276 1_666
O0 W4 2.670392 1_555
O1 W6 2.209458 1_655
O1 W6 2.209458 1_545
O1 W7 2.454609 1_554
O1 W3 2.534276 1_555
O1 W3 2.534276 1_665
O1 W1 2.670392 1_555
O2 W5 2.209458 1_655
O2 W5 2.209458 1_545
O2 W0 2.454609 1_555
O2 W2 2.534276 1_555
O2 W2 2.534276 1_665
O2 W9 2.670392 1_555
O3 W0 2.209458 1_565
O3 W0 2.209458 1_455
O3 W5 2.454609 1_555
O3 W2 2.534276 1_555
O3 W2 2.534276 1_665
O3 W8 2.670392 1_555
O4 W4 2.117371 1_655
O4 W4 2.117371 1_545
O4 W7 2.119494 1_555
O5 W1 2.117371 1_455
O5 W1 2.117371 1_565
O5 W6 2.119494 1_555
O6 W9 2.117371 1_565
O6 W9 2.117371 1_455
O6 W5 2.119494 1_555
O7 W8 2.117371 1_655
O7 W8 2.117371 1_545
O7 W0 2.119494 1_555
O8 Zn0 2.177808 1_555
O8 W7 2.294005 1_455
O8 W7 2.294005 1_565
O8 W4 2.375296 1_455
O8 W4 2.375296 1_565
O9 Zn1 2.177808 1_555
O9 W6 2.294005 1_545
O9 W6 2.294005 1_655
O9 W1 2.375296 1_545
O9 W1 2.375296 1_655
O10 Zn1 2.177808 1_555
O10 W5 2.294005 1_545
O10 W5 2.294005 1_655
O10 W9 2.375296 1_545
O10 W9 2.375296 1_655
O11 Zn0 2.177808 1_555
O11 W0 2.294005 1_455
O11 W0 2.294005 1_565
O11 W8 2.375296 1_455
O11 W8 2.375296 1_565
O12 Zn0 2.042264 1_545
O12 Zn0 2.042264 1_655
O12 W4 2.108933 1_555
O12 W8 2.108933 1_555
O13 Zn1 2.042264 1_565
O13 Zn1 2.042264 1_455
O13 W9 2.108933 1_555
O13 W1 2.108933 1_555
