# generated using pymatgen
data_LaMg14Co
_symmetry_space_group_name_H-M   'P 1'
_cell_length_a   6.57995019
_cell_length_b   6.05440708
_cell_length_c   10.34726947
_cell_angle_alpha   90.00000000
_cell_angle_beta   90.00000000
_cell_angle_gamma   117.39129522
_symmetry_Int_Tables_number   1
_chemical_formula_structural   LaMg14Co
_chemical_formula_sum   'La1 Mg14 Co1'
_cell_volume   365.99642702
_cell_formula_units_Z   1
loop_
 _symmetry_equiv_pos_site_id
 _symmetry_equiv_pos_as_xyz
  1  'x, y, z'
loop_
 _atom_site_type_symbol
 _atom_site_label
 _atom_site_symmetry_multiplicity
 _atom_site_fract_x
 _atom_site_fract_y
 _atom_site_fract_z
 _atom_site_occupancy
  La  La0  1  0.12562684  0.81281292  0.12500000  1
  Mg  Mg0  1  0.15501777  0.32750838  0.62500000  1
  Mg  Mg1  1  0.16616496  0.83308198  0.62500000  1
  Mg  Mg2  1  0.61658763  0.31936414  0.12500000  1
  Mg  Mg3  1  0.65992455  0.32743113  0.62500000  1
  Mg  Mg4  1  0.61658763  0.79722248  0.12500000  1
  Mg  Mg5  1  0.65992455  0.83249242  0.62500000  1
  Mg  Mg6  1  0.34585973  0.17769781  0.37717282  1
  Mg  Mg7  1  0.34585973  0.17769781  0.87282718  1
  Mg  Mg8  1  0.34585973  0.66816292  0.37717282  1
  Mg  Mg9  1  0.34585973  0.66816292  0.87282718  1
  Mg  Mg10  1  0.87664142  0.18832121  0.33814053  1
  Mg  Mg11  1  0.87664142  0.18832121  0.91185947  1
  Mg  Mg12  1  0.83328368  0.66664234  0.39209968  1
  Mg  Mg13  1  0.83328368  0.66664234  0.85790032  1
  Co  Co0  1  0.19687697  0.34843798  0.12500000  1
loop_
_geom_bond_atom_site_label_1
_geom_bond_atom_site_label_2
_geom_bond_distance
_geom_bond_site_symmetry_2
La0 Mg13 3.248905 1_454
La0 Mg12 3.248905 1_455
La0 Mg2 3.274996 1_565
La0 Mg4 3.274996 1_555
La0 Mg9 3.292887 1_554
La0 Mg8 3.292887 1_555
La0 Mg7 3.292893 1_564
La0 Mg6 3.292893 1_565
La0 Mg2 3.307089 1_455
La0 Mg4 3.307089 1_455
Mg0 Mg1 3.027904 1_545
Mg0 Mg1 3.027904 1_555
Mg0 Mg6 3.165966 1_555
Mg0 Mg7 3.165966 1_555
Mg0 Mg8 3.165972 1_555
Mg0 Mg9 3.165972 1_555
Mg0 Mg5 3.257473 1_445
Mg0 Mg3 3.257474 1_455
Mg0 Mg5 3.322476 1_555
Mg0 Mg3 3.322477 1_555
Mg0 Mg10 3.384564 1_455
Mg0 Mg11 3.384564 1_455
Mg1 Mg12 3.096720 1_455
Mg1 Mg13 3.096720 1_455
Mg1 Mg8 3.171296 1_555
Mg1 Mg9 3.171296 1_555
Mg1 Mg6 3.171302 1_565
Mg1 Mg7 3.171302 1_565
Mg1 Mg3 3.250557 1_565
Mg1 Mg5 3.250557 1_555
Mg1 Mg3 3.329396 1_455
Mg1 Mg5 3.329396 1_455
Mg2 Mg7 3.051482 1_554
Mg2 Mg6 3.051482 1_555
Mg3 Mg5 2.996560 1_545
Mg3 Mg5 3.057847 1_555
Mg3 Mg6 3.153476 1_555
Mg3 Mg7 3.153476 1_555
Mg4 Mg9 3.051482 1_554
Mg4 Mg8 3.051482 1_555
Mg5 Mg8 3.153476 1_555
Mg5 Mg9 3.153476 1_555
Mg6 Mg8 2.969475 1_555
Mg6 Mg8 3.084932 1_545
Mg7 Mg9 2.969475 1_555
Mg7 Mg9 3.084932 1_545
Mg10 Mg12 3.088666 1_545
Mg10 Mg12 3.088666 1_555
Mg10 Mg8 3.143599 1_655
Mg10 Mg6 3.143599 1_655
Mg10 Mg8 3.486866 1_545
Mg10 Mg6 3.486866 1_555
Mg11 Mg13 3.088666 1_545
Mg11 Mg13 3.088666 1_555
Mg11 Mg9 3.143599 1_655
Mg11 Mg7 3.143599 1_655
Mg11 Mg9 3.486866 1_545
Mg11 Mg7 3.486866 1_555
Mg12 Mg5 3.028349 1_555
Mg12 Mg3 3.028355 1_555
Mg12 Mg6 3.215183 1_555
Mg12 Mg8 3.215183 1_555
Mg12 Mg4 3.366544 1_555
Mg12 Mg2 3.366549 1_555
Mg12 Mg6 3.372038 1_665
Mg12 Mg8 3.372038 1_655
Mg13 Mg5 3.028349 1_555
Mg13 Mg3 3.028355 1_555
Mg13 Mg7 3.215183 1_555
Mg13 Mg9 3.215183 1_555
Mg13 Mg4 3.366544 1_556
Mg13 Mg2 3.366549 1_556
Mg13 Mg7 3.372038 1_665
Mg13 Mg9 3.372038 1_655
Co0 Mg4 2.846951 1_555
Co0 Mg2 2.846951 1_555
Co0 Mg10 2.892081 1_455
Co0 Mg11 2.892081 1_454
Co0 La0 3.055689 1_545
Co0 La0 3.055689 1_555
Co0 Mg7 3.125773 1_554
Co0 Mg6 3.125773 1_555
Co0 Mg9 3.125779 1_554
Co0 Mg8 3.125779 1_555
