# generated using pymatgen
data_Sn2(PCl8)3
_symmetry_space_group_name_H-M   'P 1'
_cell_length_a   14.74336620
_cell_length_b   15.67009406
_cell_length_c   15.67009406
_cell_angle_alpha   90.00000000
_cell_angle_beta   90.00000000
_cell_angle_gamma   90.00000000
_symmetry_Int_Tables_number   1
_chemical_formula_structural   Sn2(PCl8)3
_chemical_formula_sum   'Sn8 P12 Cl96'
_cell_volume   3620.26081393
_cell_formula_units_Z   4
loop_
 _symmetry_equiv_pos_site_id
 _symmetry_equiv_pos_as_xyz
  1  'x, y, z'
loop_
 _atom_site_type_symbol
 _atom_site_label
 _atom_site_symmetry_multiplicity
 _atom_site_fract_x
 _atom_site_fract_y
 _atom_site_fract_z
 _atom_site_occupancy
  Sn  Sn0  1  0.00000000  0.12518133  0.25738399  1
  Sn  Sn1  1  -0.00000000  0.87481867  0.74261601  1
  Sn  Sn2  1  0.50000000  0.74261601  0.12518133  1
  Sn  Sn3  1  0.00000000  0.37481867  0.75738399  1
  Sn  Sn4  1  0.50000000  0.25738399  0.87481867  1
  Sn  Sn5  1  -0.00000000  0.62518133  0.24261601  1
  Sn  Sn6  1  0.50000000  0.75738399  0.62518133  1
  Sn  Sn7  1  0.50000000  0.24261601  0.37481867  1
  P  P0  1  0.25000000  -0.00000000  0.00000000  1
  P  P1  1  0.75000000  -0.00000000  0.00000000  1
  P  P2  1  0.75000000  0.50000000  0.50000000  1
  P  P3  1  0.25000000  0.50000000  0.50000000  1
  P  P4  1  0.25000000  0.12699511  0.62699511  1
  P  P5  1  0.75000000  0.87300489  0.37300489  1
  P  P6  1  0.25000000  0.87300489  0.37300489  1
  P  P7  1  0.75000000  0.37300489  0.12699511  1
  P  P8  1  0.75000000  0.12699511  0.62699511  1
  P  P9  1  0.25000000  0.62699511  0.87300489  1
  P  P10  1  0.75000000  0.62699511  0.87300489  1
  P  P11  1  0.25000000  0.37300489  0.12699511  1
  Cl  Cl0  1  0.00000000  0.21930746  0.13011205  1
  Cl  Cl1  1  -0.00000000  0.78069254  0.86988795  1
  Cl  Cl2  1  0.50000000  0.86988795  0.21930746  1
  Cl  Cl3  1  -0.00000000  0.28069254  0.63011205  1
  Cl  Cl4  1  0.50000000  0.13011205  0.78069254  1
  Cl  Cl5  1  0.00000000  0.71930746  0.36988795  1
  Cl  Cl6  1  0.50000000  0.63011205  0.71930746  1
  Cl  Cl7  1  0.50000000  0.36988795  0.28069254  1
  Cl  Cl8  1  0.17427471  0.37265611  0.02447291  1
  Cl  Cl9  1  0.82572529  0.62734389  0.97552709  1
  Cl  Cl10  1  0.17427471  0.62734389  0.97552709  1
  Cl  Cl11  1  0.67427471  0.97552709  0.37265611  1
  Cl  Cl12  1  0.82572529  0.12734389  0.52447291  1
  Cl  Cl13  1  0.82572529  0.37265611  0.02447291  1
  Cl  Cl14  1  0.32572529  0.02447291  0.62734389  1
  Cl  Cl15  1  0.17427471  0.87265611  0.47552709  1
  Cl  Cl16  1  0.67427471  0.02447291  0.62734389  1
  Cl  Cl17  1  0.82572529  0.87265611  0.47552709  1
  Cl  Cl18  1  0.32572529  0.97552709  0.37265611  1
  Cl  Cl19  1  0.17427471  0.12734389  0.52447291  1
  Cl  Cl20  1  0.32572529  0.52447291  0.87265611  1
  Cl  Cl21  1  0.67427471  0.47552709  0.12734389  1
  Cl  Cl22  1  0.32572529  0.47552709  0.12734389  1
  Cl  Cl23  1  0.67427471  0.52447291  0.87265611  1
  Cl  Cl24  1  0.32777474  0.00635730  0.10081671  1
  Cl  Cl25  1  0.67222526  0.99364270  0.89918329  1
  Cl  Cl26  1  0.32777474  0.99364270  0.89918329  1
  Cl  Cl27  1  0.82777474  0.89918329  0.00635730  1
  Cl  Cl28  1  0.67222526  0.49364270  0.60081671  1
  Cl  Cl29  1  0.67222526  0.00635730  0.10081671  1
  Cl  Cl30  1  0.17222526  0.10081671  0.99364270  1
  Cl  Cl31  1  0.32777474  0.50635730  0.39918329  1
  Cl  Cl32  1  0.82777474  0.10081671  0.99364270  1
  Cl  Cl33  1  0.67222526  0.50635730  0.39918329  1
  Cl  Cl34  1  0.17222526  0.89918329  0.00635730  1
  Cl  Cl35  1  0.32777474  0.49364270  0.60081671  1
  Cl  Cl36  1  0.17222526  0.60081671  0.50635730  1
  Cl  Cl37  1  0.82777474  0.39918329  0.49364270  1
  Cl  Cl38  1  0.17222526  0.39918329  0.49364270  1
  Cl  Cl39  1  0.82777474  0.60081671  0.50635730  1
  Cl  Cl40  1  0.32849380  0.27242764  0.12742173  1
  Cl  Cl41  1  0.67150620  0.72757236  0.87257827  1
  Cl  Cl42  1  0.32849380  0.72757236  0.87257827  1
  Cl  Cl43  1  0.82849380  0.87257827  0.27242764  1
  Cl  Cl44  1  0.67150620  0.22757236  0.62742173  1
  Cl  Cl45  1  0.67150620  0.27242764  0.12742173  1
  Cl  Cl46  1  0.17150620  0.12742173  0.72757236  1
  Cl  Cl47  1  0.32849380  0.77242764  0.37257827  1
  Cl  Cl48  1  0.82849380  0.12742173  0.72757236  1
  Cl  Cl49  1  0.67150620  0.77242764  0.37257827  1
  Cl  Cl50  1  0.17150620  0.87257827  0.27242764  1
  Cl  Cl51  1  0.32849380  0.22757236  0.62742173  1
  Cl  Cl52  1  0.17150620  0.62742173  0.77242764  1
  Cl  Cl53  1  0.82849380  0.37257827  0.22757236  1
  Cl  Cl54  1  0.17150620  0.37257827  0.22757236  1
  Cl  Cl55  1  0.82849380  0.62742173  0.77242764  1
  Cl  Cl56  1  0.00000000  0.99899219  0.16127128  1
  Cl  Cl57  1  -0.00000000  0.00100781  0.83872872  1
  Cl  Cl58  1  0.50000000  0.83872872  0.99899219  1
  Cl  Cl59  1  -0.00000000  0.50100781  0.66127128  1
  Cl  Cl60  1  0.50000000  0.16127128  0.00100781  1
  Cl  Cl61  1  0.00000000  0.49899219  0.33872872  1
  Cl  Cl62  1  0.50000000  0.66127128  0.49899219  1
  Cl  Cl63  1  0.50000000  0.33872872  0.50100781  1
  Cl  Cl64  1  -0.00000000  0.03059176  0.38377138  1
  Cl  Cl65  1  0.00000000  0.96940824  0.61622862  1
  Cl  Cl66  1  0.50000000  0.61622862  0.03059176  1
  Cl  Cl67  1  0.00000000  0.46940824  0.88377138  1
  Cl  Cl68  1  0.50000000  0.38377138  0.96940824  1
  Cl  Cl69  1  -0.00000000  0.53059176  0.11622862  1
  Cl  Cl70  1  0.50000000  0.88377138  0.53059176  1
  Cl  Cl71  1  0.50000000  0.11622862  0.46940824  1
  Cl  Cl72  1  0.16662082  0.12475006  0.25698357  1
  Cl  Cl73  1  0.83337918  0.87524994  0.74301643  1
  Cl  Cl74  1  0.16662082  0.87524994  0.74301643  1
  Cl  Cl75  1  0.66662082  0.74301643  0.12475006  1
  Cl  Cl76  1  0.83337918  0.37524994  0.75698357  1
  Cl  Cl77  1  0.83337918  0.12475006  0.25698357  1
  Cl  Cl78  1  0.33337918  0.25698357  0.87524994  1
  Cl  Cl79  1  0.16662082  0.62475006  0.24301643  1
  Cl  Cl80  1  0.66662082  0.25698357  0.87524994  1
  Cl  Cl81  1  0.83337918  0.62475006  0.24301643  1
  Cl  Cl82  1  0.33337918  0.74301643  0.12475006  1
  Cl  Cl83  1  0.16662082  0.37524994  0.75698357  1
  Cl  Cl84  1  0.33337918  0.75698357  0.62475006  1
  Cl  Cl85  1  0.66662082  0.24301643  0.37524994  1
  Cl  Cl86  1  0.33337918  0.24301643  0.37524994  1
  Cl  Cl87  1  0.66662082  0.75698357  0.62475006  1
  Cl  Cl88  1  -0.00000000  0.25021070  0.35449467  1
  Cl  Cl89  1  0.00000000  0.74978930  0.64550533  1
  Cl  Cl90  1  0.50000000  0.64550533  0.25021070  1
  Cl  Cl91  1  0.00000000  0.24978930  0.85449467  1
  Cl  Cl92  1  0.50000000  0.35449467  0.74978930  1
  Cl  Cl93  1  -0.00000000  0.75021070  0.14550533  1
  Cl  Cl94  1  0.50000000  0.85449467  0.75021070  1
  Cl  Cl95  1  0.50000000  0.14550533  0.24978930  1
loop_
_geom_bond_atom_site_label_1
_geom_bond_atom_site_label_2
_geom_bond_distance
_geom_bond_site_symmetry_2
Cl0 Sn0 2.480526 1_555
Cl1 Sn1 2.480526 1_555
Cl2 Sn2 2.480526 1_555
Cl3 Sn3 2.480526 1_555
Cl4 Sn4 2.480526 1_555
Cl5 Sn5 2.480526 1_555
Cl6 Sn6 2.480526 1_555
Cl7 Sn7 2.480526 1_555
Cl8 P11 1.956381 1_555
Cl9 P10 1.956381 1_555
Cl10 P9 1.956381 1_555
Cl11 P5 1.956381 1_555
Cl12 P8 1.956381 1_555
Cl13 P7 1.956381 1_555
Cl14 P4 1.956381 1_555
Cl15 P6 1.956381 1_555
Cl16 P8 1.956381 1_555
Cl17 P5 1.956381 1_555
Cl18 P6 1.956381 1_555
Cl19 P4 1.956381 1_555
Cl20 P9 1.956381 1_555
Cl21 P7 1.956381 1_555
Cl22 P11 1.956381 1_555
Cl23 P10 1.956381 1_555
Cl24 P0 1.954622 1_555
Cl25 P1 1.954622 1_566
Cl26 P0 1.954622 1_566
Cl27 P1 1.954622 1_565
Cl28 P2 1.954622 1_555
Cl29 P1 1.954622 1_555
Cl30 P0 1.954622 1_556
Cl31 P3 1.954622 1_555
Cl32 P1 1.954622 1_556
Cl33 P2 1.954622 1_555
Cl34 P0 1.954622 1_565
Cl35 P3 1.954622 1_555
Cl36 P3 1.954622 1_555
Cl37 P2 1.954622 1_555
Cl38 P3 1.954622 1_555
Cl39 P2 1.954622 1_555
Cl40 P11 1.955314 1_555
Cl41 P10 1.955314 1_555
Cl42 P9 1.955314 1_555
Cl43 P5 1.955314 1_555
Cl44 P8 1.955314 1_555
Cl45 P7 1.955314 1_555
Cl46 P4 1.955314 1_555
Cl47 P6 1.955314 1_555
Cl48 P8 1.955314 1_555
Cl49 P5 1.955314 1_555
Cl50 P6 1.955314 1_555
Cl51 P4 1.955314 1_555
Cl52 P9 1.955314 1_555
Cl53 P7 1.955314 1_555
Cl54 P11 1.955314 1_555
Cl55 P10 1.955314 1_555
Cl56 Sn0 2.485642 1_565
Cl57 Sn1 2.485642 1_545
Cl58 Sn2 2.485642 1_556
Cl59 Sn3 2.485642 1_555
Cl60 Sn4 2.485642 1_554
Cl61 Sn5 2.485642 1_555
Cl62 Sn6 2.485642 1_555
Cl63 Sn7 2.485642 1_555
Cl64 Sn0 2.473740 1_555
Cl65 Sn1 2.473740 1_555
Cl66 Sn2 2.473740 1_555
Cl67 Sn3 2.473740 1_555
Cl68 Sn4 2.473740 1_555
Cl69 Sn5 2.473740 1_555
Cl70 Sn6 2.473740 1_555
Cl71 Sn7 2.473740 1_555
Cl72 Sn0 2.456569 1_555
Cl73 Sn1 2.456569 1_655
Cl74 Sn1 2.456569 1_555
Cl75 Sn2 2.456569 1_555
Cl76 Sn3 2.456569 1_655
Cl77 Sn0 2.456569 1_655
Cl78 Sn4 2.456569 1_555
Cl79 Sn5 2.456569 1_555
Cl80 Sn4 2.456569 1_555
Cl81 Sn5 2.456569 1_655
Cl82 Sn2 2.456569 1_555
Cl83 Sn3 2.456569 1_555
Cl84 Sn6 2.456569 1_555
Cl85 Sn7 2.456569 1_555
Cl86 Sn7 2.456569 1_555
Cl87 Sn6 2.456569 1_555
Cl88 Sn0 2.480771 1_555
Cl89 Sn1 2.480771 1_555
Cl90 Sn2 2.480771 1_555
Cl91 Sn3 2.480771 1_555
Cl92 Sn4 2.480771 1_555
Cl93 Sn5 2.480771 1_555
Cl94 Sn6 2.480771 1_555
Cl95 Sn7 2.480771 1_555
