# generated using pymatgen
data_La8Cu7O19
_symmetry_space_group_name_H-M   'P 1'
_cell_length_a   3.78543051
_cell_length_b   7.23219726
_cell_length_c   34.33104270
_cell_angle_alpha   87.14983903
_cell_angle_beta   86.80688254
_cell_angle_gamma   74.85468905
_symmetry_Int_Tables_number   1
_chemical_formula_structural   La8Cu7O19
_chemical_formula_sum   'La16 Cu14 O38'
_cell_volume   905.22287863
_cell_formula_units_Z   2
loop_
 _symmetry_equiv_pos_site_id
 _symmetry_equiv_pos_as_xyz
  1  'x, y, z'
loop_
 _atom_site_type_symbol
 _atom_site_label
 _atom_site_symmetry_multiplicity
 _atom_site_fract_x
 _atom_site_fract_y
 _atom_site_fract_z
 _atom_site_occupancy
  La  La0  1  0.46151200  0.94715000  0.18213800  1
  La  La1  1  0.34143600  0.07810000  0.28876000  1
  La  La2  1  0.53344400  0.05137500  0.81818300  1
  La  La3  1  0.66160900  0.92068200  0.71143300  1
  La  La4  1  0.40559200  0.44582100  0.68203800  1
  La  La5  1  0.70377600  0.42176400  0.21139200  1
  La  La6  1  0.75293100  0.79057100  0.60614500  1
  La  La7  1  0.58978000  0.55243800  0.31796300  1
  La  La8  1  0.84296700  0.29139500  0.10610000  1
  La  La9  1  0.56047700  0.31861000  0.57648600  1
  La  La10  1  0.45719400  0.18059400  0.92400200  1
  La  La11  1  0.24314400  0.20937900  0.39403300  1
  La  La12  1  0.29696600  0.57572000  0.78865200  1
  La  La13  1  0.54228000  0.81804500  0.07628700  1
  La  La14  1  0.43588100  0.68228400  0.42341400  1
  La  La15  1  0.15420700  0.70716400  0.89395600  1
  Cu  Cu0  1  0.76208400  0.99061600  0.46917300  1
  Cu  Cu1  1  0.02594300  0.74985100  0.25009400  1
  Cu  Cu2  1  0.77437000  0.49455700  0.96901800  1
  Cu  Cu3  1  0.22623700  0.50529300  0.03110800  1
  Cu  Cu4  1  0.13835100  0.61929400  0.14223000  1
  Cu  Cu5  1  0.23448400  0.00867700  0.53094700  1
  Cu  Cu6  1  0.77491800  0.15154500  0.02287700  1
  Cu  Cu7  1  0.85952300  0.37921600  0.85803100  1
  Cu  Cu8  1  0.97395500  0.24803200  0.75010300  1
  Cu  Cu9  1  0.94886000  0.34923600  0.47682300  1
  Cu  Cu10  1  0.04642000  0.65140600  0.52312000  1
  Cu  Cu11  1  0.90065500  0.88247200  0.35777500  1
  Cu  Cu12  1  0.09621400  0.11814300  0.64205300  1
  Cu  Cu13  1  0.22314600  0.84652100  0.97707800  1
  O  O0  1  0.67469200  0.71950800  0.83476300  1
  O  O1  1  0.64010400  0.61715800  0.14219600  1
  O  O2  1  0.08384000  0.67794600  0.19702800  1
  O  O3  1  0.67296600  0.34767900  0.43011000  1
  O  O4  1  0.40015800  0.88485500  0.35786100  1
  O  O5  1  0.79011100  0.59297200  0.73023800  1
  O  O6  1  0.81650000  0.44111800  0.91312700  1
  O  O7  1  0.44910400  0.15387600  0.06957100  1
  O  O8  1  0.76174300  0.44007800  0.02852900  1
  O  O9  1  0.22590500  0.06378300  0.47154300  1
  O  O10  1  0.21355500  0.40472400  0.26984600  1
  O  O11  1  0.76255600  0.22130800  0.33435900  1
  O  O12  1  0.23876900  0.55940400  0.97147000  1
  O  O13  1  0.18310700  0.55675600  0.08712600  1
  O  O14  1  0.76984100  0.93704800  0.52858400  1
  O  O15  1  0.52697200  0.74971200  0.25013200  1
  O  O16  1  0.32240400  0.65302300  0.56991600  1
  O  O17  1  0.07390400  0.36827000  0.53021600  1
  O  O18  1  0.59579200  0.11632500  0.64214600  1
  O  O19  1  0.97300600  0.12955400  0.96959000  1
  O  O20  1  0.16953200  0.05706500  0.58679900  1
  O  O21  1  0.92206400  0.63272900  0.46957500  1
  O  O22  1  0.82751500  0.94385100  0.41311800  1
  O  O23  1  0.47370300  0.24736000  0.75014300  1
  O  O24  1  0.02616100  0.86793500  0.03055400  1
  O  O25  1  0.88759200  0.46469500  0.62908700  1
  O  O26  1  0.32161400  0.27872300  0.16563900  1
  O  O27  1  0.10620100  0.53497700  0.37058700  1
  O  O28  1  0.54928300  0.84474700  0.93033600  1
  O  O29  1  0.91502600  0.31982700  0.80325400  1
  O  O30  1  0.35737200  0.38148500  0.85802500  1
  O  O31  1  0.23019800  0.77711600  0.66534100  1
  O  O32  1  0.11778800  0.90262300  0.76937100  1
  O  O33  1  0.98799900  0.03318600  0.87056500  1
  O  O34  1  0.88323300  0.09495800  0.23032700  1
  O  O35  1  0.00956800  0.96557200  0.12945000  1
  O  O36  1  0.03835600  0.17829200  0.69680000  1
  O  O37  1  0.96077700  0.82148900  0.30311200  1
loop_
_geom_bond_atom_site_label_1
_geom_bond_atom_site_label_2
_geom_bond_distance
_geom_bond_site_symmetry_2
La0 O26 2.363569 1_565
La0 O35 2.533407 1_555
La0 O15 2.664091 1_555
La0 O34 2.687235 1_465
La0 O2 2.690746 1_655
La0 O35 2.701133 1_655
La0 O2 2.714744 1_555
La0 O1 2.722531 1_555
La0 O34 2.791051 1_565
La1 O10 2.349673 1_555
La1 O11 2.630277 1_455
La1 O37 2.635855 1_545
La1 O37 2.643993 1_445
La1 O4 2.682760 1_545
La1 O15 2.688911 1_545
La1 O34 2.701933 1_455
La1 O11 2.714141 1_555
La1 O34 2.809535 1_555
La2 O0 2.366002 1_545
La2 O33 2.532779 1_555
La2 O23 2.660567 1_555
La2 O29 2.678069 1_455
La2 O33 2.686859 1_455
La2 O32 2.716862 1_645
La2 O29 2.720755 1_555
La2 O30 2.721516 1_555
La2 O32 2.792629 1_545
La3 O5 2.356058 1_555
La3 O31 2.613590 1_655
La3 O36 2.640619 1_665
La3 O36 2.651754 1_565
La3 O23 2.680066 1_565
La3 O32 2.682235 1_655
La3 O18 2.696181 1_565
La3 O31 2.754314 1_555
La3 O32 2.805313 1_555
La4 O31 2.363206 1_555
La4 O25 2.527509 1_555
La4 O23 2.670846 1_555
La4 O36 2.676255 1_555
La4 O5 2.691166 1_555
La4 O36 2.711792 1_655
La4 O18 2.718600 1_555
La4 O25 2.720435 1_455
La4 O5 2.783712 1_455
La5 O34 2.351112 1_555
La5 O26 2.612849 1_555
La5 O2 2.636120 1_555
La5 O2 2.639835 1_655
La5 O10 2.676945 1_555
La5 O15 2.688351 1_555
La5 O1 2.692643 1_555
La5 O26 2.737778 1_655
La5 O10 2.837042 1_655
La6 O25 2.380559 1_555
La6 O16 2.426399 1_655
La6 O16 2.527566 1_555
La6 O20 2.616266 1_565
La6 O18 2.628146 1_565
La6 O31 2.772731 1_555
La6 O31 2.775081 1_655
La6 O14 2.820014 1_555
La6 O20 2.826120 1_665
La7 O11 2.359699 1_555
La7 O27 2.522001 1_555
La7 O15 2.658755 1_555
La7 O10 2.670378 1_555
La7 O37 2.695922 1_555
La7 O37 2.707619 1_455
La7 O27 2.709832 1_655
La7 O4 2.736307 1_555
La7 O10 2.805074 1_655
La8 O35 2.384317 1_645
La8 O7 2.427333 1_555
La8 O7 2.537242 1_655
La8 O13 2.615097 1_655
La8 O1 2.629631 1_555
La8 O26 2.776301 1_555
La8 O26 2.788655 1_655
La8 O13 2.810470 1_555
La8 O8 2.824280 1_555
La9 O16 2.354116 1_555
La9 O17 2.443033 1_555
La9 O17 2.528585 1_655
La9 O20 2.600834 1_655
La9 O18 2.615887 1_555
La9 O25 2.651996 1_555
La9 O20 2.689079 1_555
La9 O25 3.022654 1_455
La9 O14 3.179765 1_545
La10 O28 2.362604 1_545
La10 O19 2.433440 1_455
La10 O19 2.510905 1_555
La10 O6 2.598456 1_555
La10 O30 2.620182 1_555
La10 O33 2.684028 1_555
La10 O6 2.686010 1_455
La10 O33 3.033735 1_455
La10 O12 3.155175 1_555
La11 O27 2.383651 1_555
La11 O3 2.427002 1_455
La11 O3 2.525840 1_555
La11 O22 2.612856 1_545
La11 O4 2.623470 1_545
La11 O11 2.773580 1_555
La11 O11 2.798162 1_455
La11 O22 2.816243 1_445
La11 O9 2.816354 1_555
La12 O32 2.354619 1_555
La12 O0 2.612420 1_555
La12 O29 2.631730 1_555
La12 O29 2.644198 1_455
La12 O5 2.683624 1_555
La12 O23 2.686713 1_555
La12 O30 2.694058 1_555
La12 O0 2.757617 1_455
La12 O5 2.827932 1_455
La13 O7 2.362699 1_565
La13 O24 2.432904 1_655
La13 O24 2.515827 1_555
La13 O13 2.602736 1_555
La13 O1 2.617848 1_555
La13 O35 2.682414 1_555
La13 O13 2.688728 1_655
La13 O35 3.022908 1_655
La13 O8 3.155618 1_555
La14 O3 2.355242 1_555
La14 O21 2.439424 1_555
La14 O21 2.527325 1_455
La14 O22 2.598989 1_455
La14 O4 2.613784 1_555
La14 O27 2.668450 1_555
La14 O22 2.691070 1_555
La14 O27 3.021541 1_655
La14 O9 3.183639 1_565
La15 O33 2.386004 1_465
La15 O28 2.428141 1_555
La15 O28 2.531402 1_455
La15 O6 2.614414 1_455
La15 O30 2.626330 1_555
La15 O0 2.765390 1_555
La15 O0 2.782210 1_455
La15 O6 2.820984 1_555
La15 O12 2.821246 1_555
Cu0 O9 1.957257 1_565
Cu0 O22 1.961379 1_555
Cu0 O9 1.968502 1_665
Cu0 O14 2.057483 1_555
Cu0 O21 2.498920 1_555
Cu1 O15 1.889011 1_455
Cu1 O15 1.896421 1_555
Cu1 O37 1.902433 1_455
Cu1 O2 1.904637 1_555
Cu1 O34 2.479847 1_465
Cu1 O10 2.480605 1_555
Cu2 O12 1.941299 1_655
Cu2 O12 1.955956 1_555
Cu2 O6 1.965714 1_555
Cu2 O8 2.061695 1_556
Cu2 O19 2.548231 1_555
Cu3 O8 1.943394 1_455
Cu3 O8 1.955525 1_555
Cu3 O13 1.966765 1_555
Cu3 O12 2.065571 1_554
Cu3 O24 2.532039 1_555
Cu4 O1 1.890240 1_455
Cu4 O1 1.895309 1_555
Cu4 O2 1.937027 1_555
Cu4 O13 1.954849 1_555
Cu4 O35 2.445105 1_555
Cu4 O26 2.483196 1_555
Cu5 O14 1.954269 1_545
Cu5 O20 1.956735 1_555
Cu5 O14 1.965901 1_445
Cu5 O9 2.058842 1_555
Cu5 O17 2.510510 1_555
Cu6 O19 1.935992 1_554
Cu6 O7 1.965394 1_555
Cu6 O24 2.033696 1_645
Cu6 O8 2.092696 1_555
Cu7 O30 1.888915 1_655
Cu7 O30 1.896648 1_555
Cu7 O29 1.937590 1_555
Cu7 O6 1.953594 1_555
Cu7 O33 2.442279 1_555
Cu7 O0 2.480209 1_555
Cu8 O23 1.890574 1_655
Cu8 O23 1.894869 1_555
Cu8 O29 1.907186 1_555
Cu8 O36 1.907976 1_655
Cu8 O32 2.477787 1_645
Cu8 O5 2.479782 1_555
Cu9 O17 1.938771 1_655
Cu9 O3 1.963989 1_555
Cu9 O21 2.029593 1_555
Cu9 O9 2.068666 1_655
Cu10 O21 1.942511 1_455
Cu10 O16 1.966679 1_555
Cu10 O17 2.026110 1_555
Cu10 O14 2.070129 1_455
Cu11 O4 1.890006 1_555
Cu11 O4 1.895577 1_655
Cu11 O37 1.936586 1_555
Cu11 O22 1.960789 1_555
Cu11 O27 2.453818 1_655
Cu11 O11 2.471059 1_565
Cu12 O18 1.887905 1_555
Cu12 O18 1.897614 1_455
Cu12 O36 1.937903 1_555
Cu12 O20 1.957321 1_555
Cu12 O25 2.448972 1_455
Cu12 O31 2.484929 1_545
Cu13 O24 1.940597 1_556
Cu13 O28 1.967857 1_555
Cu13 O19 2.028467 1_465
Cu13 O12 2.080068 1_555
