# generated using pymatgen
data_BaMg6W
_symmetry_space_group_name_H-M   'P 1'
_cell_length_a   5.15763500
_cell_length_b   6.60002300
_cell_length_c   11.49381800
_cell_angle_alpha   90.00000000
_cell_angle_beta   90.00000000
_cell_angle_gamma   90.00000000
_symmetry_Int_Tables_number   1
_chemical_formula_structural   BaMg6W
_chemical_formula_sum   'Ba2 Mg12 W2'
_cell_volume   391.25542226
_cell_formula_units_Z   2
loop_
 _symmetry_equiv_pos_site_id
 _symmetry_equiv_pos_as_xyz
  1  'x, y, z'
loop_
 _atom_site_type_symbol
 _atom_site_label
 _atom_site_symmetry_multiplicity
 _atom_site_fract_x
 _atom_site_fract_y
 _atom_site_fract_z
 _atom_site_occupancy
  Ba  Ba0  1  0.00000000  0.50000000  0.33212800  1
  Ba  Ba1  1  0.00000000  0.00000000  0.83212800  1
  Mg  Mg0  1  0.00000000  0.72643900  0.08671000  1
  Mg  Mg1  1  0.00000000  0.27356100  0.08671000  1
  Mg  Mg2  1  0.00000000  0.00000000  0.33291300  1
  Mg  Mg3  1  0.50000000  0.22826500  0.42603100  1
  Mg  Mg4  1  0.50000000  0.77173500  0.42603100  1
  Mg  Mg5  1  0.50000000  0.00000000  0.16412400  1
  Mg  Mg6  1  0.00000000  0.22643900  0.58671000  1
  Mg  Mg7  1  0.00000000  0.77356100  0.58671000  1
  Mg  Mg8  1  0.00000000  0.50000000  0.83291300  1
  Mg  Mg9  1  0.50000000  0.72826500  0.92603100  1
  Mg  Mg10  1  0.50000000  0.27173500  0.92603100  1
  Mg  Mg11  1  0.50000000  0.50000000  0.66412400  1
  W  W0  1  0.50000000  0.50000000  0.14535400  1
  W  W1  1  0.50000000  0.00000000  0.64535400  1
loop_
_geom_bond_atom_site_label_1
_geom_bond_atom_site_label_2
_geom_bond_distance
_geom_bond_site_symmetry_2
Ba0 Mg1 3.192240 1_555
Ba0 Mg0 3.192240 1_555
Ba0 Mg2 3.300024 1_565
Ba0 Mg2 3.300024 1_555
Ba0 Mg4 3.321398 1_555
Ba0 Mg4 3.321398 1_455
Ba0 Mg3 3.321398 1_455
Ba0 Mg3 3.321398 1_555
Ba0 W0 3.355416 1_455
Ba0 W0 3.355416 1_555
Ba0 Mg6 3.438319 1_555
Ba0 Mg7 3.438319 1_555
Ba1 Mg6 3.192240 1_555
Ba1 Mg7 3.192240 1_545
Ba1 Mg8 3.300024 1_555
Ba1 Mg8 3.300024 1_545
Ba1 Mg9 3.321398 1_445
Ba1 Mg9 3.321398 1_545
Ba1 Mg10 3.321398 1_455
Ba1 Mg10 3.321398 1_555
Ba1 W1 3.355416 1_555
Ba1 W1 3.355416 1_455
Ba1 Mg1 3.438319 1_556
Ba1 Mg0 3.438319 1_546
Mg0 Mg1 2.989005 1_555
Mg0 W0 3.055842 1_455
Mg0 W0 3.055842 1_555
Mg0 Mg9 3.171935 1_554
Mg0 Mg9 3.171935 1_454
Mg0 Mg5 3.271372 1_565
Mg0 Mg5 3.271372 1_465
Mg0 Mg8 3.277650 1_554
Mg0 Mg2 3.356740 1_565
Mg1 W0 3.055842 1_455
Mg1 W0 3.055842 1_555
Mg1 Mg10 3.171935 1_554
Mg1 Mg10 3.171935 1_454
Mg1 Mg5 3.271372 1_555
Mg1 Mg5 3.271372 1_455
Mg1 Mg8 3.277650 1_554
Mg1 Mg2 3.356740 1_555
Mg2 Mg3 3.172618 1_455
Mg2 Mg4 3.172618 1_445
Mg2 Mg3 3.172618 1_555
Mg2 Mg4 3.172618 1_545
Mg2 Mg5 3.227075 1_455
Mg2 Mg5 3.227075 1_555
Mg2 Mg6 3.277650 1_555
Mg2 Mg7 3.277650 1_545
Mg3 W1 2.936739 1_555
Mg3 Mg6 3.171935 1_655
Mg3 Mg6 3.171935 1_555
Mg3 W0 3.691055 1_555
Mg4 W1 2.936739 1_565
Mg4 Mg7 3.171935 1_655
Mg4 Mg7 3.171935 1_555
Mg4 W0 3.691055 1_555
Mg5 W0 3.307056 1_555
Mg5 W0 3.307056 1_545
Mg6 Mg7 2.989005 1_545
Mg6 W1 3.055842 1_455
Mg6 W1 3.055842 1_555
Mg6 Mg8 3.356740 1_555
Mg7 W1 3.055842 1_565
Mg7 W1 3.055842 1_465
Mg7 Mg8 3.356740 1_555
Mg8 Mg9 3.172618 1_455
Mg8 Mg9 3.172618 1_555
Mg9 W0 2.936739 1_556
Mg9 W1 3.691055 1_565
Mg10 W0 2.936739 1_556
Mg10 Mg8 3.172618 1_555
Mg10 Mg8 3.172618 1_655
Mg10 W1 3.691055 1_555
Mg11 Mg8 3.227075 1_655
Mg11 Mg8 3.227075 1_555
Mg11 Mg7 3.271372 1_555
Mg11 Mg6 3.271372 1_655
Mg11 Mg7 3.271372 1_655
Mg11 Mg6 3.271372 1_555
Mg11 W1 3.307056 1_555
Mg11 W1 3.307056 1_565
