# generated using pymatgen
data_Eu(AsPt)2
_symmetry_space_group_name_H-M   'P 1'
_cell_length_a   4.50507100
_cell_length_b   4.50507100
_cell_length_c   9.99555800
_cell_angle_alpha   90.00000000
_cell_angle_beta   90.00000000
_cell_angle_gamma   90.00000000
_symmetry_Int_Tables_number   1
_chemical_formula_structural   Eu(AsPt)2
_chemical_formula_sum   'Eu2 As4 Pt4'
_cell_volume   202.86649381
_cell_formula_units_Z   2
loop_
 _symmetry_equiv_pos_site_id
 _symmetry_equiv_pos_as_xyz
  1  'x, y, z'
loop_
 _atom_site_type_symbol
 _atom_site_label
 _atom_site_symmetry_multiplicity
 _atom_site_fract_x
 _atom_site_fract_y
 _atom_site_fract_z
 _atom_site_occupancy
  Eu  Eu0  1  0.00000000  0.50000000  0.25227500  1
  Eu  Eu1  1  0.50000000  0.00000000  0.74772500  1
  As  As0  1  0.50000000  0.50000000  0.50000000  1
  As  As1  1  0.00000000  0.00000000  0.50000000  1
  As  As2  1  0.00000000  0.50000000  0.86845800  1
  As  As3  1  0.50000000  0.00000000  0.13154200  1
  Pt  Pt0  1  0.50000000  0.50000000  0.00000000  1
  Pt  Pt1  1  0.00000000  0.00000000  0.00000000  1
  Pt  Pt2  1  0.00000000  0.50000000  0.61918500  1
  Pt  Pt3  1  0.50000000  0.00000000  0.38081500  1
loop_
_geom_bond_atom_site_label_1
_geom_bond_atom_site_label_2
_geom_bond_distance
_geom_bond_site_symmetry_2
Eu0 Pt0 3.381203 1_455
Eu0 Pt1 3.381203 1_565
Eu0 Pt0 3.381203 1_555
Eu0 Pt1 3.381203 1_555
Eu0 Pt3 3.434912 1_565
Eu0 Pt3 3.434912 1_455
Eu0 Pt3 3.434912 1_465
Eu0 Pt3 3.434912 1_555
Eu1 Pt1 3.381203 1_556
Eu1 Pt1 3.381203 1_656
Eu1 Pt0 3.381203 1_556
Eu1 Pt0 3.381203 1_546
Eu1 Pt2 3.434912 1_545
Eu1 Pt2 3.434912 1_645
Eu1 Pt2 3.434912 1_555
Eu1 Pt2 3.434912 1_655
As0 Pt2 2.548168 1_555
As0 Pt2 2.548168 1_655
As0 Pt3 2.548168 1_565
As0 Pt3 2.548168 1_555
As0 Eu1 3.347422 1_565
As0 Eu1 3.347422 1_555
As0 Eu0 3.347422 1_655
As0 Eu0 3.347422 1_555
As1 Pt2 2.548168 1_555
As1 Pt2 2.548168 1_545
As1 Pt3 2.548168 1_455
As1 Pt3 2.548168 1_555
As1 Eu1 3.347422 1_455
As1 Eu1 3.347422 1_555
As1 Eu0 3.347422 1_555
As1 Eu0 3.347422 1_545
As2 Pt2 2.491623 1_555
As2 Pt1 2.608200 1_556
As2 Pt1 2.608200 1_566
As2 Pt0 2.608200 1_456
As2 Pt0 2.608200 1_556
As2 Eu1 3.406491 1_565
As2 Eu1 3.406491 1_455
As2 Eu1 3.406491 1_465
As2 Eu1 3.406491 1_555
As3 Pt3 2.491623 1_555
As3 Pt1 2.608200 1_555
As3 Pt1 2.608200 1_655
As3 Pt0 2.608200 1_545
As3 Pt0 2.608200 1_555
As3 Eu0 3.406491 1_555
As3 Eu0 3.406491 1_545
As3 Eu0 3.406491 1_655
As3 Eu0 3.406491 1_645
