# generated using pymatgen
data_Li9Mn2Co5O16
_symmetry_space_group_name_H-M   'P 1'
_cell_length_a   5.05484200
_cell_length_b   5.90460572
_cell_length_c   10.14133135
_cell_angle_alpha   89.93888324
_cell_angle_beta   99.96958613
_cell_angle_gamma   105.63853420
_symmetry_Int_Tables_number   1
_chemical_formula_structural   Li9Mn2Co5O16
_chemical_formula_sum   'Li9 Mn2 Co5 O16'
_cell_volume   286.74830435
_cell_formula_units_Z   1
loop_
 _symmetry_equiv_pos_site_id
 _symmetry_equiv_pos_as_xyz
  1  'x, y, z'
loop_
 _atom_site_type_symbol
 _atom_site_label
 _atom_site_symmetry_multiplicity
 _atom_site_fract_x
 _atom_site_fract_y
 _atom_site_fract_z
 _atom_site_occupancy
  Li  Li0  1  0.49725900  0.36652700  0.12960300  1
  Li  Li1  1  0.99296900  0.24946500  0.24674000  1
  Li  Li2  1  0.00583900  0.50829800  0.00485700  1
  Li  Li3  1  0.50043900  0.11822700  0.36561000  1
  Li  Li4  1  0.00897200  0.00363500  0.49511200  1
  Li  Li5  1  0.49788600  0.87370700  0.62343900  1
  Li  Li6  1  0.99611000  0.74018300  0.75257200  1
  Li  Li7  1  0.50018000  0.63173200  0.88294000  1
  Li  Li8  1  0.50055200  0.87437500  0.12368600  1
  Mn  Mn0  1  0.99898300  0.99431600  0.00190800  1
  Mn  Mn1  1  0.50079900  0.37511500  0.62579000  1
  Co  Co0  1  0.99885500  0.76445900  0.24750900  1
  Co  Co1  1  0.49429200  0.63174500  0.36531900  1
  Co  Co2  1  0.99988200  0.50421900  0.49284400  1
  Co  Co3  1  0.99663800  0.25029000  0.75057700  1
  Co  Co4  1  0.49816100  0.11687500  0.88060000  1
  O  O0  1  0.22716100  0.05583600  0.17562000  1
  O  O1  1  0.76063900  0.92115100  0.31559800  1
  O  O2  1  0.75260600  0.18064400  0.04574100  1
  O  O3  1  0.24815800  0.80115400  0.43816000  1
  O  O4  1  0.73249100  0.65928000  0.56212800  1
  O  O5  1  0.25140400  0.54342900  0.68026000  1
  O  O6  1  0.73740400  0.42841900  0.79951000  1
  O  O7  1  0.23970800  0.28233800  0.93206400  1
  O  O8  1  0.77604000  0.71231700  0.06038900  1
  O  O9  1  0.25344400  0.57031600  0.20175700  1
  O  O10  1  0.23067300  0.82548900  0.93510500  1
  O  O11  1  0.76490900  0.44542900  0.32039200  1
  O  O12  1  0.26757500  0.32356000  0.45162800  1
  O  O13  1  0.74861000  0.20061000  0.57471800  1
  O  O14  1  0.27132100  0.08983600  0.69414700  1
  O  O15  1  0.75004100  0.95701900  0.82367600  1
loop_
_geom_bond_atom_site_label_1
_geom_bond_atom_site_label_2
_geom_bond_distance
_geom_bond_site_symmetry_2
Li0 O0 2.077425 1_555
Li0 O11 2.132332 1_555
Li0 O9 2.148476 1_555
Li0 O7 2.169197 1_554
Li0 O2 2.177113 1_555
Li0 O8 2.331416 1_555
Li1 O11 2.060308 1_555
Li1 O0 2.062964 1_655
Li1 O9 2.095741 1_655
Li1 O2 2.162048 1_555
Li1 O1 2.162990 1_545
Li1 O12 2.260856 1_655
Li2 O8 2.024854 1_455
Li2 O2 2.097685 1_455
Li2 O10 2.104208 1_554
Li2 O9 2.139399 1_555
Li2 O7 2.208444 1_554
Li2 O6 2.253674 1_454
Li3 O1 2.097300 1_545
Li3 O11 2.132600 1_555
Li3 O0 2.135854 1_555
Li3 O3 2.169660 1_545
Li3 O12 2.177994 1_555
Li3 O13 2.249330 1_555
Li4 O1 2.002052 1_445
Li4 O3 2.060911 1_545
Li4 O12 2.082831 1_555
Li4 O14 2.191667 1_555
Li4 O13 2.220741 1_455
Li4 O4 2.311542 1_445
Li5 O3 2.048526 1_555
Li5 O4 2.112452 1_555
Li5 O13 2.114722 1_565
Li5 O14 2.128057 1_565
Li5 O5 2.150289 1_555
Li5 O15 2.181310 1_555
Li6 O10 2.001564 1_655
Li6 O6 2.059424 1_555
Li6 O4 2.121717 1_555
Li6 O5 2.165767 1_655
Li6 O15 2.208500 1_555
Li6 O14 2.298503 1_665
Li7 O8 2.045611 1_556
Li7 O10 2.129730 1_555
Li7 O15 2.144289 1_555
Li7 O6 2.173594 1_555
Li7 O5 2.198155 1_555
Li7 O7 2.235694 1_555
Li8 O8 2.072706 1_555
Li8 O0 2.094446 1_565
Li8 O10 2.118344 1_554
Li8 O1 2.124147 1_555
Li8 O9 2.130897 1_555
Li8 O2 2.149865 1_565
Mn0 O8 1.900504 1_555
Mn0 O0 1.907277 1_665
Mn0 O10 1.931292 1_654
Mn0 O2 1.972431 1_565
Mn0 O15 1.990719 1_554
Mn0 O7 2.013648 1_664
Mn1 O12 1.920618 1_555
Mn1 O6 1.924036 1_555
Mn1 O5 1.949319 1_555
Mn1 O4 1.950332 1_555
Mn1 O13 1.954666 1_555
Mn1 O14 1.971300 1_555
Co0 O1 1.916423 1_555
Co0 O8 2.009637 1_555
Co0 O0 2.010359 1_665
Co0 O9 2.046640 1_655
Co0 O3 2.093635 1_655
Co0 O11 2.142881 1_555
Co1 O9 1.851791 1_555
Co1 O1 1.994953 1_555
Co1 O3 2.021139 1_555
Co1 O11 2.077809 1_555
Co1 O4 2.126705 1_555
Co1 O12 2.147193 1_555
Co2 O11 1.910402 1_555
Co2 O3 2.002294 1_655
Co2 O12 2.029433 1_655
Co2 O4 2.038683 1_555
Co2 O5 2.070763 1_655
Co2 O13 2.156573 1_555
Co3 O13 1.966525 1_555
Co3 O7 2.006328 1_655
Co3 O6 2.009713 1_555
Co3 O14 2.034324 1_655
Co3 O15 2.062872 1_545
Co3 O5 2.067963 1_655
Co4 O2 1.896110 1_556
Co4 O15 1.936189 1_545
Co4 O7 1.964437 1_555
Co4 O14 2.016662 1_555
Co4 O10 2.023974 1_545
Co4 O6 2.159732 1_555
