# generated using pymatgen
data_MoW3Se8
_symmetry_space_group_name_H-M   'P 1'
_cell_length_a   3.32653181
_cell_length_b   3.32653181
_cell_length_c   37.84093900
_cell_angle_alpha   90.00000000
_cell_angle_beta   90.00000000
_cell_angle_gamma   119.99999624
_symmetry_Int_Tables_number   1
_chemical_formula_structural   MoW3Se8
_chemical_formula_sum   'Mo1 W3 Se8'
_cell_volume   362.64017404
_cell_formula_units_Z   1
loop_
 _symmetry_equiv_pos_site_id
 _symmetry_equiv_pos_as_xyz
  1  'x, y, z'
loop_
 _atom_site_type_symbol
 _atom_site_label
 _atom_site_symmetry_multiplicity
 _atom_site_fract_x
 _atom_site_fract_y
 _atom_site_fract_z
 _atom_site_occupancy
  Mo  Mo0  1  0.66666700  0.33333300  0.28177200  1
  W  W0  1  0.33333300  0.66666700  0.09391200  1
  W  W1  1  0.33333300  0.66666700  0.46963200  1
  W  W2  1  0.66666700  0.33333300  0.65754700  1
  Se  Se0  1  0.33333300  0.66666700  0.32602900  1
  Se  Se1  1  0.33333300  0.66666700  0.70196900  1
  Se  Se2  1  0.66666700  0.33333300  0.04948400  1
  Se  Se3  1  0.66666700  0.33333300  0.42524300  1
  Se  Se4  1  0.66666700  0.33333300  0.13836200  1
  Se  Se5  1  0.66666700  0.33333300  0.51408100  1
  Se  Se6  1  0.33333300  0.66666700  0.23761500  1
  Se  Se7  1  0.33333300  0.66666700  0.61310300  1
loop_
_geom_bond_atom_site_label_1
_geom_bond_atom_site_label_2
_geom_bond_distance
_geom_bond_site_symmetry_2
Mo0 Se6 2.545711 1_545
Mo0 Se6 2.545711 1_655
Mo0 Se6 2.545716 1_555
Mo0 Se0 2.548197 1_545
Mo0 Se0 2.548197 1_655
Mo0 Se0 2.548201 1_555
Se1 W2 2.552305 1_455
Se1 W2 2.552305 1_565
Se1 W2 2.552309 1_555
Se2 W0 2.552454 1_655
Se2 W0 2.552454 1_545
Se2 W0 2.552458 1_555
Se3 W1 2.551482 1_545
Se3 W1 2.551482 1_655
Se3 W1 2.551487 1_555
Se4 W0 2.553002 1_655
Se4 W0 2.553002 1_545
Se4 W0 2.553007 1_555
Se5 W1 2.552978 1_545
Se5 W1 2.552978 1_655
Se5 W1 2.552982 1_555
Se7 W2 2.552853 1_455
Se7 W2 2.552853 1_565
Se7 W2 2.552857 1_555
