# generated using pymatgen
data_Nd4Re6O19
_symmetry_space_group_name_H-M   'P 1'
_cell_length_a   7.78764417
_cell_length_b   7.78767611
_cell_length_c   7.78760966
_cell_angle_alpha   109.47185698
_cell_angle_beta   109.47139383
_cell_angle_gamma   109.47030202
_symmetry_Int_Tables_number   1
_chemical_formula_structural   Nd4Re6O19
_chemical_formula_sum   'Nd4 Re6 O19'
_cell_volume   363.57737463
_cell_formula_units_Z   1
loop_
 _symmetry_equiv_pos_site_id
 _symmetry_equiv_pos_as_xyz
  1  'x, y, z'
loop_
 _atom_site_type_symbol
 _atom_site_label
 _atom_site_symmetry_multiplicity
 _atom_site_fract_x
 _atom_site_fract_y
 _atom_site_fract_z
 _atom_site_occupancy
  Nd  Nd0  1  0.68766878  0.68770063  0.68768635  1
  Nd  Nd1  1  0.31230477  0.99999052  0.99998518  1
  Nd  Nd2  1  0.00001737  0.31231659  0.99999073  1
  Nd  Nd3  1  0.00000041  -0.00000599  0.31233230  1
  Re  Re0  1  0.36709647  0.86710492  0.49999850  1
  Re  Re1  1  0.63288974  0.13290086  0.49999523  1
  Re  Re2  1  0.86708226  0.49998755  0.36708030  1
  Re  Re3  1  0.13290337  0.49998922  0.63290628  1
  Re  Re4  1  0.50001849  0.36710650  0.86710985  1
  Re  Re5  1  0.50001576  0.63290637  0.13291469  1
  O  O0  1  0.68096867  0.68098729  1.00000284  1
  O  O1  1  0.31902583  0.31901903  0.99999273  1
  O  O2  1  0.68098242  0.00001541  0.68098873  1
  O  O3  1  0.31901047  0.99998577  0.31901520  1
  O  O4  1  0.99998492  0.68099105  0.68099040  1
  O  O5  1  0.00001800  0.31900887  0.31900712  1
  O  O6  1  0.99999781  0.00000146  0.99999544  1
  O  O7  1  0.35841259  0.62102465  0.30210932  1
  O  O8  1  0.64160382  0.94367038  0.26263757  1
  O  O9  1  0.68105465  0.37897729  0.73734630  1
  O  O10  1  0.62099158  0.30206998  0.35835719  1
  O  O11  1  0.31892811  0.05628983  0.69788082  1
  O  O12  1  0.94370487  0.26261795  0.64161288  1
  O  O13  1  0.37902058  0.73741411  0.68111990  1
  O  O14  1  0.05631557  0.69794215  0.31894780  1
  O  O15  1  0.30209674  0.35836952  0.62103215  1
  O  O16  1  0.73734106  0.68108033  0.37894475  1
  O  O17  1  0.69790680  0.31892768  0.05626530  1
  O  O18  1  0.26263910  0.64160906  0.94375715  1
loop_
_geom_bond_atom_site_label_1
_geom_bond_atom_site_label_2
_geom_bond_distance
_geom_bond_site_symmetry_2
Nd0 O6 2.432186 1_565
Nd0 O2 2.467439 1_565
Nd0 O4 2.467496 1_555
Nd0 O0 2.467511 1_555
Nd0 O13 2.545901 1_555
Nd0 O9 2.546209 1_555
Nd0 O16 2.546360 1_555
Nd0 O7 2.966600 1_555
Nd0 O15 2.966979 1_555
Nd0 O10 2.967139 1_555
Nd1 O6 2.432191 1_465
Nd1 O4 2.467393 1_455
Nd1 O1 2.467518 1_565
Nd1 O3 2.467578 1_556
Nd1 O10 2.546016 1_566
Nd1 O11 2.546266 1_565
Nd1 O18 2.546270 1_555
Nd1 O13 2.966604 1_555
Nd1 O17 2.967063 1_566
Nd1 O8 2.967084 1_556
Nd2 O6 2.432171 1_455
Nd2 O1 2.467412 1_555
Nd2 O2 2.467462 1_455
Nd2 O5 2.467490 1_556
Nd2 O12 2.545982 1_455
Nd2 O17 2.546201 1_456
Nd2 O7 2.546235 1_556
Nd2 O18 2.966540 1_555
Nd2 O9 2.967079 1_455
Nd2 O14 2.967137 1_556
Nd3 O6 2.432370 1_454
Nd3 O5 2.467497 1_555
Nd3 O3 2.467499 1_545
Nd3 O0 2.467537 1_444
Nd3 O14 2.545912 1_545
Nd3 O15 2.546100 1_555
Nd3 O8 2.546136 1_445
Nd3 O11 2.966633 1_555
Nd3 O16 2.966669 1_445
Nd3 O12 2.966742 1_455
O0 Re5 2.019022 1_556
O0 Re4 2.019114 1_555
O1 Re4 2.019096 1_555
O1 Re5 2.019166 1_556
O2 Re1 2.019120 1_555
O2 Re0 2.019154 1_545
O3 Re0 2.019020 1_555
O3 Re1 2.019098 1_565
O4 Re2 2.019303 1_555
O4 Re3 2.019360 1_655
O5 Re3 2.019228 1_555
O5 Re2 2.019313 1_455
O7 Re0 1.981731 1_555
O7 Re5 1.985624 1_555
O8 Re1 1.981742 1_565
O8 Re5 1.985414 1_555
O9 Re1 1.981609 1_555
O9 Re4 1.985606 1_555
O10 Re2 1.981755 1_555
O10 Re1 1.985679 1_555
O11 Re0 1.981485 1_545
O11 Re4 1.985766 1_555
O12 Re3 1.981715 1_655
O12 Re1 1.985751 1_555
O13 Re3 1.981984 1_555
O13 Re0 1.985745 1_555
O14 Re2 1.981871 1_455
O14 Re0 1.985513 1_555
O15 Re4 1.981605 1_555
O15 Re3 1.985702 1_555
O16 Re5 1.981258 1_555
O16 Re2 1.985849 1_555
O17 Re4 1.981453 1_554
O17 Re2 1.985698 1_555
O18 Re5 1.981551 1_556
O18 Re3 1.985952 1_555
