# generated using pymatgen
data_CoSiW
_symmetry_space_group_name_H-M   'P 1'
_cell_length_a   4.71914870
_cell_length_b   4.71914870
_cell_length_c   7.57791000
_cell_angle_alpha   90.00000000
_cell_angle_beta   90.00000000
_cell_angle_gamma   118.14853254
_symmetry_Int_Tables_number   1
_chemical_formula_structural   CoSiW
_chemical_formula_sum   'Co4 Si4 W4'
_cell_volume   148.80283034
_cell_formula_units_Z   4
loop_
 _symmetry_equiv_pos_site_id
 _symmetry_equiv_pos_as_xyz
  1  'x, y, z'
loop_
 _atom_site_type_symbol
 _atom_site_label
 _atom_site_symmetry_multiplicity
 _atom_site_fract_x
 _atom_site_fract_y
 _atom_site_fract_z
 _atom_site_occupancy
  Co  Co0  1  0.83208500  0.16791500  0.00000000  1
  Co  Co1  1  0.82908900  0.64899900  0.00000000  1
  Co  Co2  1  0.35100100  0.17091100  0.00000000  1
  Co  Co3  1  0.14638400  0.85361600  0.50000000  1
  Si  Si0  1  0.16148600  0.35620700  0.50000000  1
  Si  Si1  1  0.64379300  0.83851400  0.50000000  1
  Si  Si2  1  0.01005100  0.98994900  0.23138000  1
  Si  Si3  1  0.01005100  0.98994900  0.76862000  1
  W  W0  1  0.66794100  0.33205900  0.68927800  1
  W  W1  1  0.33996900  0.66003100  0.81871600  1
  W  W2  1  0.33996900  0.66003100  0.18128400  1
  W  W3  1  0.66794100  0.33205900  0.31072200  1
loop_
_geom_bond_atom_site_label_1
_geom_bond_atom_site_label_2
_geom_bond_distance
_geom_bond_site_symmetry_2
Co0 Si2 2.269477 1_645
Co0 Si3 2.269477 1_644
Co0 Co2 2.277011 1_555
Co0 Co1 2.277011 1_555
Co0 Co1 2.442204 1_545
Co0 Co2 2.442204 1_655
Co0 W3 2.703788 1_555
Co0 W0 2.703788 1_554
Co0 W2 2.788070 1_655
Co0 W1 2.788070 1_544
Co0 W1 2.788070 1_654
Co0 W2 2.788070 1_545
Co1 Si2 2.257440 1_655
Co1 Si3 2.257440 1_654
Co1 Co2 2.319010 1_555
Co1 Co2 2.531582 1_665
Co1 W3 2.699345 1_555
Co1 W0 2.699345 1_554
Co1 W1 2.707622 1_554
Co1 W2 2.707622 1_555
Co1 W1 2.753908 1_654
Co1 W2 2.753908 1_655
Co2 Si2 2.257440 1_545
Co2 Si3 2.257440 1_544
Co2 W3 2.699345 1_555
Co2 W0 2.699345 1_554
Co2 W1 2.707622 1_554
Co2 W2 2.707622 1_555
Co2 W1 2.753908 1_544
Co2 W2 2.753908 1_545
Co3 Si3 2.315598 1_555
Co3 Si2 2.315598 1_555
Co3 Si0 2.339024 1_565
Co3 Si1 2.339024 1_455
Co3 Si1 2.381798 1_555
Co3 Si0 2.381798 1_555
Co3 W3 2.823089 1_455
Co3 W0 2.823089 1_455
Co3 W0 2.823089 1_565
Co3 W3 2.823089 1_565
Co3 W1 2.879204 1_555
Co3 W2 2.879204 1_555
Si0 Si1 2.339474 1_555
Si0 Si1 2.511118 1_445
Si0 Si2 2.544859 1_545
Si0 Si3 2.544859 1_545
Si0 W0 2.691585 1_455
Si0 W3 2.691585 1_455
Si0 W1 2.731107 1_555
Si0 W2 2.731107 1_555
Si0 W0 2.835410 1_555
Si0 W3 2.835410 1_555
Si1 Si2 2.544859 1_655
Si1 Si3 2.544859 1_655
Si1 W0 2.691585 1_565
Si1 W3 2.691585 1_565
Si1 W1 2.731107 1_555
Si1 W2 2.731107 1_555
Si1 W0 2.835410 1_555
Si1 W3 2.835410 1_555
Si2 W2 2.698020 1_555
Si2 W3 2.806733 1_455
Si2 W3 2.806733 1_565
Si2 W2 2.814692 1_455
Si2 W2 2.814692 1_565
Si2 W3 2.834395 1_465
Si3 W1 2.698020 1_555
Si3 W0 2.806733 1_455
Si3 W0 2.806733 1_565
Si3 W1 2.814692 1_565
Si3 W1 2.814692 1_455
Si3 W0 2.834395 1_465
W0 W1 2.830791 1_555
W0 W3 2.868663 1_555
W0 W1 2.963802 1_545
W0 W1 2.963802 1_655
W1 W2 2.747508 1_556
W2 W3 2.830791 1_555
W2 W3 2.963802 1_565
W2 W3 2.963802 1_455
