# generated using pymatgen
data_Sr3Ta7Si(BiO4)9
_symmetry_space_group_name_H-M   'P 1'
_cell_length_a   5.57552379
_cell_length_b   11.33623167
_cell_length_c   14.15231667
_cell_angle_alpha   66.15754609
_cell_angle_beta   102.35830108
_cell_angle_gamma   89.76162737
_symmetry_Int_Tables_number   1
_chemical_formula_structural   Sr3Ta7Si(BiO4)9
_chemical_formula_sum   'Sr3 Ta7 Si1 Bi9 O36'
_cell_volume   795.08208168
_cell_formula_units_Z   1
loop_
 _symmetry_equiv_pos_site_id
 _symmetry_equiv_pos_as_xyz
  1  'x, y, z'
loop_
 _atom_site_type_symbol
 _atom_site_label
 _atom_site_symmetry_multiplicity
 _atom_site_fract_x
 _atom_site_fract_y
 _atom_site_fract_z
 _atom_site_occupancy
  Sr  Sr0  1  0.24167200  0.24650000  0.99689200  1
  Sr  Sr1  1  0.76844500  0.49770500  0.01168900  1
  Sr  Sr2  1  0.74301500  0.00157000  0.99692800  1
  Ta  Ta0  1  0.15750500  0.07361000  0.83448200  1
  Ta  Ta1  1  0.16886900  0.57210900  0.83906800  1
  Ta  Ta2  1  0.35417000  0.39943000  0.17043500  1
  Ta  Ta3  1  0.33768300  0.91026900  0.16965500  1
  Ta  Ta4  1  0.65813000  0.33063200  0.82806000  1
  Ta  Ta5  1  0.66483200  0.82280200  0.83178000  1
  Ta  Ta6  1  0.83176600  0.15722500  0.16506200  1
  Si  Si0  1  0.82130300  0.69351600  0.16174800  1
  Bi  Bi0  1  0.03410800  0.47256500  0.58624400  1
  Bi  Bi1  1  0.03321000  0.98570500  0.59298800  1
  Bi  Bi2  1  0.25085700  0.74633100  0.01554700  1
  Bi  Bi3  1  0.41881800  0.07104300  0.40027600  1
  Bi  Bi4  1  0.42577600  0.58489900  0.39444200  1
  Bi  Bi5  1  0.57390300  0.23224400  0.57889800  1
  Bi  Bi6  1  0.59746300  0.72037200  0.59840700  1
  Bi  Bi7  1  0.96216500  0.36601400  0.36098300  1
  Bi  Bi8  1  0.98289900  0.83431300  0.39791600  1
  O  O0  1  0.01237800  0.12704600  0.68876800  1
  O  O1  1  0.01632100  0.65112900  0.69356800  1
  O  O2  1  0.03736200  0.29654400  0.14232200  1
  O  O3  1  0.03267900  0.80201700  0.13263200  1
  O  O4  1  0.09462300  0.05210800  0.13295200  1
  O  O5  1  0.15300700  0.55900600  0.12723900  1
  O  O6  1  0.25568000  0.13210500  0.50362500  1
  O  O7  1  0.24511000  0.63492300  0.50104700  1
  O  O8  1  0.24831700  0.40234800  0.48719800  1
  O  O9  1  0.26697700  0.88456400  0.50458200  1
  O  O10  1  0.37674100  0.43745600  0.82438800  1
  O  O11  1  0.39704500  0.92817600  0.84033500  1
  O  O12  1  0.41676000  0.18561400  0.83211700  1
  O  O13  1  0.44781100  0.67766100  0.84389200  1
  O  O14  1  0.33888200  0.82968700  0.31542400  1
  O  O15  1  0.32330700  0.32966900  0.31521300  1
  O  O16  1  0.30884000  0.46364900  0.00353500  1
  O  O17  1  0.29063100  0.97570200  0.00256700  1
  O  O18  1  0.64475600  0.39451100  0.68424700  1
  O  O19  1  0.64880300  0.88900100  0.69036700  1
  O  O20  1  0.53969300  0.23433000  0.17783900  1
  O  O21  1  0.55803800  0.75676000  0.17394400  1
  O  O22  1  0.62386100  0.00025000  0.17043700  1
  O  O23  1  0.66522300  0.45845200  0.19006300  1
  O  O24  1  0.73857900  0.14146700  0.48936000  1
  O  O25  1  0.74338500  0.63902600  0.49585900  1
  O  O26  1  0.74987700  0.40260900  0.48276400  1
  O  O27  1  0.75912800  0.88886900  0.49723000  1
  O  O28  1  0.69734900  0.22723700  0.00200300  1
  O  O29  1  0.69868000  0.70426800  0.03742100  1
  O  O30  1  0.90535500  0.43637800  0.86581000  1
  O  O31  1  0.91573800  0.92260200  0.87811400  1
  O  O32  1  0.93096200  0.18229200  0.86263300  1
  O  O33  1  0.95878800  0.68208000  0.88066300  1
  O  O34  1  0.98121400  0.06089300  0.31389200  1
  O  O35  1  0.95151300  0.58691500  0.28444500  1
loop_
_geom_bond_atom_site_label_1
_geom_bond_atom_site_label_2
_geom_bond_distance
_geom_bond_site_symmetry_2
Bi0 O25 2.227143 1_455
Bi0 O7 2.248659 1_555
Bi0 O26 2.289314 1_455
Bi0 O8 2.373945 1_555
Bi0 O18 2.780613 1_455
Bi1 O24 2.195068 1_465
Bi1 O6 2.210003 1_565
Bi1 O27 2.388947 1_455
Bi1 O0 2.497976 1_565
Bi1 O9 2.534575 1_555
Bi1 O19 2.785166 1_455
Bi2 O5 2.229533 1_555
Bi2 O29 2.469282 1_555
Bi2 O3 2.515170 1_555
Bi2 O17 2.545596 1_555
Bi2 O31 2.557031 1_454
Bi2 O21 2.558315 1_555
Bi2 O33 2.574803 1_454
Bi2 O11 2.794490 1_554
Bi3 O6 2.197388 1_555
Bi3 O24 2.295377 1_555
Bi3 O9 2.321998 1_545
Bi3 O34 2.509993 1_455
Bi3 O27 2.511952 1_545
Bi3 O15 2.680995 1_555
Bi4 O7 2.224836 1_555
Bi4 O25 2.281553 1_555
Bi4 O8 2.315503 1_555
Bi4 O26 2.451932 1_555
Bi4 O14 2.536510 1_555
Bi4 O35 2.761294 1_455
Bi5 O26 2.237517 1_555
Bi5 O24 2.247685 1_555
Bi5 O8 2.374307 1_555
Bi5 O6 2.399350 1_555
Bi5 O0 2.581878 1_655
Bi5 O18 2.780977 1_555
Bi6 O27 2.206118 1_555
Bi6 O25 2.280283 1_555
Bi6 O9 2.355633 1_555
Bi6 O1 2.380671 1_655
Bi6 O7 2.575363 1_555
Bi6 O19 2.699330 1_555
Bi7 O35 2.286062 1_555
Bi7 O8 2.299160 1_655
Bi7 O15 2.326134 1_655
Bi7 O23 2.431536 1_555
Bi7 O26 2.447566 1_555
Bi8 O9 2.188896 1_655
Bi8 O27 2.315501 1_555
Bi8 O34 2.353162 1_565
Bi8 O7 2.401818 1_655
Bi8 O14 2.519043 1_655
Bi8 O25 2.634726 1_555
O0 Ta0 1.883101 1_555
O1 Ta1 1.875830 1_555
O2 Ta6 1.916769 1_455
O2 Ta2 2.174899 1_555
O2 Sr1 2.498581 1_455
O2 Sr0 2.792436 1_554
O3 Si0 1.697586 1_455
O3 Ta3 2.197307 1_555
O3 Sr2 2.558077 1_464
O4 Ta3 1.922780 1_545
O4 Ta6 2.117240 1_455
O4 Sr0 2.548819 1_554
O4 Sr2 2.676339 1_454
O5 Ta2 1.923462 1_555
O5 Sr1 2.680427 1_455
O10 Ta4 1.956786 1_555
O10 Ta1 2.015251 1_555
O10 Sr0 2.782321 1_555
O11 Ta5 1.962208 1_555
O11 Ta0 2.081496 1_565
O12 Ta0 1.924658 1_555
O12 Ta4 2.119469 1_555
O12 Sr2 2.705602 1_555
O13 Ta1 1.972636 1_555
O13 Ta5 2.019410 1_555
O13 Sr1 2.689390 1_556
O14 Ta3 1.887029 1_555
O15 Ta2 1.922308 1_555
O16 Ta1 2.106961 1_554
O16 Ta2 2.127387 1_555
O16 Sr0 2.527551 1_554
O16 Sr1 2.578108 1_555
O17 Ta3 2.127335 1_555
O17 Ta0 2.131747 1_564
O17 Sr2 2.554925 1_564
O17 Sr2 3.046966 1_464
O17 Sr0 3.047808 1_564
O18 Ta4 1.848081 1_555
O19 Ta5 1.812494 1_555
O20 Ta6 1.921087 1_555
O20 Ta2 2.088736 1_555
O20 Sr0 2.688660 1_554
O21 Si0 1.702379 1_555
O21 Ta3 2.099134 1_555
O22 Ta3 1.897799 1_545
O22 Ta6 2.112249 1_555
O22 Sr2 2.672077 1_554
O23 Ta2 1.867158 1_555
O23 Sr1 2.572495 1_555
O28 Ta6 2.071462 1_555
O28 Ta4 2.217292 1_554
O28 Sr0 2.532135 1_554
O28 Sr2 2.601037 1_554
O29 Si0 1.699758 1_555
O29 Sr1 2.551409 1_555
O29 Ta5 2.629124 1_554
O30 Ta4 1.959273 1_555
O30 Ta1 2.110791 1_655
O30 Sr0 2.615347 1_655
O30 Sr1 2.675596 1_556
O31 Ta5 1.971607 1_555
O31 Ta0 2.156323 1_665
O31 Sr2 2.541479 1_565
O32 Ta0 1.967574 1_655
O32 Ta4 2.091928 1_555
O32 Sr2 2.574883 1_555
O32 Sr0 2.619315 1_655
O33 Ta1 2.036893 1_655
O33 Ta5 2.076132 1_555
O33 Sr1 2.580865 1_556
O34 Ta6 1.924822 1_555
O35 Si0 1.661113 1_555
