# generated using pymatgen
data_MnS2
_symmetry_space_group_name_H-M   'P 1'
_cell_length_a   6.80700267
_cell_length_b   6.80700726
_cell_length_c   6.80688688
_cell_angle_alpha   60.00051074
_cell_angle_beta   60.00048094
_cell_angle_gamma   60.00070447
_symmetry_Int_Tables_number   1
_chemical_formula_structural   MnS2
_chemical_formula_sum   'Mn4 S8'
_cell_volume   223.02381351
_cell_formula_units_Z   4
loop_
 _symmetry_equiv_pos_site_id
 _symmetry_equiv_pos_as_xyz
  1  'x, y, z'
loop_
 _atom_site_type_symbol
 _atom_site_label
 _atom_site_symmetry_multiplicity
 _atom_site_fract_x
 _atom_site_fract_y
 _atom_site_fract_z
 _atom_site_occupancy
  Mn  Mn0  1  0.62500000  0.62500000  0.12500000  1
  Mn  Mn1  1  0.62500000  0.12500000  0.62500000  1
  Mn  Mn2  1  0.12500000  0.62500000  0.62500000  1
  Mn  Mn3  1  0.62500000  0.62500000  0.62500000  1
  S  S0  1  0.86851850  0.86851650  0.86850946  1
  S  S1  1  0.85554872  0.38147917  0.38148456  1
  S  S2  1  0.38148050  0.38148250  0.85554545  1
  S  S3  1  0.38147817  0.85554772  0.38148556  1
  S  S4  1  0.38148150  0.38148350  0.38149054  1
  S  S5  1  0.39445128  0.86852083  0.86851544  1
  S  S6  1  0.86852183  0.39445228  0.86851444  1
  S  S7  1  0.86851950  0.86851750  0.39445455  1
loop_
_geom_bond_atom_site_label_1
_geom_bond_atom_site_label_2
_geom_bond_distance
_geom_bond_site_symmetry_2
Mn0 S6 2.345879 1_554
Mn0 S3 2.345879 1_555
Mn0 S5 2.345879 1_554
Mn0 S1 2.345879 1_555
Mn0 S0 2.345903 1_554
Mn0 S4 2.345903 1_555
Mn1 S2 2.345857 1_555
Mn1 S7 2.345857 1_545
Mn1 S0 2.345857 1_545
Mn1 S4 2.345857 1_555
Mn1 S5 2.345867 1_545
Mn1 S1 2.345867 1_555
Mn2 S0 2.345847 1_455
Mn2 S4 2.345847 1_555
Mn2 S7 2.345847 1_455
Mn2 S2 2.345847 1_555
Mn2 S6 2.345857 1_455
Mn2 S3 2.345857 1_555
Mn3 S1 2.345894 1_555
Mn3 S5 2.345894 1_555
Mn3 S3 2.345894 1_555
Mn3 S6 2.345894 1_555
Mn3 S7 2.345913 1_555
Mn3 S2 2.345913 1_555
