# generated using pymatgen
data_La7SmMnFe7O20
_symmetry_space_group_name_H-M   'P 1'
_cell_length_a   11.03453164
_cell_length_b   11.82867375
_cell_length_c   17.80188812
_cell_angle_alpha   109.41459859
_cell_angle_beta   108.00320449
_cell_angle_gamma   89.93456515
_symmetry_Int_Tables_number   1
_chemical_formula_structural   La7SmMnFe7O20
_chemical_formula_sum   'La28 Sm4 Mn4 Fe28 O80'
_cell_volume   2070.74183171
_cell_formula_units_Z   4
loop_
 _symmetry_equiv_pos_site_id
 _symmetry_equiv_pos_as_xyz
  1  'x, y, z'
loop_
 _atom_site_type_symbol
 _atom_site_label
 _atom_site_symmetry_multiplicity
 _atom_site_fract_x
 _atom_site_fract_y
 _atom_site_fract_z
 _atom_site_occupancy
  La  La0  1  0.30184500  0.06225200  0.11171800  1
  La  La1  1  0.30535200  0.06404700  0.60961000  1
  La  La2  1  0.30484100  0.56618700  0.61054300  1
  La  La3  1  0.80516900  0.06451800  0.61146600  1
  La  La4  1  0.80482700  0.56480900  0.11085100  1
  La  La5  1  0.80302400  0.56429500  0.61023900  1
  La  La6  1  0.19357100  0.43494100  0.38798700  1
  La  La7  1  0.19184900  0.43592700  0.89277800  1
  La  La8  1  0.19203500  0.93371500  0.38612600  1
  La  La9  1  0.19288900  0.93567600  0.88901800  1
  La  La10  1  0.69359900  0.43534000  0.38831200  1
  La  La11  1  0.69318100  0.93507700  0.38958000  1
  La  La12  1  0.69260100  0.93640700  0.88904100  1
  La  La13  1  0.05367100  0.29697100  0.11140800  1
  La  La14  1  0.05324900  0.29393600  0.60935700  1
  La  La15  1  0.05281600  0.79651700  0.60997900  1
  La  La16  1  0.55511500  0.29600700  0.11137900  1
  La  La17  1  0.55513100  0.29797800  0.61327400  1
  La  La18  1  0.55046400  0.79642200  0.11100200  1
  La  La19  1  0.55487900  0.79643500  0.61133200  1
  La  La20  1  0.44404800  0.20307000  0.38888300  1
  La  La21  1  0.44649900  0.20642500  0.89033400  1
  La  La22  1  0.44293400  0.70254200  0.38693200  1
  La  La23  1  0.44434800  0.70411600  0.88935400  1
  La  La24  1  0.94378600  0.20427500  0.38782000  1
  La  La25  1  0.94052500  0.20396700  0.88929400  1
  La  La26  1  0.94368400  0.70235000  0.38699400  1
  La  La27  1  0.94282600  0.70369800  0.89102800  1
  Sm  Sm0  1  0.30170600  0.56575800  0.10994600  1
  Sm  Sm1  1  0.80253200  0.06605000  0.10812300  1
  Sm  Sm2  1  0.69203000  0.43536400  0.89146900  1
  Sm  Sm3  1  0.05451900  0.79411200  0.11049200  1
  Mn  Mn0  1  0.10861500  0.59585900  0.75043500  1
  Mn  Mn1  1  0.36229600  0.40313900  0.75102800  1
  Mn  Mn2  1  0.36008300  0.90442500  0.75049000  1
  Mn  Mn3  1  0.86003200  0.90386400  0.24701400  1
  Fe  Fe0  1  0.00549400  0.99947500  0.00184000  1
  Fe  Fe1  1  0.00546900  0.99844500  0.49883500  1
  Fe  Fe2  1  0.00504300  0.50163000  0.00115100  1
  Fe  Fe3  1  0.00558800  0.50028900  0.50009900  1
  Fe  Fe4  1  0.50596100  0.99960900  0.00108900  1
  Fe  Fe5  1  0.50489000  0.99972300  0.49945100  1
  Fe  Fe6  1  0.50579600  0.50055700  0.00039200  1
  Fe  Fe7  1  0.50460400  0.49975100  0.49938300  1
  Fe  Fe8  1  0.25555400  0.25064000  0.00160400  1
  Fe  Fe9  1  0.25557200  0.24908300  0.49939000  1
  Fe  Fe10  1  0.25513700  0.74956800  0.00011200  1
  Fe  Fe11  1  0.25553800  0.74972900  0.49928300  1
  Fe  Fe12  1  0.75496200  0.25084600  0.00057300  1
  Fe  Fe13  1  0.75486400  0.24981800  0.49988600  1
  Fe  Fe14  1  0.75742100  0.75111100  0.00193900  1
  Fe  Fe15  1  0.75441000  0.74996400  0.49948100  1
  Fe  Fe16  1  0.10849500  0.10000100  0.24785300  1
  Fe  Fe17  1  0.11218100  0.10382500  0.75087300  1
  Fe  Fe18  1  0.11357000  0.60270200  0.24796400  1
  Fe  Fe19  1  0.61342700  0.10125500  0.24907000  1
  Fe  Fe20  1  0.61298600  0.10470400  0.75054800  1
  Fe  Fe21  1  0.60830000  0.60102200  0.24818100  1
  Fe  Fe22  1  0.61416900  0.60237200  0.75216500  1
  Fe  Fe23  1  0.36085800  0.39812000  0.24807400  1
  Fe  Fe24  1  0.35946900  0.89564600  0.24823300  1
  Fe  Fe25  1  0.86174400  0.39693500  0.24919900  1
  Fe  Fe26  1  0.85971700  0.39812800  0.75153500  1
  Fe  Fe27  1  0.86226900  0.89801900  0.75102800  1
  O  O0  1  0.11577700  0.11696900  0.47794400  1
  O  O1  1  0.11425100  0.11846400  0.97865800  1
  O  O2  1  0.11550500  0.61688100  0.47648600  1
  O  O3  1  0.11663300  0.61994800  0.98121700  1
  O  O4  1  0.61613500  0.11706900  0.47814300  1
  O  O5  1  0.61642700  0.11920300  0.98010200  1
  O  O6  1  0.61562300  0.61705400  0.47875600  1
  O  O7  1  0.61644500  0.61610100  0.97591500  1
  O  O8  1  0.13955500  0.38745200  0.02449800  1
  O  O9  1  0.13621400  0.38156600  0.52091200  1
  O  O10  1  0.13656600  0.88150800  0.02581900  1
  O  O11  1  0.13778600  0.88249900  0.52183800  1
  O  O12  1  0.63558600  0.38286700  0.02102000  1
  O  O13  1  0.63687400  0.38251800  0.52148000  1
  O  O14  1  0.64252600  0.88764800  0.02635800  1
  O  O15  1  0.63771600  0.88325500  0.52105700  1
  O  O16  1  0.36494200  0.10940000  0.47639000  1
  O  O17  1  0.36546100  0.10909300  0.97866900  1
  O  O18  1  0.36544800  0.60995100  0.47666600  1
  O  O19  1  0.36566000  0.60945500  0.98017200  1
  O  O20  1  0.86689300  0.11182100  0.47907800  1
  O  O21  1  0.86452400  0.10973900  0.98104200  1
  O  O22  1  0.86604000  0.61114200  0.47865900  1
  O  O23  1  0.86276500  0.60736800  0.97432800  1
  O  O24  1  0.38579600  0.39207400  0.02507600  1
  O  O25  1  0.38664700  0.38750100  0.52014400  1
  O  O26  1  0.38812000  0.88811700  0.02328700  1
  O  O27  1  0.38771700  0.88782100  0.52096700  1
  O  O28  1  0.88392400  0.38863900  0.01938900  1
  O  O29  1  0.88696400  0.38844100  0.52130100  1
  O  O30  1  0.89153600  0.89162900  0.02844000  1
  O  O31  1  0.88648800  0.88886500  0.52057100  1
  O  O32  1  0.09267800  0.11708100  0.13965000  1
  O  O33  1  0.09145300  0.11375700  0.63986800  1
  O  O34  1  0.10026400  0.61654300  0.13917500  1
  O  O35  1  0.09455200  0.61687000  0.63951900  1
  O  O36  1  0.60160000  0.11489300  0.14047200  1
  O  O37  1  0.59245300  0.11466200  0.63932400  1
  O  O38  1  0.59355000  0.61641200  0.13955300  1
  O  O39  1  0.59223600  0.61326600  0.64105600  1
  O  O40  1  0.45133900  0.38550700  0.35881400  1
  O  O41  1  0.46463300  0.38449000  0.86127800  1
  O  O42  1  0.45075800  0.88510100  0.35940500  1
  O  O43  1  0.45632300  0.88397300  0.86168000  1
  O  O44  1  0.95087000  0.38567200  0.35993100  1
  O  O45  1  0.95374900  0.38522800  0.86108000  1
  O  O46  1  0.95534200  0.88317000  0.35878500  1
  O  O47  1  0.95293200  0.88594300  0.86142100  1
  O  O48  1  0.34325800  0.27157600  0.14014800  1
  O  O49  1  0.34586900  0.27283200  0.63902600  1
  O  O50  1  0.34233600  0.77100500  0.13980100  1
  O  O51  1  0.34601300  0.77374400  0.63920500  1
  O  O52  1  0.84118200  0.27365800  0.13913300  1
  O  O53  1  0.84051700  0.27654800  0.64081700  1
  O  O54  1  0.85695000  0.76975000  0.13962100  1
  O  O55  1  0.84049100  0.77580700  0.64006200  1
  O  O56  1  0.19825200  0.22179200  0.35843900  1
  O  O57  1  0.20360300  0.22560000  0.86123600  1
  O  O58  1  0.20271300  0.72474900  0.35907000  1
  O  O59  1  0.20570900  0.72701800  0.86138600  1
  O  O60  1  0.70202000  0.22422100  0.35966800  1
  O  O61  1  0.70204800  0.22748200  0.86096100  1
  O  O62  1  0.69990100  0.72336500  0.35952200  1
  O  O63  1  0.70427700  0.72801400  0.86156300  1
  O  O64  1  0.42010400  0.06759500  0.25017000  1
  O  O65  1  0.41973100  0.07339800  0.75062500  1
  O  O66  1  0.41249300  0.56963200  0.24429100  1
  O  O67  1  0.41841900  0.57244700  0.74992900  1
  O  O68  1  0.91209100  0.07371200  0.24452900  1
  O  O69  1  0.91866700  0.07055500  0.75088700  1
  O  O70  1  0.92091700  0.56784800  0.24899700  1
  O  O71  1  0.91613800  0.57098400  0.75049900  1
  O  O72  1  0.16834400  0.43036000  0.24954800  1
  O  O73  1  0.16900200  0.42596700  0.75100500  1
  O  O74  1  0.16292200  0.92534900  0.24415700  1
  O  O75  1  0.16766400  0.92968900  0.75028000  1
  O  O76  1  0.66840900  0.43117200  0.25006900  1
  O  O77  1  0.66787600  0.43050100  0.75623200  1
  O  O78  1  0.66824800  0.92747200  0.24972800  1
  O  O79  1  0.66850000  0.93209800  0.75013900  1
loop_
_geom_bond_atom_site_label_1
_geom_bond_atom_site_label_2
_geom_bond_distance
_geom_bond_site_symmetry_2
La0 O48 2.371119 1_555
La0 O64 2.385403 1_555
La0 O10 2.519316 1_545
La0 O26 2.528535 1_545
La0 O32 2.546885 1_555
La0 O17 2.882833 1_554
La0 O1 2.889791 1_554
La1 O49 2.360364 1_555
La1 O65 2.400874 1_555
La1 O27 2.521265 1_545
La1 O11 2.542520 1_545
La1 O33 2.603640 1_555
La1 O16 2.855704 1_555
La1 O0 2.864142 1_555
La1 O37 3.071248 1_555
La2 O51 2.349647 1_555
La2 O67 2.385158 1_555
La2 O25 2.550361 1_555
La2 O35 2.557549 1_555
La2 O9 2.575816 1_555
La2 O18 2.863807 1_555
La2 O2 2.878578 1_555
La2 O39 3.065983 1_555
La3 O69 2.386349 1_555
La3 O53 2.391745 1_555
La3 O31 2.529551 1_545
La3 O15 2.545268 1_545
La3 O37 2.574493 1_555
La3 O20 2.863743 1_555
La3 O4 2.878896 1_555
La3 O33 3.065180 1_655
La4 O54 2.337832 1_555
La4 O70 2.384158 1_555
La4 O28 2.524660 1_555
La4 O12 2.559627 1_555
La4 O38 2.567985 1_555
La4 O7 2.887687 1_554
La4 O23 2.888496 1_554
La4 O34 3.168552 1_655
La5 O55 2.386622 1_555
La5 O71 2.396055 1_555
La5 O29 2.530649 1_555
La5 O13 2.537895 1_555
La5 O39 2.573121 1_555
La5 O6 2.849642 1_555
La5 O22 2.854452 1_555
La5 O35 3.123991 1_655
La6 O72 2.375133 1_555
La6 O56 2.402287 1_555
La6 O18 2.521957 1_555
La6 O2 2.536983 1_555
La6 O44 2.597021 1_455
La6 O25 2.857532 1_555
La6 O9 2.884184 1_555
La6 O40 3.067469 1_555
La7 O57 2.374295 1_555
La7 O73 2.419965 1_555
La7 O19 2.520641 1_555
La7 O3 2.535938 1_555
La7 O45 2.538322 1_455
La7 O8 2.809118 1_556
La7 O24 2.844281 1_556
La7 O41 3.249210 1_555
La8 O58 2.366128 1_555
La8 O74 2.415007 1_555
La8 O16 2.536705 1_565
La8 O46 2.537746 1_455
La8 O0 2.563017 1_565
La8 O27 2.894627 1_555
La8 O11 2.903424 1_555
La8 O42 3.059604 1_555
La9 O59 2.364068 1_555
La9 O75 2.375124 1_555
La9 O17 2.516936 1_565
La9 O1 2.555811 1_565
La9 O47 2.570151 1_455
La9 O26 2.894626 1_556
La9 O10 2.949816 1_556
La9 O43 3.119826 1_555
La10 O76 2.373326 1_555
La10 O60 2.384774 1_555
La10 O22 2.534879 1_555
La10 O6 2.550324 1_555
La10 O40 2.588328 1_555
La10 O29 2.865862 1_555
La10 O13 2.881835 1_555
La10 O44 3.056965 1_555
La11 O62 2.386726 1_555
La11 O78 2.389521 1_555
La11 O4 2.531931 1_565
La11 O20 2.547632 1_565
La11 O42 2.588056 1_555
La11 O31 2.838397 1_555
La11 O15 2.840526 1_555
La11 O46 3.130242 1_555
La12 O63 2.359828 1_555
La12 O79 2.386925 1_555
La12 O21 2.518118 1_565
La12 O43 2.537198 1_555
La12 O5 2.552940 1_565
La12 O14 2.895946 1_556
La12 O30 2.959950 1_556
La12 O47 3.086119 1_555
La13 O32 2.353970 1_555
La13 O72 2.374797 1_555
La13 O8 2.539053 1_555
La13 O52 2.573838 1_455
La13 O28 2.578200 1_455
La13 O1 2.854117 1_554
La13 O21 2.871674 1_454
La13 O48 3.106821 1_555
La14 O33 2.375094 1_555
La14 O73 2.413415 1_555
La14 O9 2.523824 1_555
La14 O29 2.540862 1_455
La14 O53 2.599337 1_455
La14 O20 2.826410 1_455
La14 O0 2.840700 1_555
La14 O49 3.130313 1_555
La15 O35 2.365407 1_555
La15 O75 2.399580 1_555
La15 O11 2.519520 1_555
La15 O31 2.537833 1_455
La15 O55 2.588461 1_455
La15 O22 2.853959 1_455
La15 O2 2.880409 1_555
La15 O51 3.140232 1_555
La16 O76 2.384783 1_555
La16 O36 2.385761 1_555
La16 O12 2.532841 1_555
La16 O24 2.554185 1_555
La16 O48 2.578925 1_555
La16 O5 2.831583 1_554
La16 O17 2.886373 1_554
La16 O52 3.065793 1_555
La17 O37 2.373807 1_555
La17 O77 2.424230 1_555
La17 O49 2.525308 1_555
La17 O13 2.546256 1_555
La17 O25 2.565877 1_555
La17 O4 2.897352 1_555
La17 O16 2.924711 1_555
La17 O53 3.057428 1_555
La18 O38 2.363469 1_555
La18 O78 2.380452 1_555
La18 O26 2.493225 1_555
La18 O50 2.541540 1_555
La18 O14 2.548838 1_555
La18 O19 2.850275 1_554
La18 O7 2.920857 1_554
La19 O79 2.388807 1_555
La19 O39 2.401994 1_555
La19 O51 2.535137 1_555
La19 O27 2.544798 1_555
La19 O15 2.545624 1_555
La19 O6 2.857797 1_555
La19 O18 2.894757 1_555
La19 O55 3.055897 1_555
La20 O64 2.387982 1_555
La20 O40 2.396846 1_555
La20 O4 2.524015 1_555
La20 O16 2.531110 1_555
La20 O56 2.620844 1_555
La20 O25 2.853658 1_555
La20 O13 2.859979 1_555
La20 O60 3.072373 1_555
La21 O41 2.352276 1_555
La21 O65 2.386230 1_555
La21 O5 2.524584 1_555
La21 O17 2.583245 1_555
La21 O57 2.592680 1_555
La21 O12 2.811260 1_556
La21 O24 2.917635 1_556
La21 O61 3.047412 1_555
La22 O42 2.375035 1_555
La22 O66 2.419175 1_555
La22 O18 2.547924 1_555
La22 O6 2.548480 1_555
La22 O58 2.571709 1_555
La22 O27 2.878692 1_555
La22 O15 2.887059 1_555
La22 O62 3.045592 1_555
La23 O43 2.350309 1_555
La23 O67 2.379111 1_555
La23 O7 2.513527 1_555
La23 O59 2.555974 1_555
La23 O19 2.587457 1_555
La23 O26 2.875452 1_556
La23 O14 2.938963 1_556
La23 O63 3.085963 1_555
La24 O44 2.364137 1_555
La24 O68 2.417657 1_555
La24 O0 2.541100 1_655
La24 O20 2.567175 1_555
La24 O60 2.583520 1_555
La24 O9 2.849083 1_655
La24 O29 2.874310 1_555
La24 O56 3.030195 1_655
La25 O45 2.373303 1_555
La25 O69 2.380748 1_555
La25 O1 2.531531 1_655
La25 O61 2.554921 1_555
La25 O21 2.583083 1_555
La25 O28 2.837802 1_556
La25 O8 2.932154 1_656
La25 O57 3.118493 1_655
La26 O46 2.366023 1_555
La26 O70 2.377046 1_555
La26 O2 2.520733 1_655
La26 O22 2.568564 1_555
La26 O62 2.608317 1_555
La26 O11 2.884829 1_655
La26 O31 2.890861 1_555
La26 O58 3.074825 1_655
La27 O47 2.393651 1_555
La27 O71 2.396735 1_555
La27 O23 2.492631 1_555
La27 O3 2.527261 1_655
La27 O63 2.555746 1_555
La27 O10 2.869835 1_656
La27 O30 2.912665 1_556
La27 O59 3.132716 1_655
Mn0 O59 2.028439 1_555
Mn0 O35 2.030100 1_555
Mn0 O73 2.118706 1_555
Mn0 O71 2.144912 1_455
Mn1 O41 2.023150 1_555
Mn1 O49 2.029337 1_555
Mn1 O67 2.105003 1_555
Mn1 O73 2.149519 1_555
Mn2 O51 2.028009 1_555
Mn2 O43 2.030439 1_555
Mn2 O65 2.104034 1_565
Mn2 O75 2.142875 1_555
Mn3 O54 2.028902 1_555
Mn3 O46 2.038313 1_555
Mn3 O68 2.108498 1_565
Mn3 O78 2.147486 1_555
Fe0 O30 2.050888 1_455
Fe0 O21 2.053853 1_464
Fe0 O10 2.056921 1_555
Fe0 O1 2.070665 1_564
Fe0 O32 2.270379 1_565
Fe0 O47 2.293980 1_454
Fe1 O11 2.044418 1_555
Fe1 O31 2.050578 1_455
Fe1 O0 2.053234 1_565
Fe1 O20 2.058367 1_465
Fe1 O46 2.295714 1_455
Fe1 O33 2.306063 1_565
Fe2 O23 2.046051 1_454
Fe2 O8 2.046249 1_555
Fe2 O3 2.050627 1_554
Fe2 O28 2.058817 1_455
Fe2 O34 2.275076 1_555
Fe2 O45 2.297989 1_454
Fe3 O9 2.048958 1_555
Fe3 O22 2.049627 1_455
Fe3 O29 2.060951 1_455
Fe3 O2 2.062561 1_555
Fe3 O35 2.290637 1_555
Fe3 O44 2.291401 1_455
Fe4 O17 2.048558 1_564
Fe4 O14 2.049285 1_555
Fe4 O26 2.062579 1_555
Fe4 O5 2.064802 1_564
Fe4 O43 2.287951 1_554
Fe4 O36 2.294611 1_565
Fe5 O15 2.047749 1_555
Fe5 O16 2.047917 1_565
Fe5 O27 2.053671 1_555
Fe5 O4 2.054058 1_565
Fe5 O42 2.290130 1_555
Fe5 O37 2.290715 1_565
Fe6 O12 2.033264 1_555
Fe6 O19 2.034601 1_554
Fe6 O7 2.068128 1_554
Fe6 O24 2.081223 1_555
Fe6 O38 2.283869 1_555
Fe6 O41 2.295645 1_554
Fe7 O6 2.044870 1_555
Fe7 O18 2.045132 1_555
Fe7 O13 2.052091 1_555
Fe7 O25 2.054572 1_555
Fe7 O40 2.297419 1_555
Fe7 O39 2.311461 1_555
Fe8 O24 2.051447 1_555
Fe8 O1 2.056629 1_554
Fe8 O17 2.070705 1_554
Fe8 O8 2.074286 1_555
Fe8 O48 2.280319 1_555
Fe8 O57 2.298547 1_554
Fe9 O25 2.045026 1_555
Fe9 O16 2.050670 1_555
Fe9 O0 2.052378 1_555
Fe9 O9 2.060409 1_555
Fe9 O49 2.292644 1_555
Fe9 O56 2.298100 1_555
Fe10 O3 2.035792 1_554
Fe10 O26 2.047218 1_555
Fe10 O19 2.057192 1_554
Fe10 O10 2.060975 1_555
Fe10 O59 2.279754 1_554
Fe10 O50 2.297011 1_555
Fe11 O27 2.045167 1_555
Fe11 O11 2.052940 1_555
Fe11 O2 2.053202 1_555
Fe11 O18 2.054605 1_555
Fe11 O58 2.295232 1_555
Fe11 O51 2.296724 1_555
Fe12 O28 2.035075 1_555
Fe12 O5 2.044069 1_554
Fe12 O12 2.054301 1_555
Fe12 O21 2.058598 1_554
Fe12 O52 2.273701 1_555
Fe12 O61 2.289327 1_554
Fe13 O4 2.047934 1_555
Fe13 O29 2.050658 1_555
Fe13 O20 2.050931 1_555
Fe13 O13 2.051901 1_555
Fe13 O60 2.293616 1_555
Fe13 O53 2.301113 1_555
Fe14 O30 2.056240 1_555
Fe14 O7 2.062340 1_554
Fe14 O14 2.067357 1_555
Fe14 O23 2.068060 1_554
Fe14 O54 2.289007 1_555
Fe14 O63 2.303032 1_554
Fe15 O15 2.046934 1_555
Fe15 O31 2.054671 1_555
Fe15 O6 2.055174 1_555
Fe15 O22 2.055258 1_555
Fe15 O62 2.285049 1_555
Fe15 O55 2.298130 1_555
Fe16 O32 1.957656 1_555
Fe16 O56 1.960733 1_555
Fe16 O74 2.136398 1_545
Fe16 O68 2.169586 1_455
Fe17 O33 1.961115 1_555
Fe17 O57 1.961956 1_555
Fe17 O75 2.145778 1_545
Fe17 O69 2.171831 1_455
Fe18 O34 1.958045 1_555
Fe18 O58 1.966245 1_555
Fe18 O72 2.132314 1_555
Fe18 O70 2.172716 1_455
Fe19 O36 1.957508 1_555
Fe19 O60 1.964019 1_555
Fe19 O78 2.144864 1_545
Fe19 O64 2.177733 1_555
Fe20 O61 1.962116 1_555
Fe20 O37 1.965523 1_555
Fe20 O79 2.129285 1_545
Fe20 O65 2.165304 1_555
Fe21 O38 1.959224 1_555
Fe21 O62 1.975499 1_555
Fe21 O76 2.122643 1_555
Fe21 O66 2.168702 1_555
Fe22 O39 1.964926 1_555
Fe22 O63 1.967827 1_555
Fe22 O77 2.134981 1_555
Fe22 O67 2.175260 1_555
Fe23 O48 1.956461 1_555
Fe23 O40 1.970779 1_555
Fe23 O66 2.135936 1_555
Fe23 O72 2.164424 1_555
Fe24 O50 1.954109 1_555
Fe24 O42 1.969393 1_555
Fe24 O64 2.127896 1_565
Fe24 O74 2.179530 1_555
Fe25 O52 1.960486 1_555
Fe25 O44 1.961293 1_555
Fe25 O70 2.126692 1_555
Fe25 O76 2.174801 1_555
Fe26 O45 1.962018 1_555
Fe26 O53 1.963687 1_555
Fe26 O71 2.145610 1_555
Fe26 O77 2.172801 1_555
Fe27 O47 1.963233 1_555
Fe27 O55 1.964346 1_555
Fe27 O69 2.135352 1_565
Fe27 O79 2.171587 1_555
O3 Sm3 2.798211 1_556
O3 Sm0 2.813121 1_556
O5 Sm1 2.804115 1_556
O7 Sm2 2.482023 1_555
O8 Sm0 2.481344 1_555
O10 Sm3 2.458060 1_555
O12 Sm2 2.816591 1_554
O14 Sm1 2.463146 1_565
O19 Sm0 2.811539 1_556
O21 Sm1 2.754547 1_556
O23 Sm2 2.482033 1_555
O23 Sm3 2.917671 1_656
O24 Sm0 2.482562 1_555
O28 Sm2 2.797903 1_554
O30 Sm1 2.478767 1_565
O30 Sm3 2.487989 1_655
O32 Sm1 3.098101 1_455
O34 Sm3 2.340615 1_555
O34 Sm0 2.465080 1_555
O36 Sm1 2.479213 1_555
O38 Sm0 3.122948 1_555
O41 Sm2 2.429400 1_555
O45 Sm2 3.119797 1_555
O50 Sm0 2.318420 1_555
O50 Sm3 3.082527 1_555
O52 Sm1 2.339412 1_555
O54 Sm3 2.429870 1_655
O61 Sm2 2.345713 1_555
O66 Sm0 2.310046 1_555
O68 Sm1 2.324996 1_555
O74 Sm3 2.300391 1_555
O77 Sm2 2.319830 1_555
