# generated using pymatgen
data_CeGa7Fe5
_symmetry_space_group_name_H-M   'P 1'
_cell_length_a   5.04053100
_cell_length_b   6.65146874
_cell_length_c   6.65146874
_cell_angle_alpha   98.00360951
_cell_angle_beta   112.26579075
_cell_angle_gamma   67.73420925
_symmetry_Int_Tables_number   1
_chemical_formula_structural   CeGa7Fe5
_chemical_formula_sum   'Ce1 Ga7 Fe5'
_cell_volume   190.98476634
_cell_formula_units_Z   1
loop_
 _symmetry_equiv_pos_site_id
 _symmetry_equiv_pos_as_xyz
  1  'x, y, z'
loop_
 _atom_site_type_symbol
 _atom_site_label
 _atom_site_symmetry_multiplicity
 _atom_site_fract_x
 _atom_site_fract_y
 _atom_site_fract_z
 _atom_site_occupancy
  Ce  Ce0  1  0.00565900  0.99434100  0.00565900  1
  Ga  Ga0  1  0.65727000  0.34273000  0.65727000  1
  Ga  Ga1  1  0.34023900  0.65976100  0.34023900  1
  Ga  Ga2  1  0.99027700  0.35334200  0.33389600  1
  Ga  Ga3  1  0.99027700  0.66610400  0.64665800  1
  Ga  Ga4  1  0.27250000  0.22750000  0.77250000  1
  Ga  Ga5  1  0.50605400  0.78352800  0.79563500  1
  Ga  Ga6  1  0.50605400  0.20436500  0.21647200  1
  Fe  Fe0  1  0.49611800  0.00106800  0.49927300  1
  Fe  Fe1  1  0.00208600  0.00106800  0.49927300  1
  Fe  Fe2  1  0.49611800  0.50072700  0.99893200  1
  Fe  Fe3  1  0.00208600  0.50072700  0.99893200  1
  Fe  Fe4  1  0.73526200  0.76473800  0.23526200  1
loop_
_geom_bond_atom_site_label_1
_geom_bond_atom_site_label_2
_geom_bond_distance
_geom_bond_site_symmetry_2
Ce0 Ga1 2.905211 1_555
Ce0 Ga2 3.001803 1_465
Ce0 Ga3 3.001803 1_454
Ce0 Ga0 3.025117 1_464
Ce0 Ga6 3.118328 1_465
Ce0 Ga5 3.118328 1_454
Ce0 Ga6 3.118332 1_565
Ce0 Ga5 3.118332 1_554
Ce0 Fe4 3.213486 1_555
Ce0 Fe4 3.213487 1_455
Ce0 Ga4 3.232733 1_464
Ce0 Ga4 3.232734 1_564
Ce0 Fe0 3.284111 1_565
Ce0 Fe2 3.284111 1_554
Ce0 Fe3 3.284113 1_554
Ce0 Fe1 3.284113 1_565
Ce0 Fe1 3.367871 1_564
Ce0 Fe3 3.367871 1_564
Ce0 Fe0 3.367873 1_464
Ce0 Fe2 3.367873 1_464
Ga0 Ga4 2.711615 1_655
Ga0 Ga4 2.711616 1_555
Ga0 Ga1 2.752830 1_555
Ga0 Ga6 2.847978 1_555
Ga0 Ga5 2.847978 1_555
Ga1 Ga5 2.908594 1_555
Ga1 Ga6 2.908594 1_555
Ga2 Ga3 2.729535 1_555
Ga2 Ga6 2.778816 1_555
Ga2 Ga6 2.778821 1_655
Ga2 Ga4 2.804990 1_655
Ga3 Ga5 2.778816 1_555
Ga3 Ga5 2.778821 1_655
Ga3 Ga4 2.804990 1_655
Ga4 Ga5 2.735862 1_545
Ga4 Ga6 2.735862 1_556
Fe0 Ga6 2.490053 1_555
Fe0 Fe1 2.490184 1_555
Fe0 Ga4 2.518984 1_555
Fe0 Fe4 2.531257 1_545
Fe0 Fe1 2.550347 1_655
Fe0 Ga5 2.578091 1_545
Fe0 Ga3 2.584867 1_545
Fe0 Ga1 2.635001 1_545
Fe0 Ga0 2.648711 1_555
Fe0 Ga2 2.695601 1_455
Fe1 Ga6 2.490048 1_455
Fe1 Ga4 2.518986 1_555
Fe1 Fe4 2.531254 1_445
Fe1 Ga5 2.578096 1_545
Fe1 Ga3 2.584865 1_445
Fe1 Ga1 2.635003 1_545
Fe1 Ga0 2.648709 1_455
Fe1 Ga2 2.695604 1_455
Fe2 Ga5 2.490053 1_555
Fe2 Fe3 2.490184 1_555
Fe2 Ga4 2.518984 1_555
Fe2 Fe4 2.531257 1_556
Fe2 Fe3 2.550347 1_655
Fe2 Ga6 2.578091 1_556
Fe2 Ga2 2.584867 1_556
Fe2 Ga1 2.635001 1_556
Fe2 Ga0 2.648711 1_555
Fe2 Ga3 2.695601 1_455
Fe3 Ga5 2.490048 1_455
Fe3 Ga4 2.518986 1_555
Fe3 Fe4 2.531254 1_456
Fe3 Ga6 2.578096 1_556
Fe3 Ga2 2.584865 1_456
Fe3 Ga1 2.635003 1_556
Fe3 Ga0 2.648709 1_455
Fe3 Ga3 2.695604 1_455
Fe4 Ga3 2.601129 1_555
Fe4 Ga2 2.601129 1_555
Fe4 Ga1 2.680043 1_655
Fe4 Ga1 2.680043 1_555
Fe4 Ga6 2.708014 1_565
Fe4 Ga5 2.708014 1_554
