# generated using pymatgen
data_MgAl(Bi3O5)4
_symmetry_space_group_name_H-M   'P 1'
_cell_length_a   9.02287895
_cell_length_b   9.03328659
_cell_length_c   8.90682050
_cell_angle_alpha   109.20760890
_cell_angle_beta   109.17355048
_cell_angle_gamma   109.74579498
_symmetry_Int_Tables_number   1
_chemical_formula_structural   MgAl(Bi3O5)4
_chemical_formula_sum   'Mg1 Al1 Bi12 O20'
_cell_volume   560.80090287
_cell_formula_units_Z   1
loop_
 _symmetry_equiv_pos_site_id
 _symmetry_equiv_pos_as_xyz
  1  'x, y, z'
loop_
 _atom_site_type_symbol
 _atom_site_label
 _atom_site_symmetry_multiplicity
 _atom_site_fract_x
 _atom_site_fract_y
 _atom_site_fract_z
 _atom_site_occupancy
  Mg  Mg0  1  -0.00002812  0.00019628  0.57835152  1
  Al  Al0  1  0.00021144  0.00045299  0.00134132  1
  Bi  Bi0  1  0.80143353  0.63171631  0.50286257  1
  Bi  Bi1  1  0.19128433  0.71380167  0.88287439  1
  Bi  Bi2  1  0.85012173  0.34578657  0.15109012  1
  Bi  Bi3  1  0.65394272  0.50450592  0.80619899  1
  Bi  Bi4  1  0.16584767  0.31406674  0.48975296  1
  Bi  Bi5  1  0.68572888  0.85243960  0.17625195  1
  Bi  Bi6  1  0.36781119  0.16983154  0.87197274  1
  Bi  Bi7  1  0.28670008  0.47860408  0.16927133  1
  Bi  Bi8  1  0.52150889  0.80887500  0.69146180  1
  Bi  Bi9  1  0.14839007  0.83413566  0.32441330  1
  Bi  Bi10  1  0.49510915  0.15104064  0.30220149  1
  Bi  Bi11  1  0.82917037  0.19826847  0.70053098  1
  O  O0  1  0.17913525  0.22039147  0.19848519  1
  O  O1  1  0.77994444  0.95923584  0.97812745  1
  O  O2  1  0.04180476  0.82194825  0.01992445  1
  O  O3  1  0.00124779  0.00078274  0.80289330  1
  O  O4  1  0.72922396  0.81111131  0.42400971  1
  O  O5  1  0.36328954  0.74516291  0.13362617  1
  O  O6  1  0.63249648  0.24338876  0.87892451  1
  O  O7  1  0.75626921  0.38978210  0.63553976  1
  O  O8  1  0.38348230  0.27147658  0.62212620  1
  O  O9  1  0.72802782  0.11238976  0.35198347  1
  O  O10  1  0.18960554  0.91870256  0.61304621  1
  O  O11  1  0.25400029  0.61833697  0.38813458  1
  O  O12  1  0.38184071  0.63616099  0.77032876  1
  O  O13  1  0.88775809  0.61646950  0.23914077  1
  O  O14  1  0.60936290  0.36759178  0.24598229  1
  O  O15  1  0.08114550  0.27058619  0.69425387  1
  O  O16  1  0.59947463  0.60362509  0.60001410  1
  O  O17  1  0.39752104  0.99665122  0.99726397  1
  O  O18  1  0.00350047  0.40084447  0.99990978  1
  O  O19  1  0.00006633  0.00021101  0.34985300  1
loop_
_geom_bond_atom_site_label_1
_geom_bond_atom_site_label_2
_geom_bond_distance
_geom_bond_site_symmetry_2
Mg0 O3 1.994452 1_555
Mg0 O19 2.035519 1_555
Mg0 O15 2.050238 1_555
Mg0 O4 2.050556 1_445
Mg0 O10 2.053912 1_545
Al0 O3 1.771609 1_554
Al0 O1 1.819541 1_444
Al0 O2 1.819905 1_545
Al0 O0 1.819906 1_555
Bi0 O4 2.169239 1_555
Bi0 O14 2.222724 1_555
Bi0 O16 2.236411 1_555
Bi0 O13 2.684116 1_555
Bi0 O7 2.784363 1_555
Bi1 O5 2.118201 1_556
Bi1 O17 2.204147 1_555
Bi1 O2 2.334654 1_556
Bi1 O12 2.436658 1_555
Bi2 O13 2.170576 1_555
Bi2 O6 2.181378 1_554
Bi2 O18 2.274947 1_654
Bi2 O14 2.618739 1_555
Bi3 O8 2.168964 1_555
Bi3 O7 2.183759 1_555
Bi3 O16 2.280832 1_555
Bi3 O6 2.607673 1_555
Bi4 O8 2.163874 1_555
Bi4 O15 2.288743 1_555
Bi4 O19 2.326770 1_555
Bi4 O0 2.507801 1_555
Bi4 O12 2.587285 1_555
Bi5 O9 2.166396 1_565
Bi5 O4 2.288072 1_555
Bi5 O19 2.328088 1_665
Bi5 O1 2.513715 1_554
Bi5 O5 2.583565 1_555
Bi6 O10 2.169654 1_545
Bi6 O6 2.225421 1_555
Bi6 O17 2.236081 1_545
Bi6 O8 2.697889 1_555
Bi6 O14 2.779041 1_556
Bi7 O11 2.119150 1_555
Bi7 O18 2.203729 1_554
Bi7 O0 2.342188 1_555
Bi7 O5 2.428811 1_555
Bi8 O12 2.118914 1_555
Bi8 O16 2.204526 1_555
Bi8 O1 2.338532 1_555
Bi8 O11 2.436651 1_555
Bi9 O13 2.166339 1_455
Bi9 O10 2.284457 1_555
Bi9 O19 2.329199 1_565
Bi9 O2 2.512148 1_555
Bi9 O11 2.580326 1_555
Bi10 O9 2.172736 1_555
Bi10 O14 2.181983 1_555
Bi10 O17 2.281250 1_544
Bi10 O7 2.603113 1_555
Bi11 O15 2.168603 1_655
Bi11 O7 2.222246 1_555
Bi11 O18 2.241087 1_655
Bi11 O9 2.673628 1_555
Bi11 O6 2.784704 1_555
