# generated using pymatgen
data_Sr2MnGaO5
_symmetry_space_group_name_H-M   'P 1'
_cell_length_a   5.47060823
_cell_length_b   5.64279551
_cell_length_c   8.96834556
_cell_angle_alpha   108.54294828
_cell_angle_beta   107.76168673
_cell_angle_gamma   89.79347938
_symmetry_Int_Tables_number   1
_chemical_formula_structural   Sr2MnGaO5
_chemical_formula_sum   'Sr4 Mn2 Ga2 O10'
_cell_volume   248.62354167
_cell_formula_units_Z   2
loop_
 _symmetry_equiv_pos_site_id
 _symmetry_equiv_pos_as_xyz
  1  'x, y, z'
loop_
 _atom_site_type_symbol
 _atom_site_label
 _atom_site_symmetry_multiplicity
 _atom_site_fract_x
 _atom_site_fract_y
 _atom_site_fract_z
 _atom_site_occupancy
  Sr  Sr0  1  0.10973600  0.59604800  0.22236300  1
  Sr  Sr1  1  0.61119300  0.13033300  0.22293200  1
  Sr  Sr2  1  0.88712900  0.40364200  0.77757700  1
  Sr  Sr3  1  0.38823600  0.86956700  0.77708000  1
  Mn  Mn0  1  0.99493600  0.99973400  0.99986500  1
  Mn  Mn1  1  0.49483100  0.50000900  0.99991900  1
  Ga  Ga0  1  0.28583700  0.18162700  0.50370600  1
  Ga  Ga1  1  0.78251000  0.81827000  0.49637100  1
  O  O0  1  0.62805200  0.12143200  0.49943800  1
  O  O1  1  0.12870700  0.87899700  0.50071100  1
  O  O2  1  0.33726200  0.40212700  0.71875700  1
  O  O3  1  0.61930000  0.59797300  0.28134400  1
  O  O4  1  0.82159900  0.79524300  0.70315300  1
  O  O5  1  0.11958000  0.20504000  0.29689300  1
  O  O6  1  0.25454400  0.75639000  0.01293900  1
  O  O7  1  0.23733600  0.23815500  0.98436500  1
  O  O8  1  0.73769500  0.24797600  0.98660900  1
  O  O9  1  0.75551700  0.75743800  0.01597800  1
loop_
_geom_bond_atom_site_label_1
_geom_bond_atom_site_label_2
_geom_bond_distance
_geom_bond_site_symmetry_2
Mn0 O7 1.957568 1_665
Mn0 O9 1.964620 1_556
Mn0 O6 1.975605 1_656
Mn0 O8 1.986541 1_565
Mn0 O4 2.413935 1_555
Mn0 O5 2.416155 1_666
Mn1 O8 1.943502 1_555
Mn1 O6 1.951164 1_556
Mn1 O9 1.980201 1_556
Mn1 O7 1.987726 1_555
Mn1 O2 2.279877 1_555
Mn1 O3 2.281704 1_556
Ga0 O5 1.846784 1_555
Ga0 O2 1.868735 1_555
Ga0 O1 1.903449 1_545
Ga0 O0 1.911166 1_555
Ga1 O4 1.847394 1_555
Ga1 O3 1.869257 1_555
Ga1 O0 1.901318 1_565
Ga1 O1 1.912340 1_655
O0 Sr2 2.469757 1_555
O0 Sr1 2.469836 1_555
O1 Sr3 2.469464 1_555
O1 Sr0 2.469758 1_555
O2 Sr3 2.519415 1_555
O2 Sr2 2.670541 1_455
O2 Sr2 2.890713 1_555
O2 Sr3 3.207314 1_545
O3 Sr1 2.519343 1_555
O3 Sr0 2.673516 1_555
O3 Sr0 2.887963 1_655
O3 Sr1 3.207206 1_565
O4 Sr2 2.498657 1_555
O4 Sr3 2.647817 1_555
O4 Sr3 2.967007 1_655
O5 Sr0 2.496589 1_555
O5 Sr1 2.656643 1_455
O5 Sr1 2.958556 1_555
O6 Sr0 2.639611 1_555
O6 Sr1 2.658247 1_565
O6 Sr3 2.687669 1_554
O6 Sr2 2.688043 1_454
O7 Sr2 2.627284 1_455
O7 Sr3 2.632099 1_545
O7 Sr0 2.697930 1_556
O7 Sr1 2.698145 1_556
O8 Sr2 2.634732 1_555
O8 Sr3 2.651591 1_545
O8 Sr1 2.684143 1_556
O8 Sr0 2.689332 1_656
O9 Sr0 2.623246 1_655
O9 Sr1 2.625625 1_565
O9 Sr3 2.693399 1_554
O9 Sr2 2.699874 1_554
