# generated using pymatgen
data_Dy5Pt4
_symmetry_space_group_name_H-M   'P 1'
_cell_length_a   7.46947194
_cell_length_b   7.55945005
_cell_length_c   14.52238919
_cell_angle_alpha   90.00000000
_cell_angle_beta   90.00000000
_cell_angle_gamma   89.99872503
_symmetry_Int_Tables_number   1
_chemical_formula_structural   Dy5Pt4
_chemical_formula_sum   'Dy20 Pt16'
_cell_volume   820.00815819
_cell_formula_units_Z   4
loop_
 _symmetry_equiv_pos_site_id
 _symmetry_equiv_pos_as_xyz
  1  'x, y, z'
loop_
 _atom_site_type_symbol
 _atom_site_label
 _atom_site_symmetry_multiplicity
 _atom_site_fract_x
 _atom_site_fract_y
 _atom_site_fract_z
 _atom_site_occupancy
  Dy  Dy0  1  0.65374940  0.16757109  0.62198967  1
  Dy  Dy1  1  0.15376151  0.33244435  0.87801552  1
  Dy  Dy2  1  0.34625060  0.83242891  0.12198967  1
  Dy  Dy3  1  0.84623849  0.66755565  0.37801552  1
  Dy  Dy4  1  0.34625060  0.83242891  0.37801033  1
  Dy  Dy5  1  0.84623849  0.66755565  0.12198448  1
  Dy  Dy6  1  0.65374940  0.16757109  0.87801033  1
  Dy  Dy7  1  0.15376151  0.33244435  0.62198448  1
  Dy  Dy8  1  0.49932916  0.67979207  0.59397807  1
  Dy  Dy9  1  0.99932728  0.82018541  0.90602198  1
  Dy  Dy10  1  0.50067084  0.32020793  0.09397807  1
  Dy  Dy11  1  0.00067272  0.17981459  0.40602198  1
  Dy  Dy12  1  0.50067084  0.32020793  0.40602193  1
  Dy  Dy13  1  0.00067272  0.17981459  0.09397802  1
  Dy  Dy14  1  0.49932916  0.67979207  0.90602193  1
  Dy  Dy15  1  0.99932728  0.82018541  0.59397802  1
  Dy  Dy16  1  0.81566607  0.51171037  0.75000000  1
  Dy  Dy17  1  0.31566047  0.98827068  0.75000000  1
  Dy  Dy18  1  0.18433393  0.48828963  0.25000000  1
  Dy  Dy19  1  0.68433953  0.01172932  0.25000000  1
  Pt  Pt0  1  0.68576533  0.96796223  0.45840076  1
  Pt  Pt1  1  0.18577167  0.53205722  0.04158630  1
  Pt  Pt2  1  0.31423467  0.03203777  0.95840076  1
  Pt  Pt3  1  0.81422833  0.46794278  0.54158630  1
  Pt  Pt4  1  0.31423467  0.03203777  0.54159924  1
  Pt  Pt5  1  0.81422833  0.46794278  0.95841370  1
  Pt  Pt6  1  0.68576533  0.96796223  0.04159924  1
  Pt  Pt7  1  0.18577167  0.53205722  0.45841370  1
  Pt  Pt8  1  0.44968331  0.38662534  0.75000000  1
  Pt  Pt9  1  0.94967964  0.11341082  0.75000000  1
  Pt  Pt10  1  0.55031669  0.61337466  0.25000000  1
  Pt  Pt11  1  0.05032036  0.88658918  0.25000000  1
  Pt  Pt12  1  0.68282416  0.85888145  0.75000000  1
  Pt  Pt13  1  0.18279260  0.64110836  0.75000000  1
  Pt  Pt14  1  0.31717584  0.14111855  0.25000000  1
  Pt  Pt15  1  0.81720740  0.35889164  0.25000000  1
loop_
_geom_bond_atom_site_label_1
_geom_bond_atom_site_label_2
_geom_bond_distance
_geom_bond_site_symmetry_2
Dy0 Pt3 2.820677 1_555
Dy0 Pt0 2.824537 1_545
Dy0 Pt9 2.917119 1_555
Dy0 Pt8 2.919130 1_555
Dy0 Pt4 2.973899 1_555
Dy0 Pt12 2.991390 1_545
Dy0 Dy17 3.416227 1_545
Dy0 Dy16 3.418571 1_555
Dy1 Pt2 2.820719 1_555
Dy1 Pt1 2.824334 1_556
Dy1 Pt8 2.917155 1_555
Dy1 Pt9 2.919189 1_455
Dy1 Pt5 2.973931 1_455
Dy1 Pt13 2.991270 1_555
Dy1 Dy16 3.416156 1_455
Dy1 Dy17 3.418722 1_545
Dy2 Pt1 2.820677 1_555
Dy2 Pt2 2.824537 1_564
Dy2 Pt11 2.917119 1_555
Dy2 Pt10 2.919130 1_555
Dy2 Pt6 2.973899 1_555
Dy2 Pt14 2.991390 1_565
Dy3 Pt0 2.820719 1_555
Dy3 Pt3 2.824334 1_555
Dy3 Pt10 2.917155 1_555
Dy3 Pt11 2.919189 1_655
Dy3 Pt7 2.973931 1_655
Dy3 Pt15 2.991270 1_555
Dy4 Pt7 2.820677 1_555
Dy4 Pt4 2.824537 1_565
Dy4 Pt11 2.917119 1_555
Dy4 Pt10 2.919130 1_555
Dy4 Pt0 2.973899 1_555
Dy4 Pt14 2.991390 1_565
Dy5 Pt6 2.820719 1_555
Dy5 Pt5 2.824334 1_554
Dy5 Pt10 2.917155 1_555
Dy5 Pt11 2.919189 1_655
Dy5 Pt1 2.973931 1_655
Dy5 Pt15 2.991270 1_555
Dy6 Pt5 2.820677 1_555
Dy6 Pt6 2.824537 1_546
Dy6 Pt9 2.917119 1_555
Dy6 Pt8 2.919130 1_555
Dy6 Pt2 2.973899 1_555
Dy6 Pt12 2.991390 1_545
Dy7 Pt4 2.820719 1_555
Dy7 Pt7 2.824334 1_555
Dy7 Pt8 2.917155 1_555
Dy7 Pt9 2.919189 1_455
Dy7 Pt3 2.973931 1_455
Dy7 Pt13 2.991270 1_555
Dy8 Pt3 2.945494 1_555
Dy8 Pt12 2.974118 1_555
Dy8 Pt4 3.095211 1_565
Dy8 Pt8 3.191066 1_555
Dy8 Pt0 3.249841 1_555
Dy8 Pt7 3.257096 1_555
Dy8 Pt13 3.287803 1_555
Dy9 Pt2 2.945564 1_665
Dy9 Pt13 2.973946 1_655
Dy9 Pt5 3.095305 1_555
Dy9 Pt9 3.191365 1_565
Dy9 Pt1 3.249499 1_656
Dy9 Pt6 3.257306 1_556
Dy9 Pt12 3.287623 1_555
Dy10 Pt1 2.945494 1_555
Dy10 Pt14 2.974118 1_555
Dy10 Pt6 3.095211 1_545
Dy10 Pt10 3.191066 1_555
Dy10 Pt2 3.249841 1_554
Dy10 Pt5 3.257096 1_554
Dy10 Pt15 3.287803 1_555
Dy10 Dy18 3.511603 1_555
Dy10 Dy19 3.528992 1_555
Dy11 Pt0 2.945564 1_445
Dy11 Pt15 2.973946 1_455
Dy11 Pt7 3.095305 1_555
Dy11 Pt11 3.191365 1_545
Dy11 Pt3 3.249499 1_455
Dy11 Pt4 3.257306 1_555
Dy11 Pt14 3.287623 1_555
Dy11 Dy19 3.511633 1_455
Dy11 Dy18 3.528993 1_555
Dy12 Pt7 2.945494 1_555
Dy12 Pt14 2.974118 1_555
Dy12 Pt0 3.095211 1_545
Dy12 Pt10 3.191066 1_555
Dy12 Pt4 3.249841 1_555
Dy12 Pt3 3.257096 1_555
Dy12 Pt15 3.287803 1_555
Dy12 Dy18 3.511603 1_555
Dy12 Dy19 3.528992 1_555
Dy13 Pt6 2.945564 1_445
Dy13 Pt15 2.973946 1_455
Dy13 Pt1 3.095305 1_555
Dy13 Pt11 3.191365 1_545
Dy13 Pt5 3.249499 1_454
Dy13 Pt2 3.257306 1_554
Dy13 Pt14 3.287623 1_555
Dy13 Dy19 3.511633 1_455
Dy13 Dy18 3.528993 1_555
Dy14 Pt5 2.945494 1_555
Dy14 Pt12 2.974118 1_555
Dy14 Pt2 3.095211 1_565
Dy14 Pt8 3.191066 1_555
Dy14 Pt6 3.249841 1_556
Dy14 Pt1 3.257096 1_556
Dy14 Pt13 3.287803 1_555
Dy14 Dy16 3.511603 1_555
Dy14 Dy17 3.528992 1_555
Dy15 Pt4 2.945564 1_665
Dy15 Pt13 2.973946 1_655
Dy15 Pt3 3.095305 1_555
Dy15 Pt9 3.191365 1_565
Dy15 Pt7 3.249499 1_655
Dy15 Pt0 3.257306 1_555
Dy15 Pt12 3.287623 1_555
Dy15 Dy17 3.511633 1_655
Dy15 Dy16 3.528993 1_555
Dy16 Pt12 2.805718 1_555
Dy16 Pt8 2.892634 1_555
Dy16 Pt13 2.911501 1_655
Dy16 Pt5 3.044714 1_555
Dy16 Pt3 3.044714 1_555
Dy16 Pt9 3.172942 1_555
Dy16 Dy7 3.416156 1_655
Dy16 Dy6 3.418571 1_555
Dy16 Dy8 3.511603 1_555
Dy16 Dy9 3.528993 1_555
Dy17 Pt13 2.805766 1_555
Dy17 Pt9 2.892717 1_465
Dy17 Pt12 2.911699 1_555
Dy17 Pt4 3.044526 1_565
Dy17 Pt2 3.044526 1_565
Dy17 Pt8 3.173401 1_565
Dy17 Dy6 3.416227 1_565
Dy17 Dy7 3.418722 1_565
Dy17 Dy9 3.511633 1_455
Dy17 Dy8 3.528992 1_555
Dy18 Pt14 2.805718 1_555
Dy18 Pt10 2.892634 1_555
Dy18 Pt15 2.911501 1_455
Dy18 Pt7 3.044714 1_555
Dy18 Pt1 3.044714 1_555
Dy18 Pt11 3.172942 1_555
Dy18 Dy3 3.416156 1_455
Dy18 Dy5 3.416156 1_455
Dy18 Dy4 3.418571 1_555
Dy18 Dy2 3.418571 1_555
Dy19 Pt15 2.805766 1_555
Dy19 Pt11 2.892717 1_645
Dy19 Pt14 2.911699 1_555
Dy19 Pt0 3.044526 1_545
Dy19 Pt6 3.044526 1_545
Dy19 Pt10 3.173401 1_545
Dy19 Dy2 3.416227 1_545
Dy19 Dy4 3.416227 1_545
Dy19 Dy3 3.418722 1_545
Dy19 Dy5 3.418722 1_545
Pt0 Pt4 3.065256 1_565
Pt1 Pt5 3.065260 1_454
Pt2 Pt6 3.065256 1_546
Pt3 Pt7 3.065260 1_655
Pt10 Pt15 2.770347 1_555
Pt11 Pt14 2.770463 1_565
Pt12 Pt9 2.770463 1_565
Pt13 Pt8 2.770347 1_555
