# generated using pymatgen
data_LaUO4
_symmetry_space_group_name_H-M   'P 1'
_cell_length_a   6.66860698
_cell_length_b   6.66860698
_cell_length_c   6.66860751
_cell_angle_alpha   34.10674513
_cell_angle_beta   34.10674513
_cell_angle_gamma   34.10673997
_symmetry_Int_Tables_number   1
_chemical_formula_structural   LaUO4
_chemical_formula_sum   'La1 U1 O4'
_cell_volume   83.13066205
_cell_formula_units_Z   1
loop_
 _symmetry_equiv_pos_site_id
 _symmetry_equiv_pos_as_xyz
  1  'x, y, z'
loop_
 _atom_site_type_symbol
 _atom_site_label
 _atom_site_symmetry_multiplicity
 _atom_site_fract_x
 _atom_site_fract_y
 _atom_site_fract_z
 _atom_site_occupancy
  La  La0  1  -0.00000000  -0.00000000  0.00000000  1
  U  U0  1  0.50000000  0.50000000  0.50000000  1
  O  O0  1  0.61381653  0.61381653  0.61381653  1
  O  O1  1  0.13446263  0.13446263  0.13446263  1
  O  O2  1  0.86553737  0.86553737  0.86553737  1
  O  O3  1  0.38618347  0.38618347  0.38618347  1
loop_
_geom_bond_atom_site_label_1
_geom_bond_atom_site_label_2
_geom_bond_distance
_geom_bond_site_symmetry_2
La0 O0 2.467619 1_544
La0 O0 2.467619 1_454
La0 O3 2.467619 1_545
La0 O3 2.467619 1_455
La0 O0 2.467620 1_445
La0 O3 2.467620 1_554
La0 O1 2.531107 1_555
La0 O2 2.531107 1_444
O0 U0 2.142467 1_555
O1 U0 2.338143 1_545
O1 U0 2.338143 1_455
O1 U0 2.338144 1_554
O2 U0 2.338143 1_565
O2 U0 2.338143 1_655
O2 U0 2.338144 1_556
O3 U0 2.142467 1_555
