# generated using pymatgen
data_Li5Mo15S19
_symmetry_space_group_name_H-M   'P 1'
_cell_length_a   9.46041542
_cell_length_b   9.46089060
_cell_length_c   18.97695391
_cell_angle_alpha   90.00000000
_cell_angle_beta   90.00000000
_cell_angle_gamma   119.96435271
_symmetry_Int_Tables_number   1
_chemical_formula_structural   Li5Mo15S19
_chemical_formula_sum   'Li10 Mo30 S38'
_cell_volume   1471.48300856
_cell_formula_units_Z   2
loop_
 _symmetry_equiv_pos_site_id
 _symmetry_equiv_pos_as_xyz
  1  'x, y, z'
loop_
 _atom_site_type_symbol
 _atom_site_label
 _atom_site_symmetry_multiplicity
 _atom_site_fract_x
 _atom_site_fract_y
 _atom_site_fract_z
 _atom_site_occupancy
  Li  Li0  1  0.66645822  0.33327499  0.59339401  1
  Li  Li1  1  0.33354178  0.66672501  0.09339401  1
  Li  Li2  1  0.33354178  0.66672501  0.40660599  1
  Li  Li3  1  0.66645822  0.33327499  0.90660599  1
  Li  Li4  1  0.84083507  0.78462648  0.75000000  1
  Li  Li5  1  0.21532897  0.05624852  0.75000000  1
  Li  Li6  1  0.94374761  0.15909180  0.75000000  1
  Li  Li7  1  0.15916493  0.21537352  0.25000000  1
  Li  Li8  1  0.78467103  0.94375148  0.25000000  1
  Li  Li9  1  0.05625239  0.84090820  0.25000000  1
  Mo  Mo0  1  0.15771652  0.98640539  0.55849682  1
  Mo  Mo1  1  0.01370271  0.17176397  0.55866380  1
  Mo  Mo2  1  0.82777823  0.84103523  0.55889726  1
  Mo  Mo3  1  0.84228348  0.01359461  0.05849682  1
  Mo  Mo4  1  0.98629729  0.82823603  0.05866380  1
  Mo  Mo5  1  0.17222177  0.15896477  0.05889726  1
  Mo  Mo6  1  0.84228348  0.01359461  0.44150318  1
  Mo  Mo7  1  0.98629729  0.82823603  0.44133620  1
  Mo  Mo8  1  0.17222177  0.15896477  0.44110274  1
  Mo  Mo9  1  0.15771652  0.98640539  0.94150318  1
  Mo  Mo10  1  0.01370271  0.17176397  0.94133620  1
  Mo  Mo11  1  0.82777823  0.84103523  0.94110274  1
  Mo  Mo12  1  0.18439557  0.68981243  0.63095052  1
  Mo  Mo13  1  0.31011297  0.49455323  0.63099430  1
  Mo  Mo14  1  0.50531884  0.81546095  0.63097069  1
  Mo  Mo15  1  0.81560443  0.31018757  0.13095052  1
  Mo  Mo16  1  0.68988703  0.50544677  0.13099430  1
  Mo  Mo17  1  0.49468116  0.18453905  0.13097069  1
  Mo  Mo18  1  0.81560443  0.31018757  0.36904948  1
  Mo  Mo19  1  0.68988703  0.50544677  0.36900570  1
  Mo  Mo20  1  0.49468116  0.18453905  0.36902931  1
  Mo  Mo21  1  0.18439557  0.68981243  0.86904948  1
  Mo  Mo22  1  0.31011297  0.49455323  0.86900570  1
  Mo  Mo23  1  0.50531884  0.81546095  0.86902931  1
  Mo  Mo24  1  0.35490334  0.84178548  0.75000000  1
  Mo  Mo25  1  0.15796733  0.51306117  0.75000000  1
  Mo  Mo26  1  0.48661703  0.64486933  0.75000000  1
  Mo  Mo27  1  0.64509666  0.15821452  0.25000000  1
  Mo  Mo28  1  0.84203267  0.48693883  0.25000000  1
  Mo  Mo29  1  0.51338297  0.35513067  0.25000000  1
  S  S0  1  0.99952957  0.99974702  0.65870200  1
  S  S1  1  0.00047043  0.00025298  0.15870200  1
  S  S2  1  0.00047043  0.00025298  0.34129800  1
  S  S3  1  0.99952957  0.99974702  0.84129800  1
  S  S4  1  0.66665871  0.33338452  0.03259344  1
  S  S5  1  0.33334129  0.66661548  0.53259344  1
  S  S6  1  0.33334129  0.66661548  0.96740656  1
  S  S7  1  0.66665871  0.33338452  0.46740656  1
  S  S8  1  0.05540724  0.70719632  0.75000000  1
  S  S9  1  0.29287617  0.34826958  0.75000000  1
  S  S10  1  0.65156135  0.94449673  0.75000000  1
  S  S11  1  0.94459276  0.29280368  0.25000000  1
  S  S12  1  0.70712383  0.65173042  0.25000000  1
  S  S13  1  0.34843865  0.05550327  0.25000000  1
  S  S14  1  0.96839719  0.68461533  0.55091119  1
  S  S15  1  0.31515955  0.28423932  0.55063076  1
  S  S16  1  0.71630006  0.03072745  0.55116081  1
  S  S17  1  0.03160281  0.31538467  0.05091119  1
  S  S18  1  0.68484045  0.71576068  0.05063076  1
  S  S19  1  0.28369994  0.96927255  0.05116081  1
  S  S20  1  0.03160281  0.31538467  0.44908881  1
  S  S21  1  0.68484045  0.71576068  0.44936924  1
  S  S22  1  0.28369994  0.96927255  0.44883919  1
  S  S23  1  0.96839719  0.68461533  0.94908881  1
  S  S24  1  0.31515955  0.28423932  0.94936924  1
  S  S25  1  0.71630006  0.03072745  0.94883919  1
  S  S26  1  0.38081325  0.99441441  0.64022009  1
  S  S27  1  0.00551419  0.38660996  0.64024108  1
  S  S28  1  0.61325802  0.61861467  0.64027320  1
  S  S29  1  0.61918675  0.00558559  0.14022009  1
  S  S30  1  0.99448581  0.61339004  0.14024108  1
  S  S31  1  0.38674198  0.38138533  0.14027320  1
  S  S32  1  0.61918675  0.00558559  0.35977991  1
  S  S33  1  0.99448581  0.61339004  0.35975892  1
  S  S34  1  0.38674198  0.38138533  0.35972680  1
  S  S35  1  0.38081325  0.99441441  0.85977991  1
  S  S36  1  0.00551419  0.38660996  0.85975892  1
  S  S37  1  0.61325802  0.61861467  0.85972680  1
loop_
_geom_bond_atom_site_label_1
_geom_bond_atom_site_label_2
_geom_bond_distance
_geom_bond_site_symmetry_2
Li0 S7 2.390859 1_555
Li1 S6 2.390859 1_554
Li2 S5 2.390859 1_555
Li3 S4 2.390859 1_556
Li4 S8 2.478458 1_655
Li4 S3 2.519056 1_555
Li4 S0 2.519056 1_555
Li4 S37 2.839045 1_555
Li4 S28 2.839045 1_555
Li4 S10 2.863456 1_555
Li4 Mo26 2.924337 1_555
Li5 S9 2.479212 1_555
Li5 S3 2.522954 1_445
Li5 S0 2.522954 1_445
Li5 S35 2.836924 1_545
Li5 S26 2.836924 1_545
Li5 S8 2.864194 1_545
Li5 Mo24 2.921765 1_545
Li6 S10 2.481285 1_545
Li6 S3 2.519452 1_545
Li6 S0 2.519452 1_545
Li6 S27 2.838450 1_655
Li6 S36 2.838450 1_655
Li6 S9 2.864852 1_655
Li6 Mo25 2.922758 1_655
Li7 S11 2.478458 1_455
Li7 S2 2.519056 1_555
Li7 S1 2.519056 1_555
Li7 S34 2.839045 1_555
Li7 S31 2.839045 1_555
Li7 S13 2.863456 1_555
Li7 Mo29 2.924337 1_555
Li8 S12 2.479212 1_555
Li8 S2 2.522954 1_665
Li8 S1 2.522954 1_665
Li8 S32 2.836924 1_565
Li8 S29 2.836924 1_565
Li8 S11 2.864194 1_565
Li8 Mo27 2.921765 1_565
Li9 S13 2.481285 1_565
Li9 S2 2.519452 1_565
Li9 S1 2.519452 1_565
Li9 S33 2.838450 1_455
Li9 S30 2.838450 1_455
Li9 S12 2.864852 1_455
Li9 Mo28 2.922758 1_455
Mo0 S22 2.443400 1_555
Mo0 S15 2.447078 1_565
Mo0 S0 2.461751 1_455
Mo0 S14 2.504488 1_455
Mo0 S26 2.589543 1_555
Mo1 S16 2.442668 1_455
Mo1 S20 2.443156 1_555
Mo1 S0 2.460191 1_445
Mo1 S15 2.501493 1_555
Mo1 S27 2.586788 1_555
Mo2 S14 2.439117 1_555
Mo2 S21 2.439780 1_555
Mo2 S0 2.458620 1_555
Mo2 S16 2.499050 1_565
Mo2 S28 2.581769 1_555
Mo3 S25 2.443400 1_554
Mo3 S18 2.447078 1_545
Mo3 S1 2.461751 1_655
Mo3 S17 2.504488 1_655
Mo3 S29 2.589543 1_555
Mo4 S19 2.442668 1_655
Mo4 S23 2.443156 1_554
Mo4 S1 2.460191 1_665
Mo4 S18 2.501493 1_555
Mo4 S30 2.586788 1_555
Mo5 S17 2.439117 1_555
Mo5 S24 2.439780 1_554
Mo5 S1 2.458620 1_555
Mo5 S19 2.499050 1_545
Mo5 S31 2.581769 1_555
Mo6 S16 2.443400 1_555
Mo6 S21 2.447078 1_545
Mo6 S2 2.461751 1_655
Mo6 S20 2.504488 1_655
Mo6 S32 2.589543 1_555
Mo7 S22 2.442668 1_655
Mo7 S14 2.443156 1_555
Mo7 S2 2.460191 1_665
Mo7 S21 2.501493 1_555
Mo7 S33 2.586788 1_555
Mo8 S20 2.439117 1_555
Mo8 S15 2.439780 1_555
Mo8 S2 2.458620 1_555
Mo8 S22 2.499050 1_545
Mo8 S34 2.581769 1_555
Mo9 S19 2.443400 1_556
Mo9 S24 2.447078 1_565
Mo9 S3 2.461751 1_455
Mo9 S23 2.504488 1_455
Mo9 S35 2.589543 1_555
Mo10 S25 2.442668 1_455
Mo10 S17 2.443156 1_556
Mo10 S3 2.460191 1_445
Mo10 S24 2.501493 1_555
Mo10 S36 2.586788 1_555
Mo11 S23 2.439117 1_555
Mo11 S18 2.439780 1_556
Mo11 S3 2.458620 1_555
Mo11 S25 2.499050 1_565
Mo11 S37 2.581769 1_555
Mo12 S5 2.413813 1_555
Mo12 S27 2.504872 1_555
Mo12 S14 2.526805 1_455
Mo12 S26 2.537607 1_555
Mo12 S8 2.611626 1_555
Mo13 S5 2.414100 1_555
Mo13 S28 2.504174 1_555
Mo13 S15 2.526282 1_555
Mo13 S27 2.537293 1_555
Mo13 S9 2.610891 1_555
Mo14 S5 2.413872 1_555
Mo14 S26 2.505336 1_555
Mo14 S16 2.522877 1_565
Mo14 S28 2.538091 1_555
Mo14 S10 2.611422 1_555
Mo15 S4 2.413813 1_555
Mo15 S30 2.504872 1_555
Mo15 S17 2.526805 1_655
Mo15 S29 2.537607 1_555
Mo15 S11 2.611626 1_555
Mo16 S4 2.414100 1_555
Mo16 S31 2.504174 1_555
Mo16 S18 2.526282 1_555
Mo16 S30 2.537293 1_555
Mo16 S12 2.610891 1_555
Mo17 S4 2.413872 1_555
Mo17 S29 2.505336 1_555
Mo17 S19 2.522877 1_545
Mo17 S31 2.538091 1_555
Mo17 S13 2.611422 1_555
Mo18 S7 2.413813 1_555
Mo18 S33 2.504872 1_555
Mo18 S20 2.526805 1_655
Mo18 S32 2.537607 1_555
Mo18 S11 2.611626 1_555
Mo19 S7 2.414100 1_555
Mo19 S34 2.504174 1_555
Mo19 S21 2.526282 1_555
Mo19 S33 2.537293 1_555
Mo19 S12 2.610891 1_555
Mo20 S7 2.413872 1_555
Mo20 S32 2.505336 1_555
Mo20 S22 2.522877 1_545
Mo20 S34 2.538091 1_555
Mo20 S13 2.611422 1_555
Mo21 S6 2.413813 1_555
Mo21 S36 2.504872 1_555
Mo21 S23 2.526805 1_455
Mo21 S35 2.537607 1_555
Mo21 S8 2.611626 1_555
Mo22 S6 2.414100 1_555
Mo22 S37 2.504174 1_555
Mo22 S24 2.526282 1_555
Mo22 S36 2.537293 1_555
Mo22 S9 2.610891 1_555
Mo23 S6 2.413872 1_555
Mo23 S35 2.505336 1_555
Mo23 S25 2.522877 1_565
Mo23 S37 2.538091 1_555
Mo23 S10 2.611422 1_555
Mo24 S8 2.458734 1_555
Mo24 S10 2.469111 1_555
Mo24 S35 2.476238 1_555
Mo24 S26 2.476238 1_555
Mo25 S9 2.459133 1_555
Mo25 S8 2.468804 1_555
Mo25 S27 2.475120 1_555
Mo25 S36 2.475120 1_555
Mo26 S10 2.460093 1_555
Mo26 S9 2.468993 1_555
Mo26 S37 2.475934 1_555
Mo26 S28 2.475934 1_555
Mo27 S11 2.458734 1_555
Mo27 S13 2.469111 1_555
Mo27 S32 2.476238 1_555
Mo27 S29 2.476238 1_555
Mo28 S12 2.459133 1_555
Mo28 S11 2.468804 1_555
Mo28 S33 2.475120 1_555
Mo28 S30 2.475120 1_555
Mo29 S13 2.460093 1_555
Mo29 S12 2.468993 1_555
Mo29 S34 2.475934 1_555
Mo29 S31 2.475934 1_555
