# generated using pymatgen
data_Sr2Pr2MgFe2(RuO6)2
_symmetry_space_group_name_H-M   'P 1'
_cell_length_a   5.66310167
_cell_length_b   5.53468715
_cell_length_c   8.94874161
_cell_angle_alpha   90.14591371
_cell_angle_beta   95.75192054
_cell_angle_gamma   90.96375263
_symmetry_Int_Tables_number   1
_chemical_formula_structural   Sr2Pr2MgFe2(RuO6)2
_chemical_formula_sum   'Sr2 Pr2 Mg1 Fe2 Ru2 O12'
_cell_volume   279.03064715
_cell_formula_units_Z   1
loop_
 _symmetry_equiv_pos_site_id
 _symmetry_equiv_pos_as_xyz
  1  'x, y, z'
loop_
 _atom_site_type_symbol
 _atom_site_label
 _atom_site_symmetry_multiplicity
 _atom_site_fract_x
 _atom_site_fract_y
 _atom_site_fract_z
 _atom_site_occupancy
  Sr  Sr0  1  0.42476100  0.51697000  0.78841800  1
  Sr  Sr1  1  0.99412900  0.01980900  0.23505900  1
  Pr  Pr0  1  0.89395100  0.03027700  0.83182300  1
  Pr  Pr1  1  0.47421200  0.47893900  0.24825800  1
  Mg  Mg0  1  0.21523700  0.02199100  0.59328300  1
  Fe  Fe0  1  0.96775600  0.52020400  0.04466900  1
  Fe  Fe1  1  0.61199700  0.97098700  0.46062500  1
  Ru  Ru0  1  0.04898700  0.50269700  0.48354000  1
  Ru  Ru1  1  0.45943900  0.99612800  0.00878500  1
  O  O0  1  0.04627500  0.33530100  0.68288600  1
  O  O1  1  0.46448200  0.04858700  0.77383600  1
  O  O2  1  0.03760900  0.58620400  0.25473100  1
  O  O3  1  0.50094900  0.90872300  0.23691200  1
  O  O4  1  0.26128800  0.23320200  0.42113800  1
  O  O5  1  0.72910700  0.25289200  0.03956400  1
  O  O6  1  0.70097500  0.73453000  0.98464200  1
  O  O7  1  0.35543800  0.70656500  0.51831400  1
  O  O8  1  0.90220500  0.82581000  0.58072900  1
  O  O9  1  0.17803300  0.76123000  0.95989200  1
  O  O10  1  0.21933100  0.26436100  0.03481100  1
  O  O11  1  0.76383600  0.29649800  0.41809000  1
loop_
_geom_bond_atom_site_label_1
_geom_bond_atom_site_label_2
_geom_bond_distance
_geom_bond_site_symmetry_2
Mg0 O4 1.971565 1_555
Mg0 O1 2.039419 1_555
Mg0 O8 2.056422 1_445
Mg0 O7 2.067768 1_545
Mg0 O0 2.183581 1_555
Fe0 O2 1.914713 1_655
Fe0 O6 1.969540 1_554
Fe0 O9 1.976351 1_654
Fe0 O5 1.984320 1_555
Fe0 O10 2.033481 1_655
Fe1 O11 2.036425 1_565
Fe1 O8 2.048551 1_555
Fe1 O3 2.063707 1_555
Fe1 O7 2.145218 1_555
Fe1 O4 2.476806 1_565
O0 Ru0 2.013535 1_555
O0 Pr0 2.358699 1_455
O0 Sr0 2.452337 1_555
O1 Ru1 2.126142 1_546
O1 Pr0 2.439337 1_555
O1 Sr0 2.609924 1_555
O1 Sr0 2.951361 1_545
O2 Ru0 2.095141 1_555
O2 Sr1 2.421638 1_465
O2 Pr1 2.558732 1_555
O3 Ru1 2.090326 1_555
O3 Pr1 2.384059 1_555
O4 Ru0 2.042732 1_555
O4 Sr1 2.425205 1_455
O4 Pr1 2.454923 1_555
O5 Ru1 2.065989 1_545
O5 Pr0 2.494073 1_554
O5 Sr1 2.554918 1_555
O5 Pr1 2.779546 1_555
O5 Sr0 3.079428 1_554
O6 Ru1 2.034267 1_556
O6 Pr0 2.448384 1_565
O6 Sr0 2.520997 1_555
O7 Ru0 2.050834 1_555
O7 Sr0 2.633279 1_555
O7 Pr1 2.866827 1_555
O8 Ru0 2.198292 1_655
O8 Pr0 2.518257 1_565
O9 Ru1 2.051576 1_556
O9 Pr0 2.416348 1_465
O9 Sr0 2.572409 1_555
O10 Ru1 2.058348 1_545
O10 Pr1 2.553520 1_555
O10 Sr1 2.661208 1_455
O10 Pr0 2.758685 1_454
O10 Sr0 2.940223 1_554
O11 Ru0 1.999552 1_655
O11 Pr1 2.362919 1_555
O11 Sr1 2.685386 1_555
