# generated using pymatgen
data_CaYBO4
_symmetry_space_group_name_H-M   'P 1'
_cell_length_a   3.64036500
_cell_length_b   9.67118100
_cell_length_c   10.50485600
_cell_angle_alpha   90.00000000
_cell_angle_beta   90.00000000
_cell_angle_gamma   90.00000000
_symmetry_Int_Tables_number   1
_chemical_formula_structural   CaYBO4
_chemical_formula_sum   'Ca4 Y4 B4 O16'
_cell_volume   369.84056601
_cell_formula_units_Z   4
loop_
 _symmetry_equiv_pos_site_id
 _symmetry_equiv_pos_as_xyz
  1  'x, y, z'
loop_
 _atom_site_type_symbol
 _atom_site_label
 _atom_site_symmetry_multiplicity
 _atom_site_fract_x
 _atom_site_fract_y
 _atom_site_fract_z
 _atom_site_occupancy
  Ca  Ca0  1  0.25000000  0.66909600  0.08242200  1
  Ca  Ca1  1  0.75000000  0.33090400  0.91757800  1
  Ca  Ca2  1  0.75000000  0.16909600  0.41757800  1
  Ca  Ca3  1  0.25000000  0.83090400  0.58242200  1
  Y  Y0  1  0.25000000  0.08874000  0.11142300  1
  Y  Y1  1  0.75000000  0.91126000  0.88857700  1
  Y  Y2  1  0.75000000  0.58874000  0.38857700  1
  Y  Y3  1  0.25000000  0.41126000  0.61142300  1
  B  B0  1  0.25000000  0.36828100  0.20119000  1
  B  B1  1  0.75000000  0.63171900  0.79881000  1
  B  B2  1  0.75000000  0.86828100  0.29881000  1
  B  B3  1  0.25000000  0.13171900  0.70119000  1
  O  O0  1  0.25000000  0.50034200  0.25171900  1
  O  O1  1  0.75000000  0.49965800  0.74828100  1
  O  O2  1  0.75000000  0.00034200  0.24828100  1
  O  O3  1  0.25000000  0.99965800  0.75171900  1
  O  O4  1  0.25000000  0.24947200  0.27705900  1
  O  O5  1  0.75000000  0.75052800  0.72294100  1
  O  O6  1  0.75000000  0.74947200  0.22294100  1
  O  O7  1  0.25000000  0.25052800  0.77705900  1
  O  O8  1  0.25000000  0.35070900  0.06816300  1
  O  O9  1  0.75000000  0.64929100  0.93183700  1
  O  O10  1  0.75000000  0.85070900  0.43183700  1
  O  O11  1  0.25000000  0.14929100  0.56816300  1
  O  O12  1  0.25000000  0.61481700  0.50633900  1
  O  O13  1  0.75000000  0.38518300  0.49366100  1
  O  O14  1  0.75000000  0.11481700  0.99366100  1
  O  O15  1  0.25000000  0.88518300  0.00633900  1
loop_
_geom_bond_atom_site_label_1
_geom_bond_atom_site_label_2
_geom_bond_distance
_geom_bond_site_symmetry_2
Ca0 O15 2.237436 1_555
Ca0 O0 2.413802 1_555
Ca0 O9 2.419106 1_554
Ca0 O9 2.419106 1_454
Ca0 O6 2.469063 1_555
Ca0 O6 2.469063 1_455
Ca1 O14 2.237436 1_555
Ca1 O1 2.413802 1_555
Ca1 O8 2.419106 1_656
Ca1 O8 2.419106 1_556
Ca1 O7 2.469063 1_655
Ca1 O7 2.469063 1_555
Ca2 O13 2.237436 1_555
Ca2 O2 2.413802 1_555
Ca2 O11 2.419106 1_655
Ca2 O11 2.419106 1_555
Ca2 O4 2.469063 1_555
Ca2 O4 2.469063 1_655
Ca3 O12 2.237436 1_555
Ca3 O3 2.413802 1_555
Ca3 O10 2.419106 1_555
Ca3 O10 2.419106 1_455
Ca3 O5 2.469063 1_555
Ca3 O5 2.469063 1_455
B0 O0 1.383095 1_555
B0 O4 1.398375 1_555
B0 O8 1.407725 1_555
B1 O1 1.383095 1_555
B1 O5 1.398375 1_555
B1 O9 1.407725 1_555
B2 O2 1.383095 1_565
B2 O6 1.398375 1_555
B2 O10 1.407725 1_555
B3 O3 1.383095 1_545
B3 O7 1.398375 1_555
B3 O11 1.407725 1_555
O0 Y2 2.472013 1_455
O0 Y2 2.472013 1_555
O1 Y3 2.472013 1_655
O1 Y3 2.472013 1_555
O2 Y0 2.472013 1_655
O2 Y0 2.472013 1_555
O3 Y1 2.472013 1_455
O3 Y1 2.472013 1_555
O4 Y0 2.333219 1_555
O5 Y1 2.333219 1_555
O6 Y2 2.333219 1_555
O7 Y3 2.333219 1_555
O8 Y0 2.573983 1_555
O9 Y1 2.573983 1_555
O10 Y2 2.573983 1_555
O11 Y3 2.573983 1_555
O12 Y2 2.215179 1_455
O12 Y2 2.215179 1_555
O12 Y3 2.257013 1_555
O13 Y3 2.215179 1_555
O13 Y3 2.215179 1_655
O13 Y2 2.257013 1_555
O14 Y0 2.215179 1_556
O14 Y0 2.215179 1_656
O14 Y1 2.257013 1_545
O15 Y1 2.215179 1_454
O15 Y1 2.215179 1_554
O15 Y0 2.257013 1_565
