# generated using pymatgen
data_RbMg30BO31
_symmetry_space_group_name_H-M   'P 1'
_cell_length_a   8.55900363
_cell_length_b   8.55900363
_cell_length_c   8.39136195
_cell_angle_alpha   90.00000000
_cell_angle_beta   90.00000000
_cell_angle_gamma   90.00000000
_symmetry_Int_Tables_number   1
_chemical_formula_structural   RbMg30BO31
_chemical_formula_sum   'Rb1 Mg30 B1 O31'
_cell_volume   614.72216868
_cell_formula_units_Z   1
loop_
 _symmetry_equiv_pos_site_id
 _symmetry_equiv_pos_as_xyz
  1  'x, y, z'
loop_
 _atom_site_type_symbol
 _atom_site_label
 _atom_site_symmetry_multiplicity
 _atom_site_fract_x
 _atom_site_fract_y
 _atom_site_fract_z
 _atom_site_occupancy
  Rb  Rb0  1  -0.00000000  0.00000000  0.05874761  1
  Mg  Mg0  1  0.50000000  0.00000000  0.99595100  1
  Mg  Mg1  1  -0.00000000  0.50000000  0.99595100  1
  Mg  Mg2  1  -0.00000000  0.00000000  0.50300286  1
  Mg  Mg3  1  0.50000000  0.00000000  0.50204608  1
  Mg  Mg4  1  -0.00000000  0.50000000  0.50204608  1
  Mg  Mg5  1  0.50000000  0.50000000  0.50065599  1
  Mg  Mg6  1  0.25493137  0.25493137  0.99681546  1
  Mg  Mg7  1  0.74506863  0.25493137  0.99681546  1
  Mg  Mg8  1  0.25493137  0.74506863  0.99681546  1
  Mg  Mg9  1  0.74506863  0.74506863  0.99681546  1
  Mg  Mg10  1  0.25002708  0.25002708  0.50044702  1
  Mg  Mg11  1  0.74997292  0.25002708  0.50044702  1
  Mg  Mg12  1  0.25002708  0.74997292  0.50044702  1
  Mg  Mg13  1  0.74997292  0.74997292  0.50044702  1
  Mg  Mg14  1  0.27166758  0.00000000  0.25242189  1
  Mg  Mg15  1  0.72833242  0.00000000  0.25242189  1
  Mg  Mg16  1  0.26092244  0.50000000  0.24434914  1
  Mg  Mg17  1  0.73907756  0.50000000  0.24434914  1
  Mg  Mg18  1  0.24658171  0.00000000  0.75329490  1
  Mg  Mg19  1  0.75341829  0.00000000  0.75329490  1
  Mg  Mg20  1  0.23798640  0.50000000  0.75082538  1
  Mg  Mg21  1  0.76201360  0.50000000  0.75082538  1
  Mg  Mg22  1  -0.00000000  0.27166758  0.25242189  1
  Mg  Mg23  1  0.50000000  0.26092244  0.24434914  1
  Mg  Mg24  1  -0.00000000  0.72833242  0.25242189  1
  Mg  Mg25  1  0.50000000  0.73907756  0.24434914  1
  Mg  Mg26  1  -0.00000000  0.24658171  0.75329490  1
  Mg  Mg27  1  0.50000000  0.23798640  0.75082538  1
  Mg  Mg28  1  -0.00000000  0.75341829  0.75329490  1
  Mg  Mg29  1  0.50000000  0.76201360  0.75082538  1
  B  B0  1  0.50000000  0.50000000  0.94307806  1
  O  O0  1  0.50000000  0.00000000  0.25595738  1
  O  O1  1  -0.00000000  0.50000000  0.25595738  1
  O  O2  1  0.50000000  0.50000000  0.26840382  1
  O  O3  1  -0.00000000  0.00000000  0.73895207  1
  O  O4  1  0.50000000  0.00000000  0.74355079  1
  O  O5  1  -0.00000000  0.50000000  0.74355079  1
  O  O6  1  0.50000000  0.50000000  0.78002612  1
  O  O7  1  0.24842760  0.24842760  0.24818041  1
  O  O8  1  0.75157240  0.24842760  0.24818041  1
  O  O9  1  0.24842760  0.75157240  0.24818041  1
  O  O10  1  0.75157240  0.75157240  0.24818041  1
  O  O11  1  0.25093664  0.25093664  0.74844348  1
  O  O12  1  0.74906336  0.25093664  0.74844348  1
  O  O13  1  0.25093664  0.74906336  0.74844348  1
  O  O14  1  0.74906336  0.74906336  0.74844348  1
  O  O15  1  0.27533104  0.00000000  0.99815080  1
  O  O16  1  0.72466896  0.00000000  0.99815080  1
  O  O17  1  0.24900909  0.50000000  0.99504709  1
  O  O18  1  0.75099091  0.50000000  0.99504709  1
  O  O19  1  0.25201690  0.00000000  0.49841920  1
  O  O20  1  0.74798310  0.00000000  0.49841920  1
  O  O21  1  0.25288873  0.50000000  0.50413449  1
  O  O22  1  0.74711127  0.50000000  0.50413449  1
  O  O23  1  -0.00000000  0.27533104  0.99815080  1
  O  O24  1  0.50000000  0.24900909  0.99504709  1
  O  O25  1  -0.00000000  0.72466896  0.99815080  1
  O  O26  1  0.50000000  0.75099091  0.99504709  1
  O  O27  1  -0.00000000  0.25201690  0.49841920  1
  O  O28  1  0.50000000  0.25288873  0.50413449  1
  O  O29  1  -0.00000000  0.74798310  0.49841920  1
  O  O30  1  0.50000000  0.74711127  0.50413449  1
loop_
_geom_bond_atom_site_label_1
_geom_bond_atom_site_label_2
_geom_bond_distance
_geom_bond_site_symmetry_2
Mg0 O15 1.923031 1_555
Mg0 O16 1.923031 1_555
Mg0 O4 2.117982 1_555
Mg0 O26 2.131283 1_545
Mg0 O24 2.131283 1_555
Mg0 O0 2.181808 1_556
Mg1 O23 1.923031 1_555
Mg1 O25 1.923031 1_555
Mg1 O5 2.117982 1_555
Mg1 O18 2.131283 1_455
Mg1 O17 2.131283 1_555
Mg1 O1 2.181808 1_556
Mg2 O3 1.979935 1_555
Mg2 O19 2.157356 1_555
Mg2 O29 2.157356 1_545
Mg2 O20 2.157356 1_455
Mg2 O27 2.157356 1_555
Mg3 O4 2.026553 1_555
Mg3 O0 2.065019 1_555
Mg3 O19 2.122706 1_555
Mg3 O20 2.122706 1_555
Mg3 O28 2.164547 1_555
Mg3 O30 2.164547 1_545
Mg4 O5 2.026553 1_555
Mg4 O1 2.065019 1_555
Mg4 O27 2.122706 1_555
Mg4 O29 2.122706 1_555
Mg4 O21 2.164547 1_555
Mg4 O22 2.164547 1_455
Mg5 O2 1.948912 1_555
Mg5 O22 2.115228 1_555
Mg5 O30 2.115228 1_555
Mg5 O21 2.115228 1_555
Mg5 O28 2.115228 1_555
Mg5 O6 2.344296 1_555
Mg6 O11 2.084740 1_555
Mg6 O24 2.098208 1_555
Mg6 O17 2.098208 1_555
Mg6 O7 2.110763 1_556
Mg6 O15 2.188962 1_555
Mg6 O23 2.188962 1_555
Mg7 O12 2.084740 1_555
Mg7 O24 2.098208 1_555
Mg7 O18 2.098208 1_555
Mg7 O8 2.110763 1_556
Mg7 O23 2.188962 1_655
Mg7 O16 2.188962 1_555
Mg8 O13 2.084740 1_555
Mg8 O26 2.098208 1_555
Mg8 O17 2.098208 1_555
Mg8 O9 2.110763 1_556
Mg8 O25 2.188962 1_555
Mg8 O15 2.188962 1_565
Mg9 O14 2.084740 1_555
Mg9 O18 2.098208 1_555
Mg9 O26 2.098208 1_555
Mg9 O10 2.110763 1_556
Mg9 O16 2.188962 1_565
Mg9 O25 2.188962 1_655
Mg10 O11 2.081057 1_555
Mg10 O7 2.116949 1_555
Mg10 O21 2.139883 1_555
Mg10 O28 2.139883 1_555
Mg10 O19 2.140118 1_555
Mg10 O27 2.140118 1_555
Mg11 O12 2.081057 1_555
Mg11 O8 2.116949 1_555
Mg11 O22 2.139883 1_555
Mg11 O28 2.139883 1_555
Mg11 O27 2.140118 1_655
Mg11 O20 2.140118 1_555
Mg12 O13 2.081057 1_555
Mg12 O9 2.116949 1_555
Mg12 O30 2.139883 1_555
Mg12 O21 2.139883 1_555
Mg12 O19 2.140118 1_565
Mg12 O29 2.140118 1_555
Mg13 O14 2.081057 1_555
Mg13 O10 2.116949 1_555
Mg13 O22 2.139883 1_555
Mg13 O30 2.139883 1_555
Mg13 O29 2.140118 1_655
Mg13 O20 2.140118 1_565
Mg14 O0 1.954523 1_555
Mg14 O19 2.071093 1_555
Mg14 O15 2.133911 1_554
Mg14 O7 2.135873 1_555
Mg14 O9 2.135873 1_545
Mg15 O0 1.954523 1_555
Mg15 O20 2.071093 1_555
Mg15 O16 2.133911 1_554
Mg15 O8 2.135873 1_555
Mg15 O10 2.135873 1_545
Mg16 O2 2.056197 1_555
Mg16 O17 2.094467 1_554
Mg16 O9 2.156103 1_555
Mg16 O7 2.156103 1_555
Mg16 O21 2.181037 1_555
Mg16 O1 2.235359 1_555
Mg17 O2 2.056197 1_555
Mg17 O18 2.094467 1_554
Mg17 O10 2.156103 1_555
Mg17 O8 2.156103 1_555
Mg17 O22 2.181037 1_555
Mg17 O1 2.235359 1_655
Mg18 O15 2.069356 1_555
Mg18 O3 2.113923 1_555
Mg18 O19 2.139260 1_555
Mg18 O13 2.148477 1_545
Mg18 O11 2.148477 1_555
Mg18 O4 2.170549 1_555
Mg19 O16 2.069356 1_555
Mg19 O3 2.113923 1_655
Mg19 O20 2.139260 1_555
Mg19 O14 2.148477 1_545
Mg19 O12 2.148477 1_555
Mg19 O4 2.170549 1_555
Mg20 O5 2.037841 1_555
Mg20 O17 2.051523 1_555
Mg20 O21 2.073998 1_555
Mg20 O11 2.134707 1_555
Mg20 O13 2.134707 1_555
Mg20 O6 2.255922 1_555
Mg21 O5 2.037841 1_655
Mg21 O18 2.051523 1_555
Mg21 O22 2.073998 1_555
Mg21 O12 2.134707 1_555
Mg21 O14 2.134707 1_555
Mg21 O6 2.255922 1_555
Mg22 O1 1.954523 1_555
Mg22 O27 2.071093 1_555
Mg22 O23 2.133911 1_554
Mg22 O7 2.135873 1_555
Mg22 O8 2.135873 1_455
Mg23 O2 2.056197 1_555
Mg23 O24 2.094467 1_554
Mg23 O8 2.156103 1_555
Mg23 O7 2.156103 1_555
Mg23 O28 2.181037 1_555
Mg23 O0 2.235359 1_555
Mg24 O1 1.954523 1_555
Mg24 O29 2.071093 1_555
Mg24 O25 2.133911 1_554
Mg24 O9 2.135873 1_555
Mg24 O10 2.135873 1_455
Mg25 O2 2.056197 1_555
Mg25 O26 2.094467 1_554
Mg25 O10 2.156103 1_555
Mg25 O9 2.156103 1_555
Mg25 O30 2.181037 1_555
Mg25 O0 2.235359 1_565
Mg26 O23 2.069356 1_555
Mg26 O3 2.113923 1_555
Mg26 O27 2.139260 1_555
Mg26 O12 2.148477 1_455
Mg26 O11 2.148477 1_555
Mg26 O5 2.170549 1_555
Mg27 O4 2.037841 1_555
Mg27 O24 2.051523 1_555
Mg27 O28 2.073998 1_555
Mg27 O11 2.134707 1_555
Mg27 O12 2.134707 1_555
Mg27 O6 2.255922 1_555
Mg28 O25 2.069356 1_555
Mg28 O3 2.113923 1_565
Mg28 O29 2.139260 1_555
Mg28 O14 2.148477 1_455
Mg28 O13 2.148477 1_555
Mg28 O5 2.170549 1_555
Mg29 O4 2.037841 1_565
Mg29 O26 2.051523 1_555
Mg29 O30 2.073998 1_555
Mg29 O13 2.134707 1_555
Mg29 O14 2.134707 1_555
Mg29 O6 2.255922 1_555
B0 O6 1.368228 1_555
B0 O17 2.192048 1_555
B0 O24 2.192048 1_555
B0 O18 2.192048 1_555
B0 O26 2.192048 1_555
O3 Rb0 2.683520 1_556
O15 Rb0 2.410795 1_556
O16 Rb0 2.410795 1_656
O23 Rb0 2.410795 1_556
O25 Rb0 2.410795 1_566
