# generated using pymatgen
data_Ba2Ca2Tl2Co3O10
_symmetry_space_group_name_H-M   'P 1'
_cell_length_a   3.90250200
_cell_length_b   3.93341803
_cell_length_c   18.62464678
_cell_angle_alpha   95.92438308
_cell_angle_beta   95.85879194
_cell_angle_gamma   90.94943835
_symmetry_Int_Tables_number   1
_chemical_formula_structural   Ba2Ca2Tl2Co3O10
_chemical_formula_sum   'Ba2 Ca2 Tl2 Co3 O10'
_cell_volume   282.77302755
_cell_formula_units_Z   1
loop_
 _symmetry_equiv_pos_site_id
 _symmetry_equiv_pos_as_xyz
  1  'x, y, z'
loop_
 _atom_site_type_symbol
 _atom_site_label
 _atom_site_symmetry_multiplicity
 _atom_site_fract_x
 _atom_site_fract_y
 _atom_site_fract_z
 _atom_site_occupancy
  Ba  Ba0  1  0.15798500  0.19380400  0.28442700  1
  Ba  Ba1  1  0.84093500  0.92002600  0.71459800  1
  Ca  Ca0  1  0.94560400  0.02440100  0.90963100  1
  Ca  Ca1  1  0.06045900  0.10517500  0.08949900  1
  Tl  Tl0  1  0.71846400  0.81606400  0.43666500  1
  Tl  Tl1  1  0.27174200  0.38175000  0.56205300  1
  Co  Co0  1  0.39759400  0.48101000  0.82648800  1
  Co  Co1  1  0.60514800  0.64215700  0.17259000  1
  Co  Co2  1  0.50451500  0.56733000  0.99967500  1
  O  O0  1  0.89840200  0.48243700  0.82826600  1
  O  O1  1  0.32306100  0.38843900  0.67653200  1
  O  O2  1  0.39850700  0.98223100  0.82834600  1
  O  O3  1  0.77208900  0.71894700  0.54991300  1
  O  O4  1  0.50532500  0.06786000  0.99997600  1
  O  O5  1  0.60472200  0.14121900  0.17107800  1
  O  O6  1  0.67466900  0.70156400  0.32244300  1
  O  O7  1  0.10463700  0.64165100  0.17052500  1
  O  O8  1  0.22924000  0.16598300  0.44899400  1
  O  O9  1  0.00486500  0.56782400  0.99926500  1
loop_
_geom_bond_atom_site_label_1
_geom_bond_atom_site_label_2
_geom_bond_distance
_geom_bond_site_symmetry_2
Ba0 O6 2.799843 1_555
Ba0 O5 2.850567 1_455
Ba0 O6 2.855406 1_455
Ba0 O7 2.864314 1_545
Ba0 O5 2.865671 1_555
Ba0 O6 2.870935 1_445
Ba0 O7 2.887933 1_555
Ba0 O6 2.904609 1_545
Ba0 O8 3.062644 1_555
Ba1 O1 2.804359 1_665
Ba1 O1 2.842939 1_565
Ba1 O0 2.857056 1_555
Ba1 O2 2.860558 1_555
Ba1 O2 2.866511 1_655
Ba1 O1 2.867159 1_555
Ba1 O0 2.888904 1_565
Ba1 O1 2.917437 1_655
Ba1 O3 3.070732 1_555
Ca0 O2 2.438742 1_645
Ca0 O0 2.468582 1_555
Ca0 O0 2.477484 1_545
Ca0 O2 2.480805 1_545
Ca0 O4 2.520570 1_555
Ca0 O9 2.564666 1_655
Ca0 O9 2.572842 1_645
Ca0 O4 2.609526 1_655
Ca1 O5 2.450978 1_455
Ca1 O7 2.457109 1_555
Ca1 O5 2.475208 1_555
Ca1 O7 2.481231 1_545
Ca1 O4 2.522783 1_554
Ca1 O9 2.552630 1_544
Ca1 O4 2.587740 1_454
Ca1 O9 2.598659 1_554
Co0 O0 1.951207 1_555
Co0 O0 1.951847 1_455
Co0 O2 1.965835 1_545
Co0 O2 1.968179 1_555
Co0 O1 2.763705 1_555
Co1 O7 1.949659 1_555
Co1 O7 1.953587 1_655
Co1 O5 1.966151 1_565
Co1 O5 1.967662 1_555
Co1 O6 2.761584 1_555
Co2 O9 1.949154 1_555
Co2 O9 1.953381 1_655
Co2 O4 1.965265 1_555
Co2 O4 1.968172 1_565
O1 Tl1 2.118455 1_555
O3 Tl0 2.171940 1_555
O3 Tl1 2.381175 1_655
O3 Tl1 2.385198 1_555
O6 Tl0 2.117329 1_555
O8 Tl1 2.176426 1_555
O8 Tl0 2.381344 1_445
O8 Tl0 2.388205 1_545
