# generated using pymatgen
data_SrC2S2N2O3
_symmetry_space_group_name_H-M   'P 1'
_cell_length_a   7.22666600
_cell_length_b   7.69384170
_cell_length_c   13.86280075
_cell_angle_alpha   94.34905157
_cell_angle_beta   90.00000000
_cell_angle_gamma   90.00000000
_symmetry_Int_Tables_number   1
_chemical_formula_structural   SrC2S2N2O3
_chemical_formula_sum   'Sr4 C8 S8 N8 O12'
_cell_volume   768.56373831
_cell_formula_units_Z   4
loop_
 _symmetry_equiv_pos_site_id
 _symmetry_equiv_pos_as_xyz
  1  'x, y, z'
loop_
 _atom_site_type_symbol
 _atom_site_label
 _atom_site_symmetry_multiplicity
 _atom_site_fract_x
 _atom_site_fract_y
 _atom_site_fract_z
 _atom_site_occupancy
  Sr  Sr0  1  0.73688900  0.07744200  0.94508900  1
  Sr  Sr1  1  0.26311100  0.92255800  0.05491100  1
  Sr  Sr2  1  0.23688900  0.42255800  0.55491100  1
  Sr  Sr3  1  0.76311100  0.57744200  0.44508900  1
  C  C0  1  0.08486000  0.89259200  0.81333500  1
  C  C1  1  0.91514000  0.10740800  0.18666500  1
  C  C2  1  0.58486000  0.60740800  0.68666500  1
  C  C3  1  0.41514000  0.39259200  0.31333500  1
  C  C4  1  0.34649600  0.33303100  0.96457400  1
  C  C5  1  0.65350400  0.66696900  0.03542600  1
  C  C6  1  0.84649600  0.16696900  0.53542600  1
  C  C7  1  0.15350400  0.83303100  0.46457400  1
  S  S0  1  0.97353500  0.46170800  0.82359700  1
  S  S1  1  0.02646500  0.53829200  0.17640300  1
  S  S2  1  0.47353500  0.03829200  0.67640300  1
  S  S3  1  0.52646500  0.96170800  0.32359700  1
  S  S4  1  0.12592100  0.88285600  0.69858600  1
  S  S5  1  0.87407900  0.11714400  0.30141400  1
  S  S6  1  0.62592100  0.61714400  0.80141400  1
  S  S7  1  0.37407900  0.38285600  0.19858600  1
  N  N0  1  0.40374100  0.18727200  0.97166400  1
  N  N1  1  0.59625900  0.81272800  0.02833600  1
  N  N2  1  0.90374100  0.31272800  0.52833600  1
  N  N3  1  0.09625900  0.68727200  0.47166400  1
  N  N4  1  0.04894600  0.89875700  0.89768400  1
  N  N5  1  0.95105400  0.10124300  0.10231600  1
  N  N6  1  0.54894600  0.60124300  0.60231600  1
  N  N7  1  0.45105400  0.39875700  0.39768400  1
  O  O0  1  0.40406200  0.21229700  0.65763500  1
  O  O1  1  0.59593800  0.78770300  0.34236500  1
  O  O2  1  0.90406200  0.28770300  0.84236500  1
  O  O3  1  0.09593800  0.71229700  0.15763500  1
  O  O4  1  0.28679900  0.47890500  0.95856700  1
  O  O5  1  0.71320100  0.52109500  0.04143300  1
  O  O6  1  0.78679900  0.02109500  0.54143300  1
  O  O7  1  0.21320100  0.97890500  0.45856700  1
  O  O8  1  0.58154600  0.03693100  0.76562600  1
  O  O9  1  0.41845400  0.96306900  0.23437400  1
  O  O10  1  0.08154600  0.46306900  0.73437400  1
  O  O11  1  0.91845400  0.53693100  0.26562600  1
loop_
_geom_bond_atom_site_label_1
_geom_bond_atom_site_label_2
_geom_bond_distance
_geom_bond_site_symmetry_2
C0 N4 1.195195 1_555
C0 S4 1.614327 1_555
C1 N5 1.195195 1_555
C1 S5 1.614327 1_555
C2 N6 1.195195 1_555
C2 S6 1.614327 1_555
C3 N7 1.195195 1_555
C3 S7 1.614327 1_555
C4 N0 1.206300 1_555
C4 O4 1.211137 1_555
C5 N1 1.206300 1_555
C5 O5 1.211137 1_555
C6 N2 1.206300 1_555
C6 O6 1.211137 1_555
C7 N3 1.206300 1_555
C7 O7 1.211137 1_555
N0 Sr0 2.568823 1_555
N0 Sr1 2.620901 1_546
N1 Sr1 2.568823 1_555
N1 Sr0 2.620901 1_564
N2 Sr2 2.568823 1_655
N2 Sr3 2.620901 1_555
N3 Sr3 2.568823 1_455
N3 Sr2 2.620901 1_555
N4 Sr1 2.668156 1_556
N4 Sr0 2.696381 1_465
N5 Sr0 2.668156 1_554
N5 Sr1 2.696381 1_645
N6 Sr3 2.668156 1_555
N6 Sr2 2.696381 1_555
N7 Sr2 2.668156 1_555
N7 Sr3 2.696381 1_555
O0 S2 1.471353 1_555
O0 Sr2 2.540433 1_555
O1 S3 1.471353 1_555
O1 Sr3 2.540433 1_555
O2 S0 1.471353 1_555
O2 Sr0 2.540433 1_555
O3 S1 1.471353 1_555
O3 Sr1 2.540433 1_555
O8 S2 1.463291 1_555
O8 Sr0 2.725664 1_555
O9 S3 1.463291 1_555
O9 Sr1 2.725664 1_555
O10 S0 1.463291 1_455
O10 Sr2 2.725664 1_555
O11 S1 1.463291 1_655
O11 Sr3 2.725664 1_555
