# generated using pymatgen
data_La2Ti3ZnO10
_symmetry_space_group_name_H-M   'P 1'
_cell_length_a   14.02516968
_cell_length_b   14.02516968
_cell_length_c   14.02516968
_cell_angle_alpha   164.25679105
_cell_angle_beta   164.25679105
_cell_angle_gamma   22.33544389
_symmetry_Int_Tables_number   1
_chemical_formula_structural   La2Ti3ZnO10
_chemical_formula_sum   'La2 Ti3 Zn1 O10'
_cell_volume   203.06217429
_cell_formula_units_Z   1
loop_
 _symmetry_equiv_pos_site_id
 _symmetry_equiv_pos_as_xyz
  1  'x, y, z'
loop_
 _atom_site_type_symbol
 _atom_site_label
 _atom_site_symmetry_multiplicity
 _atom_site_fract_x
 _atom_site_fract_y
 _atom_site_fract_z
 _atom_site_occupancy
  La  La0  1  0.57961200  0.57961200  0.00000000  1
  La  La1  1  0.42038800  0.42038800  0.00000000  1
  Ti  Ti0  1  0.84444600  0.84444600  0.00000000  1
  Ti  Ti1  1  0.15555400  0.15555400  0.00000000  1
  Ti  Ti2  1  0.00000000  0.00000000  0.00000000  1
  Zn  Zn0  1  0.25000000  0.75000000  0.50000000  1
  O  O0  1  0.49988100  0.99988100  0.50000000  1
  O  O1  1  0.00011900  0.50011900  0.50000000  1
  O  O2  1  0.35941300  0.85941300  0.50000000  1
  O  O3  1  0.86121200  0.36121200  0.50000000  1
  O  O4  1  0.63878800  0.13878800  0.50000000  1
  O  O5  1  0.14058700  0.64058700  0.50000000  1
  O  O6  1  0.77890500  0.77890500  0.00000000  1
  O  O7  1  0.22109500  0.22109500  0.00000000  1
  O  O8  1  0.92893800  0.92893800  0.00000000  1
  O  O9  1  0.07106200  0.07106200  0.00000000  1
loop_
_geom_bond_atom_site_label_1
_geom_bond_atom_site_label_2
_geom_bond_distance
_geom_bond_site_symmetry_2
La0 O4 2.518213 1_565
La0 O4 2.518213 1_554
La0 O5 2.550508 1_655
La0 O5 2.550508 1_554
La0 O9 2.726590 1_565
La0 O9 2.726590 1_666
La0 O9 2.726590 1_554
La0 O9 2.726590 1_655
La0 O1 2.911183 1_655
La0 O1 2.911183 1_554
La0 O0 2.916107 1_544
La0 O0 2.916107 1_555
La1 O3 2.518213 1_454
La1 O3 2.518213 1_555
La1 O2 2.550508 1_544
La1 O2 2.550508 1_555
La1 O8 2.726590 1_455
La1 O8 2.726590 1_556
La1 O8 2.726590 1_444
La1 O8 2.726590 1_545
La1 O0 2.911183 1_555
La1 O0 2.911183 1_544
La1 O1 2.916107 1_554
La1 O1 2.916107 1_655
O0 Ti2 1.920801 1_565
O0 Ti2 1.920801 1_666
O1 Ti2 1.920801 1_555
O1 Ti2 1.920801 1_566
O2 Ti0 1.964462 1_455
O2 Ti0 1.964462 1_556
O3 Ti0 1.975435 1_556
O3 Ti0 1.975435 1_545
O4 Ti1 1.975435 1_656
O4 Ti1 1.975435 1_555
O5 Ti1 1.964462 1_555
O5 Ti1 1.964462 1_566
O6 Ti0 1.803635 1_555
O6 Zn0 2.078989 1_554
O6 Zn0 2.078989 1_655
O7 Ti1 1.803635 1_555
O7 Zn0 2.078989 1_555
O7 Zn0 2.078989 1_544
O8 Ti2 1.955569 1_665
O8 Ti0 2.325151 1_555
O9 Ti2 1.955569 1_555
O9 Ti1 2.325151 1_555
