# generated using pymatgen
data_Li5Ni3(SnO5)2
_symmetry_space_group_name_H-M   'P 1'
_cell_length_a   5.18683300
_cell_length_b   5.21494082
_cell_length_c   7.97763554
_cell_angle_alpha   108.09386237
_cell_angle_beta   101.22345268
_cell_angle_gamma   100.94109289
_symmetry_Int_Tables_number   1
_chemical_formula_structural   Li5Ni3(SnO5)2
_chemical_formula_sum   'Li5 Ni3 Sn2 O10'
_cell_volume   193.81133674
_cell_formula_units_Z   1
loop_
 _symmetry_equiv_pos_site_id
 _symmetry_equiv_pos_as_xyz
  1  'x, y, z'
loop_
 _atom_site_type_symbol
 _atom_site_label
 _atom_site_symmetry_multiplicity
 _atom_site_fract_x
 _atom_site_fract_y
 _atom_site_fract_z
 _atom_site_occupancy
  Li  Li0  1  0.22204500  0.51162600  0.39390400  1
  Li  Li1  1  0.41683000  0.49630400  0.79832800  1
  Li  Li2  1  0.50000000  0.00000000  0.50000000  1
  Li  Li3  1  0.58317000  0.50369600  0.20167200  1
  Li  Li4  1  0.77795500  0.48837400  0.60609600  1
  Ni  Ni0  1  0.00000000  0.50000000  0.00000000  1
  Ni  Ni1  1  0.70102700  0.99500000  0.90108300  1
  Ni  Ni2  1  0.29897300  0.00500000  0.09891700  1
  Sn  Sn0  1  0.10527000  0.01006400  0.69901700  1
  Sn  Sn1  1  0.89473000  0.98993600  0.30098300  1
  O  O0  1  0.05247000  0.23590800  0.85540700  1
  O  O1  1  0.33203300  0.75407800  0.94842500  1
  O  O2  1  0.13994400  0.76608300  0.54609300  1
  O  O3  1  0.22264400  0.26059800  0.22430400  1
  O  O4  1  0.45978900  0.23123100  0.66406900  1
  O  O5  1  0.54021100  0.76876900  0.33593100  1
  O  O6  1  0.77735600  0.73940200  0.77569600  1
  O  O7  1  0.86005600  0.23391700  0.45390700  1
  O  O8  1  0.66796700  0.24592200  0.05157500  1
  O  O9  1  0.94753000  0.76409200  0.14459300  1
loop_
_geom_bond_atom_site_label_1
_geom_bond_atom_site_label_2
_geom_bond_distance
_geom_bond_site_symmetry_2
Li0 O3 1.564404 1_555
Li0 O2 1.682650 1_555
Li0 O5 2.139585 1_555
Li0 O7 2.366451 1_455
Li1 O4 1.548504 1_555
Li1 O1 1.692321 1_555
Li1 O6 2.123753 1_555
Li1 O0 2.316872 1_555
Li2 O4 1.559528 1_555
Li2 O5 1.559528 1_545
Li2 O7 2.189105 1_555
Li2 O2 2.189105 1_545
Li3 O5 1.548504 1_555
Li3 O8 1.692321 1_555
Li3 O3 2.123753 1_555
Li3 O9 2.316872 1_555
Li4 O6 1.564404 1_555
Li4 O7 1.682650 1_555
Li4 O4 2.139585 1_555
Li4 O2 2.366451 1_655
Ni0 O9 1.605958 1_455
Ni0 O0 1.605958 1_554
Ni0 O8 2.153867 1_455
Ni0 O1 2.153867 1_554
Ni1 O8 1.540309 1_566
Ni1 O6 1.568539 1_555
Ni1 O0 2.169698 1_665
Ni1 O1 2.246675 1_555
Ni2 O1 1.540309 1_544
Ni2 O3 1.568539 1_555
Ni2 O9 2.169698 1_445
Ni2 O8 2.246675 1_555
O0 Sn0 1.536690 1_555
O2 Sn0 1.532205 1_565
O3 Sn1 2.299860 1_445
O4 Sn0 2.093688 1_555
O5 Sn1 2.093688 1_555
O6 Sn0 2.299860 1_665
O7 Sn1 1.532205 1_545
O9 Sn1 1.536690 1_555
