# generated using pymatgen
data_Sc2Nb3Ge4
_symmetry_space_group_name_H-M   'P 1'
_cell_length_a   6.83856734
_cell_length_b   7.02134049
_cell_length_c   13.29575257
_cell_angle_alpha   90.00000000
_cell_angle_beta   90.00000000
_cell_angle_gamma   90.00000000
_symmetry_Int_Tables_number   1
_chemical_formula_structural   Sc2Nb3Ge4
_chemical_formula_sum   'Sc8 Nb12 Ge16'
_cell_volume   638.40765556
_cell_formula_units_Z   4
loop_
 _symmetry_equiv_pos_site_id
 _symmetry_equiv_pos_as_xyz
  1  'x, y, z'
loop_
 _atom_site_type_symbol
 _atom_site_label
 _atom_site_symmetry_multiplicity
 _atom_site_fract_x
 _atom_site_fract_y
 _atom_site_fract_z
 _atom_site_occupancy
  Sc  Sc0  1  0.49425975  0.67721932  0.59456704  1
  Sc  Sc1  1  0.99425975  0.82278068  0.90543296  1
  Sc  Sc2  1  0.50574025  0.32278068  0.09456704  1
  Sc  Sc3  1  0.00574025  0.17721932  0.40543296  1
  Sc  Sc4  1  0.50574025  0.32278068  0.40543296  1
  Sc  Sc5  1  0.00574025  0.17721932  0.09456704  1
  Sc  Sc6  1  0.49425975  0.67721932  0.90543296  1
  Sc  Sc7  1  0.99425975  0.82278068  0.59456704  1
  Nb  Nb0  1  0.65842555  0.17189562  0.62572000  1
  Nb  Nb1  1  0.15842555  0.32810438  0.87428000  1
  Nb  Nb2  1  0.34157445  0.82810438  0.12572000  1
  Nb  Nb3  1  0.84157445  0.67189562  0.37428000  1
  Nb  Nb4  1  0.34157445  0.82810438  0.37428000  1
  Nb  Nb5  1  0.84157445  0.67189562  0.12572000  1
  Nb  Nb6  1  0.65842555  0.17189562  0.87428000  1
  Nb  Nb7  1  0.15842555  0.32810438  0.62572000  1
  Nb  Nb8  1  0.83449541  0.48930585  0.75000000  1
  Nb  Nb9  1  0.33449541  0.01069415  0.75000000  1
  Nb  Nb10  1  0.16550459  0.51069415  0.25000000  1
  Nb  Nb11  1  0.66550459  0.98930585  0.25000000  1
  Ge  Ge0  1  0.68127393  0.96584430  0.46048997  1
  Ge  Ge1  1  0.18127393  0.53415570  0.03951003  1
  Ge  Ge2  1  0.31872607  0.03415570  0.96048997  1
  Ge  Ge3  1  0.81872607  0.46584430  0.53951003  1
  Ge  Ge4  1  0.31872607  0.03415570  0.53951003  1
  Ge  Ge5  1  0.81872607  0.46584430  0.96048997  1
  Ge  Ge6  1  0.68127393  0.96584430  0.03951003  1
  Ge  Ge7  1  0.18127393  0.53415570  0.46048997  1
  Ge  Ge8  1  0.45840155  0.38865390  0.75000000  1
  Ge  Ge9  1  0.95840155  0.11134610  0.75000000  1
  Ge  Ge10  1  0.54159845  0.61134610  0.25000000  1
  Ge  Ge11  1  0.04159845  0.88865390  0.25000000  1
  Ge  Ge12  1  0.69439010  0.85314604  0.75000000  1
  Ge  Ge13  1  0.19439010  0.64685396  0.75000000  1
  Ge  Ge14  1  0.30560990  0.14685396  0.25000000  1
  Ge  Ge15  1  0.80560990  0.35314604  0.25000000  1
loop_
_geom_bond_atom_site_label_1
_geom_bond_atom_site_label_2
_geom_bond_distance
_geom_bond_site_symmetry_2
Ge0 Nb3 2.602938 1_555
Ge0 Nb0 2.635090 1_565
Ge0 Ge4 2.735114 1_565
Ge0 Nb4 2.765095 1_555
Ge0 Sc3 2.768026 1_665
Ge0 Nb11 2.805540 1_555
Ge0 Sc4 2.873624 1_565
Ge0 Sc7 2.961095 1_555
Ge0 Sc0 2.986689 1_555
Ge1 Nb2 2.602938 1_555
Ge1 Nb1 2.635090 1_554
Ge1 Ge5 2.735114 1_454
Ge1 Nb5 2.765095 1_455
Ge1 Sc2 2.768026 1_555
Ge1 Nb10 2.805540 1_555
Ge1 Sc5 2.873624 1_555
Ge1 Sc6 2.961095 1_554
Ge1 Sc1 2.986689 1_454
Ge2 Nb1 2.602938 1_555
Ge2 Nb2 2.635090 1_546
Ge2 Ge6 2.735114 1_546
Ge2 Nb6 2.765095 1_555
Ge2 Sc1 2.768026 1_445
Ge2 Nb9 2.805540 1_555
Ge2 Sc6 2.873624 1_545
Ge2 Sc5 2.961095 1_556
Ge2 Sc2 2.986689 1_556
Ge3 Nb0 2.602938 1_555
Ge3 Nb3 2.635090 1_555
Ge3 Ge7 2.735114 1_655
Ge3 Nb7 2.765095 1_655
Ge3 Sc0 2.768026 1_555
Ge3 Nb8 2.805540 1_555
Ge3 Sc7 2.873624 1_555
Ge3 Sc4 2.961095 1_555
Ge3 Sc3 2.986689 1_655
Ge4 Nb7 2.602938 1_555
Ge4 Nb4 2.635090 1_545
Ge4 Nb0 2.765095 1_555
Ge4 Sc7 2.768026 1_445
Ge4 Nb9 2.805540 1_555
Ge4 Sc0 2.873624 1_545
Ge4 Sc3 2.961095 1_555
Ge4 Sc4 2.986689 1_555
Ge5 Nb6 2.602938 1_555
Ge5 Nb5 2.635090 1_556
Ge5 Nb1 2.765095 1_655
Ge5 Sc6 2.768026 1_555
Ge5 Nb8 2.805540 1_555
Ge5 Sc1 2.873624 1_555
Ge5 Sc2 2.961095 1_556
Ge5 Sc5 2.986689 1_656
Ge6 Nb5 2.602938 1_555
Ge6 Nb6 2.635090 1_564
Ge6 Nb2 2.765095 1_555
Ge6 Sc5 2.768026 1_665
Ge6 Nb11 2.805540 1_555
Ge6 Sc2 2.873624 1_565
Ge6 Sc1 2.961095 1_554
Ge6 Sc6 2.986689 1_554
Ge7 Nb4 2.602938 1_555
Ge7 Nb7 2.635090 1_555
Ge7 Nb3 2.765095 1_455
Ge7 Sc4 2.768026 1_555
Ge7 Nb10 2.805540 1_555
Ge7 Sc3 2.873624 1_555
Ge7 Sc0 2.961095 1_555
Ge7 Sc7 2.986689 1_455
Ge8 Nb0 2.630168 1_555
Ge8 Nb6 2.630168 1_555
Ge8 Nb8 2.667271 1_555
Ge8 Nb7 2.668225 1_555
Ge8 Nb1 2.668225 1_555
Ge8 Nb9 2.785777 1_555
Ge8 Sc0 2.904498 1_555
Ge8 Sc6 2.904498 1_555
Ge9 Nb1 2.630168 1_655
Ge9 Nb7 2.630168 1_655
Ge9 Nb9 2.667271 1_655
Ge9 Nb6 2.668225 1_555
Ge9 Nb0 2.668225 1_555
Ge9 Nb8 2.785777 1_555
Ge9 Sc7 2.904498 1_545
Ge9 Sc1 2.904498 1_545
Ge10 Ge15 2.558580 1_555
Ge10 Nb4 2.630168 1_555
Ge10 Nb2 2.630168 1_555
Ge10 Nb10 2.667271 1_555
Ge10 Nb3 2.668225 1_555
Ge10 Nb5 2.668225 1_555
Ge10 Nb11 2.785777 1_555
Ge10 Sc2 2.904498 1_555
Ge10 Sc4 2.904498 1_555
Ge11 Ge14 2.558580 1_565
Ge11 Nb3 2.630168 1_455
Ge11 Nb5 2.630168 1_455
Ge11 Nb11 2.667271 1_455
Ge11 Nb4 2.668225 1_555
Ge11 Nb2 2.668225 1_555
Ge11 Nb10 2.785777 1_555
Ge11 Sc5 2.904498 1_565
Ge11 Sc3 2.904498 1_565
Ge12 Ge9 2.558580 1_565
Ge12 Nb9 2.698334 1_565
Ge12 Nb8 2.728408 1_555
Ge12 Sc0 2.769427 1_555
Ge12 Sc6 2.769427 1_555
Ge12 Nb6 2.792806 1_565
Ge12 Nb0 2.792806 1_565
Ge12 Sc1 2.919173 1_555
Ge12 Sc7 2.919173 1_555
Ge13 Ge8 2.558580 1_555
Ge13 Nb8 2.698334 1_455
Ge13 Nb9 2.728408 1_565
Ge13 Sc7 2.769427 1_455
Ge13 Sc1 2.769427 1_455
Ge13 Nb7 2.792806 1_555
Ge13 Nb1 2.792806 1_555
Ge13 Sc0 2.919173 1_555
Ge13 Sc6 2.919173 1_555
Ge14 Nb11 2.698334 1_545
Ge14 Nb10 2.728408 1_555
Ge14 Sc4 2.769427 1_555
Ge14 Sc2 2.769427 1_555
Ge14 Nb4 2.792806 1_545
Ge14 Nb2 2.792806 1_545
Ge14 Sc3 2.919173 1_555
Ge14 Sc5 2.919173 1_555
Ge15 Nb10 2.698334 1_655
Ge15 Nb11 2.728408 1_545
Ge15 Sc3 2.769427 1_655
Ge15 Sc5 2.769427 1_655
Ge15 Nb3 2.792806 1_555
Ge15 Nb5 2.792806 1_555
Ge15 Sc2 2.919173 1_555
Ge15 Sc4 2.919173 1_555
