# generated using pymatgen
data_Eu2Be2SiO7
_symmetry_space_group_name_H-M   'P 1'
_cell_length_a   7.44716600
_cell_length_b   7.44716600
_cell_length_c   4.92947000
_cell_angle_alpha   90.00000000
_cell_angle_beta   90.00000000
_cell_angle_gamma   90.00000000
_symmetry_Int_Tables_number   1
_chemical_formula_structural   Eu2Be2SiO7
_chemical_formula_sum   'Eu4 Be4 Si2 O14'
_cell_volume   273.38979351
_cell_formula_units_Z   2
loop_
 _symmetry_equiv_pos_site_id
 _symmetry_equiv_pos_as_xyz
  1  'x, y, z'
loop_
 _atom_site_type_symbol
 _atom_site_label
 _atom_site_symmetry_multiplicity
 _atom_site_fract_x
 _atom_site_fract_y
 _atom_site_fract_z
 _atom_site_occupancy
  Eu  Eu0  1  0.16136100  0.33863900  0.50367500  1
  Eu  Eu1  1  0.83863900  0.66136100  0.50367500  1
  Eu  Eu2  1  0.66136100  0.16136100  0.49632500  1
  Eu  Eu3  1  0.33863900  0.83863900  0.49632500  1
  Be  Be0  1  0.63621200  0.86378800  0.95525900  1
  Be  Be1  1  0.36378800  0.13621200  0.95525900  1
  Be  Be2  1  0.13621200  0.63621200  0.04474100  1
  Be  Be3  1  0.86378800  0.36378800  0.04474100  1
  Si  Si0  1  0.00000000  0.00000000  0.00000000  1
  Si  Si1  1  0.50000000  0.50000000  0.00000000  1
  O  O0  1  0.00000000  0.50000000  0.17518900  1
  O  O1  1  0.50000000  0.00000000  0.82481100  1
  O  O2  1  0.63936500  0.86063500  0.28528800  1
  O  O3  1  0.36063500  0.13936500  0.28528800  1
  O  O4  1  0.13936500  0.63936500  0.71471200  1
  O  O5  1  0.86063500  0.36063500  0.71471200  1
  O  O6  1  0.07704700  0.83551800  0.19084800  1
  O  O7  1  0.92295300  0.16448200  0.19084800  1
  O  O8  1  0.16448200  0.07704700  0.80915200  1
  O  O9  1  0.42295300  0.33551800  0.80915200  1
  O  O10  1  0.83551800  0.92295300  0.80915200  1
  O  O11  1  0.57704700  0.66448200  0.80915200  1
  O  O12  1  0.33551800  0.57704700  0.19084800  1
  O  O13  1  0.66448200  0.42295300  0.19084800  1
loop_
_geom_bond_atom_site_label_1
_geom_bond_atom_site_label_2
_geom_bond_distance
_geom_bond_site_symmetry_2
Eu0 O0 2.347358 1_555
Eu0 O3 2.358727 1_555
Eu0 O9 2.462369 1_555
Eu0 O8 2.462369 1_555
Eu0 O4 2.474807 1_555
Eu0 O5 2.474807 1_455
Eu0 O7 2.685592 1_455
Eu0 O12 2.685592 1_555
Eu1 O0 2.347358 1_655
Eu1 O2 2.358727 1_555
Eu1 O10 2.462369 1_555
Eu1 O11 2.462369 1_555
Eu1 O5 2.474807 1_555
Eu1 O4 2.474807 1_655
Eu1 O6 2.685592 1_655
Eu1 O13 2.685592 1_555
Eu2 O1 2.347358 1_555
Eu2 O5 2.358727 1_555
Eu2 O7 2.462369 1_555
Eu2 O13 2.462369 1_555
Eu2 O3 2.474807 1_555
Eu2 O2 2.474807 1_545
Eu2 O10 2.685592 1_545
Eu2 O9 2.685592 1_555
Eu3 O1 2.347358 1_565
Eu3 O4 2.358727 1_555
Eu3 O12 2.462369 1_555
Eu3 O6 2.462369 1_555
Eu3 O2 2.474807 1_555
Eu3 O3 2.474807 1_565
Eu3 O8 2.685592 1_565
Eu3 O11 2.685592 1_555
Be0 O1 1.572097 1_565
Be0 O2 1.627207 1_556
Be0 O10 1.707604 1_555
Be0 O11 1.707604 1_555
Be1 O1 1.572097 1_555
Be1 O3 1.627207 1_556
Be1 O9 1.707604 1_555
Be1 O8 1.707604 1_555
Be2 O0 1.572097 1_555
Be2 O4 1.627207 1_554
Be2 O12 1.707604 1_555
Be2 O6 1.707604 1_555
Be3 O0 1.572097 1_655
Be3 O5 1.627207 1_554
Be3 O13 1.707604 1_555
Be3 O7 1.707604 1_555
O6 Si0 1.647644 1_565
O7 Si0 1.647644 1_655
O8 Si0 1.647644 1_556
O9 Si1 1.647644 1_556
O10 Si0 1.647644 1_666
O11 Si1 1.647644 1_556
O12 Si1 1.647644 1_555
O13 Si1 1.647644 1_555
