# generated using pymatgen
data_Na2GeO10
_symmetry_space_group_name_H-M   'P 1'
_cell_length_a   5.60045300
_cell_length_b   9.82481130
_cell_length_c   16.77632200
_cell_angle_alpha   90.00000000
_cell_angle_beta   90.00000000
_cell_angle_gamma   116.08420316
_symmetry_Int_Tables_number   1
_chemical_formula_structural   Na2GeO10
_chemical_formula_sum   'Na8 Ge4 O40'
_cell_volume   829.07236450
_cell_formula_units_Z   4
loop_
 _symmetry_equiv_pos_site_id
 _symmetry_equiv_pos_as_xyz
  1  'x, y, z'
loop_
 _atom_site_type_symbol
 _atom_site_label
 _atom_site_symmetry_multiplicity
 _atom_site_fract_x
 _atom_site_fract_y
 _atom_site_fract_z
 _atom_site_occupancy
  Na  Na0  1  0.64712100  0.29514600  0.21772400  1
  Na  Na1  1  0.35287900  0.20485400  0.71772400  1
  Na  Na2  1  0.35287900  0.70485400  0.78227600  1
  Na  Na3  1  0.64712100  0.79514600  0.28227600  1
  Na  Na4  1  0.88197500  0.41062900  0.39511400  1
  Na  Na5  1  0.11802500  0.08937100  0.89511400  1
  Na  Na6  1  0.11802500  0.58937100  0.60488600  1
  Na  Na7  1  0.88197500  0.91062900  0.10488600  1
  Ge  Ge0  1  0.77454500  0.38791500  0.91508000  1
  Ge  Ge1  1  0.22545500  0.11208500  0.41508000  1
  Ge  Ge2  1  0.22545500  0.61208500  0.08492000  1
  Ge  Ge3  1  0.77454500  0.88791500  0.58492000  1
  O  O0  1  0.08146600  0.35763000  0.88823000  1
  O  O1  1  0.91853400  0.14237000  0.38823000  1
  O  O2  1  0.91853400  0.64237000  0.11177000  1
  O  O3  1  0.08146600  0.85763000  0.61177000  1
  O  O4  1  0.51876400  0.26330800  0.86129400  1
  O  O5  1  0.48123600  0.23669200  0.36129400  1
  O  O6  1  0.48123600  0.73669200  0.13870600  1
  O  O7  1  0.51876400  0.76330800  0.63870600  1
  O  O8  1  0.82689900  0.58487600  0.90942800  1
  O  O9  1  0.17310100  0.91512400  0.40942800  1
  O  O10  1  0.17310100  0.41512400  0.09057200  1
  O  O11  1  0.82689900  0.08487600  0.59057200  1
  O  O12  1  0.75200300  0.36336200  0.02734100  1
  O  O13  1  0.24799700  0.13663800  0.52734100  1
  O  O14  1  0.24799700  0.63663800  0.97265900  1
  O  O15  1  0.75200300  0.86336200  0.47265900  1
  O  O16  1  0.68644700  0.00297600  0.78731800  1
  O  O17  1  0.31355300  0.49702400  0.28731800  1
  O  O18  1  0.31355300  0.99702400  0.21268200  1
  O  O19  1  0.68644700  0.50297600  0.71268200  1
  O  O20  1  0.18976400  0.43152900  0.82059400  1
  O  O21  1  0.81023600  0.06847100  0.32059400  1
  O  O22  1  0.81023600  0.56847100  0.17940600  1
  O  O23  1  0.18976400  0.93152900  0.67940600  1
  O  O24  1  0.92689200  0.61690700  0.72597800  1
  O  O25  1  0.07310800  0.88309300  0.22597800  1
  O  O26  1  0.07310800  0.38309300  0.27402200  1
  O  O27  1  0.92689200  0.11690700  0.77402200  1
  O  O28  1  0.60516600  0.99291600  0.00019700  1
  O  O29  1  0.39483400  0.50708400  0.50019700  1
  O  O30  1  0.39483400  0.00708400  0.99980300  1
  O  O31  1  0.60516600  0.49291600  0.49980300  1
  O  O32  1  0.31763000  0.59109900  0.34926700  1
  O  O33  1  0.68237000  0.90890100  0.84926700  1
  O  O34  1  0.68237000  0.40890100  0.65073300  1
  O  O35  1  0.31763000  0.09109900  0.15073300  1
  O  O36  1  0.09478400  0.70375600  0.93728000  1
  O  O37  1  0.90521600  0.79624400  0.43728000  1
  O  O38  1  0.90521600  0.29624400  0.06272000  1
  O  O39  1  0.09478400  0.20375600  0.56272000  1
loop_
_geom_bond_atom_site_label_1
_geom_bond_atom_site_label_2
_geom_bond_distance
_geom_bond_site_symmetry_2
Na0 O35 2.331093 1_555
Na0 O26 2.348941 1_655
Na0 O22 2.510319 1_555
Na0 O5 2.554402 1_555
Na0 O18 2.695238 1_545
Na0 O38 2.972842 1_555
Na1 O34 2.331093 1_555
Na1 O27 2.348941 1_455
Na1 O23 2.510319 1_545
Na1 O4 2.554402 1_555
Na1 O19 2.695238 1_555
Na1 O39 2.972842 1_555
Na2 O33 2.331093 1_555
Na2 O24 2.348941 1_455
Na2 O20 2.510319 1_555
Na2 O7 2.554402 1_555
Na2 O16 2.695238 1_565
Na2 O36 2.972842 1_555
Na3 O32 2.331093 1_555
Na3 O25 2.348941 1_655
Na3 O21 2.510319 1_565
Na3 O6 2.554402 1_555
Na3 O17 2.695238 1_555
Na3 O37 2.972842 1_555
Na4 O5 2.215064 1_555
Na4 O26 2.366554 1_655
Na4 O32 2.425709 1_655
Na4 O31 2.691395 1_555
Na4 O1 2.734256 1_555
Na5 O4 2.215064 1_555
Na5 O27 2.366554 1_455
Na5 O33 2.425709 1_445
Na5 O30 2.691395 1_555
Na5 O0 2.734256 1_555
Na6 O7 2.215064 1_555
Na6 O24 2.366554 1_455
Na6 O34 2.425709 1_455
Na6 O29 2.691395 1_555
Na6 O3 2.734256 1_555
Na7 O6 2.215064 1_555
Na7 O25 2.366554 1_655
Na7 O35 2.425709 1_665
Na7 O28 2.691395 1_555
Na7 O2 2.734256 1_555
Ge0 O4 1.680121 1_555
Ge0 O8 1.827742 1_555
Ge0 O12 1.895855 1_556
Ge0 O0 1.922446 1_655
Ge1 O5 1.680121 1_555
Ge1 O9 1.827742 1_545
Ge1 O13 1.895855 1_555
Ge1 O1 1.922446 1_455
Ge2 O6 1.680121 1_555
Ge2 O10 1.827742 1_555
Ge2 O14 1.895855 1_554
Ge2 O2 1.922446 1_455
Ge3 O7 1.680121 1_555
Ge3 O11 1.827742 1_565
Ge3 O15 1.895855 1_555
Ge3 O3 1.922446 1_655
O0 O20 1.339875 1_555
O1 O21 1.339875 1_555
O2 O22 1.339875 1_555
O10 O38 1.514065 1_455
O11 O39 1.514065 1_655
O12 O38 1.421605 1_555
O13 O39 1.421605 1_555
O14 O36 1.421605 1_555
O15 O37 1.421605 1_555
O16 O27 1.338105 1_555
O16 O33 1.384316 1_545
O17 O26 1.338105 1_555
O17 O32 1.384316 1_555
O18 O25 1.338105 1_555
O18 O35 1.384316 1_565
O19 O24 1.338105 1_555
O19 O34 1.384316 1_555
O23 O3 1.339875 1_555
O28 O30 1.245467 1_564
O29 O31 1.245467 1_555
O36 O8 1.514065 1_455
O37 O9 1.514065 1_655
