# generated using pymatgen
data_Yb5Si3SO12
_symmetry_space_group_name_H-M   'P 1'
_cell_length_a   9.65063534
_cell_length_b   9.65063534
_cell_length_c   6.28969198
_cell_angle_alpha   90.00000000
_cell_angle_beta   90.00000000
_cell_angle_gamma   120.00000198
_symmetry_Int_Tables_number   1
_chemical_formula_structural   Yb5Si3SO12
_chemical_formula_sum   'Yb10 Si6 S2 O24'
_cell_volume   507.30811815
_cell_formula_units_Z   2
loop_
 _symmetry_equiv_pos_site_id
 _symmetry_equiv_pos_as_xyz
  1  'x, y, z'
loop_
 _atom_site_type_symbol
 _atom_site_label
 _atom_site_symmetry_multiplicity
 _atom_site_fract_x
 _atom_site_fract_y
 _atom_site_fract_z
 _atom_site_occupancy
  Yb  Yb0  1  0.74899425  0.96101316  0.75000000  1
  Yb  Yb1  1  0.78798209  0.74899425  0.25000000  1
  Yb  Yb2  1  0.96101316  0.21201791  0.25000000  1
  Yb  Yb3  1  0.03898684  0.78798209  0.75000000  1
  Yb  Yb4  1  0.21201791  0.25100575  0.75000000  1
  Yb  Yb5  1  0.25100575  0.03898684  0.25000000  1
  Yb  Yb6  1  0.33333300  0.66666700  0.49496136  1
  Yb  Yb7  1  0.66666700  0.33333300  0.99496136  1
  Yb  Yb8  1  0.66666700  0.33333300  0.50503864  1
  Yb  Yb9  1  0.33333300  0.66666700  0.00503864  1
  Si  Si0  1  0.58005558  0.60952401  0.75000000  1
  Si  Si1  1  0.97053157  0.58005558  0.25000000  1
  Si  Si2  1  0.60952401  0.02946843  0.25000000  1
  Si  Si3  1  0.39047599  0.97053157  0.75000000  1
  Si  Si4  1  0.02946843  0.41994442  0.75000000  1
  Si  Si5  1  0.41994442  0.39047599  0.25000000  1
  S  S0  1  0.00000000  0.00000000  0.00000000  1
  S  S1  1  0.00000000  0.00000000  0.50000000  1
  O  O0  1  0.36287126  0.27242120  0.45763947  1
  O  O1  1  0.09045006  0.36287126  0.95763947  1
  O  O2  1  0.27242120  0.90954994  0.95763947  1
  O  O3  1  0.72757880  0.09045006  0.45763947  1
  O  O4  1  0.90954994  0.63712874  0.45763947  1
  O  O5  1  0.63712874  0.72757880  0.95763947  1
  O  O6  1  0.63712874  0.72757880  0.54236053  1
  O  O7  1  0.90954994  0.63712874  0.04236053  1
  O  O8  1  0.72757880  0.09045006  0.04236053  1
  O  O9  1  0.27242120  0.90954994  0.54236053  1
  O  O10  1  0.09045006  0.36287126  0.54236053  1
  O  O11  1  0.36287126  0.27242120  0.04236053  1
  O  O12  1  0.38348391  0.52722306  0.75000000  1
  O  O13  1  0.85626084  0.38348391  0.25000000  1
  O  O14  1  0.52722306  0.14373916  0.25000000  1
  O  O15  1  0.47277694  0.85626084  0.75000000  1
  O  O16  1  0.14373916  0.61651609  0.75000000  1
  O  O17  1  0.61651609  0.47277694  0.25000000  1
  O  O18  1  0.36380355  0.52087847  0.25000000  1
  O  O19  1  0.84292508  0.36380355  0.75000000  1
  O  O20  1  0.52087847  0.15707492  0.75000000  1
  O  O21  1  0.47912153  0.84292508  0.25000000  1
  O  O22  1  0.15707492  0.63619645  0.25000000  1
  O  O23  1  0.63619645  0.47912153  0.75000000  1
loop_
_geom_bond_atom_site_label_1
_geom_bond_atom_site_label_2
_geom_bond_distance
_geom_bond_site_symmetry_2
S0 Yb2 2.751450 1_455
S0 Yb3 2.751450 1_544
S0 Yb4 2.751455 1_554
S0 Yb1 2.751455 1_445
S0 Yb5 2.751458 1_555
S0 Yb0 2.751458 1_444
S1 Yb2 2.751450 1_455
S1 Yb3 2.751450 1_545
S1 Yb4 2.751455 1_555
S1 Yb1 2.751455 1_445
S1 Yb5 2.751458 1_555
S1 Yb0 2.751458 1_445
O0 Si5 1.636909 1_555
O0 Yb4 2.289689 1_555
O0 Yb5 2.348211 1_555
O0 Yb8 2.703068 1_555
O1 Si4 1.636909 1_555
O1 Yb2 2.289686 1_456
O1 Yb4 2.348204 1_555
O1 Yb9 2.703065 1_556
O2 Si3 1.636909 1_555
O2 Yb5 2.289683 1_566
O2 Yb3 2.348211 1_555
O2 Yb9 2.703059 1_556
O3 Si2 1.636909 1_555
O3 Yb0 2.289683 1_545
O3 Yb2 2.348211 1_555
O3 Yb8 2.703059 1_555
O4 Si1 1.636909 1_555
O4 Yb3 2.289686 1_655
O4 Yb1 2.348204 1_555
O4 Yb8 2.703065 1_555
O5 Si0 1.636909 1_555
O5 Yb1 2.289689 1_556
O5 Yb0 2.348211 1_555
O5 Yb9 2.703068 1_556
O6 Si0 1.636909 1_555
O6 Yb1 2.289689 1_555
O6 Yb0 2.348211 1_555
O6 Yb6 2.703068 1_555
O7 Si1 1.636909 1_555
O7 Yb3 2.289686 1_654
O7 Yb1 2.348204 1_555
O7 Yb7 2.703065 1_554
O8 Si2 1.636909 1_555
O8 Yb0 2.289683 1_544
O8 Yb2 2.348211 1_555
O8 Yb7 2.703059 1_554
O9 Si3 1.636909 1_555
O9 Yb5 2.289683 1_565
O9 Yb3 2.348211 1_555
O9 Yb6 2.703059 1_555
O10 Si4 1.636909 1_555
O10 Yb2 2.289686 1_455
O10 Yb4 2.348204 1_555
O10 Yb6 2.703065 1_555
O11 Si5 1.636909 1_555
O11 Yb4 2.289689 1_554
O11 Yb5 2.348211 1_555
O11 Yb7 2.703068 1_554
O12 Si0 1.650113 1_555
O12 Yb9 2.295585 1_556
O12 Yb6 2.295585 1_555
O12 Yb4 2.330877 1_555
O13 Si1 1.650113 1_555
O13 Yb8 2.295578 1_555
O13 Yb7 2.295578 1_554
O13 Yb2 2.330885 1_555
O14 Si2 1.650113 1_555
O14 Yb8 2.295580 1_555
O14 Yb7 2.295580 1_554
O14 Yb5 2.330876 1_555
O15 Si3 1.650113 1_555
O15 Yb9 2.295580 1_556
O15 Yb6 2.295580 1_555
O15 Yb0 2.330876 1_555
O16 Si4 1.650113 1_555
O16 Yb9 2.295578 1_556
O16 Yb6 2.295578 1_555
O16 Yb3 2.330885 1_555
O17 Si5 1.650113 1_555
O17 Yb8 2.295585 1_555
O17 Yb7 2.295585 1_554
O17 Yb1 2.330877 1_555
O18 Si5 1.599722 1_555
O18 Yb6 2.203081 1_555
O18 Yb9 2.203081 1_555
O19 Si4 1.599722 1_655
O19 Yb7 2.203074 1_555
O19 Yb8 2.203074 1_555
O20 Si3 1.599722 1_545
O20 Yb7 2.203077 1_555
O20 Yb8 2.203077 1_555
O21 Si2 1.599722 1_565
O21 Yb6 2.203077 1_555
O21 Yb9 2.203077 1_555
O22 Si1 1.599722 1_455
O22 Yb6 2.203074 1_555
O22 Yb9 2.203074 1_555
O23 Si0 1.599722 1_555
O23 Yb7 2.203081 1_555
O23 Yb8 2.203081 1_555
