# generated using pymatgen
data_CeFeAsO
_symmetry_space_group_name_H-M   'P 1'
_cell_length_a   3.97371900
_cell_length_b   3.97371900
_cell_length_c   8.96776000
_cell_angle_alpha   90.00000000
_cell_angle_beta   90.00000000
_cell_angle_gamma   90.00000000
_symmetry_Int_Tables_number   1
_chemical_formula_structural   CeFeAsO
_chemical_formula_sum   'Ce2 Fe2 As2 O2'
_cell_volume   141.60490035
_cell_formula_units_Z   2
loop_
 _symmetry_equiv_pos_site_id
 _symmetry_equiv_pos_as_xyz
  1  'x, y, z'
loop_
 _atom_site_type_symbol
 _atom_site_label
 _atom_site_symmetry_multiplicity
 _atom_site_fract_x
 _atom_site_fract_y
 _atom_site_fract_z
 _atom_site_occupancy
  Ce  Ce0  1  0.75000000  0.75000000  0.86157000  1
  Ce  Ce1  1  0.25000000  0.25000000  0.13843000  1
  Fe  Fe0  1  0.75000000  0.25000000  0.50000000  1
  Fe  Fe1  1  0.25000000  0.75000000  0.50000000  1
  As  As0  1  0.75000000  0.75000000  0.31128600  1
  As  As1  1  0.25000000  0.25000000  0.68871400  1
  O  O0  1  0.75000000  0.25000000  0.00000000  1
  O  O1  1  0.25000000  0.75000000  0.00000000  1
loop_
_geom_bond_atom_site_label_1
_geom_bond_atom_site_label_2
_geom_bond_distance
_geom_bond_site_symmetry_2
Ce0 O0 2.342798 1_556
Ce0 O0 2.342798 1_566
Ce0 O1 2.342798 1_556
Ce0 O1 2.342798 1_656
Ce1 O1 2.342798 1_555
Ce1 O0 2.342798 1_555
Ce1 O1 2.342798 1_545
Ce1 O0 2.342798 1_455
As0 Fe0 2.609910 1_555
As0 Fe0 2.609910 1_565
As0 Fe1 2.609910 1_555
As0 Fe1 2.609910 1_655
As0 Ce1 3.209070 1_665
As0 Ce1 3.209070 1_565
As0 Ce1 3.209070 1_555
As0 Ce1 3.209070 1_655
As1 Fe0 2.609910 1_455
As1 Fe1 2.609910 1_545
As1 Fe0 2.609910 1_555
As1 Fe1 2.609910 1_555
As1 Ce0 3.209070 1_555
As1 Ce0 3.209070 1_545
As1 Ce0 3.209070 1_455
As1 Ce0 3.209070 1_445
