# generated using pymatgen
data_Sr4ZrTi3O12
_symmetry_space_group_name_H-M   'P 1'
_cell_length_a   4.03729300
_cell_length_b   5.65726500
_cell_length_c   11.32376300
_cell_angle_alpha   90.00000000
_cell_angle_beta   90.00000000
_cell_angle_gamma   90.00000000
_symmetry_Int_Tables_number   1
_chemical_formula_structural   Sr4ZrTi3O12
_chemical_formula_sum   'Sr4 Zr1 Ti3 O12'
_cell_volume   258.63515892
_cell_formula_units_Z   1
loop_
 _symmetry_equiv_pos_site_id
 _symmetry_equiv_pos_as_xyz
  1  'x, y, z'
loop_
 _atom_site_type_symbol
 _atom_site_label
 _atom_site_symmetry_multiplicity
 _atom_site_fract_x
 _atom_site_fract_y
 _atom_site_fract_z
 _atom_site_occupancy
  Sr  Sr0  1  0.50000000  0.50000000  0.50000000  1
  Sr  Sr1  1  0.50000000  0.00000000  0.73767000  1
  Sr  Sr2  1  0.50000000  0.50000000  0.00000000  1
  Sr  Sr3  1  0.50000000  0.00000000  0.26233000  1
  Zr  Zr0  1  0.00000000  0.00000000  0.00000000  1
  Ti  Ti0  1  0.00000000  0.50000000  0.25490100  1
  Ti  Ti1  1  0.00000000  0.00000000  0.50000000  1
  Ti  Ti2  1  0.00000000  0.50000000  0.74509900  1
  O  O0  1  0.00000000  0.24770700  0.37789300  1
  O  O1  1  0.00000000  0.75229300  0.62210700  1
  O  O2  1  0.00000000  0.26035800  0.86779800  1
  O  O3  1  0.00000000  0.73964200  0.13220200  1
  O  O4  1  0.00000000  0.24770700  0.62210700  1
  O  O5  1  0.00000000  0.73964200  0.86779800  1
  O  O6  1  0.00000000  0.26035800  0.13220200  1
  O  O7  1  0.00000000  0.75229300  0.37789300  1
  O  O8  1  0.50000000  0.50000000  0.25842100  1
  O  O9  1  0.50000000  0.00000000  0.50000000  1
  O  O10  1  0.50000000  0.50000000  0.74157900  1
  O  O11  1  0.50000000  0.00000000  0.00000000  1
loop_
_geom_bond_atom_site_label_1
_geom_bond_atom_site_label_2
_geom_bond_distance
_geom_bond_site_symmetry_2
O0 Ti1 1.968668 1_555
O0 Ti0 1.994205 1_555
O0 Sr3 2.784089 1_455
O0 Sr3 2.784089 1_555
O0 Sr0 2.832662 1_455
O0 Sr0 2.832662 1_555
O1 Ti1 1.968668 1_565
O1 Ti2 1.994205 1_555
O1 Sr1 2.784089 1_565
O1 Sr1 2.784089 1_465
O1 Sr0 2.832662 1_455
O1 Sr0 2.832662 1_555
O2 Ti2 1.941248 1_555
O2 Zr0 2.100133 1_556
O2 Sr2 2.855519 1_456
O2 Sr2 2.855519 1_556
O2 Sr1 2.900987 1_455
O2 Sr1 2.900987 1_555
O3 Ti0 1.941248 1_555
O3 Zr0 2.100133 1_565
O3 Sr2 2.855519 1_455
O3 Sr2 2.855519 1_555
O3 Sr3 2.900987 1_565
O3 Sr3 2.900987 1_465
O4 Ti1 1.968668 1_555
O4 Ti2 1.994205 1_555
O4 Sr1 2.784089 1_455
O4 Sr1 2.784089 1_555
O4 Sr0 2.832662 1_455
O4 Sr0 2.832662 1_555
O5 Ti2 1.941248 1_555
O5 Zr0 2.100133 1_566
O5 Sr2 2.855519 1_456
O5 Sr2 2.855519 1_556
O5 Sr1 2.900987 1_565
O5 Sr1 2.900987 1_465
O6 Ti0 1.941248 1_555
O6 Zr0 2.100133 1_555
O6 Sr2 2.855519 1_455
O6 Sr2 2.855519 1_555
O6 Sr3 2.900987 1_455
O6 Sr3 2.900987 1_555
O7 Ti1 1.968668 1_565
O7 Ti0 1.994205 1_555
O7 Sr3 2.784089 1_465
O7 Sr3 2.784089 1_565
O7 Sr0 2.832662 1_455
O7 Sr0 2.832662 1_555
O8 Ti0 2.019040 1_555
O8 Ti0 2.019040 1_655
O8 Sr0 2.735583 1_555
O8 Sr3 2.828979 1_555
O8 Sr3 2.828979 1_565
O8 Sr2 2.926298 1_555
O9 Ti1 2.018647 1_555
O9 Ti1 2.018647 1_655
O9 Sr3 2.691319 1_555
O9 Sr1 2.691319 1_555
O9 Sr0 2.828632 1_545
O9 Sr0 2.828632 1_555
O10 Ti2 2.019040 1_655
O10 Ti2 2.019040 1_555
O10 Sr0 2.735583 1_555
O10 Sr1 2.828979 1_565
O10 Sr1 2.828979 1_555
O10 Sr2 2.926298 1_556
O11 Zr0 2.018647 1_555
O11 Zr0 2.018647 1_655
O11 Sr2 2.828632 1_555
O11 Sr2 2.828632 1_545
O11 Sr1 2.970563 1_554
O11 Sr3 2.970563 1_555
