# generated using pymatgen
data_InGeN2
_symmetry_space_group_name_H-M   'P 1'
_cell_length_a   5.74781600
_cell_length_b   7.32305300
_cell_length_c   5.52242200
_cell_angle_alpha   90.00000000
_cell_angle_beta   90.00000000
_cell_angle_gamma   90.00000000
_symmetry_Int_Tables_number   1
_chemical_formula_structural   InGeN2
_chemical_formula_sum   'In4 Ge4 N8'
_cell_volume   232.44736360
_cell_formula_units_Z   4
loop_
 _symmetry_equiv_pos_site_id
 _symmetry_equiv_pos_as_xyz
  1  'x, y, z'
loop_
 _atom_site_type_symbol
 _atom_site_label
 _atom_site_symmetry_multiplicity
 _atom_site_fract_x
 _atom_site_fract_y
 _atom_site_fract_z
 _atom_site_occupancy
  In  In0  1  0.57487600  0.87620500  0.99255800  1
  In  In1  1  0.42512400  0.12379500  0.49255800  1
  In  In2  1  0.92512400  0.37620500  0.49255800  1
  In  In3  1  0.07487600  0.62379500  0.99255800  1
  Ge  Ge0  1  0.56020000  0.37409100  0.99929500  1
  Ge  Ge1  1  0.43980000  0.62590900  0.49929500  1
  Ge  Ge2  1  0.93980000  0.87409100  0.49929500  1
  Ge  Ge3  1  0.06020000  0.12590900  0.99929500  1
  N  N0  1  0.55066300  0.41068600  0.34354100  1
  N  N1  1  0.44933700  0.58931400  0.84354100  1
  N  N2  1  0.94933700  0.91068600  0.84354100  1
  N  N3  1  0.05066300  0.08931400  0.34354100  1
  N  N4  1  0.62507700  0.83185300  0.40560600  1
  N  N5  1  0.37492300  0.16814700  0.90560600  1
  N  N6  1  0.87492300  0.33185300  0.90560600  1
  N  N7  1  0.12507700  0.66814700  0.40560600  1
loop_
_geom_bond_atom_site_label_1
_geom_bond_atom_site_label_2
_geom_bond_distance
_geom_bond_site_symmetry_2
In0 N2 2.318085 1_555
In0 N4 2.322030 1_556
In0 N1 2.368913 1_555
In0 N5 2.474287 1_565
In1 N3 2.318085 1_555
In1 N5 2.322030 1_555
In1 N0 2.368913 1_555
In1 N4 2.474287 1_545
In2 N0 2.318085 1_555
In2 N6 2.322030 1_555
In2 N3 2.368913 1_655
In2 N7 2.474287 1_655
In3 N1 2.318085 1_555
In3 N7 2.322030 1_556
In3 N2 2.368913 1_455
In3 N6 2.474287 1_455
Ge0 N1 1.905242 1_555
Ge0 N6 1.906761 1_555
Ge0 N5 1.917360 1_555
Ge0 N0 1.920650 1_556
Ge1 N0 1.905242 1_555
Ge1 N7 1.906761 1_555
Ge1 N4 1.917360 1_555
Ge1 N1 1.920650 1_555
Ge2 N3 1.905242 1_665
Ge2 N4 1.906761 1_555
Ge2 N7 1.917360 1_655
Ge2 N2 1.920650 1_555
Ge3 N2 1.905242 1_445
Ge3 N5 1.906761 1_555
Ge3 N6 1.917360 1_455
Ge3 N3 1.920650 1_556
