# generated using pymatgen
data_Li2FeSiO5
_symmetry_space_group_name_H-M   'P 1'
_cell_length_a   7.87562573
_cell_length_b   7.87485792
_cell_length_c   7.87547039
_cell_angle_alpha   70.63090158
_cell_angle_beta   109.71689896
_cell_angle_gamma   70.67067012
_symmetry_Int_Tables_number   1
_chemical_formula_structural   Li2FeSiO5
_chemical_formula_sum   'Li8 Fe4 Si4 O20'
_cell_volume   375.98365639
_cell_formula_units_Z   4
loop_
 _symmetry_equiv_pos_site_id
 _symmetry_equiv_pos_as_xyz
  1  'x, y, z'
loop_
 _atom_site_type_symbol
 _atom_site_label
 _atom_site_symmetry_multiplicity
 _atom_site_fract_x
 _atom_site_fract_y
 _atom_site_fract_z
 _atom_site_occupancy
  Li  Li0  1  0.99964800  0.00208200  0.99996400  1
  Li  Li1  1  0.50216700  0.99977800  0.49991900  1
  Li  Li2  1  0.75166700  0.49253400  0.75781100  1
  Li  Li3  1  0.25189000  0.50588500  0.24410100  1
  Li  Li4  1  0.00208000  0.49789400  0.50174300  1
  Li  Li5  1  0.49970700  0.50019500  0.00196100  1
  Li  Li6  1  0.25032700  0.00746500  0.74418600  1
  Li  Li7  1  0.75000500  0.99410500  0.25778200  1
  Fe  Fe0  1  0.79905000  0.25004400  0.54906600  1
  Fe  Fe1  1  0.70004600  0.74997700  0.95004000  1
  Fe  Fe2  1  0.29988300  0.25001000  0.04987900  1
  Fe  Fe3  1  0.20015700  0.74998200  0.45016500  1
  Si  Si0  1  0.00169800  0.74733200  0.74988100  1
  Si  Si1  1  0.49720100  0.75269300  0.24902200  1
  Si  Si2  1  0.50235600  0.24829600  0.74954700  1
  Si  Si3  1  0.99785500  0.25168700  0.25067200  1
  O  O0  1  0.10806200  0.24999200  0.85807100  1
  O  O1  1  0.60683700  0.25005400  0.35683900  1
  O  O2  1  0.39161100  0.74998200  0.64160300  1
  O  O3  1  0.89146600  0.74998400  0.14145400  1
  O  O4  1  0.79289400  0.74510600  0.75323900  1
  O  O5  1  0.28399100  0.75511800  0.23208500  1
  O  O6  1  0.21469700  0.55246000  0.96205900  1
  O  O7  1  0.70648200  0.53912200  0.45903300  1
  O  O8  1  0.99808700  0.96092200  0.74555500  1
  O  O9  1  0.51450500  0.94757100  0.26714000  1
  O  O10  1  0.98720700  0.74487900  0.53911400  1
  O  O11  1  0.49835700  0.75487600  0.03801100  1
  O  O12  1  0.49892100  0.24751000  0.95936400  1
  O  O13  1  0.01465500  0.25260000  0.46265600  1
  O  O14  1  0.48768600  0.05201100  0.73248200  1
  O  O15  1  0.99885100  0.03951200  0.25381200  1
  O  O16  1  0.29331200  0.46047000  0.53835100  1
  O  O17  1  0.78451300  0.44795700  0.03970300  1
  O  O18  1  0.71523300  0.24743000  0.76724600  1
  O  O19  1  0.20689500  0.25248500  0.24644500  1
loop_
_geom_bond_atom_site_label_1
_geom_bond_atom_site_label_2
_geom_bond_distance
_geom_bond_site_symmetry_2
Li0 O18 2.031143 1_555
Li0 O5 2.033565 1_646
Li0 O15 2.117007 1_556
Li0 O8 2.129875 1_545
Li0 O0 2.467647 1_655
Li0 O3 2.490323 1_546
Li1 O9 2.032959 1_555
Li1 O14 2.036257 1_565
Li1 O4 2.113948 1_555
Li1 O19 2.126517 1_565
Li1 O1 2.462289 1_565
Li1 O2 2.491217 1_555
Li2 O18 2.024664 1_555
Li2 O17 2.038174 1_556
Li2 O4 2.109648 1_555
Li2 O7 2.138667 1_555
Li2 O0 2.470850 1_655
Li2 O2 2.490226 1_555
Li3 O6 2.025734 1_554
Li3 O5 2.036268 1_555
Li3 O16 2.113626 1_555
Li3 O19 2.134476 1_555
Li3 O1 2.464166 1_555
Li3 O3 2.492950 1_455
Li4 O13 2.030813 1_555
Li4 O10 2.033568 1_455
Li4 O16 2.116768 1_555
Li4 O7 2.130039 1_455
Li4 O0 2.467757 1_555
Li4 O3 2.490365 1_455
Li5 O6 2.033029 1_554
Li5 O17 2.036405 1_555
Li5 O11 2.113922 1_555
Li5 O12 2.126418 1_554
Li5 O1 2.461735 1_555
Li5 O2 2.491291 1_554
Li6 O13 2.024775 1_555
Li6 O14 2.038369 1_555
Li6 O11 2.109906 1_546
Li6 O8 2.138845 1_445
Li6 O0 2.470841 1_555
Li6 O2 2.490316 1_545
Li7 O9 2.025811 1_555
Li7 O10 2.036282 1_555
Li7 O15 2.113661 1_565
Li7 O12 2.134696 1_564
Li7 O1 2.464638 1_565
Li7 O3 2.493045 1_555
Fe0 O1 1.742680 1_555
Fe0 O7 1.923114 1_555
Fe0 O8 1.923341 1_545
Fe0 O18 2.034573 1_555
Fe0 O13 2.034707 1_655
Fe1 O3 1.735477 1_556
Fe1 O4 1.929755 1_555
Fe1 O11 1.929841 1_556
Fe1 O17 2.029643 1_556
Fe1 O14 2.029763 1_565
Fe2 O0 1.739131 1_554
Fe2 O12 1.925774 1_554
Fe2 O19 1.925793 1_555
Fe2 O9 2.034094 1_545
Fe2 O6 2.034120 1_554
Fe3 O2 1.735708 1_555
Fe3 O16 1.927961 1_555
Fe3 O15 1.928059 1_465
Fe3 O10 2.030693 1_455
Fe3 O5 2.030774 1_555
O4 Si0 1.659332 1_655
O5 Si1 1.632084 1_555
O6 Si0 1.632411 1_555
O7 Si1 1.661675 1_555
O8 Si0 1.661545 1_655
O9 Si1 1.632365 1_555
O10 Si0 1.632035 1_655
O11 Si1 1.659324 1_555
O12 Si2 1.659732 1_555
O13 Si3 1.632252 1_455
O14 Si2 1.632847 1_555
O15 Si3 1.660178 1_555
O16 Si2 1.660301 1_555
O17 Si3 1.632891 1_555
O18 Si2 1.632293 1_555
O19 Si3 1.659882 1_455
