# generated using pymatgen
data_CrB4
_symmetry_space_group_name_H-M   'P 1'
_cell_length_a   2.84567529
_cell_length_b   4.70638119
_cell_length_c   5.44720661
_cell_angle_alpha   90.00000000
_cell_angle_beta   90.00000000
_cell_angle_gamma   90.00000000
_symmetry_Int_Tables_number   1
_chemical_formula_structural   CrB4
_chemical_formula_sum   'Cr2 B8'
_cell_volume   72.95352658
_cell_formula_units_Z   2
loop_
 _symmetry_equiv_pos_site_id
 _symmetry_equiv_pos_as_xyz
  1  'x, y, z'
loop_
 _atom_site_type_symbol
 _atom_site_label
 _atom_site_symmetry_multiplicity
 _atom_site_fract_x
 _atom_site_fract_y
 _atom_site_fract_z
 _atom_site_occupancy
  Cr  Cr0  1  0.50000000  0.50000000  0.50000000  1
  Cr  Cr1  1  0.00000000  -0.00000000  -0.00000000  1
  B  B0  1  0.50000000  0.66334107  0.86817067  1
  B  B1  1  0.50000000  0.33665893  0.13182933  1
  B  B2  1  -0.00000000  0.16334107  0.63182933  1
  B  B3  1  0.00000000  0.83665893  0.36817067  1
  B  B4  1  0.50000000  0.72524491  0.18024983  1
  B  B5  1  0.50000000  0.27475509  0.81975017  1
  B  B6  1  0.00000000  0.22524491  0.31975017  1
  B  B7  1  0.00000000  0.77475509  0.68024983  1
loop_
_geom_bond_atom_site_label_1
_geom_bond_atom_site_label_2
_geom_bond_distance
_geom_bond_site_symmetry_2
B0 B4 1.724745 1_556
B0 B7 1.829553 1_555
B0 B7 1.829553 1_655
B0 B5 1.847755 1_555
B0 B1 2.103938 1_556
B0 Cr0 2.147791 1_555
B0 Cr1 2.247355 1_666
B0 Cr1 2.247355 1_566
B1 B5 1.724745 1_554
B1 B6 1.829553 1_555
B1 B6 1.829553 1_655
B1 B4 1.847755 1_555
B1 Cr0 2.147791 1_555
B1 Cr1 2.247355 1_655
B1 Cr1 2.247355 1_555
B2 B6 1.724745 1_555
B2 B5 1.829553 1_455
B2 B5 1.829553 1_555
B2 B7 1.847755 1_545
B2 B3 2.103938 1_545
B2 Cr1 2.147791 1_556
B2 Cr0 2.247355 1_455
B2 Cr0 2.247355 1_555
B3 B7 1.724745 1_555
B3 B4 1.829553 1_455
B3 B4 1.829553 1_555
B3 B6 1.847755 1_565
B3 Cr1 2.147791 1_565
B3 Cr0 2.247355 1_555
B3 Cr0 2.247355 1_455
B4 Cr0 2.038986 1_555
B4 Cr1 2.158848 1_565
B4 Cr1 2.158848 1_665
B5 Cr0 2.038986 1_555
B5 Cr1 2.158848 1_656
B5 Cr1 2.158848 1_556
B6 Cr1 2.038986 1_555
B6 Cr0 2.158848 1_455
B6 Cr0 2.158848 1_555
B7 Cr1 2.038986 1_566
B7 Cr0 2.158848 1_455
B7 Cr0 2.158848 1_555
