# generated using pymatgen
data_Cu5As2(HO3)4
_symmetry_space_group_name_H-M   'P 1'
_cell_length_a   5.84208700
_cell_length_b   4.65821700
_cell_length_c   17.76805375
_cell_angle_alpha   87.35246721
_cell_angle_beta   90.00000000
_cell_angle_gamma   90.00000000
_symmetry_Int_Tables_number   1
_chemical_formula_structural   Cu5As2(HO3)4
_chemical_formula_sum   'Cu10 As4 H8 O24'
_cell_volume   483.01851547
_cell_formula_units_Z   2
loop_
 _symmetry_equiv_pos_site_id
 _symmetry_equiv_pos_as_xyz
  1  'x, y, z'
loop_
 _atom_site_type_symbol
 _atom_site_label
 _atom_site_symmetry_multiplicity
 _atom_site_fract_x
 _atom_site_fract_y
 _atom_site_fract_z
 _atom_site_occupancy
  Cu  Cu0  1  0.68318400  0.50421200  0.25268900  1
  Cu  Cu1  1  0.31681600  0.49578800  0.74731100  1
  Cu  Cu2  1  0.18318400  0.49578800  0.24731100  1
  Cu  Cu3  1  0.81681600  0.50421200  0.75268900  1
  Cu  Cu4  1  0.52208100  0.45582900  0.08460000  1
  Cu  Cu5  1  0.47791900  0.54417100  0.91540000  1
  Cu  Cu6  1  0.02208100  0.54417100  0.41540000  1
  Cu  Cu7  1  0.97791900  0.45582900  0.58460000  1
  Cu  Cu8  1  0.00000000  0.50000000  0.00000000  1
  Cu  Cu9  1  0.50000000  0.50000000  0.50000000  1
  As  As0  1  0.91780800  0.97831700  0.13101700  1
  As  As1  1  0.08219200  0.02168300  0.86898300  1
  As  As2  1  0.41780800  0.02168300  0.36898300  1
  As  As3  1  0.58219200  0.97831700  0.63101700  1
  H  H0  1  0.29886200  0.87407800  0.01646200  1
  H  H1  1  0.70113800  0.12592200  0.98353800  1
  H  H2  1  0.79886200  0.12592200  0.48353800  1
  H  H3  1  0.20113800  0.87407800  0.51646200  1
  H  H4  1  0.42797200  0.85791200  0.17518200  1
  H  H5  1  0.57202800  0.14208800  0.82481800  1
  H  H6  1  0.92797200  0.14208800  0.32481800  1
  H  H7  1  0.07202800  0.85791200  0.67518200  1
  O  O0  1  0.93283500  0.74672500  0.21183200  1
  O  O1  1  0.06716500  0.25327500  0.78816800  1
  O  O2  1  0.43283500  0.25327500  0.28816800  1
  O  O3  1  0.56716500  0.74672500  0.71183200  1
  O  O4  1  0.68085600  0.18384700  0.15137500  1
  O  O5  1  0.31914400  0.81615300  0.84862500  1
  O  O6  1  0.18085600  0.81615300  0.34862500  1
  O  O7  1  0.81914400  0.18384700  0.65137500  1
  O  O8  1  0.31837000  0.66543100  0.01192100  1
  O  O9  1  0.68163000  0.33456900  0.98807900  1
  O  O10  1  0.81837000  0.33456900  0.48807900  1
  O  O11  1  0.18163000  0.66543100  0.51192100  1
  O  O12  1  0.66420000  0.83509500  0.37878000  1
  O  O13  1  0.33580000  0.16490500  0.62122000  1
  O  O14  1  0.16420000  0.16490500  0.12122000  1
  O  O15  1  0.83580000  0.83509500  0.87878000  1
  O  O16  1  0.43430700  0.64560800  0.18188300  1
  O  O17  1  0.56569300  0.35439200  0.81811700  1
  O  O18  1  0.93430700  0.35439200  0.31811700  1
  O  O19  1  0.06569300  0.64560800  0.68188300  1
  O  O20  1  0.83472100  0.78507700  0.05458200  1
  O  O21  1  0.16527900  0.21492300  0.94541800  1
  O  O22  1  0.33472100  0.21492300  0.44541800  1
  O  O23  1  0.66527900  0.78507700  0.55458200  1
loop_
_geom_bond_atom_site_label_1
_geom_bond_atom_site_label_2
_geom_bond_distance
_geom_bond_site_symmetry_2
Cu0 O2 1.958258 1_555
Cu0 O0 1.963310 1_555
Cu0 O18 1.978865 1_555
Cu0 O16 2.013468 1_555
Cu0 O4 2.390808 1_555
Cu1 O3 1.958258 1_555
Cu1 O1 1.963310 1_555
Cu1 O19 1.978865 1_555
Cu1 O17 2.013468 1_555
Cu1 O5 2.390808 1_555
Cu2 O0 1.958258 1_455
Cu2 O2 1.963310 1_555
Cu2 O16 1.978865 1_555
Cu2 O18 2.013468 1_455
Cu2 O6 2.390808 1_555
Cu3 O1 1.958258 1_655
Cu3 O3 1.963310 1_555
Cu3 O17 1.978865 1_555
Cu3 O19 2.013468 1_655
Cu3 O7 2.390808 1_555
Cu4 O4 1.932456 1_555
Cu4 O8 1.980094 1_555
Cu4 O16 2.042900 1_555
Cu4 O9 2.053912 1_554
Cu4 O20 2.428406 1_555
Cu4 O14 2.559251 1_555
Cu5 O5 1.932456 1_555
Cu5 O9 1.980094 1_555
Cu5 O17 2.042900 1_555
Cu5 O8 2.053912 1_556
Cu5 O21 2.428406 1_555
Cu5 O15 2.559251 1_555
Cu6 O6 1.932456 1_555
Cu6 O10 1.980094 1_455
Cu6 O18 2.042900 1_455
Cu6 O11 2.053912 1_555
Cu6 O22 2.428406 1_555
Cu6 O12 2.559251 1_455
Cu7 O7 1.932456 1_555
Cu7 O11 1.980094 1_655
Cu7 O19 2.042900 1_655
Cu7 O10 2.053912 1_555
Cu7 O23 2.428406 1_555
Cu7 O13 2.559251 1_655
Cu8 O21 1.937861 1_554
Cu8 O20 1.937861 1_455
Cu8 O8 2.028099 1_555
Cu8 O9 2.028099 1_454
Cu9 O23 1.937861 1_555
Cu9 O22 1.937861 1_555
Cu9 O11 2.028099 1_555
Cu9 O10 2.028099 1_555
As0 O14 1.686349 1_665
As0 O4 1.730817 1_565
As0 O20 1.732994 1_555
As0 O0 1.757925 1_555
As1 O15 1.686349 1_445
As1 O5 1.730817 1_545
As1 O21 1.732994 1_555
As1 O1 1.757925 1_555
As2 O12 1.686349 1_545
As2 O6 1.730817 1_545
As2 O22 1.732994 1_555
As2 O2 1.757925 1_555
As3 O13 1.686349 1_565
As3 O7 1.730817 1_565
As3 O23 1.732994 1_555
As3 O3 1.757925 1_555
H0 O8 0.985585 1_555
H1 O9 0.985585 1_555
H2 O10 0.985585 1_555
H3 O11 0.985585 1_555
H4 O16 0.991315 1_555
H5 O17 0.991315 1_555
H6 O18 0.991315 1_555
H7 O19 0.991315 1_555
