# generated using pymatgen
data_Ca4Ni4Ge3
_symmetry_space_group_name_H-M   'P 1'
_cell_length_a   5.59663054
_cell_length_b   5.59663054
_cell_length_c   19.82877800
_cell_angle_alpha   90.00000000
_cell_angle_beta   90.00000000
_cell_angle_gamma   136.18876334
_symmetry_Int_Tables_number   1
_chemical_formula_structural   Ca4Ni4Ge3
_chemical_formula_sum   'Ca8 Ni8 Ge6'
_cell_volume   429.96585377
_cell_formula_units_Z   2
loop_
 _symmetry_equiv_pos_site_id
 _symmetry_equiv_pos_as_xyz
  1  'x, y, z'
loop_
 _atom_site_type_symbol
 _atom_site_label
 _atom_site_symmetry_multiplicity
 _atom_site_fract_x
 _atom_site_fract_y
 _atom_site_fract_z
 _atom_site_occupancy
  Ca  Ca0  1  0.26862600  0.73137400  0.75000000  1
  Ca  Ca1  1  0.73137400  0.26862600  0.25000000  1
  Ca  Ca2  1  0.55686200  0.44313800  0.84981000  1
  Ca  Ca3  1  0.44313800  0.55686200  0.15019000  1
  Ca  Ca4  1  0.55686200  0.44313800  0.65019000  1
  Ca  Ca5  1  0.44313800  0.55686200  0.34981000  1
  Ca  Ca6  1  0.00000000  0.00000000  0.00000000  1
  Ca  Ca7  1  0.00000000  0.00000000  0.50000000  1
  Ni  Ni0  1  0.72754500  0.27245500  0.96628400  1
  Ni  Ni1  1  0.27245500  0.72754500  0.03371600  1
  Ni  Ni2  1  0.72754500  0.27245500  0.53371600  1
  Ni  Ni3  1  0.27245500  0.72754500  0.46628400  1
  Ni  Ni4  1  0.84429500  0.15570500  0.85659100  1
  Ni  Ni5  1  0.15570500  0.84429500  0.14340900  1
  Ni  Ni6  1  0.84429500  0.15570500  0.64340900  1
  Ni  Ni7  1  0.15570500  0.84429500  0.35659100  1
  Ge  Ge0  1  0.96670600  0.03329400  0.75000000  1
  Ge  Ge1  1  0.03329400  0.96670600  0.25000000  1
  Ge  Ge2  1  0.28336300  0.71663700  0.91280800  1
  Ge  Ge3  1  0.71663700  0.28336300  0.08719200  1
  Ge  Ge4  1  0.28336300  0.71663700  0.58719200  1
  Ge  Ge5  1  0.71663700  0.28336300  0.41280800  1
loop_
_geom_bond_atom_site_label_1
_geom_bond_atom_site_label_2
_geom_bond_distance
_geom_bond_site_symmetry_2
Ca0 Ge0 2.931085 1_455
Ca0 Ge0 2.931085 1_565
Ca0 Ni6 3.073171 1_455
Ca0 Ni6 3.073171 1_565
Ca0 Ni4 3.073171 1_565
Ca0 Ni4 3.073171 1_455
Ca0 Ge0 3.135471 1_465
Ca0 Ge4 3.231909 1_555
Ca0 Ge2 3.231909 1_555
Ca1 Ge1 2.931085 1_545
Ca1 Ge1 2.931085 1_655
Ca1 Ni7 3.073171 1_545
Ca1 Ni5 3.073171 1_545
Ca1 Ni7 3.073171 1_655
Ca1 Ni5 3.073171 1_655
Ca1 Ge1 3.135471 1_645
Ca1 Ge3 3.231909 1_555
Ca1 Ge5 3.231909 1_555
Ca2 Ni0 2.911346 1_555
Ca2 Ni4 2.988048 1_555
Ca2 Ge0 3.025421 1_565
Ca2 Ge0 3.025421 1_455
Ca2 Ni4 3.041537 1_455
Ca2 Ni4 3.041537 1_565
Ca2 Ge2 3.102874 1_555
Ca2 Ge2 3.384247 1_655
Ca2 Ge2 3.384247 1_545
Ca3 Ni1 2.911346 1_555
Ca3 Ni5 2.988048 1_555
Ca3 Ge1 3.025421 1_655
Ca3 Ge1 3.025421 1_545
Ca3 Ni5 3.041537 1_545
Ca3 Ni5 3.041537 1_655
Ca3 Ge3 3.102874 1_555
Ca3 Ge3 3.384247 1_565
Ca3 Ge3 3.384247 1_455
Ca4 Ni2 2.911346 1_555
Ca4 Ni6 2.988048 1_555
Ca4 Ge0 3.025421 1_565
Ca4 Ge0 3.025421 1_455
Ca4 Ni6 3.041537 1_455
Ca4 Ni6 3.041537 1_565
Ca4 Ge4 3.102874 1_555
Ca4 Ge4 3.384247 1_655
Ca4 Ge4 3.384247 1_545
Ca5 Ni3 2.911346 1_555
Ca5 Ni7 2.988048 1_555
Ca5 Ge1 3.025421 1_655
Ca5 Ge1 3.025421 1_545
Ca5 Ni7 3.041537 1_545
Ca5 Ni7 3.041537 1_655
Ca5 Ge5 3.102874 1_555
Ca5 Ge5 3.384247 1_565
Ca5 Ge5 3.384247 1_455
Ca6 Ni0 2.907383 1_454
Ca6 Ni1 2.907383 1_545
Ca6 Ni0 3.223472 1_444
Ca6 Ni1 3.223472 1_555
Ca6 Ni0 3.223472 1_554
Ca6 Ni1 3.223472 1_445
Ca6 Ni4 3.271228 1_454
Ca6 Ni5 3.271228 1_545
Ca6 Ge3 3.413054 1_455
Ca6 Ge2 3.413054 1_544
Ca6 Ge3 3.522840 1_445
Ca6 Ge3 3.522840 1_555
Ca6 Ge2 3.522840 1_554
Ca6 Ge2 3.522840 1_444
Ca7 Ni3 2.907383 1_545
Ca7 Ni2 2.907383 1_455
Ca7 Ni3 3.223472 1_555
Ca7 Ni2 3.223472 1_445
Ca7 Ni2 3.223472 1_555
Ca7 Ni3 3.223472 1_445
Ca7 Ni6 3.271228 1_455
Ca7 Ni7 3.271228 1_545
Ca7 Ge5 3.413054 1_455
Ca7 Ge4 3.413054 1_545
Ca7 Ge5 3.522840 1_445
Ca7 Ge5 3.522840 1_555
Ca7 Ge4 3.522840 1_445
Ca7 Ge4 3.522840 1_555
Ni0 Ni4 2.490186 1_555
Ni0 Ni1 2.522900 1_656
Ni0 Ni1 2.522900 1_546
Ni1 Ni5 2.490186 1_555
Ni2 Ni6 2.490186 1_555
Ni2 Ni3 2.522900 1_655
Ni2 Ni3 2.522900 1_545
Ni3 Ni7 2.490186 1_555
Ge0 Ni6 2.466425 1_555
Ge0 Ni4 2.466425 1_555
Ge1 Ni7 2.466425 1_555
Ge1 Ni5 2.466425 1_555
Ge2 Ni1 2.400133 1_556
Ge2 Ni0 2.412483 1_455
Ge2 Ni0 2.412483 1_565
Ge2 Ni4 2.450037 1_455
Ge2 Ni4 2.450037 1_565
Ge3 Ni0 2.400133 1_554
Ge3 Ni1 2.412483 1_655
Ge3 Ni1 2.412483 1_545
Ge3 Ni5 2.450037 1_545
Ge3 Ni5 2.450037 1_655
Ge4 Ni3 2.400133 1_555
Ge4 Ni2 2.412483 1_455
Ge4 Ni2 2.412483 1_565
Ge4 Ni6 2.450037 1_455
Ge4 Ni6 2.450037 1_565
Ge5 Ni2 2.400133 1_555
Ge5 Ni3 2.412483 1_545
Ge5 Ni3 2.412483 1_655
Ge5 Ni7 2.450037 1_655
Ge5 Ni7 2.450037 1_545
