# generated using pymatgen
data_Sr2MgZn2Sn2(PO4)4
_symmetry_space_group_name_H-M   'P 1'
_cell_length_a   5.78146478
_cell_length_b   7.69389385
_cell_length_c   9.90764584
_cell_angle_alpha   112.42220027
_cell_angle_beta   98.96341390
_cell_angle_gamma   94.82874870
_symmetry_Int_Tables_number   1
_chemical_formula_structural   Sr2MgZn2Sn2(PO4)4
_chemical_formula_sum   'Sr2 Mg1 Zn2 Sn2 P4 O16'
_cell_volume   397.41013876
_cell_formula_units_Z   1
loop_
 _symmetry_equiv_pos_site_id
 _symmetry_equiv_pos_as_xyz
  1  'x, y, z'
loop_
 _atom_site_type_symbol
 _atom_site_label
 _atom_site_symmetry_multiplicity
 _atom_site_fract_x
 _atom_site_fract_y
 _atom_site_fract_z
 _atom_site_occupancy
  Sr  Sr0  1  0.15295627  0.82705577  0.06635337  1
  Sr  Sr1  1  0.85927077  0.17960606  0.97583309  1
  Mg  Mg0  1  0.45610275  0.43668335  0.94703584  1
  Zn  Zn0  1  0.05246360  0.30541962  0.61016155  1
  Zn  Zn1  1  0.01073892  0.68179494  0.41092829  1
  Sn  Sn0  1  0.63404279  0.79115959  0.52172152  1
  Sn  Sn1  1  0.47178457  0.12890875  0.48816073  1
  P  P0  1  0.34604207  0.42463632  0.19209287  1
  P  P1  1  0.61801435  0.56907103  0.76204224  1
  P  P2  1  0.78434611  0.97839811  0.26690646  1
  P  P3  1  0.22296878  0.01977448  0.75627481  1
  O  O0  1  0.73478320  0.59700526  0.92259313  1
  O  O1  1  0.59732132  0.43366270  0.15502844  1
  O  O2  1  0.64626499  0.75188806  0.73396407  1
  O  O3  1  0.02794854  0.14092953  0.72694525  1
  O  O4  1  0.34709467  0.49616911  0.75494036  1
  O  O5  1  0.24155710  0.85892664  0.60766264  1
  O  O6  1  0.81999516  0.17378355  0.40923725  1
  O  O7  1  0.15002772  0.94584053  0.86886149  1
  O  O8  1  0.23858923  0.23106891  0.18021504  1
  O  O9  1  0.80187788  0.00374078  0.12366266  1
  O  O10  1  0.19389676  0.47582137  0.06599134  1
  O  O11  1  0.32583242  0.58230155  0.34981884  1
  O  O12  1  0.72579584  0.40961861  0.64942840  1
  O  O13  1  0.52708507  0.88751196  0.25589093  1
  O  O14  1  0.97851998  0.85983425  0.29407230  1
  O  O15  1  0.46325013  0.16124015  0.82292709  1
loop_
_geom_bond_atom_site_label_1
_geom_bond_atom_site_label_2
_geom_bond_distance
_geom_bond_site_symmetry_2
Mg0 O15 2.011841 1_555
Mg0 O10 2.034847 1_556
Mg0 O0 2.047180 1_555
Mg0 O1 2.104553 1_556
Mg0 O4 2.137328 1_555
Sn0 Zn1 2.646671 1_655
O0 P1 1.553178 1_555
O0 Sr0 2.699990 1_656
O1 P0 1.555281 1_555
O1 Sr1 2.820505 1_554
O2 P1 1.535090 1_555
O2 Sn0 2.227139 1_555
O3 P3 1.583066 1_555
O3 Zn0 2.024475 1_555
O3 Sr1 2.712678 1_455
O4 P1 1.600168 1_555
O4 Zn0 2.079616 1_555
O5 P3 1.546827 1_565
O5 Zn1 2.072254 1_555
O5 Sn0 2.570688 1_555
O6 P2 1.590910 1_545
O6 Zn0 2.047934 1_655
O6 Sn1 2.315805 1_555
O7 P3 1.528375 1_565
O7 Sr0 2.453688 1_556
O7 Sr1 2.606506 1_465
O8 P0 1.518392 1_555
O8 Sr1 2.631521 1_454
O8 Sr0 2.841110 1_545
O9 P2 1.521527 1_545
O9 Sr1 2.381975 1_554
O9 Sr0 2.554420 1_645
O10 P0 1.606536 1_555
O10 Sr1 2.626968 1_454
O10 Sr0 2.731180 1_555
O11 P0 1.600572 1_555
O11 Zn1 2.120388 1_555
O11 Sn0 2.267723 1_555
O12 P1 1.561852 1_555
O12 Zn0 2.146364 1_655
O12 Sn1 2.340187 1_555
O13 P2 1.558584 1_555
O13 Sn1 2.432321 1_565
O13 Sr0 2.513951 1_555
O14 P2 1.558970 1_555
O14 Zn1 2.106445 1_655
O14 Sr0 2.547291 1_655
O15 P3 1.569025 1_555
O15 Sr1 2.501714 1_555
