# generated using pymatgen
data_VFeCoAs
_symmetry_space_group_name_H-M   'P 1'
_cell_length_a   4.08531791
_cell_length_b   4.08531791
_cell_length_c   4.08531791
_cell_angle_alpha   60.00000000
_cell_angle_beta   60.00000000
_cell_angle_gamma   60.00000000
_symmetry_Int_Tables_number   1
_chemical_formula_structural   VFeCoAs
_chemical_formula_sum   'V1 Fe1 Co1 As1'
_cell_volume   48.21282476
_cell_formula_units_Z   1
loop_
 _symmetry_equiv_pos_site_id
 _symmetry_equiv_pos_as_xyz
  1  'x, y, z'
loop_
 _atom_site_type_symbol
 _atom_site_label
 _atom_site_symmetry_multiplicity
 _atom_site_fract_x
 _atom_site_fract_y
 _atom_site_fract_z
 _atom_site_occupancy
  V  V0  1  0.50000000  0.50000000  0.50000000  1
  Fe  Fe0  1  0.25000000  0.25000000  0.25000000  1
  Co  Co0  1  0.75000000  0.75000000  0.75000000  1
  As  As0  1  0.00000000  0.00000000  0.00000000  1
loop_
_geom_bond_atom_site_label_1
_geom_bond_atom_site_label_2
_geom_bond_distance
_geom_bond_site_symmetry_2
Fe0 V0 2.501736 1_455
Fe0 V0 2.501736 1_555
Fe0 V0 2.501736 1_545
Fe0 V0 2.501736 1_554
Co0 V0 2.501736 1_655
Co0 V0 2.501736 1_565
Co0 V0 2.501736 1_555
Co0 V0 2.501736 1_556
As0 Co0 2.501736 1_544
As0 Fe0 2.501736 1_455
As0 Fe0 2.501736 1_554
As0 Co0 2.501736 1_454
As0 Fe0 2.501736 1_555
As0 Co0 2.501736 1_445
As0 Co0 2.501736 1_444
As0 Fe0 2.501736 1_545
As0 V0 2.888756 1_445
As0 V0 2.888756 1_544
As0 V0 2.888756 1_545
As0 V0 2.888756 1_455
As0 V0 2.888756 1_554
As0 V0 2.888756 1_454
