# generated using pymatgen
data_Dy3In5
_symmetry_space_group_name_H-M   'P 1'
_cell_length_a   6.35427554
_cell_length_b   6.35427554
_cell_length_c   10.33014726
_cell_angle_alpha   90.00000000
_cell_angle_beta   90.00000000
_cell_angle_gamma   101.50370362
_symmetry_Int_Tables_number   1
_chemical_formula_structural   Dy3In5
_chemical_formula_sum   'Dy6 In10'
_cell_volume   408.71972035
_cell_formula_units_Z   2
loop_
 _symmetry_equiv_pos_site_id
 _symmetry_equiv_pos_as_xyz
  1  'x, y, z'
loop_
 _atom_site_type_symbol
 _atom_site_label
 _atom_site_symmetry_multiplicity
 _atom_site_fract_x
 _atom_site_fract_y
 _atom_site_fract_z
 _atom_site_occupancy
  Dy  Dy0  1  0.20310209  0.79689791  0.00000000  1
  Dy  Dy1  1  0.79689791  0.20310209  0.00000000  1
  Dy  Dy2  1  0.79689791  0.20310209  0.50000000  1
  Dy  Dy3  1  0.20310209  0.79689791  0.50000000  1
  Dy  Dy4  1  0.62384860  0.62384860  0.25000000  1
  Dy  Dy5  1  0.37615140  0.37615140  0.75000000  1
  In  In0  1  0.50829117  0.07576413  0.25000000  1
  In  In1  1  0.49170883  0.92423587  0.75000000  1
  In  In2  1  0.07576413  0.50829117  0.25000000  1
  In  In3  1  0.92423587  0.49170883  0.75000000  1
  In  In4  1  0.00788383  0.00788383  0.25000000  1
  In  In5  1  0.99211617  0.99211617  0.75000000  1
  In  In6  1  0.30874619  0.30874719  0.04555589  1
  In  In7  1  0.69125381  0.69125281  0.95444411  1
  In  In8  1  0.69125381  0.69125281  0.54555589  1
  In  In9  1  0.30874619  0.30874719  0.45444411  1
loop_
_geom_bond_atom_site_label_1
_geom_bond_atom_site_label_2
_geom_bond_distance
_geom_bond_site_symmetry_2
Dy0 In2 3.177339 1_555
Dy0 In1 3.177339 1_554
Dy0 In7 3.221726 1_454
Dy0 In6 3.221732 1_565
Dy0 In4 3.266339 1_565
Dy0 In5 3.266339 1_454
Dy0 In6 3.335275 1_555
Dy0 In7 3.335284 1_554
Dy0 In3 3.492784 1_454
Dy0 In0 3.492784 1_565
Dy1 In3 3.177339 1_554
Dy1 In0 3.177339 1_555
Dy1 In6 3.221726 1_655
Dy1 In7 3.221732 1_544
Dy1 In4 3.266339 1_655
Dy1 In5 3.266339 1_544
Dy1 In7 3.335275 1_554
Dy1 In6 3.335284 1_555
Dy1 In1 3.492784 1_544
Dy1 In2 3.492784 1_655
Dy2 In3 3.177339 1_555
Dy2 In0 3.177339 1_555
Dy2 In9 3.221726 1_655
Dy2 In8 3.221732 1_545
Dy2 In4 3.266339 1_655
Dy2 In5 3.266339 1_545
Dy2 In8 3.335275 1_555
Dy2 In9 3.335284 1_555
Dy2 In1 3.492784 1_545
Dy2 In2 3.492784 1_655
Dy3 In2 3.177339 1_555
Dy3 In1 3.177339 1_555
Dy3 In8 3.221726 1_455
Dy3 In9 3.221732 1_565
Dy3 In4 3.266339 1_565
Dy3 In5 3.266339 1_455
Dy3 In9 3.335275 1_555
Dy3 In8 3.335284 1_555
Dy3 In3 3.492784 1_455
Dy3 In0 3.492784 1_565
Dy4 In4 3.087816 1_665
Dy4 In7 3.100865 1_554
Dy4 In8 3.100865 1_555
Dy4 In2 3.102622 1_655
Dy4 In0 3.102622 1_565
Dy4 In9 3.298365 1_555
Dy4 In6 3.298365 1_555
Dy4 In2 3.412950 1_555
Dy4 In0 3.412950 1_555
Dy5 In5 3.087816 1_445
Dy5 In6 3.100865 1_556
Dy5 In9 3.100865 1_555
Dy5 In1 3.102622 1_545
Dy5 In3 3.102622 1_455
Dy5 In8 3.298365 1_555
Dy5 In7 3.298365 1_555
Dy5 In3 3.412950 1_555
Dy5 In1 3.412950 1_555
In0 In9 3.001405 1_555
In0 In6 3.001405 1_555
In0 In4 3.122444 1_555
In0 In4 3.287851 1_655
In1 In8 3.001405 1_555
In1 In7 3.001405 1_555
In1 In5 3.122444 1_555
In1 In5 3.287851 1_455
In2 In9 3.001398 1_555
In2 In6 3.001398 1_555
In2 In4 3.122444 1_555
In2 In4 3.287851 1_565
In3 In8 3.001398 1_555
In3 In7 3.001398 1_555
In3 In5 3.122444 1_555
In3 In5 3.287851 1_545
In4 In9 3.211261 1_555
In4 In6 3.211261 1_555
In5 In8 3.211261 1_555
In5 In7 3.211261 1_555
In6 In7 3.216319 1_554
In8 In9 3.216319 1_555
