# generated using pymatgen
data_ZnSn2P2O9
_symmetry_space_group_name_H-M   'P 1'
_cell_length_a   6.44205700
_cell_length_b   8.16937100
_cell_length_c   16.27933700
_cell_angle_alpha   90.00000000
_cell_angle_beta   90.00000000
_cell_angle_gamma   90.00000000
_symmetry_Int_Tables_number   1
_chemical_formula_structural   ZnSn2P2O9
_chemical_formula_sum   'Zn4 Sn8 P8 O36'
_cell_volume   856.74168113
_cell_formula_units_Z   4
loop_
 _symmetry_equiv_pos_site_id
 _symmetry_equiv_pos_as_xyz
  1  'x, y, z'
loop_
 _atom_site_type_symbol
 _atom_site_label
 _atom_site_symmetry_multiplicity
 _atom_site_fract_x
 _atom_site_fract_y
 _atom_site_fract_z
 _atom_site_occupancy
  Zn  Zn0  1  0.75000000  0.51330700  0.81212000  1
  Zn  Zn1  1  0.75000000  0.98669300  0.31212000  1
  Zn  Zn2  1  0.25000000  0.01330700  0.68788000  1
  Zn  Zn3  1  0.25000000  0.48669300  0.18788000  1
  Sn  Sn0  1  0.75000000  0.87914400  0.88544500  1
  Sn  Sn1  1  0.25000000  0.12085600  0.11455500  1
  Sn  Sn2  1  0.25000000  0.37914400  0.61455500  1
  Sn  Sn3  1  0.75000000  0.62085600  0.38544500  1
  Sn  Sn4  1  0.50000000  0.50000000  0.00000000  1
  Sn  Sn5  1  0.50000000  0.00000000  0.50000000  1
  Sn  Sn6  1  0.00000000  0.00000000  0.50000000  1
  Sn  Sn7  1  0.00000000  0.50000000  0.00000000  1
  P  P0  1  0.25000000  0.88769200  0.93637700  1
  P  P1  1  0.75000000  0.11230800  0.06362300  1
  P  P2  1  0.75000000  0.38769200  0.56362300  1
  P  P3  1  0.25000000  0.61230800  0.43637700  1
  P  P4  1  0.75000000  0.90065800  0.71030400  1
  P  P5  1  0.75000000  0.59934200  0.21030400  1
  P  P6  1  0.25000000  0.40065800  0.78969600  1
  P  P7  1  0.25000000  0.09934200  0.28969600  1
  O  O0  1  0.04891200  0.07548800  0.34205400  1
  O  O1  1  0.54891200  0.92451200  0.65794600  1
  O  O2  1  0.95108800  0.57548800  0.15794600  1
  O  O3  1  0.45108800  0.42451200  0.84205400  1
  O  O4  1  0.95108800  0.92451200  0.65794600  1
  O  O5  1  0.45108800  0.07548800  0.34205400  1
  O  O6  1  0.04891200  0.42451200  0.84205400  1
  O  O7  1  0.54891200  0.57548800  0.15794600  1
  O  O8  1  0.25000000  0.77715400  0.48351900  1
  O  O9  1  0.75000000  0.22284600  0.51648100  1
  O  O10  1  0.75000000  0.27715400  0.01648100  1
  O  O11  1  0.25000000  0.72284600  0.98351900  1
  O  O12  1  0.75000000  0.64228200  0.91946400  1
  O  O13  1  0.25000000  0.35771800  0.08053600  1
  O  O14  1  0.25000000  0.14228200  0.58053600  1
  O  O15  1  0.75000000  0.85771800  0.41946400  1
  O  O16  1  0.75000000  0.73181700  0.75602400  1
  O  O17  1  0.25000000  0.26818300  0.24397600  1
  O  O18  1  0.25000000  0.23181700  0.74397600  1
  O  O19  1  0.75000000  0.76818300  0.25602400  1
  O  O20  1  0.43606900  0.59678200  0.37702600  1
  O  O21  1  0.93606900  0.40321800  0.62297400  1
  O  O22  1  0.56393100  0.09678200  0.12297400  1
  O  O23  1  0.06393100  0.90321800  0.87702600  1
  O  O24  1  0.56393100  0.40321800  0.62297400  1
  O  O25  1  0.06393100  0.59678200  0.37702600  1
  O  O26  1  0.43606900  0.90321800  0.87702600  1
  O  O27  1  0.93606900  0.09678200  0.12297400  1
  O  O28  1  0.75000000  0.96694600  0.00246700  1
  O  O29  1  0.25000000  0.52784300  0.71674500  1
  O  O30  1  0.25000000  0.97215700  0.21674500  1
  O  O31  1  0.75000000  0.02784300  0.78325500  1
  O  O32  1  0.75000000  0.53305400  0.50246700  1
  O  O33  1  0.25000000  0.46694600  0.49753300  1
  O  O34  1  0.25000000  0.03305400  0.99753300  1
  O  O35  1  0.75000000  0.47215700  0.28325500  1
loop_
_geom_bond_atom_site_label_1
_geom_bond_atom_site_label_2
_geom_bond_distance
_geom_bond_site_symmetry_2
O0 P7 1.562881 1_555
O0 Zn1 2.114625 1_445
O0 Sn6 2.662883 1_555
O1 P4 1.562881 1_555
O1 Zn2 2.114625 1_565
O1 Sn5 2.662883 1_565
O2 P5 1.562881 1_555
O2 Zn3 2.114625 1_655
O2 Sn7 2.662883 1_655
O3 P6 1.562881 1_555
O3 Zn0 2.114625 1_555
O3 Sn4 2.662883 1_556
O4 P4 1.562881 1_555
O4 Zn2 2.114625 1_665
O4 Sn6 2.662883 1_665
O5 P7 1.562881 1_555
O5 Zn1 2.114625 1_545
O5 Sn5 2.662883 1_555
O6 P6 1.562881 1_555
O6 Zn0 2.114625 1_455
O6 Sn7 2.662883 1_556
O7 P5 1.562881 1_555
O7 Zn3 2.114625 1_555
O7 Sn4 2.662883 1_555
O8 P3 1.550011 1_555
O8 Sn5 2.445405 1_565
O8 Sn6 2.445405 1_565
O9 P2 1.550011 1_555
O9 Sn5 2.445405 1_555
O9 Sn6 2.445405 1_655
O10 P1 1.550011 1_555
O10 Sn7 2.445405 1_655
O10 Sn4 2.445405 1_555
O11 P0 1.550011 1_555
O11 Sn4 2.445405 1_556
O11 Sn7 2.445405 1_556
O12 Sn0 2.012704 1_555
O12 Zn0 2.040560 1_555
O12 Sn7 2.379860 1_656
O12 Sn4 2.379860 1_556
O13 Sn1 2.012704 1_555
O13 Zn3 2.040560 1_555
O13 Sn4 2.379860 1_555
O13 Sn7 2.379860 1_555
O14 Sn2 2.012704 1_555
O14 Zn2 2.040560 1_555
O14 Sn5 2.379860 1_555
O14 Sn6 2.379860 1_555
O15 Sn3 2.012704 1_555
O15 Zn1 2.040560 1_555
O15 Sn5 2.379860 1_565
O15 Sn6 2.379860 1_665
O16 P4 1.567325 1_555
O16 Zn0 2.005116 1_555
O16 Sn0 2.426429 1_555
O17 P7 1.567325 1_555
O17 Zn3 2.005116 1_555
O17 Sn1 2.426429 1_555
O18 P6 1.567325 1_555
O18 Zn2 2.005116 1_555
O18 Sn2 2.426429 1_555
O19 P5 1.567325 1_555
O19 Zn1 2.005116 1_555
O19 Sn3 2.426429 1_555
O20 P3 1.544805 1_555
O20 Sn3 2.036519 1_555
O21 P2 1.544805 1_555
O21 Sn2 2.036519 1_655
O22 P1 1.544805 1_555
O22 Sn1 2.036519 1_555
O23 P0 1.544805 1_555
O23 Sn0 2.036519 1_455
O24 P2 1.544805 1_555
O24 Sn2 2.036519 1_555
O25 P3 1.544805 1_555
O25 Sn3 2.036519 1_455
O26 P0 1.544805 1_555
O26 Sn0 2.036519 1_555
O27 P1 1.544805 1_555
O27 Sn1 2.036519 1_655
O28 P1 1.549636 1_565
O28 Sn0 2.035603 1_554
O29 P6 1.577956 1_555
O29 Sn2 2.059903 1_555
O30 P7 1.577956 1_565
O30 Sn1 2.059903 1_565
O31 P4 1.577956 1_545
O31 Sn0 2.059903 1_545
O32 P2 1.549636 1_555
O32 Sn3 2.035603 1_555
O33 P3 1.549636 1_555
O33 Sn2 2.035603 1_555
O34 P0 1.549636 1_545
O34 Sn1 2.035603 1_556
O35 P5 1.577956 1_555
O35 Sn3 2.059903 1_555
