# generated using pymatgen
data_CaFe5As3
_symmetry_space_group_name_H-M   'P 1'
_cell_length_a   3.81437000
_cell_length_b   7.27195400
_cell_length_c   9.46797695
_cell_angle_alpha   78.86853812
_cell_angle_beta   90.00000000
_cell_angle_gamma   90.00000000
_symmetry_Int_Tables_number   1
_chemical_formula_structural   CaFe5As3
_chemical_formula_sum   'Ca2 Fe10 As6'
_cell_volume   257.68125660
_cell_formula_units_Z   2
loop_
 _symmetry_equiv_pos_site_id
 _symmetry_equiv_pos_as_xyz
  1  'x, y, z'
loop_
 _atom_site_type_symbol
 _atom_site_label
 _atom_site_symmetry_multiplicity
 _atom_site_fract_x
 _atom_site_fract_y
 _atom_site_fract_z
 _atom_site_occupancy
  Ca  Ca0  1  0.25000000  0.30412100  0.28136300  1
  Ca  Ca1  1  0.75000000  0.69587900  0.71863700  1
  Fe  Fe0  1  0.25000000  0.61776800  0.99872100  1
  Fe  Fe1  1  0.75000000  0.38223200  0.00127900  1
  Fe  Fe2  1  0.75000000  0.87733000  0.99509900  1
  Fe  Fe3  1  0.25000000  0.12267000  0.00490100  1
  Fe  Fe4  1  0.25000000  0.81564600  0.20562300  1
  Fe  Fe5  1  0.75000000  0.18435400  0.79437700  1
  Fe  Fe6  1  0.75000000  0.57672600  0.41875300  1
  Fe  Fe7  1  0.25000000  0.42327400  0.58124700  1
  Fe  Fe8  1  0.75000000  0.96585800  0.42017900  1
  Fe  Fe9  1  0.25000000  0.03414200  0.57982100  1
  As  As0  1  0.75000000  0.60094900  0.16169800  1
  As  As1  1  0.25000000  0.39905100  0.83830200  1
  As  As2  1  0.75000000  0.07242800  0.15811100  1
  As  As3  1  0.25000000  0.92757200  0.84188900  1
  As  As4  1  0.25000000  0.75559800  0.47270500  1
  As  As5  1  0.75000000  0.24440200  0.52729500  1
loop_
_geom_bond_atom_site_label_1
_geom_bond_atom_site_label_2
_geom_bond_distance
_geom_bond_site_symmetry_2
Ca0 Fe9 3.114069 1_555
Ca0 Fe7 3.124468 1_555
Ca0 Fe3 3.150585 1_555
Ca0 Fe0 3.163332 1_554
Ca0 Fe8 3.188607 1_445
Ca0 Fe8 3.188607 1_545
Ca0 Fe6 3.202332 1_455
Ca0 Fe6 3.202332 1_555
Ca0 Fe1 3.226544 1_555
Ca0 Fe1 3.226544 1_455
Ca1 Fe8 3.114069 1_555
Ca1 Fe6 3.124468 1_555
Ca1 Fe2 3.150585 1_555
Ca1 Fe1 3.163332 1_556
Ca1 Fe9 3.188607 1_665
Ca1 Fe9 3.188607 1_565
Ca1 Fe7 3.202332 1_555
Ca1 Fe7 3.202332 1_655
Ca1 Fe0 3.226544 1_655
Ca1 Fe0 3.226544 1_555
As0 Fe2 2.302906 1_554
As0 Fe1 2.401944 1_555
As0 Fe6 2.405999 1_555
As0 Fe0 2.441410 1_554
As0 Fe0 2.441410 1_654
As0 Fe4 2.549230 1_655
As0 Fe4 2.549230 1_555
As0 Ca0 2.938695 1_555
As0 Ca0 2.938695 1_655
As1 Fe3 2.302906 1_556
As1 Fe0 2.401944 1_555
As1 Fe7 2.405999 1_555
As1 Fe1 2.441410 1_556
As1 Fe1 2.441410 1_456
As1 Fe5 2.549230 1_455
As1 Fe5 2.549230 1_555
As1 Ca1 2.938695 1_455
As1 Ca1 2.938695 1_555
As2 Fe2 2.289188 1_544
As2 Fe3 2.381262 1_555
As2 Fe3 2.381262 1_655
As2 Fe1 2.447175 1_555
As2 Fe8 2.452494 1_545
As2 Fe4 2.646169 1_545
As2 Fe4 2.646169 1_645
As2 Ca0 2.932072 1_655
As2 Ca0 2.932072 1_555
As3 Fe3 2.289188 1_566
As3 Fe2 2.381262 1_555
As3 Fe2 2.381262 1_455
As3 Fe0 2.447175 1_555
As3 Fe9 2.452494 1_565
As3 Fe5 2.646169 1_565
As3 Fe5 2.646169 1_465
As3 Ca1 2.932072 1_455
As3 Ca1 2.932072 1_555
As4 Fe6 2.418014 1_455
As4 Fe6 2.418014 1_555
As4 Fe9 2.434056 1_565
As4 Fe8 2.434937 1_455
As4 Fe8 2.434937 1_555
As4 Fe7 2.436666 1_555
As4 Fe4 2.481688 1_555
As4 Ca1 2.976124 1_455
As4 Ca1 2.976124 1_555
As5 Fe7 2.418014 1_555
As5 Fe7 2.418014 1_655
As5 Fe8 2.434056 1_545
As5 Fe9 2.434937 1_555
As5 Fe9 2.434937 1_655
As5 Fe6 2.436666 1_555
As5 Fe5 2.481688 1_555
As5 Ca0 2.976124 1_555
As5 Ca0 2.976124 1_655
