# generated using pymatgen
data_K3Nd(BO3)2
_symmetry_space_group_name_H-M   'P 1'
_cell_length_a   7.25221800
_cell_length_b   9.15666300
_cell_length_c   11.33934000
_cell_angle_alpha   90.00000000
_cell_angle_beta   90.00000000
_cell_angle_gamma   90.00000000
_symmetry_Int_Tables_number   1
_chemical_formula_structural   K3Nd(BO3)2
_chemical_formula_sum   'K12 Nd4 B8 O24'
_cell_volume   753.00152999
_cell_formula_units_Z   4
loop_
 _symmetry_equiv_pos_site_id
 _symmetry_equiv_pos_as_xyz
  1  'x, y, z'
loop_
 _atom_site_type_symbol
 _atom_site_label
 _atom_site_symmetry_multiplicity
 _atom_site_fract_x
 _atom_site_fract_y
 _atom_site_fract_z
 _atom_site_occupancy
  K  K0  1  0.25000000  0.93897000  0.13041700  1
  K  K1  1  0.75000000  0.06103000  0.86958300  1
  K  K2  1  0.75000000  0.56103000  0.63041700  1
  K  K3  1  0.25000000  0.43897000  0.36958300  1
  K  K4  1  0.50425500  0.69953900  0.90239600  1
  K  K5  1  0.49574500  0.30046100  0.09760400  1
  K  K6  1  0.49574500  0.80046100  0.40239600  1
  K  K7  1  0.00425500  0.30046100  0.09760400  1
  K  K8  1  0.50425500  0.19953900  0.59760400  1
  K  K9  1  0.99574500  0.69953900  0.90239600  1
  K  K10  1  0.99574500  0.19953900  0.59760400  1
  K  K11  1  0.00425500  0.80046100  0.40239600  1
  Nd  Nd0  1  0.25000000  0.87400100  0.66869000  1
  Nd  Nd1  1  0.75000000  0.12599900  0.33131000  1
  Nd  Nd2  1  0.75000000  0.62599900  0.16869000  1
  Nd  Nd3  1  0.25000000  0.37400100  0.83131000  1
  B  B0  1  0.25000000  0.56211700  0.62590400  1
  B  B1  1  0.75000000  0.43788300  0.37409600  1
  B  B2  1  0.75000000  0.93788300  0.12590400  1
  B  B3  1  0.25000000  0.06211700  0.87409600  1
  B  B4  1  0.25000000  0.58943200  0.11683500  1
  B  B5  1  0.75000000  0.41056800  0.88316500  1
  B  B6  1  0.75000000  0.91056800  0.61683500  1
  B  B7  1  0.25000000  0.08943200  0.38316500  1
  O  O0  1  0.08282700  0.62844200  0.16958800  1
  O  O1  1  0.91717300  0.37155800  0.83041200  1
  O  O2  1  0.91717300  0.87155800  0.66958800  1
  O  O3  1  0.58282700  0.37155800  0.83041200  1
  O  O4  1  0.08282700  0.12844200  0.33041200  1
  O  O5  1  0.41717300  0.62844200  0.16958800  1
  O  O6  1  0.41717300  0.12844200  0.33041200  1
  O  O7  1  0.58282700  0.87155800  0.66958800  1
  O  O8  1  0.25000000  0.50910100  0.01155500  1
  O  O9  1  0.75000000  0.49089900  0.98844500  1
  O  O10  1  0.75000000  0.99089900  0.51155500  1
  O  O11  1  0.25000000  0.00910100  0.48844500  1
  O  O12  1  0.25000000  0.62102900  0.74147200  1
  O  O13  1  0.75000000  0.37897100  0.25852800  1
  O  O14  1  0.75000000  0.87897100  0.24147200  1
  O  O15  1  0.25000000  0.12102900  0.75852800  1
  O  O16  1  0.25000000  0.65952600  0.53284200  1
  O  O17  1  0.75000000  0.34047400  0.46715800  1
  O  O18  1  0.75000000  0.84047400  0.03284200  1
  O  O19  1  0.25000000  0.15952600  0.96715800  1
  O  O20  1  0.25000000  0.91219600  0.88532500  1
  O  O21  1  0.75000000  0.08780400  0.11467500  1
  O  O22  1  0.75000000  0.58780400  0.38532500  1
  O  O23  1  0.25000000  0.41219600  0.61467500  1
loop_
_geom_bond_atom_site_label_1
_geom_bond_atom_site_label_2
_geom_bond_distance
_geom_bond_site_symmetry_2
K0 O19 2.739660 1_564
K0 O20 2.789974 1_554
K0 O6 3.102065 1_565
K0 O4 3.102065 1_565
K0 O5 3.122830 1_555
K0 O0 3.122830 1_555
K1 O18 2.739660 1_546
K1 O21 2.789974 1_556
K1 O2 3.102065 1_545
K1 O7 3.102065 1_545
K1 O1 3.122830 1_555
K1 O3 3.122830 1_555
K2 O17 2.739660 1_555
K2 O22 2.789974 1_555
K2 O1 3.102065 1_555
K2 O3 3.102065 1_555
K2 O2 3.122830 1_555
K2 O7 3.122830 1_555
K3 O16 2.739660 1_555
K3 O23 2.789974 1_555
K3 O5 3.102065 1_555
K3 O0 3.102065 1_555
K3 O6 3.122830 1_555
K3 O4 3.122830 1_555
K4 O18 2.651329 1_556
K4 O20 2.688714 1_555
K4 O12 2.691953 1_555
K4 O9 2.788924 1_555
K4 O8 2.823632 1_556
K4 O7 3.126454 1_555
K4 O5 3.162630 1_556
K4 O3 3.163897 1_555
K5 O19 2.651329 1_554
K5 O21 2.688714 1_555
K5 O13 2.691953 1_555
K5 O8 2.788924 1_555
K5 O9 2.823632 1_554
K5 O6 3.126454 1_555
K5 O3 3.162630 1_554
K5 O5 3.163897 1_555
K6 O16 2.651329 1_555
K6 O22 2.688714 1_555
K6 O14 2.691953 1_555
K6 O11 2.788924 1_565
K6 O10 2.823632 1_555
K6 O5 3.126454 1_555
K6 O7 3.162630 1_555
K6 O6 3.163897 1_565
K7 O19 2.651329 1_554
K7 O21 2.688714 1_455
K7 O13 2.691953 1_455
K7 O8 2.788924 1_555
K7 O9 2.823632 1_454
K7 O4 3.126454 1_555
K7 O1 3.162630 1_454
K7 O0 3.163897 1_555
K8 O17 2.651329 1_555
K8 O23 2.688714 1_555
K8 O15 2.691953 1_555
K8 O10 2.788924 1_545
K8 O11 2.823632 1_555
K8 O3 3.126454 1_555
K8 O6 3.162630 1_555
K8 O7 3.163897 1_545
K9 O18 2.651329 1_556
K9 O20 2.688714 1_655
K9 O12 2.691953 1_655
K9 O9 2.788924 1_555
K9 O8 2.823632 1_656
K9 O2 3.126454 1_555
K9 O0 3.162630 1_656
K9 O1 3.163897 1_555
K10 O17 2.651329 1_555
K10 O23 2.688714 1_655
K10 O15 2.691953 1_655
K10 O10 2.788924 1_545
K10 O11 2.823632 1_655
K10 O1 3.126454 1_555
K10 O4 3.162630 1_655
K10 O2 3.163897 1_545
K11 O16 2.651329 1_555
K11 O22 2.688714 1_455
K11 O14 2.691953 1_455
K11 O11 2.788924 1_565
K11 O10 2.823632 1_455
K11 O0 3.126454 1_555
K11 O2 3.162630 1_455
K11 O4 3.163897 1_565
Nd0 O11 2.389077 1_565
Nd0 O7 2.413859 1_555
Nd0 O2 2.413859 1_455
Nd0 O12 2.459011 1_555
Nd0 O15 2.480763 1_565
Nd0 O20 2.481270 1_555
Nd0 O16 2.495941 1_555
Nd1 O10 2.389077 1_545
Nd1 O4 2.413859 1_655
Nd1 O6 2.413859 1_555
Nd1 O13 2.459011 1_555
Nd1 O14 2.480763 1_545
Nd1 O21 2.481270 1_555
Nd1 O17 2.495941 1_555
Nd2 O9 2.389077 1_554
Nd2 O0 2.413859 1_655
Nd2 O5 2.413859 1_555
Nd2 O14 2.459011 1_555
Nd2 O13 2.480763 1_555
Nd2 O22 2.481270 1_555
Nd2 O18 2.495941 1_555
Nd3 O8 2.389077 1_556
Nd3 O3 2.413859 1_555
Nd3 O1 2.413859 1_455
Nd3 O15 2.459011 1_555
Nd3 O12 2.480763 1_555
Nd3 O23 2.481270 1_555
Nd3 O19 2.495941 1_555
B0 O23 1.378669 1_555
B0 O16 1.381715 1_555
B0 O12 1.417149 1_555
B1 O22 1.378669 1_555
B1 O17 1.381715 1_555
B1 O13 1.417149 1_555
B2 O21 1.378669 1_565
B2 O18 1.381715 1_555
B2 O14 1.417149 1_555
B3 O20 1.378669 1_545
B3 O19 1.381715 1_555
B3 O15 1.417149 1_555
B4 O5 1.398310 1_555
B4 O0 1.398310 1_555
B4 O8 1.402222 1_555
B5 O1 1.398310 1_555
B5 O3 1.398310 1_555
B5 O9 1.402222 1_555
B6 O2 1.398310 1_555
B6 O7 1.398310 1_555
B6 O10 1.402222 1_555
B7 O6 1.398310 1_555
B7 O4 1.398310 1_555
B7 O11 1.402222 1_555
