# generated using pymatgen
data_Hf5Al3C
_symmetry_space_group_name_H-M   'P 1'
_cell_length_a   8.15875740
_cell_length_b   8.15875740
_cell_length_c   5.68805500
_cell_angle_alpha   90.00000000
_cell_angle_beta   90.00000000
_cell_angle_gamma   119.99999515
_symmetry_Int_Tables_number   1
_chemical_formula_structural   Hf5Al3C
_chemical_formula_sum   'Hf10 Al6 C2'
_cell_volume   327.90080238
_cell_formula_units_Z   2
loop_
 _symmetry_equiv_pos_site_id
 _symmetry_equiv_pos_as_xyz
  1  'x, y, z'
loop_
 _atom_site_type_symbol
 _atom_site_label
 _atom_site_symmetry_multiplicity
 _atom_site_fract_x
 _atom_site_fract_y
 _atom_site_fract_z
 _atom_site_occupancy
  Hf  Hf0  1  0.22408200  0.00000000  0.25000000  1
  Hf  Hf1  1  0.77591800  0.00000000  0.75000000  1
  Hf  Hf2  1  0.00000000  0.22408200  0.25000000  1
  Hf  Hf3  1  0.00000000  0.77591800  0.75000000  1
  Hf  Hf4  1  0.77591800  0.77591800  0.25000000  1
  Hf  Hf5  1  0.22408200  0.22408200  0.75000000  1
  Hf  Hf6  1  0.33333300  0.66666700  0.00000000  1
  Hf  Hf7  1  0.66666700  0.33333300  0.00000000  1
  Hf  Hf8  1  0.66666700  0.33333300  0.50000000  1
  Hf  Hf9  1  0.33333300  0.66666700  0.50000000  1
  Al  Al0  1  0.59737100  0.00000000  0.25000000  1
  Al  Al1  1  0.40262900  0.00000000  0.75000000  1
  Al  Al2  1  0.00000000  0.59737100  0.25000000  1
  Al  Al3  1  0.00000000  0.40262900  0.75000000  1
  Al  Al4  1  0.40262900  0.40262900  0.25000000  1
  Al  Al5  1  0.59737100  0.59737100  0.75000000  1
  C  C0  1  0.00000000  0.00000000  0.00000000  1
  C  C1  1  0.00000000  0.00000000  0.50000000  1
loop_
_geom_bond_atom_site_label_1
_geom_bond_atom_site_label_2
_geom_bond_distance
_geom_bond_site_symmetry_2
Hf6 Hf9 2.844028 1_555
Hf6 Hf9 2.844028 1_554
Hf7 Hf8 2.844028 1_555
Hf7 Hf8 2.844028 1_554
Al0 Hf4 2.850910 1_545
Al0 Hf2 2.850910 1_655
Al0 Hf8 2.863622 1_555
Al0 Hf7 2.863622 1_555
Al0 Hf9 2.863624 1_545
Al0 Hf6 2.863624 1_545
Al0 Hf0 3.045574 1_555
Al0 Hf1 3.195392 1_554
Al0 Hf1 3.195392 1_555
Al1 Hf5 2.850910 1_555
Al1 Hf3 2.850910 1_545
Al1 Hf6 2.863622 1_546
Al1 Hf9 2.863622 1_545
Al1 Hf7 2.863624 1_556
Al1 Hf8 2.863624 1_555
Al1 Hf1 3.045574 1_555
Al1 Hf0 3.195392 1_555
Al1 Hf0 3.195392 1_556
Al2 Hf4 2.850910 1_455
Al2 Hf0 2.850910 1_565
Al2 Hf6 2.863622 1_555
Al2 Hf9 2.863622 1_555
Al2 Hf8 2.863624 1_455
Al2 Hf7 2.863624 1_455
Al2 Hf2 3.045574 1_555
Al2 Hf3 3.195392 1_554
Al2 Hf3 3.195392 1_555
Al3 Hf5 2.850910 1_555
Al3 Hf1 2.850910 1_455
Al3 Hf7 2.863622 1_456
Al3 Hf8 2.863622 1_455
Al3 Hf9 2.863624 1_555
Al3 Hf6 2.863624 1_556
Al3 Hf3 3.045574 1_555
Al3 Hf2 3.195392 1_556
Al3 Hf2 3.195392 1_555
Al4 Hf0 2.850910 1_555
Al4 Hf2 2.850910 1_555
Al4 Hf6 2.863629 1_555
Al4 Hf8 2.863629 1_555
Al4 Hf9 2.863629 1_555
Al4 Hf7 2.863629 1_555
Al4 Hf4 3.045575 1_555
Al4 Hf5 3.195392 1_554
Al4 Hf5 3.195392 1_555
Al5 Hf1 2.850910 1_565
Al5 Hf3 2.850910 1_655
Al5 Hf7 2.863629 1_556
Al5 Hf8 2.863629 1_555
Al5 Hf9 2.863629 1_555
Al5 Hf6 2.863629 1_556
Al5 Hf5 3.045575 1_555
Al5 Hf4 3.195392 1_555
Al5 Hf4 3.195392 1_556
C0 Hf0 2.316150 1_555
C0 Hf2 2.316150 1_555
C0 Hf3 2.316150 1_544
C0 Hf1 2.316150 1_454
C0 Hf4 2.316150 1_445
C0 Hf5 2.316150 1_554
C1 Hf0 2.316150 1_555
C1 Hf2 2.316150 1_555
C1 Hf1 2.316150 1_455
C1 Hf3 2.316150 1_545
C1 Hf4 2.316150 1_445
C1 Hf5 2.316150 1_555
