# generated using pymatgen
data_Ca5(AuN2)2
_symmetry_space_group_name_H-M   'P 1'
_cell_length_a   8.01690600
_cell_length_b   8.01690600
_cell_length_c   13.19017000
_cell_angle_alpha   90.00000000
_cell_angle_beta   90.00000000
_cell_angle_gamma   90.00000000
_symmetry_Int_Tables_number   1
_chemical_formula_structural   Ca5(AuN2)2
_chemical_formula_sum   'Ca20 Au8 N16'
_cell_volume   847.74253814
_cell_formula_units_Z   4
loop_
 _symmetry_equiv_pos_site_id
 _symmetry_equiv_pos_as_xyz
  1  'x, y, z'
loop_
 _atom_site_type_symbol
 _atom_site_label
 _atom_site_symmetry_multiplicity
 _atom_site_fract_x
 _atom_site_fract_y
 _atom_site_fract_z
 _atom_site_occupancy
  Ca  Ca0  1  0.75000000  0.75000000  0.36851000  1
  Ca  Ca1  1  0.75000000  0.75000000  0.86851000  1
  Ca  Ca2  1  0.25000000  0.25000000  0.63149000  1
  Ca  Ca3  1  0.25000000  0.25000000  0.13149000  1
  Ca  Ca4  1  0.13284100  0.57736600  0.41482300  1
  Ca  Ca5  1  0.36715900  0.57736600  0.91482300  1
  Ca  Ca6  1  0.13284100  0.92263400  0.91482300  1
  Ca  Ca7  1  0.36715900  0.92263400  0.41482300  1
  Ca  Ca8  1  0.57736600  0.13284100  0.91482300  1
  Ca  Ca9  1  0.92263400  0.13284100  0.41482300  1
  Ca  Ca10  1  0.57736600  0.36715900  0.41482300  1
  Ca  Ca11  1  0.92263400  0.36715900  0.91482300  1
  Ca  Ca12  1  0.86715900  0.42263400  0.58517700  1
  Ca  Ca13  1  0.63284100  0.42263400  0.08517700  1
  Ca  Ca14  1  0.86715900  0.07736600  0.08517700  1
  Ca  Ca15  1  0.63284100  0.07736600  0.58517700  1
  Ca  Ca16  1  0.42263400  0.86715900  0.08517700  1
  Ca  Ca17  1  0.07736600  0.86715900  0.58517700  1
  Ca  Ca18  1  0.42263400  0.63284100  0.58517700  1
  Ca  Ca19  1  0.07736600  0.63284100  0.08517700  1
  Au  Au0  1  0.09213500  0.90786500  0.25000000  1
  Au  Au1  1  0.40786500  0.90786500  0.75000000  1
  Au  Au2  1  0.09213500  0.59213500  0.75000000  1
  Au  Au3  1  0.40786500  0.59213500  0.25000000  1
  Au  Au4  1  0.90786500  0.09213500  0.75000000  1
  Au  Au5  1  0.59213500  0.09213500  0.25000000  1
  Au  Au6  1  0.90786500  0.40786500  0.25000000  1
  Au  Au7  1  0.59213500  0.40786500  0.75000000  1
  N  N0  1  0.63840400  0.04999800  0.40498800  1
  N  N1  1  0.86159600  0.04999800  0.90498800  1
  N  N2  1  0.63840400  0.45000200  0.90498800  1
  N  N3  1  0.86159600  0.45000200  0.40498800  1
  N  N4  1  0.04999800  0.63840400  0.90498800  1
  N  N5  1  0.45000200  0.63840400  0.40498800  1
  N  N6  1  0.04999800  0.86159600  0.40498800  1
  N  N7  1  0.45000200  0.86159600  0.90498800  1
  N  N8  1  0.36159600  0.95000200  0.59501200  1
  N  N9  1  0.13840400  0.95000200  0.09501200  1
  N  N10  1  0.36159600  0.54999800  0.09501200  1
  N  N11  1  0.13840400  0.54999800  0.59501200  1
  N  N12  1  0.95000200  0.36159600  0.09501200  1
  N  N13  1  0.54999800  0.36159600  0.59501200  1
  N  N14  1  0.95000200  0.13840400  0.59501200  1
  N  N15  1  0.54999800  0.13840400  0.09501200  1
loop_
_geom_bond_atom_site_label_1
_geom_bond_atom_site_label_2
_geom_bond_distance
_geom_bond_site_symmetry_2
Ca0 N6 2.610787 1_655
Ca0 N0 2.610787 1_565
Ca0 N3 2.610787 1_555
Ca0 N5 2.610787 1_555
Ca1 N1 2.610787 1_565
Ca1 N4 2.610787 1_655
Ca1 N7 2.610787 1_555
Ca1 N2 2.610787 1_555
Ca2 N11 2.610787 1_555
Ca2 N13 2.610787 1_555
Ca2 N14 2.610787 1_455
Ca2 N8 2.610787 1_545
Ca3 N10 2.610787 1_555
Ca3 N15 2.610787 1_555
Ca3 N9 2.610787 1_545
Ca3 N12 2.610787 1_455
Ca4 N6 2.377002 1_555
Ca4 N11 2.387246 1_555
Ca4 N3 2.405837 1_455
Ca4 N5 2.592556 1_555
Ca5 N7 2.377002 1_555
Ca5 N10 2.387246 1_556
Ca5 N2 2.405837 1_555
Ca5 N4 2.592556 1_555
Ca6 N4 2.377002 1_555
Ca6 N9 2.387246 1_556
Ca6 N1 2.405837 1_465
Ca6 N7 2.592556 1_555
Ca7 N5 2.377002 1_555
Ca7 N8 2.387246 1_555
Ca7 N0 2.405837 1_565
Ca7 N6 2.592556 1_555
Ca8 N1 2.377002 1_555
Ca8 N15 2.387246 1_556
Ca8 N7 2.405837 1_545
Ca8 N2 2.592556 1_555
Ca9 N0 2.377002 1_555
Ca9 N14 2.387246 1_555
Ca9 N6 2.405837 1_645
Ca9 N3 2.592556 1_555
Ca10 N3 2.377002 1_555
Ca10 N13 2.387246 1_555
Ca10 N5 2.405837 1_555
Ca10 N0 2.592556 1_555
Ca11 N2 2.377002 1_555
Ca11 N12 2.387246 1_556
Ca11 N4 2.405837 1_655
Ca11 N1 2.592556 1_555
Ca12 N14 2.377002 1_555
Ca12 N3 2.387246 1_555
Ca12 N11 2.405837 1_655
Ca12 N13 2.592556 1_555
Ca13 N15 2.377002 1_555
Ca13 N2 2.387246 1_554
Ca13 N10 2.405837 1_555
Ca13 N12 2.592556 1_555
Ca14 N12 2.377002 1_555
Ca14 N1 2.387246 1_554
Ca14 N9 2.405837 1_645
Ca14 N15 2.592556 1_555
Ca15 N13 2.377002 1_555
Ca15 N0 2.387246 1_555
Ca15 N8 2.405837 1_545
Ca15 N14 2.592556 1_555
Ca16 N9 2.377002 1_555
Ca16 N7 2.387246 1_554
Ca16 N15 2.405837 1_565
Ca16 N10 2.592556 1_555
Ca17 N8 2.377002 1_555
Ca17 N6 2.387246 1_555
Ca17 N14 2.405837 1_465
Ca17 N11 2.592556 1_555
Ca18 N11 2.377002 1_555
Ca18 N5 2.387246 1_555
Ca18 N13 2.405837 1_555
Ca18 N8 2.592556 1_555
Ca19 N10 2.377002 1_555
Ca19 N4 2.387246 1_554
Ca19 N12 2.405837 1_455
Ca19 N9 2.592556 1_555
Au0 N6 2.104981 1_555
Au0 N9 2.104981 1_555
Au1 N7 2.104981 1_555
Au1 N8 2.104981 1_555
Au2 N4 2.104981 1_555
Au2 N11 2.104981 1_555
Au3 N5 2.104981 1_555
Au3 N10 2.104981 1_555
Au4 N1 2.104981 1_555
Au4 N14 2.104981 1_555
Au5 N0 2.104981 1_555
Au5 N15 2.104981 1_555
Au6 N3 2.104981 1_555
Au6 N12 2.104981 1_555
Au7 N2 2.104981 1_555
Au7 N13 2.104981 1_555
