# generated using pymatgen
data_Li9Mn2Co5O16
_symmetry_space_group_name_H-M   'P 1'
_cell_length_a   5.15553600
_cell_length_b   5.89180590
_cell_length_c   10.49795588
_cell_angle_alpha   74.09162296
_cell_angle_beta   76.17771391
_cell_angle_gamma   73.90956584
_symmetry_Int_Tables_number   1
_chemical_formula_structural   Li9Mn2Co5O16
_chemical_formula_sum   'Li9 Mn2 Co5 O16'
_cell_volume   290.03610386
_cell_formula_units_Z   1
loop_
 _symmetry_equiv_pos_site_id
 _symmetry_equiv_pos_as_xyz
  1  'x, y, z'
loop_
 _atom_site_type_symbol
 _atom_site_label
 _atom_site_symmetry_multiplicity
 _atom_site_fract_x
 _atom_site_fract_y
 _atom_site_fract_z
 _atom_site_occupancy
  Li  Li0  1  0.50641300  0.55517500  0.13394700  1
  Li  Li1  1  0.50749600  0.05491100  0.13224500  1
  Li  Li2  1  0.48684700  0.17757300  0.38061900  1
  Li  Li3  1  0.49006200  0.69342100  0.37805000  1
  Li  Li4  1  0.51315300  0.82242700  0.61938100  1
  Li  Li5  1  0.50993800  0.30657900  0.62195000  1
  Li  Li6  1  0.49358700  0.44482500  0.86605300  1
  Li  Li7  1  0.49250400  0.94508900  0.86775500  1
  Li  Li8  1  0.00000000  0.00000000  0.50000000  1
  Mn  Mn0  1  0.00010400  0.74997600  0.00009700  1
  Mn  Mn1  1  0.99989600  0.25002400  0.99990300  1
  Co  Co0  1  0.99664500  0.36417800  0.26351900  1
  Co  Co1  1  0.98827700  0.87354900  0.26663400  1
  Co  Co2  1  0.00000000  0.50000000  0.50000000  1
  Co  Co3  1  0.00335500  0.63582200  0.73648100  1
  Co  Co4  1  0.01172300  0.12645100  0.73336600  1
  O  O0  1  0.21422300  0.91665600  0.05888500  1
  O  O1  1  0.21554900  0.41971700  0.05883900  1
  O  O2  1  0.23374000  0.53353800  0.31896600  1
  O  O3  1  0.23713000  0.04227200  0.30131000  1
  O  O4  1  0.24633300  0.15041400  0.57247100  1
  O  O5  1  0.22303700  0.63882200  0.56554200  1
  O  O6  1  0.22606200  0.78082400  0.82197700  1
  O  O7  1  0.22178000  0.28463600  0.82406000  1
  O  O8  1  0.77393800  0.21917600  0.17802300  1
  O  O9  1  0.77822000  0.71536400  0.17594000  1
  O  O10  1  0.75366700  0.84958600  0.42752900  1
  O  O11  1  0.77696300  0.36117800  0.43445800  1
  O  O12  1  0.76626000  0.46646200  0.68103400  1
  O  O13  1  0.76287000  0.95772800  0.69869000  1
  O  O14  1  0.78577700  0.08334400  0.94111500  1
  O  O15  1  0.78445100  0.58028300  0.94116100  1
loop_
_geom_bond_atom_site_label_1
_geom_bond_atom_site_label_2
_geom_bond_distance
_geom_bond_site_symmetry_2
Li0 O9 2.074885 1_555
Li0 O8 2.079586 1_555
Li0 O2 2.103328 1_555
Li0 O15 2.177118 1_554
Li0 O1 2.254031 1_555
Li0 O0 2.301066 1_555
Li1 O3 1.975219 1_555
Li1 O8 2.088508 1_555
Li1 O9 2.101369 1_545
Li1 O14 2.164671 1_554
Li1 O0 2.263999 1_545
Li1 O1 2.309123 1_555
Li2 O10 2.048805 1_545
Li2 O4 2.087958 1_555
Li2 O3 2.105001 1_555
Li2 O2 2.159321 1_555
Li2 O8 2.277150 1_555
Li2 O11 2.315768 1_555
Li3 O10 2.062947 1_555
Li3 O2 2.102467 1_555
Li3 O5 2.115761 1_555
Li3 O11 2.132709 1_555
Li3 O3 2.163915 1_565
Li3 O9 2.274971 1_555
Li4 O4 2.048805 1_565
Li4 O10 2.087958 1_555
Li4 O13 2.105001 1_555
Li4 O12 2.159321 1_555
Li4 O6 2.277150 1_555
Li4 O5 2.315768 1_555
Li5 O4 2.062947 1_555
Li5 O12 2.102467 1_555
Li5 O11 2.115761 1_555
Li5 O5 2.132709 1_555
Li5 O13 2.163915 1_545
Li5 O7 2.274971 1_555
Li6 O7 2.074885 1_555
Li6 O6 2.079586 1_555
Li6 O12 2.103328 1_555
Li6 O1 2.177118 1_556
Li6 O15 2.254031 1_555
Li6 O14 2.301066 1_555
Li7 O13 1.975219 1_555
Li7 O6 2.088508 1_555
Li7 O7 2.101369 1_565
Li7 O0 2.164671 1_556
Li7 O14 2.263999 1_565
Li7 O15 2.309123 1_555
Li8 O4 2.105271 1_555
Li8 O10 2.105271 1_445
Li8 O5 2.131434 1_545
Li8 O11 2.131434 1_455
Li8 O3 2.138429 1_555
Li8 O13 2.138429 1_445
Mn0 O9 1.916189 1_455
Mn0 O6 1.943406 1_554
Mn0 O0 1.955141 1_555
Mn0 O1 1.967664 1_555
Mn0 O15 1.975465 1_454
Mn0 O14 1.979745 1_464
Mn1 O7 1.916189 1_655
Mn1 O8 1.943406 1_556
Mn1 O14 1.955141 1_555
Mn1 O15 1.967664 1_555
Mn1 O1 1.975465 1_656
Mn1 O0 1.979745 1_646
Co0 O11 1.877734 1_555
Co0 O3 1.952125 1_655
Co0 O2 2.040371 1_655
Co0 O8 2.076108 1_555
Co0 O9 2.134229 1_555
Co0 O1 2.158308 1_655
Co1 O10 1.823078 1_555
Co1 O3 1.973632 1_665
Co1 O2 2.059136 1_655
Co1 O8 2.106801 1_565
Co1 O9 2.118136 1_555
Co1 O0 2.196442 1_655
Co2 O5 1.916376 1_555
Co2 O11 1.916376 1_455
Co2 O2 1.983651 1_555
Co2 O12 1.983651 1_455
Co2 O10 2.141656 1_455
Co2 O4 2.141656 1_555
Co3 O5 1.877734 1_555
Co3 O13 1.952125 1_455
Co3 O12 2.040371 1_455
Co3 O6 2.076108 1_555
Co3 O7 2.134229 1_555
Co3 O15 2.158308 1_455
Co4 O4 1.823078 1_555
Co4 O13 1.973632 1_445
Co4 O12 2.059136 1_455
Co4 O6 2.106801 1_545
Co4 O7 2.118136 1_555
Co4 O14 2.196442 1_455
