# generated using pymatgen
data_CsNaMg14O15
_symmetry_space_group_name_H-M   'P 1'
_cell_length_a   8.54240524
_cell_length_b   8.90736306
_cell_length_c   4.41409962
_cell_angle_alpha   89.99998805
_cell_angle_beta   89.99998813
_cell_angle_gamma   89.99997812
_symmetry_Int_Tables_number   1
_chemical_formula_structural   CsNaMg14O15
_chemical_formula_sum   'Cs1 Na1 Mg14 O15'
_cell_volume   335.87018585
_cell_formula_units_Z   1
loop_
 _symmetry_equiv_pos_site_id
 _symmetry_equiv_pos_as_xyz
  1  'x, y, z'
loop_
 _atom_site_type_symbol
 _atom_site_label
 _atom_site_symmetry_multiplicity
 _atom_site_fract_x
 _atom_site_fract_y
 _atom_site_fract_z
 _atom_site_occupancy
  Cs  Cs0  1  0.10395740  0.49999980  0.99999984  1
  Na  Na0  1  0.98780784  0.00000003  -0.00000022  1
  Mg  Mg0  1  0.50030379  0.99999978  0.99999988  1
  Mg  Mg1  1  0.52113724  0.49999989  0.00000015  1
  Mg  Mg2  1  0.99123930  0.23801097  0.50000006  1
  Mg  Mg3  1  0.99123864  0.76198805  0.50000006  1
  Mg  Mg4  1  0.49770815  0.24892259  0.50000034  1
  Mg  Mg5  1  0.49770801  0.75107747  0.49999984  1
  Mg  Mg6  1  0.24261882  0.00000002  0.50000000  1
  Mg  Mg7  1  0.26360644  0.50000155  0.49999967  1
  Mg  Mg8  1  0.74823961  -0.00000011  0.50000009  1
  Mg  Mg9  1  0.75901254  0.49999956  0.49999986  1
  Mg  Mg10  1  0.24198983  0.21548391  -0.00000062  1
  Mg  Mg11  1  0.24198948  0.78451590  0.00000009  1
  Mg  Mg12  1  0.75694641  0.25223510  0.00000008  1
  Mg  Mg13  1  0.75694183  0.74776394  0.00000051  1
  O  O0  1  0.26609333  -0.00000021  0.00000002  1
  O  O1  1  0.72700724  0.00000069  0.99999988  1
  O  O2  1  0.74479410  0.49999996  0.00000017  1
  O  O3  1  0.24615563  0.25759075  0.50000047  1
  O  O4  1  0.24615591  0.74240943  0.49999998  1
  O  O5  1  0.74250479  0.24912916  0.50000009  1
  O  O6  1  0.74250417  0.75087072  0.49999974  1
  O  O7  1  0.00108820  0.99999984  0.50000006  1
  O  O8  1  0.99067008  0.50000112  0.49999995  1
  O  O9  1  0.49104934  0.00000007  0.50000018  1
  O  O10  1  0.49211672  0.50000012  0.50000005  1
  O  O11  1  0.99699483  0.23965132  0.99999996  1
  O  O12  1  0.99699439  0.76034863  0.00000017  1
  O  O13  1  0.48171335  0.26547922  0.99999985  1
  O  O14  1  0.48171260  0.73452073  0.99999979  1
loop_
_geom_bond_atom_site_label_1
_geom_bond_atom_site_label_2
_geom_bond_distance
_geom_bond_site_symmetry_2
Cs0 O8 2.409896 1_455
Cs0 O8 2.409897 1_456
Cs0 O11 2.492534 1_455
Cs0 O12 2.492538 1_456
Na0 O11 2.136103 1_554
Na0 O12 2.136104 1_545
Na0 O7 2.209962 1_644
Na0 O7 2.209965 1_645
Na0 O1 2.227864 1_554
Na0 O0 2.377227 1_655
Mg0 O1 1.936593 1_565
Mg0 O0 2.000721 1_566
Mg0 O9 2.208464 1_565
Mg0 O9 2.208467 1_566
Mg0 O14 2.370045 1_555
Mg0 O13 2.370048 1_565
Mg1 O2 1.910568 1_555
Mg1 O13 2.115934 1_554
Mg1 O14 2.115936 1_554
Mg1 O10 2.220929 1_555
Mg1 O10 2.220930 1_554
Mg2 O7 2.121720 1_645
Mg2 O5 2.127098 1_555
Mg2 O3 2.184572 1_655
Mg2 O11 2.207645 1_555
Mg2 O11 2.207646 1_554
Mg2 O8 2.333646 1_555
Mg3 O7 2.121726 1_655
Mg3 O6 2.127097 1_555
Mg3 O4 2.184579 1_655
Mg3 O12 2.207645 1_555
Mg3 O12 2.207646 1_556
Mg3 O8 2.333618 1_555
Mg4 O5 2.091153 1_555
Mg4 O3 2.150250 1_555
Mg4 O13 2.216185 1_555
Mg4 O13 2.216190 1_554
Mg4 O9 2.217973 1_555
Mg4 O10 2.236949 1_555
Mg5 O6 2.091149 1_555
Mg5 O4 2.150247 1_555
Mg5 O14 2.216188 1_555
Mg5 O14 2.216188 1_554
Mg5 O9 2.217973 1_565
Mg5 O10 2.236947 1_555
Mg6 O7 2.063252 1_545
Mg6 O9 2.122194 1_555
Mg6 O0 2.216141 1_555
Mg6 O0 2.216141 1_556
Mg6 O4 2.294652 1_545
Mg6 O3 2.294653 1_555
Mg7 O10 1.952027 1_555
Mg7 O4 2.164355 1_555
Mg7 O3 2.164381 1_555
Mg7 O8 2.331533 1_455
Mg8 O7 2.159935 1_645
Mg8 O9 2.197024 1_555
Mg8 O1 2.214489 1_555
Mg8 O1 2.214491 1_554
Mg8 O6 2.219625 1_545
Mg8 O5 2.219626 1_555
Mg9 O8 1.978913 1_555
Mg9 O2 2.210388 1_555
Mg9 O2 2.210391 1_556
Mg9 O5 2.239039 1_555
Mg9 O6 2.239046 1_555
Mg9 O10 2.279932 1_555
Mg10 O0 1.930408 1_555
Mg10 O13 2.095678 1_554
Mg10 O11 2.103888 1_454
Mg10 O3 2.238969 1_554
Mg10 O3 2.238979 1_555
Mg11 O0 1.930406 1_565
Mg11 O14 2.095674 1_554
Mg11 O12 2.103889 1_455
Mg11 O4 2.238973 1_555
Mg11 O4 2.238974 1_554
Mg12 O11 2.053652 1_554
Mg12 O2 2.209372 1_555
Mg12 O5 2.210668 1_554
Mg12 O5 2.210668 1_555
Mg12 O1 2.261253 1_554
Mg12 O13 2.354110 1_554
Mg13 O12 2.053688 1_555
Mg13 O2 2.209362 1_555
Mg13 O6 2.210663 1_555
Mg13 O6 2.210670 1_554
Mg13 O1 2.261269 1_564
Mg13 O14 2.354077 1_554
