# generated using pymatgen
data_Li4Ni3Sb5O16
_symmetry_space_group_name_H-M   'P 1'
_cell_length_a   6.19741621
_cell_length_b   10.36444939
_cell_length_c   10.63456968
_cell_angle_alpha   89.83778005
_cell_angle_beta   90.00089734
_cell_angle_gamma   89.99978135
_symmetry_Int_Tables_number   1
_chemical_formula_structural   Li4Ni3Sb5O16
_chemical_formula_sum   'Li8 Ni6 Sb10 O32'
_cell_volume   683.08552066
_cell_formula_units_Z   2
loop_
 _symmetry_equiv_pos_site_id
 _symmetry_equiv_pos_as_xyz
  1  'x, y, z'
loop_
 _atom_site_type_symbol
 _atom_site_label
 _atom_site_symmetry_multiplicity
 _atom_site_fract_x
 _atom_site_fract_y
 _atom_site_fract_z
 _atom_site_occupancy
  Li  Li0  1  0.49996100  0.89154100  0.16569000  1
  Li  Li1  1  0.99998300  0.90144800  0.66037500  1
  Li  Li2  1  0.50008500  0.98726000  0.50251900  1
  Li  Li3  1  0.00014800  0.98159000  0.97705200  1
  Li  Li4  1  0.49990200  0.50528900  0.50289200  1
  Li  Li5  1  0.99995200  0.50341800  0.99487300  1
  Li  Li6  1  0.00005200  0.38517700  0.32026500  1
  Li  Li7  1  0.50012100  0.38822000  0.82016200  1
  Ni  Ni0  1  0.00023200  0.21126900  0.82451700  1
  Ni  Ni1  1  0.24630400  0.71719400  0.41979800  1
  Ni  Ni2  1  0.75319100  0.71700400  0.41981800  1
  Ni  Ni3  1  0.50013300  0.20722200  0.33083100  1
  Ni  Ni4  1  0.74724000  0.72414800  0.92142900  1
  Ni  Ni5  1  0.25276500  0.72409200  0.92149500  1
  Sb  Sb0  1  0.49994900  0.51730700  0.18055100  1
  Sb  Sb1  1  0.99992500  0.52202900  0.67947000  1
  Sb  Sb2  1  0.99990500  0.71855000  0.17389300  1
  Sb  Sb3  1  0.49991500  0.72905000  0.67256800  1
  Sb  Sb4  1  0.99992200  0.97148400  0.34704900  1
  Sb  Sb5  1  0.50006300  0.98319000  0.84291200  1
  Sb  Sb6  1  0.74658600  0.20771000  0.07829000  1
  Sb  Sb7  1  0.24684400  0.21325900  0.58509500  1
  Sb  Sb8  1  0.25367700  0.20772400  0.07834900  1
  Sb  Sb9  1  0.75341000  0.21324100  0.58515900  1
  O  O0  1  0.50009700  0.30609400  0.99597700  1
  O  O1  1  0.00006700  0.31049400  0.50255600  1
  O  O2  1  0.50013500  0.09900700  0.15440400  1
  O  O3  1  0.00016500  0.10417700  0.66151900  1
  O  O4  1  0.00018700  0.30957800  0.99338000  1
  O  O5  1  0.50016100  0.31578900  0.50748000  1
  O  O6  1  0.99996700  0.81135800  0.00962800  1
  O  O7  1  0.49973600  0.81381800  0.50708700  1
  O  O8  1  0.00014000  0.09480200  0.12540800  1
  O  O9  1  0.50011000  0.09469900  0.67161000  1
  O  O10  1  0.49966000  0.60272300  0.34736400  1
  O  O11  1  0.99996100  0.61167400  0.84411700  1
  O  O12  1  0.99971800  0.61034000  0.32904200  1
  O  O13  1  0.49996300  0.62756600  0.83044700  1
  O  O14  1  0.99970400  0.84204600  0.48672000  1
  O  O15  1  0.49998600  0.85699600  0.98208400  1
  O  O16  1  0.76605300  0.61010700  0.08815700  1
  O  O17  1  0.26834200  0.61642300  0.59456500  1
  O  O18  1  0.23386600  0.61008300  0.08817700  1
  O  O19  1  0.73137600  0.61640600  0.59449400  1
  O  O20  1  0.74292000  0.30703700  0.23316700  1
  O  O21  1  0.24010800  0.31682300  0.73789700  1
  O  O22  1  0.25738500  0.30708000  0.23322700  1
  O  O23  1  0.76023400  0.31675700  0.73800700  1
  O  O24  1  0.22255300  0.83637700  0.25642200  1
  O  O25  1  0.71668500  0.85992000  0.75637200  1
  O  O26  1  0.77727700  0.83644800  0.25637300  1
  O  O27  1  0.28331500  0.85996300  0.75640400  1
  O  O28  1  0.27809300  0.09948000  0.43972200  1
  O  O29  1  0.75106200  0.09186300  0.91665800  1
  O  O30  1  0.72212000  0.09944700  0.43978500  1
  O  O31  1  0.24919000  0.09188400  0.91670500  1
loop_
_geom_bond_atom_site_label_1
_geom_bond_atom_site_label_2
_geom_bond_distance
_geom_bond_site_symmetry_2
Li0 O15 1.986123 1_554
Li0 O26 2.051006 1_555
Li0 O24 2.051961 1_555
Li0 O2 2.153279 1_565
Li1 O14 1.948323 1_555
Li1 O25 2.075471 1_555
Li1 O27 2.075694 1_655
Li1 O3 2.101244 1_665
Li2 O7 1.798151 1_555
Li2 O30 1.919957 1_565
Li2 O28 1.920183 1_565
Li2 O9 2.117754 1_565
Li3 O6 1.797088 1_456
Li3 O8 1.968870 1_566
Li3 O31 2.024018 1_565
Li3 O29 2.024239 1_465
Li4 O10 1.935450 1_555
Li4 O5 1.964532 1_555
Li4 O19 2.083153 1_555
Li4 O17 2.083987 1_555
Li5 O11 1.954242 1_555
Li5 O4 2.009153 1_655
Li5 O16 2.077105 1_556
Li5 O18 2.077123 1_656
Li6 O20 2.014315 1_455
Li6 O22 2.014846 1_555
Li6 O1 2.085371 1_555
Li6 O12 2.335821 1_455
Li7 O21 1.978187 1_555
Li7 O23 1.978448 1_555
Li7 O0 2.052159 1_555
Li7 O13 2.483409 1_555
Ni0 O3 2.060972 1_555
Ni0 O23 2.061132 1_455
Ni0 O21 2.061496 1_555
Ni0 O4 2.067221 1_555
Ni0 O31 2.205856 1_555
Ni0 O29 2.206704 1_455
Ni1 O7 2.082476 1_555
Ni1 O10 2.114606 1_555
Ni1 O12 2.121188 1_455
Ni1 O14 2.126470 1_455
Ni1 O17 2.133726 1_555
Ni1 O24 2.134025 1_555
Ni2 O7 2.083455 1_555
Ni2 O10 2.114373 1_555
Ni2 O12 2.120007 1_555
Ni2 O14 2.127203 1_555
Ni2 O19 2.131928 1_555
Ni2 O26 2.136330 1_555
Ni3 O22 2.098969 1_555
Ni3 O20 2.099267 1_555
Ni3 O28 2.115252 1_555
Ni3 O30 2.115556 1_555
Ni3 O2 2.188629 1_555
Ni3 O5 2.192536 1_555
Ni4 O6 2.038306 1_556
Ni4 O13 2.071748 1_555
Ni4 O11 2.119764 1_555
Ni4 O16 2.131336 1_556
Ni4 O15 2.159865 1_555
Ni4 O25 2.254593 1_555
Ni5 O6 2.038596 1_456
Ni5 O13 2.071451 1_555
Ni5 O11 2.120085 1_455
Ni5 O18 2.130779 1_556
Ni5 O15 2.159873 1_555
Ni5 O27 2.255515 1_555
O0 Sb8 2.033244 1_556
O0 Sb6 2.033342 1_556
O1 Sb9 2.029643 1_455
O1 Sb7 2.029790 1_555
O2 Sb8 2.061937 1_555
O2 Sb6 2.062096 1_555
O3 Sb9 2.066530 1_455
O3 Sb7 2.066575 1_555
O4 Sb8 2.096058 1_556
O4 Sb6 2.096404 1_456
O5 Sb7 2.066460 1_555
O5 Sb9 2.066481 1_555
O6 Sb2 1.991823 1_555
O7 Sb3 1.964714 1_555
O8 Sb8 2.021349 1_555
O8 Sb6 2.021483 1_455
O8 Sb4 2.678107 1_445
O9 Sb5 2.154638 1_545
O9 Sb9 2.193788 1_555
O9 Sb7 2.193999 1_555
O10 Sb0 1.984856 1_555
O11 Sb1 1.984516 1_555
O12 Sb2 1.992406 1_555
O13 Sb3 1.978711 1_555
O14 Sb4 1.998680 1_555
O15 Sb5 1.972365 1_555
O16 Sb2 2.049577 1_555
O16 Sb0 2.145921 1_555
O17 Sb3 2.028761 1_555
O17 Sb1 2.129482 1_455
O18 Sb2 2.050111 1_455
O18 Sb0 2.145583 1_555
O19 Sb3 2.028694 1_555
O19 Sb1 2.130332 1_555
O20 Sb6 1.944917 1_555
O21 Sb7 1.950473 1_555
O21 Sb1 2.667899 1_455
O22 Sb8 1.945088 1_555
O23 Sb9 1.950617 1_555
O23 Sb1 2.667035 1_555
O24 Sb2 2.042463 1_455
O24 Sb4 2.191137 1_455
O25 Sb5 2.070819 1_555
O25 Sb3 2.108474 1_555
O26 Sb2 2.042608 1_555
O26 Sb4 2.190938 1_555
O27 Sb5 2.070885 1_555
O27 Sb3 2.108246 1_555
O28 Sb7 1.956664 1_555
O28 Sb4 2.389668 1_445
O29 Sb5 2.075666 1_545
O29 Sb6 2.099687 1_556
O30 Sb9 1.956788 1_555
O30 Sb4 2.388121 1_545
O31 Sb5 2.075401 1_545
O31 Sb8 2.099751 1_556
