# generated using pymatgen
data_Ba2ZnCuBi2F14
_symmetry_space_group_name_H-M   'P 1'
_cell_length_a   7.76955665
_cell_length_b   7.76955665
_cell_length_c   16.18337066
_cell_angle_alpha   89.94437582
_cell_angle_beta   89.94437582
_cell_angle_gamma   40.43900933
_symmetry_Int_Tables_number   1
_chemical_formula_structural   Ba2ZnCuBi2F14
_chemical_formula_sum   'Ba4 Zn2 Cu2 Bi4 F28'
_cell_volume   633.67091117
_cell_formula_units_Z   2
loop_
 _symmetry_equiv_pos_site_id
 _symmetry_equiv_pos_as_xyz
  1  'x, y, z'
loop_
 _atom_site_type_symbol
 _atom_site_label
 _atom_site_symmetry_multiplicity
 _atom_site_fract_x
 _atom_site_fract_y
 _atom_site_fract_z
 _atom_site_occupancy
  Ba  Ba0  1  0.72124600  0.91657800  0.62612200  1
  Ba  Ba1  1  0.91657800  0.72124600  0.12612200  1
  Ba  Ba2  1  0.27875400  0.08342200  0.37387800  1
  Ba  Ba3  1  0.08342200  0.27875400  0.87387800  1
  Zn  Zn0  1  0.43840600  0.56159400  0.75000000  1
  Zn  Zn1  1  0.56159400  0.43840600  0.25000000  1
  Cu  Cu0  1  0.50000000  0.50000000  0.00000000  1
  Cu  Cu1  1  0.50000000  0.50000000  0.50000000  1
  Bi  Bi0  1  0.84074400  0.94268800  0.87708400  1
  Bi  Bi1  1  0.15925600  0.05731200  0.12291600  1
  Bi  Bi2  1  0.94268800  0.84074400  0.37708400  1
  Bi  Bi3  1  0.05731200  0.15925600  0.62291600  1
  F  F0  1  0.86386300  0.17924800  0.32719600  1
  F  F1  1  0.57363800  0.13300800  0.45394600  1
  F  F2  1  0.42636200  0.86699200  0.54605400  1
  F  F3  1  0.10717500  0.40012600  0.59830400  1
  F  F4  1  0.60982900  0.34160900  0.60678700  1
  F  F5  1  0.65839100  0.39017100  0.89321300  1
  F  F6  1  0.13300800  0.57363800  0.95394600  1
  F  F7  1  0.82075200  0.13613700  0.17280400  1
  F  F8  1  0.99295200  0.64860800  0.78061600  1
  F  F9  1  0.89282500  0.59987400  0.40169600  1
  F  F10  1  0.56233200  0.22772200  0.76247800  1
  F  F11  1  0.59987400  0.89282500  0.90169600  1
  F  F12  1  0.22772200  0.56233200  0.26247800  1
  F  F13  1  0.43766800  0.77227800  0.23752200  1
  F  F14  1  0.34160900  0.60982900  0.10678700  1
  F  F15  1  0.00704800  0.35139200  0.21938400  1
  F  F16  1  0.28054200  0.87265800  0.98579400  1
  F  F17  1  0.13613700  0.82075200  0.67280400  1
  F  F18  1  0.71945800  0.12734200  0.01420600  1
  F  F19  1  0.87265800  0.28054200  0.48579400  1
  F  F20  1  0.86699200  0.42636200  0.04605400  1
  F  F21  1  0.77227800  0.43766800  0.73752200  1
  F  F22  1  0.64860800  0.99295200  0.28061600  1
  F  F23  1  0.12734200  0.71945800  0.51420600  1
  F  F24  1  0.39017100  0.65839100  0.39321300  1
  F  F25  1  0.17924800  0.86386300  0.82719600  1
  F  F26  1  0.35139200  0.00704800  0.71938400  1
  F  F27  1  0.40012600  0.10717500  0.09830400  1
loop_
_geom_bond_atom_site_label_1
_geom_bond_atom_site_label_2
_geom_bond_distance
_geom_bond_site_symmetry_2
Ba0 F3 2.642125 1_655
Ba0 F4 2.720210 1_565
Ba0 F10 2.774828 1_565
Ba0 F17 2.804731 1_655
Ba0 F26 2.819329 1_565
Ba0 F23 2.867018 1_655
Ba0 F8 2.890018 1_555
Ba0 F2 2.902931 1_555
Ba0 F1 2.994735 1_565
Ba0 F3 3.129932 1_565
Ba1 F27 2.642125 1_565
Ba1 F14 2.720210 1_655
Ba1 F12 2.774828 1_655
Ba1 F7 2.804731 1_565
Ba1 F15 2.819329 1_655
Ba1 F18 2.867018 1_565
Ba1 F22 2.890018 1_555
Ba1 F20 2.902931 1_555
Ba1 F6 2.994735 1_654
Ba1 F27 3.129932 1_655
Ba2 F9 2.642125 1_455
Ba2 F24 2.720210 1_545
Ba2 F13 2.774828 1_545
Ba2 F0 2.804731 1_455
Ba2 F22 2.819329 1_545
Ba2 F19 2.867018 1_455
Ba2 F15 2.890018 1_555
Ba2 F1 2.902931 1_555
Ba2 F2 2.994735 1_545
Ba2 F9 3.129932 1_545
Ba3 F11 2.642125 1_545
Ba3 F5 2.720210 1_455
Ba3 F21 2.774828 1_455
Ba3 F25 2.804731 1_545
Ba3 F8 2.819329 1_455
Ba3 F16 2.867018 1_545
Ba3 F26 2.890018 1_555
Ba3 F6 2.902931 1_555
Ba3 F20 2.994735 1_456
Ba3 F11 3.129932 1_455
Cu0 F14 1.905107 1_555
Cu0 F5 1.905107 1_554
Cu0 F16 1.956530 1_554
Cu0 F18 1.956530 1_555
Cu0 F20 2.556003 1_555
Cu0 F6 2.556003 1_554
Cu1 F4 1.905107 1_555
Cu1 F24 1.905107 1_555
Cu1 F19 1.956530 1_555
Cu1 F23 1.956530 1_555
Cu1 F2 2.556003 1_555
Cu1 F1 2.556003 1_555
Bi0 F11 2.216519 1_555
Bi0 F8 2.224119 1_555
Bi0 F6 2.238922 1_655
Bi0 F25 2.342850 1_655
Bi0 F10 2.394019 1_565
Bi0 F18 2.411406 1_566
Bi0 F5 2.581888 1_565
Bi1 F27 2.216519 1_555
Bi1 F15 2.224119 1_555
Bi1 F20 2.238922 1_455
Bi1 F7 2.342850 1_455
Bi1 F13 2.394019 1_545
Bi1 F16 2.411406 1_544
Bi1 F14 2.581888 1_545
Bi2 F9 2.216519 1_555
Bi2 F22 2.224119 1_555
Bi2 F1 2.238922 1_565
Bi2 F0 2.342850 1_565
Bi2 F12 2.394019 1_655
Bi2 F23 2.411406 1_655
Bi2 F24 2.581888 1_655
Bi3 F3 2.216519 1_555
Bi3 F26 2.224119 1_555
Bi3 F2 2.238922 1_545
Bi3 F17 2.342850 1_545
Bi3 F21 2.394019 1_455
Bi3 F19 2.411406 1_455
Bi3 F4 2.581888 1_455
F0 Zn1 1.983226 1_555
F7 Zn1 1.983226 1_555
F10 Zn0 1.973401 1_555
F12 Zn1 1.973401 1_555
F13 Zn1 1.973401 1_555
F17 Zn0 1.983226 1_555
F21 Zn0 1.973401 1_555
F25 Zn0 1.983226 1_555
