# generated using pymatgen
data_SrPr(FeO3)2
_symmetry_space_group_name_H-M   'P 1'
_cell_length_a   5.54919500
_cell_length_b   5.58412700
_cell_length_c   7.84474400
_cell_angle_alpha   90.00000000
_cell_angle_beta   90.00000000
_cell_angle_gamma   90.00000000
_symmetry_Int_Tables_number   1
_chemical_formula_structural   SrPr(FeO3)2
_chemical_formula_sum   'Sr2 Pr2 Fe4 O12'
_cell_volume   243.08829575
_cell_formula_units_Z   2
loop_
 _symmetry_equiv_pos_site_id
 _symmetry_equiv_pos_as_xyz
  1  'x, y, z'
loop_
 _atom_site_type_symbol
 _atom_site_label
 _atom_site_symmetry_multiplicity
 _atom_site_fract_x
 _atom_site_fract_y
 _atom_site_fract_z
 _atom_site_occupancy
  Sr  Sr0  1  0.76285700  0.49885600  0.50000000  1
  Sr  Sr1  1  0.23714300  0.99885600  0.00000000  1
  Pr  Pr0  1  0.27778600  0.01138000  0.50000000  1
  Pr  Pr1  1  0.72221400  0.51138000  0.00000000  1
  Fe  Fe0  1  0.24687100  0.50062100  0.74972400  1
  Fe  Fe1  1  0.75312900  0.00062100  0.24972400  1
  Fe  Fe2  1  0.24687100  0.50062100  0.25027600  1
  Fe  Fe3  1  0.75312900  0.00062100  0.75027600  1
  O  O0  1  0.97333700  0.72234900  0.78726400  1
  O  O1  1  0.48987600  0.75949400  0.21640600  1
  O  O2  1  0.51012400  0.25949400  0.28359400  1
  O  O3  1  0.02666300  0.22234900  0.71273600  1
  O  O4  1  0.51012400  0.25949400  0.71640600  1
  O  O5  1  0.02666300  0.22234900  0.28726400  1
  O  O6  1  0.97333700  0.72234900  0.21273600  1
  O  O7  1  0.48987600  0.75949400  0.78359400  1
  O  O8  1  0.24522500  0.57872200  0.50000000  1
  O  O9  1  0.73608400  0.94611500  0.50000000  1
  O  O10  1  0.26391600  0.44611500  0.00000000  1
  O  O11  1  0.75477500  0.07872200  0.00000000  1
loop_
_geom_bond_atom_site_label_1
_geom_bond_atom_site_label_2
_geom_bond_distance
_geom_bond_site_symmetry_2
Fe0 O0 1.980848 1_455
Fe0 O10 1.989054 1_556
Fe0 O7 1.994668 1_555
Fe0 O3 1.998011 1_555
Fe0 O4 2.003845 1_555
Fe0 O8 2.007001 1_555
Fe1 O5 1.980848 1_655
Fe1 O9 1.989054 1_545
Fe1 O2 1.994668 1_555
Fe1 O6 1.998011 1_545
Fe1 O1 2.003845 1_545
Fe1 O11 2.007001 1_555
Fe2 O6 1.980848 1_455
Fe2 O10 1.989054 1_555
Fe2 O1 1.994668 1_555
Fe2 O5 1.998011 1_555
Fe2 O2 2.003845 1_555
Fe2 O8 2.007001 1_555
Fe3 O3 1.980848 1_655
Fe3 O9 1.989054 1_545
Fe3 O4 1.994668 1_555
Fe3 O0 1.998011 1_545
Fe3 O7 2.003845 1_545
Fe3 O11 2.007001 1_556
O0 Pr1 2.472830 1_556
O0 Sr1 2.704111 1_656
O0 Sr0 2.828439 1_555
O1 Pr1 2.542418 1_555
O1 Sr1 2.575946 1_555
O1 Sr0 3.059800 1_555
O2 Pr0 2.542418 1_555
O2 Sr0 2.575946 1_555
O2 Sr1 3.059800 1_545
O3 Pr0 2.472830 1_555
O3 Sr0 2.704111 1_455
O3 Sr1 2.828439 1_546
O4 Pr0 2.542418 1_555
O4 Sr0 2.575946 1_555
O4 Sr1 3.059800 1_546
O5 Pr0 2.472830 1_555
O5 Sr0 2.704111 1_455
O5 Sr1 2.828439 1_545
O6 Pr1 2.472830 1_555
O6 Sr1 2.704111 1_655
O6 Sr0 2.828439 1_555
O7 Pr1 2.542418 1_556
O7 Sr1 2.575946 1_556
O7 Sr0 3.059800 1_555
O8 Pr0 2.422764 1_565
O8 Sr0 2.713653 1_455
O8 Sr0 2.906857 1_555
O9 Sr0 2.501966 1_555
O9 Pr0 2.569166 1_565
O9 Sr0 3.090149 1_565
O10 Sr1 2.501966 1_545
O10 Pr1 2.569166 1_555
O10 Sr1 3.090149 1_555
O11 Pr1 2.422764 1_555
O11 Sr1 2.713653 1_645
O11 Sr1 2.906857 1_545
