# generated using pymatgen
data_Na2ZnFe2(PO4)3
_symmetry_space_group_name_H-M   'P 1'
_cell_length_a   8.67493557
_cell_length_b   8.67493557
_cell_length_c   6.58659704
_cell_angle_alpha   73.88247110
_cell_angle_beta   73.88247110
_cell_angle_gamma   93.43907240
_symmetry_Int_Tables_number   1
_chemical_formula_structural   Na2ZnFe2(PO4)3
_chemical_formula_sum   'Na4 Zn2 Fe4 P6 O24'
_cell_volume   452.39935634
_cell_formula_units_Z   2
loop_
 _symmetry_equiv_pos_site_id
 _symmetry_equiv_pos_as_xyz
  1  'x, y, z'
loop_
 _atom_site_type_symbol
 _atom_site_label
 _atom_site_symmetry_multiplicity
 _atom_site_fract_x
 _atom_site_fract_y
 _atom_site_fract_z
 _atom_site_occupancy
  Na  Na0  1  0.98554800  0.01445200  0.25000000  1
  Na  Na1  1  0.01445200  0.98554800  0.75000000  1
  Na  Na2  1  0.50000000  0.50000000  0.00000000  1
  Na  Na3  1  0.50000000  0.50000000  0.50000000  1
  Zn  Zn0  1  0.26932300  0.73067700  0.25000000  1
  Zn  Zn1  1  0.73067700  0.26932300  0.75000000  1
  Fe  Fe0  1  0.38142700  0.05695300  0.37350700  1
  Fe  Fe1  1  0.61857300  0.94304700  0.62649300  1
  Fe  Fe2  1  0.94304700  0.61857300  0.12649300  1
  Fe  Fe3  1  0.05695300  0.38142700  0.87350700  1
  P  P0  1  0.71108100  0.28891900  0.25000000  1
  P  P1  1  0.28891900  0.71108100  0.75000000  1
  P  P2  1  0.65602200  0.87443200  0.11907700  1
  P  P3  1  0.34397800  0.12556800  0.88092300  1
  P  P4  1  0.12556800  0.34397800  0.38092300  1
  P  P5  1  0.87443200  0.65602200  0.61907700  1
  O  O0  1  0.53307500  0.26212200  0.25289400  1
  O  O1  1  0.46692500  0.73787800  0.74710600  1
  O  O2  1  0.73787800  0.46692500  0.24710600  1
  O  O3  1  0.26212200  0.53307500  0.75289400  1
  O  O4  1  0.52443200  0.72911300  0.16853100  1
  O  O5  1  0.47556800  0.27088700  0.83146900  1
  O  O6  1  0.27088700  0.47556800  0.33146900  1
  O  O7  1  0.72911300  0.52443200  0.66853100  1
  O  O8  1  0.74205100  0.17665800  0.46203500  1
  O  O9  1  0.25794900  0.82334200  0.53796500  1
  O  O10  1  0.82334200  0.25794900  0.03796500  1
  O  O11  1  0.17665800  0.74205100  0.96203500  1
  O  O12  1  0.60379700  0.95495400  0.30761000  1
  O  O13  1  0.39620300  0.04504600  0.69239000  1
  O  O14  1  0.04504600  0.39620300  0.19239000  1
  O  O15  1  0.95495400  0.60379700  0.80761000  1
  O  O16  1  0.82694300  0.82540500  0.10801400  1
  O  O17  1  0.17305700  0.17459500  0.89198600  1
  O  O18  1  0.17459500  0.17305700  0.39198600  1
  O  O19  1  0.82540500  0.82694300  0.60801400  1
  O  O20  1  0.32448300  0.99593100  0.11048100  1
  O  O21  1  0.67551700  0.00406900  0.88951900  1
  O  O22  1  0.00406900  0.67551700  0.38951900  1
  O  O23  1  0.99593100  0.32448300  0.61048100  1
loop_
_geom_bond_atom_site_label_1
_geom_bond_atom_site_label_2
_geom_bond_distance
_geom_bond_site_symmetry_2
Na0 O17 2.432457 1_654
Na0 O19 2.432457 1_545
Na0 O16 2.598543 1_545
Na0 O18 2.598543 1_655
Na0 O22 2.855483 1_645
Na0 O20 2.855483 1_645
Na0 O10 2.863940 1_555
Na0 O8 2.863940 1_555
Na1 O16 2.432457 1_456
Na1 O18 2.432457 1_565
Na1 O19 2.598543 1_455
Na1 O17 2.598543 1_565
Na1 O21 2.855483 1_465
Na1 O23 2.855483 1_465
Na1 O11 2.863940 1_555
Na1 O9 2.863940 1_555
Na2 O0 2.354399 1_555
Na2 O1 2.354399 1_554
Na2 O6 2.458682 1_555
Na2 O7 2.458682 1_554
Na2 O4 2.555872 1_555
Na2 O5 2.555872 1_554
Na3 O3 2.354399 1_555
Na3 O2 2.354399 1_555
Na3 O4 2.458682 1_555
Na3 O5 2.458682 1_555
Na3 O6 2.555872 1_555
Na3 O7 2.555872 1_555
Fe0 O0 1.970615 1_555
Fe0 O9 2.074663 1_545
Fe0 O18 2.100531 1_555
Fe0 O13 2.114048 1_555
Fe0 O20 2.116267 1_545
Fe0 O12 2.155384 1_545
Fe1 O1 1.970615 1_555
Fe1 O8 2.074663 1_565
Fe1 O19 2.100531 1_555
Fe1 O12 2.114048 1_555
Fe1 O21 2.116267 1_565
Fe1 O13 2.155384 1_565
Fe2 O2 1.970615 1_555
Fe2 O11 2.074663 1_654
Fe2 O16 2.100531 1_555
Fe2 O15 2.114048 1_554
Fe2 O22 2.116267 1_655
Fe2 O14 2.155384 1_655
Fe3 O3 1.970615 1_555
Fe3 O10 2.074663 1_456
Fe3 O17 2.100531 1_555
Fe3 O14 2.114048 1_556
Fe3 O23 2.116267 1_455
Fe3 O15 2.155384 1_455
O0 P0 1.541771 1_555
O1 P1 1.541771 1_555
O2 P0 1.541771 1_555
O3 P1 1.541771 1_555
O4 P2 1.546386 1_555
O4 Zn0 2.129329 1_555
O5 P3 1.546386 1_555
O5 Zn1 2.129329 1_555
O6 P4 1.546386 1_555
O6 Zn0 2.129329 1_555
O7 P5 1.546386 1_555
O7 Zn1 2.129329 1_555
O8 P0 1.567040 1_555
O8 Zn1 2.237316 1_555
O9 P1 1.567040 1_555
O9 Zn0 2.237316 1_555
O10 P0 1.567040 1_555
O10 Zn1 2.237316 1_554
O11 P1 1.567040 1_555
O11 Zn0 2.237316 1_556
O12 P2 1.562833 1_555
O13 P3 1.562833 1_555
O14 P4 1.562833 1_555
O15 P5 1.562833 1_555
O16 P2 1.554849 1_555
O17 P3 1.554849 1_555
O18 P4 1.554849 1_555
O19 P5 1.554849 1_555
O20 P3 1.571813 1_564
O20 Zn0 2.195004 1_555
O21 P2 1.571813 1_546
O21 Zn1 2.195004 1_555
O22 P5 1.571813 1_455
O22 Zn0 2.195004 1_555
O23 P4 1.571813 1_655
O23 Zn1 2.195004 1_555
