# generated using pymatgen
data_CeMg14Ni
_symmetry_space_group_name_H-M   'P 1'
_cell_length_a   6.58701106
_cell_length_b   6.58701049
_cell_length_c   10.48007851
_cell_angle_alpha   90.00000000
_cell_angle_beta   90.00000000
_cell_angle_gamma   120.00000284
_symmetry_Int_Tables_number   1
_chemical_formula_structural   CeMg14Ni
_chemical_formula_sum   'Ce1 Mg14 Ni1'
_cell_volume   393.79654671
_cell_formula_units_Z   1
loop_
 _symmetry_equiv_pos_site_id
 _symmetry_equiv_pos_as_xyz
  1  'x, y, z'
loop_
 _atom_site_type_symbol
 _atom_site_label
 _atom_site_symmetry_multiplicity
 _atom_site_fract_x
 _atom_site_fract_y
 _atom_site_fract_z
 _atom_site_occupancy
  Ce  Ce0  1  0.16666700  0.33333300  0.62500000  1
  Mg  Mg0  1  0.15915724  0.82957812  0.12500000  1
  Mg  Mg1  1  0.18250017  0.84124958  0.62500000  1
  Mg  Mg2  1  0.67042188  0.34084276  0.12500000  1
  Mg  Mg3  1  0.65875042  0.31749983  0.62500000  1
  Mg  Mg4  1  0.67042188  0.82957812  0.12500000  1
  Mg  Mg5  1  0.65875042  0.84124958  0.62500000  1
  Mg  Mg6  1  0.32610553  0.17389447  0.35488788  1
  Mg  Mg7  1  0.32610553  0.17389447  0.89511212  1
  Mg  Mg8  1  0.32610553  0.65221206  0.35488788  1
  Mg  Mg9  1  0.32610553  0.65221206  0.89511212  1
  Mg  Mg10  1  0.84778794  0.17389447  0.35488788  1
  Mg  Mg11  1  0.84778794  0.17389447  0.89511212  1
  Mg  Mg12  1  0.83333300  0.66666700  0.38604876  1
  Mg  Mg13  1  0.83333300  0.66666700  0.86395124  1
  Ni  Ni0  1  0.16666700  0.33333300  0.12500000  1
loop_
_geom_bond_atom_site_label_1
_geom_bond_atom_site_label_2
_geom_bond_distance
_geom_bond_site_symmetry_2
Ce0 Mg1 3.294743 1_555
Ce0 Mg5 3.294743 1_555
Ce0 Mg5 3.294743 1_445
Ce0 Mg1 3.294744 1_545
Ce0 Mg3 3.294744 1_455
Ce0 Mg3 3.294744 1_555
Ce0 Mg6 3.364865 1_555
Ce0 Mg7 3.364865 1_555
Ce0 Mg8 3.364871 1_555
Ce0 Mg9 3.364871 1_555
Ce0 Mg10 3.364871 1_455
Ce0 Mg11 3.364871 1_455
Mg0 Mg9 3.108618 1_554
Mg0 Mg8 3.108618 1_555
Mg0 Mg7 3.108625 1_564
Mg0 Mg6 3.108625 1_565
Mg0 Mg2 3.219305 1_455
Mg0 Mg4 3.219305 1_455
Mg0 Ni0 3.293784 1_565
Mg0 Ni0 3.293784 1_555
Mg0 Mg13 3.307464 1_454
Mg0 Mg12 3.307464 1_455
Mg0 Mg2 3.367706 1_565
Mg0 Mg4 3.367706 1_555
Mg1 Mg3 3.137065 1_565
Mg1 Mg5 3.137066 1_555
Mg1 Mg12 3.199773 1_455
Mg1 Mg13 3.199773 1_455
Mg1 Mg8 3.411240 1_555
Mg1 Mg9 3.411240 1_555
Mg1 Mg6 3.411247 1_565
Mg1 Mg7 3.411247 1_565
Mg1 Mg3 3.449945 1_455
Mg1 Mg5 3.449945 1_455
Mg2 Mg7 3.108625 1_554
Mg2 Mg6 3.108625 1_555
Mg2 Mg4 3.219305 1_555
Mg2 Ni0 3.293784 1_655
Mg2 Ni0 3.293784 1_555
Mg2 Mg4 3.367706 1_545
Mg3 Mg5 3.137065 1_545
Mg3 Mg6 3.411247 1_555
Mg3 Mg7 3.411247 1_555
Mg3 Mg5 3.449945 1_555
Mg4 Mg9 3.108625 1_554
Mg4 Mg8 3.108625 1_555
Mg4 Ni0 3.293784 1_665
Mg4 Ni0 3.293784 1_555
Mg5 Mg8 3.411246 1_555
Mg5 Mg9 3.411246 1_555
Mg6 Ni0 3.018834 1_555
Mg7 Ni0 3.018834 1_556
Mg8 Ni0 3.018841 1_555
Mg9 Ni0 3.018841 1_556
Mg10 Ni0 3.018841 1_655
Mg10 Mg2 3.108618 1_555
Mg10 Mg4 3.108625 1_545
Mg10 Mg12 3.310683 1_545
Mg10 Mg12 3.310683 1_555
Mg10 Mg3 3.411240 1_555
Mg10 Mg5 3.411246 1_545
Mg11 Ni0 3.018841 1_656
Mg11 Mg2 3.108618 1_556
Mg11 Mg4 3.108625 1_546
Mg11 Mg13 3.310683 1_545
Mg11 Mg13 3.310683 1_555
Mg11 Mg3 3.411240 1_555
Mg11 Mg5 3.411246 1_545
Mg12 Mg5 3.199766 1_555
Mg12 Mg3 3.199773 1_555
Mg12 Mg4 3.307458 1_555
Mg12 Mg2 3.307464 1_555
Mg12 Mg6 3.310683 1_665
Mg12 Mg6 3.310683 1_555
Mg12 Mg8 3.310683 1_555
Mg12 Mg8 3.310683 1_655
Mg13 Mg5 3.199766 1_555
Mg13 Mg3 3.199773 1_555
Mg13 Mg4 3.307458 1_556
Mg13 Mg2 3.307464 1_556
Mg13 Mg7 3.310683 1_665
Mg13 Mg7 3.310683 1_555
Mg13 Mg9 3.310683 1_555
Mg13 Mg9 3.310683 1_655
