# generated using pymatgen
data_RbAlCl4
_symmetry_space_group_name_H-M   'P 1'
_cell_length_a   7.03914665
_cell_length_b   9.27774256
_cell_length_c   11.23793937
_cell_angle_alpha   90.00000000
_cell_angle_beta   90.00000000
_cell_angle_gamma   90.00000000
_symmetry_Int_Tables_number   1
_chemical_formula_structural   RbAlCl4
_chemical_formula_sum   'Rb4 Al4 Cl16'
_cell_volume   733.92049441
_cell_formula_units_Z   4
loop_
 _symmetry_equiv_pos_site_id
 _symmetry_equiv_pos_as_xyz
  1  'x, y, z'
loop_
 _atom_site_type_symbol
 _atom_site_label
 _atom_site_symmetry_multiplicity
 _atom_site_fract_x
 _atom_site_fract_y
 _atom_site_fract_z
 _atom_site_occupancy
  Rb  Rb0  1  0.25000000  0.66110930  0.18119891  1
  Rb  Rb1  1  0.75000000  0.33889070  0.81880109  1
  Rb  Rb2  1  0.75000000  0.16110930  0.31880109  1
  Rb  Rb3  1  0.25000000  0.83889070  0.68119891  1
  Al  Al0  1  0.25000000  0.19166374  0.06325398  1
  Al  Al1  1  0.75000000  0.80833626  0.93674602  1
  Al  Al2  1  0.75000000  0.69166374  0.43674602  1
  Al  Al3  1  0.25000000  0.30833626  0.56325398  1
  Cl  Cl0  1  0.25000000  0.40304860  0.39017946  1
  Cl  Cl1  1  0.75000000  0.59695140  0.60982054  1
  Cl  Cl2  1  0.75000000  0.90304860  0.10982054  1
  Cl  Cl3  1  0.25000000  0.09695140  0.89017946  1
  Cl  Cl4  1  0.25000000  0.03531773  0.20280015  1
  Cl  Cl5  1  0.75000000  0.96468227  0.79719985  1
  Cl  Cl6  1  0.75000000  0.53531773  0.29719985  1
  Cl  Cl7  1  0.25000000  0.46468227  0.70280015  1
  Cl  Cl8  1  0.00273936  0.32544432  0.08242424  1
  Cl  Cl9  1  0.99726064  0.67455568  0.91757576  1
  Cl  Cl10  1  0.99726064  0.82544432  0.41757576  1
  Cl  Cl11  1  0.50273936  0.67455568  0.91757576  1
  Cl  Cl12  1  0.00273936  0.17455568  0.58242424  1
  Cl  Cl13  1  0.49726064  0.32544432  0.08242424  1
  Cl  Cl14  1  0.49726064  0.17455568  0.58242424  1
  Cl  Cl15  1  0.50273936  0.82544432  0.41757576  1
loop_
_geom_bond_atom_site_label_1
_geom_bond_atom_site_label_2
_geom_bond_distance
_geom_bond_site_symmetry_2
Al0 Cl3 2.134285 1_554
Al0 Cl4 2.136199 1_555
Al0 Cl8 2.148557 1_555
Al0 Cl13 2.148557 1_555
Al1 Cl2 2.134285 1_556
Al1 Cl5 2.136199 1_555
Al1 Cl11 2.148557 1_555
Al1 Cl9 2.148557 1_555
Al2 Cl1 2.134285 1_555
Al2 Cl6 2.136199 1_555
Al2 Cl10 2.148557 1_555
Al2 Cl15 2.148557 1_555
Al3 Cl0 2.134285 1_555
Al3 Cl7 2.136199 1_555
Al3 Cl14 2.148557 1_555
Al3 Cl12 2.148557 1_555
Cl0 Rb0 3.353773 1_555
Cl1 Rb1 3.353773 1_555
Cl2 Rb2 3.353773 1_565
Cl3 Rb3 3.353773 1_545
Cl4 Rb0 3.480286 1_545
Cl4 Rb2 3.930500 1_455
Cl4 Rb2 3.930500 1_555
Cl5 Rb1 3.480286 1_565
Cl5 Rb3 3.930500 1_555
Cl5 Rb3 3.930500 1_655
Cl6 Rb2 3.480286 1_555
Cl6 Rb0 3.930500 1_655
Cl6 Rb0 3.930500 1_555
Cl7 Rb3 3.480286 1_555
Cl7 Rb1 3.930500 1_455
Cl7 Rb1 3.930500 1_555
Cl8 Rb1 3.457967 1_454
Cl8 Rb2 3.542043 1_455
Cl8 Rb0 3.736286 1_555
Cl9 Rb0 3.457967 1_656
Cl9 Rb3 3.542043 1_655
Cl9 Rb1 3.736286 1_555
Cl10 Rb3 3.457967 1_655
Cl10 Rb0 3.542043 1_655
Cl10 Rb2 3.736286 1_565
Cl11 Rb0 3.457967 1_556
Cl11 Rb3 3.542043 1_555
Cl11 Rb1 3.736286 1_555
Cl12 Rb2 3.457967 1_455
Cl12 Rb1 3.542043 1_455
Cl12 Rb3 3.736286 1_545
Cl13 Rb1 3.457967 1_554
Cl13 Rb2 3.542043 1_555
Cl13 Rb0 3.736286 1_555
Cl14 Rb2 3.457967 1_555
Cl14 Rb1 3.542043 1_555
Cl14 Rb3 3.736286 1_545
Cl15 Rb3 3.457967 1_555
Cl15 Rb0 3.542043 1_555
Cl15 Rb2 3.736286 1_565
