# generated using pymatgen
data_K10Mn4Sn4S17
_symmetry_space_group_name_H-M   'P 1'
_cell_length_a   10.17541076
_cell_length_b   10.17541076
_cell_length_c   10.17541164
_cell_angle_alpha   89.51310122
_cell_angle_beta   89.51310122
_cell_angle_gamma   89.51309881
_symmetry_Int_Tables_number   1
_chemical_formula_structural   K10Mn4Sn4S17
_chemical_formula_sum   'K10 Mn4 Sn4 S17'
_cell_volume   1053.43830299
_cell_formula_units_Z   1
loop_
 _symmetry_equiv_pos_site_id
 _symmetry_equiv_pos_as_xyz
  1  'x, y, z'
loop_
 _atom_site_type_symbol
 _atom_site_label
 _atom_site_symmetry_multiplicity
 _atom_site_fract_x
 _atom_site_fract_y
 _atom_site_fract_z
 _atom_site_occupancy
  K  K0  1  0.00048700  0.00048700  0.49922700  1
  K  K1  1  0.49922700  0.00048700  0.00048700  1
  K  K2  1  0.00048700  0.49922700  0.00048700  1
  K  K3  1  0.49833600  0.95569900  0.49833600  1
  K  K4  1  0.49833600  0.49833600  0.95569900  1
  K  K5  1  0.95569900  0.49833600  0.49833600  1
  K  K6  1  0.65614100  0.32998300  0.32998300  1
  K  K7  1  0.32998300  0.65614100  0.32998300  1
  K  K8  1  0.32998300  0.32998300  0.65614100  1
  K  K9  1  0.67067300  0.67067300  0.67067300  1
  Mn  Mn0  1  0.86386500  0.13648000  0.13648000  1
  Mn  Mn1  1  0.13648000  0.86386500  0.13648000  1
  Mn  Mn2  1  0.13648000  0.13648000  0.86386500  1
  Mn  Mn3  1  0.86410400  0.86410400  0.86410400  1
  Sn  Sn0  1  0.22422700  0.22422700  0.22422700  1
  Sn  Sn1  1  0.22473600  0.77517900  0.77517900  1
  Sn  Sn2  1  0.77517900  0.77517900  0.22473600  1
  Sn  Sn3  1  0.77517900  0.22473600  0.77517900  1
  S  S0  1  0.99920700  0.99920700  0.99920700  1
  S  S1  1  0.35712900  0.35712900  0.35712900  1
  S  S2  1  0.36724300  0.64376600  0.64376600  1
  S  S3  1  0.64376600  0.64376600  0.36724300  1
  S  S4  1  0.64376600  0.36724300  0.64376600  1
  S  S5  1  0.27404500  0.99346500  0.27404500  1
  S  S6  1  0.27404500  0.27404500  0.99346500  1
  S  S7  1  0.99346500  0.27404500  0.27404500  1
  S  S8  1  0.27431300  0.00471400  0.72385600  1
  S  S9  1  0.27431300  0.72385600  0.00471400  1
  S  S10  1  0.99614700  0.72480800  0.72480800  1
  S  S11  1  0.72385600  0.00471400  0.27431300  1
  S  S12  1  0.72480800  0.72480800  0.99614700  1
  S  S13  1  0.00471400  0.72385600  0.27431300  1
  S  S14  1  0.72480800  0.99614700  0.72480800  1
  S  S15  1  0.72385600  0.27431300  0.00471400  1
  S  S16  1  0.00471400  0.27431300  0.72385600  1
loop_
_geom_bond_atom_site_label_1
_geom_bond_atom_site_label_2
_geom_bond_distance
_geom_bond_site_symmetry_2
K0 S5 3.590889 1_545
K0 S7 3.590889 1_455
K0 S10 3.609781 1_445
K0 S14 3.609781 1_445
K0 S8 3.619615 1_555
K0 S16 3.619615 1_555
K0 S13 3.642602 1_545
K0 S11 3.642602 1_455
K1 S6 3.590889 1_554
K1 S5 3.590890 1_545
K1 S12 3.609780 1_544
K1 S14 3.609781 1_544
K1 S15 3.619615 1_555
K1 S11 3.619615 1_555
K1 S9 3.642602 1_545
K1 S8 3.642603 1_554
K2 S6 3.590889 1_554
K2 S7 3.590890 1_455
K2 S12 3.609780 1_454
K2 S10 3.609781 1_454
K2 S9 3.619615 1_555
K2 S13 3.619615 1_555
K2 S15 3.642602 1_455
K2 S16 3.642603 1_554
K3 S8 3.259161 1_565
K3 S11 3.259161 1_565
K3 S5 3.259409 1_555
K3 S14 3.303457 1_555
K4 S15 3.259161 1_556
K4 S9 3.259161 1_556
K4 S6 3.259409 1_555
K4 S12 3.303457 1_555
K5 S16 3.259161 1_655
K5 S13 3.259161 1_655
K5 S7 3.259409 1_555
K5 S10 3.303457 1_555
K6 S1 3.063096 1_555
K6 S3 3.219775 1_555
K6 S4 3.219776 1_555
K6 S11 3.425862 1_555
K6 S15 3.425862 1_555
K6 S7 3.516887 1_555
K7 S1 3.063096 1_555
K7 S3 3.219775 1_555
K7 S2 3.219776 1_555
K7 S13 3.425862 1_555
K7 S9 3.425862 1_555
K7 S5 3.516887 1_555
K8 S1 3.063096 1_555
K8 S4 3.219775 1_555
K8 S2 3.219775 1_555
K8 S16 3.425862 1_555
K8 S8 3.425862 1_555
K8 S6 3.516888 1_555
K9 S4 3.116527 1_555
K9 S2 3.116527 1_555
K9 S3 3.116527 1_555
K9 S10 3.412076 1_555
K9 S14 3.412076 1_555
K9 S12 3.412076 1_555
Mn0 S7 2.398724 1_555
Mn0 S15 2.400181 1_555
Mn0 S11 2.400181 1_555
Mn0 S0 2.401353 1_544
Mn1 S5 2.398724 1_555
Mn1 S9 2.400181 1_555
Mn1 S13 2.400181 1_555
Mn1 S0 2.401353 1_454
Mn2 S6 2.398724 1_555
Mn2 S16 2.400181 1_555
Mn2 S8 2.400181 1_555
Mn2 S0 2.401353 1_445
Mn3 S0 2.401249 1_555
Mn3 S10 2.406795 1_555
Mn3 S14 2.406795 1_555
Mn3 S12 2.406795 1_555
S1 Sn0 2.362129 1_555
S2 Sn1 2.375559 1_555
S3 Sn2 2.375559 1_555
S4 Sn3 2.375559 1_555
S5 Sn0 2.447735 1_565
S6 Sn0 2.447735 1_556
S7 Sn0 2.447735 1_655
S8 Sn1 2.444815 1_545
S9 Sn1 2.444815 1_554
S10 Sn1 2.445529 1_655
S11 Sn2 2.444815 1_545
S12 Sn2 2.445529 1_556
S13 Sn2 2.444815 1_455
S14 Sn3 2.445529 1_565
S15 Sn3 2.444815 1_554
S16 Sn3 2.444815 1_455
