# generated using pymatgen
data_Ca2CuWO6
_symmetry_space_group_name_H-M   'P 1'
_cell_length_a   5.72160900
_cell_length_b   5.50964200
_cell_length_c   9.40067408
_cell_angle_alpha   54.37303537
_cell_angle_beta   90.00000000
_cell_angle_gamma   90.00000000
_symmetry_Int_Tables_number   1
_chemical_formula_structural   Ca2CuWO6
_chemical_formula_sum   'Ca4 Cu2 W2 O12'
_cell_volume   240.87876720
_cell_formula_units_Z   2
loop_
 _symmetry_equiv_pos_site_id
 _symmetry_equiv_pos_as_xyz
  1  'x, y, z'
loop_
 _atom_site_type_symbol
 _atom_site_label
 _atom_site_symmetry_multiplicity
 _atom_site_fract_x
 _atom_site_fract_y
 _atom_site_fract_z
 _atom_site_occupancy
  Ca  Ca0  1  0.05734700  0.26606400  0.74723300  1
  Ca  Ca1  1  0.55734700  0.73393600  0.75276700  1
  Ca  Ca2  1  0.94265300  0.73393600  0.25276700  1
  Ca  Ca3  1  0.44265300  0.26606400  0.24723300  1
  Cu  Cu0  1  0.00000000  0.50000000  0.00000000  1
  Cu  Cu1  1  0.50000000  0.50000000  0.50000000  1
  W  W0  1  0.00000000  0.00000000  0.50000000  1
  W  W1  1  0.50000000  0.00000000  0.00000000  1
  O  O0  1  0.28144900  0.76111500  0.55381500  1
  O  O1  1  0.78144900  0.23888500  0.94618500  1
  O  O2  1  0.71855100  0.23888500  0.44618500  1
  O  O3  1  0.21855100  0.76111500  0.05381500  1
  O  O4  1  0.18900200  0.33315200  0.45378900  1
  O  O5  1  0.68900200  0.66684800  0.04621100  1
  O  O6  1  0.81099800  0.66684800  0.54621100  1
  O  O7  1  0.31099800  0.33315200  0.95378900  1
  O  O8  1  0.46738300  0.15049300  0.75399500  1
  O  O9  1  0.96738300  0.84950700  0.74600500  1
  O  O10  1  0.03261700  0.15049300  0.25399500  1
  O  O11  1  0.53261700  0.84950700  0.24600500  1
loop_
_geom_bond_atom_site_label_1
_geom_bond_atom_site_label_2
_geom_bond_distance
_geom_bond_site_symmetry_2
Ca0 O9 2.358675 1_445
Ca0 O6 2.360601 1_455
Ca0 O1 2.384537 1_455
Ca0 O8 2.422058 1_555
Ca0 O0 2.571373 1_555
Ca0 O7 2.617155 1_555
Ca0 O4 2.669431 1_555
Ca0 O3 2.748786 1_546
Ca1 O8 2.358675 1_565
Ca1 O7 2.360601 1_555
Ca1 O0 2.384537 1_555
Ca1 O9 2.422058 1_555
Ca1 O1 2.571373 1_555
Ca1 O6 2.617155 1_555
Ca1 O5 2.669431 1_556
Ca1 O2 2.748786 1_565
Ca2 O10 2.358675 1_665
Ca2 O4 2.360601 1_655
Ca2 O3 2.384537 1_655
Ca2 O11 2.422058 1_555
Ca2 O2 2.571373 1_555
Ca2 O5 2.617155 1_555
Ca2 O6 2.669431 1_555
Ca2 O1 2.748786 1_564
Ca3 O11 2.358675 1_545
Ca3 O5 2.360601 1_555
Ca3 O2 2.384537 1_555
Ca3 O10 2.422058 1_555
Ca3 O3 2.571373 1_555
Ca3 O4 2.617155 1_555
Ca3 O7 2.669431 1_554
Ca3 O0 2.748786 1_545
Cu0 O9 2.021772 1_454
Cu0 O10 2.021772 1_555
Cu0 O5 2.159934 1_455
Cu0 O7 2.159934 1_554
Cu0 O3 2.176513 1_555
Cu0 O1 2.176513 1_454
Cu1 O8 2.021772 1_555
Cu1 O11 2.021772 1_555
Cu1 O6 2.159934 1_555
Cu1 O4 2.159934 1_555
Cu1 O0 2.176513 1_555
Cu1 O2 2.176513 1_555
O0 W0 1.950825 1_565
O1 W1 1.950825 1_556
O2 W0 1.950825 1_655
O3 W1 1.950825 1_565
O4 W0 1.948949 1_555
O5 W1 1.948949 1_565
O6 W0 1.948949 1_665
O7 W1 1.948949 1_556
O8 W1 1.958716 1_556
O9 W0 1.958716 1_665
O10 W0 1.958716 1_555
O11 W1 1.958716 1_565
