# generated using pymatgen
data_SrPrGaCuO5
_symmetry_space_group_name_H-M   'P 1'
_cell_length_a   9.13226426
_cell_length_b   9.13226426
_cell_length_c   5.35781315
_cell_angle_alpha   72.97233498
_cell_angle_beta   72.97233498
_cell_angle_gamma   129.80513002
_symmetry_Int_Tables_number   1
_chemical_formula_structural   SrPrGaCuO5
_chemical_formula_sum   'Sr2 Pr2 Ga2 Cu2 O10'
_cell_volume   248.33433793
_cell_formula_units_Z   2
loop_
 _symmetry_equiv_pos_site_id
 _symmetry_equiv_pos_as_xyz
  1  'x, y, z'
loop_
 _atom_site_type_symbol
 _atom_site_label
 _atom_site_symmetry_multiplicity
 _atom_site_fract_x
 _atom_site_fract_y
 _atom_site_fract_z
 _atom_site_occupancy
  Sr  Sr0  1  0.40307400  0.12448600  0.49094500  1
  Sr  Sr1  1  0.12448600  0.40307400  0.49094500  1
  Pr  Pr0  1  0.57439100  0.87071700  0.53596100  1
  Pr  Pr1  1  0.87071700  0.57439100  0.53596100  1
  Ga  Ga0  1  0.18558500  0.18558500  0.10570900  1
  Ga  Ga1  1  0.81918400  0.81918400  0.96332100  1
  Cu  Cu0  1  0.49559200  0.99541000  0.00901000  1
  Cu  Cu1  1  0.99541000  0.49559200  0.00901000  1
  O  O0  1  0.42210700  0.22616400  0.89624900  1
  O  O1  1  0.60051100  0.80186000  0.00529100  1
  O  O2  1  0.22616400  0.42210700  0.89624900  1
  O  O3  1  0.80186000  0.60051100  0.00529100  1
  O  O4  1  0.86787900  0.86787900  0.27746100  1
  O  O5  1  0.12963700  0.12963700  0.51235600  1
  O  O6  1  0.75332500  0.24479300  0.50750000  1
  O  O7  1  0.23647600  0.74880800  0.01362200  1
  O  O8  1  0.24479300  0.75332500  0.50750000  1
  O  O9  1  0.74880800  0.23647600  0.01362200  1
loop_
_geom_bond_atom_site_label_1
_geom_bond_atom_site_label_2
_geom_bond_distance
_geom_bond_site_symmetry_2
Ga0 O2 1.836897 1_554
Ga0 O0 1.836897 1_554
Ga0 O5 1.905480 1_555
Ga0 O4 1.943554 1_445
Ga1 O3 1.837166 1_556
Ga1 O1 1.837166 1_556
Ga1 O5 1.896987 1_665
Ga1 O4 1.962615 1_556
Cu0 O9 1.934370 1_565
Cu0 O8 1.934624 1_555
Cu0 O7 1.944693 1_555
Cu0 O6 1.948177 1_564
Cu0 O1 2.494093 1_555
Cu0 O0 2.560970 1_564
Cu1 O7 1.934370 1_655
Cu1 O6 1.934624 1_555
Cu1 O9 1.944693 1_555
Cu1 O8 1.948177 1_654
Cu1 O3 2.494093 1_555
Cu1 O2 2.560970 1_654
O0 Pr1 2.390711 1_555
O0 Sr0 2.608325 1_555
O0 Sr0 2.963271 1_556
O1 Pr0 2.528381 1_554
O1 Sr1 2.546887 1_555
O1 Pr0 3.062388 1_555
O1 Sr1 3.227090 1_664
O2 Pr0 2.390711 1_555
O2 Sr1 2.608325 1_555
O2 Sr1 2.963271 1_556
O3 Pr1 2.528381 1_554
O3 Sr0 2.546887 1_555
O3 Pr1 3.062388 1_555
O3 Sr0 3.227090 1_664
O4 Pr0 2.652985 1_555
O4 Pr1 2.652985 1_555
O5 Sr0 2.497331 1_555
O5 Sr1 2.497331 1_555
O6 Pr1 2.542742 1_555
O6 Pr0 2.601019 1_545
O6 Sr1 2.657441 1_655
O6 Sr0 2.677628 1_555
O7 Pr0 2.572784 1_554
O7 Pr1 2.574644 1_455
O7 Sr0 2.668733 1_564
O7 Sr1 2.675788 1_555
O8 Pr0 2.542742 1_555
O8 Pr1 2.601019 1_455
O8 Sr0 2.657441 1_565
O8 Sr1 2.677628 1_555
O9 Pr1 2.572784 1_554
O9 Pr0 2.574644 1_545
O9 Sr1 2.668733 1_654
O9 Sr0 2.675788 1_555
