# generated using pymatgen
data_LaTaBi2O7
_symmetry_space_group_name_H-M   'P 1'
_cell_length_a   7.83336273
_cell_length_b   7.83336273
_cell_length_c   7.83336273
_cell_angle_alpha   120.47128429
_cell_angle_beta   119.91422842
_cell_angle_gamma   89.66714013
_symmetry_Int_Tables_number   1
_chemical_formula_structural   LaTaBi2O7
_chemical_formula_sum   'La2 Ta2 Bi4 O14'
_cell_volume   338.87667929
_cell_formula_units_Z   2
loop_
 _symmetry_equiv_pos_site_id
 _symmetry_equiv_pos_as_xyz
  1  'x, y, z'
loop_
 _atom_site_type_symbol
 _atom_site_label
 _atom_site_symmetry_multiplicity
 _atom_site_fract_x
 _atom_site_fract_y
 _atom_site_fract_z
 _atom_site_occupancy
  La  La0  1  0.00000000  0.50000000  0.00000000  1
  La  La1  1  0.00000000  0.00000000  0.50000000  1
  Ta  Ta0  1  0.00000000  0.50000000  0.50000000  1
  Ta  Ta1  1  0.50000000  0.50000000  0.00000000  1
  Bi  Bi0  1  0.50000000  0.00000000  0.00000000  1
  Bi  Bi1  1  0.50000000  0.50000000  0.50000000  1
  Bi  Bi2  1  0.50000000  0.00000000  0.50000000  1
  Bi  Bi3  1  0.00000000  0.00000000  0.00000000  1
  O  O0  1  0.23239000  0.48239000  0.75000000  1
  O  O1  1  0.88029300  0.13029300  0.75000000  1
  O  O2  1  0.38346000  0.18621300  0.81811400  1
  O  O3  1  0.86809900  0.56534600  0.68188600  1
  O  O4  1  0.38346000  0.56534600  0.19724700  1
  O  O5  1  0.86809900  0.18621300  0.30275300  1
  O  O6  1  0.76761000  0.51761000  0.25000000  1
  O  O7  1  0.11970700  0.86970700  0.25000000  1
  O  O8  1  0.61654000  0.81378700  0.18188600  1
  O  O9  1  0.13190100  0.43465400  0.31811400  1
  O  O10  1  0.61654000  0.43465400  0.80275300  1
  O  O11  1  0.13190100  0.81378700  0.69724700  1
  O  O12  1  0.61834400  0.86834400  0.75000000  1
  O  O13  1  0.38165600  0.13165600  0.25000000  1
loop_
_geom_bond_atom_site_label_1
_geom_bond_atom_site_label_2
_geom_bond_distance
_geom_bond_site_symmetry_2
La0 O1 2.355717 1_454
La0 O7 2.355717 1_555
La0 O10 2.501733 1_454
La0 O9 2.501733 1_555
La0 O3 2.501733 1_454
La0 O4 2.501733 1_555
La1 O7 2.355717 1_545
La1 O1 2.355717 1_455
La1 O8 2.501733 1_445
La1 O2 2.501733 1_555
La1 O5 2.501733 1_455
La1 O11 2.501733 1_545
Bi0 O12 2.347200 1_544
Bi0 O13 2.347200 1_555
Bi0 O5 2.405444 1_555
Bi0 O2 2.405444 1_554
Bi0 O11 2.405444 1_544
Bi0 O8 2.405444 1_545
Bi1 O12 2.347200 1_555
Bi1 O13 2.347200 1_555
Bi1 O10 2.405444 1_555
Bi1 O3 2.405444 1_555
Bi1 O9 2.405444 1_555
Bi1 O4 2.405444 1_555
Bi2 O1 2.437320 1_555
Bi2 O7 2.437320 1_545
Bi2 O13 2.446345 1_555
Bi2 O12 2.446345 1_545
Bi2 O10 2.781662 1_555
Bi2 O2 2.781662 1_555
Bi2 O4 2.781662 1_545
Bi2 O8 2.781662 1_545
Bi3 O1 2.437320 1_454
Bi3 O7 2.437320 1_545
Bi3 O13 2.446345 1_555
Bi3 O12 2.446345 1_444
Bi3 O9 2.781662 1_555
Bi3 O3 2.781662 1_444
Bi3 O5 2.781662 1_455
Bi3 O11 2.781662 1_544
O0 Ta0 1.970616 1_555
O0 Ta1 1.970616 1_556
O2 Ta1 2.020409 1_556
O3 Ta0 2.020409 1_655
O4 Ta1 2.020409 1_555
O5 Ta0 2.020409 1_655
O6 Ta1 1.970616 1_555
O6 Ta0 1.970616 1_655
O8 Ta1 2.020409 1_555
O9 Ta0 2.020409 1_555
O10 Ta1 2.020409 1_556
O11 Ta0 2.020409 1_555
