# generated using pymatgen
data_Ga11NO17
_symmetry_space_group_name_H-M   'P 1'
_cell_length_a   5.93126374
_cell_length_b   5.93126374
_cell_length_c   23.72690900
_cell_angle_alpha   90.00000000
_cell_angle_beta   90.00000000
_cell_angle_gamma   119.99999710
_symmetry_Int_Tables_number   1
_chemical_formula_structural   Ga11NO17
_chemical_formula_sum   'Ga22 N2 O34'
_cell_volume   722.88011884
_cell_formula_units_Z   2
loop_
 _symmetry_equiv_pos_site_id
 _symmetry_equiv_pos_as_xyz
  1  'x, y, z'
loop_
 _atom_site_type_symbol
 _atom_site_label
 _atom_site_symmetry_multiplicity
 _atom_site_fract_x
 _atom_site_fract_y
 _atom_site_fract_z
 _atom_site_occupancy
  Ga  Ga0  1  0.83198200  0.16801800  0.39301700  1
  Ga  Ga1  1  0.83198200  0.66396400  0.39301700  1
  Ga  Ga2  1  0.33603600  0.16801800  0.39301700  1
  Ga  Ga3  1  0.16801800  0.83198200  0.60698300  1
  Ga  Ga4  1  0.16801800  0.33603600  0.60698300  1
  Ga  Ga5  1  0.66396400  0.83198200  0.60698300  1
  Ga  Ga6  1  0.16801800  0.83198200  0.89301700  1
  Ga  Ga7  1  0.16801800  0.33603600  0.89301700  1
  Ga  Ga8  1  0.66396400  0.83198200  0.89301700  1
  Ga  Ga9  1  0.83198200  0.16801800  0.10698300  1
  Ga  Ga10  1  0.83198200  0.66396400  0.10698300  1
  Ga  Ga11  1  0.33603600  0.16801800  0.10698300  1
  Ga  Ga12  1  0.33333300  0.66666700  0.47579900  1
  Ga  Ga13  1  0.66666700  0.33333300  0.52420100  1
  Ga  Ga14  1  0.66666700  0.33333300  0.97579900  1
  Ga  Ga15  1  0.33333300  0.66666700  0.02420100  1
  Ga  Ga16  1  0.33333300  0.66666700  0.32551300  1
  Ga  Ga17  1  0.66666700  0.33333300  0.67448700  1
  Ga  Ga18  1  0.66666700  0.33333300  0.82551300  1
  Ga  Ga19  1  0.33333300  0.66666700  0.17448700  1
  Ga  Ga20  1  0.00000000  0.00000000  0.50000000  1
  Ga  Ga21  1  0.00000000  0.00000000  0.00000000  1
  N  N0  1  0.66666700  0.33333300  0.25000000  1
  N  N1  1  0.33333300  0.66666700  0.75000000  1
  O  O0  1  0.15727200  0.84272800  0.45019900  1
  O  O1  1  0.15727200  0.31454300  0.45019900  1
  O  O2  1  0.68545700  0.84272800  0.45019900  1
  O  O3  1  0.84272800  0.15727200  0.54980100  1
  O  O4  1  0.84272800  0.68545700  0.54980100  1
  O  O5  1  0.31454300  0.15727200  0.54980100  1
  O  O6  1  0.84272800  0.15727200  0.95019900  1
  O  O7  1  0.84272800  0.68545700  0.95019900  1
  O  O8  1  0.31454300  0.15727200  0.95019900  1
  O  O9  1  0.15727200  0.84272800  0.04980100  1
  O  O10  1  0.15727200  0.31454300  0.04980100  1
  O  O11  1  0.68545700  0.84272800  0.04980100  1
  O  O12  1  0.50191000  0.49809000  0.35471900  1
  O  O13  1  0.50191000  0.00382000  0.35471900  1
  O  O14  1  0.99618000  0.49809000  0.35471900  1
  O  O15  1  0.49809000  0.50191000  0.64528100  1
  O  O16  1  0.49809000  0.99618000  0.64528100  1
  O  O17  1  0.00382000  0.50191000  0.64528100  1
  O  O18  1  0.49809000  0.50191000  0.85471900  1
  O  O19  1  0.49809000  0.99618000  0.85471900  1
  O  O20  1  0.00382000  0.50191000  0.85471900  1
  O  O21  1  0.50191000  0.49809000  0.14528100  1
  O  O22  1  0.50191000  0.00382000  0.14528100  1
  O  O23  1  0.99618000  0.49809000  0.14528100  1
  O  O24  1  0.66666700  0.33333300  0.44358900  1
  O  O25  1  0.33333300  0.66666700  0.55641100  1
  O  O26  1  0.33333300  0.66666700  0.94358900  1
  O  O27  1  0.66666700  0.33333300  0.05641100  1
  O  O28  1  0.00000000  0.00000000  0.35916200  1
  O  O29  1  0.00000000  0.00000000  0.64083800  1
  O  O30  1  0.00000000  0.00000000  0.85916200  1
  O  O31  1  0.00000000  0.00000000  0.14083800  1
  O  O32  1  0.33333300  0.66666700  0.25000000  1
  O  O33  1  0.66666700  0.33333300  0.75000000  1
loop_
_geom_bond_atom_site_label_1
_geom_bond_atom_site_label_2
_geom_bond_distance
_geom_bond_site_symmetry_2
Ga0 O28 1.903849 1_655
Ga0 O14 1.923621 1_555
Ga0 O13 1.923621 1_555
Ga0 O24 2.079447 1_555
Ga0 O2 2.154484 1_545
Ga0 O1 2.154484 1_655
Ga1 O28 1.903849 1_665
Ga1 O14 1.923621 1_555
Ga1 O12 1.923621 1_555
Ga1 O24 2.079451 1_555
Ga1 O2 2.154480 1_555
Ga1 O0 2.154484 1_655
Ga2 O28 1.903849 1_555
Ga2 O13 1.923621 1_555
Ga2 O12 1.923621 1_555
Ga2 O24 2.079451 1_555
Ga2 O1 2.154480 1_555
Ga2 O0 2.154484 1_545
Ga3 O29 1.903849 1_565
Ga3 O16 1.923621 1_555
Ga3 O17 1.923621 1_555
Ga3 O25 2.079447 1_555
Ga3 O4 2.154484 1_455
Ga3 O5 2.154484 1_565
Ga4 O29 1.903849 1_555
Ga4 O17 1.923621 1_555
Ga4 O15 1.923621 1_555
Ga4 O25 2.079451 1_555
Ga4 O5 2.154480 1_555
Ga4 O3 2.154484 1_455
Ga5 O29 1.903849 1_665
Ga5 O16 1.923621 1_555
Ga5 O15 1.923621 1_555
Ga5 O25 2.079451 1_555
Ga5 O4 2.154480 1_555
Ga5 O3 2.154484 1_565
Ga6 O30 1.903849 1_565
Ga6 O19 1.923621 1_555
Ga6 O20 1.923621 1_555
Ga6 O26 2.079447 1_555
Ga6 O7 2.154484 1_455
Ga6 O8 2.154484 1_565
Ga7 O30 1.903849 1_555
Ga7 O20 1.923621 1_555
Ga7 O18 1.923621 1_555
Ga7 O26 2.079451 1_555
Ga7 O8 2.154480 1_555
Ga7 O6 2.154484 1_455
Ga8 O30 1.903849 1_665
Ga8 O19 1.923621 1_555
Ga8 O18 1.923621 1_555
Ga8 O26 2.079451 1_555
Ga8 O7 2.154480 1_555
Ga8 O6 2.154484 1_565
Ga9 O31 1.903849 1_655
Ga9 O23 1.923621 1_555
Ga9 O22 1.923621 1_555
Ga9 O27 2.079447 1_555
Ga9 O11 2.154484 1_545
Ga9 O10 2.154484 1_655
Ga10 O31 1.903849 1_665
Ga10 O23 1.923621 1_555
Ga10 O21 1.923621 1_555
Ga10 O27 2.079451 1_555
Ga10 O11 2.154480 1_555
Ga10 O9 2.154484 1_655
Ga11 O31 1.903849 1_555
Ga11 O22 1.923621 1_555
Ga11 O21 1.923621 1_555
Ga11 O27 2.079451 1_555
Ga11 O10 2.154480 1_555
Ga11 O9 2.154484 1_545
Ga12 O0 1.907986 1_555
Ga12 O2 1.907995 1_555
Ga12 O1 1.907995 1_555
Ga12 O25 1.912674 1_555
Ga13 O3 1.907986 1_555
Ga13 O4 1.907995 1_555
Ga13 O5 1.907995 1_555
Ga13 O24 1.912674 1_555
Ga14 O6 1.907986 1_555
Ga14 O7 1.907995 1_555
Ga14 O8 1.907995 1_555
Ga14 O27 1.912674 1_556
Ga15 O9 1.907986 1_555
Ga15 O11 1.907995 1_555
Ga15 O10 1.907995 1_555
Ga15 O26 1.912674 1_554
Ga16 O32 1.791690 1_555
Ga16 O13 1.865324 1_565
Ga16 O14 1.865324 1_455
Ga16 O12 1.865329 1_555
Ga17 O33 1.791690 1_555
Ga17 O17 1.865324 1_655
Ga17 O16 1.865324 1_545
Ga17 O15 1.865329 1_555
Ga18 O33 1.791690 1_555
Ga18 O20 1.865324 1_655
Ga18 O19 1.865324 1_545
Ga18 O18 1.865329 1_555
Ga19 O32 1.791690 1_555
Ga19 O22 1.865324 1_565
Ga19 O23 1.865324 1_455
Ga19 O21 1.865329 1_555
Ga20 O2 2.001671 1_445
Ga20 O4 2.001671 1_445
Ga20 O1 2.001671 1_555
Ga20 O5 2.001671 1_555
Ga20 O0 2.001675 1_545
Ga20 O3 2.001675 1_455
Ga21 O11 2.001671 1_445
Ga21 O7 2.001671 1_444
Ga21 O8 2.001671 1_554
Ga21 O10 2.001671 1_555
Ga21 O6 2.001675 1_454
Ga21 O9 2.001675 1_545
