# generated using pymatgen
data_ErAlCo
_symmetry_space_group_name_H-M   'P 1'
_cell_length_a   5.28938360
_cell_length_b   5.28938360
_cell_length_c   8.35610800
_cell_angle_alpha   90.00000000
_cell_angle_beta   90.00000000
_cell_angle_gamma   119.10884362
_symmetry_Int_Tables_number   1
_chemical_formula_structural   ErAlCo
_chemical_formula_sum   'Er4 Al4 Co4'
_cell_volume   204.25612585
_cell_formula_units_Z   4
loop_
 _symmetry_equiv_pos_site_id
 _symmetry_equiv_pos_as_xyz
  1  'x, y, z'
loop_
 _atom_site_type_symbol
 _atom_site_label
 _atom_site_symmetry_multiplicity
 _atom_site_fract_x
 _atom_site_fract_y
 _atom_site_fract_z
 _atom_site_occupancy
  Er  Er0  1  0.33390700  0.66609300  0.20320000  1
  Er  Er1  1  0.67060000  0.32940000  0.32505500  1
  Er  Er2  1  0.67060000  0.32940000  0.67494500  1
  Er  Er3  1  0.33390700  0.66609300  0.79680000  1
  Al  Al0  1  0.99653500  0.00346500  0.27220900  1
  Al  Al1  1  0.99653500  0.00346500  0.72779100  1
  Al  Al2  1  0.83459000  0.66069700  0.00000000  1
  Al  Al3  1  0.33930300  0.16541000  0.00000000  1
  Co  Co0  1  0.83360200  0.16639800  0.00000000  1
  Co  Co1  1  0.17417000  0.35746400  0.50000000  1
  Co  Co2  1  0.64253600  0.82583000  0.50000000  1
  Co  Co3  1  0.17387700  0.82612300  0.50000000  1
loop_
_geom_bond_atom_site_label_1
_geom_bond_atom_site_label_2
_geom_bond_distance
_geom_bond_site_symmetry_2
Er0 Er1 3.230896 1_455
Er0 Er1 3.230896 1_565
Er0 Er1 3.235085 1_555
Er1 Er2 2.923719 1_555
Er2 Er3 3.230896 1_655
Er2 Er3 3.230896 1_545
Er2 Er3 3.235085 1_555
Al0 Co3 2.497799 1_645
Al0 Co2 2.510028 1_545
Al0 Co1 2.510028 1_655
Al0 Co0 2.716969 1_555
Al0 Al2 2.771943 1_545
Al0 Al3 2.771943 1_655
Al0 Er1 3.005171 1_555
Al0 Er0 3.117050 1_545
Al0 Er0 3.117050 1_655
Al0 Er0 3.130426 1_645
Al0 Er1 3.146231 1_545
Al0 Er1 3.146231 1_655
Al1 Co3 2.497799 1_645
Al1 Co2 2.510028 1_545
Al1 Co1 2.510028 1_655
Al1 Co0 2.716969 1_556
Al1 Al3 2.771943 1_656
Al1 Al2 2.771943 1_546
Al1 Er2 3.005171 1_555
Al1 Er3 3.117050 1_545
Al1 Er3 3.117050 1_655
Al1 Er3 3.130426 1_645
Al1 Er2 3.146231 1_545
Al1 Er2 3.146231 1_655
Al2 Co0 2.611999 1_555
Al2 Al3 2.654971 1_555
Al2 Co0 2.677393 1_565
Al2 Al3 2.705499 1_665
Al2 Er1 3.118010 1_555
Al2 Er2 3.118010 1_554
Al2 Er3 3.128234 1_654
Al2 Er0 3.128234 1_655
Al2 Er0 3.157680 1_555
Al2 Er3 3.157680 1_554
Al3 Co0 2.611999 1_555
Al3 Co0 2.677393 1_455
Al3 Er2 3.118010 1_554
Al3 Er1 3.118010 1_555
Al3 Er3 3.128234 1_544
Al3 Er0 3.128234 1_545
Al3 Er3 3.157680 1_554
Al3 Er0 3.157680 1_555
Co0 Er2 3.096395 1_554
Co0 Er1 3.096395 1_555
Co0 Er3 3.172813 1_654
Co0 Er0 3.172813 1_655
Co0 Er3 3.172813 1_544
Co0 Er0 3.172813 1_545
Co1 Co3 2.479672 1_555
Co1 Co2 2.510662 1_555
Co1 Co3 2.809713 1_545
Co1 Co2 2.849808 1_445
Co1 Er0 2.861415 1_555
Co1 Er3 2.861415 1_555
Co1 Er2 2.978089 1_455
Co1 Er1 2.978089 1_455
Co1 Er1 3.071347 1_555
Co1 Er2 3.071347 1_555
Co2 Co3 2.479672 1_555
Co2 Co3 2.809713 1_655
Co2 Er0 2.861415 1_555
Co2 Er3 2.861415 1_555
Co2 Er1 2.978089 1_565
Co2 Er2 2.978089 1_565
Co2 Er1 3.071347 1_555
Co2 Er2 3.071347 1_555
Co3 Er0 2.877665 1_555
Co3 Er3 2.877665 1_555
Co3 Er1 3.053127 1_455
Co3 Er2 3.053127 1_455
Co3 Er1 3.053127 1_565
Co3 Er2 3.053127 1_565
