# generated using pymatgen
data_TbOs2
_symmetry_space_group_name_H-M   'P 1'
_cell_length_a   5.27654459
_cell_length_b   5.27654459
_cell_length_c   8.95292946
_cell_angle_alpha   90.00000000
_cell_angle_beta   90.00000000
_cell_angle_gamma   119.99988374
_symmetry_Int_Tables_number   1
_chemical_formula_structural   TbOs2
_chemical_formula_sum   'Tb4 Os8'
_cell_volume   215.87160865
_cell_formula_units_Z   4
loop_
 _symmetry_equiv_pos_site_id
 _symmetry_equiv_pos_as_xyz
  1  'x, y, z'
loop_
 _atom_site_type_symbol
 _atom_site_label
 _atom_site_symmetry_multiplicity
 _atom_site_fract_x
 _atom_site_fract_y
 _atom_site_fract_z
 _atom_site_occupancy
  Tb  Tb0  1  0.66667034  0.33332966  0.56536709  1
  Tb  Tb1  1  0.33332966  0.66667034  0.43463291  1
  Tb  Tb2  1  0.33332966  0.66667034  0.06536709  1
  Tb  Tb3  1  0.66667034  0.33332966  0.93463291  1
  Os  Os0  1  -0.00000000  -0.00000000  0.50000000  1
  Os  Os1  1  -0.00000000  -0.00000000  -0.00000000  1
  Os  Os2  1  0.17097323  0.34194728  0.75000000  1
  Os  Os3  1  0.17093621  0.82906379  0.75000000  1
  Os  Os4  1  0.65805272  0.82902677  0.75000000  1
  Os  Os5  1  0.82902677  0.65805272  0.25000000  1
  Os  Os6  1  0.82906379  0.17093621  0.25000000  1
  Os  Os7  1  0.34194728  0.17097323  0.25000000  1
loop_
_geom_bond_atom_site_label_1
_geom_bond_atom_site_label_2
_geom_bond_distance
_geom_bond_site_symmetry_2
Os0 Os3 2.729512 1_545
Os0 Os6 2.729512 1_455
Os0 Os5 2.729709 1_445
Os0 Os2 2.729709 1_555
Os0 Os4 2.729709 1_445
Os0 Os7 2.729709 1_555
Os0 Tb0 3.102083 1_455
Os0 Tb1 3.102083 1_545
Os0 Tb0 3.102137 1_555
Os0 Tb0 3.102137 1_445
Os0 Tb1 3.102137 1_445
Os0 Tb1 3.102137 1_555
Os1 Os6 2.729512 1_455
Os1 Os3 2.729512 1_544
Os1 Os5 2.729709 1_445
Os1 Os4 2.729709 1_444
Os1 Os7 2.729709 1_555
Os1 Os2 2.729709 1_554
Os1 Tb3 3.102083 1_454
Os1 Tb2 3.102083 1_545
Os1 Tb3 3.102137 1_444
Os1 Tb3 3.102137 1_554
Os1 Tb2 3.102137 1_555
Os1 Tb2 3.102137 1_445
Os2 Os4 2.570101 1_555
Os2 Os3 2.570390 1_555
Os2 Os3 2.706155 1_545
Os2 Os4 2.706453 1_445
Os2 Tb3 3.113566 1_455
Os2 Tb0 3.113566 1_455
Os2 Tb0 3.113619 1_555
Os2 Tb3 3.113619 1_555
Os2 Tb1 3.189635 1_555
Os2 Tb2 3.189635 1_556
Os3 Os4 2.570390 1_555
Os3 Os4 2.706155 1_455
Os3 Tb0 3.113592 1_565
Os3 Tb3 3.113592 1_455
Os3 Tb3 3.113592 1_565
Os3 Tb0 3.113592 1_455
Os3 Tb1 3.189770 1_555
Os3 Tb2 3.189770 1_556
Os4 Tb0 3.113566 1_565
Os4 Tb3 3.113566 1_565
Os4 Tb0 3.113619 1_555
Os4 Tb3 3.113619 1_555
Os4 Tb1 3.189635 1_555
Os4 Tb2 3.189635 1_556
Os5 Os7 2.570101 1_555
Os5 Os6 2.570390 1_555
Os5 Os6 2.706155 1_565
Os5 Os7 2.706453 1_665
Os5 Tb1 3.113566 1_655
Os5 Tb2 3.113566 1_655
Os5 Tb1 3.113619 1_555
Os5 Tb2 3.113619 1_555
Os5 Tb3 3.189635 1_554
Os5 Tb0 3.189635 1_555
Os6 Os7 2.570390 1_555
Os6 Os7 2.706155 1_655
Os6 Tb1 3.113592 1_655
Os6 Tb1 3.113592 1_545
Os6 Tb2 3.113592 1_655
Os6 Tb2 3.113592 1_545
Os6 Tb3 3.189770 1_554
Os6 Tb0 3.189770 1_555
Os7 Tb2 3.113566 1_545
Os7 Tb1 3.113566 1_545
Os7 Tb1 3.113619 1_555
Os7 Tb2 3.113619 1_555
Os7 Tb0 3.189635 1_555
Os7 Tb3 3.189635 1_554
