# generated using pymatgen
data_U2(Ni7B2)3
_symmetry_space_group_name_H-M   'P 1'
_cell_length_a   7.45454961
_cell_length_b   7.45455907
_cell_length_c   7.45454556
_cell_angle_alpha   59.99995221
_cell_angle_beta   59.99993646
_cell_angle_gamma   59.99996272
_symmetry_Int_Tables_number   1
_chemical_formula_structural   U2(Ni7B2)3
_chemical_formula_sum   'U2 Ni21 B6'
_cell_volume   292.92002163
_cell_formula_units_Z   1
loop_
 _symmetry_equiv_pos_site_id
 _symmetry_equiv_pos_as_xyz
  1  'x, y, z'
loop_
 _atom_site_type_symbol
 _atom_site_label
 _atom_site_symmetry_multiplicity
 _atom_site_fract_x
 _atom_site_fract_y
 _atom_site_fract_z
 _atom_site_occupancy
  U  U0  1  0.75000202  0.74999725  0.75000103  1
  U  U1  1  0.24999804  0.25000215  0.24999920  1
  Ni  Ni0  1  0.34053770  0.99999720  0.65946620  1
  Ni  Ni1  1  0.84438551  0.38520581  0.38520287  1
  Ni  Ni2  1  0.61479805  0.61479559  0.61479642  1
  Ni  Ni3  1  0.99999783  0.34053873  -0.00000130  1
  Ni  Ni4  1  0.34053652  0.99999815  0.99999851  1
  Ni  Ni5  1  0.99999790  0.34053795  0.65946609  1
  Ni  Ni6  1  0.65946659  0.99999745  0.34053805  1
  Ni  Ni7  1  0.99999806  0.99999851  0.34053755  1
  Ni  Ni8  1  0.34053849  0.65946613  0.99999708  1
  Ni  Ni9  1  0.65946598  0.34053862  0.99999810  1
  Ni  Ni10  1  0.99999714  0.65946647  0.34053824  1
  Ni  Ni11  1  0.99999849  0.99999691  0.65946645  1
  Ni  Ni12  1  0.15560655  0.61479760  0.61479957  1
  Ni  Ni13  1  0.65946774  0.99999681  0.99999808  1
  Ni  Ni14  1  0.99999756  0.65946563  0.99999727  1
  Ni  Ni15  1  0.00000007  0.99999986  0.99999998  1
  Ni  Ni16  1  0.38520397  0.38520810  0.38520616  1
  Ni  Ni17  1  0.38520345  0.84438182  0.38520717  1
  Ni  Ni18  1  0.61480088  0.61479500  0.15560894  1
  Ni  Ni19  1  0.61479923  0.15560929  0.61479610  1
  Ni  Ni20  1  0.38520184  0.38520858  0.84438252  1
  B  B0  1  0.73456915  0.26543162  0.73456920  1
  B  B1  1  0.26542955  0.26543173  0.73457009  1
  B  B2  1  0.73457015  0.73456820  0.26543022  1
  B  B3  1  0.73456992  0.26543203  0.26542921  1
  B  B4  1  0.26543048  0.73456811  0.73457039  1
  B  B5  1  0.26543112  0.73456867  0.26543062  1
loop_
_geom_bond_atom_site_label_1
_geom_bond_atom_site_label_2
_geom_bond_distance
_geom_bond_site_symmetry_2
Ni0 Ni15 2.538537 1_555
Ni1 U1 2.468805 1_655
Ni2 U0 2.468795 1_555
Ni10 Ni15 2.538540 1_654
Ni11 Ni15 2.538540 1_655
Ni12 U0 2.468757 1_455
Ni13 Ni15 2.538534 1_655
Ni14 Ni15 2.538552 1_655
Ni15 Ni4 2.538534 1_555
Ni15 Ni6 2.538538 1_456
Ni15 Ni7 2.538540 1_456
Ni15 Ni5 2.538542 1_465
Ni15 Ni8 2.538543 1_555
Ni15 Ni9 2.538546 1_465
Ni15 Ni3 2.538554 1_466
Ni16 U1 2.468847 1_555
Ni17 U1 2.468856 1_565
Ni18 U0 2.468776 1_554
Ni19 U0 2.468806 1_545
Ni20 U1 2.468829 1_556
B0 Ni5 2.056348 1_555
B0 Ni9 2.056351 1_555
B0 Ni13 2.056357 1_545
B0 Ni11 2.056362 1_545
B0 Ni2 2.126877 1_555
B0 Ni19 2.126884 1_555
B0 Ni1 2.126887 1_555
B0 Ni20 2.126895 1_555
B1 Ni3 2.056346 1_456
B1 Ni5 2.056350 1_455
B1 Ni4 2.056351 1_545
B1 Ni0 2.056367 1_545
B1 Ni20 2.126863 1_555
B1 Ni16 2.126873 1_555
B1 Ni12 2.126888 1_555
B1 Ni19 2.126908 1_555
B2 Ni14 2.056346 1_554
B2 Ni13 2.056346 1_554
B2 Ni10 2.056346 1_555
B2 Ni6 2.056359 1_555
B2 Ni1 2.126868 1_555
B2 Ni18 2.126875 1_555
B2 Ni2 2.126886 1_555
B2 Ni17 2.126891 1_555
B3 Ni3 2.056339 1_555
B3 Ni9 2.056344 1_554
B3 Ni7 2.056353 1_545
B3 Ni6 2.056364 1_545
B3 Ni18 2.126871 1_555
B3 Ni1 2.126871 1_555
B3 Ni16 2.126887 1_555
B3 Ni19 2.126890 1_555
B4 Ni8 2.056343 1_555
B4 Ni14 2.056344 1_455
B4 Ni11 2.056350 1_455
B4 Ni0 2.056354 1_555
B4 Ni20 2.126851 1_555
B4 Ni17 2.126869 1_555
B4 Ni12 2.126884 1_555
B4 Ni2 2.126896 1_555
B5 Ni4 2.056349 1_554
B5 Ni8 2.056353 1_554
B5 Ni10 2.056355 1_455
B5 Ni7 2.056357 1_455
B5 Ni16 2.126857 1_555
B5 Ni17 2.126865 1_555
B5 Ni12 2.126902 1_555
B5 Ni18 2.126909 1_555
