# generated using pymatgen
data_Sr3(BiN2)2
_symmetry_space_group_name_H-M   'P 1'
_cell_length_a   8.53077539
_cell_length_b   12.48021718
_cell_length_c   5.58893487
_cell_angle_alpha   89.99999920
_cell_angle_beta   96.61584115
_cell_angle_gamma   137.01078821
_symmetry_Int_Tables_number   1
_chemical_formula_structural   Sr3(BiN2)2
_chemical_formula_sum   'Sr6 Bi4 N8'
_cell_volume   399.89465595
_cell_formula_units_Z   2
loop_
 _symmetry_equiv_pos_site_id
 _symmetry_equiv_pos_as_xyz
  1  'x, y, z'
loop_
 _atom_site_type_symbol
 _atom_site_label
 _atom_site_symmetry_multiplicity
 _atom_site_fract_x
 _atom_site_fract_y
 _atom_site_fract_z
 _atom_site_occupancy
  Sr  Sr0  1  0.22047600  0.01169900  0.06249100  1
  Sr  Sr1  1  0.77952400  0.79122300  0.43750900  1
  Sr  Sr2  1  0.77952400  0.98830100  0.93750900  1
  Sr  Sr3  1  0.22047600  0.20877700  0.56249100  1
  Sr  Sr4  1  0.00000000  0.66958100  0.75000000  1
  Sr  Sr5  1  0.00000000  0.33041900  0.25000000  1
  Bi  Bi0  1  0.60624200  0.20186200  0.65599400  1
  Bi  Bi1  1  0.39375800  0.59562100  0.84400600  1
  Bi  Bi2  1  0.39375800  0.79813800  0.34400600  1
  Bi  Bi3  1  0.60624200  0.40437900  0.15599400  1
  N  N0  1  0.22289800  0.00251100  0.57790400  1
  N  N1  1  0.77710200  0.77961300  0.92209600  1
  N  N2  1  0.77710200  0.99748900  0.42209600  1
  N  N3  1  0.22289800  0.22038700  0.07790400  1
  N  N4  1  0.65664700  0.25674200  0.05624100  1
  N  N5  1  0.34335300  0.60009500  0.44375900  1
  N  N6  1  0.34335300  0.74325800  0.94375900  1
  N  N7  1  0.65664700  0.39990500  0.55624100  1
loop_
_geom_bond_atom_site_label_1
_geom_bond_atom_site_label_2
_geom_bond_distance
_geom_bond_site_symmetry_2
Bi0 N0 2.200672 1_555
Bi0 N4 2.237291 1_556
Bi0 N7 2.259435 1_555
Bi1 N1 2.200672 1_555
Bi1 N5 2.237289 1_555
Bi1 N6 2.259423 1_555
Bi2 N2 2.200672 1_555
Bi2 N6 2.237291 1_554
Bi2 N5 2.259435 1_555
Bi3 N3 2.200672 1_555
Bi3 N7 2.237289 1_555
Bi3 N4 2.259423 1_555
N0 Sr1 2.569048 1_445
N0 Sr3 2.590750 1_555
N0 Sr0 2.713846 1_556
N0 Sr0 2.881187 1_555
N0 Sr4 3.266193 1_545
N1 Sr0 2.569048 1_666
N1 Sr2 2.590750 1_555
N1 Sr1 2.713846 1_555
N1 Sr1 2.881187 1_556
N1 Sr4 3.266194 1_655
N2 Sr3 2.569048 1_665
N2 Sr1 2.590750 1_555
N2 Sr2 2.713846 1_554
N2 Sr2 2.881187 1_555
N2 Sr5 3.266193 1_665
N3 Sr2 2.569048 1_444
N3 Sr0 2.590750 1_555
N3 Sr3 2.713846 1_555
N3 Sr3 2.881187 1_554
N3 Sr5 3.266194 1_555
N4 Sr5 2.434449 1_655
N4 Sr0 2.565411 1_555
N5 Sr5 2.434448 1_555
N5 Sr1 2.565411 1_555
N6 Sr4 2.434449 1_555
N6 Sr2 2.565411 1_555
N7 Sr4 2.434448 1_655
N7 Sr3 2.565411 1_555
