# generated using pymatgen
data_Sc3P
_symmetry_space_group_name_H-M   'P 1'
_cell_length_a   5.76530597
_cell_length_b   6.79953532
_cell_length_c   8.46262121
_cell_angle_alpha   90.00000000
_cell_angle_beta   90.00000000
_cell_angle_gamma   90.00000000
_symmetry_Int_Tables_number   1
_chemical_formula_structural   Sc3P
_chemical_formula_sum   'Sc12 P4'
_cell_volume   331.74661242
_cell_formula_units_Z   4
loop_
 _symmetry_equiv_pos_site_id
 _symmetry_equiv_pos_as_xyz
  1  'x, y, z'
loop_
 _atom_site_type_symbol
 _atom_site_label
 _atom_site_symmetry_multiplicity
 _atom_site_fract_x
 _atom_site_fract_y
 _atom_site_fract_z
 _atom_site_occupancy
  Sc  Sc0  1  0.34949202  0.67471973  0.04992350  1
  Sc  Sc1  1  0.15050798  0.17471973  0.45007650  1
  Sc  Sc2  1  0.65050798  0.32528027  0.54992350  1
  Sc  Sc3  1  0.84949202  0.82528027  0.95007650  1
  Sc  Sc4  1  0.65050798  0.32528027  0.95007650  1
  Sc  Sc5  1  0.84949202  0.82528027  0.54992350  1
  Sc  Sc6  1  0.34949202  0.67471973  0.45007650  1
  Sc  Sc7  1  0.15050798  0.17471973  0.04992350  1
  Sc  Sc8  1  0.85888780  0.52667906  0.25000000  1
  Sc  Sc9  1  0.64111220  0.02667906  0.25000000  1
  Sc  Sc10  1  0.14111220  0.47332094  0.75000000  1
  Sc  Sc11  1  0.35888780  0.97332094  0.75000000  1
  P  P0  1  0.07361683  0.87340455  0.25000000  1
  P  P1  1  0.42638317  0.37340455  0.25000000  1
  P  P2  1  0.92638317  0.12659545  0.75000000  1
  P  P3  1  0.57361683  0.62659545  0.75000000  1
loop_
_geom_bond_atom_site_label_1
_geom_bond_atom_site_label_2
_geom_bond_distance
_geom_bond_site_symmetry_2
P0 Sc8 2.662844 1_455
P0 Sc6 2.687311 1_555
P0 Sc0 2.687311 1_555
P0 Sc1 2.694613 1_565
P0 Sc7 2.694613 1_565
P0 Sc9 2.702558 1_465
P0 Sc3 2.866857 1_454
P0 Sc5 2.866857 1_455
P1 Sc9 2.662844 1_555
P1 Sc7 2.687311 1_555
P1 Sc1 2.687311 1_555
P1 Sc0 2.694613 1_555
P1 Sc6 2.694613 1_555
P1 Sc8 2.702558 1_555
P1 Sc2 2.866857 1_555
P1 Sc4 2.866857 1_554
P2 Sc10 2.662844 1_655
P2 Sc2 2.687311 1_555
P2 Sc4 2.687311 1_555
P2 Sc3 2.694613 1_545
P2 Sc5 2.694613 1_545
P2 Sc11 2.702558 1_645
P2 Sc1 2.866857 1_655
P2 Sc7 2.866857 1_656
P3 Sc11 2.662844 1_555
P3 Sc3 2.687311 1_555
P3 Sc5 2.687311 1_555
P3 Sc2 2.694613 1_555
P3 Sc4 2.694613 1_555
P3 Sc10 2.702558 1_555
P3 Sc6 2.866857 1_555
P3 Sc0 2.866857 1_556
