# generated using pymatgen
data_Fe10OF19
_symmetry_space_group_name_H-M   'P 1'
_cell_length_a   4.80959000
_cell_length_b   5.83016790
_cell_length_c   13.81570729
_cell_angle_alpha   80.20827702
_cell_angle_beta   89.78845351
_cell_angle_gamma   89.81046714
_symmetry_Int_Tables_number   1
_chemical_formula_structural   Fe10OF19
_chemical_formula_sum   'Fe10 O1 F19'
_cell_volume   381.75483496
_cell_formula_units_Z   1
loop_
 _symmetry_equiv_pos_site_id
 _symmetry_equiv_pos_as_xyz
  1  'x, y, z'
loop_
 _atom_site_type_symbol
 _atom_site_label
 _atom_site_symmetry_multiplicity
 _atom_site_fract_x
 _atom_site_fract_y
 _atom_site_fract_z
 _atom_site_occupancy
  Fe  Fe0  1  0.51562000  0.49053400  0.99664300  1
  Fe  Fe1  1  0.49563400  0.30082800  0.60231600  1
  Fe  Fe2  1  0.50346800  0.89618100  0.80096000  1
  Fe  Fe3  1  0.50101100  0.69947300  0.39947200  1
  Fe  Fe4  1  0.49820200  0.10235000  0.19918800  1
  Fe  Fe5  1  0.99874500  0.79815800  0.60178000  1
  Fe  Fe6  1  0.00468700  0.60274600  0.19519200  1
  Fe  Fe7  1  0.98774100  0.39698000  0.80768000  1
  Fe  Fe8  1  0.99875000  0.20104500  0.39999100  1
  Fe  Fe9  1  0.98539500  0.02314300  0.99589600  1
  O  O0  1  0.81029500  0.30020700  0.94593400  1
  F  F0  1  0.79924600  0.71859100  0.74076000  1
  F  F1  1  0.80497100  0.93141100  0.13210300  1
  F  F2  1  0.80153800  0.52354800  0.33703300  1
  F  F3  1  0.79632400  0.12121900  0.53940200  1
  F  F4  1  0.71261800  0.81897100  0.94193700  1
  F  F5  1  0.69895000  0.62040400  0.54030100  1
  F  F6  1  0.70305100  0.02035300  0.33706600  1
  F  F7  1  0.69157500  0.42778900  0.14232200  1
  F  F8  1  0.70192900  0.21481200  0.74001400  1
  F  F9  1  0.29779800  0.97742800  0.66148900  1
  F  F10  1  0.30318800  0.77952300  0.25653700  1
  F  F11  1  0.30541000  0.57755100  0.85982700  1
  F  F12  1  0.29061600  0.17650300  0.06220100  1
  F  F13  1  0.29807800  0.38042400  0.46014200  1
  F  F14  1  0.20372600  0.06130400  0.86836400  1
  F  F15  1  0.19910600  0.70342700  0.05261500  1
  F  F16  1  0.19937000  0.87804800  0.45982200  1
  F  F17  1  0.19584000  0.47574500  0.66466900  1
  F  F18  1  0.19711800  0.28130900  0.25834300  1
loop_
_geom_bond_atom_site_label_1
_geom_bond_atom_site_label_2
_geom_bond_distance
_geom_bond_site_symmetry_2
Fe0 O0 1.994351 1_555
Fe7 O0 2.078383 1_555
Fe9 O0 1.846896 1_555
F0 Fe2 2.015409 1_555
F0 Fe5 2.123449 1_555
F0 Fe7 2.144243 1_555
F1 Fe9 2.056428 1_564
F1 Fe4 2.079297 1_565
F1 Fe6 2.186325 1_655
F2 Fe3 2.041395 1_555
F2 Fe8 2.151647 1_555
F2 Fe6 2.165433 1_655
F3 Fe1 2.057620 1_555
F3 Fe8 2.135050 1_555
F3 Fe5 2.163342 1_545
F4 Fe9 2.003317 1_565
F4 Fe0 2.156394 1_555
F4 Fe2 2.172856 1_555
F5 Fe5 2.047635 1_555
F5 Fe3 2.147111 1_555
F5 Fe1 2.150498 1_555
F6 Fe8 2.053957 1_555
F6 Fe4 2.128101 1_555
F6 Fe3 2.155150 1_545
F7 Fe6 2.028191 1_655
F7 Fe4 2.140436 1_555
F7 Fe0 2.158910 1_554
F8 Fe7 2.061174 1_555
F8 Fe1 2.131008 1_555
F8 Fe2 2.131853 1_545
F9 Fe5 2.038044 1_455
F9 Fe1 2.147223 1_565
F9 Fe2 2.148557 1_555
F10 Fe6 2.039004 1_555
F10 Fe4 2.132814 1_565
F10 Fe3 2.172592 1_555
F11 Fe7 2.058748 1_455
F11 Fe2 2.124117 1_555
F11 Fe0 2.130020 1_555
F12 Fe9 2.022568 1_454
F12 Fe4 2.120929 1_555
F12 Fe0 2.187537 1_554
F13 Fe8 2.042378 1_455
F13 Fe3 2.142629 1_555
F13 Fe1 2.162684 1_555
F14 Fe9 2.027602 1_455
F14 Fe2 2.039148 1_545
F14 Fe7 2.246539 1_455
F15 Fe9 2.154412 1_464
F15 Fe6 2.166977 1_555
F15 Fe0 2.182027 1_554
F16 Fe3 2.039654 1_555
F16 Fe8 2.150556 1_465
F16 Fe5 2.161669 1_455
F17 Fe1 2.034951 1_555
F17 Fe5 2.150733 1_455
F17 Fe7 2.190029 1_455
F18 Fe4 2.030959 1_555
F18 Fe6 2.137320 1_555
F18 Fe8 2.153284 1_455
