# generated using pymatgen
data_ZrNiAs
_symmetry_space_group_name_H-M   'P 1'
_cell_length_a   3.87754837
_cell_length_b   6.50261482
_cell_length_c   7.28609464
_cell_angle_alpha   90.00000000
_cell_angle_beta   90.00000000
_cell_angle_gamma   90.00000000
_symmetry_Int_Tables_number   1
_chemical_formula_structural   ZrNiAs
_chemical_formula_sum   'Zr4 Ni4 As4'
_cell_volume   183.71307294
_cell_formula_units_Z   4
loop_
 _symmetry_equiv_pos_site_id
 _symmetry_equiv_pos_as_xyz
  1  'x, y, z'
loop_
 _atom_site_type_symbol
 _atom_site_label
 _atom_site_symmetry_multiplicity
 _atom_site_fract_x
 _atom_site_fract_y
 _atom_site_fract_z
 _atom_site_occupancy
  Zr  Zr0  1  0.25000000  0.48802871  0.18812084  1
  Zr  Zr1  1  0.75000000  0.51197129  0.81187916  1
  Zr  Zr2  1  0.75000000  0.01197129  0.68812084  1
  Zr  Zr3  1  0.25000000  0.98802871  0.31187916  1
  Ni  Ni0  1  0.25000000  0.83440082  0.92528514  1
  Ni  Ni1  1  0.75000000  0.16559918  0.07471486  1
  Ni  Ni2  1  0.75000000  0.66559918  0.42528514  1
  Ni  Ni3  1  0.25000000  0.33440082  0.57471486  1
  As  As0  1  0.25000000  0.71627445  0.60446057  1
  As  As1  1  0.75000000  0.28372555  0.39553943  1
  As  As2  1  0.75000000  0.78372555  0.10446057  1
  As  As3  1  0.25000000  0.21627445  0.89553943  1
loop_
_geom_bond_atom_site_label_1
_geom_bond_atom_site_label_2
_geom_bond_distance
_geom_bond_site_symmetry_2
Ni0 Zr2 2.842200 1_465
Ni0 Zr2 2.842200 1_565
Ni0 Zr0 2.956411 1_556
Ni0 Zr1 2.972789 1_555
Ni0 Zr1 2.972789 1_455
Ni0 Zr3 2.988663 1_556
Ni1 Zr3 2.842200 1_545
Ni1 Zr3 2.842200 1_645
Ni1 Zr1 2.956411 1_554
Ni1 Zr0 2.972789 1_655
Ni1 Zr0 2.972789 1_555
Ni1 Zr2 2.988663 1_554
Ni2 Zr0 2.842200 1_655
Ni2 Zr0 2.842200 1_555
Ni2 Zr2 2.956411 1_565
Ni2 Zr3 2.972789 1_655
Ni2 Zr3 2.972789 1_555
Ni2 Zr1 2.988663 1_555
Ni3 Zr1 2.842200 1_455
Ni3 Zr1 2.842200 1_555
Ni3 Zr3 2.956411 1_545
Ni3 Zr2 2.972789 1_555
Ni3 Zr2 2.972789 1_455
Ni3 Zr0 2.988663 1_555
As0 Ni2 2.360452 1_455
As0 Ni2 2.360452 1_555
As0 Ni0 2.460529 1_555
As0 Ni3 2.492617 1_555
As0 Zr3 2.768963 1_555
As0 Zr1 2.794228 1_555
As0 Zr1 2.794228 1_455
As0 Zr2 2.797780 1_565
As0 Zr2 2.797780 1_465
As1 Ni3 2.360452 1_555
As1 Ni3 2.360452 1_655
As1 Ni1 2.460529 1_555
As1 Ni2 2.492617 1_555
As1 Zr2 2.768963 1_555
As1 Zr0 2.794228 1_655
As1 Zr0 2.794228 1_555
As1 Zr3 2.797780 1_645
As1 Zr3 2.797780 1_545
As2 Ni0 2.360452 1_654
As2 Ni0 2.360452 1_554
As2 Ni2 2.460529 1_555
As2 Ni1 2.492617 1_565
As2 Zr1 2.768963 1_554
As2 Zr3 2.794228 1_655
As2 Zr3 2.794228 1_555
As2 Zr0 2.797780 1_555
As2 Zr0 2.797780 1_655
As3 Ni1 2.360452 1_456
As3 Ni1 2.360452 1_556
As3 Ni3 2.460529 1_555
As3 Ni0 2.492617 1_545
As3 Zr0 2.768963 1_556
As3 Zr2 2.794228 1_555
As3 Zr2 2.794228 1_455
As3 Zr1 2.797780 1_555
As3 Zr1 2.797780 1_455
