# generated using pymatgen
data_CsSm2CuSe4
_symmetry_space_group_name_H-M   'P 1'
_cell_length_a   7.73186737
_cell_length_b   7.73186737
_cell_length_c   14.67989500
_cell_angle_alpha   90.00000000
_cell_angle_beta   90.00000000
_cell_angle_gamma   148.22369016
_symmetry_Int_Tables_number   1
_chemical_formula_structural   CsSm2CuSe4
_chemical_formula_sum   'Cs2 Sm4 Cu2 Se8'
_cell_volume   462.14278572
_cell_formula_units_Z   2
loop_
 _symmetry_equiv_pos_site_id
 _symmetry_equiv_pos_as_xyz
  1  'x, y, z'
loop_
 _atom_site_type_symbol
 _atom_site_label
 _atom_site_symmetry_multiplicity
 _atom_site_fract_x
 _atom_site_fract_y
 _atom_site_fract_z
 _atom_site_occupancy
  Cs  Cs0  1  0.89319500  0.10680500  0.75000000  1
  Cs  Cs1  1  0.10680500  0.89319500  0.25000000  1
  Sm  Sm0  1  0.36590600  0.63409400  0.06199200  1
  Sm  Sm1  1  0.63409400  0.36590600  0.93800800  1
  Sm  Sm2  1  0.36590600  0.63409400  0.43800800  1
  Sm  Sm3  1  0.63409400  0.36590600  0.56199200  1
  Cu  Cu0  1  0.16577700  0.83422300  0.75000000  1
  Cu  Cu1  1  0.83422300  0.16577700  0.25000000  1
  Se  Se0  1  0.42194000  0.57806000  0.25000000  1
  Se  Se1  1  0.57806000  0.42194000  0.75000000  1
  Se  Se2  1  0.74140300  0.25859700  0.10890600  1
  Se  Se3  1  0.25859700  0.74140300  0.89109400  1
  Se  Se4  1  0.00000000  0.00000000  0.50000000  1
  Se  Se5  1  0.00000000  0.00000000  0.00000000  1
  Se  Se6  1  0.74140300  0.25859700  0.39109400  1
  Se  Se7  1  0.25859700  0.74140300  0.60890600  1
loop_
_geom_bond_atom_site_label_1
_geom_bond_atom_site_label_2
_geom_bond_distance
_geom_bond_site_symmetry_2
Cs0 Se1 3.469878 1_655
Cs0 Se1 3.469878 1_545
Cs0 Se3 3.574617 1_655
Cs0 Se3 3.574617 1_545
Cs0 Se7 3.574617 1_655
Cs0 Se7 3.574617 1_545
Cs0 Se4 3.999009 1_655
Cs0 Se5 3.999009 1_656
Cs1 Se0 3.469878 1_565
Cs1 Se0 3.469878 1_455
Cs1 Se6 3.574617 1_565
Cs1 Se6 3.574617 1_455
Cs1 Se2 3.574617 1_565
Cs1 Se2 3.574617 1_455
Cs1 Se5 3.999009 1_565
Cs1 Se4 3.999009 1_565
Cu0 Se1 2.486433 1_455
Cu0 Se1 2.486433 1_565
Cu0 Se3 2.489150 1_555
Cu0 Se7 2.489150 1_555
Cu1 Se0 2.486433 1_545
Cu1 Se0 2.486433 1_655
Cu1 Se6 2.489150 1_555
Cu1 Se2 2.489150 1_555
Se0 Sm2 2.883019 1_555
Se0 Sm0 2.883019 1_555
Se1 Sm1 2.883019 1_555
Se1 Sm3 2.883019 1_555
Se2 Sm0 2.895434 1_545
Se2 Sm0 2.895434 1_655
Se2 Sm1 2.973404 1_554
Se3 Sm1 2.895434 1_455
Se3 Sm1 2.895434 1_565
Se3 Sm0 2.973404 1_556
Se4 Sm3 3.047301 1_555
Se4 Sm3 3.047301 1_445
Se4 Sm2 3.047301 1_555
Se4 Sm2 3.047301 1_445
Se5 Sm0 3.047301 1_555
Se5 Sm1 3.047301 1_554
Se5 Sm1 3.047301 1_444
Se5 Sm0 3.047301 1_445
Se6 Sm2 2.895434 1_545
Se6 Sm2 2.895434 1_655
Se6 Sm3 2.973404 1_555
Se7 Sm3 2.895434 1_455
Se7 Sm3 2.895434 1_565
Se7 Sm2 2.973404 1_555
