# generated using pymatgen
data_LiCoPO4
_symmetry_space_group_name_H-M   'P 1'
_cell_length_a   5.48488345
_cell_length_b   10.82128400
_cell_length_c   6.12791300
_cell_angle_alpha   89.99891660
_cell_angle_beta   89.99841029
_cell_angle_gamma   74.22311518
_symmetry_Int_Tables_number   1
_chemical_formula_structural   LiCoPO4
_chemical_formula_sum   'Li4 Co4 P4 O16'
_cell_volume   350.01108982
_cell_formula_units_Z   4
loop_
 _symmetry_equiv_pos_site_id
 _symmetry_equiv_pos_as_xyz
  1  'x, y, z'
loop_
 _atom_site_type_symbol
 _atom_site_label
 _atom_site_symmetry_multiplicity
 _atom_site_fract_x
 _atom_site_fract_y
 _atom_site_fract_z
 _atom_site_occupancy
  Li  Li0  1  0.27323600  0.30069500  0.52595800  1
  Li  Li1  1  0.22675600  0.19928700  0.02594500  1
  Li  Li2  1  0.77323400  0.80070100  0.97405100  1
  Li  Li3  1  0.72680000  0.69930500  0.47402900  1
  Co  Co0  1  0.12978700  0.89933900  0.66810200  1
  Co  Co1  1  0.37022400  0.60066500  0.16806700  1
  Co  Co2  1  0.62980700  0.39933300  0.83191200  1
  Co  Co3  1  0.87020600  0.10065900  0.33191100  1
  P  P0  1  0.23126500  0.64035800  0.65673800  1
  P  P1  1  0.26871300  0.85965000  0.15676300  1
  P  P2  1  0.73125500  0.14035100  0.84325200  1
  P  P3  1  0.76875400  0.35963800  0.34325200  1
  O  O0  1  0.96621900  0.74115900  0.69050400  1
  O  O1  1  0.07811400  0.77740800  0.14328000  1
  O  O2  1  0.22398800  0.55923500  0.45072400  1
  O  O3  1  0.30119500  0.54661300  0.85745500  1
  O  O4  1  0.19881800  0.95338200  0.35750000  1
  O  O5  1  0.27593700  0.94081200  0.95072900  1
  O  O6  1  0.46617300  0.24116500  0.80951400  1
  O  O7  1  0.57814800  0.27740900  0.35672200  1
  O  O8  1  0.42186400  0.72258900  0.64326800  1
  O  O9  1  0.53379700  0.75883500  0.19046400  1
  O  O10  1  0.72400200  0.05920100  0.04929300  1
  O  O11  1  0.80119100  0.04661400  0.64252000  1
  O  O12  1  0.69884400  0.45338900  0.14251700  1
  O  O13  1  0.77600300  0.44078300  0.54927100  1
  O  O14  1  0.92185300  0.22260000  0.85674200  1
  O  O15  1  0.03381800  0.25882400  0.30951700  1
loop_
_geom_bond_atom_site_label_1
_geom_bond_atom_site_label_2
_geom_bond_distance
_geom_bond_site_symmetry_2
Li0 O7 1.925277 1_555
Li0 O15 2.003139 1_555
Li0 O6 2.045356 1_555
Li1 O14 1.925141 1_454
Li1 O6 2.003065 1_554
Li1 O15 2.045426 1_555
Li2 O1 1.925145 1_656
Li2 O9 2.003018 1_556
Li2 O0 2.045417 1_555
Li3 O8 1.925399 1_555
Li3 O0 2.003206 1_555
Li3 O9 2.045559 1_555
Co0 O5 2.009792 1_555
Co0 O4 2.056308 1_555
Co0 O11 2.061762 1_465
Co0 O8 2.140480 1_555
Co0 O0 2.142133 1_455
Co1 O2 2.009960 1_555
Co1 O3 2.056435 1_554
Co1 O12 2.061837 1_555
Co1 O1 2.140500 1_555
Co1 O9 2.142057 1_555
Co2 O13 2.009846 1_555
Co2 O12 2.056421 1_556
Co2 O3 2.061828 1_555
Co2 O14 2.140266 1_555
Co2 O6 2.142250 1_555
Co3 O10 2.009827 1_555
Co3 O11 2.056332 1_555
Co3 O4 2.061835 1_645
Co3 O7 2.140417 1_555
Co3 O15 2.142135 1_655
O0 P0 1.575982 1_655
O1 P1 1.548446 1_555
O2 P0 1.544366 1_555
O3 P0 1.573990 1_555
O4 P1 1.574004 1_555
O5 P1 1.544627 1_556
O6 P2 1.576172 1_555
O7 P3 1.548362 1_555
O8 P0 1.548347 1_555
O9 P1 1.576155 1_555
O10 P2 1.544616 1_554
O11 P2 1.574027 1_555
O12 P3 1.574106 1_555
O13 P3 1.544500 1_555
O14 P2 1.548501 1_555
O15 P3 1.576092 1_455
