# generated using pymatgen
data_Zr5AlNi4
_symmetry_space_group_name_H-M   'P 1'
_cell_length_a   6.71894500
_cell_length_b   7.17781091
_cell_length_c   7.20072180
_cell_angle_alpha   90.15826219
_cell_angle_beta   90.00000077
_cell_angle_gamma   89.99965546
_symmetry_Int_Tables_number   1
_chemical_formula_structural   Zr5AlNi4
_chemical_formula_sum   'Zr10 Al2 Ni8'
_cell_volume   347.27016625
_cell_formula_units_Z   2
loop_
 _symmetry_equiv_pos_site_id
 _symmetry_equiv_pos_as_xyz
  1  'x, y, z'
loop_
 _atom_site_type_symbol
 _atom_site_label
 _atom_site_symmetry_multiplicity
 _atom_site_fract_x
 _atom_site_fract_y
 _atom_site_fract_z
 _atom_site_occupancy
  Zr  Zr0  1  0.00003300  0.18689000  0.35510900  1
  Zr  Zr1  1  0.50000500  0.35520200  0.81282600  1
  Zr  Zr2  1  0.49997300  0.64477100  0.18719000  1
  Zr  Zr3  1  0.75003500  0.99998900  0.00006600  1
  Zr  Zr4  1  0.99991300  0.64887300  0.19147700  1
  Zr  Zr5  1  0.99994600  0.81322600  0.64500900  1
  Zr  Zr6  1  0.50004600  0.19125600  0.35109700  1
  Zr  Zr7  1  0.49990800  0.80889200  0.64899300  1
  Zr  Zr8  1  0.99998700  0.35113900  0.80850700  1
  Zr  Zr9  1  0.24996800  0.00007800  0.00007200  1
  Al  Al0  1  0.24995900  0.50005900  0.50006500  1
  Al  Al1  1  0.75000700  0.50009200  0.50000400  1
  Ni  Ni0  1  0.74434800  0.12211100  0.63226700  1
  Ni  Ni1  1  0.75573200  0.36783700  0.12240200  1
  Ni  Ni2  1  0.75572100  0.63196300  0.87763600  1
  Ni  Ni3  1  0.24420000  0.63220100  0.87768000  1
  Ni  Ni4  1  0.74426700  0.87781300  0.36768600  1
  Ni  Ni5  1  0.25580900  0.87761300  0.36749800  1
  Ni  Ni6  1  0.25592700  0.12211400  0.63214500  1
  Ni  Ni7  1  0.24421700  0.36787800  0.12226900  1
loop_
_geom_bond_atom_site_label_1
_geom_bond_atom_site_label_2
_geom_bond_distance
_geom_bond_site_symmetry_2
Zr0 Zr9 3.336901 1_555
Zr0 Zr3 3.337410 1_445
Zr1 Zr9 3.340177 1_556
Zr1 Zr3 3.340609 1_546
Zr2 Zr3 3.340421 1_555
Zr2 Zr9 3.340684 1_565
Zr3 Zr6 3.328064 1_565
Zr3 Zr7 3.328269 1_554
Zr3 Zr4 3.330050 1_555
Zr3 Zr8 3.330945 1_564
Zr3 Zr5 3.336789 1_554
Zr3 Zr9 3.359022 1_665
Zr3 Zr9 3.359923 1_565
Zr4 Zr9 3.331131 1_665
Zr5 Zr9 3.337461 1_666
Zr6 Zr9 3.328079 1_555
Zr7 Zr9 3.327922 1_566
Zr8 Zr9 3.330561 1_656
Al0 Ni5 2.875972 1_555
Al0 Ni6 2.877460 1_555
Al0 Ni3 2.877567 1_555
Al0 Ni7 2.878887 1_555
Al0 Zr7 2.978465 1_555
Al0 Zr6 2.978916 1_555
Al0 Zr8 2.984874 1_455
Al0 Zr4 2.985656 1_455
Al0 Zr0 2.991543 1_555
Al0 Zr5 2.991815 1_455
Al0 Zr1 2.998089 1_555
Al0 Zr2 2.998230 1_555
Al1 Ni4 2.876494 1_555
Al1 Ni2 2.877043 1_555
Al1 Ni1 2.877741 1_555
Al1 Ni0 2.878115 1_555
Al1 Zr6 2.978472 1_555
Al1 Zr7 2.978999 1_555
Al1 Zr4 2.984721 1_555
Al1 Zr8 2.985309 1_555
Al1 Zr5 2.991526 1_555
Al1 Zr0 2.991931 1_655
Al1 Zr2 2.997885 1_555
Al1 Zr1 2.998343 1_555
Ni0 Ni4 2.585746 1_545
Ni0 Zr6 2.654306 1_555
Ni0 Zr0 2.674995 1_655
Ni0 Zr1 2.678214 1_555
Ni0 Zr8 2.692901 1_555
Ni0 Zr7 2.787109 1_545
Ni0 Zr3 2.792271 1_546
Ni0 Zr5 2.806135 1_545
Ni1 Ni2 2.592117 1_554
Ni1 Zr4 2.646276 1_555
Ni1 Zr2 2.667724 1_555
Ni1 Zr0 2.683479 1_655
Ni1 Zr6 2.698368 1_555
Ni1 Zr3 2.781372 1_545
Ni1 Zr8 2.795535 1_554
Ni1 Zr1 2.815773 1_554
Ni2 Zr8 2.645529 1_555
Ni2 Zr1 2.666656 1_555
Ni2 Zr5 2.683919 1_555
Ni2 Zr7 2.699851 1_555
Ni2 Zr3 2.782795 1_556
Ni2 Zr4 2.795035 1_556
Ni2 Zr2 2.815770 1_556
Ni3 Ni7 2.592285 1_556
Ni3 Zr8 2.646683 1_455
Ni3 Zr1 2.668352 1_555
Ni3 Zr5 2.683396 1_455
Ni3 Zr7 2.698799 1_555
Ni3 Zr9 2.781702 1_566
Ni3 Zr4 2.795083 1_456
Ni3 Zr2 2.815571 1_556
Ni4 Zr7 2.654997 1_555
Ni4 Zr5 2.675611 1_555
Ni4 Zr2 2.677586 1_555
Ni4 Zr4 2.692429 1_555
Ni4 Zr6 2.787480 1_565
Ni4 Zr3 2.791178 1_555
Ni4 Zr0 2.807890 1_665
Ni5 Ni6 2.587081 1_565
Ni5 Zr7 2.654677 1_555
Ni5 Zr2 2.675488 1_555
Ni5 Zr5 2.677168 1_455
Ni5 Zr4 2.692004 1_455
Ni5 Zr6 2.788657 1_565
Ni5 Zr9 2.790517 1_565
Ni5 Zr0 2.809003 1_565
Ni6 Zr6 2.652875 1_555
Ni6 Zr0 2.675234 1_555
Ni6 Zr1 2.677547 1_555
Ni6 Zr8 2.694578 1_455
Ni6 Zr7 2.785335 1_545
Ni6 Zr9 2.792976 1_556
Ni6 Zr5 2.807775 1_445
Ni7 Zr4 2.646728 1_455
Ni7 Zr2 2.667673 1_555
Ni7 Zr0 2.683750 1_555
Ni7 Zr6 2.699695 1_555
Ni7 Zr9 2.780735 1_555
Ni7 Zr8 2.794675 1_454
Ni7 Zr1 2.815273 1_554
