# generated using pymatgen
data_Eu2Ti12(CuO4)9
_symmetry_space_group_name_H-M   'P 1'
_cell_length_a   6.45000998
_cell_length_b   10.50547696
_cell_length_c   10.50547696
_cell_angle_alpha   60.00000000
_cell_angle_beta   90.00000000
_cell_angle_gamma   90.00000000
_symmetry_Int_Tables_number   1
_chemical_formula_structural   Eu2Ti12(CuO4)9
_chemical_formula_sum   'Eu2 Ti12 Cu9 O36'
_cell_volume   616.48507662
_cell_formula_units_Z   1
loop_
 _symmetry_equiv_pos_site_id
 _symmetry_equiv_pos_as_xyz
  1  'x, y, z'
loop_
 _atom_site_type_symbol
 _atom_site_label
 _atom_site_symmetry_multiplicity
 _atom_site_fract_x
 _atom_site_fract_y
 _atom_site_fract_z
 _atom_site_occupancy
  Eu  Eu0  1  0.00485000  0.00000000  0.00000000  1
  Eu  Eu1  1  0.66181700  0.33333300  0.33333300  1
  Ti  Ti0  1  0.83333300  0.16666700  0.16666700  1
  Ti  Ti1  1  0.49655600  0.50561500  0.50822200  1
  Ti  Ti2  1  0.17011100  0.82771800  0.82511100  1
  Ti  Ti3  1  0.49253000  0.00000000  0.00000000  1
  Ti  Ti4  1  0.17413700  0.33333300  0.33333300  1
  Ti  Ti5  1  0.83333300  0.66666700  0.66666700  1
  Ti  Ti6  1  0.83333300  0.16666700  0.66666700  1
  Ti  Ti7  1  0.49655600  0.50822200  0.98616300  1
  Ti  Ti8  1  0.17011100  0.82511100  0.34717000  1
  Ti  Ti9  1  0.17011100  0.34717000  0.82771800  1
  Ti  Ti10  1  0.83333300  0.66666700  0.16666700  1
  Ti  Ti11  1  0.49655600  0.98616300  0.50561500  1
  Cu  Cu0  1  0.99707600  0.49946200  0.49908200  1
  Cu  Cu1  1  0.66959100  0.83387100  0.83425100  1
  Cu  Cu2  1  0.33333300  0.16666700  0.16666700  1
  Cu  Cu3  1  0.66959100  0.33187800  0.83387100  1
  Cu  Cu4  1  0.33333300  0.66666700  0.16666700  1
  Cu  Cu5  1  0.99707600  0.00145500  0.49946200  1
  Cu  Cu6  1  0.33333300  0.16666700  0.66666700  1
  Cu  Cu7  1  0.99707600  0.49908200  0.00145500  1
  Cu  Cu8  1  0.66959100  0.83425100  0.33187800  1
  O  O0  1  0.24419100  0.44282500  0.62191000  1
  O  O1  1  0.91562200  0.78190700  0.95762100  1
  O  O2  1  0.58237300  0.11468000  0.29146300  1
  O  O3  1  0.34650600  0.34981800  0.17392500  1
  O  O4  1  0.00428700  0.68238800  0.50268900  1
  O  O5  1  0.68205100  0.01529200  0.84074400  1
  O  O6  1  0.98461500  0.31804200  0.49259000  1
  O  O7  1  0.66238000  0.65094500  0.83064400  1
  O  O8  1  0.32016100  0.98351500  0.15940800  1
  O  O9  1  0.08429400  0.21865300  0.04187000  1
  O  O10  1  0.75104400  0.55142700  0.37571300  1
  O  O11  1  0.42247600  0.89050800  0.71142300  1
  O  O12  1  0.42247600  0.39806900  0.89050800  1
  O  O13  1  0.08429400  0.73947700  0.21865300  1
  O  O14  1  0.75104400  0.07286100  0.55142700  1
  O  O15  1  0.66238000  0.51841200  0.65094500  1
  O  O16  1  0.32016100  0.85707600  0.98351500  1
  O  O17  1  0.98461500  0.18936900  0.31804200  1
  O  O18  1  0.68205100  0.14396500  0.01529200  1
  O  O19  1  0.34650600  0.47625700  0.34981800  1
  O  O20  1  0.00428700  0.81492100  0.68238800  1
  O  O21  1  0.91562200  0.26047300  0.78190700  1
  O  O22  1  0.58237300  0.59385600  0.11468000  1
  O  O23  1  0.24419100  0.93526400  0.44282500  1
  O  O24  1  0.00428700  0.50268900  0.81492100  1
  O  O25  1  0.68205100  0.84074400  0.14396500  1
  O  O26  1  0.34650600  0.17392500  0.47625700  1
  O  O27  1  0.58237300  0.29146300  0.59385600  1
  O  O28  1  0.24419100  0.62191000  0.93526400  1
  O  O29  1  0.91562200  0.95762100  0.26047300  1
  O  O30  1  0.75104400  0.37571300  0.07286100  1
  O  O31  1  0.42247600  0.71142300  0.39806900  1
  O  O32  1  0.08429400  0.04187000  0.73947700  1
  O  O33  1  0.32016100  0.15940800  0.85707600  1
  O  O34  1  0.98461500  0.49259000  0.18936900  1
  O  O35  1  0.66238000  0.83064400  0.51841200  1
loop_
_geom_bond_atom_site_label_1
_geom_bond_atom_site_label_2
_geom_bond_distance
_geom_bond_site_symmetry_2
Eu0 O8 2.584690 1_545
Eu0 O33 2.584693 1_554
Eu0 O16 2.584697 1_544
Eu0 O32 2.596709 1_554
Eu0 O13 2.596709 1_545
Eu0 O9 2.596709 1_555
Eu0 O1 2.607481 1_444
Eu0 O21 2.607488 1_454
Eu0 O29 2.607491 1_445
Eu0 O5 2.625095 1_454
Eu0 O25 2.625097 1_445
Eu0 O18 2.625101 1_455
Eu1 O3 2.584690 1_555
Eu1 O26 2.584693 1_555
Eu1 O19 2.584697 1_555
Eu1 O2 2.596709 1_555
Eu1 O22 2.596709 1_555
Eu1 O27 2.596709 1_555
Eu1 O30 2.607476 1_555
Eu1 O14 2.607484 1_555
Eu1 O10 2.607496 1_555
Eu1 O17 2.625086 1_555
Eu1 O34 2.625093 1_555
Eu1 O6 2.625099 1_555
Cu0 O4 1.941506 1_655
Cu0 O6 1.942567 1_555
Cu0 O10 1.946411 1_555
Cu0 O0 1.947255 1_655
Cu1 O7 1.941506 1_555
Cu1 O5 1.942583 1_565
Cu1 O1 1.946412 1_555
Cu1 O11 1.947255 1_555
Cu2 O3 1.965161 1_555
Cu2 O8 1.965177 1_545
Cu2 O2 1.970106 1_555
Cu2 O9 1.970107 1_555
Cu3 O15 1.941512 1_555
Cu3 O18 1.942577 1_556
Cu3 O21 1.946406 1_555
Cu3 O12 1.947255 1_555
Cu4 O16 1.965166 1_554
Cu4 O19 1.965167 1_555
Cu4 O13 1.970101 1_555
Cu4 O22 1.970117 1_555
Cu5 O20 1.941512 1_645
Cu5 O17 1.942578 1_555
Cu5 O14 1.946422 1_555
Cu5 O23 1.947255 1_645
Cu6 O33 1.965156 1_555
Cu6 O26 1.965172 1_555
Cu6 O32 1.970106 1_555
Cu6 O27 1.970107 1_555
Cu7 O24 1.941517 1_654
Cu7 O34 1.942588 1_555
Cu7 O30 1.946412 1_555
Cu7 O28 1.947255 1_654
Cu8 O35 1.941517 1_555
Cu8 O25 1.942572 1_555
Cu8 O29 1.946411 1_555
Cu8 O31 1.947255 1_555
O0 Ti1 1.929596 1_555
O0 Ti9 1.933947 1_555
O1 Ti10 1.977782 1_556
O1 Ti2 2.047907 1_655
O2 Ti0 1.980216 1_555
O2 Ti11 2.037944 1_545
O3 Ti4 1.944352 1_555
O3 Ti7 2.077092 1_554
O4 Ti8 1.900453 1_555
O4 Ti5 1.981463 1_455
O5 Ti6 1.979199 1_555
O5 Ti3 2.012574 1_556
O6 Ti6 1.979199 1_555
O6 Ti4 2.012590 1_655
O7 Ti7 1.900453 1_555
O7 Ti5 1.981447 1_555
O8 Ti3 1.944352 1_565
O8 Ti8 2.077092 1_555
O9 Ti0 1.980228 1_455
O9 Ti9 2.037944 1_554
O10 Ti10 1.977782 1_555
O10 Ti1 2.047895 1_555
O11 Ti2 1.929596 1_555
O11 Ti11 1.933947 1_555
O12 Ti9 1.929601 1_555
O12 Ti7 1.933947 1_555
O13 Ti10 1.980222 1_455
O13 Ti8 2.037936 1_555
O14 Ti6 1.977782 1_555
O14 Ti11 2.047901 1_545
O15 Ti1 1.900458 1_555
O15 Ti5 1.981447 1_555
O16 Ti3 1.944361 1_566
O16 Ti2 2.077092 1_555
O17 Ti0 1.979199 1_555
O17 Ti4 2.012573 1_655
O18 Ti0 1.979199 1_555
O18 Ti3 2.012582 1_555
O19 Ti4 1.944361 1_555
O19 Ti1 2.077092 1_555
O20 Ti2 1.900458 1_555
O20 Ti5 1.981437 1_455
O21 Ti6 1.977782 1_555
O21 Ti9 2.047895 1_655
O22 Ti10 1.980227 1_555
O22 Ti7 2.037936 1_554
O23 Ti11 1.929601 1_555
O23 Ti8 1.933947 1_555
O24 Ti9 1.900449 1_555
O24 Ti5 1.981452 1_455
O25 Ti10 1.979199 1_555
O25 Ti3 2.012578 1_565
O26 Ti4 1.944356 1_555
O26 Ti11 2.077092 1_545
O27 Ti6 1.980217 1_555
O27 Ti1 2.037945 1_555
O28 Ti7 1.929596 1_555
O28 Ti2 1.933947 1_555
O29 Ti0 1.977782 1_565
O29 Ti8 2.047905 1_655
O30 Ti0 1.977782 1_555
O30 Ti7 2.047896 1_554
O31 Ti8 1.929596 1_555
O31 Ti1 1.933947 1_555
O32 Ti6 1.980227 1_455
O32 Ti2 2.037945 1_545
O33 Ti3 1.944356 1_556
O33 Ti9 2.077092 1_555
O34 Ti10 1.979199 1_555
O34 Ti4 2.012583 1_655
O35 Ti11 1.900449 1_555
O35 Ti5 1.981447 1_555
