# generated using pymatgen
data_SrCaNdMnO6
_symmetry_space_group_name_H-M   'P 1'
_cell_length_a   5.62817067
_cell_length_b   5.62817067
_cell_length_c   8.42359307
_cell_angle_alpha   90.00000000
_cell_angle_beta   90.00000000
_cell_angle_gamma   90.00000000
_symmetry_Int_Tables_number   1
_chemical_formula_structural   SrCaNdMnO6
_chemical_formula_sum   'Sr2 Ca2 Nd2 Mn2 O12'
_cell_volume   266.82830404
_cell_formula_units_Z   2
loop_
 _symmetry_equiv_pos_site_id
 _symmetry_equiv_pos_as_xyz
  1  'x, y, z'
loop_
 _atom_site_type_symbol
 _atom_site_label
 _atom_site_symmetry_multiplicity
 _atom_site_fract_x
 _atom_site_fract_y
 _atom_site_fract_z
 _atom_site_occupancy
  Sr  Sr0  1  0.50000000  0.00000000  0.25000000  1
  Sr  Sr1  1  -0.00000000  0.50000000  0.75000000  1
  Ca  Ca0  1  0.00000000  0.00000000  -0.00000000  1
  Ca  Ca1  1  0.50000000  0.50000000  0.50000000  1
  Nd  Nd0  1  0.00000000  0.50000000  0.25000000  1
  Nd  Nd1  1  0.50000000  0.00000000  0.75000000  1
  Mn  Mn0  1  -0.00000000  0.00000000  0.50000000  1
  Mn  Mn1  1  0.50000000  0.50000000  -0.00000000  1
  O  O0  1  0.00000000  0.00000000  0.26746868  1
  O  O1  1  0.50000000  0.50000000  0.23253132  1
  O  O2  1  0.00000000  0.00000000  0.73253132  1
  O  O3  1  0.50000000  0.50000000  0.76746868  1
  O  O4  1  0.35453805  0.19467544  0.98955223  1
  O  O5  1  0.64546195  0.80532456  0.98955223  1
  O  O6  1  0.80532456  0.35453805  0.01044777  1
  O  O7  1  0.19467544  0.64546195  0.01044777  1
  O  O8  1  0.85453805  0.30532456  0.48955223  1
  O  O9  1  0.14546195  0.69467544  0.48955223  1
  O  O10  1  0.30532456  0.14546195  0.51044777  1
  O  O11  1  0.69467544  0.85453805  0.51044777  1
loop_
_geom_bond_atom_site_label_1
_geom_bond_atom_site_label_2
_geom_bond_distance
_geom_bond_site_symmetry_2
Ca0 O0 2.253047 1_555
Ca0 O2 2.253047 1_554
Ca0 O7 2.278125 1_545
Ca0 O5 2.278125 1_444
Ca0 O6 2.278125 1_455
Ca0 O4 2.278125 1_554
Ca1 O3 2.253047 1_555
Ca1 O1 2.253047 1_555
Ca1 O8 2.278125 1_555
Ca1 O10 2.278125 1_555
Ca1 O9 2.278125 1_555
Ca1 O11 2.278125 1_555
Nd0 O8 2.437747 1_455
Nd0 O6 2.437747 1_455
Nd0 O7 2.437747 1_555
Nd0 O9 2.437747 1_555
Nd0 O0 2.817930 1_565
Nd0 O0 2.817930 1_555
Nd0 O1 2.817930 1_455
Nd0 O1 2.817930 1_555
Nd1 O11 2.437747 1_545
Nd1 O5 2.437747 1_545
Nd1 O4 2.437747 1_555
Nd1 O10 2.437747 1_555
Nd1 O3 2.817930 1_545
Nd1 O2 2.817930 1_555
Nd1 O3 2.817930 1_555
Nd1 O2 2.817930 1_655
Mn0 O11 1.905506 1_445
Mn0 O9 1.905506 1_545
Mn0 O8 1.905506 1_455
Mn0 O10 1.905506 1_555
Mn0 O2 1.958749 1_555
Mn0 O0 1.958749 1_555
Mn1 O5 1.905506 1_554
Mn1 O6 1.905506 1_555
Mn1 O7 1.905506 1_555
Mn1 O4 1.905506 1_554
Mn1 O3 1.958749 1_554
Mn1 O1 1.958749 1_555
O0 Sr0 2.817930 1_555
O0 Sr0 2.817930 1_455
O1 Sr0 2.817930 1_555
O1 Sr0 2.817930 1_565
O2 Sr1 2.817930 1_545
O2 Sr1 2.817930 1_555
O3 Sr1 2.817930 1_655
O3 Sr1 2.817930 1_555
O4 Sr0 2.585334 1_556
O5 Sr0 2.585334 1_566
O6 Sr1 2.585334 1_654
O7 Sr1 2.585334 1_554
O8 Sr1 2.585334 1_655
O9 Sr1 2.585334 1_555
O10 Sr0 2.585334 1_555
O11 Sr0 2.585334 1_565
