# generated using pymatgen
data_YNO4
_symmetry_space_group_name_H-M   'P 1'
_cell_length_a   7.73113043
_cell_length_b   5.46809373
_cell_length_c   9.29265034
_cell_angle_alpha   89.99972260
_cell_angle_beta   89.99975765
_cell_angle_gamma   44.98167395
_symmetry_Int_Tables_number   1
_chemical_formula_structural   YNO4
_chemical_formula_sum   'Y4 N4 O16'
_cell_volume   277.69278457
_cell_formula_units_Z   4
loop_
 _symmetry_equiv_pos_site_id
 _symmetry_equiv_pos_as_xyz
  1  'x, y, z'
loop_
 _atom_site_type_symbol
 _atom_site_label
 _atom_site_symmetry_multiplicity
 _atom_site_fract_x
 _atom_site_fract_y
 _atom_site_fract_z
 _atom_site_occupancy
  Y  Y0  1  -0.00000042  0.25000092  0.87859029  1
  Y  Y1  1  0.00000023  0.74999963  0.12140719  1
  Y  Y2  1  0.49999948  0.25000130  0.87858729  1
  Y  Y3  1  0.50000011  0.74999931  0.12140969  1
  N  N0  1  -0.00000167  0.24999960  0.35392650  1
  N  N1  1  0.00000119  0.74999893  0.64606438  1
  N  N2  1  0.50000289  0.24999812  0.35393682  1
  N  N3  1  0.49999808  0.75000466  0.64606078  1
  O  O0  1  -0.00000168  0.25000019  0.48334530  1
  O  O1  1  0.14094039  0.25152465  0.28022297  1
  O  O2  1  0.35900928  0.03348617  0.71981207  1
  O  O3  1  0.24998460  0.26048042  0.00000755  1
  O  O4  1  0.00000264  0.74999317  0.51665297  1
  O  O5  1  0.14094614  0.75153063  0.71978196  1
  O  O6  1  0.50000379  0.24999893  0.48332390  1
  O  O7  1  0.35902356  0.53346116  0.28019246  1
  O  O8  1  0.24998438  0.76048041  -0.00000741  1
  O  O9  1  0.75001585  0.23951963  0.00000731  1
  O  O10  1  0.64098592  0.46652308  0.71981093  1
  O  O11  1  0.49999567  0.75000669  0.51667664  1
  O  O12  1  0.85905865  0.24847099  0.28022064  1
  O  O13  1  0.75001481  0.73952073  -0.00000712  1
  O  O14  1  0.64098273  0.96652905  0.28019464  1
  O  O15  1  0.85905340  0.74847464  0.71978025  1
loop_
_geom_bond_atom_site_label_1
_geom_bond_atom_site_label_2
_geom_bond_distance
_geom_bond_site_symmetry_2
N0 O0 1.202644 1_555
N0 O1 1.292024 1_555
N0 O12 1.292036 1_455
N1 O4 1.202575 1_555
N1 O15 1.292120 1_455
N1 O5 1.292139 1_555
N2 O6 1.202349 1_555
N2 O7 1.292336 1_555
N2 O14 1.292348 1_545
N3 O11 1.202322 1_555
N3 O10 1.292425 1_555
N3 O2 1.292434 1_565
O1 Y1 2.567727 1_555
O1 Y3 2.575864 1_545
O2 Y2 2.567565 1_555
O2 Y0 2.575598 1_555
O3 Y1 2.203268 1_555
O3 Y2 2.203582 1_554
O3 Y3 2.273275 1_545
O3 Y0 2.273369 1_554
O5 Y0 2.567662 1_565
O5 Y2 2.575811 1_555
O7 Y3 2.567610 1_555
O7 Y1 2.575682 1_555
O8 Y0 2.203280 1_564
O8 Y3 2.203574 1_555
O8 Y2 2.273288 1_554
O8 Y1 2.273347 1_555
O9 Y1 2.203267 1_645
O9 Y2 2.203590 1_554
O9 Y3 2.273276 1_555
O9 Y0 2.273357 1_654
O10 Y2 2.567565 1_555
O10 Y0 2.575622 1_655
O12 Y1 2.567706 1_645
O12 Y3 2.575852 1_555
O13 Y0 2.203284 1_654
O13 Y3 2.203566 1_555
O13 Y2 2.273289 1_564
O13 Y1 2.273356 1_655
O14 Y3 2.567633 1_555
O14 Y1 2.575668 1_655
O15 Y0 2.567676 1_655
O15 Y2 2.575819 1_565
