# generated using pymatgen
data_ZrTiCu
_symmetry_space_group_name_H-M   'P 1'
_cell_length_a   11.73126508
_cell_length_b   11.73126508
_cell_length_c   11.73126508
_cell_angle_alpha   149.56417449
_cell_angle_beta   149.56417449
_cell_angle_gamma   43.58152572
_symmetry_Int_Tables_number   1
_chemical_formula_structural   ZrTiCu
_chemical_formula_sum   'Zr8 Ti8 Cu8'
_cell_volume   413.16754640
_cell_formula_units_Z   8
loop_
 _symmetry_equiv_pos_site_id
 _symmetry_equiv_pos_as_xyz
  1  'x, y, z'
loop_
 _atom_site_type_symbol
 _atom_site_label
 _atom_site_symmetry_multiplicity
 _atom_site_fract_x
 _atom_site_fract_y
 _atom_site_fract_z
 _atom_site_occupancy
  Zr  Zr0_0  1  0.16791789  0.16791789  0.00000000  1
  Zr  Zr0_1  1  0.16791789  0.16791789  0.50000000  1
  Zr  Zr0_2  1  0.16791788  0.66791788  0.00000000  1
  Zr  Zr0_3  1  0.16791789  0.66791789  0.50000000  1
  Zr  Zr0_4  1  0.66791788  0.16791788  0.00000000  1
  Zr  Zr0_5  1  0.66791789  0.16791789  0.50000000  1
  Zr  Zr0_6  1  0.66791788  0.66791789  0.00000000  1
  Zr  Zr0_7  1  0.66791789  0.66791788  0.50000000  1
  Ti  Ti0_0  1  0.32477007  0.32477007  0.00000000  1
  Ti  Ti0_1  1  0.32477007  0.32477007  0.50000000  1
  Ti  Ti0_2  1  0.32477007  0.82477007  0.00000000  1
  Ti  Ti0_3  1  0.32477007  0.82477007  0.50000000  1
  Ti  Ti0_4  1  0.82477007  0.32477007  0.00000000  1
  Ti  Ti0_5  1  0.82477007  0.32477007  0.50000000  1
  Ti  Ti0_6  1  0.82477007  0.82477007  0.00000000  1
  Ti  Ti0_7  1  0.82477007  0.82477007  0.50000000  1
  Cu  Cu0_0  1  0.00731204  0.00731204  0.00000000  1
  Cu  Cu0_1  1  0.00731204  0.00731204  0.50000000  1
  Cu  Cu0_2  1  0.00731204  0.50731204  0.00000000  1
  Cu  Cu0_3  1  0.00731204  0.50731204  0.50000000  1
  Cu  Cu0_4  1  0.50731204  0.00731204  0.00000000  1
  Cu  Cu0_5  1  0.50731204  0.00731204  0.50000000  1
  Cu  Cu0_6  1  0.50731204  0.50731204  0.00000000  1
  Cu  Cu0_7  1  0.50731204  0.50731204  0.50000000  1
loop_
_geom_bond_atom_site_label_1
_geom_bond_atom_site_label_2
_geom_bond_distance
_geom_bond_site_symmetry_2
Zr0_0 Zr0_3 3.079350 1_555
Zr0_0 Zr0_3 3.079350 1_544
Zr0_0 Zr0_5 3.079350 1_454
Zr0_0 Zr0_5 3.079350 1_555
Zr0_1 Zr0_4 3.079350 1_556
Zr0_1 Zr0_2 3.079350 1_545
Zr0_1 Zr0_2 3.079350 1_556
Zr0_1 Zr0_4 3.079350 1_455
Zr0_2 Zr0_7 3.079350 1_555
Zr0_2 Zr0_7 3.079350 1_454
Zr0_3 Zr0_6 3.079350 1_556
Zr0_3 Zr0_6 3.079350 1_455
Zr0_4 Zr0_7 3.079350 1_555
Zr0_4 Zr0_7 3.079350 1_544
Zr0_5 Zr0_6 3.079350 1_545
Zr0_5 Zr0_6 3.079350 1_556
Ti0_0 Zr0_2 2.976465 1_555
Ti0_0 Zr0_7 2.976465 1_555
Ti0_0 Zr0_4 2.976465 1_555
Ti0_0 Zr0_1 2.976465 1_554
Ti0_0 Ti0_5 3.079350 1_454
Ti0_0 Ti0_5 3.079350 1_555
Ti0_0 Ti0_3 3.079350 1_544
Ti0_0 Ti0_3 3.079350 1_555
Ti0_1 Zr0_5 2.976465 1_555
Ti0_1 Zr0_6 2.976465 1_556
Ti0_1 Zr0_0 2.976465 1_555
Ti0_1 Zr0_3 2.976465 1_555
Ti0_1 Ti0_2 3.079350 1_545
Ti0_1 Ti0_2 3.079350 1_556
Ti0_1 Ti0_4 3.079350 1_556
Ti0_1 Ti0_4 3.079350 1_455
Ti0_2 Zr0_6 2.976465 1_555
Ti0_2 Zr0_3 2.976465 1_554
Ti0_2 Zr0_0 2.976465 1_565
Ti0_2 Zr0_5 2.976465 1_565
Ti0_2 Ti0_7 3.079350 1_454
Ti0_2 Ti0_7 3.079350 1_555
Ti0_3 Zr0_2 2.976465 1_555
Ti0_3 Zr0_4 2.976465 1_566
Ti0_3 Zr0_7 2.976465 1_555
Ti0_3 Zr0_1 2.976465 1_565
Ti0_3 Ti0_6 3.079350 1_455
Ti0_3 Ti0_6 3.079350 1_556
Ti0_4 Zr0_6 2.976465 1_555
Ti0_4 Zr0_0 2.976465 1_655
Ti0_4 Zr0_5 2.976465 1_554
Ti0_4 Zr0_3 2.976465 1_655
Ti0_4 Ti0_7 3.079350 1_555
Ti0_4 Ti0_7 3.079350 1_544
Ti0_5 Zr0_7 2.976465 1_555
Ti0_5 Zr0_4 2.976465 1_555
Ti0_5 Zr0_2 2.976465 1_656
Ti0_5 Zr0_1 2.976465 1_655
Ti0_5 Ti0_6 3.079350 1_545
Ti0_5 Ti0_6 3.079350 1_556
Ti0_6 Zr0_7 2.976465 1_554
Ti0_6 Zr0_4 2.976465 1_565
Ti0_6 Zr0_2 2.976465 1_655
Ti0_6 Zr0_1 2.976465 1_665
Ti0_7 Zr0_6 2.976465 1_555
Ti0_7 Zr0_3 2.976465 1_655
Ti0_7 Zr0_0 2.976465 1_666
Ti0_7 Zr0_5 2.976465 1_565
Cu0_0 Ti0_2 2.626985 1_545
Cu0_0 Ti0_4 2.626985 1_455
Cu0_0 Ti0_1 2.626985 1_555
Cu0_0 Ti0_7 2.626985 1_444
Cu0_0 Zr0_1 2.921322 1_555
Cu0_0 Zr0_7 2.921322 1_444
Cu0_0 Zr0_2 2.921322 1_545
Cu0_0 Zr0_4 2.921322 1_455
Cu0_1 Ti0_6 2.626985 1_445
Cu0_1 Ti0_3 2.626985 1_545
Cu0_1 Ti0_5 2.626985 1_455
Cu0_1 Ti0_0 2.626985 1_556
Cu0_1 Zr0_3 2.921322 1_545
Cu0_1 Zr0_5 2.921322 1_455
Cu0_1 Zr0_0 2.921322 1_556
Cu0_1 Zr0_6 2.921322 1_445
Cu0_2 Ti0_6 2.626985 1_455
Cu0_2 Ti0_0 2.626985 1_555
Cu0_2 Ti0_5 2.626985 1_454
Cu0_2 Ti0_3 2.626985 1_555
Cu0_2 Zr0_5 2.921322 1_454
Cu0_2 Zr0_3 2.921322 1_555
Cu0_2 Zr0_0 2.921322 1_555
Cu0_2 Zr0_6 2.921322 1_455
Cu0_3 Ti0_4 2.626985 1_455
Cu0_3 Ti0_1 2.626985 1_555
Cu0_3 Ti0_2 2.626985 1_556
Cu0_3 Ti0_7 2.626985 1_455
Cu0_3 Zr0_1 2.921322 1_555
Cu0_3 Zr0_7 2.921322 1_455
Cu0_3 Zr0_2 2.921322 1_556
Cu0_3 Zr0_4 2.921322 1_455
Cu0_4 Ti0_6 2.626985 1_545
Cu0_4 Ti0_5 2.626985 1_555
Cu0_4 Ti0_0 2.626985 1_555
Cu0_4 Ti0_3 2.626985 1_544
Cu0_4 Zr0_0 2.921322 1_555
Cu0_4 Zr0_5 2.921322 1_555
Cu0_4 Zr0_6 2.921322 1_545
Cu0_4 Zr0_3 2.921322 1_544
Cu0_5 Ti0_1 2.626985 1_555
Cu0_5 Ti0_2 2.626985 1_545
Cu0_5 Ti0_4 2.626985 1_556
Cu0_5 Ti0_7 2.626985 1_545
Cu0_5 Zr0_1 2.921322 1_555
Cu0_5 Zr0_2 2.921322 1_545
Cu0_5 Zr0_4 2.921322 1_556
Cu0_5 Zr0_7 2.921322 1_545
Cu0_6 Ti0_4 2.626985 1_555
Cu0_6 Ti0_2 2.626985 1_555
Cu0_6 Ti0_1 2.626985 1_554
Cu0_6 Ti0_7 2.626985 1_555
Cu0_6 Zr0_1 2.921322 1_554
Cu0_6 Zr0_4 2.921322 1_555
Cu0_6 Zr0_2 2.921322 1_555
Cu0_6 Zr0_7 2.921322 1_555
Cu0_7 Ti0_6 2.626985 1_556
Cu0_7 Ti0_0 2.626985 1_555
Cu0_7 Ti0_5 2.626985 1_555
Cu0_7 Ti0_3 2.626985 1_555
Cu0_7 Zr0_5 2.921322 1_555
Cu0_7 Zr0_3 2.921322 1_555
Cu0_7 Zr0_0 2.921322 1_555
Cu0_7 Zr0_6 2.921322 1_556
