# generated using pymatgen
data_GdGa3(BO3)4
_symmetry_space_group_name_H-M   'P 1'
_cell_length_a   6.07304715
_cell_length_b   6.07304715
_cell_length_c   6.07304767
_cell_angle_alpha   103.95390071
_cell_angle_beta   103.95390071
_cell_angle_gamma   103.95390283
_symmetry_Int_Tables_number   1
_chemical_formula_structural   GdGa3(BO3)4
_chemical_formula_sum   'Gd1 Ga3 B4 O12'
_cell_volume   200.02656683
_cell_formula_units_Z   1
loop_
 _symmetry_equiv_pos_site_id
 _symmetry_equiv_pos_as_xyz
  1  'x, y, z'
loop_
 _atom_site_type_symbol
 _atom_site_label
 _atom_site_symmetry_multiplicity
 _atom_site_fract_x
 _atom_site_fract_y
 _atom_site_fract_z
 _atom_site_occupancy
  Gd  Gd0  1  0.50000000  0.50000000  0.50000000  1
  Ga  Ga0  1  0.04889600  0.95110400  0.50000000  1
  Ga  Ga1  1  0.95110400  0.50000000  0.04889600  1
  Ga  Ga2  1  0.50000000  0.04889600  0.95110400  1
  B  B0  1  0.44869500  0.55130500  0.00000000  1
  B  B1  1  0.55130500  0.00000000  0.44869500  1
  B  B2  1  0.00000000  0.44869500  0.55130500  1
  B  B3  1  0.00000000  0.00000000  0.00000000  1
  O  O0  1  0.29038900  0.52472200  0.12777500  1
  O  O1  1  0.52472200  0.12777500  0.29038900  1
  O  O2  1  0.70961100  0.87222500  0.47527800  1
  O  O3  1  0.12777500  0.29038900  0.52472200  1
  O  O4  1  0.47527800  0.70961100  0.87222500  1
  O  O5  1  0.87222500  0.47527800  0.70961100  1
  O  O6  1  0.85502500  0.14497500  0.00000000  1
  O  O7  1  0.14497500  0.00000000  0.85502500  1
  O  O8  1  0.00000000  0.85502500  0.14497500  1
  O  O9  1  0.59357300  0.40642700  0.00000000  1
  O  O10  1  0.40642700  0.00000000  0.59357300  1
  O  O11  1  0.00000000  0.59357300  0.40642700  1
loop_
_geom_bond_atom_site_label_1
_geom_bond_atom_site_label_2
_geom_bond_distance
_geom_bond_site_symmetry_2
Gd0 O2 2.370883 1_555
Gd0 O3 2.370883 1_555
Gd0 O1 2.370884 1_555
Gd0 O5 2.370884 1_555
Gd0 O0 2.370884 1_555
Gd0 O4 2.370884 1_555
Ga0 O2 1.959013 1_455
Ga0 O3 1.959013 1_565
Ga0 O8 2.019470 1_555
Ga0 O7 2.019470 1_565
Ga0 O11 2.034267 1_555
Ga0 O10 2.034267 1_565
Ga1 O0 1.959013 1_655
Ga1 O5 1.959013 1_554
Ga1 O6 2.019469 1_555
Ga1 O8 2.019469 1_655
Ga1 O9 2.034267 1_555
Ga1 O11 2.034267 1_655
Ga2 O4 1.959013 1_545
Ga2 O1 1.959013 1_556
Ga2 O6 2.019469 1_556
Ga2 O7 2.019469 1_555
Ga2 O9 2.034267 1_556
Ga2 O10 2.034267 1_555
B0 O4 1.377630 1_554
B0 O0 1.377630 1_555
B0 O9 1.386228 1_555
B1 O2 1.377630 1_545
B1 O1 1.377630 1_555
B1 O10 1.386228 1_555
B2 O3 1.377630 1_555
B2 O5 1.377630 1_455
B2 O11 1.386228 1_555
B3 O6 1.387156 1_455
B3 O8 1.387156 1_545
B3 O7 1.387156 1_554
