# generated using pymatgen
data_Li9Co7O16
_symmetry_space_group_name_H-M   'P 1'
_cell_length_a   5.01670000
_cell_length_b   5.08293642
_cell_length_c   11.09432458
_cell_angle_alpha   80.52600488
_cell_angle_beta   85.97532051
_cell_angle_gamma   80.81348467
_symmetry_Int_Tables_number   1
_chemical_formula_structural   Li9Co7O16
_chemical_formula_sum   'Li9 Co7 O16'
_cell_volume   275.18259152
_cell_formula_units_Z   1
loop_
 _symmetry_equiv_pos_site_id
 _symmetry_equiv_pos_as_xyz
  1  'x, y, z'
loop_
 _atom_site_type_symbol
 _atom_site_label
 _atom_site_symmetry_multiplicity
 _atom_site_fract_x
 _atom_site_fract_y
 _atom_site_fract_z
 _atom_site_occupancy
  Li  Li0  1  0.74584500  0.19571700  0.81898600  1
  Li  Li1  1  0.24591100  0.05955500  0.94156800  1
  Li  Li2  1  0.25295000  0.31103300  0.68900400  1
  Li  Li3  1  0.74947600  0.43962800  0.56391800  1
  Li  Li4  1  0.25052400  0.56037200  0.43608200  1
  Li  Li5  1  0.74705000  0.68896700  0.31099600  1
  Li  Li6  1  0.25415500  0.80428300  0.18101400  1
  Li  Li7  1  0.75408900  0.94044500  0.05843200  1
  Li  Li8  1  0.50000000  0.50000000  0.00000000  1
  Co  Co0  1  0.99981300  0.62518300  0.87581800  1
  Co  Co1  1  0.00018700  0.37481700  0.12418200  1
  Co  Co2  1  0.50034000  0.25542400  0.24412400  1
  Co  Co3  1  0.00129800  0.12797000  0.37256100  1
  Co  Co4  1  0.50000000  0.00000000  0.50000000  1
  Co  Co5  1  0.99870200  0.87203000  0.62743900  1
  Co  Co6  1  0.49966000  0.74457600  0.75587600  1
  O  O0  1  0.14328600  0.94127300  0.78001700  1
  O  O1  1  0.63862500  0.82807600  0.89170600  1
  O  O2  1  0.62160400  0.06839800  0.65790900  1
  O  O3  1  0.12023800  0.21026500  0.52950300  1
  O  O4  1  0.61947900  0.32836100  0.39976700  1
  O  O5  1  0.14462900  0.44880300  0.27385800  1
  O  O6  1  0.64053400  0.55179400  0.16264200  1
  O  O7  1  0.10498100  0.69480300  0.02858800  1
  O  O8  1  0.35946600  0.44820600  0.83735800  1
  O  O9  1  0.89501900  0.30519700  0.97141200  1
  O  O10  1  0.85537100  0.55119700  0.72614200  1
  O  O11  1  0.38052100  0.67163900  0.60023300  1
  O  O12  1  0.87976200  0.78973500  0.47049700  1
  O  O13  1  0.37839600  0.93160200  0.34209100  1
  O  O14  1  0.85671400  0.05872700  0.21998300  1
  O  O15  1  0.36137500  0.17192400  0.10829400  1
loop_
_geom_bond_atom_site_label_1
_geom_bond_atom_site_label_2
_geom_bond_distance
_geom_bond_site_symmetry_2
Li0 O1 2.048404 1_545
Li0 O10 2.062177 1_555
Li0 O9 2.085622 1_555
Li0 O2 2.160245 1_555
Li0 O8 2.163832 1_555
Li0 O0 2.252711 1_645
Li1 O9 2.029730 1_455
Li1 O0 2.102845 1_545
Li1 O7 2.145401 1_546
Li1 O15 2.164955 1_556
Li1 O1 2.211997 1_545
Li1 O8 2.253607 1_555
Li2 O8 2.025052 1_555
Li2 O2 2.093473 1_555
Li2 O3 2.099897 1_555
Li2 O11 2.104992 1_555
Li2 O0 2.117084 1_545
Li2 O10 2.216061 1_455
Li3 O3 2.078227 1_655
Li3 O11 2.081777 1_555
Li3 O12 2.082643 1_555
Li3 O10 2.099852 1_555
Li3 O4 2.164552 1_555
Li3 O2 2.168933 1_555
Li4 O12 2.078227 1_455
Li4 O4 2.081777 1_555
Li4 O3 2.082643 1_555
Li4 O5 2.099852 1_555
Li4 O11 2.164552 1_555
Li4 O13 2.168933 1_555
Li5 O6 2.025052 1_555
Li5 O13 2.093473 1_555
Li5 O12 2.099897 1_555
Li5 O4 2.104992 1_555
Li5 O14 2.117084 1_565
Li5 O5 2.216061 1_655
Li6 O15 2.048404 1_565
Li6 O5 2.062177 1_555
Li6 O7 2.085622 1_555
Li6 O13 2.160245 1_555
Li6 O6 2.163832 1_555
Li6 O14 2.252711 1_465
Li7 O7 2.029730 1_655
Li7 O14 2.102845 1_565
Li7 O9 2.145401 1_564
Li7 O1 2.164955 1_554
Li7 O15 2.211997 1_565
Li7 O6 2.253607 1_555
Li8 O6 2.053399 1_555
Li8 O8 2.053399 1_554
Li8 O1 2.073986 1_554
Li8 O15 2.073986 1_555
Li8 O9 2.096846 1_554
Li8 O7 2.096846 1_555
Co0 O7 1.912795 1_656
Co0 O9 1.916625 1_555
Co0 O8 1.935645 1_655
Co0 O1 1.948390 1_555
Co0 O10 1.971151 1_555
Co0 O0 1.982114 1_655
Co1 O9 1.912795 1_454
Co1 O7 1.916625 1_555
Co1 O6 1.935645 1_455
Co1 O15 1.948390 1_555
Co1 O5 1.971151 1_555
Co1 O14 1.982114 1_455
Co2 O6 1.838998 1_555
Co2 O15 1.841065 1_555
Co2 O14 1.928170 1_555
Co2 O5 1.929624 1_555
Co2 O4 1.975529 1_555
Co2 O13 1.975855 1_545
Co3 O14 1.991326 1_455
Co3 O3 2.006979 1_555
Co3 O5 2.012854 1_555
Co3 O13 2.026767 1_545
Co3 O12 2.033421 1_445
Co3 O4 2.048100 1_455
Co4 O2 1.995097 1_555
Co4 O13 1.995097 1_545
Co4 O4 1.999102 1_555
Co4 O11 1.999102 1_545
Co4 O12 2.063125 1_545
Co4 O3 2.063125 1_555
Co5 O0 1.991326 1_655
Co5 O12 2.006979 1_555
Co5 O10 2.012854 1_555
Co5 O2 2.026767 1_565
Co5 O3 2.033421 1_665
Co5 O11 2.048100 1_655
Co6 O8 1.838998 1_555
Co6 O1 1.841065 1_555
Co6 O0 1.928170 1_555
Co6 O10 1.929624 1_555
Co6 O11 1.975529 1_555
Co6 O2 1.975855 1_565
