# generated using pymatgen
data_DyAu
_symmetry_space_group_name_H-M   'P 1'
_cell_length_a   3.72855275
_cell_length_b   4.62402105
_cell_length_c   5.76412001
_cell_angle_alpha   90.00000000
_cell_angle_beta   71.05200119
_cell_angle_gamma   90.00000000
_symmetry_Int_Tables_number   1
_chemical_formula_structural   DyAu
_chemical_formula_sum   'Dy2 Au2'
_cell_volume   93.99368884
_cell_formula_units_Z   2
loop_
 _symmetry_equiv_pos_site_id
 _symmetry_equiv_pos_as_xyz
  1  'x, y, z'
loop_
 _atom_site_type_symbol
 _atom_site_label
 _atom_site_symmetry_multiplicity
 _atom_site_fract_x
 _atom_site_fract_y
 _atom_site_fract_z
 _atom_site_occupancy
  Dy  Dy0  1  0.13858959  0.75000000  0.72277282  1
  Dy  Dy1  1  0.86140910  0.25000000  0.27722712  1
  Au  Au0  1  0.41175012  0.75000000  0.17636020  1
  Au  Au1  1  0.58825119  0.25000000  0.82363986  1
loop_
_geom_bond_atom_site_label_1
_geom_bond_atom_site_label_2
_geom_bond_distance
_geom_bond_site_symmetry_2
Au0 Dy0 2.978926 1_555
Au0 Au1 3.007184 1_554
Au0 Au1 3.007184 1_564
Au0 Dy1 3.019810 1_455
Au0 Dy1 3.019810 1_465
Au0 Dy1 3.021155 1_565
Au0 Dy1 3.021155 1_555
Au0 Dy0 3.094949 1_654
Au0 Dy0 3.098780 1_554
Au1 Dy1 2.978927 1_555
Au1 Dy0 3.019804 1_655
Au1 Dy0 3.019804 1_645
Au1 Dy0 3.021162 1_555
Au1 Dy0 3.021162 1_545
Au1 Dy1 3.094955 1_456
Au1 Dy1 3.098773 1_556
