# generated using pymatgen
data_CaHfMg6
_symmetry_space_group_name_H-M   'P 1'
_cell_length_a   6.42957100
_cell_length_b   6.42957100
_cell_length_c   4.66748000
_cell_angle_alpha   90.00000000
_cell_angle_beta   90.00000000
_cell_angle_gamma   90.00000000
_symmetry_Int_Tables_number   1
_chemical_formula_structural   CaHfMg6
_chemical_formula_sum   'Ca1 Hf1 Mg6'
_cell_volume   192.95074450
_cell_formula_units_Z   1
loop_
 _symmetry_equiv_pos_site_id
 _symmetry_equiv_pos_as_xyz
  1  'x, y, z'
loop_
 _atom_site_type_symbol
 _atom_site_label
 _atom_site_symmetry_multiplicity
 _atom_site_fract_x
 _atom_site_fract_y
 _atom_site_fract_z
 _atom_site_occupancy
  Ca  Ca0  1  0.50000000  0.50000000  0.50000000  1
  Hf  Hf0  1  0.00000000  0.00000000  0.50000000  1
  Mg  Mg0  1  0.50000000  0.00000000  0.50000000  1
  Mg  Mg1  1  0.00000000  0.50000000  0.50000000  1
  Mg  Mg2  1  0.23592600  0.76407400  0.00000000  1
  Mg  Mg3  1  0.76407400  0.23592600  0.00000000  1
  Mg  Mg4  1  0.23592600  0.23592600  0.00000000  1
  Mg  Mg5  1  0.76407400  0.76407400  0.00000000  1
loop_
_geom_bond_atom_site_label_1
_geom_bond_atom_site_label_2
_geom_bond_distance
_geom_bond_site_symmetry_2
Ca0 Mg1 3.214786 1_655
Ca0 Mg0 3.214786 1_555
Ca0 Mg0 3.214786 1_565
Ca0 Mg1 3.214786 1_555
Ca0 Mg3 3.348425 1_556
Ca0 Mg4 3.348425 1_555
Ca0 Mg5 3.348425 1_556
Ca0 Mg3 3.348425 1_555
Ca0 Mg2 3.348425 1_555
Ca0 Mg5 3.348425 1_555
Ca0 Mg2 3.348425 1_556
Ca0 Mg4 3.348425 1_556
Hf0 Mg5 3.169910 1_446
Hf0 Mg3 3.169910 1_456
Hf0 Mg5 3.169910 1_445
Hf0 Mg3 3.169910 1_455
Hf0 Mg4 3.169910 1_556
Hf0 Mg2 3.169910 1_545
Hf0 Mg2 3.169910 1_546
Hf0 Mg4 3.169910 1_555
Hf0 Mg0 3.214786 1_455
Hf0 Mg1 3.214786 1_555
Hf0 Mg0 3.214786 1_555
Hf0 Mg1 3.214786 1_545
Mg0 Mg2 3.260390 1_545
Mg0 Mg5 3.260390 1_546
Mg0 Mg2 3.260390 1_546
Mg0 Mg5 3.260390 1_545
Mg0 Mg4 3.260390 1_556
Mg0 Mg3 3.260390 1_556
Mg0 Mg3 3.260390 1_555
Mg0 Mg4 3.260390 1_555
Mg1 Mg5 3.260390 1_455
Mg1 Mg3 3.260390 1_456
Mg1 Mg3 3.260390 1_455
Mg1 Mg5 3.260390 1_456
Mg1 Mg2 3.260390 1_556
Mg1 Mg4 3.260390 1_556
Mg1 Mg4 3.260390 1_555
Mg1 Mg2 3.260390 1_555
Mg2 Mg5 3.033806 1_455
Mg2 Mg4 3.033806 1_565
Mg2 Mg4 3.395765 1_555
Mg2 Mg5 3.395765 1_555
Mg3 Mg5 3.033806 1_545
Mg3 Mg4 3.033806 1_655
Mg3 Mg4 3.395765 1_555
Mg3 Mg5 3.395765 1_555
