# generated using pymatgen
data_CaGaAu
_symmetry_space_group_name_H-M   'P 1'
_cell_length_a   4.55652561
_cell_length_b   7.30571134
_cell_length_c   7.65970383
_cell_angle_alpha   90.00000000
_cell_angle_beta   90.00000000
_cell_angle_gamma   90.00000000
_symmetry_Int_Tables_number   1
_chemical_formula_structural   CaGaAu
_chemical_formula_sum   'Ca4 Ga4 Au4'
_cell_volume   254.98128278
_cell_formula_units_Z   4
loop_
 _symmetry_equiv_pos_site_id
 _symmetry_equiv_pos_as_xyz
  1  'x, y, z'
loop_
 _atom_site_type_symbol
 _atom_site_label
 _atom_site_symmetry_multiplicity
 _atom_site_fract_x
 _atom_site_fract_y
 _atom_site_fract_z
 _atom_site_occupancy
  Ca  Ca0  1  0.75000000  0.49391846  0.19941669  1
  Ca  Ca1  1  0.25000000  0.00608154  0.69941669  1
  Ca  Ca2  1  0.75000000  0.99391846  0.30058331  1
  Ca  Ca3  1  0.25000000  0.50608154  0.80058331  1
  Ga  Ga0  1  0.25000000  0.18070893  0.08108173  1
  Ga  Ga1  1  0.75000000  0.31929107  0.58108173  1
  Ga  Ga2  1  0.25000000  0.68070893  0.41891827  1
  Ga  Ga3  1  0.75000000  0.81929107  0.91891827  1
  Au  Au0  1  0.25000000  0.79633098  0.09220427  1
  Au  Au1  1  0.75000000  0.20366902  0.90779573  1
  Au  Au2  1  0.25000000  0.29633198  0.40779573  1
  Au  Au3  1  0.75000000  0.70366902  0.59220427  1
loop_
_geom_bond_atom_site_label_1
_geom_bond_atom_site_label_2
_geom_bond_distance
_geom_bond_site_symmetry_2
Ca0 Ga2 3.143174 1_655
Ca0 Ga2 3.143174 1_555
Ca0 Ga1 3.189689 1_555
Ca0 Ga3 3.204170 1_554
Ca0 Ga0 3.353805 1_555
Ca0 Ga0 3.353805 1_655
Ca1 Ga3 3.143174 1_545
Ca1 Ga3 3.143174 1_445
Ca1 Ga0 3.189689 1_556
Ca1 Ga2 3.204170 1_545
Ca1 Ga1 3.353805 1_555
Ca1 Ga1 3.353805 1_455
Ca2 Ga0 3.143174 1_565
Ca2 Ga0 3.143174 1_665
Ca2 Ga3 3.189689 1_554
Ca2 Ga1 3.204170 1_565
Ca2 Ga2 3.353805 1_655
Ca2 Ga2 3.353805 1_555
Ca3 Ga1 3.143174 1_555
Ca3 Ga1 3.143174 1_455
Ca3 Ga2 3.189689 1_555
Ca3 Ga0 3.204170 1_556
Ca3 Ga3 3.353805 1_455
Ca3 Ga3 3.353805 1_555
Au0 Ga2 2.641248 1_555
Au0 Ga3 2.642044 1_554
Au0 Ga3 2.642044 1_454
Au0 Ga0 2.809446 1_565
Au0 Ca3 3.079932 1_554
Au0 Ca2 3.133980 1_455
Au0 Ca2 3.133980 1_555
Au0 Ca0 3.278117 1_455
Au0 Ca0 3.278117 1_555
Au0 Ca1 3.376399 1_564
Au1 Ga1 2.641248 1_555
Au1 Ga0 2.642044 1_656
Au1 Ga0 2.642044 1_556
Au1 Ga3 2.809446 1_545
Au1 Ca0 3.079932 1_556
Au1 Ca1 3.133980 1_555
Au1 Ca1 3.133980 1_655
Au1 Ca3 3.278117 1_555
Au1 Ca3 3.278117 1_655
Au1 Ca2 3.376399 1_546
Au2 Ga0 2.641250 1_555
Au2 Ga1 2.642043 1_555
Au2 Ga1 2.642043 1_455
Au2 Ga2 2.809439 1_555
Au2 Ca1 3.079937 1_555
Au2 Ca0 3.133976 1_455
Au2 Ca0 3.133976 1_555
Au2 Ca2 3.278122 1_445
Au2 Ca2 3.278122 1_545
Au2 Ca3 3.376396 1_555
Au3 Ga3 2.641248 1_555
Au3 Ga2 2.642044 1_655
Au3 Ga2 2.642044 1_555
Au3 Ga1 2.809446 1_555
Au3 Ca2 3.079932 1_555
Au3 Ca3 3.133980 1_655
Au3 Ca3 3.133980 1_555
Au3 Ca1 3.278117 1_565
Au3 Ca1 3.278117 1_665
Au3 Ca0 3.376399 1_555
