# generated using pymatgen
data_NaU4V3O20
_symmetry_space_group_name_H-M   'P 1'
_cell_length_a   7.33532564
_cell_length_b   7.33532564
_cell_length_c   18.08441998
_cell_angle_alpha   78.43447669
_cell_angle_beta   78.43447669
_cell_angle_gamma   89.99990058
_symmetry_Int_Tables_number   1
_chemical_formula_structural   NaU4V3O20
_chemical_formula_sum   'Na2 U8 V6 O40'
_cell_volume   933.13604427
_cell_formula_units_Z   2
loop_
 _symmetry_equiv_pos_site_id
 _symmetry_equiv_pos_as_xyz
  1  'x, y, z'
loop_
 _atom_site_type_symbol
 _atom_site_label
 _atom_site_symmetry_multiplicity
 _atom_site_fract_x
 _atom_site_fract_y
 _atom_site_fract_z
 _atom_site_occupancy
  Na  Na0  1  0.00000000  0.00000000  0.50000000  1
  Na  Na1  1  0.00000000  0.00000000  0.00000000  1
  U  U0  1  0.09869600  0.34916200  0.30242900  1
  U  U1  1  0.34916200  0.09869600  0.80242900  1
  U  U2  1  0.90130400  0.65083800  0.69757100  1
  U  U3  1  0.65083800  0.90130400  0.19757100  1
  U  U4  1  0.47237400  0.22234700  0.55495800  1
  U  U5  1  0.22234700  0.47237400  0.05495800  1
  U  U6  1  0.52762600  0.77765300  0.44504200  1
  U  U7  1  0.77765300  0.52762600  0.94504200  1
  V  V0  1  0.12490800  0.87509200  0.25000000  1
  V  V1  1  0.87509200  0.12490800  0.75000000  1
  V  V2  1  0.56797400  0.31796900  0.36432600  1
  V  V3  1  0.31796900  0.56797400  0.86432600  1
  V  V4  1  0.43202600  0.68203100  0.63567400  1
  V  V5  1  0.68203100  0.43202600  0.13567400  1
  O  O0  1  0.09680100  0.04559400  0.30578900  1
  O  O1  1  0.04559400  0.09680100  0.80578900  1
  O  O2  1  0.64919700  0.09726600  0.80484800  1
  O  O3  1  0.09726600  0.64919700  0.30484800  1
  O  O4  1  0.90319900  0.95440600  0.69421100  1
  O  O5  1  0.95440600  0.90319900  0.19421100  1
  O  O6  1  0.35080300  0.90273400  0.19515200  1
  O  O7  1  0.90273400  0.35080300  0.69515200  1
  O  O8  1  0.04619900  0.28724100  0.40793600  1
  O  O9  1  0.28724100  0.04619900  0.90793600  1
  O  O10  1  0.95380100  0.71275900  0.59206400  1
  O  O11  1  0.71275900  0.95380100  0.09206400  1
  O  O12  1  0.15470000  0.40534000  0.19047300  1
  O  O13  1  0.40534000  0.15470000  0.69047300  1
  O  O14  1  0.84530000  0.59466000  0.80952700  1
  O  O15  1  0.59466000  0.84530000  0.30952700  1
  O  O16  1  0.53464200  0.10494100  0.43083900  1
  O  O17  1  0.10494100  0.53464200  0.93083900  1
  O  O18  1  0.46458500  0.53464600  0.93081200  1
  O  O19  1  0.53464600  0.46458500  0.43081200  1
  O  O20  1  0.46535800  0.89505900  0.56916100  1
  O  O21  1  0.89505900  0.46535800  0.06916100  1
  O  O22  1  0.53541500  0.46535400  0.06918800  1
  O  O23  1  0.46535400  0.53541500  0.56918800  1
  O  O24  1  0.72014900  0.21687300  0.55175400  1
  O  O25  1  0.22833500  0.21689500  0.55170100  1
  O  O26  1  0.21687300  0.72014900  0.05175400  1
  O  O27  1  0.21689500  0.22833500  0.05170100  1
  O  O28  1  0.27985100  0.78312700  0.44824600  1
  O  O29  1  0.77166500  0.78310500  0.44829900  1
  O  O30  1  0.78312700  0.27985100  0.94824600  1
  O  O31  1  0.78310500  0.77166500  0.94829900  1
  O  O32  1  0.79137600  0.34518400  0.30922900  1
  O  O33  1  0.39931700  0.34522200  0.30913000  1
  O  O34  1  0.34518400  0.79137600  0.80922900  1
  O  O35  1  0.34522200  0.39931700  0.80913000  1
  O  O36  1  0.20862400  0.65481600  0.69077100  1
  O  O37  1  0.60068300  0.65477800  0.69087000  1
  O  O38  1  0.65481600  0.20862400  0.19077100  1
  O  O39  1  0.65477800  0.60068300  0.19087000  1
loop_
_geom_bond_atom_site_label_1
_geom_bond_atom_site_label_2
_geom_bond_distance
_geom_bond_site_symmetry_2
Na0 O8 2.386090 1_555
Na0 O10 2.386090 1_445
Na0 O29 2.726758 1_445
Na0 O25 2.726758 1_555
Na0 O24 2.728981 1_455
Na0 O28 2.728981 1_545
Na1 O11 2.386090 1_445
Na1 O9 2.386090 1_554
Na1 O31 2.726758 1_444
Na1 O27 2.726758 1_555
Na1 O26 2.728981 1_545
Na1 O30 2.728981 1_454
O0 V0 1.745620 1_545
O0 U0 2.215355 1_555
O1 V1 1.745620 1_455
O1 U1 2.215355 1_555
O2 V1 1.740971 1_555
O2 U1 2.210024 1_555
O3 V0 1.740971 1_555
O3 U0 2.210024 1_555
O4 V1 1.745620 1_565
O4 U2 2.215355 1_555
O5 V0 1.745620 1_655
O5 U3 2.215355 1_555
O6 V0 1.740971 1_555
O6 U3 2.210024 1_555
O7 V1 1.740971 1_555
O7 U2 2.210024 1_555
O8 U0 1.831137 1_555
O9 U1 1.831137 1_555
O10 U2 1.831137 1_555
O11 U3 1.831137 1_555
O12 U0 1.941588 1_555
O12 U5 2.350144 1_555
O13 U1 1.941588 1_555
O13 U4 2.350144 1_555
O14 U2 1.941588 1_555
O14 U7 2.350144 1_555
O15 U3 1.941588 1_555
O15 U6 2.350144 1_555
O16 V2 1.754091 1_555
O16 U6 2.362145 1_545
O16 U4 2.520447 1_555
O17 V3 1.754091 1_555
O17 U7 2.362145 1_455
O17 U5 2.520447 1_556
O18 V3 1.750065 1_555
O18 U7 2.360982 1_555
O18 U5 2.528968 1_556
O19 V2 1.750065 1_555
O19 U6 2.360982 1_555
O19 U4 2.528968 1_555
O20 V4 1.754091 1_555
O20 U4 2.362145 1_565
O20 U6 2.520447 1_555
O21 V5 1.754091 1_555
O21 U5 2.362145 1_655
O21 U7 2.520447 1_554
O22 V5 1.750065 1_555
O22 U5 2.360982 1_555
O22 U7 2.528968 1_554
O23 V4 1.750065 1_555
O23 U4 2.360982 1_555
O23 U6 2.528968 1_555
O24 U4 1.807490 1_555
O25 U4 1.803544 1_555
O26 U5 1.807490 1_555
O27 U5 1.803544 1_555
O28 U6 1.807490 1_555
O29 U6 1.803544 1_555
O30 U7 1.807490 1_555
O31 U7 1.803544 1_555
O32 V2 1.727311 1_555
O32 U0 2.232759 1_655
O33 V2 1.726861 1_555
O33 U0 2.232480 1_555
O34 V3 1.727311 1_555
O34 U1 2.232759 1_565
O35 V3 1.726861 1_555
O35 U1 2.232480 1_555
O36 V4 1.727311 1_555
O36 U2 2.232759 1_455
O37 V4 1.726861 1_555
O37 U2 2.232480 1_555
O38 V5 1.727311 1_555
O38 U3 2.232759 1_545
O39 V5 1.726861 1_555
O39 U3 2.232480 1_555
