# generated using pymatgen
data_LaCuTeS
_symmetry_space_group_name_H-M   'P 1'
_cell_length_a   7.78361610
_cell_length_b   6.50593487
_cell_length_c   7.50384494
_cell_angle_alpha   85.35125979
_cell_angle_beta   90.00000000
_cell_angle_gamma   90.00000000
_symmetry_Int_Tables_number   1
_chemical_formula_structural   LaCuTeS
_chemical_formula_sum   'La4 Cu4 Te4 S4'
_cell_volume   378.74238886
_cell_formula_units_Z   4
loop_
 _symmetry_equiv_pos_site_id
 _symmetry_equiv_pos_as_xyz
  1  'x, y, z'
loop_
 _atom_site_type_symbol
 _atom_site_label
 _atom_site_symmetry_multiplicity
 _atom_site_fract_x
 _atom_site_fract_y
 _atom_site_fract_z
 _atom_site_occupancy
  La  La0  1  0.52939184  0.35686359  0.27653413  1
  La  La1  1  0.02939184  0.64313641  0.22346587  1
  La  La2  1  0.47060816  0.64313641  0.72346587  1
  La  La3  1  0.97060816  0.35686359  0.77653413  1
  Cu  Cu0  1  0.34359309  0.06786600  0.95719010  1
  Cu  Cu1  1  0.15640691  0.06786600  0.45719010  1
  Cu  Cu2  1  0.65640691  0.93213400  0.04280990  1
  Cu  Cu3  1  0.84359309  0.93213400  0.54280990  1
  Te  Te0  1  0.89253909  0.12100041  0.22272576  1
  Te  Te1  1  0.39253909  0.87899959  0.27727424  1
  Te  Te2  1  0.60746091  0.12100041  0.72272576  1
  Te  Te3  1  0.10746091  0.87899959  0.77727424  1
  S  S0  1  0.72753959  0.59599368  0.00019885  1
  S  S1  1  0.22753959  0.40400632  0.49980115  1
  S  S2  1  0.77246041  0.59599368  0.50019885  1
  S  S3  1  0.27246041  0.40400632  -0.00019885  1
loop_
_geom_bond_atom_site_label_1
_geom_bond_atom_site_label_2
_geom_bond_distance
_geom_bond_site_symmetry_2
La0 S3 2.881382 1_555
La0 S1 2.916223 1_555
La0 S0 2.928467 1_555
La0 S2 3.039733 1_555
La0 Te0 3.256969 1_555
La0 Te1 3.285953 1_545
La0 Te1 3.560513 1_555
La0 Te2 3.619572 1_555
La1 S2 2.881382 1_455
La1 S0 2.916223 1_455
La1 S1 2.928467 1_555
La1 S3 3.039733 1_555
La1 Te1 3.256969 1_555
La1 Te0 3.285953 1_465
La1 Te0 3.560513 1_455
La1 Te3 3.619572 1_554
La2 S0 2.881382 1_556
La2 S2 2.916223 1_555
La2 S3 2.928467 1_556
La2 S1 3.039733 1_555
La2 Te3 3.256969 1_555
La2 Te2 3.285953 1_565
La2 Te2 3.560513 1_555
La2 Te1 3.619572 1_555
La3 S1 2.881382 1_655
La3 S3 2.916223 1_656
La3 S2 2.928467 1_555
La3 S0 3.039733 1_556
La3 Te2 3.256969 1_555
La3 Te3 3.285953 1_645
La3 Te3 3.560513 1_655
La3 Te0 3.619572 1_556
Cu0 S3 2.303192 1_556
Cu0 Te1 2.635437 1_546
Cu0 Te3 2.641874 1_545
Cu0 Te2 2.708252 1_555
Cu1 S1 2.303192 1_555
Cu1 Te3 2.635437 1_545
Cu1 Te1 2.641874 1_545
Cu1 Te0 2.708252 1_455
Cu2 S0 2.303192 1_555
Cu2 Te2 2.635437 1_564
Cu2 Te0 2.641874 1_565
Cu2 Te1 2.708252 1_555
Cu3 S2 2.303192 1_555
Cu3 Te0 2.635437 1_565
Cu3 Te2 2.641874 1_565
Cu3 Te3 2.708252 1_655
