# generated using pymatgen
data_Tm2CdSe4
_symmetry_space_group_name_H-M   'P 1'
_cell_length_a   8.20654703
_cell_length_b   8.20654764
_cell_length_c   8.20654704
_cell_angle_alpha   60.00000240
_cell_angle_beta   59.99999995
_cell_angle_gamma   60.00000477
_symmetry_Int_Tables_number   1
_chemical_formula_structural   Tm2CdSe4
_chemical_formula_sum   'Tm4 Cd2 Se8'
_cell_volume   390.81070032
_cell_formula_units_Z   2
loop_
 _symmetry_equiv_pos_site_id
 _symmetry_equiv_pos_as_xyz
  1  'x, y, z'
loop_
 _atom_site_type_symbol
 _atom_site_label
 _atom_site_symmetry_multiplicity
 _atom_site_fract_x
 _atom_site_fract_y
 _atom_site_fract_z
 _atom_site_occupancy
  Tm  Tm0  1  0.50000000  0.50000000  -0.00000000  1
  Tm  Tm1  1  0.50000000  0.50000000  0.50000000  1
  Tm  Tm2  1  -0.00000000  0.50000000  0.50000000  1
  Tm  Tm3  1  0.50000000  0.00000000  0.50000000  1
  Cd  Cd0  1  0.87500000  0.87500000  0.87500000  1
  Cd  Cd1  1  0.12500000  0.12500000  0.12500000  1
  Se  Se0  1  0.74236280  0.74236280  0.74236280  1
  Se  Se1  1  0.25763720  0.25763720  0.72708741  1
  Se  Se2  1  0.25763720  0.72708741  0.25763720  1
  Se  Se3  1  0.72708741  0.25763720  0.25763720  1
  Se  Se4  1  0.74236280  0.27291259  0.74236280  1
  Se  Se5  1  0.27291259  0.74236280  0.74236280  1
  Se  Se6  1  0.25763720  0.25763720  0.25763720  1
  Se  Se7  1  0.74236280  0.74236280  0.27291259  1
loop_
_geom_bond_atom_site_label_1
_geom_bond_atom_site_label_2
_geom_bond_distance
_geom_bond_site_symmetry_2
Cd0 Se0 2.666253 1_555
Cd0 Se7 2.666260 1_556
Cd0 Se5 2.666260 1_655
Cd0 Se4 2.666260 1_565
Cd1 Se6 2.666253 1_555
Cd1 Se1 2.666260 1_554
Cd1 Se3 2.666260 1_455
Cd1 Se2 2.666260 1_545
Se0 Tm0 2.815608 1_556
Se0 Tm2 2.815608 1_655
Se0 Tm3 2.815608 1_565
Se1 Tm2 2.815603 1_555
Se1 Tm3 2.815603 1_555
Se1 Tm1 2.815609 1_555
Se2 Tm2 2.815603 1_555
Se2 Tm0 2.815603 1_555
Se2 Tm1 2.815609 1_555
Se3 Tm3 2.815603 1_555
Se3 Tm0 2.815603 1_555
Se3 Tm1 2.815609 1_555
Se4 Tm2 2.815603 1_655
Se4 Tm0 2.815603 1_556
Se4 Tm1 2.815609 1_555
Se5 Tm3 2.815603 1_565
Se5 Tm0 2.815603 1_556
Se5 Tm1 2.815609 1_555
Se6 Tm0 2.815608 1_555
Se6 Tm2 2.815608 1_555
Se6 Tm3 2.815608 1_555
Se7 Tm2 2.815603 1_655
Se7 Tm3 2.815603 1_565
Se7 Tm1 2.815609 1_555
