# generated using pymatgen
data_ZnFe4NiO8
_symmetry_space_group_name_H-M   'P 1'
_cell_length_a   6.03528224
_cell_length_b   6.03528224
_cell_length_c   6.03528224
_cell_angle_alpha   60.00000000
_cell_angle_beta   60.00000000
_cell_angle_gamma   60.00000000
_symmetry_Int_Tables_number   1
_chemical_formula_structural   ZnFe4NiO8
_chemical_formula_sum   'Zn1 Fe4 Ni1 O8'
_cell_volume   155.44535777
_cell_formula_units_Z   1
loop_
 _symmetry_equiv_pos_site_id
 _symmetry_equiv_pos_as_xyz
  1  'x, y, z'
loop_
 _atom_site_type_symbol
 _atom_site_label
 _atom_site_symmetry_multiplicity
 _atom_site_fract_x
 _atom_site_fract_y
 _atom_site_fract_z
 _atom_site_occupancy
  Zn  Zn0  1  0.50000000  0.50000000  0.50000000  1
  Fe  Fe0  1  0.37538000  0.87487300  0.87487300  1
  Fe  Fe1  1  0.87487300  0.37538000  0.87487300  1
  Fe  Fe2  1  0.87487300  0.87487300  0.37538000  1
  Fe  Fe3  1  0.87487300  0.87487300  0.87487300  1
  Ni  Ni0  1  0.25000000  0.25000000  0.25000000  1
  O  O0  1  0.65355800  0.11548100  0.11548100  1
  O  O1  1  0.11548100  0.65355800  0.11548100  1
  O  O2  1  0.11548100  0.11548100  0.65355800  1
  O  O3  1  0.11548100  0.11548100  0.11548100  1
  O  O4  1  0.09355800  0.63548100  0.63548100  1
  O  O5  1  0.63548100  0.09355800  0.63548100  1
  O  O6  1  0.63548100  0.63548100  0.09355800  1
  O  O7  1  0.63548100  0.63548100  0.63548100  1
loop_
_geom_bond_atom_site_label_1
_geom_bond_atom_site_label_2
_geom_bond_distance
_geom_bond_site_symmetry_2
Fe0 O7 2.047072 1_555
Fe0 O5 2.047081 1_565
Fe0 O6 2.047081 1_556
Fe0 O2 2.056922 1_565
Fe0 O1 2.056922 1_556
Fe0 O3 2.056930 1_566
Fe1 O7 2.047072 1_555
Fe1 O4 2.047081 1_655
Fe1 O6 2.047081 1_556
Fe1 O0 2.056922 1_556
Fe1 O2 2.056922 1_655
Fe1 O3 2.056930 1_656
Fe2 O7 2.047072 1_555
Fe2 O5 2.047081 1_565
Fe2 O4 2.047081 1_655
Fe2 O0 2.056922 1_565
Fe2 O1 2.056922 1_655
Fe2 O3 2.056930 1_665
Fe3 O5 2.047072 1_565
Fe3 O6 2.047072 1_556
Fe3 O4 2.047072 1_655
Fe3 O0 2.056930 1_566
Fe3 O2 2.056930 1_665
Fe3 O1 2.056930 1_656
Ni0 O3 1.988643 1_555
Ni0 O1 1.988648 1_555
Ni0 O2 1.988648 1_555
Ni0 O0 1.988648 1_555
O4 Zn0 2.002860 1_555
O5 Zn0 2.002860 1_555
O6 Zn0 2.002860 1_555
O7 Zn0 2.002865 1_555
