# generated using pymatgen
data_CaSn(GeO3)2
_symmetry_space_group_name_H-M   'P 1'
_cell_length_a   10.14001400
_cell_length_b   5.54239200
_cell_length_c   10.80330953
_cell_angle_alpha   78.36619229
_cell_angle_beta   90.00000000
_cell_angle_gamma   90.00000000
_symmetry_Int_Tables_number   1
_chemical_formula_structural   CaSn(GeO3)2
_chemical_formula_sum   'Ca4 Sn4 Ge8 O24'
_cell_volume   594.67233568
_cell_formula_units_Z   4
loop_
 _symmetry_equiv_pos_site_id
 _symmetry_equiv_pos_as_xyz
  1  'x, y, z'
loop_
 _atom_site_type_symbol
 _atom_site_label
 _atom_site_symmetry_multiplicity
 _atom_site_fract_x
 _atom_site_fract_y
 _atom_site_fract_z
 _atom_site_occupancy
  Ca  Ca0  1  0.56609200  0.24302300  0.25019100  1
  Ca  Ca1  1  0.06609200  0.25697700  0.74980900  1
  Ca  Ca2  1  0.43390800  0.75697700  0.74980900  1
  Ca  Ca3  1  0.93390800  0.74302300  0.25019100  1
  Sn  Sn0  1  0.36637100  0.74426500  0.24884100  1
  Sn  Sn1  1  0.86637100  0.75573500  0.75115900  1
  Sn  Sn2  1  0.63362900  0.25573500  0.75115900  1
  Sn  Sn3  1  0.13362900  0.24426500  0.24884100  1
  Ge  Ge0  1  0.65202300  0.78500100  0.03822400  1
  Ge  Ge1  1  0.15202300  0.71499900  0.96177600  1
  Ge  Ge2  1  0.34797700  0.21499900  0.96177600  1
  Ge  Ge3  1  0.84797700  0.28500100  0.03822400  1
  Ge  Ge4  1  0.65168000  0.71656600  0.45996200  1
  Ge  Ge5  1  0.15168000  0.78343400  0.54003800  1
  Ge  Ge6  1  0.34832000  0.28343400  0.54003800  1
  Ge  Ge7  1  0.84832000  0.21656600  0.45996200  1
  O  O0  1  0.78406900  0.94660300  0.40475300  1
  O  O1  1  0.28406900  0.55339700  0.59524700  1
  O  O2  1  0.21593100  0.05339700  0.59524700  1
  O  O3  1  0.71593100  0.44660300  0.40475300  1
  O  O4  1  0.70876700  0.06812300  0.08584600  1
  O  O5  1  0.20876700  0.43187700  0.91415400  1
  O  O6  1  0.29123300  0.93187700  0.91415400  1
  O  O7  1  0.79123300  0.56812300  0.08584600  1
  O  O8  1  0.97718400  0.35542700  0.36368300  1
  O  O9  1  0.47718400  0.14457300  0.63631700  1
  O  O10  1  0.02281600  0.64457300  0.63631700  1
  O  O11  1  0.52281600  0.85542700  0.36368300  1
  O  O12  1  0.96494300  0.13980300  0.14677600  1
  O  O13  1  0.46494300  0.36019700  0.85322400  1
  O  O14  1  0.03505700  0.86019700  0.85322400  1
  O  O15  1  0.53505700  0.63980300  0.14677600  1
  O  O16  1  0.60207700  0.84577900  0.88229500  1
  O  O17  1  0.10207700  0.65422100  0.11770500  1
  O  O18  1  0.39792300  0.15422100  0.11770500  1
  O  O19  1  0.89792300  0.34577900  0.88229500  1
  O  O20  1  0.61105400  0.65112500  0.61874200  1
  O  O21  1  0.11105400  0.84887500  0.38125800  1
  O  O22  1  0.38894600  0.34887500  0.38125800  1
  O  O23  1  0.88894600  0.15112500  0.61874200  1
loop_
_geom_bond_atom_site_label_1
_geom_bond_atom_site_label_2
_geom_bond_distance
_geom_bond_site_symmetry_2
Ca0 O15 2.278687 1_555
Ca0 O11 2.290934 1_545
Ca0 O18 2.341530 1_555
Ca0 O22 2.431196 1_555
Ca0 O4 2.622806 1_555
Ca0 O3 2.670134 1_555
Ca1 O14 2.278687 1_545
Ca1 O10 2.290934 1_555
Ca1 O19 2.341530 1_455
Ca1 O23 2.431196 1_455
Ca1 O5 2.622806 1_555
Ca1 O2 2.670134 1_555
Ca2 O13 2.278687 1_555
Ca2 O9 2.290934 1_565
Ca2 O16 2.341530 1_555
Ca2 O20 2.431196 1_555
Ca2 O6 2.622806 1_555
Ca2 O1 2.670134 1_555
Ca3 O12 2.278687 1_565
Ca3 O8 2.290934 1_555
Ca3 O17 2.341530 1_655
Ca3 O21 2.431196 1_655
Ca3 O7 2.622806 1_555
Ca3 O0 2.670134 1_555
Ge0 O16 1.725924 1_554
Ge0 O15 1.746124 1_555
Ge0 O4 1.839470 1_565
Ge0 O7 1.858150 1_555
Ge1 O17 1.725924 1_556
Ge1 O14 1.746124 1_555
Ge1 O5 1.839470 1_555
Ge1 O6 1.858150 1_555
Ge2 O18 1.725924 1_556
Ge2 O13 1.746124 1_555
Ge2 O6 1.839470 1_545
Ge2 O5 1.858150 1_555
Ge3 O19 1.725924 1_554
Ge3 O12 1.746124 1_555
Ge3 O7 1.839470 1_555
Ge3 O4 1.858150 1_555
Ge4 O20 1.729958 1_555
Ge4 O11 1.748930 1_555
Ge4 O3 1.838167 1_555
Ge4 O0 1.864582 1_555
Ge5 O21 1.729958 1_555
Ge5 O10 1.748930 1_555
Ge5 O2 1.838167 1_565
Ge5 O1 1.864582 1_555
Ge6 O22 1.729958 1_555
Ge6 O9 1.748930 1_555
Ge6 O1 1.838167 1_555
Ge6 O2 1.864582 1_555
Ge7 O23 1.729958 1_555
Ge7 O8 1.748930 1_555
Ge7 O0 1.838167 1_545
Ge7 O3 1.864582 1_555
O8 Sn3 2.177994 1_655
O9 Sn2 2.177994 1_555
O10 Sn1 2.177994 1_455
O11 Sn0 2.177994 1_555
O12 Sn3 2.175828 1_655
O13 Sn2 2.175828 1_555
O14 Sn1 2.175828 1_455
O15 Sn0 2.175828 1_555
O16 Sn2 2.444131 1_565
O17 Sn3 2.444131 1_555
O18 Sn0 2.444131 1_545
O19 Sn1 2.444131 1_555
O20 Sn2 2.374188 1_555
O21 Sn3 2.374188 1_565
O22 Sn0 2.374188 1_555
O23 Sn1 2.374188 1_545
