# generated using pymatgen
data_MgCoP2O7
_symmetry_space_group_name_H-M   'P 1'
_cell_length_a   5.62311061
_cell_length_b   10.30467321
_cell_length_c   9.15107356
_cell_angle_alpha   81.49708998
_cell_angle_beta   100.09611345
_cell_angle_gamma   76.90871503
_symmetry_Int_Tables_number   1
_chemical_formula_structural   MgCoP2O7
_chemical_formula_sum   'Mg4 Co4 P8 O28'
_cell_volume   498.65240765
_cell_formula_units_Z   4
loop_
 _symmetry_equiv_pos_site_id
 _symmetry_equiv_pos_as_xyz
  1  'x, y, z'
loop_
 _atom_site_type_symbol
 _atom_site_label
 _atom_site_symmetry_multiplicity
 _atom_site_fract_x
 _atom_site_fract_y
 _atom_site_fract_z
 _atom_site_occupancy
  Mg  Mg0  1  0.33387000  0.65750300  0.99978600  1
  Mg  Mg1  1  0.33359700  0.15752400  0.49975900  1
  Mg  Mg2  1  0.66605100  0.34248700  0.00015500  1
  Mg  Mg3  1  0.66624400  0.84251100  0.50022000  1
  Co  Co0  1  0.25026500  0.68597900  0.52464500  1
  Co  Co1  1  0.75050300  0.31391600  0.47575400  1
  Co  Co2  1  0.25000800  0.18593800  0.02454200  1
  Co  Co3  1  0.75029700  0.81392700  0.97577600  1
  P  P0  1  0.18690700  0.38985200  0.70593900  1
  P  P1  1  0.18719200  0.88989100  0.20601400  1
  P  P2  1  0.81301200  0.61009100  0.29404900  1
  P  P3  1  0.81283100  0.11016700  0.79397000  1
  P  P4  1  0.22836200  0.40636800  0.20634500  1
  P  P5  1  0.22839800  0.90628600  0.70642700  1
  P  P6  1  0.77156300  0.59369000  0.79366600  1
  P  P7  1  0.77164700  0.09365900  0.29357500  1
  O  O0  1  0.11166500  0.79505200  0.10277500  1
  O  O1  1  0.11104300  0.29509100  0.60261200  1
  O  O2  1  0.88854200  0.20493000  0.89736000  1
  O  O3  1  0.88864800  0.70496000  0.39721000  1
  O  O4  1  0.29663500  0.49744700  0.63264300  1
  O  O5  1  0.29682000  0.99752600  0.13262700  1
  O  O6  1  0.70348800  0.50243000  0.36732100  1
  O  O7  1  0.70334300  0.00244200  0.86724600  1
  O  O8  1  0.35235300  0.30771800  0.86033800  1
  O  O9  1  0.35251600  0.80774900  0.36041800  1
  O  O10  1  0.64755700  0.69227700  0.13959800  1
  O  O11  1  0.64713700  0.19216000  0.63954500  1
  O  O12  1  0.61357400  0.53791400  0.89479800  1
  O  O13  1  0.61374500  0.03793100  0.39485800  1
  O  O14  1  0.38640400  0.46210100  0.10517600  1
  O  O15  1  0.38629500  0.96212800  0.60515900  1
  O  O16  1  0.05058800  0.33476000  0.11908500  1
  O  O17  1  0.05062000  0.83469800  0.61913000  1
  O  O18  1  0.94937900  0.66532800  0.88089900  1
  O  O19  1  0.94917800  0.16537200  0.38078000  1
  O  O20  1  0.07167100  0.53794900  0.25199600  1
  O  O21  1  0.07162600  0.03783500  0.75212200  1
  O  O22  1  0.92826900  0.46218500  0.74787700  1
  O  O23  1  0.92837100  0.96217000  0.24776900  1
  O  O24  1  0.61711900  0.18527400  0.14449300  1
  O  O25  1  0.61713800  0.68525700  0.64446300  1
  O  O26  1  0.38297600  0.81476900  0.85558100  1
  O  O27  1  0.38256200  0.31475400  0.35549800  1
loop_
_geom_bond_atom_site_label_1
_geom_bond_atom_site_label_2
_geom_bond_distance
_geom_bond_site_symmetry_2
Mg0 O14 2.031793 1_556
Mg0 O26 2.035188 1_555
Mg0 O0 2.112835 1_556
Mg0 O10 2.123053 1_556
Mg0 O12 2.217493 1_555
Mg0 O18 2.221471 1_455
Mg1 O15 2.031617 1_545
Mg1 O27 2.034860 1_555
Mg1 O1 2.113156 1_555
Mg1 O11 2.121673 1_555
Mg1 O13 2.218650 1_555
Mg1 O19 2.221318 1_455
Mg2 O12 2.031983 1_554
Mg2 O24 2.035044 1_555
Mg2 O2 2.112566 1_554
Mg2 O8 2.123099 1_554
Mg2 O14 2.217593 1_555
Mg2 O16 2.222081 1_655
Mg3 O13 2.031912 1_565
Mg3 O25 2.035290 1_555
Mg3 O3 2.113551 1_555
Mg3 O9 2.123130 1_555
Mg3 O15 2.218247 1_555
Mg3 O17 2.221000 1_655
Co0 O4 1.982783 1_555
Co0 O9 2.058106 1_555
Co0 O17 2.075872 1_555
Co0 O3 2.110443 1_455
Co0 O25 2.157710 1_555
Co1 O6 1.983297 1_555
Co1 O11 2.058706 1_555
Co1 O19 2.075000 1_555
Co1 O1 2.103702 1_655
Co1 O27 2.163931 1_555
Co2 O5 1.981522 1_545
Co2 O8 2.058308 1_554
Co2 O16 2.076356 1_555
Co2 O2 2.108846 1_454
Co2 O24 2.159455 1_555
Co3 O7 1.983661 1_565
Co3 O10 2.056357 1_556
Co3 O18 2.075851 1_555
Co3 O0 2.108011 1_656
Co3 O26 2.160710 1_555
O0 P1 1.532444 1_555
O1 P0 1.532936 1_555
O2 P3 1.533064 1_555
O3 P2 1.532408 1_555
O4 P0 1.514913 1_555
O5 P1 1.515198 1_555
O6 P2 1.514594 1_555
O7 P3 1.514978 1_555
O8 P0 1.551446 1_555
O9 P1 1.551285 1_555
O10 P2 1.551954 1_555
O11 P3 1.551662 1_555
O12 P6 1.529160 1_555
O13 P7 1.529476 1_555
O14 P4 1.529425 1_555
O15 P5 1.529856 1_555
O16 P4 1.552402 1_555
O17 P5 1.552433 1_555
O18 P6 1.552658 1_555
O19 P7 1.552016 1_555
O20 P4 1.595201 1_555
O20 P2 1.614695 1_455
O21 P5 1.595329 1_545
O21 P3 1.615038 1_455
O22 P6 1.595249 1_555
O22 P0 1.614683 1_655
O23 P7 1.595240 1_565
O23 P1 1.614607 1_655
O24 P7 1.529509 1_555
O25 P6 1.529952 1_555
O26 P5 1.529688 1_555
O27 P4 1.529461 1_555
