# generated using pymatgen
data_Li7V4(PO4)6
_symmetry_space_group_name_H-M   'P 1'
_cell_length_a   8.84569836
_cell_length_b   8.84471144
_cell_length_c   8.72676733
_cell_angle_alpha   59.80288587
_cell_angle_beta   59.76056008
_cell_angle_gamma   60.30579419
_symmetry_Int_Tables_number   1
_chemical_formula_structural   Li7V4(PO4)6
_chemical_formula_sum   'Li7 V4 P6 O24'
_cell_volume   482.28108321
_cell_formula_units_Z   1
loop_
 _symmetry_equiv_pos_site_id
 _symmetry_equiv_pos_as_xyz
  1  'x, y, z'
loop_
 _atom_site_type_symbol
 _atom_site_label
 _atom_site_symmetry_multiplicity
 _atom_site_fract_x
 _atom_site_fract_y
 _atom_site_fract_z
 _atom_site_occupancy
  Li  Li0  1  0.29057836  0.11521845  0.82504137  1
  Li  Li1  1  0.88459338  0.22922612  0.17191926  1
  Li  Li2  1  0.23224017  0.71404397  0.16830495  1
  Li  Li3  1  0.50083514  0.50609185  0.49137548  1
  Li  Li4  1  0.76859313  0.29200638  0.82313602  1
  Li  Li5  1  0.11607852  0.77134318  0.82187002  1
  Li  Li6  1  0.71387619  0.88555356  0.16822617  1
  V  V0  1  0.35868640  0.35856119  0.92526660  1
  V  V1  1  0.64313746  0.64171641  0.07158175  1
  V  V2  1  0.14769940  0.14622442  0.55910690  1
  V  V3  1  0.85295836  0.85425025  0.43914515  1
  P  P0  1  0.54636726  0.24807657  0.24772726  1
  P  P1  1  0.75135122  0.04605225  0.74770363  1
  P  P2  1  0.04542974  0.45450827  0.74985556  1
  P  P3  1  0.95657410  0.54592083  0.24894944  1
  P  P4  1  0.24841615  0.95614681  0.24999459  1
  P  P5  1  0.45388907  0.75156579  0.74954406  1
  O  O0  1  0.31127406  0.10656790  0.06053359  1
  O  O1  1  0.22164859  0.98665234  0.42044301  1
  O  O2  1  0.71934505  0.06755280  0.24577607  1
  O  O3  1  0.52291777  0.31143974  0.05740655  1
  O  O4  1  0.37473259  0.21538220  0.41762280  1
  O  O5  1  0.10689042  0.52825733  0.05728871  1
  O  O6  1  0.03940923  0.28269008  0.74302358  1
  O  O7  1  0.77693656  0.01510150  0.57780651  1
  O  O8  1  0.60022009  0.38478508  0.25732669  1
  O  O9  1  0.93418060  0.03784694  0.74564703  1
  O  O10  1  0.61540436  0.24549351  0.74139015  1
  O  O11  1  0.01201945  0.63271899  0.58591589  1
  O  O12  1  0.24603765  0.39686969  0.74322185  1
  O  O13  1  0.75702977  0.60445334  0.25491003  1
  O  O14  1  0.98907492  0.36844795  0.41428348  1
  O  O15  1  0.06553046  0.96661924  0.24961578  1
  O  O16  1  0.38318521  0.75709193  0.25708181  1
  O  O17  1  0.40009246  0.61334156  0.74017207  1
  O  O18  1  0.96585921  0.71731369  0.25368122  1
  O  O19  1  0.89760708  0.46848479  0.94227695  1
  O  O20  1  0.62695640  0.78200221  0.58040742  1
  O  O21  1  0.47465021  0.68807018  0.93974534  1
  O  O22  1  0.28066873  0.93196556  0.74998420  1
  O  O23  1  0.68975308  0.89717117  0.93727905  1
loop_
_geom_bond_atom_site_label_1
_geom_bond_atom_site_label_2
_geom_bond_distance
_geom_bond_site_symmetry_2
Li0 O22 2.080945 1_545
Li0 O12 2.095807 1_555
Li0 O0 2.114151 1_556
Li0 O6 2.217506 1_555
Li1 O15 2.059607 1_645
Li1 O19 2.061663 1_554
Li1 O8 2.119060 1_555
Li1 O2 2.188983 1_555
Li2 O18 2.072218 1_455
Li2 O21 2.072228 1_554
Li2 O16 2.090526 1_555
Li2 O15 2.223851 1_555
Li3 O16 2.340972 1_555
Li3 O8 2.357366 1_555
Li3 O13 2.363894 1_555
Li3 O17 2.386113 1_555
Li3 O12 2.423936 1_555
Li3 O10 2.440094 1_555
Li4 O10 2.082193 1_555
Li4 O6 2.099940 1_655
Li4 O3 2.107202 1_556
Li4 O9 2.219331 1_555
Li5 O9 2.081041 1_465
Li5 O5 2.100356 1_556
Li5 O17 2.119597 1_555
Li5 O22 2.182714 1_555
Li6 O2 2.063393 1_565
Li6 O23 2.078735 1_554
Li6 O13 2.087584 1_555
Li6 O18 2.238428 1_555
O0 P4 1.551455 1_545
O0 V0 2.077914 1_554
O1 P4 1.525483 1_555
O1 V2 1.972373 1_565
O2 P0 1.572114 1_555
O2 V3 2.097840 1_545
O3 P0 1.552780 1_555
O3 V0 2.053763 1_554
O4 P0 1.524229 1_555
O4 V2 1.972701 1_555
O5 P3 1.551428 1_455
O5 V0 2.093762 1_554
O6 P2 1.578084 1_555
O6 V2 2.050653 1_555
O7 P1 1.527531 1_555
O7 V3 1.976063 1_545
O8 P0 1.552010 1_555
O8 V1 2.113098 1_555
O9 P1 1.573814 1_555
O9 V2 2.064768 1_655
O10 P1 1.558257 1_555
O10 V0 2.103768 1_555
O11 P2 1.521348 1_555
O11 V3 2.004651 1_455
O12 P2 1.562723 1_555
O12 V0 2.085682 1_555
O13 P3 1.554220 1_555
O13 V1 2.108842 1_555
O14 P3 1.523410 1_555
O14 V2 1.996061 1_655
O15 P4 1.575542 1_555
O15 V3 2.079541 1_455
O16 P4 1.552406 1_555
O16 V1 2.130046 1_555
O17 P5 1.563314 1_555
O17 V0 2.093214 1_555
O18 P3 1.579939 1_555
O18 V3 2.056536 1_555
O19 P2 1.543346 1_655
O19 V1 2.109888 1_556
O20 P5 1.525574 1_555
O20 V3 1.978774 1_555
O21 P5 1.539912 1_555
O21 V1 2.088115 1_556
O22 P5 1.572176 1_555
O22 V2 2.083029 1_565
O23 P1 1.542494 1_565
O23 V1 2.102634 1_556
