# generated using pymatgen
data_CaBi3PbWClO8
_symmetry_space_group_name_H-M   'P 1'
_cell_length_a   3.95830600
_cell_length_b   4.11024100
_cell_length_c   17.60553300
_cell_angle_alpha   90.00000000
_cell_angle_beta   90.00000000
_cell_angle_gamma   90.00000000
_symmetry_Int_Tables_number   1
_chemical_formula_structural   CaBi3PbWClO8
_chemical_formula_sum   'Ca1 Bi3 Pb1 W1 Cl1 O8'
_cell_volume   286.43483202
_cell_formula_units_Z   1
loop_
 _symmetry_equiv_pos_site_id
 _symmetry_equiv_pos_as_xyz
  1  'x, y, z'
loop_
 _atom_site_type_symbol
 _atom_site_label
 _atom_site_symmetry_multiplicity
 _atom_site_fract_x
 _atom_site_fract_y
 _atom_site_fract_z
 _atom_site_occupancy
  Ca  Ca0  1  0.50000000  0.00000000  0.44905100  1
  Bi  Bi0  1  0.50000000  0.50000000  0.10979800  1
  Bi  Bi1  1  0.00000000  0.00000000  0.26341300  1
  Bi  Bi2  1  0.00000000  0.00000000  0.69510300  1
  Pb  Pb0  1  0.50000000  0.50000000  0.83353700  1
  W  W0  1  0.00000000  0.00000000  0.99469600  1
  Cl  Cl0  1  0.50000000  0.50000000  0.54870400  1
  O  O0  1  0.00000000  0.00000000  0.11123300  1
  O  O1  1  0.50000000  0.00000000  0.01193200  1
  O  O2  1  0.00000000  0.50000000  0.01186400  1
  O  O3  1  0.00000000  0.00000000  0.89018900  1
  O  O4  1  0.50000000  0.00000000  0.75292900  1
  O  O5  1  0.00000000  0.50000000  0.74865200  1
  O  O6  1  0.50000000  0.00000000  0.33006200  1
  O  O7  1  0.00000000  0.50000000  0.20778300  1
loop_
_geom_bond_atom_site_label_1
_geom_bond_atom_site_label_2
_geom_bond_distance
_geom_bond_site_symmetry_2
Ca0 O6 2.094865 1_555
Ca0 Cl0 2.702146 1_545
Ca0 Cl0 2.702146 1_555
Bi0 O2 2.624851 1_555
Bi0 O2 2.624851 1_655
Bi0 O7 2.625441 1_655
Bi0 O7 2.625441 1_555
Bi0 O1 2.681826 1_555
Bi0 O1 2.681826 1_565
Bi0 O0 2.853280 1_555
Bi0 O0 2.853280 1_655
Bi0 O0 2.853280 1_565
Bi0 O0 2.853280 1_665
Bi1 O7 2.276562 1_545
Bi1 O7 2.276562 1_555
Bi1 O6 2.300846 1_455
Bi1 O6 2.300846 1_555
Bi1 O0 2.679210 1_555
Bi2 O4 2.225643 1_455
Bi2 O4 2.225643 1_555
Bi2 O5 2.261043 1_555
Bi2 O5 2.261043 1_545
O0 W0 2.051696 1_554
O1 W0 2.002281 1_554
O1 W0 2.002281 1_654
O2 W0 2.077228 1_564
O2 W0 2.077228 1_554
O3 W0 1.839901 1_555
O4 Pb0 2.497498 1_545
O4 Pb0 2.497498 1_555
O5 Pb0 2.480003 1_555
O5 Pb0 2.480003 1_455
