# generated using pymatgen
data_Na8Zr6BBr20
_symmetry_space_group_name_H-M   'P 1'
_cell_length_a   11.23795929
_cell_length_b   11.23795929
_cell_length_c   11.23795929
_cell_angle_alpha   60.00000000
_cell_angle_beta   60.00000000
_cell_angle_gamma   60.00000000
_symmetry_Int_Tables_number   1
_chemical_formula_structural   Na8Zr6BBr20
_chemical_formula_sum   'Na8 Zr6 B1 Br20'
_cell_volume   1003.56929577
_cell_formula_units_Z   1
loop_
 _symmetry_equiv_pos_site_id
 _symmetry_equiv_pos_as_xyz
  1  'x, y, z'
loop_
 _atom_site_type_symbol
 _atom_site_label
 _atom_site_symmetry_multiplicity
 _atom_site_fract_x
 _atom_site_fract_y
 _atom_site_fract_z
 _atom_site_occupancy
  Na  Na0  1  0.63955295  0.63955295  0.63955295  1
  Na  Na1  1  0.36044705  0.36044705  0.36044705  1
  Na  Na2  1  0.08134114  0.63955295  0.63955295  1
  Na  Na3  1  0.63955295  0.08134114  0.63955295  1
  Na  Na4  1  0.91865886  0.36044705  0.36044705  1
  Na  Na5  1  0.36044705  0.91865886  0.36044705  1
  Na  Na6  1  0.63955295  0.63955295  0.08134114  1
  Na  Na7  1  0.36044705  0.36044705  0.91865886  1
  Zr  Zr0  1  0.85404510  0.85404510  0.14595490  1
  Zr  Zr1  1  0.14595490  0.14595490  0.85404510  1
  Zr  Zr2  1  0.85404510  0.14595490  0.85404510  1
  Zr  Zr3  1  0.14595490  0.85404510  0.14595490  1
  Zr  Zr4  1  0.14595490  0.85404510  0.85404510  1
  Zr  Zr5  1  0.85404510  0.14595490  0.14595490  1
  B  B0  1  0.00000000  0.00000000  -0.00000000  1
  Br  Br0  1  -0.00000000  0.00000000  0.65998739  1
  Br  Br1  1  0.00000000  0.00000000  0.34001261  1
  Br  Br2  1  0.34001261  0.65998739  -0.00000000  1
  Br  Br3  1  0.65998739  0.34001261  0.00000000  1
  Br  Br4  1  -0.00000000  0.65998739  0.00000000  1
  Br  Br5  1  0.65998739  -0.00000000  0.34001261  1
  Br  Br6  1  0.00000000  0.34001261  -0.00000000  1
  Br  Br7  1  0.34001261  0.00000000  0.65998739  1
  Br  Br8  1  0.65998739  0.00000000  -0.00000000  1
  Br  Br9  1  0.34001261  0.00000000  0.00000000  1
  Br  Br10  1  0.00000000  0.65998739  0.34001261  1
  Br  Br11  1  -0.00000000  0.34001261  0.65998739  1
  Br  Br12  1  0.67278934  0.67278934  0.32721066  1
  Br  Br13  1  0.32721066  0.32721066  0.67278934  1
  Br  Br14  1  0.67278934  0.32721066  0.67278934  1
  Br  Br15  1  0.32721066  0.67278934  0.32721066  1
  Br  Br16  1  0.32721066  0.67278934  0.67278934  1
  Br  Br17  1  0.67278934  0.32721066  0.32721066  1
  Br  Br18  1  0.75000000  0.75000000  0.75000000  1
  Br  Br19  1  0.25000000  0.25000000  0.25000000  1
loop_
_geom_bond_atom_site_label_1
_geom_bond_atom_site_label_2
_geom_bond_distance
_geom_bond_site_symmetry_2
B0 Zr5 2.319643 1_455
B0 Zr2 2.319643 1_454
B0 Zr0 2.319643 1_445
B0 Zr4 2.319643 1_544
B0 Zr3 2.319643 1_545
B0 Zr1 2.319643 1_554
Br0 Zr4 2.728794 1_545
Br0 Zr2 2.728794 1_455
Br1 Zr5 2.728794 1_455
Br1 Zr3 2.728794 1_545
Br2 Zr3 2.728794 1_555
Br2 Zr4 2.728794 1_554
Br3 Zr5 2.728794 1_555
Br3 Zr2 2.728794 1_554
Br4 Zr4 2.728794 1_554
Br4 Zr0 2.728794 1_455
Br5 Zr5 2.728794 1_555
Br5 Zr0 2.728794 1_545
Br6 Zr5 2.728794 1_455
Br6 Zr1 2.728794 1_554
Br7 Zr1 2.728794 1_555
Br7 Zr4 2.728794 1_545
Br8 Zr2 2.728794 1_554
Br8 Zr0 2.728794 1_545
Br9 Zr1 2.728794 1_554
Br9 Zr3 2.728794 1_545
Br10 Zr3 2.728794 1_555
Br10 Zr0 2.728794 1_455
Br11 Zr1 2.728794 1_555
Br11 Zr2 2.728794 1_455
Br12 Zr0 2.880675 1_555
Br12 Na0 3.180748 1_555
Br12 Na5 3.180748 1_555
Br12 Na4 3.180748 1_555
Br12 Na6 3.180748 1_555
Br13 Zr1 2.880675 1_555
Br13 Na1 3.180748 1_555
Br13 Na2 3.180748 1_555
Br13 Na3 3.180748 1_555
Br13 Na7 3.180748 1_555
Br14 Zr2 2.880675 1_555
Br14 Na0 3.180748 1_555
Br14 Na4 3.180748 1_555
Br14 Na7 3.180748 1_555
Br14 Na3 3.180748 1_555
Br15 Zr3 2.880675 1_555
Br15 Na1 3.180748 1_555
Br15 Na2 3.180748 1_555
Br15 Na6 3.180748 1_555
Br15 Na5 3.180748 1_555
Br16 Zr4 2.880675 1_555
Br16 Na0 3.180748 1_555
Br16 Na5 3.180748 1_555
Br16 Na7 3.180748 1_555
Br16 Na2 3.180748 1_555
Br17 Zr5 2.880675 1_555
Br17 Na1 3.180748 1_555
Br17 Na3 3.180748 1_555
Br17 Na6 3.180748 1_555
Br17 Na4 3.180748 1_555
Br18 Na2 3.040305 1_655
Br18 Na6 3.040305 1_556
Br18 Na3 3.040305 1_565
Br18 Na0 3.040305 1_555
Br19 Na4 3.040305 1_455
Br19 Na5 3.040305 1_545
Br19 Na7 3.040305 1_554
Br19 Na1 3.040305 1_555
