# generated using pymatgen
data_Li7Mn5O12
_symmetry_space_group_name_H-M   'P 1'
_cell_length_a   6.03377778
_cell_length_b   8.70614643
_cell_length_c   9.83396194
_cell_angle_alpha   69.01616221
_cell_angle_beta   94.28203982
_cell_angle_gamma   70.16654563
_symmetry_Int_Tables_number   1
_chemical_formula_structural   Li7Mn5O12
_chemical_formula_sum   'Li14 Mn10 O24'
_cell_volume   442.25623356
_cell_formula_units_Z   2
loop_
 _symmetry_equiv_pos_site_id
 _symmetry_equiv_pos_as_xyz
  1  'x, y, z'
loop_
 _atom_site_type_symbol
 _atom_site_label
 _atom_site_symmetry_multiplicity
 _atom_site_fract_x
 _atom_site_fract_y
 _atom_site_fract_z
 _atom_site_occupancy
  Li  Li0  1  0.83334300  0.33332500  0.33335100  1
  Li  Li1  1  0.83335600  0.83331700  0.83330800  1
  Li  Li2  1  0.08817900  0.83641300  0.33124800  1
  Li  Li3  1  0.07276700  0.33291200  0.84269100  1
  Li  Li4  1  0.57847600  0.83026200  0.33541300  1
  Li  Li5  1  0.59393200  0.33376400  0.82393800  1
  Li  Li6  1  0.75826000  0.00149000  0.50485900  1
  Li  Li7  1  0.76643900  0.50945100  0.99057000  1
  Li  Li8  1  0.90025400  0.15720800  0.67609600  1
  Li  Li9  1  0.90840100  0.66514000  0.16181100  1
  Li  Li10  1  0.43304600  0.15697500  0.66778700  1
  Li  Li11  1  0.42733000  0.65551000  0.16371600  1
  Li  Li12  1  0.23933700  0.01117400  0.50296000  1
  Li  Li13  1  0.23357000  0.50968500  0.99889000  1
  Mn  Mn0  1  0.33330900  0.83332000  0.83334100  1
  Mn  Mn1  1  0.33328900  0.33327200  0.33333900  1
  Mn  Mn2  1  0.99953100  0.99992800  0.99649500  1
  Mn  Mn3  1  0.00367300  0.50073400  0.49614700  1
  Mn  Mn4  1  0.66297900  0.16605400  0.17047800  1
  Mn  Mn5  1  0.66705600  0.66668800  0.67020000  1
  Mn  Mn6  1  0.50713800  0.99657100  0.99657000  1
  Mn  Mn7  1  0.50957200  0.50035500  0.49554600  1
  Mn  Mn8  1  0.15721900  0.16634600  0.17117200  1
  Mn  Mn9  1  0.15960300  0.67015700  0.66994000  1
  O  O0  1  0.26670600  0.93560700  0.16304100  1
  O  O1  1  0.30090800  0.44036400  0.64176600  1
  O  O2  1  0.39999000  0.73100000  0.50362900  1
  O  O3  1  0.36577700  0.22631800  0.02490200  1
  O  O4  1  0.96332600  0.09564700  0.31010500  1
  O  O5  1  0.94487900  0.58286500  0.82322600  1
  O  O6  1  0.72185500  0.08376800  0.84349600  1
  O  O7  1  0.70335000  0.57103600  0.35653500  1
  O  O8  1  0.60608900  0.26368100  0.49286000  1
  O  O9  1  0.60605100  0.75778800  0.99582300  1
  O  O10  1  0.06058600  0.90888700  0.67088600  1
  O  O11  1  0.06055200  0.40293200  0.17380000  1
  O  O12  1  0.76982500  0.92618500  0.16245900  1
  O  O13  1  0.77351000  0.42651000  0.65840600  1
  O  O14  1  0.89687500  0.74054900  0.50416200  1
  O  O15  1  0.89312700  0.24015500  0.00825600  1
  O  O16  1  0.42892400  0.09686200  0.33382900  1
  O  O17  1  0.43052500  0.59635200  0.83328800  1
  O  O18  1  0.23614600  0.07031800  0.83341700  1
  O  O19  1  0.23768900  0.56978400  0.33281700  1
  O  O20  1  0.14288500  0.27529500  0.48117900  1
  O  O21  1  0.14298500  0.77117300  0.98242200  1
  O  O22  1  0.52361900  0.89548800  0.68430200  1
  O  O23  1  0.52376200  0.39138100  0.18552800  1
loop_
_geom_bond_atom_site_label_1
_geom_bond_atom_site_label_2
_geom_bond_distance
_geom_bond_site_symmetry_2
Li0 O7 2.052645 1_555
Li0 O4 2.052684 1_555
Li0 O20 2.070058 1_655
Li0 O23 2.070140 1_555
Li0 O11 2.216412 1_655
Li0 O8 2.216423 1_555
Li1 O22 2.066262 1_555
Li1 O21 2.066417 1_655
Li1 O5 2.094337 1_555
Li1 O6 2.094795 1_565
Li1 O10 2.247301 1_655
Li1 O9 2.248154 1_555
Li2 O4 2.047258 1_465
Li2 O2 2.119767 1_555
Li2 O0 2.125217 1_555
Li2 O12 2.152153 1_455
Li2 O19 2.180323 1_555
Li2 O14 2.202452 1_455
Li3 O5 1.976804 1_455
Li3 O15 2.096120 1_456
Li3 O3 2.102442 1_556
Li3 O13 2.159602 1_455
Li3 O18 2.200042 1_555
Li3 O1 2.574942 1_555
Li4 O7 2.047257 1_555
Li4 O0 2.119639 1_555
Li4 O2 2.125280 1_555
Li4 O14 2.152231 1_555
Li4 O16 2.180043 1_565
Li4 O12 2.203055 1_555
Li5 O6 1.976857 1_555
Li5 O13 2.095609 1_555
Li5 O1 2.102245 1_555
Li5 O15 2.159549 1_556
Li5 O17 2.200345 1_555
Li5 O3 2.575248 1_556
Li6 O10 2.063448 1_645
Li6 O8 2.106242 1_555
Li6 O14 2.140858 1_545
Li6 O16 2.201826 1_555
Li6 O4 2.405965 1_555
Li6 O22 2.462388 1_545
Li7 O5 2.062556 1_555
Li7 O9 2.069144 1_555
Li7 O11 2.113050 1_656
Li7 O15 2.140879 1_556
Li7 O17 2.173922 1_555
Li8 O6 2.062831 1_555
Li8 O10 2.068797 1_645
Li8 O8 2.113345 1_555
Li8 O13 2.140909 1_555
Li8 O18 2.174041 1_655
Li9 O9 2.063248 1_554
Li9 O11 2.106405 1_655
Li9 O12 2.141494 1_555
Li9 O19 2.201513 1_655
Li9 O7 2.405586 1_555
Li9 O21 2.461881 1_654
Li10 O22 2.094135 1_545
Li10 O20 2.106283 1_555
Li10 O6 2.106307 1_555
Li10 O18 2.156555 1_555
Li10 O8 2.166613 1_555
Li10 O1 2.229551 1_555
Li11 O21 2.054544 1_554
Li11 O23 2.095862 1_555
Li11 O9 2.132193 1_554
Li11 O19 2.146262 1_555
Li11 O7 2.146754 1_555
Li11 O0 2.295572 1_555
Li12 O22 2.054591 1_545
Li12 O20 2.095877 1_555
Li12 O10 2.132560 1_545
Li12 O16 2.146152 1_555
Li12 O4 2.146972 1_455
Li12 O2 2.296222 1_545
Li13 O21 2.094288 1_555
Li13 O5 2.105611 1_455
Li13 O23 2.106596 1_556
Li13 O17 2.156634 1_555
Li13 O11 2.166522 1_556
Li13 O3 2.229387 1_556
Mn0 O17 1.944222 1_555
Mn0 O18 1.944582 1_565
Mn0 O10 1.952676 1_555
Mn0 O9 1.952995 1_555
Mn0 O22 1.965842 1_555
Mn0 O21 1.966152 1_555
Mn1 O16 1.937995 1_555
Mn1 O19 1.938735 1_555
Mn1 O11 1.947591 1_555
Mn1 O8 1.947897 1_555
Mn1 O20 1.950814 1_555
Mn1 O23 1.951141 1_555
Mn2 O6 1.900208 1_565
Mn2 O21 1.944290 1_655
Mn2 O0 1.982689 1_656
Mn2 O15 2.018145 1_566
Mn2 O12 2.277722 1_556
Mn2 O18 2.284167 1_665
Mn3 O20 1.919921 1_555
Mn3 O7 1.953777 1_455
Mn3 O1 1.995282 1_555
Mn3 O14 1.998280 1_455
Mn3 O13 2.256921 1_455
Mn3 O19 2.271141 1_555
Mn4 O23 1.919429 1_555
Mn4 O4 1.953735 1_555
Mn4 O3 1.995172 1_555
Mn4 O12 1.998735 1_545
Mn4 O15 2.256357 1_555
Mn4 O16 2.271732 1_555
Mn5 O5 1.901007 1_555
Mn5 O22 1.944766 1_555
Mn5 O2 1.982444 1_555
Mn5 O13 2.017879 1_555
Mn5 O14 2.278958 1_555
Mn5 O17 2.283734 1_555
Mn6 O12 1.946235 1_556
Mn6 O18 1.953994 1_565
Mn6 O9 1.961546 1_555
Mn6 O3 2.020622 1_566
Mn6 O6 2.158920 1_565
Mn6 O0 2.306752 1_556
Mn7 O2 1.922733 1_555
Mn7 O13 1.923909 1_555
Mn7 O7 1.933629 1_555
Mn7 O8 1.952586 1_555
Mn7 O19 1.964618 1_555
Mn7 O1 2.025896 1_555
Mn8 O0 1.923717 1_545
Mn8 O15 1.924950 1_455
Mn8 O4 1.933713 1_455
Mn8 O11 1.951562 1_555
Mn8 O16 1.963316 1_555
Mn8 O3 2.025700 1_555
Mn9 O14 1.945656 1_455
Mn9 O17 1.954817 1_555
Mn9 O10 1.961865 1_555
Mn9 O1 2.020135 1_555
Mn9 O5 2.160490 1_455
Mn9 O2 2.305286 1_555
