# generated using pymatgen
data_KNa2Tl
_symmetry_space_group_name_H-M   'P 1'
_cell_length_a   13.97797064
_cell_length_b   14.12749405
_cell_length_c   14.12749323
_cell_angle_alpha   60.39180632
_cell_angle_beta   60.34949790
_cell_angle_gamma   60.34949953
_symmetry_Int_Tables_number   1
_chemical_formula_structural   KNa2Tl
_chemical_formula_sum   'K1 Na2 Tl1'
_cell_volume   1988.91634266
_cell_formula_units_Z   1
loop_
 _symmetry_equiv_pos_site_id
 _symmetry_equiv_pos_as_xyz
  1  'x, y, z'
loop_
 _atom_site_type_symbol
 _atom_site_label
 _atom_site_symmetry_multiplicity
 _atom_site_fract_x
 _atom_site_fract_y
 _atom_site_fract_z
 _atom_site_occupancy
  K  K0  1  -0.00000000  -0.00000000  -0.00000000  1
  Na  Na0  1  0.73857823  0.00000000  0.00000000  1
  Na  Na1  1  0.26142177  1.00000000  1.00000000  1
  Tl  Tl0  1  0.50000000  -0.00000000  -0.00000000  1
loop_
_geom_bond_atom_site_label_1
_geom_bond_atom_site_label_2
_geom_bond_distance
_geom_bond_site_symmetry_2
K0 Na1 3.654146 1_544
K0 Na0 3.654146 1_455
Na0 Tl0 3.334839 1_555
Na1 Tl0 3.334839 1_566
