# generated using pymatgen
data_Lu3Mg2MnS8
_symmetry_space_group_name_H-M   'P 1'
_cell_length_a   7.70071578
_cell_length_b   7.61794238
_cell_length_c   7.71082642
_cell_angle_alpha   59.52116582
_cell_angle_beta   60.03851777
_cell_angle_gamma   59.66031463
_symmetry_Int_Tables_number   1
_chemical_formula_structural   Lu3Mg2MnS8
_chemical_formula_sum   'Lu3 Mg2 Mn1 S8'
_cell_volume   317.95355720
_cell_formula_units_Z   1
loop_
 _symmetry_equiv_pos_site_id
 _symmetry_equiv_pos_as_xyz
  1  'x, y, z'
loop_
 _atom_site_type_symbol
 _atom_site_label
 _atom_site_symmetry_multiplicity
 _atom_site_fract_x
 _atom_site_fract_y
 _atom_site_fract_z
 _atom_site_occupancy
  Lu  Lu0  1  0.49998900  0.50002200  0.49999000  1
  Lu  Lu1  1  0.50001300  0.49999100  0.00001500  1
  Lu  Lu2  1  0.00001800  0.49997600  0.50000400  1
  Mg  Mg0  1  0.87543100  0.87357000  0.87551900  1
  Mg  Mg1  1  0.12453800  0.12653100  0.12445500  1
  Mn  Mn0  1  0.49996500  0.99997100  0.50001400  1
  S  S0  1  0.73420000  0.75911000  0.73373700  1
  S  S1  1  0.26503100  0.24198100  0.72797100  1
  S  S2  1  0.25594400  0.73278100  0.25533500  1
  S  S3  1  0.72675800  0.24046600  0.26662000  1
  S  S4  1  0.74405200  0.26722000  0.74465500  1
  S  S5  1  0.27324900  0.75950800  0.73340300  1
  S  S6  1  0.26582500  0.24086400  0.26625500  1
  S  S7  1  0.73499200  0.75800500  0.27202700  1
loop_
_geom_bond_atom_site_label_1
_geom_bond_atom_site_label_2
_geom_bond_distance
_geom_bond_site_symmetry_2
Lu0 S2 2.648801 1_555
Lu0 S4 2.648941 1_555
Lu0 S7 2.671785 1_555
Lu0 S1 2.671857 1_555
Lu0 S5 2.679346 1_555
Lu0 S3 2.679494 1_555
Lu1 S2 2.651765 1_555
Lu1 S4 2.651890 1_554
Lu1 S0 2.674108 1_554
Lu1 S6 2.674139 1_555
Lu1 S3 2.675540 1_555
Lu1 S5 2.675675 1_554
Lu2 S4 2.647932 1_455
Lu2 S2 2.647963 1_555
Lu2 S1 2.672808 1_555
Lu2 S7 2.672935 1_455
Lu2 S6 2.678997 1_555
Lu2 S0 2.679035 1_455
Mg0 S4 2.433018 1_565
Mg0 S7 2.494203 1_556
Mg0 S0 2.500204 1_555
Mg0 S5 2.502874 1_655
Mg1 S2 2.433637 1_545
Mg1 S1 2.494093 1_554
Mg1 S6 2.499913 1_555
Mg1 S3 2.502680 1_455
Mn0 S5 2.528004 1_555
Mn0 S3 2.528593 1_565
Mn0 S6 2.532878 1_565
Mn0 S0 2.533196 1_555
Mn0 S7 2.550041 1_555
Mn0 S1 2.550118 1_565
