# generated using pymatgen
data_Ca4Mg4P4O17F3
_symmetry_space_group_name_H-M   'P 1'
_cell_length_a   7.93211568
_cell_length_b   7.93211568
_cell_length_c   6.60122868
_cell_angle_alpha   85.48870970
_cell_angle_beta   85.48870970
_cell_angle_gamma   67.61451388
_symmetry_Int_Tables_number   1
_chemical_formula_structural   Ca4Mg4P4O17F3
_chemical_formula_sum   'Ca4 Mg4 P4 O17 F3'
_cell_volume   382.31570828
_cell_formula_units_Z   1
loop_
 _symmetry_equiv_pos_site_id
 _symmetry_equiv_pos_as_xyz
  1  'x, y, z'
loop_
 _atom_site_type_symbol
 _atom_site_label
 _atom_site_symmetry_multiplicity
 _atom_site_fract_x
 _atom_site_fract_y
 _atom_site_fract_z
 _atom_site_occupancy
  Ca  Ca0  1  0.21331900  0.78668100  0.50000000  1
  Ca  Ca1  1  0.71120500  0.28879500  0.00000000  1
  Ca  Ca2  1  0.78729900  0.71172200  0.25097100  1
  Ca  Ca3  1  0.28827800  0.21270100  0.74902900  1
  Mg  Mg0  1  0.25046500  0.49928700  0.12519100  1
  Mg  Mg1  1  0.74741300  0.99948500  0.62434300  1
  Mg  Mg2  1  0.00051500  0.25258700  0.37565700  1
  Mg  Mg3  1  0.50071300  0.74953500  0.87480900  1
  P  P0  1  0.55432600  0.44567400  0.50000000  1
  P  P1  1  0.05467000  0.94533000  0.00000000  1
  P  P2  1  0.44582400  0.05445000  0.24966100  1
  P  P3  1  0.94555000  0.55417600  0.75033900  1
  O  O0  1  0.86932100  0.97535500  0.90760800  1
  O  O1  1  0.36894800  0.47450600  0.40849600  1
  O  O2  1  0.02464500  0.13067900  0.09239200  1
  O  O3  1  0.52549400  0.63105200  0.59150400  1
  O  O4  1  0.13115200  0.52506500  0.84160600  1
  O  O5  1  0.63185100  0.02441800  0.34036500  1
  O  O6  1  0.97558200  0.36814900  0.65963500  1
  O  O7  1  0.47493500  0.86884800  0.15839400  1
  O  O8  1  0.71317200  0.40433600  0.33281700  1
  O  O9  1  0.21404900  0.90359900  0.83360100  1
  O  O10  1  0.59566400  0.28682800  0.66718300  1
  O  O11  1  0.09640100  0.78595100  0.16639900  1
  O  O12  1  0.28754300  0.09767200  0.41643400  1
  O  O13  1  0.78590800  0.59682600  0.91694400  1
  O  O14  1  0.40317400  0.21409200  0.08305600  1
  O  O15  1  0.90232800  0.71245600  0.58356600  1
  O  O16  1  0.95955000  0.04045000  0.50000000  1
  F  F0  1  0.45795000  0.54205000  0.00000000  1
  F  F1  1  0.04179000  0.45903500  0.24947000  1
  F  F2  1  0.54096500  0.95821000  0.75053000  1
loop_
_geom_bond_atom_site_label_1
_geom_bond_atom_site_label_2
_geom_bond_distance
_geom_bond_site_symmetry_2
Ca0 O16 2.239986 1_465
Ca0 O1 2.410414 1_555
Ca0 O3 2.410414 1_555
Ca0 O11 2.457046 1_555
Ca0 O9 2.457046 1_555
Ca0 O12 2.752666 1_565
Ca0 O15 2.752671 1_455
Ca1 F0 2.235449 1_555
Ca1 O2 2.422709 1_655
Ca1 O0 2.422709 1_544
Ca1 O8 2.449497 1_555
Ca1 O10 2.449497 1_554
Ca1 O13 2.731763 1_554
Ca1 O14 2.731763 1_555
Ca2 F1 2.238446 1_655
Ca2 O5 2.409777 1_565
Ca2 O7 2.414985 1_555
Ca2 O15 2.444201 1_555
Ca2 O13 2.453630 1_554
Ca2 O8 2.723474 1_555
Ca2 O11 2.739045 1_655
Ca3 F2 2.238446 1_545
Ca3 O6 2.409777 1_455
Ca3 O4 2.414985 1_555
Ca3 O12 2.444203 1_555
Ca3 O14 2.453630 1_556
Ca3 O10 2.723474 1_555
Ca3 O9 2.739045 1_545
Mg0 O1 2.120698 1_555
Mg0 O4 2.124383 1_554
Mg0 O14 2.149653 1_555
Mg0 O11 2.160165 1_555
Mg1 O16 1.941138 1_565
Mg1 O5 2.113626 1_565
Mg1 O0 2.134335 1_555
Mg1 O15 2.163205 1_555
Mg1 O10 2.163787 1_565
Mg2 O16 1.941138 1_455
Mg2 O6 2.113626 1_455
Mg2 O2 2.134335 1_555
Mg2 O12 2.163198 1_555
Mg2 O8 2.163787 1_455
Mg3 O3 2.120698 1_555
Mg3 O7 2.124383 1_556
Mg3 O13 2.149653 1_555
Mg3 O9 2.160165 1_555
O0 P1 1.562602 1_656
O1 P0 1.562437 1_555
O2 P1 1.562602 1_545
O3 P0 1.562437 1_555
O4 P3 1.562828 1_455
O5 P2 1.562508 1_555
O6 P3 1.562508 1_555
O7 P2 1.562828 1_565
O8 P0 1.560942 1_555
O9 P1 1.560249 1_556
O10 P0 1.560942 1_555
O11 P1 1.560249 1_555
O12 P2 1.555607 1_555
O13 P3 1.562264 1_555
O14 P2 1.562264 1_555
O15 P3 1.555601 1_555
F0 Mg3 1.916718 1_554
F0 Mg0 1.916718 1_555
F1 Mg2 1.906192 1_555
F1 Mg0 1.913766 1_555
F2 Mg1 1.906192 1_555
F2 Mg3 1.913766 1_555
