# generated using pymatgen
data_NiBrO
_symmetry_space_group_name_H-M   'P 1'
_cell_length_a   5.58897000
_cell_length_b   5.80247000
_cell_length_c   11.99481000
_cell_angle_alpha   90.00000000
_cell_angle_beta   90.00000000
_cell_angle_gamma   90.00000000
_symmetry_Int_Tables_number   1
_chemical_formula_structural   NiBrO
_chemical_formula_sum   'Ni8 Br8 O8'
_cell_volume   388.98965825
_cell_formula_units_Z   8
loop_
 _symmetry_equiv_pos_site_id
 _symmetry_equiv_pos_as_xyz
  1  'x, y, z'
loop_
 _atom_site_type_symbol
 _atom_site_label
 _atom_site_symmetry_multiplicity
 _atom_site_fract_x
 _atom_site_fract_y
 _atom_site_fract_z
 _atom_site_occupancy
  Ni  Ni0_0  1  0.00000000  0.00000000  0.25000000  1
  Ni  Ni0_1  1  0.00000000  0.00000000  0.75000000  1
  Ni  Ni0_2  1  0.00000000  0.50000000  0.25000000  1
  Ni  Ni0_3  1  0.00000000  0.50000000  0.75000000  1
  Ni  Ni0_4  1  0.50000000  0.00000000  0.25000000  1
  Ni  Ni0_5  1  0.50000000  0.00000000  0.75000000  1
  Ni  Ni0_6  1  0.50000000  0.50000000  0.25000000  1
  Ni  Ni0_7  1  0.50000000  0.50000000  0.75000000  1
  Br  Br0_0  1  0.00000000  0.00000000  0.00000000  1
  Br  Br0_1  1  0.00000000  0.00000000  0.50000000  1
  Br  Br0_2  1  0.00000000  0.50000000  0.00000000  1
  Br  Br0_3  1  0.00000000  0.50000000  0.50000000  1
  Br  Br0_4  1  0.50000000  0.00000000  0.00000000  1
  Br  Br0_5  1  0.50000000  0.00000000  0.50000000  1
  Br  Br0_6  1  0.50000000  0.50000000  0.00000000  1
  Br  Br0_7  1  0.50000000  0.50000000  0.50000000  1
  O  O0_0  1  0.25000000  0.25000000  0.25000000  1
  O  O0_1  1  0.25000000  0.25000000  0.75000000  1
  O  O0_2  1  0.25000000  0.75000000  0.25000000  1
  O  O0_3  1  0.25000000  0.75000000  0.75000000  1
  O  O0_4  1  0.75000000  0.25000000  0.25000000  1
  O  O0_5  1  0.75000000  0.25000000  0.75000000  1
  O  O0_6  1  0.75000000  0.75000000  0.25000000  1
  O  O0_7  1  0.75000000  0.75000000  0.75000000  1
loop_
_geom_bond_atom_site_label_1
_geom_bond_atom_site_label_2
_geom_bond_distance
_geom_bond_site_symmetry_2
Ni0_0 O0_0 2.014095 1_555
Ni0_0 O0_2 2.014095 1_545
Ni0_0 O0_6 2.014095 1_445
Ni0_0 O0_4 2.014095 1_455
Ni0_1 O0_1 2.014095 1_555
Ni0_1 O0_3 2.014095 1_545
Ni0_1 O0_5 2.014095 1_455
Ni0_1 O0_7 2.014095 1_445
Ni0_2 O0_2 2.014095 1_555
Ni0_2 O0_0 2.014095 1_555
Ni0_2 O0_6 2.014095 1_455
Ni0_2 O0_4 2.014095 1_455
Ni0_3 O0_3 2.014095 1_555
Ni0_3 O0_7 2.014095 1_455
Ni0_3 O0_1 2.014095 1_555
Ni0_3 O0_5 2.014095 1_455
Ni0_4 O0_0 2.014095 1_555
Ni0_4 O0_2 2.014095 1_545
Ni0_4 O0_4 2.014095 1_555
Ni0_4 O0_6 2.014095 1_545
Ni0_5 O0_1 2.014095 1_555
Ni0_5 O0_3 2.014095 1_545
Ni0_5 O0_5 2.014095 1_555
Ni0_5 O0_7 2.014095 1_545
Ni0_6 O0_2 2.014095 1_555
Ni0_6 O0_0 2.014095 1_555
Ni0_6 O0_4 2.014095 1_555
Ni0_6 O0_6 2.014095 1_555
Ni0_7 O0_3 2.014095 1_555
Ni0_7 O0_1 2.014095 1_555
Ni0_7 O0_5 2.014095 1_555
Ni0_7 O0_7 2.014095 1_555
Br0_0 Br0_4 2.794485 1_455
Br0_0 Br0_4 2.794485 1_555
Br0_0 Br0_2 2.901235 1_545
Br0_0 Br0_2 2.901235 1_555
Br0_0 Ni0_0 2.998702 1_555
Br0_0 Ni0_1 2.998703 1_554
Br0_1 Br0_5 2.794485 1_555
Br0_1 Br0_5 2.794485 1_455
Br0_1 Br0_3 2.901235 1_545
Br0_1 Br0_3 2.901235 1_555
Br0_1 Ni0_1 2.998702 1_555
Br0_1 Ni0_0 2.998702 1_555
Br0_2 Br0_6 2.794485 1_555
Br0_2 Br0_6 2.794485 1_455
Br0_2 Ni0_2 2.998702 1_555
Br0_2 Ni0_3 2.998703 1_554
Br0_3 Br0_7 2.794485 1_455
Br0_3 Br0_7 2.794485 1_555
Br0_3 Ni0_3 2.998702 1_555
Br0_3 Ni0_2 2.998702 1_555
Br0_4 Br0_6 2.901235 1_545
Br0_4 Br0_6 2.901235 1_555
Br0_4 Ni0_4 2.998702 1_555
Br0_4 Ni0_5 2.998703 1_554
Br0_5 Br0_7 2.901235 1_555
Br0_5 Br0_7 2.901235 1_545
Br0_5 Ni0_5 2.998702 1_555
Br0_5 Ni0_4 2.998702 1_555
Br0_6 Ni0_6 2.998702 1_555
Br0_6 Ni0_7 2.998703 1_554
Br0_7 Ni0_7 2.998702 1_555
Br0_7 Ni0_6 2.998702 1_555
