# generated using pymatgen
data_CaFeBiO5
_symmetry_space_group_name_H-M   'P 1'
_cell_length_a   5.91120431
_cell_length_b   8.84648338
_cell_length_c   10.55800600
_cell_angle_alpha   90.00000000
_cell_angle_beta   90.00000000
_cell_angle_gamma   112.22288987
_symmetry_Int_Tables_number   1
_chemical_formula_structural   CaFeBiO5
_chemical_formula_sum   'Ca4 Fe4 Bi4 O20'
_cell_volume   511.10247261
_cell_formula_units_Z   4
loop_
 _symmetry_equiv_pos_site_id
 _symmetry_equiv_pos_as_xyz
  1  'x, y, z'
loop_
 _atom_site_type_symbol
 _atom_site_label
 _atom_site_symmetry_multiplicity
 _atom_site_fract_x
 _atom_site_fract_y
 _atom_site_fract_z
 _atom_site_occupancy
  Ca  Ca0  1  0.64704000  0.17894900  0.90328500  1
  Ca  Ca1  1  0.35296000  0.82105100  0.09671500  1
  Ca  Ca2  1  0.85296000  0.32105100  0.40328500  1
  Ca  Ca3  1  0.14704000  0.67894900  0.59671500  1
  Fe  Fe0  1  0.82610200  0.93993700  0.61794100  1
  Fe  Fe1  1  0.17389800  0.06006300  0.38205900  1
  Fe  Fe2  1  0.67389800  0.56006300  0.11794100  1
  Fe  Fe3  1  0.32610200  0.43993700  0.88205900  1
  Bi  Bi0  1  0.14167600  0.15663800  0.09870600  1
  Bi  Bi1  1  0.85832400  0.84336200  0.90129400  1
  Bi  Bi2  1  0.64167600  0.65663800  0.40129400  1
  Bi  Bi3  1  0.35832400  0.34336200  0.59870600  1
  O  O0  1  0.49388700  0.34589400  0.04556100  1
  O  O1  1  0.03952300  0.31520600  0.97861300  1
  O  O2  1  0.51885600  0.68440400  0.22041400  1
  O  O3  1  0.72935900  0.51215000  0.54463000  1
  O  O4  1  0.79832900  0.52271900  0.28043600  1
  O  O5  1  0.29832900  0.02271900  0.21956400  1
  O  O6  1  0.53952300  0.81520600  0.52138700  1
  O  O7  1  0.46047700  0.18479400  0.47861300  1
  O  O8  1  0.27064100  0.48785000  0.45537000  1
  O  O9  1  0.00611300  0.15410600  0.54556100  1
  O  O10  1  0.20167100  0.47728100  0.71956400  1
  O  O11  1  0.50611300  0.65410600  0.95443900  1
  O  O12  1  0.99388700  0.84589400  0.45443900  1
  O  O13  1  0.70167100  0.97728100  0.78043600  1
  O  O14  1  0.77064100  0.98785000  0.04463000  1
  O  O15  1  0.22935900  0.01215000  0.95537000  1
  O  O16  1  0.48114400  0.31559600  0.77958600  1
  O  O17  1  0.96047700  0.68479400  0.02138700  1
  O  O18  1  0.98114400  0.81559600  0.72041400  1
  O  O19  1  0.01885600  0.18440400  0.27958600  1
loop_
_geom_bond_atom_site_label_1
_geom_bond_atom_site_label_2
_geom_bond_distance
_geom_bond_site_symmetry_2
Ca0 O16 2.241728 1_555
Ca0 O1 2.313597 1_655
Ca0 O13 2.324918 1_545
Ca0 O15 2.412447 1_555
Ca0 O0 2.503715 1_556
Ca0 O14 2.559908 1_546
Ca1 O2 2.241728 1_555
Ca1 O17 2.313597 1_455
Ca1 O5 2.324918 1_565
Ca1 O14 2.412447 1_555
Ca1 O11 2.503715 1_554
Ca1 O15 2.559908 1_564
Ca2 O19 2.241728 1_655
Ca2 O7 2.313597 1_555
Ca2 O4 2.324918 1_555
Ca2 O8 2.412447 1_655
Ca2 O9 2.503715 1_655
Ca2 O3 2.559908 1_555
Ca3 O18 2.241728 1_455
Ca3 O6 2.313597 1_555
Ca3 O10 2.324918 1_555
Ca3 O3 2.412447 1_455
Ca3 O12 2.503715 1_455
Ca3 O8 2.559908 1_555
Fe0 O6 1.926802 1_555
Fe0 O13 1.943534 1_555
Fe0 O9 1.944463 1_665
Fe0 O18 1.995744 1_555
Fe0 O12 2.297812 1_555
Fe1 O7 1.926802 1_555
Fe1 O5 1.943534 1_555
Fe1 O12 1.944463 1_445
Fe1 O19 1.995744 1_555
Fe1 O9 2.297812 1_555
Fe2 O17 1.926802 1_555
Fe2 O4 1.943534 1_555
Fe2 O0 1.944463 1_555
Fe2 O2 1.995744 1_555
Fe2 O11 2.297812 1_554
Fe3 O1 1.926802 1_555
Fe3 O10 1.943534 1_555
Fe3 O11 1.944463 1_555
Fe3 O16 1.995744 1_555
Fe3 O0 2.297812 1_556
Bi0 O19 2.090311 1_555
Bi0 O1 2.140281 1_554
Bi0 O15 2.166521 1_554
Bi0 O5 2.172347 1_555
Bi0 O0 2.194522 1_555
Bi0 O14 2.211046 1_445
Bi1 O18 2.090311 1_555
Bi1 O17 2.140281 1_556
Bi1 O14 2.166521 1_556
Bi1 O13 2.172347 1_555
Bi1 O11 2.194522 1_555
Bi1 O15 2.211046 1_665
Bi2 O2 2.090311 1_555
Bi2 O6 2.140281 1_555
Bi2 O3 2.166521 1_555
Bi2 O4 2.172347 1_555
Bi2 O12 2.194522 1_555
Bi2 O8 2.211046 1_555
Bi3 O16 2.090311 1_555
Bi3 O7 2.140281 1_555
Bi3 O8 2.166521 1_555
Bi3 O10 2.172347 1_555
Bi3 O9 2.194522 1_555
Bi3 O3 2.211046 1_555
