# generated using pymatgen
data_Y2Ge2O7
_symmetry_space_group_name_H-M   'P 1'
_cell_length_a   6.81659758
_cell_length_b   6.81659758
_cell_length_c   12.41204628
_cell_angle_alpha   90.00000000
_cell_angle_beta   90.00000000
_cell_angle_gamma   90.00000000
_symmetry_Int_Tables_number   1
_chemical_formula_structural   Y2Ge2O7
_chemical_formula_sum   'Y8 Ge8 O28'
_cell_volume   576.73817432
_cell_formula_units_Z   4
loop_
 _symmetry_equiv_pos_site_id
 _symmetry_equiv_pos_as_xyz
  1  'x, y, z'
loop_
 _atom_site_type_symbol
 _atom_site_label
 _atom_site_symmetry_multiplicity
 _atom_site_fract_x
 _atom_site_fract_y
 _atom_site_fract_z
 _atom_site_occupancy
  Y  Y0  1  0.12428115  0.64734576  0.86492217  1
  Y  Y1  1  0.87571885  0.35265424  0.36492217  1
  Y  Y2  1  0.64734576  0.12428115  0.13507783  1
  Y  Y3  1  0.14734576  0.37571885  0.11492217  1
  Y  Y4  1  0.85265424  0.62428115  0.61492217  1
  Y  Y5  1  0.37571885  0.14734576  0.88507783  1
  Y  Y6  1  0.62428115  0.85265424  0.38507783  1
  Y  Y7  1  0.35265424  0.87571885  0.63507783  1
  Ge  Ge0  1  0.15274335  0.90068780  0.11944323  1
  Ge  Ge1  1  0.84725665  0.09931220  0.61944323  1
  Ge  Ge2  1  0.90068780  0.15274335  0.88055677  1
  Ge  Ge3  1  0.40068780  0.34725665  0.36944323  1
  Ge  Ge4  1  0.59931220  0.65274335  0.86944323  1
  Ge  Ge5  1  0.34725665  0.40068780  0.63055677  1
  Ge  Ge6  1  0.65274335  0.59931220  0.13055677  1
  Ge  Ge7  1  0.09931220  0.84725665  0.38055677  1
  O  O0  1  0.14308476  0.68444351  0.04482853  1
  O  O1  1  0.85691524  0.31555649  0.54482853  1
  O  O2  1  0.68444351  0.14308476  0.95517147  1
  O  O3  1  0.18444351  0.35691524  0.29482853  1
  O  O4  1  0.81555649  0.64308476  0.79482853  1
  O  O5  1  0.35691524  0.18444351  0.70517147  1
  O  O6  1  0.64308476  0.81555649  0.20517147  1
  O  O7  1  0.31555649  0.85691524  0.45517147  1
  O  O8  1  0.33836568  0.06317909  0.07129100  1
  O  O9  1  0.66163432  0.93682091  0.57129100  1
  O  O10  1  0.06317909  0.33836568  0.92870900  1
  O  O11  1  0.56317909  0.16163432  0.32129100  1
  O  O12  1  0.43682091  0.83836568  0.82129100  1
  O  O13  1  0.16163432  0.56317909  0.67870900  1
  O  O14  1  0.83836568  0.43682091  0.17870900  1
  O  O15  1  0.93682091  0.66163432  0.42870900  1
  O  O16  1  0.19618637  0.80381363  0.25000000  1
  O  O17  1  0.69618637  0.69618637  0.00000000  1
  O  O18  1  0.30381363  0.30381363  0.50000000  1
  O  O19  1  0.80381363  0.19618637  0.75000000  1
  O  O20  1  0.92260819  0.03147022  0.37651714  1
  O  O21  1  0.46852978  0.42260819  0.12651714  1
  O  O22  1  0.53147022  0.57739181  0.62651714  1
  O  O23  1  0.42260819  0.46852978  0.87348286  1
  O  O24  1  0.57739181  0.53147022  0.37348286  1
  O  O25  1  0.07739181  0.96852978  0.87651714  1
  O  O26  1  0.03147022  0.92260819  0.62348286  1
  O  O27  1  0.96852978  0.07739181  0.12348286  1
loop_
_geom_bond_atom_site_label_1
_geom_bond_atom_site_label_2
_geom_bond_distance
_geom_bond_site_symmetry_2
Ge0 O27 1.740744 1_465
Ge0 O0 1.742085 1_555
Ge0 O16 1.774741 1_555
Ge0 O8 1.784680 1_565
Ge1 O26 1.740744 1_645
Ge1 O1 1.742085 1_555
Ge1 O19 1.774741 1_555
Ge1 O9 1.784680 1_545
Ge2 O25 1.740744 1_645
Ge2 O2 1.742085 1_555
Ge2 O19 1.774741 1_555
Ge2 O10 1.784680 1_655
Ge3 O24 1.740744 1_555
Ge3 O3 1.742085 1_555
Ge3 O18 1.774741 1_555
Ge3 O11 1.784680 1_555
Ge4 O23 1.740744 1_555
Ge4 O4 1.742085 1_555
Ge4 O17 1.774741 1_556
Ge4 O12 1.784680 1_555
Ge5 O22 1.740744 1_555
Ge5 O5 1.742085 1_555
Ge5 O18 1.774741 1_555
Ge5 O13 1.784680 1_555
Ge6 O21 1.740744 1_555
Ge6 O6 1.742085 1_555
Ge6 O17 1.774741 1_555
Ge6 O14 1.784680 1_555
Ge7 O20 1.740744 1_465
Ge7 O7 1.742085 1_555
Ge7 O16 1.774741 1_555
Ge7 O15 1.784680 1_455
O0 Y0 2.250932 1_554
O0 Y3 2.277382 1_555
O1 Y1 2.250932 1_555
O1 Y4 2.277382 1_555
O2 Y2 2.250932 1_556
O2 Y5 2.277382 1_555
O3 Y3 2.250932 1_555
O3 Y1 2.277382 1_455
O4 Y4 2.250932 1_555
O4 Y0 2.277382 1_655
O5 Y5 2.250932 1_555
O5 Y7 2.277382 1_545
O6 Y6 2.250932 1_555
O6 Y2 2.277382 1_565
O7 Y7 2.250932 1_555
O7 Y6 2.277382 1_555
O8 Y2 2.288309 1_555
O8 Y5 2.395004 1_554
O8 Y3 2.554919 1_555
O9 Y7 2.288309 1_555
O9 Y6 2.395004 1_555
O9 Y4 2.554919 1_555
O10 Y0 2.288309 1_555
O10 Y3 2.395004 1_556
O10 Y5 2.554919 1_555
O11 Y6 2.288309 1_545
O11 Y2 2.395004 1_555
O11 Y1 2.554919 1_555
O12 Y5 2.288309 1_565
O12 Y7 2.395004 1_555
O12 Y0 2.554919 1_555
O13 Y4 2.288309 1_455
O13 Y0 2.395004 1_555
O13 Y7 2.554919 1_555
O14 Y3 2.288309 1_655
O14 Y1 2.395004 1_555
O14 Y2 2.554919 1_555
O15 Y1 2.288309 1_555
O15 Y4 2.395004 1_555
O15 Y6 2.554919 1_555
O20 Y1 2.217266 1_555
O20 Y6 2.373284 1_545
O21 Y3 2.217266 1_555
O21 Y2 2.373284 1_555
O22 Y4 2.217266 1_555
O22 Y7 2.373284 1_555
O23 Y5 2.217266 1_555
O23 Y0 2.373284 1_555
O24 Y6 2.217266 1_555
O24 Y1 2.373284 1_555
O25 Y0 2.217266 1_555
O25 Y5 2.373284 1_565
O26 Y7 2.217266 1_555
O26 Y4 2.373284 1_455
O27 Y2 2.217266 1_555
O27 Y3 2.373284 1_655
