# generated using pymatgen
data_PrPaO4
_symmetry_space_group_name_H-M   'P 1'
_cell_length_a   6.69067041
_cell_length_b   6.69067041
_cell_length_c   6.69067041
_cell_angle_alpha   131.26897113
_cell_angle_beta   131.26897113
_cell_angle_gamma   71.38608731
_symmetry_Int_Tables_number   1
_chemical_formula_structural   PrPaO4
_chemical_formula_sum   'Pr2 Pa2 O8'
_cell_volume   165.60512753
_cell_formula_units_Z   2
loop_
 _symmetry_equiv_pos_site_id
 _symmetry_equiv_pos_as_xyz
  1  'x, y, z'
loop_
 _atom_site_type_symbol
 _atom_site_label
 _atom_site_symmetry_multiplicity
 _atom_site_fract_x
 _atom_site_fract_y
 _atom_site_fract_z
 _atom_site_occupancy
  Pr  Pr0  1  0.00000000  -0.00000000  -0.00000000  1
  Pr  Pr1  1  0.75000000  0.25000000  0.50000000  1
  Pa  Pa0  1  0.50000000  0.50000000  -0.00000000  1
  Pa  Pa1  1  0.25000000  0.75000000  0.50000000  1
  O  O0  1  0.14670241  0.12500000  0.52170241  1
  O  O1  1  0.87500000  0.39670241  0.02170241  1
  O  O2  1  0.60329759  0.12500000  0.97829759  1
  O  O3  1  0.60329759  0.62500000  0.47829759  1
  O  O4  1  0.37500000  0.39670241  0.52170241  1
  O  O5  1  0.37500000  0.85329759  0.97829759  1
  O  O6  1  0.14670241  0.62500000  0.02170241  1
  O  O7  1  0.87500000  0.85329759  0.47829759  1
loop_
_geom_bond_atom_site_label_1
_geom_bond_atom_site_label_2
_geom_bond_distance
_geom_bond_site_symmetry_2
O0 Pa0 2.310550 1_556
O0 Pa1 2.310550 1_545
O0 Pr0 2.449501 1_555
O0 Pr1 2.449501 1_455
O1 Pa1 2.310550 1_655
O1 Pa0 2.310550 1_555
O1 Pr1 2.449501 1_554
O1 Pr0 2.449501 1_655
O2 Pa1 2.310550 1_545
O2 Pa0 2.310550 1_556
O2 Pr0 2.449501 1_656
O2 Pr1 2.449501 1_556
O3 Pa0 2.310550 1_555
O3 Pa1 2.310550 1_555
O3 Pr1 2.449501 1_555
O3 Pr0 2.449501 1_666
O4 Pa1 2.310550 1_555
O4 Pa0 2.310550 1_556
O4 Pr1 2.449501 1_555
O4 Pr0 2.449501 1_555
O5 Pa0 2.310550 1_556
O5 Pa1 2.310550 1_555
O5 Pr0 2.449501 1_566
O5 Pr1 2.449501 1_566
O6 Pa0 2.310550 1_555
O6 Pa1 2.310550 1_555
O6 Pr1 2.449501 1_454
O6 Pr0 2.449501 1_565
O7 Pa0 2.310550 1_555
O7 Pa1 2.310550 1_655
O7 Pr1 2.449501 1_565
O7 Pr0 2.449501 1_666
