# generated using pymatgen
data_La3Ti
_symmetry_space_group_name_H-M   'P 1'
_cell_length_a   7.16834040
_cell_length_b   7.16834040
_cell_length_c   5.67773100
_cell_angle_alpha   90.00000000
_cell_angle_beta   90.00000000
_cell_angle_gamma   120.00000365
_symmetry_Int_Tables_number   1
_chemical_formula_structural   La3Ti
_chemical_formula_sum   'La6 Ti2'
_cell_volume   252.66359342
_cell_formula_units_Z   2
loop_
 _symmetry_equiv_pos_site_id
 _symmetry_equiv_pos_as_xyz
  1  'x, y, z'
loop_
 _atom_site_type_symbol
 _atom_site_label
 _atom_site_symmetry_multiplicity
 _atom_site_fract_x
 _atom_site_fract_y
 _atom_site_fract_z
 _atom_site_occupancy
  La  La0  1  0.17622000  0.35244000  0.25000000  1
  La  La1  1  0.64756000  0.82378000  0.25000000  1
  La  La2  1  0.17622000  0.82378000  0.25000000  1
  La  La3  1  0.82378000  0.64756000  0.75000000  1
  La  La4  1  0.35244000  0.17622000  0.75000000  1
  La  La5  1  0.82378000  0.17622000  0.75000000  1
  Ti  Ti0  1  0.33333300  0.66666700  0.75000000  1
  Ti  Ti1  1  0.66666700  0.33333300  0.25000000  1
loop_
_geom_bond_atom_site_label_1
_geom_bond_atom_site_label_2
_geom_bond_distance
_geom_bond_site_symmetry_2
La0 La1 3.378725 1_555
La0 La2 3.378726 1_555
La0 Ti0 3.444478 1_555
La0 Ti0 3.444478 1_554
La0 La5 3.584162 1_454
La0 La5 3.584162 1_455
La0 La4 3.584162 1_555
La0 La4 3.584162 1_554
La0 Ti1 3.586129 1_455
La0 Ti1 3.586136 1_555
La0 La1 3.789615 1_445
La0 La2 3.789615 1_545
La1 La2 3.378726 1_555
La1 Ti0 3.444478 1_555
La1 Ti0 3.444478 1_554
La1 La5 3.584162 1_565
La1 La5 3.584162 1_564
La1 La3 3.584162 1_555
La1 La3 3.584162 1_554
La1 Ti1 3.586129 1_565
La1 Ti1 3.586136 1_555
La1 La2 3.789615 1_655
La2 Ti0 3.444474 1_555
La2 Ti0 3.444474 1_554
La2 La3 3.584162 1_455
La2 La3 3.584162 1_454
La2 La4 3.584162 1_564
La2 La4 3.584162 1_565
La2 Ti1 3.586132 1_565
La2 Ti1 3.586132 1_455
La3 La4 3.378725 1_555
La3 La5 3.378726 1_555
La3 Ti1 3.444478 1_556
La3 Ti1 3.444478 1_555
La3 Ti0 3.586129 1_655
La3 Ti0 3.586136 1_555
La3 La4 3.789615 1_665
La3 La5 3.789615 1_565
La4 La5 3.378726 1_555
La4 Ti1 3.444478 1_555
La4 Ti1 3.444478 1_556
La4 Ti0 3.586129 1_545
La4 Ti0 3.586136 1_555
La4 La5 3.789615 1_455
La5 Ti1 3.444474 1_556
La5 Ti1 3.444474 1_555
La5 Ti0 3.586132 1_655
La5 Ti0 3.586132 1_545
