# generated using pymatgen
data_Tm3(GaNi3)2
_symmetry_space_group_name_H-M   'P 1'
_cell_length_a   7.63290542
_cell_length_b   7.63290542
_cell_length_c   7.63290542
_cell_angle_alpha   109.47122063
_cell_angle_beta   109.47122063
_cell_angle_gamma   109.47122063
_symmetry_Int_Tables_number   1
_chemical_formula_structural   Tm3(GaNi3)2
_chemical_formula_sum   'Tm6 Ga4 Ni12'
_cell_volume   342.33220124
_cell_formula_units_Z   2
loop_
 _symmetry_equiv_pos_site_id
 _symmetry_equiv_pos_as_xyz
  1  'x, y, z'
loop_
 _atom_site_type_symbol
 _atom_site_label
 _atom_site_symmetry_multiplicity
 _atom_site_fract_x
 _atom_site_fract_y
 _atom_site_fract_z
 _atom_site_occupancy
  Tm  Tm0  1  0.70969400  0.70969400  0.00000000  1
  Tm  Tm1  1  0.29030600  0.00000000  0.29030600  1
  Tm  Tm2  1  0.00000000  0.29030600  0.29030600  1
  Tm  Tm3  1  0.29030600  0.29030600  0.00000000  1
  Tm  Tm4  1  0.70969400  0.00000000  0.70969400  1
  Tm  Tm5  1  0.00000000  0.70969400  0.70969400  1
  Ga  Ga0  1  0.00000000  0.00000000  0.50000000  1
  Ga  Ga1  1  0.00000000  0.50000000  0.00000000  1
  Ga  Ga2  1  0.50000000  0.00000000  0.00000000  1
  Ga  Ga3  1  0.50000000  0.50000000  0.50000000  1
  Ni  Ni0  1  0.33861900  0.33861900  0.67723700  1
  Ni  Ni1  1  0.66138100  0.00000000  0.33861900  1
  Ni  Ni2  1  0.00000000  0.66138100  0.33861900  1
  Ni  Ni3  1  0.66138100  0.33861900  0.00000000  1
  Ni  Ni4  1  0.33861900  0.67723700  0.33861900  1
  Ni  Ni5  1  0.00000000  0.33861900  0.66138100  1
  Ni  Ni6  1  0.33861900  0.66138100  0.00000000  1
  Ni  Ni7  1  0.33861900  0.00000000  0.66138100  1
  Ni  Ni8  1  0.67723700  0.33861900  0.33861900  1
  Ni  Ni9  1  0.66138100  0.66138100  0.32276300  1
  Ni  Ni10  1  0.66138100  0.32276300  0.66138100  1
  Ni  Ni11  1  0.32276300  0.66138100  0.66138100  1
loop_
_geom_bond_atom_site_label_1
_geom_bond_atom_site_label_2
_geom_bond_distance
_geom_bond_site_symmetry_2
Ga0 Ni1 2.464797 1_455
Ga0 Ni7 2.464797 1_555
Ga0 Ni5 2.464797 1_555
Ga0 Ni2 2.464797 1_545
Ga0 Ni9 2.464798 1_445
Ga0 Ni0 2.464798 1_555
Ga0 Tm5 3.136305 1_545
Ga0 Tm2 3.136305 1_555
Ga0 Tm4 3.136305 1_455
Ga0 Tm0 3.136305 1_445
Ga0 Tm1 3.136305 1_555
Ga0 Tm3 3.136305 1_556
Ga1 Ni6 2.464797 1_555
Ga1 Ni5 2.464797 1_554
Ga1 Ni2 2.464797 1_555
Ga1 Ni3 2.464797 1_455
Ga1 Ni4 2.464798 1_555
Ga1 Ni10 2.464798 1_454
Ga1 Tm1 3.136305 1_565
Ga1 Tm2 3.136305 1_555
Ga1 Tm3 3.136305 1_555
Ga1 Tm5 3.136305 1_554
Ga1 Tm4 3.136305 1_454
Ga1 Tm0 3.136305 1_455
Ga2 Ni6 2.464797 1_545
Ga2 Ni3 2.464797 1_555
Ga2 Ni1 2.464797 1_555
Ga2 Ni7 2.464797 1_554
Ga2 Ni8 2.464798 1_555
Ga2 Ni11 2.464798 1_544
Ga2 Tm5 3.136305 1_544
Ga2 Tm2 3.136305 1_655
Ga2 Tm0 3.136305 1_545
Ga2 Tm3 3.136305 1_555
Ga2 Tm4 3.136305 1_554
Ga2 Tm1 3.136305 1_555
Ga3 Ni9 2.464790 1_555
Ga3 Ni0 2.464790 1_555
Ga3 Ni4 2.464790 1_555
Ga3 Ni10 2.464790 1_555
Ga3 Ni8 2.464790 1_555
Ga3 Ni11 2.464790 1_555
Ga3 Tm0 3.136305 1_556
Ga3 Tm2 3.136305 1_555
Ga3 Tm3 3.136305 1_555
Ga3 Tm1 3.136305 1_555
Ga3 Tm4 3.136305 1_565
Ga3 Tm5 3.136305 1_655
Ni0 Ni10 2.546854 1_555
Ni0 Ni11 2.546854 1_555
Ni0 Ni7 2.546862 1_555
Ni0 Ni5 2.546862 1_555
Ni0 Tm0 2.731675 1_556
Ni0 Tm3 2.731681 1_556
Ni0 Ni3 2.844738 1_556
Ni0 Ni6 2.844738 1_556
Ni0 Tm2 3.014712 1_555
Ni0 Tm1 3.014712 1_555
Ni1 Ni6 2.546860 1_545
Ni1 Ni5 2.546860 1_655
Ni1 Ni8 2.546862 1_555
Ni1 Ni9 2.546862 1_545
Ni1 Tm1 2.731674 1_555
Ni1 Tm4 2.731674 1_555
Ni1 Ni10 2.844738 1_555
Ni1 Ni4 2.844738 1_545
Ni1 Tm0 3.014717 1_545
Ni1 Tm2 3.014717 1_655
Ni2 Ni3 2.546860 1_455
Ni2 Ni7 2.546860 1_565
Ni2 Ni4 2.546862 1_555
Ni2 Ni9 2.546862 1_455
Ni2 Tm2 2.731674 1_555
Ni2 Tm5 2.731674 1_555
Ni2 Ni8 2.844738 1_455
Ni2 Tm0 3.014717 1_455
Ni2 Tm1 3.014717 1_565
Ni3 Ni7 2.546860 1_554
Ni3 Ni8 2.546862 1_555
Ni3 Tm3 2.731674 1_555
Ni3 Tm0 2.731674 1_555
Ni3 Ni9 2.844738 1_555
Ni3 Tm4 3.014717 1_554
Ni3 Tm2 3.014717 1_655
Ni4 Ni9 2.546854 1_555
Ni4 Ni6 2.546862 1_555
Ni4 Tm4 2.731675 1_565
Ni4 Tm1 2.731681 1_565
Ni4 Ni7 2.844738 1_565
Ni4 Tm2 3.014712 1_555
Ni4 Tm3 3.014712 1_555
Ni5 Ni6 2.546860 1_556
Ni5 Tm2 2.731674 1_555
Ni5 Tm5 2.731674 1_555
Ni5 Ni8 2.844738 1_455
Ni5 Tm3 3.014717 1_556
Ni5 Tm4 3.014717 1_455
Ni6 Tm3 2.731674 1_555
Ni6 Tm0 2.731674 1_555
Ni6 Ni9 2.844738 1_555
Ni6 Tm1 3.014717 1_565
Ni6 Tm5 3.014717 1_554
Ni7 Tm1 2.731674 1_555
Ni7 Tm4 2.731674 1_555
Ni7 Tm3 3.014717 1_556
Ni7 Tm5 3.014717 1_545
Ni8 Ni9 2.546854 1_555
Ni8 Tm5 2.731675 1_655
Ni8 Tm2 2.731681 1_655
Ni8 Tm3 3.014712 1_555
Ni8 Tm1 3.014712 1_555
Ni9 Tm3 2.731675 1_555
Ni9 Tm0 2.731681 1_555
Ni9 Tm5 3.014712 1_655
Ni9 Tm4 3.014712 1_565
Ni10 Ni8 2.546854 1_555
Ni10 Ni5 2.546862 1_655
Ni10 Ni3 2.546862 1_556
Ni10 Tm1 2.731675 1_555
Ni10 Tm4 2.731681 1_555
Ni10 Ni7 2.844738 1_555
Ni10 Tm5 3.014712 1_655
Ni10 Tm0 3.014712 1_556
Ni11 Ni4 2.546854 1_555
Ni11 Ni6 2.546862 1_556
Ni11 Ni7 2.546862 1_565
Ni11 Tm2 2.731675 1_555
Ni11 Tm5 2.731681 1_555
Ni11 Ni2 2.844738 1_555
Ni11 Ni5 2.844738 1_555
Ni11 Tm0 3.014712 1_556
Ni11 Tm4 3.014712 1_565
