# generated using pymatgen
data_K3AlF6
_symmetry_space_group_name_H-M   'P 1'
_cell_length_a   8.55969706
_cell_length_b   10.29341642
_cell_length_c   10.29396937
_cell_angle_alpha   80.04125596
_cell_angle_beta   65.42885553
_cell_angle_gamma   65.43181947
_symmetry_Int_Tables_number   1
_chemical_formula_structural   K3AlF6
_chemical_formula_sum   'K15 Al5 F30'
_cell_volume   750.17842991
_cell_formula_units_Z   5
loop_
 _symmetry_equiv_pos_site_id
 _symmetry_equiv_pos_as_xyz
  1  'x, y, z'
loop_
 _atom_site_type_symbol
 _atom_site_label
 _atom_site_symmetry_multiplicity
 _atom_site_fract_x
 _atom_site_fract_y
 _atom_site_fract_z
 _atom_site_occupancy
  K  K0  1  0.25010903  0.49997996  0.49997067  1
  K  K1  1  0.74988761  0.50001837  0.50002894  1
  K  K2  1  0.51119913  0.32117906  0.10845988  1
  K  K3  1  0.94125536  0.67932136  0.89150224  1
  K  K4  1  0.83259820  0.10843150  0.67904500  1
  K  K5  1  0.62020992  0.89145700  0.32081581  1
  K  K6  1  0.48879711  0.67881745  0.89153545  1
  K  K7  1  0.05874722  0.32067956  0.10849208  1
  K  K8  1  0.16739743  0.89157540  0.32096233  1
  K  K9  1  0.37978964  0.10853666  0.67918221  1
  K  K10  1  0.50000117  0.00000002  0.00000174  1
  K  K11  1  0.08798593  0.64876318  0.17522335  1
  K  K12  1  0.91201395  0.35123429  0.82478053  1
  K  K13  1  0.73674575  0.17511357  0.35106121  1
  K  K14  1  0.26325553  0.82488495  0.64894275  1
  Al  Al0  1  0.00000303  0.00000057  0.00000015  1
  Al  Al1  1  0.59279789  0.60301768  0.21159190  1
  Al  Al2  1  0.40720715  0.39697882  0.78840829  1
  Al  Al3  1  0.19563371  0.21154980  0.39700667  1
  Al  Al4  1  0.80436349  0.78845160  0.60299642  1
  F  F0  1  0.87597347  0.18557550  0.06197181  1
  F  F1  1  0.12401711  0.81442353  0.93802792  1
  F  F2  1  0.06172683  0.06198925  0.81444185  1
  F  F3  1  0.93826451  0.93800953  0.18555896  1
  F  F4  1  0.79033672  0.99972823  -0.00004985  1
  F  F5  1  0.20964405  0.00027226  0.00004762  1
  F  F6  1  0.54770420  0.77561686  0.12848554  1
  F  F7  1  0.45229520  0.22438572  0.87151426  1
  F  F8  1  0.32341015  0.12842377  0.22445542  1
  F  F9  1  0.67659105  0.87157844  0.77554431  1
  F  F10  1  0.46152655  0.69187472  0.38518886  1
  F  F11  1  0.53847231  0.30812429  0.61481074  1
  F  F12  1  0.15321441  0.38514306  0.30804315  1
  F  F13  1  0.84678712  0.61485859  0.69195721  1
  F  F14  1  0.63565566  0.43291057  0.29643078  1
  F  F15  1  0.36435194  0.56709051  0.70356767  1
  F  F16  1  0.06814575  0.29647481  0.56701036  1
  F  F17  1  0.93185621  0.70352555  0.43299086  1
  F  F18  1  0.72229000  0.52092458  0.03458384  1
  F  F19  1  0.27772010  0.47907776  0.96541317  1
  F  F20  1  0.24320763  0.03468717  0.47917992  1
  F  F21  1  0.75679361  0.96531318  0.52081981  1
  F  F22  1  0.38155686  0.60347768  0.20820630  1
  F  F23  1  0.19328192  0.39615332  0.79202684  1
  F  F24  1  0.98520155  0.20791063  0.39637444  1
  F  F25  1  0.58967343  0.79184147  0.60377390  1
  F  F26  1  0.61845422  0.39651780  0.79178770  1
  F  F27  1  0.80671984  0.60385037  0.20797632  1
  F  F28  1  0.01480009  0.79209159  0.60362593  1
  F  F29  1  0.41032928  0.20815948  0.39622577  1
loop_
_geom_bond_atom_site_label_1
_geom_bond_atom_site_label_2
_geom_bond_distance
_geom_bond_site_symmetry_2
Al0 F5 1.795831 1_555
Al0 F4 1.796062 1_445
Al0 F2 1.831492 1_554
Al0 F3 1.831504 1_445
Al0 F0 1.831613 1_455
Al0 F1 1.831633 1_544
Al1 F14 1.779497 1_555
Al1 F6 1.793311 1_555
Al1 F27 1.819526 1_555
Al1 F22 1.820963 1_555
Al1 F10 1.825741 1_555
Al1 F18 1.826692 1_555
Al2 F15 1.779543 1_555
Al2 F7 1.793258 1_555
Al2 F23 1.819511 1_555
Al2 F26 1.820983 1_555
Al2 F11 1.825735 1_555
Al2 F19 1.826688 1_555
Al3 F16 1.779108 1_555
Al3 F8 1.793102 1_555
Al3 F24 1.819845 1_455
Al3 F29 1.820168 1_555
Al3 F20 1.825654 1_555
Al3 F12 1.826043 1_555
Al4 F17 1.779128 1_555
Al4 F9 1.793077 1_555
Al4 F28 1.819875 1_655
Al4 F25 1.820137 1_555
Al4 F21 1.825658 1_555
Al4 F13 1.826029 1_555
F0 K7 2.696955 1_655
F0 K2 2.700134 1_555
F0 K13 2.708165 1_555
F0 K12 2.708398 1_554
F1 K3 2.696879 1_455
F1 K6 2.700168 1_555
F1 K14 2.708125 1_555
F1 K11 2.708438 1_556
F2 K4 2.698327 1_455
F2 K9 2.698478 1_555
F2 K14 2.707000 1_545
F2 K12 2.709510 1_455
F3 K8 2.698429 1_655
F3 K5 2.698442 1_555
F3 K13 2.707015 1_565
F3 K11 2.709521 1_655
F4 K10 2.483802 1_565
F4 K3 3.213048 1_554
F4 K5 3.216920 1_555
F4 K4 3.218627 1_564
F4 K2 3.223284 1_565
F5 K10 2.484009 1_555
F5 K7 3.213071 1_555
F5 K9 3.216920 1_554
F5 K8 3.218725 1_545
F5 K6 3.223344 1_544
F6 K10 2.420519 1_565
F6 K8 2.858390 1_555
F6 K5 2.860163 1_555
F6 K6 3.078597 1_554
F6 K3 3.083346 1_554
F7 K10 2.420557 1_556
F7 K4 2.858343 1_555
F7 K9 2.860235 1_555
F7 K2 3.078505 1_556
F7 K7 3.083307 1_556
F8 K10 2.420975 1_555
F8 K7 2.859614 1_555
F8 K2 2.860536 1_555
F8 K8 3.079009 1_545
F8 K5 3.081195 1_545
F9 K10 2.420995 1_566
F9 K3 2.859591 1_555
F9 K6 2.860612 1_555
F9 K4 3.079023 1_565
F9 K9 3.081178 1_565
F10 K5 2.757811 1_555
F10 K8 2.758970 1_555
F10 K14 2.765475 1_555
F10 K1 2.992618 1_555
F10 K0 2.993251 1_555
F11 K9 2.757858 1_555
F11 K4 2.758964 1_555
F11 K13 2.765441 1_555
F11 K0 2.992629 1_555
F11 K1 2.993231 1_555
F12 K2 2.756562 1_555
F12 K7 2.759126 1_555
F12 K11 2.763371 1_555
F12 K1 2.993686 1_455
F12 K0 2.995713 1_555
F13 K6 2.756582 1_555
F13 K3 2.759073 1_555
F13 K12 2.763421 1_555
F13 K0 2.993659 1_655
F13 K1 2.995771 1_555
F14 K13 2.466943 1_555
F14 K1 2.931284 1_555
F14 K0 2.934780 1_555
F14 K7 3.108077 1_655
F14 K2 3.115214 1_555
F15 K14 2.466909 1_555
F15 K0 2.931356 1_555
F15 K1 2.934705 1_555
F15 K3 3.108100 1_455
F15 K6 3.115085 1_555
F16 K12 2.467073 1_455
F16 K1 2.933021 1_455
F16 K0 2.934183 1_555
F16 K4 3.111443 1_455
F16 K9 3.112797 1_555
F17 K11 2.467054 1_655
F17 K0 2.932985 1_655
F17 K1 2.934236 1_555
F17 K8 3.111459 1_655
F17 K5 3.112819 1_555
F18 K12 2.526210 1_554
F18 K6 2.779033 1_554
F18 K3 2.784841 1_554
F18 K7 3.076556 1_655
F18 K2 3.078345 1_555
F19 K11 2.526231 1_556
F19 K2 2.778950 1_556
F19 K7 2.784893 1_556
F19 K3 3.076616 1_455
F19 K6 3.078200 1_555
F20 K14 2.526464 1_545
F20 K5 2.782962 1_545
F20 K8 2.783423 1_545
F20 K9 3.076595 1_555
F20 K4 3.077349 1_455
F21 K13 2.526426 1_565
F21 K9 2.782959 1_565
F21 K4 2.783499 1_565
F21 K5 3.076657 1_555
F21 K8 3.077301 1_655
F22 K11 2.515529 1_555
F22 K2 2.851749 1_555
F22 K8 2.898695 1_555
F22 K0 2.915666 1_555
F22 K6 3.049485 1_554
F23 K12 2.514064 1_455
F23 K3 2.857396 1_455
F23 K9 2.894808 1_555
F23 K0 2.919265 1_555
F23 K7 3.048091 1_556
F24 K13 2.516131 1_555
F24 K4 2.853493 1_555
F24 K7 2.896916 1_655
F24 K1 2.919335 1_555
F24 K8 3.046664 1_645
F25 K14 2.514470 1_555
F25 K5 2.856673 1_555
F25 K6 2.896544 1_555
F25 K1 2.917258 1_555
F25 K9 3.049981 1_565
F26 K12 2.515493 1_555
F26 K6 2.851741 1_555
F26 K4 2.898549 1_555
F26 K1 2.915616 1_555
F26 K2 3.049491 1_556
F27 K11 2.514015 1_655
F27 K7 2.857439 1_655
F27 K5 2.894700 1_555
F27 K1 2.919242 1_555
F27 K3 3.048164 1_554
F28 K14 2.516129 1_555
F28 K8 2.853447 1_555
F28 K3 2.896867 1_455
F28 K0 2.919365 1_555
F28 K4 3.046722 1_465
F29 K13 2.514462 1_555
F29 K9 2.856669 1_555
F29 K2 2.896563 1_555
F29 K0 2.917228 1_555
F29 K5 3.050048 1_545
