# generated using pymatgen
data_Sm4V20(CuO4)15
_symmetry_space_group_name_H-M   'P 1'
_cell_length_a   10.48374474
_cell_length_b   12.28109901
_cell_length_c   10.48374474
_cell_angle_alpha   90.00000000
_cell_angle_beta   120.00000000
_cell_angle_gamma   115.26619497
_symmetry_Int_Tables_number   1
_chemical_formula_structural   Sm4V20(CuO4)15
_chemical_formula_sum   'Sm4 V20 Cu15 O60'
_cell_volume   1017.12848500
_cell_formula_units_Z   1
loop_
 _symmetry_equiv_pos_site_id
 _symmetry_equiv_pos_as_xyz
  1  'x, y, z'
loop_
 _atom_site_type_symbol
 _atom_site_label
 _atom_site_symmetry_multiplicity
 _atom_site_fract_x
 _atom_site_fract_y
 _atom_site_fract_z
 _atom_site_occupancy
  Sm  Sm0  1  0.99810800  0.99716300  0.99905400  1
  Sm  Sm1  1  0.39849100  0.59773700  0.19924600  1
  Sm  Sm2  1  0.80150900  0.20226300  0.40075400  1
  Sm  Sm3  1  0.20189200  0.80283700  0.60094600  1
  V  V0  1  0.79530100  0.69295100  0.89765000  1
  V  V1  1  0.40469900  0.10704900  0.70235000  1
  V  V2  1  0.99987900  0.49981900  0.49994000  1
  V  V3  1  0.20012100  0.30018100  0.10006000  1
  V  V4  1  0.60000000  0.90000000  0.30000000  1
  V  V5  1  0.69648600  0.30223600  0.60910100  1
  V  V6  1  0.30143100  0.69891900  0.39918600  1
  V  V7  1  0.89856900  0.10108100  0.20081400  1
  V  V8  1  0.10000000  0.90000000  0.80000000  1
  V  V9  1  0.50351400  0.49776400  0.99089900  1
  V  V10  1  0.21485100  0.30223600  0.60575000  1
  V  V11  1  0.79667400  0.69891900  0.39748800  1
  V  V12  1  0.40332600  0.10108100  0.20251200  1
  V  V13  1  0.60000000  0.90000000  0.80000000  1
  V  V14  1  0.98514900  0.49776400  0.99425000  1
  V  V15  1  0.50686500  0.49776400  0.51261500  1
  V  V16  1  0.10000000  0.90000000  0.30000000  1
  V  V17  1  0.69313500  0.30223600  0.08738500  1
  V  V18  1  0.90026700  0.10108100  0.69775500  1
  V  V19  1  0.29973300  0.69891900  0.90224500  1
  Cu  Cu0  1  0.10000000  0.40000000  0.30000000  1
  Cu  Cu1  1  0.69966100  0.79925600  0.10026400  1
  Cu  Cu2  1  0.29980400  0.19950300  0.90180500  1
  Cu  Cu3  1  0.50033900  0.00074400  0.49973600  1
  Cu  Cu4  1  0.90019600  0.60049700  0.69819500  1
  Cu  Cu5  1  0.39849600  0.60049700  0.70030100  1
  Cu  Cu6  1  0.00014200  0.00074400  0.50040500  1
  Cu  Cu7  1  0.60000000  0.40000000  0.30000000  1
  Cu  Cu8  1  0.80150400  0.19950300  0.89969900  1
  Cu  Cu9  1  0.19985800  0.79925600  0.09959500  1
  Cu  Cu10  1  0.29769800  0.19950300  0.39799900  1
  Cu  Cu11  1  0.90230200  0.60049700  0.20200100  1
  Cu  Cu12  1  0.50100800  0.00074400  0.00060300  1
  Cu  Cu13  1  0.69899200  0.79925600  0.59939700  1
  Cu  Cu14  1  0.10000000  0.40000000  0.80000000  1
  O  O0  1  0.02376500  0.15262600  0.60383800  1
  O  O1  1  0.42130100  0.75140600  0.80052800  1
  O  O2  1  0.83302800  0.34738600  0.00921700  1
  O  O3  1  0.22602400  0.95063200  0.20078500  1
  O  O4  1  0.62501400  0.54853800  0.40043200  1
  O  O5  1  0.77869900  0.04859400  0.79947200  1
  O  O6  1  0.17623500  0.64737400  0.99616200  1
  O  O7  1  0.57498600  0.25146200  0.19956800  1
  O  O8  1  0.97397600  0.84936800  0.39921500  1
  O  O9  1  0.36697200  0.45261400  0.59078300  1
  O  O10  1  0.61934800  0.20683500  0.71539200  1
  O  O11  1  0.01532900  0.81071100  0.91604600  1
  O  O12  1  0.40989300  0.40710900  0.11765400  1
  O  O13  1  0.81578400  0.01156100  0.31911400  1
  O  O14  1  0.20819500  0.60758200  0.51753100  1
  O  O15  1  0.18467100  0.98928900  0.68395400  1
  O  O16  1  0.58065200  0.59316500  0.88460800  1
  O  O17  1  0.99180500  0.19241800  0.08246900  1
  O  O18  1  0.38421600  0.78843900  0.28088600  1
  O  O19  1  0.79010700  0.39289100  0.48234600  1
  O  O20  1  0.87604300  0.25146200  0.67647500  1
  O  O21  1  0.27460700  0.84936800  0.87539200  1
  O  O22  1  0.67642500  0.45261400  0.08564200  1
  O  O23  1  0.06936600  0.04859400  0.26989400  1
  O  O24  1  0.46730100  0.64737400  0.47113900  1
  O  O25  1  0.92539300  0.95063200  0.72460800  1
  O  O26  1  0.32395700  0.54853800  0.92352500  1
  O  O27  1  0.73269900  0.15262600  0.12886100  1
  O  O28  1  0.13063400  0.75140600  0.33010600  1
  O  O29  1  0.52357500  0.34738600  0.51435800  1
  O  O30  1  0.68510900  0.78843900  0.40422300  1
  O  O31  1  0.08513000  0.39289100  0.60278400  1
  O  O32  1  0.48857200  0.98928900  0.80461800  1
  O  O33  1  0.89712200  0.59316500  0.01251400  1
  O  O34  1  0.28308300  0.19241800  0.20061300  1
  O  O35  1  0.11487000  0.40710900  0.99721600  1
  O  O36  1  0.51489100  0.01156100  0.19577700  1
  O  O37  1  0.91691800  0.60758200  0.39938700  1
  O  O38  1  0.30287800  0.20683500  0.58748600  1
  O  O39  1  0.71142800  0.81071100  0.79538200  1
  O  O40  1  0.69244700  0.01156100  0.49667000  1
  O  O41  1  0.09005100  0.60758200  0.69066500  1
  O  O42  1  0.49144300  0.20683500  0.90395700  1
  O  O43  1  0.89466500  0.81071100  0.09928300  1
  O  O44  1  0.28945500  0.40710900  0.29223900  1
  O  O45  1  0.10994900  0.19241800  0.90933500  1
  O  O46  1  0.50755300  0.78843900  0.10333000  1
  O  O47  1  0.91054500  0.39289100  0.30776100  1
  O  O48  1  0.30533500  0.98928900  0.50071700  1
  O  O49  1  0.70855700  0.59316500  0.69604300  1
  O  O50  1  0.33816900  0.34738600  0.82381100  1
  O  O51  1  0.74984700  0.95063200  0.02523900  1
  O  O52  1  0.14810600  0.54853800  0.22458200  1
  O  O53  1  0.54878800  0.15262600  0.41992700  1
  O  O54  1  0.95087800  0.75140600  0.62077200  1
  O  O55  1  0.45015300  0.84936800  0.57476100  1
  O  O56  1  0.86183100  0.45261400  0.77618900  1
  O  O57  1  0.24912200  0.04859400  0.97922800  1
  O  O58  1  0.65121200  0.64737400  0.18007300  1
  O  O59  1  0.05189400  0.25146200  0.37541800  1
loop_
_geom_bond_atom_site_label_1
_geom_bond_atom_site_label_2
_geom_bond_distance
_geom_bond_site_symmetry_2
Cu0 O52 1.954644 1_555
Cu0 O59 1.954644 1_555
Cu0 O47 1.993189 1_455
Cu0 O44 1.993189 1_555
Cu1 O46 1.977692 1_555
Cu1 O51 1.982535 1_555
Cu1 O43 1.993707 1_555
Cu1 O58 2.013337 1_555
Cu2 O50 1.958090 1_555
Cu2 O42 1.960948 1_555
Cu2 O57 1.991639 1_555
Cu2 O45 1.996183 1_555
Cu3 O40 1.977692 1_555
Cu3 O55 1.982535 1_545
Cu3 O48 1.993707 1_545
Cu3 O53 2.013337 1_555
Cu4 O56 1.958090 1_555
Cu4 O49 1.960948 1_555
Cu4 O54 1.991639 1_555
Cu4 O41 1.996183 1_655
Cu5 O9 1.958090 1_555
Cu5 O16 1.960953 1_555
Cu5 O1 1.991634 1_555
Cu5 O14 1.996189 1_555
Cu6 O13 1.977697 1_455
Cu6 O8 1.982529 1_445
Cu6 O15 1.993702 1_545
Cu6 O0 2.013343 1_555
Cu7 O4 1.954644 1_555
Cu7 O7 1.954644 1_555
Cu7 O12 1.993189 1_555
Cu7 O19 1.993189 1_555
Cu8 O2 1.958090 1_556
Cu8 O10 1.960953 1_555
Cu8 O5 1.991634 1_555
Cu8 O17 1.996189 1_556
Cu9 O18 1.977697 1_555
Cu9 O3 1.982529 1_555
Cu9 O11 1.993702 1_554
Cu9 O6 2.013343 1_554
Cu10 O29 1.958090 1_555
Cu10 O38 1.960948 1_555
Cu10 O23 1.991639 1_555
Cu10 O34 1.996193 1_555
Cu11 O22 1.958090 1_555
Cu11 O33 1.960948 1_555
Cu11 O28 1.991639 1_655
Cu11 O37 1.996189 1_555
Cu12 O36 1.977692 1_555
Cu12 O21 1.982535 1_544
Cu12 O32 1.993707 1_544
Cu12 O27 2.013337 1_555
Cu13 O30 1.977692 1_555
Cu13 O25 1.982535 1_555
Cu13 O39 1.993707 1_555
Cu13 O24 2.013337 1_555
Cu14 O26 1.954650 1_555
Cu14 O20 1.954650 1_455
Cu14 O35 1.993189 1_555
Cu14 O31 1.993189 1_555
O0 V18 1.903052 1_455
O0 V10 2.051164 1_555
O0 Sm2 2.566214 1_455
O1 V19 1.958255 1_555
O1 V13 1.982910 1_555
O1 Sm3 2.548596 1_555
O2 V17 1.907255 1_555
O2 V14 1.927356 1_554
O3 V16 1.971564 1_555
O3 V12 1.975823 1_565
O3 Sm0 2.573107 1_454
O4 V11 1.966926 1_555
O4 V15 2.025761 1_555
O4 Sm1 2.582527 1_555
O5 V18 1.958255 1_555
O5 V13 1.982910 1_545
O5 Sm0 2.548596 1_545
O6 V19 1.903052 1_555
O6 V14 2.051164 1_455
O6 Sm1 2.566214 1_556
O7 V12 1.966926 1_555
O7 V17 2.025761 1_555
O7 Sm2 2.582527 1_555
O8 V16 1.971564 1_655
O8 V11 1.975823 1_555
O8 Sm3 2.573107 1_655
O9 V15 1.907255 1_555
O9 V10 1.927356 1_555
O10 V5 1.833236 1_555
O10 V1 1.980567 1_555
O11 V8 1.928607 1_555
O11 V0 2.038880 1_455
O11 Sm0 2.557981 1_455
O12 V3 1.929769 1_555
O12 V9 2.083320 1_554
O12 Sm1 2.562805 1_555
O13 V7 1.939577 1_555
O13 V4 1.983885 1_545
O13 Sm2 2.582120 1_555
O14 V2 1.919637 1_455
O14 V6 2.007432 1_555
O14 Sm3 2.590814 1_555
O15 V8 1.928607 1_555
O15 V1 2.038880 1_565
O15 Sm3 2.557981 1_555
O16 V9 1.833236 1_555
O16 V0 1.980567 1_555
O17 V3 1.919637 1_655
O17 V7 2.007432 1_555
O17 Sm0 2.590814 1_544
O18 V6 1.939577 1_555
O18 V4 1.983885 1_555
O18 Sm1 2.582120 1_555
O19 V2 1.929769 1_555
O19 V5 2.083320 1_555
O19 Sm2 2.562805 1_555
O20 V18 1.966932 1_555
O20 V5 2.025753 1_555
O20 Sm2 2.582524 1_555
O21 V8 1.971564 1_555
O21 V19 1.975823 1_555
O21 Sm3 2.573100 1_555
O22 V9 1.907255 1_554
O22 V17 1.927356 1_555
O23 V7 1.958247 1_455
O23 V16 1.982916 1_545
O23 Sm0 2.548596 1_444
O24 V6 1.903052 1_555
O24 V15 2.051164 1_555
O24 Sm1 2.566210 1_555
O25 V8 1.971564 1_655
O25 V18 1.975823 1_565
O25 Sm0 2.573100 1_555
O26 V19 1.966932 1_555
O26 V9 2.025753 1_555
O26 Sm1 2.582524 1_556
O27 V7 1.903052 1_555
O27 V17 2.051164 1_555
O27 Sm2 2.566210 1_555
O28 V6 1.958247 1_555
O28 V16 1.982916 1_555
O28 Sm3 2.548596 1_555
O29 V5 1.907255 1_555
O29 V15 1.927356 1_555
O30 V11 1.939577 1_555
O30 V4 1.983885 1_555
O30 Sm1 2.582124 1_555
O31 V2 1.929774 1_455
O31 V10 2.083320 1_555
O31 Sm2 2.562801 1_455
O32 V13 1.928607 1_555
O32 V1 2.038885 1_565
O32 Sm3 2.557975 1_555
O33 V14 1.833232 1_554
O33 V0 1.980570 1_554
O34 V3 1.919637 1_555
O34 V12 2.007423 1_555
O34 Sm0 2.590823 1_444
O35 V3 1.929774 1_556
O35 V14 2.083320 1_455
O35 Sm1 2.562801 1_556
O36 V12 1.939577 1_555
O36 V4 1.983885 1_545
O36 Sm2 2.582124 1_555
O37 V2 1.919632 1_555
O37 V11 2.007432 1_555
O37 Sm3 2.590820 1_655
O38 V10 1.833232 1_555
O38 V1 1.980570 1_555
O39 V13 1.928607 1_555
O39 V0 2.038885 1_555
O39 Sm0 2.557975 1_555
O40 V18 1.939577 1_555
O40 V4 1.983885 1_545
O40 Sm2 2.582127 1_555
O41 V2 1.919637 1_455
O41 V19 2.007426 1_555
O41 Sm3 2.590822 1_555
O42 V17 1.833232 1_556
O42 V1 1.980567 1_555
O43 V16 1.928607 1_655
O43 V0 2.038888 1_554
O43 Sm0 2.557979 1_554
O44 V3 1.929777 1_555
O44 V15 2.083320 1_555
O44 Sm1 2.562799 1_555
O45 V3 1.919637 1_556
O45 V18 2.007426 1_455
O45 Sm0 2.590822 1_445
O46 V19 1.939577 1_554
O46 V4 1.983885 1_555
O46 Sm1 2.582127 1_555
O47 V2 1.929777 1_555
O47 V17 2.083320 1_555
O47 Sm2 2.562799 1_555
O48 V16 1.928607 1_555
O48 V1 2.038888 1_565
O48 Sm3 2.557979 1_555
O49 V15 1.833232 1_555
O49 V0 1.980567 1_555
O50 V10 1.907255 1_555
O50 V9 1.927356 1_555
O51 V13 1.971564 1_554
O51 V7 1.975823 1_565
O51 Sm0 2.573097 1_554
O52 V6 1.966926 1_555
O52 V14 2.025761 1_454
O52 Sm1 2.582521 1_555
O53 V12 1.903052 1_555
O53 V5 2.051164 1_555
O53 Sm2 2.566220 1_555
O54 V11 1.958247 1_555
O54 V8 1.982916 1_655
O54 Sm3 2.548600 1_655
O55 V13 1.971564 1_555
O55 V6 1.975823 1_555
O55 Sm3 2.573097 1_555
O56 V14 1.907255 1_555
O56 V5 1.927356 1_555
O57 V12 1.958247 1_556
O57 V8 1.982916 1_545
O57 Sm0 2.548600 1_445
O58 V11 1.903052 1_555
O58 V9 2.051164 1_554
O58 Sm1 2.566220 1_555
O59 V7 1.966926 1_455
O59 V10 2.025761 1_555
O59 Sm2 2.582521 1_455
