# generated using pymatgen
data_MgAl4(HO)12
_symmetry_space_group_name_H-M   'P 1'
_cell_length_a   6.97099252
_cell_length_b   7.73543846
_cell_length_c   7.84662106
_cell_angle_alpha   110.37400403
_cell_angle_beta   141.23640875
_cell_angle_gamma   86.33467784
_symmetry_Int_Tables_number   1
_chemical_formula_structural   MgAl4(HO)12
_chemical_formula_sum   'Mg1 Al4 H12 O12'
_cell_volume   232.30222683
_cell_formula_units_Z   1
loop_
 _symmetry_equiv_pos_site_id
 _symmetry_equiv_pos_as_xyz
  1  'x, y, z'
loop_
 _atom_site_type_symbol
 _atom_site_label
 _atom_site_symmetry_multiplicity
 _atom_site_fract_x
 _atom_site_fract_y
 _atom_site_fract_z
 _atom_site_occupancy
  Mg  Mg0  1  0.78987200  0.11927000  0.41989900  1
  Al  Al0  1  0.39786000  0.81524800  0.26105600  1
  Al  Al1  1  0.54591900  0.15478000  0.70980900  1
  Al  Al2  1  0.94495900  0.67072900  0.59910100  1
  Al  Al3  1  0.04219400  0.34485400  0.34722800  1
  H  H0  1  0.01056500  0.03267600  0.78177000  1
  H  H1  1  0.93365400  0.99039400  0.18820600  1
  H  H2  1  0.63870700  0.49932400  0.92288400  1
  H  H3  1  0.34018900  0.44229700  0.12285100  1
  H  H4  1  0.15555400  0.70389100  0.44641700  1
  H  H5  1  0.17139900  0.43704200  0.78967300  1
  H  H6  1  0.25415200  0.14241800  0.22603600  1
  H  H7  1  0.62617000  0.82709200  0.69152400  1
  H  H8  1  0.54327400  0.74594500  0.04214700  1
  H  H9  1  0.40420200  0.22955800  0.94231400  1
  H  H10  1  0.16195700  0.24803500  0.86984300  1
  H  H11  1  0.81274400  0.59188400  0.80369600  1
  O  O0  1  0.87136300  0.90676200  0.58899000  1
  O  O1  1  0.06592300  0.09355100  0.39166700  1
  O  O2  1  0.50851900  0.41509600  0.71218600  1
  O  O3  1  0.48836000  0.58195600  0.25094200  1
  O  O4  1  0.00290400  0.60413600  0.38268900  1
  O  O5  1  0.98978900  0.42095600  0.57783700  1
  O  O6  1  0.44740100  0.08890800  0.37114700  1
  O  O7  1  0.43908100  0.86685700  0.54372700  1
  O  O8  1  0.40721400  0.81970600  0.01080300  1
  O  O9  1  0.58656500  0.20808400  0.99230300  1
  O  O10  1  0.99436500  0.23455300  0.06544000  1
  O  O11  1  0.94882900  0.70837200  0.87249400  1
loop_
_geom_bond_atom_site_label_1
_geom_bond_atom_site_label_2
_geom_bond_distance
_geom_bond_site_symmetry_2
Mg0 O1 2.092111 1_655
Mg0 O6 2.118001 1_555
Mg0 O5 2.152388 1_555
Mg0 O0 2.238114 1_545
Mg0 O8 2.246579 1_545
Al0 O11 1.862824 1_454
Al0 O3 1.869153 1_555
Al0 O7 1.888310 1_555
Al0 O6 1.923962 1_565
Al0 O0 1.950022 1_555
Al0 O8 2.026929 1_555
Al1 O10 1.839562 1_556
Al1 O9 1.887540 1_555
Al1 O7 1.972555 1_545
Al1 O1 2.001343 1_555
Al1 O2 2.009340 1_555
Al1 O6 2.012144 1_555
Al2 O3 1.865161 1_555
Al2 O0 1.876363 1_555
Al2 O5 1.907400 1_555
Al2 O4 1.935477 1_655
Al2 O8 1.948469 1_656
Al2 O11 2.040407 1_555
Al3 O10 1.816912 1_455
Al3 O9 1.883388 1_454
Al3 O2 1.920517 1_555
Al3 O4 1.958351 1_555
Al3 O5 2.003987 1_455
Al3 O1 2.066099 1_555
H0 O0 0.992149 1_445
H1 O1 0.973201 1_665
H2 O2 0.983443 1_555
H3 O3 1.005899 1_555
H4 O4 0.992141 1_555
H5 O5 0.987726 1_455
H6 O6 1.071169 1_555
H6 O10 1.508976 1_455
H7 O7 0.989384 1_555
H8 O8 0.974875 1_555
H9 O9 1.018960 1_555
H10 H9 1.312886 1_555
H10 Mg0 1.945631 1_455
H11 O11 0.987561 1_555
