# generated using pymatgen
data_Ho2Ga8Fe
_symmetry_space_group_name_H-M   'P 1'
_cell_length_a   4.24592700
_cell_length_b   4.24592700
_cell_length_c   11.06580300
_cell_angle_alpha   90.00000000
_cell_angle_beta   90.00000000
_cell_angle_gamma   90.00000000
_symmetry_Int_Tables_number   1
_chemical_formula_structural   Ho2Ga8Fe
_chemical_formula_sum   'Ho2 Ga8 Fe1'
_cell_volume   199.49314663
_cell_formula_units_Z   1
loop_
 _symmetry_equiv_pos_site_id
 _symmetry_equiv_pos_as_xyz
  1  'x, y, z'
loop_
 _atom_site_type_symbol
 _atom_site_label
 _atom_site_symmetry_multiplicity
 _atom_site_fract_x
 _atom_site_fract_y
 _atom_site_fract_z
 _atom_site_occupancy
  Ho  Ho0  1  0.00000000  0.00000000  0.69501600  1
  Ho  Ho1  1  0.00000000  0.00000000  0.30498400  1
  Ga  Ga0  1  0.50000000  0.00000000  0.50000000  1
  Ga  Ga1  1  0.00000000  0.50000000  0.50000000  1
  Ga  Ga2  1  0.50000000  0.50000000  0.69985400  1
  Ga  Ga3  1  0.50000000  0.50000000  0.30014600  1
  Ga  Ga4  1  0.50000000  0.00000000  0.88503100  1
  Ga  Ga5  1  0.00000000  0.50000000  0.88503100  1
  Ga  Ga6  1  0.50000000  0.00000000  0.11496900  1
  Ga  Ga7  1  0.00000000  0.50000000  0.11496900  1
  Fe  Fe0  1  0.00000000  0.00000000  0.00000000  1
loop_
_geom_bond_atom_site_label_1
_geom_bond_atom_site_label_2
_geom_bond_distance
_geom_bond_site_symmetry_2
Ga0 Ho0 3.027206 1_655
Ga0 Ho0 3.027206 1_555
Ga0 Ho1 3.027206 1_655
Ga0 Ho1 3.027206 1_555
Ga0 Ga2 3.065600 1_545
Ga0 Ga2 3.065600 1_555
Ga0 Ga3 3.065600 1_545
Ga0 Ga3 3.065600 1_555
Ga1 Ho0 3.027206 1_555
Ga1 Ho0 3.027206 1_565
Ga1 Ho1 3.027206 1_565
Ga1 Ho1 3.027206 1_555
Ga1 Ga2 3.065600 1_555
Ga1 Ga2 3.065600 1_455
Ga1 Ga3 3.065600 1_555
Ga1 Ga3 3.065600 1_455
Ga2 Ga5 2.950579 1_555
Ga2 Ga4 2.950579 1_555
Ga2 Ga5 2.950579 1_655
Ga2 Ga4 2.950579 1_565
Ga2 Ho0 3.002801 1_655
Ga2 Ho0 3.002801 1_665
Ga2 Ho0 3.002801 1_565
Ga2 Ho0 3.002801 1_555
Ga3 Ga6 2.950579 1_555
Ga3 Ga6 2.950579 1_565
Ga3 Ga7 2.950579 1_655
Ga3 Ga7 2.950579 1_555
Ga3 Ho1 3.002801 1_655
Ga3 Ho1 3.002801 1_665
Ga3 Ho1 3.002801 1_555
Ga3 Ho1 3.002801 1_565
Ga4 Ga6 2.544449 1_556
Ga4 Ho0 2.988008 1_555
Ga4 Ho0 2.988008 1_655
Ga4 Ga5 3.002324 1_545
Ga4 Ga5 3.002324 1_645
Ga4 Ga5 3.002324 1_555
Ga4 Ga5 3.002324 1_655
Ga5 Ga7 2.544449 1_556
Ga5 Ho0 2.988008 1_555
Ga5 Ho0 2.988008 1_565
Ga6 Ho1 2.988008 1_655
Ga6 Ho1 2.988008 1_555
Ga6 Ga7 3.002324 1_645
Ga6 Ga7 3.002324 1_655
Ga6 Ga7 3.002324 1_545
Ga6 Ga7 3.002324 1_555
Ga7 Ho1 2.988008 1_565
Ga7 Ho1 2.988008 1_555
Fe0 Ga4 2.474981 1_554
Fe0 Ga5 2.474981 1_544
Fe0 Ga6 2.474981 1_555
Fe0 Ga5 2.474981 1_554
Fe0 Ga4 2.474981 1_454
Fe0 Ga7 2.474981 1_545
Fe0 Ga6 2.474981 1_455
Fe0 Ga7 2.474981 1_555
