# generated using pymatgen
data_Ba3UIn2O9
_symmetry_space_group_name_H-M   'P 1'
_cell_length_a   6.09127175
_cell_length_b   6.09127175
_cell_length_c   7.51729900
_cell_angle_alpha   90.00000000
_cell_angle_beta   90.00000000
_cell_angle_gamma   119.99999724
_symmetry_Int_Tables_number   1
_chemical_formula_structural   Ba3UIn2O9
_chemical_formula_sum   'Ba3 U1 In2 O9'
_cell_volume   241.55076545
_cell_formula_units_Z   1
loop_
 _symmetry_equiv_pos_site_id
 _symmetry_equiv_pos_as_xyz
  1  'x, y, z'
loop_
 _atom_site_type_symbol
 _atom_site_label
 _atom_site_symmetry_multiplicity
 _atom_site_fract_x
 _atom_site_fract_y
 _atom_site_fract_z
 _atom_site_occupancy
  Ba  Ba0  1  0.00000000  0.00000000  0.50000000  1
  Ba  Ba1  1  0.66666700  0.33333300  0.80088700  1
  Ba  Ba2  1  0.33333300  0.66666700  0.19911300  1
  U  U0  1  0.00000000  0.00000000  0.00000000  1
  In  In0  1  0.66666700  0.33333300  0.33698600  1
  In  In1  1  0.33333300  0.66666700  0.66301400  1
  O  O0  1  0.67531400  0.83765700  0.83941600  1
  O  O1  1  0.32468600  0.16234300  0.16058400  1
  O  O2  1  0.00000000  0.50000000  0.50000000  1
  O  O3  1  0.50000000  0.00000000  0.50000000  1
  O  O4  1  0.16234300  0.32468600  0.83941600  1
  O  O5  1  0.83765700  0.67531400  0.16058400  1
  O  O6  1  0.50000000  0.50000000  0.50000000  1
  O  O7  1  0.16234300  0.83765700  0.83941600  1
  O  O8  1  0.83765700  0.16234300  0.16058400  1
loop_
_geom_bond_atom_site_label_1
_geom_bond_atom_site_label_2
_geom_bond_distance
_geom_bond_site_symmetry_2
Ba0 O2 3.045636 1_555
Ba0 O3 3.045636 1_455
Ba0 O3 3.045636 1_555
Ba0 O2 3.045636 1_545
Ba0 O6 3.045636 1_555
Ba0 O6 3.045636 1_445
Ba0 O7 3.073066 1_545
Ba0 O8 3.073066 1_455
Ba0 O4 3.073066 1_555
Ba0 O0 3.073066 1_445
Ba0 O5 3.073066 1_445
Ba0 O1 3.073066 1_555
Ba1 O2 2.864954 1_655
Ba1 O3 2.864954 1_555
Ba1 O6 2.864957 1_555
Ba1 O4 3.059714 1_655
Ba1 O0 3.059714 1_545
Ba1 O7 3.059717 1_655
Ba1 O7 3.059717 1_545
Ba1 O4 3.059720 1_555
Ba1 O0 3.059720 1_555
Ba1 O8 3.250508 1_556
Ba1 O1 3.250511 1_556
Ba1 O5 3.250511 1_556
Ba2 O2 2.864954 1_555
Ba2 O3 2.864954 1_565
Ba2 O6 2.864957 1_555
Ba2 O1 3.059714 1_565
Ba2 O5 3.059714 1_455
Ba2 O8 3.059717 1_565
Ba2 O8 3.059717 1_455
Ba2 O1 3.059720 1_555
Ba2 O5 3.059720 1_555
Ba2 O7 3.250508 1_554
Ba2 O0 3.250511 1_554
Ba2 O4 3.250511 1_554
In0 O2 2.143275 1_655
In0 O3 2.143275 1_555
In0 O6 2.143279 1_555
In0 O8 2.238953 1_555
In0 O5 2.238957 1_555
In0 O1 2.238957 1_555
In1 O2 2.143275 1_555
In1 O3 2.143275 1_565
In1 O6 2.143279 1_555
In1 O7 2.238953 1_555
In1 O4 2.238957 1_555
In1 O0 2.238957 1_555
O0 U0 2.095436 1_666
O1 U0 2.095436 1_555
O4 U0 2.095436 1_556
O5 U0 2.095436 1_665
O7 U0 2.095436 1_566
O8 U0 2.095436 1_655
