# generated using pymatgen
data_MgV12Zn6O24
_symmetry_space_group_name_H-M   'P 1'
_cell_length_a   6.05069460
_cell_length_b   6.04869756
_cell_length_c   18.59582381
_cell_angle_alpha   60.47924563
_cell_angle_beta   60.71030781
_cell_angle_gamma   59.24994908
_symmetry_Int_Tables_number   1
_chemical_formula_structural   MgV12Zn6O24
_chemical_formula_sum   'Mg1 V12 Zn6 O24'
_cell_volume   482.66443185
_cell_formula_units_Z   1
loop_
 _symmetry_equiv_pos_site_id
 _symmetry_equiv_pos_as_xyz
  1  'x, y, z'
loop_
 _atom_site_type_symbol
 _atom_site_label
 _atom_site_symmetry_multiplicity
 _atom_site_fract_x
 _atom_site_fract_y
 _atom_site_fract_z
 _atom_site_occupancy
  Mg  Mg0  1  0.99912682  0.99564370  0.16826403  1
  V  V0  1  0.00080649  0.49884970  0.16616338  1
  V  V1  1  0.49829854  0.49592248  0.16751955  1
  V  V2  1  0.00394287  0.49078684  0.50475862  1
  V  V3  1  0.50123257  0.99764148  0.16632113  1
  V  V4  1  0.50003331  0.49888890  0.33547590  1
  V  V5  1  0.49550520  0.49311773  0.50441513  1
  V  V6  1  0.99918239  0.50856604  0.82827864  1
  V  V7  1  0.49337178  0.00173479  0.50495998  1
  V  V8  1  0.50537059  0.00163954  0.82825293  1
  V  V9  1  0.49733824  0.50228870  0.66568944  1
  V  V10  1  0.50562803  0.50824871  0.82819108  1
  V  V11  1  0.87306860  0.87224512  0.95931339  1
  Zn  Zn0  1  0.15451265  0.15487138  0.01429456  1
  Zn  Zn1  1  0.12924737  0.12892384  0.37332431  1
  Zn  Zn2  1  0.49657021  0.49688770  0.00214652  1
  Zn  Zn3  1  0.12587365  0.12982537  0.70574205  1
  Zn  Zn4  1  0.84057244  0.84459295  0.32186104  1
  Zn  Zn5  1  0.87411480  0.87496263  0.62338584  1
  O  O0  1  0.24330797  0.24405405  0.08770142  1
  O  O1  1  0.26603746  0.26503289  0.23856356  1
  O  O2  1  0.24723069  0.74587818  0.08885869  1
  O  O3  1  0.74552140  0.24725954  0.08901174  1
  O  O4  1  0.26056736  0.74206489  0.24676567  1
  O  O5  1  0.26513905  0.27006333  0.41713228  1
  O  O6  1  0.74837991  0.25586325  0.24636414  1
  O  O7  1  0.74154353  0.73837949  0.08795812  1
  O  O8  1  0.26625774  0.72109864  0.41976277  1
  O  O9  1  0.25929910  0.26161106  0.57680784  1
  O  O10  1  0.75048692  0.74485058  0.24881409  1
  O  O11  1  0.72031603  0.26971585  0.41887649  1
  O  O12  1  0.27564848  0.73046778  0.58398698  1
  O  O13  1  0.25203237  0.26707919  0.75292764  1
  O  O14  1  0.73792127  0.27420278  0.58252202  1
  O  O15  1  0.72815898  0.72400473  0.44061213  1
  O  O16  1  0.27388157  0.27387737  0.89383641  1
  O  O17  1  0.26199636  0.72286681  0.75302792  1
  O  O18  1  0.73832388  0.72819325  0.58502689  1
  O  O19  1  0.71886723  0.25435043  0.75179888  1
  O  O20  1  0.27277639  0.75773418  0.91018379  1
  O  O21  1  0.73673851  0.74104122  0.75909604  1
  O  O22  1  0.74020675  0.27348685  0.90994974  1
  O  O23  1  0.75555653  0.74077102  0.90991125  1
loop_
_geom_bond_atom_site_label_1
_geom_bond_atom_site_label_2
_geom_bond_distance
_geom_bond_site_symmetry_2
Mg0 O2 2.103963 1_655
Mg0 O3 2.111188 1_565
Mg0 O6 2.131521 1_565
Mg0 O4 2.134903 1_655
Mg0 O0 2.137996 1_665
Mg0 O10 2.167438 1_555
O0 Zn0 2.045165 1_555
O0 V0 2.113268 1_555
O0 V3 2.121538 1_545
O0 Zn2 2.198069 1_555
O1 V1 2.010700 1_555
O1 Zn1 2.068089 1_555
O1 V0 2.074849 1_555
O1 V3 2.088732 1_545
O2 Zn0 2.078195 1_565
O2 V1 2.092713 1_555
O2 V0 2.141627 1_555
O2 Zn2 2.198615 1_555
O3 Zn0 2.086520 1_655
O3 V1 2.087508 1_555
O3 V3 2.143634 1_545
O3 Zn2 2.193068 1_555
O4 V1 2.086983 1_555
O4 Zn4 2.135948 1_455
O4 V3 2.153998 1_555
O4 V4 2.179998 1_555
O5 V4 2.017489 1_555
O5 Zn1 2.031532 1_555
O5 V2 2.098067 1_555
O5 V7 2.123983 1_555
O6 V1 2.091339 1_555
O6 Zn4 2.091907 1_545
O6 V0 2.150310 1_655
O6 V4 2.206855 1_555
O7 V11 1.974614 1_554
O7 V1 2.108140 1_555
O7 V0 2.122876 1_655
O7 V3 2.131684 1_555
O8 Zn1 2.007017 1_565
O8 V4 2.055897 1_555
O8 V5 2.084456 1_555
O8 V2 2.143500 1_555
O9 Zn3 1.979015 1_555
O9 V2 2.027066 1_555
O9 V5 2.030285 1_555
O9 V7 2.050244 1_555
O10 Zn4 2.091560 1_555
O10 V0 2.131147 1_655
O10 V3 2.135369 1_555
O10 V4 2.158740 1_555
O11 Zn1 2.017526 1_655
O11 V4 2.029281 1_555
O11 V5 2.080388 1_555
O11 V7 2.154942 1_555
O12 Zn5 1.980249 1_455
O12 V9 2.011705 1_555
O12 V5 2.057866 1_555
O12 V7 2.127733 1_565
O13 Zn3 2.015734 1_555
O13 V6 2.017894 1_455
O13 V8 2.063358 1_555
O13 V9 2.094710 1_555
O14 Zn5 1.964055 1_545
O14 V5 2.053670 1_555
O14 V9 2.064093 1_555
O14 V2 2.100036 1_655
O15 Zn4 1.822496 1_555
O15 V2 2.019799 1_655
O15 V5 2.020645 1_555
O15 V7 2.037004 1_565
O16 Zn0 1.848545 1_556
O16 V8 2.027298 1_555
O16 V10 2.029435 1_555
O16 V6 2.031847 1_455
O17 Zn3 2.003305 1_565
O17 V10 2.020634 1_555
O17 V6 2.076096 1_455
O17 V9 2.091747 1_555
O18 Zn5 1.978742 1_555
O18 V9 2.029966 1_555
O18 V2 2.068370 1_655
O18 V7 2.091641 1_565
O19 Zn3 2.010171 1_655
O19 V8 2.026609 1_555
O19 V9 2.070702 1_555
O19 V10 2.090844 1_555
O20 V11 1.977948 1_455
O20 V8 2.070881 1_565
O20 V10 2.139742 1_555
O20 Zn2 2.160915 1_556
O21 V10 2.015351 1_555
O21 V8 2.019395 1_565
O21 V6 2.021584 1_555
O21 Zn5 2.082626 1_555
O22 V11 1.977518 1_545
O22 V10 2.065280 1_555
O22 V6 2.146066 1_555
O22 Zn2 2.170642 1_556
O23 V11 1.979709 1_555
O23 V6 2.060234 1_555
O23 V8 2.128980 1_565
O23 Zn2 2.194133 1_556
