# generated using pymatgen
data_CsZr6MnCl14
_symmetry_space_group_name_H-M   'P 1'
_cell_length_a   9.88690722
_cell_length_b   9.88690722
_cell_length_c   12.09785400
_cell_angle_alpha   90.00000000
_cell_angle_beta   90.00000000
_cell_angle_gamma   95.92073447
_symmetry_Int_Tables_number   1
_chemical_formula_structural   CsZr6MnCl14
_chemical_formula_sum   'Cs2 Zr12 Mn2 Cl28'
_cell_volume   1176.26813955
_cell_formula_units_Z   2
loop_
 _symmetry_equiv_pos_site_id
 _symmetry_equiv_pos_as_xyz
  1  'x, y, z'
loop_
 _atom_site_type_symbol
 _atom_site_label
 _atom_site_symmetry_multiplicity
 _atom_site_fract_x
 _atom_site_fract_y
 _atom_site_fract_z
 _atom_site_occupancy
  Cs  Cs0  1  0.50000000  0.50000000  0.00000000  1
  Cs  Cs1  1  0.00000000  0.00000000  0.50000000  1
  Zr  Zr0  1  0.34897700  0.34897700  0.39004400  1
  Zr  Zr1  1  0.65102300  0.65102300  0.60995600  1
  Zr  Zr2  1  0.15102300  0.15102300  0.89004400  1
  Zr  Zr3  1  0.84897700  0.84897700  0.10995600  1
  Zr  Zr4  1  0.95202500  0.19120400  0.11827100  1
  Zr  Zr5  1  0.04797500  0.80879600  0.88172900  1
  Zr  Zr6  1  0.54797500  0.30879600  0.61827100  1
  Zr  Zr7  1  0.69120400  0.45202500  0.38172900  1
  Zr  Zr8  1  0.45202500  0.69120400  0.38172900  1
  Zr  Zr9  1  0.30879600  0.54797500  0.61827100  1
  Zr  Zr10  1  0.80879600  0.04797500  0.88172900  1
  Zr  Zr11  1  0.19120400  0.95202500  0.11827100  1
  Mn  Mn0  1  0.00000000  0.00000000  0.00000000  1
  Mn  Mn1  1  0.50000000  0.50000000  0.50000000  1
  Cl  Cl0  1  0.11622700  0.36253400  0.00668800  1
  Cl  Cl1  1  0.88377300  0.63746600  0.99331200  1
  Cl  Cl2  1  0.38377300  0.13746600  0.50668800  1
  Cl  Cl3  1  0.86253400  0.61622700  0.49331200  1
  Cl  Cl4  1  0.61622700  0.86253400  0.49331200  1
  Cl  Cl5  1  0.13746600  0.38377300  0.50668800  1
  Cl  Cl6  1  0.63746600  0.88377300  0.99331200  1
  Cl  Cl7  1  0.36253400  0.11622700  0.00668800  1
  Cl  Cl8  1  0.75104400  0.24895600  0.00000000  1
  Cl  Cl9  1  0.24895600  0.75104400  0.00000000  1
  Cl  Cl10  1  0.74895600  0.25104400  0.50000000  1
  Cl  Cl11  1  0.25104400  0.74895600  0.50000000  1
  Cl  Cl12  1  0.89919500  0.39919500  0.25000000  1
  Cl  Cl13  1  0.10080500  0.60080500  0.75000000  1
  Cl  Cl14  1  0.60080500  0.10080500  0.75000000  1
  Cl  Cl15  1  0.39919500  0.89919500  0.25000000  1
  Cl  Cl16  1  0.15631000  0.15631000  0.25651400  1
  Cl  Cl17  1  0.84369000  0.84369000  0.74348600  1
  Cl  Cl18  1  0.34369000  0.34369000  0.75651400  1
  Cl  Cl19  1  0.65631000  0.65631000  0.24348600  1
  Cl  Cl20  1  0.29027200  0.53550800  0.25480200  1
  Cl  Cl21  1  0.70972800  0.46449200  0.74519800  1
  Cl  Cl22  1  0.20972800  0.96449200  0.75480200  1
  Cl  Cl23  1  0.03550800  0.79027200  0.24519800  1
  Cl  Cl24  1  0.79027200  0.03550800  0.24519800  1
  Cl  Cl25  1  0.96449200  0.20972800  0.75480200  1
  Cl  Cl26  1  0.46449200  0.70972800  0.74519800  1
  Cl  Cl27  1  0.53550800  0.29027200  0.25480200  1
loop_
_geom_bond_atom_site_label_1
_geom_bond_atom_site_label_2
_geom_bond_distance
_geom_bond_site_symmetry_2
Mn0 Zr3 2.401782 1_445
Mn0 Zr2 2.401782 1_554
Mn0 Zr4 2.455790 1_455
Mn0 Zr11 2.455790 1_545
Mn0 Zr5 2.455790 1_544
Mn0 Zr10 2.455790 1_454
Mn1 Zr1 2.401782 1_555
Mn1 Zr0 2.401782 1_555
Mn1 Zr8 2.455790 1_555
Mn1 Zr7 2.455790 1_555
Mn1 Zr6 2.455790 1_555
Mn1 Zr9 2.455790 1_555
Cl0 Zr2 2.575106 1_554
Cl0 Zr4 2.599981 1_455
Cl0 Cs0 3.897020 1_555
Cl1 Zr3 2.575106 1_556
Cl1 Zr5 2.599981 1_655
Cl1 Cs0 3.897020 1_556
Cl2 Zr0 2.575106 1_555
Cl2 Zr6 2.599981 1_555
Cl2 Cs1 3.897020 1_555
Cl3 Zr1 2.575106 1_555
Cl3 Zr7 2.599981 1_555
Cl3 Cs1 3.897020 1_665
Cl4 Zr1 2.575106 1_555
Cl4 Zr8 2.599981 1_555
Cl4 Cs1 3.897020 1_665
Cl5 Zr0 2.575106 1_555
Cl5 Zr9 2.599981 1_555
Cl5 Cs1 3.897020 1_555
Cl6 Zr3 2.575106 1_556
Cl6 Zr10 2.599981 1_565
Cl6 Cs0 3.897020 1_556
Cl7 Zr2 2.575106 1_554
Cl7 Zr11 2.599981 1_545
Cl7 Cs0 3.897020 1_555
Cl8 Zr10 2.560440 1_554
Cl8 Zr4 2.560440 1_555
Cl8 Cs0 3.686745 1_555
Cl9 Zr5 2.560440 1_554
Cl9 Zr11 2.560440 1_555
Cl9 Cs0 3.686745 1_555
Cl10 Zr7 2.560440 1_555
Cl10 Zr6 2.560440 1_555
Cl10 Cs1 3.686745 1_655
Cl11 Zr8 2.560440 1_555
Cl11 Zr9 2.560440 1_555
Cl11 Cs1 3.686745 1_565
Cl12 Zr4 2.694964 1_555
Cl12 Zr7 2.694964 1_555
Cl13 Zr9 2.694964 1_555
Cl13 Zr5 2.694964 1_555
Cl14 Zr6 2.694964 1_555
Cl14 Zr10 2.694964 1_555
Cl15 Zr11 2.694964 1_555
Cl15 Zr8 2.694964 1_555
Cl16 Zr4 2.671932 1_455
Cl16 Zr11 2.671932 1_545
Cl16 Zr0 3.019628 1_555
Cl16 Cs1 3.600116 1_555
Cl17 Zr10 2.671932 1_565
Cl17 Zr5 2.671932 1_655
Cl17 Zr1 3.019628 1_555
Cl17 Cs1 3.600116 1_665
Cl18 Zr6 2.671932 1_555
Cl18 Zr9 2.671932 1_555
Cl18 Zr2 3.019628 1_555
Cl18 Cs0 3.600116 1_556
Cl19 Zr8 2.671932 1_555
Cl19 Zr7 2.671932 1_555
Cl19 Zr3 3.019628 1_555
Cl19 Cs0 3.600116 1_555
Cl20 Zr0 2.576001 1_555
Cl20 Zr8 2.603302 1_555
Cl20 Cs0 3.751699 1_555
Cl21 Zr1 2.576001 1_555
Cl21 Zr6 2.603302 1_555
Cl21 Cs0 3.751699 1_556
Cl22 Zr2 2.576001 1_565
Cl22 Zr5 2.603302 1_555
Cl22 Cs1 3.751699 1_565
Cl23 Zr3 2.576001 1_455
Cl23 Zr11 2.603302 1_555
Cl23 Cs1 3.751699 1_565
Cl24 Zr3 2.576001 1_545
Cl24 Zr4 2.603302 1_555
Cl24 Cs1 3.751699 1_655
Cl25 Zr2 2.576001 1_655
Cl25 Zr10 2.603302 1_555
Cl25 Cs1 3.751699 1_655
Cl26 Zr1 2.576001 1_555
Cl26 Zr9 2.603302 1_555
Cl26 Cs0 3.751699 1_556
Cl27 Zr0 2.576001 1_555
Cl27 Zr7 2.603302 1_555
Cl27 Cs0 3.751699 1_555
