# generated using pymatgen
data_LiAl
_symmetry_space_group_name_H-M   'P 1'
_cell_length_a   4.46800180
_cell_length_b   4.46800180
_cell_length_c   8.60409900
_cell_angle_alpha   90.00000000
_cell_angle_beta   90.00000000
_cell_angle_gamma   119.99999697
_symmetry_Int_Tables_number   1
_chemical_formula_structural   LiAl
_chemical_formula_sum   'Li4 Al4'
_cell_volume   148.75196851
_cell_formula_units_Z   4
loop_
 _symmetry_equiv_pos_site_id
 _symmetry_equiv_pos_as_xyz
  1  'x, y, z'
loop_
 _atom_site_type_symbol
 _atom_site_label
 _atom_site_symmetry_multiplicity
 _atom_site_fract_x
 _atom_site_fract_y
 _atom_site_fract_z
 _atom_site_occupancy
  Li  Li0  1  0.33333300  0.66666700  0.58361900  1
  Li  Li1  1  0.66666700  0.33333300  0.41638100  1
  Li  Li2  1  0.66666700  0.33333300  0.08361900  1
  Li  Li3  1  0.33333300  0.66666700  0.91638100  1
  Al  Al0  1  0.00000000  0.00000000  0.75000000  1
  Al  Al1  1  0.00000000  0.00000000  0.25000000  1
  Al  Al2  1  0.33333300  0.66666700  0.25000000  1
  Al  Al3  1  0.66666700  0.33333300  0.75000000  1
loop_
_geom_bond_atom_site_label_1
_geom_bond_atom_site_label_2
_geom_bond_distance
_geom_bond_site_symmetry_2
Li0 Li3 2.863117 1_555
Li0 Li1 2.953787 1_455
Li0 Li1 2.953787 1_565
Li0 Li1 2.953794 1_555
Li1 Li2 2.863117 1_555
Li2 Li3 2.953787 1_544
Li2 Li3 2.953787 1_654
Li2 Li3 2.953794 1_554
Al0 Al3 2.579599 1_455
Al0 Al3 2.579603 1_555
Al0 Al3 2.579603 1_445
Al0 Li3 2.950202 1_545
Al0 Li0 2.950202 1_545
Al0 Li0 2.950206 1_555
Al0 Li3 2.950206 1_555
Al0 Li3 2.950206 1_445
Al0 Li0 2.950206 1_445
Al1 Al2 2.579599 1_545
Al1 Al2 2.579603 1_445
Al1 Al2 2.579603 1_555
Al1 Li2 2.950202 1_455
Al1 Li1 2.950202 1_455
Al1 Li1 2.950206 1_445
Al1 Li2 2.950206 1_555
Al1 Li1 2.950206 1_555
Al1 Li2 2.950206 1_445
Al2 Li0 2.870491 1_555
Al2 Li3 2.870491 1_554
Al2 Li1 2.950202 1_455
Al2 Li2 2.950202 1_455
Al2 Li1 2.950202 1_565
Al2 Li2 2.950202 1_565
Al2 Li2 2.950209 1_555
Al2 Li1 2.950209 1_555
Al3 Li1 2.870491 1_555
Al3 Li2 2.870491 1_556
Al3 Li3 2.950202 1_545
Al3 Li0 2.950202 1_545
Al3 Li3 2.950202 1_655
Al3 Li0 2.950202 1_655
Al3 Li3 2.950209 1_555
Al3 Li0 2.950209 1_555
