# generated using pymatgen
data_Mg6MnAl
_symmetry_space_group_name_H-M   'P 1'
_cell_length_a   4.87301800
_cell_length_b   6.24362300
_cell_length_c   10.74038400
_cell_angle_alpha   90.00000000
_cell_angle_beta   90.00000000
_cell_angle_gamma   90.00000000
_symmetry_Int_Tables_number   1
_chemical_formula_structural   Mg6MnAl
_chemical_formula_sum   'Mg12 Mn2 Al2'
_cell_volume   326.77926853
_cell_formula_units_Z   2
loop_
 _symmetry_equiv_pos_site_id
 _symmetry_equiv_pos_as_xyz
  1  'x, y, z'
loop_
 _atom_site_type_symbol
 _atom_site_label
 _atom_site_symmetry_multiplicity
 _atom_site_fract_x
 _atom_site_fract_y
 _atom_site_fract_z
 _atom_site_occupancy
  Mg  Mg0  1  0.00000000  0.25776900  0.08676000  1
  Mg  Mg1  1  0.00000000  0.74223100  0.08676000  1
  Mg  Mg2  1  0.00000000  0.50000000  0.83260300  1
  Mg  Mg3  1  0.50000000  0.24567300  0.91504300  1
  Mg  Mg4  1  0.50000000  0.75432700  0.91504300  1
  Mg  Mg5  1  0.50000000  0.50000000  0.66649500  1
  Mg  Mg6  1  0.00000000  0.75776900  0.58676000  1
  Mg  Mg7  1  0.00000000  0.24223100  0.58676000  1
  Mg  Mg8  1  0.00000000  0.00000000  0.33260300  1
  Mg  Mg9  1  0.50000000  0.74567300  0.41504300  1
  Mg  Mg10  1  0.50000000  0.25432700  0.41504300  1
  Mg  Mg11  1  0.50000000  0.00000000  0.16649500  1
  Mn  Mn0  1  0.50000000  0.50000000  0.17446100  1
  Mn  Mn1  1  0.50000000  0.00000000  0.67446100  1
  Al  Al0  1  0.00000000  0.50000000  0.32283600  1
  Al  Al1  1  0.00000000  0.00000000  0.82283600  1
loop_
_geom_bond_atom_site_label_1
_geom_bond_atom_site_label_2
_geom_bond_distance
_geom_bond_site_symmetry_2
Mg0 Mn0 3.018474 1_555
Mg0 Mn0 3.018474 1_455
Mg0 Mg1 3.024798 1_555
Mg0 Mg11 3.043054 1_555
Mg0 Mg11 3.043054 1_455
Mg0 Mg3 3.056754 1_554
Mg0 Mg3 3.056754 1_454
Mg0 Mg8 3.092277 1_555
Mg0 Mg2 3.120713 1_554
Mg0 Mg1 3.218825 1_545
Mg1 Mn0 3.018474 1_555
Mg1 Mn0 3.018474 1_455
Mg1 Mg11 3.043054 1_565
Mg1 Mg11 3.043054 1_465
Mg1 Mg4 3.056754 1_454
Mg1 Mg4 3.056754 1_554
Mg1 Mg8 3.092277 1_565
Mg1 Mg2 3.120713 1_554
Mg2 Mg5 3.019844 1_455
Mg2 Mg5 3.019844 1_555
Mg2 Mg4 3.040078 1_455
Mg2 Mg3 3.040078 1_555
Mg2 Mg4 3.040078 1_555
Mg2 Mg3 3.040078 1_455
Mg2 Mg6 3.092277 1_555
Mg2 Mg7 3.092277 1_555
Mg3 Mn1 3.004926 1_555
Mg3 Mg4 3.067779 1_545
Mg3 Mg5 3.106080 1_555
Mg3 Mg4 3.175844 1_555
Mg3 Mn0 3.206974 1_556
Mg4 Mn1 3.004926 1_565
Mg4 Mg5 3.106080 1_555
Mg4 Mn0 3.206974 1_556
Mg5 Mg6 3.043054 1_555
Mg5 Mg6 3.043054 1_655
Mg5 Mg7 3.043054 1_655
Mg5 Mg7 3.043054 1_555
Mg5 Mg9 3.105889 1_555
Mg5 Mn1 3.122984 1_565
Mg5 Mn1 3.122984 1_555
Mg6 Mn1 3.018474 1_465
Mg6 Mn1 3.018474 1_565
Mg6 Mg7 3.024798 1_565
Mg6 Mg9 3.056754 1_455
Mg6 Mg9 3.056754 1_555
Mg6 Mg8 3.120713 1_565
Mg6 Mg7 3.218825 1_555
Mg7 Mn1 3.018474 1_455
Mg7 Mn1 3.018474 1_555
Mg7 Mg8 3.120713 1_555
Mg8 Mg9 3.040078 1_445
Mg8 Mg9 3.040078 1_545
Mg9 Mn0 3.004926 1_555
Mg9 Mn1 3.206974 1_565
Mg10 Mn0 3.004926 1_555
Mg10 Mg8 3.040078 1_655
Mg10 Mg8 3.040078 1_555
Mg10 Mg7 3.056754 1_655
Mg10 Mg7 3.056754 1_555
Mg10 Mg9 3.067779 1_555
Mg10 Mg5 3.105889 1_555
Mg10 Mg11 3.106080 1_555
Mg10 Mg9 3.175844 1_545
Mg10 Mn1 3.206974 1_555
Mg11 Mg8 3.019844 1_655
Mg11 Mg8 3.019844 1_555
Mg11 Mg3 3.105889 1_554
Mg11 Mg4 3.105889 1_544
Mg11 Mg9 3.106080 1_545
Mg11 Mn0 3.122984 1_545
Mg11 Mn0 3.122984 1_555
Al0 Mn0 2.911383 1_555
Al0 Mn0 2.911383 1_455
Al0 Mg1 2.952346 1_555
Al0 Mg0 2.952346 1_555
Al0 Mg9 3.044694 1_455
Al0 Mg9 3.044694 1_555
Al0 Mg10 3.044694 1_455
Al0 Mg10 3.044694 1_555
Al0 Mg8 3.123573 1_565
Al0 Mg8 3.123573 1_555
Al0 Mg6 3.259666 1_555
Al0 Mg7 3.259666 1_555
Al1 Mn1 2.911383 1_555
Al1 Mn1 2.911383 1_455
Al1 Mg7 2.952346 1_555
Al1 Mg6 2.952346 1_545
Al1 Mg3 3.044694 1_555
Al1 Mg4 3.044694 1_445
Al1 Mg4 3.044694 1_545
Al1 Mg3 3.044694 1_455
Al1 Mg2 3.123573 1_555
Al1 Mg2 3.123573 1_545
Al1 Mg0 3.259666 1_556
Al1 Mg1 3.259666 1_546
