# generated using pymatgen
data_Ho4CdNi
_symmetry_space_group_name_H-M   'P 1'
_cell_length_a   9.44547192
_cell_length_b   9.44546526
_cell_length_c   9.44547234
_cell_angle_alpha   60.00124435
_cell_angle_beta   60.00128125
_cell_angle_gamma   60.00120973
_symmetry_Int_Tables_number   1
_chemical_formula_structural   Ho4CdNi
_chemical_formula_sum   'Ho16 Cd4 Ni4'
_cell_volume   595.89255415
_cell_formula_units_Z   4
loop_
 _symmetry_equiv_pos_site_id
 _symmetry_equiv_pos_as_xyz
  1  'x, y, z'
loop_
 _atom_site_type_symbol
 _atom_site_label
 _atom_site_symmetry_multiplicity
 _atom_site_fract_x
 _atom_site_fract_y
 _atom_site_fract_z
 _atom_site_occupancy
  Ho  Ho0  1  0.34880855  0.34881674  0.34880599  1
  Ho  Ho1  1  0.34880407  0.34881152  0.95357323  1
  Ho  Ho2  1  0.34880834  0.95356904  0.34880630  1
  Ho  Ho3  1  0.95357239  0.34881240  0.34880279  1
  Ho  Ho4  1  0.81102449  0.18897857  0.18897886  1
  Ho  Ho5  1  0.18897858  0.81101449  0.81102815  1
  Ho  Ho6  1  0.18897823  0.81101918  0.18897864  1
  Ho  Ho7  1  0.81102024  0.18897893  0.81102226  1
  Ho  Ho8  1  0.18897892  0.18897805  0.81102574  1
  Ho  Ho9  1  0.81102710  0.81101609  0.18897848  1
  Ho  Ho10  1  0.93659173  0.56341053  0.56340700  1
  Ho  Ho11  1  0.56340792  0.93659073  0.93659231  1
  Ho  Ho12  1  0.56340989  0.93659018  0.56340996  1
  Ho  Ho13  1  0.93659320  0.56340784  0.93659297  1
  Ho  Ho14  1  0.56340764  0.56341098  0.93659209  1
  Ho  Ho15  1  0.93659148  0.93658961  0.56340876  1
  Cd  Cd0  1  0.58079113  0.58078845  0.58079082  1
  Cd  Cd1  1  0.58079313  0.58079139  0.25762754  1
  Cd  Cd2  1  0.58079212  0.25762891  0.58079159  1
  Cd  Cd3  1  0.25762699  0.58079159  0.58079296  1
  Ni  Ni0  1  0.14249815  0.14249888  0.14249551  1
  Ni  Ni1  1  0.14250061  0.14250277  0.57249647  1
  Ni  Ni2  1  0.14249851  0.57250134  0.14249992  1
  Ni  Ni3  1  0.57249860  0.14250280  0.14250064  1
loop_
_geom_bond_atom_site_label_1
_geom_bond_atom_site_label_2
_geom_bond_distance
_geom_bond_site_symmetry_2
Ho0 Ni2 2.760757 1_555
Ho0 Ni3 2.760781 1_555
Ho0 Ni1 2.760800 1_555
Ho1 Ni2 2.760759 1_556
Ho1 Ni0 2.760773 1_556
Ho1 Ni3 2.760796 1_556
Ho2 Ni0 2.760784 1_565
Ho2 Ni1 2.760807 1_565
Ho2 Ni3 2.760809 1_565
Ho3 Ni2 2.760751 1_655
Ho3 Ni0 2.760785 1_655
Ho3 Ni1 2.760795 1_655
Ho4 Ni0 2.762581 1_655
Ho4 Ni3 2.762634 1_555
Ho5 Ni2 2.762611 1_556
Ho5 Ni1 2.762767 1_565
Ho6 Ni2 2.762586 1_555
Ho6 Ni0 2.762634 1_565
Ho7 Ni3 2.762679 1_556
Ho7 Ni1 2.762704 1_655
Ho8 Ni0 2.762555 1_556
Ho8 Ni1 2.762663 1_555
Ho9 Ni2 2.762612 1_655
Ho9 Ni3 2.762746 1_565
Ho10 Ni2 3.419004 1_655
Ho10 Ni1 3.419008 1_655
Ho11 Ni3 3.418968 1_566
Ho11 Ni0 3.419025 1_566
Ho12 Ni3 3.419026 1_565
Ho12 Ni1 3.419030 1_565
Ho13 Ni2 3.418918 1_656
Ho13 Ni0 3.419008 1_656
Ho14 Ni3 3.419009 1_556
Ho14 Ni2 3.419022 1_556
Ho15 Ni1 3.418968 1_665
Ho15 Ni0 3.419059 1_665
Cd0 Cd2 3.052384 1_555
Cd0 Cd1 3.052406 1_555
Cd0 Cd3 3.052413 1_555
Cd0 Ho10 3.204961 1_555
Cd0 Ho12 3.204968 1_555
Cd0 Ho14 3.204971 1_555
Cd0 Ho3 3.372182 1_555
Cd0 Ho1 3.372187 1_555
Cd0 Ho2 3.372190 1_555
Cd0 Ho7 3.433327 1_555
Cd0 Ho5 3.433353 1_555
Cd0 Ho9 3.433355 1_555
Cd1 Cd2 3.052486 1_555
Cd1 Cd3 3.052512 1_555
Cd1 Ho14 3.204938 1_554
Cd1 Ho11 3.204991 1_554
Cd1 Ho13 3.204996 1_554
Cd1 Ho0 3.372094 1_555
Cd1 Ho3 3.372109 1_555
Cd1 Ho2 3.372110 1_555
Cd1 Ho9 3.433250 1_555
Cd1 Ho4 3.433320 1_555
Cd1 Ho6 3.433340 1_555
Cd2 Cd3 3.052490 1_555
Cd2 Ho12 3.204956 1_545
Cd2 Ho15 3.205008 1_545
Cd2 Ho11 3.205012 1_545
Cd2 Ho0 3.372138 1_555
Cd2 Ho3 3.372156 1_555
Cd2 Ho1 3.372162 1_555
Cd2 Ho7 3.433246 1_555
Cd2 Ho4 3.433330 1_555
Cd2 Ho8 3.433337 1_555
Cd3 Ho10 3.204942 1_455
Cd3 Ho15 3.204984 1_455
Cd3 Ho13 3.204992 1_455
Cd3 Ho0 3.372103 1_555
Cd3 Ho2 3.372121 1_555
Cd3 Ho1 3.372126 1_555
Cd3 Ho5 3.433247 1_555
Cd3 Ho8 3.433325 1_555
Cd3 Ho6 3.433336 1_555
