# generated using pymatgen
data_Na3Yb
_symmetry_space_group_name_H-M   'P 1'
_cell_length_a   5.80793971
_cell_length_b   5.80793971
_cell_length_c   5.80793971
_cell_angle_alpha   60.00000000
_cell_angle_beta   60.00000000
_cell_angle_gamma   60.00000000
_symmetry_Int_Tables_number   1
_chemical_formula_structural   Na3Yb
_chemical_formula_sum   'Na3 Yb1'
_cell_volume   138.53238147
_cell_formula_units_Z   1
loop_
 _symmetry_equiv_pos_site_id
 _symmetry_equiv_pos_as_xyz
  1  'x, y, z'
loop_
 _atom_site_type_symbol
 _atom_site_label
 _atom_site_symmetry_multiplicity
 _atom_site_fract_x
 _atom_site_fract_y
 _atom_site_fract_z
 _atom_site_occupancy
  Na  Na0  1  0.25000000  0.25000000  0.25000000  1
  Na  Na1  1  0.75000000  0.75000000  0.75000000  1
  Na  Na2  1  0.50000000  0.50000000  0.50000000  1
  Yb  Yb0  1  0.00000000  0.00000000  0.00000000  1
loop_
_geom_bond_atom_site_label_1
_geom_bond_atom_site_label_2
_geom_bond_distance
_geom_bond_site_symmetry_2
Na0 Yb0 3.556622 1_556
Na0 Yb0 3.556622 1_565
Na0 Na2 3.556622 1_455
Na0 Yb0 3.556622 1_655
Na0 Na2 3.556622 1_555
Na0 Na2 3.556622 1_554
Na0 Na2 3.556622 1_545
Na0 Yb0 3.556622 1_555
Na1 Yb0 3.556622 1_566
Na1 Na2 3.556622 1_565
Na1 Yb0 3.556622 1_656
Na1 Yb0 3.556622 1_665
Na1 Na2 3.556622 1_555
Na1 Na2 3.556622 1_556
Na1 Na2 3.556622 1_655
Na1 Yb0 3.556622 1_666
Na2 Yb0 4.106834 1_556
Na2 Yb0 4.106834 1_566
Na2 Yb0 4.106834 1_565
Na2 Yb0 4.106834 1_656
Na2 Yb0 4.106834 1_655
Na2 Yb0 4.106834 1_665
