# generated using pymatgen
data_UOs2
_symmetry_space_group_name_H-M   'P 1'
_cell_length_a   5.32962183
_cell_length_b   5.32949472
_cell_length_c   5.32953870
_cell_angle_alpha   59.99972066
_cell_angle_beta   60.00050953
_cell_angle_gamma   60.00044688
_symmetry_Int_Tables_number   1
_chemical_formula_structural   UOs2
_chemical_formula_sum   'U2 Os4'
_cell_volume   107.04324722
_cell_formula_units_Z   2
loop_
 _symmetry_equiv_pos_site_id
 _symmetry_equiv_pos_as_xyz
  1  'x, y, z'
loop_
 _atom_site_type_symbol
 _atom_site_label
 _atom_site_symmetry_multiplicity
 _atom_site_fract_x
 _atom_site_fract_y
 _atom_site_fract_z
 _atom_site_occupancy
  U  U0  1  0.87499273  0.87499720  0.87500503  1
  U  U1  1  0.12500725  0.12500287  0.12499494  1
  Os  Os0  1  0.50000154  0.50000148  0.50000156  1
  Os  Os1  1  0.50000154  0.50000148  -0.00000259  1
  Os  Os2  1  -0.00000258  0.50000148  0.50000155  1
  Os  Os3  1  0.50000151  -0.00000252  0.50000150  1
loop_
_geom_bond_atom_site_label_1
_geom_bond_atom_site_label_2
_geom_bond_distance
_geom_bond_site_symmetry_2
U0 U1 3.263611 1_656
U0 U1 3.263676 1_566
U0 U1 3.263709 1_665
U0 U1 3.263709 1_666
Os0 Os3 2.664726 1_565
Os0 Os1 2.664747 1_556
Os0 Os3 2.664769 1_555
Os0 Os2 2.664789 1_655
Os0 Os1 2.664791 1_555
Os0 Os2 2.664833 1_555
Os0 U0 3.124686 1_554
Os0 U1 3.124693 1_556
Os0 U0 3.124714 1_545
Os0 U1 3.124721 1_565
Os0 U0 3.124789 1_455
Os0 U1 3.124795 1_655
Os1 Os3 2.664726 1_564
Os1 Os3 2.664769 1_555
Os1 Os2 2.664789 1_654
Os1 Os2 2.664833 1_555
Os1 U0 3.124682 1_554
Os1 U1 3.124698 1_555
Os1 U1 3.124717 1_565
Os1 U0 3.124718 1_544
Os1 U1 3.124791 1_655
Os1 U0 3.124793 1_454
Os2 Os3 2.664776 1_465
Os2 Os3 2.664819 1_555
Os2 U0 3.124698 1_455
Os2 U1 3.124704 1_556
Os2 U0 3.124707 1_454
Os2 U1 3.124713 1_555
Os2 U1 3.124718 1_565
Os2 U0 3.124720 1_445
Os3 U0 3.124715 1_545
Os3 U1 3.124721 1_556
Os3 U0 3.124724 1_544
Os3 U1 3.124731 1_555
Os3 U1 3.124809 1_655
Os3 U0 3.124811 1_445
