# generated using pymatgen
data_ZnFe(SiO3)2
_symmetry_space_group_name_H-M   'P 1'
_cell_length_a   5.31041300
_cell_length_b   9.16196600
_cell_length_c   18.61301900
_cell_angle_alpha   90.00000000
_cell_angle_beta   90.00000000
_cell_angle_gamma   90.00000000
_symmetry_Int_Tables_number   1
_chemical_formula_structural   ZnFe(SiO3)2
_chemical_formula_sum   'Zn8 Fe8 Si16 O48'
_cell_volume   905.59453847
_cell_formula_units_Z   8
loop_
 _symmetry_equiv_pos_site_id
 _symmetry_equiv_pos_as_xyz
  1  'x, y, z'
loop_
 _atom_site_type_symbol
 _atom_site_label
 _atom_site_symmetry_multiplicity
 _atom_site_fract_x
 _atom_site_fract_y
 _atom_site_fract_z
 _atom_site_occupancy
  Zn  Zn0  1  0.61711500  0.15144500  0.37545400  1
  Zn  Zn1  1  0.38288500  0.84855500  0.62454600  1
  Zn  Zn2  1  0.61711500  0.65144500  0.12454600  1
  Zn  Zn3  1  0.11711500  0.84855500  0.12454600  1
  Zn  Zn4  1  0.88288500  0.15144500  0.87545400  1
  Zn  Zn5  1  0.38288500  0.34855500  0.87545400  1
  Zn  Zn6  1  0.11711500  0.34855500  0.37545400  1
  Zn  Zn7  1  0.88288500  0.65144500  0.62454600  1
  Fe  Fe0  1  0.37728400  0.98840600  0.87693500  1
  Fe  Fe1  1  0.62271600  0.01159400  0.12306500  1
  Fe  Fe2  1  0.87728400  0.01159400  0.62306500  1
  Fe  Fe3  1  0.12271600  0.98840600  0.37693500  1
  Fe  Fe4  1  0.37728400  0.48840600  0.62306500  1
  Fe  Fe5  1  0.62271600  0.51159400  0.37693500  1
  Fe  Fe6  1  0.87728400  0.51159400  0.87693500  1
  Fe  Fe7  1  0.12271600  0.48840600  0.12306500  1
  Si  Si0  1  0.56397200  0.66129800  0.77198000  1
  Si  Si1  1  0.71073000  0.83498000  0.47444600  1
  Si  Si2  1  0.78927000  0.83498000  0.97444600  1
  Si  Si3  1  0.93602800  0.16129800  0.22802000  1
  Si  Si4  1  0.06397200  0.33870200  0.72802000  1
  Si  Si5  1  0.43602800  0.83870200  0.27198000  1
  Si  Si6  1  0.21073000  0.66502000  0.47444600  1
  Si  Si7  1  0.71073000  0.33498000  0.02555400  1
  Si  Si8  1  0.78927000  0.33498000  0.52555400  1
  Si  Si9  1  0.93602800  0.66129800  0.27198000  1
  Si  Si10  1  0.43602800  0.33870200  0.22802000  1
  Si  Si11  1  0.56397200  0.16129800  0.72802000  1
  Si  Si12  1  0.28927000  0.16502000  0.52555400  1
  Si  Si13  1  0.06397200  0.83870200  0.77198000  1
  Si  Si14  1  0.28927000  0.66502000  0.97444600  1
  Si  Si15  1  0.21073000  0.16502000  0.02555400  1
  O  O0  1  0.93053700  0.50353900  0.31123400  1
  O  O1  1  0.30061900  0.01732900  0.06589100  1
  O  O2  1  0.06946300  0.49646100  0.68876600  1
  O  O3  1  0.71082800  0.33776900  0.93738300  1
  O  O4  1  0.21082800  0.16223100  0.93738300  1
  O  O5  1  0.91755700  0.20652100  0.05156400  1
  O  O6  1  0.94483700  0.66191200  0.18414700  1
  O  O7  1  0.05516300  0.83808800  0.68414700  1
  O  O8  1  0.71082800  0.83776900  0.56261700  1
  O  O9  1  0.94483700  0.16191200  0.31585300  1
  O  O10  1  0.43053700  0.49646100  0.18876600  1
  O  O11  1  0.78917200  0.33776900  0.43738300  1
  O  O12  1  0.69938100  0.98267100  0.93410900  1
  O  O13  1  0.44483700  0.83808800  0.18414700  1
  O  O14  1  0.56946300  0.00353900  0.68876600  1
  O  O15  1  0.30061900  0.51732900  0.43410900  1
  O  O16  1  0.43053700  0.99646100  0.31123400  1
  O  O17  1  0.16728400  0.76603700  0.30197700  1
  O  O18  1  0.33271600  0.76603700  0.80197700  1
  O  O19  1  0.58244300  0.70652100  0.94843600  1
  O  O20  1  0.78917200  0.83776900  0.06261700  1
  O  O21  1  0.55516300  0.66191200  0.68414700  1
  O  O22  1  0.80061900  0.48267100  0.06589100  1
  O  O23  1  0.16728400  0.26603700  0.19802300  1
  O  O24  1  0.28917200  0.16223100  0.43738300  1
  O  O25  1  0.55516300  0.16191200  0.81585300  1
  O  O26  1  0.69938100  0.48267100  0.56589100  1
  O  O27  1  0.21082800  0.66223100  0.56261700  1
  O  O28  1  0.19938100  0.51732900  0.93410900  1
  O  O29  1  0.66728400  0.73396300  0.30197700  1
  O  O30  1  0.06946300  0.99646100  0.81123400  1
  O  O31  1  0.83271600  0.73396300  0.80197700  1
  O  O32  1  0.83271600  0.23396300  0.69802300  1
  O  O33  1  0.80061900  0.98267100  0.43410900  1
  O  O34  1  0.28917200  0.66223100  0.06261700  1
  O  O35  1  0.19938100  0.01732900  0.56589100  1
  O  O36  1  0.33271600  0.26603700  0.69802300  1
  O  O37  1  0.08244300  0.79347900  0.94843600  1
  O  O38  1  0.41755700  0.79347900  0.44843600  1
  O  O39  1  0.66728400  0.23396300  0.19802300  1
  O  O40  1  0.41755700  0.29347900  0.05156400  1
  O  O41  1  0.58244300  0.20652100  0.55156400  1
  O  O42  1  0.08244300  0.29347900  0.55156400  1
  O  O43  1  0.44483700  0.33808800  0.31585300  1
  O  O44  1  0.56946300  0.50353900  0.81123400  1
  O  O45  1  0.91755700  0.70652100  0.44843600  1
  O  O46  1  0.05516300  0.33808800  0.81585300  1
  O  O47  1  0.93053700  0.00353900  0.18876600  1
loop_
_geom_bond_atom_site_label_1
_geom_bond_atom_site_label_2
_geom_bond_distance
_geom_bond_site_symmetry_2
Fe0 O12 2.015178 1_555
Fe0 O30 2.042797 1_555
Fe0 O4 2.140927 1_565
Fe0 O25 2.170688 1_565
Fe0 O18 2.480590 1_555
Fe0 O37 2.722527 1_555
Fe1 O1 2.015178 1_555
Fe1 O47 2.042797 1_555
Fe1 O20 2.140927 1_545
Fe1 O13 2.170688 1_545
Fe1 O39 2.480590 1_555
Fe1 O5 2.722527 1_555
Fe2 O35 2.015178 1_655
Fe2 O14 2.042797 1_555
Fe2 O8 2.140927 1_545
Fe2 O7 2.170688 1_645
Fe2 O32 2.480590 1_555
Fe2 O41 2.722527 1_555
Fe3 O33 2.015178 1_455
Fe3 O16 2.042797 1_555
Fe3 O24 2.140927 1_565
Fe3 O9 2.170688 1_465
Fe3 O17 2.480590 1_555
Fe3 O38 2.722527 1_555
Fe4 O26 2.015178 1_555
Fe4 O2 2.042797 1_555
Fe4 O27 2.140927 1_555
Fe4 O21 2.170688 1_555
Fe4 O36 2.480590 1_555
Fe4 O42 2.722527 1_555
Fe5 O15 2.015178 1_555
Fe5 O0 2.042797 1_555
Fe5 O11 2.140927 1_555
Fe5 O43 2.170688 1_555
Fe5 O29 2.480590 1_555
Fe5 O45 2.722527 1_555
Fe6 O28 2.015178 1_655
Fe6 O44 2.042797 1_555
Fe6 O3 2.140927 1_555
Fe6 O46 2.170688 1_655
Fe6 O31 2.480590 1_555
Fe6 O19 2.722527 1_555
Fe7 O22 2.015178 1_455
Fe7 O10 2.042797 1_555
Fe7 O34 2.140927 1_555
Fe7 O6 2.170688 1_455
Fe7 O23 2.480590 1_555
Fe7 O40 2.722527 1_555
O0 Si9 1.619818 1_555
O0 Zn6 2.103993 1_655
O1 Si15 1.619426 1_555
O1 Zn3 2.128984 1_545
O2 Si4 1.619818 1_555
O2 Zn7 2.103993 1_455
O3 Si7 1.641327 1_556
O3 Zn5 2.090769 1_555
O3 Zn4 2.253373 1_555
O4 Si15 1.641327 1_556
O4 Zn4 2.090769 1_455
O4 Zn5 2.253373 1_555
O5 Si15 1.674155 1_655
O5 Si7 1.681042 1_555
O6 Si9 1.635516 1_555
O6 Zn2 2.066070 1_555
O6 Zn3 2.234235 1_655
O7 Si13 1.635516 1_555
O7 Zn1 2.066070 1_555
O7 Zn7 2.234235 1_455
O8 Si1 1.641327 1_555
O8 Zn1 2.090769 1_555
O8 Zn7 2.253373 1_555
O9 Si3 1.635516 1_555
O9 Zn0 2.066070 1_555
O9 Zn6 2.234235 1_655
O10 Si10 1.619818 1_555
O10 Zn2 2.103993 1_555
O11 Si8 1.641327 1_555
O11 Zn6 2.090769 1_655
O11 Zn0 2.253373 1_555
O12 Si2 1.619426 1_555
O12 Zn4 2.128984 1_565
O13 Si5 1.635516 1_555
O13 Zn3 2.066070 1_555
O13 Zn2 2.234235 1_555
O14 Si11 1.619818 1_555
O14 Zn1 2.103993 1_545
O15 Si6 1.619426 1_555
O15 Zn6 2.128984 1_555
O16 Si5 1.619818 1_555
O16 Zn0 2.103993 1_565
O17 Si9 1.655519 1_455
O17 Si5 1.670838 1_555
O18 Si0 1.655519 1_555
O18 Si13 1.670838 1_555
O19 Si14 1.674155 1_555
O19 Si2 1.681042 1_555
O20 Si2 1.641327 1_554
O20 Zn3 2.090769 1_655
O20 Zn2 2.253373 1_555
O21 Si0 1.635516 1_555
O21 Zn7 2.066070 1_555
O21 Zn1 2.234235 1_555
O22 Si7 1.619426 1_555
O22 Zn2 2.128984 1_555
O23 Si3 1.655519 1_455
O23 Si10 1.670838 1_555
O24 Si12 1.641327 1_555
O24 Zn0 2.090769 1_555
O24 Zn6 2.253373 1_555
O25 Si11 1.635516 1_555
O25 Zn4 2.066070 1_555
O25 Zn5 2.234235 1_555
O26 Si8 1.619426 1_555
O26 Zn7 2.128984 1_555
O27 Si6 1.641327 1_555
O27 Zn7 2.090769 1_455
O27 Zn1 2.253373 1_555
O28 Si14 1.619426 1_555
O28 Zn5 2.128984 1_555
O29 Si5 1.655519 1_555
O29 Si9 1.670838 1_555
O30 Si13 1.619818 1_555
O30 Zn4 2.103993 1_465
O31 Si13 1.655519 1_655
O31 Si0 1.670838 1_555
O32 Si4 1.655519 1_655
O32 Si11 1.670838 1_555
O33 Si1 1.619426 1_555
O33 Zn0 2.128984 1_565
O34 Si14 1.641327 1_554
O34 Zn2 2.090769 1_555
O34 Zn3 2.253373 1_555
O35 Si12 1.619426 1_555
O35 Zn1 2.128984 1_545
O36 Si11 1.655519 1_555
O36 Si4 1.670838 1_555
O37 Si2 1.674155 1_455
O37 Si14 1.681042 1_555
O38 Si1 1.674155 1_555
O38 Si6 1.681042 1_555
O39 Si10 1.655519 1_555
O39 Si3 1.670838 1_555
O40 Si7 1.674155 1_555
O40 Si15 1.681042 1_555
O41 Si12 1.674155 1_555
O41 Si8 1.681042 1_555
O42 Si8 1.674155 1_455
O42 Si12 1.681042 1_555
O43 Si10 1.635516 1_555
O43 Zn6 2.066070 1_555
O43 Zn0 2.234235 1_555
O44 Si0 1.619818 1_555
O44 Zn5 2.103993 1_555
O45 Si6 1.674155 1_655
O45 Si1 1.681042 1_555
O46 Si4 1.635516 1_555
O46 Zn5 2.066070 1_555
O46 Zn4 2.234235 1_455
O47 Si3 1.619818 1_555
O47 Zn3 2.103993 1_645
