# generated using pymatgen
data_Nb4CuSi
_symmetry_space_group_name_H-M   'P 1'
_cell_length_a   5.07922300
_cell_length_b   6.23122500
_cell_length_c   6.23122500
_cell_angle_alpha   90.00000000
_cell_angle_beta   90.00000000
_cell_angle_gamma   90.00000000
_symmetry_Int_Tables_number   1
_chemical_formula_structural   Nb4CuSi
_chemical_formula_sum   'Nb8 Cu2 Si2'
_cell_volume   197.21690872
_cell_formula_units_Z   2
loop_
 _symmetry_equiv_pos_site_id
 _symmetry_equiv_pos_as_xyz
  1  'x, y, z'
loop_
 _atom_site_type_symbol
 _atom_site_label
 _atom_site_symmetry_multiplicity
 _atom_site_fract_x
 _atom_site_fract_y
 _atom_site_fract_z
 _atom_site_occupancy
  Nb  Nb0  1  0.50000000  0.65634000  0.15963500  1
  Nb  Nb1  1  0.50000000  0.34366000  0.84036500  1
  Nb  Nb2  1  0.50000000  0.84036500  0.65634000  1
  Nb  Nb3  1  0.50000000  0.15963500  0.34366000  1
  Nb  Nb4  1  0.00000000  0.34366000  0.15963500  1
  Nb  Nb5  1  0.00000000  0.65634000  0.84036500  1
  Nb  Nb6  1  0.00000000  0.15963500  0.65634000  1
  Nb  Nb7  1  0.00000000  0.84036500  0.34366000  1
  Cu  Cu0  1  0.25000000  0.00000000  0.00000000  1
  Cu  Cu1  1  0.75000000  0.00000000  0.00000000  1
  Si  Si0  1  0.25000000  0.50000000  0.50000000  1
  Si  Si1  1  0.75000000  0.50000000  0.50000000  1
loop_
_geom_bond_atom_site_label_1
_geom_bond_atom_site_label_2
_geom_bond_distance
_geom_bond_site_symmetry_2
Nb0 Si1 2.656997 1_555
Nb0 Si0 2.656997 1_555
Nb1 Si1 2.656997 1_555
Nb1 Si0 2.656997 1_555
Nb2 Si0 2.656997 1_555
Nb2 Si1 2.656997 1_555
Nb3 Si1 2.656997 1_555
Nb3 Si0 2.656997 1_555
Nb4 Si1 2.656997 1_455
Nb4 Si0 2.656997 1_555
Nb5 Si1 2.656997 1_455
Nb5 Si0 2.656997 1_555
Nb6 Si1 2.656997 1_455
Nb6 Si0 2.656997 1_555
Nb7 Si0 2.656997 1_555
Nb7 Si1 2.656997 1_455
Cu0 Cu1 2.539611 1_455
Cu0 Cu1 2.539611 1_555
Cu0 Nb0 2.680964 1_545
Cu0 Nb6 2.680964 1_554
Cu0 Nb3 2.680964 1_555
Cu0 Nb4 2.680964 1_555
Cu0 Nb5 2.680964 1_544
Cu0 Nb2 2.680964 1_544
Cu0 Nb7 2.680964 1_545
Cu0 Nb1 2.680964 1_554
Cu1 Nb6 2.680964 1_654
Cu1 Nb0 2.680964 1_545
Cu1 Nb3 2.680964 1_555
Cu1 Nb4 2.680964 1_655
Cu1 Nb5 2.680964 1_644
Cu1 Nb2 2.680964 1_544
Cu1 Nb1 2.680964 1_554
Cu1 Nb7 2.680964 1_645
Si0 Si1 2.539611 1_455
Si0 Si1 2.539611 1_555
