# generated using pymatgen
data_NbOs3
_symmetry_space_group_name_H-M   'P 1'
_cell_length_a   5.56191552
_cell_length_b   5.56191552
_cell_length_c   18.24581000
_cell_angle_alpha   90.00000000
_cell_angle_beta   90.00000000
_cell_angle_gamma   119.99999434
_symmetry_Int_Tables_number   1
_chemical_formula_structural   NbOs3
_chemical_formula_sum   'Nb8 Os24'
_cell_volume   488.81281301
_cell_formula_units_Z   8
loop_
 _symmetry_equiv_pos_site_id
 _symmetry_equiv_pos_as_xyz
  1  'x, y, z'
loop_
 _atom_site_type_symbol
 _atom_site_label
 _atom_site_symmetry_multiplicity
 _atom_site_fract_x
 _atom_site_fract_y
 _atom_site_fract_z
 _atom_site_occupancy
  Nb  Nb0_0  1  0.33333350  0.16666650  0.00000000  1
  Nb  Nb0_1  1  0.33333350  0.16666650  0.50000000  1
  Nb  Nb0_2  1  0.33333350  0.66666650  0.00000000  1
  Nb  Nb0_3  1  0.33333350  0.66666650  0.50000000  1
  Nb  Nb0_4  1  0.83333350  0.16666650  0.00000000  1
  Nb  Nb0_5  1  0.83333350  0.16666650  0.50000000  1
  Nb  Nb0_6  1  0.83333350  0.66666650  0.00000000  1
  Nb  Nb0_7  1  0.83333350  0.66666650  0.50000000  1
  Os  Os0_0  1  0.33333350  0.16666650  0.25000000  1
  Os  Os0_1  1  0.33333350  0.16666650  0.75000000  1
  Os  Os0_2  1  0.33333350  0.66666650  0.25000000  1
  Os  Os0_3  1  0.33333350  0.66666650  0.75000000  1
  Os  Os0_4  1  0.83333350  0.16666650  0.25000000  1
  Os  Os0_5  1  0.83333350  0.16666650  0.75000000  1
  Os  Os0_6  1  0.83333350  0.66666650  0.25000000  1
  Os  Os0_7  1  0.83333350  0.66666650  0.75000000  1
  Os  Os1_0  1  0.16666650  0.33333350  0.13289600  1
  Os  Os1_1  1  0.16666650  0.33333350  0.63289600  1
  Os  Os1_2  1  0.16666650  0.83333350  0.13289600  1
  Os  Os1_3  1  0.16666650  0.83333350  0.63289600  1
  Os  Os1_4  1  0.66666650  0.33333350  0.13289600  1
  Os  Os1_5  1  0.66666650  0.33333350  0.63289600  1
  Os  Os1_6  1  0.66666650  0.83333350  0.13289600  1
  Os  Os1_7  1  0.66666650  0.83333350  0.63289600  1
  Os  Os2_0  1  0.16666650  0.33333350  0.36710400  1
  Os  Os2_1  1  0.16666650  0.33333350  0.86710400  1
  Os  Os2_2  1  0.16666650  0.83333350  0.36710400  1
  Os  Os2_3  1  0.16666650  0.83333350  0.86710400  1
  Os  Os2_4  1  0.66666650  0.33333350  0.36710400  1
  Os  Os2_5  1  0.66666650  0.33333350  0.86710400  1
  Os  Os2_6  1  0.66666650  0.83333350  0.36710400  1
  Os  Os2_7  1  0.66666650  0.83333350  0.86710400  1
loop_
_geom_bond_atom_site_label_1
_geom_bond_atom_site_label_2
_geom_bond_distance
_geom_bond_site_symmetry_2
Nb0_0 Nb0_2 2.780958 1_545
Nb0_0 Nb0_4 2.780958 1_555
Nb0_0 Nb0_2 2.780958 1_555
Nb0_0 Nb0_4 2.780958 1_455
Nb0_0 Nb0_6 2.780958 1_555
Nb0_0 Nb0_6 2.780958 1_445
Nb0_0 Os2_5 2.908184 1_554
Nb0_0 Os2_3 2.908184 1_544
Nb0_0 Os1_4 2.908184 1_555
Nb0_0 Os1_2 2.908184 1_545
Nb0_0 Os2_1 2.908187 1_554
Nb0_0 Os1_0 2.908187 1_555
Nb0_1 Nb0_5 2.780958 1_555
Nb0_1 Nb0_3 2.780958 1_545
Nb0_1 Nb0_5 2.780958 1_455
Nb0_1 Nb0_3 2.780958 1_555
Nb0_1 Nb0_7 2.780958 1_445
Nb0_1 Nb0_7 2.780958 1_555
Nb0_1 Os1_5 2.908184 1_555
Nb0_1 Os2_4 2.908184 1_555
Nb0_1 Os1_3 2.908184 1_545
Nb0_1 Os2_2 2.908184 1_545
Nb0_1 Os1_1 2.908187 1_555
Nb0_1 Os2_0 2.908187 1_555
Nb0_2 Nb0_6 2.780958 1_555
Nb0_2 Nb0_6 2.780958 1_455
Nb0_2 Nb0_4 2.780958 1_565
Nb0_2 Nb0_4 2.780958 1_455
Nb0_2 Os2_7 2.908184 1_554
Nb0_2 Os2_1 2.908184 1_554
Nb0_2 Os1_6 2.908184 1_555
Nb0_2 Os1_0 2.908184 1_555
Nb0_2 Os2_3 2.908187 1_554
Nb0_2 Os1_2 2.908187 1_555
Nb0_3 Nb0_7 2.780958 1_555
Nb0_3 Nb0_7 2.780958 1_455
Nb0_3 Nb0_5 2.780958 1_565
Nb0_3 Nb0_5 2.780958 1_455
Nb0_3 Os2_6 2.908184 1_555
Nb0_3 Os1_7 2.908184 1_555
Nb0_3 Os2_0 2.908184 1_555
Nb0_3 Os1_1 2.908184 1_555
Nb0_3 Os1_3 2.908187 1_555
Nb0_3 Os2_2 2.908187 1_555
Nb0_4 Nb0_6 2.780958 1_545
Nb0_4 Nb0_6 2.780958 1_555
Nb0_4 Os2_1 2.908184 1_654
Nb0_4 Os2_7 2.908184 1_544
Nb0_4 Os1_0 2.908184 1_655
Nb0_4 Os1_6 2.908184 1_545
Nb0_4 Os2_5 2.908187 1_554
Nb0_4 Os1_4 2.908187 1_555
Nb0_5 Nb0_7 2.780958 1_545
Nb0_5 Nb0_7 2.780958 1_555
Nb0_5 Os1_1 2.908184 1_655
Nb0_5 Os2_0 2.908184 1_655
Nb0_5 Os2_6 2.908184 1_545
Nb0_5 Os1_7 2.908184 1_545
Nb0_5 Os2_4 2.908187 1_555
Nb0_5 Os1_5 2.908187 1_555
Nb0_6 Os2_5 2.908184 1_554
Nb0_6 Os2_3 2.908184 1_654
Nb0_6 Os1_4 2.908184 1_555
Nb0_6 Os1_2 2.908184 1_655
Nb0_6 Os2_7 2.908187 1_554
Nb0_6 Os1_6 2.908187 1_555
Nb0_7 Os2_4 2.908184 1_555
Nb0_7 Os1_5 2.908184 1_555
Nb0_7 Os2_2 2.908184 1_655
Nb0_7 Os1_3 2.908184 1_655
Nb0_7 Os1_7 2.908187 1_555
Nb0_7 Os2_6 2.908187 1_555
Os0_0 Os2_4 2.672678 1_555
Os0_0 Os2_2 2.672678 1_545
Os0_0 Os1_4 2.672678 1_555
Os0_0 Os1_2 2.672678 1_545
Os0_0 Os2_0 2.672681 1_555
Os0_0 Os1_0 2.672681 1_555
Os0_0 Os0_2 2.780958 1_545
Os0_0 Os0_4 2.780958 1_555
Os0_0 Os0_2 2.780958 1_555
Os0_0 Os0_4 2.780958 1_455
Os0_0 Os0_6 2.780958 1_555
Os0_0 Os0_6 2.780958 1_445
Os0_1 Os1_5 2.672678 1_555
Os0_1 Os1_3 2.672678 1_545
Os0_1 Os2_5 2.672678 1_555
Os0_1 Os2_3 2.672678 1_545
Os0_1 Os1_1 2.672681 1_555
Os0_1 Os2_1 2.672681 1_555
Os0_1 Os0_5 2.780958 1_555
Os0_1 Os0_3 2.780958 1_545
Os0_1 Os0_5 2.780958 1_455
Os0_1 Os0_3 2.780958 1_555
Os0_1 Os0_7 2.780958 1_555
Os0_1 Os0_7 2.780958 1_445
Os0_2 Os2_6 2.672678 1_555
Os0_2 Os1_6 2.672678 1_555
Os0_2 Os2_0 2.672678 1_555
Os0_2 Os1_0 2.672678 1_555
Os0_2 Os2_2 2.672681 1_555
Os0_2 Os1_2 2.672681 1_555
Os0_2 Os0_6 2.780958 1_555
Os0_2 Os0_6 2.780958 1_455
Os0_2 Os0_4 2.780958 1_455
Os0_2 Os0_4 2.780958 1_565
Os0_3 Os1_7 2.672678 1_555
Os0_3 Os1_1 2.672678 1_555
Os0_3 Os2_7 2.672678 1_555
Os0_3 Os2_1 2.672678 1_555
Os0_3 Os1_3 2.672681 1_555
Os0_3 Os2_3 2.672681 1_555
Os0_3 Os0_7 2.780958 1_555
Os0_3 Os0_7 2.780958 1_455
Os0_3 Os0_5 2.780958 1_455
Os0_3 Os0_5 2.780958 1_565
Os0_4 Os2_0 2.672678 1_655
Os0_4 Os2_6 2.672678 1_545
Os0_4 Os1_6 2.672678 1_545
Os0_4 Os1_0 2.672678 1_655
Os0_4 Os1_4 2.672681 1_555
Os0_4 Os2_4 2.672681 1_555
Os0_4 Os0_6 2.780958 1_555
Os0_4 Os0_6 2.780958 1_545
Os0_5 Os1_7 2.672678 1_545
Os0_5 Os1_1 2.672678 1_655
Os0_5 Os2_7 2.672678 1_545
Os0_5 Os2_1 2.672678 1_655
Os0_5 Os1_5 2.672681 1_555
Os0_5 Os2_5 2.672681 1_555
Os0_5 Os0_7 2.780958 1_545
Os0_5 Os0_7 2.780958 1_555
Os0_6 Os2_2 2.672678 1_655
Os0_6 Os2_4 2.672678 1_555
Os0_6 Os1_4 2.672678 1_555
Os0_6 Os1_2 2.672678 1_655
Os0_6 Os2_6 2.672681 1_555
Os0_6 Os1_6 2.672681 1_555
Os0_7 Os1_3 2.672678 1_655
Os0_7 Os1_5 2.672678 1_555
Os0_7 Os2_5 2.672678 1_555
Os0_7 Os2_3 2.672678 1_655
Os0_7 Os1_7 2.672681 1_555
Os0_7 Os2_7 2.672681 1_555
Os1_0 Os1_2 2.780958 1_555
Os1_0 Os1_4 2.780958 1_555
Os1_0 Os1_4 2.780958 1_455
Os1_0 Os1_2 2.780958 1_545
Os1_0 Os1_6 2.780958 1_445
Os1_0 Os1_6 2.780958 1_555
Os1_1 Os1_3 2.780958 1_555
Os1_1 Os1_5 2.780958 1_555
Os1_1 Os1_3 2.780958 1_545
Os1_1 Os1_5 2.780958 1_455
Os1_1 Os1_7 2.780958 1_555
Os1_1 Os1_7 2.780958 1_445
Os1_2 Os1_6 2.780958 1_555
Os1_2 Os1_6 2.780958 1_455
Os1_2 Os1_4 2.780958 1_455
Os1_2 Os1_4 2.780958 1_565
Os1_3 Os1_7 2.780958 1_555
Os1_3 Os1_7 2.780958 1_455
Os1_3 Os1_5 2.780958 1_455
Os1_3 Os1_5 2.780958 1_565
Os1_4 Os1_6 2.780958 1_545
Os1_4 Os1_6 2.780958 1_555
Os1_5 Os1_7 2.780958 1_545
Os1_5 Os1_7 2.780958 1_555
Os2_0 Os2_2 2.780958 1_555
Os2_0 Os2_4 2.780958 1_555
Os2_0 Os2_2 2.780958 1_545
Os2_0 Os2_4 2.780958 1_455
Os2_0 Os2_6 2.780958 1_555
Os2_0 Os2_6 2.780958 1_445
Os2_1 Os2_5 2.780958 1_555
Os2_1 Os2_3 2.780958 1_555
Os2_1 Os2_3 2.780958 1_545
Os2_1 Os2_5 2.780958 1_455
Os2_1 Os2_7 2.780958 1_445
Os2_1 Os2_7 2.780958 1_555
Os2_2 Os2_6 2.780958 1_555
Os2_2 Os2_6 2.780958 1_455
Os2_2 Os2_4 2.780958 1_565
Os2_2 Os2_4 2.780958 1_455
Os2_3 Os2_7 2.780958 1_555
Os2_3 Os2_7 2.780958 1_455
Os2_3 Os2_5 2.780958 1_565
Os2_3 Os2_5 2.780958 1_455
Os2_4 Os2_6 2.780958 1_545
Os2_4 Os2_6 2.780958 1_555
Os2_5 Os2_7 2.780958 1_545
Os2_5 Os2_7 2.780958 1_555
