# generated using pymatgen
data_NpB12
_symmetry_space_group_name_H-M   'P 1'
_cell_length_a   5.29433493
_cell_length_b   5.29433493
_cell_length_c   5.29433493
_cell_angle_alpha   60.00000000
_cell_angle_beta   60.00000000
_cell_angle_gamma   60.00000000
_symmetry_Int_Tables_number   1
_chemical_formula_structural   NpB12
_chemical_formula_sum   'Np1 B12'
_cell_volume   104.93472732
_cell_formula_units_Z   1
loop_
 _symmetry_equiv_pos_site_id
 _symmetry_equiv_pos_as_xyz
  1  'x, y, z'
loop_
 _atom_site_type_symbol
 _atom_site_label
 _atom_site_symmetry_multiplicity
 _atom_site_fract_x
 _atom_site_fract_y
 _atom_site_fract_z
 _atom_site_occupancy
  Np  Np0  1  -0.00000000  -0.00000000  0.00000000  1
  B  B0  1  0.16188825  0.50000000  0.50000000  1
  B  B1  1  0.16188825  0.50000000  0.83811175  1
  B  B2  1  0.16188825  0.83811175  0.50000000  1
  B  B3  1  0.50000000  0.16188825  0.83811175  1
  B  B4  1  0.50000000  0.16188825  0.50000000  1
  B  B5  1  0.83811175  0.16188825  0.50000000  1
  B  B6  1  0.50000000  0.83811175  0.16188825  1
  B  B7  1  0.83811175  0.50000000  0.16188825  1
  B  B8  1  0.50000000  0.50000000  0.16188825  1
  B  B9  1  0.83811175  0.50000000  0.50000000  1
  B  B10  1  0.50000000  0.83811175  0.50000000  1
  B  B11  1  0.50000000  0.50000000  0.83811175  1
loop_
_geom_bond_atom_site_label_1
_geom_bond_atom_site_label_2
_geom_bond_distance
_geom_bond_site_symmetry_2
B0 B9 1.714181 1_455
B0 B8 1.790077 1_555
B0 B4 1.790077 1_555
B0 B1 1.790077 1_555
B0 B2 1.790077 1_555
B0 Np0 2.782463 1_556
B0 Np0 2.782463 1_565
B1 B7 1.714181 1_456
B1 B11 1.790077 1_555
B1 B3 1.790077 1_555
B1 B2 1.790077 1_555
B1 Np0 2.782463 1_566
B1 Np0 2.782463 1_556
B2 B5 1.714181 1_465
B2 B6 1.790077 1_555
B2 Np0 2.782463 1_566
B2 Np0 2.782463 1_565
B3 B6 1.714181 1_546
B3 B4 1.790077 1_555
B3 B5 1.790077 1_555
B3 Np0 2.782463 1_656
B3 Np0 2.782463 1_556
B4 B8 1.790077 1_555
B4 B5 1.790077 1_555
B4 Np0 2.782463 1_556
B4 Np0 2.782463 1_655
B5 B9 1.790077 1_555
B5 B7 1.790077 1_555
B5 Np0 2.782463 1_656
B5 Np0 2.782463 1_655
B6 B7 1.790077 1_555
B6 B8 1.790077 1_555
B6 Np0 2.782463 1_565
B6 Np0 2.782463 1_665
B7 B9 1.790077 1_555
B7 B8 1.790077 1_555
B7 Np0 2.782463 1_655
B7 Np0 2.782463 1_665
B8 Np0 2.782463 1_565
B8 Np0 2.782463 1_655
B9 Np0 2.782463 1_656
B9 Np0 2.782463 1_665
B10 B4 1.714181 1_565
B10 B2 1.790077 1_555
B10 B6 1.790077 1_555
B10 B11 1.790077 1_555
B10 B9 1.790077 1_555
B10 Np0 2.782463 1_665
B10 Np0 2.782463 1_566
B11 B8 1.714181 1_556
B11 B3 1.790077 1_555
B11 B9 1.790077 1_555
B11 Np0 2.782463 1_656
B11 Np0 2.782463 1_566
