# generated using pymatgen
data_Ce7Pt3
_symmetry_space_group_name_H-M   'P 1'
_cell_length_a   6.22509200
_cell_length_b   9.48900801
_cell_length_c   9.48900801
_cell_angle_alpha   120.00000009
_cell_angle_beta   90.00000000
_cell_angle_gamma   90.00000000
_symmetry_Int_Tables_number   1
_chemical_formula_structural   Ce7Pt3
_chemical_formula_sum   'Ce14 Pt6'
_cell_volume   485.42040948
_cell_formula_units_Z   2
loop_
 _symmetry_equiv_pos_site_id
 _symmetry_equiv_pos_as_xyz
  1  'x, y, z'
loop_
 _atom_site_type_symbol
 _atom_site_label
 _atom_site_symmetry_multiplicity
 _atom_site_fract_x
 _atom_site_fract_y
 _atom_site_fract_z
 _atom_site_occupancy
  Ce  Ce0  1  0.83560300  0.86645900  0.73291800  1
  Ce  Ce1  1  0.83560300  0.86645900  0.13354100  1
  Ce  Ce2  1  0.33560300  0.13354100  0.26708200  1
  Ce  Ce3  1  0.83560300  0.26708200  0.13354100  1
  Ce  Ce4  1  0.33560300  0.13354100  0.86645900  1
  Ce  Ce5  1  0.33560300  0.73291800  0.86645900  1
  Ce  Ce6  1  0.78817800  0.66666700  0.33333300  1
  Ce  Ce7  1  0.28817800  0.33333300  0.66666700  1
  Ce  Ce8  1  0.77869100  0.19944000  0.39888000  1
  Ce  Ce9  1  0.77869100  0.19944000  0.80056000  1
  Ce  Ce10  1  0.27869100  0.80056000  0.60112000  1
  Ce  Ce11  1  0.77869100  0.60112000  0.80056000  1
  Ce  Ce12  1  0.27869100  0.80056000  0.19944000  1
  Ce  Ce13  1  0.27869100  0.39888000  0.19944000  1
  Pt  Pt0  1  0.54631300  0.50877500  0.01755100  1
  Pt  Pt1  1  0.54631300  0.50877500  0.49122500  1
  Pt  Pt2  1  0.04631300  0.49122500  0.98244900  1
  Pt  Pt3  1  0.54631300  0.98244900  0.49122500  1
  Pt  Pt4  1  0.04631300  0.49122500  0.50877500  1
  Pt  Pt5  1  0.04631300  0.01755100  0.50877500  1
loop_
_geom_bond_atom_site_label_1
_geom_bond_atom_site_label_2
_geom_bond_distance
_geom_bond_site_symmetry_2
Ce0 Ce9 2.914258 1_565
Ce0 Ce11 2.914258 1_555
Ce0 Ce10 2.963288 1_655
Ce0 Pt4 3.368836 1_655
Ce0 Pt5 3.368843 1_665
Ce0 Pt3 3.498356 1_555
Ce0 Pt1 3.498362 1_555
Ce1 Ce11 2.914258 1_554
Ce1 Ce8 2.914258 1_565
Ce1 Ce12 2.963288 1_655
Ce1 Pt2 3.368835 1_654
Ce1 Pt5 3.368835 1_665
Ce1 Pt3 3.498363 1_555
Ce1 Pt0 3.498363 1_555
Ce2 Ce8 2.963288 1_555
Ce2 Pt1 3.368836 1_555
Ce2 Pt3 3.368843 1_545
Ce2 Pt5 3.498356 1_555
Ce2 Pt4 3.498362 1_555
Ce3 Ce9 2.914258 1_554
Ce3 Ce8 2.914258 1_555
Ce3 Pt4 3.368836 1_655
Ce3 Pt2 3.368843 1_654
Ce3 Pt0 3.498356 1_555
Ce3 Pt1 3.498362 1_555
Ce4 Ce9 2.963288 1_555
Ce4 Pt3 3.368835 1_545
Ce4 Pt0 3.368835 1_556
Ce4 Pt2 3.498363 1_555
Ce4 Pt5 3.498363 1_555
Ce5 Pt1 3.368836 1_555
Ce5 Pt0 3.368843 1_556
Ce5 Pt2 3.498356 1_555
Ce5 Pt4 3.498362 1_555
Ce6 Pt3 3.000166 1_555
Ce6 Pt0 3.000166 1_555
Ce6 Pt1 3.000180 1_555
Ce6 Pt2 3.300993 1_654
Ce6 Pt5 3.300993 1_665
Ce6 Pt4 3.300993 1_655
Ce7 Pt5 3.000166 1_555
Ce7 Pt2 3.000166 1_555
Ce7 Pt4 3.000180 1_555
Ce7 Pt3 3.300993 1_545
Ce7 Pt0 3.300993 1_556
Ce7 Pt1 3.300993 1_555
Ce8 Pt5 2.939656 1_655
Ce8 Pt4 2.939664 1_655
Ce8 Pt1 2.983994 1_555
Ce8 Pt3 2.984002 1_545
Ce9 Pt5 2.939662 1_655
Ce9 Pt2 2.939662 1_655
Ce9 Pt3 2.983996 1_545
Ce9 Pt0 2.983996 1_556
Ce10 Ce4 2.914258 1_565
Ce10 Ce5 2.914258 1_555
Ce10 Pt3 2.939656 1_555
Ce10 Pt1 2.939664 1_555
Ce10 Pt4 2.983994 1_555
Ce10 Pt5 2.984002 1_565
Ce11 Pt2 2.939656 1_655
Ce11 Pt4 2.939664 1_655
Ce11 Ce5 2.963288 1_555
Ce11 Pt1 2.983994 1_555
Ce11 Pt0 2.984002 1_556
Ce12 Ce2 2.914258 1_565
Ce12 Ce5 2.914258 1_554
Ce12 Pt3 2.939662 1_555
Ce12 Pt0 2.939662 1_555
Ce12 Pt2 2.983996 1_554
Ce12 Pt5 2.983996 1_565
Ce13 Ce4 2.914258 1_554
Ce13 Ce2 2.914258 1_555
Ce13 Pt0 2.939656 1_555
Ce13 Pt1 2.939664 1_555
Ce13 Ce3 2.963288 1_455
Ce13 Pt4 2.983994 1_555
Ce13 Pt2 2.984002 1_554
Pt0 Pt2 3.125884 1_554
Pt0 Pt2 3.125884 1_654
Pt1 Pt4 3.125883 1_555
Pt1 Pt4 3.125883 1_655
Pt3 Pt5 3.125884 1_565
Pt3 Pt5 3.125884 1_665
