# generated using pymatgen
data_CsNb2(SiO3)8
_symmetry_space_group_name_H-M   'P 1'
_cell_length_a   7.58633600
_cell_length_b   9.13945733
_cell_length_c   9.90633394
_cell_angle_alpha   89.85917430
_cell_angle_beta   108.37192842
_cell_angle_gamma   90.97170654
_symmetry_Int_Tables_number   1
_chemical_formula_structural   CsNb2(SiO3)8
_chemical_formula_sum   'Cs1 Nb2 Si8 O24'
_cell_volume   651.75019349
_cell_formula_units_Z   1
loop_
 _symmetry_equiv_pos_site_id
 _symmetry_equiv_pos_as_xyz
  1  'x, y, z'
loop_
 _atom_site_type_symbol
 _atom_site_label
 _atom_site_symmetry_multiplicity
 _atom_site_fract_x
 _atom_site_fract_y
 _atom_site_fract_z
 _atom_site_occupancy
  Cs  Cs0  1  0.00000000  0.50000000  0.50000000  1
  Nb  Nb0  1  0.08723400  0.24553700  0.90403900  1
  Nb  Nb1  1  0.91276600  0.75446300  0.09596100  1
  Si  Si0  1  0.43504500  0.24794500  0.73879600  1
  Si  Si1  1  0.56495500  0.75205500  0.26120400  1
  Si  Si2  1  0.27710600  0.00413000  0.19003900  1
  Si  Si3  1  0.73615900  0.49825700  0.80793600  1
  Si  Si4  1  0.72289400  0.99587000  0.80996100  1
  Si  Si5  1  0.26384100  0.50174300  0.19206400  1
  Si  Si6  1  0.41958600  0.25435300  0.41769900  1
  Si  Si7  1  0.58041400  0.74564700  0.58230100  1
  O  O0  1  0.98585500  0.27396400  0.07499100  1
  O  O1  1  0.01414500  0.72603600  0.92500900  1
  O  O2  1  0.09403800  0.90354100  0.18473600  1
  O  O3  1  0.91276200  0.39929800  0.80623000  1
  O  O4  1  0.90596200  0.09645900  0.81526400  1
  O  O5  1  0.08723800  0.60070200  0.19377000  1
  O  O6  1  0.24813100  0.25363700  0.78725600  1
  O  O7  1  0.75186900  0.74636300  0.21274400  1
  O  O8  1  0.31109200  0.39887800  0.33409200  1
  O  O9  1  0.67073700  0.89552000  0.66716300  1
  O  O10  1  0.68890800  0.60112200  0.66590800  1
  O  O11  1  0.32926300  0.10448000  0.33283700  1
  O  O12  1  0.36559000  0.24935300  0.56579000  1
  O  O13  1  0.63441000  0.75064700  0.43421000  1
  O  O14  1  0.44250100  0.60550800  0.19864400  1
  O  O15  1  0.54929700  0.10150500  0.80237600  1
  O  O16  1  0.55749900  0.39449200  0.80135600  1
  O  O17  1  0.45070300  0.89849500  0.19762400  1
  O  O18  1  0.77564600  0.59475700  0.95396700  1
  O  O19  1  0.23337200  0.10183900  0.04540900  1
  O  O20  1  0.22435400  0.40524300  0.04603300  1
  O  O21  1  0.76662800  0.89816100  0.95459100  1
  O  O22  1  0.63849500  0.27706500  0.43761900  1
  O  O23  1  0.36150500  0.72293500  0.56238100  1
loop_
_geom_bond_atom_site_label_1
_geom_bond_atom_site_label_2
_geom_bond_distance
_geom_bond_site_symmetry_2
Cs0 O23 3.286783 1_555
Cs0 O22 3.286783 1_455
Cs0 O10 3.413464 1_455
Cs0 O8 3.413464 1_555
Cs0 O5 3.423317 1_555
Cs0 O3 3.423317 1_455
Cs0 O13 3.526098 1_455
Cs0 O12 3.526098 1_555
Cs0 O6 3.666959 1_555
Cs0 O7 3.666959 1_455
Nb0 O4 1.923777 1_455
Nb0 O6 1.928849 1_555
Nb0 O3 1.978271 1_455
Nb0 O19 1.994198 1_556
Nb0 O20 2.056077 1_556
Nb0 O0 2.087331 1_456
Nb1 O2 1.923777 1_655
Nb1 O7 1.928849 1_555
Nb1 O5 1.978271 1_655
Nb1 O21 1.994198 1_554
Nb1 O18 2.056077 1_554
Nb1 O1 2.087331 1_654
O2 Si2 1.639413 1_565
O3 Si3 1.633619 1_555
O4 Si4 1.639413 1_545
O5 Si5 1.633619 1_555
O6 Si0 1.635726 1_555
O7 Si1 1.635726 1_555
O8 Si5 1.636743 1_555
O8 Si6 1.646185 1_555
O9 Si4 1.624825 1_555
O9 Si7 1.631931 1_555
O10 Si3 1.636743 1_555
O10 Si7 1.646185 1_555
O11 Si2 1.624825 1_555
O11 Si6 1.631931 1_555
O12 Si0 1.626643 1_555
O12 Si6 1.643150 1_555
O13 Si1 1.626643 1_555
O13 Si7 1.643150 1_555
O14 Si1 1.624784 1_555
O14 Si5 1.625326 1_555
O15 Si0 1.621821 1_555
O15 Si4 1.628656 1_545
O16 Si0 1.624784 1_555
O16 Si3 1.625326 1_555
O17 Si1 1.621821 1_555
O17 Si2 1.628656 1_565
O18 Si3 1.638434 1_555
O19 Si2 1.632308 1_555
O20 Si5 1.638434 1_555
O21 Si4 1.632308 1_555
O22 Si6 1.619240 1_555
O23 Si7 1.619240 1_555
