# generated using pymatgen
data_TiZn3
_symmetry_space_group_name_H-M   'P 1'
_cell_length_a   5.57146100
_cell_length_b   5.57146100
_cell_length_c   4.30197412
_cell_angle_alpha   90.00000000
_cell_angle_beta   90.00000000
_cell_angle_gamma   119.99999306
_symmetry_Int_Tables_number   1
_chemical_formula_structural   TiZn3
_chemical_formula_sum   'Ti2 Zn6'
_cell_volume   115.64760534
_cell_formula_units_Z   2
loop_
 _symmetry_equiv_pos_site_id
 _symmetry_equiv_pos_as_xyz
  1  'x, y, z'
loop_
 _atom_site_type_symbol
 _atom_site_label
 _atom_site_symmetry_multiplicity
 _atom_site_fract_x
 _atom_site_fract_y
 _atom_site_fract_z
 _atom_site_occupancy
  Ti  Ti0  1  0.33333300  0.66666700  0.75000000  1
  Ti  Ti1  1  0.66666700  0.33333300  0.25000000  1
  Zn  Zn0  1  0.16476782  0.32953564  0.25000000  1
  Zn  Zn1  1  0.67046436  0.83523218  0.25000000  1
  Zn  Zn2  1  0.16476782  0.83523218  0.25000000  1
  Zn  Zn3  1  0.83523218  0.67046436  0.75000000  1
  Zn  Zn4  1  0.32953564  0.16476782  0.75000000  1
  Zn  Zn5  1  0.83523218  0.16476782  0.75000000  1
loop_
_geom_bond_atom_site_label_1
_geom_bond_atom_site_label_2
_geom_bond_distance
_geom_bond_site_symmetry_2
Ti0 Zn2 2.696809 1_555
Ti0 Zn2 2.696809 1_556
Ti0 Zn0 2.696812 1_556
Ti0 Zn1 2.696812 1_555
Ti0 Zn1 2.696812 1_556
Ti0 Zn0 2.696812 1_555
Ti0 Zn3 2.785788 1_455
Ti0 Zn4 2.785788 1_565
Ti0 Zn5 2.785791 1_455
Ti0 Zn5 2.785791 1_565
Ti0 Zn3 2.785794 1_555
Ti0 Zn4 2.785794 1_555
Ti1 Zn5 2.696809 1_555
Ti1 Zn5 2.696809 1_554
Ti1 Zn4 2.696812 1_555
Ti1 Zn3 2.696812 1_554
Ti1 Zn4 2.696812 1_554
Ti1 Zn3 2.696812 1_555
Ti1 Zn1 2.785788 1_545
Ti1 Zn0 2.785788 1_655
Ti1 Zn2 2.785791 1_655
Ti1 Zn2 2.785791 1_545
Ti1 Zn1 2.785794 1_555
Ti1 Zn0 2.785794 1_555
Zn0 Zn4 2.674865 1_554
Zn0 Zn4 2.674865 1_555
Zn0 Zn5 2.674865 1_455
Zn0 Zn5 2.674865 1_454
Zn0 Zn2 2.753992 1_545
Zn0 Zn1 2.753993 1_445
Zn0 Zn2 2.817469 1_555
Zn0 Zn1 2.817469 1_555
Zn1 Zn3 2.674865 1_554
Zn1 Zn3 2.674865 1_555
Zn1 Zn5 2.674865 1_565
Zn1 Zn5 2.674865 1_564
Zn1 Zn2 2.753992 1_655
Zn1 Zn2 2.817469 1_555
Zn2 Zn4 2.674865 1_564
Zn2 Zn3 2.674865 1_454
Zn2 Zn4 2.674865 1_565
Zn2 Zn3 2.674865 1_455
Zn3 Zn5 2.753992 1_565
Zn3 Zn4 2.753993 1_665
Zn3 Zn5 2.817469 1_555
Zn3 Zn4 2.817469 1_555
Zn4 Zn5 2.753992 1_455
Zn4 Zn5 2.817469 1_555
