# generated using pymatgen
data_Dy2CdGe2
_symmetry_space_group_name_H-M   'P 1'
_cell_length_a   7.28600990
_cell_length_b   7.28600990
_cell_length_c   4.16993360
_cell_angle_alpha   90.00000000
_cell_angle_beta   90.00000000
_cell_angle_gamma   90.00000000
_symmetry_Int_Tables_number   1
_chemical_formula_structural   Dy2CdGe2
_chemical_formula_sum   'Dy4 Cd2 Ge4'
_cell_volume   221.36484599
_cell_formula_units_Z   2
loop_
 _symmetry_equiv_pos_site_id
 _symmetry_equiv_pos_as_xyz
  1  'x, y, z'
loop_
 _atom_site_type_symbol
 _atom_site_label
 _atom_site_symmetry_multiplicity
 _atom_site_fract_x
 _atom_site_fract_y
 _atom_site_fract_z
 _atom_site_occupancy
  Dy  Dy0  1  0.67852867  0.17852867  0.50000000  1
  Dy  Dy1  1  0.32147133  0.82147133  0.50000000  1
  Dy  Dy2  1  0.17852867  0.32147133  0.50000000  1
  Dy  Dy3  1  0.82147133  0.67852867  0.50000000  1
  Cd  Cd0  1  0.50000000  0.50000000  -0.00000000  1
  Cd  Cd1  1  0.00000000  0.00000000  -0.00000000  1
  Ge  Ge0  1  0.12118705  0.62118705  -0.00000000  1
  Ge  Ge1  1  0.87881295  0.37881295  0.00000000  1
  Ge  Ge2  1  0.62118705  0.87881295  -0.00000000  1
  Ge  Ge3  1  0.37881295  0.12118705  0.00000000  1
loop_
_geom_bond_atom_site_label_1
_geom_bond_atom_site_label_2
_geom_bond_distance
_geom_bond_site_symmetry_2
Dy0 Ge1 2.933606 1_556
Dy0 Ge1 2.933606 1_555
Dy0 Ge3 3.048003 1_555
Dy0 Ge3 3.048003 1_556
Dy0 Ge2 3.048003 1_545
Dy0 Ge2 3.048003 1_546
Dy1 Ge0 2.933606 1_555
Dy1 Ge0 2.933606 1_556
Dy1 Ge2 3.048003 1_556
Dy1 Ge3 3.048003 1_566
Dy1 Ge2 3.048003 1_555
Dy1 Ge3 3.048003 1_565
Dy2 Ge3 2.933606 1_556
Dy2 Ge3 2.933606 1_555
Dy2 Ge0 3.048003 1_555
Dy2 Ge0 3.048003 1_556
Dy2 Ge1 3.048003 1_456
Dy2 Ge1 3.048003 1_455
Dy3 Ge2 2.933606 1_555
Dy3 Ge2 2.933606 1_556
Dy3 Ge1 3.048003 1_556
Dy3 Ge0 3.048003 1_656
Dy3 Ge0 3.048003 1_655
Dy3 Ge1 3.048003 1_555
Cd0 Ge3 2.897832 1_555
Cd0 Ge0 2.897832 1_555
Cd0 Ge2 2.897832 1_555
Cd0 Ge1 2.897832 1_555
Cd0 Dy0 3.394874 1_554
Cd0 Dy0 3.394874 1_555
Cd0 Dy3 3.394874 1_555
Cd0 Dy2 3.394874 1_554
Cd0 Dy2 3.394874 1_555
Cd0 Dy3 3.394874 1_554
Cd0 Dy1 3.394874 1_555
Cd0 Dy1 3.394874 1_554
Cd1 Ge1 2.897832 1_455
Cd1 Ge3 2.897832 1_555
Cd1 Ge2 2.897832 1_445
Cd1 Ge0 2.897832 1_545
Cd1 Dy1 3.394874 1_545
Cd1 Dy1 3.394874 1_544
Cd1 Dy3 3.394874 1_444
Cd1 Dy3 3.394874 1_445
Cd1 Dy2 3.394874 1_554
Cd1 Dy2 3.394874 1_555
Cd1 Dy0 3.394874 1_455
Cd1 Dy0 3.394874 1_454
Ge0 Ge1 2.497416 1_455
Ge2 Ge3 2.497416 1_565
