# generated using pymatgen
data_Sr2MnSi2O7
_symmetry_space_group_name_H-M   'P 1'
_cell_length_a   5.22482900
_cell_length_b   8.23070000
_cell_length_c   8.23070000
_cell_angle_alpha   90.00000000
_cell_angle_beta   90.00000000
_cell_angle_gamma   90.00000000
_symmetry_Int_Tables_number   1
_chemical_formula_structural   Sr2MnSi2O7
_chemical_formula_sum   'Sr4 Mn2 Si4 O14'
_cell_volume   353.95302321
_cell_formula_units_Z   2
loop_
 _symmetry_equiv_pos_site_id
 _symmetry_equiv_pos_as_xyz
  1  'x, y, z'
loop_
 _atom_site_type_symbol
 _atom_site_label
 _atom_site_symmetry_multiplicity
 _atom_site_fract_x
 _atom_site_fract_y
 _atom_site_fract_z
 _atom_site_occupancy
  Sr  Sr0  1  0.50476800  0.33245600  0.16754400  1
  Sr  Sr1  1  0.49523200  0.16754400  0.66754400  1
  Sr  Sr2  1  0.50476800  0.66754400  0.83245600  1
  Sr  Sr3  1  0.49523200  0.83245600  0.33245600  1
  Mn  Mn0  1  0.00000000  0.50000000  0.50000000  1
  Mn  Mn1  1  0.00000000  0.00000000  0.00000000  1
  Si  Si0  1  0.94125900  0.13708000  0.36292000  1
  Si  Si1  1  0.05874100  0.36292000  0.86292000  1
  Si  Si2  1  0.94125900  0.86292000  0.63708000  1
  Si  Si3  1  0.05874100  0.63708000  0.13708000  1
  O  O0  1  0.16013900  0.50000000  0.00000000  1
  O  O1  1  0.83986100  0.00000000  0.50000000  1
  O  O2  1  0.24998500  0.14239500  0.35760500  1
  O  O3  1  0.75001500  0.35760500  0.85760500  1
  O  O4  1  0.24998500  0.85760500  0.64239500  1
  O  O5  1  0.75001500  0.64239500  0.14239500  1
  O  O6  1  0.79230800  0.30314100  0.42220300  1
  O  O7  1  0.20769200  0.19685900  0.92220300  1
  O  O8  1  0.79230800  0.69685900  0.57779700  1
  O  O9  1  0.20769200  0.80314100  0.07779700  1
  O  O10  1  0.20769200  0.57779700  0.30314100  1
  O  O11  1  0.79230800  0.92220300  0.80314100  1
  O  O12  1  0.20769200  0.42220300  0.69685900  1
  O  O13  1  0.79230800  0.07779700  0.19685900  1
loop_
_geom_bond_atom_site_label_1
_geom_bond_atom_site_label_2
_geom_bond_distance
_geom_bond_site_symmetry_2
Mn0 O10 2.052537 1_555
Mn0 O6 2.052537 1_455
Mn0 O8 2.052537 1_455
Mn0 O12 2.052537 1_555
Mn1 O13 2.052537 1_455
Mn1 O7 2.052537 1_554
Mn1 O9 2.052537 1_545
Mn1 O11 2.052537 1_444
O0 Si1 1.681260 1_554
O0 Si3 1.681260 1_555
O0 Sr2 2.654349 1_554
O0 Sr0 2.654349 1_555
O1 Si0 1.681260 1_555
O1 Si2 1.681260 1_545
O1 Sr1 2.654349 1_555
O1 Sr3 2.654349 1_545
O2 Si0 1.614227 1_455
O2 Sr0 2.581933 1_555
O2 Sr1 2.862244 1_555
O2 Sr3 2.862244 1_545
O3 Si1 1.614227 1_655
O3 Sr1 2.581933 1_555
O3 Sr2 2.862244 1_555
O3 Sr0 2.862244 1_556
O4 Si2 1.614227 1_455
O4 Sr2 2.581933 1_555
O4 Sr3 2.862244 1_555
O4 Sr1 2.862244 1_565
O5 Si3 1.614227 1_655
O5 Sr3 2.581933 1_555
O5 Sr0 2.862244 1_555
O5 Sr2 2.862244 1_554
O6 Si0 1.646781 1_555
O6 Sr0 2.590091 1_555
O6 Sr1 2.780739 1_555
O7 Si1 1.646781 1_555
O7 Sr1 2.590091 1_555
O7 Sr0 2.780739 1_556
O8 Si2 1.646781 1_555
O8 Sr2 2.590091 1_555
O8 Sr3 2.780739 1_555
O9 Si3 1.646781 1_555
O9 Sr3 2.590091 1_555
O9 Sr2 2.780739 1_554
O10 Si3 1.646781 1_555
O10 Sr3 2.590091 1_555
O10 Sr0 2.780739 1_555
O11 Si2 1.646781 1_555
O11 Sr2 2.590091 1_555
O11 Sr1 2.780739 1_565
O12 Si1 1.646781 1_555
O12 Sr1 2.590091 1_555
O12 Sr2 2.780739 1_555
O13 Si0 1.646781 1_555
O13 Sr0 2.590091 1_555
O13 Sr3 2.780739 1_545
