# generated using pymatgen
data_Rb2MoP2O9
_symmetry_space_group_name_H-M   'P 1'
_cell_length_a   8.37288628
_cell_length_b   8.37288628
_cell_length_c   16.03747498
_cell_angle_alpha   82.42763879
_cell_angle_beta   82.42763879
_cell_angle_gamma   60.93938067
_symmetry_Int_Tables_number   1
_chemical_formula_structural   Rb2MoP2O9
_chemical_formula_sum   'Rb8 Mo4 P8 O36'
_cell_volume   971.21246394
_cell_formula_units_Z   4
loop_
 _symmetry_equiv_pos_site_id
 _symmetry_equiv_pos_as_xyz
  1  'x, y, z'
loop_
 _atom_site_type_symbol
 _atom_site_label
 _atom_site_symmetry_multiplicity
 _atom_site_fract_x
 _atom_site_fract_y
 _atom_site_fract_z
 _atom_site_occupancy
  Rb  Rb0  1  0.49142500  0.78910800  0.26666300  1
  Rb  Rb1  1  0.50857500  0.21089200  0.73333700  1
  Rb  Rb2  1  0.21089200  0.50857500  0.23333700  1
  Rb  Rb3  1  0.78910800  0.49142500  0.76666300  1
  Rb  Rb4  1  0.55214400  0.73620600  0.52190700  1
  Rb  Rb5  1  0.44785600  0.26379400  0.47809300  1
  Rb  Rb6  1  0.26379400  0.44785600  0.97809300  1
  Rb  Rb7  1  0.73620600  0.55214400  0.02190700  1
  Mo  Mo0  1  0.76220000  0.01323600  0.13815400  1
  Mo  Mo1  1  0.23780000  0.98676400  0.86184600  1
  Mo  Mo2  1  0.98676400  0.23780000  0.36184600  1
  Mo  Mo3  1  0.01323600  0.76220000  0.63815400  1
  P  P0  1  0.23331200  0.85043400  0.07220900  1
  P  P1  1  0.76668800  0.14956600  0.92779100  1
  P  P2  1  0.14956600  0.76668800  0.42779100  1
  P  P3  1  0.85043400  0.23331200  0.57220900  1
  P  P4  1  0.80307100  0.95045400  0.34280800  1
  P  P5  1  0.19692900  0.04954600  0.65719200  1
  P  P6  1  0.04954600  0.19692900  0.15719200  1
  P  P7  1  0.95045400  0.80307100  0.84280800  1
  O  O0  1  0.38025000  0.68994300  0.11952700  1
  O  O1  1  0.61975000  0.31005700  0.88047300  1
  O  O2  1  0.31005700  0.61975000  0.38047300  1
  O  O3  1  0.68994300  0.38025000  0.61952700  1
  O  O4  1  0.21217600  0.03829000  0.10150600  1
  O  O5  1  0.78782400  0.96171000  0.89849400  1
  O  O6  1  0.96171000  0.78782400  0.39849400  1
  O  O7  1  0.03829000  0.21217600  0.60150600  1
  O  O8  1  0.62876300  0.94357800  0.37329500  1
  O  O9  1  0.37123700  0.05642200  0.62670500  1
  O  O10  1  0.05642200  0.37123700  0.12670500  1
  O  O11  1  0.94357800  0.62876300  0.87329500  1
  O  O12  1  0.55079000  0.16016600  0.18624000  1
  O  O13  1  0.44921000  0.83983400  0.81376000  1
  O  O14  1  0.83983400  0.44921000  0.31376000  1
  O  O15  1  0.16016600  0.55079000  0.68624000  1
  O  O16  1  0.73204300  0.82989800  0.11838400  1
  O  O17  1  0.26795700  0.17010200  0.88161600  1
  O  O18  1  0.17010200  0.26795700  0.38161600  1
  O  O19  1  0.82989800  0.73204300  0.61838400  1
  O  O20  1  0.69949900  0.14837000  0.02317300  1
  O  O21  1  0.30050100  0.85163000  0.97682700  1
  O  O22  1  0.85163000  0.30050100  0.47682700  1
  O  O23  1  0.14837000  0.69949900  0.52317300  1
  O  O24  1  0.79876900  0.13128700  0.35426300  1
  O  O25  1  0.20123100  0.86871300  0.64573700  1
  O  O26  1  0.86871300  0.20123100  0.14573700  1
  O  O27  1  0.13128700  0.79876900  0.85426300  1
  O  O28  1  0.85713800  0.04563300  0.58359900  1
  O  O29  1  0.14286200  0.95436700  0.41640100  1
  O  O30  1  0.95436700  0.14286200  0.91640100  1
  O  O31  1  0.04563300  0.85713800  0.08359900  1
  O  O32  1  0.87640700  0.89226300  0.25030200  1
  O  O33  1  0.12359300  0.10773700  0.74969800  1
  O  O34  1  0.10773700  0.12359300  0.24969800  1
  O  O35  1  0.89226300  0.87640700  0.75030200  1
loop_
_geom_bond_atom_site_label_1
_geom_bond_atom_site_label_2
_geom_bond_distance
_geom_bond_site_symmetry_2
Mo0 O12 1.736730 1_555
Mo0 O16 1.745463 1_545
Mo0 O20 2.020982 1_555
Mo0 O32 2.051199 1_545
Mo0 O26 2.174987 1_555
Mo0 O31 2.201483 1_645
Mo1 O13 1.736730 1_555
Mo1 O17 1.745463 1_565
Mo1 O21 2.020982 1_555
Mo1 O33 2.051199 1_565
Mo1 O27 2.174987 1_555
Mo1 O30 2.201483 1_465
Mo2 O14 1.736730 1_555
Mo2 O18 1.745463 1_655
Mo2 O22 2.020982 1_555
Mo2 O34 2.051199 1_655
Mo2 O24 2.174987 1_555
Mo2 O29 2.201483 1_645
Mo3 O15 1.736730 1_555
Mo3 O19 1.745463 1_455
Mo3 O23 2.020982 1_555
Mo3 O35 2.051199 1_455
Mo3 O25 2.174987 1_555
Mo3 O28 2.201483 1_465
O0 P0 1.505476 1_555
O0 Rb2 2.885751 1_555
O0 Rb7 2.927563 1_555
O0 Rb0 2.995019 1_555
O1 P1 1.505476 1_555
O1 Rb3 2.885751 1_555
O1 Rb6 2.927563 1_555
O1 Rb1 2.995019 1_555
O2 P2 1.505476 1_555
O2 Rb0 2.885751 1_555
O2 Rb5 2.927563 1_555
O2 Rb2 2.995019 1_555
O3 P3 1.505476 1_555
O3 Rb1 2.885751 1_555
O3 Rb4 2.927563 1_555
O3 Rb3 2.995019 1_555
O4 P0 1.621274 1_545
O4 P6 1.628217 1_555
O5 P1 1.621274 1_565
O5 P7 1.628217 1_555
O6 P2 1.621274 1_655
O6 P4 1.628217 1_555
O7 P3 1.621274 1_455
O7 P5 1.628217 1_555
O8 P4 1.502843 1_555
O8 Rb0 2.909568 1_555
O8 Rb4 2.948758 1_555
O8 Rb5 2.979758 1_565
O9 P5 1.502843 1_555
O9 Rb1 2.909568 1_555
O9 Rb5 2.948758 1_555
O9 Rb4 2.979758 1_545
O10 P6 1.502843 1_555
O10 Rb2 2.909568 1_555
O10 Rb6 2.948758 1_554
O10 Rb7 2.979758 1_455
O11 P7 1.502843 1_555
O11 Rb3 2.909568 1_555
O11 Rb7 2.948758 1_556
O11 Rb6 2.979758 1_655
O12 Rb2 3.021380 1_555
O13 Rb3 3.021380 1_555
O14 Rb0 3.021380 1_555
O15 Rb1 3.021380 1_555
O16 Rb7 2.942619 1_555
O16 Rb0 3.003701 1_555
O17 Rb6 2.942619 1_555
O17 Rb1 3.003701 1_555
O18 Rb5 2.942619 1_555
O18 Rb2 3.003701 1_555
O19 Rb4 2.942619 1_555
O19 Rb3 3.003701 1_555
O20 P1 1.559216 1_554
O20 Rb6 3.383741 1_554
O21 P0 1.559216 1_556
O21 Rb7 3.383741 1_556
O22 P3 1.559216 1_555
O22 Rb4 3.383741 1_555
O23 P2 1.559216 1_555
O23 Rb5 3.383741 1_555
O24 P4 1.531702 1_545
O24 Rb5 3.111853 1_555
O25 P5 1.531702 1_565
O25 Rb4 3.111853 1_555
O26 P6 1.531702 1_655
O26 Rb7 3.111853 1_555
O27 P7 1.531702 1_455
O27 Rb6 3.111853 1_555
O28 P3 1.532065 1_555
O29 P2 1.532065 1_555
O30 P1 1.532065 1_555
O31 P0 1.532065 1_555
O32 P4 1.573266 1_555
O32 Rb2 3.086606 1_655
O33 P5 1.573266 1_555
O33 Rb3 3.086606 1_455
O34 P6 1.573266 1_555
O34 Rb0 3.086606 1_545
O35 P7 1.573266 1_555
O35 Rb1 3.086606 1_565
