# generated using pymatgen
data_K2Zn3S4
_symmetry_space_group_name_H-M   'P 1'
_cell_length_a   6.09572221
_cell_length_b   9.99988628
_cell_length_c   13.48063056
_cell_angle_alpha   90.00000000
_cell_angle_beta   90.00000000
_cell_angle_gamma   90.00000000
_symmetry_Int_Tables_number   1
_chemical_formula_structural   K2Zn3S4
_chemical_formula_sum   'K8 Zn12 S16'
_cell_volume   821.73244625
_cell_formula_units_Z   4
loop_
 _symmetry_equiv_pos_site_id
 _symmetry_equiv_pos_as_xyz
  1  'x, y, z'
loop_
 _atom_site_type_symbol
 _atom_site_label
 _atom_site_symmetry_multiplicity
 _atom_site_fract_x
 _atom_site_fract_y
 _atom_site_fract_z
 _atom_site_occupancy
  K  K0  1  -0.00000000  0.00000000  0.00000000  1
  K  K1  1  0.50000000  0.50000000  0.50000000  1
  K  K2  1  -0.00000000  0.50000000  0.00000000  1
  K  K3  1  0.50000000  0.00000000  0.50000000  1
  K  K4  1  0.02415857  0.25000000  0.53526539  1
  K  K5  1  0.47584143  0.25000000  0.03526539  1
  K  K6  1  0.97584143  0.75000000  0.46473461  1
  K  K7  1  0.52415857  0.75000000  0.96473461  1
  Zn  Zn0  1  0.74251726  0.25000000  0.79117444  1
  Zn  Zn1  1  0.75748274  0.25000000  0.29117444  1
  Zn  Zn2  1  0.25748274  0.75000000  0.20882556  1
  Zn  Zn3  1  0.24251726  0.75000000  0.70882556  1
  Zn  Zn4  1  0.81459904  0.90272647  0.75625020  1
  Zn  Zn5  1  0.68540096  0.59727353  0.25625020  1
  Zn  Zn6  1  0.18540096  0.40272647  0.24374980  1
  Zn  Zn7  1  0.31459904  0.09727353  0.74374980  1
  Zn  Zn8  1  0.18540096  0.09727353  0.24374980  1
  Zn  Zn9  1  0.31459904  0.40272647  0.74374980  1
  Zn  Zn10  1  0.81459904  0.59727353  0.75625020  1
  Zn  Zn11  1  0.68540096  0.90272647  0.25625020  1
  S  S0  1  0.10427239  0.25000000  0.83678551  1
  S  S1  1  0.39572761  0.25000000  0.33678551  1
  S  S2  1  0.89572761  0.75000000  0.16321449  1
  S  S3  1  0.60427239  0.75000000  0.66321449  1
  S  S4  1  0.53620012  0.25000000  0.64200566  1
  S  S5  1  0.96379988  0.25000000  0.14200566  1
  S  S6  1  0.46379988  0.75000000  0.35799434  1
  S  S7  1  0.03620012  0.75000000  0.85799434  1
  S  S8  1  0.09804026  0.96013304  0.64660994  1
  S  S9  1  0.40195974  0.53986696  0.14660994  1
  S  S10  1  0.90195974  0.46013304  0.35339006  1
  S  S11  1  0.59804026  0.03986696  0.85339006  1
  S  S12  1  0.90195974  0.03986696  0.35339006  1
  S  S13  1  0.59804026  0.46013304  0.85339006  1
  S  S14  1  0.09804026  0.53986696  0.64660994  1
  S  S15  1  0.40195974  0.96013304  0.14660994  1
loop_
_geom_bond_atom_site_label_1
_geom_bond_atom_site_label_2
_geom_bond_distance
_geom_bond_site_symmetry_2
K0 S5 3.156453 1_455
K0 S7 3.156453 1_544
K0 S11 3.173125 1_454
K0 S15 3.173125 1_545
K0 S2 3.390412 1_445
K0 S0 3.390412 1_554
K1 S6 3.156453 1_555
K1 S4 3.156453 1_555
K1 S10 3.173125 1_555
K1 S14 3.173125 1_555
K1 S3 3.390412 1_555
K1 S1 3.390412 1_555
K2 S5 3.156453 1_455
K2 S7 3.156453 1_554
K2 S13 3.173125 1_454
K2 S9 3.173125 1_555
K2 S0 3.390412 1_554
K2 S2 3.390412 1_455
K3 S6 3.156453 1_545
K3 S4 3.156453 1_555
K3 S12 3.173125 1_555
K3 S8 3.173125 1_545
K3 S3 3.390412 1_545
K3 S1 3.390412 1_555
K4 S14 3.295134 1_555
K4 S8 3.295134 1_545
K4 S4 3.304227 1_455
K4 S12 3.313856 1_455
K4 S10 3.313856 1_455
K4 S4 3.436974 1_555
K4 S1 3.505590 1_555
K5 S9 3.295134 1_555
K5 S15 3.295134 1_545
K5 S5 3.304227 1_555
K5 S13 3.313856 1_554
K5 S11 3.313856 1_554
K5 S5 3.436974 1_455
K5 S0 3.505590 1_554
K6 S12 3.295134 1_565
K6 S10 3.295134 1_555
K6 S6 3.304227 1_655
K6 S8 3.313856 1_655
K6 S14 3.313856 1_655
K6 S6 3.436974 1_555
K6 S3 3.505590 1_555
K7 S11 3.295134 1_565
K7 S13 3.295134 1_555
K7 S7 3.304227 1_555
K7 S9 3.313856 1_556
K7 S15 3.313856 1_556
K7 S7 3.436974 1_655
K7 S2 3.505590 1_556
S0 Zn0 2.289276 1_455
S0 Zn9 2.355677 1_555
S0 Zn7 2.355677 1_555
S1 Zn1 2.289276 1_555
S1 Zn6 2.355677 1_555
S1 Zn8 2.355677 1_555
S2 Zn2 2.289276 1_655
S2 Zn5 2.355677 1_555
S2 Zn11 2.355677 1_555
S3 Zn3 2.289276 1_555
S3 Zn10 2.355677 1_555
S3 Zn4 2.355677 1_555
S4 Zn0 2.371785 1_555
S4 Zn9 2.457318 1_555
S4 Zn7 2.457318 1_555
S5 Zn1 2.371785 1_555
S5 Zn8 2.457318 1_655
S5 Zn6 2.457318 1_655
S6 Zn2 2.371785 1_555
S6 Zn5 2.457318 1_555
S6 Zn11 2.457318 1_555
S7 Zn3 2.371785 1_555
S7 Zn10 2.457318 1_455
S7 Zn4 2.457318 1_455
S8 Zn7 2.310440 1_565
S8 Zn4 2.345060 1_455
S8 Zn3 2.427866 1_555
S9 Zn6 2.310440 1_555
S9 Zn5 2.345060 1_555
S9 Zn2 2.427866 1_555
S10 Zn5 2.310440 1_555
S10 Zn6 2.345060 1_655
S10 Zn1 2.427866 1_555
S11 Zn4 2.310440 1_545
S11 Zn7 2.345060 1_555
S11 Zn0 2.427866 1_555
S12 Zn11 2.310440 1_545
S12 Zn8 2.345060 1_655
S12 Zn1 2.427866 1_555
S13 Zn10 2.310440 1_555
S13 Zn9 2.345060 1_555
S13 Zn0 2.427866 1_555
S14 Zn9 2.310440 1_555
S14 Zn10 2.345060 1_455
S14 Zn3 2.427866 1_555
S15 Zn8 2.310440 1_565
S15 Zn11 2.345060 1_555
S15 Zn2 2.427866 1_555
