# generated using pymatgen
data_Ba2Ti2F11
_symmetry_space_group_name_H-M   'P 1'
_cell_length_a   7.67639518
_cell_length_b   7.67639518
_cell_length_c   14.06670000
_cell_angle_alpha   90.00000000
_cell_angle_beta   90.00000000
_cell_angle_gamma   119.99999294
_symmetry_Int_Tables_number   1
_chemical_formula_structural   Ba2Ti2F11
_chemical_formula_sum   'Ba6 Ti6 F33'
_cell_volume   717.85633318
_cell_formula_units_Z   3
loop_
 _symmetry_equiv_pos_site_id
 _symmetry_equiv_pos_as_xyz
  1  'x, y, z'
loop_
 _atom_site_type_symbol
 _atom_site_label
 _atom_site_symmetry_multiplicity
 _atom_site_fract_x
 _atom_site_fract_y
 _atom_site_fract_z
 _atom_site_occupancy
  Ba  Ba0  1  0.52646900  0.15645800  0.66403200  1
  Ba  Ba1  1  0.13825900  0.42633400  0.81134200  1
  Ba  Ba2  1  0.62998900  0.47353100  0.99736500  1
  Ba  Ba3  1  0.57366600  0.71192500  0.47800900  1
  Ba  Ba4  1  0.28807500  0.86174100  0.14467600  1
  Ba  Ba5  1  0.84354200  0.37001100  0.33069900  1
  Ti  Ti0  1  0.57192600  0.98142200  0.90294700  1
  Ti  Ti1  1  0.84796100  0.79930200  0.73118600  1
  Ti  Ti2  1  0.20069800  0.04865800  0.39785300  1
  Ti  Ti3  1  0.40949600  0.42807400  0.23628100  1
  Ti  Ti4  1  0.95134200  0.15203900  0.06452000  1
  Ti  Ti5  1  0.01857800  0.59050400  0.56961400  1
  F  F0  1  0.66230500  0.06639800  0.04555800  1
  F  F1  1  0.47327600  0.71329600  0.94922500  1
  F  F2  1  0.40409300  0.33769500  0.37889100  1
  F  F3  1  0.13414600  0.49534200  0.47702700  1
  F  F4  1  0.54423700  0.29033900  0.18247800  1
  F  F5  1  0.95157700  0.57957100  0.17596800  1
  F  F6  1  0.50465800  0.63880400  0.14369400  1
  F  F7  1  0.42042900  0.37200600  0.84263500  1
  F  F8  1  0.74610200  0.45576300  0.51581100  1
  F  F9  1  0.23682900  0.29255400  0.09814400  1
  F  F10  1  0.36119600  0.86585400  0.81036000  1
  F  F11  1  0.93360200  0.59590700  0.71222400  1
  F  F12  1  0.37886800  0.03286800  0.96513400  1
  F  F13  1  0.01863200  0.40251300  0.00067900  1
  F  F14  1  0.65400000  0.62113200  0.29846700  1
  F  F15  1  0.28670400  0.75998000  0.61589200  1
  F  F16  1  0.87162600  0.05756400  0.92660600  1
  F  F17  1  0.05572500  0.76317100  0.43147700  1
  F  F18  1  0.95030400  0.03708200  0.40220100  1
  F  F19  1  0.96713200  0.34600000  0.63180100  1
  F  F20  1  0.08677800  0.04969600  0.73553500  1
  F  F21  1  0.59748700  0.61611800  0.66734500  1
  F  F22  1  0.38388200  0.98136800  0.33401200  1
  F  F23  1  0.18593800  0.12837400  0.25993900  1
  F  F24  1  0.70744600  0.94427500  0.76481100  1
  F  F25  1  0.70966100  0.25389800  0.84914400  1
  F  F26  1  0.24002000  0.52672400  0.28255900  1
  F  F27  1  0.83859300  0.71473000  0.85353900  1
  F  F28  1  0.87613700  0.16140700  0.18687300  1
  F  F29  1  0.96291800  0.91322200  0.06886800  1
  F  F30  1  0.62799400  0.04842300  0.50930100  1
  F  F31  1  0.94243600  0.81406200  0.59327200  1
  F  F32  1  0.28527000  0.12386300  0.52020600  1
loop_
_geom_bond_atom_site_label_1
_geom_bond_atom_site_label_2
_geom_bond_distance
_geom_bond_site_symmetry_2
Ba0 F30 2.584350 1_555
Ba0 F32 2.668462 1_555
Ba0 F15 2.739972 1_545
Ba0 F10 2.827125 1_545
Ba0 F25 2.874987 1_555
Ba0 F8 2.931705 1_555
Ba0 F19 2.973791 1_555
Ba0 F24 2.975818 1_545
Ba0 F20 3.210826 1_555
Ba0 F21 3.290333 1_555
Ba0 F7 3.325540 1_555
Ba0 F11 3.326256 1_555
Ba1 F7 2.441883 1_555
Ba1 F19 2.770243 1_455
Ba1 F13 2.793245 1_556
Ba1 F11 2.855095 1_455
Ba1 F25 2.916254 1_455
Ba1 F20 2.917169 1_555
Ba1 F10 2.922043 1_555
Ba1 F16 3.006275 1_455
Ba1 F1 3.092418 1_555
Ba2 F7 2.584339 1_555
Ba2 F27 2.668462 1_555
Ba2 F1 2.739971 1_555
Ba2 F6 2.827136 1_556
Ba2 F4 2.875000 1_556
Ba2 F25 2.931705 1_555
Ba2 F12 2.973791 1_555
Ba2 F9 2.975818 1_556
Ba2 F29 3.210826 1_556
Ba2 F13 3.290340 1_656
Ba2 F5 3.325540 1_556
Ba2 F0 3.326258 1_556
Ba3 F30 2.441881 1_565
Ba3 F14 2.770256 1_555
Ba3 F21 2.793233 1_555
Ba3 F2 2.855095 1_555
Ba3 F8 2.916254 1_555
Ba3 F18 2.917174 1_565
Ba3 F3 2.922043 1_555
Ba3 F31 3.006267 1_555
Ba3 F15 3.092417 1_555
Ba4 F5 2.441881 1_455
Ba4 F12 2.770256 1_564
Ba4 F22 2.793232 1_555
Ba4 F0 2.855095 1_565
Ba4 F4 2.916254 1_565
Ba4 F29 2.917174 1_455
Ba4 F6 2.922043 1_555
Ba4 F23 3.006267 1_565
Ba4 F26 3.092417 1_555
Ba5 F5 2.584351 1_555
Ba5 F28 2.668462 1_555
Ba5 F26 2.739972 1_655
Ba5 F3 2.827125 1_655
Ba5 F8 2.874987 1_555
Ba5 F4 2.931705 1_555
Ba5 F14 2.973793 1_555
Ba5 F17 2.975811 1_655
Ba5 F18 3.210821 1_555
Ba5 F22 3.290336 1_545
Ba5 F30 3.325529 1_555
Ba5 F2 3.326255 1_555
F0 Ti4 1.991884 1_555
F0 Ti0 2.116267 1_544
F1 Ti0 1.917013 1_555
F2 Ti2 1.991882 1_555
F2 Ti3 2.116253 1_555
F3 Ti5 1.914406 1_555
F4 Ti3 1.963192 1_555
F6 Ti3 1.914406 1_555
F8 Ti5 1.963192 1_655
F9 Ti4 1.956027 1_455
F9 Ti3 2.288221 1_555
F10 Ti0 1.914406 1_555
F11 Ti1 1.991876 1_555
F11 Ti5 2.116253 1_655
F12 Ti0 1.924250 1_545
F13 Ti4 1.943456 1_455
F14 Ti3 1.924243 1_555
F15 Ti5 1.917013 1_555
F16 Ti4 2.054314 1_556
F16 Ti0 2.097743 1_545
F17 Ti2 1.956027 1_565
F17 Ti5 2.288221 1_555
F18 Ti2 1.880264 1_655
F19 Ti5 1.924250 1_655
F20 Ti1 1.880261 1_445
F21 Ti1 1.943456 1_555
F22 Ti2 1.943456 1_565
F23 Ti2 2.054315 1_555
F23 Ti3 2.097741 1_555
F24 Ti1 1.956037 1_555
F24 Ti0 2.288209 1_555
F25 Ti0 1.963192 1_545
F26 Ti3 1.917013 1_555
F27 Ti1 1.828155 1_555
F28 Ti4 1.828158 1_555
F29 Ti4 1.880256 1_565
F31 Ti1 2.054313 1_555
F31 Ti5 2.097741 1_655
F32 Ti2 1.828156 1_555
