# generated using pymatgen
data_Sr7SiB3NO13
_symmetry_space_group_name_H-M   'P 1'
_cell_length_a   10.85590345
_cell_length_b   10.80284310
_cell_length_c   7.04507128
_cell_angle_alpha   90.27745929
_cell_angle_beta   90.22677963
_cell_angle_gamma   119.91398021
_symmetry_Int_Tables_number   1
_chemical_formula_structural   Sr7SiB3NO13
_chemical_formula_sum   'Sr14 Si2 B6 N2 O26'
_cell_volume   716.10882038
_cell_formula_units_Z   2
loop_
 _symmetry_equiv_pos_site_id
 _symmetry_equiv_pos_as_xyz
  1  'x, y, z'
loop_
 _atom_site_type_symbol
 _atom_site_label
 _atom_site_symmetry_multiplicity
 _atom_site_fract_x
 _atom_site_fract_y
 _atom_site_fract_z
 _atom_site_occupancy
  Sr  Sr0  1  0.13991100  0.86868300  0.17475100  1
  Sr  Sr1  1  0.04096000  0.51135300  0.84896700  1
  Sr  Sr2  1  0.46938700  0.95855000  0.85109900  1
  Sr  Sr3  1  0.13357500  0.27068400  0.16360700  1
  Sr  Sr4  1  0.33297700  0.66658700  0.48654700  1
  Sr  Sr5  1  0.49256200  0.53360300  0.85086300  1
  Sr  Sr6  1  0.26173000  0.12881400  0.65917300  1
  Sr  Sr7  1  0.72849600  0.85937000  0.18805800  1
  Sr  Sr8  1  0.50758400  0.46383600  0.35027200  1
  Sr  Sr9  1  0.66679800  0.33420900  0.98923700  1
  Sr  Sr10  1  0.53371000  0.04365900  0.35101700  1
  Sr  Sr11  1  0.86617000  0.74093600  0.66538500  1
  Sr  Sr12  1  0.95770400  0.48948600  0.34978100  1
  Sr  Sr13  1  0.86831000  0.12964600  0.66397000  1
  Si  Si0  1  0.33278800  0.66670400  0.07580400  1
  Si  Si1  1  0.66859600  0.33445600  0.57636100  1
  B  B0  1  0.18174700  0.81715900  0.64321500  1
  B  B1  1  0.18453700  0.36626400  0.64067000  1
  B  B2  1  0.63188700  0.81548500  0.64579800  1
  B  B3  1  0.36370400  0.18060200  0.13669200  1
  B  B4  1  0.81810100  0.63866600  0.14216600  1
  B  B5  1  0.82134900  0.18341800  0.13944000  1
  N  N0  1  0.99675100  0.99705500  0.93491900  1
  N  N1  1  0.99365100  0.99398000  0.53313900  1
  O  O0  1  0.17938000  0.88058400  0.81329300  1
  O  O1  1  0.07154900  0.68285200  0.59083800  1
  O  O2  1  0.29787500  0.88885700  0.52160700  1
  O  O3  1  0.18355600  0.65070100  0.15918000  1
  O  O4  1  0.11406300  0.41487600  0.52291600  1
  O  O5  1  0.33207300  0.66723800  0.84141200  1
  O  O6  1  0.11982300  0.29282500  0.80496800  1
  O  O7  1  0.46621100  0.81598900  0.16202100  1
  O  O8  1  0.34817800  0.53174300  0.15660000  1
  O  O9  1  0.31924900  0.39279200  0.59121100  1
  O  O10  1  0.61007200  0.92725600  0.59275200  1
  O  O11  1  0.27915300  0.16269900  0.29313800  1
  O  O12  1  0.41312700  0.30200400  0.02548300  1
  O  O13  1  0.58929000  0.70043500  0.51961500  1
  O  O14  1  0.69107600  0.81419400  0.81939900  1
  O  O15  1  0.39971600  0.07748600  0.09233800  1
  O  O16  1  0.67848800  0.59876800  0.09733900  1
  O  O17  1  0.65547100  0.47096900  0.65720900  1
  O  O18  1  0.53327000  0.18510700  0.65573500  1
  O  O19  1  0.88492500  0.72845200  0.29624400  1
  O  O20  1  0.66784600  0.33374400  0.34190000  1
  O  O21  1  0.89020100  0.58799800  0.03245800  1
  O  O22  1  0.81755000  0.34727700  0.65618800  1
  O  O23  1  0.69701400  0.11156600  0.03263000  1
  O  O24  1  0.92485300  0.32053200  0.08812900  1
  O  O25  1  0.84300500  0.11984800  0.29699000  1
loop_
_geom_bond_atom_site_label_1
_geom_bond_atom_site_label_2
_geom_bond_distance
_geom_bond_site_symmetry_2
B0 O0 1.384082 1_555
B0 O1 1.390152 1_555
B0 O2 1.401530 1_555
B1 O6 1.386422 1_555
B1 O9 1.388959 1_555
B1 O4 1.396147 1_555
B2 O14 1.382662 1_555
B2 O10 1.393751 1_555
B2 O13 1.400581 1_555
B3 O15 1.386833 1_555
B3 O11 1.388418 1_555
B3 O12 1.390379 1_555
B4 O16 1.387792 1_555
B4 O19 1.388202 1_555
B4 O21 1.391982 1_555
B5 O25 1.387521 1_555
B5 O23 1.389940 1_555
B5 O24 1.391266 1_555
N0 Sr3 3.015866 1_666
N0 Sr11 3.047358 1_555
N0 Sr0 3.056942 1_656
N0 Sr7 3.101607 1_556
N0 Sr13 3.104350 1_565
N0 Sr6 3.172041 1_665
N1 Sr11 2.552929 1_555
N1 Sr13 2.614347 1_565
N1 Sr6 2.668065 1_665
O0 Sr0 2.577136 1_556
O0 Sr6 2.610342 1_565
O0 Sr2 2.835221 1_555
O1 Sr12 2.479743 1_455
O1 Sr1 2.504706 1_555
O1 Sr11 2.653673 1_455
O1 Sr4 3.022878 1_555
O2 Sr10 2.563031 1_565
O2 Sr4 2.622850 1_555
O2 Sr2 2.823593 1_555
O2 Sr0 2.923765 1_555
O2 Sr6 2.967494 1_565
O3 Si0 1.651861 1_555
O3 Sr12 2.576321 1_455
O3 Sr0 2.625351 1_555
O3 Sr1 2.656281 1_554
O3 Sr4 2.769240 1_555
O4 Sr12 2.525142 1_455
O4 Sr4 2.583341 1_555
O4 Sr1 2.794403 1_555
O4 Sr3 3.028888 1_555
O5 Si0 1.651347 1_556
O5 Sr4 2.500097 1_555
O5 Sr2 2.729200 1_555
O5 Sr1 2.742309 1_555
O5 Sr5 2.762720 1_555
O6 Sr3 2.549878 1_556
O6 Sr13 2.590409 1_455
O6 Sr1 2.900500 1_555
O6 Sr6 3.047088 1_555
O7 Si0 1.649677 1_555
O7 Sr10 2.553800 1_565
O7 Sr7 2.650424 1_555
O7 Sr2 2.674218 1_554
O7 Sr4 2.767252 1_555
O8 Si0 1.651608 1_555
O8 Sr8 2.579073 1_555
O8 Sr3 2.613914 1_555
O8 Sr5 2.663154 1_554
O8 Sr4 2.786127 1_555
O9 Sr8 2.474974 1_555
O9 Sr5 2.508247 1_555
O9 Sr6 2.644044 1_555
O9 Sr4 2.982722 1_555
O10 Sr10 2.493611 1_565
O10 Sr2 2.508087 1_555
O10 Sr13 2.599225 1_565
O10 Sr4 3.008542 1_555
O11 Sr3 2.555165 1_555
O11 Sr6 2.600698 1_555
O11 Sr0 2.871335 1_545
O11 Sr8 2.971134 1_555
O12 Sr5 2.530415 1_554
O12 Sr9 2.611639 1_554
O12 Sr8 2.738283 1_555
O12 Sr3 3.045286 1_555
O12 Sr6 3.116773 1_554
O13 Sr8 2.538466 1_555
O13 Sr4 2.628609 1_555
O13 Sr5 2.823002 1_555
O13 Sr7 2.857743 1_555
O14 Sr11 2.631550 1_555
O14 Sr7 2.632571 1_556
O14 Sr5 2.715947 1_555
O15 Sr2 2.463660 1_544
O15 Sr10 2.467043 1_555
O15 Sr0 2.657097 1_545
O15 Sr9 2.939668 1_554
O16 Sr8 2.469045 1_555
O16 Sr5 2.475468 1_554
O16 Sr7 2.661625 1_555
O16 Sr9 2.894931 1_554
O17 Si1 1.649737 1_555
O17 Sr5 2.578858 1_555
O17 Sr11 2.661679 1_555
O17 Sr8 2.665869 1_555
O17 Sr9 2.807469 1_555
O18 Si1 1.650802 1_555
O18 Sr2 2.590873 1_545
O18 Sr10 2.630418 1_555
O18 Sr6 2.696800 1_555
O18 Sr9 2.797079 1_555
O19 Sr0 2.557098 1_655
O19 Sr11 2.617455 1_555
O19 Sr7 2.803674 1_555
O20 Si1 1.651744 1_555
O20 Sr9 2.484558 1_554
O20 Sr10 2.719595 1_555
O20 Sr8 2.728383 1_555
O20 Sr12 2.729950 1_555
O21 Sr1 2.528467 1_654
O21 Sr9 2.616360 1_554
O21 Sr12 2.730420 1_555
O21 Sr0 3.049329 1_655
O22 Si1 1.648913 1_555
O22 Sr1 2.555655 1_655
O22 Sr12 2.657376 1_555
O22 Sr13 2.669678 1_555
O22 Sr9 2.829624 1_555
O23 Sr2 2.520859 1_544
O23 Sr9 2.603682 1_554
O23 Sr10 2.731779 1_555
O23 Sr7 3.113358 1_545
O24 Sr1 2.477091 1_654
O24 Sr12 2.483835 1_555
O24 Sr3 2.630041 1_655
O24 Sr9 2.958641 1_554
O25 Sr7 2.556359 1_545
O25 Sr13 2.594935 1_555
O25 Sr3 2.898292 1_655
O25 Sr10 3.058279 1_555
