# generated using pymatgen
data_Y2Mg3(GeO4)3
_symmetry_space_group_name_H-M   'P 1'
_cell_length_a   10.68329017
_cell_length_b   10.68329017
_cell_length_c   10.68329017
_cell_angle_alpha   108.93603655
_cell_angle_beta   108.93603655
_cell_angle_gamma   110.54697423
_symmetry_Int_Tables_number   1
_chemical_formula_structural   Y2Mg3(GeO4)3
_chemical_formula_sum   'Y8 Mg12 Ge12 O48'
_cell_volume   938.37860715
_cell_formula_units_Z   4
loop_
 _symmetry_equiv_pos_site_id
 _symmetry_equiv_pos_as_xyz
  1  'x, y, z'
loop_
 _atom_site_type_symbol
 _atom_site_label
 _atom_site_symmetry_multiplicity
 _atom_site_fract_x
 _atom_site_fract_y
 _atom_site_fract_z
 _atom_site_occupancy
  Y  Y0  1  0.49646100  0.12500000  0.87146100  1
  Y  Y1  1  0.25353900  0.62500000  0.12853900  1
  Y  Y2  1  0.87500000  0.24646100  0.87146100  1
  Y  Y3  1  0.37500000  0.00353900  0.12853900  1
  Y  Y4  1  0.75353900  0.62500000  0.62853900  1
  Y  Y5  1  0.99646100  0.12500000  0.37146100  1
  Y  Y6  1  0.37500000  0.50353900  0.62853900  1
  Y  Y7  1  0.87500000  0.74646100  0.37146100  1
  Mg  Mg0  1  0.62500000  0.87500000  0.25000000  1
  Mg  Mg1  1  0.12500000  0.37500000  0.25000000  1
  Mg  Mg2  1  0.12500000  0.87500000  0.75000000  1
  Mg  Mg3  1  0.62500000  0.37500000  0.75000000  1
  Mg  Mg4  1  0.12500000  0.87500000  0.25000000  1
  Mg  Mg5  1  0.62500000  0.37500000  0.25000000  1
  Mg  Mg6  1  0.12500000  0.37500000  0.75000000  1
  Mg  Mg7  1  0.62500000  0.87500000  0.75000000  1
  Mg  Mg8  1  0.50000000  0.00000000  0.50000000  1
  Mg  Mg9  1  0.25000000  0.25000000  0.00000000  1
  Mg  Mg10  1  0.75000000  0.75000000  0.00000000  1
  Mg  Mg11  1  0.00000000  0.50000000  0.50000000  1
  Ge  Ge0  1  0.25000000  0.75000000  0.50000000  1
  Ge  Ge1  1  0.50000000  0.50000000  0.00000000  1
  Ge  Ge2  1  0.74951000  0.12500000  0.12451000  1
  Ge  Ge3  1  0.00049000  0.62500000  0.87549000  1
  Ge  Ge4  1  0.87500000  0.99951000  0.62451000  1
  Ge  Ge5  1  0.37500000  0.25049000  0.37549000  1
  Ge  Ge6  1  0.00000000  0.00000000  0.00000000  1
  Ge  Ge7  1  0.75000000  0.25000000  0.50000000  1
  Ge  Ge8  1  0.50049000  0.62500000  0.37549000  1
  Ge  Ge9  1  0.24951000  0.12500000  0.62451000  1
  Ge  Ge10  1  0.37500000  0.75049000  0.87549000  1
  Ge  Ge11  1  0.87500000  0.49951000  0.12451000  1
  O  O0  1  0.50399600  0.77491900  0.33802500  1
  O  O1  1  0.31310500  0.47508100  0.22907700  1
  O  O2  1  0.24600400  0.08402800  0.77092300  1
  O  O3  1  0.43689500  0.16597200  0.66197500  1
  O  O4  1  0.33802300  0.90109800  0.87522100  1
  O  O5  1  0.41197700  0.78719800  0.06307600  1
  O  O6  1  0.02587800  0.46280200  0.12477900  1
  O  O7  1  0.72412200  0.34890200  0.93692400  1
  O  O8  1  0.04054200  0.18902900  0.03408400  1
  O  O9  1  0.15494500  0.00645800  0.96591600  1
  O  O10  1  0.59505500  0.06097100  0.35151200  1
  O  O11  1  0.70945800  0.24354200  0.64848800  1
  O  O12  1  0.74600400  0.97508100  0.16197500  1
  O  O13  1  0.93689500  0.27491900  0.27092300  1
  O  O14  1  0.00399600  0.66597200  0.72907700  1
  O  O15  1  0.81310500  0.58402800  0.83802500  1
  O  O16  1  0.91197700  0.84890200  0.62477900  1
  O  O17  1  0.83802300  0.96280200  0.43692400  1
  O  O18  1  0.22412200  0.28719800  0.37522100  1
  O  O19  1  0.52587800  0.40109800  0.56307600  1
  O  O20  1  0.20945800  0.56097100  0.46591600  1
  O  O21  1  0.09505500  0.74354200  0.53408400  1
  O  O22  1  0.65494500  0.68902900  0.14848800  1
  O  O23  1  0.54054200  0.50645800  0.85151200  1
  O  O24  1  0.91597200  0.68689500  0.16197500  1
  O  O25  1  0.83402800  0.49600400  0.27092300  1
  O  O26  1  0.22508100  0.56310500  0.72907700  1
  O  O27  1  0.52491900  0.75399600  0.83802500  1
  O  O28  1  0.21280200  0.27587800  0.62477900  1
  O  O29  1  0.09890200  0.97412200  0.43692400  1
  O  O30  1  0.65109800  0.58802300  0.37522100  1
  O  O31  1  0.53719800  0.66197700  0.56307600  1
  O  O32  1  0.75645800  0.40494500  0.46591600  1
  O  O33  1  0.93902900  0.29054200  0.53408400  1
  O  O34  1  0.99354200  0.95945800  0.14848800  1
  O  O35  1  0.81097100  0.84505500  0.85151200  1
  O  O36  1  0.33402800  0.06310500  0.33802500  1
  O  O37  1  0.41597200  0.25399600  0.22907700  1
  O  O38  1  0.02491900  0.18689500  0.77092300  1
  O  O39  1  0.72508100  0.99600400  0.66197500  1
  O  O40  1  0.03719800  0.47412200  0.87522100  1
  O  O41  1  0.15109800  0.77587800  0.06307600  1
  O  O42  1  0.59890200  0.16197700  0.12477900  1
  O  O43  1  0.71280200  0.08802300  0.93692400  1
  O  O44  1  0.49354200  0.34505500  0.03408400  1
  O  O45  1  0.31097100  0.45945800  0.96591600  1
  O  O46  1  0.25645800  0.79054200  0.35151200  1
  O  O47  1  0.43902900  0.90494500  0.64848800  1
loop_
_geom_bond_atom_site_label_1
_geom_bond_atom_site_label_2
_geom_bond_distance
_geom_bond_site_symmetry_2
Mg0 O0 2.042060 1_555
Mg0 O12 2.042060 1_555
Mg0 O5 2.093593 1_555
Mg0 O17 2.093593 1_555
Mg0 O10 2.121006 1_565
Mg0 O22 2.121006 1_555
Mg1 O1 2.042051 1_555
Mg1 O13 2.042051 1_455
Mg1 O18 2.093593 1_555
Mg1 O6 2.093593 1_555
Mg1 O20 2.121009 1_555
Mg1 O8 2.121009 1_555
Mg2 O2 2.042051 1_565
Mg2 O14 2.042051 1_555
Mg2 O4 2.093598 1_555
Mg2 O16 2.093598 1_455
Mg2 O9 2.121009 1_565
Mg2 O21 2.121009 1_555
Mg3 O15 2.042049 1_555
Mg3 O3 2.042049 1_555
Mg3 O19 2.093586 1_555
Mg3 O7 2.093586 1_555
Mg3 O23 2.121004 1_555
Mg3 O11 2.121004 1_555
Mg4 O36 2.042049 1_565
Mg4 O24 2.042049 1_455
Mg4 O41 2.093586 1_555
Mg4 O29 2.093586 1_555
Mg4 O46 2.121004 1_555
Mg4 O34 2.121004 1_455
Mg5 O37 2.042051 1_555
Mg5 O25 2.042051 1_555
Mg5 O30 2.093598 1_555
Mg5 O42 2.093598 1_555
Mg5 O32 2.121009 1_555
Mg5 O44 2.121009 1_555
Mg6 O26 2.042051 1_555
Mg6 O38 2.042051 1_555
Mg6 O28 2.093593 1_555
Mg6 O40 2.093593 1_555
Mg6 O33 2.121009 1_455
Mg6 O45 2.121009 1_555
Mg7 O27 2.042060 1_555
Mg7 O39 2.042060 1_555
Mg7 O43 2.093593 1_565
Mg7 O31 2.093593 1_555
Mg7 O35 2.121006 1_555
Mg7 O47 2.121006 1_555
Mg8 O11 2.285565 1_555
Mg8 O46 2.285565 1_545
Mg8 O47 2.285574 1_545
Mg8 O10 2.285574 1_555
Mg8 O3 2.489524 1_555
Mg8 O36 2.489524 1_555
Mg8 O39 2.489526 1_545
Mg8 O0 2.489526 1_545
Mg9 O45 2.285565 1_554
Mg9 O44 2.285565 1_555
Mg9 O8 2.285565 1_555
Mg9 O9 2.285565 1_554
Mg9 O37 2.489530 1_555
Mg9 O38 2.489530 1_554
Mg9 O1 2.489530 1_555
Mg9 O2 2.489530 1_554
Mg10 O34 2.285565 1_555
Mg10 O23 2.285565 1_554
Mg10 O22 2.285574 1_555
Mg10 O35 2.285574 1_554
Mg10 O24 2.489524 1_555
Mg10 O15 2.489524 1_554
Mg10 O12 2.489526 1_555
Mg10 O27 2.489526 1_554
Mg11 O20 2.285565 1_555
Mg11 O21 2.285565 1_555
Mg11 O32 2.285565 1_455
Mg11 O33 2.285565 1_455
Mg11 O26 2.489530 1_555
Mg11 O14 2.489530 1_555
Mg11 O13 2.489530 1_455
Mg11 O25 2.489530 1_455
Ge0 O20 1.790190 1_555
Ge0 O21 1.790190 1_555
Ge0 O47 1.790193 1_555
Ge0 O46 1.790201 1_555
Ge1 O44 1.790190 1_555
Ge1 O45 1.790190 1_554
Ge1 O22 1.790193 1_555
Ge1 O23 1.790201 1_554
Ge2 O12 1.763659 1_545
Ge2 O13 1.763665 1_555
Ge2 O42 1.786991 1_555
Ge2 O43 1.787002 1_554
Ge3 O14 1.763665 1_555
Ge3 O15 1.763667 1_455
Ge3 O41 1.786999 1_556
Ge3 O40 1.787002 1_555
Ge4 O39 1.763659 1_555
Ge4 O38 1.763665 1_665
Ge4 O16 1.786991 1_555
Ge4 O17 1.787002 1_555
Ge5 O37 1.763665 1_555
Ge5 O36 1.763667 1_555
Ge5 O19 1.786999 1_555
Ge5 O18 1.787002 1_555
Ge6 O9 1.790190 1_554
Ge6 O8 1.790190 1_555
Ge6 O35 1.790193 1_444
Ge6 O34 1.790201 1_445
Ge7 O32 1.790190 1_555
Ge7 O33 1.790190 1_555
Ge7 O10 1.790193 1_555
Ge7 O11 1.790201 1_555
Ge8 O0 1.763659 1_555
Ge8 O1 1.763665 1_555
Ge8 O30 1.786991 1_555
Ge8 O31 1.787002 1_555
Ge9 O2 1.763665 1_555
Ge9 O3 1.763667 1_555
Ge9 O29 1.786999 1_545
Ge9 O28 1.787002 1_555
Ge10 O27 1.763659 1_555
Ge10 O26 1.763665 1_555
Ge10 O4 1.786991 1_555
Ge10 O5 1.787002 1_556
Ge11 O25 1.763665 1_555
Ge11 O24 1.763667 1_555
Ge11 O7 1.786999 1_554
Ge11 O6 1.787002 1_655
O0 Y1 2.347798 1_555
O1 Y1 2.347794 1_555
O2 Y0 2.347794 1_555
O3 Y0 2.347804 1_555
O4 Y3 2.399602 1_566
O4 Y0 2.419252 1_565
O5 Y3 2.399602 1_565
O5 Y1 2.419244 1_555
O6 Y2 2.399602 1_454
O6 Y1 2.419244 1_555
O7 Y2 2.399608 1_555
O7 Y0 2.419250 1_555
O8 Y2 2.445796 1_454
O9 Y3 2.445796 1_556
O10 Y3 2.445789 1_555
O11 Y2 2.445788 1_555
O12 Y5 2.347798 1_565
O13 Y5 2.347794 1_555
O14 Y4 2.347794 1_455
O15 Y4 2.347804 1_555
O16 Y7 2.399602 1_555
O16 Y4 2.419252 1_555
O17 Y7 2.399602 1_555
O17 Y5 2.419244 1_565
O18 Y6 2.399602 1_555
O18 Y5 2.419244 1_455
O19 Y6 2.399608 1_555
O19 Y4 2.419250 1_555
O20 Y6 2.445796 1_555
O21 Y7 2.445796 1_455
O22 Y7 2.445789 1_555
O23 Y6 2.445788 1_555
O24 Y7 2.347804 1_555
O25 Y7 2.347794 1_555
O26 Y6 2.347794 1_555
O27 Y6 2.347798 1_555
O28 Y5 2.399602 1_455
O28 Y6 2.419244 1_555
O29 Y5 2.399608 1_465
O29 Y7 2.419250 1_455
O30 Y4 2.399602 1_555
O30 Y7 2.419252 1_555
O31 Y4 2.399602 1_555
O31 Y6 2.419244 1_555
O32 Y4 2.445796 1_555
O33 Y5 2.445796 1_555
O34 Y5 2.445788 1_565
O35 Y4 2.445789 1_555
O36 Y3 2.347804 1_555
O37 Y3 2.347794 1_555
O38 Y2 2.347794 1_455
O39 Y2 2.347798 1_565
O40 Y1 2.399602 1_556
O40 Y2 2.419244 1_455
O41 Y1 2.399608 1_555
O41 Y3 2.419250 1_565
O42 Y0 2.399602 1_554
O42 Y3 2.419252 1_555
O43 Y0 2.399602 1_555
O43 Y2 2.419244 1_555
O44 Y0 2.445796 1_554
O45 Y1 2.445796 1_556
O46 Y1 2.445788 1_555
O47 Y0 2.445789 1_565
