# generated using pymatgen
data_Cs3Re6Se8(Cl3O)2
_symmetry_space_group_name_H-M   'P 1'
_cell_length_a   13.37900100
_cell_length_b   10.05013100
_cell_length_c   12.03573434
_cell_angle_alpha   64.17272844
_cell_angle_beta   90.00000000
_cell_angle_gamma   90.00000000
_symmetry_Int_Tables_number   1
_chemical_formula_structural   Cs3Re6Se8(Cl3O)2
_chemical_formula_sum   'Cs6 Re12 Se16 Cl12 O4'
_cell_volume   1456.68053441
_cell_formula_units_Z   2
loop_
 _symmetry_equiv_pos_site_id
 _symmetry_equiv_pos_as_xyz
  1  'x, y, z'
loop_
 _atom_site_type_symbol
 _atom_site_label
 _atom_site_symmetry_multiplicity
 _atom_site_fract_x
 _atom_site_fract_y
 _atom_site_fract_z
 _atom_site_occupancy
  Cs  Cs0  1  0.72707200  0.96460500  0.08949800  1
  Cs  Cs1  1  0.77292800  0.96460500  0.58949800  1
  Cs  Cs2  1  0.27292800  0.03539500  0.91050200  1
  Cs  Cs3  1  0.22707200  0.03539500  0.41050200  1
  Cs  Cs4  1  0.50000000  0.50000000  0.50000000  1
  Cs  Cs5  1  0.00000000  0.50000000  0.00000000  1
  Re  Re0  1  0.62427400  0.60390700  0.96039700  1
  Re  Re1  1  0.87572600  0.60390700  0.46039700  1
  Re  Re2  1  0.37572600  0.39609300  0.03960300  1
  Re  Re3  1  0.12427400  0.39609300  0.53960300  1
  Re  Re4  1  0.55878500  0.34888700  0.13664100  1
  Re  Re5  1  0.94121500  0.34888700  0.63664100  1
  Re  Re6  1  0.44121500  0.65111300  0.86335900  1
  Re  Re7  1  0.05878500  0.65111300  0.36335900  1
  Re  Re8  1  0.53508000  0.40271000  0.90590900  1
  Re  Re9  1  0.96492000  0.40271000  0.40590900  1
  Re  Re10  1  0.46492000  0.59729000  0.09409100  1
  Re  Re11  1  0.03508000  0.59729000  0.59409100  1
  Se  Se0  1  0.71073600  0.36554700  0.99975800  1
  Se  Se1  1  0.78926400  0.36554700  0.49975800  1
  Se  Se2  1  0.28926400  0.63445300  0.00024200  1
  Se  Se3  1  0.21073600  0.63445300  0.50024200  1
  Se  Se4  1  0.53081200  0.83786100  0.91927300  1
  Se  Se5  1  0.96918800  0.83786100  0.41927300  1
  Se  Se6  1  0.46918800  0.16213900  0.08072700  1
  Se  Se7  1  0.03081200  0.16213900  0.58072700  1
  Se  Se8  1  0.64142200  0.54391400  0.18713300  1
  Se  Se9  1  0.85857800  0.54391400  0.68713300  1
  Se  Se10  1  0.35857800  0.45608600  0.81286700  1
  Se  Se11  1  0.14142200  0.45608600  0.31286700  1
  Se  Se12  1  0.59364500  0.65008900  0.73800300  1
  Se  Se13  1  0.90635500  0.65008900  0.23800300  1
  Se  Se14  1  0.40635500  0.34991100  0.26199700  1
  Se  Se15  1  0.09364500  0.34991100  0.76199700  1
  Cl  Cl0  1  0.78313600  0.73918900  0.91247900  1
  Cl  Cl1  1  0.71686400  0.73918900  0.41247900  1
  Cl  Cl2  1  0.21686400  0.26081100  0.08752100  1
  Cl  Cl3  1  0.28313600  0.26081100  0.58752100  1
  Cl  Cl4  1  0.63228900  0.14436300  0.31236000  1
  Cl  Cl5  1  0.86771100  0.14436300  0.81236000  1
  Cl  Cl6  1  0.36771100  0.85563700  0.68764000  1
  Cl  Cl7  1  0.13228900  0.85563700  0.18764000  1
  Cl  Cl8  1  0.58178500  0.26220700  0.79245400  1
  Cl  Cl9  1  0.91821500  0.26220700  0.29245400  1
  Cl  Cl10  1  0.41821500  0.73779300  0.20754600  1
  Cl  Cl11  1  0.08178500  0.73779300  0.70754600  1
  O  O0  1  0.93600800  0.12547500  0.06636500  1
  O  O1  1  0.56399200  0.12547500  0.56636500  1
  O  O2  1  0.06399200  0.87452500  0.93363500  1
  O  O3  1  0.43600800  0.87452500  0.43363500  1
loop_
_geom_bond_atom_site_label_1
_geom_bond_atom_site_label_2
_geom_bond_distance
_geom_bond_site_symmetry_2
Cs0 O0 3.180132 1_565
Cs0 Se0 3.695836 1_564
Cs0 Se13 3.743906 1_555
Cs0 Se4 3.871511 1_554
Cs0 Se6 3.959017 1_565
Cs0 Se8 4.030006 1_555
Cs1 O1 3.180132 1_565
Cs1 Se1 3.695836 1_565
Cs1 Se12 3.743906 1_555
Cs1 Se5 3.871511 1_555
Cs1 Se7 3.959017 1_665
Cs1 Se9 4.030006 1_555
Cs2 O2 3.180132 1_545
Cs2 Se2 3.695836 1_546
Cs2 Se15 3.743906 1_555
Cs2 Se6 3.871511 1_556
Cs2 Se4 3.959017 1_545
Cs2 Se10 4.030006 1_555
Cs3 O3 3.180132 1_545
Cs3 Se3 3.695836 1_545
Cs3 Se14 3.743906 1_555
Cs3 Se7 3.871511 1_555
Cs3 Se5 3.959017 1_445
Cs3 Se11 4.030006 1_555
Cs4 O3 3.594335 1_555
Cs4 O1 3.594335 1_555
Cs4 Se12 3.976871 1_555
Cs4 Se14 3.976871 1_555
Cs4 Se10 4.062799 1_555
Cs4 Se8 4.062799 1_555
Cs4 Se3 4.099605 1_555
Cs4 Se1 4.099605 1_555
Cs5 O2 3.594335 1_554
Cs5 O0 3.594335 1_455
Cs5 Se15 3.976871 1_554
Cs5 Se13 3.976871 1_455
Cs5 Se11 4.062799 1_555
Cs5 Se9 4.062799 1_454
Cs5 Se0 4.099605 1_454
Cs5 Se2 4.099605 1_555
Re0 Se0 2.512446 1_555
Re0 Se4 2.514557 1_555
Re0 Se8 2.535666 1_556
Re0 Se12 2.542727 1_555
Re1 Se1 2.512446 1_555
Re1 Se5 2.514557 1_555
Re1 Se9 2.535666 1_555
Re1 Se13 2.542727 1_555
Re2 Se2 2.512446 1_555
Re2 Se6 2.514557 1_555
Re2 Se10 2.535666 1_554
Re2 Se14 2.542727 1_555
Re3 Se3 2.512446 1_555
Re3 Se7 2.514557 1_555
Re3 Se11 2.535666 1_555
Re3 Se15 2.542727 1_555
Re4 Se14 2.539480 1_555
Re4 Se8 2.543876 1_555
Re4 Se6 2.552032 1_555
Re4 Se0 2.575809 1_554
Re5 Se15 2.539480 1_655
Re5 Se9 2.543876 1_555
Re5 Se7 2.552032 1_655
Re5 Se1 2.575809 1_555
Re6 Se12 2.539480 1_555
Re6 Se10 2.543876 1_555
Re6 Se4 2.552032 1_555
Re6 Se2 2.575809 1_556
Re7 Se13 2.539480 1_455
Re7 Se11 2.543876 1_555
Re7 Se5 2.552032 1_455
Re7 Se3 2.575809 1_555
Re8 Se12 2.549757 1_555
Re8 Se0 2.563348 1_555
Re8 Se10 2.568009 1_555
Re8 Se6 2.572418 1_556
Re9 Se13 2.549757 1_555
Re9 Se1 2.563348 1_555
Re9 Se11 2.568009 1_655
Re9 Se7 2.572418 1_655
Re10 Se14 2.549757 1_555
Re10 Se2 2.563348 1_555
Re10 Se8 2.568009 1_555
Re10 Se4 2.572418 1_554
Re11 Se15 2.549757 1_555
Re11 Se3 2.563348 1_555
Re11 Se9 2.568009 1_455
Re11 Se5 2.572418 1_455
Cl0 Re0 2.452611 1_555
Cl0 Cs1 3.548077 1_555
Cl0 Cs5 3.619414 1_656
Cl0 Cs0 3.799970 1_556
Cl1 Re1 2.452611 1_555
Cl1 Cs0 3.548077 1_555
Cl1 Cs4 3.619414 1_555
Cl1 Cs1 3.799970 1_555
Cl2 Re2 2.452611 1_555
Cl2 Cs3 3.548077 1_555
Cl2 Cs5 3.619414 1_555
Cl2 Cs2 3.799970 1_554
Cl3 Re3 2.452611 1_555
Cl3 Cs2 3.548077 1_555
Cl3 Cs4 3.619414 1_555
Cl3 Cs3 3.799970 1_555
Cl4 Re4 2.424294 1_555
Cl4 Cs1 3.560845 1_545
Cl4 Cs0 4.035951 1_545
Cl5 Re5 2.424294 1_555
Cl5 Cs0 3.560845 1_546
Cl5 Cs1 4.035951 1_545
Cl6 Re6 2.424294 1_555
Cl6 Cs3 3.560845 1_565
Cl6 Cs2 4.035951 1_565
Cl7 Re7 2.424294 1_555
Cl7 Cs2 3.560845 1_564
Cl7 Cs3 4.035951 1_565
Cl8 Re8 2.434979 1_555
Cl8 Cs4 3.459593 1_555
Cl8 Cs0 4.023513 1_546
Cl9 Re9 2.434979 1_555
Cl9 Cs5 3.459593 1_655
Cl9 Cs1 4.023513 1_545
Cl10 Re10 2.434979 1_555
Cl10 Cs4 3.459593 1_555
Cl10 Cs2 4.023513 1_564
Cl11 Re11 2.434979 1_555
Cl11 Cs5 3.459593 1_556
Cl11 Cs3 4.023513 1_565
