# generated using pymatgen
data_Li9Mn2Co5O16
_symmetry_space_group_name_H-M   'P 1'
_cell_length_a   10.65557118
_cell_length_b   10.65557118
_cell_length_c   10.26377580
_cell_angle_alpha   66.99338473
_cell_angle_beta   66.99338473
_cell_angle_gamma   15.63222848
_symmetry_Int_Tables_number   1
_chemical_formula_structural   Li9Mn2Co5O16
_chemical_formula_sum   'Li9 Mn2 Co5 O16'
_cell_volume   288.55144942
_cell_formula_units_Z   1
loop_
 _symmetry_equiv_pos_site_id
 _symmetry_equiv_pos_as_xyz
  1  'x, y, z'
loop_
 _atom_site_type_symbol
 _atom_site_label
 _atom_site_symmetry_multiplicity
 _atom_site_fract_x
 _atom_site_fract_y
 _atom_site_fract_z
 _atom_site_occupancy
  Li  Li0  1  0.63229200  0.63229200  0.81160300  1
  Li  Li1  1  0.87213900  0.87213900  0.44724100  1
  Li  Li2  1  0.13587900  0.13587900  0.05125800  1
  Li  Li3  1  0.12492100  0.12492100  0.55222500  1
  Li  Li4  1  0.36911400  0.36911400  0.19053900  1
  Li  Li5  1  0.63061900  0.63061900  0.30707700  1
  Li  Li6  1  0.86918500  0.86918500  0.94170200  1
  Li  Li7  1  0.36735900  0.36735900  0.70243300  1
  Li  Li8  1  0.74837100  0.74837100  0.87558900  1
  Mn  Mn0  1  0.00051400  0.00051400  0.00035900  1
  Mn  Mn1  1  0.24781800  0.24781800  0.63337500  1
  Co  Co0  1  0.50097800  0.50097800  0.25211100  1
  Co  Co1  1  0.99928300  0.99928300  0.49994000  1
  Co  Co2  1  0.25384000  0.25384000  0.10202600  1
  Co  Co3  1  0.49854300  0.49854300  0.74911200  1
  Co  Co4  1  0.75053700  0.75053700  0.36853200  1
  O  O0  1  0.55760100  0.55760100  0.02003000  1
  O  O1  1  0.80486700  0.80486700  0.65289800  1
  O  O2  1  0.05508100  0.05508100  0.28293400  1
  O  O3  1  0.04957100  0.04957100  0.79244000  1
  O  O4  1  0.30553300  0.30553300  0.41744300  1
  O  O5  1  0.55789500  0.55789500  0.53121800  1
  O  O6  1  0.80833800  0.80833800  0.16180100  1
  O  O7  1  0.31203800  0.31203800  0.91663000  1
  O  O8  1  0.69370100  0.69370100  0.59451700  1
  O  O9  1  0.94930800  0.94930800  0.20602200  1
  O  O10  1  0.19161900  0.19161900  0.82399500  1
  O  O11  1  0.19315200  0.19315200  0.34427100  1
  O  O12  1  0.44418700  0.44418700  0.97981600  1
  O  O13  1  0.69085600  0.69085600  0.09695400  1
  O  O14  1  0.94417600  0.94417600  0.72103600  1
  O  O15  1  0.44068400  0.44068400  0.47287300  1
loop_
_geom_bond_atom_site_label_1
_geom_bond_atom_site_label_2
_geom_bond_distance
_geom_bond_site_symmetry_2
Li0 O10 1.952105 1_565
Li0 O10 1.952105 1_655
Li0 O8 2.089551 1_555
Li0 O0 2.097969 1_556
Li0 O3 2.336635 1_655
Li0 O3 2.336635 1_565
Li1 O1 2.026672 1_555
Li1 O4 2.123755 1_565
Li1 O4 2.123755 1_655
Li1 O15 2.136324 1_655
Li1 O15 2.136324 1_565
Li1 O9 2.366757 1_555
Li2 O13 2.024031 1_455
Li2 O13 2.024031 1_545
Li2 O10 2.158702 1_554
Li2 O0 2.313431 1_545
Li2 O0 2.313431 1_455
Li2 O2 2.315996 1_555
Li3 O11 2.050583 1_555
Li3 O5 2.095161 1_455
Li3 O5 2.095161 1_545
Li3 O8 2.212335 1_455
Li3 O8 2.212335 1_545
Li3 O3 2.348384 1_555
Li4 O6 2.032742 1_545
Li4 O6 2.032742 1_455
Li4 O12 2.117846 1_554
Li4 O4 2.181536 1_555
Li4 O9 2.281267 1_545
Li4 O9 2.281267 1_455
Li5 O13 2.025962 1_555
Li5 O11 2.094372 1_655
Li5 O11 2.094372 1_565
Li5 O5 2.205219 1_555
Li5 O2 2.239783 1_655
Li5 O2 2.239783 1_565
Li6 O7 1.966430 1_565
Li6 O7 1.966430 1_655
Li6 O6 2.112789 1_556
Li6 O14 2.192513 1_555
Li6 O12 2.291121 1_565
Li6 O12 2.291121 1_655
Li7 O7 2.042420 1_555
Li7 O1 2.151386 1_545
Li7 O1 2.151386 1_455
Li7 O14 2.238540 1_545
Li7 O14 2.238540 1_455
Li7 O15 2.251700 1_555
Li8 O10 2.077655 1_565
Li8 O10 2.077655 1_655
Li8 O13 2.111846 1_556
Li8 O1 2.120352 1_555
Li8 O7 2.128610 1_565
Li8 O7 2.128610 1_655
Mn0 O12 1.938162 1_454
Mn0 O12 1.938162 1_544
Mn0 O0 1.945600 1_455
Mn0 O0 1.945600 1_545
Mn0 O9 1.955513 1_445
Mn0 O3 1.970513 1_554
Mn1 O10 1.845010 1_555
Mn1 O1 1.944542 1_545
Mn1 O1 1.944542 1_455
Mn1 O8 1.980904 1_455
Mn1 O8 1.980904 1_545
Mn1 O4 2.065412 1_555
Co0 O2 1.946767 1_655
Co0 O2 1.946767 1_565
Co0 O9 1.980132 1_545
Co0 O9 1.980132 1_455
Co0 O15 2.116313 1_555
Co0 O0 2.203726 1_555
Co1 O15 1.994726 1_565
Co1 O15 1.994726 1_655
Co1 O5 2.011903 1_655
Co1 O5 2.011903 1_565
Co1 O2 2.068438 1_665
Co1 O14 2.102412 1_555
Co2 O7 1.812706 1_554
Co2 O13 1.981301 1_545
Co2 O13 1.981301 1_455
Co2 O6 2.087391 1_455
Co2 O6 2.087391 1_545
Co2 O11 2.304363 1_555
Co3 O14 1.939454 1_455
Co3 O14 1.939454 1_545
Co3 O3 1.958667 1_655
Co3 O3 1.958667 1_565
Co3 O5 2.088222 1_555
Co3 O12 2.186294 1_555
Co4 O11 1.966684 1_655
Co4 O11 1.966684 1_565
Co4 O6 1.987066 1_555
Co4 O4 2.039621 1_655
Co4 O4 2.039621 1_565
Co4 O8 2.150304 1_555
