# generated using pymatgen
data_Sr2CrWO6
_symmetry_space_group_name_H-M   'P 1'
_cell_length_a   5.69282265
_cell_length_b   7.89241900
_cell_length_c   5.69281629
_cell_angle_alpha   90.00172815
_cell_angle_beta   90.00016367
_cell_angle_gamma   90.00197212
_symmetry_Int_Tables_number   1
_chemical_formula_structural   Sr2CrWO6
_chemical_formula_sum   'Sr4 Cr2 W2 O12'
_cell_volume   255.77904198
_cell_formula_units_Z   2
loop_
 _symmetry_equiv_pos_site_id
 _symmetry_equiv_pos_as_xyz
  1  'x, y, z'
loop_
 _atom_site_type_symbol
 _atom_site_label
 _atom_site_symmetry_multiplicity
 _atom_site_fract_x
 _atom_site_fract_y
 _atom_site_fract_z
 _atom_site_occupancy
  Sr  Sr0  1  0.50000300  0.74999200  0.00000000  1
  Sr  Sr1  1  0.99999900  0.25000800  0.49999700  1
  Sr  Sr2  1  0.49999800  0.25000800  0.99999900  1
  Sr  Sr3  1  0.00000100  0.74999200  0.50000200  1
  Cr  Cr0  1  0.49999800  0.00000100  0.50000000  1
  Cr  Cr1  1  0.99999900  0.49999900  0.00000700  1
  W  W0  1  0.50000000  0.50000000  0.49999900  1
  W  W1  1  0.00000000  0.00000000  0.00000000  1
  O  O0  1  0.24851300  0.50000000  0.75148700  1
  O  O1  1  0.74851100  0.00000000  0.25148900  1
  O  O2  1  0.75148700  0.50000000  0.24851300  1
  O  O3  1  0.25148900  0.00000000  0.74851000  1
  O  O4  1  0.24851400  0.50000000  0.24851300  1
  O  O5  1  0.74851200  0.00000700  0.74851100  1
  O  O6  1  0.75148600  0.50000000  0.75148600  1
  O  O7  1  0.25148900  0.99999300  0.25148800  1
  O  O8  1  0.00000800  0.75364900  0.00000700  1
  O  O9  1  0.49999900  0.25364700  0.49999900  1
  O  O10  1  0.99999200  0.24635100  0.99999300  1
  O  O11  1  0.50000100  0.74635300  0.50000000  1
loop_
_geom_bond_atom_site_label_1
_geom_bond_atom_site_label_2
_geom_bond_distance
_geom_bond_site_symmetry_2
Cr0 O3 2.000719 1_555
Cr0 O7 2.000721 1_545
Cr0 O5 2.000737 1_555
Cr0 O1 2.000739 1_555
Cr0 O9 2.001881 1_555
Cr0 O11 2.001896 1_545
Cr1 O2 2.000715 1_555
Cr1 O4 2.000721 1_655
Cr1 O6 2.000773 1_554
Cr1 O0 2.000779 1_654
Cr1 O10 2.001896 1_554
Cr1 O8 2.001912 1_655
O0 W0 2.024694 1_555
O0 Sr0 2.818463 1_556
O0 Sr1 2.818466 1_455
O0 Sr3 2.818575 1_555
O0 Sr2 2.818575 1_555
O1 W1 2.024706 1_655
O1 Sr1 2.818532 1_555
O1 Sr0 2.818535 1_545
O1 Sr2 2.818680 1_554
O1 Sr3 2.818680 1_645
O2 W0 2.024686 1_555
O2 Sr2 2.818463 1_554
O2 Sr3 2.818463 1_655
O2 Sr1 2.818572 1_555
O2 Sr0 2.818575 1_555
O3 W1 2.024710 1_556
O3 Sr3 2.818532 1_545
O3 Sr2 2.818537 1_555
O3 Sr1 2.818680 1_455
O3 Sr0 2.818683 1_546
O4 W0 2.024676 1_555
O4 Sr1 2.818516 1_455
O4 Sr2 2.818522 1_554
O4 Sr0 2.818524 1_555
O4 Sr3 2.818533 1_555
O5 W1 2.024696 1_656
O5 Sr1 2.818571 1_555
O5 Sr2 2.818582 1_555
O5 Sr0 2.818641 1_546
O5 Sr3 2.818649 1_645
O6 W0 2.024680 1_555
O6 Sr3 2.818516 1_655
O6 Sr0 2.818519 1_556
O6 Sr2 2.818521 1_555
O6 Sr1 2.818533 1_555
O7 W1 2.024696 1_565
O7 Sr3 2.818574 1_555
O7 Sr0 2.818582 1_555
O7 Sr2 2.818641 1_564
O7 Sr1 2.818652 1_465
O8 W1 1.944305 1_565
O8 Sr3 2.846527 1_555
O8 Sr0 2.846530 1_555
O8 Sr3 2.846582 1_554
O8 Sr0 2.846585 1_455
O9 W0 1.944321 1_555
O9 Sr2 2.846552 1_554
O9 Sr2 2.846554 1_555
O9 Sr1 2.846555 1_455
O9 Sr1 2.846557 1_555
O10 W1 1.944305 1_656
O10 Sr2 2.846524 1_555
O10 Sr1 2.846533 1_555
O10 Sr1 2.846576 1_556
O10 Sr2 2.846591 1_655
O11 W0 1.944321 1_555
O11 Sr0 2.846552 1_556
O11 Sr0 2.846554 1_555
O11 Sr3 2.846555 1_655
O11 Sr3 2.846557 1_555
