# generated using pymatgen
data_Na5CuCO5
_symmetry_space_group_name_H-M   'P 1'
_cell_length_a   4.53037000
_cell_length_b   4.89130300
_cell_length_c   8.40787900
_cell_angle_alpha   90.00000000
_cell_angle_beta   90.00000000
_cell_angle_gamma   90.00000000
_symmetry_Int_Tables_number   1
_chemical_formula_structural   Na5CuCO5
_chemical_formula_sum   'Na5 Cu1 C1 O5'
_cell_volume   186.31365794
_cell_formula_units_Z   1
loop_
 _symmetry_equiv_pos_site_id
 _symmetry_equiv_pos_as_xyz
  1  'x, y, z'
loop_
 _atom_site_type_symbol
 _atom_site_label
 _atom_site_symmetry_multiplicity
 _atom_site_fract_x
 _atom_site_fract_y
 _atom_site_fract_z
 _atom_site_occupancy
  Na  Na0  1  0.50000000  0.00399000  0.75809100  1
  Na  Na1  1  0.00000000  0.49595700  0.76667100  1
  Na  Na2  1  0.50000000  0.00399000  0.24190900  1
  Na  Na3  1  0.00000000  0.49595700  0.23332900  1
  Na  Na4  1  0.00000000  0.01099400  0.50000000  1
  Cu  Cu0  1  0.00000000  0.99714600  0.00000000  1
  C  C0  1  0.50000000  0.57284600  0.50000000  1
  O  O0  1  0.00000000  0.99485100  0.78448100  1
  O  O1  1  0.00000000  0.99485100  0.21551900  1
  O  O2  1  0.50000000  0.44402200  0.63573700  1
  O  O3  1  0.50000000  0.44402200  0.36426300  1
  O  O4  1  0.50000000  0.84037600  0.50000000  1
loop_
_geom_bond_atom_site_label_1
_geom_bond_atom_site_label_2
_geom_bond_distance
_geom_bond_site_symmetry_2
Na0 O0 2.276465 1_645
Na0 O0 2.276465 1_545
Na0 O4 2.312866 1_545
Na0 O2 2.385545 1_555
Na1 O0 2.444832 1_555
Na1 O0 2.455631 1_545
Na1 O2 2.531309 1_555
Na1 O2 2.531309 1_455
Na2 O1 2.276465 1_645
Na2 O1 2.276465 1_545
Na2 O4 2.312866 1_545
Na2 O3 2.385545 1_555
Na3 O1 2.444832 1_555
Na3 O1 2.455631 1_545
Na3 O3 2.531309 1_455
Na3 O3 2.531309 1_555
Na4 O0 2.393185 1_545
Na4 O1 2.393185 1_545
Na4 O4 2.414027 1_545
Na4 O4 2.414027 1_445
Cu0 O1 1.812092 1_555
Cu0 O0 1.812092 1_554
C0 O2 1.303657 1_555
C0 O3 1.303657 1_555
C0 O4 1.308570 1_555
