# generated using pymatgen
data_Mg3Fe4(SbO4)6
_symmetry_space_group_name_H-M   'P 1'
_cell_length_a   6.92737900
_cell_length_b   8.31897397
_cell_length_c   10.27783922
_cell_angle_alpha   104.12441013
_cell_angle_beta   105.75514754
_cell_angle_gamma   102.66139235
_symmetry_Int_Tables_number   1
_chemical_formula_structural   Mg3Fe4(SbO4)6
_chemical_formula_sum   'Mg3 Fe4 Sb6 O24'
_cell_volume   526.32388647
_cell_formula_units_Z   1
loop_
 _symmetry_equiv_pos_site_id
 _symmetry_equiv_pos_as_xyz
  1  'x, y, z'
loop_
 _atom_site_type_symbol
 _atom_site_label
 _atom_site_symmetry_multiplicity
 _atom_site_fract_x
 _atom_site_fract_y
 _atom_site_fract_z
 _atom_site_occupancy
  Mg  Mg0  1  0.00000000  0.50000000  0.50000000  1
  Mg  Mg1  1  0.27755400  0.28387700  0.78674600  1
  Mg  Mg2  1  0.72244600  0.71612300  0.21325400  1
  Fe  Fe0  1  0.37628300  0.95708200  0.60941400  1
  Fe  Fe1  1  0.62371700  0.04291800  0.39058600  1
  Fe  Fe2  1  0.04371200  0.21069500  0.01320600  1
  Fe  Fe3  1  0.95628800  0.78930500  0.98679400  1
  Sb  Sb0  1  0.78129200  0.34685000  0.72563600  1
  Sb  Sb1  1  0.21870800  0.65315000  0.27436400  1
  Sb  Sb2  1  0.89092300  0.89410500  0.66730000  1
  Sb  Sb3  1  0.39627000  0.72584800  0.87401700  1
  Sb  Sb4  1  0.10907700  0.10589500  0.33270000  1
  Sb  Sb5  1  0.60373000  0.27415200  0.12598300  1
  O  O0  1  0.85681000  0.66117600  0.58010000  1
  O  O1  1  0.14319000  0.33882400  0.41990000  1
  O  O2  1  0.24436600  0.50038100  0.73808900  1
  O  O3  1  0.75563400  0.49961900  0.26191100  1
  O  O4  1  0.78924800  0.29630800  0.53399100  1
  O  O5  1  0.21075200  0.70369200  0.46600900  1
  O  O6  1  0.66162200  0.97141700  0.57729600  1
  O  O7  1  0.33837800  0.02858300  0.42270400  1
  O  O8  1  0.65559700  0.74922000  0.01576500  1
  O  O9  1  0.34440300  0.25078000  0.98423500  1
  O  O10  1  0.48971800  0.77808000  0.28087700  1
  O  O11  1  0.51028200  0.22192000  0.71912300  1
  O  O12  1  0.13563300  0.03418500  0.64839000  1
  O  O13  1  0.06864800  0.05132700  0.13321600  1
  O  O14  1  0.93135200  0.94867300  0.86678400  1
  O  O15  1  0.54967200  0.12565000  0.23327300  1
  O  O16  1  0.45032800  0.87435000  0.76672700  1
  O  O17  1  0.19844000  0.42574100  0.17234200  1
  O  O18  1  0.80156000  0.57425900  0.82765800  1
  O  O19  1  0.99585300  0.26731100  0.82865200  1
  O  O20  1  0.00414700  0.73268900  0.17134800  1
  O  O21  1  0.23426100  0.78989300  0.98698200  1
  O  O22  1  0.76573900  0.21010700  0.01301800  1
  O  O23  1  0.86436700  0.96581500  0.35161000  1
loop_
_geom_bond_atom_site_label_1
_geom_bond_atom_site_label_2
_geom_bond_distance
_geom_bond_site_symmetry_2
Mg0 O0 1.986767 1_455
Mg0 O1 1.986767 1_555
Mg0 O5 2.146225 1_555
Mg0 O4 2.146225 1_455
Mg0 O2 2.568650 1_555
Mg0 O3 2.568650 1_455
Mg1 O2 2.026217 1_555
Mg1 O11 2.036127 1_555
Mg1 O12 2.051169 1_555
Mg1 O9 2.056304 1_555
Mg1 O19 2.092884 1_455
Mg2 O3 2.026217 1_555
Mg2 O10 2.036127 1_555
Mg2 O23 2.051169 1_555
Mg2 O8 2.056304 1_555
Mg2 O20 2.092884 1_655
Fe0 O16 1.896954 1_555
Fe0 O12 2.014207 1_565
Fe0 O6 2.073779 1_555
Fe0 O11 2.075981 1_565
Fe0 O5 2.106399 1_555
Fe0 O7 2.111193 1_565
Fe1 O15 1.896954 1_555
Fe1 O23 2.014207 1_545
Fe1 O7 2.073779 1_555
Fe1 O10 2.075981 1_545
Fe1 O4 2.106399 1_555
Fe1 O6 2.111193 1_545
Fe2 O22 1.924033 1_455
Fe2 O17 1.950308 1_555
Fe2 O13 2.022796 1_555
Fe2 O19 2.023023 1_454
Fe2 O9 2.149309 1_554
Fe2 O14 2.154309 1_444
Fe3 O21 1.924033 1_655
Fe3 O18 1.950308 1_555
Fe3 O14 2.022796 1_555
Fe3 O20 2.023023 1_656
Fe3 O8 2.149309 1_556
Fe3 O13 2.154309 1_666
O0 Sb2 1.857561 1_555
O1 Sb4 1.857561 1_555
O2 Sb3 1.906479 1_555
O3 Sb5 1.906479 1_555
O4 Sb0 1.929881 1_555
O5 Sb1 1.929881 1_555
O6 Sb2 1.932050 1_555
O7 Sb4 1.932050 1_555
O8 Sb3 1.916994 1_554
O9 Sb5 1.916994 1_556
O10 Sb1 1.910930 1_555
O11 Sb0 1.910930 1_555
O12 Sb2 1.921695 1_445
O13 Sb4 1.914755 1_555
O14 Sb2 1.914755 1_555
O15 Sb5 1.889097 1_555
O16 Sb3 1.889097 1_555
O17 Sb1 1.879789 1_555
O18 Sb0 1.879789 1_555
O19 Sb0 1.920030 1_555
O20 Sb1 1.920030 1_555
O21 Sb3 1.886599 1_555
O22 Sb5 1.886599 1_555
O23 Sb4 1.921695 1_665
