# generated using pymatgen
data_HfMg30BO31
_symmetry_space_group_name_H-M   'P 1'
_cell_length_a   8.63097400
_cell_length_b   8.63097400
_cell_length_c   8.52765400
_cell_angle_alpha   90.00000000
_cell_angle_beta   90.00000000
_cell_angle_gamma   90.00000000
_symmetry_Int_Tables_number   1
_chemical_formula_structural   HfMg30BO31
_chemical_formula_sum   'Hf1 Mg30 B1 O31'
_cell_volume   635.25660272
_cell_formula_units_Z   1
loop_
 _symmetry_equiv_pos_site_id
 _symmetry_equiv_pos_as_xyz
  1  'x, y, z'
loop_
 _atom_site_type_symbol
 _atom_site_label
 _atom_site_symmetry_multiplicity
 _atom_site_fract_x
 _atom_site_fract_y
 _atom_site_fract_z
 _atom_site_occupancy
  Hf  Hf0  1  0.50000000  0.50000000  0.99598700  1
  Mg  Mg0  1  0.50000000  0.00000000  0.99199400  1
  Mg  Mg1  1  0.00000000  0.50000000  0.99199400  1
  Mg  Mg2  1  0.00000000  0.00000000  0.49279900  1
  Mg  Mg3  1  0.50000000  0.00000000  0.49989200  1
  Mg  Mg4  1  0.00000000  0.50000000  0.49989200  1
  Mg  Mg5  1  0.50000000  0.50000000  0.49881100  1
  Mg  Mg6  1  0.23288800  0.23288800  0.99832400  1
  Mg  Mg7  1  0.76711200  0.23288800  0.99832400  1
  Mg  Mg8  1  0.23288800  0.76711200  0.99832400  1
  Mg  Mg9  1  0.76711200  0.76711200  0.99832400  1
  Mg  Mg10  1  0.24755500  0.24755500  0.49699600  1
  Mg  Mg11  1  0.75244500  0.24755500  0.49699600  1
  Mg  Mg12  1  0.24755500  0.75244500  0.49699600  1
  Mg  Mg13  1  0.75244500  0.75244500  0.49699600  1
  Mg  Mg14  1  0.26035600  0.00000000  0.24415300  1
  Mg  Mg15  1  0.73964400  0.00000000  0.24415300  1
  Mg  Mg16  1  0.24559100  0.50000000  0.25202500  1
  Mg  Mg17  1  0.75440900  0.50000000  0.25202500  1
  Mg  Mg18  1  0.24174800  0.00000000  0.75006500  1
  Mg  Mg19  1  0.75825200  0.00000000  0.75006500  1
  Mg  Mg20  1  0.24079700  0.50000000  0.74302600  1
  Mg  Mg21  1  0.75920300  0.50000000  0.74302600  1
  Mg  Mg22  1  0.00000000  0.26035600  0.24415300  1
  Mg  Mg23  1  0.50000000  0.24559100  0.25202500  1
  Mg  Mg24  1  0.00000000  0.73964400  0.24415300  1
  Mg  Mg25  1  0.50000000  0.75440900  0.25202500  1
  Mg  Mg26  1  0.00000000  0.24174800  0.75006500  1
  Mg  Mg27  1  0.50000000  0.24079700  0.74302600  1
  Mg  Mg28  1  0.00000000  0.75825200  0.75006500  1
  Mg  Mg29  1  0.50000000  0.75920300  0.74302600  1
  B  B0  1  0.00000000  0.00000000  0.21351500  1
  O  O0  1  0.50000000  0.00000000  0.24924300  1
  O  O1  1  0.00000000  0.50000000  0.24924300  1
  O  O2  1  0.50000000  0.50000000  0.24303400  1
  O  O3  1  0.00000000  0.00000000  0.72832200  1
  O  O4  1  0.50000000  0.00000000  0.74373700  1
  O  O5  1  0.00000000  0.50000000  0.74373700  1
  O  O6  1  0.50000000  0.50000000  0.75121900  1
  O  O7  1  0.25585400  0.25585400  0.24662100  1
  O  O8  1  0.74414600  0.25585400  0.24662100  1
  O  O9  1  0.25585400  0.74414600  0.24662100  1
  O  O10  1  0.74414600  0.74414600  0.24662100  1
  O  O11  1  0.25064500  0.25064500  0.74767800  1
  O  O12  1  0.74935500  0.25064500  0.74767800  1
  O  O13  1  0.25064500  0.74935500  0.74767800  1
  O  O14  1  0.74935500  0.74935500  0.74767800  1
  O  O15  1  0.27232100  0.00000000  0.99447600  1
  O  O16  1  0.72767900  0.00000000  0.99447600  1
  O  O17  1  0.25804900  0.50000000  0.99640100  1
  O  O18  1  0.74195100  0.50000000  0.99640100  1
  O  O19  1  0.25528200  0.00000000  0.49640900  1
  O  O20  1  0.74471800  0.00000000  0.49640900  1
  O  O21  1  0.25302500  0.50000000  0.49797100  1
  O  O22  1  0.74697500  0.50000000  0.49797100  1
  O  O23  1  0.00000000  0.27232100  0.99447600  1
  O  O24  1  0.50000000  0.25804900  0.99640100  1
  O  O25  1  0.00000000  0.72767900  0.99447600  1
  O  O26  1  0.50000000  0.74195100  0.99640100  1
  O  O27  1  0.00000000  0.25528200  0.49640900  1
  O  O28  1  0.50000000  0.25302500  0.49797100  1
  O  O29  1  0.00000000  0.74471800  0.49640900  1
  O  O30  1  0.50000000  0.74697500  0.49797100  1
loop_
_geom_bond_atom_site_label_1
_geom_bond_atom_site_label_2
_geom_bond_distance
_geom_bond_site_symmetry_2
Hf0 O6 2.087297 1_555
Hf0 O18 2.088276 1_555
Hf0 O26 2.088276 1_555
Hf0 O17 2.088276 1_555
Hf0 O24 2.088276 1_555
Hf0 O2 2.106731 1_556
Mg0 O16 1.965206 1_555
Mg0 O15 1.965206 1_555
Mg0 O4 2.117050 1_555
Mg0 O0 2.193730 1_556
Mg0 O24 2.227531 1_555
Mg0 O26 2.227531 1_545
Mg1 O25 1.965206 1_555
Mg1 O23 1.965206 1_555
Mg1 O5 2.117050 1_555
Mg1 O1 2.193730 1_556
Mg1 O17 2.227531 1_555
Mg1 O18 2.227531 1_455
Mg2 O3 2.008459 1_555
Mg2 O29 2.203547 1_545
Mg2 O20 2.203547 1_455
Mg2 O19 2.203547 1_555
Mg2 O27 2.203547 1_555
Mg3 O4 2.079426 1_555
Mg3 O20 2.112364 1_555
Mg3 O19 2.112364 1_555
Mg3 O0 2.137448 1_555
Mg3 O28 2.183914 1_555
Mg3 O30 2.183914 1_545
Mg4 O5 2.079426 1_555
Mg4 O29 2.112364 1_555
Mg4 O27 2.112364 1_555
Mg4 O1 2.137448 1_555
Mg4 O21 2.183914 1_555
Mg4 O22 2.183914 1_455
Mg5 O22 2.131647 1_555
Mg5 O30 2.131647 1_555
Mg5 O21 2.131647 1_555
Mg5 O28 2.131647 1_555
Mg5 O6 2.152448 1_555
Mg5 O2 2.181178 1_555
Mg6 O23 2.038925 1_555
Mg6 O15 2.038925 1_555
Mg6 O7 2.135867 1_556
Mg6 O11 2.148384 1_555
Mg6 O17 2.315700 1_555
Mg6 O24 2.315700 1_555
Mg7 O16 2.038925 1_555
Mg7 O23 2.038925 1_655
Mg7 O8 2.135867 1_556
Mg7 O12 2.148384 1_555
Mg7 O24 2.315700 1_555
Mg7 O18 2.315700 1_555
Mg8 O25 2.038925 1_555
Mg8 O15 2.038925 1_565
Mg8 O9 2.135867 1_556
Mg8 O13 2.148384 1_555
Mg8 O17 2.315700 1_555
Mg8 O26 2.315700 1_555
Mg9 O16 2.038925 1_565
Mg9 O25 2.038925 1_655
Mg9 O10 2.135867 1_556
Mg9 O14 2.148384 1_555
Mg9 O18 2.315700 1_555
Mg9 O26 2.315700 1_555
Mg10 O7 2.137513 1_555
Mg10 O19 2.137687 1_555
Mg10 O27 2.137687 1_555
Mg10 O11 2.138062 1_555
Mg10 O21 2.179374 1_555
Mg10 O28 2.179374 1_555
Mg11 O8 2.137513 1_555
Mg11 O20 2.137687 1_555
Mg11 O27 2.137687 1_655
Mg11 O12 2.138062 1_555
Mg11 O28 2.179374 1_555
Mg11 O22 2.179374 1_555
Mg12 O9 2.137513 1_555
Mg12 O29 2.137687 1_555
Mg12 O19 2.137687 1_565
Mg12 O13 2.138062 1_555
Mg12 O21 2.179374 1_555
Mg12 O30 2.179374 1_555
Mg13 O10 2.137513 1_555
Mg13 O20 2.137687 1_565
Mg13 O29 2.137687 1_655
Mg13 O14 2.138062 1_555
Mg13 O30 2.179374 1_555
Mg13 O22 2.179374 1_555
Mg14 O0 2.068817 1_555
Mg14 O15 2.131662 1_554
Mg14 O19 2.151598 1_555
Mg14 O7 2.208711 1_555
Mg14 O9 2.208711 1_545
Mg15 O0 2.068817 1_555
Mg15 O16 2.131662 1_554
Mg15 O20 2.151598 1_555
Mg15 O8 2.208711 1_555
Mg15 O10 2.208711 1_545
Mg16 O21 2.098324 1_555
Mg16 O9 2.109582 1_555
Mg16 O7 2.109582 1_555
Mg16 O1 2.119822 1_555
Mg16 O17 2.182523 1_554
Mg16 O2 2.197136 1_555
Mg17 O22 2.098324 1_555
Mg17 O10 2.109582 1_555
Mg17 O8 2.109582 1_555
Mg17 O1 2.119822 1_655
Mg17 O18 2.182523 1_554
Mg17 O2 2.197136 1_555
Mg18 O3 2.094743 1_555
Mg18 O15 2.100890 1_555
Mg18 O13 2.164769 1_545
Mg18 O11 2.164769 1_555
Mg18 O19 2.166242 1_555
Mg18 O4 2.229619 1_555
Mg19 O3 2.094743 1_655
Mg19 O16 2.100890 1_555
Mg19 O14 2.164769 1_545
Mg19 O12 2.164769 1_555
Mg19 O20 2.166242 1_555
Mg19 O4 2.229619 1_555
Mg20 O5 2.078321 1_555
Mg20 O21 2.092408 1_555
Mg20 O11 2.154220 1_555
Mg20 O13 2.154220 1_555
Mg20 O17 2.165819 1_555
Mg20 O6 2.238265 1_555
Mg21 O5 2.078321 1_655
Mg21 O22 2.092408 1_555
Mg21 O12 2.154220 1_555
Mg21 O14 2.154220 1_555
Mg21 O18 2.165819 1_555
Mg21 O6 2.238265 1_555
Mg22 O1 2.068817 1_555
Mg22 O23 2.131662 1_554
Mg22 O27 2.151598 1_555
Mg22 O7 2.208711 1_555
Mg22 O8 2.208711 1_455
Mg23 O28 2.098324 1_555
Mg23 O8 2.109582 1_555
Mg23 O7 2.109582 1_555
Mg23 O0 2.119822 1_555
Mg23 O24 2.182523 1_554
Mg23 O2 2.197136 1_555
Mg24 O1 2.068817 1_555
Mg24 O25 2.131662 1_554
Mg24 O29 2.151598 1_555
Mg24 O9 2.208711 1_555
Mg24 O10 2.208711 1_455
Mg25 O30 2.098324 1_555
Mg25 O10 2.109582 1_555
Mg25 O9 2.109582 1_555
Mg25 O0 2.119822 1_565
Mg25 O26 2.182523 1_554
Mg25 O2 2.197136 1_555
Mg26 O3 2.094743 1_555
Mg26 O23 2.100890 1_555
Mg26 O12 2.164769 1_455
Mg26 O11 2.164769 1_555
Mg26 O27 2.166242 1_555
Mg26 O5 2.229619 1_555
Mg27 O4 2.078321 1_555
Mg27 O28 2.092408 1_555
Mg27 O11 2.154220 1_555
Mg27 O12 2.154220 1_555
Mg27 O24 2.165819 1_555
Mg27 O6 2.238265 1_555
Mg28 O3 2.094743 1_565
Mg28 O25 2.100890 1_555
Mg28 O14 2.164769 1_455
Mg28 O13 2.164769 1_555
Mg28 O29 2.166242 1_555
Mg28 O5 2.229619 1_555
Mg29 O4 2.078321 1_565
Mg29 O30 2.092408 1_555
Mg29 O13 2.154220 1_555
Mg29 O14 2.154220 1_555
Mg29 O26 2.165819 1_555
Mg29 O6 2.238265 1_555
B0 Mg14 2.262264 1_555
B0 Mg22 2.262264 1_555
B0 Mg15 2.262264 1_455
B0 Mg24 2.262264 1_545
B0 Mg2 2.381637 1_555
