# generated using pymatgen
data_MgTa2CuO7
_symmetry_space_group_name_H-M   'P 1'
_cell_length_a   8.31430600
_cell_length_b   10.78756000
_cell_length_c   10.82389758
_cell_angle_alpha   84.36245479
_cell_angle_beta   90.00000000
_cell_angle_gamma   90.00000000
_symmetry_Int_Tables_number   1
_chemical_formula_structural   MgTa2CuO7
_chemical_formula_sum   'Mg6 Ta12 Cu6 O42'
_cell_volume   966.11144867
_cell_formula_units_Z   6
loop_
 _symmetry_equiv_pos_site_id
 _symmetry_equiv_pos_as_xyz
  1  'x, y, z'
loop_
 _atom_site_type_symbol
 _atom_site_label
 _atom_site_symmetry_multiplicity
 _atom_site_fract_x
 _atom_site_fract_y
 _atom_site_fract_z
 _atom_site_occupancy
  Mg  Mg0  1  0.44103100  0.57347000  0.87043600  1
  Mg  Mg1  1  0.94711300  0.75000000  0.50000000  1
  Mg  Mg2  1  0.44103100  0.92653000  0.12956400  1
  Mg  Mg3  1  0.05288700  0.25000000  0.50000000  1
  Mg  Mg4  1  0.55896900  0.42653000  0.12956400  1
  Mg  Mg5  1  0.55896900  0.07347000  0.87043600  1
  Ta  Ta0  1  0.20781800  0.29032200  0.82696200  1
  Ta  Ta1  1  0.75194100  0.37307400  0.83534300  1
  Ta  Ta2  1  0.24805900  0.87307400  0.83534300  1
  Ta  Ta3  1  0.79218200  0.79032200  0.82696200  1
  Ta  Ta4  1  0.29187900  0.97230200  0.51009400  1
  Ta  Ta5  1  0.75194100  0.12692600  0.16465700  1
  Ta  Ta6  1  0.70812100  0.47230200  0.51009400  1
  Ta  Ta7  1  0.24805900  0.62692600  0.16465700  1
  Ta  Ta8  1  0.29187900  0.52769800  0.48990600  1
  Ta  Ta9  1  0.70812100  0.02769800  0.48990600  1
  Ta  Ta10  1  0.79218200  0.70967800  0.17303800  1
  Ta  Ta11  1  0.20781800  0.20967800  0.17303800  1
  Cu  Cu0  1  0.90913700  0.41920800  0.21021300  1
  Cu  Cu1  1  0.09086300  0.58079200  0.78978700  1
  Cu  Cu2  1  0.41332000  0.25000000  0.50000000  1
  Cu  Cu3  1  0.90913700  0.08079200  0.78978700  1
  Cu  Cu4  1  0.58668000  0.75000000  0.50000000  1
  Cu  Cu5  1  0.09086300  0.91920800  0.21021300  1
  O  O0  1  0.72742700  0.96250500  0.79479700  1
  O  O1  1  0.74882000  0.30098200  0.15473100  1
  O  O2  1  0.84196300  0.75000000  0.00000000  1
  O  O3  1  0.89007000  0.11456600  0.50838600  1
  O  O4  1  0.39212100  0.56330300  0.05731800  1
  O  O5  1  0.93605600  0.70621700  0.72759000  1
  O  O6  1  0.33381400  0.94284200  0.68438500  1
  O  O7  1  0.10993000  0.61456600  0.50838600  1
  O  O8  1  0.75766600  0.85951600  0.54778100  1
  O  O9  1  0.39212100  0.93669700  0.94268200  1
  O  O10  1  0.75766600  0.64048400  0.45221900  1
  O  O11  1  0.46014400  0.89147700  0.43717700  1
  O  O12  1  0.96191400  0.06879800  0.15731300  1
  O  O13  1  0.06394400  0.20621700  0.72759000  1
  O  O14  1  0.66618600  0.05715800  0.31561500  1
  O  O15  1  0.33381400  0.55715800  0.31561500  1
  O  O16  1  0.93605600  0.79378300  0.27241000  1
  O  O17  1  0.60787900  0.43669700  0.94268200  1
  O  O18  1  0.27257300  0.46250500  0.79479700  1
  O  O19  1  0.53985600  0.10852300  0.56282300  1
  O  O20  1  0.39559000  0.29450700  0.18125100  1
  O  O21  1  0.24233400  0.14048400  0.45221900  1
  O  O22  1  0.03808600  0.56879800  0.15731300  1
  O  O23  1  0.24233400  0.35951600  0.54778100  1
  O  O24  1  0.89007000  0.38543400  0.49161400  1
  O  O25  1  0.53985600  0.39147700  0.43717700  1
  O  O26  1  0.10993000  0.88543400  0.49161400  1
  O  O27  1  0.60441000  0.79450700  0.18125100  1
  O  O28  1  0.60441000  0.70549300  0.81874900  1
  O  O29  1  0.03808600  0.93120200  0.84268700  1
  O  O30  1  0.06394400  0.29378300  0.27241000  1
  O  O31  1  0.72742700  0.53749500  0.20520300  1
  O  O32  1  0.15803700  0.25000000  0.00000000  1
  O  O33  1  0.25118000  0.80098200  0.15473100  1
  O  O34  1  0.60787900  0.06330300  0.05731800  1
  O  O35  1  0.96191400  0.43120200  0.84268700  1
  O  O36  1  0.27257300  0.03749500  0.20520300  1
  O  O37  1  0.74882000  0.19901800  0.84526900  1
  O  O38  1  0.46014400  0.60852300  0.56282300  1
  O  O39  1  0.66618600  0.44284200  0.68438500  1
  O  O40  1  0.25118000  0.69901800  0.84526900  1
  O  O41  1  0.39559000  0.20549300  0.81874900  1
loop_
_geom_bond_atom_site_label_1
_geom_bond_atom_site_label_2
_geom_bond_distance
_geom_bond_site_symmetry_2
Mg0 O28 2.007489 1_555
Mg0 O4 2.055601 1_556
Mg0 O18 2.063359 1_555
Mg0 O40 2.080288 1_555
Mg0 O17 2.118054 1_555
Mg1 O26 1.987271 1_655
Mg1 O7 1.987271 1_655
Mg1 O8 2.065006 1_555
Mg1 O10 2.065006 1_555
Mg1 O16 2.464007 1_555
Mg1 O5 2.464007 1_555
Mg2 O27 2.007489 1_555
Mg2 O9 2.055601 1_554
Mg2 O36 2.063359 1_565
Mg2 O33 2.080288 1_555
Mg2 O34 2.118054 1_565
Mg3 O24 1.987271 1_455
Mg3 O3 1.987271 1_455
Mg3 O23 2.065006 1_555
Mg3 O21 2.065006 1_555
Mg3 O30 2.464007 1_555
Mg3 O13 2.464007 1_555
Mg4 O20 2.007489 1_555
Mg4 O17 2.055601 1_554
Mg4 O31 2.063359 1_555
Mg4 O1 2.080288 1_555
Mg4 O4 2.118054 1_555
Mg5 O41 2.007489 1_555
Mg5 O34 2.055601 1_556
Mg5 O0 2.063359 1_545
Mg5 O37 2.080288 1_555
Mg5 O9 2.118054 1_545
Cu0 O30 1.939486 1_655
Cu0 O22 1.974797 1_655
Cu0 O31 1.974864 1_555
Cu0 O1 1.978477 1_555
Cu1 O5 1.939486 1_455
Cu1 O35 1.974797 1_455
Cu1 O18 1.974864 1_555
Cu1 O40 1.978477 1_555
Cu2 O25 1.922129 1_555
Cu2 O19 1.922129 1_555
Cu2 O23 1.950456 1_555
Cu2 O21 1.950456 1_555
Cu3 O13 1.939486 1_655
Cu3 O29 1.974797 1_645
Cu3 O0 1.974864 1_545
Cu3 O37 1.978477 1_555
Cu4 O11 1.922129 1_555
Cu4 O38 1.922129 1_555
Cu4 O8 1.950456 1_555
Cu4 O10 1.950456 1_555
Cu5 O16 1.939486 1_455
Cu5 O12 1.974797 1_465
Cu5 O36 1.974864 1_565
Cu5 O33 1.978477 1_555
O0 Ta3 1.932379 1_555
O1 Ta5 1.870324 1_555
O2 Ta3 1.925715 1_554
O2 Ta10 1.925715 1_555
O3 Ta9 1.800968 1_555
O4 Ta7 1.847223 1_555
O5 Ta3 1.898084 1_555
O6 Ta2 1.871631 1_555
O6 Ta4 1.914075 1_555
O7 Ta8 1.800968 1_555
O8 Ta9 1.905361 1_565
O9 Ta2 1.847223 1_555
O10 Ta6 1.905361 1_555
O11 Ta4 1.864282 1_555
O12 Ta5 1.859318 1_555
O12 Ta11 2.563104 1_655
O13 Ta0 1.898084 1_555
O14 Ta5 1.871631 1_555
O14 Ta9 1.914075 1_555
O15 Ta7 1.871631 1_555
O15 Ta8 1.914075 1_555
O16 Ta10 1.898084 1_555
O17 Ta1 1.847223 1_555
O18 Ta0 1.932379 1_555
O19 Ta9 1.864282 1_555
O20 Ta11 1.816209 1_555
O21 Ta4 1.905361 1_545
O22 Ta7 1.859318 1_555
O22 Ta10 2.563104 1_455
O23 Ta8 1.905361 1_555
O24 Ta6 1.800968 1_555
O25 Ta6 1.864282 1_555
O26 Ta4 1.800968 1_555
O27 Ta10 1.816209 1_555
O28 Ta3 1.816209 1_555
O29 Ta2 1.859318 1_555
O29 Ta3 2.563104 1_455
O30 Ta11 1.898084 1_555
O31 Ta10 1.932379 1_555
O32 Ta0 1.925715 1_554
O32 Ta11 1.925715 1_555
O33 Ta7 1.870324 1_555
O34 Ta5 1.847223 1_555
O35 Ta1 1.859318 1_555
O35 Ta0 2.563104 1_655
O36 Ta11 1.932379 1_555
O37 Ta1 1.870324 1_555
O38 Ta8 1.864282 1_555
O39 Ta1 1.871631 1_555
O39 Ta6 1.914075 1_555
O40 Ta2 1.870324 1_555
O41 Ta0 1.816209 1_555
