# generated using pymatgen
data_CdRe2H26C6S6(N4O3)3
_symmetry_space_group_name_H-M   'P 1'
_cell_length_a   10.75394077
_cell_length_b   10.75394077
_cell_length_c   15.13475788
_cell_angle_alpha   73.67736473
_cell_angle_beta   73.67736473
_cell_angle_gamma   85.17513134
_symmetry_Int_Tables_number   1
_chemical_formula_structural   CdRe2H26C6S6(N4O3)3
_chemical_formula_sum   'Cd2 Re4 H52 C12 S12 N24 O18'
_cell_volume   1612.01805779
_cell_formula_units_Z   2
loop_
 _symmetry_equiv_pos_site_id
 _symmetry_equiv_pos_as_xyz
  1  'x, y, z'
loop_
 _atom_site_type_symbol
 _atom_site_label
 _atom_site_symmetry_multiplicity
 _atom_site_fract_x
 _atom_site_fract_y
 _atom_site_fract_z
 _atom_site_occupancy
  Cd  Cd0  1  0.00000000  0.50000000  0.00000000  1
  Cd  Cd1  1  0.50000000  0.00000000  0.50000000  1
  Re  Re0  1  0.00118100  0.33672700  0.64036100  1
  Re  Re1  1  0.66327300  0.99881900  0.85963900  1
  Re  Re2  1  0.99881900  0.66327300  0.35963900  1
  Re  Re3  1  0.33672700  0.00118100  0.14036100  1
  H  H0  1  0.81744100  0.99010400  0.09914000  1
  H  H1  1  0.00989600  0.18255900  0.40086000  1
  H  H2  1  0.18255900  0.00989600  0.90086000  1
  H  H3  1  0.99010400  0.81744100  0.59914000  1
  H  H4  1  0.84588200  0.03016700  0.19667700  1
  H  H5  1  0.96983300  0.15411800  0.30332300  1
  H  H6  1  0.15411800  0.96983300  0.80332300  1
  H  H7  1  0.03016700  0.84588200  0.69667700  1
  H  H8  1  0.88556600  0.12227000  0.94709500  1
  H  H9  1  0.87773000  0.11443400  0.55290500  1
  H  H10  1  0.11443400  0.87773000  0.05290500  1
  H  H11  1  0.12227000  0.88556600  0.44709500  1
  H  H12  1  0.98250000  0.25605300  0.92501200  1
  H  H13  1  0.74394700  0.01750000  0.57498800  1
  H  H14  1  0.01750000  0.74394700  0.07498800  1
  H  H15  1  0.25605300  0.98250000  0.42501200  1
  H  H16  1  0.41253500  0.71536700  0.85104500  1
  H  H17  1  0.28463300  0.58746500  0.64895500  1
  H  H18  1  0.58746500  0.28463300  0.14895500  1
  H  H19  1  0.71536700  0.41253500  0.35104500  1
  H  H20  1  0.28046300  0.61755600  0.86868900  1
  H  H21  1  0.38244400  0.71953700  0.63131100  1
  H  H22  1  0.71953700  0.38244400  0.13131100  1
  H  H23  1  0.61755600  0.28046300  0.36868900  1
  H  H24  1  0.48315100  0.71753800  0.98306000  1
  H  H25  1  0.28246200  0.51685000  0.51694000  1
  H  H26  1  0.51685000  0.28246200  0.01694000  1
  H  H27  1  0.71753800  0.48315000  0.48306000  1
  H  H28  1  0.40115800  0.62513700  0.09858700  1
  H  H29  1  0.37486300  0.59884200  0.40141300  1
  H  H30  1  0.59884200  0.37486300  0.90141300  1
  H  H31  1  0.62513700  0.40115800  0.59858700  1
  H  H32  1  0.37669500  0.20321400  0.77349600  1
  H  H33  1  0.79678600  0.62330500  0.72650400  1
  H  H34  1  0.62330500  0.79678600  0.22650400  1
  H  H35  1  0.20321400  0.37669500  0.27349600  1
  H  H36  1  0.27755700  0.30176900  0.70816300  1
  H  H37  1  0.69823100  0.72244300  0.79183700  1
  H  H38  1  0.72244300  0.69823100  0.29183700  1
  H  H39  1  0.30176900  0.27755700  0.20816300  1
  H  H40  1  0.35993100  0.21020000  0.92633000  1
  H  H41  1  0.78980000  0.64006900  0.57367000  1
  H  H42  1  0.64006900  0.78980000  0.07367000  1
  H  H43  1  0.21020000  0.35993100  0.42633000  1
  H  H44  1  0.26574700  0.33126000  0.97247100  1
  H  H45  1  0.66874000  0.73425300  0.52752900  1
  H  H46  1  0.73425300  0.66874000  0.02752900  1
  H  H47  1  0.33126000  0.26574700  0.47247100  1
  H  H48  1  0.28747900  0.60493100  0.27526500  1
  H  H49  1  0.39506900  0.71252100  0.22473500  1
  H  H50  1  0.71252100  0.39506900  0.72473500  1
  H  H51  1  0.60493100  0.28747900  0.77526500  1
  C  C0  1  0.92433700  0.15387100  0.06513900  1
  C  C1  1  0.84612900  0.07566300  0.43486100  1
  C  C2  1  0.07566300  0.84612900  0.93486100  1
  C  C3  1  0.15387100  0.92433700  0.56513900  1
  C  C4  1  0.32900100  0.61026100  0.99071600  1
  C  C5  1  0.38973900  0.67099900  0.50928400  1
  C  C6  1  0.67099900  0.38973900  0.00928400  1
  C  C7  1  0.61026100  0.32900100  0.49071600  1
  C  C8  1  0.25742400  0.32896800  0.83974100  1
  C  C9  1  0.67103200  0.74257600  0.66025900  1
  C  C10  1  0.74257600  0.67103200  0.16025900  1
  C  C11  1  0.32896800  0.25742400  0.33974100  1
  S  S0  1  0.99261200  0.25174000  0.11072400  1
  S  S1  1  0.74826000  0.00738800  0.38927600  1
  S  S2  1  0.00738800  0.74826000  0.88927600  1
  S  S3  1  0.25174000  0.99261200  0.61072400  1
  S  S4  1  0.21002200  0.50252300  0.06619000  1
  S  S5  1  0.49747700  0.78997800  0.43381000  1
  S  S6  1  0.78997800  0.49747700  0.93381000  1
  S  S7  1  0.50252300  0.21002200  0.56619000  1
  S  S8  1  0.15146000  0.45707400  0.82422800  1
  S  S9  1  0.54292600  0.84854000  0.67577200  1
  S  S10  1  0.84854000  0.54292600  0.17577200  1
  S  S11  1  0.45707400  0.15146000  0.32422800  1
  N  N0  1  0.85712800  0.04970400  0.12516000  1
  N  N1  1  0.95029600  0.14287200  0.37484000  1
  N  N2  1  0.14287200  0.95029600  0.87484000  1
  N  N3  1  0.04970400  0.85712800  0.62516100  1
  N  N4  1  0.93736500  0.17461900  0.97173300  1
  N  N5  1  0.82538100  0.06263500  0.52826700  1
  N  N6  1  0.06263500  0.82538100  0.02826700  1
  N  N7  1  0.17461900  0.93736500  0.47173300  1
  N  N8  1  0.34179900  0.65201900  0.89663400  1
  N  N9  1  0.34798100  0.65820100  0.60336600  1
  N  N10  1  0.65820100  0.34798100  0.10336600  1
  N  N11  1  0.65201900  0.34179900  0.39663400  1
  N  N12  1  0.41263000  0.65182500  0.02658500  1
  N  N13  1  0.34817500  0.58737000  0.47341500  1
  N  N14  1  0.58737000  0.34817500  0.97341500  1
  N  N15  1  0.65182500  0.41263000  0.52658500  1
  N  N16  1  0.30119400  0.26708200  0.77115100  1
  N  N17  1  0.73291800  0.69880600  0.72884900  1
  N  N18  1  0.69880600  0.73291800  0.22884900  1
  N  N19  1  0.26708200  0.30119400  0.27115100  1
  N  N20  1  0.29808000  0.28731100  0.91854300  1
  N  N21  1  0.71268900  0.70192000  0.58145700  1
  N  N22  1  0.70192000  0.71268900  0.08145700  1
  N  N23  1  0.28731100  0.29808000  0.41854300  1
  O  O0  1  0.16265300  0.39198100  0.60176100  1
  O  O1  1  0.60801900  0.83734700  0.89823900  1
  O  O2  1  0.83734700  0.60801900  0.39823900  1
  O  O3  1  0.39198100  0.16265300  0.10176100  1
  O  O4  1  0.97482500  0.22593600  0.75244600  1
  O  O5  1  0.77406400  0.02517500  0.74755400  1
  O  O6  1  0.02517500  0.77406400  0.24755400  1
  O  O7  1  0.22593600  0.97482500  0.25244600  1
  O  O8  1  0.97535000  0.26126900  0.55834900  1
  O  O9  1  0.73873100  0.02465000  0.94165100  1
  O  O10  1  0.02465000  0.73873100  0.44165100  1
  O  O11  1  0.26126900  0.97535000  0.05834900  1
  O  O12  1  0.88986300  0.46671100  0.64851000  1
  O  O13  1  0.53328900  0.11013700  0.85149000  1
  O  O14  1  0.11013700  0.53328900  0.35149000  1
  O  O15  1  0.46671100  0.88986300  0.14851000  1
  O  O16  1  0.38143500  0.61856500  0.25000000  1
  O  O17  1  0.61856500  0.38143500  0.75000000  1
loop_
_geom_bond_atom_site_label_1
_geom_bond_atom_site_label_2
_geom_bond_distance
_geom_bond_site_symmetry_2
Cd0 S0 2.718145 1_455
Cd0 S2 2.718145 1_554
Cd0 S4 2.720798 1_555
Cd0 S6 2.720798 1_454
Cd0 S10 2.841005 1_455
Cd0 S8 2.841005 1_554
Cd1 S3 2.718145 1_545
Cd1 S1 2.718145 1_555
Cd1 S7 2.720798 1_555
Cd1 S5 2.720798 1_545
Cd1 S9 2.841005 1_545
Cd1 S11 2.841005 1_555
H0 N0 1.015084 1_565
H1 N1 1.015084 1_455
H2 N2 1.015084 1_545
H3 N3 1.015094 1_655
H4 N0 1.016470 1_555
H5 N1 1.016470 1_555
H6 N2 1.016470 1_555
H7 N3 1.016455 1_555
H8 N4 1.026533 1_555
H9 N5 1.026533 1_555
H10 N6 1.026533 1_555
H11 N7 1.026533 1_555
H12 N4 1.016379 1_555
H13 N5 1.016379 1_555
H14 N6 1.016379 1_555
H15 N7 1.016379 1_555
H16 N8 1.023112 1_555
H17 N9 1.023112 1_555
H18 N10 1.023112 1_555
H19 N11 1.023112 1_555
H20 N8 1.018503 1_555
H21 N9 1.018503 1_555
H22 N10 1.018503 1_555
H23 N11 1.018503 1_555
H24 N12 1.027692 1_556
H25 N13 1.027685 1_555
H26 N14 1.027685 1_554
H27 N15 1.027685 1_555
H28 N12 1.019657 1_555
H29 N13 1.019657 1_555
H30 N14 1.019657 1_555
H31 N15 1.019657 1_555
H32 N16 1.020255 1_555
H33 N17 1.020255 1_555
H34 N18 1.020255 1_555
H35 N19 1.020255 1_555
H36 N16 1.016331 1_555
H37 N17 1.016331 1_555
H38 N18 1.016331 1_555
H39 N19 1.016331 1_555
H40 N20 1.019950 1_555
H41 N21 1.019950 1_555
H42 N22 1.019950 1_555
H43 N23 1.019950 1_555
H44 N20 1.019853 1_555
H45 N21 1.019853 1_555
H46 N22 1.019853 1_555
H47 N23 1.019853 1_555
H48 O16 0.982270 1_555
H49 O16 0.982270 1_555
H50 O17 0.982270 1_555
H51 O17 0.982270 1_555
C0 N4 1.335863 1_554
C0 N0 1.340750 1_555
C0 S0 1.716291 1_555
C1 N5 1.335863 1_555
C1 N1 1.340750 1_555
C1 S1 1.716291 1_555
C2 N6 1.335863 1_556
C2 N2 1.340750 1_555
C2 S2 1.716291 1_555
C3 N7 1.335863 1_555
C3 N3 1.340754 1_555
C3 S3 1.716291 1_555
C4 N12 1.334822 1_556
C4 N8 1.337513 1_555
C4 S4 1.722856 1_556
C5 N13 1.334822 1_555
C5 N9 1.337513 1_555
C5 S5 1.722856 1_555
C6 N14 1.334822 1_554
C6 N10 1.337513 1_555
C6 S6 1.722856 1_554
C7 N15 1.334822 1_555
C7 N11 1.337513 1_555
C7 S7 1.722856 1_555
C8 N20 1.331948 1_555
C8 N16 1.342792 1_555
C8 S8 1.719317 1_555
C9 N21 1.331948 1_555
C9 N17 1.342792 1_555
C9 S9 1.719317 1_555
C10 N22 1.331948 1_555
C10 N18 1.342792 1_555
C10 S10 1.719317 1_555
C11 N23 1.331948 1_555
C11 N19 1.342792 1_555
C11 S11 1.719317 1_555
O0 Re0 1.765757 1_555
O1 Re1 1.765757 1_555
O2 Re2 1.765757 1_555
O3 Re3 1.765757 1_555
O4 Re0 1.740130 1_655
O5 Re1 1.740130 1_545
O6 Re2 1.740130 1_455
O7 Re3 1.740130 1_565
O8 Re0 1.753335 1_655
O9 Re1 1.753335 1_545
O10 Re2 1.753335 1_455
O11 Re3 1.753335 1_565
O12 Re0 1.770496 1_655
O13 Re1 1.770496 1_545
O14 Re2 1.770496 1_455
O15 Re3 1.770496 1_565
