# generated using pymatgen
data_Yb14AlSb11
_symmetry_space_group_name_H-M   'P 1'
_cell_length_a   16.21706364
_cell_length_b   16.21706364
_cell_length_c   16.21706364
_cell_angle_alpha   117.95788920
_cell_angle_beta   117.95788920
_cell_angle_gamma   93.57499824
_symmetry_Int_Tables_number   1
_chemical_formula_structural   Yb14AlSb11
_chemical_formula_sum   'Yb56 Al4 Sb44'
_cell_volume   3102.34830059
_cell_formula_units_Z   4
loop_
 _symmetry_equiv_pos_site_id
 _symmetry_equiv_pos_as_xyz
  1  'x, y, z'
loop_
 _atom_site_type_symbol
 _atom_site_label
 _atom_site_symmetry_multiplicity
 _atom_site_fract_x
 _atom_site_fract_y
 _atom_site_fract_z
 _atom_site_occupancy
  Yb  Yb0  1  0.00325800  0.72206800  0.63341500  1
  Yb  Yb1  1  0.50325800  0.86984300  0.28119000  1
  Yb  Yb2  1  0.97206800  0.75325800  0.13341500  1
  Yb  Yb3  1  0.47206800  0.33865300  0.21881000  1
  Yb  Yb4  1  0.74674200  0.52793200  0.86658500  1
  Yb  Yb5  1  0.24674200  0.38015700  0.21881000  1
  Yb  Yb6  1  0.77793200  0.49674200  0.36658500  1
  Yb  Yb7  1  0.27793200  0.91134700  0.28119000  1
  Yb  Yb8  1  0.58865300  0.22206800  0.71881000  1
  Yb  Yb9  1  0.08865300  0.36984300  0.36658500  1
  Yb  Yb10  1  0.11984300  0.25325800  0.78119000  1
  Yb  Yb11  1  0.61984300  0.83865300  0.86658500  1
  Yb  Yb12  1  0.16134700  0.02793200  0.78119000  1
  Yb  Yb13  1  0.66134700  0.88015700  0.13341500  1
  Yb  Yb14  1  0.63015700  0.99674200  0.71881000  1
  Yb  Yb15  1  0.13015700  0.41134700  0.63341500  1
  Yb  Yb16  1  0.84840900  0.74354500  0.85030900  1
  Yb  Yb17  1  0.34840900  0.49810000  0.10486400  1
  Yb  Yb18  1  0.99354500  0.59840900  0.35030900  1
  Yb  Yb19  1  0.49354500  0.14323600  0.39513600  1
  Yb  Yb20  1  0.90159100  0.50645500  0.64969100  1
  Yb  Yb21  1  0.40159100  0.75190000  0.39513600  1
  Yb  Yb22  1  0.75645500  0.65159100  0.14969100  1
  Yb  Yb23  1  0.25645500  0.10676400  0.10486400  1
  Yb  Yb24  1  0.39323600  0.24354500  0.89513600  1
  Yb  Yb25  1  0.89323600  0.99810000  0.14969100  1
  Yb  Yb26  1  0.74810000  0.09840900  0.60486400  1
  Yb  Yb27  1  0.24810000  0.64323600  0.64969100  1
  Yb  Yb28  1  0.35676400  0.00645500  0.60486400  1
  Yb  Yb29  1  0.85676400  0.25190000  0.35030900  1
  Yb  Yb30  1  0.00190000  0.15159100  0.89513600  1
  Yb  Yb31  1  0.50190000  0.60676400  0.85030900  1
  Yb  Yb32  1  0.97819600  0.37500000  0.10319600  1
  Yb  Yb33  1  0.47819600  0.37500000  0.60319600  1
  Yb  Yb34  1  0.62500000  0.72819600  0.60319600  1
  Yb  Yb35  1  0.12500000  0.52180400  0.89680400  1
  Yb  Yb36  1  0.77180400  0.87500000  0.39680400  1
  Yb  Yb37  1  0.27180400  0.87500000  0.89680400  1
  Yb  Yb38  1  0.62500000  0.22819600  0.10319600  1
  Yb  Yb39  1  0.12500000  0.02180400  0.39680400  1
  Yb  Yb40  1  0.21232500  0.19224400  0.34021600  1
  Yb  Yb41  1  0.71232500  0.37210900  0.02008100  1
  Yb  Yb42  1  0.44224400  0.96232500  0.84021600  1
  Yb  Yb43  1  0.94224400  0.10202800  0.47991900  1
  Yb  Yb44  1  0.53767500  0.05775600  0.15978400  1
  Yb  Yb45  1  0.03767500  0.87789100  0.47991900  1
  Yb  Yb46  1  0.30775600  0.28767500  0.65978400  1
  Yb  Yb47  1  0.80775600  0.14797200  0.02008100  1
  Yb  Yb48  1  0.35202800  0.69224400  0.97991900  1
  Yb  Yb49  1  0.85202800  0.87210900  0.65978400  1
  Yb  Yb50  1  0.62210900  0.46232500  0.52008100  1
  Yb  Yb51  1  0.12210900  0.60202800  0.15978400  1
  Yb  Yb52  1  0.39797200  0.55775600  0.52008100  1
  Yb  Yb53  1  0.89797200  0.37789100  0.84021600  1
  Yb  Yb54  1  0.12789100  0.78767500  0.97991900  1
  Yb  Yb55  1  0.62789100  0.64797200  0.34021600  1
  Al  Al0  1  0.00000000  0.00000000  0.00000000  1
  Al  Al1  1  0.50000000  0.50000000  0.00000000  1
  Al  Al2  1  0.25000000  0.75000000  0.50000000  1
  Al  Al3  1  0.75000000  0.25000000  0.50000000  1
  Sb  Sb0  1  0.88513600  0.88513600  0.27027200  1
  Sb  Sb1  1  0.38513600  0.11486400  0.00000000  1
  Sb  Sb2  1  0.13513600  0.63513600  0.77027200  1
  Sb  Sb3  1  0.63513600  0.86486400  0.50000000  1
  Sb  Sb4  1  0.86486400  0.36486400  0.22972800  1
  Sb  Sb5  1  0.36486400  0.13513600  0.50000000  1
  Sb  Sb6  1  0.61486400  0.61486400  0.72972800  1
  Sb  Sb7  1  0.11486400  0.38513600  0.00000000  1
  Sb  Sb8  1  0.06910800  0.92555800  0.86599300  1
  Sb  Sb9  1  0.56910800  0.70311500  0.14355000  1
  Sb  Sb10  1  0.17555800  0.81910800  0.36599300  1
  Sb  Sb11  1  0.67555800  0.30956500  0.35645000  1
  Sb  Sb12  1  0.68089200  0.32444200  0.63400700  1
  Sb  Sb13  1  0.18089200  0.54688500  0.35645000  1
  Sb  Sb14  1  0.57444200  0.43089200  0.13400700  1
  Sb  Sb15  1  0.07444200  0.94043500  0.14355000  1
  Sb  Sb16  1  0.55956500  0.42555800  0.85645000  1
  Sb  Sb17  1  0.05956500  0.20311500  0.13400700  1
  Sb  Sb18  1  0.95311500  0.31910800  0.64355000  1
  Sb  Sb19  1  0.45311500  0.80956500  0.63400700  1
  Sb  Sb20  1  0.19043500  0.82444200  0.64355000  1
  Sb  Sb21  1  0.69043500  0.04688500  0.36599300  1
  Sb  Sb22  1  0.79688500  0.93089200  0.85645000  1
  Sb  Sb23  1  0.29688500  0.44043500  0.86599300  1
  Sb  Sb24  1  0.79164200  0.64578200  0.59306300  1
  Sb  Sb25  1  0.29164200  0.69857900  0.14586000  1
  Sb  Sb26  1  0.89578200  0.54164200  0.09306300  1
  Sb  Sb27  1  0.39578200  0.30271900  0.35414000  1
  Sb  Sb28  1  0.95835800  0.60421800  0.90693700  1
  Sb  Sb29  1  0.45835800  0.55142100  0.35414000  1
  Sb  Sb30  1  0.85421800  0.70835800  0.40693700  1
  Sb  Sb31  1  0.35421800  0.94728100  0.14586000  1
  Sb  Sb32  1  0.55271900  0.14578200  0.85414000  1
  Sb  Sb33  1  0.05271900  0.19857900  0.40693700  1
  Sb  Sb34  1  0.94857900  0.04164200  0.64586000  1
  Sb  Sb35  1  0.44857900  0.80271900  0.90693700  1
  Sb  Sb36  1  0.19728100  0.10421800  0.64586000  1
  Sb  Sb37  1  0.69728100  0.05142100  0.09306300  1
  Sb  Sb38  1  0.80142100  0.20835800  0.85414000  1
  Sb  Sb39  1  0.30142100  0.44728100  0.59306300  1
  Sb  Sb40  1  0.75000000  0.75000000  0.00000000  1
  Sb  Sb41  1  0.25000000  0.25000000  0.00000000  1
  Sb  Sb42  1  0.00000000  0.50000000  0.50000000  1
  Sb  Sb43  1  0.50000000  0.00000000  0.50000000  1
loop_
_geom_bond_atom_site_label_1
_geom_bond_atom_site_label_2
_geom_bond_distance
_geom_bond_site_symmetry_2
Al0 Sb17 2.725565 1_555
Al0 Sb15 2.725565 1_545
Al0 Sb8 2.725565 1_544
Al0 Sb22 2.725565 1_444
Al0 Yb25 3.591119 1_445
Al0 Yb30 3.591119 1_554
Al0 Yb16 3.591119 1_444
Al0 Yb23 3.591119 1_555
Al1 Sb16 2.725565 1_554
Al1 Sb14 2.725565 1_555
Al1 Sb23 2.725565 1_554
Al1 Sb9 2.725565 1_555
Al1 Yb31 3.591119 1_554
Al1 Yb22 3.591119 1_555
Al1 Yb17 3.591119 1_555
Al1 Yb24 3.591119 1_554
Al2 Sb10 2.725565 1_555
Al2 Sb20 2.725565 1_555
Al2 Sb19 2.725565 1_555
Al2 Sb13 2.725565 1_555
Al2 Yb21 3.591119 1_555
Al2 Yb18 3.591119 1_455
Al2 Yb27 3.591119 1_555
Al2 Yb28 3.591119 1_565
Al3 Sb12 2.725565 1_555
Al3 Sb11 2.725565 1_555
Al3 Sb21 2.725565 1_555
Al3 Sb18 2.725565 1_555
Al3 Yb19 3.591119 1_555
Al3 Yb26 3.591119 1_555
Al3 Yb20 3.591119 1_555
Al3 Yb29 3.591119 1_555
Sb0 Yb45 3.196417 1_655
Sb0 Yb43 3.196417 1_565
Sb0 Yb13 3.216581 1_555
Sb0 Yb2 3.216581 1_555
Sb0 Yb25 3.281298 1_555
Sb0 Yb22 3.281298 1_555
Sb0 Yb36 3.380877 1_555
Sb0 Yb39 3.380877 1_665
Sb1 Yb44 3.196417 1_555
Sb1 Yb42 3.196417 1_544
Sb1 Yb12 3.216581 1_554
Sb1 Yb3 3.216581 1_555
Sb1 Yb23 3.281298 1_555
Sb1 Yb24 3.281298 1_554
Sb1 Yb37 3.380877 1_544
Sb1 Yb38 3.380877 1_555
Sb2 Yb54 3.196417 1_555
Sb2 Yb48 3.196417 1_555
Sb2 Yb15 3.216581 1_555
Sb2 Yb0 3.216581 1_555
Sb2 Yb27 3.281298 1_555
Sb2 Yb20 3.281298 1_455
Sb2 Yb37 3.380877 1_555
Sb2 Yb35 3.380877 1_555
Sb3 Yb55 3.196417 1_555
Sb3 Yb49 3.196417 1_555
Sb3 Yb14 3.216581 1_555
Sb3 Yb1 3.216581 1_555
Sb3 Yb26 3.281298 1_565
Sb3 Yb21 3.281298 1_555
Sb3 Yb34 3.380877 1_555
Sb3 Yb36 3.380877 1_555
Sb4 Yb41 3.196417 1_555
Sb4 Yb47 3.196417 1_555
Sb4 Yb6 3.216581 1_555
Sb4 Yb9 3.216581 1_655
Sb4 Yb18 3.281298 1_555
Sb4 Yb29 3.281298 1_555
Sb4 Yb32 3.380877 1_555
Sb4 Yb38 3.380877 1_555
Sb5 Yb40 3.196417 1_555
Sb5 Yb46 3.196417 1_555
Sb5 Yb7 3.216581 1_545
Sb5 Yb8 3.216581 1_555
Sb5 Yb28 3.281298 1_555
Sb5 Yb19 3.281298 1_555
Sb5 Yb33 3.380877 1_555
Sb5 Yb39 3.380877 1_555
Sb6 Yb52 3.196417 1_555
Sb6 Yb50 3.196417 1_555
Sb6 Yb11 3.216581 1_555
Sb6 Yb4 3.216581 1_555
Sb6 Yb31 3.281298 1_555
Sb6 Yb16 3.281298 1_555
Sb6 Yb33 3.380877 1_555
Sb6 Yb34 3.380877 1_555
Sb7 Yb51 3.196417 1_555
Sb7 Yb53 3.196417 1_454
Sb7 Yb5 3.216581 1_555
Sb7 Yb10 3.216581 1_554
Sb7 Yb30 3.281298 1_554
Sb7 Yb17 3.281298 1_555
Sb7 Yb35 3.380877 1_554
Sb7 Yb32 3.380877 1_455
Sb8 Yb23 3.170138 1_566
Sb8 Yb49 3.192278 1_455
Sb8 Yb0 3.220194 1_555
Sb8 Yb12 3.262697 1_565
Sb8 Yb37 3.302627 1_555
Sb8 Yb54 3.436591 1_555
Sb8 Yb30 3.768911 1_565
Sb9 Yb22 3.170138 1_555
Sb9 Yb48 3.192278 1_554
Sb9 Yb1 3.220194 1_555
Sb9 Yb13 3.262697 1_555
Sb9 Yb36 3.302627 1_555
Sb9 Yb55 3.436591 1_555
Sb9 Yb31 3.768911 1_554
Sb10 Yb28 3.170138 1_565
Sb10 Yb51 3.192278 1_555
Sb10 Yb2 3.220194 1_455
Sb10 Yb7 3.262697 1_555
Sb10 Yb39 3.302627 1_565
Sb10 Yb45 3.436591 1_555
Sb10 Yb21 3.768911 1_555
Sb11 Yb29 3.170138 1_555
Sb11 Yb50 3.192278 1_555
Sb11 Yb3 3.220194 1_555
Sb11 Yb6 3.262697 1_555
Sb11 Yb38 3.302627 1_555
Sb11 Yb44 3.436591 1_555
Sb11 Yb20 3.768911 1_555
Sb12 Yb19 3.170138 1_555
Sb12 Yb53 3.192278 1_555
Sb12 Yb4 3.220194 1_555
Sb12 Yb8 3.262697 1_555
Sb12 Yb33 3.302627 1_555
Sb12 Yb50 3.436591 1_555
Sb12 Yb26 3.768911 1_555
Sb13 Yb18 3.170138 1_455
Sb13 Yb52 3.192278 1_555
Sb13 Yb5 3.220194 1_555
Sb13 Yb9 3.262697 1_555
Sb13 Yb32 3.302627 1_455
Sb13 Yb51 3.436591 1_555
Sb13 Yb27 3.768911 1_555
Sb14 Yb24 3.170138 1_554
Sb14 Yb55 3.192278 1_555
Sb14 Yb6 3.220194 1_555
Sb14 Yb3 3.262697 1_555
Sb14 Yb38 3.302627 1_555
Sb14 Yb41 3.436591 1_555
Sb14 Yb17 3.768911 1_555
Sb15 Yb25 3.170138 1_455
Sb15 Yb54 3.192278 1_554
Sb15 Yb7 3.220194 1_555
Sb15 Yb2 3.262697 1_455
Sb15 Yb39 3.302627 1_565
Sb15 Yb40 3.436591 1_565
Sb15 Yb16 3.768911 1_454
Sb16 Yb31 3.170138 1_555
Sb16 Yb41 3.192278 1_556
Sb16 Yb8 3.220194 1_555
Sb16 Yb4 3.262697 1_555
Sb16 Yb33 3.302627 1_555
Sb16 Yb46 3.436591 1_555
Sb16 Yb22 3.768911 1_556
Sb17 Yb30 3.170138 1_554
Sb17 Yb40 3.192278 1_555
Sb17 Yb9 3.220194 1_555
Sb17 Yb5 3.262697 1_555
Sb17 Yb32 3.302627 1_455
Sb17 Yb47 3.436591 1_455
Sb17 Yb23 3.768911 1_555
Sb18 Yb20 3.170138 1_555
Sb18 Yb43 3.192278 1_555
Sb18 Yb10 3.220194 1_655
Sb18 Yb15 3.262697 1_655
Sb18 Yb35 3.302627 1_655
Sb18 Yb53 3.436591 1_555
Sb18 Yb29 3.768911 1_555
Sb19 Yb21 3.170138 1_555
Sb19 Yb42 3.192278 1_555
Sb19 Yb11 3.220194 1_555
Sb19 Yb14 3.262697 1_555
Sb19 Yb34 3.302627 1_555
Sb19 Yb52 3.436591 1_555
Sb19 Yb28 3.768911 1_565
Sb20 Yb27 3.170138 1_555
Sb20 Yb45 3.192278 1_555
Sb20 Yb12 3.220194 1_565
Sb20 Yb0 3.262697 1_555
Sb20 Yb37 3.302627 1_555
Sb20 Yb42 3.436591 1_555
Sb20 Yb18 3.768911 1_455
Sb21 Yb26 3.170138 1_555
Sb21 Yb44 3.192278 1_555
Sb21 Yb13 3.220194 1_545
Sb21 Yb1 3.262697 1_545
Sb21 Yb36 3.302627 1_545
Sb21 Yb43 3.436591 1_555
Sb21 Yb19 3.768911 1_555
Sb22 Yb16 3.170138 1_555
Sb22 Yb47 3.192278 1_566
Sb22 Yb14 3.220194 1_555
Sb22 Yb11 3.262697 1_555
Sb22 Yb34 3.302627 1_555
Sb22 Yb49 3.436591 1_555
Sb22 Yb25 3.768911 1_556
Sb23 Yb17 3.170138 1_556
Sb23 Yb46 3.192278 1_555
Sb23 Yb15 3.220194 1_555
Sb23 Yb10 3.262697 1_555
Sb23 Yb35 3.302627 1_555
Sb23 Yb48 3.436591 1_555
Sb23 Yb24 3.768911 1_555
Sb24 Yb34 3.126879 1_555
Sb24 Yb20 3.168676 1_555
Sb24 Yb6 3.197576 1_555
Sb24 Yb0 3.215845 1_655
Sb24 Yb49 3.230442 1_555
Sb24 Yb50 3.230821 1_555
Sb24 Yb16 3.283306 1_555
Sb24 Yb55 3.715531 1_555
Sb25 Yb35 3.126879 1_554
Sb25 Yb21 3.168676 1_555
Sb25 Yb7 3.197576 1_555
Sb25 Yb1 3.215845 1_555
Sb25 Yb48 3.230442 1_554
Sb25 Yb51 3.230821 1_555
Sb25 Yb17 3.283306 1_555
Sb25 Yb54 3.715531 1_554
Sb26 Yb32 3.126879 1_555
Sb26 Yb22 3.168676 1_555
Sb26 Yb4 3.197576 1_554
Sb26 Yb2 3.215845 1_555
Sb26 Yb51 3.230442 1_655
Sb26 Yb41 3.230821 1_555
Sb26 Yb18 3.283306 1_555
Sb26 Yb53 3.715531 1_554
Sb27 Yb33 3.126879 1_555
Sb27 Yb23 3.168676 1_555
Sb27 Yb5 3.197576 1_555
Sb27 Yb3 3.215845 1_555
Sb27 Yb50 3.230442 1_555
Sb27 Yb40 3.230821 1_555
Sb27 Yb19 3.283306 1_555
Sb27 Yb52 3.715531 1_555
Sb28 Yb35 3.126879 1_655
Sb28 Yb16 3.168676 1_555
Sb28 Yb2 3.197576 1_556
Sb28 Yb4 3.215845 1_555
Sb28 Yb53 3.230442 1_555
Sb28 Yb54 3.230821 1_655
Sb28 Yb20 3.283306 1_555
Sb28 Yb51 3.715531 1_656
Sb29 Yb34 3.126879 1_555
Sb29 Yb17 3.168676 1_555
Sb29 Yb3 3.197576 1_555
Sb29 Yb5 3.215845 1_555
Sb29 Yb52 3.230442 1_555
Sb29 Yb55 3.230821 1_555
Sb29 Yb21 3.283306 1_555
Sb29 Yb50 3.715531 1_555
Sb30 Yb36 3.126879 1_555
Sb30 Yb18 3.168676 1_555
Sb30 Yb0 3.197576 1_655
Sb30 Yb6 3.215845 1_555
Sb30 Yb55 3.230442 1_555
Sb30 Yb45 3.230821 1_655
Sb30 Yb22 3.283306 1_555
Sb30 Yb49 3.715531 1_555
Sb31 Yb37 3.126879 1_554
Sb31 Yb19 3.168676 1_565
Sb31 Yb1 3.197576 1_555
Sb31 Yb7 3.215845 1_555
Sb31 Yb54 3.230442 1_554
Sb31 Yb44 3.230821 1_565
Sb31 Yb23 3.283306 1_565
Sb31 Yb48 3.715531 1_554
Sb32 Yb38 3.126879 1_556
Sb32 Yb28 3.168676 1_555
Sb32 Yb14 3.197576 1_545
Sb32 Yb8 3.215845 1_555
Sb32 Yb41 3.230442 1_556
Sb32 Yb42 3.230821 1_545
Sb32 Yb24 3.283306 1_555
Sb32 Yb47 3.715531 1_556
Sb33 Yb39 3.126879 1_555
Sb33 Yb29 3.168676 1_455
Sb33 Yb15 3.197576 1_555
Sb33 Yb9 3.215845 1_555
Sb33 Yb40 3.230442 1_555
Sb33 Yb43 3.230821 1_455
Sb33 Yb25 3.283306 1_445
Sb33 Yb46 3.715531 1_555
Sb34 Yb36 3.126879 1_545
Sb34 Yb30 3.168676 1_655
Sb34 Yb12 3.197576 1_655
Sb34 Yb10 3.215845 1_655
Sb34 Yb43 3.230442 1_555
Sb34 Yb49 3.230821 1_545
Sb34 Yb26 3.283306 1_555
Sb34 Yb45 3.715531 1_645
Sb35 Yb37 3.126879 1_555
Sb35 Yb31 3.168676 1_555
Sb35 Yb13 3.197576 1_556
Sb35 Yb11 3.215845 1_555
Sb35 Yb42 3.230442 1_555
Sb35 Yb48 3.230821 1_555
Sb35 Yb27 3.283306 1_555
Sb35 Yb44 3.715531 1_566
Sb36 Yb39 3.126879 1_555
Sb36 Yb24 3.168676 1_555
Sb36 Yb10 3.197576 1_555
Sb36 Yb12 3.215845 1_555
Sb36 Yb45 3.230442 1_545
Sb36 Yb46 3.230821 1_555
Sb36 Yb28 3.283306 1_555
Sb36 Yb43 3.715531 1_455
Sb37 Yb38 3.126879 1_555
Sb37 Yb25 3.168676 1_545
Sb37 Yb11 3.197576 1_544
Sb37 Yb13 3.215845 1_545
Sb37 Yb44 3.230442 1_555
Sb37 Yb47 3.230821 1_555
Sb37 Yb29 3.283306 1_555
Sb37 Yb42 3.715531 1_544
Sb38 Yb32 3.126879 1_556
Sb38 Yb26 3.168676 1_555
Sb38 Yb8 3.197576 1_555
Sb38 Yb14 3.215845 1_545
Sb38 Yb47 3.230442 1_556
Sb38 Yb53 3.230821 1_555
Sb38 Yb30 3.283306 1_655
Sb38 Yb41 3.715531 1_556
Sb39 Yb33 3.126879 1_555
Sb39 Yb27 3.168676 1_555
Sb39 Yb9 3.197576 1_555
Sb39 Yb15 3.215845 1_555
Sb39 Yb46 3.230442 1_555
Sb39 Yb52 3.230821 1_555
Sb39 Yb31 3.283306 1_555
Sb39 Yb40 3.715531 1_555
Sb40 Yb11 3.196316 1_554
Sb40 Yb13 3.196316 1_555
Sb40 Yb2 3.196316 1_555
Sb40 Yb4 3.196316 1_554
Sb40 Yb22 3.444704 1_555
Sb40 Yb31 3.444704 1_554
Sb40 Yb25 3.444704 1_555
Sb40 Yb16 3.444704 1_554
Sb41 Yb10 3.196316 1_554
Sb41 Yb12 3.196316 1_554
Sb41 Yb3 3.196316 1_555
Sb41 Yb5 3.196316 1_555
Sb41 Yb24 3.444704 1_554
Sb41 Yb23 3.444704 1_555
Sb41 Yb17 3.444704 1_555
Sb41 Yb30 3.444704 1_554
Sb42 Yb15 3.196316 1_555
Sb42 Yb9 3.196316 1_555
Sb42 Yb0 3.196316 1_555
Sb42 Yb6 3.196316 1_455
Sb42 Yb20 3.444704 1_455
Sb42 Yb18 3.444704 1_455
Sb42 Yb27 3.444704 1_555
Sb42 Yb29 3.444704 1_455
Sb43 Yb14 3.196316 1_545
Sb43 Yb7 3.196316 1_545
Sb43 Yb8 3.196316 1_555
Sb43 Yb1 3.196316 1_545
Sb43 Yb28 3.444704 1_555
Sb43 Yb21 3.444704 1_545
Sb43 Yb19 3.444704 1_555
Sb43 Yb26 3.444704 1_555
