# generated using pymatgen
data_SmSbO4
_symmetry_space_group_name_H-M   'P 1'
_cell_length_a   5.44942550
_cell_length_b   7.59242361
_cell_length_c   7.64035105
_cell_angle_alpha   80.32330349
_cell_angle_beta   90.00000000
_cell_angle_gamma   90.00000000
_symmetry_Int_Tables_number   1
_chemical_formula_structural   SmSbO4
_chemical_formula_sum   'Sm4 Sb4 O16'
_cell_volume   311.61683026
_cell_formula_units_Z   4
loop_
 _symmetry_equiv_pos_site_id
 _symmetry_equiv_pos_as_xyz
  1  'x, y, z'
loop_
 _atom_site_type_symbol
 _atom_site_label
 _atom_site_symmetry_multiplicity
 _atom_site_fract_x
 _atom_site_fract_y
 _atom_site_fract_z
 _atom_site_occupancy
  Sm  Sm0  1  0.27443848  0.10418125  0.14750738  1
  Sm  Sm1  1  0.77443848  0.39581875  0.85249262  1
  Sm  Sm2  1  0.72556152  0.89581875  0.85249262  1
  Sm  Sm3  1  0.22556152  0.60418125  0.14750738  1
  Sb  Sb0  1  0.76916722  0.30361818  0.33691468  1
  Sb  Sb1  1  0.26916722  0.19638182  0.66308532  1
  Sb  Sb2  1  0.23083278  0.69638182  0.66308532  1
  Sb  Sb3  1  0.73083278  0.80361818  0.33691468  1
  O  O0  1  0.97775645  0.32688812  0.11852032  1
  O  O1  1  0.47775645  0.17311188  0.88147968  1
  O  O2  1  0.02224355  0.67311188  0.88147968  1
  O  O3  1  0.52224355  0.82688812  0.11852032  1
  O  O4  1  0.63288336  0.05764392  0.33198487  1
  O  O5  1  0.13288336  0.44235608  0.66801513  1
  O  O6  1  0.36711664  0.94235608  0.66801513  1
  O  O7  1  0.86711664  0.55764392  0.33198487  1
  O  O8  1  0.99994389  0.87434861  0.17349833  1
  O  O9  1  0.49994389  0.62565139  0.82650167  1
  O  O10  1  0.00005611  0.12565139  0.82650167  1
  O  O11  1  0.50005611  0.37434861  0.17349833  1
  O  O12  1  0.90943249  0.80176843  0.56269128  1
  O  O13  1  0.40943249  0.69823157  0.43730872  1
  O  O14  1  0.09056751  0.19823157  0.43730872  1
  O  O15  1  0.59056751  0.30176843  0.56269128  1
loop_
_geom_bond_atom_site_label_1
_geom_bond_atom_site_label_2
_geom_bond_distance
_geom_bond_site_symmetry_2
O0 Sb0 2.002107 1_555
O0 Sm1 2.296763 1_554
O0 Sm0 2.322955 1_655
O0 Sm3 2.542001 1_655
O1 Sb1 2.002107 1_555
O1 Sm0 2.296763 1_556
O1 Sm1 2.322955 1_555
O1 Sm2 2.542001 1_545
O2 Sb2 2.002107 1_555
O2 Sm3 2.296763 1_556
O2 Sm2 2.322955 1_455
O2 Sm1 2.542001 1_455
O3 Sb3 2.002107 1_555
O3 Sm2 2.296763 1_554
O3 Sm3 2.322955 1_555
O3 Sm0 2.542001 1_565
O4 Sb3 1.995414 1_545
O4 Sb0 2.016019 1_555
O4 Sm0 2.399894 1_555
O5 Sb2 1.995414 1_555
O5 Sb1 2.016019 1_555
O5 Sm1 2.399894 1_455
O6 Sb1 1.995414 1_565
O6 Sb2 2.016019 1_555
O6 Sm2 2.399894 1_555
O7 Sb0 1.995414 1_555
O7 Sb3 2.016019 1_555
O7 Sm3 2.399894 1_655
O8 Sb3 1.942293 1_555
O8 Sm0 2.281546 1_665
O8 Sm3 2.428071 1_655
O8 Sm2 2.853612 1_554
O9 Sb2 1.942293 1_555
O9 Sm1 2.281546 1_555
O9 Sm2 2.428071 1_555
O9 Sm3 2.853612 1_556
O10 Sb1 1.942293 1_555
O10 Sm2 2.281546 1_445
O10 Sm1 2.428071 1_455
O10 Sm0 2.853612 1_556
O11 Sb0 1.942293 1_555
O11 Sm3 2.281546 1_555
O11 Sm0 2.428071 1_555
O11 Sm1 2.853612 1_554
O12 Sb3 1.978628 1_555
O12 Sb2 2.022331 1_655
O12 Sm2 2.635909 1_555
O13 Sb2 1.978628 1_555
O13 Sb3 2.022331 1_555
O13 Sm3 2.635909 1_555
O14 Sb1 1.978628 1_555
O14 Sb0 2.022331 1_455
O14 Sm0 2.635909 1_555
O15 Sb0 1.978628 1_555
O15 Sb1 2.022331 1_555
O15 Sm1 2.635909 1_555
