# generated using pymatgen
data_TiS2
_symmetry_space_group_name_H-M   'P 1'
_cell_length_a   3.60422300
_cell_length_b   6.62752900
_cell_length_c   7.96151700
_cell_angle_alpha   90.00000000
_cell_angle_beta   90.00000000
_cell_angle_gamma   90.00000000
_symmetry_Int_Tables_number   1
_chemical_formula_structural   TiS2
_chemical_formula_sum   'Ti4 S8'
_cell_volume   190.17749266
_cell_formula_units_Z   4
loop_
 _symmetry_equiv_pos_site_id
 _symmetry_equiv_pos_as_xyz
  1  'x, y, z'
loop_
 _atom_site_type_symbol
 _atom_site_label
 _atom_site_symmetry_multiplicity
 _atom_site_fract_x
 _atom_site_fract_y
 _atom_site_fract_z
 _atom_site_occupancy
  Ti  Ti0  1  0.25000000  0.74493700  0.61442200  1
  Ti  Ti1  1  0.25000000  0.24493700  0.88557800  1
  Ti  Ti2  1  0.75000000  0.25506300  0.38557800  1
  Ti  Ti3  1  0.75000000  0.75506300  0.11442200  1
  S  S0  1  0.25000000  0.86497200  0.91672200  1
  S  S1  1  0.25000000  0.36497200  0.58327800  1
  S  S2  1  0.75000000  0.13502800  0.08327800  1
  S  S3  1  0.75000000  0.63502800  0.41672200  1
  S  S4  1  0.75000000  0.52378700  0.84954300  1
  S  S5  1  0.75000000  0.02378700  0.65045700  1
  S  S6  1  0.25000000  0.47621300  0.15045700  1
  S  S7  1  0.25000000  0.97621300  0.34954300  1
loop_
_geom_bond_atom_site_label_1
_geom_bond_atom_site_label_2
_geom_bond_distance
_geom_bond_site_symmetry_2
S0 Ti3 2.501132 1_456
S0 Ti3 2.501132 1_556
S0 Ti1 2.530407 1_565
S0 Ti0 2.534838 1_555
S1 Ti2 2.501132 1_555
S1 Ti2 2.501132 1_455
S1 Ti0 2.530407 1_555
S1 Ti1 2.534838 1_555
S2 Ti1 2.501132 1_654
S2 Ti1 2.501132 1_554
S2 Ti3 2.530407 1_545
S2 Ti2 2.534838 1_555
S3 Ti0 2.501132 1_555
S3 Ti0 2.501132 1_655
S3 Ti2 2.530407 1_555
S3 Ti3 2.534838 1_555
S4 Ti1 2.597179 1_555
S4 Ti1 2.597179 1_655
S4 Ti3 2.607037 1_556
S4 Ti0 2.983270 1_655
S4 Ti0 2.983270 1_555
S5 Ti0 2.597179 1_645
S5 Ti0 2.597179 1_545
S5 Ti2 2.607037 1_555
S5 Ti1 2.983270 1_555
S5 Ti1 2.983270 1_655
S6 Ti3 2.597179 1_455
S6 Ti3 2.597179 1_555
S6 Ti1 2.607037 1_554
S6 Ti2 2.983270 1_555
S6 Ti2 2.983270 1_455
S7 Ti2 2.597179 1_465
S7 Ti2 2.597179 1_565
S7 Ti0 2.607037 1_555
S7 Ti3 2.983270 1_555
S7 Ti3 2.983270 1_455
