# generated using pymatgen
data_NaMg6Sb
_symmetry_space_group_name_H-M   'P 1'
_cell_length_a   5.17306100
_cell_length_b   6.57186800
_cell_length_c   11.26601200
_cell_angle_alpha   90.00000000
_cell_angle_beta   90.00000000
_cell_angle_gamma   90.00000000
_symmetry_Int_Tables_number   1
_chemical_formula_structural   NaMg6Sb
_chemical_formula_sum   'Na2 Mg12 Sb2'
_cell_volume   383.00693778
_cell_formula_units_Z   2
loop_
 _symmetry_equiv_pos_site_id
 _symmetry_equiv_pos_as_xyz
  1  'x, y, z'
loop_
 _atom_site_type_symbol
 _atom_site_label
 _atom_site_symmetry_multiplicity
 _atom_site_fract_x
 _atom_site_fract_y
 _atom_site_fract_z
 _atom_site_occupancy
  Na  Na0  1  0.00000000  0.50000000  0.33364800  1
  Na  Na1  1  0.00000000  0.00000000  0.83364800  1
  Mg  Mg0  1  0.00000000  0.24745100  0.08119200  1
  Mg  Mg1  1  0.00000000  0.75254900  0.08119200  1
  Mg  Mg2  1  0.00000000  0.50000000  0.83550800  1
  Mg  Mg3  1  0.50000000  0.25357800  0.91741000  1
  Mg  Mg4  1  0.50000000  0.74642200  0.91741000  1
  Mg  Mg5  1  0.50000000  0.50000000  0.66709700  1
  Mg  Mg6  1  0.00000000  0.74745100  0.58119200  1
  Mg  Mg7  1  0.00000000  0.25254900  0.58119200  1
  Mg  Mg8  1  0.00000000  0.00000000  0.33550800  1
  Mg  Mg9  1  0.50000000  0.75357800  0.41741000  1
  Mg  Mg10  1  0.50000000  0.24642200  0.41741000  1
  Mg  Mg11  1  0.50000000  0.00000000  0.16709700  1
  Sb  Sb0  1  0.50000000  0.50000000  0.16654500  1
  Sb  Sb1  1  0.50000000  0.00000000  0.66654500  1
loop_
_geom_bond_atom_site_label_1
_geom_bond_atom_site_label_2
_geom_bond_distance
_geom_bond_site_symmetry_2
Na0 Sb0 3.199104 1_455
Na0 Sb0 3.199104 1_555
Na1 Sb1 3.199104 1_455
Na1 Sb1 3.199104 1_555
Mg0 Mg3 3.177485 1_554
Mg0 Mg3 3.177485 1_454
Mg0 Mg11 3.204897 1_455
Mg0 Mg11 3.204897 1_555
Mg0 Sb0 3.220164 1_455
Mg0 Sb0 3.220164 1_555
Mg0 Mg2 3.227355 1_554
Mg0 Na1 3.228339 1_554
Mg0 Mg1 3.252431 1_545
Mg0 Na0 3.293020 1_555
Mg0 Mg8 3.294470 1_555
Mg0 Mg1 3.319437 1_555
Mg1 Mg4 3.177485 1_454
Mg1 Mg4 3.177485 1_554
Mg1 Mg11 3.204897 1_565
Mg1 Mg11 3.204897 1_465
Mg1 Sb0 3.220164 1_455
Mg1 Sb0 3.220164 1_555
Mg1 Mg2 3.227355 1_554
Mg1 Na1 3.228339 1_564
Mg1 Na0 3.293020 1_555
Mg1 Mg8 3.294470 1_565
Mg2 Mg3 3.188128 1_555
Mg2 Mg3 3.188128 1_455
Mg2 Mg4 3.188128 1_455
Mg2 Mg4 3.188128 1_555
Mg2 Mg5 3.207797 1_455
Mg2 Mg5 3.207797 1_555
Mg2 Na1 3.286001 1_565
Mg2 Na1 3.286001 1_555
Mg2 Mg7 3.294470 1_555
Mg2 Mg6 3.294470 1_555
Mg3 Na1 3.218354 1_555
Mg3 Na1 3.218354 1_655
Mg3 Mg4 3.238906 1_555
Mg3 Sb0 3.240450 1_556
Mg3 Mg5 3.251952 1_555
Mg3 Sb1 3.280981 1_555
Mg3 Mg4 3.332962 1_545
Mg4 Na1 3.218354 1_565
Mg4 Na1 3.218354 1_665
Mg4 Sb0 3.240450 1_556
Mg4 Mg5 3.251952 1_555
Mg4 Sb1 3.280981 1_565
Mg5 Mg6 3.204897 1_555
Mg5 Mg7 3.204897 1_555
Mg5 Mg6 3.204897 1_655
Mg5 Mg7 3.204897 1_655
Mg5 Mg9 3.269556 1_555
Mg5 Sb1 3.285940 1_555
Mg5 Sb1 3.285940 1_565
Mg6 Mg9 3.177485 1_455
Mg6 Mg9 3.177485 1_555
Mg6 Sb1 3.220164 1_565
Mg6 Sb1 3.220164 1_465
Mg6 Mg8 3.227355 1_565
Mg6 Na0 3.228339 1_555
Mg6 Mg7 3.252431 1_555
Mg6 Na1 3.293020 1_565
Mg6 Mg7 3.319437 1_565
Mg7 Sb1 3.220164 1_555
Mg7 Sb1 3.220164 1_455
Mg7 Mg8 3.227355 1_555
Mg7 Na0 3.228339 1_555
Mg7 Na1 3.293020 1_555
Mg8 Mg9 3.188128 1_545
Mg8 Mg9 3.188128 1_445
Mg8 Na0 3.286001 1_555
Mg8 Na0 3.286001 1_545
Mg9 Na0 3.218354 1_655
Mg9 Na0 3.218354 1_555
Mg9 Sb1 3.240450 1_565
Mg9 Sb0 3.280981 1_555
Mg10 Mg7 3.177485 1_655
Mg10 Mg7 3.177485 1_555
Mg10 Mg8 3.188128 1_555
Mg10 Mg8 3.188128 1_655
Mg10 Na0 3.218354 1_655
Mg10 Na0 3.218354 1_555
Mg10 Mg9 3.238906 1_545
Mg10 Sb1 3.240450 1_555
Mg10 Mg11 3.251952 1_555
Mg10 Mg5 3.269556 1_555
Mg10 Sb0 3.280981 1_555
Mg10 Mg9 3.332962 1_555
Mg11 Mg8 3.207797 1_555
Mg11 Mg8 3.207797 1_655
Mg11 Mg9 3.251952 1_545
Mg11 Mg4 3.269556 1_544
Mg11 Mg3 3.269556 1_554
Mg11 Sb0 3.285940 1_545
Mg11 Sb0 3.285940 1_555
