# generated using pymatgen
data_B12Pb6O25
_symmetry_space_group_name_H-M   'P 1'
_cell_length_a   8.90187930
_cell_length_b   8.90187930
_cell_length_c   8.90188015
_cell_angle_alpha   81.52354667
_cell_angle_beta   81.52354667
_cell_angle_gamma   81.52354442
_symmetry_Int_Tables_number   1
_chemical_formula_structural   B12Pb6O25
_chemical_formula_sum   'B12 Pb6 O25'
_cell_volume   684.37053674
_cell_formula_units_Z   1
loop_
 _symmetry_equiv_pos_site_id
 _symmetry_equiv_pos_as_xyz
  1  'x, y, z'
loop_
 _atom_site_type_symbol
 _atom_site_label
 _atom_site_symmetry_multiplicity
 _atom_site_fract_x
 _atom_site_fract_y
 _atom_site_fract_z
 _atom_site_occupancy
  B  B0  1  0.50000000  0.73038200  0.26961800  1
  B  B1  1  0.26961800  0.50000000  0.73038200  1
  B  B2  1  0.73038200  0.26961800  0.50000000  1
  B  B3  1  0.26961800  0.73038200  0.50000000  1
  B  B4  1  0.50000000  0.26961800  0.73038200  1
  B  B5  1  0.73038200  0.50000000  0.26961800  1
  B  B6  1  0.39281700  0.39281700  0.96594300  1
  B  B7  1  0.96594300  0.39281700  0.39281700  1
  B  B8  1  0.39281700  0.96594300  0.39281700  1
  B  B9  1  0.60718300  0.60718300  0.03405700  1
  B  B10  1  0.03405700  0.60718300  0.60718300  1
  B  B11  1  0.60718300  0.03405700  0.60718300  1
  Pb  Pb0  1  0.58458300  0.20244800  0.20244800  1
  Pb  Pb1  1  0.20244800  0.58458300  0.20244800  1
  Pb  Pb2  1  0.20244800  0.20244800  0.58458300  1
  Pb  Pb3  1  0.41541700  0.79755200  0.79755200  1
  Pb  Pb4  1  0.79755200  0.41541700  0.79755200  1
  Pb  Pb5  1  0.79755200  0.79755200  0.41541700  1
  O  O0  1  0.28824000  0.49914400  0.89358100  1
  O  O1  1  0.89358100  0.28824000  0.49914400  1
  O  O2  1  0.49914400  0.89358100  0.28824000  1
  O  O3  1  0.89358100  0.49914400  0.28824000  1
  O  O4  1  0.28824000  0.89358100  0.49914400  1
  O  O5  1  0.49914400  0.28824000  0.89358100  1
  O  O6  1  0.71176000  0.50085600  0.10641900  1
  O  O7  1  0.10641900  0.71176000  0.50085600  1
  O  O8  1  0.50085600  0.10641900  0.71176000  1
  O  O9  1  0.10641900  0.50085600  0.71176000  1
  O  O10  1  0.71176000  0.10641900  0.50085600  1
  O  O11  1  0.50085600  0.71176000  0.10641900  1
  O  O12  1  0.31940400  0.64611000  0.64611000  1
  O  O13  1  0.64611000  0.31940400  0.64611000  1
  O  O14  1  0.64611000  0.64611000  0.31940400  1
  O  O15  1  0.68059600  0.35389000  0.35389000  1
  O  O16  1  0.35389000  0.68059600  0.35389000  1
  O  O17  1  0.35389000  0.35389000  0.68059600  1
  O  O18  1  0.39181600  0.39181600  0.12161800  1
  O  O19  1  0.12161800  0.39181600  0.39181600  1
  O  O20  1  0.39181600  0.12161800  0.39181600  1
  O  O21  1  0.60818400  0.60818400  0.87838200  1
  O  O22  1  0.87838200  0.60818400  0.60818400  1
  O  O23  1  0.60818400  0.87838200  0.60818400  1
  O  O24  1  0.50000000  0.50000000  0.50000000  1
loop_
_geom_bond_atom_site_label_1
_geom_bond_atom_site_label_2
_geom_bond_distance
_geom_bond_site_symmetry_2
B0 O2 1.485080 1_555
B0 O11 1.485080 1_555
B0 O14 1.495045 1_555
B0 O16 1.495045 1_555
B1 O9 1.485080 1_555
B1 O0 1.485080 1_555
B1 O17 1.495045 1_555
B1 O12 1.495045 1_555
B2 O10 1.485080 1_555
B2 O1 1.485080 1_555
B2 O13 1.495045 1_555
B2 O15 1.495045 1_555
B3 O7 1.485080 1_555
B3 O4 1.485080 1_555
B3 O12 1.495045 1_555
B3 O16 1.495045 1_555
B4 O8 1.485080 1_555
B4 O5 1.485080 1_555
B4 O17 1.495045 1_555
B4 O13 1.495045 1_555
B5 O3 1.485080 1_555
B5 O6 1.485080 1_555
B5 O14 1.495045 1_555
B5 O15 1.495045 1_555
B6 O18 1.383237 1_556
B6 O5 1.383738 1_555
B6 O0 1.383738 1_555
B7 O19 1.383236 1_655
B7 O3 1.383739 1_555
B7 O1 1.383739 1_555
B8 O20 1.383236 1_565
B8 O2 1.383739 1_555
B8 O4 1.383739 1_555
B9 O21 1.383237 1_554
B9 O11 1.383738 1_555
B9 O6 1.383738 1_555
B10 O22 1.383236 1_455
B10 O9 1.383739 1_555
B10 O7 1.383739 1_555
B11 O23 1.383236 1_545
B11 O8 1.383739 1_555
B11 O10 1.383739 1_555
O12 Pb3 2.362310 1_555
O13 Pb4 2.362310 1_555
O14 Pb5 2.362310 1_555
O15 Pb0 2.362310 1_555
O16 Pb1 2.362310 1_555
O17 Pb2 2.362310 1_555
O18 Pb1 2.336167 1_555
O18 Pb0 2.336167 1_555
O19 Pb2 2.336167 1_555
O19 Pb1 2.336167 1_555
O20 Pb2 2.336167 1_555
O20 Pb0 2.336167 1_555
O21 Pb4 2.336167 1_555
O21 Pb3 2.336167 1_555
O22 Pb5 2.336167 1_555
O22 Pb4 2.336167 1_555
O23 Pb5 2.336167 1_555
O23 Pb3 2.336167 1_555
