# generated using pymatgen
data_ScGa
_symmetry_space_group_name_H-M   'P 1'
_cell_length_a   3.85785800
_cell_length_b   4.06584117
_cell_length_c   5.48163412
_cell_angle_alpha   111.74989523
_cell_angle_beta   90.00001045
_cell_angle_gamma   90.00000000
_symmetry_Int_Tables_number   1
_chemical_formula_structural   ScGa
_chemical_formula_sum   'Sc2 Ga2'
_cell_volume   79.86080479
_cell_formula_units_Z   2
loop_
 _symmetry_equiv_pos_site_id
 _symmetry_equiv_pos_as_xyz
  1  'x, y, z'
loop_
 _atom_site_type_symbol
 _atom_site_label
 _atom_site_symmetry_multiplicity
 _atom_site_fract_x
 _atom_site_fract_y
 _atom_site_fract_z
 _atom_site_occupancy
  Sc  Sc0  1  0.25000000  0.86261157  0.72504935  1
  Sc  Sc1  1  0.75000000  0.13738843  0.27495065  1
  Ga  Ga0  1  0.25000000  0.58028201  0.16177625  1
  Ga  Ga1  1  0.75000000  0.41971799  0.83822375  1
loop_
_geom_bond_atom_site_label_1
_geom_bond_atom_site_label_2
_geom_bond_distance
_geom_bond_site_symmetry_2
Ga0 Ga1 2.536631 1_454
Ga0 Ga1 2.536631 1_554
Ga0 Sc1 2.859408 1_555
Ga0 Sc1 2.859408 1_455
Ga0 Sc1 2.862676 1_565
Ga0 Sc1 2.862676 1_465
Ga0 Sc0 2.867850 1_555
Ga0 Sc0 3.011388 1_544
Ga0 Sc0 3.014206 1_554
Ga1 Sc0 2.859408 1_555
Ga1 Sc0 2.859408 1_655
Ga1 Sc0 2.862676 1_545
Ga1 Sc0 2.862676 1_645
Ga1 Sc1 2.867850 1_555
Ga1 Sc1 3.011388 1_566
Ga1 Sc1 3.014206 1_556
