# generated using pymatgen
data_CsMoP2O7
_symmetry_space_group_name_H-M   'P 1'
_cell_length_a   10.61114100
_cell_length_b   7.87831000
_cell_length_c   8.67588366
_cell_angle_alpha   74.91777564
_cell_angle_beta   90.00000000
_cell_angle_gamma   90.00000000
_symmetry_Int_Tables_number   1
_chemical_formula_structural   CsMoP2O7
_chemical_formula_sum   'Cs4 Mo4 P8 O28'
_cell_volume   700.30168291
_cell_formula_units_Z   4
loop_
 _symmetry_equiv_pos_site_id
 _symmetry_equiv_pos_as_xyz
  1  'x, y, z'
loop_
 _atom_site_type_symbol
 _atom_site_label
 _atom_site_symmetry_multiplicity
 _atom_site_fract_x
 _atom_site_fract_y
 _atom_site_fract_z
 _atom_site_occupancy
  Cs  Cs0  1  0.69166400  0.80335100  0.55126500  1
  Cs  Cs1  1  0.19166400  0.19664900  0.94873500  1
  Cs  Cs2  1  0.30833600  0.19664900  0.44873500  1
  Cs  Cs3  1  0.80833600  0.80335100  0.05126500  1
  Mo  Mo0  1  0.10154200  0.76088800  0.75686800  1
  Mo  Mo1  1  0.60154200  0.23911200  0.74313200  1
  Mo  Mo2  1  0.89845800  0.23911200  0.24313200  1
  Mo  Mo3  1  0.39845800  0.76088800  0.25686800  1
  P  P0  1  0.12883200  0.57407800  0.18622800  1
  P  P1  1  0.62883200  0.42592200  0.31377200  1
  P  P2  1  0.87116800  0.42592200  0.81377200  1
  P  P3  1  0.37116800  0.57407800  0.68622800  1
  P  P4  1  0.40119800  0.87337200  0.82670000  1
  P  P5  1  0.90119800  0.12662800  0.67330000  1
  P  P6  1  0.59880200  0.12662800  0.17330000  1
  P  P7  1  0.09880200  0.87337200  0.32670000  1
  O  O0  1  0.05830700  0.68456500  0.29751900  1
  O  O1  1  0.55830700  0.31543500  0.20248100  1
  O  O2  1  0.94169300  0.31543500  0.70248100  1
  O  O3  1  0.44169300  0.68456500  0.79751900  1
  O  O4  1  0.99367300  0.99169500  0.77219800  1
  O  O5  1  0.49367300  0.00830500  0.72780200  1
  O  O6  1  0.00632700  0.00830500  0.22780200  1
  O  O7  1  0.50632700  0.99169500  0.27219800  1
  O  O8  1  0.23088800  0.55934400  0.73238200  1
  O  O9  1  0.73088800  0.44065600  0.76761800  1
  O  O10  1  0.76911200  0.44065600  0.26761800  1
  O  O11  1  0.26911200  0.55934400  0.23238200  1
  O  O12  1  0.09009300  0.85446800  0.50393400  1
  O  O13  1  0.59009300  0.14553200  0.99606600  1
  O  O14  1  0.90990700  0.14553200  0.49606600  1
  O  O15  1  0.40990700  0.85446800  0.00393400  1
  O  O16  1  0.23278500  0.91678100  0.25913100  1
  O  O17  1  0.73278500  0.08321900  0.24086900  1
  O  O18  1  0.76721500  0.08321900  0.74086900  1
  O  O19  1  0.26721500  0.91678100  0.75913100  1
  O  O20  1  0.39770400  0.67541800  0.51465000  1
  O  O21  1  0.89770400  0.32458200  0.98535000  1
  O  O22  1  0.60229600  0.32458200  0.48535000  1
  O  O23  1  0.10229600  0.67541800  0.01465000  1
  O  O24  1  0.57024500  0.60928400  0.26371800  1
  O  O25  1  0.07024500  0.39071600  0.23628200  1
  O  O26  1  0.42975500  0.39071600  0.73628200  1
  O  O27  1  0.92975500  0.60928400  0.76371800  1
loop_
_geom_bond_atom_site_label_1
_geom_bond_atom_site_label_2
_geom_bond_distance
_geom_bond_site_symmetry_2
Cs0 O9 3.011676 1_555
Cs0 O17 3.035445 1_565
Cs0 O7 3.172032 1_555
Cs0 O18 3.177690 1_565
Cs0 O27 3.263625 1_555
Cs0 O5 3.264033 1_565
Cs0 O20 3.318602 1_555
Cs0 O3 3.381632 1_555
Cs0 O14 3.491107 1_565
Cs0 O24 3.493733 1_555
Cs1 O8 3.011676 1_555
Cs1 O16 3.035445 1_546
Cs1 O6 3.172032 1_556
Cs1 O19 3.177690 1_545
Cs1 O26 3.263625 1_555
Cs1 O4 3.264033 1_445
Cs1 O21 3.318602 1_455
Cs1 O2 3.381632 1_455
Cs1 O15 3.491107 1_546
Cs1 O25 3.493733 1_556
Cs2 O11 3.011676 1_555
Cs2 O19 3.035445 1_545
Cs2 O5 3.172032 1_555
Cs2 O16 3.177690 1_545
Cs2 O25 3.263625 1_555
Cs2 O7 3.264033 1_545
Cs2 O22 3.318602 1_555
Cs2 O1 3.381632 1_555
Cs2 O12 3.491107 1_545
Cs2 O26 3.493733 1_555
Cs3 O10 3.011676 1_555
Cs3 O18 3.035445 1_564
Cs3 O4 3.172032 1_554
Cs3 O17 3.177690 1_565
Cs3 O24 3.263625 1_555
Cs3 O6 3.264033 1_665
Cs3 O23 3.318602 1_655
Cs3 O0 3.381632 1_655
Cs3 O13 3.491107 1_564
Cs3 O27 3.493733 1_554
Mo0 O12 2.128817 1_555
Mo0 O19 2.147519 1_555
Mo0 O8 2.150731 1_555
Mo0 O23 2.161396 1_556
Mo0 O27 2.171623 1_455
Mo0 O4 2.181778 1_455
Mo1 O13 2.128817 1_555
Mo1 O18 2.147519 1_555
Mo1 O9 2.150731 1_555
Mo1 O22 2.161396 1_555
Mo1 O26 2.171623 1_555
Mo1 O5 2.181778 1_555
Mo2 O14 2.128817 1_555
Mo2 O17 2.147519 1_555
Mo2 O10 2.150731 1_555
Mo2 O21 2.161396 1_554
Mo2 O25 2.171623 1_655
Mo2 O6 2.181778 1_655
Mo3 O15 2.128817 1_555
Mo3 O16 2.147519 1_555
Mo3 O11 2.150731 1_555
Mo3 O20 2.161396 1_555
Mo3 O24 2.171623 1_555
Mo3 O7 2.181778 1_555
O0 P7 1.630127 1_555
O0 P0 1.639323 1_555
O1 P6 1.630127 1_555
O1 P1 1.639323 1_555
O2 P5 1.630127 1_555
O2 P2 1.639323 1_555
O3 P4 1.630127 1_555
O3 P3 1.639323 1_555
O4 P5 1.534431 1_565
O5 P4 1.534431 1_545
O6 P7 1.534431 1_545
O7 P6 1.534431 1_565
O8 P3 1.537970 1_555
O9 P2 1.537970 1_555
O10 P1 1.537970 1_555
O11 P0 1.537970 1_555
O12 P7 1.508624 1_555
O13 P6 1.508624 1_556
O14 P5 1.508624 1_555
O15 P4 1.508624 1_554
O16 P7 1.541929 1_555
O17 P6 1.541929 1_555
O18 P5 1.541929 1_555
O19 P4 1.541929 1_555
O20 P3 1.521223 1_555
O21 P2 1.521223 1_555
O22 P1 1.521223 1_555
O23 P0 1.521223 1_555
O24 P1 1.528206 1_555
O25 P0 1.528206 1_555
O26 P3 1.528206 1_555
O27 P2 1.528206 1_555
