# generated using pymatgen
data_MnAl2Ni
_symmetry_space_group_name_H-M   'P 1'
_cell_length_a   2.80720099
_cell_length_b   2.80720099
_cell_length_c   6.44466564
_cell_angle_alpha   90.00000000
_cell_angle_beta   90.00000000
_cell_angle_gamma   90.00000000
_symmetry_Int_Tables_number   1
_chemical_formula_structural   MnAl2Ni
_chemical_formula_sum   'Mn1 Al2 Ni1'
_cell_volume   50.78639745
_cell_formula_units_Z   1
loop_
 _symmetry_equiv_pos_site_id
 _symmetry_equiv_pos_as_xyz
  1  'x, y, z'
loop_
 _atom_site_type_symbol
 _atom_site_label
 _atom_site_symmetry_multiplicity
 _atom_site_fract_x
 _atom_site_fract_y
 _atom_site_fract_z
 _atom_site_occupancy
  Mn  Mn0  1  0.50000000  0.50000000  0.00000000  1
  Al  Al0  1  -0.00000000  0.00000000  0.72921335  1
  Al  Al1  1  0.00000000  0.00000000  0.27078665  1
  Ni  Ni0  1  0.50000000  0.50000000  0.50000000  1
loop_
_geom_bond_atom_site_label_1
_geom_bond_atom_site_label_2
_geom_bond_distance
_geom_bond_site_symmetry_2
Al0 Ni0 2.474332 1_455
Al0 Ni0 2.474332 1_545
Al0 Ni0 2.474332 1_555
Al0 Ni0 2.474332 1_445
Al0 Mn0 2.643041 1_446
Al0 Mn0 2.643041 1_556
Al0 Mn0 2.643041 1_456
Al0 Mn0 2.643041 1_546
Al1 Ni0 2.474332 1_455
Al1 Ni0 2.474332 1_545
Al1 Ni0 2.474332 1_555
Al1 Ni0 2.474332 1_445
Al1 Mn0 2.643041 1_555
Al1 Mn0 2.643041 1_455
Al1 Mn0 2.643041 1_445
Al1 Mn0 2.643041 1_545
