# generated using pymatgen
data_Er2NiAs2
_symmetry_space_group_name_H-M   'P 1'
_cell_length_a   4.05307868
_cell_length_b   4.05307868
_cell_length_c   14.03118336
_cell_angle_alpha   90.00000000
_cell_angle_beta   90.00000000
_cell_angle_gamma   119.99999582
_symmetry_Int_Tables_number   1
_chemical_formula_structural   Er2NiAs2
_chemical_formula_sum   'Er4 Ni2 As4'
_cell_volume   199.61584887
_cell_formula_units_Z   2
loop_
 _symmetry_equiv_pos_site_id
 _symmetry_equiv_pos_as_xyz
  1  'x, y, z'
loop_
 _atom_site_type_symbol
 _atom_site_label
 _atom_site_symmetry_multiplicity
 _atom_site_fract_x
 _atom_site_fract_y
 _atom_site_fract_z
 _atom_site_occupancy
  Er  Er0  1  0.33333300  0.66666700  0.38240556  1
  Er  Er1  1  0.66666700  0.33333300  0.61759444  1
  Er  Er2  1  0.66666700  0.33333300  0.88240556  1
  Er  Er3  1  0.33333300  0.66666700  0.11759444  1
  Ni  Ni0  1  0.00000000  0.00000000  0.25000000  1
  Ni  Ni1  1  -0.00000000  -0.00000000  0.75000000  1
  As  As0  1  0.00000000  0.00000000  0.50000000  1
  As  As1  1  0.00000000  0.00000000  0.00000000  1
  As  As2  1  0.33333300  0.66666700  0.75000000  1
  As  As3  1  0.66666700  0.33333300  0.25000000  1
loop_
_geom_bond_atom_site_label_1
_geom_bond_atom_site_label_2
_geom_bond_distance
_geom_bond_site_symmetry_2
Er0 Ni0 2.987850 1_565
Er0 Ni0 2.987853 1_555
Er0 Ni0 2.987853 1_665
Er1 Ni1 2.987850 1_655
Er1 Ni1 2.987853 1_555
Er1 Ni1 2.987853 1_665
Er2 Ni1 2.987850 1_655
Er2 Ni1 2.987853 1_555
Er2 Ni1 2.987853 1_665
Er3 Ni0 2.987850 1_565
Er3 Ni0 2.987853 1_555
Er3 Ni0 2.987853 1_665
As0 Er1 2.863262 1_455
As0 Er0 2.863262 1_545
As0 Er0 2.863265 1_445
As0 Er1 2.863265 1_555
As0 Er0 2.863265 1_555
As0 Er1 2.863265 1_445
As1 Er3 2.863262 1_545
As1 Er2 2.863262 1_454
As1 Er2 2.863265 1_444
As1 Er3 2.863265 1_445
As1 Er3 2.863265 1_555
As1 Er2 2.863265 1_554
As2 Ni1 2.340044 1_565
As2 Ni1 2.340047 1_555
As2 Ni1 2.340047 1_665
As2 Er2 2.987851 1_455
As2 Er1 2.987851 1_455
As2 Er2 2.987851 1_565
As2 Er1 2.987851 1_565
As2 Er2 2.987856 1_555
As2 Er1 2.987856 1_555
As3 Ni0 2.340044 1_655
As3 Ni0 2.340047 1_555
As3 Ni0 2.340047 1_665
As3 Er3 2.987851 1_655
As3 Er3 2.987851 1_545
As3 Er0 2.987851 1_655
As3 Er0 2.987851 1_545
As3 Er3 2.987856 1_555
As3 Er0 2.987856 1_555
