# generated using pymatgen
data_SrLaAlCuO5
_symmetry_space_group_name_H-M   'P 1'
_cell_length_a   5.47864500
_cell_length_b   8.07208700
_cell_length_c   11.07007500
_cell_angle_alpha   90.00000000
_cell_angle_beta   90.00000000
_cell_angle_gamma   90.00000000
_symmetry_Int_Tables_number   1
_chemical_formula_structural   SrLaAlCuO5
_chemical_formula_sum   'Sr4 La4 Al4 Cu4 O20'
_cell_volume   489.56409365
_cell_formula_units_Z   4
loop_
 _symmetry_equiv_pos_site_id
 _symmetry_equiv_pos_as_xyz
  1  'x, y, z'
loop_
 _atom_site_type_symbol
 _atom_site_label
 _atom_site_symmetry_multiplicity
 _atom_site_fract_x
 _atom_site_fract_y
 _atom_site_fract_z
 _atom_site_occupancy
  Sr  Sr0  1  0.25000000  0.25843200  0.40012800  1
  Sr  Sr1  1  0.75000000  0.74156800  0.59987200  1
  Sr  Sr2  1  0.25000000  0.74156800  0.90012800  1
  Sr  Sr3  1  0.75000000  0.25843200  0.09987200  1
  La  La0  1  0.25000000  0.81016200  0.36815200  1
  La  La1  1  0.75000000  0.18983800  0.63184800  1
  La  La2  1  0.25000000  0.18983800  0.86815200  1
  La  La3  1  0.75000000  0.81016200  0.13184800  1
  Al  Al0  1  0.25000000  0.49757100  0.15729600  1
  Al  Al1  1  0.75000000  0.50242900  0.84270400  1
  Al  Al2  1  0.25000000  0.50242900  0.65729600  1
  Al  Al3  1  0.75000000  0.49757100  0.34270400  1
  Cu  Cu0  1  0.25000000  0.02353600  0.12674800  1
  Cu  Cu1  1  0.75000000  0.97646400  0.87325200  1
  Cu  Cu2  1  0.25000000  0.97646400  0.62674800  1
  Cu  Cu3  1  0.75000000  0.02353600  0.37325200  1
  O  O0  1  0.25000000  0.28347200  0.64221300  1
  O  O1  1  0.75000000  0.71652800  0.35778700  1
  O  O2  1  0.25000000  0.71652800  0.14221300  1
  O  O3  1  0.75000000  0.28347200  0.85778700  1
  O  O4  1  0.00000000  0.03200200  0.25000000  1
  O  O5  1  0.00000000  0.96799800  0.75000000  1
  O  O6  1  0.50000000  0.96799800  0.75000000  1
  O  O7  1  0.50000000  0.03200200  0.25000000  1
  O  O8  1  0.00000000  0.44019900  0.25000000  1
  O  O9  1  0.00000000  0.55980100  0.75000000  1
  O  O10  1  0.50000000  0.55980100  0.75000000  1
  O  O11  1  0.50000000  0.44019900  0.25000000  1
  O  O12  1  0.00000000  0.00000000  0.00000000  1
  O  O13  1  0.50000000  0.00000000  0.00000000  1
  O  O14  1  0.50000000  0.00000000  0.50000000  1
  O  O15  1  0.00000000  0.00000000  0.50000000  1
  O  O16  1  0.25000000  0.37464300  0.02666000  1
  O  O17  1  0.75000000  0.62535700  0.97334000  1
  O  O18  1  0.25000000  0.62535700  0.52666000  1
  O  O19  1  0.75000000  0.37464300  0.47334000  1
loop_
_geom_bond_atom_site_label_1
_geom_bond_atom_site_label_2
_geom_bond_distance
_geom_bond_site_symmetry_2
La0 O18 2.303109 1_555
La0 O14 2.520818 1_565
La0 O15 2.520818 1_565
La0 O7 2.606407 1_565
La0 O4 2.606407 1_565
La0 O2 2.612867 1_555
La0 O1 2.843997 1_455
La0 O1 2.843997 1_555
La1 O19 2.303109 1_555
La1 O15 2.520818 1_655
La1 O14 2.520818 1_555
La1 O5 2.606407 1_645
La1 O6 2.606407 1_545
La1 O3 2.612867 1_555
La1 O0 2.843997 1_555
La1 O0 2.843997 1_655
La2 O16 2.303109 1_556
La2 O12 2.520818 1_556
La2 O13 2.520818 1_556
La2 O6 2.606407 1_545
La2 O5 2.606407 1_545
La2 O0 2.612867 1_555
La2 O3 2.843997 1_555
La2 O3 2.843997 1_455
La3 O17 2.303109 1_554
La3 O13 2.520818 1_565
La3 O12 2.520818 1_665
La3 O4 2.606407 1_665
La3 O7 2.606407 1_565
La3 O1 2.612867 1_555
La3 O2 2.843997 1_555
La3 O2 2.843997 1_655
Al0 O16 1.753848 1_555
Al0 O8 1.773024 1_555
Al0 O11 1.773024 1_555
Al0 O2 1.775309 1_555
Al1 O17 1.753848 1_555
Al1 O9 1.773024 1_655
Al1 O10 1.773024 1_555
Al1 O3 1.775309 1_555
Al2 O18 1.753848 1_555
Al2 O9 1.773024 1_555
Al2 O10 1.773024 1_555
Al2 O0 1.775309 1_555
Al3 O19 1.753848 1_555
Al3 O11 1.773024 1_555
Al3 O8 1.773024 1_655
Al3 O1 1.775309 1_555
Cu0 O4 1.934491 1_555
Cu0 O7 1.934491 1_555
Cu0 O12 1.969970 1_555
Cu0 O13 1.969970 1_555
Cu0 O2 2.484102 1_545
Cu1 O5 1.934491 1_655
Cu1 O6 1.934491 1_555
Cu1 O13 1.969970 1_566
Cu1 O12 1.969970 1_666
Cu1 O3 2.484102 1_565
Cu2 O5 1.934491 1_555
Cu2 O6 1.934491 1_555
Cu2 O14 1.969970 1_565
Cu2 O15 1.969970 1_565
Cu2 O0 2.484102 1_565
Cu3 O4 1.934491 1_655
Cu3 O7 1.934491 1_555
Cu3 O14 1.969970 1_555
Cu3 O15 1.969970 1_655
Cu3 O1 2.484102 1_545
O0 Sr0 2.687511 1_555
O1 Sr1 2.687511 1_555
O2 Sr2 2.687511 1_554
O3 Sr3 2.687511 1_556
O4 Sr3 2.824658 1_455
O4 Sr0 2.824658 1_555
O5 Sr2 2.824658 1_555
O5 Sr1 2.824658 1_455
O6 Sr2 2.824658 1_555
O6 Sr1 2.824658 1_555
O7 Sr0 2.824658 1_555
O7 Sr3 2.824658 1_555
O8 Sr3 2.605910 1_455
O8 Sr0 2.605910 1_555
O9 Sr2 2.605910 1_555
O9 Sr1 2.605910 1_455
O10 Sr2 2.605910 1_555
O10 Sr1 2.605910 1_555
O11 Sr3 2.605910 1_555
O11 Sr0 2.605910 1_555
O12 Sr2 2.729479 1_544
O12 Sr3 2.729479 1_455
O13 Sr2 2.729479 1_544
O13 Sr3 2.729479 1_555
O14 Sr1 2.729479 1_545
O14 Sr0 2.729479 1_555
O15 Sr1 2.729479 1_445
O15 Sr0 2.729479 1_555
O16 Sr3 3.006776 1_455
O16 Sr3 3.006776 1_555
O16 Sr2 3.276366 1_554
O17 Sr2 3.006776 1_555
O17 Sr2 3.006776 1_655
O17 Sr3 3.276366 1_556
O18 Sr1 3.006776 1_555
O18 Sr1 3.006776 1_455
O18 Sr0 3.276366 1_555
O19 Sr0 3.006776 1_655
O19 Sr0 3.006776 1_555
O19 Sr1 3.276366 1_555
