# generated using pymatgen
data_NaFe(SO)2
_symmetry_space_group_name_H-M   'P 1'
_cell_length_a   6.70406548
_cell_length_b   6.70406548
_cell_length_c   6.55614121
_cell_angle_alpha   64.04951651
_cell_angle_beta   64.04951651
_cell_angle_gamma   79.38688713
_symmetry_Int_Tables_number   1
_chemical_formula_structural   NaFe(SO)2
_chemical_formula_sum   'Na2 Fe2 S4 O4'
_cell_volume   238.22817506
_cell_formula_units_Z   2
loop_
 _symmetry_equiv_pos_site_id
 _symmetry_equiv_pos_as_xyz
  1  'x, y, z'
loop_
 _atom_site_type_symbol
 _atom_site_label
 _atom_site_symmetry_multiplicity
 _atom_site_fract_x
 _atom_site_fract_y
 _atom_site_fract_z
 _atom_site_occupancy
  Na  Na0  1  0.57117300  0.42882700  0.75000000  1
  Na  Na1  1  0.42882700  0.57117300  0.25000000  1
  Fe  Fe0  1  0.01132200  0.98867800  0.75000000  1
  Fe  Fe1  1  0.98867800  0.01132200  0.25000000  1
  S  S0  1  0.27555800  0.04124400  0.35209800  1
  S  S1  1  0.95875600  0.72444200  0.14790200  1
  S  S2  1  0.72444200  0.95875600  0.64790200  1
  S  S3  1  0.04124400  0.27555800  0.85209800  1
  O  O0  1  0.74521000  0.57517200  0.31300800  1
  O  O1  1  0.42482800  0.25479000  0.18699200  1
  O  O2  1  0.25479000  0.42482800  0.68699200  1
  O  O3  1  0.57517200  0.74521000  0.81300800  1
loop_
_geom_bond_atom_site_label_1
_geom_bond_atom_site_label_2
_geom_bond_distance
_geom_bond_site_symmetry_2
Na0 O3 2.338309 1_555
Na0 O2 2.338309 1_555
Na0 O0 2.359686 1_555
Na0 O1 2.359686 1_556
Na1 O1 2.338309 1_555
Na1 O0 2.338309 1_555
Na1 O3 2.359686 1_554
Na1 O2 2.359686 1_555
Fe0 S0 2.334207 1_565
Fe0 S1 2.334207 1_456
Fe0 S2 2.360837 1_455
Fe0 S3 2.360837 1_565
Fe1 S2 2.334207 1_545
Fe1 S3 2.334207 1_654
Fe1 S1 2.360837 1_545
Fe1 S0 2.360837 1_655
O0 S1 1.564011 1_555
O1 S0 1.564011 1_555
O2 S3 1.564011 1_555
O3 S2 1.564011 1_555
