# generated using pymatgen
data_Th(SiIr)2
_symmetry_space_group_name_H-M   'P 1'
_cell_length_a   4.18724633
_cell_length_b   4.18724633
_cell_length_c   9.91268329
_cell_angle_alpha   90.00000000
_cell_angle_beta   90.00000000
_cell_angle_gamma   90.00000000
_symmetry_Int_Tables_number   1
_chemical_formula_structural   Th(SiIr)2
_chemical_formula_sum   'Th2 Si4 Ir4'
_cell_volume   173.79939163
_cell_formula_units_Z   2
loop_
 _symmetry_equiv_pos_site_id
 _symmetry_equiv_pos_as_xyz
  1  'x, y, z'
loop_
 _atom_site_type_symbol
 _atom_site_label
 _atom_site_symmetry_multiplicity
 _atom_site_fract_x
 _atom_site_fract_y
 _atom_site_fract_z
 _atom_site_occupancy
  Th  Th0  1  -0.00000000  0.50000000  0.25847546  1
  Th  Th1  1  0.50000000  -0.00000000  0.74152454  1
  Si  Si0  1  -0.00000000  -0.00000000  0.50000000  1
  Si  Si1  1  0.50000000  0.50000000  0.50000000  1
  Si  Si2  1  -0.00000000  0.50000000  0.87032389  1
  Si  Si3  1  0.50000000  -0.00000000  0.12967611  1
  Ir  Ir0  1  0.00000000  0.00000000  0.00000000  1
  Ir  Ir1  1  0.50000000  0.50000000  0.00000000  1
  Ir  Ir2  1  0.00000000  0.50000000  0.62656041  1
  Ir  Ir3  1  0.50000000  -0.00000000  0.37343959  1
loop_
_geom_bond_atom_site_label_1
_geom_bond_atom_site_label_2
_geom_bond_distance
_geom_bond_site_symmetry_2
Si0 Th1 3.180447 1_555
Si0 Th1 3.180447 1_455
Si0 Th0 3.180447 1_555
Si0 Th0 3.180447 1_545
Si1 Th0 3.180447 1_655
Si1 Th1 3.180447 1_555
Si1 Th0 3.180447 1_555
Si1 Th1 3.180447 1_565
Si2 Th1 3.224376 1_555
Si2 Th1 3.224376 1_465
Si2 Th1 3.224376 1_455
Si2 Th1 3.224376 1_565
Si3 Th0 3.224376 1_655
Si3 Th0 3.224376 1_545
Si3 Th0 3.224376 1_645
Si3 Th0 3.224376 1_555
Ir0 Si2 2.456748 1_544
Ir0 Si3 2.456748 1_455
Ir0 Si3 2.456748 1_555
Ir0 Si2 2.456748 1_554
Ir0 Th0 3.308784 1_545
Ir0 Th1 3.308784 1_554
Ir0 Th0 3.308784 1_555
Ir0 Th1 3.308784 1_454
Ir1 Si3 2.456748 1_565
Ir1 Si2 2.456748 1_654
Ir1 Si3 2.456748 1_555
Ir1 Si2 2.456748 1_554
Ir1 Th1 3.308784 1_554
Ir1 Th0 3.308784 1_655
Ir1 Th1 3.308784 1_564
Ir1 Th0 3.308784 1_555
Ir2 Si2 2.416350 1_555
Ir2 Si0 2.440730 1_565
Ir2 Si0 2.440730 1_555
Ir2 Si1 2.440730 1_555
Ir2 Si1 2.440730 1_455
Ir2 Th1 3.172572 1_555
Ir2 Th1 3.172572 1_465
Ir2 Th1 3.172572 1_455
Ir2 Th1 3.172572 1_565
Ir3 Si3 2.416350 1_555
Ir3 Si0 2.440730 1_555
Ir3 Si1 2.440730 1_555
Ir3 Si0 2.440730 1_655
Ir3 Si1 2.440730 1_545
Ir3 Th0 3.172572 1_555
Ir3 Th0 3.172572 1_545
Ir3 Th0 3.172572 1_655
Ir3 Th0 3.172572 1_645
