# generated using pymatgen
data_TiBe3
_symmetry_space_group_name_H-M   'P 1'
_cell_length_a   4.48669091
_cell_length_b   4.48669091
_cell_length_c   7.51919734
_cell_angle_alpha   72.64152732
_cell_angle_beta   72.64152732
_cell_angle_gamma   59.99998921
_symmetry_Int_Tables_number   1
_chemical_formula_structural   TiBe3
_chemical_formula_sum   'Ti3 Be9'
_cell_volume   123.06100886
_cell_formula_units_Z   3
loop_
 _symmetry_equiv_pos_site_id
 _symmetry_equiv_pos_as_xyz
  1  'x, y, z'
loop_
 _atom_site_type_symbol
 _atom_site_label
 _atom_site_symmetry_multiplicity
 _atom_site_fract_x
 _atom_site_fract_y
 _atom_site_fract_z
 _atom_site_occupancy
  Ti  Ti0  1  0.14227604  0.14227604  0.57317187  1
  Ti  Ti1  1  0.85772396  0.85772396  0.42682813  1
  Ti  Ti2  1  0.00000000  -0.00000000  -0.00000000  1
  Be  Be0  1  0.07929407  0.58208472  0.75653650  1
  Be  Be1  1  0.58208472  0.58208472  0.75653650  1
  Be  Be2  1  0.58208472  0.07929407  0.75653650  1
  Be  Be3  1  0.92070593  0.41791528  0.24346350  1
  Be  Be4  1  0.41791528  0.41791528  0.24346350  1
  Be  Be5  1  0.41791528  0.92070593  0.24346350  1
  Be  Be6  1  0.33376545  0.33376545  0.99870565  1
  Be  Be7  1  0.66623455  0.66623455  0.00129435  1
  Be  Be8  1  0.50000000  0.50000000  0.50000000  1
loop_
_geom_bond_atom_site_label_1
_geom_bond_atom_site_label_2
_geom_bond_distance
_geom_bond_site_symmetry_2
Ti0 Ti1 2.788777 1_455
Ti0 Ti1 2.788777 1_545
Ti0 Ti1 2.788777 1_445
Ti0 Ti2 3.012941 1_556
Ti1 Ti2 3.012941 1_665
Be0 Be6 2.149078 1_555
Be0 Be7 2.154970 1_456
Be0 Be8 2.230595 1_555
Be0 Be2 2.230824 1_465
Be0 Be1 2.230825 1_455
Be0 Be2 2.255866 1_555
Be0 Be1 2.255866 1_555
Be0 Ti0 2.589981 1_565
Be0 Ti0 2.589981 1_555
Be0 Ti1 2.659993 1_455
Be0 Ti2 2.825985 1_566
Be0 Ti2 2.825985 1_556
Be1 Be6 2.149073 1_555
Be1 Be7 2.154965 1_556
Be1 Be8 2.230595 1_555
Be1 Be2 2.230825 1_565
Be1 Be2 2.255866 1_555
Be1 Ti0 2.589981 1_565
Be1 Ti0 2.589981 1_655
Be1 Ti1 2.659993 1_555
Be1 Ti2 2.825985 1_656
Be1 Ti2 2.825985 1_566
Be2 Be6 2.149078 1_555
Be2 Be7 2.154970 1_546
Be2 Be8 2.230595 1_555
Be2 Ti0 2.589981 1_655
Be2 Ti0 2.589981 1_555
Be2 Ti1 2.659993 1_545
Be2 Ti2 2.825985 1_656
Be2 Ti2 2.825985 1_556
Be3 Be7 2.149078 1_555
Be3 Be6 2.154970 1_654
Be3 Be8 2.230595 1_555
Be3 Be5 2.230824 1_645
Be3 Be4 2.230825 1_655
Be3 Be5 2.255866 1_555
Be3 Be4 2.255866 1_555
Be3 Ti1 2.589981 1_545
Be3 Ti1 2.589981 1_555
Be3 Ti0 2.659993 1_655
Be3 Ti2 2.825985 1_655
Be3 Ti2 2.825985 1_665
Be4 Be7 2.149073 1_555
Be4 Be6 2.154965 1_554
Be4 Be8 2.230595 1_555
Be4 Be5 2.230825 1_545
Be4 Be5 2.255866 1_555
Be4 Ti1 2.589981 1_545
Be4 Ti1 2.589981 1_455
Be4 Ti0 2.659993 1_555
Be4 Ti2 2.825985 1_565
Be4 Ti2 2.825985 1_655
Be5 Be7 2.149078 1_555
Be5 Be6 2.154970 1_564
Be5 Be8 2.230595 1_555
Be5 Ti1 2.589981 1_455
Be5 Ti1 2.589981 1_555
Be5 Ti0 2.659993 1_565
Be5 Ti2 2.825985 1_565
Be5 Ti2 2.825985 1_665
Be6 Ti2 2.590405 1_566
Be6 Ti2 2.590405 1_656
Be6 Ti2 2.590414 1_556
Be7 Ti2 2.590405 1_565
Be7 Ti2 2.590405 1_655
Be7 Ti2 2.590414 1_665
Be8 Ti1 2.641385 1_545
Be8 Ti0 2.641385 1_565
Be8 Ti0 2.641385 1_655
Be8 Ti1 2.641385 1_455
Be8 Ti1 2.641386 1_555
Be8 Ti0 2.641386 1_555
