# generated using pymatgen
data_LiTe4H4(O3F4)2
_symmetry_space_group_name_H-M   'P 1'
_cell_length_a   5.03149017
_cell_length_b   6.46161516
_cell_length_c   11.60356293
_cell_angle_alpha   92.63328823
_cell_angle_beta   78.91566929
_cell_angle_gamma   67.73448422
_symmetry_Int_Tables_number   1
_chemical_formula_structural   LiTe4H4(O3F4)2
_chemical_formula_sum   'Li1 Te4 H4 O6 F8'
_cell_volume   339.66518823
_cell_formula_units_Z   1
loop_
 _symmetry_equiv_pos_site_id
 _symmetry_equiv_pos_as_xyz
  1  'x, y, z'
loop_
 _atom_site_type_symbol
 _atom_site_label
 _atom_site_symmetry_multiplicity
 _atom_site_fract_x
 _atom_site_fract_y
 _atom_site_fract_z
 _atom_site_occupancy
  Li  Li0  1  0.62207800  0.31669300  0.15748000  1
  Te  Te0  1  0.80796000  0.26104400  0.87469200  1
  Te  Te1  1  0.90513200  0.76803100  0.11541400  1
  Te  Te2  1  0.41510100  0.77255100  0.61184800  1
  Te  Te3  1  0.71675100  0.28243200  0.41467100  1
  H  H0  1  0.22066000  0.29056200  0.72531300  1
  H  H1  1  0.10286800  0.70348300  0.29864600  1
  H  H2  1  0.69314600  0.78018700  0.76301700  1
  H  H3  1  0.13855900  0.18609000  0.23906500  1
  O  O0  1  0.71700400  0.56532900  0.47596900  1
  O  O1  1  0.91422100  0.14315300  0.00866400  1
  O  O2  1  0.61849600  0.66856500  0.73417600  1
  O  O3  1  0.92811200  0.29312300  0.25771400  1
  O  O4  1  0.19066500  0.16167000  0.76008700  1
  O  O5  1  0.95602800  0.83622300  0.27346800  1
  F  F0  1  0.38575900  0.47286300  0.33067800  1
  F  F1  1  0.33153900  0.48222700  0.63170500  1
  F  F2  1  0.51203500  0.05021800  0.18049600  1
  F  F3  1  0.85468800  0.94493700  0.80589600  1
  F  F4  1  0.10748100  0.13217200  0.45343600  1
  F  F5  1  0.66485000  0.94506100  0.57024000  1
  F  F6  1  0.33237400  0.53012100  0.08598800  1
  F  F7  1  0.91049800  0.52785000  0.92181200  1
loop_
_geom_bond_atom_site_label_1
_geom_bond_atom_site_label_2
_geom_bond_distance
_geom_bond_site_symmetry_2
Li0 O1 1.999232 1_555
Li0 O3 2.067393 1_555
H0 O4 0.990931 1_555
H1 O5 0.996340 1_455
H2 O2 1.002362 1_555
H3 O3 0.994752 1_455
O0 Te3 1.931330 1_555
O0 Te2 1.982429 1_555
O1 Te0 1.844595 1_554
O2 Te2 1.907535 1_555
O3 Te3 1.942991 1_555
O4 Te0 1.971943 1_455
O5 Te1 1.953225 1_555
F0 Te3 2.102112 1_555
F0 Li0 2.111072 1_555
F1 Te2 2.085489 1_555
F2 Li0 2.012594 1_555
F2 Te1 2.091220 1_545
F3 H2 1.674511 1_555
F3 Te0 2.068496 1_565
F4 Te3 1.985868 1_455
F5 Te2 1.983016 1_555
F6 Li0 1.939462 1_555
F6 Te1 2.065471 1_455
F7 Te0 2.057463 1_555
