# generated using pymatgen
data_LaPt5
_symmetry_space_group_name_H-M   'P 1'
_cell_length_a   5.42854568
_cell_length_b   5.42854539
_cell_length_c   4.39332866
_cell_angle_alpha   90.00000000
_cell_angle_beta   90.00000000
_cell_angle_gamma   120.00000796
_symmetry_Int_Tables_number   1
_chemical_formula_structural   LaPt5
_chemical_formula_sum   'La1 Pt5'
_cell_volume   112.12210971
_cell_formula_units_Z   1
loop_
 _symmetry_equiv_pos_site_id
 _symmetry_equiv_pos_as_xyz
  1  'x, y, z'
loop_
 _atom_site_type_symbol
 _atom_site_label
 _atom_site_symmetry_multiplicity
 _atom_site_fract_x
 _atom_site_fract_y
 _atom_site_fract_z
 _atom_site_occupancy
  La  La0  1  -0.00000000  -0.00000000  0.00000000  1
  Pt  Pt0  1  0.33333300  0.66666700  -0.00000000  1
  Pt  Pt1  1  0.66666700  0.33333300  0.00000000  1
  Pt  Pt2  1  0.50000000  -0.00000000  0.50000000  1
  Pt  Pt3  1  0.50000000  0.50000000  0.50000000  1
  Pt  Pt4  1  -0.00000000  0.50000000  0.50000000  1
loop_
_geom_bond_atom_site_label_1
_geom_bond_atom_site_label_2
_geom_bond_distance
_geom_bond_site_symmetry_2
La0 Pt0 3.134169 1_545
La0 Pt1 3.134169 1_455
La0 Pt1 3.134173 1_445
La0 Pt0 3.134173 1_555
La0 Pt0 3.134174 1_445
La0 Pt1 3.134174 1_555
La0 Pt3 3.491792 1_555
La0 Pt3 3.491792 1_554
La0 Pt3 3.491792 1_444
La0 Pt3 3.491792 1_445
La0 Pt4 3.491792 1_544
La0 Pt4 3.491792 1_545
La0 Pt4 3.491792 1_554
La0 Pt4 3.491792 1_555
La0 Pt2 3.491792 1_554
La0 Pt2 3.491792 1_454
La0 Pt2 3.491792 1_455
La0 Pt2 3.491792 1_555
Pt0 Pt2 2.698349 1_565
Pt0 Pt2 2.698349 1_564
Pt0 Pt4 2.698349 1_554
Pt0 Pt4 2.698349 1_555
Pt0 Pt3 2.698352 1_555
Pt0 Pt3 2.698352 1_554
Pt1 Pt2 2.698349 1_555
Pt1 Pt2 2.698349 1_554
Pt1 Pt4 2.698349 1_654
Pt1 Pt4 2.698349 1_655
Pt1 Pt3 2.698352 1_555
Pt1 Pt3 2.698352 1_554
Pt2 Pt4 2.714272 1_545
Pt2 Pt4 2.714272 1_655
Pt2 Pt3 2.714273 1_545
Pt2 Pt3 2.714273 1_555
Pt3 Pt4 2.714273 1_555
Pt3 Pt4 2.714273 1_655
