# generated using pymatgen
data_VAg3O4
_symmetry_space_group_name_H-M   'P 1'
_cell_length_a   5.00383297
_cell_length_b   5.59974170
_cell_length_c   9.56850294
_cell_angle_alpha   79.66955028
_cell_angle_beta   74.84244699
_cell_angle_gamma   63.46197887
_symmetry_Int_Tables_number   1
_chemical_formula_structural   VAg3O4
_chemical_formula_sum   'V2 Ag6 O8'
_cell_volume   230.91046595
_cell_formula_units_Z   2
loop_
 _symmetry_equiv_pos_site_id
 _symmetry_equiv_pos_as_xyz
  1  'x, y, z'
loop_
 _atom_site_type_symbol
 _atom_site_label
 _atom_site_symmetry_multiplicity
 _atom_site_fract_x
 _atom_site_fract_y
 _atom_site_fract_z
 _atom_site_occupancy
  V  V0  1  0.45505844  0.75000000  0.25000000  1
  V  V1  1  0.54494156  0.25000000  0.75000000  1
  Ag  Ag0  1  0.30650469  0.38346330  0.09505850  1
  Ag  Ag1  1  0.21497250  0.88346330  0.59505850  1
  Ag  Ag2  1  0.69349531  0.61653670  0.90494150  1
  Ag  Ag3  1  0.78502750  0.11653670  0.40494150  1
  Ag  Ag4  1  -0.00000000  -0.00000000  0.00000000  1
  Ag  Ag5  1  -0.00000000  0.50000000  0.50000000  1
  O  O0  1  0.86564088  0.96824731  0.79041244  1
  O  O1  1  0.62430062  0.53175269  0.70958756  1
  O  O2  1  0.13435912  0.03175269  0.20958756  1
  O  O3  1  0.37569938  0.46824731  0.29041244  1
  O  O4  1  0.75413086  0.70673139  0.10274418  1
  O  O5  1  0.24586914  0.29326861  0.89725582  1
  O  O6  1  0.56360644  0.79326861  0.39725582  1
  O  O7  1  0.43639356  0.20673139  0.60274418  1
loop_
_geom_bond_atom_site_label_1
_geom_bond_atom_site_label_2
_geom_bond_distance
_geom_bond_site_symmetry_2
Ag0 O3 2.154761 1_555
Ag0 O5 2.170128 1_554
Ag0 O2 2.463745 1_555
Ag0 O4 2.528319 1_455
Ag1 O0 2.154758 1_455
Ag1 O6 2.170131 1_555
Ag1 O1 2.463748 1_555
Ag1 O7 2.528323 1_565
Ag2 O1 2.154761 1_555
Ag2 O4 2.170128 1_556
Ag2 O0 2.463745 1_555
Ag2 O5 2.528319 1_655
Ag3 O2 2.154758 1_655
Ag3 O7 2.170131 1_555
Ag3 O3 2.463748 1_555
Ag3 O6 2.528323 1_545
Ag4 O0 2.333493 1_444
Ag4 O2 2.333493 1_555
Ag4 O5 2.402267 1_554
Ag4 O4 2.402267 1_445
Ag5 O3 2.333493 1_555
Ag5 O1 2.333493 1_455
Ag5 O6 2.402267 1_455
Ag5 O7 2.402267 1_555
O0 V1 1.748492 1_565
O1 V1 1.748492 1_555
O2 V0 1.748492 1_545
O3 V0 1.748492 1_555
O4 V0 1.726069 1_555
O5 V1 1.726069 1_555
O6 V0 1.726070 1_555
O7 V1 1.726070 1_555
