# generated using pymatgen
data_Zn(MoO2)2
_symmetry_space_group_name_H-M   'P 1'
_cell_length_a   3.16147100
_cell_length_b   9.65912800
_cell_length_c   11.00286900
_cell_angle_alpha   90.00000000
_cell_angle_beta   90.00000000
_cell_angle_gamma   90.00000000
_symmetry_Int_Tables_number   1
_chemical_formula_structural   Zn(MoO2)2
_chemical_formula_sum   'Zn4 Mo8 O16'
_cell_volume   335.99519444
_cell_formula_units_Z   4
loop_
 _symmetry_equiv_pos_site_id
 _symmetry_equiv_pos_as_xyz
  1  'x, y, z'
loop_
 _atom_site_type_symbol
 _atom_site_label
 _atom_site_symmetry_multiplicity
 _atom_site_fract_x
 _atom_site_fract_y
 _atom_site_fract_z
 _atom_site_occupancy
  Zn  Zn0  1  0.25000000  0.74717100  0.34777200  1
  Zn  Zn1  1  0.75000000  0.25282900  0.65222800  1
  Zn  Zn2  1  0.25000000  0.24717100  0.15222800  1
  Zn  Zn3  1  0.75000000  0.75282900  0.84777200  1
  Mo  Mo0  1  0.75000000  0.89391600  0.09781800  1
  Mo  Mo1  1  0.25000000  0.60608400  0.59781800  1
  Mo  Mo2  1  0.75000000  0.39391600  0.40218200  1
  Mo  Mo3  1  0.25000000  0.10608400  0.90218200  1
  Mo  Mo4  1  0.25000000  0.04703400  0.37686300  1
  Mo  Mo5  1  0.75000000  0.95296600  0.62313700  1
  Mo  Mo6  1  0.25000000  0.54703400  0.12313700  1
  Mo  Mo7  1  0.75000000  0.45296600  0.87686300  1
  O  O0  1  0.75000000  0.39938000  0.06899200  1
  O  O1  1  0.25000000  0.60062000  0.93100800  1
  O  O2  1  0.75000000  0.89938000  0.43100800  1
  O  O3  1  0.25000000  0.10062000  0.56899200  1
  O  O4  1  0.75000000  0.58295400  0.72134500  1
  O  O5  1  0.25000000  0.41704600  0.27865500  1
  O  O6  1  0.75000000  0.08295400  0.77865500  1
  O  O7  1  0.25000000  0.91704600  0.22134500  1
  O  O8  1  0.75000000  0.11572400  0.04812700  1
  O  O9  1  0.25000000  0.88427600  0.95187300  1
  O  O10  1  0.75000000  0.61572400  0.45187300  1
  O  O11  1  0.25000000  0.38427600  0.54812700  1
  O  O12  1  0.25000000  0.31410900  0.82398600  1
  O  O13  1  0.75000000  0.68589100  0.17601400  1
  O  O14  1  0.75000000  0.18589100  0.32398600  1
  O  O15  1  0.25000000  0.81410900  0.67601400  1
loop_
_geom_bond_atom_site_label_1
_geom_bond_atom_site_label_2
_geom_bond_distance
_geom_bond_site_symmetry_2
Mo0 O7 2.096648 1_555
Mo0 O7 2.096648 1_655
Mo0 O13 2.185796 1_555
Mo0 O8 2.211134 1_565
Mo0 O9 2.255223 1_654
Mo0 O9 2.255223 1_554
Mo1 O4 2.096648 1_455
Mo1 O4 2.096648 1_555
Mo1 O15 2.185796 1_555
Mo1 O11 2.211134 1_555
Mo1 O10 2.255223 1_455
Mo1 O10 2.255223 1_555
Mo2 O5 2.096648 1_555
Mo2 O5 2.096648 1_655
Mo2 O14 2.185796 1_555
Mo2 O10 2.211134 1_555
Mo2 O11 2.255223 1_655
Mo2 O11 2.255223 1_555
Mo3 O6 2.096648 1_555
Mo3 O6 2.096648 1_455
Mo3 O12 2.185796 1_555
Mo3 O9 2.211134 1_545
Mo3 O8 2.255223 1_456
Mo3 O8 2.255223 1_556
Mo4 O7 2.122374 1_545
Mo4 O14 2.153168 1_555
Mo4 O14 2.153168 1_455
Mo4 O3 2.176413 1_555
Mo4 O2 2.210818 1_545
Mo4 O2 2.210818 1_445
Mo5 O6 2.122374 1_565
Mo5 O15 2.153168 1_555
Mo5 O15 2.153168 1_655
Mo5 O2 2.176413 1_555
Mo5 O3 2.210818 1_665
Mo5 O3 2.210818 1_565
Mo6 O5 2.122374 1_555
Mo6 O13 2.153168 1_455
Mo6 O13 2.153168 1_555
Mo6 O1 2.176413 1_554
Mo6 O0 2.210818 1_455
Mo6 O0 2.210818 1_555
Mo7 O4 2.122374 1_555
Mo7 O12 2.153168 1_555
Mo7 O12 2.153168 1_655
Mo7 O0 2.176413 1_556
Mo7 O1 2.210818 1_655
Mo7 O1 2.210818 1_555
O0 Zn2 2.344991 1_655
O0 Zn2 2.344991 1_555
O1 Zn3 2.344991 1_455
O1 Zn3 2.344991 1_555
O2 Zn0 2.344991 1_555
O2 Zn0 2.344991 1_655
O3 Zn1 2.344991 1_455
O3 Zn1 2.344991 1_555
O4 Zn3 2.151143 1_555
O5 Zn2 2.151143 1_555
O6 Zn1 2.151143 1_555
O7 Zn0 2.151143 1_555
O8 Zn2 2.328676 1_555
O8 Zn2 2.328676 1_655
O9 Zn3 2.328676 1_455
O9 Zn3 2.328676 1_555
O10 Zn0 2.328676 1_555
O10 Zn0 2.328676 1_655
O11 Zn1 2.328676 1_455
O11 Zn1 2.328676 1_555
O12 Zn1 2.533879 1_455
O12 Zn1 2.533879 1_555
O13 Zn0 2.533879 1_555
O13 Zn0 2.533879 1_655
O14 Zn2 2.533879 1_555
O14 Zn2 2.533879 1_655
O15 Zn3 2.533879 1_455
O15 Zn3 2.533879 1_555
