# generated using pymatgen
data_Ba4Se4S16O31
_symmetry_space_group_name_H-M   'P 1'
_cell_length_a   10.73412100
_cell_length_b   5.33383800
_cell_length_c   22.14767051
_cell_angle_alpha   89.93004263
_cell_angle_beta   90.00000000
_cell_angle_gamma   90.00000000
_symmetry_Int_Tables_number   1
_chemical_formula_structural   Ba4Se4S16O31
_chemical_formula_sum   'Ba4 Se4 S16 O31'
_cell_volume   1268.04316604
_cell_formula_units_Z   1
loop_
 _symmetry_equiv_pos_site_id
 _symmetry_equiv_pos_as_xyz
  1  'x, y, z'
loop_
 _atom_site_type_symbol
 _atom_site_label
 _atom_site_symmetry_multiplicity
 _atom_site_fract_x
 _atom_site_fract_y
 _atom_site_fract_z
 _atom_site_occupancy
  Ba  Ba0  1  0.50000000  0.70416800  0.54420300  1
  Ba  Ba1  1  0.50000000  0.20678200  0.95327800  1
  Ba  Ba2  1  0.00000000  0.29407700  0.45457000  1
  Ba  Ba3  1  0.00000000  0.79440900  0.04582800  1
  Se  Se0  1  0.50000000  0.05434500  0.33046500  1
  Se  Se1  1  0.50000000  0.55533200  0.16848300  1
  Se  Se2  1  0.00000000  0.94585700  0.66943800  1
  Se  Se3  1  0.00000000  0.44520200  0.83105000  1
  S  S0  1  0.25824200  0.80998600  0.40930300  1
  S  S1  1  0.74202000  0.31000800  0.09037600  1
  S  S2  1  0.75689000  0.19137600  0.59077500  1
  S  S3  1  0.24190800  0.68986200  0.90954700  1
  S  S4  1  0.24311000  0.19137600  0.59077500  1
  S  S5  1  0.75809200  0.68986200  0.90954700  1
  S  S6  1  0.74175800  0.80998600  0.40930300  1
  S  S7  1  0.25798000  0.31000800  0.09037600  1
  S  S8  1  0.33596500  0.81197600  0.31819000  1
  S  S9  1  0.66390300  0.31311300  0.18158900  1
  S  S10  1  0.83621200  0.18954900  0.68131100  1
  S  S11  1  0.16393800  0.68777600  0.81846900  1
  S  S12  1  0.16378800  0.18954900  0.68131100  1
  S  S13  1  0.83606200  0.68777600  0.81846900  1
  S  S14  1  0.66403500  0.81197600  0.31819000  1
  S  S15  1  0.33609700  0.31311300  0.18158900  1
  O  O0  1  0.34996400  0.67860600  0.44638200  1
  O  O1  1  0.65073600  0.17822600  0.05341400  1
  O  O2  1  0.84820900  0.31815400  0.55268300  1
  O  O3  1  0.15067700  0.82155400  0.94656200  1
  O  O4  1  0.15179100  0.31815400  0.55268300  1
  O  O5  1  0.84932300  0.82155400  0.94656200  1
  O  O6  1  0.65003600  0.67860600  0.44638200  1
  O  O7  1  0.34926400  0.17822600  0.05341400  1
  O  O8  1  0.23787800  0.07216400  0.42540800  1
  O  O9  1  0.76240400  0.57247100  0.07432700  1
  O  O10  1  0.73324100  0.92921000  0.57535900  1
  O  O11  1  0.26234200  0.42749000  0.92569700  1
  O  O12  1  0.26675900  0.92921000  0.57535900  1
  O  O13  1  0.73765800  0.42749000  0.92569700  1
  O  O14  1  0.76212200  0.07216400  0.42540800  1
  O  O15  1  0.23759600  0.57247100  0.07432700  1
  O  O16  1  0.50000000  0.20503500  0.49459000  1
  O  O17  1  0.50000000  0.70142100  0.00921200  1
  O  O18  1  0.00000000  0.79638000  0.50775200  1
  O  O19  1  0.00000000  0.29665700  0.99228100  1
  O  O20  1  0.14359300  0.66825300  0.39784400  1
  O  O21  1  0.85702100  0.16923100  0.10223700  1
  O  O22  1  0.64324400  0.33698600  0.60253100  1
  O  O23  1  0.35696900  0.83081100  0.89783800  1
  O  O24  1  0.35675600  0.33698600  0.60253100  1
  O  O25  1  0.64303100  0.83081100  0.89783800  1
  O  O26  1  0.85640700  0.66825300  0.39784400  1
  O  O27  1  0.14297900  0.16923100  0.10223700  1
  O  O28  1  0.50000000  0.35088600  0.82680400  1
  O  O29  1  0.00000000  0.14849000  0.32544300  1
  O  O30  1  0.00000000  0.64835500  0.17462000  1
loop_
_geom_bond_atom_site_label_1
_geom_bond_atom_site_label_2
_geom_bond_distance
_geom_bond_site_symmetry_2
Ba0 O6 2.703107 1_555
Ba0 O0 2.703107 1_555
Ba0 O22 2.804021 1_555
Ba0 O24 2.804021 1_555
Ba0 O10 2.861324 1_555
Ba0 O12 2.861324 1_555
Ba0 O16 2.881379 1_555
Ba0 O16 2.887449 1_565
Ba1 O1 2.749346 1_556
Ba1 O7 2.749346 1_556
Ba1 O25 2.809334 1_545
Ba1 O23 2.809334 1_545
Ba1 O13 2.874907 1_555
Ba1 O11 2.874907 1_555
Ba1 O28 2.903742 1_555
Ba1 O17 2.916056 1_556
Ba1 O17 2.965179 1_546
Ba2 O4 2.719145 1_555
Ba2 O2 2.719145 1_455
Ba2 O20 2.816243 1_555
Ba2 O26 2.816243 1_455
Ba2 O8 2.887897 1_555
Ba2 O14 2.887897 1_455
Ba2 O18 2.902895 1_545
Ba2 O18 2.928000 1_555
Ba2 O29 2.964329 1_555
Ba3 O3 2.733051 1_554
Ba3 O5 2.733051 1_454
Ba3 O27 2.814134 1_565
Ba3 O21 2.814134 1_465
Ba3 O15 2.881383 1_555
Ba3 O9 2.881383 1_455
Ba3 O19 2.909088 1_554
Ba3 O19 2.928354 1_564
Ba3 O30 2.955992 1_555
S0 S8 2.183617 1_555
S1 S9 2.187349 1_555
S8 Se0 2.201432 1_565
S9 Se1 2.201777 1_555
S10 S2 2.178461 1_555
S10 Se2 2.202382 1_645
S11 S3 2.183942 1_555
S11 Se3 2.201695 1_555
S12 S4 2.178461 1_555
S12 Se2 2.202382 1_545
S13 S5 2.183942 1_555
S13 Se3 2.201695 1_655
S14 S6 2.183617 1_555
S14 Se0 2.201432 1_565
S15 S7 2.187349 1_555
S15 Se1 2.201777 1_555
O0 S0 1.460616 1_555
O1 S1 1.457990 1_555
O2 S2 1.458926 1_555
O3 S3 1.458036 1_555
O4 S4 1.458926 1_555
O5 S5 1.458036 1_555
O6 S6 1.460616 1_555
O7 S7 1.457990 1_555
O8 S0 1.460065 1_545
O9 S1 1.460418 1_555
O10 S2 1.462041 1_565
O11 S3 1.460577 1_555
O12 S4 1.462041 1_565
O13 S5 1.460577 1_555
O14 S6 1.460065 1_545
O15 S7 1.460418 1_555
O20 S0 1.466595 1_555
O21 S1 1.468393 1_555
O22 S2 1.469564 1_555
O23 S3 1.468808 1_555
O24 S4 1.469564 1_555
O25 S5 1.468808 1_555
O26 S6 1.466595 1_555
O27 S7 1.468393 1_555
