# generated using pymatgen
data_ZrTiPt
_symmetry_space_group_name_H-M   'P 1'
_cell_length_a   5.34352342
_cell_length_b   5.46071013
_cell_length_c   8.75225200
_cell_angle_alpha   90.00000000
_cell_angle_beta   90.00000000
_cell_angle_gamma   120.64555045
_symmetry_Int_Tables_number   1
_chemical_formula_structural   ZrTiPt
_chemical_formula_sum   'Zr4 Ti4 Pt4'
_cell_volume   219.71782318
_cell_formula_units_Z   4
loop_
 _symmetry_equiv_pos_site_id
 _symmetry_equiv_pos_as_xyz
  1  'x, y, z'
loop_
 _atom_site_type_symbol
 _atom_site_label
 _atom_site_symmetry_multiplicity
 _atom_site_fract_x
 _atom_site_fract_y
 _atom_site_fract_z
 _atom_site_occupancy
  Zr  Zr0  1  0.64974500  0.32481900  0.56387600  1
  Zr  Zr1  1  0.31804200  0.65899900  0.44889400  1
  Zr  Zr2  1  0.31804200  0.65899900  0.05110600  1
  Zr  Zr3  1  0.64974500  0.32481900  0.93612400  1
  Ti  Ti0  1  0.69906800  0.84957700  0.75000000  1
  Ti  Ti1  1  0.81870900  0.65302800  0.25000000  1
  Ti  Ti2  1  0.81848700  0.16538700  0.25000000  1
  Ti  Ti3  1  0.33855100  0.16936300  0.25000000  1
  Pt  Pt0  1  0.98944600  0.99483700  0.49128900  1
  Pt  Pt1  1  0.98944600  0.99483700  0.00871100  1
  Pt  Pt2  1  0.20539800  0.35688300  0.75000000  1
  Pt  Pt3  1  0.20532200  0.84845100  0.75000000  1
loop_
_geom_bond_atom_site_label_1
_geom_bond_atom_site_label_2
_geom_bond_distance
_geom_bond_site_symmetry_2
Zr0 Zr1 3.232938 1_655
Zr0 Zr3 3.258008 1_555
Zr0 Zr1 3.283579 1_555
Zr0 Zr1 3.286946 1_545
Zr2 Zr3 3.232938 1_454
Zr2 Zr3 3.283579 1_554
Zr2 Zr3 3.286946 1_564
Ti0 Zr3 3.186730 1_565
Ti0 Zr0 3.186730 1_565
Ti0 Zr3 3.188192 1_555
Ti0 Zr0 3.188192 1_555
Ti1 Zr0 3.150298 1_555
Ti1 Zr3 3.150298 1_554
Ti2 Zr0 3.149277 1_555
Ti2 Zr3 3.149277 1_554
Ti3 Zr0 3.097319 1_555
Ti3 Zr3 3.097319 1_554
Pt0 Ti0 2.628522 1_555
Pt0 Ti2 2.651229 1_565
Pt0 Ti3 2.652462 1_665
Pt0 Ti1 2.653305 1_555
Pt0 Pt3 2.834918 1_655
Pt0 Pt2 2.835762 1_665
Pt0 Zr0 3.101317 1_665
Pt0 Zr1 3.108827 1_555
Pt0 Zr1 3.141130 1_655
Pt0 Zr1 3.143622 1_665
Pt0 Zr0 3.206248 1_565
Pt0 Zr0 3.211634 1_555
Pt1 Ti0 2.628522 1_554
Pt1 Ti2 2.651229 1_565
Pt1 Ti3 2.652462 1_665
Pt1 Ti1 2.653305 1_555
Pt1 Pt3 2.834918 1_654
Pt1 Pt2 2.835762 1_664
Pt1 Zr3 3.101317 1_664
Pt1 Zr2 3.108827 1_555
Pt1 Zr2 3.141130 1_655
Pt1 Zr2 3.143622 1_665
Pt1 Zr3 3.206248 1_564
Pt1 Zr3 3.211634 1_554
Pt2 Ti0 2.638555 1_555
Pt2 Pt3 2.684517 1_555
Pt2 Ti0 2.711742 1_445
Pt2 Pt3 2.776193 1_545
Pt2 Zr0 2.957331 1_555
Pt2 Zr3 2.957331 1_555
Pt2 Zr1 3.002799 1_555
Pt2 Zr2 3.002799 1_556
Pt2 Zr3 3.312121 1_455
Pt2 Zr0 3.312121 1_455
Pt3 Ti0 2.635214 1_555
Pt3 Ti0 2.708319 1_455
Pt3 Zr3 2.960127 1_565
Pt3 Zr0 2.960127 1_565
Pt3 Zr1 3.002235 1_555
Pt3 Zr2 3.002235 1_556
Pt3 Zr3 3.315013 1_455
Pt3 Zr0 3.315013 1_455
