# generated using pymatgen
data_Li2Ti2V3O10
_symmetry_space_group_name_H-M   'P 1'
_cell_length_a   5.15355843
_cell_length_b   10.23351110
_cell_length_c   8.17822980
_cell_angle_alpha   68.72241312
_cell_angle_beta   86.96328575
_cell_angle_gamma   102.88590318
_symmetry_Int_Tables_number   1
_chemical_formula_structural   Li2Ti2V3O10
_chemical_formula_sum   'Li4 Ti4 V6 O20'
_cell_volume   387.50867363
_cell_formula_units_Z   2
loop_
 _symmetry_equiv_pos_site_id
 _symmetry_equiv_pos_as_xyz
  1  'x, y, z'
loop_
 _atom_site_type_symbol
 _atom_site_label
 _atom_site_symmetry_multiplicity
 _atom_site_fract_x
 _atom_site_fract_y
 _atom_site_fract_z
 _atom_site_occupancy
  Li  Li0  1  0.64347700  0.08991700  0.30721000  1
  Li  Li1  1  0.13415000  0.59071300  0.80649500  1
  Li  Li2  1  0.35654000  0.91009200  0.69279900  1
  Li  Li3  1  0.86582100  0.40929300  0.19348500  1
  Ti  Ti0  1  0.28975400  0.28396600  0.40341100  1
  Ti  Ti1  1  0.79367400  0.77433600  0.90910600  1
  Ti  Ti2  1  0.71025000  0.71603100  0.59658700  1
  Ti  Ti3  1  0.20634300  0.22569600  0.09088000  1
  V  V0  1  0.00001000  0.50002700  0.49989900  1
  V  V1  1  0.06030000  0.10176900  0.78723300  1
  V  V2  1  0.93973600  0.89825800  0.21278900  1
  V  V3  1  0.49973800  0.99975700  0.00014100  1
  V  V4  1  0.56572000  0.60135100  0.29215100  1
  V  V5  1  0.43428100  0.39868800  0.70781900  1
  O  O0  1  0.61607000  0.40154600  0.46197100  1
  O  O1  1  0.12339200  0.90978600  0.95081000  1
  O  O2  1  0.38392600  0.59847700  0.53800700  1
  O  O3  1  0.87661400  0.09019100  0.04920500  1
  O  O4  1  0.99682100  0.22458500  0.28687200  1
  O  O5  1  0.50282600  0.73085900  0.78408300  1
  O  O6  1  0.00318700  0.77543400  0.71313600  1
  O  O7  1  0.49718300  0.26915400  0.21593000  1
  O  O8  1  0.08963400  0.30597800  0.63174500  1
  O  O9  1  0.61166000  0.81474900  0.12021200  1
  O  O10  1  0.91041200  0.69405500  0.36822500  1
  O  O11  1  0.38836500  0.18523600  0.87981600  1
  O  O12  1  0.27756300  0.99608400  0.21518300  1
  O  O13  1  0.79373000  0.51701300  0.70308800  1
  O  O14  1  0.72246400  0.00390700  0.78486300  1
  O  O15  1  0.20631300  0.48301600  0.29686900  1
  O  O16  1  0.26400500  0.10270600  0.58917900  1
  O  O17  1  0.77501100  0.60014600  0.07900100  1
  O  O18  1  0.73604500  0.89729700  0.41082100  1
  O  O19  1  0.22498700  0.39988600  0.92098100  1
loop_
_geom_bond_atom_site_label_1
_geom_bond_atom_site_label_2
_geom_bond_distance
_geom_bond_site_symmetry_2
Li0 O4 1.981187 1_555
Li0 O18 2.020182 1_545
Li0 O7 2.042724 1_555
Li0 O12 2.216263 1_545
Li0 O3 2.370944 1_555
Li1 O19 2.009106 1_555
Li1 O6 2.046465 1_555
Li1 O5 2.063345 1_555
Li1 O13 2.095662 1_455
Li1 O2 2.452128 1_555
Li2 O6 1.981177 1_555
Li2 O16 2.020053 1_565
Li2 O5 2.042667 1_555
Li2 O14 2.216400 1_565
Li2 O1 2.370870 1_555
Li3 O17 2.009265 1_555
Li3 O4 2.046469 1_555
Li3 O7 2.063106 1_555
Li3 O15 2.095917 1_655
Li3 O0 2.452125 1_555
O0 Ti0 2.026402 1_555
O0 V4 2.095426 1_555
O0 V0 2.104630 1_655
O0 V5 2.160232 1_555
O1 V1 2.044192 1_565
O1 Ti1 2.068580 1_455
O1 V3 2.080443 1_556
O1 V2 2.247678 1_456
O2 Ti2 2.026381 1_555
O2 V5 2.095290 1_555
O2 V0 2.104971 1_555
O2 V4 2.160232 1_555
O3 V2 2.043885 1_545
O3 Ti3 2.068819 1_655
O3 V3 2.083314 1_545
O3 V1 2.247483 1_654
O4 Ti3 1.879673 1_655
O4 Ti0 1.928806 1_655
O5 Ti2 1.893290 1_555
O5 Ti1 1.919687 1_555
O6 Ti1 1.879558 1_455
O6 Ti2 1.928946 1_455
O7 Ti0 1.893123 1_555
O7 Ti3 1.919753 1_555
O8 V1 1.979162 1_555
O8 V0 2.056021 1_555
O8 V5 2.058109 1_555
O8 Ti0 2.192329 1_555
O9 V3 2.019712 1_555
O9 V2 2.030512 1_555
O9 V4 2.075522 1_555
O9 Ti1 2.133373 1_554
O10 V2 1.979014 1_555
O10 V0 2.055520 1_655
O10 V4 2.058266 1_555
O10 Ti2 2.192434 1_555
O11 V3 2.022553 1_546
O11 V1 2.030338 1_555
O11 V5 2.076110 1_555
O11 Ti3 2.133379 1_556
O12 V2 1.809465 1_455
O12 V3 2.030958 1_555
O12 Ti3 2.319474 1_565
O13 V5 1.963978 1_555
O13 V0 2.006633 1_655
O13 Ti2 2.057844 1_555
O14 V1 1.809579 1_655
O14 V3 2.031966 1_546
O14 Ti1 2.319041 1_545
O15 V4 1.963871 1_555
O15 V0 2.005741 1_555
O15 Ti0 2.058068 1_555
O16 V1 1.878774 1_555
O16 Ti0 1.894740 1_555
O17 Ti1 1.796986 1_554
O17 V4 2.006128 1_555
O18 V2 1.878481 1_555
O18 Ti2 1.894729 1_555
O19 Ti3 1.797020 1_556
O19 V5 2.006187 1_555
