# generated using pymatgen
data_Li3PS4
_symmetry_space_group_name_H-M   'P 1'
_cell_length_a   6.11139853
_cell_length_b   7.86250837
_cell_length_c   13.34790049
_cell_angle_alpha   90.00000000
_cell_angle_beta   90.00000000
_cell_angle_gamma   90.00000000
_symmetry_Int_Tables_number   1
_chemical_formula_structural   Li3PS4
_chemical_formula_sum   'Li12 P4 S16'
_cell_volume   641.37892657
_cell_formula_units_Z   4
loop_
 _symmetry_equiv_pos_site_id
 _symmetry_equiv_pos_as_xyz
  1  'x, y, z'
loop_
 _atom_site_type_symbol
 _atom_site_label
 _atom_site_symmetry_multiplicity
 _atom_site_fract_x
 _atom_site_fract_y
 _atom_site_fract_z
 _atom_site_occupancy
  Li  Li0  1  0.70359379  0.50456735  0.15865815  1
  Li  Li1  1  0.20359379  0.49543265  0.34134185  1
  Li  Li2  1  0.29640621  0.00456735  0.84134185  1
  Li  Li3  1  0.79640621  0.99543265  0.65865815  1
  Li  Li4  1  0.29640621  0.49543265  0.84134185  1
  Li  Li5  1  0.79640621  0.50456735  0.65865815  1
  Li  Li6  1  0.70359379  0.99543265  0.15865815  1
  Li  Li7  1  0.20359379  0.00456735  0.34134185  1
  Li  Li8  1  0.78125374  0.25000000  0.42869634  1
  Li  Li9  1  0.28125374  0.75000000  0.07130366  1
  Li  Li10  1  0.21874626  0.75000000  0.57130366  1
  Li  Li11  1  0.71874626  0.25000000  0.92869634  1
  P  P0  1  0.69289412  0.75000000  0.40636818  1
  P  P1  1  0.80710588  0.75000000  0.90636818  1
  P  P2  1  0.30710588  0.25000000  0.59363182  1
  P  P3  1  0.19289412  0.25000000  0.09363182  1
  S  S0  1  0.64266806  0.25000000  0.59649697  1
  S  S1  1  0.80086663  0.96350701  0.33469299  1
  S  S2  1  0.14266806  0.75000000  0.90350303  1
  S  S3  1  0.35733194  0.75000000  0.40350303  1
  S  S4  1  0.80086663  0.53649299  0.33469299  1
  S  S5  1  0.30086663  0.03649299  0.16530701  1
  S  S6  1  0.19913337  0.46350701  0.66530701  1
  S  S7  1  0.69913337  0.53649299  0.83469299  1
  S  S8  1  0.19913337  0.03649299  0.66530701  1
  S  S9  1  0.69913337  0.96350701  0.83469299  1
  S  S10  1  0.79821352  0.75000000  0.55107094  1
  S  S11  1  0.30086663  0.46350701  0.16530701  1
  S  S12  1  0.70178648  0.75000000  0.05107094  1
  S  S13  1  0.20178648  0.25000000  0.44892906  1
  S  S14  1  0.29821352  0.25000000  0.94892906  1
  S  S15  1  0.85733194  0.25000000  0.09649697  1
loop_
_geom_bond_atom_site_label_1
_geom_bond_atom_site_label_2
_geom_bond_distance
_geom_bond_site_symmetry_2
Li0 S15 2.361642 1_555
Li0 S12 2.405453 1_555
Li0 S4 2.436694 1_555
Li0 S11 2.483895 1_555
Li1 S3 2.361642 1_555
Li1 S13 2.405453 1_555
Li1 S11 2.436694 1_555
Li1 S4 2.483895 1_455
Li2 S2 2.361642 1_545
Li2 S14 2.405453 1_555
Li2 S8 2.436694 1_555
Li2 S9 2.483895 1_545
Li3 S0 2.361642 1_565
Li3 S10 2.405453 1_555
Li3 S9 2.436694 1_555
Li3 S8 2.483895 1_665
Li4 S2 2.361642 1_555
Li4 S14 2.405453 1_555
Li4 S6 2.436694 1_555
Li4 S7 2.483895 1_555
Li5 S0 2.361642 1_555
Li5 S10 2.405453 1_555
Li5 S7 2.436694 1_555
Li5 S6 2.483895 1_655
Li6 S15 2.361642 1_565
Li6 S12 2.405453 1_555
Li6 S1 2.436694 1_555
Li6 S5 2.483895 1_565
Li7 S3 2.361642 1_545
Li7 S13 2.405453 1_555
Li7 S5 2.436694 1_555
Li7 S1 2.483895 1_445
Li8 S0 2.394571 1_555
Li8 S4 2.581231 1_555
Li8 S1 2.581231 1_545
Li8 S13 2.584194 1_655
Li9 S2 2.394571 1_554
Li9 S5 2.581231 1_565
Li9 S11 2.581231 1_555
Li9 S12 2.584194 1_555
Li10 S3 2.394571 1_555
Li10 S8 2.581231 1_565
Li10 S6 2.581231 1_555
Li10 S10 2.584194 1_455
Li11 S15 2.394571 1_556
Li11 S9 2.581231 1_545
Li11 S7 2.581231 1_555
Li11 S14 2.584194 1_555
P0 S10 2.035901 1_555
P0 S1 2.041753 1_555
P0 S4 2.041753 1_555
P0 S3 2.051111 1_555
P1 S12 2.035901 1_556
P1 S7 2.041753 1_555
P1 S9 2.041753 1_555
P1 S2 2.051111 1_655
P2 S13 2.035901 1_555
P2 S8 2.041753 1_555
P2 S6 2.041753 1_555
P2 S0 2.051111 1_555
P3 S14 2.035901 1_554
P3 S5 2.041753 1_555
P3 S11 2.041753 1_555
P3 S15 2.051111 1_455
