# generated using pymatgen
data_V5BiO10
_symmetry_space_group_name_H-M   'P 1'
_cell_length_a   10.43369664
_cell_length_b   10.43369664
_cell_length_c   10.43369664
_cell_angle_alpha   122.95447687
_cell_angle_beta   122.95447687
_cell_angle_gamma   84.95460279
_symmetry_Int_Tables_number   1
_chemical_formula_structural   V5BiO10
_chemical_formula_sum   'V20 Bi4 O40'
_cell_volume   764.05409685
_cell_formula_units_Z   4
loop_
 _symmetry_equiv_pos_site_id
 _symmetry_equiv_pos_as_xyz
  1  'x, y, z'
loop_
 _atom_site_type_symbol
 _atom_site_label
 _atom_site_symmetry_multiplicity
 _atom_site_fract_x
 _atom_site_fract_y
 _atom_site_fract_z
 _atom_site_occupancy
  V  V0  1  0.74025500  0.92847500  0.47406400  1
  V  V1  1  0.87413500  0.34950200  0.81728900  1
  V  V2  1  0.92847500  0.45441100  0.18822000  1
  V  V3  1  0.73380900  0.25974500  0.18822000  1
  V  V4  1  0.05684600  0.87413500  0.52463300  1
  V  V5  1  0.85105700  0.66900400  0.52006100  1
  V  V6  1  0.14894300  0.33099700  0.47993900  1
  V  V7  1  0.34950200  0.53221200  0.47536700  1
  V  V8  1  0.94315400  0.12586500  0.47536700  1
  V  V9  1  0.07152500  0.54558900  0.81178000  1
  V  V10  1  0.26619100  0.74025500  0.81178000  1
  V  V11  1  0.12586500  0.65049800  0.18271100  1
  V  V12  1  0.53221200  0.05684600  0.18271100  1
  V  V13  1  0.33099700  0.85105700  0.18205400  1
  V  V14  1  0.25974500  0.07152500  0.52593600  1
  V  V15  1  0.45441100  0.26619100  0.52593600  1
  V  V16  1  0.54558900  0.73380900  0.47406400  1
  V  V17  1  0.66900300  0.14894300  0.81794600  1
  V  V18  1  0.46778800  0.94315400  0.81728900  1
  V  V19  1  0.65049800  0.46778800  0.52463300  1
  Bi  Bi0  1  0.11202600  0.11202600  0.00000000  1
  Bi  Bi1  1  0.88797400  0.88797400  0.00000000  1
  Bi  Bi2  1  0.68204900  0.68204900  0.00000000  1
  Bi  Bi3  1  0.31795100  0.31795100  0.00000000  1
  O  O0  1  0.84803000  0.88929800  0.34345700  1
  O  O1  1  0.86487300  0.15625900  0.62231700  1
  O  O2  1  0.88929800  0.54584000  0.04126800  1
  O  O3  1  0.70240400  0.04971400  0.96063600  1
  O  O4  1  0.91092200  0.25823200  0.96063600  1
  O  O5  1  0.94121500  0.64186200  0.37733300  1
  O  O6  1  0.73547100  0.43611900  0.37733300  1
  O  O7  1  0.74176800  0.70240400  0.65269000  1
  O  O8  1  0.95028600  0.91092200  0.65269000  1
  O  O9  1  0.95428100  0.33331500  0.28759600  1
  O  O10  1  0.15625900  0.53394200  0.29138700  1
  O  O11  1  0.75744500  0.13512700  0.29138700  1
  O  O12  1  0.84374100  0.46605800  0.70861300  1
  O  O13  1  0.04571900  0.66668500  0.71240400  1
  O  O14  1  0.24255500  0.86487300  0.70861300  1
  O  O15  1  0.04971400  0.08907800  0.34731000  1
  O  O16  1  0.25823200  0.29759600  0.34731000  1
  O  O17  1  0.05878500  0.35813800  0.62266700  1
  O  O18  1  0.26452900  0.56388100  0.62266700  1
  O  O19  1  0.29759600  0.95028600  0.03936400  1
  O  O20  1  0.08907800  0.74176800  0.03936400  1
  O  O21  1  0.11070200  0.45416000  0.95873200  1
  O  O22  1  0.29514000  0.65581500  0.95095500  1
  O  O23  1  0.50457200  0.84803000  0.95873200  1
  O  O24  1  0.13512700  0.84374100  0.37768300  1
  O  O25  1  0.53394200  0.24255500  0.37768300  1
  O  O26  1  0.33331500  0.04571900  0.37903400  1
  O  O27  1  0.34418500  0.29514000  0.63932600  1
  O  O28  1  0.15197000  0.11070200  0.65654300  1
  O  O29  1  0.54584000  0.50457200  0.65654300  1
  O  O30  1  0.56388100  0.94121500  0.29935200  1
  O  O31  1  0.35813800  0.73547100  0.29935200  1
  O  O32  1  0.43611900  0.05878500  0.70064800  1
  O  O33  1  0.64186200  0.26452900  0.70064800  1
  O  O34  1  0.65581500  0.70486000  0.36067400  1
  O  O35  1  0.45416000  0.49542800  0.34345700  1
  O  O36  1  0.66668500  0.95428100  0.62096600  1
  O  O37  1  0.46605800  0.75744500  0.62231700  1
  O  O38  1  0.70486000  0.34418500  0.04904500  1
  O  O39  1  0.49542800  0.15197000  0.04126800  1
loop_
_geom_bond_atom_site_label_1
_geom_bond_atom_site_label_2
_geom_bond_distance
_geom_bond_site_symmetry_2
Bi0 O4 2.465663 1_454
Bi0 O8 2.465663 1_444
Bi0 O16 2.465663 1_555
Bi0 O19 2.465663 1_545
Bi1 O7 2.465663 1_554
Bi1 O3 2.465663 1_564
Bi1 O20 2.465663 1_655
Bi1 O15 2.465663 1_665
Bi2 O29 2.448098 1_554
Bi2 O0 2.448099 1_555
Bi2 O23 2.448105 1_554
Bi2 O2 2.448105 1_555
Bi3 O35 2.448098 1_555
Bi3 O28 2.448099 1_554
Bi3 O21 2.448105 1_554
Bi3 O39 2.448105 1_555
O0 V4 2.032055 1_655
O0 V8 2.054395 1_565
O0 V0 2.066112 1_555
O1 V1 1.889692 1_555
O1 V8 1.976446 1_555
O1 V0 2.021760 1_545
O2 V1 2.032051 1_554
O2 V11 2.054397 1_655
O2 V2 2.066104 1_555
O3 V18 2.037586 1_545
O3 V3 2.041239 1_556
O3 V17 2.111595 1_555
O4 V1 2.037595 1_555
O4 V2 2.041239 1_556
O4 V17 2.111595 1_555
O5 V2 1.816055 1_555
O5 V4 2.033621 1_655
O5 V5 2.049661 1_555
O6 V3 1.816060 1_555
O6 V19 2.033621 1_555
O6 V5 2.049653 1_555
O7 V19 2.037586 1_555
O7 V16 2.041239 1_555
O7 V5 2.111588 1_555
O8 V4 2.037595 1_655
O8 V0 2.041239 1_555
O8 V5 2.111588 1_555
O9 V6 1.939812 1_655
O9 V3 1.950807 1_555
O9 V2 1.950807 1_555
O10 V7 1.889693 1_555
O10 V11 1.976454 1_555
O10 V2 2.021756 1_455
O11 V8 1.889682 1_555
O11 V12 1.976462 1_555
O11 V3 2.021766 1_555
O12 V19 1.889693 1_555
O12 V1 1.976454 1_555
O12 V9 2.021756 1_655
O13 V5 1.939817 1_455
O13 V9 1.950807 1_555
O13 V10 1.950807 1_555
O14 V4 1.889682 1_555
O14 V18 1.976462 1_555
O14 V10 2.021766 1_555
O15 V8 2.037595 1_455
O15 V14 2.041239 1_555
O15 V6 2.111597 1_555
O16 V7 2.037586 1_555
O16 V15 2.041239 1_555
O16 V6 2.111586 1_555
O17 V9 1.816055 1_555
O17 V8 2.033621 1_455
O17 V6 2.049664 1_555
O18 V10 1.816060 1_555
O18 V7 2.033621 1_555
O18 V6 2.049644 1_555
O19 V12 2.037586 1_565
O19 V10 2.041239 1_554
O19 V13 2.111595 1_555
O20 V11 2.037595 1_555
O20 V9 2.041239 1_554
O20 V13 2.111595 1_555
O21 V11 2.032051 1_556
O21 V1 2.054397 1_455
O21 V9 2.066104 1_555
O22 V9 1.960592 1_555
O22 V10 1.960592 1_555
O22 V13 1.977995 1_556
O23 V12 2.032055 1_566
O23 V18 2.054400 1_555
O23 V10 2.066104 1_555
O24 V11 1.889692 1_555
O24 V4 1.976446 1_555
O24 V14 2.021760 1_565
O25 V12 1.889683 1_555
O25 V19 1.976463 1_555
O25 V15 2.021756 1_555
O26 V13 1.939817 1_545
O26 V14 1.950807 1_555
O26 V15 1.950807 1_555
O27 V14 1.960589 1_555
O27 V15 1.960601 1_555
O27 V6 1.978003 1_555
O28 V8 2.032055 1_455
O28 V4 2.054395 1_545
O28 V14 2.066112 1_555
O29 V7 2.032050 1_555
O29 V19 2.054409 1_555
O29 V15 2.066101 1_555
O30 V0 1.816065 1_555
O30 V12 2.033612 1_565
O30 V13 2.049649 1_555
O31 V16 1.816060 1_555
O31 V11 2.033624 1_555
O31 V13 2.049646 1_555
O32 V14 1.816065 1_555
O32 V18 2.033612 1_545
O32 V17 2.049649 1_555
O33 V15 1.816060 1_555
O33 V1 2.033624 1_555
O33 V17 2.049646 1_555
O34 V0 1.960589 1_555
O34 V16 1.960601 1_555
O34 V5 1.977998 1_555
O35 V19 2.032050 1_555
O35 V7 2.054409 1_555
O35 V16 2.066101 1_555
O36 V17 1.939817 1_565
O36 V16 1.950807 1_555
O36 V0 1.950807 1_555
O37 V18 1.889683 1_555
O37 V7 1.976463 1_555
O37 V16 2.021756 1_555
O38 V2 1.960592 1_555
O38 V3 1.960592 1_555
O38 V17 1.977995 1_554
O39 V18 2.032055 1_544
O39 V12 2.054400 1_555
O39 V3 2.066104 1_555
