# generated using pymatgen
data_Na3In2Bi3
_symmetry_space_group_name_H-M   'P 1'
_cell_length_a   4.72645500
_cell_length_b   8.22839800
_cell_length_c   27.49483740
_cell_angle_alpha   89.79015758
_cell_angle_beta   90.00000000
_cell_angle_gamma   90.00000000
_symmetry_Int_Tables_number   1
_chemical_formula_structural   Na3In2Bi3
_chemical_formula_sum   'Na12 In8 Bi12'
_cell_volume   1069.29875291
_cell_formula_units_Z   4
loop_
 _symmetry_equiv_pos_site_id
 _symmetry_equiv_pos_as_xyz
  1  'x, y, z'
loop_
 _atom_site_type_symbol
 _atom_site_label
 _atom_site_symmetry_multiplicity
 _atom_site_fract_x
 _atom_site_fract_y
 _atom_site_fract_z
 _atom_site_occupancy
  Na  Na0  1  0.50000000  0.47613300  0.89131500  1
  Na  Na1  1  0.50000000  0.47537200  0.56121500  1
  Na  Na2  1  0.50000000  0.47794600  0.22584000  1
  Na  Na3  1  0.50000000  0.96453400  0.93756100  1
  Na  Na4  1  0.50000000  0.96905600  0.60764100  1
  Na  Na5  1  0.50000000  0.96369500  0.27268100  1
  Na  Na6  1  0.00000000  0.52284600  0.77169800  1
  Na  Na7  1  0.00000000  0.52919200  0.44280900  1
  Na  Na8  1  0.00000000  0.52981500  0.10846400  1
  Na  Na9  1  0.00000000  0.02143600  0.72653400  1
  Na  Na10  1  0.00000000  0.02123600  0.39703200  1
  Na  Na11  1  0.00000000  0.02187500  0.06259900  1
  In  In0  1  0.50000000  0.36165200  0.35781900  1
  In  In1  1  0.50000000  0.36614100  0.02334400  1
  In  In2  1  0.00000000  0.13130200  0.85379800  1
  In  In3  1  0.00000000  0.13504700  0.52704800  1
  In  In4  1  0.00000000  0.12300300  0.18839700  1
  In  In5  1  0.00000000  0.65951400  0.97346400  1
  In  In6  1  0.00000000  0.64586100  0.64117000  1
  In  In7  1  0.00000000  0.65873800  0.30769500  1
  Bi  Bi0  1  0.50000000  0.71876000  0.70667400  1
  Bi  Bi1  1  0.50000000  0.73491000  0.37475800  1
  Bi  Bi2  1  0.50000000  0.73518400  0.04142100  1
  Bi  Bi3  1  0.50000000  0.23028300  0.79346700  1
  Bi  Bi4  1  0.50000000  0.22519300  0.46173400  1
  Bi  Bi5  1  0.50000000  0.23536000  0.12937000  1
  Bi  Bi6  1  0.00000000  0.26158700  0.96286600  1
  Bi  Bi7  1  0.00000000  0.27394300  0.62769300  1
  Bi  Bi8  1  0.00000000  0.26329500  0.29507200  1
  Bi  Bi9  1  0.00000000  0.76749300  0.86901100  1
  Bi  Bi10  1  0.00000000  0.77062300  0.53664900  1
  Bi  Bi11  1  0.00000000  0.76337500  0.20342800  1
loop_
_geom_bond_atom_site_label_1
_geom_bond_atom_site_label_2
_geom_bond_distance
_geom_bond_site_symmetry_2
In0 Na7 3.601321 1_655
In0 Na7 3.601321 1_555
In1 Na8 3.591521 1_555
In1 Na8 3.591521 1_655
In2 Na3 3.570541 1_545
In2 Na3 3.570541 1_445
In2 Na9 3.617201 1_555
In3 Na4 3.512601 1_545
In3 Na4 3.512601 1_445
In3 Na10 3.698715 1_555
In3 Na1 3.785295 1_555
In3 Na1 3.785295 1_455
In4 Na5 3.556845 1_545
In4 Na5 3.556845 1_445
In4 Na11 3.560446 1_555
In5 Na3 3.583348 1_555
In5 Na3 3.583348 1_455
In5 Na0 3.603927 1_555
In5 Na0 3.603927 1_455
In6 Na1 3.522523 1_455
In6 Na1 3.522523 1_555
In6 Na4 3.672741 1_455
In6 Na4 3.672741 1_555
In6 Na6 3.725291 1_555
In7 Na5 3.576391 1_455
In7 Na5 3.576391 1_555
In7 Na2 3.589925 1_455
In7 Na2 3.589925 1_555
Bi0 In6 3.032532 1_655
Bi0 In6 3.032532 1_555
Bi0 Na6 3.370279 1_555
Bi0 Na6 3.370279 1_655
Bi0 Na4 3.408045 1_555
Bi0 Na9 3.477895 1_565
Bi0 Na9 3.477895 1_665
Bi1 In7 3.063670 1_555
Bi1 In7 3.063670 1_655
Bi1 In0 3.108113 1_555
Bi1 Na5 3.373749 1_555
Bi1 Na10 3.394293 1_665
Bi1 Na10 3.394293 1_565
Bi1 Na7 3.453666 1_655
Bi1 Na7 3.453666 1_555
Bi2 In5 3.077697 1_654
Bi2 In5 3.077697 1_554
Bi2 In1 3.078835 1_555
Bi2 Na11 3.391000 1_665
Bi2 Na11 3.391000 1_565
Bi2 Na3 3.417092 1_554
Bi2 Na8 3.437373 1_555
Bi2 Na8 3.437373 1_655
Bi3 In2 2.998312 1_655
Bi3 In2 2.998312 1_555
Bi3 Na0 3.371942 1_555
Bi3 Na6 3.424580 1_555
Bi3 Na6 3.424580 1_655
Bi3 Na9 3.456576 1_555
Bi3 Na9 3.456576 1_655
Bi4 In3 3.057807 1_655
Bi4 In3 3.057807 1_555
Bi4 In0 3.066013 1_555
Bi4 Na10 3.404106 1_655
Bi4 Na10 3.404106 1_555
Bi4 Na1 3.429338 1_555
Bi4 Na7 3.478964 1_655
Bi4 Na7 3.478964 1_555
Bi5 In4 3.010401 1_655
Bi5 In4 3.010401 1_555
Bi5 In1 3.103748 1_555
Bi5 Na2 3.325439 1_555
Bi5 Na8 3.431538 1_555
Bi5 Na8 3.431538 1_655
Bi5 Na11 3.473417 1_555
Bi5 Na11 3.473417 1_655
Bi6 In1 3.016699 1_456
Bi6 In1 3.016699 1_556
Bi6 In2 3.188362 1_555
Bi6 In5 3.288305 1_555
Bi6 Na11 3.371983 1_556
Bi6 Na3 3.472151 1_545
Bi6 Na3 3.472151 1_445
Bi6 Na0 3.542053 1_555
Bi6 Na0 3.542053 1_455
Bi7 In3 2.997810 1_555
Bi7 In6 3.083988 1_555
Bi7 Na1 3.413300 1_555
Bi7 Na1 3.413300 1_455
Bi7 Na9 3.414826 1_555
Bi7 Na4 3.491800 1_445
Bi7 Na4 3.491800 1_545
Bi8 In0 3.037507 1_455
Bi8 In0 3.037507 1_555
Bi8 In4 3.155939 1_555
Bi8 In7 3.273583 1_555
Bi8 Na10 3.432944 1_555
Bi8 Na5 3.471645 1_545
Bi8 Na5 3.471645 1_445
Bi8 Na2 3.507591 1_455
Bi8 Na2 3.507591 1_555
Bi9 In5 3.003106 1_555
Bi9 In2 3.021129 1_565
Bi9 Na6 3.354206 1_555
Bi9 Na0 3.420204 1_455
Bi9 Na0 3.420204 1_555
Bi9 Na3 3.433410 1_555
Bi9 Na3 3.433410 1_455
Bi10 In3 3.009259 1_565
Bi10 In6 3.048104 1_555
Bi10 Na7 3.262067 1_555
Bi10 Na1 3.454162 1_455
Bi10 Na1 3.454162 1_555
Bi10 Na4 3.476226 1_455
Bi10 Na4 3.476226 1_555
Bi11 In4 2.986382 1_565
Bi11 In7 2.990284 1_555
Bi11 Na8 3.247705 1_555
Bi11 Na2 3.386738 1_555
Bi11 Na2 3.386738 1_455
Bi11 Na5 3.456930 1_555
Bi11 Na5 3.456930 1_455
