# generated using pymatgen
data_MnTl2P4(HO2)8
_symmetry_space_group_name_H-M   'P 1'
_cell_length_a   7.05446380
_cell_length_b   7.66728667
_cell_length_c   7.83027456
_cell_angle_alpha   81.41623272
_cell_angle_beta   73.85214699
_cell_angle_gamma   85.99042933
_symmetry_Int_Tables_number   1
_chemical_formula_structural   MnTl2P4(HO2)8
_chemical_formula_sum   'Mn1 Tl2 P4 H8 O16'
_cell_volume   402.08224277
_cell_formula_units_Z   1
loop_
 _symmetry_equiv_pos_site_id
 _symmetry_equiv_pos_as_xyz
  1  'x, y, z'
loop_
 _atom_site_type_symbol
 _atom_site_label
 _atom_site_symmetry_multiplicity
 _atom_site_fract_x
 _atom_site_fract_y
 _atom_site_fract_z
 _atom_site_occupancy
  Mn  Mn0  1  0.50000000  0.50000000  0.00000000  1
  Tl  Tl0  1  0.89186200  0.27650000  0.20839300  1
  Tl  Tl1  1  0.10813800  0.72350000  0.79160700  1
  P  P0  1  0.25070400  0.80714900  0.24793300  1
  P  P1  1  0.74929600  0.19285100  0.75206700  1
  P  P2  1  0.66591400  0.73751400  0.25878200  1
  P  P3  1  0.33408600  0.26248600  0.74121800  1
  H  H0  1  0.94410400  0.73335400  0.41105600  1
  H  H1  1  0.05589600  0.26664600  0.58894400  1
  H  H2  1  0.74059800  0.95938800  0.03697000  1
  H  H3  1  0.25940200  0.04061200  0.96303000  1
  H  H4  1  0.37439800  0.30106600  0.35489500  1
  H  H5  1  0.62560200  0.69893400  0.64510500  1
  H  H6  1  0.38698300  0.17488000  0.20681100  1
  H  H7  1  0.61301700  0.82512000  0.79318900  1
  O  O0  1  0.26300500  0.99835000  0.15644800  1
  O  O1  1  0.73699500  0.00165000  0.84355200  1
  O  O2  1  0.07354000  0.78257600  0.42235800  1
  O  O3  1  0.92646000  0.21742400  0.57764200  1
  O  O4  1  0.25539000  0.66966800  0.12649200  1
  O  O5  1  0.74461000  0.33033200  0.87350800  1
  O  O6  1  0.43070500  0.77130600  0.34271800  1
  O  O7  1  0.56929500  0.22869400  0.65728100  1
  O  O8  1  0.74532000  0.67432800  0.41903700  1
  O  O9  1  0.25468000  0.32567200  0.58096300  1
  O  O10  1  0.75208900  0.92398700  0.16722300  1
  O  O11  1  0.24791100  0.07601300  0.83277700  1
  O  O12  1  0.69824400  0.61272200  0.11902200  1
  O  O13  1  0.30175600  0.38727800  0.88097800  1
  O  O14  1  0.44248500  0.28183500  0.22950600  1
  O  O15  1  0.55751500  0.71816500  0.77049400  1
loop_
_geom_bond_atom_site_label_1
_geom_bond_atom_site_label_2
_geom_bond_distance
_geom_bond_site_symmetry_2
Mn0 O12 2.169289 1_555
Mn0 O13 2.169289 1_554
Mn0 O4 2.184270 1_555
Mn0 O5 2.184270 1_554
Mn0 O14 2.232533 1_555
Mn0 O15 2.232533 1_554
H0 O2 1.042653 1_655
H0 O8 1.485522 1_555
H1 O3 1.042653 1_455
H1 O9 1.485522 1_555
H2 O10 1.039590 1_555
H2 O1 1.507703 1_564
H3 O11 1.039590 1_555
H3 O0 1.507703 1_546
H4 O14 0.993697 1_555
H5 O15 0.993697 1_555
H6 O14 0.992208 1_555
H7 O15 0.992208 1_555
O0 P0 1.529560 1_555
O1 P1 1.529560 1_555
O2 P0 1.571474 1_555
O3 P1 1.571474 1_555
O4 P0 1.514376 1_555
O5 P1 1.514376 1_555
O6 P2 1.623699 1_555
O6 P0 1.628903 1_555
O7 P3 1.623700 1_555
O7 P1 1.628908 1_555
O8 P2 1.514821 1_555
O9 P3 1.514821 1_555
O10 P2 1.581411 1_555
O11 P3 1.581411 1_555
O12 P2 1.519328 1_555
O13 P3 1.519328 1_555
