# generated using pymatgen
data_U2FeSi3
_symmetry_space_group_name_H-M   'P 1'
_cell_length_a   3.69139000
_cell_length_b   4.06754600
_cell_length_c   6.93801700
_cell_angle_alpha   90.00000000
_cell_angle_beta   90.00000000
_cell_angle_gamma   90.00000000
_symmetry_Int_Tables_number   1
_chemical_formula_structural   U2FeSi3
_chemical_formula_sum   'U2 Fe1 Si3'
_cell_volume   104.17362194
_cell_formula_units_Z   1
loop_
 _symmetry_equiv_pos_site_id
 _symmetry_equiv_pos_as_xyz
  1  'x, y, z'
loop_
 _atom_site_type_symbol
 _atom_site_label
 _atom_site_symmetry_multiplicity
 _atom_site_fract_x
 _atom_site_fract_y
 _atom_site_fract_z
 _atom_site_occupancy
  U  U0  1  0.00000000  0.00000000  0.01091500  1
  U  U1  1  0.00000000  0.50000000  0.49185100  1
  Fe  Fe0  1  0.50000000  0.00000000  0.33049900  1
  Si  Si0  1  0.50000000  0.50000000  0.83334400  1
  Si  Si1  1  0.50000000  0.50000000  0.17031100  1
  Si  Si2  1  0.50000000  0.00000000  0.66308000  1
loop_
_geom_bond_atom_site_label_1
_geom_bond_atom_site_label_2
_geom_bond_distance
_geom_bond_site_symmetry_2
Fe0 Si2 2.307453 1_555
Fe0 Si1 2.317631 1_545
Fe0 Si1 2.317631 1_555
Fe0 U0 2.884947 1_555
Fe0 U0 2.884947 1_655
Fe0 U1 2.965808 1_645
Fe0 U1 2.965808 1_545
Fe0 U1 2.965808 1_555
Fe0 U1 2.965808 1_655
Si0 Si1 2.337883 1_556
Si0 Si2 2.351954 1_555
Si0 Si2 2.351954 1_565
Si0 U1 3.003348 1_555
Si0 U1 3.003348 1_655
Si0 U0 3.010087 1_666
Si0 U0 3.010087 1_556
Si0 U0 3.010087 1_566
Si0 U0 3.010087 1_656
Si1 U1 2.895390 1_555
Si1 U1 2.895390 1_655
Si1 U0 2.960713 1_665
Si1 U0 2.960713 1_655
Si1 U0 2.960713 1_565
Si1 U0 2.960713 1_555
Si2 U1 2.992347 1_655
Si2 U1 2.992347 1_545
Si2 U1 2.992347 1_645
Si2 U1 2.992347 1_555
Si2 U0 3.038180 1_656
Si2 U0 3.038180 1_556
