# generated using pymatgen
data_Na5Ga7H12S13O6
_symmetry_space_group_name_H-M   'P 1'
_cell_length_a   12.57025278
_cell_length_b   12.57025278
_cell_length_c   12.57025278
_cell_angle_alpha   60.00000000
_cell_angle_beta   60.00000000
_cell_angle_gamma   60.00000000
_symmetry_Int_Tables_number   1
_chemical_formula_structural   Na5Ga7H12S13O6
_chemical_formula_sum   'Na10 Ga14 H24 S26 O12'
_cell_volume   1404.48477399
_cell_formula_units_Z   2
loop_
 _symmetry_equiv_pos_site_id
 _symmetry_equiv_pos_as_xyz
  1  'x, y, z'
loop_
 _atom_site_type_symbol
 _atom_site_label
 _atom_site_symmetry_multiplicity
 _atom_site_fract_x
 _atom_site_fract_y
 _atom_site_fract_z
 _atom_site_occupancy
  Na  Na0  1  0.39232135  0.82303595  0.39232135  1
  Na  Na1  1  0.39232135  0.39232135  0.82303595  1
  Na  Na2  1  0.82303595  0.39232135  0.39232135  1
  Na  Na3  1  0.39232135  0.39232135  0.39232135  1
  Na  Na4  1  0.32303595  0.89232135  0.89232135  1
  Na  Na5  1  0.89232135  0.89232135  0.32303595  1
  Na  Na6  1  0.89232135  0.32303595  0.89232135  1
  Na  Na7  1  0.89232135  0.89232135  0.89232135  1
  Na  Na8  1  0.50000000  0.50000000  0.50000000  1
  Na  Na9  1  0.00000000  0.00000000  0.00000000  1
  Ga  Ga0  1  0.50000000  0.00000000  0.00000000  1
  Ga  Ga1  1  0.50000000  0.00000000  0.50000000  1
  Ga  Ga2  1  0.00000000  0.00000000  0.50000000  1
  Ga  Ga3  1  0.00000000  0.50000000  0.00000000  1
  Ga  Ga4  1  0.50000000  0.50000000  0.00000000  1
  Ga  Ga5  1  0.00000000  0.50000000  0.50000000  1
  Ga  Ga6  1  0.48587362  0.17137546  0.17137546  1
  Ga  Ga7  1  0.17137546  0.17137546  0.48587362  1
  Ga  Ga8  1  0.17137546  0.17137546  0.17137546  1
  Ga  Ga9  1  0.17137546  0.48587362  0.17137546  1
  Ga  Ga10  1  0.67137546  0.98587362  0.67137546  1
  Ga  Ga11  1  0.67137546  0.67137546  0.98587362  1
  Ga  Ga12  1  0.67137546  0.67137546  0.67137546  1
  Ga  Ga13  1  0.98587362  0.67137546  0.67137546  1
  H  H0  1  0.67115466  0.66155174  0.27134989  1
  H  H1  1  0.39594371  0.66155174  0.67115466  1
  H  H2  1  0.27134989  0.66155174  0.39594371  1
  H  H3  1  0.39594371  0.27134989  0.66155174  1
  H  H4  1  0.27134989  0.67115466  0.66155174  1
  H  H5  1  0.67115466  0.39594371  0.66155174  1
  H  H6  1  0.66155174  0.67115466  0.39594371  1
  H  H7  1  0.66155174  0.39594371  0.27134989  1
  H  H8  1  0.66155174  0.27134989  0.67115466  1
  H  H9  1  0.27134989  0.39594371  0.67115466  1
  H  H10  1  0.67115466  0.27134989  0.39594371  1
  H  H11  1  0.39594371  0.67115466  0.27134989  1
  H  H12  1  0.16155174  0.17115466  0.77134989  1
  H  H13  1  0.16155174  0.89594371  0.17115466  1
  H  H14  1  0.16155174  0.77134989  0.89594371  1
  H  H15  1  0.77134989  0.89594371  0.16155174  1
  H  H16  1  0.17115466  0.77134989  0.16155174  1
  H  H17  1  0.89594371  0.17115466  0.16155174  1
  H  H18  1  0.17115466  0.16155174  0.89594371  1
  H  H19  1  0.89594371  0.16155174  0.77134989  1
  H  H20  1  0.77134989  0.16155174  0.17115466  1
  H  H21  1  0.89594371  0.77134989  0.17115466  1
  H  H22  1  0.77134989  0.17115466  0.89594371  1
  H  H23  1  0.17115466  0.89594371  0.77134989  1
  S  S0  1  0.55173522  0.96950580  0.16768356  1
  S  S1  1  0.31107542  0.96950580  0.55173522  1
  S  S2  1  0.16768356  0.96950580  0.31107542  1
  S  S3  1  0.31107542  0.16768356  0.96950580  1
  S  S4  1  0.16768356  0.55173522  0.96950580  1
  S  S5  1  0.55173522  0.31107542  0.96950580  1
  S  S6  1  0.96950580  0.55173522  0.31107542  1
  S  S7  1  0.96950580  0.31107542  0.16768356  1
  S  S8  1  0.96950580  0.16768356  0.55173522  1
  S  S9  1  0.16768356  0.31107542  0.55173522  1
  S  S10  1  0.55173522  0.16768356  0.31107542  1
  S  S11  1  0.31107542  0.55173522  0.16768356  1
  S  S12  1  0.46950580  0.05173522  0.66768356  1
  S  S13  1  0.46950580  0.81107542  0.05173522  1
  S  S14  1  0.46950580  0.66768356  0.81107542  1
  S  S15  1  0.66768356  0.81107542  0.46950580  1
  S  S16  1  0.05173522  0.66768356  0.46950580  1
  S  S17  1  0.81107542  0.05173522  0.46950580  1
  S  S18  1  0.05173522  0.46950580  0.81107542  1
  S  S19  1  0.81107542  0.46950580  0.66768356  1
  S  S20  1  0.66768356  0.46950580  0.05173522  1
  S  S21  1  0.81107542  0.66768356  0.05173522  1
  S  S22  1  0.66768356  0.05173522  0.81107542  1
  S  S23  1  0.05173522  0.81107542  0.66768356  1
  S  S24  1  0.25000000  0.25000000  0.25000000  1
  S  S25  1  0.75000000  0.75000000  0.75000000  1
  O  O0  1  0.63247103  0.63247103  0.36752897  1
  O  O1  1  0.36752897  0.63247103  0.63247103  1
  O  O2  1  0.36752897  0.63247103  0.36752897  1
  O  O3  1  0.36752897  0.36752897  0.63247103  1
  O  O4  1  0.63247103  0.36752897  0.63247103  1
  O  O5  1  0.63247103  0.36752897  0.36752897  1
  O  O6  1  0.13247103  0.13247103  0.86752897  1
  O  O7  1  0.13247103  0.86752897  0.13247103  1
  O  O8  1  0.13247103  0.86752897  0.86752897  1
  O  O9  1  0.86752897  0.86752897  0.13247103  1
  O  O10  1  0.86752897  0.13247103  0.13247103  1
  O  O11  1  0.86752897  0.13247103  0.86752897  1
loop_
_geom_bond_atom_site_label_1
_geom_bond_atom_site_label_2
_geom_bond_distance
_geom_bond_site_symmetry_2
Na0 O0 2.742738 1_555
Na0 O1 2.742738 1_555
Na0 O2 2.742738 1_555
Na0 S1 2.865483 1_555
Na0 S0 2.865483 1_555
Na0 S2 2.865483 1_555
Na1 O4 2.742738 1_555
Na1 O1 2.742738 1_555
Na1 O3 2.742738 1_555
Na1 S5 2.865483 1_555
Na1 S4 2.865483 1_555
Na1 S3 2.865483 1_555
Na2 O0 2.742738 1_555
Na2 O4 2.742738 1_555
Na2 O5 2.742738 1_555
Na2 S6 2.865483 1_555
Na2 S8 2.865483 1_555
Na2 S7 2.865483 1_555
Na3 O5 2.742738 1_555
Na3 O2 2.742738 1_555
Na3 O3 2.742738 1_555
Na3 S11 2.865483 1_555
Na3 S10 2.865483 1_555
Na3 S9 2.865483 1_555
Na4 O8 2.742738 1_555
Na4 O7 2.742738 1_556
Na4 O6 2.742738 1_565
Na4 S14 2.865483 1_555
Na4 S12 2.865483 1_565
Na4 S13 2.865483 1_556
Na5 O9 2.742738 1_555
Na5 O7 2.742738 1_655
Na5 O10 2.742738 1_565
Na5 S15 2.865483 1_555
Na5 S17 2.865483 1_565
Na5 S16 2.865483 1_655
Na6 O11 2.742738 1_555
Na6 O10 2.742738 1_556
Na6 O6 2.742738 1_655
Na6 S19 2.865483 1_555
Na6 S18 2.865483 1_655
Na6 S20 2.865483 1_556
Na7 O9 2.742738 1_556
Na7 O8 2.742738 1_655
Na7 O11 2.742738 1_565
Na7 S22 2.865483 1_565
Na7 S21 2.865483 1_556
Na7 S23 2.865483 1_655
Na8 O3 2.354940 1_555
Na8 O2 2.354940 1_555
Na8 O5 2.354940 1_555
Na8 O0 2.354940 1_555
Na8 O1 2.354940 1_555
Na8 O4 2.354940 1_555
Na9 O8 2.354940 1_544
Na9 O9 2.354940 1_445
Na9 O11 2.354940 1_454
Na9 O10 2.354940 1_455
Na9 O7 2.354940 1_545
Na9 O6 2.354940 1_554
Ga0 S0 2.307878 1_545
Ga0 S3 2.307878 1_554
Ga0 S13 2.307878 1_545
Ga0 S22 2.307878 1_554
Ga1 S10 2.307878 1_555
Ga1 S1 2.307878 1_545
Ga1 S12 2.307878 1_555
Ga1 S15 2.307878 1_545
Ga2 S8 2.307878 1_455
Ga2 S2 2.307878 1_545
Ga2 S17 2.307878 1_455
Ga2 S23 2.307878 1_545
Ga3 S4 2.307878 1_554
Ga3 S7 2.307878 1_455
Ga3 S18 2.307878 1_554
Ga3 S21 2.307878 1_455
Ga4 S14 2.307878 1_554
Ga4 S11 2.307878 1_555
Ga4 S5 2.307878 1_554
Ga4 S20 2.307878 1_555
Ga5 S9 2.307878 1_555
Ga5 S6 2.307878 1_455
Ga5 S19 2.307878 1_455
Ga5 S16 2.307878 1_555
Ga6 S10 2.259480 1_555
Ga6 S5 2.259480 1_554
Ga6 S0 2.259480 1_545
Ga6 S24 2.420905 1_555
Ga7 S9 2.259480 1_555
Ga7 S1 2.259480 1_545
Ga7 S8 2.259480 1_455
Ga7 S24 2.420905 1_555
Ga8 S3 2.259480 1_554
Ga8 S7 2.259480 1_455
Ga8 S2 2.259480 1_545
Ga8 S24 2.420905 1_555
Ga9 S11 2.259480 1_555
Ga9 S6 2.259480 1_455
Ga9 S4 2.259480 1_554
Ga9 S24 2.420905 1_555
Ga10 S22 2.259480 1_565
Ga10 S12 2.259480 1_565
Ga10 S17 2.259480 1_565
Ga10 S25 2.420905 1_555
Ga11 S21 2.259480 1_556
Ga11 S20 2.259480 1_556
Ga11 S13 2.259480 1_556
Ga11 S25 2.420905 1_555
Ga12 S19 2.259480 1_555
Ga12 S15 2.259480 1_555
Ga12 S14 2.259480 1_555
Ga12 S25 2.420905 1_555
Ga13 S18 2.259480 1_655
Ga13 S23 2.259480 1_655
Ga13 S16 2.259480 1_655
Ga13 S25 2.420905 1_555
H0 O0 0.989780 1_555
H1 O1 0.989780 1_555
H2 O2 0.989780 1_555
H3 O3 0.989780 1_555
H4 O1 0.989780 1_555
H5 O4 0.989780 1_555
H6 O0 0.989780 1_555
H7 O5 0.989780 1_555
H8 O4 0.989780 1_555
H9 O3 0.989780 1_555
H10 O5 0.989780 1_555
H11 O2 0.989780 1_555
H12 O6 0.989780 1_555
H13 O7 0.989780 1_555
H14 O8 0.989780 1_555
H15 O9 0.989780 1_555
H16 O7 0.989780 1_555
H17 O10 0.989780 1_555
H18 O6 0.989780 1_555
H19 O11 0.989780 1_555
H20 O10 0.989780 1_555
H21 O9 0.989780 1_555
H22 O11 0.989780 1_555
H23 O8 0.989780 1_555
