# generated using pymatgen
data_Cs2Pu(Cl2O)2
_symmetry_space_group_name_H-M   'P 1'
_cell_length_a   6.22529105
_cell_length_b   7.39526116
_cell_length_c   7.39526116
_cell_angle_alpha   118.39716257
_cell_angle_beta   91.99307065
_cell_angle_gamma   88.00692935
_symmetry_Int_Tables_number   1
_chemical_formula_structural   Cs2Pu(Cl2O)2
_chemical_formula_sum   'Cs2 Pu1 Cl4 O2'
_cell_volume   299.24798406
_cell_formula_units_Z   1
loop_
 _symmetry_equiv_pos_site_id
 _symmetry_equiv_pos_as_xyz
  1  'x, y, z'
loop_
 _atom_site_type_symbol
 _atom_site_label
 _atom_site_symmetry_multiplicity
 _atom_site_fract_x
 _atom_site_fract_y
 _atom_site_fract_z
 _atom_site_occupancy
  Cs  Cs0  1  0.27565700  0.65767700  0.34232300  1
  Cs  Cs1  1  0.72434300  0.34232300  0.65767700  1
  Pu  Pu0  1  0.00000000  0.00000000  0.00000000  1
  Cl  Cl0  1  0.78478100  0.85549700  0.64180700  1
  Cl  Cl1  1  0.78478100  0.35819300  0.14450300  1
  Cl  Cl2  1  0.21521900  0.14450300  0.35819300  1
  Cl  Cl3  1  0.21521900  0.64180700  0.85549700  1
  O  O0  1  0.80816500  0.90029000  0.09971000  1
  O  O1  1  0.19183500  0.09971000  0.90029000  1
loop_
_geom_bond_atom_site_label_1
_geom_bond_atom_site_label_2
_geom_bond_distance
_geom_bond_site_symmetry_2
Cl0 Pu0 2.667230 1_666
Cl0 Cs1 3.552995 1_565
Cl0 Cs0 3.668997 1_655
Cl0 Cs0 3.720641 1_555
Cl0 Cs1 3.883789 1_555
Cl1 Pu0 2.667230 1_655
Cl1 Cs1 3.552995 1_554
Cl1 Cs0 3.668997 1_655
Cl1 Cs0 3.720641 1_555
Cl1 Cs1 3.883789 1_555
Cl2 Pu0 2.667230 1_555
Cl2 Cs0 3.552995 1_545
Cl2 Cs1 3.668997 1_455
Cl2 Cs1 3.720641 1_555
Cl2 Cs0 3.883789 1_555
Cl3 Pu0 2.667230 1_566
Cl3 Cs0 3.552995 1_556
Cl3 Cs1 3.668997 1_455
Cl3 Cs1 3.720641 1_555
Cl3 Cs0 3.883789 1_555
O0 Pu0 1.775761 1_665
O1 Pu0 1.775761 1_556
