# generated using pymatgen
data_Na14Fe2O9
_symmetry_space_group_name_H-M   'P 1'
_cell_length_a   6.67365398
_cell_length_b   6.71021756
_cell_length_c   9.42728077
_cell_angle_alpha   89.64631771
_cell_angle_beta   89.25563884
_cell_angle_gamma   60.39318359
_symmetry_Int_Tables_number   1
_chemical_formula_structural   Na14Fe2O9
_chemical_formula_sum   'Na14 Fe2 O9'
_cell_volume   367.01833317
_cell_formula_units_Z   1
loop_
 _symmetry_equiv_pos_site_id
 _symmetry_equiv_pos_as_xyz
  1  'x, y, z'
loop_
 _atom_site_type_symbol
 _atom_site_label
 _atom_site_symmetry_multiplicity
 _atom_site_fract_x
 _atom_site_fract_y
 _atom_site_fract_z
 _atom_site_occupancy
  Na  Na0  1  0.00041400  0.99926000  0.25201300  1
  Na  Na1  1  0.99966500  0.99998600  0.74778200  1
  Na  Na2  1  0.36022800  0.68044700  0.90787900  1
  Na  Na3  1  0.96092100  0.36123800  0.90750000  1
  Na  Na4  1  0.67776800  0.96185100  0.90813600  1
  Na  Na5  1  0.31969400  0.04189900  0.09121400  1
  Na  Na6  1  0.03740400  0.64088000  0.09204900  1
  Na  Na7  1  0.63914200  0.32212700  0.09285100  1
  Na  Na8  1  0.37795200  0.93152400  0.59048700  1
  Na  Na9  1  0.68639400  0.37456600  0.59301900  1
  Na  Na10  1  0.06788700  0.30845800  0.40834500  1
  Na  Na11  1  0.93432500  0.68907100  0.59242300  1
  Na  Na12  1  0.31435400  0.62381500  0.40715100  1
  Na  Na13  1  0.62349900  0.06527100  0.40878600  1
  Fe  Fe0  1  0.32887700  0.33332200  0.74072900  1
  Fe  Fe1  1  0.67032400  0.66669000  0.25958700  1
  O  O0  1  0.99894000  0.00141500  0.99979000  1
  O  O1  1  0.66245300  0.66836800  0.04117200  1
  O  O2  1  0.33572400  0.33594200  0.95873700  1
  O  O3  1  0.35977500  0.94697600  0.33429400  1
  O  O4  1  0.69937700  0.35749500  0.33702400  1
  O  O5  1  0.05813500  0.30282200  0.66073900  1
  O  O6  1  0.94442400  0.69337000  0.33942300  1
  O  O7  1  0.30263200  0.64188100  0.66445000  1
  O  O8  1  0.63949000  0.05132700  0.66442100  1
loop_
_geom_bond_atom_site_label_1
_geom_bond_atom_site_label_2
_geom_bond_distance
_geom_bond_site_symmetry_2
Na0 O0 2.377850 1_464
Na0 O4 2.380540 1_465
Na0 O3 2.385369 1_555
Na0 O6 2.400152 1_455
Na1 O0 2.375761 1_565
Na1 O7 2.379246 1_655
Na1 O5 2.389480 1_665
Na1 O8 2.396138 1_565
Na2 O1 2.357269 1_556
Na2 O7 2.368480 1_555
Na2 O2 2.440984 1_555
Na2 O0 2.457757 1_465
Na3 O5 2.388917 1_655
Na3 O1 2.390309 1_556
Na3 O0 2.454709 1_555
Na3 O2 2.475786 1_655
Na4 O8 2.356107 1_565
Na4 O1 2.372071 1_556
Na4 O0 2.454464 1_565
Na4 O2 2.462546 1_565
Na5 O3 2.357578 1_545
Na5 O2 2.374649 1_554
Na5 O0 2.454428 1_454
Na5 O1 2.461466 1_545
Na6 O2 2.381498 1_554
Na6 O6 2.388349 1_455
Na6 O0 2.457931 1_464
Na6 O1 2.469733 1_455
Na7 O2 2.363677 1_554
Na7 O4 2.375217 1_555
Na7 O1 2.449637 1_555
Na7 O0 2.455459 1_554
Na8 O7 2.335763 1_555
Na8 O8 2.367171 1_565
Na8 O3 2.418836 1_555
Na8 O5 2.435335 1_565
Na9 O5 2.377247 1_655
Na9 O7 2.379297 1_555
Na9 O4 2.415160 1_555
Na9 O8 2.429613 1_555
Na10 O3 2.341445 1_545
Na10 O6 2.379611 1_455
Na10 O5 2.380012 1_555
Na10 O4 2.418508 1_455
Na11 O8 2.345381 1_565
Na11 O6 2.385578 1_555
Na11 O5 2.385832 1_655
Na11 O7 2.423743 1_655
Na12 O6 2.370475 1_455
Na12 O4 2.380399 1_555
Na12 O3 2.427270 1_555
Na12 O7 2.427720 1_555
Na13 O4 2.348412 1_555
Na13 O3 2.374930 1_545
Na13 O8 2.412882 1_555
Na13 O6 2.438231 1_545
Fe0 O2 2.056701 1_555
Fe0 O5 2.068307 1_555
Fe0 O7 2.112182 1_555
Fe0 O8 2.120709 1_555
Fe1 O1 2.060231 1_555
Fe1 O6 2.075015 1_555
Fe1 O3 2.110813 1_555
Fe1 O4 2.112503 1_555
