# generated using pymatgen
data_Mg14NbFeO16
_symmetry_space_group_name_H-M   'P 1'
_cell_length_a   8.59045498
_cell_length_b   8.59045498
_cell_length_c   4.30264517
_cell_angle_alpha   90.00000000
_cell_angle_beta   90.00000000
_cell_angle_gamma   90.00000000
_symmetry_Int_Tables_number   1
_chemical_formula_structural   Mg14NbFeO16
_chemical_formula_sum   'Mg14 Nb1 Fe1 O16'
_cell_volume   317.51764483
_cell_formula_units_Z   1
loop_
 _symmetry_equiv_pos_site_id
 _symmetry_equiv_pos_as_xyz
  1  'x, y, z'
loop_
 _atom_site_type_symbol
 _atom_site_label
 _atom_site_symmetry_multiplicity
 _atom_site_fract_x
 _atom_site_fract_y
 _atom_site_fract_z
 _atom_site_occupancy
  Mg  Mg0  1  0.00000000  0.50000000  0.00000000  1
  Mg  Mg1  1  0.50000000  -0.00000000  0.00000000  1
  Mg  Mg2  1  0.00000000  0.24418642  0.50000000  1
  Mg  Mg3  1  0.00000000  0.75581358  0.50000000  1
  Mg  Mg4  1  0.50000000  0.24169573  0.50000000  1
  Mg  Mg5  1  0.50000000  0.75830427  0.50000000  1
  Mg  Mg6  1  0.24418642  -0.00000000  0.50000000  1
  Mg  Mg7  1  0.24169573  0.50000000  0.50000000  1
  Mg  Mg8  1  0.75581358  -0.00000000  0.50000000  1
  Mg  Mg9  1  0.75830427  0.50000000  0.50000000  1
  Mg  Mg10  1  0.24403533  0.24403533  -0.00000000  1
  Mg  Mg11  1  0.24403533  0.75596467  0.00000000  1
  Mg  Mg12  1  0.75596467  0.24403533  -0.00000000  1
  Mg  Mg13  1  0.75596467  0.75596467  0.00000000  1
  Nb  Nb0  1  0.50000000  0.50000000  0.00000000  1
  Fe  Fe0  1  0.00000000  -0.00000000  0.00000000  1
  O  O0  1  0.25336582  -0.00000000  0.00000000  1
  O  O1  1  0.24077063  0.50000000  0.00000000  1
  O  O2  1  0.74663418  -0.00000000  -0.00000000  1
  O  O3  1  0.75922937  0.50000000  0.00000000  1
  O  O4  1  0.25058680  0.25058680  0.50000000  1
  O  O5  1  0.25058680  0.74941320  0.50000000  1
  O  O6  1  0.74941320  0.25058680  0.50000000  1
  O  O7  1  0.74941320  0.74941320  0.50000000  1
  O  O8  1  0.00000000  -0.00000000  0.50000000  1
  O  O9  1  0.00000000  0.50000000  0.50000000  1
  O  O10  1  0.50000000  -0.00000000  0.50000000  1
  O  O11  1  0.50000000  0.50000000  0.50000000  1
  O  O12  1  0.00000000  0.25336582  -0.00000000  1
  O  O13  1  0.00000000  0.74663418  0.00000000  1
  O  O14  1  0.50000000  0.24077063  0.00000000  1
  O  O15  1  0.50000000  0.75922937  0.00000000  1
loop_
_geom_bond_atom_site_label_1
_geom_bond_atom_site_label_2
_geom_bond_distance
_geom_bond_site_symmetry_2
Mg0 O3 2.068329 1_455
Mg0 O1 2.068329 1_555
Mg0 O12 2.118700 1_555
Mg0 O13 2.118700 1_555
Mg0 O9 2.151323 1_554
Mg0 O9 2.151323 1_555
Mg1 O15 2.068329 1_545
Mg1 O14 2.068329 1_555
Mg1 O0 2.118700 1_555
Mg1 O2 2.118700 1_555
Mg1 O10 2.151323 1_555
Mg1 O10 2.151323 1_554
Mg2 O8 2.097672 1_555
Mg2 O12 2.152767 1_556
Mg2 O12 2.152767 1_555
Mg2 O6 2.153357 1_455
Mg2 O4 2.153357 1_555
Mg2 O9 2.197555 1_555
Mg3 O8 2.097672 1_565
Mg3 O13 2.152767 1_555
Mg3 O13 2.152767 1_556
Mg3 O5 2.153357 1_555
Mg3 O7 2.153357 1_455
Mg3 O9 2.197555 1_555
Mg4 O10 2.076276 1_555
Mg4 O4 2.143934 1_555
Mg4 O6 2.143934 1_555
Mg4 O14 2.151337 1_556
Mg4 O14 2.151337 1_555
Mg4 O11 2.218951 1_555
Mg5 O10 2.076276 1_565
Mg5 O7 2.143934 1_555
Mg5 O5 2.143934 1_555
Mg5 O15 2.151337 1_555
Mg5 O15 2.151337 1_556
Mg5 O11 2.218951 1_555
Mg6 O8 2.097672 1_555
Mg6 O0 2.152767 1_555
Mg6 O0 2.152767 1_556
Mg6 O5 2.153357 1_545
Mg6 O4 2.153357 1_555
Mg6 O10 2.197555 1_555
Mg7 O9 2.076276 1_555
Mg7 O4 2.143934 1_555
Mg7 O5 2.143934 1_555
Mg7 O1 2.151337 1_556
Mg7 O1 2.151337 1_555
Mg7 O11 2.218951 1_555
Mg8 O8 2.097672 1_655
Mg8 O2 2.152767 1_556
Mg8 O2 2.152767 1_555
Mg8 O6 2.153357 1_555
Mg8 O7 2.153357 1_545
Mg8 O10 2.197555 1_555
Mg9 O9 2.076276 1_655
Mg9 O6 2.143934 1_555
Mg9 O7 2.143934 1_555
Mg9 O3 2.151337 1_556
Mg9 O3 2.151337 1_555
Mg9 O11 2.218951 1_555
Mg10 O12 2.097906 1_555
Mg10 O0 2.097906 1_555
Mg10 O4 2.152794 1_554
Mg10 O4 2.152794 1_555
Mg10 O14 2.199032 1_555
Mg10 O1 2.199032 1_555
Mg11 O13 2.097906 1_555
Mg11 O0 2.097906 1_565
Mg11 O5 2.152794 1_554
Mg11 O5 2.152794 1_555
Mg11 O15 2.199032 1_555
Mg11 O1 2.199032 1_555
Mg12 O12 2.097906 1_655
Mg12 O2 2.097906 1_555
Mg12 O6 2.152794 1_554
Mg12 O6 2.152794 1_555
Mg12 O14 2.199032 1_555
Mg12 O3 2.199032 1_555
Mg13 O2 2.097906 1_565
Mg13 O13 2.097906 1_655
Mg13 O7 2.152794 1_554
Mg13 O7 2.152794 1_555
Mg13 O15 2.199032 1_555
Mg13 O3 2.199032 1_555
Nb0 O11 2.151323 1_554
Nb0 O11 2.151323 1_555
Nb0 O15 2.226898 1_555
Nb0 O14 2.226898 1_555
Nb0 O3 2.226898 1_555
Nb0 O1 2.226898 1_555
Fe0 O8 2.151323 1_554
Fe0 O8 2.151323 1_555
Fe0 O2 2.176528 1_455
Fe0 O13 2.176528 1_545
Fe0 O12 2.176528 1_555
Fe0 O0 2.176528 1_555
