# generated using pymatgen
data_KAlCr2(HO4)2
_symmetry_space_group_name_H-M   'P 1'
_cell_length_a   6.33123987
_cell_length_b   6.33123987
_cell_length_c   7.67918801
_cell_angle_alpha   67.55714649
_cell_angle_beta   67.55714649
_cell_angle_gamma   50.22931640
_symmetry_Int_Tables_number   1
_chemical_formula_structural   KAlCr2(HO4)2
_chemical_formula_sum   'K1 Al1 Cr2 H2 O8'
_cell_volume   214.53462634
_cell_formula_units_Z   1
loop_
 _symmetry_equiv_pos_site_id
 _symmetry_equiv_pos_as_xyz
  1  'x, y, z'
loop_
 _atom_site_type_symbol
 _atom_site_label
 _atom_site_symmetry_multiplicity
 _atom_site_fract_x
 _atom_site_fract_y
 _atom_site_fract_z
 _atom_site_occupancy
  K  K0  1  0.00000000  0.00000000  0.50000000  1
  Al  Al0  1  0.00000000  0.00000000  0.00000000  1
  Cr  Cr0  1  0.39003400  0.39003400  0.28047000  1
  Cr  Cr1  1  0.60996600  0.60996600  0.71953000  1
  H  H0  1  0.81127000  0.81127000  0.08337700  1
  H  H1  1  0.18873000  0.18873000  0.91662300  1
  O  O0  1  0.26180100  0.26180100  0.24191900  1
  O  O1  1  0.73819900  0.73819900  0.75808100  1
  O  O2  1  0.64761400  0.64761400  0.49092400  1
  O  O3  1  0.35238600  0.35238600  0.50907600  1
  O  O4  1  0.74298700  0.21648700  0.18216100  1
  O  O5  1  0.25701300  0.78351300  0.81783900  1
  O  O6  1  0.78351300  0.25701300  0.81783900  1
  O  O7  1  0.21648700  0.74298700  0.18216100  1
loop_
_geom_bond_atom_site_label_1
_geom_bond_atom_site_label_2
_geom_bond_distance
_geom_bond_site_symmetry_2
K0 O1 2.814483 1_445
K0 O0 2.814483 1_555
K0 O4 2.847509 1_455
K0 O7 2.847509 1_545
K0 O6 2.847509 1_455
K0 O5 2.847509 1_545
K0 O3 3.160805 1_455
K0 O2 3.160805 1_545
K0 O3 3.160805 1_545
K0 O2 3.160805 1_455
Al0 O5 1.831845 1_544
Al0 O4 1.831845 1_455
Al0 O6 1.831845 1_454
Al0 O7 1.831845 1_545
Al0 H0 1.980899 1_445
Al0 H1 1.980899 1_554
Cr0 O0 1.617487 1_555
Cr0 O3 1.621466 1_555
Cr0 O4 1.724709 1_555
Cr0 O7 1.724709 1_555
Cr1 O1 1.617487 1_555
Cr1 O2 1.621466 1_555
Cr1 O6 1.724709 1_555
Cr1 O5 1.724709 1_555
