# generated using pymatgen
data_TaReSi
_symmetry_space_group_name_H-M   'P 1'
_cell_length_a   6.63360959
_cell_length_b   6.95020877
_cell_length_c   7.46149922
_cell_angle_alpha   117.75799619
_cell_angle_beta   116.39279276
_cell_angle_gamma   90.00000000
_symmetry_Int_Tables_number   1
_chemical_formula_structural   TaReSi
_chemical_formula_sum   'Ta6 Re6 Si6'
_cell_volume   263.22843082
_cell_formula_units_Z   6
loop_
 _symmetry_equiv_pos_site_id
 _symmetry_equiv_pos_as_xyz
  1  'x, y, z'
loop_
 _atom_site_type_symbol
 _atom_site_label
 _atom_site_symmetry_multiplicity
 _atom_site_fract_x
 _atom_site_fract_y
 _atom_site_fract_z
 _atom_site_occupancy
  Ta  Ta0  1  0.90379739  0.94503296  0.39006792  1
  Ta  Ta1  1  0.51372946  0.05496704  0.60993208  1
  Ta  Ta2  1  0.50062578  0.53400323  0.56800746  1
  Ta  Ta3  1  0.93261932  0.46599677  0.43199254  1
  Ta  Ta4  1  0.08931852  0.74750849  0.99501698  1
  Ta  Ta5  1  0.09430154  0.25249151  0.00498302  1
  Re  Re0  1  0.75488392  0.50000000  1.00000000  1
  Re  Re1  1  0.75488392  1.00000000  1.00000000  1
  Re  Re2  1  0.24953577  0.90749323  0.74539244  1
  Re  Re3  1  0.50414333  0.09250677  0.25460756  1
  Re  Re4  1  0.24953577  0.33789921  0.74539244  1
  Re  Re5  1  0.50414333  0.66210079  0.25460756  1
  Si  Si0  1  0.46327076  0.72261060  0.94522219  1
  Si  Si1  1  0.51804857  0.27738940  0.05477781  1
  Si  Si2  1  0.17390035  0.67208797  0.33531689  1
  Si  Si3  1  0.83858346  0.32791203  0.66468311  1
  Si  Si4  1  0.17390035  0.16322893  0.33531689  1
  Si  Si5  1  0.83858346  0.83677107  0.66468311  1
loop_
_geom_bond_atom_site_label_1
_geom_bond_atom_site_label_2
_geom_bond_distance
_geom_bond_site_symmetry_2
Re0 Si1 2.487781 1_556
Re0 Si0 2.487781 1_555
Re0 Si3 2.538949 1_555
Re0 Si2 2.538950 1_656
Re0 Ta4 2.831128 1_655
Re0 Ta5 2.831128 1_656
Re0 Ta0 2.841181 1_556
Re0 Ta1 2.841181 1_555
Re0 Re5 2.908712 1_556
Re0 Re4 2.908713 1_555
Re0 Ta3 3.027633 1_556
Re0 Ta2 3.027633 1_555
Re1 Si1 2.487786 1_566
Re1 Si0 2.487786 1_555
Re1 Si5 2.538949 1_555
Re1 Si4 2.538950 1_666
Re1 Ta4 2.831128 1_655
Re1 Ta5 2.831128 1_666
Re1 Ta0 2.841190 1_556
Re1 Ta1 2.841190 1_565
Re1 Re3 2.908712 1_566
Re1 Re2 2.908713 1_555
Re1 Ta3 3.027637 1_566
Re1 Ta2 3.027637 1_555
Re2 Si0 2.406191 1_555
Re2 Si1 2.434612 1_566
Re2 Si2 2.502576 1_555
Re2 Si5 2.510102 1_455
Re2 Ta0 2.756032 1_455
Re2 Ta1 2.771902 1_565
Re2 Ta5 2.829973 1_566
Re2 Ta3 2.872139 1_455
Re2 Re3 2.947239 1_566
Re2 Re4 2.991411 1_565
Re2 Ta4 3.086132 1_555
Re2 Ta2 3.166092 1_555
Re3 Si1 2.406191 1_555
Re3 Si0 2.434612 1_544
Re3 Si3 2.502576 1_555
Re3 Si4 2.510102 1_555
Re3 Ta1 2.756032 1_555
Re3 Ta0 2.771903 1_545
Re3 Ta4 2.829973 1_544
Re3 Ta2 2.872142 1_555
Re3 Re5 2.991411 1_545
Re3 Ta5 3.086132 1_555
Re3 Ta3 3.166097 1_555
Re4 Si0 2.406185 1_555
Re4 Si1 2.434608 1_556
Re4 Si4 2.502576 1_555
Re4 Si3 2.510102 1_455
Re4 Ta0 2.756039 1_445
Re4 Ta1 2.771895 1_555
Re4 Ta5 2.829973 1_556
Re4 Ta3 2.872144 1_455
Re4 Re5 2.947239 1_556
Re4 Ta4 3.086132 1_555
Re4 Ta2 3.166088 1_555
Re5 Si1 2.406185 1_555
Re5 Si0 2.434608 1_554
Re5 Si5 2.502576 1_555
Re5 Si2 2.510102 1_555
Re5 Ta1 2.756039 1_565
Re5 Ta0 2.771895 1_555
Re5 Ta4 2.829973 1_554
Re5 Ta2 2.872146 1_555
Re5 Ta5 3.086132 1_555
Re5 Ta3 3.166093 1_555
Si0 Ta2 2.623932 1_555
Si0 Ta4 2.661043 1_555
Si0 Ta0 2.922962 1_556
Si1 Ta3 2.623936 1_555
Si1 Ta5 2.661043 1_555
Si1 Ta1 2.922962 1_554
Si2 Ta2 2.615264 1_555
Si2 Ta0 2.627713 1_455
Si2 Ta5 2.646915 1_555
Si2 Ta4 2.647649 1_554
Si2 Ta3 2.668846 1_455
Si2 Ta1 2.678832 1_565
Si3 Ta3 2.615267 1_555
Si3 Ta1 2.627713 1_555
Si3 Ta4 2.646915 1_655
Si3 Ta5 2.647649 1_656
Si3 Ta2 2.668851 1_555
Si3 Ta0 2.678832 1_545
Si4 Ta2 2.615259 1_555
Si4 Ta0 2.627722 1_445
Si4 Ta5 2.646914 1_555
Si4 Ta4 2.647650 1_544
Si4 Ta3 2.668851 1_455
Si4 Ta1 2.678823 1_555
Si5 Ta3 2.615263 1_555
Si5 Ta1 2.627722 1_565
Si5 Ta4 2.646915 1_655
Si5 Ta5 2.647650 1_666
Si5 Ta2 2.668856 1_555
Si5 Ta0 2.678823 1_555
