# generated using pymatgen
data_La6YbSe10
_symmetry_space_group_name_H-M   'P 1'
_cell_length_a   7.85502400
_cell_length_b   7.85731151
_cell_length_c   32.39960565
_cell_angle_alpha   94.74700598
_cell_angle_beta   94.49210316
_cell_angle_gamma   109.53406810
_symmetry_Int_Tables_number   1
_chemical_formula_structural   La6YbSe10
_chemical_formula_sum   'La24 Yb4 Se40'
_cell_volume   1866.12471205
_cell_formula_units_Z   4
loop_
 _symmetry_equiv_pos_site_id
 _symmetry_equiv_pos_as_xyz
  1  'x, y, z'
loop_
 _atom_site_type_symbol
 _atom_site_label
 _atom_site_symmetry_multiplicity
 _atom_site_fract_x
 _atom_site_fract_y
 _atom_site_fract_z
 _atom_site_occupancy
  La  La0  1  0.99339200  0.37689500  0.12698700  1
  La  La1  1  0.52123100  0.39811800  0.07557100  1
  La  La2  1  0.40274000  0.78704600  0.32221900  1
  La  La3  1  0.18692700  0.93082900  0.15167600  1
  La  La4  1  0.60035500  0.72206700  0.17737800  1
  La  La5  1  0.92779000  0.80061600  0.27452100  1
  La  La6  1  0.79346700  0.17656800  0.52714500  1
  La  La7  1  0.71939200  0.97087900  0.04837800  1
  La  La8  1  0.99671200  0.12077700  0.37559800  1
  La  La9  1  0.57921500  0.32429900  0.34755000  1
  La  La10  1  0.32206900  0.19918000  0.47547300  1
  La  La11  1  0.12215300  0.37024300  0.24854100  1
  La  La12  1  0.20263900  0.58659800  0.72258000  1
  La  La13  1  0.40007400  0.52176200  0.57777500  1
  La  La14  1  0.98703900  0.73082000  0.55190100  1
  La  La15  1  0.72758400  0.60053000  0.67477800  1
  La  La16  1  0.52093000  0.77019500  0.44935400  1
  La  La17  1  0.79666000  0.92119300  0.77590200  1
  La  La18  1  0.37884700  0.12346600  0.74778100  1
  La  La19  1  0.12506500  0.99991500  0.87539400  1
  La  La20  1  0.92201500  0.17001100  0.64873600  1
  La  La21  1  0.19861400  0.32302200  0.97564500  1
  La  La22  1  0.77661900  0.52476500  0.94927800  1
  La  La23  1  0.32492000  0.57519800  0.85021200  1
  Yb  Yb0  1  0.17730300  0.80166300  0.02420200  1
  Yb  Yb1  1  0.97406600  0.59812400  0.42496600  1
  Yb  Yb2  1  0.77417700  0.39601900  0.82553500  1
  Yb  Yb3  1  0.59940800  0.97809700  0.92449700  1
  Se  Se0  1  0.84362700  0.70077800  0.10036500  1
  Se  Se1  1  0.34376700  0.70045300  0.09824000  1
  Se  Se2  1  0.91158400  0.41656600  0.02921100  1
  Se  Se3  1  0.24303500  0.09953000  0.30185500  1
  Se  Se4  1  0.61275000  0.10701000  0.12664100  1
  Se  Se5  1  0.33685500  0.34460000  0.16795200  1
  Se  Se6  1  0.75825500  0.09746100  0.30118000  1
  Se  Se7  1  0.90847400  0.04657000  0.19930800  1
  Se  Se8  1  0.30659100  0.80389200  0.23116500  1
  Se  Se9  1  0.13601600  0.14216300  0.07063600  1
  Se  Se10  1  0.64366300  0.49992500  0.50075800  1
  Se  Se11  1  0.01283700  0.50983100  0.32932300  1
  Se  Se12  1  0.74454900  0.73441200  0.37107400  1
  Se  Se13  1  0.14429200  0.50032200  0.49821300  1
  Se  Se14  1  0.30248500  0.44596600  0.39922000  1
  Se  Se15  1  0.04268300  0.89898200  0.70218000  1
  Se  Se16  1  0.54139000  0.54987300  0.27151600  1
  Se  Se17  1  0.90286000  0.55892700  0.20013400  1
  Se  Se18  1  0.41244900  0.90771100  0.52702100  1
  Se  Se19  1  0.13703400  0.14498400  0.56797200  1
  Se  Se20  1  0.55796600  0.89700700  0.70127900  1
  Se  Se21  1  0.70865200  0.84650800  0.59942500  1
  Se  Se22  1  0.70883000  0.21539200  0.42939200  1
  Se  Se23  1  0.44579600  0.30196400  0.90029200  1
  Se  Se24  1  0.93617500  0.94112100  0.47090200  1
  Se  Se25  1  0.29614500  0.94445000  0.40067600  1
  Se  Se26  1  0.81282400  0.30981800  0.72944200  1
  Se  Se27  1  0.54448600  0.53457200  0.77173400  1
  Se  Se28  1  0.94475500  0.29606300  0.89978400  1
  Se  Se29  1  0.10286700  0.24634000  0.79969300  1
  Se  Se30  1  0.10647500  0.60382100  0.63128400  1
  Se  Se31  1  0.34134900  0.34994300  0.67167300  1
  Se  Se32  1  0.70296700  0.35876800  0.60023700  1
  Se  Se33  1  0.21640500  0.71173200  0.92935400  1
  Se  Se34  1  0.94712500  0.93895100  0.97045800  1
  Se  Se35  1  0.50146800  0.64401100  0.99984800  1
  Se  Se36  1  0.50819500  0.01555200  0.82913900  1
  Se  Se37  1  0.73872900  0.74660700  0.87130500  1
  Se  Se38  1  0.09586300  0.74319200  0.80117200  1
  Se  Se39  1  0.49632500  0.14533900  0.99937600  1
loop_
_geom_bond_atom_site_label_1
_geom_bond_atom_site_label_2
_geom_bond_distance
_geom_bond_site_symmetry_2
La0 Se17 2.924234 1_555
La0 Se5 3.009543 1_655
La0 Se9 3.022415 1_655
La0 Se4 3.031093 1_555
La0 Se2 3.244106 1_555
La0 Se0 3.287944 1_555
La0 Se1 3.319601 1_655
La0 Se7 3.572883 1_555
La1 Se0 2.837540 1_555
La1 Se39 2.988393 1_554
La1 Se9 3.004588 1_555
La1 Se4 3.166421 1_555
La1 Se1 3.195609 1_555
La1 Se35 3.271323 1_554
La1 Se5 3.422442 1_555
La1 Se2 3.484133 1_555
La2 Se16 2.913485 1_555
La2 Se8 3.012236 1_555
La2 Se25 3.032804 1_555
La2 Se11 3.147972 1_555
La2 Se12 3.173407 1_555
La2 Se6 3.198515 1_565
La2 Se3 3.199332 1_565
La2 Se14 3.745592 1_555
La3 Se0 2.973828 1_455
La3 Se1 3.016375 1_555
La3 Se8 3.030502 1_555
La3 Se5 3.048501 1_565
La3 Se7 3.101518 1_465
La3 Se9 3.288248 1_565
La3 Se4 3.358071 1_565
La3 Se17 3.595912 1_455
La4 Se7 2.857914 1_565
La4 Se5 2.969784 1_555
La4 Se1 3.091104 1_555
La4 Se17 3.122795 1_555
La4 Se8 3.195546 1_555
La4 Se0 3.285892 1_555
La4 Se16 3.439916 1_555
La4 Se4 3.537108 1_565
La5 Se3 2.802729 1_665
La5 Se17 2.893636 1_555
La5 Se16 3.004399 1_555
La5 Se6 3.143796 1_565
La5 Se11 3.213336 1_655
La5 Se7 3.257865 1_565
La5 Se8 3.381853 1_655
La5 Se12 3.549992 1_555
La6 Se32 2.923375 1_555
La6 Se19 3.006239 1_655
La6 Se24 3.024638 1_545
La6 Se18 3.031298 1_545
La6 Se22 3.245250 1_555
La6 Se10 3.282079 1_555
La6 Se13 3.324947 1_655
La6 Se21 3.570421 1_545
La7 Se35 2.822888 1_554
La7 Se4 2.959480 1_565
La7 Se39 3.000090 1_564
La7 Se9 3.092816 1_665
La7 Se0 3.164263 1_555
La7 Se34 3.246398 1_554
La7 Se2 3.449558 1_565
La7 Se1 3.598986 1_555
La8 Se14 2.857902 1_655
La8 Se6 2.888851 1_555
La8 Se12 3.003423 1_545
La8 Se25 3.190293 1_645
La8 Se22 3.198607 1_555
La8 Se3 3.217799 1_655
La8 Se11 3.483972 1_655
La8 Se24 3.500843 1_545
La9 Se3 2.849612 1_555
La9 Se6 2.995952 1_555
La9 Se12 3.048138 1_555
La9 Se22 3.055382 1_555
La9 Se14 3.183757 1_555
La9 Se16 3.202900 1_555
La9 Se11 3.348511 1_655
La10 Se10 2.828418 1_555
La10 Se25 2.961016 1_545
La10 Se24 3.015177 1_445
La10 Se18 3.173770 1_545
La10 Se13 3.189653 1_555
La10 Se14 3.289411 1_555
La10 Se19 3.428573 1_555
La10 Se22 3.458038 1_555
La11 Se7 2.807863 1_455
La11 Se17 3.048666 1_455
La11 Se11 3.049145 1_555
La11 Se16 3.118443 1_555
La11 Se3 3.179886 1_555
La11 Se5 3.245363 1_555
La11 Se8 3.342121 1_555
La11 Se6 3.597883 1_455
La12 Se31 2.914442 1_555
La12 Se30 3.020432 1_555
La12 Se38 3.034365 1_555
La12 Se26 3.144572 1_455
La12 Se27 3.175800 1_555
La12 Se15 3.200140 1_555
La12 Se20 3.200490 1_555
La12 Se29 3.743678 1_555
La13 Se21 2.859979 1_555
La13 Se19 2.964010 1_555
La13 Se13 3.098482 1_555
La13 Se32 3.122703 1_555
La13 Se30 3.189936 1_555
La13 Se10 3.288425 1_555
La13 Se31 3.431307 1_555
La13 Se18 3.544431 1_555
La14 Se10 2.973566 1_555
La14 Se13 3.023704 1_655
La14 Se30 3.027185 1_655
La14 Se19 3.051007 1_665
La14 Se21 3.099030 1_555
La14 Se24 3.282101 1_555
La14 Se18 3.354012 1_655
La14 Se32 3.594501 1_555
La15 Se15 2.800585 1_655
La15 Se32 2.898354 1_555
La15 Se31 3.002665 1_555
La15 Se20 3.140501 1_555
La15 Se26 3.210814 1_555
La15 Se21 3.261032 1_555
La15 Se30 3.384637 1_655
La15 Se27 3.561436 1_555
La16 Se14 2.833380 1_555
La16 Se18 2.954209 1_555
La16 Se25 3.002930 1_555
La16 Se24 3.080394 1_555
La16 Se10 3.148944 1_555
La16 Se12 3.241460 1_555
La16 Se22 3.450281 1_565
La16 Se13 3.584552 1_555
La17 Se29 2.860189 1_665
La17 Se20 2.893557 1_555
La17 Se27 3.006052 1_555
La17 Se36 3.191101 1_565
La17 Se38 3.199436 1_655
La17 Se15 3.217128 1_655
La17 Se26 3.483905 1_565
La17 Se37 3.485389 1_555
La18 Se15 2.847725 1_545
La18 Se20 2.996372 1_545
La18 Se36 3.037454 1_555
La18 Se27 3.057060 1_555
La18 Se29 3.187866 1_555
La18 Se31 3.208879 1_555
La18 Se26 3.352753 1_555
La19 Se23 2.827842 1_565
La19 Se38 2.950545 1_555
La19 Se37 3.007064 1_455
La19 Se28 3.181195 1_465
La19 Se33 3.200576 1_555
La19 Se29 3.277174 1_565
La19 Se36 3.436245 1_565
La19 Se34 3.484325 1_455
La20 Se21 2.807491 1_545
La20 Se26 3.047249 1_555
La20 Se32 3.049279 1_555
La20 Se31 3.119162 1_655
La20 Se15 3.183525 1_645
La20 Se19 3.250814 1_655
La20 Se30 3.343970 1_655
La20 Se20 3.597458 1_545
La21 Se35 2.829017 1_555
La21 Se34 2.985798 1_445
La21 Se28 2.987626 1_455
La21 Se39 3.176213 1_555
La21 Se2 3.185217 1_456
La21 Se23 3.263166 1_555
La21 Se33 3.478903 1_555
La21 Se9 3.496701 1_556
La22 Se23 2.861529 1_555
La22 Se28 2.997804 1_555
La22 Se2 3.015095 1_556
La22 Se34 3.070398 1_555
La22 Se35 3.144603 1_555
La22 Se37 3.235285 1_555
La22 Se33 3.408977 1_655
La22 Se39 3.652583 1_555
La23 Se29 2.870015 1_555
La23 Se33 2.991822 1_555
La23 Se38 2.998619 1_555
La23 Se37 3.068987 1_555
La23 Se23 3.137161 1_555
La23 Se27 3.234553 1_555
La23 Se36 3.424062 1_565
La23 Se28 3.641678 1_455
Se0 Yb0 3.678989 1_655
Se1 Yb0 2.935336 1_555
Se2 Yb0 3.073983 1_655
Se9 Yb0 3.084939 1_545
Se10 Yb1 3.651566 1_555
Se11 Yb1 3.179602 1_455
Se12 Yb1 2.924598 1_555
Se13 Yb1 2.915874 1_455
Se14 Yb1 3.318850 1_455
Se22 Yb1 3.055008 1_555
Se23 Yb3 3.283601 1_545
Se23 Yb2 3.614742 1_555
Se24 Yb1 3.083632 1_555
Se25 Yb1 3.238407 1_455
Se26 Yb2 3.190696 1_555
Se27 Yb2 2.934940 1_555
Se28 Yb2 2.951403 1_555
Se28 Yb3 3.221924 1_545
Se29 Yb2 3.310052 1_455
Se33 Yb3 3.061711 1_555
Se33 Yb0 3.157656 1_556
Se34 Yb0 2.930318 1_656
Se34 Yb3 3.126136 1_555
Se35 Yb0 3.301980 1_556
Se35 Yb3 3.667033 1_555
Se36 Yb2 3.038876 1_555
Se36 Yb3 3.176491 1_545
Se37 Yb3 2.929822 1_555
Se37 Yb2 3.125119 1_555
Se38 Yb2 3.241686 1_455
Se39 Yb3 2.959690 1_545
Se39 Yb0 3.220031 1_546
