# generated using pymatgen
data_AlSb5Se5Cl4
_symmetry_space_group_name_H-M   'P 1'
_cell_length_a   9.70191800
_cell_length_b   9.83934008
_cell_length_c   11.94593014
_cell_angle_alpha   104.07211943
_cell_angle_beta   110.25561752
_cell_angle_gamma   99.74144250
_symmetry_Int_Tables_number   1
_chemical_formula_structural   AlSb5Se5Cl4
_chemical_formula_sum   'Al2 Sb10 Se10 Cl8'
_cell_volume   996.69716414
_cell_formula_units_Z   2
loop_
 _symmetry_equiv_pos_site_id
 _symmetry_equiv_pos_as_xyz
  1  'x, y, z'
loop_
 _atom_site_type_symbol
 _atom_site_label
 _atom_site_symmetry_multiplicity
 _atom_site_fract_x
 _atom_site_fract_y
 _atom_site_fract_z
 _atom_site_occupancy
  Al  Al0  1  0.92579900  0.62323300  0.30045600  1
  Al  Al1  1  0.07420100  0.37676700  0.69954400  1
  Sb  Sb0  1  0.78067800  0.23257300  0.93904100  1
  Sb  Sb1  1  0.21932200  0.76742700  0.06095900  1
  Sb  Sb2  1  0.90482700  0.02523400  0.80872700  1
  Sb  Sb3  1  0.09517300  0.97476600  0.19127300  1
  Sb  Sb4  1  0.57830000  0.81404000  0.91528600  1
  Sb  Sb5  1  0.42170000  0.18596000  0.08471400  1
  Sb  Sb6  1  0.42478300  0.88054300  0.68529800  1
  Sb  Sb7  1  0.57521700  0.11945700  0.31470200  1
  Sb  Sb8  1  0.70226100  0.62258600  0.58480300  1
  Sb  Sb9  1  0.29773900  0.37741400  0.41519700  1
  Se  Se0  1  0.72040100  0.07830900  0.07649100  1
  Se  Se1  1  0.27959900  0.92169100  0.92350900  1
  Se  Se2  1  0.50181900  0.16208500  0.77296700  1
  Se  Se3  1  0.49818100  0.83791500  0.22703300  1
  Se  Se4  1  0.84492600  0.80616300  0.88900400  1
  Se  Se5  1  0.15507400  0.19383700  0.11099600  1
  Se  Se6  1  0.64290000  0.88919400  0.59579600  1
  Se  Se7  1  0.35710000  0.11080600  0.40420400  1
  Se  Se8  1  0.49554600  0.51445800  0.65516000  1
  Se  Se9  1  0.50445400  0.48554200  0.34484000  1
  Cl  Cl0  1  0.16125000  0.67430000  0.31676000  1
  Cl  Cl1  1  0.83875000  0.32570000  0.68324000  1
  Cl  Cl2  1  0.90500400  0.79479200  0.43905000  1
  Cl  Cl3  1  0.09499600  0.20520800  0.56095000  1
  Cl  Cl4  1  0.87630800  0.41488500  0.32960000  1
  Cl  Cl5  1  0.12369200  0.58511500  0.67040000  1
  Cl  Cl6  1  0.77259000  0.60672400  0.11409800  1
  Cl  Cl7  1  0.22741000  0.39327600  0.88590200  1
loop_
_geom_bond_atom_site_label_1
_geom_bond_atom_site_label_2
_geom_bond_distance
_geom_bond_site_symmetry_2
Al0 Cl2 2.149127 1_555
Al0 Cl6 2.154773 1_555
Al0 Cl4 2.164257 1_555
Al0 Cl0 2.182769 1_655
Al1 Cl3 2.149127 1_555
Al1 Cl7 2.154773 1_555
Al1 Cl5 2.164257 1_555
Al1 Cl1 2.182769 1_455
Sb0 Se2 2.591504 1_555
Sb0 Se0 2.630284 1_556
Sb1 Se3 2.591504 1_555
Sb1 Se1 2.630284 1_554
Sb2 Se4 2.621224 1_545
Sb2 Se6 2.727093 1_545
Sb3 Se5 2.621224 1_565
Sb3 Se7 2.727093 1_565
Sb4 Se0 2.623722 1_566
Sb4 Se4 2.722938 1_555
Sb5 Se1 2.623722 1_544
Sb5 Se5 2.722938 1_555
Sb6 Se2 2.583780 1_565
Sb6 Se6 2.679262 1_555
Sb7 Se3 2.583780 1_545
Sb7 Se7 2.679262 1_555
Sb8 Se8 2.596226 1_555
Sb8 Se9 2.674684 1_555
Sb8 Se6 2.761602 1_555
Sb9 Se9 2.596226 1_555
Sb9 Se8 2.674684 1_555
Sb9 Se7 2.761602 1_555
