# generated using pymatgen
data_MgBi
_symmetry_space_group_name_H-M   'P 1'
_cell_length_a   5.78188423
_cell_length_b   5.78188423
_cell_length_c   5.67553023
_cell_angle_alpha   78.11191798
_cell_angle_beta   78.11191798
_cell_angle_gamma   66.57149107
_symmetry_Int_Tables_number   1
_chemical_formula_structural   MgBi
_chemical_formula_sum   'Mg3 Bi3'
_cell_volume   168.72293295
_cell_formula_units_Z   3
loop_
 _symmetry_equiv_pos_site_id
 _symmetry_equiv_pos_as_xyz
  1  'x, y, z'
loop_
 _atom_site_type_symbol
 _atom_site_label
 _atom_site_symmetry_multiplicity
 _atom_site_fract_x
 _atom_site_fract_y
 _atom_site_fract_z
 _atom_site_occupancy
  Mg  Mg0  1  0.63293700  0.02299800  0.02314500  1
  Mg  Mg1  1  0.97700200  0.36706300  0.97685500  1
  Mg  Mg2  1  0.54099200  0.45900800  0.50000000  1
  Bi  Bi0  1  0.37147800  0.62852200  0.00000000  1
  Bi  Bi1  1  0.16303000  0.18544200  0.47844600  1
  Bi  Bi2  1  0.81455800  0.83697000  0.52155400  1
loop_
_geom_bond_atom_site_label_1
_geom_bond_atom_site_label_2
_geom_bond_distance
_geom_bond_site_symmetry_2
Mg0 Mg1 3.271143 1_554
Mg0 Mg2 3.457499 1_554
Mg0 Mg1 3.550418 1_544
Mg0 Mg1 3.550418 1_454
Mg1 Mg2 3.457499 1_556
Bi0 Mg2 3.034840 1_555
Bi0 Mg2 3.034840 1_554
Bi0 Mg1 3.200567 1_554
Bi0 Mg0 3.200567 1_555
Bi0 Mg0 3.232923 1_565
Bi0 Mg1 3.232923 1_454
Bi1 Mg1 3.055077 1_455
Bi1 Mg1 3.081490 1_454
Bi1 Mg2 3.198606 1_555
Bi1 Mg2 3.290396 1_455
Bi1 Bi2 3.316756 1_445
Bi1 Mg0 3.319567 1_555
Bi1 Bi2 3.528616 1_545
Bi1 Bi2 3.528616 1_455
Bi2 Mg0 3.055077 1_565
Bi2 Mg0 3.081490 1_566
Bi2 Mg2 3.198606 1_555
Bi2 Mg2 3.290396 1_565
Bi2 Mg1 3.319567 1_555
