# generated using pymatgen
data_Fe4Bi2O9
_symmetry_space_group_name_H-M   'P 1'
_cell_length_a   8.05363200
_cell_length_b   8.62457700
_cell_length_c   12.26096800
_cell_angle_alpha   90.00000000
_cell_angle_beta   90.00000000
_cell_angle_gamma   90.00000000
_symmetry_Int_Tables_number   1
_chemical_formula_structural   Fe4Bi2O9
_chemical_formula_sum   'Fe16 Bi8 O36'
_cell_volume   851.63665226
_cell_formula_units_Z   4
loop_
 _symmetry_equiv_pos_site_id
 _symmetry_equiv_pos_as_xyz
  1  'x, y, z'
loop_
 _atom_site_type_symbol
 _atom_site_label
 _atom_site_symmetry_multiplicity
 _atom_site_fract_x
 _atom_site_fract_y
 _atom_site_fract_z
 _atom_site_occupancy
  Fe  Fe0  1  0.50629900  0.50160400  0.12828000  1
  Fe  Fe1  1  0.99370100  0.00160400  0.37172000  1
  Fe  Fe2  1  0.49370100  0.49839600  0.62828000  1
  Fe  Fe3  1  0.00629900  0.99839600  0.87172000  1
  Fe  Fe4  1  0.49370100  0.49839600  0.87172000  1
  Fe  Fe5  1  0.00629900  0.99839600  0.62828000  1
  Fe  Fe6  1  0.50629900  0.50160400  0.37172000  1
  Fe  Fe7  1  0.99370100  0.00160400  0.12828000  1
  Fe  Fe8  1  0.35150400  0.83917300  0.25000000  1
  Fe  Fe9  1  0.14849600  0.33917300  0.25000000  1
  Fe  Fe10  1  0.64849600  0.16082700  0.75000000  1
  Fe  Fe11  1  0.85150400  0.66082700  0.75000000  1
  Fe  Fe12  1  0.85824600  0.67393900  0.25000000  1
  Fe  Fe13  1  0.64175400  0.17393900  0.25000000  1
  Fe  Fe14  1  0.14175400  0.32606100  0.75000000  1
  Fe  Fe15  1  0.35824600  0.82606100  0.75000000  1
  Bi  Bi0  1  0.17823000  0.67692600  0.00709600  1
  Bi  Bi1  1  0.32177000  0.17692600  0.49290400  1
  Bi  Bi2  1  0.82177000  0.32307400  0.50709600  1
  Bi  Bi3  1  0.67823000  0.82307400  0.99290400  1
  Bi  Bi4  1  0.82177000  0.32307400  0.99290400  1
  Bi  Bi5  1  0.67823000  0.82307400  0.50709600  1
  Bi  Bi6  1  0.17823000  0.67692600  0.49290400  1
  Bi  Bi7  1  0.32177000  0.17692600  0.00709600  1
  O  O0  1  0.15195500  0.93356700  0.00362300  1
  O  O1  1  0.34804500  0.43356700  0.49637700  1
  O  O2  1  0.84804500  0.06643300  0.50362300  1
  O  O3  1  0.65195500  0.56643300  0.99637700  1
  O  O4  1  0.84804500  0.06643300  0.99637700  1
  O  O5  1  0.65195500  0.56643300  0.50362300  1
  O  O6  1  0.15195500  0.93356700  0.49637700  1
  O  O7  1  0.34804500  0.43356700  0.00362300  1
  O  O8  1  0.12373200  0.90008800  0.25000000  1
  O  O9  1  0.37626800  0.40008800  0.25000000  1
  O  O10  1  0.87626800  0.09991200  0.75000000  1
  O  O11  1  0.62373200  0.59991200  0.75000000  1
  O  O12  1  0.63998000  0.59207700  0.25000000  1
  O  O13  1  0.86002000  0.09207700  0.25000000  1
  O  O14  1  0.36002000  0.40792300  0.75000000  1
  O  O15  1  0.13998000  0.90792300  0.75000000  1
  O  O16  1  0.37772300  0.70958700  0.12223400  1
  O  O17  1  0.12227700  0.20958700  0.37776600  1
  O  O18  1  0.62227700  0.29041300  0.62223400  1
  O  O19  1  0.87772300  0.79041300  0.87776600  1
  O  O20  1  0.62227700  0.29041300  0.87776600  1
  O  O21  1  0.87772300  0.79041300  0.62223400  1
  O  O22  1  0.37772300  0.70958700  0.37776600  1
  O  O23  1  0.12227700  0.20958700  0.12223400  1
  O  O24  1  0.86247800  0.79798700  0.11873400  1
  O  O25  1  0.63752200  0.29798700  0.38126600  1
  O  O26  1  0.13752200  0.20201300  0.61873400  1
  O  O27  1  0.36247800  0.70201300  0.88126600  1
  O  O28  1  0.13752200  0.20201300  0.88126600  1
  O  O29  1  0.36247800  0.70201300  0.61873400  1
  O  O30  1  0.86247800  0.79798700  0.38126600  1
  O  O31  1  0.63752200  0.29798700  0.11873400  1
  O  O32  1  0.48252900  0.01662000  0.25000000  1
  O  O33  1  0.01747100  0.51662000  0.25000000  1
  O  O34  1  0.51747100  0.98338000  0.75000000  1
  O  O35  1  0.98252900  0.48338000  0.75000000  1
loop_
_geom_bond_atom_site_label_1
_geom_bond_atom_site_label_2
_geom_bond_distance
_geom_bond_site_symmetry_2
Fe0 O12 1.998808 1_555
Fe0 O9 2.022499 1_555
Fe0 O31 2.052924 1_555
Fe0 O16 2.072524 1_555
Fe0 O3 2.074660 1_554
Fe0 O7 2.074796 1_555
Fe1 O13 1.998808 1_555
Fe1 O8 2.022499 1_645
Fe1 O30 2.052924 1_545
Fe1 O17 2.072524 1_655
Fe1 O2 2.074660 1_555
Fe1 O6 2.074796 1_645
Fe2 O14 1.998808 1_555
Fe2 O11 2.022499 1_555
Fe2 O29 2.052924 1_555
Fe2 O18 2.072524 1_555
Fe2 O1 2.074660 1_555
Fe2 O5 2.074796 1_555
Fe3 O15 1.998808 1_555
Fe3 O10 2.022499 1_465
Fe3 O28 2.052924 1_565
Fe3 O19 2.072524 1_455
Fe3 O0 2.074660 1_556
Fe3 O4 2.074796 1_465
Fe4 O14 1.998808 1_555
Fe4 O11 2.022499 1_555
Fe4 O27 2.052924 1_555
Fe4 O20 2.072524 1_555
Fe4 O7 2.074660 1_556
Fe4 O3 2.074796 1_555
Fe5 O15 1.998808 1_555
Fe5 O10 2.022499 1_465
Fe5 O26 2.052924 1_565
Fe5 O21 2.072524 1_455
Fe5 O6 2.074660 1_555
Fe5 O2 2.074796 1_465
Fe6 O12 1.998808 1_555
Fe6 O9 2.022499 1_555
Fe6 O25 2.052924 1_555
Fe6 O22 2.072524 1_555
Fe6 O5 2.074660 1_555
Fe6 O1 2.074796 1_555
Fe7 O13 1.998808 1_555
Fe7 O8 2.022499 1_645
Fe7 O24 2.052924 1_545
Fe7 O23 2.072524 1_655
Fe7 O4 2.074660 1_554
Fe7 O0 2.074796 1_645
Fe8 O32 1.858936 1_565
Fe8 O8 1.908141 1_555
Fe8 O22 1.935899 1_555
Fe8 O16 1.935899 1_555
Fe9 O33 1.858936 1_555
Fe9 O9 1.908141 1_555
Fe9 O23 1.935899 1_555
Fe9 O17 1.935899 1_555
Fe10 O34 1.858936 1_545
Fe10 O10 1.908141 1_555
Fe10 O18 1.935899 1_555
Fe10 O20 1.935899 1_555
Fe11 O35 1.858936 1_555
Fe11 O11 1.908141 1_555
Fe11 O19 1.935899 1_555
Fe11 O21 1.935899 1_555
Fe12 O33 1.866903 1_655
Fe12 O12 1.894321 1_555
Fe12 O30 1.932897 1_555
Fe12 O24 1.932897 1_555
Fe13 O32 1.866903 1_555
Fe13 O13 1.894321 1_555
Fe13 O25 1.932897 1_555
Fe13 O31 1.932897 1_555
Fe14 O35 1.866903 1_455
Fe14 O14 1.894321 1_555
Fe14 O26 1.932897 1_555
Fe14 O28 1.932897 1_555
Fe15 O34 1.866903 1_555
Fe15 O15 1.894321 1_555
Fe15 O27 1.932897 1_555
Fe15 O29 1.932897 1_555
Bi0 O27 2.151487 1_554
Bi0 O16 2.157210 1_555
Bi0 O0 2.223920 1_555
Bi0 O7 2.505487 1_555
Bi1 O26 2.151487 1_555
Bi1 O17 2.157210 1_555
Bi1 O1 2.223920 1_555
Bi1 O6 2.505487 1_545
Bi2 O25 2.151487 1_555
Bi2 O18 2.157210 1_555
Bi2 O2 2.223920 1_555
Bi2 O5 2.505487 1_555
Bi3 O24 2.151487 1_556
Bi3 O19 2.157210 1_555
Bi3 O3 2.223920 1_555
Bi3 O4 2.505487 1_565
Bi4 O31 2.151487 1_556
Bi4 O20 2.157210 1_555
Bi4 O4 2.223920 1_555
Bi4 O3 2.505487 1_555
Bi5 O30 2.151487 1_555
Bi5 O21 2.157210 1_555
Bi5 O5 2.223920 1_555
Bi5 O2 2.505487 1_565
Bi6 O29 2.151487 1_555
Bi6 O22 2.157210 1_555
Bi6 O6 2.223920 1_555
Bi6 O1 2.505487 1_555
Bi7 O28 2.151487 1_554
Bi7 O23 2.157210 1_555
Bi7 O7 2.223920 1_555
Bi7 O0 2.505487 1_545
