# generated using pymatgen
data_Mn2V3(AgO4)3
_symmetry_space_group_name_H-M   'P 1'
_cell_length_a   10.99514686
_cell_length_b   10.99514686
_cell_length_c   10.99514686
_cell_angle_alpha   109.47122063
_cell_angle_beta   109.47122063
_cell_angle_gamma   109.47122063
_symmetry_Int_Tables_number   1
_chemical_formula_structural   Mn2V3(AgO4)3
_chemical_formula_sum   'Mn8 V12 Ag12 O48'
_cell_volume   1023.24872679
_cell_formula_units_Z   4
loop_
 _symmetry_equiv_pos_site_id
 _symmetry_equiv_pos_as_xyz
  1  'x, y, z'
loop_
 _atom_site_type_symbol
 _atom_site_label
 _atom_site_symmetry_multiplicity
 _atom_site_fract_x
 _atom_site_fract_y
 _atom_site_fract_z
 _atom_site_occupancy
  Mn  Mn0  1  0.00000000  0.00000000  0.00000000  1
  Mn  Mn1  1  0.50000000  0.00000000  0.50000000  1
  Mn  Mn2  1  0.00000000  0.50000000  0.50000000  1
  Mn  Mn3  1  0.50000000  0.00000000  0.00000000  1
  Mn  Mn4  1  0.50000000  0.50000000  0.00000000  1
  Mn  Mn5  1  0.50000000  0.50000000  0.50000000  1
  Mn  Mn6  1  0.00000000  0.00000000  0.50000000  1
  Mn  Mn7  1  0.00000000  0.50000000  0.00000000  1
  V  V0  1  0.25000000  0.62500000  0.37500000  1
  V  V1  1  0.75000000  0.37500000  0.62500000  1
  V  V2  1  0.75000000  0.87500000  0.12500000  1
  V  V3  1  0.37500000  0.25000000  0.62500000  1
  V  V4  1  0.62500000  0.75000000  0.37500000  1
  V  V5  1  0.25000000  0.12500000  0.87500000  1
  V  V6  1  0.12500000  0.75000000  0.87500000  1
  V  V7  1  0.87500000  0.25000000  0.12500000  1
  V  V8  1  0.62500000  0.37500000  0.25000000  1
  V  V9  1  0.37500000  0.62500000  0.75000000  1
  V  V10  1  0.87500000  0.12500000  0.75000000  1
  V  V11  1  0.12500000  0.87500000  0.25000000  1
  Ag  Ag0  1  0.25000000  0.37500000  0.12500000  1
  Ag  Ag1  1  0.75000000  0.62500000  0.87500000  1
  Ag  Ag2  1  0.75000000  0.12500000  0.37500000  1
  Ag  Ag3  1  0.12500000  0.25000000  0.37500000  1
  Ag  Ag4  1  0.37500000  0.75000000  0.12500000  1
  Ag  Ag5  1  0.25000000  0.87500000  0.62500000  1
  Ag  Ag6  1  0.87500000  0.75000000  0.62500000  1
  Ag  Ag7  1  0.62500000  0.25000000  0.87500000  1
  Ag  Ag8  1  0.37500000  0.12500000  0.25000000  1
  Ag  Ag9  1  0.62500000  0.87500000  0.75000000  1
  Ag  Ag10  1  0.12500000  0.37500000  0.75000000  1
  Ag  Ag11  1  0.87500000  0.62500000  0.25000000  1
  O  O0  1  0.49290700  0.39286800  0.30018700  1
  O  O1  1  0.50709300  0.60713200  0.69981300  1
  O  O2  1  0.59268100  0.19272000  0.19981300  1
  O  O3  1  0.90731900  0.10713200  0.60003800  1
  O  O4  1  0.30018700  0.49290700  0.39286800  1
  O  O5  1  0.30728000  0.90731900  0.30018700  1
  O  O6  1  0.40731900  0.80728000  0.80018700  1
  O  O7  1  0.09268100  0.89286800  0.39996200  1
  O  O8  1  0.69981300  0.50709300  0.60713200  1
  O  O9  1  0.69272000  0.09268100  0.69981300  1
  O  O10  1  0.00709300  0.30728000  0.89996200  1
  O  O11  1  0.19981300  0.59268100  0.19272000  1
  O  O12  1  0.10713200  0.00709300  0.19981300  1
  O  O13  1  0.99290700  0.69272000  0.10003800  1
  O  O14  1  0.80018700  0.40731900  0.80728000  1
  O  O15  1  0.89286800  0.99290700  0.80018700  1
  O  O16  1  0.60003800  0.90731900  0.10713200  1
  O  O17  1  0.19272000  0.49290700  0.60003800  1
  O  O18  1  0.39996200  0.09268100  0.89286800  1
  O  O19  1  0.80728000  0.50709300  0.39996200  1
  O  O20  1  0.89996200  0.00709300  0.30728000  1
  O  O21  1  0.39286800  0.59268100  0.89996200  1
  O  O22  1  0.10003800  0.99290700  0.69272000  1
  O  O23  1  0.60713200  0.40731900  0.10003800  1
  O  O24  1  0.39286800  0.30018700  0.49290700  1
  O  O25  1  0.59268100  0.89996200  0.39286800  1
  O  O26  1  0.60713200  0.69981300  0.50709300  1
  O  O27  1  0.40731900  0.10003800  0.60713200  1
  O  O28  1  0.10713200  0.60003800  0.90731900  1
  O  O29  1  0.00709300  0.19981300  0.10713200  1
  O  O30  1  0.89286800  0.39996200  0.09268100  1
  O  O31  1  0.99290700  0.80018700  0.89286800  1
  O  O32  1  0.30728000  0.89996200  0.00709300  1
  O  O33  1  0.90731900  0.30018700  0.30728000  1
  O  O34  1  0.69272000  0.10003800  0.99290700  1
  O  O35  1  0.09268100  0.69981300  0.69272000  1
  O  O36  1  0.19272000  0.19981300  0.59268100  1
  O  O37  1  0.49290700  0.60003800  0.19272000  1
  O  O38  1  0.80728000  0.80018700  0.40731900  1
  O  O39  1  0.50709300  0.39996200  0.80728000  1
  O  O40  1  0.30018700  0.30728000  0.90731900  1
  O  O41  1  0.69981300  0.69272000  0.09268100  1
  O  O42  1  0.19981300  0.10713200  0.00709300  1
  O  O43  1  0.80018700  0.89286800  0.99290700  1
  O  O44  1  0.89996200  0.39286800  0.59268100  1
  O  O45  1  0.10003800  0.60713200  0.40731900  1
  O  O46  1  0.60003800  0.19272000  0.49290700  1
  O  O47  1  0.39996200  0.80728000  0.50709300  1
loop_
_geom_bond_atom_site_label_1
_geom_bond_atom_site_label_2
_geom_bond_distance
_geom_bond_site_symmetry_2
Mn0 O42 2.078358 1_555
Mn0 O31 2.078358 1_444
Mn0 O15 2.078358 1_444
Mn0 O12 2.078358 1_555
Mn0 O43 2.078358 1_444
Mn0 O29 2.078358 1_555
Mn1 O27 2.078352 1_555
Mn1 O25 2.078352 1_545
Mn1 O47 2.078356 1_545
Mn1 O46 2.078356 1_555
Mn1 O9 2.078358 1_555
Mn1 O5 2.078358 1_545
Mn2 O44 2.078352 1_455
Mn2 O45 2.078352 1_555
Mn2 O19 2.078356 1_455
Mn2 O17 2.078356 1_555
Mn2 O33 2.078358 1_455
Mn2 O35 2.078358 1_555
Mn3 O18 2.078352 1_554
Mn3 O16 2.078352 1_545
Mn3 O34 2.078356 1_554
Mn3 O32 2.078356 1_545
Mn3 O2 2.078358 1_555
Mn3 O6 2.078358 1_544
Mn4 O23 2.078352 1_555
Mn4 O21 2.078352 1_554
Mn4 O37 2.078356 1_555
Mn4 O39 2.078356 1_554
Mn4 O40 2.078358 1_554
Mn4 O41 2.078358 1_555
Mn5 O8 2.078358 1_555
Mn5 O24 2.078358 1_555
Mn5 O0 2.078358 1_555
Mn5 O1 2.078358 1_555
Mn5 O26 2.078358 1_555
Mn5 O4 2.078358 1_555
Mn6 O7 2.078352 1_545
Mn6 O3 2.078352 1_455
Mn6 O20 2.078356 1_455
Mn6 O22 2.078356 1_545
Mn6 O38 2.078358 1_445
Mn6 O36 2.078358 1_555
Mn7 O30 2.078352 1_455
Mn7 O28 2.078352 1_554
Mn7 O10 2.078356 1_554
Mn7 O13 2.078356 1_455
Mn7 O11 2.078358 1_555
Mn7 O14 2.078358 1_454
Ag0 O42 2.560031 1_555
Ag0 O4 2.560031 1_555
Ag0 O40 2.560031 1_554
Ag0 O11 2.560031 1_555
Ag0 O37 2.617296 1_555
Ag0 O10 2.617296 1_554
Ag0 O0 2.617302 1_555
Ag0 O29 2.617302 1_555
Ag1 O41 2.560031 1_556
Ag1 O8 2.560031 1_555
Ag1 O43 2.560031 1_555
Ag1 O14 2.560031 1_555
Ag1 O39 2.617296 1_555
Ag1 O13 2.617296 1_556
Ag1 O31 2.617302 1_555
Ag1 O1 2.617302 1_555
Ag2 O44 2.560031 1_555
Ag2 O16 2.560031 1_545
Ag2 O46 2.560041 1_555
Ag2 O20 2.560041 1_555
Ag2 O3 2.617294 1_555
Ag2 O25 2.617294 1_545
Ag2 O2 2.617302 1_555
Ag2 O33 2.617302 1_555
Ag3 O33 2.560031 1_455
Ag3 O29 2.560031 1_555
Ag3 O36 2.560031 1_555
Ag3 O24 2.560031 1_555
Ag3 O20 2.617296 1_455
Ag3 O17 2.617296 1_555
Ag3 O4 2.617302 1_555
Ag3 O12 2.617302 1_555
Ag4 O28 2.560031 1_554
Ag4 O25 2.560031 1_555
Ag4 O37 2.560041 1_555
Ag4 O32 2.560041 1_555
Ag4 O16 2.617294 1_555
Ag4 O21 2.617294 1_554
Ag4 O5 2.617302 1_555
Ag4 O11 2.617302 1_555
Ag5 O45 2.560031 1_555
Ag5 O18 2.560031 1_565
Ag5 O47 2.560041 1_555
Ag5 O22 2.560041 1_555
Ag5 O7 2.617294 1_555
Ag5 O27 2.617294 1_565
Ag5 O6 2.617302 1_555
Ag5 O35 2.617302 1_555
Ag6 O26 2.560031 1_555
Ag6 O35 2.560031 1_655
Ag6 O31 2.560031 1_555
Ag6 O38 2.560031 1_555
Ag6 O19 2.617296 1_555
Ag6 O22 2.617296 1_655
Ag6 O15 2.617302 1_555
Ag6 O8 2.617302 1_555
Ag7 O27 2.560031 1_555
Ag7 O30 2.560031 1_556
Ag7 O34 2.560041 1_555
Ag7 O39 2.560041 1_555
Ag7 O18 2.617294 1_555
Ag7 O23 2.617294 1_556
Ag7 O9 2.617302 1_555
Ag7 O14 2.617302 1_555
Ag8 O5 2.560031 1_545
Ag8 O12 2.560031 1_555
Ag8 O2 2.560031 1_555
Ag8 O0 2.560031 1_555
Ag8 O46 2.617296 1_555
Ag8 O32 2.617296 1_545
Ag8 O24 2.617302 1_555
Ag8 O42 2.617302 1_555
Ag9 O6 2.560031 1_555
Ag9 O1 2.560031 1_555
Ag9 O9 2.560031 1_565
Ag9 O15 2.560031 1_555
Ag9 O47 2.617296 1_555
Ag9 O34 2.617296 1_565
Ag9 O26 2.617302 1_555
Ag9 O43 2.617302 1_555
Ag10 O21 2.560031 1_555
Ag10 O3 2.560031 1_455
Ag10 O10 2.560041 1_555
Ag10 O17 2.560041 1_555
Ag10 O44 2.617294 1_455
Ag10 O28 2.617294 1_555
Ag10 O40 2.617302 1_555
Ag10 O36 2.617302 1_555
Ag11 O7 2.560031 1_655
Ag11 O23 2.560031 1_555
Ag11 O13 2.560041 1_555
Ag11 O19 2.560041 1_555
Ag11 O30 2.617294 1_555
Ag11 O45 2.617294 1_655
Ag11 O38 2.617302 1_555
Ag11 O41 2.617302 1_555
O0 V8 1.762032 1_555
O1 V9 1.762032 1_555
O2 V8 1.762032 1_555
O3 V10 1.762042 1_555
O4 V0 1.762032 1_555
O5 V11 1.762032 1_555
O6 V9 1.762032 1_555
O7 V11 1.762042 1_555
O8 V1 1.762032 1_555
O9 V10 1.762032 1_555
O10 V10 1.762035 1_455
O11 V0 1.762032 1_555
O12 V11 1.762032 1_545
O13 V11 1.762035 1_655
O14 V1 1.762032 1_555
O15 V10 1.762032 1_565
O16 V2 1.762042 1_555
O17 V9 1.762035 1_555
O18 V5 1.762042 1_555
O19 V8 1.762035 1_555
O20 V2 1.762035 1_545
O21 V9 1.762042 1_555
O22 V5 1.762035 1_565
O23 V8 1.762042 1_555
O24 V3 1.762032 1_555
O25 V4 1.762042 1_555
O26 V4 1.762032 1_555
O27 V3 1.762042 1_555
O28 V6 1.762042 1_555
O29 V7 1.762032 1_455
O30 V7 1.762042 1_555
O31 V6 1.762032 1_655
O32 V6 1.762035 1_554
O33 V7 1.762032 1_555
O34 V7 1.762035 1_556
O35 V6 1.762032 1_555
O36 V3 1.762032 1_555
O37 V4 1.762035 1_555
O38 V4 1.762032 1_555
O39 V3 1.762035 1_555
O40 V5 1.762032 1_555
O41 V2 1.762032 1_555
O42 V5 1.762032 1_554
O43 V2 1.762032 1_556
O44 V1 1.762042 1_555
O45 V0 1.762042 1_555
O46 V1 1.762035 1_555
O47 V0 1.762035 1_555
