# generated using pymatgen
data_ThGeI6
_symmetry_space_group_name_H-M   'P 1'
_cell_length_a   7.57850984
_cell_length_b   7.57850984
_cell_length_c   13.99692100
_cell_angle_alpha   90.00000000
_cell_angle_beta   90.00000000
_cell_angle_gamma   119.99999862
_symmetry_Int_Tables_number   1
_chemical_formula_structural   ThGeI6
_chemical_formula_sum   'Th2 Ge2 I12'
_cell_volume   696.19481905
_cell_formula_units_Z   2
loop_
 _symmetry_equiv_pos_site_id
 _symmetry_equiv_pos_as_xyz
  1  'x, y, z'
loop_
 _atom_site_type_symbol
 _atom_site_label
 _atom_site_symmetry_multiplicity
 _atom_site_fract_x
 _atom_site_fract_y
 _atom_site_fract_z
 _atom_site_occupancy
  Th  Th0  1  0.00000000  0.00000000  0.50000000  1
  Th  Th1  1  0.00000000  0.00000000  0.00000000  1
  Ge  Ge0  1  0.66666700  0.33333300  0.75000000  1
  Ge  Ge1  1  0.33333300  0.66666700  0.25000000  1
  I  I0  1  0.66703400  0.00274400  0.62602600  1
  I  I1  1  0.33296600  0.99725600  0.37397400  1
  I  I2  1  0.99725600  0.66429000  0.62602600  1
  I  I3  1  0.66703400  0.66429000  0.87397400  1
  I  I4  1  0.00274400  0.33571000  0.37397400  1
  I  I5  1  0.33296600  0.33571000  0.12602600  1
  I  I6  1  0.33571000  0.33296600  0.62602600  1
  I  I7  1  0.99725600  0.33296600  0.87397400  1
  I  I8  1  0.66429000  0.66703400  0.37397400  1
  I  I9  1  0.00274400  0.66703400  0.12602600  1
  I  I10  1  0.33571000  0.00274400  0.87397400  1
  I  I11  1  0.66429000  0.99725600  0.12602600  1
loop_
_geom_bond_atom_site_label_1
_geom_bond_atom_site_label_2
_geom_bond_distance
_geom_bond_site_symmetry_2
Ge0 I7 3.048766 1_555
Ge0 I0 3.048766 1_555
Ge0 I10 3.048769 1_555
Ge0 I2 3.048769 1_555
Ge0 I3 3.048772 1_555
Ge0 I6 3.048772 1_555
Ge1 I1 3.048766 1_555
Ge1 I9 3.048766 1_555
Ge1 I11 3.048769 1_555
Ge1 I4 3.048769 1_555
Ge1 I5 3.048772 1_555
Ge1 I8 3.048772 1_555
I0 Th0 3.087393 1_655
I1 Th0 3.087393 1_565
I2 Th0 3.087393 1_665
I3 Th1 3.087393 1_666
I4 Th0 3.087393 1_555
I5 Th1 3.087393 1_555
I6 Th0 3.087393 1_555
I7 Th1 3.087393 1_656
I8 Th0 3.087393 1_665
I9 Th1 3.087393 1_565
I10 Th1 3.087393 1_556
I11 Th1 3.087393 1_665
