# generated using pymatgen
data_TaF5
_symmetry_space_group_name_H-M   'P 1'
_cell_length_a   5.55287300
_cell_length_b   5.56284404
_cell_length_c   7.90807226
_cell_angle_alpha   109.75574907
_cell_angle_beta   96.77085744
_cell_angle_gamma   110.36825696
_symmetry_Int_Tables_number   1
_chemical_formula_structural   TaF5
_chemical_formula_sum   'Ta2 F10'
_cell_volume   207.70382561
_cell_formula_units_Z   2
loop_
 _symmetry_equiv_pos_site_id
 _symmetry_equiv_pos_as_xyz
  1  'x, y, z'
loop_
 _atom_site_type_symbol
 _atom_site_label
 _atom_site_symmetry_multiplicity
 _atom_site_fract_x
 _atom_site_fract_y
 _atom_site_fract_z
 _atom_site_occupancy
  Ta  Ta0  1  0.00000000  0.00000000  0.00000000  1
  Ta  Ta1  1  0.50000000  0.00000000  0.50000000  1
  F  F0  1  0.68026000  0.93019000  0.24789300  1
  F  F1  1  0.31974000  0.06981000  0.75210700  1
  F  F2  1  0.40799800  0.24946200  0.38185300  1
  F  F3  1  0.13257500  0.78543600  0.11677000  1
  F  F4  1  0.22819200  0.29723200  0.05290000  1
  F  F5  1  0.85379600  0.27184400  0.44722500  1
  F  F6  1  0.77180800  0.70276800  0.94710000  1
  F  F7  1  0.14620400  0.72815600  0.55277500  1
  F  F8  1  0.86742500  0.21456400  0.88323000  1
  F  F9  1  0.59200200  0.75053800  0.61814700  1
loop_
_geom_bond_atom_site_label_1
_geom_bond_atom_site_label_2
_geom_bond_distance
_geom_bond_site_symmetry_2
F0 Ta1 2.311978 1_565
F1 Ta1 2.311978 1_555
F2 Ta1 2.077778 1_555
F3 Ta0 2.003940 1_565
F4 Ta0 1.569550 1_555
F5 Ta1 2.207381 1_555
F6 Ta0 1.569550 1_666
F7 Ta1 2.207381 1_565
F8 Ta0 2.003940 1_656
F9 Ta1 2.077778 1_565
