# generated using pymatgen
data_Ba2Ca2Tl2Cr3O10
_symmetry_space_group_name_H-M   'P 1'
_cell_length_a   3.92378000
_cell_length_b   3.93726183
_cell_length_c   19.15541512
_cell_angle_alpha   95.88812934
_cell_angle_beta   95.74454099
_cell_angle_gamma   90.05522557
_symmetry_Int_Tables_number   1
_chemical_formula_structural   Ba2Ca2Tl2Cr3O10
_chemical_formula_sum   'Ba2 Ca2 Tl2 Cr3 O10'
_cell_volume   292.87256178
_cell_formula_units_Z   1
loop_
 _symmetry_equiv_pos_site_id
 _symmetry_equiv_pos_as_xyz
  1  'x, y, z'
loop_
 _atom_site_type_symbol
 _atom_site_label
 _atom_site_symmetry_multiplicity
 _atom_site_fract_x
 _atom_site_fract_y
 _atom_site_fract_z
 _atom_site_occupancy
  Ba  Ba0  1  0.12283100  0.09359700  0.29011200  1
  Ba  Ba1  1  0.87809800  0.78780900  0.70944500  1
  Ca  Ca0  1  0.96799600  0.88145800  0.90569600  1
  Ca  Ca1  1  0.02803200  0.98820900  0.09275200  1
  Tl  Tl0  1  0.71911500  0.65193900  0.43989300  1
  Tl  Tl1  1  0.28700400  0.20901400  0.56015200  1
  Cr  Cr0  1  0.42858700  0.33677900  0.81388100  1
  Cr  Cr1  1  0.57028500  0.53843300  0.18524600  1
  Cr  Cr2  1  0.49188200  0.43023900  0.99955800  1
  O  O0  1  0.93806600  0.34413700  0.83157800  1
  O  O1  1  0.38223800  0.28652200  0.71290000  1
  O  O2  1  0.43799200  0.84730600  0.83548600  1
  O  O3  1  0.78869400  0.83206900  0.56668900  1
  O  O4  1  0.49182200  0.93246400  0.00625100  1
  O  O5  1  0.56137100  0.03031300  0.16838600  1
  O  O6  1  0.61750000  0.59068700  0.28562300  1
  O  O7  1  0.05817900  0.52497800  0.16207200  1
  O  O8  1  0.21555400  0.27061100  0.43229600  1
  O  O9  1  0.98775400  0.42452700  0.99294500  1
loop_
_geom_bond_atom_site_label_1
_geom_bond_atom_site_label_2
_geom_bond_distance
_geom_bond_site_symmetry_2
Ba0 O8 2.729057 1_555
Ba0 O6 2.768739 1_555
Ba0 O6 2.775140 1_545
Ba0 O6 2.788786 1_455
Ba0 O6 2.789809 1_445
Ba0 O5 3.024023 1_555
Ba0 O5 3.033774 1_455
Ba0 O7 3.113781 1_555
Ba0 O7 3.136856 1_545
Ba1 O3 2.745369 1_555
Ba1 O1 2.766221 1_565
Ba1 O1 2.777160 1_665
Ba1 O1 2.780391 1_555
Ba1 O1 2.796605 1_655
Ba1 O0 3.027203 1_565
Ba1 O0 3.051106 1_555
Ba1 O2 3.087324 1_655
Ba1 O2 3.096052 1_555
Ca0 O2 2.356717 1_555
Ca0 O2 2.384880 1_655
Ca0 O0 2.417798 1_565
Ca0 O0 2.419721 1_555
Ca0 O9 2.571320 1_565
Ca0 O9 2.574308 1_555
Ca0 O4 2.665023 1_656
Ca0 O4 2.807704 1_556
Ca1 O7 2.359984 1_555
Ca1 O7 2.374015 1_565
Ca1 O5 2.418476 1_565
Ca1 O5 2.441663 1_465
Ca1 O4 2.539093 1_455
Ca1 O4 2.575887 1_555
Ca1 O9 2.691691 1_464
Ca1 O9 2.770194 1_454
Cr0 O1 1.914380 1_555
Cr0 O0 1.987189 1_455
Cr0 O0 1.993565 1_555
Cr0 O2 2.009769 1_555
Cr0 O2 2.011813 1_545
Cr1 O6 1.902925 1_555
Cr1 O5 1.993231 1_555
Cr1 O5 1.995590 1_565
Cr1 O7 2.007545 1_655
Cr1 O7 2.013435 1_555
Cr2 O9 1.962425 1_555
Cr2 O4 1.968376 1_556
Cr2 O9 1.969403 1_455
Cr2 O4 1.977141 1_546
O3 Tl0 2.447489 1_555
O3 Tl1 2.467350 1_565
O3 Tl1 2.474452 1_665
O8 Tl0 2.463995 1_555
O8 Tl0 2.467242 1_455
O8 Tl1 2.473908 1_555
