# generated using pymatgen
data_MgMn2P2(H2O5)2
_symmetry_space_group_name_H-M   'P 1'
_cell_length_a   5.30757214
_cell_length_b   5.52293422
_cell_length_c   7.82258443
_cell_angle_alpha   102.56190020
_cell_angle_beta   106.89172735
_cell_angle_gamma   98.50919521
_symmetry_Int_Tables_number   1
_chemical_formula_structural   MgMn2P2(H2O5)2
_chemical_formula_sum   'Mg1 Mn2 P2 H4 O10'
_cell_volume   208.61485436
_cell_formula_units_Z   1
loop_
 _symmetry_equiv_pos_site_id
 _symmetry_equiv_pos_as_xyz
  1  'x, y, z'
loop_
 _atom_site_type_symbol
 _atom_site_label
 _atom_site_symmetry_multiplicity
 _atom_site_fract_x
 _atom_site_fract_y
 _atom_site_fract_z
 _atom_site_occupancy
  Mg  Mg0  1  0.09105700  0.35156300  0.87988400  1
  Mn  Mn0  1  0.98446500  0.44843500  0.45923000  1
  Mn  Mn1  1  0.51284800  0.01450400  0.00480000  1
  P  P0  1  0.41352900  0.58144400  0.24383200  1
  P  P1  1  0.60582900  0.46315500  0.77175800  1
  H  H0  1  0.86572400  0.90879300  0.28612600  1
  H  H1  1  0.06308700  0.09436500  0.21144600  1
  H  H2  1  0.04813500  0.93547600  0.65033800  1
  H  H3  1  0.90714100  0.86566100  0.80319300  1
  O  O0  1  0.31341800  0.69943000  0.07687700  1
  O  O1  1  0.27926500  0.65066100  0.38954100  1
  O  O2  1  0.71583000  0.33260400  0.92837100  1
  O  O3  1  0.76855400  0.38774200  0.64055200  1
  O  O4  1  0.72633100  0.66674600  0.33143900  1
  O  O5  1  0.31973800  0.28500900  0.14188900  1
  O  O6  1  0.29492600  0.37393400  0.68930300  1
  O  O7  1  0.68249500  0.75883800  0.84737600  1
  O  O8  1  0.07986100  0.96610000  0.78345500  1
  O  O9  1  0.90276700  0.07804000  0.25344500  1
loop_
_geom_bond_atom_site_label_1
_geom_bond_atom_site_label_2
_geom_bond_distance
_geom_bond_site_symmetry_2
Mg0 O8 2.083908 1_545
Mg0 O6 2.094445 1_555
Mg0 O0 2.107836 1_556
Mg0 O2 2.124997 1_455
Mg0 O5 2.196146 1_556
Mg0 O3 2.208305 1_455
Mn0 O1 2.058199 1_655
Mn0 O3 2.115467 1_555
Mn0 O4 2.132460 1_555
Mn0 O9 2.205346 1_555
Mn0 O6 2.218792 1_655
Mn1 O7 2.141333 1_544
Mn1 O0 2.166767 1_545
Mn1 O5 2.197157 1_555
Mn1 O2 2.208100 1_554
Mn1 O9 2.310463 1_555
Mn1 O8 2.378082 1_544
H0 O9 1.027872 1_565
H0 O4 1.589307 1_555
H1 O9 0.996372 1_455
H2 O8 0.976918 1_555
H3 O8 1.068155 1_655
H3 O7 1.417453 1_555
O0 P0 1.575443 1_555
O1 P0 1.521925 1_555
O2 P1 1.566785 1_555
O3 P1 1.551930 1_555
O4 P0 1.553973 1_555
O5 P0 1.588818 1_555
O6 P1 1.544150 1_555
O7 P1 1.557425 1_555
