# generated using pymatgen
data_Y2MnC4
_symmetry_space_group_name_H-M   'P 1'
_cell_length_a   6.62503918
_cell_length_b   6.62503918
_cell_length_c   6.62503918
_cell_angle_alpha   135.10627726
_cell_angle_beta   110.18236442
_cell_angle_gamma   86.93742985
_symmetry_Int_Tables_number   1
_chemical_formula_structural   Y2MnC4
_chemical_formula_sum   'Y4 Mn2 C8'
_cell_volume   184.45099526
_cell_formula_units_Z   2
loop_
 _symmetry_equiv_pos_site_id
 _symmetry_equiv_pos_as_xyz
  1  'x, y, z'
loop_
 _atom_site_type_symbol
 _atom_site_label
 _atom_site_symmetry_multiplicity
 _atom_site_fract_x
 _atom_site_fract_y
 _atom_site_fract_z
 _atom_site_occupancy
  Y  Y0  1  0.50925000  0.35404100  0.15520900  1
  Y  Y1  1  0.49075000  0.64595900  0.84479100  1
  Y  Y2  1  0.19883200  0.85404100  0.34479100  1
  Y  Y3  1  0.80116800  0.14595900  0.65520900  1
  Mn  Mn0  1  0.00000000  0.25000000  0.25000000  1
  Mn  Mn1  1  0.00000000  0.75000000  0.75000000  1
  C  C0  1  0.24964000  0.07848000  0.17116100  1
  C  C1  1  0.75036000  0.92152000  0.82883900  1
  C  C2  1  0.90731900  0.57848000  0.32883900  1
  C  C3  1  0.09268100  0.42152000  0.67116100  1
  C  C4  1  0.46983100  0.12875600  0.34107400  1
  C  C5  1  0.53016900  0.87124400  0.65892600  1
  C  C6  1  0.78768200  0.62875600  0.15892600  1
  C  C7  1  0.21231800  0.37124400  0.84107400  1
loop_
_geom_bond_atom_site_label_1
_geom_bond_atom_site_label_2
_geom_bond_distance
_geom_bond_site_symmetry_2
C0 C4 1.376125 1_555
C0 Mn0 1.963081 1_555
C0 Mn1 1.963084 1_544
C0 Y2 2.528132 1_545
C0 Y0 2.652626 1_555
C1 C5 1.376125 1_555
C1 Mn1 1.963081 1_655
C1 Mn0 1.963084 1_666
C1 Y3 2.528132 1_565
C1 Y1 2.652626 1_555
C2 C6 1.376114 1_555
C2 Mn1 1.963087 1_655
C2 Mn0 1.963087 1_655
C2 Y0 2.528134 1_555
C2 Y2 2.652622 1_655
C3 C7 1.376114 1_555
C3 Mn0 1.963087 1_555
C3 Mn1 1.963087 1_555
C3 Y1 2.528134 1_555
C3 Y3 2.652622 1_455
C4 Y3 2.387709 1_555
C4 Y1 2.535172 1_544
C4 Y1 2.535177 1_555
C4 Y0 2.584478 1_555
C4 Y2 2.641882 1_545
C5 Y2 2.387709 1_555
C5 Y0 2.535172 1_566
C5 Y0 2.535177 1_555
C5 Y1 2.584478 1_555
C5 Y3 2.641882 1_565
C6 Y1 2.387713 1_554
C6 Y3 2.535175 1_554
C6 Y3 2.535175 1_565
C6 Y2 2.584480 1_655
C6 Y0 2.641877 1_555
C7 Y0 2.387713 1_556
C7 Y2 2.535175 1_545
C7 Y2 2.535175 1_556
C7 Y3 2.584480 1_455
C7 Y1 2.641877 1_555
