# generated using pymatgen
data_Ba2LaTlCu2O7
_symmetry_space_group_name_H-M   'P 1'
_cell_length_a   3.94580200
_cell_length_b   3.97539300
_cell_length_c   12.85357200
_cell_angle_alpha   90.00000000
_cell_angle_beta   90.00000000
_cell_angle_gamma   90.00000000
_symmetry_Int_Tables_number   1
_chemical_formula_structural   Ba2LaTlCu2O7
_chemical_formula_sum   'Ba2 La1 Tl1 Cu2 O7'
_cell_volume   201.62259120
_cell_formula_units_Z   1
loop_
 _symmetry_equiv_pos_site_id
 _symmetry_equiv_pos_as_xyz
  1  'x, y, z'
loop_
 _atom_site_type_symbol
 _atom_site_label
 _atom_site_symmetry_multiplicity
 _atom_site_fract_x
 _atom_site_fract_y
 _atom_site_fract_z
 _atom_site_occupancy
  Ba  Ba0  1  0.50000000  0.49600800  0.79595900  1
  Ba  Ba1  1  0.50000000  0.49600800  0.20404100  1
  La  La0  1  0.50000000  0.49973100  0.50000000  1
  Tl  Tl0  1  0.00000000  0.93033600  0.00000000  1
  Cu  Cu0  1  0.00000000  0.99972400  0.64016500  1
  Cu  Cu1  1  0.00000000  0.99972400  0.35983500  1
  O  O0  1  0.00000000  0.49977400  0.62328600  1
  O  O1  1  0.50000000  0.99830300  0.62252800  1
  O  O2  1  0.00000000  0.49977400  0.37671400  1
  O  O3  1  0.50000000  0.99830300  0.37747200  1
  O  O4  1  0.00000000  0.00924100  0.83426600  1
  O  O5  1  0.00000000  0.00924100  0.16573400  1
  O  O6  1  0.50000000  0.61433300  0.00000000  1
loop_
_geom_bond_atom_site_label_1
_geom_bond_atom_site_label_2
_geom_bond_distance
_geom_bond_site_symmetry_2
Ba0 O6 2.664505 1_556
Ba0 O4 2.807018 1_555
Ba0 O4 2.807018 1_655
Ba0 O4 2.880558 1_565
Ba0 O4 2.880558 1_665
Ba0 O0 2.969611 1_655
Ba0 O0 2.969611 1_555
Ba0 O1 2.980624 1_545
Ba0 O1 2.992768 1_555
Ba1 O6 2.664505 1_555
Ba1 O5 2.807018 1_555
Ba1 O5 2.807018 1_655
Ba1 O5 2.880558 1_565
Ba1 O5 2.880558 1_665
Ba1 O2 2.969611 1_555
Ba1 O2 2.969611 1_655
Ba1 O3 2.980624 1_545
Ba1 O3 2.992768 1_555
La0 O2 2.530514 1_555
La0 O2 2.530514 1_655
La0 O0 2.530514 1_655
La0 O0 2.530514 1_555
La0 O1 2.531557 1_555
La0 O3 2.531557 1_555
La0 O1 2.540456 1_545
La0 O3 2.540456 1_545
Cu0 O1 1.985891 1_555
Cu0 O1 1.985891 1_455
Cu0 O0 1.999304 1_555
Cu0 O0 1.999699 1_565
Cu0 O4 2.495178 1_565
Cu1 O3 1.985891 1_555
Cu1 O3 1.985891 1_455
Cu1 O2 1.999304 1_555
Cu1 O2 1.999699 1_565
Cu1 O5 2.495178 1_565
O4 Tl0 2.153244 1_546
O5 Tl0 2.153244 1_545
O6 Tl0 2.338903 1_555
O6 Tl0 2.338903 1_655
