# generated using pymatgen
data_Rb3Zn3(MoO4)4
_symmetry_space_group_name_H-M   'P 1'
_cell_length_a   10.56429576
_cell_length_b   10.56429576
_cell_length_c   10.56429576
_cell_angle_alpha   109.47122063
_cell_angle_beta   109.47122063
_cell_angle_gamma   109.47122063
_symmetry_Int_Tables_number   1
_chemical_formula_structural   Rb3Zn3(MoO4)4
_chemical_formula_sum   'Rb6 Zn6 Mo8 O32'
_cell_volume   907.61102545
_cell_formula_units_Z   2
loop_
 _symmetry_equiv_pos_site_id
 _symmetry_equiv_pos_as_xyz
  1  'x, y, z'
loop_
 _atom_site_type_symbol
 _atom_site_label
 _atom_site_symmetry_multiplicity
 _atom_site_fract_x
 _atom_site_fract_y
 _atom_site_fract_z
 _atom_site_occupancy
  Rb  Rb0  1  0.62500000  0.37500000  0.25000000  1
  Rb  Rb1  1  0.87500000  0.12500000  0.75000000  1
  Rb  Rb2  1  0.37500000  0.25000000  0.62500000  1
  Rb  Rb3  1  0.12500000  0.75000000  0.87500000  1
  Rb  Rb4  1  0.25000000  0.62500000  0.37500000  1
  Rb  Rb5  1  0.75000000  0.87500000  0.12500000  1
  Zn  Zn0  1  0.12500000  0.87500000  0.25000000  1
  Zn  Zn1  1  0.37500000  0.62500000  0.75000000  1
  Zn  Zn2  1  0.87500000  0.25000000  0.12500000  1
  Zn  Zn3  1  0.62500000  0.75000000  0.37500000  1
  Zn  Zn4  1  0.25000000  0.12500000  0.87500000  1
  Zn  Zn5  1  0.75000000  0.37500000  0.62500000  1
  Mo  Mo0  1  0.21495900  0.21495900  0.21495900  1
  Mo  Mo1  1  0.28504100  0.50000000  0.00000000  1
  Mo  Mo2  1  0.00000000  0.28504100  0.50000000  1
  Mo  Mo3  1  0.71495900  0.71495900  0.71495900  1
  Mo  Mo4  1  0.50000000  0.00000000  0.28504100  1
  Mo  Mo5  1  0.78504100  0.50000000  0.00000000  1
  Mo  Mo6  1  0.50000000  0.00000000  0.78504100  1
  Mo  Mo7  1  0.00000000  0.78504100  0.50000000  1
  O  O0  1  0.27161200  0.14053800  0.07240300  1
  O  O1  1  0.22838800  0.30079100  0.86892600  1
  O  O2  1  0.93186500  0.35946200  0.63107400  1
  O  O3  1  0.14053800  0.07240300  0.27161200  1
  O  O4  1  0.77161200  0.57240300  0.64053800  1
  O  O5  1  0.56813500  0.19920900  0.42759700  1
  O  O6  1  0.30079100  0.86892600  0.22838800  1
  O  O7  1  0.72838800  0.36892600  0.80079100  1
  O  O8  1  0.35946200  0.63107400  0.93186500  1
  O  O9  1  0.43186500  0.13107400  0.85946200  1
  O  O10  1  0.19920900  0.42759700  0.56813500  1
  O  O11  1  0.06813500  0.92759700  0.69920900  1
  O  O12  1  0.07240300  0.27161200  0.14053800  1
  O  O13  1  0.64053800  0.77161200  0.57240300  1
  O  O14  1  0.63107400  0.93186500  0.35946200  1
  O  O15  1  0.85946200  0.43186500  0.13107400  1
  O  O16  1  0.42759700  0.56813500  0.19920900  1
  O  O17  1  0.69920900  0.06813500  0.92759700  1
  O  O18  1  0.86892600  0.22838800  0.30079100  1
  O  O19  1  0.80079100  0.72838800  0.36892600  1
  O  O20  1  0.57240300  0.64053800  0.77161200  1
  O  O21  1  0.36892600  0.80079100  0.72838800  1
  O  O22  1  0.92759700  0.69920900  0.06813500  1
  O  O23  1  0.13107400  0.85946200  0.43186500  1
  O  O24  1  0.38130900  0.38130900  0.38130900  1
  O  O25  1  0.11869100  0.50000000  0.00000000  1
  O  O26  1  0.00000000  0.11869100  0.50000000  1
  O  O27  1  0.88130900  0.88130900  0.88130900  1
  O  O28  1  0.50000000  0.00000000  0.11869100  1
  O  O29  1  0.61869100  0.50000000  0.00000000  1
  O  O30  1  0.50000000  0.00000000  0.61869100  1
  O  O31  1  0.00000000  0.61869100  0.50000000  1
loop_
_geom_bond_atom_site_label_1
_geom_bond_atom_site_label_2
_geom_bond_distance
_geom_bond_site_symmetry_2
Mo0 O24 1.757371 1_555
Mo0 O3 1.835648 1_555
Mo0 O0 1.835648 1_555
Mo0 O12 1.835648 1_555
Mo1 O25 1.757371 1_555
Mo1 O1 1.835648 1_554
Mo1 O16 1.835648 1_555
Mo1 O8 1.835648 1_554
Mo2 O26 1.757371 1_555
Mo2 O18 1.835648 1_455
Mo2 O10 1.835648 1_555
Mo2 O2 1.835648 1_455
Mo3 O27 1.757371 1_555
Mo3 O13 1.835648 1_555
Mo3 O4 1.835648 1_555
Mo3 O20 1.835648 1_555
Mo4 O28 1.757371 1_555
Mo4 O6 1.835648 1_545
Mo4 O5 1.835648 1_555
Mo4 O14 1.835648 1_545
Mo5 O29 1.757371 1_555
Mo5 O22 1.835648 1_555
Mo5 O15 1.835648 1_555
Mo5 O7 1.835648 1_554
Mo6 O30 1.757371 1_555
Mo6 O9 1.835648 1_555
Mo6 O17 1.835648 1_555
Mo6 O21 1.835648 1_545
Mo7 O31 1.757371 1_555
Mo7 O11 1.835648 1_555
Mo7 O23 1.835648 1_555
Mo7 O19 1.835648 1_455
O0 Zn4 1.964038 1_554
O0 Rb0 3.108104 1_555
O0 Rb3 3.408868 1_544
O1 Zn4 1.964038 1_555
O1 Rb1 3.108104 1_455
O1 Rb2 3.408868 1_555
O2 Zn5 1.964038 1_555
O2 Rb1 3.108104 1_555
O2 Rb3 3.408868 1_655
O3 Zn0 1.964038 1_545
O3 Rb2 3.108104 1_555
O3 Rb5 3.408868 1_445
O4 Zn5 1.964038 1_555
O4 Rb3 3.108104 1_655
O4 Rb0 3.408868 1_555
O5 Zn5 1.964038 1_555
O5 Rb0 3.108104 1_555
O5 Rb2 3.408868 1_555
O6 Zn0 1.964038 1_555
O6 Rb3 3.108104 1_554
O6 Rb4 3.408868 1_555
O7 Zn5 1.964038 1_555
O7 Rb2 3.108104 1_555
O7 Rb1 3.408868 1_555
O8 Zn1 1.964038 1_555
O8 Rb3 3.108104 1_555
O8 Rb5 3.408868 1_556
O9 Zn4 1.964038 1_555
O9 Rb2 3.108104 1_555
O9 Rb0 3.408868 1_556
O10 Zn1 1.964038 1_555
O10 Rb2 3.108104 1_555
O10 Rb4 3.408868 1_555
O11 Zn4 1.964038 1_565
O11 Rb3 3.108104 1_555
O11 Rb1 3.408868 1_465
O12 Zn2 1.964038 1_455
O12 Rb4 3.108104 1_555
O12 Rb1 3.408868 1_454
O13 Zn3 1.964038 1_555
O13 Rb1 3.108104 1_565
O13 Rb4 3.408868 1_555
O14 Zn3 1.964038 1_555
O14 Rb5 3.108104 1_555
O14 Rb1 3.408868 1_565
O15 Zn2 1.964038 1_555
O15 Rb0 3.108104 1_555
O15 Rb4 3.408868 1_655
O16 Zn3 1.964038 1_555
O16 Rb4 3.108104 1_555
O16 Rb0 3.408868 1_555
O17 Zn2 1.964038 1_556
O17 Rb1 3.108104 1_555
O17 Rb5 3.408868 1_546
O18 Zn2 1.964038 1_555
O18 Rb5 3.108104 1_545
O18 Rb0 3.408868 1_555
O19 Zn3 1.964038 1_555
O19 Rb0 3.108104 1_555
O19 Rb5 3.408868 1_555
O20 Zn1 1.964038 1_555
O20 Rb5 3.108104 1_556
O20 Rb2 3.408868 1_555
O21 Zn1 1.964038 1_555
O21 Rb4 3.108104 1_555
O21 Rb3 3.408868 1_555
O22 Zn0 1.964038 1_655
O22 Rb5 3.108104 1_555
O22 Rb3 3.408868 1_654
O23 Zn0 1.964038 1_555
O23 Rb4 3.108104 1_555
O23 Rb2 3.408868 1_565
O24 Rb2 3.315109 1_555
O24 Rb4 3.315109 1_555
O24 Rb0 3.315109 1_555
O25 Rb1 3.315109 1_454
O25 Rb3 3.315109 1_554
O25 Rb4 3.315109 1_555
O26 Rb2 3.315109 1_555
O26 Rb5 3.315109 1_445
O26 Rb1 3.315109 1_455
O27 Rb5 3.315109 1_556
O27 Rb3 3.315109 1_655
O27 Rb1 3.315109 1_565
O28 Rb5 3.315109 1_545
O28 Rb3 3.315109 1_544
O28 Rb0 3.315109 1_555
O29 Rb0 3.315109 1_555
O29 Rb2 3.315109 1_554
O29 Rb5 3.315109 1_555
O30 Rb2 3.315109 1_555
O30 Rb4 3.315109 1_545
O30 Rb1 3.315109 1_555
O31 Rb0 3.315109 1_455
O31 Rb4 3.315109 1_555
O31 Rb3 3.315109 1_555
