# generated using pymatgen
data_YbZnIn
_symmetry_space_group_name_H-M   'P 1'
_cell_length_a   4.58626054
_cell_length_b   4.58626054
_cell_length_c   7.06699068
_cell_angle_alpha   90.00000000
_cell_angle_beta   90.00000000
_cell_angle_gamma   120.00000153
_symmetry_Int_Tables_number   1
_chemical_formula_structural   YbZnIn
_chemical_formula_sum   'Yb2 Zn2 In2'
_cell_volume   128.73083571
_cell_formula_units_Z   2
loop_
 _symmetry_equiv_pos_site_id
 _symmetry_equiv_pos_as_xyz
  1  'x, y, z'
loop_
 _atom_site_type_symbol
 _atom_site_label
 _atom_site_symmetry_multiplicity
 _atom_site_fract_x
 _atom_site_fract_y
 _atom_site_fract_z
 _atom_site_occupancy
  Yb  Yb0  1  0.00000000  0.00000000  0.50000000  1
  Yb  Yb1  1  0.00000000  0.00000000  0.00000000  1
  Zn  Zn0  1  0.33333300  0.66666700  0.25000000  1
  Zn  Zn1  1  0.66666700  0.33333300  0.75000000  1
  In  In0  1  0.33333300  0.66666700  0.75000000  1
  In  In1  1  0.66666700  0.33333300  0.25000000  1
loop_
_geom_bond_atom_site_label_1
_geom_bond_atom_site_label_2
_geom_bond_distance
_geom_bond_site_symmetry_2
Yb0 Zn0 3.183182 1_545
Yb0 Zn1 3.183182 1_455
Yb0 Zn0 3.183185 1_555
Yb0 Zn1 3.183185 1_555
Yb0 Zn1 3.183185 1_445
Yb0 Zn0 3.183185 1_445
Yb1 Zn0 3.183182 1_545
Yb1 Zn1 3.183182 1_454
Yb1 Zn1 3.183185 1_554
Yb1 Zn0 3.183185 1_555
Yb1 Zn1 3.183185 1_444
Yb1 Zn0 3.183185 1_445
In0 Zn1 2.647876 1_565
In0 Zn1 2.647876 1_455
In0 Zn1 2.647884 1_555
In0 Yb1 3.183182 1_566
In0 Yb0 3.183182 1_565
In0 Yb1 3.183185 1_556
In0 Yb0 3.183185 1_555
In0 Yb1 3.183185 1_666
In0 Yb0 3.183185 1_665
In1 Zn0 2.647876 1_655
In1 Zn0 2.647876 1_545
In1 Zn0 2.647884 1_555
In1 Yb0 3.183182 1_655
In1 Yb1 3.183182 1_655
In1 Yb1 3.183185 1_555
In1 Yb0 3.183185 1_555
In1 Yb1 3.183185 1_665
In1 Yb0 3.183185 1_665
