# generated using pymatgen
data_Ca(BH)2
_symmetry_space_group_name_H-M   'P 1'
_cell_length_a   3.59271800
_cell_length_b   3.36142771
_cell_length_c   16.62327136
_cell_angle_alpha   85.74726851
_cell_angle_beta   90.00000000
_cell_angle_gamma   90.00000000
_symmetry_Int_Tables_number   1
_chemical_formula_structural   Ca(BH)2
_chemical_formula_sum   'Ca4 B8 H8'
_cell_volume   200.20088215
_cell_formula_units_Z   4
loop_
 _symmetry_equiv_pos_site_id
 _symmetry_equiv_pos_as_xyz
  1  'x, y, z'
loop_
 _atom_site_type_symbol
 _atom_site_label
 _atom_site_symmetry_multiplicity
 _atom_site_fract_x
 _atom_site_fract_y
 _atom_site_fract_z
 _atom_site_occupancy
  Ca  Ca0  1  0.48847900  0.77453200  0.38564600  1
  Ca  Ca1  1  0.98847900  0.22546800  0.11435400  1
  Ca  Ca2  1  0.51152100  0.22546800  0.61435400  1
  Ca  Ca3  1  0.01152100  0.77453200  0.88564600  1
  B  B0  1  0.99836200  0.74923800  0.50616200  1
  B  B1  1  0.49836200  0.25076200  0.99383800  1
  B  B2  1  0.00163800  0.25076200  0.49383800  1
  B  B3  1  0.50163800  0.74923800  0.00616200  1
  B  B4  1  0.53237300  0.88802300  0.75307400  1
  B  B5  1  0.03237300  0.11197700  0.74692600  1
  B  B6  1  0.46762700  0.11197700  0.24692600  1
  B  B7  1  0.96762700  0.88802300  0.25307400  1
  H  H0  1  0.53953600  0.68466200  0.69353300  1
  H  H1  1  0.03953600  0.31533800  0.80646700  1
  H  H2  1  0.46046400  0.31533800  0.30646700  1
  H  H3  1  0.96046400  0.68466200  0.19353300  1
  H  H4  1  0.02492600  0.36798200  0.68948600  1
  H  H5  1  0.52492600  0.63201800  0.81051400  1
  H  H6  1  0.97507400  0.63201800  0.31051400  1
  H  H7  1  0.47507400  0.36798200  0.18948600  1
loop_
_geom_bond_atom_site_label_1
_geom_bond_atom_site_label_2
_geom_bond_distance
_geom_bond_site_symmetry_2
Ca0 H2 2.103902 1_555
Ca0 H2 2.166188 1_565
Ca0 H6 2.221323 1_555
Ca0 H6 2.297896 1_455
Ca1 H3 2.103902 1_555
Ca1 H3 2.166188 1_545
Ca1 H7 2.221323 1_655
Ca1 H7 2.297896 1_555
Ca2 H0 2.103902 1_555
Ca2 H0 2.166188 1_545
Ca2 H4 2.221323 1_555
Ca2 H4 2.297896 1_655
Ca3 H1 2.103902 1_555
Ca3 H1 2.166188 1_565
Ca3 H5 2.221323 1_455
Ca3 H5 2.297896 1_555
B0 B2 1.683131 1_665
B0 B2 1.703122 1_655
B0 Ca0 2.663843 1_655
B0 Ca0 2.711308 1_555
B0 Ca2 2.987315 1_555
B0 Ca2 3.043641 1_655
B0 Ca2 3.046886 1_565
B0 Ca2 3.102131 1_665
B1 B3 1.683131 1_546
B1 B3 1.703122 1_556
B1 Ca1 2.663843 1_556
B1 Ca1 2.711308 1_456
B1 Ca3 2.987315 1_555
B1 Ca3 3.043641 1_655
B1 Ca3 3.046886 1_545
B1 Ca3 3.102131 1_645
B2 Ca2 2.663843 1_455
B2 Ca2 2.711308 1_555
B2 Ca0 2.987315 1_555
B2 Ca0 3.043641 1_455
B2 Ca0 3.046886 1_545
B2 Ca0 3.102131 1_445
B3 Ca3 2.663843 1_554
B3 Ca3 2.711308 1_654
B3 Ca1 2.987315 1_555
B3 Ca1 3.043641 1_455
B3 Ca1 3.046886 1_565
B3 Ca1 3.102131 1_465
B4 H5 1.237378 1_555
B4 H0 1.244159 1_555
B5 H4 1.237378 1_555
B5 H1 1.244159 1_555
B6 H7 1.237378 1_555
B6 H2 1.244159 1_555
B7 H6 1.237378 1_555
B7 H3 1.244159 1_555
