# generated using pymatgen
data_MgBi2O5
_symmetry_space_group_name_H-M   'P 1'
_cell_length_a   5.40143100
_cell_length_b   10.49976200
_cell_length_c   16.13986400
_cell_angle_alpha   90.00000000
_cell_angle_beta   90.00000000
_cell_angle_gamma   90.00000000
_symmetry_Int_Tables_number   1
_chemical_formula_structural   MgBi2O5
_chemical_formula_sum   'Mg8 Bi16 O40'
_cell_volume   915.35204988
_cell_formula_units_Z   8
loop_
 _symmetry_equiv_pos_site_id
 _symmetry_equiv_pos_as_xyz
  1  'x, y, z'
loop_
 _atom_site_type_symbol
 _atom_site_label
 _atom_site_symmetry_multiplicity
 _atom_site_fract_x
 _atom_site_fract_y
 _atom_site_fract_z
 _atom_site_occupancy
  Mg  Mg0  1  0.51239500  0.35076800  0.58325800  1
  Mg  Mg1  1  0.01239500  0.14923200  0.58325800  1
  Mg  Mg2  1  0.01239500  0.64923200  0.91674200  1
  Mg  Mg3  1  0.98760500  0.35076800  0.08325800  1
  Mg  Mg4  1  0.48760500  0.14923200  0.08325800  1
  Mg  Mg5  1  0.98760500  0.85076800  0.41674200  1
  Mg  Mg6  1  0.48760500  0.64923200  0.41674200  1
  Mg  Mg7  1  0.51239500  0.85076800  0.91674200  1
  Bi  Bi0  1  0.06099600  0.38284900  0.43304900  1
  Bi  Bi1  1  0.43900400  0.88284900  0.56695100  1
  Bi  Bi2  1  0.93900400  0.61715100  0.56695100  1
  Bi  Bi3  1  0.56099600  0.11715100  0.43304900  1
  Bi  Bi4  1  0.93900400  0.11715100  0.93304900  1
  Bi  Bi5  1  0.06099600  0.88284900  0.06695100  1
  Bi  Bi6  1  0.43900400  0.38284900  0.93304900  1
  Bi  Bi7  1  0.56099600  0.61715100  0.06695100  1
  Bi  Bi8  1  0.95338100  0.86100900  0.75659000  1
  Bi  Bi9  1  0.04661900  0.13899100  0.24341000  1
  Bi  Bi10  1  0.54661900  0.36100900  0.24341000  1
  Bi  Bi11  1  0.04661900  0.63899100  0.25659000  1
  Bi  Bi12  1  0.45338100  0.13899100  0.74341000  1
  Bi  Bi13  1  0.45338100  0.63899100  0.75659000  1
  Bi  Bi14  1  0.54661900  0.86100900  0.25659000  1
  Bi  Bi15  1  0.95338100  0.36100900  0.74341000  1
  O  O0  1  0.90586900  0.30707000  0.32203300  1
  O  O1  1  0.21959700  0.97616100  0.95759000  1
  O  O2  1  0.28040300  0.47616100  0.04241000  1
  O  O3  1  0.25179600  0.77440100  0.83409400  1
  O  O4  1  0.24820400  0.27440100  0.16590600  1
  O  O5  1  0.90586900  0.80707000  0.17796700  1
  O  O6  1  0.24820400  0.77440100  0.33409400  1
  O  O7  1  0.59413100  0.80707000  0.67796700  1
  O  O8  1  0.21959700  0.47616100  0.54241000  1
  O  O9  1  0.09413100  0.69293000  0.67796700  1
  O  O10  1  0.59413100  0.30707000  0.82203300  1
  O  O11  1  0.79936600  0.25995700  0.49646000  1
  O  O12  1  0.71959700  0.02383900  0.54241000  1
  O  O13  1  0.74820400  0.72559900  0.33409400  1
  O  O14  1  0.28447200  0.00463100  0.13878800  1
  O  O15  1  0.71959700  0.52383900  0.95759000  1
  O  O16  1  0.09413100  0.19293000  0.82203300  1
  O  O17  1  0.75179600  0.22559900  0.66590600  1
  O  O18  1  0.29936600  0.74004300  0.00354000  1
  O  O19  1  0.28040300  0.97616100  0.45759000  1
  O  O20  1  0.20063400  0.74004300  0.50354000  1
  O  O21  1  0.71552800  0.99536900  0.86121200  1
  O  O22  1  0.74820400  0.22559900  0.16590600  1
  O  O23  1  0.78447200  0.99536900  0.36121200  1
  O  O24  1  0.20063400  0.24004300  0.99646000  1
  O  O25  1  0.29936600  0.24004300  0.49646000  1
  O  O26  1  0.78040300  0.52383900  0.45759000  1
  O  O27  1  0.78040300  0.02383900  0.04241000  1
  O  O28  1  0.78447200  0.49536900  0.13878800  1
  O  O29  1  0.70063400  0.75995700  0.50354000  1
  O  O30  1  0.70063400  0.25995700  0.99646000  1
  O  O31  1  0.79936600  0.75995700  0.00354000  1
  O  O32  1  0.71552800  0.49536900  0.63878800  1
  O  O33  1  0.75179600  0.72559900  0.83409400  1
  O  O34  1  0.25179600  0.27440100  0.66590600  1
  O  O35  1  0.28447200  0.50463100  0.36121200  1
  O  O36  1  0.21552800  0.50463100  0.86121200  1
  O  O37  1  0.40586900  0.19293000  0.32203300  1
  O  O38  1  0.21552800  0.00463100  0.63878800  1
  O  O39  1  0.40586900  0.69293000  0.17796700  1
loop_
_geom_bond_atom_site_label_1
_geom_bond_atom_site_label_2
_geom_bond_distance
_geom_bond_site_symmetry_2
Mg0 O32 2.076605 1_555
Mg0 O34 2.098490 1_555
Mg0 O25 2.153641 1_555
Mg0 O8 2.160859 1_555
Mg0 O17 2.275682 1_555
Mg0 O11 2.296598 1_555
Mg1 O38 2.076605 1_555
Mg1 O17 2.098490 1_455
Mg1 O11 2.153641 1_455
Mg1 O12 2.160859 1_455
Mg1 O34 2.275682 1_555
Mg1 O25 2.296598 1_555
Mg2 O36 2.076605 1_555
Mg2 O33 2.098490 1_455
Mg2 O31 2.153641 1_456
Mg2 O15 2.160859 1_455
Mg2 O3 2.275682 1_555
Mg2 O18 2.296598 1_556
Mg3 O28 2.076605 1_555
Mg3 O4 2.098490 1_655
Mg3 O24 2.153641 1_654
Mg3 O2 2.160859 1_655
Mg3 O22 2.275682 1_555
Mg3 O30 2.296598 1_554
Mg4 O14 2.076605 1_555
Mg4 O22 2.098490 1_555
Mg4 O30 2.153641 1_554
Mg4 O27 2.160859 1_555
Mg4 O4 2.275682 1_555
Mg4 O24 2.296598 1_554
Mg5 O23 2.076605 1_555
Mg5 O6 2.098490 1_655
Mg5 O20 2.153641 1_655
Mg5 O19 2.160859 1_655
Mg5 O13 2.275682 1_555
Mg5 O29 2.296598 1_555
Mg6 O35 2.076605 1_555
Mg6 O13 2.098490 1_555
Mg6 O29 2.153641 1_555
Mg6 O26 2.160859 1_555
Mg6 O6 2.275682 1_555
Mg6 O20 2.296598 1_555
Mg7 O21 2.076605 1_555
Mg7 O3 2.098490 1_555
Mg7 O18 2.153641 1_556
Mg7 O1 2.160859 1_555
Mg7 O33 2.275682 1_555
Mg7 O31 2.296598 1_556
Bi0 O35 2.106275 1_555
Bi0 O0 2.132054 1_455
Bi0 O26 2.155321 1_455
Bi0 O11 2.170133 1_455
Bi0 O8 2.193008 1_555
Bi0 O25 2.225642 1_555
Bi1 O38 2.106275 1_565
Bi1 O7 2.132054 1_555
Bi1 O12 2.155321 1_565
Bi1 O29 2.170133 1_555
Bi1 O19 2.193008 1_555
Bi1 O20 2.225642 1_555
Bi2 O32 2.106275 1_555
Bi2 O9 2.132054 1_655
Bi2 O8 2.155321 1_655
Bi2 O20 2.170133 1_655
Bi2 O26 2.193008 1_555
Bi2 O29 2.225642 1_555
Bi3 O23 2.106275 1_545
Bi3 O37 2.132054 1_555
Bi3 O19 2.155321 1_545
Bi3 O25 2.170133 1_555
Bi3 O12 2.193008 1_555
Bi3 O11 2.225642 1_555
Bi4 O21 2.106275 1_545
Bi4 O16 2.132054 1_655
Bi4 O1 2.155321 1_645
Bi4 O24 2.170133 1_655
Bi4 O27 2.193008 1_556
Bi4 O30 2.225642 1_555
Bi5 O14 2.106275 1_565
Bi5 O5 2.132054 1_455
Bi5 O27 2.155321 1_465
Bi5 O31 2.170133 1_455
Bi5 O1 2.193008 1_554
Bi5 O18 2.225642 1_555
Bi6 O36 2.106275 1_555
Bi6 O10 2.132054 1_555
Bi6 O15 2.155321 1_555
Bi6 O30 2.170133 1_555
Bi6 O2 2.193008 1_556
Bi6 O24 2.225642 1_555
Bi7 O28 2.106275 1_555
Bi7 O39 2.132054 1_555
Bi7 O2 2.155321 1_555
Bi7 O18 2.170133 1_555
Bi7 O15 2.193008 1_554
Bi7 O31 2.225642 1_555
Bi8 O33 2.184442 1_555
Bi8 O3 2.233791 1_655
Bi8 O9 2.302767 1_655
Bi8 O7 2.386717 1_555
Bi8 O21 2.547960 1_555
Bi8 O38 2.809626 1_665
Bi9 O4 2.184442 1_555
Bi9 O22 2.233791 1_455
Bi9 O0 2.302767 1_455
Bi9 O37 2.386717 1_555
Bi9 O14 2.547960 1_555
Bi9 O23 2.809626 1_445
Bi10 O22 2.184442 1_555
Bi10 O4 2.233791 1_555
Bi10 O37 2.302767 1_555
Bi10 O0 2.386717 1_555
Bi10 O28 2.547960 1_555
Bi10 O35 2.809626 1_555
Bi11 O6 2.184442 1_555
Bi11 O13 2.233791 1_455
Bi11 O5 2.302767 1_455
Bi11 O39 2.386717 1_555
Bi11 O35 2.547960 1_555
Bi11 O28 2.809626 1_455
Bi12 O34 2.184442 1_555
Bi12 O17 2.233791 1_555
Bi12 O10 2.302767 1_555
Bi12 O16 2.386717 1_555
Bi12 O38 2.547960 1_555
Bi12 O21 2.809626 1_545
Bi13 O3 2.184442 1_555
Bi13 O33 2.233791 1_555
Bi13 O7 2.302767 1_555
Bi13 O9 2.386717 1_555
Bi13 O36 2.547960 1_555
Bi13 O32 2.809626 1_555
Bi14 O13 2.184442 1_555
Bi14 O6 2.233791 1_555
Bi14 O39 2.302767 1_555
Bi14 O5 2.386717 1_555
Bi14 O23 2.547960 1_555
Bi14 O14 2.809626 1_565
Bi15 O17 2.184442 1_555
Bi15 O34 2.233791 1_655
Bi15 O16 2.302767 1_655
Bi15 O10 2.386717 1_555
Bi15 O32 2.547960 1_555
Bi15 O36 2.809626 1_655
