# generated using pymatgen
data_Sb2H6CS(ClO)6
_symmetry_space_group_name_H-M   'P 1'
_cell_length_a   9.63273000
_cell_length_b   13.09502340
_cell_length_c   15.49019013
_cell_angle_alpha   90.00408294
_cell_angle_beta   103.79624986
_cell_angle_gamma   110.06697593
_symmetry_Int_Tables_number   1
_chemical_formula_structural   Sb2H6CS(ClO)6
_chemical_formula_sum   'Sb8 H24 C4 S4 Cl24 O24'
_cell_volume   1775.17869462
_cell_formula_units_Z   4
loop_
 _symmetry_equiv_pos_site_id
 _symmetry_equiv_pos_as_xyz
  1  'x, y, z'
loop_
 _atom_site_type_symbol
 _atom_site_label
 _atom_site_symmetry_multiplicity
 _atom_site_fract_x
 _atom_site_fract_y
 _atom_site_fract_z
 _atom_site_occupancy
  Sb  Sb0  1  0.37645500  0.75784300  0.66495400  1
  Sb  Sb1  1  0.62354500  0.24215700  0.33504600  1
  Sb  Sb2  1  0.67874400  0.90811000  0.79896200  1
  Sb  Sb3  1  0.32125600  0.09189000  0.20103800  1
  Sb  Sb4  1  0.66660700  0.40686500  0.74986000  1
  Sb  Sb5  1  0.33339300  0.59313500  0.25014000  1
  Sb  Sb6  1  0.37072300  0.25776400  0.80014100  1
  Sb  Sb7  1  0.62927700  0.74223600  0.19985900  1
  H  H0  1  0.48805600  0.51576900  0.84480900  1
  H  H1  1  0.51194400  0.48423100  0.15519100  1
  H  H2  1  0.50730200  0.65252600  0.83378300  1
  H  H3  1  0.49269800  0.34747400  0.16621700  1
  H  H4  1  0.41013100  0.58254800  0.90571500  1
  H  H5  1  0.58986900  0.41745200  0.09428500  1
  H  H6  1  0.41531100  0.07825800  0.56808500  1
  H  H7  1  0.58468900  0.92174200  0.43191500  1
  H  H8  1  0.50432200  0.14718500  0.66929600  1
  H  H9  1  0.49567800  0.85281500  0.33070400  1
  H  H10  1  0.49446100  0.01139900  0.65347000  1
  H  H11  1  0.50553900  0.98860100  0.34653000  1
  H  H12  1  0.92315900  0.81270400  0.57858300  1
  H  H13  1  0.07684100  0.18729600  0.42141700  1
  H  H14  1  0.81216500  0.69605300  0.62645300  1
  H  H15  1  0.18783500  0.30394700  0.37354700  1
  H  H16  1  0.75325200  0.71223000  0.50804100  1
  H  H17  1  0.24674800  0.28777000  0.49195900  1
  H  H18  1  0.76694400  0.21256300  0.06073700  1
  H  H19  1  0.23305600  0.78743700  0.93926300  1
  H  H20  1  0.80290500  0.19343800  0.95290100  1
  H  H21  1  0.19709500  0.80656200  0.04709900  1
  H  H22  1  0.93022600  0.30915300  0.03093700  1
  H  H23  1  0.06977400  0.69084700  0.96906300  1
  C  C0  1  0.80862200  0.75369500  0.57541000  1
  C  C1  1  0.19137800  0.24630500  0.42459000  1
  C  C2  1  0.81215700  0.25259200  0.00595000  1
  C  C3  1  0.18784300  0.74740800  0.99405000  1
  S  S0  1  0.70005500  0.82984600  0.59809000  1
  S  S1  1  0.29994500  0.17015400  0.40191000  1
  S  S2  1  0.70230000  0.33194800  0.95980800  1
  S  S3  1  0.29770000  0.66805200  0.04019200  1
  Cl  Cl0  1  0.24612000  0.30303600  0.89970400  1
  Cl  Cl1  1  0.75388000  0.69696400  0.10029600  1
  Cl  Cl2  1  0.55855700  0.43931800  0.60394100  1
  Cl  Cl3  1  0.44144300  0.56068200  0.39605900  1
  Cl  Cl4  1  0.57554400  0.94566400  0.91338900  1
  Cl  Cl5  1  0.42445600  0.05433600  0.08661100  1
  Cl  Cl6  1  0.80897200  0.59413000  0.79468300  1
  Cl  Cl7  1  0.19102800  0.40587000  0.20531700  1
  Cl  Cl8  1  0.18394900  0.25834100  0.66996800  1
  Cl  Cl9  1  0.81605100  0.74165900  0.33003200  1
  Cl  Cl10  1  0.82548300  0.09194200  0.79243900  1
  Cl  Cl11  1  0.17451700  0.90805800  0.20756100  1
  Cl  Cl12  1  0.24417700  0.79949800  0.52912300  1
  Cl  Cl13  1  0.75582300  0.20050200  0.47087700  1
  Cl  Cl14  1  0.87595400  0.86397800  0.89369600  1
  Cl  Cl15  1  0.12404600  0.13602200  0.10630400  1
  Cl  Cl16  1  0.19715400  0.76547800  0.74355100  1
  Cl  Cl17  1  0.80284600  0.23452200  0.25644900  1
  Cl  Cl18  1  0.27531400  0.56775300  0.63536200  1
  Cl  Cl19  1  0.72468600  0.43224700  0.36463800  1
  Cl  Cl20  1  0.86544200  0.36504900  0.71450700  1
  Cl  Cl21  1  0.13455800  0.63495100  0.28549300  1
  Cl  Cl22  1  0.27504800  0.06807300  0.80528700  1
  Cl  Cl23  1  0.72495200  0.93192700  0.19471300  1
  O  O0  1  0.50037600  0.41709200  0.80485600  1
  O  O1  1  0.49962400  0.58290800  0.19514400  1
  O  O2  1  0.51008700  0.91702700  0.69503100  1
  O  O3  1  0.48991300  0.08297300  0.30496900  1
  O  O4  1  0.53559100  0.75037000  0.77382300  1
  O  O5  1  0.46440900  0.24963000  0.22617700  1
  O  O6  1  0.52708100  0.24861800  0.73642400  1
  O  O7  1  0.47291900  0.75138200  0.26357600  1
  O  O8  1  0.77952300  0.87726400  0.69311900  1
  O  O9  1  0.22047700  0.12273600  0.30688100  1
  O  O10  1  0.77458400  0.38421200  0.88704800  1
  O  O11  1  0.22541600  0.61578800  0.11295200  1
  O  O12  1  0.54320000  0.74761700  0.59184700  1
  O  O13  1  0.45680000  0.25238300  0.40815300  1
  O  O14  1  0.54332400  0.25155000  0.92155400  1
  O  O15  1  0.45667600  0.74845000  0.07844600  1
  O  O16  1  0.49177000  0.58937100  0.87446200  1
  O  O17  1  0.50823000  0.41062900  0.12553800  1
  O  O18  1  0.49453500  0.08547900  0.62486200  1
  O  O19  1  0.50546500  0.91452100  0.37513800  1
  O  O20  1  0.70002700  0.91251000  0.53550600  1
  O  O21  1  0.29997300  0.08749000  0.46449400  1
  O  O22  1  0.70943000  0.41114300  0.02772400  1
  O  O23  1  0.29057000  0.58885700  0.97227600  1
loop_
_geom_bond_atom_site_label_1
_geom_bond_atom_site_label_2
_geom_bond_distance
_geom_bond_site_symmetry_2
H0 O16 1.053399 1_555
H0 O0 1.485587 1_555
H1 O17 1.053399 1_555
H1 O1 1.485587 1_555
H2 O16 1.031274 1_555
H2 O4 1.568390 1_555
H3 O17 1.031274 1_555
H3 O5 1.568390 1_555
H4 O16 0.997071 1_555
H5 O17 0.997071 1_555
H6 O18 0.997589 1_555
H7 O19 0.997589 1_555
H8 O18 1.025797 1_555
H8 O6 1.607744 1_555
H9 O19 1.025797 1_555
H9 O7 1.607744 1_555
H10 O18 1.066381 1_555
H10 O2 1.430341 1_545
H11 O19 1.066381 1_555
H11 O3 1.430341 1_565
C0 H14 1.095887 1_555
C0 H16 1.097288 1_555
C0 H12 1.098125 1_555
C1 H15 1.095887 1_555
C1 H17 1.097288 1_555
C1 H13 1.098125 1_555
C2 H20 1.095830 1_554
C2 H22 1.097199 1_555
C2 H18 1.097431 1_555
C3 H21 1.095830 1_556
C3 H23 1.097199 1_555
C3 H19 1.097431 1_555
Cl0 Sb6 2.354076 1_555
Cl1 Sb7 2.354076 1_555
Cl2 Sb4 2.356810 1_555
Cl3 Sb5 2.356810 1_555
Cl4 Sb2 2.355324 1_555
Cl5 Sb3 2.355324 1_555
Cl6 Sb4 2.369404 1_555
Cl7 Sb5 2.369404 1_555
Cl8 Sb6 2.362615 1_555
Cl9 Sb7 2.362615 1_555
Cl10 Sb2 2.352935 1_545
Cl11 Sb3 2.352935 1_565
Cl12 Sb0 2.355123 1_555
Cl13 Sb1 2.355123 1_555
Cl14 Sb2 2.349485 1_555
Cl15 Sb3 2.349485 1_555
Cl16 Sb0 2.365739 1_555
Cl17 Sb1 2.365739 1_555
Cl18 Sb0 2.340553 1_555
Cl19 Sb1 2.340553 1_555
Cl20 Sb4 2.342677 1_555
Cl21 Sb5 2.342677 1_555
Cl22 Sb6 2.343094 1_555
Cl23 Sb7 2.343094 1_555
O0 Sb6 2.021514 1_555
O0 Sb4 2.026188 1_555
O1 Sb7 2.021514 1_555
O1 Sb5 2.026188 1_555
O2 Sb0 2.022803 1_555
O2 Sb2 2.031658 1_555
O3 Sb1 2.022803 1_555
O3 Sb3 2.031658 1_555
O4 Sb0 2.018261 1_555
O4 Sb2 2.027070 1_555
O5 Sb1 2.018261 1_555
O5 Sb3 2.027070 1_555
O6 Sb6 2.022316 1_555
O6 Sb4 2.024641 1_555
O7 Sb7 2.022316 1_555
O7 Sb5 2.024641 1_555
O8 S0 1.508191 1_555
O8 Sb2 2.195842 1_555
O9 S1 1.508191 1_555
O9 Sb3 2.195842 1_555
O10 S2 1.506944 1_555
O10 Sb4 2.200769 1_555
O11 S3 1.506944 1_555
O11 Sb5 2.200769 1_555
O12 S0 1.505187 1_555
O12 Sb0 2.212548 1_555
O13 S1 1.505187 1_555
O13 Sb1 2.212548 1_555
O14 S2 1.505119 1_555
O14 Sb6 2.215742 1_555
O15 S3 1.505119 1_555
O15 Sb7 2.215742 1_555
O20 S0 1.453208 1_555
O21 S1 1.453208 1_555
O22 S2 1.450340 1_554
O23 S3 1.450340 1_556
