# generated using pymatgen
data_YAlCo
_symmetry_space_group_name_H-M   'P 1'
_cell_length_a   5.38660535
_cell_length_b   5.38689093
_cell_length_c   8.49567500
_cell_angle_alpha   90.00000000
_cell_angle_beta   90.00000000
_cell_angle_gamma   60.87872921
_symmetry_Int_Tables_number   1
_chemical_formula_structural   YAlCo
_chemical_formula_sum   'Y4 Al4 Co4'
_cell_volume   215.35734392
_cell_formula_units_Z   4
loop_
 _symmetry_equiv_pos_site_id
 _symmetry_equiv_pos_as_xyz
  1  'x, y, z'
loop_
 _atom_site_type_symbol
 _atom_site_label
 _atom_site_symmetry_multiplicity
 _atom_site_fract_x
 _atom_site_fract_y
 _atom_site_fract_z
 _atom_site_occupancy
  Y  Y0  1  0.33359800  0.33372100  0.54795700  1
  Y  Y1  1  0.67039500  0.67032100  0.42504400  1
  Y  Y2  1  0.67039500  0.67032100  0.07495600  1
  Y  Y3  1  0.33359800  0.33372100  0.95204300  1
  Al  Al0  1  0.99603100  0.99586600  0.47864100  1
  Al  Al1  1  0.99603100  0.99586600  0.02135900  1
  Al  Al2  1  0.83440700  0.33846500  0.75000000  1
  Al  Al3  1  0.33841800  0.83442300  0.75000000  1
  Co  Co0  1  0.83352500  0.83341000  0.75000000  1
  Co  Co1  1  0.17296000  0.64873100  0.25000000  1
  Co  Co2  1  0.64836500  0.17301800  0.25000000  1
  Co  Co3  1  0.17227700  0.17213700  0.25000000  1
loop_
_geom_bond_atom_site_label_1
_geom_bond_atom_site_label_2
_geom_bond_distance
_geom_bond_site_symmetry_2
Y0 Y1 3.291743 1_455
Y0 Y1 3.292787 1_545
Y0 Y1 3.297162 1_555
Y1 Y2 2.974234 1_555
Y2 Y3 3.291743 1_654
Y2 Y3 3.292787 1_564
Y2 Y3 3.297162 1_554
Al0 Co1 2.538432 1_655
Al0 Co2 2.539984 1_565
Al0 Co3 2.540378 1_665
Al0 Co0 2.755447 1_555
Al0 Al3 2.812722 1_655
Al0 Al2 2.813340 1_565
Al0 Y1 3.058347 1_555
Al0 Y0 3.172246 1_655
Al0 Y0 3.173441 1_565
Al0 Y0 3.191640 1_665
Al0 Y1 3.205883 1_655
Al0 Y1 3.206473 1_565
Al1 Co1 2.538432 1_655
Al1 Co2 2.539984 1_565
Al1 Co3 2.540378 1_665
Al1 Co0 2.755447 1_554
Al1 Al3 2.812722 1_654
Al1 Al2 2.813340 1_564
Al1 Y2 3.058347 1_555
Al1 Y3 3.172246 1_654
Al1 Y3 3.173441 1_564
Al1 Y3 3.191640 1_664
Al1 Y2 3.205883 1_655
Al1 Y2 3.206473 1_565
Al2 Co0 2.663906 1_555
Al2 Al3 2.707091 1_555
Al2 Co0 2.722991 1_545
Al2 Al3 2.751045 1_645
Al2 Y2 3.171853 1_556
Al2 Y1 3.171853 1_555
Al2 Y3 3.179707 1_655
Al2 Y0 3.179707 1_655
Al2 Y0 3.208032 1_555
Al2 Y3 3.208032 1_555
Al3 Co0 2.664295 1_555
Al3 Co0 2.722319 1_455
Al3 Y1 3.172094 1_555
Al3 Y2 3.172094 1_556
Al3 Y0 3.180148 1_565
Al3 Y3 3.180148 1_565
Al3 Y3 3.207836 1_555
Al3 Y0 3.207836 1_555
Co0 Y2 3.149119 1_556
Co0 Y1 3.149119 1_555
Co0 Y3 3.223447 1_655
Co0 Y0 3.223447 1_655
Co0 Y0 3.224547 1_565
Co0 Y3 3.224547 1_565
Co1 Co3 2.569152 1_555
Co1 Co2 2.595666 1_555
Co1 Co3 2.817742 1_565
Co1 Co2 2.862470 1_465
Co1 Y3 2.933741 1_554
Co1 Y0 2.933741 1_555
Co1 Y1 3.040903 1_455
Co1 Y2 3.040903 1_455
Co1 Y1 3.115767 1_555
Co1 Y2 3.115767 1_555
Co2 Co3 2.566811 1_555
Co2 Co3 2.819801 1_655
Co2 Y0 2.933138 1_555
Co2 Y3 2.933138 1_554
Co2 Y1 3.040715 1_545
Co2 Y2 3.040715 1_545
Co2 Y1 3.116346 1_555
Co2 Y2 3.116346 1_555
Co3 Y0 2.942225 1_555
Co3 Y3 2.942225 1_554
Co3 Y2 3.107836 1_545
Co3 Y1 3.107836 1_545
Co3 Y1 3.108151 1_455
Co3 Y2 3.108151 1_455
