# generated using pymatgen
data_Mg14BiMo
_symmetry_space_group_name_H-M   'P 1'
_cell_length_a   6.33944481
_cell_length_b   6.34542980
_cell_length_c   10.25437288
_cell_angle_alpha   90.00000000
_cell_angle_beta   90.00000000
_cell_angle_gamma   120.03124048
_symmetry_Int_Tables_number   1
_chemical_formula_structural   Mg14BiMo
_chemical_formula_sum   'Mg14 Bi1 Mo1'
_cell_volume   357.12084872
_cell_formula_units_Z   1
loop_
 _symmetry_equiv_pos_site_id
 _symmetry_equiv_pos_as_xyz
  1  'x, y, z'
loop_
 _atom_site_type_symbol
 _atom_site_label
 _atom_site_symmetry_multiplicity
 _atom_site_fract_x
 _atom_site_fract_y
 _atom_site_fract_z
 _atom_site_occupancy
  Mg  Mg0  1  0.16622235  0.33311067  0.62500000  1
  Mg  Mg1  1  0.16756457  0.83378179  0.62500000  1
  Mg  Mg2  1  0.66762374  0.33314787  0.12500000  1
  Mg  Mg3  1  0.66668719  0.33222916  0.62500000  1
  Mg  Mg4  1  0.66762374  0.83447487  0.12500000  1
  Mg  Mg5  1  0.66668719  0.83445702  0.62500000  1
  Mg  Mg6  1  0.33161703  0.17351102  0.37286322  1
  Mg  Mg7  1  0.33161703  0.17351102  0.87713678  1
  Mg  Mg8  1  0.33161703  0.65810701  0.37286322  1
  Mg  Mg9  1  0.33161703  0.65810701  0.87713678  1
  Mg  Mg10  1  0.84115227  0.17057663  0.37008651  1
  Mg  Mg11  1  0.84115227  0.17057663  0.87991349  1
  Mg  Mg12  1  0.82997008  0.66498554  0.38001909  1
  Mg  Mg13  1  0.82997008  0.66498554  0.86998091  1
  Bi  Bi0  1  0.16070191  0.83035045  0.12500000  1
  Mo  Mo0  1  0.16817650  0.33408775  0.12500000  1
loop_
_geom_bond_atom_site_label_1
_geom_bond_atom_site_label_2
_geom_bond_distance
_geom_bond_site_symmetry_2
Mg0 Mg7 3.142083 1_555
Mg0 Mg6 3.142083 1_555
Mg0 Mg9 3.142089 1_555
Mg0 Mg8 3.142089 1_555
Mg0 Mg5 3.163980 1_445
Mg0 Mg3 3.163980 1_455
Mg0 Mg11 3.164796 1_455
Mg0 Mg10 3.164796 1_455
Mg0 Mg1 3.172723 1_545
Mg0 Mg1 3.172724 1_555
Mg0 Mg5 3.175472 1_555
Mg0 Mg3 3.175472 1_555
Mg1 Mg13 3.121511 1_455
Mg1 Mg12 3.121511 1_455
Mg1 Mg3 3.162018 1_565
Mg1 Mg5 3.162018 1_555
Mg1 Mg3 3.177431 1_455
Mg1 Mg5 3.177431 1_455
Mg1 Mg9 3.188963 1_555
Mg1 Mg8 3.188963 1_555
Mg1 Mg7 3.188969 1_565
Mg1 Mg6 3.188969 1_565
Mg2 Mg7 3.140669 1_554
Mg2 Mg6 3.140669 1_555
Mg2 Mg4 3.164295 1_545
Mg2 Mo0 3.169207 1_555
Mg2 Mo0 3.170246 1_655
Mg2 Mg4 3.181135 1_555
Mg3 Mg5 3.158578 1_545
Mg3 Mg7 3.173306 1_555
Mg3 Mg6 3.173306 1_555
Mg3 Mg5 3.186852 1_555
Mg4 Mg8 3.140669 1_555
Mg4 Mg9 3.140669 1_554
Mg4 Mo0 3.169207 1_555
Mg4 Mo0 3.170246 1_665
Mg5 Mg9 3.173306 1_555
Mg5 Mg8 3.173306 1_555
Mg6 Mo0 3.103005 1_555
Mg7 Mo0 3.103005 1_556
Mg8 Mo0 3.103012 1_555
Mg9 Mo0 3.103012 1_556
Mg10 Mo0 3.088310 1_655
Mg10 Mg2 3.118724 1_555
Mg10 Mg4 3.118730 1_545
Mg10 Mg12 3.174943 1_545
Mg10 Mg12 3.174943 1_555
Mg10 Mg3 3.200607 1_555
Mg10 Mg5 3.200613 1_545
Mg11 Mo0 3.088310 1_656
Mg11 Mg2 3.118724 1_556
Mg11 Mg4 3.118730 1_546
Mg11 Mg13 3.174943 1_545
Mg11 Mg13 3.174943 1_555
Mg11 Mg3 3.200607 1_555
Mg11 Mg5 3.200613 1_545
Mg12 Mg5 3.106906 1_555
Mg12 Mg3 3.106912 1_555
Mg12 Mg6 3.138523 1_555
Mg12 Mg8 3.138523 1_555
Mg12 Mg4 3.187843 1_555
Mg12 Mg2 3.187850 1_555
Mg12 Mg6 3.203071 1_665
Mg12 Mg8 3.203071 1_655
Mg13 Mg5 3.106906 1_555
Mg13 Mg3 3.106912 1_555
Mg13 Mg7 3.138523 1_555
Mg13 Mg9 3.138523 1_555
Mg13 Mg4 3.187843 1_556
Mg13 Mg2 3.187850 1_556
Mg13 Mg7 3.203071 1_665
Mg13 Mg9 3.203071 1_655
Bi0 Mg2 3.139021 1_455
Bi0 Mg4 3.139022 1_455
Bi0 Mg8 3.164497 1_555
Bi0 Mg9 3.164497 1_554
Bi0 Mg6 3.164503 1_565
Bi0 Mg7 3.164503 1_564
Bi0 Mo0 3.172980 1_555
Bi0 Mo0 3.172980 1_565
Bi0 Mg12 3.183307 1_455
Bi0 Mg13 3.183307 1_454
Bi0 Mg2 3.200585 1_565
Bi0 Mg4 3.200585 1_555
