# generated using pymatgen
data_Y7Co6Sn23
_symmetry_space_group_name_H-M   'P 1'
_cell_length_a   9.68533942
_cell_length_b   9.68537291
_cell_length_c   9.86146668
_cell_angle_alpha   90.00000000
_cell_angle_beta   90.00027493
_cell_angle_gamma   120.00011691
_symmetry_Int_Tables_number   1
_chemical_formula_structural   Y7Co6Sn23
_chemical_formula_sum   'Y7 Co6 Sn23'
_cell_volume   801.12968355
_cell_formula_units_Z   1
loop_
 _symmetry_equiv_pos_site_id
 _symmetry_equiv_pos_as_xyz
  1  'x, y, z'
loop_
 _atom_site_type_symbol
 _atom_site_label
 _atom_site_symmetry_multiplicity
 _atom_site_fract_x
 _atom_site_fract_y
 _atom_site_fract_z
 _atom_site_occupancy
  Y  Y0  1  0.00000000  0.00000000  -0.00000000  1
  Y  Y1  1  0.04491073  0.52245537  0.30654014  1
  Y  Y2  1  0.47754526  0.95509418  0.30653861  1
  Y  Y3  1  0.47754526  0.52245109  0.30653861  1
  Y  Y4  1  0.95508927  0.47754463  0.69345986  1
  Y  Y5  1  0.52245474  0.04490582  0.69346139  1
  Y  Y6  1  0.52245474  0.47754891  0.69346139  1
  Co  Co0  1  0.16699081  0.83299961  0.80365201  1
  Co  Co1  1  0.66601182  0.83300591  0.80365358  1
  Co  Co2  1  0.16699081  0.33399120  0.80365201  1
  Co  Co3  1  0.83300919  0.16700039  0.19634799  1
  Co  Co4  1  0.33398818  0.16699409  0.19634642  1
  Co  Co5  1  0.83300919  0.66600880  0.19634799  1
  Sn  Sn0  1  0.00000000  0.00000000  0.50000000  1
  Sn  Sn1  1  0.11637837  0.88359416  0.27556137  1
  Sn  Sn2  1  0.76722391  0.88361246  0.27555743  1
  Sn  Sn3  1  0.11637837  0.23278522  0.27556137  1
  Sn  Sn4  1  0.88362163  0.11640584  0.72443863  1
  Sn  Sn5  1  0.23277609  0.11638754  0.72444257  1
  Sn  Sn6  1  0.88362163  0.76721478  0.72443863  1
  Sn  Sn7  1  0.34687325  -0.00000787  -0.00001501  1
  Sn  Sn8  1  0.65312675  0.65311887  0.00001501  1
  Sn  Sn9  1  0.00000000  0.34687584  0.00000000  1
  Sn  Sn10  1  0.34687325  0.34688113  -0.00001501  1
  Sn  Sn11  1  1.00000000  0.65312416  -0.00000000  1
  Sn  Sn12  1  0.65312675  0.00000787  0.00001501  1
  Sn  Sn13  1  0.78085192  0.56169609  0.45003604  1
  Sn  Sn14  1  0.78085192  0.21915583  0.45003604  1
  Sn  Sn15  1  0.43831187  0.21915594  0.45005290  1
  Sn  Sn16  1  0.21914808  0.43830391  0.54996396  1
  Sn  Sn17  1  0.21914808  0.78084417  0.54996396  1
  Sn  Sn18  1  0.56168813  0.78084406  0.54994710  1
  Sn  Sn19  1  0.66669058  0.33334479  0.18055779  1
  Sn  Sn20  1  0.33330942  0.66665521  0.81944221  1
  Sn  Sn21  1  0.66667011  0.33333455  0.88717760  1
  Sn  Sn22  1  0.33332989  0.66666545  0.11282240  1
loop_
_geom_bond_atom_site_label_1
_geom_bond_atom_site_label_2
_geom_bond_distance
_geom_bond_site_symmetry_2
Co0 Sn7 2.565539 1_566
Co0 Sn11 2.565634 1_456
Co0 Sn6 2.607661 1_455
Co0 Sn5 2.607831 1_565
Co0 Sn17 2.650327 1_555
Co0 Sn20 2.794642 1_555
Co0 Y4 3.190538 1_455
Co0 Y5 3.190604 1_565
Co0 Y0 3.405478 1_566
Co1 Sn12 2.565804 1_566
Co1 Sn8 2.565804 1_556
Co1 Sn4 2.607939 1_565
Co1 Sn6 2.607946 1_555
Co1 Sn18 2.650522 1_555
Co1 Sn20 2.794962 1_555
Co1 Y6 3.190555 1_555
Co1 Y5 3.190555 1_565
Co1 Y0 3.405427 1_666
Co2 Sn10 2.565539 1_556
Co2 Sn9 2.565634 1_556
Co2 Sn4 2.607664 1_455
Co2 Sn5 2.607840 1_555
Co2 Sn16 2.650327 1_555
Co2 Sn20 2.794650 1_555
Co2 Y4 3.190538 1_455
Co2 Y6 3.190604 1_555
Co2 Y0 3.405478 1_556
Co3 Sn12 2.565539 1_555
Co3 Sn9 2.565634 1_655
Co3 Sn3 2.607661 1_655
Co3 Sn2 2.607831 1_545
Co3 Sn14 2.650327 1_555
Co3 Sn19 2.794642 1_555
Co3 Y1 3.190538 1_655
Co3 Y2 3.190604 1_545
Co3 Y0 3.405478 1_655
Co4 Sn7 2.565804 1_555
Co4 Sn10 2.565804 1_555
Co4 Sn1 2.607939 1_545
Co4 Sn3 2.607946 1_555
Co4 Sn15 2.650522 1_555
Co4 Sn19 2.794962 1_555
Co4 Y3 3.190555 1_555
Co4 Y2 3.190555 1_545
Co4 Y0 3.405427 1_555
Co5 Sn8 2.565539 1_555
Co5 Sn11 2.565634 1_555
Co5 Sn1 2.607664 1_655
Co5 Sn2 2.607840 1_555
Co5 Sn13 2.650327 1_555
Co5 Sn19 2.794650 1_555
Co5 Y1 3.190538 1_655
Co5 Y3 3.190604 1_555
Co5 Y0 3.405478 1_665
Sn0 Sn5 2.951426 1_555
Sn0 Sn2 2.951426 1_445
Sn0 Sn1 2.951459 1_545
Sn0 Sn4 2.951459 1_455
Sn0 Sn3 2.951464 1_555
Sn0 Sn6 2.951464 1_445
Sn1 Sn17 3.208448 1_555
Sn1 Y1 3.222683 1_555
Sn1 Y2 3.222831 1_555
Sn1 Y0 3.346171 1_565
Sn2 Y2 3.222838 1_555
Sn2 Y3 3.222844 1_555
Sn2 Y0 3.346109 1_665
Sn3 Y1 3.222674 1_555
Sn3 Y3 3.222827 1_555
Sn3 Y0 3.346176 1_555
Sn4 Y4 3.222683 1_555
Sn4 Y5 3.222831 1_555
Sn4 Y0 3.346171 1_656
Sn5 Y5 3.222838 1_555
Sn5 Y6 3.222844 1_555
Sn5 Y0 3.346109 1_556
Sn6 Y4 3.222674 1_555
Sn6 Y6 3.222827 1_555
Sn6 Y0 3.346176 1_666
Sn7 Y0 3.359623 1_555
Sn7 Y5 3.388008 1_554
Sn7 Y2 3.388231 1_545
Sn8 Y0 3.359623 1_665
Sn8 Y3 3.388008 1_555
Sn8 Y6 3.388231 1_554
Sn9 Y0 3.359622 1_555
Sn9 Y4 3.388142 1_454
Sn9 Y1 3.388142 1_555
Sn10 Y0 3.359623 1_555
Sn10 Y6 3.388008 1_554
Sn10 Y3 3.388231 1_555
Sn11 Y0 3.359622 1_665
Sn11 Y1 3.388142 1_655
Sn11 Y4 3.388142 1_554
Sn12 Y0 3.359623 1_655
Sn12 Y2 3.388008 1_545
Sn12 Y5 3.388231 1_554
Sn13 Y1 3.108013 1_655
Sn13 Y3 3.108052 1_555
Sn13 Sn6 3.208444 1_555
Sn13 Y4 3.263428 1_555
Sn13 Y6 3.263508 1_555
Sn14 Y1 3.108013 1_655
Sn14 Y2 3.108052 1_545
Sn14 Sn4 3.208448 1_555
Sn14 Y4 3.263428 1_555
Sn14 Y5 3.263508 1_555
Sn15 Y3 3.108085 1_555
Sn15 Y2 3.108085 1_545
Sn15 Sn5 3.208422 1_555
Sn15 Y6 3.263359 1_555
Sn15 Y5 3.263360 1_555
Sn16 Y4 3.108013 1_455
Sn16 Y6 3.108052 1_555
Sn16 Sn3 3.208444 1_555
Sn16 Y1 3.263428 1_555
Sn16 Y3 3.263508 1_555
Sn17 Y4 3.108013 1_455
Sn17 Y5 3.108052 1_565
Sn17 Y1 3.263428 1_555
Sn17 Y2 3.263508 1_555
Sn18 Y6 3.108085 1_555
Sn18 Y5 3.108085 1_565
Sn18 Sn2 3.208422 1_555
Sn18 Y3 3.263359 1_555
Sn18 Y2 3.263360 1_555
Sn19 Sn21 2.893159 1_554
Sn19 Y1 3.406999 1_655
Sn19 Y2 3.407251 1_545
Sn19 Y3 3.407259 1_555
Sn20 Sn22 2.893159 1_556
Sn20 Y4 3.406999 1_455
Sn20 Y5 3.407251 1_565
Sn20 Y6 3.407259 1_555
Sn21 Y4 3.082517 1_555
Sn21 Y5 3.082565 1_555
Sn21 Y6 3.082571 1_555
Sn22 Y1 3.082517 1_555
Sn22 Y2 3.082565 1_555
Sn22 Y3 3.082571 1_555
