# generated using pymatgen
data_Ca(SnO2)2
_symmetry_space_group_name_H-M   'P 1'
_cell_length_a   6.69902347
_cell_length_b   6.69902347
_cell_length_c   24.56450117
_cell_angle_alpha   78.53809891
_cell_angle_beta   78.53809891
_cell_angle_gamma   57.36949239
_symmetry_Int_Tables_number   1
_chemical_formula_structural   Ca(SnO2)2
_chemical_formula_sum   'Ca8 Sn16 O32'
_cell_volume   904.25445713
_cell_formula_units_Z   8
loop_
 _symmetry_equiv_pos_site_id
 _symmetry_equiv_pos_as_xyz
  1  'x, y, z'
loop_
 _atom_site_type_symbol
 _atom_site_label
 _atom_site_symmetry_multiplicity
 _atom_site_fract_x
 _atom_site_fract_y
 _atom_site_fract_z
 _atom_site_occupancy
  Ca  Ca0  1  0.65564100  0.65564100  0.03202600  1
  Ca  Ca1  1  0.12584600  0.12584600  0.12490500  1
  Ca  Ca2  1  0.90015800  0.90015800  0.28016200  1
  Ca  Ca3  1  0.36822300  0.36822300  0.37728600  1
  Ca  Ca4  1  0.62493100  0.62493100  0.62578800  1
  Ca  Ca5  1  0.49854000  0.49854000  0.50103300  1
  Ca  Ca6  1  0.88164000  0.88164000  0.87330700  1
  Ca  Ca7  1  0.75337700  0.75337700  0.75006500  1
  Sn  Sn0  1  0.62384300  0.12591900  0.12641900  1
  Sn  Sn1  1  0.24345300  0.24345300  0.26018500  1
  Sn  Sn2  1  0.12591900  0.62384300  0.12641900  1
  Sn  Sn3  1  0.15232500  0.15232500  0.53408500  1
  Sn  Sn4  1  0.86661100  0.37052500  0.37621000  1
  Sn  Sn5  1  0.59495800  0.59495800  0.21273100  1
  Sn  Sn6  1  0.40593700  0.40593700  0.78568900  1
  Sn  Sn7  1  0.37052500  0.86661100  0.37621000  1
  Sn  Sn8  1  0.12483600  0.62513800  0.62532200  1
  Sn  Sn9  1  0.84284600  0.84284600  0.46808700  1
  Sn  Sn10  1  0.62513800  0.12483600  0.62532200  1
  Sn  Sn11  1  0.88024400  0.38151400  0.87558800  1
  Sn  Sn12  1  0.38151400  0.88024400  0.87558800  1
  Sn  Sn13  1  0.09870200  0.09870200  0.71753100  1
  Sn  Sn14  1  0.00038100  0.00038100  0.00910700  1
  Sn  Sn15  1  0.35060100  0.35060100  0.96171600  1
  O  O0  1  0.27326900  0.80858500  0.07015800  1
  O  O1  1  0.92458500  0.92458500  0.17560600  1
  O  O2  1  0.80858500  0.27326900  0.07015800  1
  O  O3  1  0.82883300  0.82883300  0.07495100  1
  O  O4  1  0.43778100  0.43778100  0.17001400  1
  O  O5  1  0.52138600  0.05115500  0.31993300  1
  O  O6  1  0.46152600  0.94164900  0.17312800  1
  O  O7  1  0.16942700  0.16942700  0.41853800  1
  O  O8  1  0.05115500  0.52138600  0.31993300  1
  O  O9  1  0.32248700  0.32248700  0.08429300  1
  O  O10  1  0.06634500  0.06634500  0.32523900  1
  O  O11  1  0.94164900  0.46152600  0.17312800  1
  O  O12  1  0.78800700  0.30038400  0.56890900  1
  O  O13  1  0.67014400  0.67014400  0.42358200  1
  O  O14  1  0.69567800  0.20708500  0.43198900  1
  O  O15  1  0.42823000  0.42823000  0.66842600  1
  O  O16  1  0.30038400  0.78800700  0.56890900  1
  O  O17  1  0.56449100  0.56449100  0.33367800  1
  O  O18  1  0.32746300  0.32746300  0.57656400  1
  O  O19  1  0.20708500  0.69567800  0.43198900  1
  O  O20  1  0.92379500  0.92379500  0.67275000  1
  O  O21  1  0.03959700  0.55757600  0.81844300  1
  O  O22  1  0.95061900  0.46261600  0.68074300  1
  O  O23  1  0.68234900  0.68234900  0.92566900  1
  O  O24  1  0.55757600  0.03959700  0.81844300  1
  O  O25  1  0.82225900  0.82225900  0.58124800  1
  O  O26  1  0.59032400  0.59032400  0.82690300  1
  O  O27  1  0.46261600  0.95061900  0.68074300  1
  O  O28  1  0.19296600  0.19296600  0.91846900  1
  O  O29  1  0.21393200  0.69959500  0.92246800  1
  O  O30  1  0.07961900  0.07961900  0.83174200  1
  O  O31  1  0.69959500  0.21393200  0.92246800  1
loop_
_geom_bond_atom_site_label_1
_geom_bond_atom_site_label_2
_geom_bond_distance
_geom_bond_site_symmetry_2
Ca0 O2 2.255225 1_555
Ca0 O0 2.255225 1_555
Ca0 O3 2.495624 1_555
Ca0 O23 2.559825 1_554
Ca1 O9 2.300571 1_555
Ca1 O11 2.338355 1_455
Ca1 O6 2.338355 1_545
Ca1 O2 2.376021 1_455
Ca1 O0 2.376021 1_545
Ca1 O1 2.410882 1_445
Ca2 O8 2.248467 1_655
Ca2 O5 2.248467 1_565
Ca2 O10 2.453860 1_665
Ca2 O1 2.518902 1_555
Ca3 O17 2.312942 1_555
Ca3 O7 2.326774 1_555
Ca3 O8 2.411156 1_555
Ca3 O5 2.411156 1_555
Ca3 O19 2.413349 1_555
Ca3 O14 2.413349 1_555
Ca4 O15 2.311972 1_555
Ca4 O25 2.329552 1_555
Ca4 O27 2.406992 1_555
Ca4 O22 2.406992 1_555
Ca4 O16 2.431410 1_555
Ca4 O12 2.431410 1_555
Ca5 O18 2.407401 1_555
Ca5 O16 2.435518 1_555
Ca5 O12 2.435518 1_555
Ca5 O13 2.439152 1_555
Ca5 O19 2.465331 1_555
Ca5 O14 2.465331 1_555
Ca6 O30 2.319707 1_665
Ca6 O29 2.335856 1_655
Ca6 O31 2.335856 1_565
Ca6 O24 2.401569 1_565
Ca6 O21 2.401569 1_655
Ca6 O23 2.403415 1_555
Ca7 O26 2.365746 1_555
Ca7 O20 2.428121 1_555
Ca7 O21 2.431105 1_655
Ca7 O24 2.431105 1_565
Ca7 O22 2.467394 1_555
Ca7 O27 2.467394 1_555
O0 Sn2 2.124030 1_555
O0 Sn14 2.243328 1_565
O1 Sn2 2.174229 1_655
O1 Sn0 2.174229 1_565
O2 Sn0 2.124030 1_555
O2 Sn14 2.243328 1_655
O3 Sn2 2.192639 1_655
O3 Sn0 2.192639 1_565
O3 Sn14 2.281273 1_665
O4 Sn2 2.148358 1_555
O4 Sn0 2.148358 1_555
O4 Sn5 2.322123 1_555
O5 Sn7 2.138621 1_545
O5 Sn1 2.242356 1_555
O6 Sn5 2.085226 1_555
O6 Sn0 2.100351 1_565
O7 Sn7 2.084580 1_545
O7 Sn4 2.084580 1_455
O8 Sn4 2.138621 1_455
O8 Sn1 2.242356 1_555
O9 Sn2 2.074161 1_555
O9 Sn0 2.074161 1_555
O10 Sn7 2.217673 1_545
O10 Sn4 2.217673 1_455
O10 Sn1 2.319490 1_555
O11 Sn5 2.085226 1_555
O11 Sn2 2.100351 1_655
O12 Sn3 2.137486 1_655
O12 Sn10 2.151483 1_555
O13 Sn4 2.141423 1_555
O13 Sn7 2.141423 1_555
O13 Sn9 2.514164 1_555
O14 Sn4 2.125957 1_555
O14 Sn9 2.146000 1_545
O15 Sn10 2.097823 1_555
O15 Sn8 2.097823 1_555
O16 Sn3 2.137486 1_565
O16 Sn8 2.151483 1_555
O17 Sn7 2.083481 1_555
O17 Sn4 2.083481 1_555
O18 Sn8 2.153499 1_555
O18 Sn10 2.153499 1_555
O18 Sn3 2.509882 1_555
O19 Sn7 2.125957 1_555
O19 Sn9 2.146000 1_455
O20 Sn8 2.137967 1_655
O20 Sn10 2.137967 1_565
O20 Sn13 2.541836 1_665
O21 Sn6 2.133903 1_555
O21 Sn11 2.146023 1_455
O22 Sn8 2.133213 1_655
O22 Sn13 2.148617 1_655
O23 Sn12 2.188210 1_555
O23 Sn11 2.188210 1_555
O24 Sn6 2.133903 1_555
O24 Sn12 2.146023 1_545
O25 Sn8 2.107579 1_655
O25 Sn10 2.107579 1_565
O25 Sn9 2.735106 1_555
O26 Sn12 2.118347 1_555
O26 Sn11 2.118347 1_555
O26 Sn6 2.591503 1_555
O27 Sn10 2.133213 1_565
O27 Sn13 2.148617 1_565
O28 Sn12 2.142027 1_545
O28 Sn11 2.142027 1_455
O28 Sn15 2.335199 1_555
O29 Sn15 2.092897 1_555
O29 Sn12 2.109134 1_555
O30 Sn11 2.101186 1_455
O30 Sn12 2.101186 1_545
O30 Sn13 2.763379 1_555
O31 Sn15 2.092897 1_555
O31 Sn11 2.109134 1_555
