# generated using pymatgen
data_TiZnO3
_symmetry_space_group_name_H-M   'P 1'
_cell_length_a   5.51732349
_cell_length_b   5.51732349
_cell_length_c   5.51732338
_cell_angle_alpha   55.54717601
_cell_angle_beta   55.54717601
_cell_angle_gamma   55.54717864
_symmetry_Int_Tables_number   1
_chemical_formula_structural   TiZnO3
_chemical_formula_sum   'Ti2 Zn2 O6'
_cell_volume   106.48434782
_cell_formula_units_Z   2
loop_
 _symmetry_equiv_pos_site_id
 _symmetry_equiv_pos_as_xyz
  1  'x, y, z'
loop_
 _atom_site_type_symbol
 _atom_site_label
 _atom_site_symmetry_multiplicity
 _atom_site_fract_x
 _atom_site_fract_y
 _atom_site_fract_z
 _atom_site_occupancy
  Ti  Ti0  1  0.49898600  0.49898600  0.49898600  1
  Ti  Ti1  1  0.99898600  0.99898600  0.99898600  1
  Zn  Zn0  1  0.22030300  0.22030300  0.22030300  1
  Zn  Zn1  1  0.72030300  0.72030300  0.72030300  1
  O  O0  1  0.77861800  0.13769600  0.39392800  1
  O  O1  1  0.13769600  0.39392800  0.77861800  1
  O  O2  1  0.39392800  0.77861800  0.13769600  1
  O  O3  1  0.89392800  0.63769600  0.27861800  1
  O  O4  1  0.63769600  0.27861800  0.89392800  1
  O  O5  1  0.27861800  0.89392800  0.63769600  1
loop_
_geom_bond_atom_site_label_1
_geom_bond_atom_site_label_2
_geom_bond_distance
_geom_bond_site_symmetry_2
O0 Ti0 1.872311 1_555
O0 Zn1 2.034758 1_545
O0 Ti1 2.156043 1_544
O0 Zn0 2.277132 1_655
O1 Ti0 1.872311 1_555
O1 Zn1 2.034758 1_455
O1 Ti1 2.156043 1_445
O1 Zn0 2.277132 1_556
O2 Ti0 1.872311 1_555
O2 Zn1 2.034758 1_554
O2 Ti1 2.156043 1_454
O2 Zn0 2.277133 1_565
O3 Ti1 1.872311 1_554
O3 Zn0 2.034758 1_655
O3 Ti0 2.156043 1_555
O3 Zn1 2.277132 1_555
O4 Ti1 1.872311 1_545
O4 Zn0 2.034758 1_556
O4 Ti0 2.156043 1_555
O4 Zn1 2.277132 1_555
O5 Ti1 1.872311 1_455
O5 Zn0 2.034758 1_565
O5 Ti0 2.156043 1_555
O5 Zn1 2.277133 1_555
