# generated using pymatgen
data_Th
_symmetry_space_group_name_H-M   'P 1'
_cell_length_a   6.99268639
_cell_length_b   6.99268749
_cell_length_c   6.99268668
_cell_angle_alpha   109.47121828
_cell_angle_beta   109.47122147
_cell_angle_gamma   109.47123377
_symmetry_Int_Tables_number   1
_chemical_formula_structural   Th
_chemical_formula_sum   Th8
_cell_volume   263.21478932
_cell_formula_units_Z   8
loop_
 _symmetry_equiv_pos_site_id
 _symmetry_equiv_pos_as_xyz
  1  'x, y, z'
loop_
 _atom_site_type_symbol
 _atom_site_label
 _atom_site_symmetry_multiplicity
 _atom_site_fract_x
 _atom_site_fract_y
 _atom_site_fract_z
 _atom_site_occupancy
  Th  Th0_0  1  0.00000000  0.00000000  0.00000000  1
  Th  Th0_1  1  0.00000000  0.00000000  0.50000000  1
  Th  Th0_2  1  0.00000000  0.50000000  0.00000000  1
  Th  Th0_3  1  0.00000000  0.50000000  0.50000000  1
  Th  Th0_4  1  0.50000000  0.00000000  0.00000000  1
  Th  Th0_5  1  0.50000000  0.00000000  0.50000000  1
  Th  Th0_6  1  0.50000000  0.50000000  0.00000000  1
  Th  Th0_7  1  0.50000000  0.50000000  0.50000000  1
loop_
_geom_bond_atom_site_label_1
_geom_bond_atom_site_label_2
_geom_bond_distance
_geom_bond_site_symmetry_2
Th0_0 Th0_7 3.496343 1_444
Th0_0 Th0_7 3.496343 1_555
Th0_0 Th0_4 3.496343 1_455
Th0_0 Th0_4 3.496343 1_555
Th0_0 Th0_1 3.496343 1_554
Th0_0 Th0_1 3.496343 1_555
Th0_0 Th0_2 3.496344 1_545
Th0_0 Th0_2 3.496344 1_555
Th0_1 Th0_6 3.496343 1_556
Th0_1 Th0_6 3.496343 1_445
Th0_1 Th0_5 3.496343 1_555
Th0_1 Th0_5 3.496343 1_455
Th0_1 Th0_3 3.496344 1_545
Th0_1 Th0_3 3.496344 1_555
Th0_2 Th0_5 3.496343 1_454
Th0_2 Th0_5 3.496343 1_565
Th0_2 Th0_6 3.496343 1_555
Th0_2 Th0_6 3.496343 1_455
Th0_2 Th0_3 3.496343 1_555
Th0_2 Th0_3 3.496343 1_554
Th0_3 Th0_4 3.496343 1_566
Th0_3 Th0_4 3.496343 1_455
Th0_3 Th0_7 3.496343 1_555
Th0_3 Th0_7 3.496343 1_455
Th0_4 Th0_5 3.496343 1_554
Th0_4 Th0_5 3.496343 1_555
Th0_4 Th0_6 3.496344 1_545
Th0_4 Th0_6 3.496344 1_555
Th0_5 Th0_7 3.496344 1_545
Th0_5 Th0_7 3.496344 1_555
Th0_6 Th0_7 3.496343 1_555
Th0_6 Th0_7 3.496343 1_554
