# generated using pymatgen
data_In2Se3
_symmetry_space_group_name_H-M   'P 1'
_cell_length_a   3.97540876
_cell_length_b   3.97566844
_cell_length_c   9.86413276
_cell_angle_alpha   90.19027357
_cell_angle_beta   89.90450807
_cell_angle_gamma   119.97112381
_symmetry_Int_Tables_number   1
_chemical_formula_structural   In2Se3
_chemical_formula_sum   'In2 Se3'
_cell_volume   135.05335887
_cell_formula_units_Z   1
loop_
 _symmetry_equiv_pos_site_id
 _symmetry_equiv_pos_as_xyz
  1  'x, y, z'
loop_
 _atom_site_type_symbol
 _atom_site_label
 _atom_site_symmetry_multiplicity
 _atom_site_fract_x
 _atom_site_fract_y
 _atom_site_fract_z
 _atom_site_occupancy
  In  In0  1  0.66684806  0.33416877  0.18962930  1
  In  In1  1  0.33315194  0.66583123  0.81037070  1
  Se  Se0  1  -0.00000000  -0.00000000  0.00000000  1
  Se  Se1  1  0.66656120  0.33118431  0.67634528  1
  Se  Se2  1  0.33343880  0.66881569  0.32365472  1
loop_
_geom_bond_atom_site_label_1
_geom_bond_atom_site_label_2
_geom_bond_distance
_geom_bond_site_symmetry_2
In0 Se2 2.648804 1_545
In0 Se2 2.649087 1_655
In0 Se2 2.649346 1_555
In0 Se0 2.958247 1_655
In0 Se0 2.961893 1_555
In0 Se0 2.963447 1_665
In1 Se1 2.648804 1_565
In1 Se1 2.649087 1_455
In1 Se1 2.649346 1_555
In1 Se0 2.958247 1_566
In1 Se0 2.961893 1_666
In1 Se0 2.963447 1_556
