# generated using pymatgen
data_Na3NiN2
_symmetry_space_group_name_H-M   'P 1'
_cell_length_a   8.44283157
_cell_length_b   7.99326007
_cell_length_c   12.54357257
_cell_angle_alpha   90.00000073
_cell_angle_beta   137.97505536
_cell_angle_gamma   118.25363403
_symmetry_Int_Tables_number   1
_chemical_formula_structural   Na3NiN2
_chemical_formula_sum   'Na12 Ni4 N8'
_cell_volume   400.71821953
_cell_formula_units_Z   4
loop_
 _symmetry_equiv_pos_site_id
 _symmetry_equiv_pos_as_xyz
  1  'x, y, z'
loop_
 _atom_site_type_symbol
 _atom_site_label
 _atom_site_symmetry_multiplicity
 _atom_site_fract_x
 _atom_site_fract_y
 _atom_site_fract_z
 _atom_site_occupancy
  Na  Na0  1  0.00000000  0.50000000  0.36596100  1
  Na  Na1  1  0.00000000  0.00000000  0.88403900  1
  Na  Na2  1  0.00000000  0.50000000  0.13403900  1
  Na  Na3  1  0.00000000  0.00000000  0.11596100  1
  Na  Na4  1  0.58176200  0.50000000  0.54088100  1
  Na  Na5  1  0.41823800  0.50000000  0.95911900  1
  Na  Na6  1  0.58176200  0.00000000  0.29088100  1
  Na  Na7  1  0.41823800  0.00000000  0.70911900  1
  Na  Na8  1  0.41823800  0.91823800  0.95911900  1
  Na  Na9  1  0.58176200  0.08176200  0.54088100  1
  Na  Na10  1  0.41823800  0.41823800  0.70911900  1
  Na  Na11  1  0.58176200  0.58176200  0.29088100  1
  Ni  Ni0  1  0.00000000  0.50000000  0.59056600  1
  Ni  Ni1  1  0.00000000  0.00000000  0.65943400  1
  Ni  Ni2  1  0.00000000  0.50000000  0.90943400  1
  Ni  Ni3  1  0.00000000  0.00000000  0.34056600  1
  N  N0  1  0.42277900  0.71138900  0.79725400  1
  N  N1  1  0.57722100  0.28861100  0.37447600  1
  N  N2  1  0.42277900  0.21138900  0.87552400  1
  N  N3  1  0.57722100  0.78861100  0.45274600  1
  N  N4  1  0.00000000  0.28861100  0.91413600  1
  N  N5  1  0.00000000  0.71138900  0.91413600  1
  N  N6  1  0.00000000  0.78861100  0.33586400  1
  N  N7  1  0.00000000  0.21138900  0.33586400  1
loop_
_geom_bond_atom_site_label_1
_geom_bond_atom_site_label_2
_geom_bond_distance
_geom_bond_site_symmetry_2
N0 Ni0 1.690720 1_555
N0 Na3 2.337624 1_666
N0 Na10 2.562494 1_555
N0 Na7 2.562501 1_565
N0 Na5 2.652021 1_555
N0 Na8 2.652026 1_555
N1 Ni0 1.690719 1_655
N1 Na3 2.337622 1_555
N1 Na11 2.562499 1_555
N1 Na6 2.562506 1_555
N1 Na4 2.652011 1_555
N1 Na9 2.652016 1_555
N2 Ni1 1.690719 1_555
N2 Na2 2.337622 1_656
N2 Na8 2.562499 1_545
N2 Na5 2.562506 1_555
N2 Na7 2.652011 1_555
N2 Na10 2.652016 1_555
N3 Ni1 1.690720 1_665
N3 Na2 2.337624 1_555
N3 Na9 2.562494 1_565
N3 Na4 2.562501 1_555
N3 Na6 2.652021 1_565
N3 Na11 2.652026 1_555
N4 Ni2 1.690716 1_555
N4 Na1 2.337629 1_555
N4 Na11 2.562494 1_556
N4 Na7 2.562495 1_455
N4 Na9 2.652028 1_455
N4 Na5 2.652028 1_555
N5 Ni2 1.690716 1_555
N5 Na1 2.337629 1_565
N5 Na6 2.562494 1_566
N5 Na10 2.562495 1_455
N5 Na4 2.652028 1_455
N5 Na8 2.652028 1_555
N6 Ni3 1.690716 1_565
N6 Na0 2.337629 1_555
N6 Na5 2.562494 1_454
N6 Na9 2.562495 1_565
N6 Na7 2.652028 1_565
N6 Na11 2.652028 1_455
N7 Ni3 1.690716 1_555
N7 Na0 2.337629 1_555
N7 Na8 2.562494 1_444
N7 Na4 2.562495 1_555
N7 Na10 2.652028 1_555
N7 Na6 2.652028 1_455
