# generated using pymatgen
data_PrEu2NbO6
_symmetry_space_group_name_H-M   'P 1'
_cell_length_a   8.51498510
_cell_length_b   8.51498510
_cell_length_c   8.51498510
_cell_angle_alpha   90.00000000
_cell_angle_beta   90.00000000
_cell_angle_gamma   90.00000000
_symmetry_Int_Tables_number   1
_chemical_formula_structural   PrEu2NbO6
_chemical_formula_sum   'Pr4 Eu8 Nb4 O24'
_cell_volume   617.37874990
_cell_formula_units_Z   4
loop_
 _symmetry_equiv_pos_site_id
 _symmetry_equiv_pos_as_xyz
  1  'x, y, z'
loop_
 _atom_site_type_symbol
 _atom_site_label
 _atom_site_symmetry_multiplicity
 _atom_site_fract_x
 _atom_site_fract_y
 _atom_site_fract_z
 _atom_site_occupancy
  Pr  Pr0  1  0.25000000  0.25000000  0.25000000  1
  Pr  Pr1  1  0.25000000  0.75000000  0.75000000  1
  Pr  Pr2  1  0.75000000  0.25000000  0.75000000  1
  Pr  Pr3  1  0.75000000  0.75000000  0.25000000  1
  Eu  Eu0  1  0.50000000  0.50000000  0.50000000  1
  Eu  Eu1  1  0.00000000  -0.00000000  0.00000000  1
  Eu  Eu2  1  0.00000000  -0.00000000  0.50000000  1
  Eu  Eu3  1  0.00000000  0.50000000  0.00000000  1
  Eu  Eu4  1  0.50000000  -0.00000000  0.00000000  1
  Eu  Eu5  1  0.50000000  0.50000000  0.00000000  1
  Eu  Eu6  1  0.50000000  -0.00000000  0.50000000  1
  Eu  Eu7  1  0.00000000  0.50000000  0.50000000  1
  Nb  Nb0  1  0.75000000  0.75000000  0.75000000  1
  Nb  Nb1  1  0.75000000  0.25000000  0.25000000  1
  Nb  Nb2  1  0.25000000  0.75000000  0.25000000  1
  Nb  Nb3  1  0.25000000  0.25000000  0.75000000  1
  O  O0  1  0.20880757  0.30059395  0.51984819  1
  O  O1  1  0.20880757  0.69940605  0.48015181  1
  O  O2  1  0.79119243  0.30059395  0.48015181  1
  O  O3  1  0.79119243  0.69940605  0.51984819  1
  O  O4  1  0.30059395  0.51984819  0.20880757  1
  O  O5  1  0.69940605  0.48015181  0.20880757  1
  O  O6  1  0.30059395  0.48015181  0.79119243  1
  O  O7  1  0.69940605  0.51984819  0.79119243  1
  O  O8  1  0.51984819  0.20880757  0.30059395  1
  O  O9  1  0.48015181  0.20880757  0.69940605  1
  O  O10  1  0.48015181  0.79119243  0.30059395  1
  O  O11  1  0.51984819  0.79119243  0.69940605  1
  O  O12  1  0.29119243  0.19940605  0.98015181  1
  O  O13  1  0.29119243  0.80059395  0.01984819  1
  O  O14  1  0.70880757  0.19940605  0.01984819  1
  O  O15  1  0.70880757  0.80059395  0.98015181  1
  O  O16  1  0.19940605  0.98015181  0.29119243  1
  O  O17  1  0.80059395  0.01984819  0.29119243  1
  O  O18  1  0.19940605  0.01984819  0.70880757  1
  O  O19  1  0.80059395  0.98015181  0.70880757  1
  O  O20  1  0.98015181  0.29119243  0.19940605  1
  O  O21  1  0.01984819  0.29119243  0.80059395  1
  O  O22  1  0.01984819  0.70880757  0.19940605  1
  O  O23  1  0.98015181  0.70880757  0.80059395  1
loop_
_geom_bond_atom_site_label_1
_geom_bond_atom_site_label_2
_geom_bond_distance
_geom_bond_site_symmetry_2
Eu0 O4 3.009897 1_555
Eu0 O1 3.009897 1_555
Eu0 O8 3.009897 1_555
Eu0 O5 3.009897 1_555
Eu0 O0 3.009897 1_555
Eu0 O9 3.009897 1_555
Eu0 O6 3.009897 1_555
Eu0 O10 3.009897 1_555
Eu0 O2 3.009897 1_555
Eu0 O3 3.009897 1_555
Eu0 O11 3.009897 1_555
Eu0 O7 3.009897 1_555
Eu1 O15 3.009897 1_444
Eu1 O19 3.009897 1_444
Eu1 O23 3.009897 1_444
Eu1 O14 3.009897 1_455
Eu1 O22 3.009897 1_545
Eu1 O18 3.009897 1_554
Eu1 O17 3.009897 1_455
Eu1 O16 3.009897 1_545
Eu1 O21 3.009897 1_554
Eu1 O12 3.009897 1_554
Eu1 O13 3.009897 1_545
Eu1 O20 3.009897 1_455
Eu2 O16 2.464310 1_545
Eu2 O17 2.464310 1_455
Eu2 O18 2.464310 1_555
Eu2 O19 2.464310 1_445
Eu3 O20 2.464310 1_455
Eu3 O23 2.464310 1_454
Eu3 O21 2.464310 1_554
Eu3 O22 2.464310 1_555
Eu4 O13 2.464310 1_545
Eu4 O15 2.464310 1_544
Eu4 O14 2.464310 1_555
Eu4 O12 2.464310 1_554
Eu5 O7 2.464310 1_554
Eu5 O6 2.464310 1_554
Eu5 O4 2.464310 1_555
Eu5 O5 2.464310 1_555
Eu6 O11 2.464310 1_545
Eu6 O10 2.464310 1_545
Eu6 O9 2.464310 1_555
Eu6 O8 2.464310 1_555
Eu7 O2 2.464310 1_455
Eu7 O3 2.464310 1_455
Eu7 O0 2.464310 1_555
Eu7 O1 2.464310 1_555
Nb0 O7 2.036958 1_555
Nb0 O3 2.036958 1_555
Nb0 O11 2.036958 1_555
Nb0 O15 2.036958 1_555
Nb0 O19 2.036958 1_555
Nb0 O23 2.036958 1_555
Nb1 O5 2.036958 1_555
Nb1 O17 2.036958 1_555
Nb1 O8 2.036958 1_555
Nb1 O14 2.036958 1_555
Nb1 O2 2.036958 1_555
Nb1 O20 2.036958 1_555
Nb2 O4 2.036958 1_555
Nb2 O22 2.036958 1_555
Nb2 O1 2.036958 1_555
Nb2 O16 2.036958 1_555
Nb2 O13 2.036958 1_555
Nb2 O10 2.036958 1_555
Nb3 O0 2.036958 1_555
Nb3 O18 2.036958 1_555
Nb3 O21 2.036958 1_555
Nb3 O6 2.036958 1_555
Nb3 O12 2.036958 1_555
Nb3 O9 2.036958 1_555
O0 Pr0 2.363957 1_555
O1 Pr1 2.363957 1_555
O2 Pr2 2.363957 1_555
O3 Pr3 2.363957 1_555
O4 Pr0 2.363957 1_555
O5 Pr3 2.363957 1_555
O6 Pr1 2.363957 1_555
O7 Pr2 2.363957 1_555
O8 Pr0 2.363957 1_555
O9 Pr2 2.363957 1_555
O10 Pr3 2.363957 1_555
O11 Pr1 2.363957 1_555
O12 Pr0 2.363957 1_556
O13 Pr1 2.363957 1_554
O14 Pr2 2.363957 1_554
O15 Pr3 2.363957 1_556
O16 Pr0 2.363957 1_565
O17 Pr3 2.363957 1_545
O18 Pr1 2.363957 1_545
O19 Pr2 2.363957 1_565
O20 Pr0 2.363957 1_655
O21 Pr2 2.363957 1_455
O22 Pr3 2.363957 1_455
O23 Pr1 2.363957 1_655
