# generated using pymatgen
data_CrIr3
_symmetry_space_group_name_H-M   'P 1'
_cell_length_a   17.88864192
_cell_length_b   17.88864192
_cell_length_c   17.88864224
_cell_angle_alpha   17.40081405
_cell_angle_beta   17.40081405
_cell_angle_gamma   17.40081232
_symmetry_Int_Tables_number   1
_chemical_formula_structural   CrIr3
_chemical_formula_sum   'Cr8 Ir24'
_cell_volume   446.77387335
_cell_formula_units_Z   8
loop_
 _symmetry_equiv_pos_site_id
 _symmetry_equiv_pos_as_xyz
  1  'x, y, z'
loop_
 _atom_site_type_symbol
 _atom_site_label
 _atom_site_symmetry_multiplicity
 _atom_site_fract_x
 _atom_site_fract_y
 _atom_site_fract_z
 _atom_site_occupancy
  Cr  Cr0_0  1  0.00000000  0.00000000  0.00000000  1
  Cr  Cr0_1  1  0.00000000  0.00000000  0.50000000  1
  Cr  Cr0_2  1  0.00000000  0.50000000  0.00000000  1
  Cr  Cr0_3  1  0.00000000  0.50000000  0.50000000  1
  Cr  Cr0_4  1  0.50000000  0.00000000  0.00000000  1
  Cr  Cr0_5  1  0.50000000  0.00000000  0.50000000  1
  Cr  Cr0_6  1  0.50000000  0.50000000  0.00000000  1
  Cr  Cr0_7  1  0.50000000  0.50000000  0.50000000  1
  Ir  Ir0_0  1  0.12724200  0.12724200  0.12724200  1
  Ir  Ir0_1  1  0.12724200  0.12724200  0.62724200  1
  Ir  Ir0_2  1  0.12724200  0.62724200  0.12724200  1
  Ir  Ir0_3  1  0.12724200  0.62724200  0.62724200  1
  Ir  Ir0_4  1  0.62724200  0.12724200  0.12724200  1
  Ir  Ir0_5  1  0.62724200  0.12724200  0.62724200  1
  Ir  Ir0_6  1  0.62724200  0.62724200  0.12724200  1
  Ir  Ir0_7  1  0.62724200  0.62724200  0.62724200  1
  Ir  Ir1_0  1  0.25000000  0.25000000  0.25000000  1
  Ir  Ir1_1  1  0.25000000  0.25000000  0.75000000  1
  Ir  Ir1_2  1  0.25000000  0.75000000  0.25000000  1
  Ir  Ir1_3  1  0.25000000  0.75000000  0.75000000  1
  Ir  Ir1_4  1  0.75000000  0.25000000  0.25000000  1
  Ir  Ir1_5  1  0.75000000  0.25000000  0.75000000  1
  Ir  Ir1_6  1  0.75000000  0.75000000  0.25000000  1
  Ir  Ir1_7  1  0.75000000  0.75000000  0.75000000  1
  Ir  Ir2_0  1  0.37275800  0.37275800  0.37275800  1
  Ir  Ir2_1  1  0.37275800  0.37275800  0.87275800  1
  Ir  Ir2_2  1  0.37275800  0.87275800  0.37275800  1
  Ir  Ir2_3  1  0.37275800  0.87275800  0.87275800  1
  Ir  Ir2_4  1  0.87275800  0.37275800  0.37275800  1
  Ir  Ir2_5  1  0.87275800  0.37275800  0.87275800  1
  Ir  Ir2_6  1  0.87275800  0.87275800  0.37275800  1
  Ir  Ir2_7  1  0.87275800  0.87275800  0.87275800  1
loop_
_geom_bond_atom_site_label_1
_geom_bond_atom_site_label_2
_geom_bond_distance
_geom_bond_site_symmetry_2
Cr0_0 Ir0_2 2.603966 1_545
Cr0_0 Ir0_4 2.603966 1_455
Cr0_0 Ir2_5 2.603966 1_454
Cr0_0 Ir2_3 2.603966 1_544
Cr0_0 Ir2_6 2.603967 1_445
Cr0_0 Ir0_1 2.603967 1_554
Cr0_1 Ir2_4 2.603966 1_455
Cr0_1 Ir2_2 2.603966 1_545
Cr0_1 Ir0_5 2.603966 1_455
Cr0_1 Ir0_3 2.603966 1_545
Cr0_1 Ir0_0 2.603967 1_555
Cr0_1 Ir2_7 2.603967 1_445
Cr0_2 Ir0_6 2.603966 1_455
Cr0_2 Ir2_1 2.603966 1_554
Cr0_2 Ir0_0 2.603966 1_555
Cr0_2 Ir2_7 2.603966 1_454
Cr0_2 Ir2_4 2.603967 1_455
Cr0_2 Ir0_3 2.603967 1_554
Cr0_3 Ir2_0 2.603966 1_555
Cr0_3 Ir2_6 2.603966 1_455
Cr0_3 Ir0_7 2.603966 1_455
Cr0_3 Ir0_1 2.603966 1_555
Cr0_3 Ir0_2 2.603967 1_555
Cr0_3 Ir2_5 2.603967 1_455
Cr0_4 Ir0_6 2.603966 1_545
Cr0_4 Ir2_1 2.603966 1_554
Cr0_4 Ir0_0 2.603966 1_555
Cr0_4 Ir2_7 2.603966 1_544
Cr0_4 Ir0_5 2.603967 1_554
Cr0_4 Ir2_2 2.603967 1_545
Cr0_5 Ir2_0 2.603966 1_555
Cr0_5 Ir2_6 2.603966 1_545
Cr0_5 Ir0_7 2.603966 1_545
Cr0_5 Ir0_1 2.603966 1_555
Cr0_5 Ir0_4 2.603967 1_555
Cr0_5 Ir2_3 2.603967 1_545
Cr0_6 Ir0_4 2.603966 1_555
Cr0_6 Ir0_2 2.603966 1_555
Cr0_6 Ir2_5 2.603966 1_554
Cr0_6 Ir2_3 2.603966 1_554
Cr0_6 Ir2_0 2.603967 1_555
Cr0_6 Ir0_7 2.603967 1_554
Cr0_7 Ir2_4 2.603966 1_555
Cr0_7 Ir2_2 2.603966 1_555
Cr0_7 Ir0_3 2.603966 1_555
Cr0_7 Ir0_5 2.603966 1_555
Cr0_7 Ir2_1 2.603967 1_555
Cr0_7 Ir0_6 2.603967 1_555
Ir0_0 Ir1_2 2.797138 1_545
Ir0_0 Ir1_4 2.797138 1_455
Ir0_0 Ir1_1 2.797138 1_554
Ir0_1 Ir1_5 2.797138 1_455
Ir0_1 Ir1_3 2.797138 1_545
Ir0_1 Ir1_0 2.797138 1_555
Ir0_2 Ir1_0 2.797138 1_555
Ir0_2 Ir1_6 2.797138 1_455
Ir0_2 Ir1_3 2.797138 1_554
Ir0_3 Ir1_7 2.797138 1_455
Ir0_3 Ir1_1 2.797138 1_555
Ir0_3 Ir1_2 2.797138 1_555
Ir0_4 Ir1_0 2.797138 1_555
Ir0_4 Ir1_6 2.797138 1_545
Ir0_4 Ir1_5 2.797138 1_554
Ir0_5 Ir1_7 2.797138 1_545
Ir0_5 Ir1_1 2.797138 1_555
Ir0_5 Ir1_4 2.797138 1_555
Ir0_6 Ir1_4 2.797138 1_555
Ir0_6 Ir1_2 2.797138 1_555
Ir0_6 Ir1_7 2.797138 1_554
Ir0_7 Ir1_5 2.797138 1_555
Ir0_7 Ir1_3 2.797138 1_555
Ir0_7 Ir1_6 2.797138 1_555
Ir1_0 Ir1_6 2.705976 1_545
Ir1_0 Ir1_6 2.705976 1_455
Ir1_0 Ir1_5 2.705976 1_455
Ir1_0 Ir1_3 2.705976 1_545
Ir1_0 Ir1_3 2.705976 1_554
Ir1_0 Ir1_5 2.705976 1_554
Ir1_0 Ir2_2 2.797138 1_545
Ir1_0 Ir2_4 2.797138 1_455
Ir1_0 Ir2_1 2.797138 1_554
Ir1_1 Ir1_7 2.705976 1_455
Ir1_1 Ir1_7 2.705976 1_545
Ir1_1 Ir1_2 2.705976 1_546
Ir1_1 Ir1_4 2.705976 1_456
Ir1_1 Ir1_4 2.705976 1_555
Ir1_1 Ir1_2 2.705976 1_555
Ir1_1 Ir2_5 2.797138 1_455
Ir1_1 Ir2_3 2.797138 1_545
Ir1_1 Ir2_0 2.797138 1_555
Ir1_2 Ir1_4 2.705976 1_555
Ir1_2 Ir1_4 2.705976 1_465
Ir1_2 Ir1_7 2.705976 1_455
Ir1_2 Ir1_7 2.705976 1_554
Ir1_2 Ir2_6 2.797138 1_455
Ir1_2 Ir2_0 2.797138 1_555
Ir1_2 Ir2_3 2.797138 1_554
Ir1_3 Ir1_5 2.705976 1_465
Ir1_3 Ir1_5 2.705976 1_555
Ir1_3 Ir1_6 2.705976 1_456
Ir1_3 Ir1_6 2.705976 1_555
Ir1_3 Ir2_7 2.797138 1_455
Ir1_3 Ir2_1 2.797138 1_555
Ir1_3 Ir2_2 2.797138 1_555
Ir1_4 Ir1_7 2.705976 1_554
Ir1_4 Ir1_7 2.705976 1_545
Ir1_4 Ir2_6 2.797138 1_545
Ir1_4 Ir2_0 2.797138 1_555
Ir1_4 Ir2_5 2.797138 1_554
Ir1_5 Ir1_6 2.705976 1_546
Ir1_5 Ir1_6 2.705976 1_555
Ir1_5 Ir2_7 2.797138 1_545
Ir1_5 Ir2_1 2.797138 1_555
Ir1_5 Ir2_4 2.797138 1_555
Ir1_6 Ir2_2 2.797138 1_555
Ir1_6 Ir2_4 2.797138 1_555
Ir1_6 Ir2_7 2.797138 1_554
Ir1_7 Ir2_3 2.797138 1_555
Ir1_7 Ir2_5 2.797138 1_555
Ir1_7 Ir2_6 2.797138 1_555
