# generated using pymatgen
data_Ce2B8O15
_symmetry_space_group_name_H-M   'P 1'
_cell_length_a   4.24397300
_cell_length_b   9.21382300
_cell_length_c   12.57220205
_cell_angle_alpha   63.47053208
_cell_angle_beta   90.00000000
_cell_angle_gamma   90.00000000
_symmetry_Int_Tables_number   1
_chemical_formula_structural   Ce2B8O15
_chemical_formula_sum   'Ce4 B16 O30'
_cell_volume   439.84896722
_cell_formula_units_Z   2
loop_
 _symmetry_equiv_pos_site_id
 _symmetry_equiv_pos_as_xyz
  1  'x, y, z'
loop_
 _atom_site_type_symbol
 _atom_site_label
 _atom_site_symmetry_multiplicity
 _atom_site_fract_x
 _atom_site_fract_y
 _atom_site_fract_z
 _atom_site_occupancy
  Ce  Ce0  1  0.26432900  0.85779400  0.94768700  1
  Ce  Ce1  1  0.26432900  0.14220600  0.55231300  1
  Ce  Ce2  1  0.73567100  0.14220600  0.05231300  1
  Ce  Ce3  1  0.73567100  0.85779400  0.44768700  1
  B  B0  1  0.21522300  0.89273700  0.20438300  1
  B  B1  1  0.21522300  0.10726300  0.29561700  1
  B  B2  1  0.78477700  0.10726300  0.79561700  1
  B  B3  1  0.78477700  0.89273700  0.70438300  1
  B  B4  1  0.73099400  0.71627900  0.23436500  1
  B  B5  1  0.73099400  0.28372100  0.26563500  1
  B  B6  1  0.26900600  0.28372100  0.76563500  1
  B  B7  1  0.26900600  0.71627900  0.73436500  1
  B  B8  1  0.21693300  0.40545300  0.12673300  1
  B  B9  1  0.21693300  0.59454700  0.37326700  1
  B  B10  1  0.78306700  0.59454700  0.87326700  1
  B  B11  1  0.78306700  0.40545300  0.62673300  1
  B  B12  1  0.70811800  0.58600200  0.08597000  1
  B  B13  1  0.70811800  0.41399800  0.41403000  1
  B  B14  1  0.29188200  0.41399800  0.91403000  1
  B  B15  1  0.29188200  0.58600200  0.58597000  1
  O  O0  1  0.25973500  0.97148800  0.07846200  1
  O  O1  1  0.25973500  0.02851200  0.42153800  1
  O  O2  1  0.74026500  0.02851200  0.92153800  1
  O  O3  1  0.74026500  0.97148800  0.57846200  1
  O  O4  1  0.87946100  0.85925500  0.23553400  1
  O  O5  1  0.87946100  0.14074500  0.26446600  1
  O  O6  1  0.12053900  0.14074500  0.76446600  1
  O  O7  1  0.12053900  0.85925500  0.73553400  1
  O  O8  1  0.61856800  0.72375700  0.76380100  1
  O  O9  1  0.61856800  0.27624300  0.73619900  1
  O  O10  1  0.38143200  0.27624300  0.23619900  1
  O  O11  1  0.38143200  0.72375700  0.26380100  1
  O  O12  1  0.77457600  0.71303400  0.12215700  1
  O  O13  1  0.77457600  0.28696600  0.37784300  1
  O  O14  1  0.22542400  0.28696600  0.87784300  1
  O  O15  1  0.22542400  0.71303400  0.62215700  1
  O  O16  1  0.81055300  0.66117400  0.95991700  1
  O  O17  1  0.81055300  0.33882600  0.54008300  1
  O  O18  1  0.18944700  0.33882600  0.04008300  1
  O  O19  1  0.18944700  0.66117400  0.45991700  1
  O  O20  1  0.87780100  0.42731100  0.16132200  1
  O  O21  1  0.87780100  0.57268900  0.33867800  1
  O  O22  1  0.12219900  0.57268900  0.83867800  1
  O  O23  1  0.12219900  0.42731100  0.66132200  1
  O  O24  1  0.37196500  0.55643500  0.09018200  1
  O  O25  1  0.37196500  0.44356500  0.40981800  1
  O  O26  1  0.62803500  0.44356500  0.90981800  1
  O  O27  1  0.62803500  0.55643500  0.59018200  1
  O  O28  1  0.35091200  0.00000000  0.25000000  1
  O  O29  1  0.64908800  0.00000000  0.75000000  1
loop_
_geom_bond_atom_site_label_1
_geom_bond_atom_site_label_2
_geom_bond_distance
_geom_bond_site_symmetry_2
Ce0 O0 2.310734 1_556
Ce0 O2 2.490017 1_565
Ce0 O24 2.585400 1_556
Ce0 O16 2.601065 1_455
Ce0 O2 2.658389 1_465
Ce0 O6 2.666564 1_565
Ce0 O7 2.730315 1_555
Ce0 O29 2.766067 1_565
Ce0 O12 2.880444 1_456
Ce0 O16 2.903558 1_555
Ce0 O12 2.943821 1_556
Ce1 O1 2.310734 1_555
Ce1 O3 2.490017 1_545
Ce1 O25 2.585400 1_555
Ce1 O17 2.601065 1_455
Ce1 O3 2.658389 1_445
Ce1 O7 2.666564 1_545
Ce1 O6 2.730315 1_555
Ce1 O29 2.766067 1_555
Ce1 O13 2.880444 1_455
Ce1 O17 2.903558 1_555
Ce1 O13 2.943821 1_555
Ce2 O2 2.310734 1_554
Ce2 O0 2.490017 1_545
Ce2 O26 2.585400 1_554
Ce2 O18 2.601065 1_655
Ce2 O0 2.658389 1_645
Ce2 O4 2.666564 1_545
Ce2 O5 2.730315 1_555
Ce2 O28 2.766067 1_555
Ce2 O14 2.880444 1_654
Ce2 O18 2.903558 1_555
Ce2 O14 2.943821 1_554
Ce3 O3 2.310734 1_555
Ce3 O1 2.490017 1_565
Ce3 O27 2.585400 1_555
Ce3 O19 2.601065 1_655
Ce3 O1 2.658389 1_665
Ce3 O5 2.666564 1_565
Ce3 O4 2.730315 1_555
Ce3 O28 2.766067 1_565
Ce3 O15 2.880444 1_655
Ce3 O19 2.903558 1_555
Ce3 O15 2.943821 1_555
B0 O0 1.429072 1_555
B0 O28 1.464102 1_565
B0 O4 1.473481 1_455
B0 O11 1.562279 1_555
B1 O1 1.429072 1_555
B1 O28 1.464102 1_555
B1 O5 1.473481 1_455
B1 O10 1.562279 1_555
B2 O2 1.429072 1_555
B2 O29 1.464102 1_555
B2 O6 1.473481 1_655
B2 O9 1.562279 1_555
B3 O3 1.429072 1_555
B3 O29 1.464102 1_565
B3 O7 1.473481 1_655
B3 O8 1.562279 1_555
B4 O12 1.436267 1_555
B4 O4 1.466271 1_555
B4 O21 1.519368 1_555
B4 O11 1.537969 1_555
B5 O13 1.436267 1_555
B5 O5 1.466271 1_555
B5 O20 1.519368 1_555
B5 O10 1.537969 1_555
B6 O14 1.436267 1_555
B6 O6 1.466271 1_555
B6 O23 1.519368 1_555
B6 O9 1.537969 1_555
B7 O15 1.436267 1_555
B7 O7 1.466271 1_555
B7 O22 1.519368 1_555
B7 O8 1.537969 1_555
B8 O24 1.417119 1_555
B8 O18 1.474664 1_555
B8 O10 1.528101 1_555
B8 O20 1.542527 1_455
B9 O25 1.417119 1_555
B9 O19 1.474664 1_555
B9 O11 1.528101 1_555
B9 O21 1.542527 1_455
B10 O26 1.417119 1_555
B10 O16 1.474664 1_555
B10 O8 1.528101 1_555
B10 O22 1.542527 1_655
B11 O27 1.417119 1_555
B11 O17 1.474664 1_555
B11 O9 1.528101 1_555
B11 O23 1.542527 1_655
B12 O24 1.448927 1_555
B12 O12 1.460196 1_555
B12 O16 1.483122 1_554
B12 O20 1.522020 1_555
B13 O25 1.448927 1_555
B13 O13 1.460196 1_555
B13 O17 1.483122 1_555
B13 O21 1.522020 1_555
B14 O26 1.448927 1_555
B14 O14 1.460196 1_555
B14 O18 1.483122 1_556
B14 O22 1.522020 1_555
B15 O27 1.448927 1_555
B15 O15 1.460196 1_555
B15 O19 1.483122 1_555
B15 O23 1.522020 1_555
