# generated using pymatgen
data_RbZr6CI14
_symmetry_space_group_name_H-M   'P 1'
_cell_length_a   10.96610502
_cell_length_b   10.96610502
_cell_length_c   13.14110400
_cell_angle_alpha   90.00000000
_cell_angle_beta   90.00000000
_cell_angle_gamma   94.89572883
_symmetry_Int_Tables_number   1
_chemical_formula_structural   RbZr6CI14
_chemical_formula_sum   'Rb2 Zr12 C2 I28'
_cell_volume   1574.52406533
_cell_formula_units_Z   2
loop_
 _symmetry_equiv_pos_site_id
 _symmetry_equiv_pos_as_xyz
  1  'x, y, z'
loop_
 _atom_site_type_symbol
 _atom_site_label
 _atom_site_symmetry_multiplicity
 _atom_site_fract_x
 _atom_site_fract_y
 _atom_site_fract_z
 _atom_site_occupancy
  Rb  Rb0  1  0.50000000  0.50000000  0.00000000  1
  Rb  Rb1  1  0.00000000  0.00000000  0.50000000  1
  Zr  Zr0  1  0.37231600  0.37231600  0.40569700  1
  Zr  Zr1  1  0.62768400  0.62768400  0.59430300  1
  Zr  Zr2  1  0.12768400  0.12768400  0.90569700  1
  Zr  Zr3  1  0.87231600  0.87231600  0.09430300  1
  Zr  Zr4  1  0.95913900  0.16554500  0.10594800  1
  Zr  Zr5  1  0.04086100  0.83445500  0.89405200  1
  Zr  Zr6  1  0.54086100  0.33445500  0.60594800  1
  Zr  Zr7  1  0.66554500  0.45913900  0.39405200  1
  Zr  Zr8  1  0.45913900  0.66554500  0.39405200  1
  Zr  Zr9  1  0.33445500  0.54086100  0.60594800  1
  Zr  Zr10  1  0.83445500  0.04086100  0.89405200  1
  Zr  Zr11  1  0.16554500  0.95913900  0.10594800  1
  C  C0  1  0.00000000  0.00000000  0.00000000  1
  C  C1  1  0.50000000  0.50000000  0.50000000  1
  I  I0  1  0.11365300  0.36115900  0.00618200  1
  I  I1  1  0.88634700  0.63884100  0.99381800  1
  I  I2  1  0.38634700  0.13884100  0.50618200  1
  I  I3  1  0.86115900  0.61365300  0.49381800  1
  I  I4  1  0.61365300  0.86115900  0.49381800  1
  I  I5  1  0.13884100  0.38634700  0.50618200  1
  I  I6  1  0.63884100  0.88634700  0.99381800  1
  I  I7  1  0.36115900  0.11365300  0.00618200  1
  I  I8  1  0.75111600  0.24888400  0.00000000  1
  I  I9  1  0.24888400  0.75111600  0.00000000  1
  I  I10  1  0.74888400  0.25111600  0.50000000  1
  I  I11  1  0.25111600  0.74888400  0.50000000  1
  I  I12  1  0.89837500  0.39837500  0.25000000  1
  I  I13  1  0.10162500  0.60162500  0.75000000  1
  I  I14  1  0.60162500  0.10162500  0.75000000  1
  I  I15  1  0.39837500  0.89837500  0.25000000  1
  I  I16  1  0.15314400  0.15314400  0.25918800  1
  I  I17  1  0.84685600  0.84685600  0.74081200  1
  I  I18  1  0.34685600  0.34685600  0.75918800  1
  I  I19  1  0.65314400  0.65314400  0.24081200  1
  I  I20  1  0.28913100  0.53545100  0.25297900  1
  I  I21  1  0.71086900  0.46454900  0.74702100  1
  I  I22  1  0.21086900  0.96454900  0.75297900  1
  I  I23  1  0.03545100  0.78913100  0.24702100  1
  I  I24  1  0.78913100  0.03545100  0.24702100  1
  I  I25  1  0.96454900  0.21086900  0.75297900  1
  I  I26  1  0.46454900  0.71086900  0.74702100  1
  I  I27  1  0.53545100  0.28913100  0.25297900  1
loop_
_geom_bond_atom_site_label_1
_geom_bond_atom_site_label_2
_geom_bond_distance
_geom_bond_site_symmetry_2
C0 Zr2 2.263226 1_554
C0 Zr3 2.263226 1_445
C0 Zr11 2.360862 1_545
C0 Zr4 2.360862 1_455
C0 Zr5 2.360862 1_544
C0 Zr10 2.360862 1_454
C1 Zr1 2.263226 1_555
C1 Zr0 2.263226 1_555
C1 Zr8 2.360862 1_555
C1 Zr7 2.360862 1_555
C1 Zr6 2.360862 1_555
C1 Zr9 2.360862 1_555
I0 Zr2 2.896513 1_554
I0 Zr4 2.927631 1_455
I1 Zr3 2.896513 1_556
I1 Zr5 2.927631 1_655
I2 Zr0 2.896513 1_555
I2 Zr6 2.927631 1_555
I3 Zr1 2.896513 1_555
I3 Zr7 2.927631 1_555
I4 Zr1 2.896513 1_555
I4 Zr8 2.927631 1_555
I5 Zr0 2.896513 1_555
I5 Zr9 2.927631 1_555
I6 Zr3 2.896513 1_556
I6 Zr10 2.927631 1_565
I7 Zr2 2.896513 1_554
I7 Zr11 2.927631 1_545
I8 Zr4 2.886758 1_555
I8 Zr10 2.886758 1_554
I8 Rb0 4.057189 1_555
I9 Zr11 2.886758 1_555
I9 Zr5 2.886758 1_554
I9 Rb0 4.057189 1_555
I10 Zr7 2.886758 1_555
I10 Zr6 2.886758 1_555
I10 Rb1 4.057189 1_655
I11 Zr8 2.886758 1_555
I11 Zr9 2.886758 1_555
I11 Rb1 4.057189 1_565
I12 Zr4 3.291943 1_555
I12 Zr7 3.291943 1_555
I13 Zr9 3.291943 1_555
I13 Zr5 3.291943 1_555
I14 Zr6 3.291943 1_555
I14 Zr10 3.291943 1_555
I15 Zr8 3.291943 1_555
I15 Zr11 3.291943 1_555
I16 Zr4 2.940953 1_455
I16 Zr11 2.940953 1_545
I16 Zr0 3.778098 1_555
I16 Rb1 3.895332 1_555
I17 Zr10 2.940953 1_565
I17 Zr5 2.940953 1_655
I17 Zr1 3.778098 1_555
I17 Rb1 3.895332 1_665
I18 Zr9 2.940953 1_555
I18 Zr6 2.940953 1_555
I18 Zr2 3.778098 1_555
I18 Rb0 3.895332 1_556
I19 Zr8 2.940953 1_555
I19 Zr7 2.940953 1_555
I19 Zr3 3.778098 1_555
I19 Rb0 3.895332 1_555
I20 Zr0 2.887667 1_555
I20 Zr8 2.914408 1_555
I20 Rb0 4.087005 1_555
I21 Zr1 2.887667 1_555
I21 Zr6 2.914408 1_555
I21 Rb0 4.087005 1_556
I22 Zr2 2.887667 1_565
I22 Zr5 2.914408 1_555
I22 Rb1 4.087005 1_565
I23 Zr3 2.887667 1_455
I23 Zr11 2.914408 1_555
I23 Rb1 4.087005 1_565
I24 Zr3 2.887667 1_545
I24 Zr4 2.914408 1_555
I24 Rb1 4.087005 1_655
I25 Zr2 2.887667 1_655
I25 Zr10 2.914408 1_555
I25 Rb1 4.087005 1_655
I26 Zr1 2.887667 1_555
I26 Zr9 2.914408 1_555
I26 Rb0 4.087005 1_556
I27 Zr0 2.887667 1_555
I27 Zr7 2.914408 1_555
I27 Rb0 4.087005 1_555
