# generated using pymatgen
data_Ba3Yb
_symmetry_space_group_name_H-M   'P 1'
_cell_length_a   8.68052820
_cell_length_b   8.68052820
_cell_length_c   7.06786700
_cell_angle_alpha   90.00000000
_cell_angle_beta   90.00000000
_cell_angle_gamma   120.00000154
_symmetry_Int_Tables_number   1
_chemical_formula_structural   Ba3Yb
_chemical_formula_sum   'Ba6 Yb2'
_cell_volume   461.22336322
_cell_formula_units_Z   2
loop_
 _symmetry_equiv_pos_site_id
 _symmetry_equiv_pos_as_xyz
  1  'x, y, z'
loop_
 _atom_site_type_symbol
 _atom_site_label
 _atom_site_symmetry_multiplicity
 _atom_site_fract_x
 _atom_site_fract_y
 _atom_site_fract_z
 _atom_site_occupancy
  Ba  Ba0  1  0.16769600  0.33539200  0.25000000  1
  Ba  Ba1  1  0.66460800  0.83230400  0.25000000  1
  Ba  Ba2  1  0.16769600  0.83230400  0.25000000  1
  Ba  Ba3  1  0.83230400  0.66460800  0.75000000  1
  Ba  Ba4  1  0.33539200  0.16769600  0.75000000  1
  Ba  Ba5  1  0.83230400  0.16769600  0.75000000  1
  Yb  Yb0  1  0.33333300  0.66666700  0.75000000  1
  Yb  Yb1  1  0.66666700  0.33333300  0.25000000  1
loop_
_geom_bond_atom_site_label_1
_geom_bond_atom_site_label_2
_geom_bond_distance
_geom_bond_site_symmetry_2
Ba0 Ba1 4.313459 1_555
Ba0 Ba2 4.313459 1_555
Ba0 Yb0 4.323271 1_554
Ba0 Yb0 4.323271 1_555
Ba0 Yb1 4.340287 1_455
Ba0 Yb1 4.340296 1_555
Ba0 Ba5 4.341173 1_455
Ba0 Ba5 4.341173 1_454
Ba0 Ba4 4.341173 1_555
Ba0 Ba4 4.341173 1_554
Ba0 Ba1 4.367069 1_445
Ba0 Ba2 4.367070 1_545
Ba1 Ba2 4.313459 1_555
Ba1 Yb0 4.323271 1_554
Ba1 Yb0 4.323271 1_555
Ba1 Yb1 4.340287 1_565
Ba1 Yb1 4.340296 1_555
Ba1 Ba5 4.341173 1_564
Ba1 Ba5 4.341173 1_565
Ba1 Ba3 4.341173 1_555
Ba1 Ba3 4.341173 1_554
Ba1 Ba2 4.367070 1_655
Ba2 Yb0 4.323267 1_555
Ba2 Yb0 4.323267 1_554
Ba2 Yb1 4.340292 1_565
Ba2 Yb1 4.340292 1_455
Ba2 Ba3 4.341173 1_455
Ba2 Ba3 4.341173 1_454
Ba2 Ba4 4.341173 1_565
Ba2 Ba4 4.341173 1_564
Ba3 Ba4 4.313459 1_555
Ba3 Ba5 4.313459 1_555
Ba3 Yb1 4.323271 1_556
Ba3 Yb1 4.323271 1_555
Ba3 Yb0 4.340287 1_655
Ba3 Yb0 4.340296 1_555
Ba3 Ba4 4.367069 1_665
Ba3 Ba5 4.367070 1_565
Ba4 Ba5 4.313459 1_555
Ba4 Yb1 4.323271 1_556
Ba4 Yb1 4.323271 1_555
Ba4 Yb0 4.340287 1_545
Ba4 Yb0 4.340296 1_555
Ba4 Ba5 4.367070 1_455
Ba5 Yb1 4.323267 1_555
Ba5 Yb1 4.323267 1_556
Ba5 Yb0 4.340292 1_655
Ba5 Yb0 4.340292 1_545
