# generated using pymatgen
data_Tb2Si3Rh
_symmetry_space_group_name_H-M   'P 1'
_cell_length_a   8.14318802
_cell_length_b   8.14318867
_cell_length_c   7.97738190
_cell_angle_alpha   89.99996812
_cell_angle_beta   89.99999982
_cell_angle_gamma   119.99998134
_symmetry_Int_Tables_number   1
_chemical_formula_structural   Tb2Si3Rh
_chemical_formula_sum   'Tb8 Si12 Rh4'
_cell_volume   458.12084824
_cell_formula_units_Z   4
loop_
 _symmetry_equiv_pos_site_id
 _symmetry_equiv_pos_as_xyz
  1  'x, y, z'
loop_
 _atom_site_type_symbol
 _atom_site_label
 _atom_site_symmetry_multiplicity
 _atom_site_fract_x
 _atom_site_fract_y
 _atom_site_fract_z
 _atom_site_occupancy
  Tb  Tb0  1  -0.00000027  -0.00000067  0.75000037  1
  Tb  Tb1  1  0.50722752  0.01445477  0.24999829  1
  Tb  Tb2  1  0.50722752  0.49277267  0.24999926  1
  Tb  Tb3  1  -0.00000020  -0.00000036  0.25000027  1
  Tb  Tb4  1  0.98554517  0.49277248  0.24999922  1
  Tb  Tb5  1  0.49274855  0.98549728  0.75000157  1
  Tb  Tb6  1  0.49274896  0.50725185  0.75000073  1
  Tb  Tb7  1  0.01450229  0.50725169  0.75000065  1
  Si  Si0  1  0.83301582  0.16698559  0.49971372  1
  Si  Si1  1  0.83301648  0.66603291  0.49971349  1
  Si  Si2  1  0.33397022  0.16698574  0.49971367  1
  Si  Si3  1  0.16697313  0.33394594  0.50027808  1
  Si  Si4  1  0.33396819  0.16698354  0.00028717  1
  Si  Si5  1  0.83301553  0.16698363  0.00028711  1
  Si  Si6  1  0.83301533  0.66603076  0.00028708  1
  Si  Si7  1  0.16697269  0.33394513  -0.00027719  1
  Si  Si8  1  0.66605386  0.83302655  -0.00027721  1
  Si  Si9  1  0.66605429  0.83302731  0.50027659  1
  Si  Si10  1  0.16697316  0.83302726  0.50027645  1
  Si  Si11  1  0.16697263  0.83302645  -0.00027711  1
  Rh  Rh0  1  0.66666752  0.33333468  0.52841051  1
  Rh  Rh1  1  0.33333323  0.66666628  0.47154220  1
  Rh  Rh2  1  0.66666653  0.33333267  0.97158903  1
  Rh  Rh3  1  0.33333285  0.66666586  0.02845704  1
loop_
_geom_bond_atom_site_label_1
_geom_bond_atom_site_label_2
_geom_bond_distance
_geom_bond_site_symmetry_2
Si0 Si3 2.355141 1_655
Si0 Si9 2.355148 1_545
Si0 Tb4 3.042045 1_555
Si0 Tb1 3.042058 1_555
Si0 Tb3 3.084703 1_655
Si0 Tb0 3.087658 1_655
Si0 Tb7 3.123030 1_655
Si0 Tb5 3.123040 1_545
Si1 Si9 2.355135 1_555
Si1 Si10 2.355137 1_655
Si1 Tb2 3.042056 1_555
Si1 Tb4 3.042057 1_555
Si1 Tb3 3.084683 1_665
Si1 Tb0 3.087641 1_665
Si1 Tb7 3.123034 1_655
Si1 Tb6 3.123038 1_555
Si2 Si3 2.355140 1_555
Si2 Tb2 3.042045 1_555
Si2 Tb1 3.042058 1_555
Si2 Tb3 3.084705 1_555
Si2 Tb0 3.087660 1_555
Si2 Tb6 3.123031 1_555
Si2 Tb5 3.123037 1_545
Si3 Tb6 3.042042 1_555
Si3 Tb7 3.042045 1_555
Si3 Tb0 3.084622 1_555
Si3 Tb3 3.087486 1_555
Si3 Tb2 3.122911 1_555
Si3 Tb4 3.122911 1_455
Si4 Si7 2.355139 1_555
Si4 Tb1 3.042034 1_555
Si4 Tb2 3.042046 1_555
Si4 Tb3 3.084692 1_555
Si4 Tb0 3.087651 1_554
Si4 Tb5 3.123025 1_544
Si4 Tb6 3.123038 1_554
Si5 Si8 2.355140 1_545
Si5 Si7 2.355140 1_655
Si5 Tb1 3.042034 1_555
Si5 Tb4 3.042045 1_555
Si5 Tb3 3.084691 1_655
Si5 Tb0 3.087650 1_654
Si5 Tb5 3.123027 1_544
Si5 Tb7 3.123036 1_654
Si6 Si8 2.355140 1_555
Si6 Tb2 3.042038 1_555
Si6 Tb4 3.042039 1_555
Si6 Tb3 3.084697 1_665
Si6 Tb0 3.087650 1_664
Si6 Tb7 3.123026 1_654
Si6 Tb6 3.123028 1_554
Si7 Tb6 3.042041 1_554
Si7 Tb7 3.042044 1_554
Si7 Tb0 3.084620 1_554
Si7 Tb3 3.087478 1_555
Si7 Tb4 3.122902 1_455
Si7 Tb2 3.122902 1_555
Si8 Tb6 3.042034 1_554
Si8 Tb5 3.042034 1_554
Si8 Tb0 3.084619 1_664
Si8 Tb3 3.087482 1_665
Si8 Tb1 3.122896 1_565
Si8 Tb2 3.122896 1_555
Si9 Tb6 3.042047 1_555
Si9 Tb5 3.042053 1_555
Si9 Tb0 3.084624 1_665
Si9 Tb3 3.087472 1_665
Si9 Tb2 3.122906 1_555
Si9 Tb1 3.122907 1_565
Si10 Si2 2.355149 1_565
Si10 Tb7 3.042047 1_555
Si10 Tb5 3.042053 1_555
Si10 Tb0 3.084625 1_565
Si10 Tb3 3.087472 1_565
Si10 Tb4 3.122907 1_455
Si10 Tb1 3.122907 1_565
Si11 Si4 2.355140 1_565
Si11 Si6 2.355141 1_455
Si11 Tb5 3.042035 1_554
Si11 Tb7 3.042035 1_554
Si11 Tb0 3.084618 1_564
Si11 Tb3 3.087481 1_565
Si11 Tb4 3.122896 1_455
Si11 Tb1 3.122897 1_565
Rh0 Si2 2.357393 1_555
Rh0 Si0 2.357393 1_555
Rh0 Si1 2.357399 1_555
Rh0 Tb7 3.023578 1_655
Rh0 Tb6 3.023584 1_555
Rh0 Tb5 3.023596 1_545
Rh0 Tb4 3.160676 1_555
Rh0 Tb2 3.160677 1_555
Rh0 Tb1 3.160694 1_555
Rh1 Si3 2.357585 1_555
Rh1 Si10 2.357588 1_555
Rh1 Si9 2.357589 1_555
Rh1 Tb2 3.023089 1_555
Rh1 Tb4 3.023091 1_455
Rh1 Tb1 3.023097 1_565
Rh1 Tb6 3.160702 1_555
Rh1 Tb7 3.160706 1_555
Rh1 Tb5 3.160713 1_555
Rh2 Si5 2.357398 1_556
Rh2 Si6 2.357399 1_556
Rh2 Si4 2.357401 1_556
Rh2 Tb5 3.023570 1_545
Rh2 Tb7 3.023575 1_655
Rh2 Tb6 3.023579 1_555
Rh2 Tb1 3.160665 1_556
Rh2 Tb4 3.160676 1_556
Rh2 Tb2 3.160677 1_556
Rh3 Si11 2.357586 1_555
Rh3 Si7 2.357586 1_555
Rh3 Si8 2.357588 1_555
Rh3 Tb4 3.023084 1_455
Rh3 Tb2 3.023085 1_555
Rh3 Tb1 3.023088 1_565
Rh3 Tb6 3.160690 1_554
Rh3 Tb5 3.160691 1_554
Rh3 Tb7 3.160694 1_554
