# generated using pymatgen
data_Ag6Te4W3O20
_symmetry_space_group_name_H-M   'P 1'
_cell_length_a   15.52412535
_cell_length_b   15.52412535
_cell_length_c   9.71240627
_cell_angle_alpha   88.40717391
_cell_angle_beta   88.40717391
_cell_angle_gamma   25.38658428
_symmetry_Int_Tables_number   1
_chemical_formula_structural   Ag6Te4W3O20
_chemical_formula_sum   'Ag12 Te8 W6 O40'
_cell_volume   1003.09521598
_cell_formula_units_Z   2
loop_
 _symmetry_equiv_pos_site_id
 _symmetry_equiv_pos_as_xyz
  1  'x, y, z'
loop_
 _atom_site_type_symbol
 _atom_site_label
 _atom_site_symmetry_multiplicity
 _atom_site_fract_x
 _atom_site_fract_y
 _atom_site_fract_z
 _atom_site_occupancy
  Ag  Ag0  1  0.63565800  0.42469900  0.59296700  1
  Ag  Ag1  1  0.57530100  0.36434200  0.90703300  1
  Ag  Ag2  1  0.36434200  0.57530100  0.40703300  1
  Ag  Ag3  1  0.42469900  0.63565800  0.09296700  1
  Ag  Ag4  1  0.24637200  0.54065700  0.70505000  1
  Ag  Ag5  1  0.45934300  0.75362800  0.79495000  1
  Ag  Ag6  1  0.75362800  0.45934300  0.29495000  1
  Ag  Ag7  1  0.54065700  0.24637200  0.20505100  1
  Ag  Ag8  1  0.48734400  0.14516500  0.49129800  1
  Ag  Ag9  1  0.85483500  0.51265600  0.00870200  1
  Ag  Ag10  1  0.51265600  0.85483500  0.50870200  1
  Ag  Ag11  1  0.14516500  0.48734400  0.99129800  1
  Te  Te0  1  0.06285600  0.77804800  0.03797200  1
  Te  Te1  1  0.22195200  0.93714400  0.46202800  1
  Te  Te2  1  0.93714400  0.22195200  0.96202800  1
  Te  Te3  1  0.77804800  0.06285600  0.53797200  1
  Te  Te4  1  0.90296400  0.63854500  0.64420800  1
  Te  Te5  1  0.36145500  0.09703600  0.85579200  1
  Te  Te6  1  0.09703600  0.36145500  0.35579200  1
  Te  Te7  1  0.63854500  0.90296400  0.14420800  1
  W  W0  1  0.06288200  0.93711800  0.75000000  1
  W  W1  1  0.93711800  0.06288200  0.25000000  1
  W  W2  1  0.02194200  0.64646000  0.34629200  1
  W  W3  1  0.35354000  0.97805800  0.15370800  1
  W  W4  1  0.97805800  0.35354000  0.65370800  1
  W  W5  1  0.64646000  0.02194200  0.84629200  1
  O  O0  1  0.85863300  0.68513400  0.44706000  1
  O  O1  1  0.31486600  0.14136700  0.05294000  1
  O  O2  1  0.14136700  0.31486600  0.55294000  1
  O  O3  1  0.68513400  0.85863300  0.94706000  1
  O  O4  1  0.16427900  0.77800400  0.14912400  1
  O  O5  1  0.22199600  0.83572100  0.35087600  1
  O  O6  1  0.83572100  0.22199600  0.85087600  1
  O  O7  1  0.77800400  0.16427900  0.64912400  1
  O  O8  1  0.76648500  0.65204900  0.66118400  1
  O  O9  1  0.34795100  0.23351500  0.83881600  1
  O  O10  1  0.23351500  0.34795100  0.33881600  1
  O  O11  1  0.65204900  0.76648500  0.16118400  1
  O  O12  1  0.95925900  0.94747700  0.88993000  1
  O  O13  1  0.05252300  0.04074100  0.61007000  1
  O  O14  1  0.04074100  0.05252300  0.11007000  1
  O  O15  1  0.94747700  0.95925900  0.38993000  1
  O  O16  1  0.30352300  0.53052100  0.95063000  1
  O  O17  1  0.46947900  0.69647700  0.54937000  1
  O  O18  1  0.69647700  0.46947900  0.04937000  1
  O  O19  1  0.53052100  0.30352300  0.45063000  1
  O  O20  1  0.65942800  0.92425900  0.67661200  1
  O  O21  1  0.07574100  0.34057200  0.82338800  1
  O  O22  1  0.34057200  0.07574100  0.32338800  1
  O  O23  1  0.92425900  0.65942800  0.17661200  1
  O  O24  1  0.78485400  0.91979500  0.34107100  1
  O  O25  1  0.08020500  0.21514600  0.15892900  1
  O  O26  1  0.21514600  0.08020500  0.65892900  1
  O  O27  1  0.91979500  0.78485400  0.84107100  1
  O  O28  1  0.19453800  0.73832300  0.65207700  1
  O  O29  1  0.26167700  0.80546200  0.84792300  1
  O  O30  1  0.80546200  0.26167700  0.34792300  1
  O  O31  1  0.73832300  0.19453800  0.15207700  1
  O  O32  1  0.10902300  0.59004600  0.51958300  1
  O  O33  1  0.40995400  0.89097700  0.98041700  1
  O  O34  1  0.89097700  0.40995400  0.48041700  1
  O  O35  1  0.59004600  0.10902300  0.01958300  1
  O  O36  1  0.18345400  0.56539900  0.23128200  1
  O  O37  1  0.43460100  0.81654600  0.26871800  1
  O  O38  1  0.81654600  0.43460100  0.76871800  1
  O  O39  1  0.56539900  0.18345400  0.73128200  1
loop_
_geom_bond_atom_site_label_1
_geom_bond_atom_site_label_2
_geom_bond_distance
_geom_bond_site_symmetry_2
Ag0 O17 2.220406 1_555
Ag0 O7 2.308060 1_555
Ag0 O30 2.636249 1_555
Ag1 O16 2.220406 1_555
Ag1 O6 2.308060 1_555
Ag1 O31 2.636249 1_556
Ag2 O19 2.220406 1_555
Ag2 O5 2.308060 1_555
Ag2 O28 2.636249 1_555
Ag3 O18 2.220406 1_555
Ag3 O4 2.308060 1_555
Ag3 O29 2.636249 1_554
Ag4 O32 2.358360 1_555
Ag4 O39 2.389926 1_555
Ag4 O28 2.408763 1_555
Ag4 O16 2.519027 1_555
Ag4 O27 2.645506 1_455
Ag5 O33 2.358360 1_555
Ag5 O38 2.389926 1_555
Ag5 O29 2.408763 1_555
Ag5 O17 2.519027 1_555
Ag5 O26 2.645506 1_565
Ag6 O34 2.358360 1_555
Ag6 O37 2.389926 1_555
Ag6 O30 2.408763 1_555
Ag6 O18 2.519027 1_555
Ag6 O25 2.645506 1_655
Ag7 O35 2.358368 1_555
Ag7 O36 2.389925 1_555
Ag7 O31 2.408765 1_555
Ag7 O19 2.519017 1_555
Ag7 O24 2.645502 1_545
Ag8 O10 2.298291 1_555
Ag8 O20 2.346780 1_545
Ag8 O24 2.532386 1_545
Ag9 O11 2.298291 1_555
Ag9 O21 2.346780 1_654
Ag9 O25 2.532386 1_655
Ag10 O8 2.298291 1_555
Ag10 O22 2.346780 1_565
Ag10 O26 2.532386 1_565
Ag11 O9 2.298291 1_555
Ag11 O23 2.346780 1_456
Ag11 O27 2.532386 1_455
O0 Te4 1.939076 1_555
O0 W2 2.211376 1_655
O0 Te6 2.489002 1_655
O1 Te5 1.939076 1_554
O1 W3 2.211376 1_545
O1 Te7 2.489002 1_545
O2 Te6 1.939076 1_555
O2 W4 2.211376 1_455
O2 Te4 2.489002 1_455
O3 Te7 1.939076 1_556
O3 W5 2.211376 1_565
O3 Te5 2.489002 1_565
O4 Te0 1.933134 1_555
O4 W1 2.196253 1_465
O5 Te1 1.933134 1_555
O5 W1 2.196253 1_465
O6 Te2 1.933134 1_555
O6 W0 2.196253 1_645
O7 Te3 1.933134 1_555
O7 W0 2.196253 1_645
O8 Te4 1.933921 1_555
O8 W4 2.184420 1_555
O9 Te5 1.933921 1_555
O9 W5 2.184420 1_555
O10 Te6 1.933921 1_555
O10 W2 2.184420 1_555
O11 Te7 1.933921 1_555
O11 W3 2.184420 1_555
O12 Te0 1.961404 1_656
O12 W0 1.970750 1_655
O13 Te1 1.961404 1_545
O13 W0 1.970750 1_545
O14 Te2 1.961404 1_454
O14 W1 1.970750 1_455
O15 Te3 1.961404 1_565
O15 W1 1.970750 1_565
O16 Te0 1.873142 1_556
O17 Te1 1.873142 1_555
O18 Te2 1.873142 1_554
O19 Te3 1.873142 1_555
O20 Te4 1.943663 1_555
O20 W5 2.150561 1_565
O21 Te5 1.943663 1_555
O21 W4 2.150561 1_455
O22 Te6 1.943663 1_555
O22 W3 2.150561 1_545
O23 Te7 1.943663 1_555
O23 W2 2.150561 1_655
O24 W2 1.825886 1_655
O25 W3 1.825886 1_545
O26 W4 1.825886 1_455
O27 W5 1.825886 1_565
O28 W0 1.806693 1_555
O29 W0 1.806693 1_555
O30 W1 1.806693 1_555
O31 W1 1.806693 1_555
O32 W2 1.825535 1_555
O33 W3 1.825535 1_556
O34 W4 1.825535 1_555
O35 W5 1.825535 1_554
O36 W2 1.827397 1_555
O36 Te0 2.571295 1_555
O37 W3 1.827397 1_555
O37 Te1 2.571295 1_555
O38 W4 1.827397 1_555
O38 Te2 2.571295 1_555
O39 W5 1.827397 1_555
O39 Te3 2.571295 1_555
