# generated using pymatgen
data_Li9Mn2Co5O16
_symmetry_space_group_name_H-M   'P 1'
_cell_length_a   4.99134800
_cell_length_b   5.94208231
_cell_length_c   10.24446825
_cell_angle_alpha   105.99703325
_cell_angle_beta   100.31482759
_cell_angle_gamma   90.69194393
_symmetry_Int_Tables_number   1
_chemical_formula_structural   Li9Mn2Co5O16
_chemical_formula_sum   'Li9 Mn2 Co5 O16'
_cell_volume   286.74778359
_cell_formula_units_Z   1
loop_
 _symmetry_equiv_pos_site_id
 _symmetry_equiv_pos_as_xyz
  1  'x, y, z'
loop_
 _atom_site_type_symbol
 _atom_site_label
 _atom_site_symmetry_multiplicity
 _atom_site_fract_x
 _atom_site_fract_y
 _atom_site_fract_z
 _atom_site_occupancy
  Li  Li0  1  0.25315100  0.86242500  0.74412500  1
  Li  Li1  1  0.24342200  0.37983700  0.25087900  1
  Li  Li2  1  0.75508200  0.62503300  0.75002900  1
  Li  Li3  1  0.75005100  0.13131700  0.25597600  1
  Li  Li4  1  0.24646700  0.37231400  0.74306100  1
  Li  Li5  1  0.24660700  0.87966500  0.25292100  1
  Li  Li6  1  0.75412500  0.12079400  0.74720000  1
  Li  Li7  1  0.74925200  0.62616300  0.25605000  1
  Li  Li8  1  0.99956500  0.49862600  0.49966800  1
  Mn  Mn0  1  0.00147200  0.00063800  0.00100500  1
  Mn  Mn1  1  0.49956600  0.74977700  0.49985200  1
  Co  Co0  1  0.49451900  0.74666000  0.99594200  1
  Co  Co1  1  0.50068400  0.26180500  0.50022300  1
  Co  Co2  1  0.99924200  0.50000900  0.99940100  1
  Co  Co3  1  0.00042200  0.99511100  0.50009700  1
  Co  Co4  1  0.50536800  0.25380000  0.00391000  1
  O  O0  1  0.13673700  0.18703300  0.88935400  1
  O  O1  1  0.13364300  0.71708400  0.39192000  1
  O  O2  1  0.63722400  0.94788800  0.88600000  1
  O  O3  1  0.59867600  0.45873000  0.38479800  1
  O  O4  1  0.14505900  0.67405400  0.87459100  1
  O  O5  1  0.13134000  0.17022900  0.39322100  1
  O  O6  1  0.64152600  0.44091000  0.88312100  1
  O  O7  1  0.63642100  0.93461500  0.38836100  1
  O  O8  1  0.40124400  0.57190100  0.61502100  1
  O  O9  1  0.36513000  0.05351300  0.11654800  1
  O  O10  1  0.86936300  0.27457000  0.60601800  1
  O  O11  1  0.86372800  0.81265500  0.11102600  1
  O  O12  1  0.36356900  0.04390700  0.61174100  1
  O  O13  1  0.35676100  0.55938900  0.11430600  1
  O  O14  1  0.86677300  0.82323400  0.60843900  1
  O  O15  1  0.85380900  0.32631300  0.12519600  1
loop_
_geom_bond_atom_site_label_1
_geom_bond_atom_site_label_2
_geom_bond_distance
_geom_bond_site_symmetry_2
Li0 O12 2.089344 1_565
Li0 O8 2.097215 1_555
Li0 O4 2.097274 1_555
Li0 O14 2.134581 1_455
Li0 O2 2.148783 1_555
Li0 O0 2.241998 1_565
Li1 O3 2.000108 1_555
Li1 O15 2.098442 1_455
Li1 O13 2.123086 1_555
Li1 O9 2.209024 1_555
Li1 O1 2.262276 1_555
Li1 O5 2.295002 1_555
Li2 O8 2.000725 1_555
Li2 O4 2.096194 1_655
Li2 O6 2.112166 1_555
Li2 O2 2.194211 1_555
Li2 O14 2.239896 1_555
Li2 O10 2.339942 1_555
Li3 O15 2.120226 1_555
Li3 O5 2.122312 1_655
Li3 O9 2.139409 1_555
Li3 O7 2.158770 1_545
Li3 O11 2.211401 1_545
Li3 O3 2.252773 1_555
Li4 O4 2.054535 1_555
Li4 O10 2.104537 1_455
Li4 O6 2.181334 1_555
Li4 O12 2.195835 1_555
Li4 O8 2.218577 1_555
Li4 O0 2.224182 1_555
Li5 O1 2.076415 1_555
Li5 O5 2.080908 1_565
Li5 O9 2.108455 1_565
Li5 O7 2.141424 1_555
Li5 O11 2.142801 1_455
Li5 O13 2.180814 1_555
Li6 O10 2.066718 1_555
Li6 O14 2.094770 1_545
Li6 O2 2.122692 1_545
Li6 O0 2.143081 1_655
Li6 O12 2.143571 1_555
Li6 O6 2.172363 1_555
Li7 O15 2.049508 1_555
Li7 O3 2.086754 1_555
Li7 O7 2.107784 1_555
Li7 O1 2.124750 1_655
Li7 O13 2.179183 1_555
Li7 O11 2.226639 1_555
Li8 O1 2.093958 1_655
Li8 O10 2.100958 1_555
Li8 O3 2.106288 1_555
Li8 O8 2.110122 1_655
Li8 O14 2.124184 1_555
Li8 O5 2.131805 1_655
Mn0 O9 1.950993 1_555
Mn0 O2 1.951250 1_444
Mn0 O11 1.985865 1_445
Mn0 O0 1.986855 1_554
Mn0 O15 2.218122 1_455
Mn0 O4 2.222040 1_544
Mn1 O8 1.905832 1_555
Mn1 O3 1.931537 1_555
Mn1 O1 1.935475 1_555
Mn1 O14 1.941714 1_555
Mn1 O7 1.982468 1_555
Mn1 O12 2.008076 1_565
Co0 O4 1.919316 1_555
Co0 O11 1.972185 1_556
Co0 O13 2.050666 1_556
Co0 O2 2.052960 1_555
Co0 O9 2.083446 1_566
Co0 O6 2.086510 1_555
Co1 O10 1.950344 1_555
Co1 O5 1.954381 1_555
Co1 O3 1.990636 1_555
Co1 O8 2.015291 1_555
Co1 O12 2.126942 1_555
Co1 O7 2.152669 1_545
Co2 O13 1.923073 1_656
Co2 O6 1.929484 1_555
Co2 O4 2.068342 1_655
Co2 O15 2.074363 1_556
Co2 O0 2.086349 1_655
Co2 O11 2.086363 1_556
Co3 O5 1.891114 1_565
Co3 O14 1.895640 1_455
Co3 O10 1.910536 1_465
Co3 O1 1.918573 1_555
Co3 O12 1.933856 1_565
Co3 O7 1.937298 1_455
Co4 O15 1.914998 1_555
Co4 O0 1.967890 1_554
Co4 O9 2.064932 1_555
Co4 O6 2.066505 1_554
Co4 O2 2.073603 1_544
Co4 O13 2.080273 1_555
