# generated using pymatgen
data_CeMg14Si
_symmetry_space_group_name_H-M   'P 1'
_cell_length_a   6.50920988
_cell_length_b   6.28047928
_cell_length_c   10.31870810
_cell_angle_alpha   90.00000000
_cell_angle_beta   90.00000000
_cell_angle_gamma   118.84425048
_symmetry_Int_Tables_number   1
_chemical_formula_structural   CeMg14Si
_chemical_formula_sum   'Ce1 Mg14 Si1'
_cell_volume   369.50298264
_cell_formula_units_Z   1
loop_
 _symmetry_equiv_pos_site_id
 _symmetry_equiv_pos_as_xyz
  1  'x, y, z'
loop_
 _atom_site_type_symbol
 _atom_site_label
 _atom_site_symmetry_multiplicity
 _atom_site_fract_x
 _atom_site_fract_y
 _atom_site_fract_z
 _atom_site_occupancy
  Ce  Ce0  1  0.15196557  0.32598228  0.12500000  1
  Mg  Mg0  1  0.16530442  0.33265171  0.62500000  1
  Mg  Mg1  1  0.16040172  0.83020036  0.62500000  1
  Mg  Mg2  1  0.64784370  0.31511920  0.12500000  1
  Mg  Mg3  1  0.66509657  0.33653524  0.62500000  1
  Mg  Mg4  1  0.64784370  0.83272350  0.12500000  1
  Mg  Mg5  1  0.66509657  0.82856033  0.62500000  1
  Mg  Mg6  1  0.33752827  0.16480175  0.37890306  1
  Mg  Mg7  1  0.33752827  0.16480175  0.87109694  1
  Mg  Mg8  1  0.33752827  0.67272753  0.37890306  1
  Mg  Mg9  1  0.33752827  0.67272753  0.87109694  1
  Mg  Mg10  1  0.83166219  0.16583160  0.38443290  1
  Mg  Mg11  1  0.83166219  0.16583160  0.86556710  1
  Mg  Mg12  1  0.84750822  0.67375461  0.35917278  1
  Mg  Mg13  1  0.84750822  0.67375461  0.89082722  1
  Si  Si0  1  0.18799384  0.84399642  0.12500000  1
loop_
_geom_bond_atom_site_label_1
_geom_bond_atom_site_label_2
_geom_bond_distance
_geom_bond_site_symmetry_2
Ce0 Si0 3.146951 1_545
Ce0 Si0 3.146951 1_555
Ce0 Mg11 3.240617 1_454
Ce0 Mg10 3.240617 1_455
Ce0 Mg7 3.244621 1_554
Ce0 Mg6 3.244621 1_555
Ce0 Mg9 3.244628 1_554
Ce0 Mg8 3.244628 1_555
Ce0 Mg4 3.249070 1_445
Ce0 Mg2 3.249071 1_455
Ce0 Mg4 3.261236 1_555
Ce0 Mg2 3.261236 1_555
Mg0 Mg10 3.127426 1_455
Mg0 Mg11 3.127426 1_455
Mg0 Mg1 3.140364 1_545
Mg0 Mg1 3.140364 1_555
Mg0 Mg6 3.155446 1_555
Mg0 Mg7 3.155446 1_555
Mg0 Mg8 3.155452 1_555
Mg0 Mg9 3.155452 1_555
Mg0 Mg5 3.241555 1_555
Mg0 Mg3 3.241556 1_555
Mg0 Mg5 3.267794 1_445
Mg0 Mg3 3.267794 1_455
Mg1 Mg8 3.139460 1_555
Mg1 Mg9 3.139460 1_555
Mg1 Mg6 3.139466 1_565
Mg1 Mg7 3.139466 1_565
Mg1 Mg3 3.219088 1_455
Mg1 Mg5 3.219089 1_455
Mg1 Mg13 3.272108 1_455
Mg1 Mg12 3.272108 1_455
Mg1 Mg3 3.290146 1_565
Mg1 Mg5 3.290146 1_555
Mg2 Si0 3.028050 1_545
Mg2 Mg4 3.029676 1_545
Mg2 Mg7 3.161569 1_554
Mg2 Mg6 3.161569 1_555
Mg2 Mg4 3.250803 1_555
Mg3 Mg5 3.090153 1_555
Mg3 Mg6 3.152661 1_555
Mg3 Mg7 3.152661 1_555
Mg3 Mg5 3.190326 1_545
Mg4 Si0 3.028050 1_555
Mg4 Mg9 3.161569 1_554
Mg4 Mg8 3.161569 1_555
Mg5 Mg8 3.152662 1_555
Mg5 Mg9 3.152662 1_555
Mg6 Mg8 3.090462 1_545
Mg6 Si0 3.158926 1_545
Mg6 Mg8 3.190017 1_555
Mg7 Mg9 3.090462 1_545
Mg7 Si0 3.158926 1_546
Mg7 Mg9 3.190017 1_555
Mg8 Si0 3.158920 1_555
Mg9 Si0 3.158920 1_556
Mg10 Mg3 3.099753 1_555
Mg10 Mg5 3.099760 1_545
Mg10 Mg12 3.152334 1_555
Mg10 Mg12 3.152334 1_545
Mg10 Mg8 3.213812 1_545
Mg10 Mg6 3.213813 1_555
Mg10 Mg2 3.249547 1_555
Mg10 Mg4 3.249553 1_545
Mg10 Mg8 3.296407 1_655
Mg10 Mg6 3.296408 1_655
Mg11 Mg3 3.099753 1_555
Mg11 Mg5 3.099760 1_545
Mg11 Mg13 3.152334 1_555
Mg11 Mg13 3.152334 1_545
Mg11 Mg9 3.213812 1_545
Mg11 Mg7 3.213813 1_555
Mg11 Mg2 3.249547 1_556
Mg11 Mg4 3.249553 1_546
Mg11 Mg9 3.296407 1_655
Mg11 Mg7 3.296408 1_655
Mg12 Si0 3.099604 1_655
Mg12 Mg4 3.126771 1_555
Mg12 Mg2 3.126778 1_555
Mg12 Mg6 3.199245 1_665
Mg12 Mg8 3.199245 1_655
Mg12 Mg5 3.315562 1_555
Mg12 Mg3 3.315568 1_555
Mg12 Mg6 3.322702 1_555
Mg12 Mg8 3.322703 1_555
Mg13 Si0 3.099604 1_656
Mg13 Mg4 3.126771 1_556
Mg13 Mg2 3.126778 1_556
Mg13 Mg7 3.199245 1_665
Mg13 Mg9 3.199245 1_655
Mg13 Mg5 3.315562 1_555
Mg13 Mg3 3.315568 1_555
Mg13 Mg7 3.322702 1_555
Mg13 Mg9 3.322703 1_555
