# generated using pymatgen
data_Li7Mn4CoO12
_symmetry_space_group_name_H-M   'P 1'
_cell_length_a   6.48936338
_cell_length_b   6.48936338
_cell_length_c   5.24825658
_cell_angle_alpha   84.20516072
_cell_angle_beta   84.20516072
_cell_angle_gamma   82.95654776
_symmetry_Int_Tables_number   1
_chemical_formula_structural   Li7Mn4CoO12
_chemical_formula_sum   'Li7 Mn4 Co1 O12'
_cell_volume   217.34487776
_cell_formula_units_Z   1
loop_
 _symmetry_equiv_pos_site_id
 _symmetry_equiv_pos_as_xyz
  1  'x, y, z'
loop_
 _atom_site_type_symbol
 _atom_site_label
 _atom_site_symmetry_multiplicity
 _atom_site_fract_x
 _atom_site_fract_y
 _atom_site_fract_z
 _atom_site_occupancy
  Li  Li0  1  0.08514200  0.41807000  0.74996600  1
  Li  Li1  1  0.58193000  0.91485800  0.25003400  1
  Li  Li2  1  0.92061500  0.59179900  0.25668900  1
  Li  Li3  1  0.40820100  0.07938500  0.74331100  1
  Li  Li4  1  0.75047900  0.74623300  0.74886200  1
  Li  Li5  1  0.25376700  0.24952100  0.25113800  1
  Li  Li6  1  0.16828200  0.83171800  0.50000000  1
  Mn  Mn0  1  0.00131700  0.99868300  0.00000000  1
  Mn  Mn1  1  0.33348200  0.66651800  0.00000000  1
  Mn  Mn2  1  0.83497500  0.16502500  0.50000000  1
  Mn  Mn3  1  0.66571500  0.33428500  0.00000000  1
  Co  Co0  1  0.49826100  0.50173900  0.50000000  1
  O  O0  1  0.95173200  0.28166300  0.10736400  1
  O  O1  1  0.44953400  0.76352100  0.64898700  1
  O  O2  1  0.78065100  0.45302200  0.60573700  1
  O  O3  1  0.28270500  0.94841500  0.10315500  1
  O  O4  1  0.61442100  0.61838700  0.10848500  1
  O  O5  1  0.10042300  0.11662300  0.65263300  1
  O  O6  1  0.23647900  0.55046600  0.35101300  1
  O  O7  1  0.71833700  0.04826800  0.89263600  1
  O  O8  1  0.05158500  0.71729500  0.89684500  1
  O  O9  1  0.54697800  0.21934900  0.39426300  1
  O  O10  1  0.88337700  0.89957700  0.34736700  1
  O  O11  1  0.38161300  0.38557900  0.89151500  1
loop_
_geom_bond_atom_site_label_1
_geom_bond_atom_site_label_2
_geom_bond_distance
_geom_bond_site_symmetry_2
Li0 O5 2.059485 1_555
Li0 O11 2.110748 1_555
Li0 O0 2.139191 1_456
Li0 O8 2.139349 1_555
Li0 O2 2.164777 1_455
Li0 O6 2.348428 1_555
Li1 O10 2.059485 1_555
Li1 O4 2.110748 1_555
Li1 O7 2.139191 1_564
Li1 O3 2.139349 1_555
Li1 O9 2.164777 1_565
Li1 O1 2.348428 1_555
Li2 O10 2.079512 1_555
Li2 O8 2.118316 1_654
Li2 O2 2.126807 1_555
Li2 O6 2.135828 1_655
Li2 O4 2.187204 1_555
Li2 O0 2.211861 1_555
Li3 O5 2.079512 1_555
Li3 O3 2.118316 1_546
Li3 O9 2.126807 1_555
Li3 O1 2.135828 1_545
Li3 O11 2.187204 1_555
Li3 O7 2.211861 1_555
Li4 O1 2.059715 1_555
Li4 O2 2.095374 1_555
Li4 O4 2.134727 1_556
Li4 O7 2.149683 1_565
Li4 O8 2.154884 1_655
Li4 O10 2.365199 1_555
Li5 O6 2.059715 1_555
Li5 O9 2.095374 1_555
Li5 O11 2.134727 1_554
Li5 O0 2.149683 1_455
Li5 O3 2.154884 1_545
Li5 O5 2.365199 1_555
Li6 O1 2.039272 1_555
Li6 O6 2.039272 1_555
Li6 O5 2.069308 1_565
Li6 O10 2.069308 1_455
Li6 O8 2.229301 1_555
Li6 O3 2.229301 1_555
Mn0 O3 1.936949 1_555
Mn0 O8 1.936949 1_554
Mn0 O7 1.954657 1_464
Mn0 O0 1.954657 1_465
Mn0 O5 1.981206 1_564
Mn0 O10 1.981206 1_455
Mn1 O8 1.940172 1_554
Mn1 O3 1.940172 1_555
Mn1 O11 1.944099 1_554
Mn1 O4 1.944099 1_555
Mn1 O6 1.989743 1_555
Mn1 O1 1.989743 1_554
Mn2 O10 1.950079 1_545
Mn2 O5 1.950079 1_655
Mn2 O9 1.983287 1_555
Mn2 O2 1.983287 1_555
Mn2 O7 2.214427 1_555
Mn2 O0 2.214427 1_555
Mn3 O4 1.963969 1_555
Mn3 O11 1.963969 1_554
Mn3 O0 1.973829 1_555
Mn3 O7 1.973829 1_554
Mn3 O9 2.222368 1_555
Mn3 O2 2.222368 1_554
Co0 O6 1.919342 1_555
Co0 O1 1.919342 1_555
Co0 O9 1.947798 1_555
Co0 O2 1.947798 1_555
Co0 O11 2.208255 1_555
Co0 O4 2.208255 1_555
