# generated using pymatgen
data_Lu2H16S3O20
_symmetry_space_group_name_H-M   'P 1'
_cell_length_a   6.64916000
_cell_length_b   7.64519054
_cell_length_c   18.42490119
_cell_angle_alpha   101.86204085
_cell_angle_beta   90.00000000
_cell_angle_gamma   115.77632290
_symmetry_Int_Tables_number   1
_chemical_formula_structural   Lu2H16S3O20
_chemical_formula_sum   'Lu4 H32 S6 O40'
_cell_volume   821.15096136
_cell_formula_units_Z   2
loop_
 _symmetry_equiv_pos_site_id
 _symmetry_equiv_pos_as_xyz
  1  'x, y, z'
loop_
 _atom_site_type_symbol
 _atom_site_label
 _atom_site_symmetry_multiplicity
 _atom_site_fract_x
 _atom_site_fract_y
 _atom_site_fract_z
 _atom_site_occupancy
  Lu  Lu0  1  0.14685200  0.33649500  0.39311000  1
  Lu  Lu1  1  0.81035700  0.66350500  0.10689000  1
  Lu  Lu2  1  0.85314800  0.66350500  0.60689000  1
  Lu  Lu3  1  0.18964300  0.33649500  0.89311000  1
  H  H0  1  0.49434200  0.70551200  0.48167800  1
  H  H1  1  0.78883000  0.29448800  0.01832200  1
  H  H2  1  0.50565800  0.29448800  0.51832200  1
  H  H3  1  0.21117000  0.70551200  0.98167800  1
  H  H4  1  0.27920800  0.74448000  0.48774700  1
  H  H5  1  0.53472800  0.25552000  0.01225300  1
  H  H6  1  0.72079200  0.25552000  0.51225300  1
  H  H7  1  0.46527200  0.74448000  0.98774700  1
  H  H8  1  0.20058300  0.44072900  0.24839900  1
  H  H9  1  0.75985500  0.55927100  0.25160100  1
  H  H10  1  0.79941700  0.55927100  0.75160100  1
  H  H11  1  0.24014500  0.44072900  0.74839900  1
  H  H12  1  0.37076300  0.64228900  0.30484500  1
  H  H13  1  0.72847400  0.35771100  0.19515500  1
  H  H14  1  0.62923700  0.35771100  0.69515500  1
  H  H15  1  0.27152600  0.64228900  0.80484500  1
  H  H16  1  0.69226500  0.01799200  0.39346200  1
  H  H17  1  0.67427400  0.98200800  0.10653800  1
  H  H18  1  0.30773500  0.98200800  0.60653800  1
  H  H19  1  0.32572600  0.01799200  0.89346200  1
  H  H20  1  0.83617200  0.99498800  0.45586200  1
  H  H21  1  0.84118300  0.00501200  0.04413800  1
  H  H22  1  0.16382800  0.00501200  0.54413800  1
  H  H23  1  0.15881700  0.99498800  0.95586200  1
  H  H24  1  0.05223100  0.90562200  0.35662900  1
  H  H25  1  0.14661000  0.09437800  0.14337100  1
  H  H26  1  0.94776900  0.09437800  0.64337100  1
  H  H27  1  0.85339000  0.90562200  0.85662900  1
  H  H28  1  0.31057100  0.02944900  0.34564200  1
  H  H29  1  0.28112200  0.97055100  0.15435800  1
  H  H30  1  0.68942900  0.97055100  0.65435800  1
  H  H31  1  0.71887800  0.02944900  0.84564200  1
  S  S0  1  0.24731400  0.44191400  0.58814500  1
  S  S1  1  0.80540000  0.55808600  0.91185500  1
  S  S2  1  0.75268600  0.55808600  0.41185500  1
  S  S3  1  0.19460000  0.44191400  0.08814500  1
  S  S4  1  0.69119400  0.00000000  0.25000000  1
  S  S5  1  0.30880600  0.00000000  0.75000000  1
  O  O0  1  0.22497700  0.30560100  0.51300700  1
  O  O1  1  0.91937700  0.69439900  0.98699300  1
  O  O2  1  0.77502300  0.69439900  0.48699300  1
  O  O3  1  0.08062300  0.30560100  0.01300700  1
  O  O4  1  0.48134100  0.60139100  0.60354800  1
  O  O5  1  0.87995000  0.39860900  0.89645200  1
  O  O6  1  0.51865900  0.39860900  0.39645200  1
  O  O7  1  0.12005000  0.60139100  0.10354800  1
  O  O8  1  0.09316000  0.53257000  0.58311300  1
  O  O9  1  0.56059000  0.46743000  0.91688700  1
  O  O10  1  0.90684000  0.46743000  0.41688700  1
  O  O11  1  0.43941000  0.53257000  0.08311300  1
  O  O12  1  0.19132100  0.32369500  0.64548400  1
  O  O13  1  0.86762600  0.67630500  0.85451600  1
  O  O14  1  0.80867900  0.67630500  0.35451600  1
  O  O15  1  0.13237400  0.32369500  0.14548400  1
  O  O16  1  0.90420700  0.16548500  0.28993600  1
  O  O17  1  0.73872200  0.83451500  0.21006400  1
  O  O18  1  0.09579300  0.83451500  0.71006400  1
  O  O19  1  0.26127800  0.16548500  0.78993600  1
  O  O20  1  0.52773400  0.92868300  0.30544200  1
  O  O21  1  0.59905100  0.07131700  0.19455800  1
  O  O22  1  0.47226600  0.07131700  0.69455800  1
  O  O23  1  0.40094900  0.92868300  0.80544200  1
  O  O24  1  0.35191000  0.67623900  0.45424600  1
  O  O25  1  0.67567100  0.32376100  0.04575400  1
  O  O26  1  0.64809000  0.32376100  0.54575400  1
  O  O27  1  0.32432900  0.67623900  0.95424600  1
  O  O28  1  0.26368500  0.50210200  0.30088600  1
  O  O29  1  0.76158300  0.49789800  0.19911400  1
  O  O30  1  0.73631500  0.49789800  0.69911400  1
  O  O31  1  0.23841700  0.50210200  0.80088600  1
  O  O32  1  0.81076400  0.09442600  0.43647700  1
  O  O33  1  0.71633800  0.90557400  0.06352300  1
  O  O34  1  0.18923600  0.90557400  0.56352300  1
  O  O35  1  0.28366200  0.09442600  0.93647700  1
  O  O36  1  0.17917200  0.04093100  0.36626900  1
  O  O37  1  0.13824200  0.95906900  0.13373100  1
  O  O38  1  0.82082800  0.95906900  0.63373100  1
  O  O39  1  0.86175800  0.04093100  0.86626900  1
loop_
_geom_bond_atom_site_label_1
_geom_bond_atom_site_label_2
_geom_bond_distance
_geom_bond_site_symmetry_2
Lu0 O10 2.224835 1_455
Lu0 O16 2.251604 1_455
Lu0 O28 2.263375 1_555
Lu0 O6 2.303917 1_555
Lu0 O36 2.315095 1_555
Lu0 O0 2.350941 1_555
Lu0 O24 2.364632 1_555
Lu0 O32 2.463403 1_455
Lu1 O11 2.224835 1_555
Lu1 O17 2.251604 1_555
Lu1 O29 2.263375 1_555
Lu1 O7 2.303917 1_655
Lu1 O37 2.315098 1_655
Lu1 O1 2.350943 1_554
Lu1 O25 2.364632 1_555
Lu1 O33 2.463403 1_555
Lu2 O8 2.224835 1_655
Lu2 O18 2.251604 1_655
Lu2 O30 2.263375 1_555
Lu2 O4 2.303917 1_555
Lu2 O38 2.315095 1_555
Lu2 O2 2.350941 1_555
Lu2 O26 2.364632 1_555
Lu2 O34 2.463403 1_655
Lu3 O9 2.224835 1_555
Lu3 O19 2.251604 1_555
Lu3 O31 2.263375 1_555
Lu3 O5 2.303917 1_455
Lu3 O39 2.315098 1_455
Lu3 O3 2.350943 1_556
Lu3 O27 2.364632 1_555
Lu3 O35 2.463403 1_555
H0 O24 0.985707 1_555
H1 O25 0.985707 1_555
H2 O26 0.985707 1_555
H3 O27 0.985707 1_555
H4 O24 0.986825 1_555
H5 O25 0.986825 1_555
H6 O26 0.986825 1_555
H7 O27 0.986825 1_555
H8 O28 0.986740 1_555
H9 O29 0.986738 1_555
H10 O30 0.986740 1_555
H11 O31 0.986738 1_555
H12 O28 0.982396 1_555
H13 O29 0.982396 1_555
H14 O30 0.982396 1_555
H15 O31 0.982396 1_555
H16 O32 0.999790 1_555
H17 O33 0.999787 1_555
H18 O34 0.999790 1_555
H19 O35 0.999787 1_555
H20 O32 0.978456 1_565
H21 O33 0.978453 1_545
H22 O34 0.978456 1_545
H23 O35 0.978453 1_565
H24 O36 0.989526 1_565
H25 O37 0.989526 1_545
H26 O38 0.989526 1_545
H27 O39 0.989526 1_565
H28 O36 0.984109 1_555
H29 O37 0.984103 1_555
H30 O38 0.984109 1_555
H31 O39 0.984103 1_555
O0 S0 1.515572 1_555
O1 S1 1.515573 1_555
O2 S2 1.515572 1_555
O3 S3 1.515573 1_555
O4 S0 1.481944 1_555
O5 S1 1.481944 1_555
O6 S2 1.481944 1_555
O7 S3 1.481944 1_555
O8 S0 1.477783 1_555
O9 S1 1.477783 1_555
O10 S2 1.477783 1_555
O11 S3 1.477783 1_555
O12 S0 1.473598 1_555
O13 S1 1.473598 1_555
O14 S2 1.473598 1_555
O15 S3 1.473598 1_555
O16 S4 1.485581 1_555
O17 S4 1.485581 1_565
O18 S5 1.485581 1_565
O19 S5 1.485581 1_555
O20 S4 1.495205 1_565
O21 S4 1.495205 1_555
O22 S5 1.495205 1_555
O23 S5 1.495205 1_565
