# generated using pymatgen
data_Ba2Mn2Sb2O
_symmetry_space_group_name_H-M   'P 1'
_cell_length_a   4.80193000
_cell_length_b   4.80192758
_cell_length_c   20.28063000
_cell_angle_alpha   90.00000424
_cell_angle_beta   90.00002041
_cell_angle_gamma   59.99994571
_symmetry_Int_Tables_number   1
_chemical_formula_structural   Ba2Mn2Sb2O
_chemical_formula_sum   'Ba4 Mn4 Sb4 O2'
_cell_volume   404.98903708
_cell_formula_units_Z   2
loop_
 _symmetry_equiv_pos_site_id
 _symmetry_equiv_pos_as_xyz
  1  'x, y, z'
loop_
 _atom_site_type_symbol
 _atom_site_label
 _atom_site_symmetry_multiplicity
 _atom_site_fract_x
 _atom_site_fract_y
 _atom_site_fract_z
 _atom_site_occupancy
  Ba  Ba0  1  0.00000000  0.00000000  0.49999700  1
  Ba  Ba1  1  0.00000100  0.00000100  0.99999700  1
  Ba  Ba2  1  0.00000100  0.00000100  0.74999500  1
  Ba  Ba3  1  0.00000000  0.00000100  0.24999500  1
  Mn  Mn0  1  0.33333200  0.33333100  0.35093300  1
  Mn  Mn1  1  0.66666300  0.66666500  0.85093000  1
  Mn  Mn2  1  0.33332900  0.33332800  0.14909500  1
  Mn  Mn3  1  0.66667100  0.66666800  0.64909300  1
  Sb  Sb0  1  0.33333400  0.33333400  0.61143000  1
  Sb  Sb1  1  0.33333400  0.33333400  0.88856400  1
  Sb  Sb2  1  0.66666700  0.66666800  0.38856400  1
  Sb  Sb3  1  0.66666700  0.66666800  0.11143000  1
  O  O0  1  0.33333400  0.33333400  0.24998800  1
  O  O1  1  0.66666800  0.66666800  0.74998700  1
loop_
_geom_bond_atom_site_label_1
_geom_bond_atom_site_label_2
_geom_bond_distance
_geom_bond_site_symmetry_2
Ba0 Sb2 3.576790 1_445
Ba0 Sb0 3.576791 1_545
Ba0 Sb0 3.576793 1_455
Ba0 Sb2 3.576796 1_545
Ba0 Sb2 3.576798 1_455
Ba0 Sb0 3.576800 1_555
Ba1 Sb3 3.576792 1_546
Ba1 Sb1 3.576794 1_555
Ba1 Sb3 3.576795 1_456
Ba1 Sb1 3.576795 1_545
Ba1 Sb1 3.576795 1_455
Ba1 Sb3 3.576797 1_446
Ba2 O1 2.772393 1_445
Ba2 O1 2.772394 1_455
Ba2 O1 2.772395 1_545
Ba3 O0 2.772391 1_455
Ba3 O0 2.772394 1_545
Ba3 O0 2.772397 1_555
Mn0 O0 2.047228 1_555
Mn0 Sb2 2.875503 1_545
Mn0 Sb2 2.875513 1_455
Mn0 Sb2 2.875542 1_555
Mn1 O1 2.047188 1_555
Mn1 Sb1 2.875511 1_555
Mn1 Sb1 2.875544 1_565
Mn1 Sb1 2.875553 1_655
Mn2 O0 2.046174 1_555
Mn2 Sb3 2.875675 1_545
Mn2 Sb3 2.875684 1_455
Mn2 Sb3 2.875750 1_555
Mn3 O1 2.046194 1_555
Mn3 Sb0 2.875678 1_655
Mn3 Sb0 2.875688 1_565
Mn3 Sb0 2.875711 1_555
