# generated using pymatgen
data_Ba2(CrS2)5
_symmetry_space_group_name_H-M   'P 1'
_cell_length_a   5.95508812
_cell_length_b   6.82840035
_cell_length_c   17.23990849
_cell_angle_alpha   95.35669507
_cell_angle_beta   92.08643261
_cell_angle_gamma   89.98348133
_symmetry_Int_Tables_number   1
_chemical_formula_structural   Ba2(CrS2)5
_chemical_formula_sum   'Ba4 Cr10 S20'
_cell_volume   697.51120386
_cell_formula_units_Z   2
loop_
 _symmetry_equiv_pos_site_id
 _symmetry_equiv_pos_as_xyz
  1  'x, y, z'
loop_
 _atom_site_type_symbol
 _atom_site_label
 _atom_site_symmetry_multiplicity
 _atom_site_fract_x
 _atom_site_fract_y
 _atom_site_fract_z
 _atom_site_occupancy
  Ba  Ba0  1  0.35790347  0.31624734  0.76774848  1
  Ba  Ba1  1  0.64209653  0.68375266  0.23225152  1
  Ba  Ba2  1  0.76033509  0.26344598  0.55559204  1
  Ba  Ba3  1  0.23966491  0.73655402  0.44440796  1
  Cr  Cr0  1  0.72332488  0.82980532  0.82824933  1
  Cr  Cr1  1  0.27667512  0.17019468  0.17175067  1
  Cr  Cr2  1  0.76501819  0.37533626  0.00235084  1
  Cr  Cr3  1  0.23498181  0.62466374  0.99764916  1
  Cr  Cr4  1  0.08487586  0.79050447  0.66605350  1
  Cr  Cr5  1  0.91512414  0.20949553  0.33394650  1
  Cr  Cr6  1  0.57782561  0.78804838  0.65664301  1
  Cr  Cr7  1  0.42217439  0.21195162  0.34335699  1
  Cr  Cr8  1  0.24363194  0.12168466  0.98967978  1
  Cr  Cr9  1  0.75636806  0.87831534  0.01032022  1
  S  S0  1  0.32491843  0.53722369  0.60935089  1
  S  S1  1  0.67508157  0.46277631  0.39064911  1
  S  S2  1  0.35778072  0.81618645  0.77499636  1
  S  S3  1  0.64221928  0.18381355  0.22500364  1
  S  S4  1  0.07077886  0.35900708  0.91906767  1
  S  S5  1  0.92922114  0.64099292  0.08093233  1
  S  S6  1  0.32461474  0.01665519  0.60950258  1
  S  S7  1  0.67538526  0.98334481  0.39049742  1
  S  S8  1  0.05688355  0.85328126  0.91863912  1
  S  S9  1  0.94311645  0.14671874  0.08136088  1
  S  S10  1  0.58071758  0.61099614  0.92646475  1
  S  S11  1  0.41928242  0.38900386  0.07353525  1
  S  S12  1  0.58892292  0.10376488  0.92239291  1
  S  S13  1  0.41107708  0.89623512  0.07760709  1
  S  S14  1  0.83510398  0.57786258  0.73191021  1
  S  S15  1  0.16489602  0.42213742  0.26808979  1
  S  S16  1  0.83552880  0.03467778  0.73140320  1
  S  S17  1  0.16447120  0.96532222  0.26859680  1
  S  S18  1  0.82843823  0.76386628  0.55891353  1
  S  S19  1  0.17156177  0.23613372  0.44108647  1
loop_
_geom_bond_atom_site_label_1
_geom_bond_atom_site_label_2
_geom_bond_distance
_geom_bond_site_symmetry_2
Ba0 S4 3.161740 1_555
Ba0 S0 3.240767 1_555
Ba0 S6 3.253600 1_555
Ba0 S12 3.399955 1_555
Ba0 S2 3.404394 1_555
Ba0 S2 3.428540 1_545
Ba0 S14 3.462012 1_555
Ba0 S10 3.465173 1_555
Ba0 S16 3.475773 1_555
Ba0 S14 3.650831 1_455
Ba0 S16 3.660991 1_455
Ba1 S5 3.161740 1_555
Ba1 S1 3.240767 1_555
Ba1 S7 3.253600 1_555
Ba1 S13 3.399955 1_555
Ba1 S3 3.404394 1_555
Ba1 S3 3.428540 1_565
Ba1 S15 3.462012 1_555
Ba1 S11 3.465173 1_555
Ba1 S17 3.475773 1_555
Ba1 S15 3.650831 1_655
Ba1 S17 3.660991 1_655
Ba2 S19 3.195588 1_655
Ba2 S1 3.288399 1_555
Ba2 S7 3.300661 1_545
Ba2 S6 3.302568 1_555
Ba2 S0 3.305435 1_555
Ba2 S18 3.436088 1_555
Ba2 S18 3.440772 1_545
Ba2 S16 3.551381 1_555
Ba2 S14 3.568056 1_555
Ba3 S18 3.195588 1_455
Ba3 S0 3.288399 1_555
Ba3 S6 3.300661 1_565
Ba3 S7 3.302568 1_555
Ba3 S1 3.305435 1_555
Ba3 S19 3.436088 1_555
Ba3 S19 3.440772 1_565
Ba3 S17 3.551381 1_555
Ba3 S15 3.568056 1_555
Cr0 S2 2.329986 1_555
Cr0 S14 2.389062 1_555
Cr0 S16 2.389359 1_565
Cr0 S8 2.475451 1_655
Cr0 S12 2.510216 1_565
Cr0 S10 2.529505 1_555
Cr1 S3 2.329986 1_555
Cr1 S15 2.389062 1_555
Cr1 S17 2.389359 1_545
Cr1 S9 2.475451 1_455
Cr1 S13 2.510216 1_545
Cr1 S11 2.529505 1_555
Cr2 S5 2.351136 1_555
Cr2 S4 2.355784 1_654
Cr2 S9 2.389168 1_555
Cr2 S10 2.406885 1_554
Cr2 S12 2.420175 1_554
Cr2 S11 2.432336 1_555
Cr3 S4 2.351136 1_555
Cr3 S5 2.355784 1_456
Cr3 S8 2.389168 1_555
Cr3 S11 2.406885 1_556
Cr3 S13 2.420175 1_556
Cr3 S10 2.432336 1_555
Cr4 S18 2.347106 1_455
Cr4 S6 2.399405 1_565
Cr4 S0 2.403088 1_555
Cr4 S2 2.432253 1_555
Cr4 S16 2.454333 1_465
Cr4 S14 2.458003 1_455
Cr5 S19 2.347106 1_655
Cr5 S7 2.399405 1_545
Cr5 S1 2.403088 1_555
Cr5 S3 2.432253 1_555
Cr5 S17 2.454333 1_645
Cr5 S15 2.458003 1_655
Cr6 S18 2.285673 1_555
Cr6 S6 2.348889 1_565
Cr6 S0 2.349005 1_555
Cr6 S2 2.457358 1_555
Cr6 S14 2.508532 1_555
Cr6 S16 2.510903 1_565
Cr7 S19 2.285673 1_555
Cr7 S7 2.348889 1_545
Cr7 S1 2.349005 1_555
Cr7 S3 2.457358 1_555
Cr7 S15 2.508532 1_555
Cr7 S17 2.510903 1_545
Cr8 S4 2.333187 1_555
Cr8 S8 2.361922 1_545
Cr8 S12 2.394946 1_555
Cr8 S9 2.425990 1_456
Cr8 S11 2.431937 1_556
Cr8 S13 2.446802 1_546
Cr9 S5 2.333187 1_555
Cr9 S9 2.361922 1_565
Cr9 S13 2.394946 1_555
Cr9 S8 2.425990 1_654
Cr9 S10 2.431937 1_554
Cr9 S12 2.446802 1_564
