# generated using pymatgen
data_Nd2MgS4
_symmetry_space_group_name_H-M   'P 1'
_cell_length_a   14.00074800
_cell_length_b   8.22960000
_cell_length_c   6.65342200
_cell_angle_alpha   90.00000000
_cell_angle_beta   90.00000000
_cell_angle_gamma   90.00000000
_symmetry_Int_Tables_number   1
_chemical_formula_structural   Nd2MgS4
_chemical_formula_sum   'Nd8 Mg4 S16'
_cell_volume   766.61098042
_cell_formula_units_Z   4
loop_
 _symmetry_equiv_pos_site_id
 _symmetry_equiv_pos_as_xyz
  1  'x, y, z'
loop_
 _atom_site_type_symbol
 _atom_site_label
 _atom_site_symmetry_multiplicity
 _atom_site_fract_x
 _atom_site_fract_y
 _atom_site_fract_z
 _atom_site_occupancy
  Nd  Nd0  1  0.00000000  0.00000000  0.50000000  1
  Nd  Nd1  1  0.50000000  0.00000000  0.00000000  1
  Nd  Nd2  1  0.50000000  0.50000000  0.00000000  1
  Nd  Nd3  1  0.00000000  0.50000000  0.50000000  1
  Nd  Nd4  1  0.23059000  0.75000000  0.99863300  1
  Nd  Nd5  1  0.76941000  0.25000000  0.00136700  1
  Nd  Nd6  1  0.26941000  0.25000000  0.49863300  1
  Nd  Nd7  1  0.73059000  0.75000000  0.50136700  1
  Mg  Mg0  1  0.09269000  0.25000000  0.92277600  1
  Mg  Mg1  1  0.90731000  0.75000000  0.07722400  1
  Mg  Mg2  1  0.40731000  0.75000000  0.42277600  1
  Mg  Mg3  1  0.59269000  0.25000000  0.57722400  1
  S  S0  1  0.16745000  0.01703400  0.74960300  1
  S  S1  1  0.83255000  0.98296600  0.25039700  1
  S  S2  1  0.33255000  0.98296600  0.24960300  1
  S  S3  1  0.66745000  0.01703400  0.75039700  1
  S  S4  1  0.66745000  0.48296600  0.75039700  1
  S  S5  1  0.33255000  0.51703400  0.24960300  1
  S  S6  1  0.83255000  0.51703400  0.25039700  1
  S  S7  1  0.16745000  0.48296600  0.74960300  1
  S  S8  1  0.06638600  0.75000000  0.24239000  1
  S  S9  1  0.93361400  0.25000000  0.75761000  1
  S  S10  1  0.43361400  0.25000000  0.74239000  1
  S  S11  1  0.56638600  0.75000000  0.25761000  1
  S  S12  1  0.09265800  0.25000000  0.28614400  1
  S  S13  1  0.90734200  0.75000000  0.71385600  1
  S  S14  1  0.40734200  0.75000000  0.78614400  1
  S  S15  1  0.59265800  0.25000000  0.21385600  1
loop_
_geom_bond_atom_site_label_1
_geom_bond_atom_site_label_2
_geom_bond_distance
_geom_bond_site_symmetry_2
Nd0 S12 2.817872 1_555
Nd0 S13 2.817872 1_445
Nd0 S8 2.834525 1_545
Nd0 S9 2.834525 1_455
Nd0 S1 2.876448 1_445
Nd0 S0 2.876448 1_555
Nd1 S14 2.817872 1_544
Nd1 S15 2.817872 1_555
Nd1 S10 2.834525 1_554
Nd1 S11 2.834525 1_545
Nd1 S2 2.876448 1_545
Nd1 S3 2.876448 1_554
Nd2 S14 2.817872 1_554
Nd2 S15 2.817872 1_555
Nd2 S10 2.834525 1_554
Nd2 S11 2.834525 1_555
Nd2 S5 2.876448 1_555
Nd2 S4 2.876448 1_554
Nd3 S12 2.817872 1_555
Nd3 S13 2.817872 1_455
Nd3 S8 2.834525 1_555
Nd3 S9 2.834525 1_455
Nd3 S6 2.876448 1_455
Nd3 S7 2.876448 1_555
Nd4 S8 2.813467 1_556
Nd4 S14 2.850038 1_555
Nd4 S0 2.890703 1_565
Nd4 S7 2.890703 1_555
Nd4 S5 2.915782 1_556
Nd4 S2 2.915782 1_556
Nd5 S9 2.813467 1_554
Nd5 S15 2.850038 1_555
Nd5 S1 2.890703 1_545
Nd5 S6 2.890703 1_555
Nd5 S4 2.915782 1_554
Nd5 S3 2.915782 1_554
Nd6 S10 2.813467 1_555
Nd6 S12 2.850038 1_555
Nd6 S5 2.890703 1_555
Nd6 S2 2.890703 1_545
Nd6 S7 2.915782 1_555
Nd6 S0 2.915782 1_555
Nd7 S11 2.813467 1_555
Nd7 S13 2.850038 1_555
Nd7 S3 2.890703 1_565
Nd7 S4 2.890703 1_555
Nd7 S1 2.915782 1_555
Nd7 S6 2.915782 1_555
Mg0 S12 2.417641 1_556
Mg0 S7 2.469583 1_555
Mg0 S0 2.469583 1_555
Mg0 S9 2.483539 1_455
Mg1 S13 2.417641 1_554
Mg1 S1 2.469583 1_555
Mg1 S6 2.469583 1_555
Mg1 S8 2.483539 1_655
Mg2 S14 2.417641 1_555
Mg2 S2 2.469583 1_555
Mg2 S5 2.469583 1_555
Mg2 S11 2.483539 1_555
Mg3 S15 2.417641 1_555
Mg3 S4 2.469583 1_555
Mg3 S3 2.469583 1_555
Mg3 S10 2.483539 1_555
