# generated using pymatgen
data_Li8N3O
_symmetry_space_group_name_H-M   'P 1'
_cell_length_a   4.80547800
_cell_length_b   4.80547800
_cell_length_c   4.80547800
_cell_angle_alpha   90.00000000
_cell_angle_beta   90.00000000
_cell_angle_gamma   90.00000000
_symmetry_Int_Tables_number   1
_chemical_formula_structural   Li8N3O
_chemical_formula_sum   'Li8 N3 O1'
_cell_volume   110.97107165
_cell_formula_units_Z   1
loop_
 _symmetry_equiv_pos_site_id
 _symmetry_equiv_pos_as_xyz
  1  'x, y, z'
loop_
 _atom_site_type_symbol
 _atom_site_label
 _atom_site_symmetry_multiplicity
 _atom_site_fract_x
 _atom_site_fract_y
 _atom_site_fract_z
 _atom_site_occupancy
  Li  Li0  1  0.25755000  0.74245000  0.25755000  1
  Li  Li1  1  0.74245000  0.25755000  0.25755000  1
  Li  Li2  1  0.74245000  0.74245000  0.74245000  1
  Li  Li3  1  0.25755000  0.25755000  0.74245000  1
  Li  Li4  1  0.25755000  0.74245000  0.74245000  1
  Li  Li5  1  0.74245000  0.25755000  0.74245000  1
  Li  Li6  1  0.74245000  0.74245000  0.25755000  1
  Li  Li7  1  0.25755000  0.25755000  0.25755000  1
  N  N0  1  0.00000000  0.50000000  0.00000000  1
  N  N1  1  0.50000000  0.00000000  0.00000000  1
  N  N2  1  0.00000000  0.00000000  0.50000000  1
  O  O0  1  0.50000000  0.50000000  0.50000000  1
loop_
_geom_bond_atom_site_label_1
_geom_bond_atom_site_label_2
_geom_bond_distance
_geom_bond_site_symmetry_2
Li0 O0 2.017992 1_555
Li0 N2 2.102615 1_565
Li0 N0 2.102615 1_555
Li0 N1 2.102615 1_565
Li1 O0 2.017992 1_555
Li1 N2 2.102615 1_655
Li1 N1 2.102615 1_555
Li1 N0 2.102615 1_655
Li2 O0 2.017992 1_555
Li2 N2 2.102615 1_665
Li2 N0 2.102615 1_656
Li2 N1 2.102615 1_566
Li3 O0 2.017992 1_555
Li3 N2 2.102615 1_555
Li3 N0 2.102615 1_556
Li3 N1 2.102615 1_556
Li4 O0 2.017992 1_555
Li4 N1 2.102615 1_566
Li4 N0 2.102615 1_556
Li4 N2 2.102615 1_565
Li5 O0 2.017992 1_555
Li5 N0 2.102615 1_656
Li5 N2 2.102615 1_655
Li5 N1 2.102615 1_556
Li6 O0 2.017992 1_555
Li6 N2 2.102615 1_665
Li6 N1 2.102615 1_565
Li6 N0 2.102615 1_655
Li7 O0 2.017992 1_555
Li7 N0 2.102615 1_555
Li7 N1 2.102615 1_555
Li7 N2 2.102615 1_555
