# generated using pymatgen
data_Yb(In2Au)2
_symmetry_space_group_name_H-M   'P 1'
_cell_length_a   4.61572800
_cell_length_b   7.76557600
_cell_length_c   9.73318496
_cell_angle_alpha   72.31781373
_cell_angle_beta   90.00000000
_cell_angle_gamma   90.00000000
_symmetry_Int_Tables_number   1
_chemical_formula_structural   Yb(In2Au)2
_chemical_formula_sum   'Yb2 In8 Au4'
_cell_volume   332.39197828
_cell_formula_units_Z   2
loop_
 _symmetry_equiv_pos_site_id
 _symmetry_equiv_pos_as_xyz
  1  'x, y, z'
loop_
 _atom_site_type_symbol
 _atom_site_label
 _atom_site_symmetry_multiplicity
 _atom_site_fract_x
 _atom_site_fract_y
 _atom_site_fract_z
 _atom_site_occupancy
  Yb  Yb0  1  0.75000000  0.83275800  0.78837000  1
  Yb  Yb1  1  0.25000000  0.16724200  0.21163000  1
  In  In0  1  0.25000000  0.09648000  0.87716900  1
  In  In1  1  0.75000000  0.90352000  0.12283100  1
  In  In2  1  0.25000000  0.10474500  0.57179400  1
  In  In3  1  0.75000000  0.89525500  0.42820600  1
  In  In4  1  0.25000000  0.53760000  0.36775200  1
  In  In5  1  0.75000000  0.46240000  0.63224800  1
  In  In6  1  0.25000000  0.50468000  0.87091200  1
  In  In7  1  0.75000000  0.49532000  0.12908800  1
  Au  Au0  1  0.25000000  0.72687600  0.05812000  1
  Au  Au1  1  0.75000000  0.27312400  0.94188000  1
  Au  Au2  1  0.25000000  0.72444200  0.58031600  1
  Au  Au3  1  0.75000000  0.27555800  0.41968400  1
loop_
_geom_bond_atom_site_label_1
_geom_bond_atom_site_label_2
_geom_bond_distance
_geom_bond_site_symmetry_2
In0 Yb0 3.367879 1_545
In0 Yb0 3.367879 1_445
In0 Yb1 3.462092 1_556
In1 Yb1 3.367879 1_565
In1 Yb1 3.367879 1_665
In1 Yb0 3.462092 1_554
In2 Yb1 3.389817 1_555
In2 Yb0 3.395031 1_545
In2 Yb0 3.395031 1_445
In3 Yb0 3.389817 1_555
In3 Yb1 3.395031 1_565
In3 Yb1 3.395031 1_665
In4 Yb1 3.638071 1_555
In5 Yb0 3.638071 1_555
In6 Yb0 3.349498 1_455
In6 Yb0 3.349498 1_555
In6 Yb1 3.547567 1_556
In7 Yb1 3.349498 1_555
In7 Yb1 3.349498 1_655
In7 Yb0 3.547567 1_554
Au0 In1 2.851222 1_455
Au0 In1 2.851222 1_555
Au0 In6 2.864850 1_554
Au0 In0 2.875603 1_564
Au0 In7 2.877888 1_455
Au0 In7 2.877888 1_555
Au0 In4 2.924370 1_555
Au0 Yb0 3.403569 1_454
Au0 Yb0 3.403569 1_554
Au1 In0 2.851222 1_555
Au1 In0 2.851222 1_655
Au1 In7 2.864850 1_556
Au1 In1 2.875603 1_546
Au1 In6 2.877888 1_655
Au1 In6 2.877888 1_555
Au1 In5 2.924370 1_555
Au1 Yb1 3.403569 1_656
Au1 Yb1 3.403569 1_556
Au2 In6 2.824918 1_555
Au2 In3 2.843356 1_455
Au2 In3 2.843356 1_555
Au2 In4 2.865175 1_555
Au2 In2 2.929144 1_565
Au2 In5 3.016247 1_555
Au2 In5 3.016247 1_455
Au2 Yb0 3.342037 1_455
Au2 Yb0 3.342037 1_555
Au3 In7 2.824918 1_555
Au3 In2 2.843356 1_655
Au3 In2 2.843356 1_555
Au3 In5 2.865175 1_555
Au3 In3 2.929144 1_545
Au3 In4 3.016247 1_655
Au3 In4 3.016247 1_555
Au3 Yb1 3.342037 1_655
Au3 Yb1 3.342037 1_555
