# generated using pymatgen
data_MgFe3Ni2Sb(PO4)6
_symmetry_space_group_name_H-M   'P 1'
_cell_length_a   8.79670372
_cell_length_b   8.79670683
_cell_length_c   8.79670371
_cell_angle_alpha   59.28467191
_cell_angle_beta   59.28468675
_cell_angle_gamma   59.28468028
_symmetry_Int_Tables_number   1
_chemical_formula_structural   MgFe3Ni2Sb(PO4)6
_chemical_formula_sum   'Mg1 Fe3 Ni2 Sb1 P6 O24'
_cell_volume   473.49173493
_cell_formula_units_Z   1
loop_
 _symmetry_equiv_pos_site_id
 _symmetry_equiv_pos_as_xyz
  1  'x, y, z'
loop_
 _atom_site_type_symbol
 _atom_site_label
 _atom_site_symmetry_multiplicity
 _atom_site_fract_x
 _atom_site_fract_y
 _atom_site_fract_z
 _atom_site_occupancy
  Mg  Mg0  1  0.74340500  0.74340500  0.74340500  1
  Fe  Fe0  1  0.14976700  0.14976700  0.14976600  1
  Fe  Fe1  1  0.35308400  0.35308400  0.35308400  1
  Fe  Fe2  1  0.62537300  0.62537400  0.62537300  1
  Ni  Ni0  1  0.01493100  0.01493500  0.01493500  1
  Ni  Ni1  1  0.49247400  0.49247200  0.49247300  1
  Sb  Sb0  1  0.87384500  0.87384500  0.87384500  1
  P  P0  1  0.05258400  0.74727000  0.44471700  1
  P  P1  1  0.44471800  0.05258400  0.74727000  1
  P  P2  1  0.74727000  0.44471800  0.05258400  1
  P  P3  1  0.25362200  0.53466300  0.96142200  1
  P  P4  1  0.53466300  0.96142200  0.25362200  1
  P  P5  1  0.96142300  0.25362200  0.53466300  1
  O  O0  1  0.09811800  0.34278300  0.48354000  1
  O  O1  1  0.34278300  0.48353900  0.09811800  1
  O  O2  1  0.07268600  0.91352100  0.25592600  1
  O  O3  1  0.48354000  0.09811800  0.34278300  1
  O  O4  1  0.99748300  0.79449600  0.62043300  1
  O  O5  1  0.24510700  0.58672600  0.43111600  1
  O  O6  1  0.25592600  0.07268600  0.91352100  1
  O  O7  1  0.43111600  0.24510700  0.58672700  1
  O  O8  1  0.14556300  0.40808000  0.02908000  1
  O  O9  1  0.58672700  0.43111500  0.24510800  1
  O  O10  1  0.10502700  0.74548700  0.95674800  1
  O  O11  1  0.40808000  0.02907900  0.14556300  1
  O  O12  1  0.62043400  0.99748300  0.79449600  1
  O  O13  1  0.91352100  0.25592700  0.07268600  1
  O  O14  1  0.39120200  0.54551100  0.75873600  1
  O  O15  1  0.79449500  0.62043400  0.99748300  1
  O  O16  1  0.54551100  0.75873600  0.39120200  1
  O  O17  1  0.74548700  0.95674800  0.10502700  1
  O  O18  1  0.75873600  0.39120200  0.54551000  1
  O  O19  1  0.02908000  0.14556300  0.40808000  1
  O  O20  1  0.49198800  0.88411500  0.69936700  1
  O  O21  1  0.95674800  0.10502700  0.74548700  1
  O  O22  1  0.69936700  0.49198900  0.88411500  1
  O  O23  1  0.88411500  0.69936800  0.49198900  1
loop_
_geom_bond_atom_site_label_1
_geom_bond_atom_site_label_2
_geom_bond_distance
_geom_bond_site_symmetry_2
Mg0 O23 2.040187 1_555
Mg0 O22 2.040191 1_555
Mg0 O20 2.040198 1_555
Mg0 O15 2.104102 1_555
Mg0 O4 2.104105 1_555
Mg0 O12 2.104107 1_555
Fe0 O8 1.944667 1_555
Fe0 O11 1.944668 1_555
Fe0 O19 1.944674 1_555
Fe0 O6 2.112056 1_554
Fe0 O13 2.112057 1_455
Fe0 O2 2.112063 1_545
Fe1 O1 1.956436 1_555
Fe1 O0 1.956436 1_555
Fe1 O3 1.956437 1_555
Fe1 O5 2.092475 1_555
Fe1 O9 2.092479 1_555
Fe1 O7 2.092482 1_555
Fe2 O16 2.069027 1_555
Fe2 O14 2.069031 1_555
Fe2 O18 2.069040 1_555
Fe2 O20 2.232930 1_555
Fe2 O22 2.232937 1_555
Fe2 O23 2.232939 1_555
Ni0 O13 2.062362 1_455
Ni0 O2 2.062365 1_545
Ni0 O6 2.062379 1_554
Ni0 O17 2.326814 1_445
Ni0 O21 2.326827 1_454
Ni0 O10 2.326838 1_544
Ni1 O9 2.147863 1_555
Ni1 O7 2.147866 1_555
Ni1 O5 2.147877 1_555
Ni1 O18 2.248894 1_555
Ni1 O14 2.248908 1_555
Ni1 O16 2.248909 1_555
O0 P5 1.521195 1_455
O1 P3 1.521199 1_554
O2 P0 1.552805 1_555
O3 P4 1.521203 1_545
O4 P0 1.575339 1_655
O4 Sb0 2.230848 1_555
O5 P0 1.548965 1_555
O6 P1 1.552809 1_555
O7 P1 1.548961 1_555
O8 P3 1.524479 1_554
O9 P2 1.548966 1_555
O10 P3 1.627975 1_555
O10 Sb0 2.066542 1_455
O11 P4 1.524482 1_545
O12 P1 1.575339 1_565
O12 Sb0 2.230839 1_555
O13 P2 1.552805 1_555
O14 P3 1.546813 1_555
O15 P2 1.575334 1_556
O15 Sb0 2.230845 1_555
O16 P4 1.546813 1_555
O17 P4 1.627975 1_555
O17 Sb0 2.066542 1_554
O18 P5 1.546820 1_555
O19 P5 1.524482 1_455
O20 P1 1.541477 1_565
O21 P5 1.627973 1_555
O21 Sb0 2.066542 1_545
O22 P2 1.541473 1_556
O23 P0 1.541464 1_655
