# generated using pymatgen
data_U4CuTe12
_symmetry_space_group_name_H-M   'P 1'
_cell_length_a   7.45299583
_cell_length_b   7.44658221
_cell_length_c   11.42559245
_cell_angle_alpha   71.15098333
_cell_angle_beta   71.13474668
_cell_angle_gamma   70.37747400
_symmetry_Int_Tables_number   1
_chemical_formula_structural   U4CuTe12
_chemical_formula_sum   'U4 Cu1 Te12'
_cell_volume   548.59294272
_cell_formula_units_Z   1
loop_
 _symmetry_equiv_pos_site_id
 _symmetry_equiv_pos_as_xyz
  1  'x, y, z'
loop_
 _atom_site_type_symbol
 _atom_site_label
 _atom_site_symmetry_multiplicity
 _atom_site_fract_x
 _atom_site_fract_y
 _atom_site_fract_z
 _atom_site_occupancy
  U  U0  1  0.81013166  0.80984721  0.83822980  1
  U  U1  1  0.31013615  0.31001101  0.84323359  1
  U  U2  1  0.68792298  0.19236458  0.16189330  1
  U  U3  1  0.19349137  0.68949509  0.15811251  1
  Cu  Cu0  1  0.81125340  0.81122824  0.53276319  1
  Te  Te0  1  0.00497979  0.00395310  0.32674253  1
  Te  Te1  1  0.49467526  0.49858811  0.33052354  1
  Te  Te2  1  0.50000504  0.00052384  0.66665095  1
  Te  Te3  1  0.00131367  0.49958863  0.66649084  1
  Te  Te4  1  0.25752084  0.25979962  0.33535701  1
  Te  Te5  1  0.75698258  0.75353990  0.33396161  1
  Te  Te6  1  0.24351515  0.73800859  0.67031846  1
  Te  Te7  1  0.73786008  0.24354119  0.67016312  1
  Te  Te8  1  0.01990492  0.02284550  0.94368481  1
  Te  Te9  1  0.52327430  0.51967330  0.94297295  1
  Te  Te10  1  0.48051927  0.97797027  0.05661369  1
  Te  Te11  1  0.97781155  0.48031880  0.05668610  1
loop_
_geom_bond_atom_site_label_1
_geom_bond_atom_site_label_2
_geom_bond_distance
_geom_bond_site_symmetry_2
Cu0 Te2 2.571098 1_565
Cu0 Te3 2.574327 1_655
Cu0 Te0 2.587706 1_665
Cu0 Te5 2.617031 1_555
Te0 Te4 3.135516 1_555
Te0 U2 3.169212 1_455
Te0 U3 3.181878 1_545
Te1 Te4 2.876340 1_555
Te1 U2 3.134464 1_555
Te1 U3 3.137997 1_555
Te1 Te5 3.165208 1_555
Te2 Te7 2.943908 1_555
Te2 Te6 3.143658 1_545
Te2 U0 3.182620 1_545
Te2 U1 3.217456 1_555
Te3 Te6 2.943845 1_555
Te3 Te7 3.146763 1_455
Te3 U0 3.182535 1_455
Te3 U1 3.217116 1_555
Te4 U2 3.149585 1_555
Te4 U3 3.159070 1_555
Te5 U2 3.190894 1_565
Te5 U3 3.193465 1_655
Te6 U1 3.132157 1_555
Te6 U0 3.145627 1_455
Te7 U1 3.132666 1_555
Te7 U0 3.146559 1_545
Te8 U3 3.130679 1_546
Te8 U2 3.142908 1_456
Te8 U1 3.237962 1_555
Te8 U0 3.245061 1_445
Te9 U3 3.113909 1_556
Te9 U2 3.120860 1_556
Te9 U1 3.200878 1_555
Te9 U0 3.232548 1_555
Te10 U1 3.109365 1_564
Te10 U0 3.133199 1_554
Te10 U3 3.226166 1_555
Te10 U2 3.238211 1_565
Te11 U1 3.110191 1_654
Te11 U0 3.132597 1_554
Te11 U3 3.225813 1_655
Te11 U2 3.236878 1_555
