# generated using pymatgen
data_LiTiCoO4
_symmetry_space_group_name_H-M   'P 1'
_cell_length_a   5.91515630
_cell_length_b   5.96410139
_cell_length_c   5.98266097
_cell_angle_alpha   121.63484908
_cell_angle_beta   60.38346514
_cell_angle_gamma   119.73772260
_symmetry_Int_Tables_number   1
_chemical_formula_structural   LiTiCoO4
_chemical_formula_sum   'Li2 Ti2 Co2 O8'
_cell_volume   148.00867111
_cell_formula_units_Z   2
loop_
 _symmetry_equiv_pos_site_id
 _symmetry_equiv_pos_as_xyz
  1  'x, y, z'
loop_
 _atom_site_type_symbol
 _atom_site_label
 _atom_site_symmetry_multiplicity
 _atom_site_fract_x
 _atom_site_fract_y
 _atom_site_fract_z
 _atom_site_occupancy
  Li  Li0  1  0.12102100  0.87485000  0.63286000  1
  Li  Li1  1  0.87897900  0.12515000  0.36714000  1
  Ti  Ti0  1  0.50000000  0.50000000  0.00000000  1
  Ti  Ti1  1  0.00000000  0.50000000  0.00000000  1
  Co  Co0  1  0.50000000  0.50000000  0.50000000  1
  Co  Co1  1  0.50000000  0.00000000  0.00000000  1
  O  O0  1  0.75410200  0.28394900  0.77561300  1
  O  O1  1  0.74085600  0.71670500  0.23504000  1
  O  O2  1  0.25914400  0.28329500  0.76496000  1
  O  O3  1  0.24589800  0.71605100  0.22438700  1
  O  O4  1  0.74061200  0.25850600  0.22375700  1
  O  O5  1  0.29422900  0.25874800  0.22408700  1
  O  O6  1  0.70577100  0.74125200  0.77591300  1
  O  O7  1  0.25938800  0.74149400  0.77624300  1
loop_
_geom_bond_atom_site_label_1
_geom_bond_atom_site_label_2
_geom_bond_distance
_geom_bond_site_symmetry_2
Li0 O2 1.967340 1_565
Li0 O3 1.973966 1_555
Li0 O7 2.023295 1_555
Li0 O6 2.024003 1_455
Li1 O1 1.967340 1_545
Li1 O0 1.973966 1_555
Li1 O4 2.023295 1_555
Li1 O5 2.024003 1_655
Co0 O5 2.008356 1_555
Co0 O6 2.008356 1_555
Co0 O7 2.010776 1_555
Co0 O4 2.010776 1_555
Co0 O2 2.074418 1_555
Co0 O1 2.074418 1_555
Co1 O7 1.932845 1_544
Co1 O4 1.932845 1_555
Co1 O5 1.934063 1_555
Co1 O6 1.934063 1_544
Co1 O3 2.189642 1_545
Co1 O0 2.189642 1_554
O0 Ti1 1.958095 1_656
O0 Ti0 1.958101 1_556
O1 Ti0 1.981008 1_555
O1 Ti1 1.981407 1_655
O2 Ti0 1.981008 1_556
O2 Ti1 1.981407 1_556
O3 Ti1 1.958095 1_555
O3 Ti0 1.958101 1_555
O4 Ti1 2.005181 1_655
O5 Ti0 2.005583 1_555
O6 Ti0 2.005583 1_556
O7 Ti1 2.005181 1_556
