# generated using pymatgen
data_HoZnIn
_symmetry_space_group_name_H-M   'P 1'
_cell_length_a   4.60887277
_cell_length_b   4.60861443
_cell_length_c   7.22606278
_cell_angle_alpha   90.00000000
_cell_angle_beta   90.00000000
_cell_angle_gamma   120.00184711
_symmetry_Int_Tables_number   1
_chemical_formula_structural   HoZnIn
_chemical_formula_sum   'Ho2 Zn2 In2'
_cell_volume   132.91970620
_cell_formula_units_Z   2
loop_
 _symmetry_equiv_pos_site_id
 _symmetry_equiv_pos_as_xyz
  1  'x, y, z'
loop_
 _atom_site_type_symbol
 _atom_site_label
 _atom_site_symmetry_multiplicity
 _atom_site_fract_x
 _atom_site_fract_y
 _atom_site_fract_z
 _atom_site_occupancy
  Ho  Ho0  1  -0.00000000  -0.00000000  0.50000000  1
  Ho  Ho1  1  -0.00000000  -0.00000000  -0.00000000  1
  Zn  Zn0  1  0.33315171  0.66630143  0.75000000  1
  Zn  Zn1  1  0.66684829  0.33369857  0.25000000  1
  In  In0  1  0.33348378  0.66696756  0.25000000  1
  In  In1  1  0.66651622  0.33303244  0.75000000  1
loop_
_geom_bond_atom_site_label_1
_geom_bond_atom_site_label_2
_geom_bond_distance
_geom_bond_site_symmetry_2
Ho0 Zn0 3.214849 1_555
Ho0 Zn1 3.214849 1_445
Ho0 In0 3.215682 1_545
Ho0 In1 3.215682 1_455
Ho0 In1 3.215682 1_555
Ho0 In0 3.215682 1_445
Ho0 Zn1 3.216779 1_555
Ho0 Zn0 3.216779 1_445
Ho0 Zn0 3.216785 1_545
Ho0 Zn1 3.216785 1_455
Ho0 In1 3.217049 1_445
Ho0 In0 3.217049 1_555
Ho1 Zn1 3.214849 1_445
Ho1 Zn0 3.214849 1_554
Ho1 In0 3.215682 1_545
Ho1 In1 3.215682 1_454
Ho1 In0 3.215682 1_445
Ho1 In1 3.215682 1_554
Ho1 Zn1 3.216779 1_555
Ho1 Zn0 3.216779 1_444
Ho1 Zn0 3.216785 1_544
Ho1 Zn1 3.216785 1_455
Ho1 In1 3.217049 1_444
Ho1 In0 3.217049 1_555
In0 Zn1 2.660752 1_555
In0 Zn1 2.660760 1_455
In0 Zn1 2.660992 1_565
In1 Zn0 2.660752 1_555
In1 Zn0 2.660760 1_655
In1 Zn0 2.660992 1_545
