# generated using pymatgen
data_Dy6Zn23
_symmetry_space_group_name_H-M   'P 1'
_cell_length_a   8.86923990
_cell_length_b   8.86923990
_cell_length_c   8.86923918
_cell_angle_alpha   60.00000269
_cell_angle_beta   60.00000269
_cell_angle_gamma   59.99999462
_symmetry_Int_Tables_number   1
_chemical_formula_structural   Dy6Zn23
_chemical_formula_sum   'Dy6 Zn23'
_cell_volume   493.33755112
_cell_formula_units_Z   1
loop_
 _symmetry_equiv_pos_site_id
 _symmetry_equiv_pos_as_xyz
  1  'x, y, z'
loop_
 _atom_site_type_symbol
 _atom_site_label
 _atom_site_symmetry_multiplicity
 _atom_site_fract_x
 _atom_site_fract_y
 _atom_site_fract_z
 _atom_site_occupancy
  Dy  Dy0  1  0.70788074  0.70788074  0.29211926  1
  Dy  Dy1  1  0.29212026  0.70787974  0.29212026  1
  Dy  Dy2  1  0.70787974  0.29212026  0.29212026  1
  Dy  Dy3  1  0.29211926  0.29211926  0.70788074  1
  Dy  Dy4  1  0.70787974  0.29212026  0.70787974  1
  Dy  Dy5  1  0.29212026  0.70787974  0.70787974  1
  Zn  Zn0  1  0.00000000  -0.00000000  0.00000000  1
  Zn  Zn1  1  0.00000000  -0.00000000  0.50000000  1
  Zn  Zn2  1  0.50000000  -0.00000000  0.50000000  1
  Zn  Zn3  1  0.00000000  0.50000000  0.50000000  1
  Zn  Zn4  1  0.50000000  0.50000000  0.00000000  1
  Zn  Zn5  1  0.00000000  0.50000000  0.00000000  1
  Zn  Zn6  1  0.50000000  -0.00000000  0.00000000  1
  Zn  Zn7  1  0.87680361  0.87680361  0.36958818  1
  Zn  Zn8  1  0.87680361  0.36958818  0.87680361  1
  Zn  Zn9  1  0.36958818  0.87680361  0.87680361  1
  Zn  Zn10  1  0.87680361  0.87680361  0.87680361  1
  Zn  Zn11  1  0.12319639  0.12319639  0.63041182  1
  Zn  Zn12  1  0.12319639  0.63041182  0.12319639  1
  Zn  Zn13  1  0.63041182  0.12319639  0.12319639  1
  Zn  Zn14  1  0.12319639  0.12319639  0.12319639  1
  Zn  Zn15  1  0.67228230  0.67228230  0.98315409  1
  Zn  Zn16  1  0.67228230  0.98315409  0.67228230  1
  Zn  Zn17  1  0.98315409  0.67228230  0.67228230  1
  Zn  Zn18  1  0.67228230  0.67228230  0.67228230  1
  Zn  Zn19  1  0.32771770  0.32771770  0.01684591  1
  Zn  Zn20  1  0.32771770  0.01684591  0.32771770  1
  Zn  Zn21  1  0.01684591  0.32771770  0.32771770  1
  Zn  Zn22  1  0.32771770  0.32771770  0.32771770  1
loop_
_geom_bond_atom_site_label_1
_geom_bond_atom_site_label_2
_geom_bond_distance
_geom_bond_site_symmetry_2
Dy0 Zn7 3.043827 1_555
Dy0 Zn10 3.043833 1_554
Dy0 Zn13 3.043834 1_565
Dy0 Zn12 3.043834 1_655
Dy0 Zn15 3.088464 1_554
Dy0 Zn21 3.088470 1_655
Dy0 Zn20 3.088470 1_565
Dy0 Zn18 3.088473 1_555
Dy0 Zn3 3.179942 1_655
Dy0 Zn2 3.179942 1_565
Dy0 Zn5 3.179942 1_655
Dy0 Zn6 3.179942 1_565
Dy1 Zn12 3.043835 1_555
Dy1 Zn14 3.043842 1_565
Dy1 Zn9 3.043843 1_554
Dy1 Zn7 3.043843 1_455
Dy1 Zn20 3.088463 1_565
Dy1 Zn17 3.088468 1_455
Dy1 Zn15 3.088468 1_554
Dy1 Zn22 3.088472 1_555
Dy1 Zn4 3.179944 1_555
Dy1 Zn1 3.179944 1_565
Dy1 Zn3 3.179944 1_555
Dy1 Zn6 3.179944 1_565
Dy2 Zn13 3.043835 1_555
Dy2 Zn14 3.043842 1_655
Dy2 Zn8 3.043843 1_554
Dy2 Zn7 3.043843 1_545
Dy2 Zn21 3.088463 1_655
Dy2 Zn16 3.088468 1_545
Dy2 Zn15 3.088468 1_554
Dy2 Zn22 3.088472 1_555
Dy2 Zn4 3.179944 1_555
Dy2 Zn1 3.179944 1_655
Dy2 Zn2 3.179944 1_555
Dy2 Zn5 3.179944 1_655
Dy3 Zn11 3.043827 1_555
Dy3 Zn14 3.043833 1_556
Dy3 Zn9 3.043834 1_545
Dy3 Zn8 3.043834 1_455
Dy3 Zn19 3.088464 1_556
Dy3 Zn16 3.088470 1_545
Dy3 Zn17 3.088470 1_455
Dy3 Zn22 3.088473 1_555
Dy3 Zn6 3.179942 1_556
Dy3 Zn5 3.179942 1_556
Dy3 Zn3 3.179942 1_555
Dy3 Zn2 3.179942 1_555
Dy4 Zn8 3.043835 1_555
Dy4 Zn10 3.043842 1_545
Dy4 Zn13 3.043843 1_556
Dy4 Zn11 3.043843 1_655
Dy4 Zn16 3.088463 1_545
Dy4 Zn21 3.088468 1_655
Dy4 Zn19 3.088468 1_556
Dy4 Zn18 3.088472 1_555
Dy4 Zn4 3.179944 1_556
Dy4 Zn1 3.179944 1_655
Dy4 Zn3 3.179944 1_655
Dy4 Zn6 3.179944 1_556
Dy5 Zn9 3.043835 1_555
Dy5 Zn10 3.043842 1_455
Dy5 Zn12 3.043843 1_556
Dy5 Zn11 3.043843 1_565
Dy5 Zn17 3.088463 1_455
Dy5 Zn20 3.088468 1_565
Dy5 Zn19 3.088468 1_556
Dy5 Zn18 3.088472 1_555
Dy5 Zn4 3.179944 1_556
Dy5 Zn1 3.179944 1_565
Dy5 Zn2 3.179944 1_565
Dy5 Zn5 3.179944 1_556
Zn0 Zn8 2.676448 1_454
Zn0 Zn9 2.676448 1_544
Zn0 Zn13 2.676448 1_455
Zn0 Zn12 2.676448 1_545
Zn0 Zn7 2.676448 1_445
Zn0 Zn11 2.676448 1_554
Zn0 Zn14 2.676455 1_555
Zn0 Zn10 2.676455 1_444
Zn1 Zn20 2.563231 1_555
Zn1 Zn16 2.563231 1_445
Zn1 Zn17 2.563231 1_445
Zn1 Zn21 2.563231 1_555
Zn1 Zn10 2.728950 1_445
Zn1 Zn14 2.728950 1_555
Zn1 Zn11 2.728957 1_555
Zn1 Zn7 2.728957 1_445
Zn2 Zn22 2.563234 1_555
Zn2 Zn20 2.563239 1_555
Zn2 Zn7 2.728950 1_545
Zn2 Zn9 2.728950 1_545
Zn3 Zn7 2.728950 1_455
Zn3 Zn8 2.728950 1_455
Zn4 Zn9 2.728950 1_554
Zn4 Zn8 2.728950 1_554
Zn5 Zn8 2.728957 1_454
Zn6 Zn9 2.728957 1_544
Zn10 Zn16 2.709047 1_555
Zn10 Zn17 2.709047 1_555
Zn10 Zn15 2.709048 1_555
Zn10 Zn6 2.728950 1_566
Zn10 Zn5 2.728950 1_656
Zn11 Zn22 2.709053 1_555
Zn11 Zn21 2.709062 1_555
Zn11 Zn20 2.709062 1_555
Zn11 Zn2 2.728950 1_555
Zn11 Zn3 2.728950 1_555
Zn12 Zn22 2.709053 1_555
Zn12 Zn19 2.709062 1_555
Zn12 Zn21 2.709062 1_555
Zn12 Zn4 2.728950 1_555
Zn12 Zn3 2.728950 1_555
Zn12 Zn5 2.728957 1_555
Zn13 Zn22 2.709053 1_555
Zn13 Zn19 2.709062 1_555
Zn13 Zn20 2.709062 1_555
Zn13 Zn4 2.728950 1_555
Zn13 Zn2 2.728950 1_555
Zn13 Zn6 2.728957 1_555
Zn14 Zn21 2.709047 1_555
Zn14 Zn20 2.709047 1_555
Zn14 Zn19 2.709048 1_555
Zn14 Zn5 2.728950 1_555
Zn14 Zn6 2.728950 1_555
Zn15 Zn6 2.563231 1_566
Zn15 Zn5 2.563231 1_656
Zn15 Zn4 2.563239 1_556
Zn15 Zn8 2.709062 1_555
Zn15 Zn9 2.709062 1_555
Zn15 Zn18 2.757196 1_555
Zn15 Zn16 2.757196 1_555
Zn15 Zn17 2.757196 1_555
Zn16 Zn6 2.563231 1_566
Zn16 Zn2 2.563239 1_565
Zn16 Zn7 2.709062 1_555
Zn16 Zn9 2.709062 1_555
Zn16 Zn17 2.757196 1_555
Zn16 Zn18 2.757196 1_555
Zn17 Zn5 2.563231 1_656
Zn17 Zn3 2.563239 1_655
Zn17 Zn7 2.709062 1_555
Zn17 Zn8 2.709062 1_555
Zn17 Zn18 2.757196 1_555
Zn18 Zn3 2.563234 1_655
Zn18 Zn2 2.563234 1_565
Zn18 Zn4 2.563234 1_556
Zn18 Zn9 2.709053 1_555
Zn18 Zn8 2.709053 1_555
Zn18 Zn7 2.709053 1_555
Zn19 Zn5 2.563231 1_555
Zn19 Zn6 2.563231 1_555
Zn19 Zn4 2.563239 1_555
Zn19 Zn22 2.757196 1_555
Zn19 Zn21 2.757196 1_555
Zn19 Zn20 2.757196 1_555
Zn20 Zn6 2.563231 1_555
Zn20 Zn21 2.757196 1_555
Zn20 Zn22 2.757196 1_555
Zn21 Zn5 2.563231 1_555
Zn21 Zn3 2.563239 1_555
Zn21 Zn22 2.757196 1_555
Zn22 Zn3 2.563234 1_555
Zn22 Zn4 2.563234 1_555
