# generated using pymatgen
data_AcCe3
_symmetry_space_group_name_H-M   'P 1'
_cell_length_a   7.17451900
_cell_length_b   7.17451900
_cell_length_c   5.87728100
_cell_angle_alpha   90.00000000
_cell_angle_beta   90.00000000
_cell_angle_gamma   120.00000920
_symmetry_Int_Tables_number   1
_chemical_formula_structural   AcCe3
_chemical_formula_sum   'Ac2 Ce6'
_cell_volume   261.99477284
_cell_formula_units_Z   2
loop_
 _symmetry_equiv_pos_site_id
 _symmetry_equiv_pos_as_xyz
  1  'x, y, z'
loop_
 _atom_site_type_symbol
 _atom_site_label
 _atom_site_symmetry_multiplicity
 _atom_site_fract_x
 _atom_site_fract_y
 _atom_site_fract_z
 _atom_site_occupancy
  Ac  Ac0  1  0.33333300  0.66666700  0.75000000  1
  Ac  Ac1  1  0.66666700  0.33333300  0.25000000  1
  Ce  Ce0  1  0.15647600  0.31295200  0.25000000  1
  Ce  Ce1  1  0.68704800  0.84352400  0.25000000  1
  Ce  Ce2  1  0.15647600  0.84352400  0.25000000  1
  Ce  Ce3  1  0.84352400  0.68704800  0.75000000  1
  Ce  Ce4  1  0.31295200  0.15647600  0.75000000  1
  Ce  Ce5  1  0.84352400  0.15647600  0.75000000  1
loop_
_geom_bond_atom_site_label_1
_geom_bond_atom_site_label_2
_geom_bond_distance
_geom_bond_site_symmetry_2
Ac0 Ce3 3.589490 1_455
Ac0 Ce4 3.589490 1_565
Ac0 Ce5 3.589494 1_455
Ac0 Ce5 3.589494 1_565
Ac0 Ce3 3.589498 1_555
Ac0 Ce4 3.589498 1_555
Ac0 Ce2 3.669558 1_556
Ac0 Ce2 3.669558 1_555
Ac0 Ce0 3.669561 1_556
Ac0 Ce0 3.669561 1_555
Ac0 Ce1 3.669561 1_555
Ac0 Ce1 3.669561 1_556
Ac1 Ce1 3.589490 1_545
Ac1 Ce0 3.589490 1_655
Ac1 Ce2 3.589494 1_545
Ac1 Ce2 3.589494 1_655
Ac1 Ce0 3.589498 1_555
Ac1 Ce1 3.589498 1_555
Ac1 Ce5 3.669558 1_555
Ac1 Ce5 3.669558 1_554
Ac1 Ce3 3.669561 1_554
Ac1 Ce3 3.669561 1_555
Ac1 Ce4 3.669561 1_555
Ac1 Ce4 3.669561 1_554
Ce0 Ce1 3.367920 1_445
Ce0 Ce2 3.367920 1_545
Ce0 Ce5 3.523715 1_454
Ce0 Ce5 3.523715 1_455
Ce0 Ce4 3.523715 1_555
Ce0 Ce4 3.523715 1_554
Ce0 Ce1 3.806598 1_555
Ce0 Ce2 3.806599 1_555
Ce1 Ce2 3.367920 1_655
Ce1 Ce5 3.523715 1_564
Ce1 Ce5 3.523715 1_565
Ce1 Ce3 3.523715 1_554
Ce1 Ce3 3.523715 1_555
Ce1 Ce2 3.806599 1_555
Ce2 Ce3 3.523715 1_454
Ce2 Ce3 3.523715 1_455
Ce2 Ce4 3.523715 1_565
Ce2 Ce4 3.523715 1_564
Ce3 Ce4 3.367920 1_665
Ce3 Ce5 3.367920 1_565
Ce3 Ce4 3.806598 1_555
Ce3 Ce5 3.806599 1_555
Ce4 Ce5 3.367920 1_455
Ce4 Ce5 3.806599 1_555
