# generated using pymatgen
data_AlZnB5H16C4(N2O5)2
_symmetry_space_group_name_H-M   'P 1'
_cell_length_a   13.63305653
_cell_length_b   14.09485803
_cell_length_c   16.48903065
_cell_angle_alpha   90.00000000
_cell_angle_beta   90.00000000
_cell_angle_gamma   90.00000000
_symmetry_Int_Tables_number   1
_chemical_formula_structural   AlZnB5H16C4(N2O5)2
_chemical_formula_sum   'Al8 Zn8 B40 H128 C32 N32 O80'
_cell_volume   3168.46611266
_cell_formula_units_Z   8
loop_
 _symmetry_equiv_pos_site_id
 _symmetry_equiv_pos_as_xyz
  1  'x, y, z'
loop_
 _atom_site_type_symbol
 _atom_site_label
 _atom_site_symmetry_multiplicity
 _atom_site_fract_x
 _atom_site_fract_y
 _atom_site_fract_z
 _atom_site_occupancy
  Al  Al0  1  0.77640172  0.56680031  0.84309009  1
  Al  Al1  1  0.27640172  0.93319969  0.15690991  1
  Al  Al2  1  0.22359828  0.06680031  0.65690991  1
  Al  Al3  1  0.72359828  0.43319969  0.34309009  1
  Al  Al4  1  0.22359828  0.43319969  0.15690991  1
  Al  Al5  1  0.72359828  0.06680031  0.84309009  1
  Al  Al6  1  0.77640172  0.93319969  0.34309009  1
  Al  Al7  1  0.27640172  0.56680031  0.65690991  1
  Zn  Zn0  1  0.70904300  0.87261249  0.60615578  1
  Zn  Zn1  1  0.20904300  0.62738751  0.39384422  1
  Zn  Zn2  1  0.29095700  0.37261249  0.89384422  1
  Zn  Zn3  1  0.79095700  0.12738751  0.10615578  1
  Zn  Zn4  1  0.29095700  0.12738751  0.39384422  1
  Zn  Zn5  1  0.79095700  0.37261249  0.60615578  1
  Zn  Zn6  1  0.70904300  0.62738751  0.10615578  1
  Zn  Zn7  1  0.20904300  0.87261249  0.89384422  1
  B  B0  1  0.48947366  0.62918170  0.63929826  1
  B  B1  1  0.98947366  0.87081830  0.36070174  1
  B  B2  1  0.51052634  0.12918170  0.86070174  1
  B  B3  1  0.01052634  0.37081830  0.13929826  1
  B  B4  1  0.51052634  0.37081830  0.36070174  1
  B  B5  1  0.01052634  0.12918170  0.63929826  1
  B  B6  1  0.48947366  0.87081830  0.13929826  1
  B  B7  1  0.98947366  0.62918170  0.86070174  1
  B  B8  1  0.65725859  0.61206925  0.69162711  1
  B  B9  1  0.15725859  0.88793075  0.30837289  1
  B  B10  1  0.34274141  0.11206925  0.80837289  1
  B  B11  1  0.84274141  0.38793075  0.19162711  1
  B  B12  1  0.34274141  0.38793075  0.30837289  1
  B  B13  1  0.84274141  0.11206925  0.69162711  1
  B  B14  1  0.65725859  0.88793075  0.19162711  1
  B  B15  1  0.15725859  0.61206925  0.80837289  1
  B  B16  1  0.63076989  0.67388970  0.55068726  1
  B  B17  1  0.13076989  0.82611030  0.44931274  1
  B  B18  1  0.36923011  0.17388970  0.94931274  1
  B  B19  1  0.86923011  0.32611030  0.05068726  1
  B  B20  1  0.36923011  0.32611030  0.44931274  1
  B  B21  1  0.86923011  0.17388970  0.55068726  1
  B  B22  1  0.63076989  0.82611030  0.05068726  1
  B  B23  1  0.13076989  0.67388970  0.94931274  1
  B  B24  1  0.68502251  0.62301942  0.41059427  1
  B  B25  1  0.18502251  0.87698058  0.58940573  1
  B  B26  1  0.31497749  0.12301942  0.08940573  1
  B  B27  1  0.81497749  0.37698058  0.91059427  1
  B  B28  1  0.31497749  0.37698058  0.58940573  1
  B  B29  1  0.81497749  0.12301942  0.41059427  1
  B  B30  1  0.68502251  0.87698058  0.91059427  1
  B  B31  1  0.18502251  0.62301942  0.08940573  1
  B  B32  1  0.68323338  0.79287550  0.44099992  1
  B  B33  1  0.18323338  0.70712450  0.55900008  1
  B  B34  1  0.31676662  0.29287550  0.05900008  1
  B  B35  1  0.81676662  0.20712450  0.94099992  1
  B  B36  1  0.31676662  0.20712450  0.55900008  1
  B  B37  1  0.81676662  0.29287550  0.44099992  1
  B  B38  1  0.68323338  0.70712450  0.94099992  1
  B  B39  1  0.18323338  0.79287550  0.05900008  1
  H  H0  1  0.94730885  0.93131517  0.65385446  1
  H  H1  1  0.44730885  0.56868483  0.34614554  1
  H  H2  1  0.05269115  0.43131517  0.84614554  1
  H  H3  1  0.55269115  0.06868483  0.15385446  1
  H  H4  1  0.05269115  0.06868483  0.34614554  1
  H  H5  1  0.55269115  0.43131517  0.65385446  1
  H  H6  1  0.94730885  0.56868483  0.15385446  1
  H  H7  1  0.44730885  0.93131517  0.84614554  1
  H  H8  1  0.99541510  0.84024960  0.59083359  1
  H  H9  1  0.49541510  0.65975040  0.40916641  1
  H  H10  1  0.00458490  0.34024960  0.90916641  1
  H  H11  1  0.50458490  0.15975040  0.09083359  1
  H  H12  1  0.00458490  0.15975040  0.40916641  1
  H  H13  1  0.50458490  0.34024960  0.59083359  1
  H  H14  1  0.99541510  0.65975040  0.09083359  1
  H  H15  1  0.49541510  0.84024960  0.90916641  1
  H  H16  1  0.87575747  0.72491635  0.64472064  1
  H  H17  1  0.37575747  0.77508365  0.35527936  1
  H  H18  1  0.12424253  0.22491635  0.85527936  1
  H  H19  1  0.62424253  0.27508365  0.14472064  1
  H  H20  1  0.12424253  0.27508365  0.35527936  1
  H  H21  1  0.62424253  0.22491635  0.64472064  1
  H  H22  1  0.87575747  0.77508365  0.14472064  1
  H  H23  1  0.37575747  0.72491635  0.85527936  1
  H  H24  1  0.93856140  0.77847879  0.72669092  1
  H  H25  1  0.43856140  0.72152121  0.27330908  1
  H  H26  1  0.06143860  0.27847879  0.77330908  1
  H  H27  1  0.56143860  0.22152121  0.22669092  1
  H  H28  1  0.06143860  0.22152121  0.27330908  1
  H  H29  1  0.56143860  0.27847879  0.72669092  1
  H  H30  1  0.93856140  0.72152121  0.22669092  1
  H  H31  1  0.43856140  0.77847879  0.77330908  1
  H  H32  1  0.57744044  0.06691557  0.67190653  1
  H  H33  1  0.07744044  0.43308443  0.32809347  1
  H  H34  1  0.42255956  0.56691557  0.82809347  1
  H  H35  1  0.92255956  0.93308443  0.17190653  1
  H  H36  1  0.42255956  0.93308443  0.32809347  1
  H  H37  1  0.92255956  0.56691557  0.67190653  1
  H  H38  1  0.57744044  0.43308443  0.17190653  1
  H  H39  1  0.07744044  0.06691557  0.82809347  1
  H  H40  1  0.51217625  0.07583754  0.57914111  1
  H  H41  1  0.01217625  0.42416246  0.42085889  1
  H  H42  1  0.48782375  0.57583754  0.92085889  1
  H  H43  1  0.98782375  0.92416246  0.07914111  1
  H  H44  1  0.48782375  0.92416246  0.42085889  1
  H  H45  1  0.98782375  0.57583754  0.57914111  1
  H  H46  1  0.51217625  0.42416246  0.07914111  1
  H  H47  1  0.01217625  0.07583754  0.92085889  1
  H  H48  1  0.47732453  0.90348682  0.58090861  1
  H  H49  1  0.97732453  0.59651318  0.41909139  1
  H  H50  1  0.52267547  0.40348682  0.91909139  1
  H  H51  1  0.02267547  0.09651318  0.08090861  1
  H  H52  1  0.52267547  0.09651318  0.41909139  1
  H  H53  1  0.02267547  0.40348682  0.58090861  1
  H  H54  1  0.47732453  0.59651318  0.08090861  1
  H  H55  1  0.97732453  0.90348682  0.91909139  1
  H  H56  1  0.44114479  0.95700905  0.67426806  1
  H  H57  1  0.94114479  0.54299095  0.32573194  1
  H  H58  1  0.55885521  0.45700905  0.82573194  1
  H  H59  1  0.05885521  0.04299095  0.17426806  1
  H  H60  1  0.55885521  0.04299095  0.32573194  1
  H  H61  1  0.05885521  0.45700905  0.67426806  1
  H  H62  1  0.44114479  0.54299095  0.17426806  1
  H  H63  1  0.94114479  0.95700905  0.82573194  1
  H  H64  1  0.75522400  0.76710329  0.73522147  1
  H  H65  1  0.25522400  0.73289671  0.26477853  1
  H  H66  1  0.24477600  0.26710329  0.76477853  1
  H  H67  1  0.74477600  0.23289671  0.23522147  1
  H  H68  1  0.24477600  0.23289671  0.26477853  1
  H  H69  1  0.74477600  0.26710329  0.73522147  1
  H  H70  1  0.75522400  0.73289671  0.23522147  1
  H  H71  1  0.25522400  0.76710329  0.76477853  1
  H  H72  1  0.79428674  0.87499040  0.75022540  1
  H  H73  1  0.29428674  0.62500960  0.24977460  1
  H  H74  1  0.20571326  0.37499040  0.74977460  1
  H  H75  1  0.70571326  0.12500960  0.25022540  1
  H  H76  1  0.20571326  0.12500960  0.24977460  1
  H  H77  1  0.70571326  0.37499040  0.75022540  1
  H  H78  1  0.79428674  0.62500960  0.25022540  1
  H  H79  1  0.29428674  0.87499040  0.74977460  1
  H  H80  1  0.86263220  0.96102204  0.53763377  1
  H  H81  1  0.36263220  0.53897796  0.46236623  1
  H  H82  1  0.13736780  0.46102204  0.96236623  1
  H  H83  1  0.63736780  0.03897796  0.03763377  1
  H  H84  1  0.13736780  0.03897796  0.46236623  1
  H  H85  1  0.63736780  0.46102204  0.53763377  1
  H  H86  1  0.86263220  0.53897796  0.03763377  1
  H  H87  1  0.36263220  0.96102204  0.96236623  1
  H  H88  1  0.86519336  0.85167481  0.50664041  1
  H  H89  1  0.36519336  0.64832519  0.49335959  1
  H  H90  1  0.13480664  0.35167481  0.99335959  1
  H  H91  1  0.63480664  0.14832519  0.00664041  1
  H  H92  1  0.13480664  0.14832519  0.49335959  1
  H  H93  1  0.63480664  0.35167481  0.50664041  1
  H  H94  1  0.86519336  0.64832519  0.00664041  1
  H  H95  1  0.36519336  0.85167481  0.99335959  1
  H  H96  1  0.64593002  0.00128832  0.51200807  1
  H  H97  1  0.14593002  0.49871168  0.48799193  1
  H  H98  1  0.35406998  0.50128832  0.98799193  1
  H  H99  1  0.85406998  0.99871168  0.01200807  1
  H  H100  1  0.35406998  0.99871168  0.48799193  1
  H  H101  1  0.85406998  0.50128832  0.51200807  1
  H  H102  1  0.64593002  0.49871168  0.01200807  1
  H  H103  1  0.14593002  0.00128832  0.98799193  1
  H  H104  1  0.70533869  0.05956868  0.58428757  1
  H  H105  1  0.20533869  0.44043132  0.41571243  1
  H  H106  1  0.29466131  0.55956868  0.91571243  1
  H  H107  1  0.79466131  0.94043132  0.08428757  1
  H  H108  1  0.29466131  0.94043132  0.41571243  1
  H  H109  1  0.79466131  0.55956868  0.58428757  1
  H  H110  1  0.70533869  0.44043132  0.08428757  1
  H  H111  1  0.20533869  0.05956868  0.91571243  1
  H  H112  1  0.58740514  0.89102443  0.73413833  1
  H  H113  1  0.08740514  0.60897557  0.26586167  1
  H  H114  1  0.41259486  0.39102443  0.76586167  1
  H  H115  1  0.91259486  0.10897557  0.23413833  1
  H  H116  1  0.41259486  0.10897557  0.26586167  1
  H  H117  1  0.91259486  0.39102443  0.73413833  1
  H  H118  1  0.58740514  0.60897557  0.23413833  1
  H  H119  1  0.08740514  0.89102443  0.76586167  1
  H  H120  1  0.54420824  0.80417097  0.67581267  1
  H  H121  1  0.04420824  0.69582903  0.32418733  1
  H  H122  1  0.45579176  0.30417097  0.82418733  1
  H  H123  1  0.95579176  0.19582903  0.17581267  1
  H  H124  1  0.45579176  0.19582903  0.32418733  1
  H  H125  1  0.95579176  0.30417097  0.67581267  1
  H  H126  1  0.54420824  0.69582903  0.17581267  1
  H  H127  1  0.04420824  0.80417097  0.82418733  1
  C  C0  1  0.92821894  0.86703118  0.61954894  1
  C  C1  1  0.42821894  0.63296882  0.38045106  1
  C  C2  1  0.07178106  0.36703118  0.88045106  1
  C  C3  1  0.57178106  0.13296882  0.11954894  1
  C  C4  1  0.07178106  0.13296882  0.38045106  1
  C  C5  1  0.57178106  0.36703118  0.61954894  1
  C  C6  1  0.92821894  0.63296882  0.11954894  1
  C  C7  1  0.42821894  0.86703118  0.88045106  1
  C  C8  1  0.88662140  0.79222093  0.67702748  1
  C  C9  1  0.38662140  0.70777907  0.32297252  1
  C  C10  1  0.11337860  0.29222093  0.82297252  1
  C  C11  1  0.61337860  0.20777907  0.17702748  1
  C  C12  1  0.11337860  0.20777907  0.32297252  1
  C  C13  1  0.61337860  0.29222093  0.67702748  1
  C  C14  1  0.88662140  0.70777907  0.17702748  1
  C  C15  1  0.38662140  0.79222093  0.82297252  1
  C  C16  1  0.56029856  0.02939024  0.61522762  1
  C  C17  1  0.06029856  0.47060976  0.38477238  1
  C  C18  1  0.43970144  0.52939024  0.88477238  1
  C  C19  1  0.93970144  0.97060976  0.11522762  1
  C  C20  1  0.43970144  0.97060976  0.38477238  1
  C  C21  1  0.93970144  0.52939024  0.61522762  1
  C  C22  1  0.56029856  0.47060976  0.11522762  1
  C  C23  1  0.06029856  0.02939024  0.88477238  1
  C  C24  1  0.50459550  0.93844240  0.63614951  1
  C  C25  1  0.00459550  0.56155760  0.36385049  1
  C  C26  1  0.49540450  0.43844240  0.86385049  1
  C  C27  1  0.99540450  0.06155760  0.13614951  1
  C  C28  1  0.49540450  0.06155760  0.36385049  1
  C  C29  1  0.99540450  0.43844240  0.63614951  1
  C  C30  1  0.50459550  0.56155760  0.13614951  1
  C  C31  1  0.00459550  0.93844240  0.86385049  1
  N  N0  1  0.78971224  0.82253331  0.70715902  1
  N  N1  1  0.28971224  0.67746669  0.29284098  1
  N  N2  1  0.21028776  0.32253331  0.79284098  1
  N  N3  1  0.71028776  0.17746669  0.20715902  1
  N  N4  1  0.21028776  0.17746669  0.29284098  1
  N  N5  1  0.71028776  0.32253331  0.70715902  1
  N  N6  1  0.78971224  0.67746669  0.20715902  1
  N  N7  1  0.28971224  0.82253331  0.79284098  1
  N  N8  1  0.85446193  0.89221399  0.55738371  1
  N  N9  1  0.35446193  0.60778601  0.44261629  1
  N  N10  1  0.14553807  0.39221399  0.94261629  1
  N  N11  1  0.64553807  0.10778601  0.05738371  1
  N  N12  1  0.14553807  0.10778601  0.44261629  1
  N  N13  1  0.64553807  0.39221399  0.55738371  1
  N  N14  1  0.85446193  0.60778601  0.05738371  1
  N  N15  1  0.35446193  0.89221399  0.94261629  1
  N  N16  1  0.65361406  0.00769566  0.57352626  1
  N  N17  1  0.15361406  0.49230434  0.42647374  1
  N  N18  1  0.34638594  0.50769566  0.92647374  1
  N  N19  1  0.84638594  0.99230434  0.07352626  1
  N  N20  1  0.34638594  0.99230434  0.42647374  1
  N  N21  1  0.84638594  0.50769566  0.57352626  1
  N  N22  1  0.65361406  0.49230434  0.07352626  1
  N  N23  1  0.15361406  0.00769566  0.92647374  1
  N  N24  1  0.57225373  0.87125780  0.67569678  1
  N  N25  1  0.07225373  0.62874220  0.32430322  1
  N  N26  1  0.42774627  0.37125780  0.82430322  1
  N  N27  1  0.92774627  0.12874220  0.17569678  1
  N  N28  1  0.42774627  0.12874220  0.32430322  1
  N  N29  1  0.92774627  0.37125780  0.67569678  1
  N  N30  1  0.57225373  0.62874220  0.17569678  1
  N  N31  1  0.07225373  0.87125780  0.82430322  1
  O  O0  1  0.39257774  0.61696317  0.65091056  1
  O  O1  1  0.89257774  0.88303683  0.34908944  1
  O  O2  1  0.60742226  0.11696317  0.84908944  1
  O  O3  1  0.10742226  0.38303683  0.15091056  1
  O  O4  1  0.60742226  0.38303683  0.34908944  1
  O  O5  1  0.10742226  0.11696317  0.65091056  1
  O  O6  1  0.39257774  0.88303683  0.15091056  1
  O  O7  1  0.89257774  0.61696317  0.84908944  1
  O  O8  1  0.55569291  0.59916062  0.70025497  1
  O  O9  1  0.05569291  0.90083938  0.29974503  1
  O  O10  1  0.44430709  0.09916062  0.79974503  1
  O  O11  1  0.94430709  0.40083938  0.20025497  1
  O  O12  1  0.44430709  0.40083938  0.29974503  1
  O  O13  1  0.94430709  0.09916062  0.70025497  1
  O  O14  1  0.55569291  0.90083938  0.20025497  1
  O  O15  1  0.05569291  0.59916062  0.79974503  1
  O  O16  1  0.72057222  0.58356032  0.74938761  1
  O  O17  1  0.22057222  0.91643968  0.25061239  1
  O  O18  1  0.27942778  0.08356032  0.75061239  1
  O  O19  1  0.77942778  0.41643968  0.24938761  1
  O  O20  1  0.27942778  0.41643968  0.25061239  1
  O  O21  1  0.77942778  0.08356032  0.74938761  1
  O  O22  1  0.72057222  0.91643968  0.24938761  1
  O  O23  1  0.22057222  0.58356032  0.75061239  1
  O  O24  1  0.52596343  0.67358255  0.57105384  1
  O  O25  1  0.02596343  0.82641745  0.42894616  1
  O  O26  1  0.47403657  0.17358255  0.92894616  1
  O  O27  1  0.97403657  0.32641745  0.07105384  1
  O  O28  1  0.47403657  0.32641745  0.42894616  1
  O  O29  1  0.97403657  0.17358255  0.57105384  1
  O  O30  1  0.52596343  0.82641745  0.07105384  1
  O  O31  1  0.02596343  0.67358255  0.92894616  1
  O  O32  1  0.69296178  0.65341548  0.62153497  1
  O  O33  1  0.19296178  0.84658452  0.37846503  1
  O  O34  1  0.30703822  0.15341548  0.87846503  1
  O  O35  1  0.80703822  0.34658452  0.12153497  1
  O  O36  1  0.30703822  0.34658452  0.37846503  1
  O  O37  1  0.80703822  0.15341548  0.62153497  1
  O  O38  1  0.69296178  0.84658452  0.12153497  1
  O  O39  1  0.19296178  0.65341548  0.87846503  1
  O  O40  1  0.65297171  0.60232989  0.48751455  1
  O  O41  1  0.15297171  0.89767011  0.51248545  1
  O  O42  1  0.34702829  0.10232989  0.01248545  1
  O  O43  1  0.84702829  0.39767011  0.98751455  1
  O  O44  1  0.34702829  0.39767011  0.51248545  1
  O  O45  1  0.84702829  0.10232989  0.48751455  1
  O  O46  1  0.65297171  0.89767011  0.98751455  1
  O  O47  1  0.15297171  0.60232989  0.01248545  1
  O  O48  1  0.65857535  0.77222238  0.52135575  1
  O  O49  1  0.15857535  0.72777762  0.47864425  1
  O  O50  1  0.34142465  0.27222238  0.97864425  1
  O  O51  1  0.84142465  0.22777762  0.02135575  1
  O  O52  1  0.34142465  0.22777762  0.47864425  1
  O  O53  1  0.84142465  0.27222238  0.52135575  1
  O  O54  1  0.65857535  0.72777762  0.02135575  1
  O  O55  1  0.15857535  0.77222238  0.97864425  1
  O  O56  1  0.71281813  0.55673828  0.35572858  1
  O  O57  1  0.21281813  0.94326172  0.64427142  1
  O  O58  1  0.28718187  0.05673828  0.14427142  1
  O  O59  1  0.78718187  0.44326172  0.85572858  1
  O  O60  1  0.28718187  0.44326172  0.64427142  1
  O  O61  1  0.78718187  0.05673828  0.35572858  1
  O  O62  1  0.71281813  0.94326172  0.85572858  1
  O  O63  1  0.21281813  0.55673828  0.14427142  1
  O  O64  1  0.69043564  0.71877454  0.38550642  1
  O  O65  1  0.19043564  0.78122546  0.61449358  1
  O  O66  1  0.30956436  0.21877454  0.11449358  1
  O  O67  1  0.80956436  0.28122546  0.88550642  1
  O  O68  1  0.30956436  0.28122546  0.61449358  1
  O  O69  1  0.80956436  0.21877454  0.38550642  1
  O  O70  1  0.69043564  0.78122546  0.88550642  1
  O  O71  1  0.19043564  0.71877454  0.11449358  1
  O  O72  1  0.70231428  0.88383954  0.42066654  1
  O  O73  1  0.20231428  0.61616046  0.57933346  1
  O  O74  1  0.29768572  0.38383954  0.07933346  1
  O  O75  1  0.79768572  0.11616046  0.92066654  1
  O  O76  1  0.29768572  0.11616046  0.57933346  1
  O  O77  1  0.79768572  0.38383954  0.42066654  1
  O  O78  1  0.70231428  0.61616046  0.92066654  1
  O  O79  1  0.20231428  0.88383954  0.07933346  1
loop_
_geom_bond_atom_site_label_1
_geom_bond_atom_site_label_2
_geom_bond_distance
_geom_bond_site_symmetry_2
Al0 O7 1.737303 1_555
Al0 O16 1.738487 1_555
Al0 O59 1.759833 1_555
Al0 O78 1.772135 1_555
Al1 O6 1.737303 1_555
Al1 O17 1.738487 1_555
Al1 O58 1.759833 1_565
Al1 O79 1.772135 1_555
Al2 O5 1.737303 1_555
Al2 O18 1.738487 1_555
Al2 O57 1.759833 1_545
Al2 O76 1.772135 1_555
Al3 O4 1.737303 1_555
Al3 O19 1.738487 1_555
Al3 O56 1.759833 1_555
Al3 O77 1.772135 1_555
Al4 O3 1.737303 1_555
Al4 O20 1.738487 1_555
Al4 O63 1.759833 1_555
Al4 O74 1.772135 1_555
Al5 O2 1.737303 1_555
Al5 O21 1.738487 1_555
Al5 O62 1.759833 1_545
Al5 O75 1.772135 1_555
Al6 O1 1.737303 1_555
Al6 O22 1.738487 1_555
Al6 O61 1.759833 1_565
Al6 O72 1.772135 1_555
Al7 O0 1.737303 1_555
Al7 O23 1.738487 1_555
Al7 O60 1.759833 1_555
Al7 O73 1.772135 1_555
B0 O0 1.345857 1_555
B0 O24 1.380360 1_555
B0 O8 1.415735 1_555
B1 O1 1.345857 1_555
B1 O25 1.380360 1_655
B1 O9 1.415735 1_655
B2 O2 1.345857 1_555
B2 O26 1.380360 1_555
B2 O10 1.415735 1_555
B3 O3 1.345857 1_555
B3 O27 1.380360 1_455
B3 O11 1.415735 1_455
B4 O4 1.345857 1_555
B4 O28 1.380360 1_555
B4 O12 1.415735 1_555
B5 O5 1.345857 1_555
B5 O29 1.380360 1_455
B5 O13 1.415735 1_455
B6 O6 1.345857 1_555
B6 O30 1.380360 1_555
B6 O14 1.415735 1_555
B7 O7 1.345857 1_555
B7 O31 1.380360 1_655
B7 O15 1.415735 1_655
B8 O16 1.346701 1_555
B8 O32 1.382860 1_555
B8 O8 1.403781 1_555
B9 O17 1.346701 1_555
B9 O33 1.382860 1_555
B9 O9 1.403781 1_555
B10 O18 1.346701 1_555
B10 O34 1.382860 1_555
B10 O10 1.403781 1_555
B11 O19 1.346701 1_555
B11 O35 1.382860 1_555
B11 O11 1.403781 1_555
B12 O20 1.346701 1_555
B12 O36 1.382860 1_555
B12 O12 1.403781 1_555
B13 O21 1.346701 1_555
B13 O37 1.382860 1_555
B13 O13 1.403781 1_555
B14 O22 1.346701 1_555
B14 O38 1.382860 1_555
B14 O14 1.403781 1_555
B15 O23 1.346701 1_555
B15 O39 1.382860 1_555
B15 O15 1.403781 1_555
B16 O24 1.467774 1_555
B16 O32 1.472029 1_555
B16 O40 1.481212 1_555
B16 O48 1.516103 1_555
B17 O25 1.467774 1_555
B17 O33 1.472029 1_555
B17 O41 1.481212 1_555
B17 O49 1.516103 1_555
B18 O26 1.467774 1_555
B18 O34 1.472029 1_555
B18 O42 1.481212 1_556
B18 O50 1.516103 1_555
B19 O27 1.467774 1_555
B19 O35 1.472029 1_555
B19 O43 1.481212 1_554
B19 O51 1.516103 1_555
B20 O28 1.467774 1_555
B20 O36 1.472029 1_555
B20 O44 1.481212 1_555
B20 O52 1.516103 1_555
B21 O29 1.467774 1_555
B21 O37 1.472029 1_555
B21 O45 1.481212 1_555
B21 O53 1.516103 1_555
B22 O30 1.467774 1_555
B22 O38 1.472029 1_555
B22 O46 1.481212 1_554
B22 O54 1.516103 1_555
B23 O31 1.467774 1_555
B23 O39 1.472029 1_555
B23 O47 1.481212 1_556
B23 O55 1.516103 1_555
B24 O56 1.354554 1_555
B24 O40 1.372827 1_555
B24 O64 1.413556 1_555
B25 O57 1.354554 1_555
B25 O41 1.372827 1_555
B25 O65 1.413556 1_555
B26 O58 1.354554 1_555
B26 O42 1.372827 1_555
B26 O66 1.413556 1_555
B27 O59 1.354554 1_555
B27 O43 1.372827 1_555
B27 O67 1.413556 1_555
B28 O60 1.354554 1_555
B28 O44 1.372827 1_555
B28 O68 1.413556 1_555
B29 O61 1.354554 1_555
B29 O45 1.372827 1_555
B29 O69 1.413556 1_555
B30 O62 1.354554 1_555
B30 O46 1.372827 1_555
B30 O70 1.413556 1_555
B31 O63 1.354554 1_555
B31 O47 1.372827 1_555
B31 O71 1.413556 1_555
B32 O72 1.350527 1_555
B32 O64 1.392045 1_555
B32 O48 1.397621 1_555
B33 O73 1.350527 1_555
B33 O65 1.392045 1_555
B33 O49 1.397621 1_555
B34 O74 1.350527 1_555
B34 O66 1.392045 1_555
B34 O50 1.397621 1_554
B35 O75 1.350527 1_555
B35 O67 1.392045 1_555
B35 O51 1.397621 1_556
B36 O76 1.350527 1_555
B36 O68 1.392045 1_555
B36 O52 1.397621 1_555
B37 O77 1.350527 1_555
B37 O69 1.392045 1_555
B37 O53 1.397621 1_555
B38 O78 1.350527 1_555
B38 O70 1.392045 1_555
B38 O54 1.397621 1_556
B39 O79 1.350527 1_555
B39 O71 1.392045 1_555
B39 O55 1.397621 1_554
H64 N0 1.022535 1_555
H65 N1 1.022535 1_555
H66 N2 1.022535 1_555
H67 N3 1.022535 1_555
H68 N4 1.022535 1_555
H69 N5 1.022535 1_555
H70 N6 1.022535 1_555
H71 N7 1.022535 1_555
H72 N0 1.027054 1_555
H73 N1 1.027054 1_555
H74 N2 1.027054 1_555
H75 N3 1.027054 1_555
H76 N4 1.027054 1_555
H77 N5 1.027054 1_555
H78 N6 1.027054 1_555
H79 N7 1.027054 1_555
H80 N8 1.029101 1_555
H81 N9 1.029101 1_555
H82 N10 1.029101 1_555
H83 N11 1.029101 1_555
H84 N12 1.029101 1_555
H85 N13 1.029101 1_555
H86 N14 1.029101 1_555
H87 N15 1.029101 1_555
H88 N8 1.023707 1_555
H89 N9 1.023707 1_555
H90 N10 1.023707 1_555
H91 N11 1.023707 1_555
H92 N12 1.023707 1_555
H93 N13 1.023707 1_555
H94 N14 1.023707 1_555
H95 N15 1.023707 1_555
H96 N16 1.023761 1_555
H97 N17 1.023761 1_555
H98 N18 1.023761 1_555
H99 N19 1.023761 1_555
H100 N20 1.023761 1_555
H101 N21 1.023761 1_555
H102 N22 1.023761 1_555
H103 N23 1.023761 1_555
H104 N16 1.031171 1_555
H105 N17 1.031171 1_555
H106 N18 1.031171 1_555
H107 N19 1.031171 1_555
H108 N20 1.031171 1_555
H109 N21 1.031171 1_555
H110 N22 1.031171 1_555
H111 N23 1.031171 1_555
H112 N24 1.024158 1_555
H113 N25 1.024158 1_555
H114 N26 1.024158 1_555
H115 N27 1.024158 1_555
H116 N28 1.024158 1_555
H117 N29 1.024158 1_555
H118 N30 1.024158 1_555
H119 N31 1.024158 1_555
H120 N24 1.019957 1_555
H121 N25 1.019957 1_555
H122 N26 1.019957 1_555
H123 N27 1.019957 1_555
H124 N28 1.019957 1_555
H125 N29 1.019957 1_555
H126 N30 1.019957 1_555
H127 N31 1.019957 1_555
C0 H8 1.098136 1_555
C0 H0 1.099399 1_555
C0 N8 1.479122 1_555
C1 H9 1.098136 1_555
C1 H1 1.099399 1_555
C1 N9 1.479122 1_555
C2 H10 1.098136 1_555
C2 H2 1.099399 1_555
C2 N10 1.479122 1_555
C3 H11 1.098136 1_555
C3 H3 1.099399 1_555
C3 N11 1.479122 1_555
C4 H12 1.098136 1_555
C4 H4 1.099399 1_555
C4 N12 1.479122 1_555
C5 H13 1.098136 1_555
C5 H5 1.099399 1_555
C5 N13 1.479122 1_555
C6 H14 1.098136 1_555
C6 H6 1.099399 1_555
C6 N14 1.479122 1_555
C7 H15 1.098136 1_555
C7 H7 1.099399 1_555
C7 N15 1.479122 1_555
C8 H16 1.098020 1_555
C8 H24 1.099784 1_555
C8 N0 1.474746 1_555
C9 H17 1.098020 1_555
C9 H25 1.099784 1_555
C9 N1 1.474746 1_555
C10 H18 1.098020 1_555
C10 H26 1.099784 1_555
C10 N2 1.474746 1_555
C11 H19 1.098020 1_555
C11 H27 1.099784 1_555
C11 N3 1.474746 1_555
C12 H20 1.098020 1_555
C12 H28 1.099784 1_555
C12 N4 1.474746 1_555
C13 H21 1.098020 1_555
C13 H29 1.099784 1_555
C13 N5 1.474746 1_555
C14 H22 1.098020 1_555
C14 H30 1.099784 1_555
C14 N6 1.474746 1_555
C15 H23 1.098020 1_555
C15 H31 1.099784 1_555
C15 N7 1.474746 1_555
C16 H32 1.099002 1_555
C16 H40 1.101390 1_555
C16 N16 1.478089 1_555
C17 H33 1.099002 1_555
C17 H41 1.101390 1_555
C17 N17 1.478089 1_555
C18 H34 1.099002 1_555
C18 H42 1.101390 1_555
C18 N18 1.478089 1_555
C19 H35 1.099002 1_555
C19 H43 1.101390 1_555
C19 N19 1.478089 1_555
C20 H36 1.099002 1_555
C20 H44 1.101390 1_555
C20 N20 1.478089 1_555
C21 H37 1.099002 1_555
C21 H45 1.101390 1_555
C21 N21 1.478089 1_555
C22 H38 1.099002 1_555
C22 H46 1.101390 1_555
C22 N22 1.478089 1_555
C23 H39 1.099002 1_555
C23 H47 1.101390 1_555
C23 N23 1.478089 1_555
C24 H48 1.100298 1_555
C24 H56 1.100825 1_555
C24 N24 1.474028 1_555
C25 H49 1.100298 1_455
C25 H57 1.100825 1_455
C25 N25 1.474028 1_555
C26 H50 1.100298 1_555
C26 H58 1.100825 1_555
C26 N26 1.474028 1_555
C27 H51 1.100298 1_655
C27 H59 1.100825 1_655
C27 N27 1.474028 1_555
C28 H52 1.100298 1_555
C28 H60 1.100825 1_555
C28 N28 1.474028 1_555
C29 H53 1.100298 1_655
C29 H61 1.100825 1_655
C29 N29 1.474028 1_555
C30 H54 1.100298 1_555
C30 H62 1.100825 1_555
C30 N30 1.474028 1_555
C31 H55 1.100298 1_455
C31 H63 1.100825 1_455
C31 N31 1.474028 1_555
N0 Zn0 2.116940 1_555
N1 Zn1 2.116940 1_555
N2 Zn2 2.116940 1_555
N3 Zn3 2.116940 1_555
N4 Zn4 2.116940 1_555
N5 Zn5 2.116940 1_555
N6 Zn6 2.116940 1_555
N7 Zn7 2.116940 1_555
N8 Zn0 2.157174 1_555
N9 Zn1 2.157174 1_555
N10 Zn2 2.157174 1_555
N11 Zn3 2.157174 1_555
N12 Zn4 2.157174 1_555
N13 Zn5 2.157174 1_555
N14 Zn6 2.157174 1_555
N15 Zn7 2.157174 1_555
N16 Zn0 2.117933 1_545
N17 Zn1 2.117933 1_555
N18 Zn2 2.117933 1_555
N19 Zn3 2.117933 1_565
N20 Zn4 2.117933 1_565
N21 Zn5 2.117933 1_555
N22 Zn6 2.117933 1_555
N23 Zn7 2.117933 1_545
N24 Zn0 2.189267 1_555
N25 Zn1 2.189267 1_555
N26 Zn2 2.189267 1_555
N27 Zn3 2.189267 1_555
N28 Zn4 2.189267 1_555
N29 Zn5 2.189267 1_555
N30 Zn6 2.189267 1_555
N31 Zn7 2.189267 1_555
O48 Zn0 2.104928 1_555
O49 Zn1 2.104928 1_555
O50 Zn2 2.104928 1_555
O51 Zn3 2.104928 1_555
O52 Zn4 2.104928 1_555
O53 Zn5 2.104928 1_555
O54 Zn6 2.104928 1_555
O55 Zn7 2.104928 1_555
