# generated using pymatgen
data_BaNa2Sr6Al6(OF16)2
_symmetry_space_group_name_H-M   'P 1'
_cell_length_a   9.92973364
_cell_length_b   9.92973364
_cell_length_c   7.34797157
_cell_angle_alpha   80.51147332
_cell_angle_beta   80.51147332
_cell_angle_gamma   68.37849671
_symmetry_Int_Tables_number   1
_chemical_formula_structural   BaNa2Sr6Al6(OF16)2
_chemical_formula_sum   'Ba1 Na2 Sr6 Al6 O2 F32'
_cell_volume   660.01889066
_cell_formula_units_Z   1
loop_
 _symmetry_equiv_pos_site_id
 _symmetry_equiv_pos_as_xyz
  1  'x, y, z'
loop_
 _atom_site_type_symbol
 _atom_site_label
 _atom_site_symmetry_multiplicity
 _atom_site_fract_x
 _atom_site_fract_y
 _atom_site_fract_z
 _atom_site_occupancy
  Ba  Ba0  1  0.73780100  0.73780100  0.13238300  1
  Na  Na0  1  0.50004700  0.50004700  0.50073300  1
  Na  Na1  1  0.49962300  0.49962300  0.99830400  1
  Sr  Sr0  1  0.15152100  0.55225300  0.30402600  1
  Sr  Sr1  1  0.55225300  0.15152100  0.30402600  1
  Sr  Sr2  1  0.85078900  0.44642100  0.69514600  1
  Sr  Sr3  1  0.44642100  0.85078900  0.69514600  1
  Sr  Sr4  1  0.00046000  0.00046000  0.99849300  1
  Sr  Sr5  1  0.25977500  0.25977500  0.88554700  1
  Al  Al0  1  0.16515700  0.16515700  0.45789500  1
  Al  Al1  1  0.83584000  0.83584000  0.54410200  1
  Al  Al2  1  0.86714000  0.34886600  0.20271000  1
  Al  Al3  1  0.34886600  0.86714000  0.20271000  1
  Al  Al4  1  0.13688200  0.64647800  0.79616700  1
  Al  Al5  1  0.64647800  0.13688200  0.79616700  1
  O  O0  1  0.41478000  0.41478000  0.28201000  1
  O  O1  1  0.58616800  0.58616800  0.71584400  1
  F  F0  1  0.99799100  0.25880400  0.00746700  1
  F  F1  1  0.25880400  0.99799100  0.00746700  1
  F  F2  1  0.01138400  0.73866500  0.99150800  1
  F  F3  1  0.73866500  0.01138400  0.99150800  1
  F  F4  1  0.09652200  0.09652200  0.68312500  1
  F  F5  1  0.90281800  0.90281800  0.31670900  1
  F  F6  1  0.98656600  0.22005300  0.37336800  1
  F  F7  1  0.22005300  0.98656600  0.37336800  1
  F  F8  1  0.01447300  0.77861500  0.62884000  1
  F  F9  1  0.77861500  0.01447300  0.62884000  1
  F  F10  1  0.74448600  0.44676600  0.38957500  1
  F  F11  1  0.44676600  0.74448600  0.38957500  1
  F  F12  1  0.25714100  0.55231900  0.60651700  1
  F  F13  1  0.55231900  0.25714100  0.60651700  1
  F  F14  1  0.24028900  0.24028900  0.23759400  1
  F  F15  1  0.75901200  0.75901200  0.75825100  1
  F  F16  1  0.75018900  0.47756500  0.03170500  1
  F  F17  1  0.47756500  0.75018900  0.03170500  1
  F  F18  1  0.25309600  0.51165600  0.96518700  1
  F  F19  1  0.51165600  0.25309600  0.96518700  1
  F  F20  1  0.96576100  0.47234300  0.19084900  1
  F  F21  1  0.47234300  0.96576100  0.19084900  1
  F  F22  1  0.03933900  0.52155300  0.81109300  1
  F  F23  1  0.52155300  0.03933900  0.81109300  1
  F  F24  1  0.77262400  0.23025100  0.78815400  1
  F  F25  1  0.23025100  0.77262400  0.78815400  1
  F  F26  1  0.22173900  0.77553200  0.20969500  1
  F  F27  1  0.77553200  0.22173900  0.20969500  1
  F  F28  1  0.11304000  0.34188600  0.54640700  1
  F  F29  1  0.34188600  0.11304000  0.54640700  1
  F  F30  1  0.89026500  0.65725600  0.45609100  1
  F  F31  1  0.65725600  0.89026500  0.45609100  1
loop_
_geom_bond_atom_site_label_1
_geom_bond_atom_site_label_2
_geom_bond_distance
_geom_bond_site_symmetry_2
Ba0 F15 2.701337 1_554
Ba0 F2 2.745661 1_654
Ba0 F3 2.745661 1_564
Ba0 F17 2.757872 1_555
Ba0 F16 2.757872 1_555
Ba0 F20 2.794037 1_555
Ba0 F21 2.794037 1_555
Ba0 F30 2.873516 1_555
Ba0 F31 2.873516 1_555
Na0 O1 2.321899 1_555
Na0 O0 2.332874 1_555
Na1 O0 2.265016 1_556
Na1 O1 2.269997 1_555
Al0 F4 1.807340 1_555
Al0 F14 1.829587 1_555
Al0 F28 1.834790 1_555
Al0 F29 1.834790 1_555
Al0 F7 1.834899 1_545
Al0 F6 1.834899 1_455
Al1 F5 1.808226 1_555
Al1 F15 1.810357 1_555
Al1 F9 1.833460 1_565
Al1 F8 1.833460 1_655
Al1 F30 1.847018 1_555
Al1 F31 1.847018 1_555
Al2 F27 1.798067 1_555
Al2 F20 1.814212 1_555
Al2 F10 1.824802 1_555
Al2 F16 1.848954 1_555
Al2 F6 1.859695 1_555
Al2 F0 1.870370 1_555
Al3 F26 1.798067 1_555
Al3 F21 1.814212 1_555
Al3 F11 1.824802 1_555
Al3 F17 1.848954 1_555
Al3 F7 1.859695 1_555
Al3 F1 1.870370 1_555
Al4 F25 1.801541 1_555
Al4 F22 1.815074 1_555
Al4 F12 1.816656 1_555
Al4 F18 1.858009 1_555
Al4 F2 1.858476 1_555
Al4 F8 1.869820 1_555
Al5 F24 1.801541 1_555
Al5 F23 1.815074 1_555
Al5 F13 1.816656 1_555
Al5 F19 1.858009 1_555
Al5 F3 1.858476 1_555
Al5 F9 1.869820 1_555
O0 Sr0 2.454936 1_555
O0 Sr1 2.454936 1_555
O1 Sr2 2.470593 1_555
O1 Sr3 2.470593 1_555
F0 Sr4 2.567983 1_654
F0 Sr5 2.609141 1_654
F0 Sr2 2.926344 1_554
F1 Sr4 2.567983 1_564
F1 Sr5 2.609141 1_564
F1 Sr3 2.926344 1_554
F2 Sr4 2.570299 1_565
F2 Sr0 2.896528 1_556
F3 Sr4 2.570299 1_655
F3 Sr1 2.896528 1_556
F4 Sr4 2.530348 1_555
F5 Sr4 2.558383 1_664
F10 Na0 2.319677 1_555
F10 Sr2 2.632855 1_555
F11 Na0 2.319677 1_555
F11 Sr3 2.632855 1_555
F12 Na0 2.298604 1_555
F12 Sr0 2.609572 1_555
F13 Na0 2.298604 1_555
F13 Sr1 2.609572 1_555
F14 Sr5 2.542463 1_554
F14 Sr1 2.992586 1_555
F14 Sr0 2.992586 1_555
F15 Sr2 2.988412 1_555
F15 Sr3 2.988412 1_555
F16 Na1 2.465891 1_554
F16 Sr2 2.533646 1_554
F17 Na1 2.465891 1_554
F17 Sr3 2.533646 1_554
F18 Na1 2.457072 1_555
F18 Sr0 2.565566 1_556
F18 Sr5 2.636272 1_555
F19 Na1 2.457072 1_555
F19 Sr1 2.565566 1_556
F19 Sr5 2.636272 1_555
F20 Sr0 2.554504 1_655
F21 Sr1 2.554504 1_565
F22 Sr2 2.559801 1_455
F22 Sr5 2.753216 1_555
F23 Sr3 2.559801 1_545
F23 Sr5 2.753216 1_555
F24 Sr2 2.499244 1_555
F24 Sr4 2.983174 1_655
F25 Sr3 2.499244 1_555
F25 Sr4 2.983174 1_565
F26 Sr0 2.520980 1_555
F26 Sr4 2.930802 1_564
F27 Sr1 2.520980 1_555
F27 Sr4 2.930802 1_654
F28 Sr2 2.548896 1_455
F28 Sr0 2.611264 1_555
F28 Sr5 2.941005 1_555
F29 Sr3 2.548896 1_545
F29 Sr1 2.611264 1_555
F29 Sr5 2.941005 1_555
F30 Sr0 2.549629 1_655
F30 Sr2 2.605260 1_555
F31 Sr1 2.549629 1_565
F31 Sr3 2.605260 1_555
