# generated using pymatgen
data_Pr(Sn2Rh)2
_symmetry_space_group_name_H-M   'P 1'
_cell_length_a   4.50461793
_cell_length_b   7.21889221
_cell_length_c   18.59835407
_cell_angle_alpha   90.00000000
_cell_angle_beta   90.00000000
_cell_angle_gamma   90.00000000
_symmetry_Int_Tables_number   1
_chemical_formula_structural   Pr(Sn2Rh)2
_chemical_formula_sum   'Pr4 Sn16 Rh8'
_cell_volume   604.78781095
_cell_formula_units_Z   4
loop_
 _symmetry_equiv_pos_site_id
 _symmetry_equiv_pos_as_xyz
  1  'x, y, z'
loop_
 _atom_site_type_symbol
 _atom_site_label
 _atom_site_symmetry_multiplicity
 _atom_site_fract_x
 _atom_site_fract_y
 _atom_site_fract_z
 _atom_site_occupancy
  Pr  Pr0  1  0.25000000  0.99919076  0.85837478  1
  Pr  Pr1  1  0.25000000  0.50080924  0.35837478  1
  Pr  Pr2  1  0.75000000  0.00080924  0.14162522  1
  Pr  Pr3  1  0.75000000  0.49919076  0.64162522  1
  Sn  Sn0  1  0.25000000  0.30373682  0.18145811  1
  Sn  Sn1  1  0.25000000  0.19626318  0.68145811  1
  Sn  Sn2  1  0.75000000  0.69626318  0.81854189  1
  Sn  Sn3  1  0.75000000  0.80373682  0.31854189  1
  Sn  Sn4  1  0.25000000  0.72185382  0.19592854  1
  Sn  Sn5  1  0.25000000  0.77814618  0.69592854  1
  Sn  Sn6  1  0.75000000  0.27814618  0.80407146  1
  Sn  Sn7  1  0.75000000  0.22185382  0.30407146  1
  Sn  Sn8  1  0.25000000  0.86780657  0.03125027  1
  Sn  Sn9  1  0.25000000  0.63219343  0.53125027  1
  Sn  Sn10  1  0.75000000  0.13219343  0.96874973  1
  Sn  Sn11  1  0.75000000  0.36780657  0.46874973  1
  Sn  Sn12  1  0.25000000  0.52317546  0.93331446  1
  Sn  Sn13  1  0.25000000  0.97682454  0.43331446  1
  Sn  Sn14  1  0.75000000  0.47682454  0.06668554  1
  Sn  Sn15  1  0.75000000  0.02317546  0.56668554  1
  Rh  Rh0  1  0.25000000  0.25284072  0.03413812  1
  Rh  Rh1  1  0.25000000  0.24715928  0.53413812  1
  Rh  Rh2  1  0.75000000  0.74715928  0.96586188  1
  Rh  Rh3  1  0.75000000  0.75284072  0.46586188  1
  Rh  Rh4  1  0.25000000  0.01600076  0.28773348  1
  Rh  Rh5  1  0.25000000  0.48399924  0.78773348  1
  Rh  Rh6  1  0.75000000  0.98399924  0.71226652  1
  Rh  Rh7  1  0.75000000  0.51600076  0.21226652  1
loop_
_geom_bond_atom_site_label_1
_geom_bond_atom_site_label_2
_geom_bond_distance
_geom_bond_site_symmetry_2
Pr0 Sn6 3.185606 1_565
Pr0 Sn6 3.185606 1_465
Pr0 Sn10 3.195107 1_565
Pr0 Sn10 3.195107 1_465
Pr0 Sn2 3.225495 1_455
Pr0 Sn2 3.225495 1_555
Pr0 Sn8 3.352173 1_556
Pr1 Sn7 3.185606 1_455
Pr1 Sn7 3.185606 1_555
Pr1 Sn11 3.195107 1_555
Pr1 Sn11 3.195107 1_455
Pr1 Sn3 3.225495 1_555
Pr1 Sn3 3.225495 1_455
Pr1 Sn9 3.352173 1_555
Pr2 Sn4 3.185606 1_645
Pr2 Sn4 3.185606 1_545
Pr2 Sn8 3.195107 1_545
Pr2 Sn8 3.195107 1_645
Pr2 Sn0 3.225495 1_555
Pr2 Sn0 3.225495 1_655
Pr2 Sn10 3.352173 1_554
Pr3 Sn5 3.185606 1_555
Pr3 Sn5 3.185606 1_655
Pr3 Sn9 3.195107 1_555
Pr3 Sn9 3.195107 1_655
Pr3 Sn1 3.225495 1_555
Pr3 Sn1 3.225495 1_655
Pr3 Sn11 3.352173 1_555
Rh0 Sn10 2.703770 1_554
Rh0 Sn10 2.703770 1_454
Rh0 Sn12 2.706404 1_554
Rh0 Sn0 2.764434 1_555
Rh0 Sn8 2.780039 1_545
Rh0 Sn14 2.837910 1_455
Rh0 Sn14 2.837910 1_555
Rh1 Sn11 2.703770 1_455
Rh1 Sn11 2.703770 1_555
Rh1 Sn13 2.706404 1_545
Rh1 Sn1 2.764434 1_555
Rh1 Sn9 2.780039 1_555
Rh1 Sn15 2.837910 1_555
Rh1 Sn15 2.837910 1_455
Rh2 Sn8 2.703770 1_556
Rh2 Sn8 2.703770 1_656
Rh2 Sn14 2.706404 1_556
Rh2 Sn2 2.764434 1_555
Rh2 Sn10 2.780039 1_565
Rh2 Sn12 2.837910 1_655
Rh2 Sn12 2.837910 1_555
Rh3 Sn9 2.703770 1_555
Rh3 Sn9 2.703770 1_655
Rh3 Sn15 2.706404 1_565
Rh3 Sn3 2.764434 1_555
Rh3 Sn11 2.780039 1_555
Rh3 Sn13 2.837910 1_655
Rh3 Sn13 2.837910 1_555
Rh4 Sn7 2.715422 1_455
Rh4 Sn7 2.715422 1_555
Rh4 Sn13 2.722296 1_545
Rh4 Sn4 2.724734 1_545
Rh4 Sn3 2.783736 1_445
Rh4 Sn3 2.783736 1_545
Rh4 Sn0 2.867269 1_555
Rh5 Sn6 2.715422 1_555
Rh5 Sn6 2.715422 1_455
Rh5 Sn12 2.722296 1_555
Rh5 Sn5 2.724734 1_555
Rh5 Sn2 2.783736 1_555
Rh5 Sn2 2.783736 1_455
Rh5 Sn1 2.867269 1_555
Rh6 Sn5 2.715422 1_655
Rh6 Sn5 2.715422 1_555
Rh6 Sn15 2.722296 1_565
Rh6 Sn6 2.724734 1_565
Rh6 Sn1 2.783736 1_665
Rh6 Sn1 2.783736 1_565
Rh6 Sn2 2.867269 1_555
Rh7 Sn4 2.715422 1_655
Rh7 Sn4 2.715422 1_555
Rh7 Sn14 2.722296 1_555
Rh7 Sn7 2.724734 1_555
Rh7 Sn0 2.783736 1_555
Rh7 Sn0 2.783736 1_655
Rh7 Sn3 2.867269 1_555
