# generated using pymatgen
data_Cs3LiPb4
_symmetry_space_group_name_H-M   'P 1'
_cell_length_a   9.27545023
_cell_length_b   9.27545023
_cell_length_c   10.84489964
_cell_angle_alpha   90.00000000
_cell_angle_beta   90.00000000
_cell_angle_gamma   132.06793378
_symmetry_Int_Tables_number   1
_chemical_formula_structural   Cs3LiPb4
_chemical_formula_sum   'Cs6 Li2 Pb8'
_cell_volume   692.63557968
_cell_formula_units_Z   2
loop_
 _symmetry_equiv_pos_site_id
 _symmetry_equiv_pos_as_xyz
  1  'x, y, z'
loop_
 _atom_site_type_symbol
 _atom_site_label
 _atom_site_symmetry_multiplicity
 _atom_site_fract_x
 _atom_site_fract_y
 _atom_site_fract_z
 _atom_site_occupancy
  Cs  Cs0  1  0.22902594  0.77097406  0.25000000  1
  Cs  Cs1  1  0.77097406  0.22902594  0.75000000  1
  Cs  Cs2  1  0.61356133  0.38643867  0.04684626  1
  Cs  Cs3  1  0.38643867  0.61356133  0.95315374  1
  Cs  Cs4  1  0.38643867  0.61356133  0.54684626  1
  Cs  Cs5  1  0.61356133  0.38643867  0.45315374  1
  Li  Li0  1  -0.00000000  -0.00000000  0.00000000  1
  Li  Li1  1  -0.00000000  -0.00000000  0.50000000  1
  Pb  Pb0  1  0.17526209  0.24071201  0.25000000  1
  Pb  Pb1  1  0.82473791  0.75928799  0.75000000  1
  Pb  Pb2  1  0.75928799  0.82473791  0.25000000  1
  Pb  Pb3  1  0.24071201  0.17526209  0.75000000  1
  Pb  Pb4  1  0.83726108  0.16273892  0.10919882  1
  Pb  Pb5  1  0.16273892  0.83726108  0.89080118  1
  Pb  Pb6  1  0.16273892  0.83726108  0.60919882  1
  Pb  Pb7  1  0.83726108  0.16273892  0.39080118  1
loop_
_geom_bond_atom_site_label_1
_geom_bond_atom_site_label_2
_geom_bond_distance
_geom_bond_site_symmetry_2
Cs0 Pb6 4.054301 1_555
Cs0 Pb5 4.054301 1_554
Cs0 Pb7 4.460168 1_455
Cs0 Pb4 4.460168 1_455
Cs0 Pb7 4.460168 1_565
Cs0 Pb4 4.460168 1_565
Cs1 Pb7 4.054301 1_555
Cs1 Pb4 4.054301 1_556
Cs1 Pb5 4.460168 1_655
Cs1 Pb5 4.460168 1_545
Cs1 Pb6 4.460168 1_545
Cs1 Pb6 4.460168 1_655
Cs2 Pb4 3.851879 1_555
Cs2 Pb0 3.980589 1_555
Cs2 Pb2 3.980589 1_555
Cs2 Pb3 4.133180 1_554
Cs2 Pb1 4.133180 1_554
Cs2 Pb5 4.213541 1_654
Cs2 Pb5 4.213541 1_544
Cs3 Pb5 3.851879 1_555
Cs3 Pb3 3.980589 1_555
Cs3 Pb1 3.980589 1_555
Cs3 Pb0 4.133180 1_556
Cs3 Pb2 4.133180 1_556
Cs3 Pb4 4.213541 1_566
Cs3 Pb4 4.213541 1_456
Cs4 Pb6 3.851879 1_555
Cs4 Pb3 3.980589 1_555
Cs4 Pb1 3.980589 1_555
Cs4 Pb0 4.133180 1_555
Cs4 Pb2 4.133180 1_555
Cs4 Pb7 4.213541 1_455
Cs4 Pb7 4.213541 1_565
Cs5 Pb7 3.851879 1_555
Cs5 Pb0 3.980589 1_555
Cs5 Pb2 3.980589 1_555
Cs5 Pb3 4.133180 1_555
Cs5 Pb1 4.133180 1_555
Cs5 Pb6 4.213541 1_545
Cs5 Pb6 4.213541 1_655
Li0 Pb4 3.002125 1_455
Li0 Pb5 3.002125 1_544
Li0 Pb0 3.180365 1_555
Li0 Pb3 3.180365 1_554
Li0 Pb2 3.180365 1_445
Li0 Pb1 3.180365 1_444
Li1 Pb7 3.002125 1_455
Li1 Pb6 3.002125 1_545
Li1 Pb3 3.180365 1_555
Li1 Pb0 3.180365 1_555
Li1 Pb1 3.180365 1_445
Li1 Pb2 3.180365 1_445
Pb0 Pb7 3.105680 1_455
Pb0 Pb4 3.105680 1_455
Pb1 Pb6 3.105680 1_655
Pb1 Pb5 3.105680 1_655
Pb2 Pb7 3.105680 1_565
Pb2 Pb4 3.105680 1_565
Pb3 Pb6 3.105680 1_545
Pb3 Pb5 3.105680 1_545
Pb4 Pb7 3.053949 1_555
Pb5 Pb6 3.053949 1_555
