# generated using pymatgen
data_KZnBr3O2
_symmetry_space_group_name_H-M   'P 1'
_cell_length_a   7.34793500
_cell_length_b   8.96038300
_cell_length_c   13.54446200
_cell_angle_alpha   90.00000000
_cell_angle_beta   90.00000000
_cell_angle_gamma   90.00000000
_symmetry_Int_Tables_number   1
_chemical_formula_structural   KZnBr3O2
_chemical_formula_sum   'K4 Zn4 Br12 O8'
_cell_volume   891.77160204
_cell_formula_units_Z   4
loop_
 _symmetry_equiv_pos_site_id
 _symmetry_equiv_pos_as_xyz
  1  'x, y, z'
loop_
 _atom_site_type_symbol
 _atom_site_label
 _atom_site_symmetry_multiplicity
 _atom_site_fract_x
 _atom_site_fract_y
 _atom_site_fract_z
 _atom_site_occupancy
  K  K0  1  0.89671900  0.46838000  0.09201000  1
  K  K1  1  0.39671900  0.03162000  0.90799000  1
  K  K2  1  0.10328100  0.96838000  0.40799000  1
  K  K3  1  0.60328100  0.53162000  0.59201000  1
  Zn  Zn0  1  0.32652000  0.47540600  0.91230400  1
  Zn  Zn1  1  0.82652000  0.02459400  0.08769600  1
  Zn  Zn2  1  0.67348000  0.97540600  0.58769600  1
  Zn  Zn3  1  0.17348000  0.52459400  0.41230400  1
  Br  Br0  1  0.35363200  0.34103700  0.76420100  1
  Br  Br1  1  0.85363200  0.15896300  0.23579900  1
  Br  Br2  1  0.64636800  0.84103700  0.73579900  1
  Br  Br3  1  0.14636800  0.65896300  0.26420100  1
  Br  Br4  1  0.40324800  0.35642500  0.06232000  1
  Br  Br5  1  0.90324800  0.14357500  0.93768000  1
  Br  Br6  1  0.59675200  0.85642500  0.43768000  1
  Br  Br7  1  0.09675200  0.64357500  0.56232000  1
  Br  Br8  1  0.16467700  0.70058000  0.91880700  1
  Br  Br9  1  0.66467700  0.79942000  0.08119300  1
  Br  Br10  1  0.83532300  0.20058000  0.58119300  1
  Br  Br11  1  0.33532300  0.29942000  0.41880700  1
  O  O0  1  0.74116000  0.51925700  0.87644400  1
  O  O1  1  0.24116000  0.98074300  0.12355600  1
  O  O2  1  0.25884000  0.01925700  0.62355600  1
  O  O3  1  0.75884000  0.48074300  0.37644400  1
  O  O4  1  0.82316400  0.48022900  0.80133100  1
  O  O5  1  0.32316400  0.01977100  0.19866900  1
  O  O6  1  0.17683600  0.98022900  0.69866900  1
  O  O7  1  0.67683600  0.51977100  0.30133100  1
loop_
_geom_bond_atom_site_label_1
_geom_bond_atom_site_label_2
_geom_bond_distance
_geom_bond_site_symmetry_2
K0 O0 3.168463 1_554
K0 O7 3.295528 1_555
K1 O1 3.168463 1_546
K1 O6 3.295528 1_545
K2 O2 3.168463 1_565
K2 O5 3.295528 1_565
K3 O3 3.168463 1_555
K3 O4 3.295528 1_555
Br0 Zn0 2.348028 1_555
Br0 K1 3.402924 1_555
Br0 K3 3.423534 1_555
Br1 Zn1 2.348028 1_555
Br1 K0 3.402924 1_555
Br1 K2 3.423534 1_645
Br2 Zn2 2.348028 1_555
Br2 K3 3.402924 1_555
Br2 K1 3.423534 1_565
Br3 Zn3 2.348028 1_555
Br3 K2 3.402924 1_555
Br3 K0 3.423534 1_455
Br4 Zn0 2.362842 1_554
Br4 K1 3.583577 1_554
Br4 K0 3.783631 1_555
Br4 K0 3.875680 1_455
Br5 Zn1 2.362842 1_556
Br5 K0 3.583577 1_556
Br5 K1 3.783631 1_655
Br5 K1 3.875680 1_555
Br6 Zn2 2.362842 1_555
Br6 K3 3.583577 1_555
Br6 K2 3.783631 1_555
Br6 K2 3.875680 1_655
Br7 Zn3 2.362842 1_555
Br7 K2 3.583577 1_555
Br7 K3 3.783631 1_455
Br7 K3 3.875680 1_555
Br8 Zn0 2.343688 1_555
Br8 K1 3.424500 1_565
Br8 K0 3.702575 1_456
Br9 Zn1 2.343688 1_565
Br9 K0 3.424500 1_555
Br9 K1 3.702575 1_564
Br10 Zn2 2.343688 1_545
Br10 K3 3.424500 1_555
Br10 K2 3.702575 1_645
Br11 Zn3 2.343688 1_555
Br11 K2 3.424500 1_545
Br11 K3 3.702575 1_555
O0 O4 1.233047 1_555
O1 O5 1.233047 1_565
O2 O6 1.233047 1_545
O3 O7 1.233047 1_555
