# generated using pymatgen
data_H5IO6
_symmetry_space_group_name_H-M   'P 1'
_cell_length_a   5.57684952
_cell_length_b   18.43848772
_cell_length_c   4.85512066
_cell_angle_alpha   88.62632364
_cell_angle_beta   105.11820267
_cell_angle_gamma   90.61449488
_symmetry_Int_Tables_number   1
_chemical_formula_structural   H5IO6
_chemical_formula_sum   'H20 I4 O24'
_cell_volume   481.82294008
_cell_formula_units_Z   4
loop_
 _symmetry_equiv_pos_site_id
 _symmetry_equiv_pos_as_xyz
  1  'x, y, z'
loop_
 _atom_site_type_symbol
 _atom_site_label
 _atom_site_symmetry_multiplicity
 _atom_site_fract_x
 _atom_site_fract_y
 _atom_site_fract_z
 _atom_site_occupancy
  H  H0  1  0.12026900  0.49851300  0.80991100  1
  H  H1  1  0.75539500  0.95810100  0.11530700  1
  H  H2  1  0.71267100  0.44494800  0.38853600  1
  H  H3  1  0.37090700  0.99966400  0.69613600  1
  H  H4  1  0.84836300  0.52682400  0.15856100  1
  H  H5  1  0.25706600  0.89076000  0.54279500  1
  H  H6  1  0.23959200  0.38683900  0.94474900  1
  H  H7  1  0.64268500  0.03423800  0.33832100  1
  H  H8  1  0.32473600  0.55338600  0.46924400  1
  H  H9  1  0.20322500  0.06010900  0.02624400  1
  H  H10  1  0.03799900  0.68927600  0.40298800  1
  H  H11  1  0.87556800  0.82906600  0.04912800  1
  H  H12  1  0.86271500  0.30582000  0.54329500  1
  H  H13  1  0.41939500  0.19986400  0.07161300  1
  H  H14  1  0.38704900  0.67987700  0.73313100  1
  H  H15  1  0.91080500  0.13409900  0.48982900  1
  H  H16  1  0.89244000  0.72734200  0.80299500  1
  H  H17  1  0.56265500  0.79902900  0.18899700  1
  H  H18  1  0.06662300  0.28655200  0.20377700  1
  H  H19  1  0.62508800  0.22685400  0.72712400  1
  I  I0  1  0.15010300  0.62120300  0.02863900  1
  I  I1  1  0.72566000  0.88685800  0.56957100  1
  I  I2  1  0.76366500  0.38025800  0.93353900  1
  I  I3  1  0.34602500  0.12634700  0.47760500  1
  O  O0  1  0.14580200  0.55166600  0.74107500  1
  O  O1  1  0.65443600  0.96505500  0.26045400  1
  O  O2  1  0.79036200  0.45693000  0.20941900  1
  O  O3  1  0.34854400  0.05185600  0.76108900  1
  O  O4  1  0.87368600  0.58530100  0.13405000  1
  O  O5  1  0.41203700  0.91904900  0.64380500  1
  O  O6  1  0.08248200  0.41871700  0.88026300  1
  O  O7  1  0.63923100  0.09241600  0.39347100  1
  O  O8  1  0.39114300  0.56495400  0.30084300  1
  O  O9  1  0.88503000  0.94968200  0.83889300  1
  O  O10  1  0.61289500  0.43733300  0.62573800  1
  O  O11  1  0.13408500  0.06685700  0.19638700  1
  O  O12  1  0.16839600  0.69808800  0.29800400  1
  O  O13  1  0.76813100  0.80767300  0.86957700  1
  O  O14  1  0.80634300  0.29311400  0.72084000  1
  O  O15  1  0.33836000  0.20926000  0.23009000  1
  O  O16  1  0.42941200  0.66904700  0.94072300  1
  O  O17  1  0.97739700  0.85317800  0.42865200  1
  O  O18  1  0.48669100  0.34179600  0.01000300  1
  O  O19  1  0.06208800  0.16591500  0.56320200  1
  O  O20  1  0.93444400  0.67962800  0.72687400  1
  O  O21  1  0.48825400  0.82141800  0.32993700  1
  O  O22  1  0.97422700  0.32531800  0.26758700  1
  O  O23  1  0.54044400  0.18115100  0.78794800  1
loop_
_geom_bond_atom_site_label_1
_geom_bond_atom_site_label_2
_geom_bond_distance
_geom_bond_site_symmetry_2
H0 O0 1.048149 1_555
H0 O6 1.527302 1_555
H1 O1 1.021227 1_555
H1 O9 1.693007 1_554
H2 O2 1.085391 1_555
H2 O10 1.407287 1_555
H3 O3 1.038626 1_565
H3 O5 1.543511 1_555
H4 O4 1.093631 1_555
H4 O2 1.357907 1_555
H5 O5 1.020303 1_555
H5 O17 1.662603 1_455
H6 O6 1.034569 1_555
H6 O18 1.572680 1_556
H7 O7 1.113413 1_555
H7 O1 1.346213 1_545
H8 O8 0.999509 1_555
H9 O11 1.009278 1_555
H10 O12 1.000935 1_555
H11 O13 1.006721 1_554
H12 O14 1.013343 1_555
H12 O22 1.647479 1_555
H13 O15 1.007824 1_555
H14 O16 0.989281 1_555
H15 O19 1.012659 1_655
H15 O7 1.651073 1_555
H16 O20 1.015200 1_555
H17 O21 0.987998 1_555
H18 O22 0.987015 1_455
H19 O23 1.035576 1_555
H19 O14 1.582137 1_555
I0 O4 1.857381 1_455
I0 O0 1.913494 1_554
I0 O8 1.914877 1_555
I0 O16 1.919902 1_554
I0 O12 1.935628 1_555
I0 O20 1.945893 1_454
I1 O9 1.812705 1_555
I1 O17 1.834335 1_555
I1 O21 1.947306 1_555
I1 O5 1.975512 1_555
I1 O13 2.008714 1_555
I1 O1 2.021544 1_555
I2 O18 1.813746 1_556
I2 O10 1.826440 1_555
I2 O2 1.948611 1_556
I2 O14 1.980116 1_555
I2 O6 1.983705 1_655
I2 O22 1.997199 1_556
I3 O19 1.896037 1_555
I3 O7 1.901223 1_555
I3 O23 1.914246 1_555
I3 O11 1.914840 1_555
I3 O15 1.915638 1_555
I3 O3 1.918523 1_555
