# generated using pymatgen
data_Pr3AlNi8
_symmetry_space_group_name_H-M   'P 1'
_cell_length_a   5.16236900
_cell_length_b   5.16236951
_cell_length_c   16.24841600
_cell_angle_alpha   90.00000000
_cell_angle_beta   90.00000000
_cell_angle_gamma   120.00000313
_symmetry_Int_Tables_number   1
_chemical_formula_structural   Pr3AlNi8
_chemical_formula_sum   'Pr6 Al2 Ni16'
_cell_volume   375.00734926
_cell_formula_units_Z   2
loop_
 _symmetry_equiv_pos_site_id
 _symmetry_equiv_pos_as_xyz
  1  'x, y, z'
loop_
 _atom_site_type_symbol
 _atom_site_label
 _atom_site_symmetry_multiplicity
 _atom_site_fract_x
 _atom_site_fract_y
 _atom_site_fract_z
 _atom_site_occupancy
  Pr  Pr0  1  0.33333300  0.66666700  0.95377300  1
  Pr  Pr1  1  0.66666700  0.33333300  0.04622700  1
  Pr  Pr2  1  0.66666700  0.33333300  0.45377300  1
  Pr  Pr3  1  0.33333300  0.66666700  0.54622700  1
  Pr  Pr4  1  0.33333300  0.66666700  0.75000000  1
  Pr  Pr5  1  0.66666700  0.33333300  0.25000000  1
  Al  Al0  1  0.00000000  0.00000000  0.50000000  1
  Al  Al1  1  0.00000000  0.00000000  0.00000000  1
  Ni  Ni0  1  0.16788200  0.83211800  0.37254800  1
  Ni  Ni1  1  0.16788200  0.33576400  0.37254800  1
  Ni  Ni2  1  0.66423600  0.83211800  0.37254800  1
  Ni  Ni3  1  0.83211800  0.16788200  0.62745200  1
  Ni  Ni4  1  0.83211800  0.66423600  0.62745200  1
  Ni  Ni5  1  0.33576400  0.16788200  0.62745200  1
  Ni  Ni6  1  0.83211800  0.16788200  0.87254800  1
  Ni  Ni7  1  0.83211800  0.66423600  0.87254800  1
  Ni  Ni8  1  0.33576400  0.16788200  0.87254800  1
  Ni  Ni9  1  0.16788200  0.83211800  0.12745200  1
  Ni  Ni10  1  0.16788200  0.33576400  0.12745200  1
  Ni  Ni11  1  0.66423600  0.83211800  0.12745200  1
  Ni  Ni12  1  0.33333300  0.66666700  0.25000000  1
  Ni  Ni13  1  0.66666700  0.33333300  0.75000000  1
  Ni  Ni14  1  0.00000000  0.00000000  0.25000000  1
  Ni  Ni15  1  0.00000000  0.00000000  0.75000000  1
loop_
_geom_bond_atom_site_label_1
_geom_bond_atom_site_label_2
_geom_bond_distance
_geom_bond_site_symmetry_2
Al0 Ni5 2.557722 1_555
Al0 Ni2 2.557722 1_445
Al0 Ni0 2.557722 1_545
Al0 Ni3 2.557722 1_455
Al0 Ni1 2.557722 1_555
Al0 Ni4 2.557722 1_445
Al0 Pr2 3.073680 1_455
Al0 Pr3 3.073680 1_545
Al0 Pr3 3.073684 1_445
Al0 Pr2 3.073684 1_555
Al0 Pr2 3.073684 1_445
Al0 Pr3 3.073684 1_555
Al1 Ni11 2.557722 1_445
Al1 Ni8 2.557722 1_554
Al1 Ni9 2.557722 1_545
Al1 Ni6 2.557722 1_454
Al1 Ni10 2.557722 1_555
Al1 Ni7 2.557722 1_444
Al1 Pr1 3.073680 1_455
Al1 Pr0 3.073680 1_544
Al1 Pr0 3.073684 1_444
Al1 Pr1 3.073684 1_555
Al1 Pr1 3.073684 1_445
Al1 Pr0 3.073684 1_554
Ni0 Ni12 2.480621 1_555
Ni0 Ni14 2.493645 1_565
Ni0 Ni2 2.562363 1_555
Ni0 Ni1 2.562363 1_555
Ni0 Ni2 2.600006 1_455
Ni0 Ni1 2.600007 1_565
Ni0 Pr2 2.899042 1_455
Ni0 Pr2 2.899042 1_565
Ni0 Pr3 3.186266 1_555
Ni0 Pr5 3.259993 1_455
Ni0 Pr5 3.259993 1_565
Ni1 Ni12 2.480623 1_555
Ni1 Ni14 2.493645 1_555
Ni1 Ni2 2.562363 1_555
Ni1 Ni2 2.600007 1_445
Ni1 Pr2 2.899040 1_455
Ni1 Pr2 2.899044 1_555
Ni1 Pr3 3.186268 1_555
Ni1 Pr5 3.259991 1_455
Ni1 Pr5 3.259995 1_555
Ni2 Pr2 2.899040 1_565
Ni2 Pr2 2.899045 1_555
Ni2 Pr3 3.186268 1_555
Ni2 Pr5 3.259991 1_565
Ni2 Pr5 3.259995 1_555
Ni3 Ni5 2.562363 1_555
Ni3 Ni4 2.562363 1_555
Ni3 Ni5 2.600006 1_655
Ni3 Ni4 2.600007 1_545
Ni3 Pr3 2.899042 1_655
Ni3 Pr3 2.899042 1_545
Ni3 Pr2 3.186266 1_555
Ni3 Pr4 3.259993 1_655
Ni3 Pr4 3.259993 1_545
Ni4 Ni5 2.562363 1_555
Ni4 Ni5 2.600007 1_665
Ni4 Pr3 2.899040 1_655
Ni4 Pr3 2.899044 1_555
Ni4 Pr2 3.186268 1_555
Ni4 Pr4 3.259991 1_655
Ni4 Pr4 3.259995 1_555
Ni5 Pr3 2.899040 1_545
Ni5 Pr3 2.899045 1_555
Ni5 Pr2 3.186268 1_555
Ni5 Pr4 3.259991 1_545
Ni5 Pr4 3.259995 1_555
Ni6 Ni8 2.562363 1_555
Ni6 Ni7 2.562363 1_555
Ni6 Ni8 2.600006 1_655
Ni6 Ni7 2.600007 1_545
Ni6 Pr0 2.899042 1_655
Ni6 Pr0 2.899042 1_545
Ni6 Pr1 3.186266 1_556
Ni6 Pr4 3.259993 1_655
Ni6 Pr4 3.259993 1_545
Ni7 Ni8 2.562363 1_555
Ni7 Ni8 2.600007 1_665
Ni7 Pr0 2.899040 1_655
Ni7 Pr0 2.899044 1_555
Ni7 Pr1 3.186268 1_556
Ni7 Pr4 3.259991 1_655
Ni7 Pr4 3.259995 1_555
Ni8 Pr0 2.899040 1_545
Ni8 Pr0 2.899045 1_555
Ni8 Pr1 3.186268 1_556
Ni8 Pr4 3.259991 1_545
Ni8 Pr4 3.259995 1_555
Ni9 Pr1 2.899042 1_455
Ni9 Pr1 2.899042 1_565
Ni9 Pr0 3.186266 1_554
Ni9 Pr5 3.259993 1_455
Ni9 Pr5 3.259993 1_565
Ni10 Ni12 2.480623 1_555
Ni10 Ni14 2.493645 1_555
Ni10 Ni11 2.562363 1_555
Ni10 Ni9 2.562363 1_555
Ni10 Ni11 2.600007 1_445
Ni10 Ni9 2.600007 1_545
Ni10 Pr1 2.899040 1_455
Ni10 Pr1 2.899044 1_555
Ni10 Pr0 3.186268 1_554
Ni10 Pr5 3.259991 1_455
Ni10 Pr5 3.259995 1_555
Ni11 Ni12 2.480623 1_555
Ni11 Ni14 2.493645 1_665
Ni11 Ni9 2.562363 1_555
Ni11 Ni9 2.600006 1_655
Ni11 Pr1 2.899040 1_565
Ni11 Pr1 2.899045 1_555
Ni11 Pr0 3.186268 1_554
Ni11 Pr5 3.259991 1_565
Ni11 Pr5 3.259995 1_555
Ni12 Ni9 2.480621 1_555
Ni12 Ni2 2.480623 1_555
Ni12 Pr5 2.980492 1_455
Ni12 Pr5 2.980492 1_565
Ni12 Pr5 2.980501 1_555
Ni13 Ni3 2.480621 1_555
Ni13 Ni6 2.480621 1_555
Ni13 Ni8 2.480623 1_555
Ni13 Ni5 2.480623 1_555
Ni13 Ni4 2.480623 1_555
Ni13 Ni7 2.480623 1_555
Ni13 Pr4 2.980492 1_655
Ni13 Pr4 2.980492 1_545
Ni13 Pr4 2.980501 1_555
Ni14 Ni2 2.493645 1_445
Ni14 Ni9 2.493645 1_545
Ni14 Pr5 2.980492 1_455
Ni14 Pr5 2.980497 1_555
Ni14 Pr5 2.980497 1_445
Ni15 Ni5 2.493645 1_555
Ni15 Ni8 2.493645 1_555
Ni15 Ni6 2.493645 1_455
Ni15 Ni3 2.493645 1_455
Ni15 Ni4 2.493645 1_445
Ni15 Ni7 2.493645 1_445
Ni15 Pr4 2.980492 1_545
Ni15 Pr4 2.980497 1_445
Ni15 Pr4 2.980497 1_555
