# generated using pymatgen
data_SmTiVFe10
_symmetry_space_group_name_H-M   'P 1'
_cell_length_a   4.70177400
_cell_length_b   6.50297650
_cell_length_c   6.50297650
_cell_angle_alpha   97.88111255
_cell_angle_beta   111.19292116
_cell_angle_gamma   68.80707884
_symmetry_Int_Tables_number   1
_chemical_formula_structural   SmTiVFe10
_chemical_formula_sum   'Sm1 Ti1 V1 Fe10'
_cell_volume   172.84204733
_cell_formula_units_Z   1
loop_
 _symmetry_equiv_pos_site_id
 _symmetry_equiv_pos_as_xyz
  1  'x, y, z'
loop_
 _atom_site_type_symbol
 _atom_site_label
 _atom_site_symmetry_multiplicity
 _atom_site_fract_x
 _atom_site_fract_y
 _atom_site_fract_z
 _atom_site_occupancy
  Sm  Sm0  1  0.00052700  0.99947300  0.00052700  1
  Ti  Ti0  1  0.64135000  0.35865000  0.64135000  1
  V  V0  1  0.35056400  0.64943600  0.35056400  1
  Fe  Fe0  1  0.73071900  0.76928100  0.23071900  1
  Fe  Fe1  1  0.27366800  0.22633200  0.77366800  1
  Fe  Fe2  1  0.49950000  0.77354100  0.77254100  1
  Fe  Fe3  1  0.49950000  0.22745900  0.22645900  1
  Fe  Fe4  1  0.49988400  0.99798900  0.49875300  1
  Fe  Fe5  1  0.00087900  0.99798900  0.49875300  1
  Fe  Fe6  1  0.49988400  0.50124700  0.00201100  1
  Fe  Fe7  1  0.00087900  0.50124700  0.00201100  1
  Fe  Fe8  1  0.00132200  0.35766000  0.36030500  1
  Fe  Fe9  1  0.00132200  0.63969500  0.64234000  1
loop_
_geom_bond_atom_site_label_1
_geom_bond_atom_site_label_2
_geom_bond_distance
_geom_bond_site_symmetry_2
Sm0 V0 3.012512 1_555
Sm0 Ti0 3.091173 1_464
Ti0 V0 2.502582 1_555
Fe0 Fe5 2.432658 1_655
Fe0 Fe7 2.432658 1_655
Fe0 Fe6 2.432660 1_555
Fe0 Fe4 2.432660 1_555
Fe0 V0 2.567195 1_655
Fe0 V0 2.567195 1_555
Fe0 Fe8 2.622020 1_655
Fe0 Fe9 2.622020 1_655
Fe0 Fe2 2.778322 1_554
Fe0 Fe3 2.778322 1_565
Fe0 Sm0 3.074313 1_655
Fe0 Sm0 3.074313 1_555
Fe1 Fe4 2.457079 1_545
Fe1 Fe6 2.457079 1_556
Fe1 Fe5 2.457081 1_545
Fe1 Fe7 2.457081 1_556
Fe1 Ti0 2.612174 1_455
Fe1 Ti0 2.612174 1_555
Fe1 Fe8 2.635345 1_555
Fe1 Fe9 2.635345 1_555
Fe1 Fe2 2.745307 1_545
Fe1 Fe3 2.745307 1_556
Fe1 Sm0 3.055907 1_546
Fe1 Sm0 3.055907 1_646
Fe2 Fe4 2.453002 1_555
Fe2 Fe5 2.453004 1_555
Fe2 Fe7 2.466290 1_656
Fe2 Fe6 2.466292 1_556
Fe2 Fe9 2.607483 1_655
Fe2 Fe9 2.607487 1_555
Fe2 Ti0 2.632705 1_555
Fe2 V0 2.661532 1_555
Fe2 Sm0 3.047293 1_656
Fe2 Sm0 3.047293 1_556
Fe3 Fe6 2.453002 1_555
Fe3 Fe7 2.453004 1_555
Fe3 Fe5 2.466290 1_645
Fe3 Fe4 2.466292 1_545
Fe3 Fe8 2.607483 1_655
Fe3 Fe8 2.607487 1_555
Fe3 Ti0 2.632705 1_555
Fe3 V0 2.661532 1_555
Fe3 Sm0 3.047293 1_645
Fe3 Sm0 3.047293 1_545
Fe4 Fe5 2.346209 1_555
Fe4 Fe5 2.355565 1_655
Fe4 V0 2.573240 1_555
Fe4 Fe8 2.619839 1_565
Fe4 Ti0 2.624614 1_565
Fe4 Fe9 2.625336 1_655
Fe4 Sm0 3.240688 1_555
Fe4 Sm0 3.262314 1_656
Fe5 V0 2.573243 1_555
Fe5 Fe8 2.619839 1_565
Fe5 Ti0 2.624612 1_465
Fe5 Fe9 2.625336 1_555
Fe5 Sm0 3.240690 1_555
Fe5 Sm0 3.262312 1_556
Fe6 Fe7 2.346209 1_555
Fe6 Fe7 2.355565 1_655
Fe6 V0 2.573240 1_555
Fe6 Fe9 2.619839 1_554
Fe6 Ti0 2.624614 1_554
Fe6 Fe8 2.625336 1_655
Fe6 Sm0 3.240688 1_555
Fe6 Sm0 3.262314 1_645
Fe7 V0 2.573243 1_555
Fe7 Fe9 2.619839 1_554
Fe7 Ti0 2.624612 1_454
Fe7 Fe8 2.625336 1_555
Fe7 Sm0 3.240690 1_555
Fe7 Sm0 3.262312 1_545
Fe8 Fe9 2.409383 1_555
Fe8 Ti0 2.903488 1_455
Fe8 Ti0 2.903491 1_555
Fe8 V0 2.943019 1_455
Fe8 V0 2.943023 1_555
Fe8 Sm0 3.066742 1_545
Fe9 Ti0 2.903488 1_455
Fe9 Ti0 2.903491 1_555
Fe9 V0 2.943019 1_455
Fe9 V0 2.943023 1_555
Fe9 Sm0 3.066742 1_556
