# generated using pymatgen
data_Mg6CuSn
_symmetry_space_group_name_H-M   'P 1'
_cell_length_a   4.94019000
_cell_length_b   6.33607100
_cell_length_c   10.75957300
_cell_angle_alpha   90.00000000
_cell_angle_beta   90.00000000
_cell_angle_gamma   90.00000000
_symmetry_Int_Tables_number   1
_chemical_formula_structural   Mg6CuSn
_chemical_formula_sum   'Mg12 Cu2 Sn2'
_cell_volume   336.78964013
_cell_formula_units_Z   2
loop_
 _symmetry_equiv_pos_site_id
 _symmetry_equiv_pos_as_xyz
  1  'x, y, z'
loop_
 _atom_site_type_symbol
 _atom_site_label
 _atom_site_symmetry_multiplicity
 _atom_site_fract_x
 _atom_site_fract_y
 _atom_site_fract_z
 _atom_site_occupancy
  Mg  Mg0  1  0.50000000  0.74928100  0.08404500  1
  Mg  Mg1  1  0.50000000  0.25071900  0.08404500  1
  Mg  Mg2  1  0.00000000  0.76168100  0.91455500  1
  Mg  Mg3  1  0.00000000  0.23831900  0.91455500  1
  Mg  Mg4  1  0.00000000  0.50000000  0.17201900  1
  Mg  Mg5  1  0.00000000  0.50000000  0.66468000  1
  Mg  Mg6  1  0.50000000  0.24928100  0.58404500  1
  Mg  Mg7  1  0.50000000  0.75071900  0.58404500  1
  Mg  Mg8  1  0.00000000  0.26168100  0.41455500  1
  Mg  Mg9  1  0.00000000  0.73831900  0.41455500  1
  Mg  Mg10  1  0.00000000  0.00000000  0.67201900  1
  Mg  Mg11  1  0.00000000  0.00000000  0.16468000  1
  Cu  Cu0  1  0.50000000  0.50000000  0.33297400  1
  Cu  Cu1  1  0.50000000  0.00000000  0.83297400  1
  Sn  Sn0  1  0.50000000  0.50000000  0.83312900  1
  Sn  Sn1  1  0.50000000  0.00000000  0.33312900  1
loop_
_geom_bond_atom_site_label_1
_geom_bond_atom_site_label_2
_geom_bond_distance
_geom_bond_site_symmetry_2
Mg0 Mg11 3.062297 1_665
Mg0 Mg11 3.062297 1_565
Mg0 Mg2 3.071352 1_654
Mg0 Mg2 3.071352 1_554
Mg0 Mg4 3.080917 1_655
Mg0 Mg4 3.080917 1_555
Mg0 Sn1 3.115472 1_565
Mg0 Sn0 3.127834 1_554
Mg0 Mg1 3.158924 1_555
Mg0 Mg1 3.177147 1_565
Mg1 Mg11 3.062297 1_555
Mg1 Mg11 3.062297 1_655
Mg1 Mg3 3.071352 1_654
Mg1 Mg3 3.071352 1_554
Mg1 Mg4 3.080917 1_655
Mg1 Mg4 3.080917 1_555
Mg1 Sn1 3.115472 1_555
Mg1 Sn0 3.127834 1_554
Mg2 Sn0 3.101290 1_555
Mg2 Sn0 3.101290 1_455
Mg3 Sn0 3.101290 1_455
Mg3 Sn0 3.101290 1_555
Mg5 Mg6 3.062297 1_555
Mg5 Mg7 3.062297 1_455
Mg5 Mg7 3.062297 1_555
Mg5 Mg6 3.062297 1_455
Mg5 Sn0 3.063708 1_555
Mg5 Sn0 3.063708 1_455
Mg6 Mg8 3.071352 1_555
Mg6 Mg8 3.071352 1_655
Mg6 Sn0 3.115472 1_555
Mg6 Sn1 3.127834 1_555
Mg6 Mg7 3.158924 1_545
Mg6 Mg7 3.177147 1_555
Mg7 Mg9 3.071352 1_655
Mg7 Mg9 3.071352 1_555
Mg7 Sn0 3.115472 1_555
Mg7 Sn1 3.127834 1_565
Mg8 Sn1 3.101290 1_555
Mg8 Sn1 3.101290 1_455
Mg9 Sn1 3.101290 1_465
Mg9 Sn1 3.101290 1_565
Mg10 Mg6 3.080917 1_555
Mg10 Mg7 3.080917 1_545
Mg10 Mg7 3.080917 1_445
Mg10 Mg6 3.080917 1_455
Mg11 Sn1 3.063708 1_555
Mg11 Sn1 3.063708 1_455
Cu0 Mg4 3.016708 1_555
Cu0 Mg4 3.016708 1_655
Cu0 Mg9 3.025224 1_555
Cu0 Mg9 3.025224 1_655
Cu0 Mg8 3.025224 1_555
Cu0 Mg8 3.025224 1_655
Cu0 Mg0 3.109399 1_555
Cu0 Mg1 3.109399 1_555
Cu0 Mg6 3.133882 1_555
Cu0 Mg7 3.133882 1_555
Cu0 Sn1 3.168036 1_555
Cu0 Sn1 3.168036 1_565
Cu1 Mg10 3.016708 1_555
Cu1 Mg10 3.016708 1_655
Cu1 Mg2 3.025224 1_645
Cu1 Mg2 3.025224 1_545
Cu1 Mg3 3.025224 1_555
Cu1 Mg3 3.025224 1_655
Cu1 Mg7 3.109399 1_545
Cu1 Mg6 3.109399 1_555
Cu1 Mg1 3.133882 1_556
Cu1 Mg0 3.133882 1_546
Cu1 Sn0 3.168036 1_555
Cu1 Sn0 3.168036 1_545
