# generated using pymatgen
data_CeMg
_symmetry_space_group_name_H-M   'P 1'
_cell_length_a   12.59863513
_cell_length_b   12.59863513
_cell_length_c   12.59863408
_cell_angle_alpha   28.18668449
_cell_angle_beta   28.18668449
_cell_angle_gamma   28.18668362
_symmetry_Int_Tables_number   1
_chemical_formula_structural   CeMg
_chemical_formula_sum   'Ce8 Mg8'
_cell_volume   394.16987383
_cell_formula_units_Z   8
loop_
 _symmetry_equiv_pos_site_id
 _symmetry_equiv_pos_as_xyz
  1  'x, y, z'
loop_
 _atom_site_type_symbol
 _atom_site_label
 _atom_site_symmetry_multiplicity
 _atom_site_fract_x
 _atom_site_fract_y
 _atom_site_fract_z
 _atom_site_occupancy
  Ce  Ce0_0  1  0.00000000  0.00000000  0.00000000  1
  Ce  Ce0_1  1  0.00000000  0.00000000  0.50000000  1
  Ce  Ce0_2  1  0.00000000  0.50000000  0.00000000  1
  Ce  Ce0_3  1  0.00000000  0.50000000  0.50000000  1
  Ce  Ce0_4  1  0.50000000  0.00000000  0.00000000  1
  Ce  Ce0_5  1  0.50000000  0.00000000  0.50000000  1
  Ce  Ce0_6  1  0.50000000  0.50000000  0.00000000  1
  Ce  Ce0_7  1  0.50000000  0.50000000  0.50000000  1
  Mg  Mg0_0  1  0.25000000  0.25000000  0.25000000  1
  Mg  Mg0_1  1  0.25000000  0.25000000  0.75000000  1
  Mg  Mg0_2  1  0.25000000  0.75000000  0.25000000  1
  Mg  Mg0_3  1  0.25000000  0.75000000  0.75000000  1
  Mg  Mg0_4  1  0.75000000  0.25000000  0.25000000  1
  Mg  Mg0_5  1  0.75000000  0.25000000  0.75000000  1
  Mg  Mg0_6  1  0.75000000  0.75000000  0.25000000  1
  Mg  Mg0_7  1  0.75000000  0.75000000  0.75000000  1
loop_
_geom_bond_atom_site_label_1
_geom_bond_atom_site_label_2
_geom_bond_distance
_geom_bond_site_symmetry_2
Ce0_0 Ce0_5 3.067797 1_455
Ce0_0 Ce0_3 3.067797 1_545
Ce0_0 Ce0_5 3.067797 1_554
Ce0_0 Ce0_3 3.067797 1_554
Ce0_0 Ce0_6 3.067797 1_545
Ce0_0 Ce0_6 3.067797 1_455
Ce0_0 Mg0_5 3.503312 1_454
Ce0_0 Mg0_3 3.503312 1_544
Ce0_0 Mg0_4 3.503312 1_455
Ce0_0 Mg0_2 3.503312 1_545
Ce0_0 Mg0_6 3.503312 1_445
Ce0_0 Mg0_1 3.503312 1_554
Ce0_1 Ce0_2 3.067797 1_546
Ce0_1 Ce0_2 3.067797 1_555
Ce0_1 Ce0_4 3.067797 1_555
Ce0_1 Ce0_4 3.067797 1_456
Ce0_1 Ce0_7 3.067797 1_545
Ce0_1 Ce0_7 3.067797 1_455
Ce0_1 Mg0_2 3.503312 1_545
Ce0_1 Mg0_4 3.503312 1_455
Ce0_1 Mg0_5 3.503312 1_455
Ce0_1 Mg0_3 3.503312 1_545
Ce0_1 Mg0_7 3.503312 1_445
Ce0_1 Mg0_0 3.503312 1_555
Ce0_2 Ce0_7 3.067797 1_554
Ce0_2 Ce0_7 3.067797 1_455
Ce0_2 Ce0_4 3.067797 1_555
Ce0_2 Ce0_4 3.067797 1_465
Ce0_2 Mg0_7 3.503312 1_454
Ce0_2 Mg0_0 3.503312 1_555
Ce0_2 Mg0_1 3.503312 1_554
Ce0_2 Mg0_6 3.503312 1_455
Ce0_2 Mg0_4 3.503312 1_455
Ce0_2 Mg0_3 3.503312 1_554
Ce0_3 Ce0_6 3.067797 1_555
Ce0_3 Ce0_6 3.067797 1_456
Ce0_3 Ce0_5 3.067797 1_555
Ce0_3 Ce0_5 3.067797 1_465
Ce0_3 Mg0_0 3.503312 1_555
Ce0_3 Mg0_6 3.503312 1_455
Ce0_3 Mg0_1 3.503312 1_555
Ce0_3 Mg0_7 3.503312 1_455
Ce0_3 Mg0_5 3.503312 1_455
Ce0_3 Mg0_2 3.503312 1_555
Ce0_4 Ce0_7 3.067797 1_554
Ce0_4 Ce0_7 3.067797 1_545
Ce0_4 Mg0_7 3.503312 1_544
Ce0_4 Mg0_6 3.503312 1_545
Ce0_4 Mg0_0 3.503312 1_555
Ce0_4 Mg0_1 3.503312 1_554
Ce0_4 Mg0_2 3.503312 1_545
Ce0_4 Mg0_5 3.503312 1_554
Ce0_5 Ce0_6 3.067797 1_546
Ce0_5 Ce0_6 3.067797 1_555
Ce0_5 Mg0_0 3.503312 1_555
Ce0_5 Mg0_6 3.503312 1_545
Ce0_5 Mg0_1 3.503312 1_555
Ce0_5 Mg0_7 3.503312 1_545
Ce0_5 Mg0_3 3.503312 1_545
Ce0_5 Mg0_4 3.503312 1_555
Ce0_6 Mg0_5 3.503312 1_554
Ce0_6 Mg0_3 3.503312 1_554
Ce0_6 Mg0_4 3.503312 1_555
Ce0_6 Mg0_2 3.503312 1_555
Ce0_6 Mg0_0 3.503312 1_555
Ce0_6 Mg0_7 3.503312 1_554
Ce0_7 Mg0_4 3.503312 1_555
Ce0_7 Mg0_2 3.503312 1_555
Ce0_7 Mg0_5 3.503312 1_555
Ce0_7 Mg0_3 3.503312 1_555
Ce0_7 Mg0_6 3.503312 1_555
Ce0_7 Mg0_1 3.503312 1_555
Mg0_0 Mg0_5 3.067797 1_455
Mg0_0 Mg0_3 3.067797 1_545
Mg0_0 Mg0_5 3.067797 1_554
Mg0_0 Mg0_3 3.067797 1_554
Mg0_0 Mg0_6 3.067797 1_455
Mg0_0 Mg0_6 3.067797 1_545
Mg0_1 Mg0_2 3.067797 1_555
Mg0_1 Mg0_4 3.067797 1_555
Mg0_1 Mg0_4 3.067797 1_456
Mg0_1 Mg0_2 3.067797 1_546
Mg0_1 Mg0_7 3.067797 1_455
Mg0_1 Mg0_7 3.067797 1_545
Mg0_2 Mg0_7 3.067797 1_455
Mg0_2 Mg0_7 3.067797 1_554
Mg0_2 Mg0_4 3.067797 1_465
Mg0_2 Mg0_4 3.067797 1_555
Mg0_3 Mg0_6 3.067797 1_555
Mg0_3 Mg0_6 3.067797 1_456
Mg0_3 Mg0_5 3.067797 1_555
Mg0_3 Mg0_5 3.067797 1_465
Mg0_4 Mg0_7 3.067797 1_545
Mg0_4 Mg0_7 3.067797 1_554
Mg0_5 Mg0_6 3.067797 1_555
Mg0_5 Mg0_6 3.067797 1_546
