# generated using pymatgen
data_Sm2Co17
_symmetry_space_group_name_H-M   'P 1'
_cell_length_a   8.00137760
_cell_length_b   8.25503650
_cell_length_c   8.25503198
_cell_angle_alpha   119.99403164
_cell_angle_beta   89.99977644
_cell_angle_gamma   90.00012602
_symmetry_Int_Tables_number   1
_chemical_formula_structural   Sm2Co17
_chemical_formula_sum   'Sm4 Co34'
_cell_volume   472.23619565
_cell_formula_units_Z   2
loop_
 _symmetry_equiv_pos_site_id
 _symmetry_equiv_pos_as_xyz
  1  'x, y, z'
loop_
 _atom_site_type_symbol
 _atom_site_label
 _atom_site_symmetry_multiplicity
 _atom_site_fract_x
 _atom_site_fract_y
 _atom_site_fract_z
 _atom_site_occupancy
  Sm  Sm0  1  0.75000041  0.00006005  0.99994386  1
  Sm  Sm1  1  0.24999953  0.99994339  0.00006086  1
  Sm  Sm2  1  0.24999498  0.66672404  0.33326783  1
  Sm  Sm3  1  0.75000503  0.33326854  0.66672533  1
  Co  Co0  1  0.60920676  0.66666192  0.33333563  1
  Co  Co1  1  0.39076474  0.33333795  0.66666118  1
  Co  Co2  1  0.10927735  0.33333764  0.66666091  1
  Co  Co3  1  0.89075137  0.66666234  0.33333601  1
  Co  Co4  1  0.49997811  0.49998279  -0.00001562  1
  Co  Co5  1  0.49997697  0.49999579  0.50001736  1
  Co  Co6  1  0.49997678  0.00002026  0.49999536  1
  Co  Co7  1  0.00002200  0.49998279  -0.00001560  1
  Co  Co8  1  0.00002302  0.49999577  0.50001735  1
  Co  Co9  1  0.00002310  0.00002029  0.49999531  1
  Co  Co10  1  0.74998853  0.66991956  0.04772704  1
  Co  Co11  1  0.74998881  0.37805743  0.33023300  1
  Co  Co12  1  0.74998853  0.95191188  0.62146374  1
  Co  Co13  1  0.74998868  0.37857981  0.04807489  1
  Co  Co14  1  0.74998850  0.95229848  0.33014453  1
  Co  Co15  1  0.74998878  0.66970319  0.62190342  1
  Co  Co16  1  0.25001171  0.33014659  0.95223744  1
  Co  Co17  1  0.25001119  0.62184380  0.66971069  1
  Co  Co18  1  0.25001151  0.04813493  0.37863217  1
  Co  Co19  1  0.25001127  0.62141132  0.95185165  1
  Co  Co20  1  0.25001120  0.04778718  0.66991889  1
  Co  Co21  1  0.25001108  0.33022672  0.37811879  1
  Co  Co22  1  0.48323146  0.83386463  0.66765093  1
  Co  Co23  1  0.48312989  0.83381758  0.16614512  1
  Co  Co24  1  0.48323125  0.33234428  0.16617196  1
  Co  Co25  1  0.51670245  0.16618222  0.33237196  1
  Co  Co26  1  0.51680392  0.16616098  0.83380395  1
  Co  Co27  1  0.51670230  0.66762307  0.83385511  1
  Co  Co28  1  0.98330200  0.16618172  0.33237302  1
  Co  Co29  1  0.98319989  0.16616076  0.83380318  1
  Co  Co30  1  0.98330160  0.66762211  0.83385455  1
  Co  Co31  1  0.01676412  0.83386500  0.66764998  1
  Co  Co32  1  0.01686633  0.83381812  0.16614598  1
  Co  Co33  1  0.01676485  0.33234508  0.16617224  1
loop_
_geom_bond_atom_site_label_1
_geom_bond_atom_site_label_2
_geom_bond_distance
_geom_bond_site_symmetry_2
Co0 Co3 2.252745 1_555
Co0 Co5 2.538266 1_555
Co0 Co4 2.538492 1_555
Co0 Co6 2.538542 1_565
Co0 Co22 2.594030 1_555
Co0 Co24 2.594050 1_555
Co0 Co23 2.594357 1_555
Co0 Co13 2.621171 1_555
Co0 Co12 2.621308 1_555
Co0 Co15 2.623799 1_555
Co0 Co11 2.623847 1_555
Co0 Co14 2.625177 1_555
Co0 Co10 2.625217 1_555
Co0 Sm2 2.874189 1_555
Co1 Co2 2.252287 1_555
Co1 Co5 2.537908 1_555
Co1 Co6 2.538220 1_555
Co1 Co4 2.538262 1_556
Co1 Co27 2.593718 1_555
Co1 Co25 2.593741 1_555
Co1 Co26 2.594066 1_555
Co1 Co18 2.620663 1_555
Co1 Co19 2.620782 1_555
Co1 Co17 2.623208 1_555
Co1 Co21 2.623255 1_555
Co1 Co16 2.624627 1_555
Co1 Co20 2.624693 1_555
Co1 Sm3 2.874417 1_555
Co2 Co8 2.538030 1_555
Co2 Co9 2.538334 1_555
Co2 Co7 2.538374 1_556
Co2 Co30 2.593833 1_455
Co2 Co28 2.593855 1_455
Co2 Co29 2.594175 1_455
Co2 Co21 2.623178 1_555
Co2 Co20 2.624628 1_555
Co2 Sm3 2.874674 1_455
Co3 Co8 2.538387 1_655
Co3 Co7 2.538605 1_655
Co3 Co9 2.538654 1_665
Co3 Co31 2.594144 1_655
Co3 Co33 2.594166 1_655
Co3 Co32 2.594467 1_655
Co3 Sm2 2.874444 1_655
Co4 Sm2 3.111043 1_555
Co4 Sm3 3.111134 1_554
Co5 Sm2 3.111947 1_555
Co5 Sm3 3.111951 1_555
Co6 Sm3 3.111088 1_555
Co6 Sm2 3.111111 1_545
Co7 Sm2 3.111000 1_555
Co7 Sm3 3.111093 1_454
Co8 Sm2 3.111885 1_555
Co8 Sm3 3.111888 1_455
Co9 Sm3 3.111036 1_455
Co9 Sm2 3.111061 1_545
Co10 Co14 2.331417 1_555
Co10 Co4 2.360550 1_555
Co10 Co7 2.360709 1_655
Co10 Co13 2.406457 1_555
Co10 Co23 2.454186 1_555
Co10 Co32 2.454323 1_655
Co10 Co27 2.562853 1_554
Co10 Co30 2.563000 1_554
Co10 Co3 2.625162 1_555
Co10 Sm0 2.942411 1_564
Co10 Sm3 2.979309 1_554
Co11 Co13 2.331383 1_555
Co11 Co5 2.359837 1_555
Co11 Co8 2.359995 1_655
Co11 Co15 2.407865 1_555
Co11 Co24 2.453860 1_555
Co11 Co33 2.453981 1_655
Co11 Co25 2.564088 1_555
Co11 Co28 2.564256 1_555
Co11 Co3 2.623777 1_555
Co11 Sm0 2.943554 1_554
Co11 Sm3 2.979844 1_555
Co12 Co15 2.331460 1_555
Co12 Co6 2.358622 1_565
Co12 Co9 2.358769 1_665
Co12 Co14 2.406446 1_555
Co12 Co22 2.454022 1_555
Co12 Co31 2.454153 1_655
Co12 Co26 2.565579 1_565
Co12 Co29 2.565736 1_565
Co12 Co3 2.621236 1_555
Co12 Sm0 2.945851 1_565
Co12 Sm3 2.978957 1_565
Co13 Co4 2.358282 1_555
Co13 Co7 2.358430 1_655
Co13 Co24 2.454360 1_555
Co13 Co33 2.454497 1_655
Co13 Co26 2.565866 1_554
Co13 Co29 2.566019 1_554
Co13 Co3 2.621111 1_555
Co13 Sm0 2.946233 1_554
Co13 Sm3 2.978732 1_554
Co14 Co6 2.360216 1_565
Co14 Co9 2.360379 1_665
Co14 Co23 2.454547 1_555
Co14 Co32 2.454673 1_655
Co14 Co25 2.563110 1_565
Co14 Co28 2.563258 1_565
Co14 Co3 2.625115 1_555
Co14 Sm0 2.942797 1_564
Co14 Sm3 2.978921 1_565
Co15 Co5 2.359543 1_555
Co15 Co8 2.359694 1_655
Co15 Co22 2.454216 1_555
Co15 Co31 2.454341 1_655
Co15 Co27 2.564350 1_555
Co15 Co30 2.564513 1_555
Co15 Co3 2.623723 1_555
Co15 Sm0 2.943987 1_565
Co15 Sm3 2.979533 1_555
Co16 Co20 2.330928 1_555
Co16 Co4 2.359823 1_556
Co16 Co7 2.359984 1_556
Co16 Co19 2.405995 1_555
Co16 Co26 2.453994 1_555
Co16 Co29 2.454133 1_455
Co16 Co24 2.563094 1_556
Co16 Co33 2.563243 1_556
Co16 Co2 2.624571 1_555
Co16 Sm1 2.943124 1_546
Co16 Sm2 2.979203 1_556
Co17 Co19 2.330869 1_555
Co17 Co5 2.359142 1_555
Co17 Co8 2.359300 1_555
Co17 Co21 2.407422 1_555
Co17 Co27 2.453658 1_555
Co17 Co30 2.453778 1_455
Co17 Co22 2.564300 1_555
Co17 Co31 2.564467 1_555
Co17 Co2 2.623138 1_555
Co17 Sm1 2.944258 1_556
Co17 Sm2 2.979883 1_555
Co18 Co21 2.330800 1_555
Co18 Co6 2.357884 1_555
Co18 Co9 2.358032 1_555
Co18 Co20 2.406018 1_555
Co18 Co25 2.453775 1_555
Co18 Co28 2.453906 1_455
Co18 Co23 2.565800 1_545
Co18 Co32 2.565956 1_545
Co18 Co2 2.620591 1_555
Co18 Sm1 2.946457 1_545
Co18 Sm2 2.979060 1_545
Co19 Co4 2.358225 1_556
Co19 Co7 2.358371 1_556
Co19 Co27 2.453434 1_555
Co19 Co30 2.453571 1_455
Co19 Co23 2.565511 1_556
Co19 Co32 2.565664 1_556
Co19 Co2 2.620720 1_555
Co19 Sm1 2.946079 1_556
Co19 Sm2 2.979274 1_556
Co20 Co6 2.360161 1_555
Co20 Co9 2.360322 1_555
Co20 Co26 2.453648 1_555
Co20 Co29 2.453769 1_455
Co20 Co22 2.562833 1_545
Co20 Co31 2.562979 1_545
Co20 Sm1 2.942721 1_546
Co20 Sm2 2.979609 1_545
Co21 Co5 2.359439 1_555
Co21 Co8 2.359588 1_555
Co21 Co25 2.453299 1_555
Co21 Co28 2.453422 1_455
Co21 Co24 2.564044 1_555
Co21 Co33 2.564206 1_555
Co21 Sm1 2.943833 1_545
Co21 Sm2 2.980189 1_555
Co22 Co6 2.390134 1_565
Co22 Co5 2.390761 1_555
Co22 Co26 2.390892 1_565
Co22 Co27 2.391649 1_555
Co22 Sm1 3.021695 1_556
Co22 Sm2 3.032835 1_555
Co22 Sm0 3.193789 1_565
Co23 Co4 2.390564 1_555
Co23 Co6 2.390672 1_565
Co23 Co27 2.390845 1_554
Co23 Co25 2.391377 1_565
Co23 Sm1 3.019912 1_555
Co23 Sm2 3.031215 1_555
Co23 Sm0 3.194964 1_564
Co24 Co4 2.390240 1_555
Co24 Co5 2.390593 1_555
Co24 Co25 2.391055 1_555
Co24 Co26 2.391399 1_554
Co24 Sm1 3.021649 1_545
Co24 Sm2 3.032812 1_555
Co24 Sm0 3.193740 1_554
Co25 Co6 2.389940 1_555
Co25 Co5 2.390358 1_555
Co25 Sm0 3.022124 1_554
Co25 Sm3 3.032993 1_555
Co25 Sm1 3.193532 1_545
Co26 Co6 2.390367 1_555
Co26 Co4 2.390461 1_556
Co26 Sm0 3.020411 1_555
Co26 Sm3 3.031372 1_555
Co26 Sm1 3.194774 1_546
Co27 Co4 2.389827 1_556
Co27 Co5 2.390529 1_555
Co27 Sm0 3.022180 1_565
Co27 Sm3 3.032997 1_555
Co27 Sm1 3.193577 1_556
Co28 Co9 2.389927 1_655
Co28 Co8 2.390359 1_655
Co28 Co33 2.391060 1_655
Co28 Co32 2.391362 1_645
Co28 Sm0 3.022157 1_554
Co28 Sm3 3.032950 1_555
Co28 Sm1 3.193499 1_645
Co29 Co9 2.390359 1_655
Co29 Co7 2.390460 1_656
Co29 Co31 2.390880 1_645
Co29 Co33 2.391401 1_656
Co29 Sm0 3.020419 1_555
Co29 Sm3 3.031348 1_555
Co29 Sm1 3.194763 1_646
Co30 Co7 2.389824 1_656
Co30 Co8 2.390523 1_655
Co30 Co32 2.390849 1_656
Co30 Co31 2.391652 1_655
Co30 Sm0 3.022201 1_565
Co30 Sm3 3.032960 1_555
Co30 Sm1 3.193555 1_656
Co31 Co9 2.390124 1_565
Co31 Co8 2.390762 1_555
Co31 Sm1 3.021728 1_556
Co31 Sm2 3.032793 1_555
Co31 Sm0 3.193755 1_465
Co32 Co7 2.390566 1_555
Co32 Co9 2.390663 1_565
Co32 Sm1 3.019917 1_555
Co32 Sm2 3.031193 1_555
Co32 Sm0 3.194952 1_464
Co33 Co7 2.390235 1_555
Co33 Co8 2.390589 1_555
Co33 Sm1 3.021669 1_545
Co33 Sm2 3.032776 1_555
Co33 Sm0 3.193718 1_454
