# generated using pymatgen
data_Tb(BRu)4
_symmetry_space_group_name_H-M   'P 1'
_cell_length_a   9.16859722
_cell_length_b   9.16859722
_cell_length_c   9.16859722
_cell_angle_alpha   132.02372329
_cell_angle_beta   132.02372329
_cell_angle_gamma   70.19156111
_symmetry_Int_Tables_number   1
_chemical_formula_structural   Tb(BRu)4
_chemical_formula_sum   'Tb4 B16 Ru16'
_cell_volume   416.91406020
_cell_formula_units_Z   4
loop_
 _symmetry_equiv_pos_site_id
 _symmetry_equiv_pos_as_xyz
  1  'x, y, z'
loop_
 _atom_site_type_symbol
 _atom_site_label
 _atom_site_symmetry_multiplicity
 _atom_site_fract_x
 _atom_site_fract_y
 _atom_site_fract_z
 _atom_site_occupancy
  Tb  Tb0  1  0.25000000  0.25000000  0.00000000  1
  Tb  Tb1  1  0.75000000  0.75000000  0.00000000  1
  Tb  Tb2  1  0.50000000  0.00000000  0.50000000  1
  Tb  Tb3  1  0.00000000  0.50000000  0.50000000  1
  B  B0  1  0.22285064  0.91432103  0.97436817  1
  B  B1  1  0.72285064  0.74848248  0.30852961  1
  B  B2  1  0.16432103  0.97285064  0.47436817  1
  B  B3  1  0.66432103  0.18995286  0.19147039  1
  B  B4  1  0.52714936  0.33567897  0.52563183  1
  B  B5  1  0.02714936  0.50151752  0.19147039  1
  B  B6  1  0.58567897  0.27714936  0.02563183  1
  B  B7  1  0.08567897  0.06004714  0.30852961  1
  B  B8  1  0.43995286  0.41432103  0.69147039  1
  B  B9  1  0.93995286  0.24848248  0.02563183  1
  B  B10  1  0.99848248  0.47285064  0.80852961  1
  B  B11  1  0.49848248  0.68995286  0.52563183  1
  B  B12  1  0.31004714  0.83567897  0.80852961  1
  B  B13  1  0.81004714  0.00151752  0.47436817  1
  B  B14  1  0.75151752  0.77714936  0.69147039  1
  B  B15  1  0.25151752  0.56004714  0.97436817  1
  Ru  Ru0  1  0.54080622  0.07297048  0.23691540  1
  Ru  Ru1  1  0.04080622  0.80389082  0.46783574  1
  Ru  Ru2  1  0.32297048  0.29080622  0.73691540  1
  Ru  Ru3  1  0.82297048  0.08605508  0.03216426  1
  Ru  Ru4  1  0.20919378  0.17702952  0.26308460  1
  Ru  Ru5  1  0.70919378  0.44610918  0.03216426  1
  Ru  Ru6  1  0.42702952  0.95919378  0.76308460  1
  Ru  Ru7  1  0.92702952  0.16394492  0.46783574  1
  Ru  Ru8  1  0.33605508  0.57297048  0.53216426  1
  Ru  Ru9  1  0.83605508  0.30389082  0.76308460  1
  Ru  Ru10  1  0.05389082  0.79080622  0.96783574  1
  Ru  Ru11  1  0.55389082  0.58605508  0.26308460  1
  Ru  Ru12  1  0.41394492  0.67702952  0.96783574  1
  Ru  Ru13  1  0.91394492  0.94610918  0.73691540  1
  Ru  Ru14  1  0.69610918  0.45919378  0.53216426  1
  Ru  Ru15  1  0.19610918  0.66394492  0.23691540  1
loop_
_geom_bond_atom_site_label_1
_geom_bond_atom_site_label_2
_geom_bond_distance
_geom_bond_site_symmetry_2
B0 B12 1.799991 1_555
B0 Ru4 2.127737 1_566
B0 Ru10 2.158655 1_555
B0 Ru13 2.209244 1_455
B0 Ru12 2.277989 1_555
B0 Ru0 2.280185 1_566
B0 Tb3 2.960291 1_555
B0 Tb0 3.010312 1_566
B0 Tb2 3.191840 1_566
B1 B13 1.799991 1_565
B1 Ru5 2.127737 1_555
B1 Ru11 2.158655 1_555
B1 Ru12 2.209244 1_554
B1 Ru13 2.277989 1_555
B1 Ru1 2.280185 1_655
B1 Tb2 2.960291 1_565
B1 Tb1 3.010312 1_555
B1 Tb3 3.191840 1_655
B2 B7 1.799991 1_565
B2 Ru6 2.127737 1_555
B2 Ru1 2.158655 1_555
B2 Ru15 2.209244 1_555
B2 Ru7 2.277989 1_465
B2 Ru2 2.280185 1_565
B2 Tb1 2.960291 1_455
B2 Tb2 3.010312 1_565
B2 Tb0 3.191840 1_566
B3 B6 1.799991 1_555
B3 Ru7 2.127737 1_555
B3 Ru0 2.158655 1_555
B3 Ru14 2.209244 1_555
B3 Ru6 2.277989 1_544
B3 Ru3 2.280185 1_555
B3 Tb0 2.960291 1_555
B3 Tb3 3.010312 1_655
B3 Tb1 3.191840 1_545
B4 B8 1.799991 1_555
B4 Ru0 2.127737 1_555
B4 Ru14 2.158655 1_555
B4 Ru9 2.209244 1_555
B4 Ru8 2.277989 1_555
B4 Ru4 2.280185 1_555
B4 Tb1 2.960291 1_556
B4 Tb2 3.010312 1_555
B4 Tb0 3.191840 1_555
B5 B9 1.799991 1_455
B5 Ru1 2.127737 1_555
B5 Ru15 2.158655 1_555
B5 Ru8 2.209244 1_555
B5 Ru9 2.277989 1_454
B5 Ru5 2.280185 1_455
B5 Tb0 2.960291 1_555
B5 Tb3 3.010312 1_555
B5 Tb1 3.191840 1_455
B6 Ru2 2.127737 1_554
B6 Ru5 2.158655 1_555
B6 Ru11 2.209244 1_555
B6 Ru3 2.277989 1_555
B6 Ru6 2.280185 1_544
B6 Tb3 2.960291 1_655
B6 Tb0 3.010312 1_555
B6 Tb2 3.191840 1_554
B7 Ru3 2.127737 1_455
B7 Ru4 2.158655 1_555
B7 Ru10 2.209244 1_544
B7 Ru2 2.277989 1_555
B7 Ru7 2.280185 1_455
B7 Tb2 2.960291 1_555
B7 Tb1 3.010312 1_445
B7 Tb3 3.191840 1_555
B8 Ru12 2.127737 1_555
B8 Ru2 2.158655 1_555
B8 Ru5 2.209244 1_556
B8 Ru4 2.277989 1_555
B8 Ru8 2.280185 1_555
B8 Tb2 2.960291 1_555
B8 Tb1 3.010312 1_556
B8 Tb3 3.191840 1_555
B9 Ru13 2.127737 1_544
B9 Ru3 2.158655 1_555
B9 Ru4 2.209244 1_655
B9 Ru5 2.277989 1_555
B9 Ru9 2.280185 1_554
B9 Tb3 2.960291 1_655
B9 Tb0 3.010312 1_655
B9 Tb2 3.191840 1_554
B10 B15 1.799991 1_655
B10 Ru14 2.127737 1_555
B10 Ru9 2.158655 1_555
B10 Ru7 2.209244 1_555
B10 Ru15 2.277989 1_656
B10 Ru10 2.280185 1_655
B10 Tb0 2.960291 1_656
B10 Tb3 3.010312 1_655
B10 Tb1 3.191840 1_556
B11 B14 1.799991 1_555
B11 Ru15 2.127737 1_555
B11 Ru8 2.158655 1_555
B11 Ru6 2.209244 1_555
B11 Ru14 2.277989 1_555
B11 Ru11 2.280185 1_555
B11 Tb1 2.960291 1_556
B11 Tb2 3.010312 1_565
B11 Tb0 3.191840 1_555
B12 Ru8 2.127737 1_555
B12 Ru6 2.158655 1_555
B12 Ru1 2.209244 1_555
B12 Ru0 2.277989 1_566
B12 Ru12 2.280185 1_555
B12 Tb0 2.960291 1_566
B12 Tb3 3.010312 1_555
B12 Tb1 3.191840 1_556
B13 Ru9 2.127737 1_555
B13 Ru7 2.158655 1_555
B13 Ru0 2.209244 1_555
B13 Ru1 2.277989 1_645
B13 Ru13 2.280185 1_545
B13 Tb1 2.960291 1_545
B13 Tb2 3.010312 1_555
B13 Tb0 3.191840 1_656
B14 Ru10 2.127737 1_655
B14 Ru13 2.158655 1_555
B14 Ru3 2.209244 1_566
B14 Ru11 2.277989 1_555
B14 Ru14 2.280185 1_555
B14 Tb2 2.960291 1_565
B14 Tb1 3.010312 1_556
B14 Tb3 3.191840 1_655
B15 Ru11 2.127737 1_556
B15 Ru12 2.158655 1_555
B15 Ru2 2.209244 1_555
B15 Ru10 2.277989 1_555
B15 Ru15 2.280185 1_556
B15 Tb3 2.960291 1_555
B15 Tb0 3.010312 1_556
B15 Tb2 3.191840 1_566
Ru0 Tb0 2.914619 1_555
Ru0 Tb2 3.153490 1_555
Ru0 Tb1 3.206645 1_545
Ru1 Tb1 2.914619 1_455
Ru1 Tb3 3.153490 1_555
Ru1 Tb0 3.206645 1_566
Ru2 Tb2 2.914619 1_555
Ru2 Tb0 3.153490 1_556
Ru2 Tb3 3.206645 1_555
Ru3 Tb3 2.914619 1_655
Ru3 Tb1 3.153490 1_545
Ru3 Tb2 3.206645 1_554
Ru4 Tb2 2.914619 1_555
Ru4 Tb0 3.153490 1_555
Ru4 Tb3 3.206645 1_555
Ru5 Tb3 2.914619 1_655
Ru5 Tb1 3.153490 1_555
Ru5 Tb2 3.206645 1_554
Ru6 Tb0 2.914619 1_566
Ru6 Tb2 3.153490 1_565
Ru6 Tb1 3.206645 1_556
Ru7 Tb1 2.914619 1_545
Ru7 Tb3 3.153490 1_655
Ru7 Tb0 3.206645 1_656
Ru8 Tb1 2.914619 1_556
Ru8 Tb3 3.153490 1_555
Ru8 Tb0 3.206645 1_555
Ru9 Tb0 2.914619 1_656
Ru9 Tb2 3.153490 1_555
Ru9 Tb1 3.206645 1_556
Ru10 Tb3 2.914619 1_555
Ru10 Tb1 3.153490 1_456
Ru10 Tb2 3.206645 1_566
Ru11 Tb2 2.914619 1_565
Ru11 Tb0 3.153490 1_555
Ru11 Tb3 3.206645 1_655
Ru12 Tb3 2.914619 1_555
Ru12 Tb1 3.153490 1_556
Ru12 Tb2 3.206645 1_566
Ru13 Tb2 2.914619 1_565
Ru13 Tb0 3.153490 1_666
Ru13 Tb3 3.206645 1_655
Ru14 Tb1 2.914619 1_556
Ru14 Tb3 3.153490 1_655
Ru14 Tb0 3.206645 1_555
Ru15 Tb0 2.914619 1_555
Ru15 Tb2 3.153490 1_565
Ru15 Tb1 3.206645 1_455
