# generated using pymatgen
data_Zr2N2O
_symmetry_space_group_name_H-M   'P 1'
_cell_length_a   8.86223400
_cell_length_b   8.87573809
_cell_length_c   8.88088410
_cell_angle_alpha   109.63509887
_cell_angle_beta   109.45969275
_cell_angle_gamma   109.24776536
_symmetry_Int_Tables_number   1
_chemical_formula_structural   Zr2N2O
_chemical_formula_sum   'Zr16 N16 O8'
_cell_volume   538.21871103
_cell_formula_units_Z   8
loop_
 _symmetry_equiv_pos_site_id
 _symmetry_equiv_pos_as_xyz
  1  'x, y, z'
loop_
 _atom_site_type_symbol
 _atom_site_label
 _atom_site_symmetry_multiplicity
 _atom_site_fract_x
 _atom_site_fract_y
 _atom_site_fract_z
 _atom_site_occupancy
  Zr  Zr0  1  0.54676800  0.78538200  0.24654100  1
  Zr  Zr1  1  0.00604100  0.00673800  0.00439900  1
  Zr  Zr2  1  0.78870800  0.25735300  0.96583800  1
  Zr  Zr3  1  0.49914100  0.99841300  0.49795300  1
  Zr  Zr4  1  0.28413700  0.25008900  0.46961400  1
  Zr  Zr5  1  0.99771900  0.50659200  0.50138700  1
  Zr  Zr6  1  0.96895000  0.71469600  0.74295600  1
  Zr  Zr7  1  0.74128700  0.02552000  0.70695200  1
  Zr  Zr8  1  0.25350200  0.96857300  0.28694500  1
  Zr  Zr9  1  0.74881200  0.53615700  0.21355100  1
  Zr  Zr10  1  0.24595500  0.45931800  0.79260500  1
  Zr  Zr11  1  0.03129300  0.29187100  0.24487600  1
  Zr  Zr12  1  0.50879200  0.50965000  0.99159100  1
  Zr  Zr13  1  0.72021100  0.74890000  0.53579900  1
  Zr  Zr14  1  0.21431200  0.74725900  0.03586200  1
  Zr  Zr15  1  0.45287700  0.21100100  0.75996700  1
  N  N0  1  0.77199800  0.76439300  0.26778800  1
  N  N1  1  0.48121600  0.53116900  0.24412300  1
  N  N2  1  0.22816500  0.96925700  0.54744200  1
  N  N3  1  0.95129700  0.48775200  0.27721200  1
  N  N4  1  0.53135400  0.03885100  0.22816600  1
  N  N5  1  0.46610900  0.95639100  0.77169900  1
  N  N6  1  0.72958700  0.45519600  0.01294800  1
  N  N7  1  0.96781100  0.73666000  0.48780200  1
  N  N8  1  0.98587000  0.22516000  0.04614300  1
  N  N9  1  0.77116600  0.03322800  0.45418700  1
  N  N10  1  0.73828700  0.77363000  0.77595100  1
  N  N11  1  0.04954100  0.51146200  0.72109000  1
  N  N12  1  0.23607900  0.01158400  0.03750900  1
  N  N13  1  0.51572000  0.46556100  0.75990100  1
  N  N14  1  0.27169800  0.54414600  0.98947400  1
  N  N15  1  0.22674400  0.23408900  0.72726300  1
  O  O0  1  0.54621600  0.27168600  0.46280900  1
  O  O1  1  0.27074900  0.72512600  0.26287400  1
  O  O2  1  0.01331500  0.77136200  0.95630600  1
  O  O3  1  0.25537200  0.22450800  0.23238700  1
  O  O4  1  0.76201400  0.99035200  0.96211400  1
  O  O5  1  0.45376600  0.72751200  0.53320900  1
  O  O6  1  0.73309700  0.27239800  0.73467900  1
  O  O7  1  0.03432100  0.26101400  0.51008500  1
loop_
_geom_bond_atom_site_label_1
_geom_bond_atom_site_label_2
_geom_bond_distance
_geom_bond_site_symmetry_2
Zr2 Zr7 2.302903 1_555
Zr3 Zr7 2.194012 1_565
Zr3 Zr8 2.211107 1_555
Zr4 Zr8 2.341766 1_545
Zr13 Zr7 2.318133 1_565
Zr14 Zr8 2.245413 1_555
N0 Zr9 1.838967 1_555
N0 Zr0 2.018001 1_555
N0 Zr12 2.356516 1_554
N1 Zr0 2.126941 1_555
N1 Zr13 2.283012 1_555
N1 Zr12 2.287798 1_554
N1 Zr9 2.463238 1_555
N2 Zr15 2.022082 1_565
N2 Zr8 2.395840 1_555
N2 Zr3 2.529240 1_555
N2 Zr4 2.740054 1_565
N3 Zr5 1.829200 1_555
N3 Zr9 1.928707 1_555
N3 Zr11 2.054386 1_655
N3 Zr2 2.346676 1_554
N4 Zr0 2.353942 1_545
N4 Zr14 2.558772 1_545
N4 Zr8 2.605291 1_545
N4 Zr3 2.630018 1_545
N5 Zr15 2.335884 1_565
N5 Zr7 2.615190 1_565
N5 Zr2 2.620538 1_565
N5 Zr3 2.673325 1_555
N6 Zr9 1.604972 1_555
N6 Zr2 1.947308 1_554
N6 Zr12 2.129846 1_554
N6 Zr15 2.304596 1_554
N7 Zr9 2.127482 1_555
N7 Zr5 2.180774 1_555
N7 Zr6 2.335759 1_555
N7 Zr13 2.399510 1_555
N8 Zr11 1.514845 1_655
N8 Zr2 1.810843 1_554
N8 Zr1 1.928059 1_655
N8 O4 2.019523 1_544
N8 Zr7 2.538154 1_554
N9 Zr0 2.034847 1_545
N9 Zr7 2.366671 1_555
N9 Zr3 2.504428 1_545
N9 Zr13 2.791751 1_545
N10 O4 1.960129 1_555
N10 Zr13 2.014219 1_555
N10 Zr1 2.182192 1_666
N10 Zr6 2.353565 1_555
N10 Zr7 2.503391 1_565
N11 Zr5 1.831115 1_455
N11 Zr10 1.907770 1_555
N11 Zr6 2.123230 1_455
N11 Zr14 2.379154 1_556
N12 Zr1 1.943884 1_555
N12 O3 1.996933 1_555
N12 O2 2.050947 1_544
N12 Zr14 2.284336 1_545
N12 Zr8 2.335817 1_545
N12 Zr6 2.553308 1_444
N13 Zr12 1.987348 1_555
N13 Zr15 2.141629 1_555
N13 Zr4 2.255921 1_555
N13 Zr10 2.487788 1_555
N14 Zr10 1.553073 1_555
N14 Zr14 1.980735 1_556
N14 Zr12 2.216026 1_555
N14 Zr0 2.303158 1_556
N15 Zr10 1.814437 1_555
N15 Zr15 2.016305 1_555
N15 Zr12 2.437550 1_555
O0 Zr4 2.289687 1_555
O0 Zr3 2.466349 1_545
O0 Zr8 2.506379 1_545
O1 Zr14 2.003091 1_555
O1 Zr8 2.160343 1_555
O1 Zr3 2.209812 1_555
O1 Zr0 2.390964 1_555
O2 Zr6 1.652391 1_455
O2 Zr14 1.797832 1_556
O2 Zr1 2.014580 1_566
O2 Zr8 2.478262 1_556
O3 Zr4 1.958981 1_555
O3 Zr1 2.071498 1_555
O3 Zr11 2.279988 1_555
O3 Zr8 2.472951 1_545
O4 Zr1 2.013438 1_666
O4 Zr2 2.290337 1_565
O4 Zr7 2.345645 1_565
O4 Zr11 2.538304 1_666
O5 Zr13 2.297310 1_555
O5 Zr3 2.448156 1_555
O5 Zr7 2.462462 1_565
O6 Zr2 2.007141 1_555
O6 Zr7 2.149770 1_555
O6 Zr3 2.228895 1_545
O6 Zr15 2.464987 1_555
O7 Zr10 2.151990 1_555
O7 Zr5 2.329127 1_455
O7 Zr4 2.385028 1_555
O7 Zr11 2.453442 1_555
