# generated using pymatgen
data_Ta4PbO11
_symmetry_space_group_name_H-M   'P 1'
_cell_length_a   12.84926816
_cell_length_b   12.84926816
_cell_length_c   12.84926732
_cell_angle_alpha   28.16040917
_cell_angle_beta   28.16040917
_cell_angle_gamma   28.16040755
_symmetry_Int_Tables_number   1
_chemical_formula_structural   Ta4PbO11
_chemical_formula_sum   'Ta8 Pb2 O22'
_cell_volume   417.43462146
_cell_formula_units_Z   2
loop_
 _symmetry_equiv_pos_site_id
 _symmetry_equiv_pos_as_xyz
  1  'x, y, z'
loop_
 _atom_site_type_symbol
 _atom_site_label
 _atom_site_symmetry_multiplicity
 _atom_site_fract_x
 _atom_site_fract_y
 _atom_site_fract_z
 _atom_site_occupancy
  Ta  Ta0  1  0.00000000  0.63177212  0.36822788  1
  Ta  Ta1  1  0.36822788  -0.00000000  0.63177212  1
  Ta  Ta2  1  0.63177212  0.36822788  -0.00000000  1
  Ta  Ta3  1  0.85696755  0.14303245  0.50000000  1
  Ta  Ta4  1  0.50000000  0.85696755  0.14303245  1
  Ta  Ta5  1  0.14303245  0.50000000  0.85696755  1
  Ta  Ta6  1  0.74950995  0.74950995  0.74950995  1
  Ta  Ta7  1  0.25049005  0.25049005  0.25049005  1
  Pb  Pb0  1  0.08182269  0.08182269  0.08182269  1
  Pb  Pb1  1  0.91817731  0.91817731  0.91817731  1
  O  O0  1  0.52529099  0.30508511  0.01299514  1
  O  O1  1  0.01299514  0.52529099  0.30508511  1
  O  O2  1  0.30508511  0.01299514  0.52529099  1
  O  O3  1  0.50168513  0.83233616  0.01083653  1
  O  O4  1  0.01083653  0.50168513  0.83233616  1
  O  O5  1  0.83233616  0.01083653  0.50168513  1
  O  O6  1  0.98700486  0.69491489  0.47470901  1
  O  O7  1  0.47470901  0.98700486  0.69491489  1
  O  O8  1  0.69491489  0.47470901  0.98700486  1
  O  O9  1  0.98916347  0.16766384  0.49831487  1
  O  O10  1  0.49831487  0.98916347  0.16766384  1
  O  O11  1  0.16766384  0.49831487  0.98916347  1
  O  O12  1  -0.00000000  0.24925491  0.75074509  1
  O  O13  1  0.75074509  0.00000000  0.24925491  1
  O  O14  1  0.24925491  0.75074509  -0.00000000  1
  O  O15  1  0.25589962  0.74410038  0.50000000  1
  O  O16  1  0.50000000  0.25589962  0.74410038  1
  O  O17  1  0.74410038  0.50000000  0.25589962  1
  O  O18  1  0.15611620  0.15611620  0.15611620  1
  O  O19  1  0.65653269  0.65653269  0.65653269  1
  O  O20  1  0.84388380  0.84388380  0.84388380  1
  O  O21  1  0.34346731  0.34346731  0.34346731  1
loop_
_geom_bond_atom_site_label_1
_geom_bond_atom_site_label_2
_geom_bond_distance
_geom_bond_site_symmetry_2
O0 Ta7 1.966157 1_555
O0 Ta2 1.968191 1_555
O0 Pb1 2.695705 1_544
O1 Ta7 1.966157 1_555
O1 Ta0 1.968191 1_555
O1 Pb1 2.695705 1_454
O2 Ta7 1.966157 1_555
O2 Ta1 1.968191 1_555
O2 Pb1 2.695706 1_445
O3 Ta4 1.963913 1_555
O3 Ta6 2.004914 1_554
O3 Pb0 2.489580 1_565
O4 Ta5 1.963913 1_555
O4 Ta6 2.004914 1_455
O4 Pb0 2.489580 1_556
O5 Ta3 1.963913 1_555
O5 Ta6 2.004914 1_545
O5 Pb0 2.489580 1_655
O6 Ta6 1.966157 1_555
O6 Ta0 1.968191 1_655
O6 Pb0 2.695706 1_665
O7 Ta6 1.966157 1_555
O7 Ta1 1.968191 1_565
O7 Pb0 2.695705 1_566
O8 Ta6 1.966157 1_555
O8 Ta2 1.968191 1_556
O8 Pb0 2.695705 1_656
O9 Ta3 1.963913 1_555
O9 Ta7 2.004914 1_655
O9 Pb1 2.489580 1_545
O10 Ta4 1.963913 1_555
O10 Ta7 2.004914 1_565
O10 Pb1 2.489580 1_554
O11 Ta5 1.963913 1_555
O11 Ta7 2.004914 1_556
O11 Pb1 2.489580 1_455
O12 Ta1 2.034880 1_555
O12 Ta2 2.034880 1_456
O12 Ta0 2.391474 1_555
O13 Ta0 2.034880 1_645
O13 Ta2 2.034880 1_555
O13 Ta1 2.391474 1_555
O14 Ta0 2.034880 1_555
O14 Ta1 2.034880 1_564
O14 Ta2 2.391474 1_555
O15 Ta5 1.975799 1_555
O15 Ta4 1.975799 1_555
O16 Ta5 1.975799 1_555
O16 Ta3 1.975799 1_555
O17 Ta4 1.975799 1_555
O17 Ta3 1.975799 1_555
O18 Ta3 2.051639 1_455
O18 Ta4 2.051639 1_545
O18 Ta5 2.051639 1_554
O18 Pb0 2.748532 1_555
O19 Ta2 2.019030 1_556
O19 Ta1 2.019030 1_565
O19 Ta0 2.019030 1_655
O20 Ta3 2.051639 1_565
O20 Ta5 2.051639 1_655
O20 Ta4 2.051639 1_556
O20 Pb1 2.748532 1_555
O21 Ta2 2.019030 1_555
O21 Ta0 2.019030 1_555
O21 Ta1 2.019030 1_555
