# generated using pymatgen
data_Mg6VB
_symmetry_space_group_name_H-M   'P 1'
_cell_length_a   4.75484600
_cell_length_b   5.76191100
_cell_length_c   10.89091300
_cell_angle_alpha   90.00000000
_cell_angle_beta   90.00000000
_cell_angle_gamma   90.00000000
_symmetry_Int_Tables_number   1
_chemical_formula_structural   Mg6VB
_chemical_formula_sum   'Mg12 V2 B2'
_cell_volume   298.37833770
_cell_formula_units_Z   2
loop_
 _symmetry_equiv_pos_site_id
 _symmetry_equiv_pos_as_xyz
  1  'x, y, z'
loop_
 _atom_site_type_symbol
 _atom_site_label
 _atom_site_symmetry_multiplicity
 _atom_site_fract_x
 _atom_site_fract_y
 _atom_site_fract_z
 _atom_site_occupancy
  Mg  Mg0  1  0.50000000  0.24827700  0.42819800  1
  Mg  Mg1  1  0.50000000  0.75172300  0.42819800  1
  Mg  Mg2  1  0.00000000  0.74981000  0.08427600  1
  Mg  Mg3  1  0.00000000  0.25019000  0.08427600  1
  Mg  Mg4  1  0.00000000  0.00000000  0.32776000  1
  Mg  Mg5  1  0.00000000  0.50000000  0.31328000  1
  Mg  Mg6  1  0.50000000  0.74827700  0.92819800  1
  Mg  Mg7  1  0.50000000  0.25172300  0.92819800  1
  Mg  Mg8  1  0.00000000  0.24981000  0.58427600  1
  Mg  Mg9  1  0.00000000  0.75019000  0.58427600  1
  Mg  Mg10  1  0.00000000  0.50000000  0.82776000  1
  Mg  Mg11  1  0.00000000  0.00000000  0.81328000  1
  V  V0  1  0.50000000  0.00000000  0.17677500  1
  V  V1  1  0.50000000  0.50000000  0.67677500  1
  B  B0  1  0.50000000  0.50000000  0.15723300  1
  B  B1  1  0.50000000  0.00000000  0.65723300  1
loop_
_geom_bond_atom_site_label_1
_geom_bond_atom_site_label_2
_geom_bond_distance
_geom_bond_site_symmetry_2
Mg0 Mg1 2.861100 1_545
Mg0 Mg1 2.900811 1_555
Mg0 Mg8 2.922610 1_555
Mg0 Mg8 2.922610 1_655
Mg0 Mg4 2.982473 1_655
Mg0 Mg4 2.982473 1_555
Mg0 Mg5 3.053232 1_555
Mg0 Mg5 3.053232 1_655
Mg0 V1 3.071282 1_555
Mg0 V0 3.089394 1_555
Mg1 Mg9 2.922610 1_555
Mg1 Mg9 2.922610 1_655
Mg1 Mg4 2.982473 1_665
Mg1 Mg4 2.982473 1_565
Mg1 Mg5 3.053232 1_555
Mg1 Mg5 3.053232 1_655
Mg1 V1 3.071282 1_555
Mg1 V0 3.089394 1_565
Mg2 Mg3 2.878766 1_555
Mg2 Mg5 2.879613 1_555
Mg2 Mg3 2.883145 1_565
Mg2 Mg6 2.922610 1_554
Mg2 Mg6 2.922610 1_454
Mg2 V0 2.957215 1_465
Mg2 V0 2.957215 1_565
Mg2 Mg4 3.018274 1_565
Mg3 Mg5 2.879613 1_555
Mg3 Mg7 2.922610 1_554
Mg3 Mg7 2.922610 1_454
Mg3 V0 2.957215 1_455
Mg3 V0 2.957215 1_555
Mg3 Mg4 3.018274 1_555
Mg4 Mg5 2.885268 1_545
Mg4 Mg5 2.885268 1_555
Mg4 V0 2.890688 1_455
Mg4 V0 2.890688 1_555
Mg4 Mg9 3.142697 1_545
Mg4 Mg8 3.142697 1_555
Mg5 Mg8 3.284640 1_555
Mg5 Mg9 3.284640 1_555
Mg6 Mg7 2.861100 1_555
Mg6 Mg7 2.900811 1_565
Mg6 V0 3.071282 1_566
Mg6 V1 3.089394 1_555
Mg7 V0 3.071282 1_556
Mg7 V1 3.089394 1_555
Mg8 Mg9 2.878766 1_545
Mg8 Mg9 2.883145 1_555
Mg8 V1 2.957215 1_455
Mg8 V1 2.957215 1_555
Mg9 V1 2.957215 1_455
Mg9 V1 2.957215 1_555
Mg10 Mg11 2.885268 1_555
Mg10 Mg11 2.885268 1_565
Mg10 V1 2.890688 1_455
Mg10 V1 2.890688 1_555
Mg10 Mg7 2.982473 1_555
Mg10 Mg6 2.982473 1_455
Mg10 Mg6 2.982473 1_555
Mg10 Mg7 2.982473 1_455
Mg10 Mg8 3.018274 1_555
Mg10 Mg9 3.018274 1_555
Mg10 Mg3 3.142697 1_556
Mg10 Mg2 3.142697 1_556
Mg11 Mg9 2.879613 1_545
Mg11 Mg8 2.879613 1_555
Mg11 Mg7 3.053232 1_455
Mg11 Mg7 3.053232 1_555
Mg11 Mg6 3.053232 1_545
Mg11 Mg6 3.053232 1_445
Mg11 Mg2 3.284640 1_546
Mg11 Mg3 3.284640 1_556
B0 Mg6 2.875501 1_554
B0 Mg7 2.875501 1_554
B0 V0 2.888806 1_555
B0 V0 2.888806 1_565
B0 Mg3 2.890554 1_555
B0 Mg3 2.890554 1_655
B0 Mg2 2.890554 1_555
B0 Mg2 2.890554 1_655
B0 Mg5 2.922400 1_555
B0 Mg5 2.922400 1_655
B1 Mg0 2.875501 1_555
B1 Mg1 2.875501 1_545
B1 V1 2.888806 1_545
B1 V1 2.888806 1_555
B1 Mg8 2.890554 1_655
B1 Mg9 2.890554 1_545
B1 Mg8 2.890554 1_555
B1 Mg9 2.890554 1_645
B1 Mg11 2.922400 1_655
B1 Mg11 2.922400 1_555
