# generated using pymatgen
data_SrCaSmBiO6
_symmetry_space_group_name_H-M   'P 1'
_cell_length_a   8.50426780
_cell_length_b   8.52524266
_cell_length_c   8.54909174
_cell_angle_alpha   90.00000000
_cell_angle_beta   90.00000000
_cell_angle_gamma   90.00000000
_symmetry_Int_Tables_number   1
_chemical_formula_structural   SrCaSmBiO6
_chemical_formula_sum   'Sr4 Ca4 Sm4 Bi4 O24'
_cell_volume   619.81724407
_cell_formula_units_Z   4
loop_
 _symmetry_equiv_pos_site_id
 _symmetry_equiv_pos_as_xyz
  1  'x, y, z'
loop_
 _atom_site_type_symbol
 _atom_site_label
 _atom_site_symmetry_multiplicity
 _atom_site_fract_x
 _atom_site_fract_y
 _atom_site_fract_z
 _atom_site_occupancy
  Sr  Sr0  1  0.00000000  0.50000000  0.50000000  1
  Sr  Sr1  1  0.50000000  -0.00000000  0.50000000  1
  Sr  Sr2  1  0.50000000  -0.00000000  -0.00000000  1
  Sr  Sr3  1  -0.00000000  0.50000000  -0.00000000  1
  Ca  Ca0  1  0.50000000  0.50000000  -0.00000000  1
  Ca  Ca1  1  0.00000000  -0.00000000  0.50000000  1
  Ca  Ca2  1  -0.00000000  0.00000000  -0.00000000  1
  Ca  Ca3  1  0.50000000  0.50000000  0.50000000  1
  Sm  Sm0  1  0.25000000  0.25000000  0.25000000  1
  Sm  Sm1  1  0.75000000  0.75000000  0.25000000  1
  Sm  Sm2  1  0.75000000  0.25000000  0.75000000  1
  Sm  Sm3  1  0.25000000  0.75000000  0.75000000  1
  Bi  Bi0  1  0.75000000  0.75000000  0.75000000  1
  Bi  Bi1  1  0.25000000  0.25000000  0.75000000  1
  Bi  Bi2  1  0.25000000  0.75000000  0.25000000  1
  Bi  Bi3  1  0.75000000  0.25000000  0.25000000  1
  O  O0  1  0.98885600  0.19845836  0.31401336  1
  O  O1  1  0.01114400  0.80154164  0.31401336  1
  O  O2  1  0.01114400  0.19845836  0.68598664  1
  O  O3  1  0.98885600  0.80154164  0.68598664  1
  O  O4  1  0.31103161  0.99055030  0.26789134  1
  O  O5  1  0.31103161  0.00944970  0.73210866  1
  O  O6  1  0.68896839  0.00944970  0.26789134  1
  O  O7  1  0.68896839  0.99055030  0.73210866  1
  O  O8  1  0.18736573  0.21209202  0.98980155  1
  O  O9  1  0.81263427  0.21209202  0.01019845  1
  O  O10  1  0.18736573  0.78790798  0.01019845  1
  O  O11  1  0.81263427  0.78790798  0.98980155  1
  O  O12  1  0.51114400  0.30154164  0.18598664  1
  O  O13  1  0.48885600  0.69845836  0.18598664  1
  O  O14  1  0.48885600  0.30154164  0.81401336  1
  O  O15  1  0.51114400  0.69845836  0.81401336  1
  O  O16  1  0.18896839  0.50944970  0.23210866  1
  O  O17  1  0.18896839  0.49055030  0.76789134  1
  O  O18  1  0.81103161  0.49055030  0.23210866  1
  O  O19  1  0.81103161  0.50944970  0.76789134  1
  O  O20  1  0.31263427  0.28790798  0.51019845  1
  O  O21  1  0.68736573  0.28790798  0.48980155  1
  O  O22  1  0.31263427  0.71209202  0.48980155  1
  O  O23  1  0.68736573  0.71209202  0.51019845  1
loop_
_geom_bond_atom_site_label_1
_geom_bond_atom_site_label_2
_geom_bond_distance
_geom_bond_site_symmetry_2
Ca0 O15 2.323721 1_554
Ca0 O14 2.323721 1_554
Ca0 O13 2.323721 1_555
Ca0 O12 2.323721 1_555
Ca1 O1 2.323721 1_545
Ca1 O3 2.323721 1_445
Ca1 O0 2.323721 1_455
Ca1 O2 2.323721 1_555
Ca2 O11 2.411619 1_444
Ca2 O10 2.411619 1_545
Ca2 O8 2.411619 1_554
Ca2 O9 2.411619 1_455
Ca3 O21 2.411619 1_555
Ca3 O20 2.411619 1_555
Ca3 O22 2.411619 1_555
Ca3 O23 2.411619 1_555
Bi0 O7 2.120934 1_555
Bi0 O19 2.120934 1_555
Bi0 O23 2.142666 1_555
Bi0 O11 2.142666 1_555
Bi0 O3 2.149122 1_555
Bi0 O15 2.149122 1_555
Bi1 O5 2.120934 1_555
Bi1 O17 2.120934 1_555
Bi1 O20 2.142666 1_555
Bi1 O8 2.142666 1_555
Bi1 O2 2.149122 1_555
Bi1 O14 2.149122 1_555
Bi2 O4 2.120934 1_555
Bi2 O16 2.120934 1_555
Bi2 O10 2.142666 1_555
Bi2 O22 2.142666 1_555
Bi2 O13 2.149122 1_555
Bi2 O1 2.149122 1_555
Bi3 O18 2.120934 1_555
Bi3 O6 2.120934 1_555
Bi3 O21 2.142666 1_555
Bi3 O9 2.142666 1_555
Bi3 O12 2.149122 1_555
Bi3 O0 2.149122 1_555
O0 Sm0 2.329096 1_655
O0 Sr0 3.024188 1_655
O1 Sm1 2.329096 1_455
O1 Sr0 3.024188 1_555
O2 Sm2 2.329096 1_455
O2 Sr0 3.024188 1_555
O3 Sm3 2.329096 1_655
O3 Sr0 3.024188 1_655
O4 Sm0 2.277095 1_565
O4 Sr1 2.554717 1_565
O4 Sr2 2.798965 1_565
O5 Sm3 2.277095 1_545
O5 Sr1 2.554717 1_555
O5 Sr2 2.798965 1_556
O6 Sm1 2.277095 1_545
O6 Sr1 2.554717 1_555
O6 Sr2 2.798965 1_555
O7 Sm2 2.277095 1_565
O7 Sr1 2.554717 1_565
O7 Sr2 2.798965 1_566
O8 Sm0 2.310063 1_556
O8 Sr3 2.927636 1_556
O8 Sr2 3.216485 1_556
O9 Sm2 2.310063 1_554
O9 Sr3 2.927636 1_655
O9 Sr2 3.216485 1_555
O10 Sm3 2.310063 1_554
O10 Sr3 2.927636 1_555
O10 Sr2 3.216485 1_565
O11 Sm1 2.310063 1_556
O11 Sr3 2.927636 1_656
O11 Sr2 3.216485 1_566
O12 Sm0 2.329096 1_555
O12 Sr2 3.024188 1_555
O13 Sm1 2.329096 1_555
O13 Sr2 3.024188 1_565
O14 Sm2 2.329096 1_555
O14 Sr2 3.024188 1_556
O15 Sm3 2.329096 1_555
O15 Sr2 3.024188 1_566
O16 Sm0 2.277095 1_555
O16 Sr3 2.554717 1_555
O16 Sr0 2.798965 1_555
O17 Sm3 2.277095 1_555
O17 Sr3 2.554717 1_556
O17 Sr0 2.798965 1_555
O18 Sm1 2.277095 1_555
O18 Sr3 2.554717 1_655
O18 Sr0 2.798965 1_655
O19 Sm2 2.277095 1_555
O19 Sr3 2.554717 1_656
O19 Sr0 2.798965 1_655
O20 Sm0 2.310063 1_555
O20 Sr1 2.927636 1_555
O20 Sr0 3.216485 1_555
O21 Sm2 2.310063 1_555
O21 Sr1 2.927636 1_555
O21 Sr0 3.216485 1_655
O22 Sm3 2.310063 1_555
O22 Sr1 2.927636 1_565
O22 Sr0 3.216485 1_555
O23 Sm1 2.310063 1_555
O23 Sr1 2.927636 1_565
O23 Sr0 3.216485 1_655
