# generated using pymatgen
data_CaSn4S9
_symmetry_space_group_name_H-M   'P 1'
_cell_length_a   6.87646600
_cell_length_b   8.29075638
_cell_length_c   12.31028103
_cell_angle_alpha   100.69261728
_cell_angle_beta   90.00000000
_cell_angle_gamma   90.00000000
_symmetry_Int_Tables_number   1
_chemical_formula_structural   CaSn4S9
_chemical_formula_sum   'Ca2 Sn8 S18'
_cell_volume   689.63676685
_cell_formula_units_Z   2
loop_
 _symmetry_equiv_pos_site_id
 _symmetry_equiv_pos_as_xyz
  1  'x, y, z'
loop_
 _atom_site_type_symbol
 _atom_site_label
 _atom_site_symmetry_multiplicity
 _atom_site_fract_x
 _atom_site_fract_y
 _atom_site_fract_z
 _atom_site_occupancy
  Ca  Ca0  1  0.22179900  0.00000000  0.25000000  1
  Ca  Ca1  1  0.77820100  0.00000000  0.75000000  1
  Sn  Sn0  1  0.22155800  0.42629000  0.06125500  1
  Sn  Sn1  1  0.22155800  0.57371000  0.43874500  1
  Sn  Sn2  1  0.77844200  0.57371000  0.93874500  1
  Sn  Sn3  1  0.77844200  0.42629000  0.56125500  1
  Sn  Sn4  1  0.69972000  0.30666800  0.16224700  1
  Sn  Sn5  1  0.69972000  0.69333200  0.33775300  1
  Sn  Sn6  1  0.30028000  0.69333200  0.83775300  1
  Sn  Sn7  1  0.30028000  0.30666800  0.66224700  1
  S  S0  1  0.84607300  0.02106500  0.16985000  1
  S  S1  1  0.84607300  0.97893500  0.33015000  1
  S  S2  1  0.15392700  0.97893500  0.83015000  1
  S  S3  1  0.15392700  0.02106500  0.66985000  1
  S  S4  1  0.38716600  0.16403500  0.09466700  1
  S  S5  1  0.38716600  0.83596500  0.40533300  1
  S  S6  1  0.61283400  0.83596500  0.90533300  1
  S  S7  1  0.61283400  0.16403500  0.59466700  1
  S  S8  1  0.43352500  0.39631500  0.86521400  1
  S  S9  1  0.43352500  0.60368500  0.63478600  1
  S  S10  1  0.56647500  0.60368500  0.13478600  1
  S  S11  1  0.56647500  0.39631500  0.36521400  1
  S  S12  1  0.89515900  0.27736800  0.97951600  1
  S  S13  1  0.89515900  0.72263200  0.52048400  1
  S  S14  1  0.10484100  0.72263200  0.02048400  1
  S  S15  1  0.10484100  0.27736800  0.47951600  1
  S  S16  1  0.02400900  0.50000000  0.25000000  1
  S  S17  1  0.97599100  0.50000000  0.75000000  1
loop_
_geom_bond_atom_site_label_1
_geom_bond_atom_site_label_2
_geom_bond_distance
_geom_bond_site_symmetry_2
Ca0 S1 2.782678 1_445
Ca0 S0 2.782678 1_455
Ca0 S4 2.786415 1_555
Ca0 S5 2.786415 1_545
Ca0 S14 3.392176 1_545
Ca0 S15 3.392176 1_555
Ca1 S2 2.782678 1_645
Ca1 S3 2.782678 1_655
Ca1 S7 2.786415 1_555
Ca1 S6 2.786415 1_545
Ca1 S13 3.392176 1_545
Ca1 S12 3.392176 1_555
S0 S1 2.066843 1_545
S0 Sn4 2.590484 1_555
S1 Sn5 2.590484 1_555
S2 S3 2.066843 1_565
S2 Sn6 2.590484 1_555
S3 Sn7 2.590484 1_555
S4 Sn4 2.518885 1_555
S4 Sn0 2.554495 1_555
S5 Sn5 2.518885 1_555
S5 Sn1 2.554495 1_555
S6 Sn6 2.518885 1_555
S6 Sn2 2.554495 1_555
S7 Sn7 2.518885 1_555
S7 Sn3 2.554495 1_555
S8 Sn7 2.635474 1_555
S8 Sn6 2.706768 1_555
S8 Sn0 2.790675 1_556
S8 Sn2 2.848491 1_555
S9 Sn6 2.635474 1_555
S9 Sn7 2.706768 1_555
S9 Sn1 2.790675 1_555
S9 Sn3 2.848491 1_555
S10 Sn5 2.635474 1_555
S10 Sn4 2.706768 1_555
S10 Sn2 2.790675 1_554
S10 Sn0 2.848491 1_555
S11 Sn4 2.635474 1_555
S11 Sn5 2.706768 1_555
S11 Sn3 2.790675 1_555
S11 Sn1 2.848491 1_555
S12 Sn4 2.592778 1_556
S12 Sn0 2.667126 1_656
S12 Sn2 2.718458 1_555
S13 Sn5 2.592778 1_555
S13 Sn1 2.667126 1_655
S13 Sn3 2.718458 1_555
S14 Sn6 2.592778 1_554
S14 Sn2 2.667126 1_454
S14 Sn0 2.718458 1_555
S15 Sn7 2.592778 1_555
S15 Sn3 2.667126 1_455
S15 Sn1 2.718458 1_555
S16 Sn1 2.662814 1_555
S16 Sn0 2.662814 1_555
S16 Sn4 2.840133 1_455
S16 Sn5 2.840133 1_455
S17 Sn2 2.662814 1_555
S17 Sn3 2.662814 1_555
S17 Sn7 2.840133 1_655
S17 Sn6 2.840133 1_655
