# generated using pymatgen
data_Cr5InS8
_symmetry_space_group_name_H-M   'P 1'
_cell_length_a   9.18530742
_cell_length_b   9.18530742
_cell_length_c   8.68601732
_cell_angle_alpha   74.93516405
_cell_angle_beta   74.93516405
_cell_angle_gamma   21.80459246
_symmetry_Int_Tables_number   1
_chemical_formula_structural   Cr5InS8
_chemical_formula_sum   'Cr5 In1 S8'
_cell_volume   262.49846046
_cell_formula_units_Z   1
loop_
 _symmetry_equiv_pos_site_id
 _symmetry_equiv_pos_as_xyz
  1  'x, y, z'
loop_
 _atom_site_type_symbol
 _atom_site_label
 _atom_site_symmetry_multiplicity
 _atom_site_fract_x
 _atom_site_fract_y
 _atom_site_fract_z
 _atom_site_occupancy
  Cr  Cr0  1  0.20375978  0.20375978  0.16559624  1
  Cr  Cr1  1  0.79560041  0.79560041  0.83501869  1
  Cr  Cr2  1  0.50029386  0.50029386  0.49964968  1
  Cr  Cr3  1  0.84130846  0.84130846  0.47235065  1
  Cr  Cr4  1  0.15709672  0.15709672  0.53006243  1
  In  In0  1  0.98231877  0.98231877  0.00392844  1
  S  S0  1  0.41550249  0.41550249  0.32445914  1
  S  S1  1  0.58300210  0.58300210  0.67628683  1
  S  S2  1  0.73686807  0.73686807  0.34613817  1
  S  S3  1  0.26206651  0.26206651  0.65679217  1
  S  S4  1  0.07717920  0.07717920  0.35185917  1
  S  S5  1  0.92293368  0.92293368  0.64767475  1
  S  S6  1  0.32918429  0.32918429  0.98874576  1
  S  S7  1  0.67177666  0.67177666  0.01193688  1
loop_
_geom_bond_atom_site_label_1
_geom_bond_atom_site_label_2
_geom_bond_distance
_geom_bond_site_symmetry_2
Cr0 S7 2.353716 1_455
Cr0 S7 2.353716 1_545
Cr0 S6 2.374634 1_554
Cr0 S4 2.423998 1_555
Cr0 S2 2.515911 1_545
Cr0 S2 2.515911 1_455
Cr1 S7 2.352370 1_556
Cr1 S6 2.365648 1_565
Cr1 S6 2.365648 1_655
Cr1 S5 2.438315 1_555
Cr1 S3 2.505254 1_565
Cr1 S3 2.505254 1_655
Cr2 S4 2.376356 1_655
Cr2 S4 2.376356 1_565
Cr2 S5 2.380926 1_455
Cr2 S5 2.380926 1_545
Cr2 S1 2.406615 1_555
Cr2 S0 2.426372 1_555
Cr3 S0 2.355712 1_565
Cr3 S0 2.355712 1_655
Cr3 S5 2.382069 1_555
Cr3 S2 2.417580 1_555
Cr3 S3 2.532922 1_655
Cr3 S3 2.532922 1_565
Cr4 S1 2.349267 1_455
Cr4 S1 2.349267 1_545
Cr4 S4 2.378136 1_555
Cr4 S3 2.429133 1_555
Cr4 S2 2.534568 1_455
Cr4 S2 2.534568 1_545
