# generated using pymatgen
data_Zr2FeOs
_symmetry_space_group_name_H-M   'P 1'
_cell_length_a   10.69716157
_cell_length_b   10.69716157
_cell_length_c   10.69716157
_cell_angle_alpha   127.92336289
_cell_angle_beta   116.74863895
_cell_angle_gamma   86.29128282
_symmetry_Int_Tables_number   1
_chemical_formula_structural   Zr2FeOs
_chemical_formula_sum   'Zr2 Fe1 Os1'
_cell_volume   822.30678115
_cell_formula_units_Z   1
loop_
 _symmetry_equiv_pos_site_id
 _symmetry_equiv_pos_as_xyz
  1  'x, y, z'
loop_
 _atom_site_type_symbol
 _atom_site_label
 _atom_site_symmetry_multiplicity
 _atom_site_fract_x
 _atom_site_fract_y
 _atom_site_fract_z
 _atom_site_occupancy
  Zr  Zr0  1  0.00000000  0.25099200  0.25099200  1
  Zr  Zr1  1  0.00000000  0.74900800  0.74900800  1
  Fe  Fe0  1  0.00000000  0.00000000  0.00000000  1
  Os  Os0  1  0.00000000  0.50000000  0.50000000  1
loop_
_geom_bond_atom_site_label_1
_geom_bond_atom_site_label_2
_geom_bond_distance
_geom_bond_site_symmetry_2
Fe0 Zr1 2.357194 1_544
Fe0 Zr0 2.357194 1_555
Os0 Zr1 2.338562 1_555
Os0 Zr0 2.338562 1_555
