# generated using pymatgen
data_V10(SiGe)3
_symmetry_space_group_name_H-M   'P 1'
_cell_length_a   9.43305505
_cell_length_b   7.09793453
_cell_length_c   7.07152139
_cell_angle_alpha   83.47685812
_cell_angle_beta   48.38134569
_cell_angle_gamma   48.14191957
_symmetry_Int_Tables_number   1
_chemical_formula_structural   V10(SiGe)3
_chemical_formula_sum   'V10 Si3 Ge3'
_cell_volume   212.48274894
_cell_formula_units_Z   1
loop_
 _symmetry_equiv_pos_site_id
 _symmetry_equiv_pos_as_xyz
  1  'x, y, z'
loop_
 _atom_site_type_symbol
 _atom_site_label
 _atom_site_symmetry_multiplicity
 _atom_site_fract_x
 _atom_site_fract_y
 _atom_site_fract_z
 _atom_site_occupancy
  V  V0  1  0.77011849  0.42337566  0.57662434  1
  V  V1  1  0.22872112  0.57870885  0.42129115  1
  V  V2  1  0.72936594  0.92522318  0.07477682  1
  V  V3  1  0.26845084  0.07298100  0.92701900  1
  V  V4  1  0.92522558  0.72936470  0.27063530  1
  V  V5  1  0.07298120  0.26844945  0.73155055  1
  V  V6  1  0.42337516  0.77011714  0.22988286  1
  V  V7  1  0.57870002  0.22872836  0.77127164  1
  V  V8  1  0.75403603  0.24999406  0.24596816  1
  V  V9  1  0.24999925  0.75403184  0.75000594  1
  Si  Si0  1  0.66567024  0.66567597  0.33432403  1
  Si  Si1  1  0.16501524  0.83416569  0.16583431  1
  Si  Si2  1  0.83416536  0.16501212  0.83498788  1
  Ge  Ge0  1  0.24990096  0.24990767  0.25010355  1
  Ge  Ge1  1  0.74991318  0.74989645  0.75009233  1
  Ge  Ge2  1  0.33436040  0.33436787  0.66563213  1
loop_
_geom_bond_atom_site_label_1
_geom_bond_atom_site_label_2
_geom_bond_distance
_geom_bond_site_symmetry_2
V8 V9 2.368650 1_644
V8 V9 2.407218 1_555
Si0 V6 2.485069 1_555
Si0 V0 2.485142 1_555
Si0 V9 2.497060 1_555
Si0 V8 2.497066 1_555
Si0 V2 2.523428 1_555
Si0 V4 2.523484 1_555
Si0 V5 2.720191 1_654
Si0 V5 2.720191 1_565
Si0 V3 2.720233 1_565
Si0 V3 2.720233 1_654
Si1 V3 2.458747 1_564
Si1 V4 2.472356 1_455
Si1 V1 2.481089 1_555
Si1 V9 2.500625 1_554
Si1 V8 2.500630 1_465
Si1 V6 2.508428 1_555
Si1 V7 2.713155 1_554
Si1 V7 2.713155 1_465
Si1 V0 2.720362 1_554
Si1 V0 2.720362 1_465
Si2 V5 2.458756 1_655
Si2 V2 2.472346 1_546
Si2 V7 2.481187 1_555
Si2 V8 2.500663 1_556
Si2 V9 2.500669 1_645
Si2 V0 2.508460 1_555
Si2 V1 2.713145 1_556
Si2 V1 2.713145 1_645
Si2 V6 2.720368 1_556
Si2 V6 2.720368 1_645
Ge0 Ge1 2.387880 1_455
Ge0 Ge1 2.387987 1_544
Ge0 V2 2.567901 1_545
Ge0 V4 2.567910 1_455
Ge0 V1 2.578836 1_555
Ge0 V7 2.578919 1_554
Ge0 V5 2.579695 1_555
Ge0 V3 2.579753 1_554
Ge0 V0 2.580362 1_455
Ge0 V6 2.580377 1_545
Ge1 V2 2.567894 1_556
Ge1 V4 2.567912 1_555
Ge1 V1 2.578828 1_655
Ge1 V7 2.578916 1_565
Ge1 V5 2.579692 1_655
Ge1 V3 2.579761 1_565
Ge1 V0 2.580370 1_555
Ge1 V6 2.580380 1_556
Ge2 V7 2.507214 1_555
Ge2 V1 2.507227 1_555
Ge2 V8 2.543964 1_555
Ge2 V9 2.543970 1_555
Ge2 V5 2.545339 1_555
Ge2 V3 2.545392 1_555
Ge2 V2 2.722231 1_545
Ge2 V2 2.722231 1_456
Ge2 V4 2.722290 1_456
Ge2 V4 2.722290 1_545
