# generated using pymatgen
data_Mn2S3(NO6)2
_symmetry_space_group_name_H-M   'P 1'
_cell_length_a   10.08649200
_cell_length_b   10.08649200
_cell_length_c   10.08649200
_cell_angle_alpha   90.00000000
_cell_angle_beta   90.00000000
_cell_angle_gamma   90.00000000
_symmetry_Int_Tables_number   1
_chemical_formula_structural   Mn2S3(NO6)2
_chemical_formula_sum   'Mn8 S12 N8 O48'
_cell_volume   1026.17267302
_cell_formula_units_Z   4
loop_
 _symmetry_equiv_pos_site_id
 _symmetry_equiv_pos_as_xyz
  1  'x, y, z'
loop_
 _atom_site_type_symbol
 _atom_site_label
 _atom_site_symmetry_multiplicity
 _atom_site_fract_x
 _atom_site_fract_y
 _atom_site_fract_z
 _atom_site_occupancy
  Mn  Mn0  1  0.33523200  0.33523200  0.33523200  1
  Mn  Mn1  1  0.16476800  0.66476800  0.83523200  1
  Mn  Mn2  1  0.66476800  0.83523200  0.16476800  1
  Mn  Mn3  1  0.83523200  0.16476800  0.66476800  1
  Mn  Mn4  1  0.59990600  0.59990600  0.59990600  1
  Mn  Mn5  1  0.90009400  0.40009400  0.09990600  1
  Mn  Mn6  1  0.40009400  0.09990600  0.90009400  1
  Mn  Mn7  1  0.09990600  0.90009400  0.40009400  1
  S  S0  1  0.01844400  0.21358800  0.37602700  1
  S  S1  1  0.48155600  0.78641200  0.87602700  1
  S  S2  1  0.98155600  0.71358800  0.12397300  1
  S  S3  1  0.37602700  0.01844400  0.21358800  1
  S  S4  1  0.51844400  0.28641200  0.62397300  1
  S  S5  1  0.87602700  0.48155600  0.78641200  1
  S  S6  1  0.12397300  0.98155600  0.71358800  1
  S  S7  1  0.62397300  0.51844400  0.28641200  1
  S  S8  1  0.21358800  0.37602700  0.01844400  1
  S  S9  1  0.71358800  0.12397300  0.98155600  1
  S  S10  1  0.28641200  0.62397300  0.51844400  1
  S  S11  1  0.78641200  0.87602700  0.48155600  1
  N  N0  1  0.04501700  0.04501700  0.04501700  1
  N  N1  1  0.45498300  0.95498300  0.54501700  1
  N  N2  1  0.95498300  0.54501700  0.45498300  1
  N  N3  1  0.54501700  0.45498300  0.95498300  1
  N  N4  1  0.81715200  0.81715200  0.81715200  1
  N  N5  1  0.68284800  0.18284800  0.31715200  1
  N  N6  1  0.18284800  0.31715200  0.68284800  1
  N  N7  1  0.31715200  0.68284800  0.18284800  1
  O  O0  1  0.00964700  0.07037200  0.33585400  1
  O  O1  1  0.49035300  0.92962800  0.83585400  1
  O  O2  1  0.99035300  0.57037200  0.16414600  1
  O  O3  1  0.33585400  0.00964700  0.07037200  1
  O  O4  1  0.50964700  0.42962800  0.66414600  1
  O  O5  1  0.83585400  0.49035300  0.92962800  1
  O  O6  1  0.16414600  0.99035300  0.57037200  1
  O  O7  1  0.66414600  0.50964700  0.42962800  1
  O  O8  1  0.07037200  0.33585400  0.00964700  1
  O  O9  1  0.57037200  0.16414600  0.99035300  1
  O  O10  1  0.42962800  0.66414600  0.50964700  1
  O  O11  1  0.92962800  0.83585400  0.49035300  1
  O  O12  1  0.26456200  0.49792700  0.44593100  1
  O  O13  1  0.23543800  0.50207300  0.94593100  1
  O  O14  1  0.73543800  0.99792700  0.05406900  1
  O  O15  1  0.44593100  0.26456200  0.49792700  1
  O  O16  1  0.76456200  0.00207300  0.55406900  1
  O  O17  1  0.94593100  0.23543800  0.50207300  1
  O  O18  1  0.05406900  0.73543800  0.99792700  1
  O  O19  1  0.55406900  0.76456200  0.00207300  1
  O  O20  1  0.49792700  0.44593100  0.26456200  1
  O  O21  1  0.99792700  0.05406900  0.73543800  1
  O  O22  1  0.00207300  0.55406900  0.76456200  1
  O  O23  1  0.50207300  0.94593100  0.23543800  1
  O  O24  1  0.04195100  0.78977800  0.23216000  1
  O  O25  1  0.45804900  0.21022200  0.73216000  1
  O  O26  1  0.95804900  0.28977800  0.26784000  1
  O  O27  1  0.23216000  0.04195100  0.78977800  1
  O  O28  1  0.54195100  0.71022200  0.76784000  1
  O  O29  1  0.73216000  0.45804900  0.21022200  1
  O  O30  1  0.26784000  0.95804900  0.28977800  1
  O  O31  1  0.76784000  0.54195100  0.71022200  1
  O  O32  1  0.78977800  0.23216000  0.04195100  1
  O  O33  1  0.28977800  0.26784000  0.95804900  1
  O  O34  1  0.71022200  0.76784000  0.54195100  1
  O  O35  1  0.21022200  0.73216000  0.45804900  1
  O  O36  1  0.15817200  0.25145500  0.40021500  1
  O  O37  1  0.34182800  0.74854500  0.90021500  1
  O  O38  1  0.84182800  0.75145500  0.09978500  1
  O  O39  1  0.40021500  0.15817200  0.25145500  1
  O  O40  1  0.65817200  0.24854500  0.59978500  1
  O  O41  1  0.90021500  0.34182800  0.74854500  1
  O  O42  1  0.09978500  0.84182800  0.75145500  1
  O  O43  1  0.59978500  0.65817200  0.24854500  1
  O  O44  1  0.25145500  0.40021500  0.15817200  1
  O  O45  1  0.75145500  0.09978500  0.84182800  1
  O  O46  1  0.24854500  0.59978500  0.65817200  1
  O  O47  1  0.74854500  0.90021500  0.34182800  1
loop_
_geom_bond_atom_site_label_1
_geom_bond_atom_site_label_2
_geom_bond_distance
_geom_bond_site_symmetry_2
Mn0 O36 2.081624 1_555
Mn0 O44 2.081624 1_555
Mn0 O39 2.081624 1_555
Mn0 O20 2.108974 1_555
Mn0 O15 2.108974 1_555
Mn0 O12 2.108974 1_555
Mn1 O37 2.081624 1_555
Mn1 O46 2.081624 1_555
Mn1 O42 2.081624 1_555
Mn1 O13 2.108974 1_555
Mn1 O18 2.108974 1_555
Mn1 O22 2.108974 1_555
Mn2 O47 2.081624 1_555
Mn2 O43 2.081624 1_555
Mn2 O38 2.081624 1_555
Mn2 O23 2.108974 1_555
Mn2 O14 2.108974 1_555
Mn2 O19 2.108974 1_555
Mn3 O41 2.081624 1_555
Mn3 O40 2.081624 1_555
Mn3 O45 2.081624 1_555
Mn3 O17 2.108974 1_555
Mn3 O21 2.108974 1_555
Mn3 O16 2.108974 1_555
Mn4 O10 2.049025 1_555
Mn4 O7 2.049025 1_555
Mn4 O4 2.049025 1_555
Mn4 O31 2.109264 1_555
Mn4 O28 2.109264 1_555
Mn4 O34 2.109264 1_555
Mn5 O8 2.049025 1_655
Mn5 O2 2.049025 1_555
Mn5 O5 2.049025 1_554
Mn5 O26 2.109264 1_555
Mn5 O29 2.109264 1_555
Mn5 O32 2.109264 1_555
Mn6 O3 2.049025 1_556
Mn6 O9 2.049025 1_555
Mn6 O1 2.049025 1_545
Mn6 O33 2.109264 1_555
Mn6 O25 2.109264 1_555
Mn6 O27 2.109264 1_555
Mn7 O0 2.049025 1_565
Mn7 O6 2.049025 1_555
Mn7 O11 2.049025 1_455
Mn7 O30 2.109264 1_555
Mn7 O35 2.109264 1_555
Mn7 O24 2.109264 1_555
O0 S0 1.502924 1_555
O1 S1 1.502924 1_555
O2 S2 1.502924 1_555
O3 S3 1.502924 1_555
O4 S4 1.502924 1_555
O5 S5 1.502924 1_555
O6 S6 1.502924 1_555
O7 S7 1.502924 1_555
O8 S8 1.502924 1_555
O9 S9 1.502924 1_555
O10 S10 1.502924 1_555
O11 S11 1.502924 1_555
O12 S10 1.483200 1_555
O13 S8 1.483200 1_556
O14 S9 1.483200 1_564
O15 S4 1.483200 1_555
O16 S11 1.483200 1_545
O17 S0 1.483200 1_655
O18 S2 1.483200 1_456
O19 S1 1.483200 1_554
O20 S7 1.483200 1_555
O21 S6 1.483200 1_645
O22 S5 1.483200 1_455
O23 S3 1.483200 1_565
O24 S2 1.467122 1_455
O25 S4 1.467122 1_555
O26 S0 1.467122 1_655
O27 S6 1.467122 1_545
O28 S1 1.467122 1_555
O29 S7 1.467122 1_555
O30 S3 1.467122 1_565
O31 S5 1.467122 1_555
O32 S9 1.467122 1_554
O33 S8 1.467122 1_556
O34 S11 1.467122 1_555
O35 S10 1.467122 1_555
O36 S0 1.480444 1_555
O37 S1 1.480444 1_555
O38 S2 1.480444 1_555
O39 S3 1.480444 1_555
O40 S4 1.480444 1_555
O41 S5 1.480444 1_555
O42 S6 1.480444 1_555
O43 S7 1.480444 1_555
O44 S8 1.480444 1_555
O45 S9 1.480444 1_555
O46 S10 1.480444 1_555
O47 S11 1.480444 1_555
