# generated using pymatgen
data_LiMnSiO4
_symmetry_space_group_name_H-M   'P 1'
_cell_length_a   6.02725458
_cell_length_b   10.04363600
_cell_length_c   4.81138330
_cell_angle_alpha   89.99985419
_cell_angle_beta   90.03033167
_cell_angle_gamma   89.99651969
_symmetry_Int_Tables_number   1
_chemical_formula_structural   LiMnSiO4
_chemical_formula_sum   'Li4 Mn4 Si4 O16'
_cell_volume   291.25969849
_cell_formula_units_Z   4
loop_
 _symmetry_equiv_pos_site_id
 _symmetry_equiv_pos_as_xyz
  1  'x, y, z'
loop_
 _atom_site_type_symbol
 _atom_site_label
 _atom_site_symmetry_multiplicity
 _atom_site_fract_x
 _atom_site_fract_y
 _atom_site_fract_z
 _atom_site_occupancy
  Li  Li0  1  0.26512500  0.29950400  0.24910200  1
  Li  Li1  1  0.23592000  0.79369300  0.74724000  1
  Li  Li2  1  0.76402800  0.29369100  0.25263300  1
  Li  Li3  1  0.73477700  0.79948700  0.75075400  1
  Mn  Mn0  1  0.99730500  0.02249900  0.26975600  1
  Mn  Mn1  1  0.50057900  0.07167100  0.76925500  1
  Mn  Mn2  1  0.50004500  0.57155200  0.23144400  1
  Mn  Mn3  1  0.00252700  0.52259500  0.73047000  1
  Si  Si0  1  0.01952100  0.20361200  0.81544100  1
  Si  Si1  1  0.47938500  0.89078300  0.31434000  1
  Si  Si2  1  0.52053500  0.39075500  0.68573100  1
  Si  Si3  1  0.98054800  0.70361000  0.18444300  1
  O  O0  1  0.01558400  0.35750600  0.93474600  1
  O  O1  1  0.01139700  0.19274300  0.47729700  1
  O  O2  1  0.18557800  0.62543300  0.01931100  1
  O  O3  1  0.24036800  0.13585900  0.96835200  1
  O  O4  1  0.25771500  0.95715500  0.46716500  1
  O  O5  1  0.51228800  0.23708000  0.56549200  1
  O  O6  1  0.48724300  0.90113400  0.97603400  1
  O  O7  1  0.31675900  0.47023000  0.52033300  1
  O  O8  1  0.68325500  0.97022200  0.47956500  1
  O  O9  1  0.51280600  0.40112100  0.02397100  1
  O  O10  1  0.48770400  0.73710900  0.43459600  1
  O  O11  1  0.74220800  0.45719200  0.53274400  1
  O  O12  1  0.75960100  0.63588900  0.03156600  1
  O  O13  1  0.81438800  0.12544000  0.98053500  1
  O  O14  1  0.98847500  0.69278600  0.52260300  1
  O  O15  1  0.98433500  0.85748600  0.06508000  1
loop_
_geom_bond_atom_site_label_1
_geom_bond_atom_site_label_2
_geom_bond_distance
_geom_bond_site_symmetry_2
Li0 O9 2.108409 1_555
Li0 O3 2.132635 1_554
Li0 O1 2.167002 1_555
Li0 O7 2.177095 1_555
Li0 O0 2.210570 1_554
Li0 O5 2.219714 1_555
Li1 O14 2.101924 1_455
Li1 O4 2.128074 1_555
Li1 O2 2.159172 1_556
Li1 O6 2.160849 1_555
Li1 O10 2.211576 1_555
Li1 O15 2.247405 1_456
Li2 O1 2.101775 1_655
Li2 O11 2.128488 1_555
Li2 O13 2.159171 1_554
Li2 O9 2.159949 1_555
Li2 O5 2.212213 1_555
Li2 O0 2.247555 1_654
Li3 O6 2.108211 1_555
Li3 O12 2.132469 1_556
Li3 O14 2.166379 1_555
Li3 O8 2.176914 1_555
Li3 O15 2.210584 1_556
Li3 O10 2.218508 1_555
Mn0 O15 1.929399 1_545
Mn0 O4 1.947989 1_645
Mn0 O1 1.981899 1_655
Mn0 O13 2.054040 1_554
Mn0 O8 2.209020 1_545
Mn0 O3 2.355410 1_654
Mn1 O5 1.930324 1_555
Mn1 O3 1.947939 1_555
Mn1 O6 1.982445 1_545
Mn1 O8 2.048089 1_545
Mn1 O13 2.213712 1_555
Mn1 O4 2.361381 1_545
Mn2 O10 1.930254 1_555
Mn2 O12 1.947173 1_555
Mn2 O9 1.983062 1_555
Mn2 O7 2.046879 1_555
Mn2 O2 2.219200 1_555
Mn2 O11 2.355572 1_555
Mn3 O0 1.929082 1_555
Mn3 O11 1.948557 1_455
Mn3 O14 1.982207 1_455
Mn3 O2 2.052786 1_556
Mn3 O7 2.210839 1_555
Mn3 O12 2.353581 1_456
O0 Si0 1.648978 1_555
O1 Si0 1.631308 1_555
O2 Si3 1.666076 1_455
O3 Si0 1.665838 1_555
O4 Si1 1.664643 1_555
O5 Si2 1.649057 1_555
O6 Si1 1.631749 1_556
O7 Si2 1.666668 1_555
O8 Si1 1.666588 1_555
O9 Si2 1.631419 1_554
O10 Si1 1.649081 1_555
O11 Si2 1.665328 1_555
O12 Si3 1.666184 1_555
O13 Si0 1.666494 1_655
O14 Si3 1.631319 1_555
O15 Si3 1.648893 1_555
