# generated using pymatgen
data_TiNi
_symmetry_space_group_name_H-M   'P 1'
_cell_length_a   4.50383120
_cell_length_b   4.50383120
_cell_length_c   4.75514200
_cell_angle_alpha   90.00000000
_cell_angle_beta   90.00000000
_cell_angle_gamma   119.99998822
_symmetry_Int_Tables_number   1
_chemical_formula_structural   TiNi
_chemical_formula_sum   'Ti3 Ni3'
_cell_volume   83.53305861
_cell_formula_units_Z   3
loop_
 _symmetry_equiv_pos_site_id
 _symmetry_equiv_pos_as_xyz
  1  'x, y, z'
loop_
 _atom_site_type_symbol
 _atom_site_label
 _atom_site_symmetry_multiplicity
 _atom_site_fract_x
 _atom_site_fract_y
 _atom_site_fract_z
 _atom_site_occupancy
  Ti  Ti0  1  0.00000000  0.00000000  0.72434700  1
  Ti  Ti1  1  0.33333300  0.66666700  0.14724600  1
  Ti  Ti2  1  0.66666700  0.33333300  0.14724600  1
  Ni  Ni0  1  0.00000000  0.00000000  0.21423400  1
  Ni  Ni1  1  0.66666700  0.33333300  0.65346300  1
  Ni  Ni2  1  0.33333300  0.66666700  0.65346300  1
loop_
_geom_bond_atom_site_label_1
_geom_bond_atom_site_label_2
_geom_bond_distance
_geom_bond_site_symmetry_2
Ti1 Ti2 2.600286 1_565
Ti1 Ti2 2.600286 1_455
Ti1 Ti2 2.600293 1_555
Ni0 Ti0 2.329482 1_554
Ni0 Ti0 2.425660 1_555
Ni0 Ti2 2.619723 1_455
Ni0 Ti1 2.619723 1_545
Ni0 Ti1 2.619728 1_445
Ni0 Ti1 2.619728 1_555
Ni0 Ti2 2.619728 1_555
Ni0 Ti2 2.619728 1_445
Ni1 Ti2 2.348008 1_556
Ni1 Ti2 2.407134 1_555
Ni1 Ni2 2.600286 1_545
Ni1 Ni2 2.600286 1_655
Ni1 Ni2 2.600293 1_555
Ni1 Ti0 2.622040 1_655
Ni1 Ti0 2.622045 1_665
Ni1 Ti0 2.622045 1_555
Ni2 Ti1 2.348008 1_556
Ni2 Ti1 2.407134 1_555
Ni2 Ti0 2.622040 1_565
Ni2 Ti0 2.622045 1_665
Ni2 Ti0 2.622045 1_555
