# generated using pymatgen
data_Y4Mn3NiO12
_symmetry_space_group_name_H-M   'P 1'
_cell_length_a   5.30366500
_cell_length_b   5.69454381
_cell_length_c   7.63750858
_cell_angle_alpha   90.02452244
_cell_angle_beta   90.50738223
_cell_angle_gamma   90.73520555
_symmetry_Int_Tables_number   1
_chemical_formula_structural   Y4Mn3NiO12
_chemical_formula_sum   'Y4 Mn3 Ni1 O12'
_cell_volume   230.63960551
_cell_formula_units_Z   1
loop_
 _symmetry_equiv_pos_site_id
 _symmetry_equiv_pos_as_xyz
  1  'x, y, z'
loop_
 _atom_site_type_symbol
 _atom_site_label
 _atom_site_symmetry_multiplicity
 _atom_site_fract_x
 _atom_site_fract_y
 _atom_site_fract_z
 _atom_site_occupancy
  Y  Y0  1  0.48172000  0.42668900  0.24807200  1
  Y  Y1  1  0.02034400  0.92120900  0.24559300  1
  Y  Y2  1  0.51828000  0.57331100  0.75192800  1
  Y  Y3  1  0.97965600  0.07879100  0.75440700  1
  Mn  Mn0  1  0.50000000  0.00000000  0.50000000  1
  Mn  Mn1  1  0.00000000  0.50000000  0.50000000  1
  Mn  Mn2  1  0.50000000  0.00000000  0.00000000  1
  Ni  Ni0  1  0.00000000  0.50000000  0.00000000  1
  O  O0  1  0.20098400  0.18486500  0.05345400  1
  O  O1  1  0.30559400  0.68547700  0.44462000  1
  O  O2  1  0.79691900  0.82233800  0.55909500  1
  O  O3  1  0.67959800  0.29515200  0.94271800  1
  O  O4  1  0.79901600  0.81513500  0.94654600  1
  O  O5  1  0.69440600  0.31452300  0.55538000  1
  O  O6  1  0.20308100  0.17766200  0.44090500  1
  O  O7  1  0.32040200  0.70484800  0.05728200  1
  O  O8  1  0.61478200  0.03969300  0.24134800  1
  O  O9  1  0.89193300  0.53510100  0.25516800  1
  O  O10  1  0.38521800  0.96030700  0.75865200  1
  O  O11  1  0.10806700  0.46489900  0.74483200  1
loop_
_geom_bond_atom_site_label_1
_geom_bond_atom_site_label_2
_geom_bond_distance
_geom_bond_site_symmetry_2
Mn0 O2 1.932823 1_545
Mn0 O6 1.932823 1_555
Mn0 O10 2.083810 1_545
Mn0 O8 2.083810 1_555
Mn0 O1 2.096221 1_545
Mn0 O5 2.096221 1_555
Mn1 O11 1.961959 1_555
Mn1 O9 1.961959 1_455
Mn1 O1 1.972297 1_555
Mn1 O5 1.972297 1_455
Mn1 O6 2.189004 1_555
Mn1 O2 2.189004 1_455
Mn2 O8 1.948248 1_555
Mn2 O10 1.948248 1_544
Mn2 O0 1.960575 1_555
Mn2 O4 1.960575 1_544
Mn2 O3 1.972454 1_554
Mn2 O7 1.972454 1_545
Ni0 O9 2.046669 1_455
Ni0 O11 2.046669 1_554
Ni0 O7 2.091727 1_555
Ni0 O3 2.091727 1_454
Ni0 O4 2.136667 1_454
Ni0 O0 2.136667 1_555
O0 Y1 2.305513 1_545
O0 Y0 2.495809 1_555
O0 Y3 2.625351 1_454
O1 Y0 2.314299 1_555
O1 Y1 2.532692 1_555
O1 Y2 2.676193 1_555
O2 Y3 2.287660 1_565
O2 Y2 2.520019 1_555
O2 Y1 2.736506 1_655
O3 Y2 2.319272 1_555
O3 Y3 2.491671 1_555
O3 Y0 2.676451 1_556
O4 Y3 2.305513 1_565
O4 Y2 2.495809 1_555
O4 Y1 2.625351 1_656
O5 Y2 2.314299 1_555
O5 Y3 2.532692 1_555
O5 Y0 2.676193 1_555
O6 Y1 2.287660 1_545
O6 Y0 2.520019 1_555
O6 Y3 2.736506 1_455
O7 Y0 2.319272 1_555
O7 Y1 2.491671 1_555
O7 Y2 2.676451 1_554
O8 Y1 2.262513 1_645
O8 Y0 2.323298 1_555
O9 Y0 2.254076 1_555
O9 Y1 2.294796 1_655
O10 Y3 2.262513 1_465
O10 Y2 2.323298 1_555
O11 Y2 2.254076 1_555
O11 Y3 2.294796 1_455
