# generated using pymatgen
data_Nb2Co(PbO3)3
_symmetry_space_group_name_H-M   'P 1'
_cell_length_a   5.76213047
_cell_length_b   15.29285457
_cell_length_c   9.97760753
_cell_angle_alpha   109.00454464
_cell_angle_beta   90.00586036
_cell_angle_gamma   79.14974056
_symmetry_Int_Tables_number   1
_chemical_formula_structural   Nb2Co(PbO3)3
_chemical_formula_sum   'Nb8 Co4 Pb12 O36'
_cell_volume   814.66063509
_cell_formula_units_Z   4
loop_
 _symmetry_equiv_pos_site_id
 _symmetry_equiv_pos_as_xyz
  1  'x, y, z'
loop_
 _atom_site_type_symbol
 _atom_site_label
 _atom_site_symmetry_multiplicity
 _atom_site_fract_x
 _atom_site_fract_y
 _atom_site_fract_z
 _atom_site_occupancy
  Nb  Nb0  1  0.46141000  0.07658800  0.20483100  1
  Nb  Nb1  1  0.21180200  0.57646700  0.45494600  1
  Nb  Nb2  1  0.96185100  0.07643400  0.70465700  1
  Nb  Nb3  1  0.71147300  0.57646700  0.95465300  1
  Nb  Nb4  1  0.37151500  0.25691500  0.62863800  1
  Nb  Nb5  1  0.12150800  0.75687000  0.87839400  1
  Nb  Nb6  1  0.87192900  0.25679500  0.12833600  1
  Nb  Nb7  1  0.62195000  0.75679200  0.37870400  1
  Co  Co0  1  0.79165600  0.41671800  0.54163100  1
  Co  Co1  1  0.54169600  0.91662700  0.79169500  1
  Co  Co2  1  0.29168700  0.41662000  0.04168000  1
  Co  Co3  1  0.04165400  0.91672500  0.29164700  1
  Pb  Pb0  1  0.91617900  0.16753900  0.41698800  1
  Pb  Pb1  1  0.66662400  0.66667300  0.66665900  1
  Pb  Pb2  1  0.41714000  0.16576900  0.91621300  1
  Pb  Pb3  1  0.16672300  0.66665600  0.16659800  1
  Pb  Pb4  1  0.33312400  0.33389900  0.33356600  1
  Pb  Pb5  1  0.08316900  0.83384500  0.58364200  1
  Pb  Pb6  1  0.83314400  0.33350300  0.83456400  1
  Pb  Pb7  1  0.58307900  0.83358100  0.08449100  1
  Pb  Pb8  1  0.25026000  0.49943600  0.74968000  1
  Pb  Pb9  1  0.00034600  0.99937400  0.99989100  1
  Pb  Pb10  1  0.75038000  0.49970500  0.24886000  1
  Pb  Pb11  1  0.50036900  0.99976300  0.49870600  1
  O  O0  1  0.16663400  0.16667000  0.16671900  1
  O  O1  1  0.91665300  0.66656700  0.41643800  1
  O  O2  1  0.66662800  0.16669300  0.66674500  1
  O  O3  1  0.41665900  0.66677100  0.91689500  1
  O  O4  1  0.66663800  0.16667400  0.16672200  1
  O  O5  1  0.41659200  0.66660600  0.41647500  1
  O  O6  1  0.16663200  0.16670200  0.66675900  1
  O  O7  1  0.91672300  0.66673100  0.91686700  1
  O  O8  1  0.41682400  0.16654600  0.41658700  1
  O  O9  1  0.16668200  0.66664700  0.66665800  1
  O  O10  1  0.91645400  0.16680000  0.91683800  1
  O  O11  1  0.66665800  0.66667500  0.16667300  1
  O  O12  1  0.08860300  0.33050400  0.58255100  1
  O  O13  1  0.83860900  0.83058300  0.83259200  1
  O  O14  1  0.58840600  0.33100100  0.08337500  1
  O  O15  1  0.33833200  0.83090900  0.33329700  1
  O  O16  1  0.74493000  0.00233100  0.24993200  1
  O  O17  1  0.49466700  0.50271600  0.50066900  1
  O  O18  1  0.24475000  0.00286700  0.75086100  1
  O  O19  1  0.99494500  0.50244700  0.00007400  1
  O  O20  1  0.58085200  0.33050400  0.58243600  1
  O  O21  1  0.33072800  0.83059000  0.83241700  1
  O  O22  1  0.08044600  0.33088700  0.08342100  1
  O  O23  1  0.83062900  0.83083200  0.33339600  1
  O  O24  1  0.25281300  0.00242800  0.24987000  1
  O  O25  1  0.00261200  0.50273800  0.50081800  1
  O  O26  1  0.75242000  0.00285700  0.75095300  1
  O  O27  1  0.50269400  0.50256100  0.99995600  1
  O  O28  1  0.83489600  0.33015100  0.32983000  1
  O  O29  1  0.58490500  0.83021900  0.57973000  1
  O  O30  1  0.33491600  0.33083000  0.82946700  1
  O  O31  1  0.08499600  0.83067100  0.07946400  1
  O  O32  1  0.99833500  0.00258400  0.50394900  1
  O  O33  1  0.74842400  0.50311700  0.75359900  1
  O  O34  1  0.49832800  0.00320900  0.00353700  1
  O  O35  1  0.24831600  0.50263000  0.25377300  1
loop_
_geom_bond_atom_site_label_1
_geom_bond_atom_site_label_2
_geom_bond_distance
_geom_bond_site_symmetry_2
Nb0 O24 1.943743 1_555
Nb0 O34 1.944394 1_555
Nb0 O16 1.948130 1_555
Nb0 O0 2.094647 1_555
Nb0 O4 2.096570 1_555
Nb0 O8 2.096805 1_555
Nb1 O17 1.944133 1_555
Nb1 O25 1.944643 1_555
Nb1 O35 1.944931 1_555
Nb1 O5 2.096934 1_555
Nb1 O9 2.097493 1_555
Nb1 O1 2.097845 1_455
Nb2 O32 1.941066 1_555
Nb2 O18 1.944910 1_655
Nb2 O26 1.945658 1_555
Nb2 O6 2.096258 1_655
Nb2 O2 2.097156 1_555
Nb2 O10 2.102076 1_555
Nb3 O33 1.942273 1_555
Nb3 O27 1.942609 1_555
Nb3 O19 1.947462 1_556
Nb3 O3 2.095319 1_555
Nb3 O7 2.097624 1_555
Nb3 O11 2.100062 1_556
Nb4 O30 1.942307 1_555
Nb4 O12 1.944636 1_555
Nb4 O20 1.945005 1_555
Nb4 O6 2.096849 1_555
Nb4 O2 2.097170 1_555
Nb4 O8 2.101061 1_555
Nb5 O31 1.943941 1_556
Nb5 O13 1.944320 1_455
Nb5 O21 1.945108 1_555
Nb5 O7 2.096922 1_455
Nb5 O3 2.097817 1_555
Nb5 O9 2.097884 1_555
Nb6 O22 1.942080 1_655
Nb6 O28 1.946004 1_555
Nb6 O14 1.947165 1_555
Nb6 O10 2.094935 1_554
Nb6 O0 2.095809 1_655
Nb6 O4 2.098354 1_555
Nb7 O29 1.942298 1_555
Nb7 O23 1.943797 1_555
Nb7 O15 1.948757 1_555
Nb7 O1 2.094103 1_555
Nb7 O5 2.097012 1_555
Nb7 O11 2.099724 1_555
Co0 O25 2.079646 1_655
Co0 O17 2.080333 1_555
Co0 O20 2.081391 1_555
Co0 O12 2.081785 1_655
Co0 O28 2.081927 1_555
Co0 O33 2.082549 1_555
Co1 O21 2.079540 1_555
Co1 O13 2.080145 1_555
Co1 O26 2.081012 1_565
Co1 O18 2.081651 1_565
Co1 O34 2.082322 1_566
Co1 O29 2.082564 1_555
Co2 O14 2.079057 1_555
Co2 O19 2.080510 1_455
Co2 O22 2.081002 1_555
Co2 O35 2.081896 1_555
Co2 O30 2.081933 1_554
Co2 O27 2.082548 1_554
Co3 O16 2.079051 1_465
Co3 O15 2.080338 1_555
Co3 O24 2.080446 1_565
Co3 O23 2.082130 1_455
Co3 O31 2.082811 1_555
Co3 O32 2.082947 1_465
O0 Pb0 2.879273 1_455
O0 Pb2 2.881285 1_554
O0 Pb4 2.895266 1_555
O0 Pb9 2.895410 1_544
O1 Pb3 2.879941 1_655
O1 Pb1 2.881993 1_555
O1 Pb10 2.892502 1_555
O1 Pb5 2.896934 1_655
O2 Pb2 2.879882 1_555
O2 Pb0 2.882107 1_555
O2 Pb6 2.893297 1_555
O2 Pb11 2.894588 1_545
O3 Pb3 2.878521 1_556
O3 Pb1 2.881985 1_555
O3 Pb7 2.892374 1_556
O3 Pb8 2.897291 1_555
O4 Pb0 2.878871 1_555
O4 Pb2 2.880734 1_554
O4 Pb4 2.895186 1_555
O4 Pb9 2.896360 1_644
O5 Pb3 2.879058 1_555
O5 Pb1 2.881844 1_555
O5 Pb10 2.895373 1_555
O5 Pb5 2.895975 1_555
O6 Pb2 2.879811 1_555
O6 Pb0 2.882110 1_455
O6 Pb6 2.894194 1_455
O6 Pb11 2.896829 1_545
O7 Pb3 2.878246 1_656
O7 Pb1 2.882270 1_555
O7 Pb7 2.894542 1_556
O7 Pb8 2.896848 1_655
O8 Pb0 2.880241 1_555
O8 Pb0 2.881958 1_455
O8 Pb11 2.882240 1_545
O8 Pb4 2.895644 1_555
O9 Pb1 2.880806 1_555
O9 Pb1 2.881325 1_455
O9 Pb5 2.893373 1_555
O9 Pb8 2.893596 1_555
O10 Pb2 2.880117 1_555
O10 Pb6 2.881968 1_555
O10 Pb2 2.882088 1_655
O10 Pb9 2.896883 1_645
O11 Pb3 2.880745 1_555
O11 Pb3 2.881385 1_655
O11 Pb7 2.884380 1_555
O11 Pb10 2.885335 1_555
O12 Pb0 2.859648 1_455
O12 Pb4 2.876065 1_555
O12 Pb6 2.896848 1_455
O12 Pb8 2.902160 1_555
O13 Pb1 2.870272 1_555
O13 Pb5 2.875076 1_655
O13 Pb7 2.896079 1_556
O13 Pb9 2.901223 1_655
O14 Pb6 2.869853 1_554
O14 Pb4 2.881218 1_555
O14 Pb2 2.886937 1_554
O14 Pb10 2.895755 1_555
O15 Pb7 2.870844 1_555
O15 Pb3 2.875345 1_555
O15 Pb5 2.881983 1_555
O15 Pb11 2.897479 1_555
O16 Pb11 2.869420 1_545
O16 Pb9 2.879994 1_644
O16 Pb0 2.886302 1_555
O16 Pb7 2.895824 1_545
O17 Pb1 2.870896 1_555
O17 Pb8 2.875279 1_555
O17 Pb10 2.895766 1_555
O17 Pb4 2.900422 1_555
O18 Pb2 2.858208 1_555
O18 Pb9 2.876710 1_545
O18 Pb11 2.897955 1_545
O18 Pb5 2.903252 1_545
O19 Pb10 2.870568 1_555
O19 Pb3 2.874823 1_655
O19 Pb8 2.882433 1_654
O19 Pb6 2.898149 1_554
O20 Pb0 2.859684 1_555
O20 Pb4 2.874290 1_555
O20 Pb6 2.897083 1_555
O20 Pb8 2.903040 1_555
O21 Pb1 2.870381 1_555
O21 Pb5 2.872545 1_555
O21 Pb7 2.896810 1_556
O21 Pb9 2.901795 1_555
O22 Pb6 2.870535 1_454
O22 Pb4 2.881118 1_555
O22 Pb2 2.887225 1_554
O22 Pb10 2.895459 1_455
O23 Pb7 2.872069 1_555
O23 Pb3 2.876215 1_655
O23 Pb5 2.881580 1_655
O23 Pb11 2.896653 1_555
O24 Pb11 2.871227 1_545
O24 Pb9 2.878965 1_544
O24 Pb0 2.886726 1_455
O24 Pb7 2.896114 1_545
O25 Pb1 2.871047 1_455
O25 Pb8 2.873701 1_555
O25 Pb10 2.895355 1_455
O25 Pb4 2.902014 1_555
O26 Pb2 2.858544 1_555
O26 Pb9 2.875720 1_645
O26 Pb11 2.897157 1_545
O26 Pb5 2.904382 1_645
O27 Pb10 2.872779 1_556
O27 Pb3 2.874705 1_556
O27 Pb8 2.881234 1_555
O27 Pb6 2.898549 1_555
O28 Pb0 2.851260 1_555
O28 Pb4 2.881040 1_555
O28 Pb4 2.882190 1_655
O28 Pb10 2.915844 1_555
O29 Pb1 2.863355 1_555
O29 Pb5 2.881168 1_555
O29 Pb5 2.882031 1_655
O29 Pb11 2.916005 1_555
O30 Pb6 2.879038 1_555
O30 Pb6 2.884079 1_455
O30 Pb2 2.884099 1_555
O30 Pb8 2.895420 1_555
O31 Pb3 2.871307 1_555
O31 Pb7 2.878908 1_555
O31 Pb7 2.884254 1_455
O31 Pb9 2.895621 1_554
O32 Pb11 2.877993 1_545
O32 Pb0 2.883828 1_555
O32 Pb11 2.885200 1_645
O32 Pb5 2.896820 1_645
O33 Pb1 2.863563 1_555
O33 Pb8 2.881599 1_655
O33 Pb8 2.881626 1_555
O33 Pb6 2.916686 1_555
O34 Pb2 2.851488 1_554
O34 Pb9 2.881038 1_544
O34 Pb9 2.882221 1_644
O34 Pb7 2.916826 1_545
O35 Pb3 2.871706 1_555
O35 Pb10 2.878092 1_455
O35 Pb10 2.885046 1_555
O35 Pb4 2.897267 1_555
