# generated using pymatgen
data_MgO
_symmetry_space_group_name_H-M   'P 1'
_cell_length_a   9.33079403
_cell_length_b   10.56575273
_cell_length_c   9.98181493
_cell_angle_alpha   97.46439341
_cell_angle_beta   89.44843460
_cell_angle_gamma   89.08072484
_symmetry_Int_Tables_number   1
_chemical_formula_structural   MgO
_chemical_formula_sum   'Mg40 O40'
_cell_volume   975.54289489
_cell_formula_units_Z   40
loop_
 _symmetry_equiv_pos_site_id
 _symmetry_equiv_pos_as_xyz
  1  'x, y, z'
loop_
 _atom_site_type_symbol
 _atom_site_label
 _atom_site_symmetry_multiplicity
 _atom_site_fract_x
 _atom_site_fract_y
 _atom_site_fract_z
 _atom_site_occupancy
  Mg  Mg0  1  0.70409200  0.86323100  0.87681400  1
  Mg  Mg1  1  0.28738600  0.54737200  0.65593700  1
  Mg  Mg2  1  0.87913100  0.52922800  0.09729800  1
  Mg  Mg3  1  0.61369300  0.74057800  0.59497300  1
  Mg  Mg4  1  0.39859100  0.72136300  0.38859800  1
  Mg  Mg5  1  0.24529800  0.75710200  0.06811800  1
  Mg  Mg6  1  0.57515000  0.08568200  0.85889500  1
  Mg  Mg7  1  0.58496200  0.51514000  0.84499900  1
  Mg  Mg8  1  0.01910600  0.47144400  0.51562000  1
  Mg  Mg9  1  0.81703900  0.94821200  0.60194400  1
  Mg  Mg10  1  0.47393100  0.28291800  0.65095700  1
  Mg  Mg11  1  0.06172300  0.83449000  0.46064800  1
  Mg  Mg12  1  0.84155100  0.63250300  0.74360700  1
  Mg  Mg13  1  0.10899200  0.00425100  0.22919300  1
  Mg  Mg14  1  0.09580500  0.57175300  0.88647300  1
  Mg  Mg15  1  0.90629900  0.78540200  0.08756900  1
  Mg  Mg16  1  0.91381700  0.32117300  0.27854800  1
  Mg  Mg17  1  0.77944000  0.07732000  0.12493400  1
  Mg  Mg18  1  0.78361800  0.27821700  0.90999900  1
  Mg  Mg19  1  0.46315900  0.96060000  0.58949800  1
  Mg  Mg20  1  0.94914900  0.12258700  0.41770400  1
  Mg  Mg21  1  0.55162100  0.14777500  0.38518400  1
  Mg  Mg22  1  0.46641700  0.91655000  0.13692100  1
  Mg  Mg23  1  0.35566100  0.38944300  0.96994100  1
  Mg  Mg24  1  0.77346000  0.24198700  0.60706800  1
  Mg  Mg25  1  0.55088400  0.28520900  0.13092000  1
  Mg  Mg26  1  0.13115100  0.57121300  0.23768400  1
  Mg  Mg27  1  0.41716300  0.79334600  0.79943500  1
  Mg  Mg28  1  0.23097100  0.23148500  0.12838200  1
  Mg  Mg29  1  0.24025500  0.22341500  0.42014200  1
  Mg  Mg30  1  0.59054400  0.47987300  0.51777300  1
  Mg  Mg31  1  0.35841200  0.42873000  0.32789900  1
  Mg  Mg32  1  0.06704200  0.30651100  0.84740600  1
  Mg  Mg33  1  0.80209500  0.63950900  0.36975900  1
  Mg  Mg34  1  0.18296800  0.04638200  0.62831200  1
  Mg  Mg35  1  0.09144800  0.78822100  0.76650800  1
  Mg  Mg36  1  0.56108300  0.60570600  0.16147400  1
  Mg  Mg37  1  0.72482600  0.91087800  0.33875400  1
  Mg  Mg38  1  0.30149400  0.03567200  0.93552400  1
  Mg  Mg39  1  0.96731700  0.05596300  0.84884300  1
  O  O0  1  0.77524700  0.05378900  0.92969500  1
  O  O1  1  0.40181500  0.24222800  0.27861000  1
  O  O2  1  0.89986500  0.44825200  0.90929300  1
  O  O3  1  0.61276600  0.02637100  0.22662300  1
  O  O4  1  0.40326600  0.70676800  0.60406300  1
  O  O5  1  0.52257000  0.54512300  0.34409900  1
  O  O6  1  0.54999500  0.84972400  0.43456000  1
  O  O7  1  0.85699000  0.81023500  0.44838200  1
  O  O8  1  0.18900500  0.70671800  0.37171200  1
  O  O9  1  0.90845600  0.78585000  0.88565800  1
  O  O10  1  0.25409300  0.94976500  0.10019000  1
  O  O11  1  0.06153600  0.65202100  0.08223200  1
  O  O12  1  0.12039700  0.01457600  0.43547800  1
  O  O13  1  0.25226000  0.42537300  0.15187400  1
  O  O14  1  0.08292900  0.19350400  0.26537000  1
  O  O15  1  0.94399400  0.50334400  0.29029800  1
  O  O16  1  0.31455100  0.96090500  0.74116800  1
  O  O17  1  0.62901300  0.24335100  0.77508400  1
  O  O18  1  0.47375400  0.46730800  0.68837100  1
  O  O19  1  0.41774400  0.20058200  0.98813200  1
  O  O20  1  0.12238100  0.15701400  0.95000100  1
  O  O21  1  0.50480900  0.92613200  0.94373000  1
  O  O22  1  0.41879400  0.73945800  0.17071000  1
  O  O23  1  0.90832100  0.95312300  0.20247600  1
  O  O24  1  0.63979100  0.68500200  0.81138500  1
  O  O25  1  0.60928000  0.29855500  0.49743800  1
  O  O26  1  0.01829200  0.93191500  0.67637100  1
  O  O27  1  0.76350400  0.07104000  0.48030200  1
  O  O28  1  0.55188200  0.45374400  0.02103000  1
  O  O29  1  0.04944400  0.60110400  0.68364300  1
  O  O30  1  0.75791000  0.67820000  0.17323100  1
  O  O31  1  0.22086000  0.42224800  0.83169000  1
  O  O32  1  0.76854400  0.27167700  0.13171200  1
  O  O33  1  0.63823000  0.92164400  0.69953800  1
  O  O34  1  0.75750700  0.59083300  0.55494500  1
  O  O35  1  0.22744100  0.41789300  0.48357700  1
  O  O36  1  0.24553100  0.71311700  0.86995500  1
  O  O37  1  0.36845800  0.13382700  0.55088000  1
  O  O38  1  0.92865300  0.20055400  0.74344300  1
  O  O39  1  0.92183200  0.30644900  0.47884800  1
loop_
_geom_bond_atom_site_label_1
_geom_bond_atom_site_label_2
_geom_bond_distance
_geom_bond_site_symmetry_2
Mg0 O24 2.014180 1_555
Mg0 O21 2.041214 1_555
Mg0 O33 2.045080 1_555
Mg0 O9 2.069879 1_555
Mg0 O0 2.132294 1_565
Mg1 O18 1.969569 1_555
Mg1 O4 2.132550 1_555
Mg1 O35 2.139147 1_555
Mg1 O29 2.288004 1_555
Mg1 O31 2.412204 1_555
Mg1 O36 2.602498 1_555
Mg2 O2 1.965123 1_554
Mg2 O30 1.986889 1_555
Mg2 O15 2.075206 1_555
Mg2 O11 2.172379 1_655
Mg3 O4 2.004615 1_555
Mg3 O34 2.054482 1_555
Mg3 O33 2.074035 1_555
Mg3 O6 2.173276 1_555
Mg3 O24 2.324998 1_555
Mg4 O8 1.971299 1_555
Mg4 O6 1.989451 1_555
Mg4 O5 2.170039 1_555
Mg4 O4 2.176945 1_555
Mg4 O22 2.214420 1_555
Mg5 O22 1.943185 1_555
Mg5 O36 1.972211 1_554
Mg5 O10 2.022265 1_555
Mg5 O11 2.071137 1_555
Mg6 O17 2.026952 1_555
Mg6 O0 2.041081 1_555
Mg6 O21 2.094127 1_545
Mg6 O19 2.189638 1_555
Mg6 O33 2.261313 1_545
Mg7 O18 1.902429 1_555
Mg7 O24 1.943694 1_555
Mg7 O28 1.973738 1_556
Mg8 O39 1.971943 1_455
Mg8 O35 2.026579 1_555
Mg8 O29 2.048031 1_555
Mg8 O15 2.425506 1_455
Mg8 O34 2.730847 1_455
Mg9 O27 1.951493 1_565
Mg9 O33 1.966276 1_555
Mg9 O7 2.001189 1_555
Mg9 O26 2.039024 1_655
Mg10 O18 1.935427 1_555
Mg10 O17 1.988349 1_555
Mg10 O25 2.001426 1_555
Mg10 O37 2.026747 1_555
Mg11 O8 1.907347 1_555
Mg11 O7 1.934439 1_455
Mg11 O12 2.034274 1_565
Mg11 O26 2.292262 1_555
Mg12 O29 2.033857 1_655
Mg12 O24 2.038131 1_555
Mg12 O34 2.044333 1_555
Mg12 O9 2.116121 1_555
Mg13 O10 1.889823 1_545
Mg13 O23 1.968131 1_445
Mg13 O14 1.995755 1_555
Mg13 O12 2.051668 1_555
Mg14 O31 1.964682 1_555
Mg14 O11 2.046566 1_556
Mg14 O36 2.082395 1_555
Mg14 O29 2.134957 1_555
Mg14 O2 2.289749 1_455
Mg15 O23 1.982333 1_555
Mg15 O11 2.000124 1_655
Mg15 O9 2.015966 1_554
Mg15 O30 2.051906 1_555
Mg16 O15 1.938341 1_555
Mg16 O39 2.027448 1_555
Mg16 O32 2.030023 1_555
Mg16 O14 2.051442 1_655
Mg17 O0 1.933187 1_554
Mg17 O3 1.969055 1_555
Mg17 O23 1.999597 1_545
Mg17 O32 2.046695 1_555
Mg18 O17 1.988948 1_555
Mg18 O2 2.114197 1_555
Mg18 O38 2.198941 1_555
Mg18 O32 2.226300 1_556
Mg18 O0 2.407147 1_555
Mg19 O6 1.973683 1_555
Mg19 O16 2.042779 1_555
Mg19 O33 2.043238 1_555
Mg19 O37 2.101733 1_565
Mg20 O27 1.945630 1_555
Mg20 O39 1.970884 1_555
Mg20 O12 1.971453 1_655
Mg20 O14 2.172844 1_655
Mg20 O23 2.646648 1_545
Mg21 O25 1.912657 1_555
Mg21 O3 1.976754 1_555
Mg21 O1 2.083551 1_555
Mg21 O27 2.377431 1_555
Mg21 O37 2.386445 1_555
Mg22 O3 1.953788 1_565
Mg22 O21 1.973798 1_554
Mg22 O22 2.000006 1_555
Mg22 O10 2.051257 1_555
Mg23 O31 1.936568 1_555
Mg23 O28 2.010395 1_556
Mg23 O13 2.036739 1_556
Mg23 O19 2.099874 1_555
Mg24 O25 2.018507 1_555
Mg24 O39 2.059421 1_555
Mg24 O27 2.070239 1_555
Mg24 O38 2.077032 1_555
Mg24 O17 2.139870 1_555
Mg25 O19 2.028019 1_554
Mg25 O32 2.033841 1_555
Mg25 O1 2.113993 1_555
Mg25 O28 2.209525 1_555
Mg26 O8 1.916266 1_555
Mg26 O11 1.975976 1_555
Mg26 O15 1.989987 1_455
Mg26 O13 1.991890 1_555
Mg27 O36 1.988877 1_555
Mg27 O4 2.049860 1_555
Mg27 O21 2.060624 1_555
Mg27 O16 2.147816 1_555
Mg27 O24 2.367225 1_555
Mg28 O14 2.015666 1_555
Mg28 O13 2.044563 1_555
Mg28 O20 2.124259 1_554
Mg28 O1 2.193244 1_555
Mg28 O19 2.218021 1_554
Mg29 O35 2.071249 1_555
Mg29 O37 2.084386 1_555
Mg29 O1 2.085532 1_555
Mg29 O14 2.138518 1_555
Mg29 O12 2.511306 1_555
Mg30 O25 1.905109 1_555
Mg30 O34 1.973802 1_555
Mg30 O18 2.032882 1_555
Mg30 O5 2.049522 1_555
Mg31 O5 1.974393 1_555
Mg31 O35 1.983801 1_555
Mg31 O1 2.001934 1_555
Mg31 O13 2.021874 1_555
Mg32 O31 1.918780 1_555
Mg32 O38 1.941122 1_455
Mg32 O20 2.052958 1_555
Mg32 O2 2.173432 1_455
Mg33 O7 1.949799 1_555
Mg33 O15 2.018454 1_555
Mg33 O34 2.023260 1_555
Mg33 O30 2.098549 1_555
Mg34 O16 1.961498 1_545
Mg34 O12 2.004657 1_555
Mg34 O26 2.061562 1_545
Mg34 O37 2.158166 1_555
Mg35 O26 1.978380 1_555
Mg35 O36 1.991941 1_555
Mg35 O9 2.073784 1_455
Mg35 O29 2.086302 1_555
Mg36 O22 1.916221 1_555
Mg36 O28 1.993115 1_555
Mg36 O30 1.999828 1_555
Mg36 O5 2.039580 1_555
Mg37 O7 2.033525 1_555
Mg37 O6 2.039007 1_555
Mg37 O3 2.042445 1_565
Mg37 O27 2.097234 1_565
Mg37 O23 2.262423 1_555
Mg38 O16 1.999191 1_545
Mg38 O10 2.026731 1_546
Mg38 O19 2.078984 1_555
Mg38 O20 2.082349 1_555
Mg38 O21 2.214124 1_545
Mg39 O0 1.960103 1_555
Mg39 O38 1.994534 1_555
Mg39 O20 2.012595 1_655
Mg39 O26 2.070237 1_645
