# generated using pymatgen
data_Bi2(CN2)3
_symmetry_space_group_name_H-M   'P 1'
_cell_length_a   6.42028264
_cell_length_b   6.76849357
_cell_length_c   15.28210509
_cell_angle_alpha   90.00000043
_cell_angle_beta   142.50707404
_cell_angle_gamma   58.18905980
_symmetry_Int_Tables_number   1
_chemical_formula_structural   Bi2(CN2)3
_chemical_formula_sum   'Bi2 C3 N6'
_cell_volume   202.10474869
_cell_formula_units_Z   1
loop_
 _symmetry_equiv_pos_site_id
 _symmetry_equiv_pos_as_xyz
  1  'x, y, z'
loop_
 _atom_site_type_symbol
 _atom_site_label
 _atom_site_symmetry_multiplicity
 _atom_site_fract_x
 _atom_site_fract_y
 _atom_site_fract_z
 _atom_site_occupancy
  Bi  Bi0  1  0.00000000  1.00000000  0.82508219  1
  Bi  Bi1  1  1.00000000  0.00000000  0.17491781  1
  C  C0  1  0.17380247  0.55079868  0.72460116  1
  C  C1  1  1.00000000  0.72460116  1.00000000  1
  C  C2  1  0.82619753  0.72460116  0.27539884  1
  N  N0  1  0.69518488  0.85057348  0.15740758  1
  N  N1  1  0.05791082  0.54575835  0.61164923  1
  N  N2  1  0.24690430  0.60366917  0.00798005  1
  N  N3  1  0.94208918  0.60366917  0.38835077  1
  N  N4  1  0.75309570  0.85057348  0.99201995  1
  N  N5  1  0.30481512  0.54575835  0.84259242  1
loop_
_geom_bond_atom_site_label_1
_geom_bond_atom_site_label_2
_geom_bond_distance
_geom_bond_site_symmetry_2
Bi0 N2 2.451006 1_556
Bi0 N1 2.451011 1_465
Bi0 N0 2.451015 1_556
Bi0 N4 2.485960 1_555
Bi0 N3 2.485961 1_365
Bi0 N5 2.485962 1_555
Bi1 N4 2.451006 1_544
Bi1 N3 2.451011 1_645
Bi1 N5 2.451015 1_554
Bi1 N2 2.485959 1_555
Bi1 N1 2.485961 1_745
Bi1 N0 2.485962 1_545
C0 N5 1.234100 1_555
C0 N1 1.234114 1_555
C1 N4 1.234114 1_555
C1 N2 1.234114 1_656
C2 N0 1.234100 1_555
C2 N3 1.234114 1_555
