# generated using pymatgen
data_KRu(NO2)4
_symmetry_space_group_name_H-M   'P 1'
_cell_length_a   10.41712600
_cell_length_b   8.76976100
_cell_length_c   9.80749278
_cell_angle_alpha   74.55308548
_cell_angle_beta   90.00000000
_cell_angle_gamma   90.00000000
_symmetry_Int_Tables_number   1
_chemical_formula_structural   KRu(NO2)4
_chemical_formula_sum   'K4 Ru4 N16 O32'
_cell_volume   863.60585478
_cell_formula_units_Z   4
loop_
 _symmetry_equiv_pos_site_id
 _symmetry_equiv_pos_as_xyz
  1  'x, y, z'
loop_
 _atom_site_type_symbol
 _atom_site_label
 _atom_site_symmetry_multiplicity
 _atom_site_fract_x
 _atom_site_fract_y
 _atom_site_fract_z
 _atom_site_occupancy
  K  K0  1  0.16382600  0.24562100  0.41895300  1
  K  K1  1  0.66382600  0.75437900  0.08104700  1
  K  K2  1  0.83617400  0.75437900  0.58104700  1
  K  K3  1  0.33617400  0.24562100  0.91895300  1
  Ru  Ru0  1  0.93133300  0.15634100  0.93129800  1
  Ru  Ru1  1  0.43133300  0.84365900  0.56870200  1
  Ru  Ru2  1  0.06866700  0.84365900  0.06870200  1
  Ru  Ru3  1  0.56866700  0.15634100  0.43129800  1
  N  N0  1  0.78293000  0.25847200  0.93657100  1
  N  N1  1  0.28293000  0.74152800  0.56342900  1
  N  N2  1  0.21707000  0.74152800  0.06342900  1
  N  N3  1  0.71707000  0.25847200  0.43657100  1
  N  N4  1  0.84938200  0.04925000  0.77597200  1
  N  N5  1  0.34938200  0.95075000  0.72402800  1
  N  N6  1  0.15061800  0.95075000  0.22402800  1
  N  N7  1  0.65061800  0.04925000  0.27597200  1
  N  N8  1  0.01747600  0.27656900  0.07361000  1
  N  N9  1  0.51747600  0.72343100  0.42639000  1
  N  N10  1  0.98252400  0.72343100  0.92639000  1
  N  N11  1  0.48252400  0.27656900  0.57361000  1
  N  N12  1  0.99475000  0.34216400  0.75205900  1
  N  N13  1  0.49475000  0.65783600  0.74794100  1
  N  N14  1  0.00525000  0.65783600  0.24794100  1
  N  N15  1  0.50525000  0.34216400  0.25205900  1
  O  O0  1  0.09567000  0.04787900  0.92718100  1
  O  O1  1  0.59567000  0.95212100  0.57281900  1
  O  O2  1  0.90433000  0.95212100  0.07281900  1
  O  O3  1  0.40433000  0.04787900  0.42718100  1
  O  O4  1  0.69054800  0.33277900  0.93418700  1
  O  O5  1  0.19054800  0.66722100  0.56581300  1
  O  O6  1  0.30945200  0.66722100  0.06581300  1
  O  O7  1  0.80945200  0.33277900  0.43418700  1
  O  O8  1  0.74452800  0.98365300  0.81082000  1
  O  O9  1  0.24452800  0.01634700  0.68918000  1
  O  O10  1  0.25547200  0.01634700  0.18918000  1
  O  O11  1  0.75547200  0.98365300  0.31082000  1
  O  O12  1  0.90388000  0.05149400  0.66276400  1
  O  O13  1  0.40388000  0.94850600  0.83723600  1
  O  O14  1  0.09612000  0.94850600  0.33723600  1
  O  O15  1  0.59612000  0.05149400  0.16276400  1
  O  O16  1  0.12396000  0.34204100  0.04980000  1
  O  O17  1  0.62396000  0.65795900  0.45020000  1
  O  O18  1  0.87604000  0.65795900  0.95020000  1
  O  O19  1  0.37604000  0.34204100  0.54980000  1
  O  O20  1  0.95501500  0.27204600  0.18243300  1
  O  O21  1  0.45501500  0.72795400  0.31756700  1
  O  O22  1  0.04498500  0.72795400  0.81756700  1
  O  O23  1  0.54498500  0.27204600  0.68243300  1
  O  O24  1  0.91597000  0.44241000  0.68709900  1
  O  O25  1  0.41597000  0.55759000  0.81290100  1
  O  O26  1  0.08403000  0.55759000  0.31290100  1
  O  O27  1  0.58403000  0.44241000  0.18709900  1
  O  O28  1  0.10792800  0.34071200  0.71268300  1
  O  O29  1  0.60792800  0.65928800  0.78731700  1
  O  O30  1  0.89207200  0.65928800  0.28731700  1
  O  O31  1  0.39207200  0.34071200  0.21268300  1
loop_
_geom_bond_atom_site_label_1
_geom_bond_atom_site_label_2
_geom_bond_distance
_geom_bond_site_symmetry_2
K0 O26 2.782457 1_555
K0 O19 2.797654 1_555
K0 O9 2.989113 1_555
K0 O14 3.006899 1_545
K0 O3 3.035799 1_555
K0 O31 3.089104 1_555
K0 O20 3.143207 1_455
K0 O28 3.257752 1_555
K1 O27 2.782457 1_555
K1 O18 2.797654 1_554
K1 O8 2.989113 1_554
K1 O15 3.006899 1_565
K1 O2 3.035799 1_555
K1 O30 3.089104 1_555
K1 O21 3.143207 1_555
K1 O29 3.257752 1_554
K2 O24 2.782457 1_555
K2 O17 2.797654 1_555
K2 O11 2.989113 1_555
K2 O12 3.006899 1_565
K2 O1 3.035799 1_555
K2 O29 3.089104 1_555
K2 O22 3.143207 1_655
K2 O30 3.257752 1_555
K3 O25 2.782457 1_555
K3 O16 2.797654 1_556
K3 O10 2.989113 1_556
K3 O13 3.006899 1_545
K3 O0 3.035799 1_555
K3 O28 3.089104 1_555
K3 O23 3.143207 1_555
K3 O31 3.257752 1_556
N0 O4 1.158970 1_555
N0 Ru0 1.794288 1_555
N1 O5 1.158970 1_555
N1 Ru1 1.794288 1_555
N2 O6 1.158970 1_555
N2 Ru2 1.794288 1_555
N3 O7 1.158970 1_555
N3 Ru3 1.794288 1_555
N4 O8 1.239387 1_545
N4 O12 1.242490 1_555
N4 Ru0 2.166461 1_555
N5 O9 1.239387 1_565
N5 O13 1.242490 1_555
N5 Ru1 2.166461 1_555
N6 O10 1.239387 1_565
N6 O14 1.242490 1_555
N6 Ru2 2.166461 1_555
N7 O11 1.239387 1_545
N7 O15 1.242490 1_555
N7 Ru3 2.166461 1_555
N8 O20 1.241561 1_455
N8 O16 1.242270 1_555
N8 Ru0 2.156135 1_454
N9 O21 1.241561 1_555
N9 O17 1.242270 1_555
N9 Ru1 2.156135 1_555
N10 O22 1.241561 1_655
N10 O18 1.242270 1_555
N10 Ru2 2.156135 1_656
N11 O23 1.241561 1_555
N11 O19 1.242270 1_555
N11 Ru3 2.156135 1_555
N12 O28 1.241746 1_655
N12 O24 1.246553 1_555
N12 Ru0 2.157837 1_555
N13 O29 1.241746 1_555
N13 O25 1.246553 1_555
N13 Ru1 2.157837 1_555
N14 O30 1.241746 1_455
N14 O26 1.246553 1_555
N14 Ru2 2.157837 1_555
N15 O31 1.241746 1_555
N15 O27 1.246553 1_555
N15 Ru3 2.157837 1_555
O0 Ru0 1.964055 1_455
O0 Ru2 1.972044 1_546
O1 Ru1 1.964055 1_555
O1 Ru3 1.972044 1_565
O2 Ru2 1.964055 1_655
O2 Ru0 1.972044 1_564
O3 Ru3 1.964055 1_555
O3 Ru1 1.972044 1_545
