# generated using pymatgen
data_MgIn2
_symmetry_space_group_name_H-M   'P 1'
_cell_length_a   16.59226639
_cell_length_b   16.59226639
_cell_length_c   10.55881326
_cell_angle_alpha   90.00000000
_cell_angle_beta   90.00000000
_cell_angle_gamma   156.50652154
_symmetry_Int_Tables_number   1
_chemical_formula_structural   MgIn2
_chemical_formula_sum   'Mg16 In32'
_cell_volume   1158.81073641
_cell_formula_units_Z   16
loop_
 _symmetry_equiv_pos_site_id
 _symmetry_equiv_pos_as_xyz
  1  'x, y, z'
loop_
 _atom_site_type_symbol
 _atom_site_label
 _atom_site_symmetry_multiplicity
 _atom_site_fract_x
 _atom_site_fract_y
 _atom_site_fract_z
 _atom_site_occupancy
  Mg  Mg0_0  1  0.30453483  0.19546517  0.12500000  1
  Mg  Mg0_1  1  0.30453483  0.19546517  0.62500000  1
  Mg  Mg0_2  1  0.30453483  0.69546518  0.12500000  1
  Mg  Mg0_3  1  0.30453483  0.69546518  0.62500000  1
  Mg  Mg0_4  1  0.80453482  0.19546518  0.12500000  1
  Mg  Mg0_5  1  0.80453482  0.19546518  0.62500000  1
  Mg  Mg0_6  1  0.80453482  0.69546518  0.12500000  1
  Mg  Mg0_7  1  0.80453482  0.69546518  0.62500000  1
  Mg  Mg1_0  1  0.19546517  0.30453483  0.37500000  1
  Mg  Mg1_1  1  0.19546517  0.30453483  0.87500000  1
  Mg  Mg1_2  1  0.19546518  0.80453482  0.37500000  1
  Mg  Mg1_3  1  0.19546518  0.80453482  0.87500000  1
  Mg  Mg1_4  1  0.69546518  0.30453483  0.37500000  1
  Mg  Mg1_5  1  0.69546518  0.30453483  0.87500000  1
  Mg  Mg1_6  1  0.69546518  0.80453482  0.37500000  1
  Mg  Mg1_7  1  0.69546518  0.80453482  0.87500000  1
  In  In0_0  1  0.13721324  0.36278677  0.12500000  1
  In  In0_1  1  0.13721324  0.36278677  0.62500000  1
  In  In0_2  1  0.13721324  0.86278676  0.12500000  1
  In  In0_3  1  0.13721324  0.86278676  0.62500000  1
  In  In0_4  1  0.63721324  0.36278677  0.12500000  1
  In  In0_5  1  0.63721324  0.36278677  0.62500000  1
  In  In0_6  1  0.63721324  0.86278676  0.12500000  1
  In  In0_7  1  0.63721324  0.86278676  0.62500000  1
  In  In1_0  1  0.47211197  0.02788804  0.12500000  1
  In  In1_1  1  0.47211197  0.02788804  0.62500000  1
  In  In1_2  1  0.47211197  0.52788804  0.12500000  1
  In  In1_3  1  0.47211197  0.52788804  0.62500000  1
  In  In1_4  1  0.97211196  0.02788804  0.12500000  1
  In  In1_5  1  0.97211196  0.02788804  0.62500000  1
  In  In1_6  1  0.97211196  0.52788804  0.12500000  1
  In  In1_7  1  0.97211196  0.52788804  0.62500000  1
  In  In2_0  1  0.36278677  0.13721323  0.37500000  1
  In  In2_1  1  0.36278677  0.13721323  0.87500000  1
  In  In2_2  1  0.36278677  0.63721324  0.37500000  1
  In  In2_3  1  0.36278677  0.63721324  0.87500000  1
  In  In2_4  1  0.86278677  0.13721323  0.37500000  1
  In  In2_5  1  0.86278677  0.13721323  0.87500000  1
  In  In2_6  1  0.86278676  0.63721324  0.37500000  1
  In  In2_7  1  0.86278676  0.63721324  0.87500000  1
  In  In3_0  1  0.02788804  0.47211197  0.37500000  1
  In  In3_1  1  0.02788804  0.47211197  0.87500000  1
  In  In3_2  1  0.02788804  0.97211196  0.37500000  1
  In  In3_3  1  0.02788804  0.97211196  0.87500000  1
  In  In3_4  1  0.52788804  0.47211197  0.37500000  1
  In  In3_5  1  0.52788804  0.47211197  0.87500000  1
  In  In3_6  1  0.52788804  0.97211196  0.37500000  1
  In  In3_7  1  0.52788804  0.97211196  0.87500000  1
loop_
_geom_bond_atom_site_label_1
_geom_bond_atom_site_label_2
_geom_bond_distance
_geom_bond_site_symmetry_2
In0_0 Mg0_2 3.173047 1_555
In0_0 Mg0_4 3.173047 1_455
In0_0 In2_5 3.232721 1_454
In0_0 In2_3 3.232721 1_554
In0_0 In2_4 3.232721 1_455
In0_0 In2_2 3.232721 1_555
In0_0 In1_4 3.234344 1_455
In0_0 In1_2 3.234344 1_555
In0_0 Mg1_1 3.248059 1_554
In0_0 Mg1_0 3.248059 1_555
In0_0 In0_6 3.377954 1_445
In0_0 In0_6 3.377954 1_555
In0_1 Mg0_3 3.173047 1_555
In0_1 Mg0_5 3.173047 1_455
In0_1 In2_4 3.232721 1_455
In0_1 In2_2 3.232721 1_555
In0_1 In2_5 3.232721 1_455
In0_1 In2_3 3.232721 1_555
In0_1 In1_5 3.234344 1_455
In0_1 In1_3 3.234344 1_555
In0_1 Mg1_0 3.248059 1_555
In0_1 Mg1_1 3.248059 1_555
In0_1 In0_7 3.377954 1_555
In0_1 In0_7 3.377954 1_445
In0_2 Mg0_0 3.173047 1_565
In0_2 Mg0_6 3.173047 1_455
In0_2 In2_1 3.232721 1_564
In0_2 In2_7 3.232721 1_454
In0_2 In2_0 3.232721 1_565
In0_2 In2_6 3.232721 1_455
In0_2 In1_6 3.234344 1_455
In0_2 In1_0 3.234344 1_565
In0_2 Mg1_3 3.248059 1_554
In0_2 Mg1_2 3.248059 1_555
In0_2 In0_4 3.377954 1_455
In0_2 In0_4 3.377954 1_565
In0_3 Mg0_1 3.173047 1_565
In0_3 Mg0_7 3.173047 1_455
In0_3 In2_0 3.232721 1_565
In0_3 In2_1 3.232721 1_565
In0_3 In2_6 3.232721 1_455
In0_3 In2_7 3.232721 1_455
In0_3 In1_7 3.234344 1_455
In0_3 In1_1 3.234344 1_565
In0_3 Mg1_2 3.248059 1_555
In0_3 Mg1_3 3.248059 1_555
In0_3 In0_5 3.377954 1_455
In0_3 In0_5 3.377954 1_565
In0_4 Mg0_0 3.173047 1_555
In0_4 Mg0_6 3.173047 1_555
In0_4 In2_1 3.232721 1_554
In0_4 In2_7 3.232721 1_554
In0_4 In2_6 3.232721 1_555
In0_4 In2_0 3.232721 1_555
In0_4 In1_6 3.234344 1_555
In0_4 In1_0 3.234344 1_555
In0_4 Mg1_5 3.248059 1_554
In0_4 Mg1_4 3.248059 1_555
In0_5 Mg0_1 3.173047 1_555
In0_5 Mg0_7 3.173047 1_555
In0_5 In2_6 3.232721 1_555
In0_5 In2_0 3.232721 1_555
In0_5 In2_7 3.232721 1_555
In0_5 In2_1 3.232721 1_555
In0_5 In1_7 3.234344 1_555
In0_5 In1_1 3.234344 1_555
In0_5 Mg1_4 3.248059 1_555
In0_5 Mg1_5 3.248059 1_555
In0_6 Mg0_2 3.173047 1_555
In0_6 Mg0_4 3.173047 1_565
In0_6 In2_5 3.232721 1_564
In0_6 In2_3 3.232721 1_554
In0_6 In2_4 3.232721 1_565
In0_6 In2_2 3.232721 1_555
In0_6 In1_2 3.234344 1_555
In0_6 In1_4 3.234344 1_565
In0_6 Mg1_7 3.248059 1_554
In0_6 Mg1_6 3.248059 1_555
In0_7 Mg0_3 3.173047 1_555
In0_7 Mg0_5 3.173047 1_565
In0_7 In2_4 3.232721 1_565
In0_7 In2_2 3.232721 1_555
In0_7 In2_5 3.232721 1_565
In0_7 In2_3 3.232721 1_555
In0_7 In1_3 3.234344 1_555
In0_7 In1_5 3.234344 1_565
In0_7 Mg1_6 3.248059 1_555
In0_7 Mg1_7 3.248059 1_555
In1_0 Mg0_2 3.166022 1_545
In1_0 Mg0_4 3.166022 1_555
In1_0 Mg1_3 3.251182 1_544
In1_0 Mg1_5 3.251182 1_554
In1_0 Mg1_2 3.251182 1_545
In1_0 Mg1_4 3.251182 1_555
In1_1 Mg0_5 3.166022 1_555
In1_1 Mg0_3 3.166022 1_545
In1_1 Mg1_2 3.251182 1_545
In1_1 Mg1_4 3.251182 1_555
In1_1 Mg1_5 3.251182 1_555
In1_1 Mg1_3 3.251182 1_545
In1_2 Mg0_6 3.166022 1_555
In1_2 Mg0_0 3.166022 1_555
In1_2 Mg1_7 3.251182 1_554
In1_2 Mg1_6 3.251182 1_555
In1_2 Mg1_1 3.251182 1_554
In1_2 Mg1_0 3.251182 1_555
In1_3 Mg0_7 3.166022 1_555
In1_3 Mg0_1 3.166022 1_555
In1_3 Mg1_6 3.251182 1_555
In1_3 Mg1_0 3.251182 1_555
In1_3 Mg1_7 3.251182 1_555
In1_3 Mg1_1 3.251182 1_555
In1_4 Mg0_6 3.166022 1_545
In1_4 Mg0_0 3.166022 1_655
In1_4 Mg1_7 3.251182 1_544
In1_4 Mg1_1 3.251182 1_654
In1_4 Mg1_6 3.251182 1_545
In1_4 Mg1_0 3.251182 1_655
In1_5 Mg0_7 3.166022 1_545
In1_5 Mg0_1 3.166022 1_655
In1_5 Mg1_6 3.251182 1_545
In1_5 Mg1_0 3.251182 1_655
In1_5 Mg1_1 3.251182 1_655
In1_5 Mg1_7 3.251182 1_545
In1_6 Mg0_2 3.166022 1_655
In1_6 Mg0_4 3.166022 1_555
In1_6 Mg1_3 3.251182 1_654
In1_6 Mg1_5 3.251182 1_554
In1_6 Mg1_4 3.251182 1_555
In1_6 Mg1_2 3.251182 1_655
In1_7 Mg0_5 3.166022 1_555
In1_7 Mg0_3 3.166022 1_655
In1_7 Mg1_4 3.251182 1_555
In1_7 Mg1_2 3.251182 1_655
In1_7 Mg1_3 3.251182 1_655
In1_7 Mg1_5 3.251182 1_555
In2_0 Mg1_4 3.173047 1_555
In2_0 Mg1_2 3.173047 1_545
In2_0 In3_2 3.234344 1_545
In2_0 In3_4 3.234344 1_555
In2_0 Mg0_1 3.248059 1_555
In2_0 Mg0_0 3.248059 1_555
In2_0 In2_6 3.377954 1_555
In2_0 In2_6 3.377954 1_445
In2_1 Mg1_5 3.173047 1_555
In2_1 Mg1_3 3.173047 1_545
In2_1 In3_3 3.234344 1_545
In2_1 In3_5 3.234344 1_555
In2_1 Mg0_0 3.248059 1_556
In2_1 Mg0_1 3.248059 1_555
In2_1 In2_7 3.377954 1_555
In2_1 In2_7 3.377954 1_445
In2_2 Mg1_0 3.173047 1_555
In2_2 Mg1_6 3.173047 1_555
In2_2 In3_6 3.234344 1_555
In2_2 In3_0 3.234344 1_555
In2_2 Mg0_3 3.248059 1_555
In2_2 Mg0_2 3.248059 1_555
In2_2 In2_4 3.377954 1_565
In2_2 In2_4 3.377954 1_455
In2_3 Mg1_1 3.173047 1_555
In2_3 Mg1_7 3.173047 1_555
In2_3 In3_7 3.234344 1_555
In2_3 In3_1 3.234344 1_555
In2_3 Mg0_2 3.248059 1_556
In2_3 Mg0_3 3.248059 1_555
In2_3 In2_5 3.377954 1_565
In2_3 In2_5 3.377954 1_455
In2_4 Mg1_0 3.173047 1_655
In2_4 Mg1_6 3.173047 1_545
In2_4 In3_6 3.234344 1_545
In2_4 In3_0 3.234344 1_655
In2_4 Mg0_5 3.248059 1_555
In2_4 Mg0_4 3.248059 1_555
In2_5 Mg1_1 3.173047 1_655
In2_5 Mg1_7 3.173047 1_545
In2_5 In3_7 3.234344 1_545
In2_5 In3_1 3.234344 1_655
In2_5 Mg0_4 3.248059 1_556
In2_5 Mg0_5 3.248059 1_555
In2_6 Mg1_4 3.173047 1_555
In2_6 Mg1_2 3.173047 1_655
In2_6 In3_4 3.234344 1_555
In2_6 In3_2 3.234344 1_655
In2_6 Mg0_7 3.248059 1_555
In2_6 Mg0_6 3.248059 1_555
In2_7 Mg1_5 3.173047 1_555
In2_7 Mg1_3 3.173047 1_655
In2_7 In3_5 3.234344 1_555
In2_7 In3_3 3.234344 1_655
In2_7 Mg0_6 3.248059 1_556
In2_7 Mg0_7 3.248059 1_555
In3_0 Mg1_4 3.166022 1_455
In3_0 Mg1_2 3.166022 1_555
In3_0 Mg0_4 3.251182 1_455
In3_0 Mg0_3 3.251182 1_555
In3_0 Mg0_5 3.251182 1_455
In3_0 Mg0_2 3.251182 1_555
In3_1 Mg1_3 3.166022 1_555
In3_1 Mg1_5 3.166022 1_455
In3_1 Mg0_4 3.251182 1_456
In3_1 Mg0_2 3.251182 1_556
In3_1 Mg0_5 3.251182 1_455
In3_1 Mg0_3 3.251182 1_555
In3_2 Mg1_6 3.166022 1_455
In3_2 Mg1_0 3.166022 1_565
In3_2 Mg0_7 3.251182 1_455
In3_2 Mg0_6 3.251182 1_455
In3_2 Mg0_0 3.251182 1_565
In3_2 Mg0_1 3.251182 1_565
In3_3 Mg1_7 3.166022 1_455
In3_3 Mg1_1 3.166022 1_565
In3_3 Mg0_6 3.251182 1_456
In3_3 Mg0_0 3.251182 1_566
In3_3 Mg0_7 3.251182 1_455
In3_3 Mg0_1 3.251182 1_565
In3_4 Mg1_6 3.166022 1_555
In3_4 Mg1_0 3.166022 1_555
In3_4 Mg0_6 3.251182 1_555
In3_4 Mg0_7 3.251182 1_555
In3_4 Mg0_1 3.251182 1_555
In3_4 Mg0_0 3.251182 1_555
In3_5 Mg1_7 3.166022 1_555
In3_5 Mg1_1 3.166022 1_555
In3_5 Mg0_6 3.251182 1_556
In3_5 Mg0_0 3.251182 1_556
In3_5 Mg0_7 3.251182 1_555
In3_5 Mg0_1 3.251182 1_555
In3_6 Mg1_4 3.166022 1_565
In3_6 Mg1_2 3.166022 1_555
In3_6 Mg0_3 3.251182 1_555
In3_6 Mg0_5 3.251182 1_565
In3_6 Mg0_2 3.251182 1_555
In3_6 Mg0_4 3.251182 1_565
In3_7 Mg1_3 3.166022 1_555
In3_7 Mg1_5 3.166022 1_565
In3_7 Mg0_4 3.251182 1_566
In3_7 Mg0_2 3.251182 1_556
In3_7 Mg0_3 3.251182 1_555
In3_7 Mg0_5 3.251182 1_565
