# generated using pymatgen
data_PmBi3
_symmetry_space_group_name_H-M   'P 1'
_cell_length_a   6.89690321
_cell_length_b   6.89690321
_cell_length_c   6.00184296
_cell_angle_alpha   90.00000000
_cell_angle_beta   90.00000000
_cell_angle_gamma   120.00000374
_symmetry_Int_Tables_number   1
_chemical_formula_structural   PmBi3
_chemical_formula_sum   'Pm2 Bi6'
_cell_volume   247.24271590
_cell_formula_units_Z   2
loop_
 _symmetry_equiv_pos_site_id
 _symmetry_equiv_pos_as_xyz
  1  'x, y, z'
loop_
 _atom_site_type_symbol
 _atom_site_label
 _atom_site_symmetry_multiplicity
 _atom_site_fract_x
 _atom_site_fract_y
 _atom_site_fract_z
 _atom_site_occupancy
  Pm  Pm0  1  0.33333300  0.66666700  0.75000000  1
  Pm  Pm1  1  0.66666700  0.33333300  0.25000000  1
  Bi  Bi0  1  0.17491602  0.34983204  0.25000000  1
  Bi  Bi1  1  0.65016796  0.82508398  0.25000000  1
  Bi  Bi2  1  0.17491602  0.82508398  0.25000000  1
  Bi  Bi3  1  0.82508398  0.65016796  0.75000000  1
  Bi  Bi4  1  0.34983204  0.17491602  0.75000000  1
  Bi  Bi5  1  0.82508398  0.17491602  0.75000000  1
loop_
_geom_bond_atom_site_label_1
_geom_bond_atom_site_label_2
_geom_bond_distance
_geom_bond_site_symmetry_2
Bi0 Bi1 3.277766 1_555
Bi0 Bi2 3.277767 1_555
Bi0 Pm1 3.449856 1_455
Bi0 Pm1 3.449863 1_555
Bi0 Pm0 3.547786 1_554
Bi0 Pm0 3.547786 1_555
Bi0 Bi1 3.619136 1_445
Bi0 Bi2 3.619137 1_545
Bi0 Bi5 3.656717 1_454
Bi0 Bi5 3.656717 1_455
Bi0 Bi4 3.656717 1_555
Bi0 Bi4 3.656717 1_554
Bi1 Bi2 3.277767 1_555
Bi1 Pm1 3.449856 1_565
Bi1 Pm1 3.449863 1_555
Bi1 Pm0 3.547786 1_555
Bi1 Pm0 3.547786 1_554
Bi1 Bi2 3.619137 1_655
Bi1 Bi5 3.656717 1_565
Bi1 Bi5 3.656717 1_564
Bi1 Bi3 3.656717 1_555
Bi1 Bi3 3.656717 1_554
Bi2 Pm1 3.449859 1_565
Bi2 Pm1 3.449859 1_455
Bi2 Pm0 3.547783 1_555
Bi2 Pm0 3.547783 1_554
Bi2 Bi4 3.656717 1_565
Bi2 Bi4 3.656717 1_564
Bi2 Bi3 3.656717 1_455
Bi2 Bi3 3.656717 1_454
Bi3 Bi4 3.277766 1_555
Bi3 Bi5 3.277767 1_555
Bi3 Pm0 3.449856 1_655
Bi3 Pm0 3.449863 1_555
Bi3 Pm1 3.547786 1_555
Bi3 Pm1 3.547786 1_556
Bi3 Bi4 3.619136 1_665
Bi3 Bi5 3.619137 1_565
Bi4 Bi5 3.277767 1_555
Bi4 Pm0 3.449856 1_545
Bi4 Pm0 3.449863 1_555
Bi4 Pm1 3.547786 1_555
Bi4 Pm1 3.547786 1_556
Bi4 Bi5 3.619137 1_455
Bi5 Pm0 3.449859 1_655
Bi5 Pm0 3.449859 1_545
Bi5 Pm1 3.547783 1_556
Bi5 Pm1 3.547783 1_555
