# generated using pymatgen
data_C2N2O5
_symmetry_space_group_name_H-M   'P 1'
_cell_length_a   3.89708100
_cell_length_b   9.20535400
_cell_length_c   10.19655500
_cell_angle_alpha   90.00000000
_cell_angle_beta   90.00000000
_cell_angle_gamma   90.00000000
_symmetry_Int_Tables_number   1
_chemical_formula_structural   C2N2O5
_chemical_formula_sum   'C4 N4 O10'
_cell_volume   365.79131779
_cell_formula_units_Z   2
loop_
 _symmetry_equiv_pos_site_id
 _symmetry_equiv_pos_as_xyz
  1  'x, y, z'
loop_
 _atom_site_type_symbol
 _atom_site_label
 _atom_site_symmetry_multiplicity
 _atom_site_fract_x
 _atom_site_fract_y
 _atom_site_fract_z
 _atom_site_occupancy
  C  C0  1  0.07181200  0.45708100  0.68573300  1
  C  C1  1  0.07181200  0.54291900  0.31426700  1
  C  C2  1  0.92818800  0.04291900  0.18573300  1
  C  C3  1  0.92818800  0.95708100  0.81426700  1
  N  N0  1  0.56608600  0.37845200  0.95726700  1
  N  N1  1  0.56608600  0.62154800  0.04273300  1
  N  N2  1  0.43391400  0.12154800  0.45726700  1
  N  N3  1  0.43391400  0.87845200  0.54273300  1
  O  O0  1  0.22912400  0.55346700  0.73187100  1
  O  O1  1  0.22912400  0.44653300  0.26812900  1
  O  O2  1  0.77087600  0.94653300  0.23187100  1
  O  O3  1  0.77087600  0.05346700  0.76812900  1
  O  O4  1  0.91364100  0.36136100  0.63896800  1
  O  O5  1  0.91364100  0.63863900  0.36103200  1
  O  O6  1  0.08635900  0.13863900  0.13896800  1
  O  O7  1  0.08635900  0.86136100  0.86103200  1
  O  O8  1  0.43390800  0.00000000  0.50000000  1
  O  O9  1  0.56609200  0.50000000  0.00000000  1
loop_
_geom_bond_atom_site_label_1
_geom_bond_atom_site_label_2
_geom_bond_distance
_geom_bond_site_symmetry_2
C0 O4 1.176323 1_455
C0 O0 1.176607 1_555
C1 O5 1.176323 1_455
C1 O1 1.176607 1_555
C2 O6 1.176323 1_655
C2 O2 1.176607 1_545
C3 O7 1.176323 1_655
C3 O3 1.176607 1_565
N0 O9 1.200742 1_556
N1 O9 1.200742 1_555
N2 O8 1.200742 1_555
N3 O8 1.200742 1_565
