# generated using pymatgen
data_LiCo6(OF5)2
_symmetry_space_group_name_H-M   'P 1'
_cell_length_a   4.80842791
_cell_length_b   4.82544775
_cell_length_c   9.69323250
_cell_angle_alpha   89.91553905
_cell_angle_beta   90.43385061
_cell_angle_gamma   90.49954106
_symmetry_Int_Tables_number   1
_chemical_formula_structural   LiCo6(OF5)2
_chemical_formula_sum   'Li1 Co6 O2 F10'
_cell_volume   224.89508709
_cell_formula_units_Z   1
loop_
 _symmetry_equiv_pos_site_id
 _symmetry_equiv_pos_as_xyz
  1  'x, y, z'
loop_
 _atom_site_type_symbol
 _atom_site_label
 _atom_site_symmetry_multiplicity
 _atom_site_fract_x
 _atom_site_fract_y
 _atom_site_fract_z
 _atom_site_occupancy
  Li  Li0  1  0.23090200  0.22467500  0.50711200  1
  Co  Co0  1  0.94857800  0.95190300  0.00406700  1
  Co  Co1  1  0.04473900  0.03483300  0.30944200  1
  Co  Co2  1  0.97129300  0.98362600  0.68378600  1
  Co  Co3  1  0.49322700  0.48913900  0.15957000  1
  Co  Co4  1  0.47701400  0.48522000  0.84949900  1
  Co  Co5  1  0.56573600  0.56383500  0.47373400  1
  O  O0  1  0.34216300  0.33982700  0.33085400  1
  O  O1  1  0.66492200  0.66437100  0.01223100  1
  F  F0  1  0.19894800  0.80131600  0.15725700  1
  F  F1  1  0.16428400  0.77865800  0.83876300  1
  F  F2  1  0.21467500  0.83411700  0.50056900  1
  F  F3  1  0.27054500  0.27476200  0.00667300  1
  F  F4  1  0.27835300  0.28402500  0.68743800  1
  F  F5  1  0.68150300  0.68646800  0.66352500  1
  F  F6  1  0.74131500  0.73178300  0.31181700  1
  F  F7  1  0.80309700  0.19348700  0.15959400  1
  F  F8  1  0.77028400  0.17241200  0.84009300  1
  F  F9  1  0.83286500  0.21387400  0.50397600  1
loop_
_geom_bond_atom_site_label_1
_geom_bond_atom_site_label_2
_geom_bond_distance
_geom_bond_site_symmetry_2
Li0 O0 1.876123 1_555
Co0 O1 1.939067 1_555
Co0 F7 2.038733 1_565
Co0 F0 2.041399 1_655
Co0 F8 2.093752 1_564
Co0 F1 2.094366 1_654
Co0 F3 2.186793 1_665
Co1 F0 2.007911 1_545
Co1 F7 2.008140 1_455
Co1 O0 2.052824 1_555
Co1 F6 2.056908 1_445
Co1 F2 2.241345 1_545
Co1 Li0 2.297102 1_555
Co1 F9 2.321486 1_455
Co2 F5 1.999551 1_555
Co2 F1 2.021534 1_655
Co2 F8 2.025157 1_565
Co2 F4 2.060218 1_665
Co2 F9 2.169087 1_565
Co2 F2 2.257007 1_655
Co3 O1 1.854302 1_555
Co3 O0 1.951650 1_555
Co3 F7 2.071826 1_555
Co3 F0 2.075715 1_555
Co3 F3 2.091487 1_555
Co3 F6 2.219444 1_555
Co4 O1 2.005174 1_556
Co4 F4 2.070838 1_555
Co4 F1 2.076381 1_555
Co4 F8 2.077200 1_555
Co4 F3 2.082996 1_556
Co4 F5 2.272576 1_555
Co5 F6 1.958896 1_555
Co5 F5 2.006603 1_555
Co5 O0 2.050334 1_555
Co5 F9 2.149006 1_555
Co5 F2 2.159685 1_555
Co5 Li0 2.309913 1_555
F2 Li0 1.886692 1_565
F4 Li0 1.784286 1_555
F9 Li0 1.914200 1_655
