# generated using pymatgen
data_LiSi2(AgO)8
_symmetry_space_group_name_H-M   'P 1'
_cell_length_a   5.06344220
_cell_length_b   6.97486748
_cell_length_c   8.09673851
_cell_angle_alpha   86.40620010
_cell_angle_beta   92.53065950
_cell_angle_gamma   91.68854565
_symmetry_Int_Tables_number   1
_chemical_formula_structural   LiSi2(AgO)8
_chemical_formula_sum   'Li1 Si2 Ag8 O8'
_cell_volume   285.00832285
_cell_formula_units_Z   1
loop_
 _symmetry_equiv_pos_site_id
 _symmetry_equiv_pos_as_xyz
  1  'x, y, z'
loop_
 _atom_site_type_symbol
 _atom_site_label
 _atom_site_symmetry_multiplicity
 _atom_site_fract_x
 _atom_site_fract_y
 _atom_site_fract_z
 _atom_site_occupancy
  Li  Li0  1  0.66508700  0.03748600  0.52830800  1
  Si  Si0  1  0.73518200  0.23917700  0.26155300  1
  Si  Si1  1  0.25230600  0.77034200  0.74002400  1
  Ag  Ag0  1  0.21490100  0.23559600  0.64742900  1
  Ag  Ag1  1  0.77330500  0.63713300  0.02055600  1
  Ag  Ag2  1  0.84356500  0.78074800  0.32950400  1
  Ag  Ag3  1  0.73538200  0.45848800  0.65000200  1
  Ag  Ag4  1  0.70392600  0.10237800  0.88758600  1
  Ag  Ag5  1  0.31650300  0.56089100  0.38755700  1
  Ag  Ag6  1  0.20537400  0.37645700  0.97065200  1
  Ag  Ag7  1  0.28617800  0.91783000  0.11175300  1
  O  O0  1  0.43082200  0.58242100  0.81019300  1
  O  O1  1  0.87993200  0.26399500  0.44676500  1
  O  O2  1  0.05852400  0.83193100  0.88779400  1
  O  O3  1  0.55873600  0.43205100  0.20326800  1
  O  O4  1  0.93445900  0.19423200  0.11297500  1
  O  O5  1  0.45393900  0.95537400  0.69583600  1
  O  O6  1  0.07680100  0.70884600  0.57273400  1
  O  O7  1  0.55007700  0.03962300  0.29801000  1
loop_
_geom_bond_atom_site_label_1
_geom_bond_atom_site_label_2
_geom_bond_distance
_geom_bond_site_symmetry_2
Li0 O5 1.818118 1_545
Li0 O7 1.928069 1_555
Li0 O1 1.986630 1_555
Ag0 O1 2.300393 1_455
Ag0 O5 2.332419 1_545
Ag1 O2 2.219363 1_654
Ag1 O3 2.280371 1_555
Ag1 O0 2.415699 1_554
Ag2 O6 2.286993 1_655
Ag2 O7 2.366559 1_565
Ag3 O0 2.281091 1_555
Ag3 O1 2.351288 1_555
Ag3 O6 2.491968 1_655
Ag4 O5 2.239083 1_545
Ag4 O4 2.240029 1_556
Ag4 O2 2.642150 1_645
Ag5 O3 2.221058 1_555
Ag5 O6 2.283537 1_555
Ag6 O4 2.162939 1_456
Ag6 O0 2.203431 1_555
Ag6 O3 2.579164 1_556
Ag7 O7 2.167304 1_565
Ag7 O2 2.210614 1_554
Ag7 O4 2.663586 1_465
O0 Si1 1.670012 1_555
O1 Si0 1.656502 1_555
O2 Si1 1.664856 1_555
O3 Si0 1.668735 1_555
O4 Si0 1.654305 1_555
O5 Si1 1.653076 1_555
O6 Si1 1.659051 1_555
O7 Si0 1.673001 1_555
