# generated using pymatgen
data_Mn3Zn2(AsO6)2
_symmetry_space_group_name_H-M   'P 1'
_cell_length_a   3.00551800
_cell_length_b   7.52234248
_cell_length_c   12.65335995
_cell_angle_alpha   102.08866281
_cell_angle_beta   96.82075372
_cell_angle_gamma   90.00000000
_symmetry_Int_Tables_number   1
_chemical_formula_structural   Mn3Zn2(AsO6)2
_chemical_formula_sum   'Mn3 Zn2 As2 O12'
_cell_volume   277.65923629
_cell_formula_units_Z   1
loop_
 _symmetry_equiv_pos_site_id
 _symmetry_equiv_pos_as_xyz
  1  'x, y, z'
loop_
 _atom_site_type_symbol
 _atom_site_label
 _atom_site_symmetry_multiplicity
 _atom_site_fract_x
 _atom_site_fract_y
 _atom_site_fract_z
 _atom_site_occupancy
  Mn  Mn0  1  0.00000000  0.00000000  0.00000000  1
  Mn  Mn1  1  0.58242400  0.32657900  0.16484900  1
  Mn  Mn2  1  0.41757600  0.67342100  0.83515100  1
  Zn  Zn0  1  0.20946900  0.37842500  0.41893900  1
  Zn  Zn1  1  0.79053100  0.62157500  0.58106100  1
  As  As0  1  0.39438700  0.16110000  0.78877400  1
  As  As1  1  0.60561300  0.83890000  0.21122700  1
  O  O0  1  0.41830900  0.38181700  0.83661800  1
  O  O1  1  0.58169100  0.61818300  0.16338200  1
  O  O2  1  0.85442600  0.08176600  0.70885200  1
  O  O3  1  0.14557400  0.91823400  0.29114800  1
  O  O4  1  0.02984700  0.25632000  0.05969400  1
  O  O5  1  0.97015300  0.74368000  0.94030600  1
  O  O6  1  0.24600300  0.65294700  0.49200600  1
  O  O7  1  0.75399700  0.34705300  0.50799400  1
  O  O8  1  0.55841600  0.97889500  0.11683100  1
  O  O9  1  0.44158400  0.02110500  0.88316900  1
  O  O10  1  0.13181400  0.33963200  0.26362800  1
  O  O11  1  0.86818600  0.66036800  0.73637200  1
loop_
_geom_bond_atom_site_label_1
_geom_bond_atom_site_label_2
_geom_bond_distance
_geom_bond_site_symmetry_2
Mn0 O4 1.915763 1_555
Mn0 O5 1.915763 1_444
Mn0 O8 2.129870 1_445
Mn0 O9 2.129870 1_554
Mn0 O8 2.129872 1_545
Mn0 O9 2.129872 1_454
Mn1 O10 1.938220 1_555
Mn1 O10 1.938223 1_655
Mn1 O4 1.997121 1_555
Mn1 O4 1.997123 1_655
Mn1 O1 2.197506 1_555
Mn1 O8 2.557083 1_545
Mn2 O11 1.938220 1_555
Mn2 O11 1.938223 1_455
Mn2 O5 1.997121 1_555
Mn2 O5 1.997123 1_455
Mn2 O0 2.197506 1_555
Mn2 O9 2.557083 1_565
As0 O0 1.642240 1_555
As0 O9 1.744231 1_555
As0 O2 1.835732 1_455
As0 O2 1.835732 1_555
As1 O1 1.642242 1_555
As1 O8 1.744241 1_555
As1 O3 1.835725 1_555
As1 O3 1.835728 1_655
O6 Zn1 1.917609 1_455
O6 Zn1 1.917611 1_555
O6 Zn0 2.075444 1_555
O7 Zn0 1.917609 1_655
O7 Zn0 1.917611 1_555
O7 Zn1 2.075444 1_555
O10 Zn0 1.911156 1_555
O11 Zn1 1.911156 1_555
