# generated using pymatgen
data_Li6V3P8O29
_symmetry_space_group_name_H-M   'P 1'
_cell_length_a   9.84709708
_cell_length_b   9.84709708
_cell_length_c   13.95420337
_cell_angle_alpha   89.86014702
_cell_angle_beta   89.86014702
_cell_angle_gamma   59.90439557
_symmetry_Int_Tables_number   1
_chemical_formula_structural   Li6V3P8O29
_chemical_formula_sum   'Li12 V6 P16 O58'
_cell_volume   1170.66113624
_cell_formula_units_Z   2
loop_
 _symmetry_equiv_pos_site_id
 _symmetry_equiv_pos_as_xyz
  1  'x, y, z'
loop_
 _atom_site_type_symbol
 _atom_site_label
 _atom_site_symmetry_multiplicity
 _atom_site_fract_x
 _atom_site_fract_y
 _atom_site_fract_z
 _atom_site_occupancy
  Li  Li0  1  0.90773300  0.77532900  0.68855300  1
  Li  Li1  1  0.90551500  0.32103700  0.19027000  1
  Li  Li2  1  0.66686000  0.66656000  0.86621300  1
  Li  Li3  1  0.77810500  0.31537100  0.69050600  1
  Li  Li4  1  0.31208800  0.91522000  0.68911700  1
  Li  Li5  1  0.68462900  0.22189500  0.30949400  1
  Li  Li6  1  0.31801400  0.77311600  0.19110600  1
  Li  Li7  1  0.67896300  0.09448500  0.80973000  1
  Li  Li8  1  0.22688400  0.68198600  0.80889400  1
  Li  Li9  1  0.33344000  0.33314000  0.13378700  1
  Li  Li10  1  0.08478000  0.68791200  0.31088300  1
  Li  Li11  1  0.22467100  0.09226700  0.31144700  1
  V  V0  1  0.56838400  0.43161600  0.50000000  1
  V  V1  1  0.43414300  0.56585700  0.00000000  1
  V  V2  1  0.56898400  0.99604700  0.00429700  1
  V  V3  1  0.43296700  0.00185500  0.49897000  1
  V  V4  1  0.99814500  0.56703300  0.50103000  1
  V  V5  1  0.00395300  0.43101600  0.99570300  1
  P  P0  1  0.91153700  0.77019600  0.90946700  1
  P  P1  1  0.76885800  0.91415000  0.40984300  1
  P  P2  1  0.91248700  0.32098000  0.40714600  1
  P  P3  1  0.66459600  0.66685500  0.62449400  1
  P  P4  1  0.66799900  0.66338600  0.12319300  1
  P  P5  1  0.77100000  0.32034300  0.90849600  1
  P  P6  1  0.67965700  0.22900000  0.09150400  1
  P  P7  1  0.32034000  0.91097800  0.90562000  1
  P  P8  1  0.67902000  0.08751300  0.59285400  1
  P  P9  1  0.32046300  0.76793900  0.40939100  1
  P  P10  1  0.23206100  0.67953700  0.59060900  1
  P  P11  1  0.33314500  0.33540400  0.37550600  1
  P  P12  1  0.33661400  0.33200100  0.87680700  1
  P  P13  1  0.08902200  0.67966000  0.09438000  1
  P  P14  1  0.22980400  0.08846300  0.09053300  1
  P  P15  1  0.08585000  0.23114200  0.59015700  1
  O  O0  1  0.00396300  0.75564800  0.18498000  1
  O  O1  1  0.91365600  0.74580500  0.41245900  1
  O  O2  1  0.75747700  0.00204600  0.68461300  1
  O  O3  1  0.74859400  0.91988400  0.90855900  1
  O  O4  1  0.88745000  0.62676000  0.92401500  1
  O  O5  1  0.81281100  0.67365500  0.58667100  1
  O  O6  1  0.89815900  0.48019900  0.42624000  1
  O  O7  1  0.99483100  0.23801500  0.67695200  1
  O  O8  1  0.91531300  0.33918100  0.91053300  1
  O  O9  1  0.66039100  0.81470200  0.07749800  1
  O  O10  1  0.61738700  0.90520800  0.42775400  1
  O  O11  1  0.81935300  0.51730900  0.08146700  1
  O  O12  1  0.66705300  0.66581900  0.73281100  1
  O  O13  1  0.66182800  0.66432300  0.22945900  1
  O  O14  1  0.67264200  0.51281300  0.58656000  1
  O  O15  1  0.48598500  0.88992600  0.92317000  1
  O  O16  1  0.51253900  0.81363600  0.58586400  1
  O  O17  1  0.74894100  0.33371800  0.40981700  1
  O  O18  1  0.78603000  0.21397000  0.00000000  1
  O  O19  1  0.75642400  0.24670100  0.18093700  1
  O  O20  1  0.75329900  0.24357600  0.81906300  1
  O  O21  1  0.62418600  0.48654900  0.92368400  1
  O  O22  1  0.51808400  0.66245800  0.08068800  1
  O  O23  1  0.66628200  0.25105900  0.59018300  1
  O  O24  1  0.48021700  0.61927400  0.42768100  1
  O  O25  1  0.33541300  0.91686000  0.40919600  1
  O  O26  1  0.79320300  0.99354400  0.50524400  1
  O  O27  1  0.76198500  0.00516900  0.32304800  1
  O  O28  1  0.24610000  0.99638900  0.18110200  1
  O  O29  1  0.66081900  0.08468700  0.08946700  1
  O  O30  1  0.51345100  0.37581400  0.07631600  1
  O  O31  1  0.33471000  0.74669200  0.90945600  1
  O  O32  1  0.48718700  0.32735800  0.41344000  1
  O  O33  1  0.38072600  0.51978300  0.57231900  1
  O  O34  1  0.24305000  0.75802000  0.68165900  1
  O  O35  1  0.24198000  0.75695000  0.31834100  1
  O  O36  1  0.20957300  0.79042700  0.50000000  1
  O  O37  1  0.25330800  0.66529000  0.09054400  1
  O  O38  1  0.48269100  0.18064700  0.91853300  1
  O  O39  1  0.51980100  0.10184100  0.57376000  1
  O  O40  1  0.33754200  0.48191600  0.91931200  1
  O  O41  1  0.33567700  0.33817200  0.77054100  1
  O  O42  1  0.33418100  0.33294700  0.26718900  1
  O  O43  1  0.18636400  0.48746100  0.41413600  1
  O  O44  1  0.37324000  0.11255000  0.07598500  1
  O  O45  1  0.32634500  0.18718900  0.41332900  1
  O  O46  1  0.08314000  0.66458700  0.59080400  1
  O  O47  1  0.00045200  0.78493800  0.00136100  1
  O  O48  1  0.00361100  0.75390000  0.81889800  1
  O  O49  1  0.11007400  0.51401500  0.07683000  1
  O  O50  1  0.18529800  0.33960900  0.92250200  1
  O  O51  1  0.09479200  0.38261300  0.57224600  1
  O  O52  1  0.25419500  0.08634400  0.58754100  1
  O  O53  1  0.24435200  0.99603700  0.81502000  1
  O  O54  1  0.21506200  0.99954800  0.99863900  1
  O  O55  1  0.08011600  0.25140600  0.09144100  1
  O  O56  1  0.99795400  0.24252300  0.31538700  1
  O  O57  1  0.00645600  0.20679700  0.49475600  1
loop_
_geom_bond_atom_site_label_1
_geom_bond_atom_site_label_2
_geom_bond_distance
_geom_bond_site_symmetry_2
Li0 O2 1.965540 1_565
Li0 O48 2.012674 1_655
Li0 O46 2.034662 1_655
Li0 O5 2.202091 1_555
Li1 O56 1.941619 1_555
Li1 O19 1.946095 1_555
Li1 O55 2.034404 1_655
Li1 O11 2.260036 1_555
Li2 O12 1.861543 1_555
Li2 O4 2.162347 1_555
Li2 O21 2.167999 1_555
Li2 O15 2.171312 1_555
Li3 O7 1.881194 1_555
Li3 O20 1.985560 1_555
Li3 O23 2.069913 1_555
Li3 O14 2.220605 1_555
Li4 O53 1.906197 1_555
Li4 O34 1.981337 1_555
Li4 O52 2.049978 1_565
Li4 O16 2.232860 1_555
Li5 O27 1.881194 1_555
Li5 O19 1.985560 1_555
Li5 O17 2.069913 1_555
Li5 O32 2.220605 1_555
Li6 O28 1.947389 1_555
Li6 O35 1.962102 1_555
Li6 O37 2.047586 1_555
Li6 O22 2.298514 1_555
Li7 O2 1.941619 1_555
Li7 O20 1.946095 1_555
Li7 O3 2.034404 1_545
Li7 O38 2.260036 1_555
Li8 O48 1.947389 1_555
Li8 O34 1.962102 1_555
Li8 O31 2.047586 1_555
Li8 O40 2.298514 1_555
Li9 O42 1.861543 1_555
Li9 O44 2.162347 1_555
Li9 O30 2.167999 1_555
Li9 O49 2.171312 1_555
Li10 O0 1.906197 1_555
Li10 O35 1.981337 1_555
Li10 O1 2.049978 1_455
Li10 O43 2.232860 1_555
Li11 O56 1.965540 1_455
Li11 O28 2.012674 1_545
Li11 O25 2.034662 1_545
Li11 O45 2.202091 1_555
O0 P13 1.493546 1_555
O1 P1 1.553015 1_555
O1 V4 1.960676 1_555
O2 P8 1.513981 1_555
O3 P0 1.541239 1_555
O3 V2 2.034302 1_556
O4 P0 1.557808 1_555
O4 V5 1.952083 1_655
O5 P3 1.583422 1_555
O5 V4 1.983671 1_555
O6 P2 1.526121 1_555
O6 V4 1.908760 1_555
O7 P15 1.486287 1_655
O8 P5 1.522903 1_555
O8 V5 1.947827 1_655
O9 P4 1.586193 1_555
O9 V2 1.850940 1_555
O10 P1 1.557154 1_555
O10 V3 1.858409 1_565
O11 P4 1.574553 1_555
O11 V5 1.975819 1_654
O12 P3 1.511658 1_555
O13 P4 1.483815 1_555
O14 P3 1.571798 1_555
O14 V0 1.996555 1_555
O15 P7 1.557594 1_555
O15 V2 1.976957 1_556
O16 P3 1.565674 1_555
O16 V3 2.014090 1_565
O17 P2 1.551717 1_555
O17 V0 1.987509 1_555
O18 P5 1.608848 1_554
O18 P6 1.608848 1_555
O19 P6 1.515600 1_555
O20 P5 1.515600 1_555
O21 P5 1.562316 1_555
O21 V1 1.942846 1_556
O22 P4 1.596545 1_555
O22 V1 1.911578 1_555
O23 P8 1.551717 1_555
O23 V0 1.987509 1_555
O24 P9 1.540602 1_555
O24 V0 1.890252 1_555
O25 P9 1.545512 1_555
O25 V3 2.002479 1_565
O26 P8 1.603249 1_565
O26 P1 1.623420 1_555
O27 P1 1.486287 1_545
O28 P14 1.514763 1_565
O29 P6 1.522903 1_555
O29 V2 1.947827 1_545
O30 P6 1.562316 1_555
O30 V1 1.942846 1_555
O31 P7 1.552421 1_555
O31 V1 1.993094 1_556
O32 P11 1.571798 1_555
O32 V0 1.996555 1_555
O33 P10 1.540602 1_555
O33 V0 1.890252 1_555
O34 P10 1.520709 1_555
O35 P9 1.520709 1_555
O36 P10 1.610017 1_555
O36 P9 1.610017 1_555
O37 P13 1.552421 1_555
O37 V1 1.993094 1_555
O38 P12 1.574553 1_555
O38 V2 1.975819 1_546
O39 P8 1.526121 1_555
O39 V3 1.908760 1_555
O40 P12 1.596545 1_555
O40 V1 1.911578 1_556
O41 P12 1.483815 1_555
O42 P11 1.511658 1_555
O43 P11 1.565674 1_555
O43 V4 2.014090 1_455
O44 P14 1.557808 1_555
O44 V2 1.952083 1_545
O45 P11 1.583422 1_555
O45 V3 1.983671 1_555
O46 P10 1.545512 1_555
O46 V4 2.002479 1_455
O47 P0 1.601824 1_454
O47 P13 1.616287 1_555
O48 P0 1.514763 1_455
O49 P13 1.557594 1_555
O49 V5 1.976957 1_554
O50 P12 1.586193 1_555
O50 V5 1.850940 1_555
O51 P15 1.557154 1_555
O51 V4 1.858409 1_455
O52 P15 1.553015 1_555
O52 V3 1.960676 1_555
O53 P7 1.493546 1_555
O54 P14 1.601824 1_566
O54 P7 1.616287 1_555
O55 P14 1.541239 1_555
O55 V5 2.034302 1_554
O56 P2 1.513981 1_555
O57 P2 1.603249 1_455
O57 P15 1.623420 1_555
