# generated using pymatgen
data_CeAl2Cu3
_symmetry_space_group_name_H-M   'P 1'
_cell_length_a   5.16874842
_cell_length_b   5.16874895
_cell_length_c   4.14771636
_cell_angle_alpha   90.00000000
_cell_angle_beta   90.00000000
_cell_angle_gamma   118.24513596
_symmetry_Int_Tables_number   1
_chemical_formula_structural   CeAl2Cu3
_chemical_formula_sum   'Ce1 Al2 Cu3'
_cell_volume   97.61616338
_cell_formula_units_Z   1
loop_
 _symmetry_equiv_pos_site_id
 _symmetry_equiv_pos_as_xyz
  1  'x, y, z'
loop_
 _atom_site_type_symbol
 _atom_site_label
 _atom_site_symmetry_multiplicity
 _atom_site_fract_x
 _atom_site_fract_y
 _atom_site_fract_z
 _atom_site_occupancy
  Ce  Ce0  1  0.50000000  0.50000000  -0.00000000  1
  Al  Al0  1  0.00000000  0.50000000  0.50000000  1
  Al  Al1  1  0.50000000  -0.00000000  0.50000000  1
  Cu  Cu0  1  0.16106691  0.83893309  0.00000000  1
  Cu  Cu1  1  0.83893309  0.16106691  -0.00000000  1
  Cu  Cu2  1  0.00000000  -0.00000000  0.50000000  1
loop_
_geom_bond_atom_site_label_1
_geom_bond_atom_site_label_2
_geom_bond_distance
_geom_bond_site_symmetry_2
Ce0 Cu0 3.007128 1_555
Ce0 Cu1 3.007128 1_555
Ce0 Cu0 3.013061 1_655
Ce0 Cu1 3.013061 1_455
Ce0 Cu0 3.013062 1_545
Ce0 Cu1 3.013062 1_565
Ce0 Cu2 3.367087 1_555
Ce0 Cu2 3.367087 1_554
Ce0 Cu2 3.367087 1_664
Ce0 Cu2 3.367087 1_665
Al0 Cu2 2.584374 1_565
Al0 Cu2 2.584374 1_555
Al0 Cu0 2.585068 1_556
Al0 Cu1 2.585068 1_456
Al0 Cu0 2.585068 1_555
Al0 Cu1 2.585068 1_455
Al0 Al1 2.652619 1_455
Al0 Al1 2.652619 1_565
Al0 Ce0 3.313590 1_455
Al0 Ce0 3.313590 1_556
Al0 Ce0 3.313590 1_555
Al0 Ce0 3.313590 1_456
Al1 Cu2 2.584374 1_555
Al1 Cu2 2.584374 1_655
Al1 Cu1 2.585068 1_556
Al1 Cu0 2.585068 1_546
Al1 Cu0 2.585068 1_545
Al1 Cu1 2.585068 1_555
Al1 Ce0 3.313590 1_546
Al1 Ce0 3.313590 1_556
Al1 Ce0 3.313590 1_555
Al1 Ce0 3.313590 1_545
Cu0 Cu2 2.518540 1_564
Cu0 Cu2 2.518540 1_565
Cu1 Cu2 2.518540 1_654
Cu1 Cu2 2.518540 1_655
