# generated using pymatgen
data_RbMgNiF6
_symmetry_space_group_name_H-M   'P 1'
_cell_length_a   7.28873255
_cell_length_b   7.28873255
_cell_length_c   7.28873255
_cell_angle_alpha   120.50652589
_cell_angle_beta   119.24581516
_cell_angle_gamma   90.21806760
_symmetry_Int_Tables_number   1
_chemical_formula_structural   RbMgNiF6
_chemical_formula_sum   'Rb2 Mg2 Ni2 F12'
_cell_volume   274.27380614
_cell_formula_units_Z   2
loop_
 _symmetry_equiv_pos_site_id
 _symmetry_equiv_pos_as_xyz
  1  'x, y, z'
loop_
 _atom_site_type_symbol
 _atom_site_label
 _atom_site_symmetry_multiplicity
 _atom_site_fract_x
 _atom_site_fract_y
 _atom_site_fract_z
 _atom_site_occupancy
  Rb  Rb0  1  0.87229800  0.62229800  0.25000000  1
  Rb  Rb1  1  0.12770200  0.37770200  0.75000000  1
  Mg  Mg0  1  0.50000000  0.00000000  0.00000000  1
  Mg  Mg1  1  0.50000000  0.50000000  0.50000000  1
  Ni  Ni0  1  0.50000000  0.00000000  0.50000000  1
  Ni  Ni1  1  0.00000000  0.00000000  0.00000000  1
  F  F0  1  0.81963400  0.06963400  0.75000000  1
  F  F1  1  0.42778100  0.67778100  0.75000000  1
  F  F2  1  0.82746600  0.68999500  0.76144900  1
  F  F3  1  0.42854600  0.06601700  0.73855100  1
  F  F4  1  0.82746600  0.06601700  0.13747100  1
  F  F5  1  0.42854600  0.68999500  0.36252900  1
  F  F6  1  0.18036600  0.93036600  0.25000000  1
  F  F7  1  0.57221900  0.32221900  0.25000000  1
  F  F8  1  0.17253400  0.31000500  0.23855100  1
  F  F9  1  0.57145400  0.93398300  0.26144900  1
  F  F10  1  0.17253400  0.93398300  0.86252900  1
  F  F11  1  0.57145400  0.31000500  0.63747100  1
loop_
_geom_bond_atom_site_label_1
_geom_bond_atom_site_label_2
_geom_bond_distance
_geom_bond_site_symmetry_2
F0 Ni0 1.977265 1_555
F0 Ni1 1.977265 1_656
F0 Rb1 3.169462 1_655
F1 Mg0 1.954915 1_566
F1 Mg1 1.954915 1_555
F1 Rb1 3.087270 1_555
F2 Ni1 1.887666 1_666
F2 Mg1 2.024183 1_555
F2 Rb1 3.162353 1_655
F3 Ni0 1.887666 1_555
F3 Mg0 2.024183 1_556
F3 Rb1 3.162353 1_555
F4 Ni1 1.887666 1_655
F4 Mg0 2.024183 1_555
F4 Rb1 3.162353 1_655
F5 Ni0 1.887666 1_565
F5 Mg1 2.024183 1_555
F5 Rb1 3.162353 1_554
F6 Ni0 1.977265 1_565
F6 Ni1 1.977265 1_565
F6 Rb0 3.169462 1_455
F7 Mg1 1.954915 1_555
F7 Mg0 1.954915 1_555
F7 Rb0 3.087270 1_555
F8 Ni1 1.887666 1_555
F8 Mg1 2.024183 1_555
F8 Rb0 3.162353 1_455
F9 Ni0 1.887666 1_565
F9 Mg0 2.024183 1_565
F9 Rb0 3.162353 1_555
F10 Ni1 1.887666 1_566
F10 Mg0 2.024183 1_566
F10 Rb0 3.162353 1_455
F11 Ni0 1.887666 1_555
F11 Mg1 2.024183 1_555
F11 Rb0 3.162353 1_556
