# generated using pymatgen
data_Yb6Mn25(Cl3O10)4
_symmetry_space_group_name_H-M   'P 1'
_cell_length_a   9.70674046
_cell_length_b   13.70894200
_cell_length_c   9.70674046
_cell_angle_alpha   90.00000000
_cell_angle_beta   90.00000000
_cell_angle_gamma   90.00000000
_symmetry_Int_Tables_number   1
_chemical_formula_structural   Yb6Mn25(Cl3O10)4
_chemical_formula_sum   'Yb6 Mn25 Cl12 O40'
_cell_volume   1291.66762345
_cell_formula_units_Z   1
loop_
 _symmetry_equiv_pos_site_id
 _symmetry_equiv_pos_as_xyz
  1  'x, y, z'
loop_
 _atom_site_type_symbol
 _atom_site_label
 _atom_site_symmetry_multiplicity
 _atom_site_fract_x
 _atom_site_fract_y
 _atom_site_fract_z
 _atom_site_occupancy
  Yb  Yb0  1  0.00000000  0.00000000  0.00000000  1
  Yb  Yb1  1  0.50000000  0.50000000  0.50000000  1
  Yb  Yb2  1  0.50000000  0.25029800  0.00000000  1
  Yb  Yb3  1  0.00000000  0.74970200  0.50000000  1
  Yb  Yb4  1  0.50000000  0.74970200  0.00000000  1
  Yb  Yb5  1  0.00000000  0.25029800  0.50000000  1
  Mn  Mn0  1  0.65103600  0.00000000  0.00000000  1
  Mn  Mn1  1  0.14892100  0.50000000  0.50000000  1
  Mn  Mn2  1  0.82225100  0.17244400  0.17774900  1
  Mn  Mn3  1  0.32750500  0.67725000  0.67249500  1
  Mn  Mn4  1  0.82225100  0.17244400  0.82225100  1
  Mn  Mn5  1  0.32750500  0.67725000  0.32750500  1
  Mn  Mn6  1  0.50000000  0.50000000  0.85107900  1
  Mn  Mn7  1  0.00000000  0.00000000  0.34896400  1
  Mn  Mn8  1  0.32750500  0.32275000  0.67249500  1
  Mn  Mn9  1  0.82225100  0.82755600  0.17774900  1
  Mn  Mn10  1  0.67249500  0.32275000  0.67249500  1
  Mn  Mn11  1  0.17774900  0.82755600  0.17774900  1
  Mn  Mn12  1  0.50000000  0.50000000  0.14892100  1
  Mn  Mn13  1  0.00000000  0.00000000  0.65103600  1
  Mn  Mn14  1  0.67249500  0.32275000  0.32750500  1
  Mn  Mn15  1  0.17774900  0.82755600  0.82225100  1
  Mn  Mn16  1  0.32750500  0.32275000  0.32750500  1
  Mn  Mn17  1  0.82225100  0.82755600  0.82225100  1
  Mn  Mn18  1  0.34896400  0.00000000  0.00000000  1
  Mn  Mn19  1  0.85107900  0.50000000  0.50000000  1
  Mn  Mn20  1  0.67249500  0.67725000  0.32750500  1
  Mn  Mn21  1  0.17774900  0.17244400  0.82225100  1
  Mn  Mn22  1  0.67249500  0.67725000  0.67249500  1
  Mn  Mn23  1  0.17774900  0.17244400  0.17774900  1
  Mn  Mn24  1  0.00000000  0.50000000  0.00000000  1
  Cl  Cl0  1  0.00000000  0.30519100  0.00000000  1
  Cl  Cl1  1  0.50000000  0.78190500  0.50000000  1
  Cl  Cl2  1  0.19814800  0.50000000  0.19814800  1
  Cl  Cl3  1  0.71872600  0.00000000  0.71872600  1
  Cl  Cl4  1  0.19814800  0.50000000  0.80185200  1
  Cl  Cl5  1  0.71872600  0.00000000  0.28127400  1
  Cl  Cl6  1  0.00000000  0.69480900  0.00000000  1
  Cl  Cl7  1  0.50000000  0.21809500  0.50000000  1
  Cl  Cl8  1  0.80185200  0.50000000  0.80185200  1
  Cl  Cl9  1  0.28127400  0.00000000  0.28127400  1
  Cl  Cl10  1  0.80185200  0.50000000  0.19814800  1
  Cl  Cl11  1  0.28127400  0.00000000  0.71872600  1
  O  O0  1  0.50000000  0.08740000  0.00000000  1
  O  O1  1  0.00000000  0.58775100  0.50000000  1
  O  O2  1  0.66099400  0.24895600  0.16394100  1
  O  O3  1  0.16394100  0.75104400  0.66099400  1
  O  O4  1  0.66099400  0.24895600  0.83605900  1
  O  O5  1  0.16394100  0.75104400  0.33900600  1
  O  O6  1  0.50000000  0.41224900  0.00000000  1
  O  O7  1  0.00000000  0.91260000  0.50000000  1
  O  O8  1  0.33900600  0.24895600  0.83605900  1
  O  O9  1  0.83605900  0.75104400  0.33900600  1
  O  O10  1  0.33900600  0.24895600  0.16394100  1
  O  O11  1  0.83605900  0.75104400  0.66099400  1
  O  O12  1  0.50000000  0.91260000  0.00000000  1
  O  O13  1  0.00000000  0.41224900  0.50000000  1
  O  O14  1  0.33900600  0.75104400  0.83605900  1
  O  O15  1  0.83605900  0.24895600  0.33900600  1
  O  O16  1  0.33900600  0.75104400  0.16394100  1
  O  O17  1  0.83605900  0.24895600  0.66099400  1
  O  O18  1  0.50000000  0.58775100  0.00000000  1
  O  O19  1  0.00000000  0.08740000  0.50000000  1
  O  O20  1  0.66099400  0.75104400  0.16394100  1
  O  O21  1  0.16394100  0.24895600  0.66099400  1
  O  O22  1  0.66099400  0.75104400  0.83605900  1
  O  O23  1  0.16394100  0.24895600  0.33900600  1
  O  O24  1  0.79689500  0.10353300  0.00000000  1
  O  O25  1  0.29501300  0.60082200  0.50000000  1
  O  O26  1  0.50000000  0.39917800  0.70498700  1
  O  O27  1  0.00000000  0.89646700  0.20310500  1
  O  O28  1  0.50000000  0.39917800  0.29501300  1
  O  O29  1  0.00000000  0.89646700  0.79689500  1
  O  O30  1  0.20310500  0.10353300  0.00000000  1
  O  O31  1  0.70498700  0.60082200  0.50000000  1
  O  O32  1  0.20310500  0.89646700  0.00000000  1
  O  O33  1  0.70498700  0.39917800  0.50000000  1
  O  O34  1  0.50000000  0.60082200  0.29501300  1
  O  O35  1  0.00000000  0.10353300  0.79689500  1
  O  O36  1  0.50000000  0.60082200  0.70498700  1
  O  O37  1  0.00000000  0.10353300  0.20310500  1
  O  O38  1  0.79689500  0.89646700  0.00000000  1
  O  O39  1  0.29501300  0.39917800  0.50000000  1
loop_
_geom_bond_atom_site_label_1
_geom_bond_atom_site_label_2
_geom_bond_distance
_geom_bond_site_symmetry_2
Mn0 O0 1.893395 1_555
Mn0 O12 1.893395 1_545
Mn0 O38 2.004751 1_545
Mn0 O24 2.004751 1_555
Mn1 O1 1.880618 1_555
Mn1 O13 1.880618 1_555
Mn1 O25 1.980232 1_555
Mn1 O39 1.980232 1_555
Mn2 O15 1.888982 1_555
Mn2 O2 1.888982 1_555
Mn2 O24 1.982400 1_555
Mn2 O37 1.982400 1_655
Mn3 O3 1.885890 1_555
Mn3 O14 1.885890 1_555
Mn3 O25 2.000185 1_555
Mn3 O36 2.000185 1_555
Mn4 O4 1.888982 1_555
Mn4 O17 1.888982 1_555
Mn4 O35 1.982400 1_655
Mn4 O24 1.982400 1_556
Mn5 O16 1.885890 1_555
Mn5 O5 1.885890 1_555
Mn5 O34 2.000185 1_555
Mn5 O25 2.000185 1_555
Mn6 O18 1.880618 1_556
Mn6 O6 1.880618 1_556
Mn6 O36 1.980232 1_555
Mn6 O26 1.980232 1_555
Mn7 O7 1.893395 1_545
Mn7 O19 1.893395 1_555
Mn7 O37 2.004751 1_555
Mn7 O27 2.004751 1_545
Mn8 O21 1.885890 1_555
Mn8 O8 1.885890 1_555
Mn8 O39 2.000185 1_555
Mn8 O26 2.000185 1_555
Mn9 O9 1.888982 1_555
Mn9 O20 1.888982 1_555
Mn9 O38 1.982400 1_555
Mn9 O27 1.982400 1_655
Mn10 O4 1.885890 1_555
Mn10 O17 1.885890 1_555
Mn10 O26 2.000185 1_555
Mn10 O33 2.000185 1_555
Mn11 O5 1.888982 1_555
Mn11 O16 1.888982 1_555
Mn11 O32 1.982400 1_555
Mn11 O27 1.982400 1_555
Mn12 O18 1.880618 1_555
Mn12 O6 1.880618 1_555
Mn12 O34 1.980232 1_555
Mn12 O28 1.980232 1_555
Mn13 O7 1.893395 1_545
Mn13 O19 1.893395 1_555
Mn13 O29 2.004751 1_545
Mn13 O35 2.004751 1_555
Mn14 O2 1.885890 1_555
Mn14 O15 1.885890 1_555
Mn14 O28 2.000185 1_555
Mn14 O33 2.000185 1_555
Mn15 O3 1.888982 1_555
Mn15 O14 1.888982 1_555
Mn15 O29 1.982400 1_555
Mn15 O32 1.982400 1_556
Mn16 O23 1.885890 1_555
Mn16 O10 1.885890 1_555
Mn16 O39 2.000185 1_555
Mn16 O28 2.000185 1_555
Mn17 O11 1.888982 1_555
Mn17 O22 1.888982 1_555
Mn17 O38 1.982400 1_556
Mn17 O29 1.982400 1_655
Mn18 O12 1.893395 1_545
Mn18 O0 1.893395 1_555
Mn18 O30 2.004751 1_555
Mn18 O32 2.004751 1_545
Mn19 O1 1.880618 1_655
Mn19 O13 1.880618 1_655
Mn19 O31 1.980232 1_555
Mn19 O33 1.980232 1_555
Mn20 O20 1.885890 1_555
Mn20 O9 1.885890 1_555
Mn20 O34 2.000185 1_555
Mn20 O31 2.000185 1_555
Mn21 O21 1.888982 1_555
Mn21 O8 1.888982 1_555
Mn21 O35 1.982400 1_555
Mn21 O30 1.982400 1_556
Mn22 O11 1.885890 1_555
Mn22 O22 1.885890 1_555
Mn22 O31 2.000185 1_555
Mn22 O36 2.000185 1_555
Mn23 O23 1.888982 1_555
Mn23 O10 1.888982 1_555
Mn23 O30 1.982400 1_555
Mn23 O37 1.982400 1_555
Cl0 Mn24 2.670625 1_555
Cl0 Mn21 3.043929 1_554
Cl0 Mn2 3.043929 1_455
Cl0 Mn23 3.043929 1_555
Cl0 Mn4 3.043929 1_454
Cl1 Mn3 2.768643 1_555
Cl1 Mn22 2.768643 1_555
Cl1 Mn5 2.768643 1_555
Cl1 Mn20 2.768643 1_555
Cl2 Mn24 2.720058 1_555
Cl2 Mn12 2.968707 1_555
Cl2 Mn1 2.968707 1_555
Cl2 Mn5 3.009601 1_555
Cl2 Mn16 3.009601 1_555
Cl3 Mn4 2.758301 1_555
Cl3 Mn17 2.758301 1_545
Cl3 Mn13 2.808202 1_655
Cl3 Mn0 2.808202 1_556
Cl4 Mn24 2.720058 1_556
Cl4 Mn6 2.968707 1_555
Cl4 Mn1 2.968707 1_555
Cl4 Mn8 3.009601 1_555
Cl4 Mn3 3.009601 1_555
Cl5 Mn2 2.758301 1_555
Cl5 Mn9 2.758301 1_545
Cl5 Mn7 2.808202 1_655
Cl5 Mn0 2.808202 1_555
Cl6 Mn24 2.670625 1_555
Cl6 Mn11 3.043929 1_555
Cl6 Mn9 3.043929 1_455
Cl6 Mn15 3.043929 1_554
Cl6 Mn17 3.043929 1_454
Cl7 Mn8 2.768643 1_555
Cl7 Mn14 2.768643 1_555
Cl7 Mn10 2.768643 1_555
Cl7 Mn16 2.768643 1_555
Cl8 Mn24 2.720058 1_656
Cl8 Mn6 2.968707 1_555
Cl8 Mn19 2.968707 1_555
Cl8 Mn10 3.009601 1_555
Cl8 Mn22 3.009601 1_555
Cl9 Mn23 2.758301 1_555
Cl9 Mn11 2.758301 1_545
Cl9 Mn18 2.808202 1_555
Cl9 Mn7 2.808202 1_555
Cl10 Mn24 2.720058 1_655
Cl10 Mn12 2.968707 1_555
Cl10 Mn19 2.968707 1_555
Cl10 Mn14 3.009601 1_555
Cl10 Mn20 3.009601 1_555
Cl11 Mn21 2.758301 1_555
Cl11 Mn15 2.758301 1_545
Cl11 Mn13 2.808202 1_555
Cl11 Mn18 2.808202 1_556
O0 Yb2 2.233159 1_555
O1 Yb3 2.220177 1_555
O2 Yb2 2.230425 1_555
O3 Yb3 2.230425 1_555
O4 Yb2 2.230425 1_556
O5 Yb3 2.230425 1_555
O6 Yb2 2.220177 1_555
O7 Yb3 2.233159 1_555
O8 Yb2 2.230425 1_556
O9 Yb3 2.230425 1_655
O10 Yb2 2.230425 1_555
O11 Yb3 2.230425 1_655
O12 Yb4 2.233159 1_555
O13 Yb5 2.220177 1_555
O14 Yb4 2.230425 1_556
O15 Yb5 2.230425 1_655
O16 Yb4 2.230425 1_555
O17 Yb5 2.230425 1_655
O18 Yb4 2.220177 1_555
O19 Yb5 2.233159 1_555
O20 Yb4 2.230425 1_555
O21 Yb5 2.230425 1_555
O22 Yb4 2.230425 1_556
O23 Yb5 2.230425 1_555
O24 Yb0 2.429250 1_655
O25 Yb1 2.422705 1_555
O26 Yb1 2.422705 1_555
O27 Yb0 2.429250 1_565
O28 Yb1 2.422705 1_555
O29 Yb0 2.429250 1_566
O30 Yb0 2.429250 1_555
O31 Yb1 2.422705 1_555
O32 Yb0 2.429250 1_565
O33 Yb1 2.422705 1_555
O34 Yb1 2.422705 1_555
O35 Yb0 2.429250 1_556
O36 Yb1 2.422705 1_555
O37 Yb0 2.429250 1_555
O38 Yb0 2.429250 1_665
O39 Yb1 2.422705 1_555
