# generated using pymatgen
data_NaZnAs
_symmetry_space_group_name_H-M   'P 1'
_cell_length_a   4.14144251
_cell_length_b   4.14144251
_cell_length_c   7.03559276
_cell_angle_alpha   90.00000000
_cell_angle_beta   90.00000000
_cell_angle_gamma   90.00000000
_symmetry_Int_Tables_number   1
_chemical_formula_structural   NaZnAs
_chemical_formula_sum   'Na2 Zn2 As2'
_cell_volume   120.67129331
_cell_formula_units_Z   2
loop_
 _symmetry_equiv_pos_site_id
 _symmetry_equiv_pos_as_xyz
  1  'x, y, z'
loop_
 _atom_site_type_symbol
 _atom_site_label
 _atom_site_symmetry_multiplicity
 _atom_site_fract_x
 _atom_site_fract_y
 _atom_site_fract_z
 _atom_site_occupancy
  Na  Na0  1  0.75000000  0.75000000  0.65049662  1
  Na  Na1  1  0.25000000  0.25000000  0.34950338  1
  Zn  Zn0  1  0.25000000  0.75000000  -0.00000000  1
  Zn  Zn1  1  0.75000000  0.25000000  0.00000000  1
  As  As0  1  0.25000000  0.25000000  0.78180696  1
  As  As1  1  0.75000000  0.75000000  0.21819304  1
loop_
_geom_bond_atom_site_label_1
_geom_bond_atom_site_label_2
_geom_bond_distance
_geom_bond_site_symmetry_2
Na0 Zn0 3.214714 1_656
Na0 Zn0 3.214714 1_556
Na0 Zn1 3.214714 1_566
Na0 Zn1 3.214714 1_556
Na1 Zn0 3.214714 1_545
Na1 Zn0 3.214714 1_555
Na1 Zn1 3.214714 1_455
Na1 Zn1 3.214714 1_555
As0 Zn1 2.577687 1_556
As0 Zn0 2.577687 1_546
As0 Zn1 2.577687 1_456
As0 Zn0 2.577687 1_556
As0 Na1 3.041512 1_555
As0 Na0 3.070711 1_545
As0 Na0 3.070711 1_455
As0 Na0 3.070711 1_555
As0 Na0 3.070711 1_445
As1 Zn0 2.577687 1_555
As1 Zn1 2.577687 1_565
As1 Zn1 2.577687 1_555
As1 Zn0 2.577687 1_655
As1 Na0 3.041512 1_555
As1 Na1 3.070711 1_565
As1 Na1 3.070711 1_555
As1 Na1 3.070711 1_655
As1 Na1 3.070711 1_665
