# generated using pymatgen
data_BAsH4NO4F
_symmetry_space_group_name_H-M   'P 1'
_cell_length_a   4.68496201
_cell_length_b   4.68496201
_cell_length_c   12.87528850
_cell_angle_alpha   89.95867099
_cell_angle_beta   89.95867099
_cell_angle_gamma   122.54957298
_symmetry_Int_Tables_number   1
_chemical_formula_structural   BAsH4NO4F
_chemical_formula_sum   'B2 As2 H8 N2 O8 F2'
_cell_volume   238.20902259
_cell_formula_units_Z   2
loop_
 _symmetry_equiv_pos_site_id
 _symmetry_equiv_pos_as_xyz
  1  'x, y, z'
loop_
 _atom_site_type_symbol
 _atom_site_label
 _atom_site_symmetry_multiplicity
 _atom_site_fract_x
 _atom_site_fract_y
 _atom_site_fract_z
 _atom_site_occupancy
  B  B0  1  0.57437100  0.25492200  0.69151800  1
  B  B1  1  0.25492200  0.57437100  0.19151800  1
  As  As0  1  0.90503500  0.93909400  0.77273200  1
  As  As1  1  0.93909400  0.90503500  0.27273200  1
  H  H0  1  0.80766700  0.28239600  0.96075500  1
  H  H1  1  0.28239600  0.80766700  0.46075500  1
  H  H2  1  0.78190300  0.62263200  0.98677100  1
  H  H3  1  0.62263200  0.78190300  0.48677100  1
  H  H4  1  0.42865200  0.25085900  0.95534000  1
  H  H5  1  0.25085900  0.42865200  0.45534000  1
  H  H6  1  0.61499200  0.29240100  0.07110900  1
  H  H7  1  0.29240100  0.61499200  0.57110900  1
  N  N0  1  0.66024500  0.36279100  0.99452100  1
  N  N1  1  0.36279100  0.66024500  0.49452100  1
  O  O0  1  0.77061700  0.51312900  0.77137600  1
  O  O1  1  0.51312900  0.77061700  0.27137600  1
  O  O2  1  0.56227100  0.94294200  0.72145100  1
  O  O3  1  0.94294200  0.56227100  0.22145100  1
  O  O4  1  0.22053900  0.16523800  0.67996900  1
  O  O5  1  0.16523800  0.22053900  0.17996900  1
  O  O6  1  0.00777100  0.06804800  0.89635400  1
  O  O7  1  0.06804800  0.00777000  0.39635400  1
  F  F0  1  0.72171900  0.37036900  0.59083300  1
  F  F1  1  0.37036900  0.72171900  0.09083300  1
loop_
_geom_bond_atom_site_label_1
_geom_bond_atom_site_label_2
_geom_bond_distance
_geom_bond_site_symmetry_2
B0 F0 1.430219 1_555
B0 O0 1.473842 1_555
B0 O4 1.482414 1_555
B0 O2 1.482585 1_545
B1 F1 1.430219 1_555
B1 O1 1.473842 1_555
B1 O5 1.482414 1_555
B1 O3 1.482585 1_455
As0 O6 1.679183 1_665
As0 O0 1.739875 1_555
As0 O4 1.744791 1_665
As0 O2 1.745749 1_555
As1 O7 1.679183 1_665
As1 O1 1.739875 1_555
As1 O5 1.744791 1_665
As1 O3 1.745749 1_555
H0 N0 1.042888 1_555
H1 N1 1.042888 1_555
H2 N0 1.034346 1_555
H3 N1 1.034346 1_555
H4 N0 1.046727 1_555
H5 N1 1.046727 1_555
H6 N0 1.024731 1_554
H7 N1 1.024731 1_555
