# generated using pymatgen
data_Tb24Fe3CoBi8
_symmetry_space_group_name_H-M   'P 1'
_cell_length_a   4.18406800
_cell_length_b   8.40304838
_cell_length_c   29.18045953
_cell_angle_alpha   89.95261703
_cell_angle_beta   90.00000000
_cell_angle_gamma   90.00000000
_symmetry_Int_Tables_number   1
_chemical_formula_structural   Tb24Fe3CoBi8
_chemical_formula_sum   'Tb24 Fe3 Co1 Bi8'
_cell_volume   1025.95326082
_cell_formula_units_Z   1
loop_
 _symmetry_equiv_pos_site_id
 _symmetry_equiv_pos_as_xyz
  1  'x, y, z'
loop_
 _atom_site_type_symbol
 _atom_site_label
 _atom_site_symmetry_multiplicity
 _atom_site_fract_x
 _atom_site_fract_y
 _atom_site_fract_z
 _atom_site_occupancy
  Tb  Tb0  1  0.00000000  0.37224900  0.19159900  1
  Tb  Tb1  1  0.00000000  0.87171900  0.44171300  1
  Tb  Tb2  1  0.00000000  0.37162900  0.69176200  1
  Tb  Tb3  1  0.00000000  0.87268300  0.94235600  1
  Tb  Tb4  1  0.50000000  0.09803100  0.25049100  1
  Tb  Tb5  1  0.50000000  0.59776100  0.50042200  1
  Tb  Tb6  1  0.50000000  0.09754000  0.75031500  1
  Tb  Tb7  1  0.50000000  0.59751400  0.00005000  1
  Tb  Tb8  1  0.50000000  0.68713900  0.15294100  1
  Tb  Tb9  1  0.50000000  0.18713000  0.40288200  1
  Tb  Tb10  1  0.50000000  0.68709900  0.65273200  1
  Tb  Tb11  1  0.50000000  0.18622200  0.90232700  1
  Tb  Tb12  1  0.50000000  0.19300800  0.10201000  1
  Tb  Tb13  1  0.50000000  0.69066900  0.35079400  1
  Tb  Tb14  1  0.50000000  0.19044700  0.60061300  1
  Tb  Tb15  1  0.50000000  0.68960400  0.85045000  1
  Tb  Tb16  1  0.00000000  0.21505400  0.00140500  1
  Tb  Tb17  1  0.00000000  0.71362000  0.25108600  1
  Tb  Tb18  1  0.00000000  0.21453500  0.50102900  1
  Tb  Tb19  1  0.00000000  0.71408700  0.75117400  1
  Tb  Tb20  1  0.00000000  0.87574200  0.05820700  1
  Tb  Tb21  1  0.00000000  0.37472400  0.30824500  1
  Tb  Tb22  1  0.00000000  0.87444700  0.55833300  1
  Tb  Tb23  1  0.00000000  0.37438500  0.80827400  1
  Fe  Fe0  1  0.50000000  0.47860900  0.24876000  1
  Fe  Fe1  1  0.50000000  0.98008700  0.49835100  1
  Fe  Fe2  1  0.50000000  0.47954000  0.74881100  1
  Co  Co0  1  0.50000000  0.98098400  0.99724800  1
  Bi  Bi0  1  0.00000000  0.98765600  0.16761800  1
  Bi  Bi1  1  0.00000000  0.48767200  0.41734100  1
  Bi  Bi2  1  0.00000000  0.98827500  0.66752000  1
  Bi  Bi3  1  0.00000000  0.48777800  0.91734100  1
  Bi  Bi4  1  0.00000000  0.49266900  0.08356100  1
  Bi  Bi5  1  0.00000000  0.99105500  0.33345300  1
  Bi  Bi6  1  0.00000000  0.49113200  0.58353600  1
  Bi  Bi7  1  0.00000000  0.99006400  0.83358600  1
loop_
_geom_bond_atom_site_label_1
_geom_bond_atom_site_label_2
_geom_bond_distance
_geom_bond_site_symmetry_2
Tb0 Tb17 3.354111 1_555
Tb0 Tb21 3.403865 1_555
Tb0 Tb4 3.554283 1_455
Tb0 Tb4 3.554283 1_555
Tb0 Tb8 3.556078 1_455
Tb0 Tb8 3.556078 1_555
Tb0 Tb12 3.672324 1_455
Tb0 Tb12 3.672324 1_555
Tb1 Tb18 3.361931 1_565
Tb1 Tb22 3.403121 1_555
Tb1 Tb5 3.550291 1_455
Tb1 Tb5 3.550291 1_555
Tb1 Tb9 3.560936 1_465
Tb1 Tb9 3.560936 1_565
Tb1 Tb13 3.706288 1_455
Tb1 Tb13 3.706288 1_555
Tb2 Tb23 3.399972 1_555
Tb2 Tb6 3.548813 1_455
Tb2 Tb6 3.548813 1_555
Tb3 Tb7 3.542740 1_456
Tb3 Tb7 3.542740 1_556
Tb10 Tb19 3.561017 1_655
Tb10 Tb19 3.561017 1_555
Tb10 Tb2 3.563153 1_555
Tb10 Tb2 3.563153 1_655
Tb10 Tb22 3.799433 1_555
Tb10 Tb22 3.799433 1_655
Tb11 Tb3 3.560540 1_545
Tb11 Tb3 3.560540 1_645
Tb11 Tb16 3.577033 1_556
Tb11 Tb16 3.577033 1_656
Tb11 Tb23 3.794967 1_555
Tb11 Tb23 3.794967 1_655
Tb12 Tb16 3.609482 1_555
Tb12 Tb16 3.609482 1_655
Tb12 Tb20 3.622648 1_645
Tb12 Tb20 3.622648 1_545
Tb13 Tb17 3.588622 1_555
Tb13 Tb17 3.588622 1_655
Tb13 Tb21 3.601684 1_655
Tb13 Tb21 3.601684 1_555
Tb14 Tb18 3.586210 1_555
Tb14 Tb18 3.586210 1_655
Tb14 Tb22 3.599322 1_545
Tb14 Tb22 3.599322 1_645
Tb14 Tb2 3.711553 1_655
Tb14 Tb2 3.711553 1_555
Tb15 Tb19 3.579118 1_655
Tb15 Tb19 3.579118 1_555
Tb15 Tb23 3.593439 1_555
Tb15 Tb23 3.593439 1_655
Tb15 Tb3 3.733971 1_655
Tb15 Tb3 3.733971 1_555
Tb16 Tb20 3.296843 1_545
Tb16 Tb3 3.354712 1_544
Tb16 Tb7 3.834927 1_455
Tb16 Tb7 3.834927 1_555
Tb17 Tb21 3.299069 1_555
Tb17 Tb8 3.553757 1_555
Tb17 Tb8 3.553757 1_455
Tb17 Tb4 3.848527 1_465
Tb17 Tb4 3.848527 1_565
Tb18 Tb22 3.309847 1_545
Tb18 Tb9 3.554304 1_555
Tb18 Tb9 3.554304 1_455
Tb18 Tb5 3.840175 1_555
Tb18 Tb5 3.840175 1_455
Tb19 Tb23 3.304047 1_555
Tb19 Tb2 3.360799 1_555
Tb19 Tb6 3.841810 1_565
Tb19 Tb6 3.841810 1_465
Tb20 Tb3 3.380704 1_554
Tb20 Tb7 3.567802 1_455
Tb20 Tb7 3.567802 1_555
Tb20 Tb8 3.810890 1_455
Tb20 Tb8 3.810890 1_555
Tb21 Tb4 3.553760 1_455
Tb21 Tb4 3.553760 1_555
Tb21 Tb9 3.805323 1_555
Tb21 Tb9 3.805323 1_455
Tb22 Tb5 3.555899 1_455
Tb22 Tb5 3.555899 1_555
Tb23 Tb6 3.557439 1_455
Tb23 Tb6 3.557439 1_555
Fe0 Tb0 2.821352 1_555
Fe0 Tb0 2.821352 1_655
Fe0 Tb21 2.854670 1_555
Fe0 Tb21 2.854670 1_655
Fe0 Tb17 2.877726 1_555
Fe0 Tb17 2.877726 1_655
Fe0 Tb4 3.198372 1_555
Fe0 Tb8 3.298524 1_555
Fe0 Tb13 3.471171 1_555
Fe1 Tb1 2.817769 1_555
Fe1 Tb1 2.817769 1_655
Fe1 Tb22 2.868031 1_655
Fe1 Tb22 2.868031 1_555
Fe1 Tb18 2.874748 1_565
Fe1 Tb18 2.874748 1_665
Fe1 Tb5 3.213222 1_555
Fe1 Tb9 3.283246 1_565
Fe1 Tb14 3.469572 1_565
Fe2 Tb2 2.823585 1_655
Fe2 Tb2 2.823585 1_555
Fe2 Tb23 2.857557 1_555
Fe2 Tb23 2.857557 1_655
Fe2 Tb19 2.875078 1_555
Fe2 Tb19 2.875078 1_655
Fe2 Tb6 3.210228 1_555
Fe2 Tb10 3.300641 1_555
Fe2 Tb15 3.452668 1_555
Co0 Tb3 2.787993 1_555
Co0 Tb3 2.787993 1_655
Co0 Tb16 2.874094 1_566
Co0 Tb16 2.874094 1_666
Co0 Tb20 2.884485 1_656
Co0 Tb20 2.884485 1_556
Co0 Tb7 3.223287 1_556
Co0 Tb11 3.261661 1_565
Co0 Tb12 3.539569 1_566
Bi0 Tb0 3.307213 1_565
Bi0 Tb8 3.307379 1_455
Bi0 Tb8 3.307379 1_555
Bi0 Tb12 3.318732 1_465
Bi0 Tb12 3.318732 1_565
Bi0 Tb20 3.329032 1_555
Bi0 Tb4 3.329953 1_565
Bi0 Tb4 3.329953 1_465
Bi0 Tb17 3.350469 1_555
Bi1 Tb1 3.305175 1_555
Bi1 Tb9 3.306717 1_455
Bi1 Tb9 3.306717 1_555
Bi1 Tb21 3.322694 1_555
Bi1 Tb13 3.324414 1_455
Bi1 Tb13 3.324414 1_555
Bi1 Tb5 3.333696 1_555
Bi1 Tb5 3.333696 1_455
Bi1 Tb18 3.349959 1_555
Bi2 Tb2 3.298669 1_565
Bi2 Tb10 3.312032 1_455
Bi2 Tb10 3.312032 1_555
Bi2 Tb6 3.325707 1_565
Bi2 Tb6 3.325707 1_465
Bi2 Tb14 3.327014 1_465
Bi2 Tb14 3.327014 1_565
Bi2 Tb22 3.327362 1_555
Bi2 Tb19 3.355289 1_555
Bi3 Tb11 3.315342 1_455
Bi3 Tb11 3.315342 1_555
Bi3 Tb3 3.316310 1_555
Bi3 Tb23 3.322956 1_555
Bi3 Tb7 3.324982 1_456
Bi3 Tb7 3.324982 1_556
Bi3 Tb15 3.325258 1_555
Bi3 Tb15 3.325258 1_455
Bi3 Tb16 3.355590 1_556
Bi4 Tb20 3.302312 1_555
Bi4 Tb0 3.310216 1_555
Bi4 Tb12 3.317355 1_555
Bi4 Tb12 3.317355 1_455
Bi4 Tb7 3.329816 1_455
Bi4 Tb7 3.329816 1_555
Bi4 Tb8 3.339350 1_455
Bi4 Tb8 3.339350 1_555
Bi4 Tb16 3.346423 1_555
Bi5 Tb21 3.306246 1_565
Bi5 Tb1 3.313624 1_555
Bi5 Tb13 3.316915 1_455
Bi5 Tb13 3.316915 1_555
Bi5 Tb4 3.322902 1_565
Bi5 Tb4 3.322902 1_465
Bi5 Tb9 3.346843 1_565
Bi5 Tb9 3.346843 1_465
Bi5 Tb17 3.349787 1_555
Bi6 Tb22 3.303314 1_555
Bi6 Tb2 3.313103 1_555
Bi6 Tb14 3.317666 1_555
Bi6 Tb14 3.317666 1_455
Bi6 Tb5 3.325349 1_455
Bi6 Tb5 3.325349 1_555
Bi6 Tb10 3.342281 1_455
Bi6 Tb10 3.342281 1_555
Bi6 Tb18 3.347825 1_555
Bi7 Tb23 3.312261 1_565
Bi7 Tb15 3.315302 1_555
Bi7 Tb15 3.315302 1_455
Bi7 Tb3 3.322911 1_555
Bi7 Tb6 3.330609 1_565
Bi7 Tb6 3.330609 1_465
Bi7 Tb11 3.335065 1_465
Bi7 Tb11 3.335065 1_565
Bi7 Tb19 3.342210 1_555
