# generated using pymatgen
data_YGePd2
_symmetry_space_group_name_H-M   'P 1'
_cell_length_a   5.57865198
_cell_length_b   7.07563600
_cell_length_c   7.38868610
_cell_angle_alpha   90.00000000
_cell_angle_beta   90.00000000
_cell_angle_gamma   90.00000000
_symmetry_Int_Tables_number   1
_chemical_formula_structural   YGePd2
_chemical_formula_sum   'Y4 Ge4 Pd8'
_cell_volume   291.64999174
_cell_formula_units_Z   4
loop_
 _symmetry_equiv_pos_site_id
 _symmetry_equiv_pos_as_xyz
  1  'x, y, z'
loop_
 _atom_site_type_symbol
 _atom_site_label
 _atom_site_symmetry_multiplicity
 _atom_site_fract_x
 _atom_site_fract_y
 _atom_site_fract_z
 _atom_site_occupancy
  Y  Y0  1  0.14543927  0.75000000  0.52920327  1
  Y  Y1  1  0.85456073  0.25000000  0.47079673  1
  Y  Y2  1  0.64543927  0.25000000  0.97079673  1
  Y  Y3  1  0.35456073  0.75000000  0.02920327  1
  Ge  Ge0  1  0.85604227  0.75000000  0.87871580  1
  Ge  Ge1  1  0.14395773  0.25000000  0.12128420  1
  Ge  Ge2  1  0.35604227  0.25000000  0.62128420  1
  Ge  Ge3  1  0.64395773  0.75000000  0.37871580  1
  Pd  Pd0  1  0.58871130  0.55189908  0.68072757  1
  Pd  Pd1  1  0.41128870  0.44810092  0.31927243  1
  Pd  Pd2  1  0.08871130  0.44810092  0.81927243  1
  Pd  Pd3  1  0.41128870  0.05189908  0.31927243  1
  Pd  Pd4  1  0.91128870  0.55189908  0.18072757  1
  Pd  Pd5  1  0.58871130  0.94810092  0.68072757  1
  Pd  Pd6  1  0.91128870  0.94810092  0.18072757  1
  Pd  Pd7  1  0.08871130  0.05189908  0.81927243  1
loop_
_geom_bond_atom_site_label_1
_geom_bond_atom_site_label_2
_geom_bond_distance
_geom_bond_site_symmetry_2
Ge0 Pd5 2.515720 1_555
Ge0 Pd0 2.515720 1_555
Ge0 Pd2 2.537853 1_655
Ge0 Pd7 2.537853 1_665
Ge0 Pd4 2.653146 1_556
Ge0 Pd6 2.653146 1_556
Ge0 Y3 2.995101 1_656
Ge0 Y3 3.010456 1_556
Ge0 Y0 3.045558 1_655
Ge1 Pd1 2.515720 1_555
Ge1 Pd3 2.515720 1_555
Ge1 Pd4 2.537853 1_455
Ge1 Pd6 2.537853 1_445
Ge1 Pd7 2.653146 1_554
Ge1 Pd2 2.653146 1_554
Ge1 Y2 2.995101 1_454
Ge1 Y2 3.010456 1_554
Ge1 Y1 3.045558 1_455
Ge2 Pd2 2.515720 1_555
Ge2 Pd7 2.515720 1_555
Ge2 Pd0 2.537853 1_555
Ge2 Pd5 2.537853 1_545
Ge2 Pd3 2.653146 1_555
Ge2 Pd1 2.653146 1_555
Ge2 Y1 2.995101 1_555
Ge2 Y1 3.010456 1_455
Ge2 Y2 3.045558 1_555
Ge3 Pd4 2.515720 1_555
Ge3 Pd6 2.515720 1_555
Ge3 Pd1 2.537853 1_555
Ge3 Pd3 2.537853 1_565
Ge3 Pd5 2.653146 1_555
Ge3 Pd0 2.653146 1_555
Ge3 Y0 2.995101 1_555
Ge3 Y0 3.010456 1_655
Ge3 Y3 3.045558 1_555
Pd0 Y1 3.027957 1_555
Pd0 Y2 3.042471 1_555
Pd0 Y0 3.055029 1_555
Pd0 Y3 3.209438 1_556
Pd1 Y0 3.027957 1_555
Pd1 Y3 3.042471 1_555
Pd1 Y1 3.055029 1_555
Pd1 Y2 3.209438 1_554
Pd2 Y3 3.027957 1_556
Pd2 Y0 3.042471 1_555
Pd2 Y2 3.055029 1_455
Pd2 Y1 3.209438 1_455
Pd3 Y0 3.027957 1_545
Pd3 Y3 3.042471 1_545
Pd3 Y1 3.055029 1_555
Pd3 Y2 3.209438 1_554
Pd4 Y2 3.027957 1_554
Pd4 Y1 3.042471 1_555
Pd4 Y3 3.055029 1_655
Pd4 Y0 3.209438 1_655
Pd5 Y1 3.027957 1_565
Pd5 Y2 3.042471 1_565
Pd5 Y0 3.055029 1_555
Pd5 Y3 3.209438 1_556
Pd6 Y2 3.027957 1_564
Pd6 Y1 3.042471 1_565
Pd6 Y3 3.055029 1_655
Pd6 Y0 3.209438 1_655
Pd7 Y3 3.027957 1_546
Pd7 Y0 3.042471 1_545
Pd7 Y2 3.055029 1_455
Pd7 Y1 3.209438 1_455
