# generated using pymatgen
data_Ho5Ir3
_symmetry_space_group_name_H-M   'P 1'
_cell_length_a   6.18842600
_cell_length_b   8.28165199
_cell_length_c   8.28060916
_cell_angle_alpha   120.00416711
_cell_angle_beta   90.00000000
_cell_angle_gamma   90.00000000
_symmetry_Int_Tables_number   1
_chemical_formula_structural   Ho5Ir3
_chemical_formula_sum   'Ho10 Ir6'
_cell_volume   367.51228337
_cell_formula_units_Z   2
loop_
 _symmetry_equiv_pos_site_id
 _symmetry_equiv_pos_as_xyz
  1  'x, y, z'
loop_
 _atom_site_type_symbol
 _atom_site_label
 _atom_site_symmetry_multiplicity
 _atom_site_fract_x
 _atom_site_fract_y
 _atom_site_fract_z
 _atom_site_occupancy
  Ho  Ho0  1  0.50000100  0.33333500  0.66669500  1
  Ho  Ho1  1  0.50000100  0.66664100  0.33330500  1
  Ho  Ho2  1  0.00000100  0.66666500  0.33330500  1
  Ho  Ho3  1  0.00000100  0.33335900  0.66669500  1
  Ho  Ho4  1  0.75001000  0.25925700  0.00000000  1
  Ho  Ho5  1  0.74998900  0.74075200  0.74074700  1
  Ho  Ho6  1  0.74998900  0.00000500  0.25925300  1
  Ho  Ho7  1  0.25001000  0.74074300  0.00000000  1
  Ho  Ho8  1  0.24998900  0.25924800  0.25925300  1
  Ho  Ho9  1  0.24998900  0.99999500  0.74074700  1
  Ir  Ir0  1  0.75000600  0.60954700  0.00000000  1
  Ir  Ir1  1  0.75000200  0.39042600  0.39042900  1
  Ir  Ir2  1  0.75000200  0.99999700  0.60957100  1
  Ir  Ir3  1  0.25000600  0.39045300  0.00000000  1
  Ir  Ir4  1  0.25000200  0.60957400  0.60957100  1
  Ir  Ir5  1  0.25000200  0.00000300  0.39042900  1
loop_
_geom_bond_atom_site_label_1
_geom_bond_atom_site_label_2
_geom_bond_distance
_geom_bond_site_symmetry_2
Ho0 Ir3 2.988128 1_556
Ho0 Ir0 2.988223 1_556
Ho0 Ir5 2.988561 1_555
Ho0 Ir2 2.988675 1_545
Ho0 Ir1 2.988680 1_555
Ho0 Ir4 2.988843 1_555
Ho1 Ir3 2.988131 1_555
Ho1 Ir0 2.988221 1_555
Ho1 Ir4 2.988566 1_555
Ho1 Ir2 2.988675 1_555
Ho1 Ir1 2.988682 1_555
Ho1 Ir5 2.988836 1_565
Ho2 Ir0 2.988128 1_455
Ho2 Ir3 2.988223 1_555
Ho2 Ir2 2.988561 1_455
Ho2 Ir5 2.988675 1_565
Ho2 Ir4 2.988680 1_555
Ho2 Ir1 2.988843 1_455
Ho3 Ir0 2.988131 1_456
Ho3 Ir3 2.988221 1_556
Ho3 Ir1 2.988566 1_455
Ho3 Ir5 2.988675 1_555
Ho3 Ir4 2.988682 1_555
Ho3 Ir2 2.988836 1_445
Ho4 Ir2 2.849533 1_544
Ho4 Ir1 2.849533 1_555
Ho4 Ir0 2.900980 1_555
Ho4 Ir3 3.279409 1_655
Ho4 Ir3 3.279456 1_555
Ho5 Ir2 2.849869 1_555
Ho5 Ir0 2.849962 1_556
Ho5 Ir1 2.900880 1_555
Ho5 Ir4 3.279259 1_555
Ho5 Ir4 3.279411 1_655
Ho6 Ir1 2.849869 1_555
Ho6 Ir0 2.849962 1_545
Ho6 Ir2 2.900880 1_545
Ho6 Ir5 3.279259 1_555
Ho6 Ir5 3.279411 1_655
Ho7 Ir5 2.849533 1_565
Ho7 Ir4 2.849533 1_554
Ho7 Ir3 2.900980 1_555
Ho7 Ir0 3.279409 1_555
Ho7 Ir0 3.279456 1_455
Ho8 Ir5 2.849869 1_555
Ho8 Ir3 2.849962 1_555
Ho8 Ir4 2.900880 1_555
Ho8 Ir1 3.279259 1_455
Ho8 Ir1 3.279411 1_555
Ho9 Ir4 2.849869 1_555
Ho9 Ir3 2.849962 1_566
Ho9 Ir5 2.900880 1_565
Ho9 Ir2 3.279259 1_455
Ho9 Ir2 3.279411 1_555
