# generated using pymatgen
data_Mg15Al
_symmetry_space_group_name_H-M   'P 1'
_cell_length_a   6.31300491
_cell_length_b   6.31300491
_cell_length_c   10.18533207
_cell_angle_alpha   90.00000000
_cell_angle_beta   90.00000000
_cell_angle_gamma   120.00000768
_symmetry_Int_Tables_number   1
_chemical_formula_structural   Mg15Al
_chemical_formula_sum   'Mg15 Al1'
_cell_volume   351.54266880
_cell_formula_units_Z   1
loop_
 _symmetry_equiv_pos_site_id
 _symmetry_equiv_pos_as_xyz
  1  'x, y, z'
loop_
 _atom_site_type_symbol
 _atom_site_label
 _atom_site_symmetry_multiplicity
 _atom_site_fract_x
 _atom_site_fract_y
 _atom_site_fract_z
 _atom_site_occupancy
  Mg  Mg0  1  0.00000000  0.00000000  0.00000000  1
  Mg  Mg1  1  0.99850110  0.49925105  0.50000000  1
  Mg  Mg2  1  0.00066592  0.50033246  0.00000000  1
  Mg  Mg3  1  0.50074895  0.49925105  0.50000000  1
  Mg  Mg4  1  0.49966754  0.50033246  -0.00000000  1
  Mg  Mg5  1  0.50074895  0.00149890  0.50000000  1
  Mg  Mg6  1  0.49966754  0.99933408  0.00000000  1
  Mg  Mg7  1  0.16549602  0.33099404  0.25324490  1
  Mg  Mg8  1  0.16549602  0.33099404  0.74675510  1
  Mg  Mg9  1  0.16549602  0.83450398  0.25324490  1
  Mg  Mg10  1  0.16549602  0.83450398  0.74675510  1
  Mg  Mg11  1  0.66900596  0.83450398  0.25324490  1
  Mg  Mg12  1  0.66900596  0.83450398  0.74675510  1
  Mg  Mg13  1  0.66666700  0.33333300  0.24983104  1
  Mg  Mg14  1  0.66666700  0.33333300  0.75016896  1
  Al  Al0  1  0.00000000  0.00000000  0.50000000  1
loop_
_geom_bond_atom_site_label_1
_geom_bond_atom_site_label_2
_geom_bond_distance
_geom_bond_site_symmetry_2
Mg0 Mg10 3.150857 1_544
Mg0 Mg9 3.150857 1_545
Mg0 Mg8 3.150863 1_554
Mg0 Mg7 3.150863 1_555
Mg0 Mg11 3.150863 1_445
Mg0 Mg12 3.150863 1_444
Mg0 Mg2 3.156501 1_555
Mg0 Mg6 3.156501 1_445
Mg0 Mg4 3.156504 1_555
Mg0 Mg4 3.156504 1_445
Mg0 Mg2 3.156508 1_545
Mg0 Mg6 3.156508 1_545
Mg1 Mg8 3.110646 1_655
Mg1 Mg7 3.110646 1_655
Mg1 Mg9 3.110649 1_655
Mg1 Mg10 3.110649 1_655
Mg1 Mg13 3.127929 1_555
Mg1 Mg14 3.127929 1_555
Mg1 Mg5 3.142311 1_555
Mg1 Mg3 3.142312 1_555
Mg1 Mg5 3.170693 1_665
Mg1 Mg3 3.170693 1_655
Mg2 Mg6 3.150199 1_555
Mg2 Mg4 3.150200 1_555
Mg2 Mg8 3.160895 1_554
Mg2 Mg7 3.160895 1_555
Mg2 Mg9 3.160904 1_555
Mg2 Mg6 3.162805 1_445
Mg2 Mg4 3.162805 1_455
Mg3 Mg7 3.110649 1_555
Mg3 Mg8 3.110649 1_555
Mg3 Mg5 3.142312 1_555
Mg3 Mg5 3.170693 1_565
Mg4 Mg6 3.150200 1_555
Mg4 Mg8 3.160904 1_554
Mg4 Mg7 3.160904 1_555
Mg4 Mg6 3.162805 1_545
Mg5 Mg9 3.110649 1_545
Mg6 Mg9 3.160904 1_555
Mg7 Mg9 3.134344 1_545
Mg7 Mg9 3.178661 1_555
Mg10 Mg5 3.110649 1_565
Mg10 Mg8 3.134344 1_565
Mg10 Mg12 3.134344 1_455
Mg10 Mg14 3.156720 1_455
Mg10 Mg14 3.156720 1_565
Mg10 Mg6 3.160904 1_556
Mg10 Mg2 3.160904 1_556
Mg10 Mg8 3.178661 1_555
Mg10 Mg12 3.178661 1_555
Mg11 Mg5 3.110646 1_565
Mg11 Mg3 3.110649 1_555
Mg11 Mg7 3.134344 1_665
Mg11 Mg9 3.134344 1_655
Mg11 Mg13 3.156710 1_565
Mg11 Mg13 3.156729 1_555
Mg11 Mg6 3.160895 1_555
Mg11 Mg4 3.160904 1_555
Mg11 Mg7 3.178660 1_555
Mg11 Mg9 3.178661 1_555
Mg12 Mg5 3.110646 1_565
Mg12 Mg3 3.110649 1_555
Mg12 Mg8 3.134344 1_665
Mg12 Mg14 3.156710 1_565
Mg12 Mg14 3.156729 1_555
Mg12 Mg6 3.160895 1_556
Mg12 Mg4 3.160904 1_556
Mg12 Mg8 3.178660 1_555
Mg13 Mg5 3.127929 1_555
Mg13 Mg3 3.127935 1_555
Mg13 Mg2 3.132011 1_655
Mg13 Mg6 3.132011 1_545
Mg13 Mg4 3.132012 1_555
Mg13 Mg7 3.156710 1_655
Mg13 Mg9 3.156720 1_655
Mg13 Mg9 3.156720 1_545
Mg13 Mg7 3.156729 1_555
Mg14 Mg5 3.127929 1_555
Mg14 Mg3 3.127935 1_555
Mg14 Mg2 3.132011 1_656
Mg14 Mg6 3.132011 1_546
Mg14 Mg4 3.132012 1_556
Mg14 Mg8 3.156710 1_655
Mg14 Mg8 3.156729 1_555
Al0 Mg9 3.096977 1_545
Al0 Mg10 3.096977 1_545
Al0 Mg12 3.096983 1_445
Al0 Mg11 3.096983 1_445
Al0 Mg7 3.096983 1_555
Al0 Mg8 3.096983 1_555
Al0 Mg5 3.156510 1_555
Al0 Mg1 3.156510 1_445
Al0 Mg3 3.156513 1_555
Al0 Mg3 3.156513 1_445
Al0 Mg1 3.156516 1_455
Al0 Mg5 3.156516 1_455
