# generated using pymatgen
data_Li(CuN)3
_symmetry_space_group_name_H-M   'P 1'
_cell_length_a   4.03520600
_cell_length_b   4.03520600
_cell_length_c   4.03520600
_cell_angle_alpha   90.00000000
_cell_angle_beta   90.00000000
_cell_angle_gamma   90.00000000
_symmetry_Int_Tables_number   1
_chemical_formula_structural   Li(CuN)3
_chemical_formula_sum   'Li1 Cu3 N3'
_cell_volume   65.70480519
_cell_formula_units_Z   1
loop_
 _symmetry_equiv_pos_site_id
 _symmetry_equiv_pos_as_xyz
  1  'x, y, z'
loop_
 _atom_site_type_symbol
 _atom_site_label
 _atom_site_symmetry_multiplicity
 _atom_site_fract_x
 _atom_site_fract_y
 _atom_site_fract_z
 _atom_site_occupancy
  Li  Li0  1  0.50000000  0.50000000  0.50000000  1
  Cu  Cu0  1  0.00000000  0.50000000  0.00000000  1
  Cu  Cu1  1  0.00000000  0.00000000  0.50000000  1
  Cu  Cu2  1  0.50000000  0.00000000  0.00000000  1
  N  N0  1  0.50000000  0.00000000  0.50000000  1
  N  N1  1  0.50000000  0.50000000  0.00000000  1
  N  N2  1  0.00000000  0.50000000  0.50000000  1
loop_
_geom_bond_atom_site_label_1
_geom_bond_atom_site_label_2
_geom_bond_distance
_geom_bond_site_symmetry_2
Li0 N1 2.017603 1_555
Li0 N1 2.017603 1_556
Li0 N2 2.017603 1_555
Li0 N0 2.017603 1_565
Li0 N0 2.017603 1_555
Li0 N2 2.017603 1_655
Cu0 N2 2.017603 1_555
Cu0 N1 2.017603 1_555
Cu0 N1 2.017603 1_455
Cu0 N2 2.017603 1_554
Cu1 N0 2.017603 1_555
Cu1 N2 2.017603 1_555
Cu1 N0 2.017603 1_455
Cu1 N2 2.017603 1_545
Cu2 N0 2.017603 1_555
Cu2 N1 2.017603 1_545
Cu2 N0 2.017603 1_554
Cu2 N1 2.017603 1_555
