# generated using pymatgen
data_Pb3IF5
_symmetry_space_group_name_H-M   'P 1'
_cell_length_a   4.32810451
_cell_length_b   4.32810451
_cell_length_c   22.87699800
_cell_angle_alpha   90.00000000
_cell_angle_beta   90.00000000
_cell_angle_gamma   120.27728607
_symmetry_Int_Tables_number   1
_chemical_formula_structural   Pb3IF5
_chemical_formula_sum   'Pb6 I2 F10'
_cell_volume   370.08789442
_cell_formula_units_Z   2
loop_
 _symmetry_equiv_pos_site_id
 _symmetry_equiv_pos_as_xyz
  1  'x, y, z'
loop_
 _atom_site_type_symbol
 _atom_site_label
 _atom_site_symmetry_multiplicity
 _atom_site_fract_x
 _atom_site_fract_y
 _atom_site_fract_z
 _atom_site_occupancy
  Pb  Pb0  1  0.32463400  0.67536600  0.63513800  1
  Pb  Pb1  1  0.67323000  0.32677000  0.35394300  1
  Pb  Pb2  1  0.32677000  0.67323000  0.85394300  1
  Pb  Pb3  1  0.67536600  0.32463400  0.13513800  1
  Pb  Pb4  1  0.99633400  0.00366600  0.50923600  1
  Pb  Pb5  1  0.00366600  0.99633400  0.00923600  1
  I  I0  1  0.34165500  0.65834500  0.25478500  1
  I  I1  1  0.65834500  0.34165500  0.75478500  1
  F  F0  1  0.33315700  0.66684300  0.52846100  1
  F  F1  1  0.67079500  0.32920500  0.45614200  1
  F  F2  1  0.32920500  0.67079500  0.95614200  1
  F  F3  1  0.66684300  0.33315700  0.02846100  1
  F  F4  1  0.99682800  0.00317200  0.62544500  1
  F  F5  1  0.00590700  0.99409300  0.38074500  1
  F  F6  1  0.99409300  0.00590700  0.88074500  1
  F  F7  1  0.00317200  0.99682800  0.12544500  1
  F  F8  1  0.66745900  0.33254100  0.58610600  1
  F  F9  1  0.33254100  0.66745900  0.08610600  1
loop_
_geom_bond_atom_site_label_1
_geom_bond_atom_site_label_2
_geom_bond_distance
_geom_bond_site_symmetry_2
I0 Pb1 3.367716 1_555
I0 Pb1 3.374660 1_565
I0 Pb1 3.374660 1_455
I1 Pb2 3.367716 1_555
I1 Pb2 3.374660 1_545
I1 Pb2 3.374660 1_655
F0 Pb0 2.441288 1_555
F0 Pb4 2.517516 1_455
F0 Pb4 2.517516 1_565
F0 Pb4 2.566478 1_465
F1 Pb1 2.338078 1_555
F1 Pb4 2.729012 1_555
F1 Pb4 2.799015 1_565
F1 Pb4 2.799015 1_455
F2 Pb2 2.338078 1_555
F2 Pb5 2.729012 1_556
F2 Pb5 2.799015 1_656
F2 Pb5 2.799015 1_546
F3 Pb3 2.441288 1_555
F3 Pb5 2.517516 1_545
F3 Pb5 2.517516 1_655
F3 Pb5 2.566478 1_645
F4 Pb0 2.470793 1_645
F4 Pb0 2.522705 1_655
F4 Pb0 2.522705 1_545
F4 Pb4 2.658516 1_555
F5 Pb1 2.568584 1_455
F5 Pb1 2.568584 1_565
F5 Pb1 2.571557 1_465
F6 Pb2 2.568584 1_545
F6 Pb2 2.568584 1_655
F6 Pb2 2.571557 1_645
F7 Pb3 2.470793 1_465
F7 Pb3 2.522705 1_455
F7 Pb3 2.522705 1_565
F7 Pb5 2.658516 1_555
F8 Pb0 2.700800 1_545
F8 Pb0 2.700800 1_655
F8 Pb0 2.807398 1_555
F9 Pb3 2.700800 1_455
F9 Pb3 2.700800 1_565
F9 Pb3 2.807398 1_555
