# generated using pymatgen
data_Ca2Ti2O5
_symmetry_space_group_name_H-M   'P 1'
_cell_length_a   8.60415568
_cell_length_b   8.60415568
_cell_length_c   8.60415568
_cell_angle_alpha   142.76361081
_cell_angle_beta   141.64252826
_cell_angle_gamma   54.52834975
_symmetry_Int_Tables_number   1
_chemical_formula_structural   Ca2Ti2O5
_chemical_formula_sum   'Ca4 Ti4 O10'
_cell_volume   237.54239298
_cell_formula_units_Z   2
loop_
 _symmetry_equiv_pos_site_id
 _symmetry_equiv_pos_as_xyz
  1  'x, y, z'
loop_
 _atom_site_type_symbol
 _atom_site_label
 _atom_site_symmetry_multiplicity
 _atom_site_fract_x
 _atom_site_fract_y
 _atom_site_fract_z
 _atom_site_occupancy
  Ca  Ca0  1  0.91851400  0.39512900  0.52985400  1
  Ca  Ca1  1  0.08148600  0.61134000  0.47661400  1
  Ca  Ca2  1  0.36527400  0.89512900  0.47661400  1
  Ca  Ca3  1  0.63472600  0.11134000  0.52985400  1
  Ti  Ti0  1  0.00000000  0.01136300  0.01136300  1
  Ti  Ti1  1  0.50000000  0.51136300  0.01136300  1
  Ti  Ti2  1  0.69920200  0.71476700  0.91396900  1
  Ti  Ti3  1  0.30079800  0.21476700  0.01556400  1
  O  O0  1  0.26330900  0.27193800  0.51160200  1
  O  O1  1  0.73669100  0.24829300  0.00862900  1
  O  O2  1  0.26033600  0.77193800  0.00862900  1
  O  O3  1  0.73966400  0.74829300  0.51160200  1
  O  O4  1  0.92331900  0.88807800  0.08008700  1
  O  O5  1  0.07668100  0.15676800  0.96476000  1
  O  O6  1  0.30799100  0.38807800  0.96476000  1
  O  O7  1  0.69200900  0.65676800  0.08008700  1
  O  O8  1  0.61880800  0.36632400  0.48513200  1
  O  O9  1  0.38119200  0.86632400  0.74751600  1
loop_
_geom_bond_atom_site_label_1
_geom_bond_atom_site_label_2
_geom_bond_distance
_geom_bond_site_symmetry_2
Ca0 O6 2.386494 1_655
Ca0 O8 2.427546 1_555
Ca0 O1 2.534749 1_555
Ca0 O3 2.565166 1_555
Ca0 O0 2.601031 1_655
Ca0 O2 2.632605 1_656
Ca0 O4 2.677622 1_545
Ca0 O4 2.885828 1_556
Ca1 O7 2.386486 1_455
Ca1 O9 2.427541 1_555
Ca1 O0 2.534753 1_555
Ca1 O2 2.565174 1_556
Ca1 O1 2.601034 1_455
Ca1 O3 2.632610 1_455
Ca1 O5 2.677614 1_554
Ca1 O5 2.885831 1_565
Ca2 O4 2.386484 1_455
Ca2 O9 2.427548 1_555
Ca2 O3 2.534752 1_555
Ca2 O1 2.565170 1_566
Ca2 O2 2.601029 1_555
Ca2 O0 2.632602 1_565
Ca2 O6 2.677620 1_554
Ca2 O6 2.885831 1_565
Ca3 O5 2.386488 1_655
Ca3 O8 2.427541 1_555
Ca3 O2 2.534753 1_545
Ca3 O0 2.565174 1_555
Ca3 O3 2.601034 1_545
Ca3 O1 2.632610 1_556
Ca3 O7 2.677618 1_545
Ca3 O7 2.885829 1_556
O0 Ti1 1.977820 1_556
O0 Ti0 1.980309 1_555
O1 Ti1 1.977820 1_555
O1 Ti0 1.980309 1_655
O2 Ti0 1.977820 1_565
O2 Ti1 1.980309 1_555
O3 Ti0 1.977820 1_666
O3 Ti1 1.980309 1_555
O4 Ti2 1.898970 1_554
O4 Ti0 2.081595 1_665
O5 Ti3 1.898983 1_556
O5 Ti0 2.081587 1_556
O6 Ti3 1.898955 1_556
O6 Ti1 2.081602 1_556
O7 Ti2 1.898970 1_554
O7 Ti1 2.081595 1_555
O8 Ti2 1.967532 1_555
O8 Ti3 1.981240 1_555
O9 Ti3 1.967530 1_566
O9 Ti2 1.981236 1_555
