# generated using pymatgen
data_Ca3Ga3Ge3O14
_symmetry_space_group_name_H-M   'P 1'
_cell_length_a   8.23593977
_cell_length_b   8.23593977
_cell_length_c   5.03768300
_cell_angle_alpha   90.00000000
_cell_angle_beta   90.00000000
_cell_angle_gamma   119.99999816
_symmetry_Int_Tables_number   1
_chemical_formula_structural   Ca3Ga3Ge3O14
_chemical_formula_sum   'Ca3 Ga3 Ge3 O14'
_cell_volume   295.92918594
_cell_formula_units_Z   1
loop_
 _symmetry_equiv_pos_site_id
 _symmetry_equiv_pos_as_xyz
  1  'x, y, z'
loop_
 _atom_site_type_symbol
 _atom_site_label
 _atom_site_symmetry_multiplicity
 _atom_site_fract_x
 _atom_site_fract_y
 _atom_site_fract_z
 _atom_site_occupancy
  Ca  Ca0  1  0.57768500  0.00000000  0.00000000  1
  Ca  Ca1  1  0.00000000  0.57768500  0.00000000  1
  Ca  Ca2  1  0.42231500  0.42231500  0.00000000  1
  Ga  Ga0  1  0.24226800  0.00000000  0.50000000  1
  Ga  Ga1  1  0.00000000  0.24226800  0.50000000  1
  Ga  Ga2  1  0.75773200  0.75773200  0.50000000  1
  Ge  Ge0  1  0.33333300  0.66666700  0.54053000  1
  Ge  Ge1  1  0.66666700  0.33333300  0.45947000  1
  Ge  Ge2  1  0.00000000  0.00000000  0.00000000  1
  O  O0  1  0.46440100  0.14738600  0.30364300  1
  O  O1  1  0.85261400  0.31701600  0.30364300  1
  O  O2  1  0.14738600  0.46440100  0.69635700  1
  O  O3  1  0.68298400  0.53559900  0.30364300  1
  O  O4  1  0.31701600  0.85261400  0.69635700  1
  O  O5  1  0.53559900  0.68298400  0.69635700  1
  O  O6  1  0.13661100  0.21478300  0.22911500  1
  O  O7  1  0.78521700  0.92182800  0.22911500  1
  O  O8  1  0.21478300  0.13661100  0.77088500  1
  O  O9  1  0.07817200  0.86338900  0.22911500  1
  O  O10  1  0.92182800  0.78521700  0.77088500  1
  O  O11  1  0.86338900  0.07817200  0.77088500  1
  O  O12  1  0.33333300  0.66666700  0.19648700  1
  O  O13  1  0.66666700  0.33333300  0.80351300  1
loop_
_geom_bond_atom_site_label_1
_geom_bond_atom_site_label_2
_geom_bond_distance
_geom_bond_site_symmetry_2
Ca0 O7 2.401785 1_545
Ca0 O11 2.401785 1_554
Ca0 O4 2.411703 1_544
Ca0 O0 2.411708 1_555
Ca0 O13 2.653616 1_554
Ca0 O12 2.653618 1_545
Ca0 O1 2.893426 1_555
Ca0 O5 2.893429 1_544
Ca1 O10 2.401785 1_454
Ca1 O9 2.401785 1_555
Ca1 O1 2.411703 1_455
Ca1 O2 2.411708 1_554
Ca1 O12 2.653616 1_555
Ca1 O13 2.653618 1_454
Ca1 O4 2.893426 1_554
Ca1 O3 2.893429 1_455
Ca2 O6 2.401785 1_555
Ca2 O8 2.401785 1_554
Ca2 O5 2.411702 1_554
Ca2 O3 2.411702 1_555
Ca2 O12 2.653624 1_555
Ca2 O13 2.653624 1_554
Ca2 O2 2.893422 1_554
Ca2 O0 2.893422 1_555
Ga0 O8 1.853118 1_555
Ga0 O9 1.853118 1_545
Ga0 O0 1.891611 1_555
Ga0 O4 1.891616 1_545
Ga1 O6 1.853118 1_555
Ga1 O11 1.853118 1_455
Ga1 O2 1.891611 1_555
Ga1 O1 1.891616 1_455
Ga2 O7 1.853118 1_555
Ga2 O10 1.853118 1_555
Ga2 O3 1.891610 1_555
Ga2 O5 1.891610 1_555
Ge0 O12 1.733180 1_555
Ge0 O4 1.784779 1_555
Ge0 O2 1.784787 1_555
Ge0 O5 1.784793 1_555
Ge1 O13 1.733180 1_555
Ge1 O1 1.784779 1_555
Ge1 O0 1.784787 1_555
Ge1 O3 1.784793 1_555
Ge2 O11 1.933125 1_454
Ge2 O9 1.933125 1_545
Ge2 O10 1.933125 1_444
Ge2 O7 1.933125 1_445
Ge2 O8 1.933125 1_554
Ge2 O6 1.933125 1_555
