# generated using pymatgen
data_Li5Mn2Fe3O10
_symmetry_space_group_name_H-M   'P 1'
_cell_length_a   5.23388419
_cell_length_b   14.32946569
_cell_length_c   5.13889419
_cell_angle_alpha   86.97715218
_cell_angle_beta   100.75543482
_cell_angle_gamma   92.39246063
_symmetry_Int_Tables_number   1
_chemical_formula_structural   Li5Mn2Fe3O10
_chemical_formula_sum   'Li10 Mn4 Fe6 O20'
_cell_volume   377.91326667
_cell_formula_units_Z   2
loop_
 _symmetry_equiv_pos_site_id
 _symmetry_equiv_pos_as_xyz
  1  'x, y, z'
loop_
 _atom_site_type_symbol
 _atom_site_label
 _atom_site_symmetry_multiplicity
 _atom_site_fract_x
 _atom_site_fract_y
 _atom_site_fract_z
 _atom_site_occupancy
  Li  Li0  1  0.24145700  0.25057300  0.24779800  1
  Li  Li1  1  0.75442000  0.74801000  0.75400600  1
  Li  Li2  1  0.69310500  0.20801700  0.00507200  1
  Li  Li3  1  0.19086000  0.70076200  0.51770100  1
  Li  Li4  1  0.80952500  0.30034400  0.48521500  1
  Li  Li5  1  0.30951700  0.79145300  0.99684500  1
  Li  Li6  1  0.89388400  0.38928500  0.98838400  1
  Li  Li7  1  0.41190000  0.88592200  0.49051000  1
  Li  Li8  1  0.58925900  0.11356700  0.51079700  1
  Li  Li9  1  0.10817100  0.61471700  0.00383400  1
  Mn  Mn0  1  0.34744200  0.34586300  0.75274200  1
  Mn  Mn1  1  0.86788700  0.84574000  0.24915700  1
  Mn  Mn2  1  0.13183200  0.15438900  0.75195700  1
  Mn  Mn3  1  0.65385900  0.65316100  0.24906200  1
  Fe  Fe0  1  0.00339500  0.50156100  0.50193800  1
  Fe  Fe1  1  0.44646400  0.44682500  0.24505800  1
  Fe  Fe2  1  0.55127100  0.55401500  0.75272900  1
  Fe  Fe3  1  0.49991300  0.00010600  0.00044500  1
  Fe  Fe4  1  0.95546900  0.94464900  0.74640300  1
  Fe  Fe5  1  0.04437100  0.05510000  0.25436800  1
  O  O0  1  0.68103100  0.42783200  0.60752000  1
  O  O1  1  0.15545600  0.92670200  0.12604600  1
  O  O2  1  0.84469300  0.07415300  0.87456900  1
  O  O3  1  0.30844200  0.56744700  0.36637800  1
  O  O4  1  0.22436000  0.46341900  0.86819000  1
  O  O5  1  0.75066100  0.96716500  0.37286400  1
  O  O6  1  0.24913600  0.03368600  0.62803200  1
  O  O7  1  0.75969900  0.52832800  0.15011100  1
  O  O8  1  0.01344400  0.26231000  0.86546900  1
  O  O9  1  0.57942200  0.77835400  0.35550800  1
  O  O10  1  0.42291700  0.22173200  0.64748500  1
  O  O11  1  0.98669600  0.73824000  0.13409200  1
  O  O12  1  0.34240700  0.11983000  0.10783100  1
  O  O13  1  0.87279200  0.62300700  0.60266400  1
  O  O14  1  0.14434100  0.37875300  0.39285600  1
  O  O15  1  0.65759100  0.88099400  0.89290900  1
  O  O16  1  0.55840300  0.33036700  0.10657900  1
  O  O17  1  0.07816900  0.83340100  0.60046200  1
  O  O18  1  0.92308200  0.16768300  0.39915000  1
  O  O19  1  0.44325900  0.67253900  0.89726200  1
loop_
_geom_bond_atom_site_label_1
_geom_bond_atom_site_label_2
_geom_bond_distance
_geom_bond_site_symmetry_2
Li0 O8 2.102258 1_554
Li0 O10 2.122894 1_555
Li0 O14 2.133416 1_555
Li0 O12 2.161724 1_555
Li0 O16 2.188444 1_555
Li0 O18 2.239079 1_455
Li1 O11 2.100410 1_556
Li1 O9 2.112083 1_555
Li1 O19 2.140153 1_555
Li1 O13 2.148630 1_555
Li1 O15 2.180995 1_555
Li1 O17 2.283661 1_655
Li2 O16 2.044457 1_555
Li2 O8 2.052352 1_654
Li2 O10 2.104851 1_554
Li2 O18 2.215592 1_555
Li2 O2 2.284743 1_554
Li2 O12 2.311400 1_555
Li3 O13 2.066034 1_455
Li3 O17 2.100877 1_555
Li3 O11 2.113390 1_455
Li3 O19 2.170923 1_555
Li3 O3 2.250835 1_555
Li3 O9 2.532380 1_555
Li4 O8 2.100576 1_655
Li4 O18 2.107990 1_555
Li4 O0 2.136837 1_555
Li4 O14 2.155996 1_655
Li4 O16 2.168643 1_555
Li4 O10 2.529644 1_555
Li5 O19 1.995156 1_555
Li5 O11 2.052837 1_456
Li5 O9 2.107560 1_556
Li5 O17 2.233333 1_555
Li5 O1 2.305001 1_556
Li5 O15 2.312181 1_555
Li6 O16 2.094036 1_556
Li6 O8 2.113025 1_655
Li6 O0 2.121427 1_555
Li6 O4 2.162846 1_655
Li6 O14 2.242309 1_656
Li6 O7 2.379703 1_556
Li7 O9 2.019555 1_555
Li7 O17 2.037258 1_555
Li7 O1 2.159322 1_555
Li7 O15 2.221357 1_555
Li7 O5 2.240082 1_555
Li7 O6 2.498312 1_565
Li8 O10 2.027175 1_555
Li8 O18 2.048729 1_555
Li8 O2 2.149375 1_555
Li8 O12 2.226437 1_555
Li8 O6 2.235979 1_555
Li8 O5 2.478982 1_545
Li9 O3 2.055693 1_555
Li9 O19 2.061943 1_554
Li9 O11 2.088784 1_455
Li9 O13 2.195528 1_454
Li9 O7 2.376765 1_455
Li9 O4 2.446157 1_554
Mn0 O16 1.950208 1_556
Mn0 O10 1.962752 1_555
Mn0 O4 1.985749 1_555
Mn0 O14 1.997144 1_555
Mn0 O8 2.225980 1_555
Mn0 O0 2.282018 1_555
Mn1 O11 1.849995 1_555
Mn1 O9 1.908181 1_555
Mn1 O17 1.934615 1_655
Mn1 O15 2.003749 1_554
Mn1 O1 2.035613 1_655
Mn1 O5 2.039457 1_555
Mn2 O8 1.850882 1_555
Mn2 O10 1.915306 1_555
Mn2 O18 1.938744 1_455
Mn2 O12 2.000548 1_556
Mn2 O2 2.027373 1_455
Mn2 O6 2.030963 1_555
Mn3 O19 1.946611 1_554
Mn3 O9 1.977537 1_555
Mn3 O13 1.995756 1_555
Mn3 O7 2.012214 1_555
Mn3 O11 2.236268 1_555
Mn3 O3 2.298638 1_555
Fe0 O13 2.022389 1_455
Fe0 O3 2.036078 1_555
Fe0 O7 2.037113 1_455
Fe0 O4 2.076175 1_555
Fe0 O14 2.078939 1_555
Fe0 O0 2.095153 1_455
Fe1 O16 1.999246 1_555
Fe1 O0 2.042478 1_555
Fe1 O14 2.066428 1_555
Fe1 O3 2.069799 1_555
Fe1 O4 2.071920 1_554
Fe1 O7 2.090071 1_555
Fe2 O19 2.031178 1_555
Fe2 O7 2.149069 1_556
Fe2 O3 2.152332 1_555
Fe2 O13 2.160775 1_555
Fe2 O0 2.172880 1_555
Fe2 O4 2.253254 1_555
Fe3 O15 2.070496 1_544
Fe3 O12 2.077271 1_555
Fe3 O5 2.151018 1_545
Fe3 O6 2.152895 1_554
Fe3 O1 2.231059 1_545
Fe3 O2 2.236975 1_554
Fe4 O17 1.976724 1_655
Fe4 O15 2.019018 1_555
Fe4 O5 2.033099 1_555
Fe4 O1 2.043357 1_656
Fe4 O6 2.112732 1_665
Fe4 O2 2.138906 1_565
Fe5 O18 1.986836 1_455
Fe5 O12 2.025984 1_555
Fe5 O6 2.031551 1_555
Fe5 O2 2.045088 1_454
Fe5 O5 2.104380 1_445
Fe5 O1 2.125651 1_545
