# generated using pymatgen
data_NdAlSi
_symmetry_space_group_name_H-M   'P 1'
_cell_length_a   4.21089948
_cell_length_b   4.21089948
_cell_length_c   4.24365885
_cell_angle_alpha   90.00000000
_cell_angle_beta   90.00000000
_cell_angle_gamma   120.00000813
_symmetry_Int_Tables_number   1
_chemical_formula_structural   NdAlSi
_chemical_formula_sum   'Nd1 Al1 Si1'
_cell_volume   65.16596154
_cell_formula_units_Z   1
loop_
 _symmetry_equiv_pos_site_id
 _symmetry_equiv_pos_as_xyz
  1  'x, y, z'
loop_
 _atom_site_type_symbol
 _atom_site_label
 _atom_site_symmetry_multiplicity
 _atom_site_fract_x
 _atom_site_fract_y
 _atom_site_fract_z
 _atom_site_occupancy
  Nd  Nd0  1  0.33333300  0.66666700  0.00000000  1
  Al  Al0  1  0.00000000  -0.00000000  0.50000000  1
  Si  Si0  1  0.66666700  0.33333300  0.50000000  1
loop_
_geom_bond_atom_site_label_1
_geom_bond_atom_site_label_2
_geom_bond_distance
_geom_bond_site_symmetry_2
Nd0 Si0 3.226872 1_455
Nd0 Si0 3.226872 1_454
Nd0 Si0 3.226872 1_565
Nd0 Si0 3.226872 1_564
Nd0 Si0 3.226878 1_555
Nd0 Si0 3.226878 1_554
Al0 Si0 2.431162 1_455
Al0 Si0 2.431165 1_445
Al0 Si0 2.431165 1_555
Al0 Nd0 3.226873 1_545
Al0 Nd0 3.226873 1_546
Al0 Nd0 3.226875 1_555
Al0 Nd0 3.226875 1_445
Al0 Nd0 3.226875 1_556
Al0 Nd0 3.226875 1_446
