# generated using pymatgen
data_Ce2(MnNi)5
_symmetry_space_group_name_H-M   'P 1'
_cell_length_a   3.99837800
_cell_length_b   5.13016500
_cell_length_c   8.76054300
_cell_angle_alpha   90.00000000
_cell_angle_beta   90.00000000
_cell_angle_gamma   90.00000000
_symmetry_Int_Tables_number   1
_chemical_formula_structural   Ce2(MnNi)5
_chemical_formula_sum   'Ce2 Mn5 Ni5'
_cell_volume   179.69922672
_cell_formula_units_Z   1
loop_
 _symmetry_equiv_pos_site_id
 _symmetry_equiv_pos_as_xyz
  1  'x, y, z'
loop_
 _atom_site_type_symbol
 _atom_site_label
 _atom_site_symmetry_multiplicity
 _atom_site_fract_x
 _atom_site_fract_y
 _atom_site_fract_z
 _atom_site_occupancy
  Ce  Ce0  1  0.00000000  0.00000000  0.00000000  1
  Ce  Ce1  1  0.00000000  0.50000000  0.50000000  1
  Mn  Mn0  1  0.00000000  0.00000000  0.34109600  1
  Mn  Mn1  1  0.00000000  0.50000000  0.83328500  1
  Mn  Mn2  1  0.00000000  0.50000000  0.16671500  1
  Mn  Mn3  1  0.00000000  0.00000000  0.65890400  1
  Mn  Mn4  1  0.50000000  0.00000000  0.50000000  1
  Ni  Ni0  1  0.50000000  0.50000000  0.00000000  1
  Ni  Ni1  1  0.50000000  0.25177700  0.25250900  1
  Ni  Ni2  1  0.50000000  0.74822300  0.74749100  1
  Ni  Ni3  1  0.50000000  0.74822300  0.25250900  1
  Ni  Ni4  1  0.50000000  0.25177700  0.74749100  1
loop_
_geom_bond_atom_site_label_1
_geom_bond_atom_site_label_2
_geom_bond_distance
_geom_bond_site_symmetry_2
Ce0 Mn2 2.951737 1_555
Ce0 Mn2 2.951737 1_545
Ce0 Mn1 2.951737 1_544
Ce0 Mn1 2.951737 1_554
Ce0 Mn0 2.988186 1_555
Ce0 Mn3 2.988186 1_554
Ce0 Ni3 3.249399 1_445
Ce0 Ni4 3.249399 1_554
Ce0 Ni3 3.249399 1_545
Ce0 Ni4 3.249399 1_454
Ce0 Ni1 3.249399 1_455
Ce0 Ni1 3.249399 1_555
Ce0 Ni2 3.249399 1_544
Ce0 Ni2 3.249399 1_444
Ce0 Ni0 3.252139 1_455
Ce0 Ni0 3.252139 1_555
Ce0 Ni0 3.252139 1_445
Ce0 Ni0 3.252139 1_545
Ce1 Mn3 2.918484 1_555
Ce1 Mn3 2.918484 1_565
Ce1 Mn0 2.918484 1_565
Ce1 Mn0 2.918484 1_555
Ce1 Mn1 2.919758 1_555
Ce1 Mn2 2.919758 1_555
Ce1 Ni4 3.212361 1_455
Ce1 Ni3 3.212361 1_455
Ce1 Ni1 3.212361 1_555
Ce1 Ni2 3.212361 1_455
Ce1 Ni2 3.212361 1_555
Ce1 Ni3 3.212361 1_555
Ce1 Ni1 3.212361 1_455
Ce1 Ni4 3.212361 1_555
Ce1 Mn4 3.252139 1_555
Ce1 Mn4 3.252139 1_565
Ce1 Mn4 3.252139 1_465
Ce1 Mn4 3.252139 1_455
Mn0 Mn4 2.436115 1_555
Mn0 Mn4 2.436115 1_455
Mn0 Ni3 2.503482 1_545
Mn0 Ni3 2.503482 1_445
Mn0 Ni1 2.503482 1_455
Mn0 Ni1 2.503482 1_555
Mn1 Ni0 2.475855 1_556
Mn1 Ni0 2.475855 1_456
Mn1 Ni2 2.486619 1_555
Mn1 Ni2 2.486619 1_455
Mn1 Ni4 2.486619 1_555
Mn1 Ni4 2.486619 1_455
Mn2 Ni0 2.475855 1_455
Mn2 Ni0 2.475855 1_555
Mn2 Ni3 2.486619 1_555
Mn2 Ni3 2.486619 1_455
Mn2 Ni1 2.486619 1_555
Mn2 Ni1 2.486619 1_455
Mn3 Mn4 2.436115 1_455
Mn3 Mn4 2.436115 1_555
Mn3 Ni2 2.503482 1_445
Mn3 Ni2 2.503482 1_545
Mn3 Ni4 2.503482 1_455
Mn3 Ni4 2.503482 1_555
Mn4 Ni2 2.523743 1_545
Mn4 Ni3 2.523743 1_545
Mn4 Ni4 2.523743 1_555
Mn4 Ni1 2.523743 1_555
Ni0 Ni4 2.552463 1_554
Ni0 Ni3 2.552463 1_555
Ni0 Ni2 2.552463 1_554
Ni0 Ni1 2.552463 1_555
Ni1 Ni3 2.546850 1_555
Ni1 Ni3 2.583315 1_545
Ni2 Ni4 2.546850 1_555
Ni2 Ni4 2.583315 1_565
