# generated using pymatgen
data_MgSb2(PO5)2
_symmetry_space_group_name_H-M   'P 1'
_cell_length_a   10.22053141
_cell_length_b   8.97374491
_cell_length_c   7.40976517
_cell_angle_alpha   76.53175330
_cell_angle_beta   58.63462640
_cell_angle_gamma   44.83362030
_symmetry_Int_Tables_number   1
_chemical_formula_structural   MgSb2(PO5)2
_chemical_formula_sum   'Mg2 Sb4 P4 O20'
_cell_volume   398.52114243
_cell_formula_units_Z   2
loop_
 _symmetry_equiv_pos_site_id
 _symmetry_equiv_pos_as_xyz
  1  'x, y, z'
loop_
 _atom_site_type_symbol
 _atom_site_label
 _atom_site_symmetry_multiplicity
 _atom_site_fract_x
 _atom_site_fract_y
 _atom_site_fract_z
 _atom_site_occupancy
  Mg  Mg0  1  0.53516800  0.96483200  0.96483200  1
  Mg  Mg1  1  0.28516800  0.71483200  0.71483200  1
  Sb  Sb0  1  0.89947100  0.38678700  0.34236200  1
  Sb  Sb1  1  0.37138000  0.34236200  0.38678700  1
  Sb  Sb2  1  0.86321300  0.35052900  0.87862000  1
  Sb  Sb3  1  0.90763800  0.87862000  0.35052900  1
  P  P0  1  0.02763100  0.59829000  0.93898200  1
  P  P1  1  0.65171000  0.22236900  0.81490200  1
  P  P2  1  0.43509800  0.93898200  0.59829000  1
  P  P3  1  0.31101800  0.81490200  0.22236900  1
  O  O0  1  0.60382600  0.71051500  0.45057100  1
  O  O1  1  0.66323700  0.16004900  0.32688600  1
  O  O2  1  0.29642600  0.73466700  0.43072400  1
  O  O3  1  0.79942900  0.01491100  0.64617400  1
  O  O4  1  0.22629000  0.98550600  0.74959800  1
  O  O5  1  0.38604000  0.10132000  0.44311300  1
  O  O6  1  0.08995100  0.58676300  0.40017100  1
  O  O7  1  0.84982900  0.32688600  0.16004900  1
  O  O8  1  0.92311400  0.40017100  0.58676300  1
  O  O9  1  0.26449400  0.02371000  0.21139400  1
  O  O10  1  0.23508900  0.45057100  0.71051500  1
  O  O11  1  0.50040200  0.21139400  0.02371000  1
  O  O12  1  0.03860600  0.74959800  0.98550600  1
  O  O13  1  0.14868000  0.86396000  0.18047300  1
  O  O14  1  0.06952700  0.44311300  0.10132000  1
  O  O15  1  0.80688700  0.18047300  0.86396000  1
  O  O16  1  0.81927600  0.71181700  0.95357400  1
  O  O17  1  0.53818300  0.43072400  0.73466700  1
  O  O18  1  0.53948500  0.64617400  0.01491100  1
  O  O19  1  0.51533300  0.95357400  0.71181700  1
loop_
_geom_bond_atom_site_label_1
_geom_bond_atom_site_label_2
_geom_bond_distance
_geom_bond_site_symmetry_2
Mg0 O16 2.019660 1_555
Mg0 O19 2.019660 1_555
Mg0 O9 2.094117 1_566
Mg0 O11 2.094117 1_566
Mg1 O17 2.019660 1_555
Mg1 O2 2.019660 1_555
Mg1 O12 2.094117 1_555
Mg1 O4 2.094117 1_555
O0 P2 1.562412 1_555
O0 Sb0 2.079780 1_555
O1 Sb1 1.951892 1_555
O1 Sb3 1.987563 1_545
O2 P3 1.522820 1_555
O3 P1 1.562412 1_555
O3 Sb3 2.079776 1_545
O4 P2 1.565047 1_555
O4 Sb2 2.437137 1_465
O5 P2 1.574682 1_545
O5 Sb1 2.015025 1_555
O6 Sb3 1.951889 1_455
O6 Sb1 1.987566 1_555
O7 Sb0 1.951884 1_555
O7 Sb2 1.987567 1_554
O8 Sb2 1.951890 1_555
O8 Sb0 1.987560 1_555
O9 P3 1.565048 1_545
O9 Sb0 2.437137 1_455
O10 P0 1.562412 1_555
O10 Sb1 2.079783 1_555
O11 P1 1.565043 1_554
O11 Sb1 2.437137 1_555
O12 P0 1.565039 1_555
O12 Sb3 2.437137 1_456
O13 P3 1.574677 1_555
O13 Sb3 2.015025 1_455
O14 P0 1.574682 1_554
O14 Sb0 2.015025 1_455
O15 P1 1.574687 1_555
O15 Sb2 2.015025 1_555
O16 P0 1.522823 1_655
O17 P1 1.522820 1_555
O18 P3 1.562412 1_555
O18 Sb2 2.079781 1_554
O19 P2 1.522814 1_555
