# generated using pymatgen
data_Eu4B4O11F2
_symmetry_space_group_name_H-M   'P 1'
_cell_length_a   7.38493748
_cell_length_b   7.38493748
_cell_length_c   13.94467227
_cell_angle_alpha   89.11157898
_cell_angle_beta   89.11157898
_cell_angle_gamma   37.38706046
_symmetry_Int_Tables_number   1
_chemical_formula_structural   Eu4B4O11F2
_chemical_formula_sum   'Eu8 B8 O22 F4'
_cell_volume   461.71391985
_cell_formula_units_Z   2
loop_
 _symmetry_equiv_pos_site_id
 _symmetry_equiv_pos_as_xyz
  1  'x, y, z'
loop_
 _atom_site_type_symbol
 _atom_site_label
 _atom_site_symmetry_multiplicity
 _atom_site_fract_x
 _atom_site_fract_y
 _atom_site_fract_z
 _atom_site_occupancy
  Eu  Eu0  1  0.45615900  0.42232600  0.37161900  1
  Eu  Eu1  1  0.57767400  0.54384100  0.12838100  1
  Eu  Eu2  1  0.54384100  0.57767400  0.62838100  1
  Eu  Eu3  1  0.42232600  0.45615900  0.87161900  1
  Eu  Eu4  1  0.73890800  0.70474800  0.37306400  1
  Eu  Eu5  1  0.29525200  0.26109200  0.12693600  1
  Eu  Eu6  1  0.26109200  0.29525200  0.62693600  1
  Eu  Eu7  1  0.70474800  0.73890800  0.87306400  1
  B  B0  1  0.06417600  0.11809800  0.28806900  1
  B  B1  1  0.88190200  0.93582400  0.21193100  1
  B  B2  1  0.93582400  0.88190200  0.71193100  1
  B  B3  1  0.11809800  0.06417600  0.78806900  1
  B  B4  1  0.86078200  0.94866500  0.52626200  1
  B  B5  1  0.05133500  0.13921800  0.97373800  1
  B  B6  1  0.13921800  0.05133500  0.47373800  1
  B  B7  1  0.94866500  0.86078200  0.02626200  1
  O  O0  1  0.95905500  0.21691400  0.39290600  1
  O  O1  1  0.78308600  0.04094500  0.10709400  1
  O  O2  1  0.04094500  0.78308600  0.60709400  1
  O  O3  1  0.21691400  0.95905500  0.89290600  1
  O  O4  1  0.65038400  0.00818100  0.25681600  1
  O  O5  1  0.99181900  0.34961600  0.24318400  1
  O  O6  1  0.34961600  0.99181900  0.74318400  1
  O  O7  1  0.00818100  0.65038400  0.75681600  1
  O  O8  1  0.59231300  0.25077200  0.53549800  1
  O  O9  1  0.74922800  0.40768700  0.96450200  1
  O  O10  1  0.40768700  0.74922800  0.46450200  1
  O  O11  1  0.25077200  0.59231300  0.03549800  1
  O  O12  1  0.84977000  0.15023000  0.25000000  1
  O  O13  1  0.15023000  0.84977000  0.75000000  1
  O  O14  1  0.94660000  0.82669800  0.43703300  1
  O  O15  1  0.17330200  0.05340000  0.06296700  1
  O  O16  1  0.05340000  0.17330200  0.56296700  1
  O  O17  1  0.82669800  0.94660000  0.93703300  1
  O  O18  1  0.37245300  0.82631300  0.27551800  1
  O  O19  1  0.17368700  0.62754700  0.22448200  1
  O  O20  1  0.62754700  0.17368700  0.72448200  1
  O  O21  1  0.82631300  0.37245300  0.77551800  1
  F  F0  1  0.29364800  0.24499700  0.42482900  1
  F  F1  1  0.75500300  0.70635200  0.07517100  1
  F  F2  1  0.70635200  0.75500300  0.57517100  1
  F  F3  1  0.24499700  0.29364800  0.92482900  1
loop_
_geom_bond_atom_site_label_1
_geom_bond_atom_site_label_2
_geom_bond_distance
_geom_bond_site_symmetry_2
Eu0 O8 2.407398 1_555
Eu0 O19 2.422931 1_555
Eu0 O14 2.455800 1_455
Eu0 O12 2.456486 1_555
Eu0 F0 2.479033 1_555
Eu0 O10 2.518568 1_555
Eu0 O4 2.661522 1_555
Eu0 O0 2.692508 1_555
Eu0 O14 2.821292 1_545
Eu0 O18 2.837215 1_555
Eu1 O9 2.407398 1_554
Eu1 O18 2.422931 1_555
Eu1 O15 2.455800 1_565
Eu1 O12 2.456486 1_555
Eu1 F1 2.479033 1_555
Eu1 O11 2.518568 1_555
Eu1 O5 2.661522 1_555
Eu1 O1 2.692508 1_555
Eu1 O15 2.821292 1_655
Eu1 O19 2.837215 1_555
Eu2 O10 2.407398 1_555
Eu2 O21 2.422931 1_555
Eu2 O16 2.455800 1_655
Eu2 O13 2.456486 1_555
Eu2 F2 2.479033 1_555
Eu2 O8 2.518568 1_555
Eu2 O6 2.661522 1_555
Eu2 O2 2.692508 1_555
Eu2 O16 2.821292 1_565
Eu2 O20 2.837215 1_555
Eu3 O11 2.407398 1_556
Eu3 O20 2.422931 1_555
Eu3 O17 2.455800 1_545
Eu3 O13 2.456486 1_555
Eu3 F3 2.479033 1_555
Eu3 O9 2.518568 1_555
Eu3 O7 2.661522 1_555
Eu3 O3 2.692508 1_555
Eu3 O17 2.821292 1_455
Eu3 O21 2.837215 1_555
Eu4 O4 2.380920 1_565
Eu4 O5 2.430060 1_555
Eu4 O18 2.489078 1_555
Eu4 O14 2.494334 1_555
Eu4 O10 2.521172 1_555
Eu4 O0 2.524713 1_555
Eu4 F0 2.533655 1_565
Eu4 F0 2.596948 1_655
Eu4 F2 2.829854 1_555
Eu5 O5 2.380920 1_455
Eu5 O4 2.430060 1_555
Eu5 O19 2.489078 1_555
Eu5 O15 2.494334 1_555
Eu5 O11 2.521172 1_555
Eu5 O1 2.524713 1_555
Eu5 F1 2.533655 1_455
Eu5 F1 2.596948 1_545
Eu5 F3 2.829854 1_554
Eu6 O6 2.380920 1_545
Eu6 O7 2.430060 1_555
Eu6 O20 2.489078 1_555
Eu6 O16 2.494334 1_555
Eu6 O8 2.521172 1_555
Eu6 O2 2.524713 1_555
Eu6 F2 2.533655 1_545
Eu6 F2 2.596948 1_455
Eu6 F0 2.829854 1_555
Eu7 O7 2.380920 1_655
Eu7 O6 2.430060 1_555
Eu7 O21 2.489078 1_555
Eu7 O17 2.494334 1_555
Eu7 O9 2.521172 1_555
Eu7 O3 2.524713 1_555
Eu7 F3 2.533655 1_655
Eu7 F3 2.596948 1_565
Eu7 F1 2.829854 1_556
B0 O18 1.435453 1_545
B0 O5 1.458044 1_455
B0 O12 1.506749 1_455
B0 O0 1.539493 1_455
B1 O19 1.435453 1_655
B1 O4 1.458044 1_565
B1 O12 1.506749 1_565
B1 O1 1.539493 1_565
B2 O20 1.435453 1_565
B2 O7 1.458044 1_655
B2 O13 1.506749 1_655
B2 O2 1.539493 1_655
B3 O21 1.435453 1_455
B3 O6 1.458044 1_545
B3 O13 1.506749 1_545
B3 O3 1.539493 1_545
B4 O14 1.365404 1_555
B4 O8 1.377250 1_565
B4 O2 1.397992 1_655
B5 O15 1.365404 1_556
B5 O9 1.377250 1_455
B5 O3 1.397992 1_545
B6 O16 1.365404 1_555
B6 O10 1.377250 1_545
B6 O0 1.397992 1_455
B7 O17 1.365404 1_554
B7 O11 1.377250 1_655
B7 O1 1.397992 1_565
