# generated using pymatgen
data_ZnCoMo2O7
_symmetry_space_group_name_H-M   'P 1'
_cell_length_a   15.21317100
_cell_length_b   6.67981100
_cell_length_c   12.21221007
_cell_angle_alpha   75.56051007
_cell_angle_beta   90.00000000
_cell_angle_gamma   90.00000000
_symmetry_Int_Tables_number   1
_chemical_formula_structural   ZnCoMo2O7
_chemical_formula_sum   'Zn8 Co8 Mo16 O56'
_cell_volume   1201.81643266
_cell_formula_units_Z   8
loop_
 _symmetry_equiv_pos_site_id
 _symmetry_equiv_pos_as_xyz
  1  'x, y, z'
loop_
 _atom_site_type_symbol
 _atom_site_label
 _atom_site_symmetry_multiplicity
 _atom_site_fract_x
 _atom_site_fract_y
 _atom_site_fract_z
 _atom_site_occupancy
  Zn  Zn0  1  0.52279800  0.96396400  0.75484300  1
  Zn  Zn1  1  0.86317900  0.65050000  0.02476000  1
  Zn  Zn2  1  0.36317900  0.34950000  0.47524000  1
  Zn  Zn3  1  0.13682100  0.34950000  0.97524000  1
  Zn  Zn4  1  0.63682100  0.65050000  0.52476000  1
  Zn  Zn5  1  0.97720200  0.96396400  0.25484300  1
  Zn  Zn6  1  0.47720200  0.03603600  0.24515700  1
  Zn  Zn7  1  0.02279800  0.03603600  0.74515700  1
  Co  Co0  1  0.63953000  0.34668600  0.08834400  1
  Co  Co1  1  0.13953000  0.65331400  0.41165600  1
  Co  Co2  1  0.36047000  0.65331400  0.91165600  1
  Co  Co3  1  0.86047000  0.34668600  0.58834400  1
  Co  Co4  1  0.76455700  0.02138000  0.24793200  1
  Co  Co5  1  0.26455700  0.97862000  0.25206800  1
  Co  Co6  1  0.23544300  0.97862000  0.75206800  1
  Co  Co7  1  0.73544300  0.02138000  0.74793200  1
  Mo  Mo0  1  0.89680900  0.14271800  0.99486300  1
  Mo  Mo1  1  0.03626900  0.56060500  0.69607600  1
  Mo  Mo2  1  0.46373100  0.56060500  0.19607600  1
  Mo  Mo3  1  0.96373100  0.43939500  0.30392400  1
  Mo  Mo4  1  0.74045800  0.48521300  0.80798500  1
  Mo  Mo5  1  0.24045800  0.51478700  0.69201500  1
  Mo  Mo6  1  0.25954200  0.51478700  0.19201500  1
  Mo  Mo7  1  0.75954200  0.48521300  0.30798500  1
  Mo  Mo8  1  0.53626900  0.43939500  0.80392400  1
  Mo  Mo9  1  0.14126500  0.14257800  0.47974400  1
  Mo  Mo10  1  0.64126500  0.85742200  0.02025600  1
  Mo  Mo11  1  0.85873500  0.85742200  0.52025600  1
  Mo  Mo12  1  0.39680900  0.85728200  0.50513700  1
  Mo  Mo13  1  0.60319100  0.14271800  0.49486300  1
  Mo  Mo14  1  0.10319100  0.85728200  0.00513700  1
  Mo  Mo15  1  0.35873500  0.14257800  0.97974400  1
  O  O0  1  0.01067400  0.21955200  0.95188100  1
  O  O1  1  0.51067400  0.78044800  0.54811900  1
  O  O2  1  0.98932600  0.78044800  0.04811900  1
  O  O3  1  0.48932600  0.21955200  0.45188100  1
  O  O4  1  0.83332500  0.94889600  0.94097900  1
  O  O5  1  0.33332500  0.05110400  0.55902100  1
  O  O6  1  0.16667500  0.05110400  0.05902100  1
  O  O7  1  0.66667500  0.94889600  0.44097900  1
  O  O8  1  0.87068300  0.04437100  0.15036400  1
  O  O9  1  0.37068300  0.95562900  0.34963600  1
  O  O10  1  0.12931700  0.95562900  0.84963600  1
  O  O11  1  0.62931700  0.04437100  0.65036400  1
  O  O12  1  0.28881300  0.36685700  0.94403300  1
  O  O13  1  0.78881300  0.63314300  0.55596700  1
  O  O14  1  0.71118700  0.63314300  0.05596700  1
  O  O15  1  0.21118700  0.36685700  0.44403300  1
  O  O16  1  0.36268400  0.02444800  0.12979000  1
  O  O17  1  0.86268400  0.97555200  0.37021000  1
  O  O18  1  0.63731600  0.97555200  0.87021000  1
  O  O19  1  0.13731600  0.02444800  0.62979000  1
  O  O20  1  0.33098600  0.95455000  0.90086800  1
  O  O21  1  0.47152600  0.69263200  0.81622300  1
  O  O22  1  0.83098600  0.04545000  0.59913200  1
  O  O23  1  0.16901400  0.95455000  0.40086800  1
  O  O24  1  0.48941500  0.24965500  0.72838700  1
  O  O25  1  0.98941500  0.75034500  0.77161300  1
  O  O26  1  0.51058500  0.75034500  0.27161300  1
  O  O27  1  0.01058500  0.24965500  0.22838700  1
  O  O28  1  0.46606700  0.25013100  0.94902000  1
  O  O29  1  0.96606700  0.74986900  0.55098000  1
  O  O30  1  0.53393300  0.74986900  0.05098000  1
  O  O31  1  0.03393300  0.25013100  0.44902000  1
  O  O32  1  0.85986500  0.54975700  0.19683100  1
  O  O33  1  0.35986500  0.45024300  0.30316900  1
  O  O34  1  0.14013500  0.45024300  0.80316900  1
  O  O35  1  0.64013500  0.54975700  0.69683100  1
  O  O36  1  0.70946800  0.28857700  0.24012000  1
  O  O37  1  0.20946800  0.71142300  0.25988000  1
  O  O38  1  0.29053200  0.71142300  0.75988000  1
  O  O39  1  0.79053200  0.28857700  0.74012000  1
  O  O40  1  0.66562700  0.40592800  0.45071200  1
  O  O41  1  0.16562700  0.59407200  0.04928800  1
  O  O42  1  0.33437300  0.59407200  0.54928800  1
  O  O43  1  0.83437300  0.40592800  0.95071200  1
  O  O44  1  0.72041200  0.74181600  0.28451100  1
  O  O45  1  0.22041200  0.25818400  0.21548900  1
  O  O46  1  0.27958800  0.25818400  0.71548900  1
  O  O47  1  0.77958800  0.74181600  0.78451100  1
  O  O48  1  0.86093100  0.40552400  0.41356000  1
  O  O49  1  0.36093100  0.59447600  0.08644000  1
  O  O50  1  0.13906900  0.59447600  0.58644000  1
  O  O51  1  0.63906900  0.40552400  0.91356000  1
  O  O52  1  0.02847400  0.69263200  0.31622300  1
  O  O53  1  0.52847400  0.30736800  0.18377700  1
  O  O54  1  0.97152600  0.30736800  0.68377700  1
  O  O55  1  0.66901400  0.04545000  0.09913200  1
loop_
_geom_bond_atom_site_label_1
_geom_bond_atom_site_label_2
_geom_bond_distance
_geom_bond_site_symmetry_2
Co0 O53 2.032007 1_555
Co0 O55 2.033541 1_555
Co0 O51 2.071769 1_554
Co0 O36 2.087930 1_555
Co0 O14 2.151466 1_555
Co1 O52 2.032007 1_555
Co1 O23 2.033541 1_555
Co1 O50 2.071769 1_555
Co1 O37 2.087930 1_555
Co1 O15 2.151466 1_555
Co2 O21 2.032007 1_555
Co2 O20 2.033541 1_555
Co2 O49 2.071769 1_556
Co2 O38 2.087930 1_555
Co2 O12 2.151466 1_555
Co3 O54 2.032007 1_555
Co3 O22 2.033541 1_555
Co3 O48 2.071769 1_555
Co3 O39 2.087930 1_555
Co3 O13 2.151466 1_555
Co4 O44 1.929212 1_545
Co4 O36 1.952475 1_555
Co4 O8 1.989648 1_555
Co4 O17 2.079460 1_545
Co4 O55 2.301080 1_555
Co5 O45 1.929212 1_565
Co5 O37 1.952475 1_555
Co5 O9 1.989648 1_555
Co5 O16 2.079460 1_565
Co5 O23 2.301080 1_555
Co6 O46 1.929212 1_565
Co6 O38 1.952475 1_555
Co6 O10 1.989648 1_555
Co6 O19 2.079460 1_565
Co6 O20 2.301080 1_555
Co7 O47 1.929212 1_545
Co7 O39 1.952475 1_555
Co7 O11 1.989648 1_555
Co7 O18 2.079460 1_545
Co7 O22 2.301080 1_555
Mo0 O0 1.845336 1_655
Mo0 O4 1.861960 1_545
Mo0 O8 1.890402 1_556
Mo0 O43 1.952281 1_555
Mo1 O25 1.883744 1_455
Mo1 O54 1.995198 1_455
Mo1 O50 2.034352 1_555
Mo1 O34 2.066373 1_555
Mo1 O29 2.182088 1_455
Mo2 O26 1.883744 1_555
Mo2 O53 1.995198 1_555
Mo2 O49 2.034352 1_555
Mo2 O33 2.066373 1_555
Mo2 O30 2.182088 1_555
Mo3 O27 1.883744 1_655
Mo3 O52 1.995198 1_655
Mo3 O48 2.034352 1_555
Mo3 O32 2.066373 1_555
Mo3 O31 2.182088 1_655
Mo4 O47 1.769039 1_555
Mo4 O39 1.880254 1_555
Mo4 O51 1.995628 1_555
Mo4 O35 2.016439 1_555
Mo4 O43 2.213485 1_555
Mo5 O46 1.769039 1_555
Mo5 O38 1.880254 1_555
Mo5 O50 1.995628 1_555
Mo5 O34 2.016439 1_555
Mo5 O42 2.213485 1_555
Mo6 O45 1.769039 1_555
Mo6 O37 1.880254 1_555
Mo6 O49 1.995628 1_555
Mo6 O33 2.016439 1_555
Mo6 O41 2.213485 1_555
Mo7 O44 1.769039 1_555
Mo7 O36 1.880254 1_555
Mo7 O48 1.995628 1_555
Mo7 O32 2.016439 1_555
Mo7 O40 2.213485 1_555
Mo8 O24 1.883744 1_555
Mo8 O21 1.995198 1_555
Mo8 O51 2.034352 1_555
Mo8 O35 2.066373 1_555
Mo8 O28 2.182088 1_555
Mo9 O31 1.785700 1_555
Mo9 O15 1.800087 1_555
Mo9 O19 1.806331 1_555
Mo9 O23 1.812992 1_545
Mo10 O30 1.785700 1_555
Mo10 O14 1.800087 1_555
Mo10 O18 1.806331 1_554
Mo10 O55 1.812992 1_565
Mo11 O29 1.785700 1_555
Mo11 O13 1.800087 1_555
Mo11 O17 1.806331 1_555
Mo11 O22 1.812992 1_565
Mo12 O1 1.845336 1_555
Mo12 O5 1.861960 1_565
Mo12 O9 1.890402 1_555
Mo12 O42 1.952281 1_555
Mo13 O3 1.845336 1_555
Mo13 O7 1.861960 1_545
Mo13 O11 1.890402 1_555
Mo13 O40 1.952281 1_555
Mo14 O2 1.845336 1_455
Mo14 O6 1.861960 1_565
Mo14 O10 1.890402 1_554
Mo14 O41 1.952281 1_555
Mo15 O28 1.785700 1_555
Mo15 O12 1.800087 1_555
Mo15 O16 1.806331 1_556
Mo15 O20 1.812992 1_545
O0 Zn3 2.154360 1_555
O1 Zn4 2.154360 1_555
O2 Zn1 2.154360 1_555
O3 Zn2 2.154360 1_555
O4 Zn1 2.051587 1_556
O5 Zn2 2.051587 1_555
O6 Zn3 2.051587 1_554
O7 Zn4 2.051587 1_555
O8 Zn5 2.049555 1_545
O9 Zn6 2.049555 1_565
O10 Zn7 2.049555 1_565
O11 Zn0 2.049555 1_545
O12 Zn3 2.341642 1_555
O13 Zn4 2.341642 1_555
O14 Zn1 2.341642 1_555
O15 Zn2 2.341642 1_555
O16 Zn6 2.254005 1_555
O17 Zn5 2.254005 1_555
O18 Zn0 2.254005 1_555
O19 Zn7 2.254005 1_555
O21 Zn0 1.943633 1_555
O24 Zn0 1.922671 1_545
O25 Zn7 1.922671 1_665
O26 Zn6 1.922671 1_565
O27 Zn5 1.922671 1_445
O32 Zn1 2.041055 1_555
O33 Zn2 2.041055 1_555
O34 Zn3 2.041055 1_555
O35 Zn4 2.041055 1_555
O40 Zn4 2.101312 1_555
O41 Zn3 2.101312 1_554
O42 Zn2 2.101312 1_555
O43 Zn1 2.101312 1_556
O52 Zn5 1.943633 1_455
O53 Zn6 1.943633 1_555
O54 Zn7 1.943633 1_655
