# generated using pymatgen
data_Sm5(SiB4)2
_symmetry_space_group_name_H-M   'P 1'
_cell_length_a   7.35492400
_cell_length_b   7.35492400
_cell_length_c   8.36462800
_cell_angle_alpha   90.00000000
_cell_angle_beta   90.00000000
_cell_angle_gamma   90.00000000
_symmetry_Int_Tables_number   1
_chemical_formula_structural   Sm5(SiB4)2
_chemical_formula_sum   'Sm10 Si4 B16'
_cell_volume   452.48377413
_cell_formula_units_Z   2
loop_
 _symmetry_equiv_pos_site_id
 _symmetry_equiv_pos_as_xyz
  1  'x, y, z'
loop_
 _atom_site_type_symbol
 _atom_site_label
 _atom_site_symmetry_multiplicity
 _atom_site_fract_x
 _atom_site_fract_y
 _atom_site_fract_z
 _atom_site_occupancy
  Sm  Sm0  1  0.68042100  0.18042100  0.22387200  1
  Sm  Sm1  1  0.31957900  0.81957900  0.77612800  1
  Sm  Sm2  1  0.31957900  0.81957900  0.22387200  1
  Sm  Sm3  1  0.81957900  0.68042100  0.22387200  1
  Sm  Sm4  1  0.81957900  0.68042100  0.77612800  1
  Sm  Sm5  1  0.68042100  0.18042100  0.77612800  1
  Sm  Sm6  1  0.18042100  0.31957900  0.77612800  1
  Sm  Sm7  1  0.18042100  0.31957900  0.22387200  1
  Sm  Sm8  1  0.00000000  0.00000000  0.50000000  1
  Sm  Sm9  1  0.50000000  0.50000000  0.50000000  1
  Si  Si0  1  0.11292000  0.61292000  0.50000000  1
  Si  Si1  1  0.88708000  0.38708000  0.50000000  1
  Si  Si2  1  0.38708000  0.11292000  0.50000000  1
  Si  Si3  1  0.61292000  0.88708000  0.50000000  1
  B  B0  1  0.17149800  0.03910800  0.00000000  1
  B  B1  1  0.82850200  0.96089200  0.00000000  1
  B  B2  1  0.96089200  0.17149800  0.00000000  1
  B  B3  1  0.32850200  0.53910800  0.00000000  1
  B  B4  1  0.03910800  0.82850200  0.00000000  1
  B  B5  1  0.67149800  0.46089200  0.00000000  1
  B  B6  1  0.53910800  0.67149800  0.00000000  1
  B  B7  1  0.46089200  0.32850200  0.00000000  1
  B  B8  1  0.09070800  0.59070800  0.00000000  1
  B  B9  1  0.90929200  0.40929200  0.00000000  1
  B  B10  1  0.40929200  0.09070800  0.00000000  1
  B  B11  1  0.59070800  0.90929200  0.00000000  1
  B  B12  1  0.00000000  0.00000000  0.15563700  1
  B  B13  1  0.00000000  0.00000000  0.84436300  1
  B  B14  1  0.50000000  0.50000000  0.84436300  1
  B  B15  1  0.50000000  0.50000000  0.15563700  1
loop_
_geom_bond_atom_site_label_1
_geom_bond_atom_site_label_2
_geom_bond_distance
_geom_bond_site_symmetry_2
Si0 Si1 2.349060 1_455
Si0 Sm9 2.965611 1_555
Si0 Sm8 2.965611 1_565
Si0 Sm1 3.155204 1_555
Si0 Sm2 3.155204 1_555
Si0 Sm4 3.199381 1_455
Si0 Sm6 3.199381 1_555
Si0 Sm3 3.199381 1_455
Si0 Sm7 3.199381 1_555
Si1 Sm8 2.965611 1_655
Si1 Sm9 2.965611 1_555
Si1 Sm5 3.155204 1_555
Si1 Sm0 3.155204 1_555
Si1 Sm4 3.199381 1_555
Si1 Sm6 3.199381 1_655
Si1 Sm3 3.199381 1_555
Si1 Sm7 3.199381 1_655
Si2 Si3 2.349060 1_545
Si2 Sm9 2.965611 1_555
Si2 Sm8 2.965611 1_555
Si2 Sm6 3.155204 1_555
Si2 Sm7 3.155204 1_555
Si2 Sm5 3.199381 1_555
Si2 Sm1 3.199381 1_545
Si2 Sm0 3.199381 1_555
Si2 Sm2 3.199381 1_545
Si3 Sm8 2.965611 1_665
Si3 Sm9 2.965611 1_555
Si3 Sm4 3.155204 1_555
Si3 Sm3 3.155204 1_555
Si3 Sm5 3.199381 1_565
Si3 Sm1 3.199381 1_555
Si3 Sm0 3.199381 1_565
Si3 Sm2 3.199381 1_555
B0 B10 1.789659 1_555
B0 B2 1.829618 1_455
B0 B4 1.829618 1_545
B0 B13 1.835362 1_554
B0 B12 1.835362 1_555
B0 Sm2 2.701822 1_545
B0 Sm1 2.701822 1_544
B0 Sm7 2.786805 1_555
B0 Sm6 2.786805 1_554
B1 B11 1.789659 1_555
B1 B2 1.829618 1_565
B1 B4 1.829618 1_655
B1 B12 1.835362 1_665
B1 B13 1.835362 1_664
B1 Sm0 2.701822 1_565
B1 Sm5 2.701822 1_564
B1 Sm3 2.786805 1_555
B1 Sm4 2.786805 1_554
B2 B9 1.789659 1_555
B2 Sm7 2.701822 1_655
B2 Sm6 2.701822 1_654
B2 Sm0 2.786805 1_555
B2 Sm5 2.786805 1_554
B3 B8 1.789659 1_555
B3 B7 1.829618 1_555
B3 B6 1.829618 1_555
B3 Sm7 2.701822 1_555
B3 Sm6 2.701822 1_554
B3 Sm2 2.786805 1_555
B3 Sm1 2.786805 1_554
B4 B8 1.789659 1_555
B4 Sm3 2.701822 1_455
B4 Sm4 2.701822 1_454
B4 Sm2 2.786805 1_555
B4 Sm1 2.786805 1_554
B5 B9 1.789659 1_555
B5 B7 1.829618 1_555
B5 B6 1.829618 1_555
B5 Sm3 2.701822 1_555
B5 Sm4 2.701822 1_554
B5 Sm0 2.786805 1_555
B5 Sm5 2.786805 1_554
B6 Sm2 2.701822 1_555
B6 Sm1 2.701822 1_554
B6 Sm3 2.786805 1_555
B6 Sm4 2.786805 1_554
B7 Sm0 2.701822 1_555
B7 Sm5 2.701822 1_554
B7 Sm7 2.786805 1_555
B7 Sm6 2.786805 1_554
B8 B9 1.886986 1_455
B8 Sm3 2.814001 1_455
B8 Sm7 2.814001 1_555
B8 Sm4 2.814001 1_454
B8 Sm6 2.814001 1_554
B8 Sm2 3.028836 1_555
B8 Sm1 3.028836 1_554
B9 Sm3 2.814001 1_555
B9 Sm7 2.814001 1_655
B9 Sm4 2.814001 1_554
B9 Sm6 2.814001 1_654
B9 Sm0 3.028836 1_555
B9 Sm5 3.028836 1_554
B10 B7 1.789659 1_555
B10 B11 1.886986 1_545
B10 Sm0 2.814001 1_555
B10 Sm2 2.814001 1_545
B10 Sm5 2.814001 1_554
B10 Sm1 2.814001 1_544
B10 Sm7 3.028836 1_555
B10 Sm6 3.028836 1_554
B11 B6 1.789659 1_555
B11 Sm0 2.814001 1_565
B11 Sm2 2.814001 1_555
B11 Sm5 2.814001 1_564
B11 Sm1 2.814001 1_554
B11 Sm3 3.028836 1_555
B11 Sm4 3.028836 1_554
B12 B2 1.835362 1_455
B12 B4 1.835362 1_545
B12 Sm2 2.758877 1_545
B12 Sm7 2.758877 1_555
B12 Sm3 2.758877 1_445
B12 Sm0 2.758877 1_455
B12 Sm8 2.880468 1_555
B13 B2 1.835362 1_456
B13 B4 1.835362 1_546
B13 Sm1 2.758877 1_545
B13 Sm6 2.758877 1_555
B13 Sm5 2.758877 1_455
B13 Sm4 2.758877 1_445
B13 Sm8 2.880468 1_555
B14 B6 1.835362 1_556
B14 B5 1.835362 1_556
B14 B3 1.835362 1_556
B14 B7 1.835362 1_556
B14 Sm4 2.758877 1_555
B14 Sm5 2.758877 1_555
B14 Sm1 2.758877 1_555
B14 Sm6 2.758877 1_555
B14 Sm9 2.880468 1_555
B15 B6 1.835362 1_555
B15 B5 1.835362 1_555
B15 B3 1.835362 1_555
B15 B7 1.835362 1_555
B15 Sm3 2.758877 1_555
B15 Sm0 2.758877 1_555
B15 Sm2 2.758877 1_555
B15 Sm7 2.758877 1_555
B15 Sm9 2.880468 1_555
