# generated using pymatgen
data_K2CoO3
_symmetry_space_group_name_H-M   'P 1'
_cell_length_a   6.44946680
_cell_length_b   6.44946680
_cell_length_c   12.80733500
_cell_angle_alpha   90.00000000
_cell_angle_beta   90.00000000
_cell_angle_gamma   126.08396916
_symmetry_Int_Tables_number   1
_chemical_formula_structural   K2CoO3
_chemical_formula_sum   'K8 Co4 O12'
_cell_volume   430.52750047
_cell_formula_units_Z   4
loop_
 _symmetry_equiv_pos_site_id
 _symmetry_equiv_pos_as_xyz
  1  'x, y, z'
loop_
 _atom_site_type_symbol
 _atom_site_label
 _atom_site_symmetry_multiplicity
 _atom_site_fract_x
 _atom_site_fract_y
 _atom_site_fract_z
 _atom_site_occupancy
  K  K0  1  0.63544900  0.36455100  0.42401300  1
  K  K1  1  0.36455100  0.63544900  0.57598700  1
  K  K2  1  0.86455100  0.13544900  0.92401300  1
  K  K3  1  0.13544900  0.86455100  0.07598700  1
  K  K4  1  0.94237700  0.05762300  0.36012400  1
  K  K5  1  0.05762300  0.94237700  0.63987600  1
  K  K6  1  0.55762300  0.44237700  0.86012400  1
  K  K7  1  0.44237700  0.55762300  0.13987600  1
  Co  Co0  1  0.75659500  0.24340500  0.16734000  1
  Co  Co1  1  0.24340500  0.75659500  0.83266000  1
  Co  Co2  1  0.74340500  0.25659500  0.66734000  1
  Co  Co3  1  0.25659500  0.74340500  0.33266000  1
  O  O0  1  0.66524600  0.33475400  0.05625100  1
  O  O1  1  0.33475400  0.66524600  0.94374900  1
  O  O2  1  0.83475400  0.16524600  0.55625100  1
  O  O3  1  0.16524600  0.83475400  0.44374900  1
  O  O4  1  0.90627900  0.09372100  0.13767900  1
  O  O5  1  0.09372100  0.90627900  0.86232100  1
  O  O6  1  0.59372100  0.40627900  0.63767900  1
  O  O7  1  0.40627900  0.59372100  0.36232100  1
  O  O8  1  0.96682100  0.53317900  0.25000000  1
  O  O9  1  0.03317900  0.46682100  0.75000000  1
  O  O10  1  0.53317900  0.96682100  0.75000000  1
  O  O11  1  0.46682100  0.03317900  0.25000000  1
loop_
_geom_bond_atom_site_label_1
_geom_bond_atom_site_label_2
_geom_bond_distance
_geom_bond_site_symmetry_2
K0 O7 2.750757 1_555
K0 O6 2.778229 1_555
K0 O8 2.824757 1_555
K0 O11 2.824757 1_555
K0 O2 2.849419 1_555
K0 O3 2.954619 1_655
K0 O3 2.954619 1_545
K1 O6 2.750757 1_555
K1 O7 2.778229 1_555
K1 O9 2.824757 1_555
K1 O10 2.824757 1_555
K1 O3 2.849419 1_555
K1 O2 2.954619 1_565
K1 O2 2.954619 1_455
K2 O5 2.750757 1_645
K2 O4 2.778229 1_556
K2 O10 2.824757 1_545
K2 O9 2.824757 1_655
K2 O0 2.849419 1_556
K2 O1 2.954619 1_545
K2 O1 2.954619 1_655
K3 O4 2.750757 1_465
K3 O5 2.778229 1_554
K3 O8 2.824757 1_455
K3 O11 2.824757 1_565
K3 O1 2.849419 1_554
K3 O0 2.954619 1_455
K3 O0 2.954619 1_565
K4 O3 2.777219 1_645
K4 O2 2.800100 1_555
K4 O4 2.879000 1_555
K4 O7 2.953229 1_545
K4 O7 2.953229 1_655
K5 O2 2.777219 1_465
K5 O3 2.800100 1_555
K5 O5 2.879000 1_555
K5 O6 2.953229 1_455
K5 O6 2.953229 1_565
K6 O1 2.777219 1_555
K6 O0 2.800100 1_556
K6 O6 2.879000 1_555
K6 O5 2.953229 1_655
K6 O5 2.953229 1_545
K7 O0 2.777219 1_555
K7 O1 2.800100 1_554
K7 O7 2.879000 1_555
K7 O4 2.953229 1_565
K7 O4 2.953229 1_455
Co0 O4 1.762393 1_555
Co0 O0 1.768416 1_555
Co0 O8 1.861987 1_555
Co0 O11 1.861987 1_555
Co1 O5 1.762393 1_555
Co1 O1 1.768416 1_555
Co1 O10 1.861987 1_555
Co1 O9 1.861987 1_555
Co2 O6 1.762393 1_555
Co2 O2 1.768416 1_555
Co2 O10 1.861987 1_545
Co2 O9 1.861987 1_655
Co3 O7 1.762393 1_555
Co3 O3 1.768416 1_555
Co3 O8 1.861987 1_455
Co3 O11 1.861987 1_565
