# generated using pymatgen
data_MnH8C4(NO3)2
_symmetry_space_group_name_H-M   'P 1'
_cell_length_a   8.35969180
_cell_length_b   8.35969180
_cell_length_c   8.69144003
_cell_angle_alpha   64.14910701
_cell_angle_beta   64.14910701
_cell_angle_gamma   62.80224919
_symmetry_Int_Tables_number   1
_chemical_formula_structural   MnH8C4(NO3)2
_chemical_formula_sum   'Mn2 H16 C8 N4 O12'
_cell_volume   464.42763561
_cell_formula_units_Z   2
loop_
 _symmetry_equiv_pos_site_id
 _symmetry_equiv_pos_as_xyz
  1  'x, y, z'
loop_
 _atom_site_type_symbol
 _atom_site_label
 _atom_site_symmetry_multiplicity
 _atom_site_fract_x
 _atom_site_fract_y
 _atom_site_fract_z
 _atom_site_occupancy
  Mn  Mn0  1  0.00000000  0.50000000  0.50000000  1
  Mn  Mn1  1  0.50000000  0.00000000  0.00000000  1
  H  H0  1  0.32192100  0.67807900  0.25000000  1
  H  H1  1  0.67807900  0.32192100  0.75000000  1
  H  H2  1  0.82507700  0.70415500  0.17672600  1
  H  H3  1  0.29584500  0.17492300  0.32327400  1
  H  H4  1  0.17492300  0.29584500  0.82327400  1
  H  H5  1  0.70415500  0.82507700  0.67672600  1
  H  H6  1  0.38429600  0.85861600  0.48650900  1
  H  H7  1  0.14138400  0.61570400  0.01349100  1
  H  H8  1  0.61570400  0.14138400  0.51349100  1
  H  H9  1  0.85861600  0.38429600  0.98650900  1
  H  H10  1  0.15902400  0.99335100  0.60202100  1
  H  H11  1  0.00664900  0.84097600  0.89797900  1
  H  H12  1  0.84097600  0.00664900  0.39797900  1
  H  H13  1  0.99335100  0.15902400  0.10202100  1
  H  H14  1  0.39803100  0.60196900  0.75000000  1
  H  H15  1  0.60196900  0.39803100  0.25000000  1
  C  C0  1  0.19435100  0.80564900  0.25000000  1
  C  C1  1  0.80564900  0.19435100  0.75000000  1
  C  C2  1  0.70374300  0.73205600  0.29555500  1
  C  C3  1  0.26794400  0.29625700  0.20444500  1
  C  C4  1  0.29625700  0.26794400  0.70444500  1
  C  C5  1  0.73205600  0.70374300  0.79555500  1
  C  C6  1  0.27215600  0.72784400  0.75000000  1
  C  C7  1  0.72784400  0.27215600  0.25000000  1
  N  N0  1  0.27171000  0.86909300  0.60200900  1
  N  N1  1  0.13090700  0.72829000  0.89799100  1
  N  N2  1  0.72829000  0.13090700  0.39799100  1
  N  N3  1  0.86909300  0.27171000  0.10200900  1
  O  O0  1  0.72738400  0.64317700  0.44919600  1
  O  O1  1  0.35682300  0.27261600  0.05080400  1
  O  O2  1  0.27261600  0.35682300  0.55080400  1
  O  O3  1  0.64317700  0.72738400  0.94919600  1
  O  O4  1  0.14918000  0.45167400  0.23194100  1
  O  O5  1  0.54832600  0.85082000  0.26805900  1
  O  O6  1  0.85082000  0.54832600  0.76805900  1
  O  O7  1  0.45167400  0.14918000  0.73194100  1
  O  O8  1  0.03734600  0.78447000  0.35485200  1
  O  O9  1  0.21553000  0.96265400  0.14514800  1
  O  O10  1  0.96265400  0.21553000  0.64514800  1
  O  O11  1  0.78447000  0.03734600  0.85485200  1
loop_
_geom_bond_atom_site_label_1
_geom_bond_atom_site_label_2
_geom_bond_distance
_geom_bond_site_symmetry_2
Mn0 O2 2.178191 1_555
Mn0 O0 2.178191 1_455
Mn0 O4 2.230019 1_555
Mn0 O6 2.230019 1_455
Mn0 O8 2.250160 1_555
Mn0 O10 2.250160 1_455
Mn1 O1 2.178191 1_555
Mn1 O3 2.178191 1_544
Mn1 O5 2.230019 1_545
Mn1 O7 2.230019 1_554
Mn1 O9 2.250160 1_545
Mn1 O11 2.250160 1_554
H6 N0 1.038565 1_555
H7 N1 1.038565 1_554
H8 N2 1.038565 1_555
H9 N3 1.038565 1_556
H10 N0 1.035340 1_555
H11 N1 1.035340 1_555
H12 N2 1.035340 1_555
H13 N3 1.035340 1_555
C0 H0 1.111293 1_555
C0 O8 1.270106 1_555
C0 O9 1.270106 1_555
C1 H1 1.111293 1_555
C1 O11 1.270106 1_555
C1 O10 1.270106 1_555
C2 H2 1.109124 1_555
C2 O0 1.266877 1_555
C2 O5 1.271042 1_555
C3 H3 1.109124 1_555
C3 O1 1.266877 1_555
C3 O4 1.271042 1_555
C4 H4 1.109124 1_555
C4 O2 1.266877 1_555
C4 O7 1.271042 1_555
C5 H5 1.109124 1_555
C5 O3 1.266877 1_555
C5 O6 1.271042 1_555
C6 H14 1.096527 1_555
C6 N0 1.313170 1_555
C6 N1 1.313170 1_555
C7 H15 1.096527 1_555
C7 N3 1.313170 1_555
C7 N2 1.313170 1_555
