# generated using pymatgen
data_Ba2Sr2CaTi5O15
_symmetry_space_group_name_H-M   'P 1'
_cell_length_a   3.97088600
_cell_length_b   8.87995500
_cell_length_c   8.88774370
_cell_angle_alpha   89.97734018
_cell_angle_beta   90.00000000
_cell_angle_gamma   90.00000000
_symmetry_Int_Tables_number   1
_chemical_formula_structural   Ba2Sr2CaTi5O15
_chemical_formula_sum   'Ba2 Sr2 Ca1 Ti5 O15'
_cell_volume   313.39327439
_cell_formula_units_Z   1
loop_
 _symmetry_equiv_pos_site_id
 _symmetry_equiv_pos_as_xyz
  1  'x, y, z'
loop_
 _atom_site_type_symbol
 _atom_site_label
 _atom_site_symmetry_multiplicity
 _atom_site_fract_x
 _atom_site_fract_y
 _atom_site_fract_z
 _atom_site_occupancy
  Ba  Ba0  1  0.50000000  0.09872300  0.29990400  1
  Ba  Ba1  1  0.50000000  0.30080100  0.89975900  1
  Sr  Sr0  1  0.50000000  0.50079700  0.50061700  1
  Sr  Sr1  1  0.50000000  0.70020200  0.09977500  1
  Ca  Ca0  1  0.50000000  0.89964900  0.70012900  1
  Ti  Ti0  1  0.00000000  0.60495800  0.79771000  1
  Ti  Ti1  1  0.00000000  0.79761500  0.40334200  1
  Ti  Ti2  1  0.00000000  0.99461900  0.99631500  1
  Ti  Ti3  1  0.00000000  0.19817100  0.60067800  1
  Ti  Ti4  1  0.00000000  0.40465300  0.20191700  1
  O  O0  1  0.00000000  0.70263400  0.60134900  1
  O  O1  1  0.00000000  0.89298300  0.19712100  1
  O  O2  1  0.00000000  0.09202500  0.79587700  1
  O  O3  1  0.00000000  0.30439100  0.40283900  1
  O  O4  1  0.00000000  0.50771500  0.00265000  1
  O  O5  1  0.00000000  0.40306300  0.69597500  1
  O  O6  1  0.00000000  0.60034200  0.30268900  1
  O  O7  1  0.00000000  0.80104800  0.89561100  1
  O  O8  1  0.00000000  0.99552700  0.50664700  1
  O  O9  1  0.00000000  0.19991400  0.09931500  1
  O  O10  1  0.50000000  0.60910400  0.79684900  1
  O  O11  1  0.50000000  0.79533800  0.40519200  1
  O  O12  1  0.50000000  0.99130500  0.99292000  1
  O  O13  1  0.50000000  0.19684000  0.60104600  1
  O  O14  1  0.50000000  0.40758200  0.20377200  1
loop_
_geom_bond_atom_site_label_1
_geom_bond_atom_site_label_2
_geom_bond_distance
_geom_bond_site_symmetry_2
Ba0 O13 2.815044 1_555
Ba0 O9 2.815398 1_655
Ba0 O9 2.815398 1_555
Ba0 O1 2.848788 1_545
Ba0 O1 2.848788 1_645
Ba0 O3 2.848812 1_555
Ba0 O3 2.848812 1_655
Ba0 O11 2.851588 1_545
Ba0 O8 2.855998 1_645
Ba0 O8 2.855998 1_545
Ba0 O14 2.872332 1_555
Ba0 O12 2.890685 1_544
Ba1 O9 2.808733 1_556
Ba1 O9 2.808733 1_656
Ba1 O13 2.811155 1_555
Ba1 O5 2.836489 1_555
Ba1 O5 2.836489 1_655
Ba1 O4 2.855794 1_556
Ba1 O4 2.855794 1_656
Ba1 O14 2.863892 1_556
Ba1 O2 2.869286 1_555
Ba1 O2 2.869286 1_655
Ba1 O12 2.870014 1_545
Ba1 O10 2.886118 1_555
Ca0 O10 2.719142 1_555
Ca0 O12 2.726870 1_555
Ca0 O2 2.754190 1_665
Ca0 O2 2.754190 1_565
Ca0 O8 2.760939 1_555
Ca0 O8 2.760939 1_655
Ca0 O7 2.779558 1_655
Ca0 O7 2.779558 1_555
Ca0 O11 2.780513 1_555
Ca0 O13 2.781763 1_565
Ca0 O0 2.788307 1_655
Ca0 O0 2.788307 1_555
O0 Ti0 1.948553 1_555
O0 Ti1 1.951209 1_555
O0 Sr0 2.820839 1_455
O0 Sr0 2.820839 1_555
O1 Ti2 1.999618 1_554
O1 Ti1 2.018725 1_555
O1 Sr1 2.760844 1_455
O1 Sr1 2.760844 1_555
O2 Ti3 1.974070 1_555
O2 Ti2 1.980018 1_545
O3 Ti3 1.995028 1_555
O3 Ti4 1.995068 1_555
O3 Sr0 2.782120 1_455
O3 Sr0 2.782120 1_555
O4 Ti4 1.993200 1_555
O4 Ti0 2.015467 1_554
O4 Sr1 2.758610 1_455
O4 Sr1 2.758610 1_555
O5 Ti3 2.007216 1_555
O5 Ti0 2.008245 1_555
O5 Sr0 2.776456 1_455
O5 Sr0 2.776456 1_555
O6 Ti4 1.955257 1_555
O6 Ti1 1.967289 1_555
O6 Sr0 2.795833 1_555
O6 Sr0 2.795833 1_455
O6 Sr1 2.824796 1_455
O6 Sr1 2.824796 1_555
O7 Ti2 1.938278 1_555
O7 Ti0 1.946876 1_555
O7 Sr1 2.834652 1_456
O7 Sr1 2.834652 1_556
O8 Ti1 1.983155 1_555
O8 Ti3 1.984367 1_565
O9 Ti4 2.034272 1_555
O9 Ti2 2.040273 1_544
O10 Ti0 1.985799 1_655
O10 Ti0 1.985799 1_555
O10 Sr0 2.803356 1_555
O10 Sr1 2.811539 1_556
O11 Ti1 1.985614 1_555
O11 Ti1 1.985614 1_655
O11 Sr0 2.749261 1_555
O11 Sr1 2.843210 1_555
O12 Ti2 1.985891 1_555
O12 Ti2 1.985891 1_655
O12 Sr1 2.753565 1_556
O13 Ti3 1.985481 1_655
O13 Ti3 1.985481 1_555
O13 Sr0 2.842548 1_555
O14 Ti4 1.985682 1_555
O14 Ti4 1.985682 1_655
O14 Sr1 2.757605 1_555
O14 Sr0 2.765397 1_555
