# generated using pymatgen
data_Ca2CrWO6
_symmetry_space_group_name_H-M   'P 1'
_cell_length_a   5.52861778
_cell_length_b   5.53014598
_cell_length_c   7.87532297
_cell_angle_alpha   90.71389573
_cell_angle_beta   90.23267314
_cell_angle_gamma   90.39150600
_symmetry_Int_Tables_number   1
_chemical_formula_structural   Ca2CrWO6
_chemical_formula_sum   'Ca4 Cr2 W2 O12'
_cell_volume   240.75424348
_cell_formula_units_Z   2
loop_
 _symmetry_equiv_pos_site_id
 _symmetry_equiv_pos_as_xyz
  1  'x, y, z'
loop_
 _atom_site_type_symbol
 _atom_site_label
 _atom_site_symmetry_multiplicity
 _atom_site_fract_x
 _atom_site_fract_y
 _atom_site_fract_z
 _atom_site_occupancy
  Ca  Ca0  1  0.01936300  0.51516600  0.24803600  1
  Ca  Ca1  1  0.51920100  0.01498900  0.74811000  1
  Ca  Ca2  1  0.49848300  0.99806600  0.23294000  1
  Ca  Ca3  1  0.99831400  0.49820100  0.73298900  1
  Cr  Cr0  1  0.50873300  0.50638500  0.99063100  1
  Cr  Cr1  1  0.00867800  0.00672100  0.49059700  1
  W  W0  1  0.00878900  0.00649300  0.99052400  1
  W  W1  1  0.50866700  0.50665000  0.49060700  1
  O  O0  1  0.70914500  0.20683100  0.44190500  1
  O  O1  1  0.20873100  0.70627600  0.94221600  1
  O  O2  1  0.80856300  0.30644800  0.03922300  1
  O  O3  1  0.30815500  0.80633800  0.53931400  1
  O  O4  1  0.05685900  0.94922200  0.24060100  1
  O  O5  1  0.55706900  0.44912900  0.74063700  1
  O  O6  1  0.46044600  0.56395000  0.24054500  1
  O  O7  1  0.96066300  0.06395300  0.74059900  1
  O  O8  1  0.20785300  0.31360900  0.49137800  1
  O  O9  1  0.70753600  0.81361000  0.99145800  1
  O  O10  1  0.30988700  0.19916500  0.98982000  1
  O  O11  1  0.80947800  0.69979600  0.48976000  1
loop_
_geom_bond_atom_site_label_1
_geom_bond_atom_site_label_2
_geom_bond_distance
_geom_bond_site_symmetry_2
Ca0 O2 2.305111 1_455
Ca0 O4 2.409375 1_555
Ca0 O11 2.449198 1_455
Ca0 O6 2.452653 1_555
Ca0 O8 2.460454 1_555
Ca1 O3 2.305515 1_545
Ca1 O5 2.410013 1_555
Ca1 O10 2.446569 1_555
Ca1 O7 2.454843 1_555
Ca1 O9 2.459670 1_545
Ca2 O0 2.305702 1_565
Ca2 O6 2.409995 1_555
Ca2 O9 2.445123 1_554
Ca2 O4 2.455699 1_555
Ca2 O10 2.458155 1_564
Ca3 O1 2.304622 1_655
Ca3 O7 2.410552 1_555
Ca3 O8 2.447505 1_655
Ca3 O5 2.453745 1_555
Ca3 O11 2.460666 1_555
Cr0 O6 2.008993 1_556
Cr0 O5 2.009396 1_555
Cr0 O9 2.017132 1_555
Cr0 O10 2.017238 1_555
Cr0 O2 2.036468 1_556
Cr0 O1 2.036838 1_555
Cr1 O7 2.009194 1_455
Cr1 O4 2.009491 1_545
Cr1 O8 2.016683 1_555
Cr1 O11 2.016925 1_445
Cr1 O0 2.035805 1_455
Cr1 O3 2.036423 1_545
O0 W1 2.034062 1_555
O1 W0 2.033671 1_565
O2 W0 2.033904 1_654
O3 W1 2.033581 1_555
O4 W0 2.015456 1_564
O5 W1 2.015567 1_555
O6 W1 2.015476 1_555
O7 W0 2.014503 1_655
O8 W1 1.970158 1_555
O9 W0 1.971748 1_665
O10 W0 1.970379 1_555
O11 W1 1.970464 1_555
