# generated using pymatgen
data_CsTb(WO4)2
_symmetry_space_group_name_H-M   'P 1'
_cell_length_a   7.70183100
_cell_length_b   7.70183100
_cell_length_c   7.57732397
_cell_angle_alpha   62.64685029
_cell_angle_beta   62.64685029
_cell_angle_gamma   88.78043074
_symmetry_Int_Tables_number   1
_chemical_formula_structural   CsTb(WO4)2
_chemical_formula_sum   'Cs2 Tb2 W4 O16'
_cell_volume   344.16315626
_cell_formula_units_Z   2
loop_
 _symmetry_equiv_pos_site_id
 _symmetry_equiv_pos_as_xyz
  1  'x, y, z'
loop_
 _atom_site_type_symbol
 _atom_site_label
 _atom_site_symmetry_multiplicity
 _atom_site_fract_x
 _atom_site_fract_y
 _atom_site_fract_z
 _atom_site_occupancy
  Cs  Cs0  1  0.19747600  0.80252400  0.75000000  1
  Cs  Cs1  1  0.80252400  0.19747600  0.25000000  1
  Tb  Tb0  1  0.77700300  0.22299700  0.75000000  1
  Tb  Tb1  1  0.22299700  0.77700300  0.25000000  1
  W  W0  1  0.69788200  0.68613100  0.78444100  1
  W  W1  1  0.30211800  0.31386900  0.21555900  1
  W  W2  1  0.31386900  0.30211800  0.71555900  1
  W  W3  1  0.68613100  0.69788200  0.28444100  1
  O  O0  1  0.62090300  0.74699000  0.56583800  1
  O  O1  1  0.37909700  0.25301000  0.43416200  1
  O  O2  1  0.25301000  0.37909700  0.93416200  1
  O  O3  1  0.74699000  0.62090300  0.06583800  1
  O  O4  1  0.37121500  0.06229800  0.87355200  1
  O  O5  1  0.62878500  0.93770200  0.12644800  1
  O  O6  1  0.93770200  0.62878500  0.62644800  1
  O  O7  1  0.06229800  0.37121500  0.37355200  1
  O  O8  1  0.59083800  0.37241900  0.96451800  1
  O  O9  1  0.40916200  0.62758100  0.03548200  1
  O  O10  1  0.62758100  0.40916200  0.53548200  1
  O  O11  1  0.37241900  0.59083800  0.46451800  1
  O  O12  1  0.77832300  0.94831100  0.70196000  1
  O  O13  1  0.22167700  0.05168900  0.29804000  1
  O  O14  1  0.05168900  0.22167700  0.79804000  1
  O  O15  1  0.94831100  0.77832300  0.20196000  1
loop_
_geom_bond_atom_site_label_1
_geom_bond_atom_site_label_2
_geom_bond_distance
_geom_bond_site_symmetry_2
Cs0 O13 2.972363 1_565
Cs0 O15 2.972363 1_456
Cs0 O0 3.012071 1_555
Cs0 O2 3.012071 1_555
Cs0 O3 3.036760 1_456
Cs0 O1 3.036760 1_565
Cs0 O11 3.101929 1_555
Cs0 O9 3.101929 1_556
Cs0 O4 3.107466 1_565
Cs0 O6 3.107466 1_455
Cs0 O12 3.516362 1_455
Cs0 O14 3.516362 1_565
Cs1 O14 2.972363 1_654
Cs1 O12 2.972363 1_545
Cs1 O3 3.012071 1_555
Cs1 O1 3.012071 1_555
Cs1 O0 3.036760 1_545
Cs1 O2 3.036760 1_654
Cs1 O8 3.101929 1_554
Cs1 O10 3.101929 1_555
Cs1 O7 3.107466 1_655
Cs1 O5 3.107466 1_545
Cs1 O13 3.516362 1_655
Cs1 O15 3.516362 1_545
O0 W0 1.868719 1_555
O0 W3 2.165758 1_555
O1 W1 1.868719 1_555
O1 W2 2.165758 1_555
O2 W2 1.868719 1_555
O2 W1 2.165758 1_556
O3 W3 1.868719 1_555
O3 W0 2.165758 1_554
O4 W2 1.859851 1_555
O4 Tb1 2.371198 1_546
O5 W3 1.859851 1_555
O5 Tb0 2.371198 1_564
O6 W0 1.859851 1_555
O6 Tb1 2.371198 1_655
O7 W1 1.859851 1_555
O7 Tb0 2.371198 1_455
O8 W1 2.033189 1_556
O8 W0 2.097801 1_555
O8 Tb0 2.351473 1_555
O9 W0 2.033189 1_554
O9 W1 2.097801 1_555
O9 Tb1 2.351473 1_555
O10 W3 2.033189 1_555
O10 W2 2.097801 1_555
O10 Tb0 2.351473 1_555
O11 W2 2.033189 1_555
O11 W3 2.097801 1_555
O11 Tb1 2.351473 1_555
O12 W0 1.841083 1_555
O12 Tb0 2.304708 1_565
O13 W1 1.841083 1_555
O13 Tb1 2.304708 1_545
O14 W2 1.841083 1_555
O14 Tb0 2.304708 1_455
O15 W3 1.841083 1_555
O15 Tb1 2.304708 1_655
