# generated using pymatgen
data_Ta2Fe
_symmetry_space_group_name_H-M   'P 1'
_cell_length_a   4.87785718
_cell_length_b   4.87785718
_cell_length_c   9.57790800
_cell_angle_alpha   90.00000000
_cell_angle_beta   90.00000000
_cell_angle_gamma   119.99998891
_symmetry_Int_Tables_number   1
_chemical_formula_structural   Ta2Fe
_chemical_formula_sum   'Ta8 Fe4'
_cell_volume   197.36016633
_cell_formula_units_Z   4
loop_
 _symmetry_equiv_pos_site_id
 _symmetry_equiv_pos_as_xyz
  1  'x, y, z'
loop_
 _atom_site_type_symbol
 _atom_site_label
 _atom_site_symmetry_multiplicity
 _atom_site_fract_x
 _atom_site_fract_y
 _atom_site_fract_z
 _atom_site_occupancy
  Ta  Ta0  1  0.00000000  0.00000000  0.50000000  1
  Ta  Ta1  1  0.00000000  0.00000000  0.00000000  1
  Ta  Ta2  1  0.34311500  0.34311500  0.25000000  1
  Ta  Ta3  1  0.00000000  0.65688500  0.25000000  1
  Ta  Ta4  1  0.65688500  0.00000000  0.25000000  1
  Ta  Ta5  1  0.65688500  0.65688500  0.75000000  1
  Ta  Ta6  1  0.00000000  0.34311500  0.75000000  1
  Ta  Ta7  1  0.34311500  0.00000000  0.75000000  1
  Fe  Fe0  1  0.66666700  0.33333300  0.50000000  1
  Fe  Fe1  1  0.66666700  0.33333300  0.00000000  1
  Fe  Fe2  1  0.33333300  0.66666700  0.50000000  1
  Fe  Fe3  1  0.33333300  0.66666700  0.00000000  1
loop_
_geom_bond_atom_site_label_1
_geom_bond_atom_site_label_2
_geom_bond_distance
_geom_bond_site_symmetry_2
Ta0 Ta6 2.921417 1_555
Ta0 Ta3 2.921417 1_545
Ta0 Ta7 2.921417 1_555
Ta0 Ta4 2.921417 1_455
Ta0 Ta5 2.921417 1_445
Ta0 Ta2 2.921417 1_555
Ta1 Ta3 2.921417 1_545
Ta1 Ta7 2.921417 1_554
Ta1 Ta4 2.921417 1_455
Ta1 Ta6 2.921417 1_554
Ta1 Ta2 2.921417 1_555
Ta1 Ta5 2.921417 1_444
Ta2 Ta3 2.775834 1_555
Ta2 Ta4 2.775834 1_555
Ta2 Ta3 2.775834 1_655
Ta2 Ta4 2.775834 1_565
Ta2 Ta3 2.898875 1_545
Ta2 Ta4 2.898875 1_455
Ta3 Ta4 2.775834 1_565
Ta3 Ta4 2.775834 1_455
Ta3 Ta4 2.898874 1_465
Ta5 Ta6 2.775834 1_655
Ta5 Ta7 2.775834 1_565
Ta5 Ta6 2.775834 1_555
Ta5 Ta7 2.775834 1_555
Ta5 Ta6 2.898875 1_665
Ta5 Ta7 2.898875 1_665
Ta6 Ta7 2.775834 1_455
Ta6 Ta7 2.775834 1_565
Ta6 Ta7 2.898874 1_555
Fe0 Ta0 2.816229 1_655
Fe0 Fe2 2.816230 1_545
Fe0 Fe2 2.816230 1_655
Fe0 Ta0 2.816234 1_555
Fe0 Ta0 2.816234 1_665
Fe0 Fe2 2.816238 1_555
Fe0 Ta6 2.881307 1_655
Fe0 Ta4 2.881307 1_555
Fe0 Ta7 2.881308 1_555
Fe0 Ta3 2.881308 1_655
Fe0 Ta2 2.881310 1_555
Fe0 Ta5 2.881310 1_555
Fe1 Ta1 2.816229 1_655
Fe1 Fe3 2.816230 1_545
Fe1 Fe3 2.816230 1_655
Fe1 Ta1 2.816234 1_665
Fe1 Ta1 2.816234 1_555
Fe1 Fe3 2.816238 1_555
Fe1 Ta6 2.881307 1_654
Fe1 Ta4 2.881307 1_555
Fe1 Ta7 2.881308 1_554
Fe1 Ta3 2.881308 1_655
Fe1 Ta2 2.881310 1_555
Fe1 Ta5 2.881310 1_554
Fe2 Ta0 2.816229 1_565
Fe2 Ta0 2.816234 1_555
Fe2 Ta0 2.816234 1_665
Fe2 Ta7 2.881307 1_565
Fe2 Ta3 2.881307 1_555
Fe2 Ta4 2.881308 1_565
Fe2 Ta6 2.881308 1_555
Fe2 Ta2 2.881310 1_555
Fe2 Ta5 2.881310 1_555
Fe3 Ta1 2.816229 1_565
Fe3 Ta1 2.816234 1_665
Fe3 Ta1 2.816234 1_555
Fe3 Ta7 2.881307 1_564
Fe3 Ta3 2.881307 1_555
Fe3 Ta4 2.881308 1_565
Fe3 Ta6 2.881308 1_554
Fe3 Ta2 2.881310 1_555
Fe3 Ta5 2.881310 1_554
