# generated using pymatgen
data_SiP4PdPbO14
_symmetry_space_group_name_H-M   'P 1'
_cell_length_a   17.40823600
_cell_length_b   4.65748900
_cell_length_c   6.53496506
_cell_angle_alpha   77.94578932
_cell_angle_beta   90.00000000
_cell_angle_gamma   90.00000000
_symmetry_Int_Tables_number   1
_chemical_formula_structural   SiP4PdPbO14
_chemical_formula_sum   'Si2 P8 Pd2 Pb2 O28'
_cell_volume   518.16338707
_cell_formula_units_Z   2
loop_
 _symmetry_equiv_pos_site_id
 _symmetry_equiv_pos_as_xyz
  1  'x, y, z'
loop_
 _atom_site_type_symbol
 _atom_site_label
 _atom_site_symmetry_multiplicity
 _atom_site_fract_x
 _atom_site_fract_y
 _atom_site_fract_z
 _atom_site_occupancy
  Si  Si0  1  0.00000000  0.00000000  0.00000000  1
  Si  Si1  1  0.50000000  0.00000000  0.00000000  1
  P  P0  1  0.12280700  0.11652300  0.64700000  1
  P  P1  1  0.62280700  0.88347700  0.35300000  1
  P  P2  1  0.87719300  0.88347700  0.35300000  1
  P  P3  1  0.37719300  0.11652300  0.64700000  1
  P  P4  1  0.08632500  0.43167500  0.22239400  1
  P  P5  1  0.58632500  0.56832500  0.77760600  1
  P  P6  1  0.91367500  0.56832500  0.77760600  1
  P  P7  1  0.41367500  0.43167500  0.22239400  1
  Pd  Pd0  1  0.25000000  0.61886000  0.64258000  1
  Pd  Pd1  1  0.75000000  0.38114000  0.35742000  1
  Pb  Pb0  1  0.25000000  0.10286300  0.13960200  1
  Pb  Pb1  1  0.75000000  0.89713700  0.86039800  1
  O  O0  1  0.07135100  0.32226500  0.47196200  1
  O  O1  1  0.57135100  0.67773500  0.52803800  1
  O  O2  1  0.92864900  0.67773500  0.52803800  1
  O  O3  1  0.42864900  0.32226500  0.47196200  1
  O  O4  1  0.06765200  0.93281500  0.80419500  1
  O  O5  1  0.56765200  0.06718500  0.19580500  1
  O  O6  1  0.93234800  0.06718500  0.19580500  1
  O  O7  1  0.43234800  0.93281500  0.80419500  1
  O  O8  1  0.16970000  0.92736800  0.52427800  1
  O  O9  1  0.66970000  0.07263200  0.47572200  1
  O  O10  1  0.83030000  0.07263200  0.47572200  1
  O  O11  1  0.33030000  0.92736800  0.52427800  1
  O  O12  1  0.17138500  0.30917300  0.76318300  1
  O  O13  1  0.67138500  0.69082700  0.23681700  1
  O  O14  1  0.82861500  0.69082700  0.23681700  1
  O  O15  1  0.32861500  0.30917300  0.76318300  1
  O  O16  1  0.07457800  0.15944100  0.12544200  1
  O  O17  1  0.57457800  0.84055900  0.87455800  1
  O  O18  1  0.92542200  0.84055900  0.87455800  1
  O  O19  1  0.42542200  0.15944100  0.12544200  1
  O  O20  1  0.02246400  0.65583300  0.15942800  1
  O  O21  1  0.52246400  0.34416700  0.84057200  1
  O  O22  1  0.97753600  0.34416700  0.84057200  1
  O  O23  1  0.47753600  0.65583300  0.15942800  1
  O  O24  1  0.16887900  0.53419300  0.18782800  1
  O  O25  1  0.66887900  0.46580700  0.81217200  1
  O  O26  1  0.83112100  0.46580700  0.81217200  1
  O  O27  1  0.33112100  0.53419300  0.18782800  1
loop_
_geom_bond_atom_site_label_1
_geom_bond_atom_site_label_2
_geom_bond_distance
_geom_bond_site_symmetry_2
O0 P0 1.603505 1_555
O0 P4 1.624928 1_555
O1 P1 1.603505 1_555
O1 P5 1.624928 1_555
O2 P2 1.603505 1_555
O2 P6 1.624928 1_555
O3 P3 1.603505 1_555
O3 P7 1.624928 1_555
O4 P0 1.530402 1_565
O4 Si0 1.813685 1_566
O5 P1 1.530402 1_545
O5 Si1 1.813685 1_555
O6 P2 1.530402 1_545
O6 Si0 1.813685 1_655
O7 P3 1.530402 1_565
O7 Si1 1.813685 1_566
O8 P0 1.542986 1_565
O8 Pd0 2.037741 1_555
O9 P1 1.542986 1_545
O9 Pd1 2.037741 1_555
O10 P2 1.542986 1_545
O10 Pd1 2.037741 1_555
O11 P3 1.542986 1_565
O11 Pd0 2.037741 1_555
O12 P0 1.543122 1_555
O12 Pd0 2.024770 1_555
O13 P1 1.543122 1_555
O13 Pd1 2.024770 1_555
O14 P2 1.543122 1_555
O14 Pd1 2.024770 1_555
O15 P3 1.543122 1_555
O15 Pd0 2.024770 1_555
O16 P4 1.544800 1_555
O16 Si0 1.778544 1_555
O17 P5 1.544800 1_555
O17 Si1 1.778544 1_566
O18 P6 1.544800 1_555
O18 Si0 1.778544 1_666
O19 P7 1.544800 1_555
O19 Si1 1.778544 1_555
O20 P4 1.521757 1_555
O20 Si0 1.763609 1_565
O21 P5 1.521757 1_555
O21 Si1 1.763609 1_556
O22 P6 1.521757 1_555
O22 Si0 1.763609 1_656
O23 P7 1.521757 1_555
O23 Si1 1.763609 1_565
O24 P4 1.516335 1_555
O24 Pb0 2.528583 1_555
O25 P5 1.516335 1_555
O25 Pb1 2.528583 1_555
O26 P6 1.516335 1_555
O26 Pb1 2.528583 1_555
O27 P7 1.516335 1_555
O27 Pb0 2.528583 1_555
