# generated using pymatgen
data_V2Pb3O8
_symmetry_space_group_name_H-M   'P 1'
_cell_length_a   5.66145303
_cell_length_b   5.66145258
_cell_length_c   7.47737910
_cell_angle_alpha   68.12196061
_cell_angle_beta   68.12196254
_cell_angle_gamma   67.48740316
_symmetry_Int_Tables_number   1
_chemical_formula_structural   V2Pb3O8
_chemical_formula_sum   'V2 Pb3 O8'
_cell_volume   197.92636143
_cell_formula_units_Z   1
loop_
 _symmetry_equiv_pos_site_id
 _symmetry_equiv_pos_as_xyz
  1  'x, y, z'
loop_
 _atom_site_type_symbol
 _atom_site_label
 _atom_site_symmetry_multiplicity
 _atom_site_fract_x
 _atom_site_fract_y
 _atom_site_fract_z
 _atom_site_occupancy
  V  V0  1  0.58966058  0.59705535  0.20290556  1
  V  V1  1  0.40294465  0.41033942  0.79709444  1
  Pb  Pb0  1  0.16406959  0.28118751  0.38493477  1
  Pb  Pb1  1  0.71881249  0.83593041  0.61506523  1
  Pb  Pb2  1  0.99263258  0.00736742  -0.00000000  1
  O  O0  1  0.67641707  0.77707995  0.95937768  1
  O  O1  1  0.22292005  0.32358293  0.04062232  1
  O  O2  1  0.75605176  0.65233047  0.32840243  1
  O  O3  1  0.34766953  0.24394824  0.67159757  1
  O  O4  1  0.66006628  0.25853612  0.23548482  1
  O  O5  1  0.30197048  0.75119893  0.70511208  1
  O  O6  1  0.24880107  0.69802952  0.29488792  1
  O  O7  1  0.74146388  0.33993372  0.76451518  1
loop_
_geom_bond_atom_site_label_1
_geom_bond_atom_site_label_2
_geom_bond_distance
_geom_bond_site_symmetry_2
O0 V0 1.711583 1_556
O0 Pb1 2.399662 1_555
O0 Pb2 2.735829 1_566
O1 V1 1.711583 1_554
O1 Pb0 2.399662 1_555
O1 Pb2 2.735829 1_455
O2 V0 1.723162 1_555
O2 Pb0 2.505723 1_655
O2 Pb1 2.622077 1_555
O2 Pb2 2.792144 1_565
O3 V1 1.723162 1_555
O3 Pb1 2.505723 1_545
O3 Pb0 2.622077 1_555
O3 Pb2 2.792144 1_456
O4 V0 1.740882 1_555
O4 Pb2 2.452039 1_555
O4 Pb0 2.577375 1_555
O5 V1 1.727109 1_555
O5 Pb1 2.386363 1_555
O5 Pb2 2.755490 1_466
O6 V0 1.727109 1_555
O6 Pb0 2.386363 1_555
O6 Pb2 2.755490 1_465
O7 V1 1.740882 1_555
O7 Pb2 2.452039 1_556
O7 Pb1 2.577374 1_555
