# generated using pymatgen
data_Cs3GaF6
_symmetry_space_group_name_H-M   'P 1'
_cell_length_a   6.64937375
_cell_length_b   6.64937375
_cell_length_c   6.64937375
_cell_angle_alpha   60.00000000
_cell_angle_beta   60.00000000
_cell_angle_gamma   60.00000000
_symmetry_Int_Tables_number   1
_chemical_formula_structural   Cs3GaF6
_chemical_formula_sum   'Cs3 Ga1 F6'
_cell_volume   207.88695411
_cell_formula_units_Z   1
loop_
 _symmetry_equiv_pos_site_id
 _symmetry_equiv_pos_as_xyz
  1  'x, y, z'
loop_
 _atom_site_type_symbol
 _atom_site_label
 _atom_site_symmetry_multiplicity
 _atom_site_fract_x
 _atom_site_fract_y
 _atom_site_fract_z
 _atom_site_occupancy
  Cs  Cs0  1  0.75000000  0.75000000  0.75000000  1
  Cs  Cs1  1  0.25000000  0.25000000  0.25000000  1
  Cs  Cs2  1  0.50000000  0.50000000  0.50000000  1
  Ga  Ga0  1  -0.00000000  -0.00000000  0.00000000  1
  F  F0  1  0.79707434  0.20292566  0.20292566  1
  F  F1  1  0.20292566  0.20292566  0.79707434  1
  F  F2  1  0.20292566  0.79707434  0.79707434  1
  F  F3  1  0.20292566  0.79707434  0.20292566  1
  F  F4  1  0.79707434  0.20292566  0.79707434  1
  F  F5  1  0.79707434  0.79707434  0.20292566  1
loop_
_geom_bond_atom_site_label_1
_geom_bond_atom_site_label_2
_geom_bond_distance
_geom_bond_site_symmetry_2
Cs0 F0 3.354027 1_565
Cs0 F2 3.354027 1_555
Cs0 F1 3.354027 1_655
Cs0 F5 3.354027 1_555
Cs0 F5 3.354027 1_556
Cs0 F4 3.354027 1_565
Cs0 F3 3.354027 1_655
Cs0 F1 3.354027 1_565
Cs0 F3 3.354027 1_556
Cs0 F0 3.354027 1_556
Cs0 F2 3.354027 1_655
Cs0 F4 3.354027 1_555
Cs1 F3 3.354027 1_545
Cs1 F5 3.354027 1_455
Cs1 F2 3.354027 1_554
Cs1 F2 3.354027 1_545
Cs1 F0 3.354027 1_455
Cs1 F5 3.354027 1_545
Cs1 F4 3.354027 1_554
Cs1 F3 3.354027 1_555
Cs1 F0 3.354027 1_555
Cs1 F4 3.354027 1_455
Cs1 F1 3.354027 1_555
Cs1 F1 3.354027 1_554
Cs2 F5 2.793579 1_555
Cs2 F2 2.793579 1_555
Cs2 F3 2.793579 1_555
Cs2 F0 2.793579 1_555
Cs2 F1 2.793579 1_555
Cs2 F4 2.793579 1_555
F0 Ga0 1.908239 1_655
F1 Ga0 1.908239 1_556
F2 Ga0 1.908239 1_566
F3 Ga0 1.908239 1_565
F4 Ga0 1.908239 1_656
F5 Ga0 1.908239 1_665
