# generated using pymatgen
data_Sr2Ca2Fe3CoO12
_symmetry_space_group_name_H-M   'P 1'
_cell_length_a   7.74956700
_cell_length_b   7.69490200
_cell_length_c   7.73024857
_cell_angle_alpha   89.85552722
_cell_angle_beta   90.00000000
_cell_angle_gamma   90.00000000
_symmetry_Int_Tables_number   1
_chemical_formula_structural   Sr2Ca2Fe3CoO12
_chemical_formula_sum   'Sr4 Ca4 Fe6 Co2 O24'
_cell_volume   460.96994364
_cell_formula_units_Z   2
loop_
 _symmetry_equiv_pos_site_id
 _symmetry_equiv_pos_as_xyz
  1  'x, y, z'
loop_
 _atom_site_type_symbol
 _atom_site_label
 _atom_site_symmetry_multiplicity
 _atom_site_fract_x
 _atom_site_fract_y
 _atom_site_fract_z
 _atom_site_occupancy
  Sr  Sr0  1  0.00000000  0.25254300  0.74846200  1
  Sr  Sr1  1  0.00000000  0.74733100  0.74828700  1
  Sr  Sr2  1  0.50000000  0.74726300  0.74839400  1
  Sr  Sr3  1  0.50000000  0.25269700  0.25158600  1
  Ca  Ca0  1  0.00000000  0.25295400  0.25133600  1
  Ca  Ca1  1  0.00000000  0.74715000  0.25129000  1
  Ca  Ca2  1  0.50000000  0.25274600  0.74866600  1
  Ca  Ca3  1  0.50000000  0.74732300  0.25133000  1
  Fe  Fe0  1  0.25006300  0.00001100  0.00133100  1
  Fe  Fe1  1  0.25001900  0.49997800  0.00175800  1
  Fe  Fe2  1  0.25006100  0.99997500  0.49876100  1
  Fe  Fe3  1  0.74993700  0.00001100  0.00133100  1
  Fe  Fe4  1  0.74998100  0.49997800  0.00175800  1
  Fe  Fe5  1  0.74993900  0.99997500  0.49876100  1
  Co  Co0  1  0.25008900  0.49974600  0.49904000  1
  Co  Co1  1  0.74991100  0.49974600  0.49904000  1
  O  O0  1  0.00000000  0.00002900  0.00489100  1
  O  O1  1  0.00000000  0.49994800  0.00517400  1
  O  O2  1  0.00000000  0.00007700  0.49514000  1
  O  O3  1  0.00000000  0.50093100  0.49297900  1
  O  O4  1  0.50000000  0.99991700  0.00124800  1
  O  O5  1  0.50000000  0.50007700  0.00113400  1
  O  O6  1  0.50000000  0.99986400  0.49869300  1
  O  O7  1  0.50000000  0.49994100  0.49906900  1
  O  O8  1  0.25186900  0.00225900  0.74846100  1
  O  O9  1  0.25221800  0.49884800  0.74548800  1
  O  O10  1  0.24832000  0.99791100  0.25155300  1
  O  O11  1  0.24793400  0.50097600  0.25446200  1
  O  O12  1  0.74813100  0.00225900  0.74846100  1
  O  O13  1  0.74778200  0.49884800  0.74548800  1
  O  O14  1  0.75168000  0.99791100  0.25155300  1
  O  O15  1  0.75206600  0.50097600  0.25446200  1
  O  O16  1  0.24992500  0.25059000  0.00095400  1
  O  O17  1  0.25006000  0.74941400  0.00507400  1
  O  O18  1  0.24990600  0.25838200  0.49803100  1
  O  O19  1  0.25008700  0.74151500  0.49624700  1
  O  O20  1  0.75007500  0.25059000  0.00095400  1
  O  O21  1  0.74994000  0.74941400  0.00507400  1
  O  O22  1  0.75009400  0.25838200  0.49803100  1
  O  O23  1  0.74991300  0.74151500  0.49624700  1
loop_
_geom_bond_atom_site_label_1
_geom_bond_atom_site_label_2
_geom_bond_distance
_geom_bond_site_symmetry_2
Ca0 O3 2.673634 1_555
Ca0 O1 2.686080 1_555
Ca0 O2 2.705523 1_555
Ca0 O11 2.708305 1_555
Ca0 O15 2.708305 1_455
Ca0 O18 2.718366 1_555
Ca0 O22 2.718366 1_455
Ca0 O0 2.726877 1_555
Ca0 O16 2.738241 1_555
Ca0 O20 2.738241 1_455
Ca0 O14 2.748586 1_445
Ca0 O10 2.748586 1_545
Ca1 O3 2.657514 1_555
Ca1 O1 2.693742 1_555
Ca1 O11 2.698219 1_555
Ca1 O15 2.698219 1_455
Ca1 O23 2.709835 1_455
Ca1 O19 2.709835 1_555
Ca1 O2 2.712875 1_565
Ca1 O21 2.716251 1_455
Ca1 O17 2.716251 1_555
Ca1 O0 2.719510 1_565
Ca1 O10 2.725164 1_555
Ca1 O14 2.725164 1_455
Ca2 O9 2.696992 1_555
Ca2 O13 2.696992 1_555
Ca2 O7 2.705993 1_555
Ca2 O8 2.722636 1_555
Ca2 O12 2.722636 1_555
Ca2 O5 2.729424 1_556
Ca2 O18 2.740723 1_555
Ca2 O22 2.740723 1_555
Ca2 O6 2.745813 1_545
Ca2 O16 2.749422 1_556
Ca2 O20 2.749422 1_556
Ca2 O4 2.752841 1_546
Ca3 O7 2.696809 1_555
Ca3 O19 2.708674 1_555
Ca3 O23 2.708674 1_555
Ca3 O17 2.715798 1_555
Ca3 O21 2.715798 1_555
Ca3 O5 2.716403 1_555
Ca3 O11 2.722039 1_555
Ca3 O15 2.722039 1_555
Ca3 O6 2.729742 1_555
Ca3 O4 2.737921 1_555
Ca3 O10 2.742676 1_555
Ca3 O14 2.742676 1_555
Fe0 O16 1.928176 1_555
Fe0 O17 1.928463 1_545
Fe0 O10 1.934352 1_545
Fe0 O4 1.936904 1_545
Fe0 O0 1.938075 1_555
Fe0 O8 1.954831 1_554
Fe1 O16 1.919042 1_555
Fe1 O17 1.919621 1_555
Fe1 O5 1.937251 1_555
Fe1 O1 1.937719 1_555
Fe1 O11 1.953566 1_555
Fe1 O9 1.981145 1_554
Fe2 O10 1.911133 1_555
Fe2 O8 1.930418 1_565
Fe2 O6 1.936919 1_555
Fe2 O2 1.938067 1_565
Fe2 O18 1.988411 1_565
Fe2 O19 1.988968 1_555
Fe3 O20 1.928176 1_555
Fe3 O21 1.928463 1_545
Fe3 O14 1.934352 1_545
Fe3 O4 1.936904 1_545
Fe3 O0 1.938075 1_655
Fe3 O12 1.954831 1_554
Fe4 O20 1.919042 1_555
Fe4 O21 1.919621 1_555
Fe4 O5 1.937251 1_555
Fe4 O1 1.937719 1_655
Fe4 O15 1.953566 1_555
Fe4 O13 1.981145 1_554
Fe5 O14 1.911133 1_555
Fe5 O12 1.930418 1_565
Fe5 O6 1.936919 1_555
Fe5 O2 1.938067 1_665
Fe5 O22 1.988411 1_565
Fe5 O23 1.988968 1_555
Co0 O18 1.857309 1_555
Co0 O19 1.860460 1_555
Co0 O11 1.890722 1_555
Co0 O9 1.905171 1_555
Co0 O7 1.936703 1_555
Co0 O3 1.938669 1_555
Co1 O22 1.857309 1_555
Co1 O23 1.860460 1_555
Co1 O15 1.890722 1_555
Co1 O13 1.905171 1_555
Co1 O7 1.936703 1_555
Co1 O3 1.938669 1_655
O0 Sr0 2.772265 1_554
O0 Sr1 2.781222 1_544
O1 Sr1 2.747360 1_554
O1 Sr0 2.753430 1_554
O2 Sr1 2.755483 1_545
O2 Sr0 2.761881 1_555
O3 Sr1 2.740228 1_555
O3 Sr0 2.744910 1_555
O4 Sr3 2.747247 1_565
O4 Sr2 2.760332 1_554
O5 Sr3 2.711695 1_555
O5 Sr2 2.723279 1_554
O6 Sr3 2.723084 1_565
O6 Sr2 2.735886 1_555
O7 Sr3 2.701463 1_555
O7 Sr2 2.712013 1_555
O8 Sr0 2.742071 1_555
O8 Sr2 2.747306 1_545
O8 Sr1 2.767289 1_545
O9 Sr2 2.709584 1_555
O9 Sr0 2.722651 1_555
O9 Sr1 2.734411 1_555
O10 Sr3 2.765479 1_565
O11 Sr3 2.732477 1_555
O12 Sr0 2.742071 1_655
O12 Sr2 2.747306 1_545
O12 Sr1 2.767289 1_645
O13 Sr2 2.709584 1_555
O13 Sr0 2.722651 1_655
O13 Sr1 2.734411 1_655
O14 Sr3 2.765479 1_565
O15 Sr3 2.732477 1_555
O16 Sr3 2.740413 1_555
O16 Sr0 2.749716 1_554
O17 Sr2 2.772936 1_554
O17 Sr1 2.774174 1_554
O18 Sr3 2.718084 1_555
O18 Sr0 2.738600 1_555
O19 Sr2 2.748179 1_555
O19 Sr1 2.748552 1_555
O20 Sr3 2.740413 1_555
O20 Sr0 2.749716 1_654
O21 Sr2 2.772936 1_554
O21 Sr1 2.774174 1_654
O22 Sr3 2.718084 1_555
O22 Sr0 2.738600 1_655
O23 Sr2 2.748179 1_555
O23 Sr1 2.748552 1_655
