# generated using pymatgen
data_Ca3CoRhO6
_symmetry_space_group_name_H-M   'P 1'
_cell_length_a   6.49125630
_cell_length_b   9.03354129
_cell_length_c   9.24381503
_cell_angle_alpha   90.00167115
_cell_angle_beta   89.96273449
_cell_angle_gamma   91.65815329
_symmetry_Int_Tables_number   1
_chemical_formula_structural   Ca3CoRhO6
_chemical_formula_sum   'Ca12 Co4 Rh4 O24'
_cell_volume   541.82127166
_cell_formula_units_Z   4
loop_
 _symmetry_equiv_pos_site_id
 _symmetry_equiv_pos_as_xyz
  1  'x, y, z'
loop_
 _atom_site_type_symbol
 _atom_site_label
 _atom_site_symmetry_multiplicity
 _atom_site_fract_x
 _atom_site_fract_y
 _atom_site_fract_z
 _atom_site_occupancy
  Ca  Ca0  1  0.61176000  0.56663000  0.68012700  1
  Ca  Ca1  1  0.61357700  0.06960200  0.18362400  1
  Ca  Ca2  1  0.88778900  0.43119700  0.18297000  1
  Ca  Ca3  1  0.88648000  0.93308200  0.68056100  1
  Ca  Ca4  1  0.24916500  0.75027900  0.13824400  1
  Ca  Ca5  1  0.24992300  0.24977100  0.63473300  1
  Ca  Ca6  1  0.11183700  0.56655300  0.81948100  1
  Ca  Ca7  1  0.11346200  0.06979600  0.31652400  1
  Ca  Ca8  1  0.75078100  0.24969300  0.86513100  1
  Ca  Ca9  1  0.74880500  0.75019000  0.36175700  1
  Ca  Ca10  1  0.38766100  0.43154800  0.31774400  1
  Ca  Ca11  1  0.38689500  0.93283200  0.81891600  1
  Co  Co0  1  0.24597800  0.75194400  0.50325700  1
  Co  Co1  1  0.74683300  0.75155300  0.99653500  1
  Co  Co2  1  0.25174500  0.24918300  0.99295700  1
  Co  Co3  1  0.75013900  0.24994600  0.50714000  1
  Rh  Rh0  1  0.50031100  0.49954200  0.00090600  1
  Rh  Rh1  1  0.50010100  0.99996200  0.49900300  1
  Rh  Rh2  1  0.00005800  0.00004400  0.00067400  1
  Rh  Rh3  1  0.00058700  0.49964700  0.49947400  1
  O  O0  1  0.54975300  0.30982400  0.10534200  1
  O  O1  1  0.54404100  0.80649500  0.60130600  1
  O  O2  1  0.20401200  0.47684400  0.06668500  1
  O  O3  1  0.20442900  0.97424500  0.56603300  1
  O  O4  1  0.40879500  0.37188900  0.83025500  1
  O  O5  1  0.41167800  0.87562000  0.32891600  1
  O  O6  1  0.04397900  0.80662300  0.89852400  1
  O  O7  1  0.04884900  0.30902200  0.39541500  1
  O  O8  1  0.90898500  0.37283600  0.67058100  1
  O  O9  1  0.91209900  0.87557400  0.17093200  1
  O  O10  1  0.70386700  0.47660600  0.43306500  1
  O  O11  1  0.70400200  0.97407100  0.93410200  1
  O  O12  1  0.45555400  0.69164200  0.89699400  1
  O  O13  1  0.45223600  0.19184200  0.39632100  1
  O  O14  1  0.79475700  0.52266700  0.93347700  1
  O  O15  1  0.79710500  0.02521400  0.43339200  1
  O  O16  1  0.59177300  0.62719000  0.16859500  1
  O  O17  1  0.58882700  0.12475300  0.67180200  1
  O  O18  1  0.95238200  0.19191000  0.10350900  1
  O  O19  1  0.95616000  0.69219300  0.60308300  1
  O  O20  1  0.09236300  0.62697900  0.33140300  1
  O  O21  1  0.08761700  0.12443900  0.82745400  1
  O  O22  1  0.29528600  0.52227800  0.56718300  1
  O  O23  1  0.29756000  0.02625000  0.06587400  1
loop_
_geom_bond_atom_site_label_1
_geom_bond_atom_site_label_2
_geom_bond_distance
_geom_bond_site_symmetry_2
Ca0 O22 2.329349 1_555
Ca0 O1 2.339847 1_555
Ca0 O10 2.502159 1_555
Ca0 O12 2.526992 1_555
Ca0 O4 2.572952 1_555
Ca0 O19 2.577377 1_555
Ca0 O8 2.643905 1_555
Ca0 O14 2.661644 1_555
Ca1 O0 2.336007 1_555
Ca1 O23 2.345746 1_555
Ca1 O13 2.499207 1_555
Ca1 O11 2.537089 1_544
Ca1 O5 2.541073 1_545
Ca1 O18 2.542298 1_555
Ca1 O15 2.634753 1_555
Ca1 O9 2.652770 1_545
Ca2 O18 2.332346 1_555
Ca2 O2 2.342470 1_655
Ca2 O7 2.497443 1_655
Ca2 O0 2.528774 1_555
Ca2 O14 2.529254 1_554
Ca2 O20 2.576883 1_655
Ca2 O10 2.638729 1_555
Ca2 O16 2.653643 1_555
Ca3 O3 2.339117 1_655
Ca3 O19 2.347188 1_555
Ca3 O15 2.505851 1_565
Ca3 O21 2.531434 1_665
Ca3 O6 2.545606 1_655
Ca3 O1 2.576908 1_555
Ca3 O17 2.632780 1_565
Ca3 O11 2.656079 1_555
Ca4 O20 2.323118 1_555
Ca4 O5 2.331222 1_555
Ca4 O9 2.510400 1_455
Ca4 O16 2.530815 1_555
Ca4 O2 2.565745 1_555
Ca4 O23 2.591475 1_565
Ca4 O6 2.643206 1_554
Ca4 O12 2.661911 1_554
Ca5 O4 2.341697 1_555
Ca5 O21 2.343965 1_555
Ca5 O17 2.525324 1_555
Ca5 O8 2.526857 1_455
Ca5 O22 2.548429 1_555
Ca5 O3 2.577423 1_545
Ca5 O13 2.625138 1_555
Ca5 O7 2.632153 1_555
Ca6 O14 2.335367 1_455
Ca6 O6 2.342188 1_555
Ca6 O2 2.503278 1_556
Ca6 O19 2.525840 1_455
Ca6 O8 2.561161 1_455
Ca6 O12 2.573804 1_555
Ca6 O4 2.648481 1_555
Ca6 O22 2.653496 1_555
Ca7 O7 2.330206 1_555
Ca7 O15 2.344273 1_455
Ca7 O18 2.501396 1_455
Ca7 O3 2.538635 1_545
Ca7 O13 2.541117 1_555
Ca7 O9 2.543128 1_445
Ca7 O23 2.640965 1_555
Ca7 O5 2.652187 1_545
Ca8 O8 2.336209 1_555
Ca8 O17 2.346578 1_555
Ca8 O21 2.514847 1_655
Ca8 O4 2.528488 1_555
Ca8 O14 2.553587 1_555
Ca8 O11 2.579551 1_545
Ca8 O18 2.623714 1_556
Ca8 O0 2.639231 1_556
Ca9 O16 2.323478 1_555
Ca9 O9 2.333712 1_555
Ca9 O5 2.511853 1_555
Ca9 O20 2.536501 1_655
Ca9 O10 2.566258 1_555
Ca9 O15 2.581535 1_565
Ca9 O1 2.638935 1_555
Ca9 O19 2.665957 1_555
Ca10 O13 2.333504 1_555
Ca10 O10 2.338713 1_555
Ca10 O0 2.497059 1_555
Ca10 O22 2.524762 1_555
Ca10 O7 2.536670 1_555
Ca10 O16 2.577217 1_555
Ca10 O20 2.646233 1_555
Ca10 O2 2.646941 1_555
Ca11 O11 2.338385 1_555
Ca11 O12 2.350195 1_555
Ca11 O23 2.507241 1_566
Ca11 O17 2.537636 1_565
Ca11 O1 2.540461 1_555
Ca11 O6 2.578237 1_555
Ca11 O21 2.640198 1_565
Ca11 O3 2.652645 1_555
Co0 O3 2.115012 1_555
Co0 O19 2.149671 1_455
Co0 O20 2.174649 1_555
Co0 O1 2.180561 1_555
Co0 O22 2.189691 1_555
Co0 O5 2.220497 1_555
Co1 O11 2.117449 1_555
Co1 O12 2.158141 1_555
Co1 O6 2.175086 1_655
Co1 O16 2.176572 1_556
Co1 O14 2.179138 1_555
Co1 O9 2.222044 1_556
Co2 O4 2.112503 1_555
Co2 O23 2.152546 1_556
Co2 O21 2.162868 1_555
Co2 O2 2.196941 1_556
Co2 O18 2.242199 1_456
Co2 O0 2.250037 1_556
Co3 O8 2.124579 1_555
Co3 O17 2.149830 1_555
Co3 O15 2.171303 1_555
Co3 O10 2.188025 1_555
Co3 O13 2.237885 1_555
Co3 O7 2.246926 1_655
O0 Rh0 2.001126 1_555
O1 Rh1 2.014788 1_555
O2 Rh0 2.021562 1_555
O3 Rh1 2.023412 1_555
O4 Rh0 2.032866 1_556
O5 Rh1 2.006707 1_555
O6 Rh2 2.013519 1_566
O7 Rh3 2.004864 1_555
O8 Rh3 2.031510 1_655
O9 Rh2 2.007242 1_665
O10 Rh3 2.026894 1_655
O11 Rh2 2.025438 1_666
O12 Rh0 2.011990 1_556
O13 Rh1 2.008392 1_545
O14 Rh0 2.015107 1_556
O15 Rh1 2.027269 1_545
O16 Rh0 2.011565 1_555
O17 Rh1 2.029158 1_545
O18 Rh2 2.008492 1_655
O19 Rh3 2.013561 1_655
O20 Rh3 2.012703 1_555
O21 Rh2 2.027720 1_556
O22 Rh3 2.017893 1_555
O23 Rh2 2.030694 1_555
