# generated using pymatgen
data_HoNi4Au
_symmetry_space_group_name_H-M   'P 1'
_cell_length_a   4.86864760
_cell_length_b   4.86870629
_cell_length_c   4.86867176
_cell_angle_alpha   60.00537618
_cell_angle_beta   60.00496290
_cell_angle_gamma   60.00520718
_symmetry_Int_Tables_number   1
_chemical_formula_structural   HoNi4Au
_chemical_formula_sum   'Ho1 Ni4 Au1'
_cell_volume   81.61470883
_cell_formula_units_Z   1
loop_
 _symmetry_equiv_pos_site_id
 _symmetry_equiv_pos_as_xyz
  1  'x, y, z'
loop_
 _atom_site_type_symbol
 _atom_site_label
 _atom_site_symmetry_multiplicity
 _atom_site_fract_x
 _atom_site_fract_y
 _atom_site_fract_z
 _atom_site_occupancy
  Ho  Ho0  1  0.00001067  0.99998978  1.00000146  1
  Ni  Ni0  1  0.62409550  0.62408896  0.12772714  1
  Ni  Ni1  1  0.62409270  0.12773068  0.62409063  1
  Ni  Ni2  1  0.12772480  0.62409061  0.62409411  1
  Ni  Ni3  1  0.62409210  0.62408554  0.62408940  1
  Au  Au0  1  0.24998324  0.25001443  0.24999726  1
loop_
_geom_bond_atom_site_label_1
_geom_bond_atom_site_label_2
_geom_bond_distance
_geom_bond_site_symmetry_2
Ho0 Ni2 2.856376 1_555
Ho0 Ni0 2.856387 1_456
Ho0 Ni1 2.856401 1_465
Ho0 Ni0 2.856514 1_556
Ho0 Ni1 2.856526 1_565
Ho0 Ni2 2.856537 1_556
Ho0 Ni1 2.856566 1_466
Ho0 Ni2 2.856586 1_565
Ho0 Ni0 2.856598 1_466
Ho0 Ni3 2.856599 1_555
Ho0 Ni3 2.856636 1_456
Ho0 Ni3 2.856684 1_465
Ni0 Ni3 2.416608 1_555
Ni0 Ni1 2.416823 1_555
Ni0 Ni2 2.416832 1_555
Ni0 Ni3 2.452063 1_554
Ni0 Ni2 2.452193 1_654
Ni0 Ni1 2.452261 1_564
Ni1 Ni3 2.416602 1_555
Ni1 Ni2 2.416826 1_555
Ni1 Ni3 2.452105 1_545
Ni1 Ni2 2.452234 1_645
Ni2 Ni3 2.416614 1_555
Ni2 Ni3 2.452034 1_455
Au0 Ni2 2.852614 1_555
Au0 Ni0 2.852642 1_555
Au0 Ni1 2.852673 1_555
Au0 Ni0 2.852674 1_455
Au0 Ni1 2.852706 1_455
Au0 Ni2 2.852729 1_554
Au0 Ni3 2.852772 1_455
Au0 Ni1 2.852783 1_554
Au0 Ni2 2.852830 1_545
Au0 Ni3 2.852852 1_554
Au0 Ni0 2.852856 1_545
Au0 Ni3 2.852955 1_545
Au0 Ho0 2.981298 1_544
Au0 Ho0 2.981565 1_554
Au0 Ho0 2.981651 1_545
Au0 Ho0 2.981723 1_644
