# generated using pymatgen
data_Co6BP
_symmetry_space_group_name_H-M   'P 1'
_cell_length_a   4.25122800
_cell_length_b   6.59820624
_cell_length_c   6.38142602
_cell_angle_alpha   92.76012653
_cell_angle_beta   109.45666983
_cell_angle_gamma   71.20698523
_symmetry_Int_Tables_number   1
_chemical_formula_structural   Co6BP
_chemical_formula_sum   'Co12 B2 P2'
_cell_volume   159.43079111
_cell_formula_units_Z   2
loop_
 _symmetry_equiv_pos_site_id
 _symmetry_equiv_pos_as_xyz
  1  'x, y, z'
loop_
 _atom_site_type_symbol
 _atom_site_label
 _atom_site_symmetry_multiplicity
 _atom_site_fract_x
 _atom_site_fract_y
 _atom_site_fract_z
 _atom_site_occupancy
  Co  Co0  1  0.67964300  0.18961100  0.00937600  1
  Co  Co1  1  0.85987900  0.81038900  0.99062400  1
  Co  Co2  1  0.36667000  0.95656900  0.18987300  1
  Co  Co3  1  0.13336600  0.04343100  0.81012700  1
  Co  Co4  1  0.64218800  0.38678200  0.67411700  1
  Co  Co5  1  0.35485200  0.61321800  0.32588300  1
  Co  Co6  1  0.98506600  0.34881200  0.38210300  1
  Co  Co7  1  0.95177500  0.65118800  0.61789700  1
  Co  Co8  1  0.07854700  0.40721300  0.01894000  1
  Co  Co9  1  0.46682000  0.59278700  0.98106000  1
  Co  Co10  1  0.97272900  0.95076500  0.39041900  1
  Co  Co11  1  0.53307600  0.04923500  0.60958100  1
  B  B0  1  0.21523700  0.32370700  0.73656300  1
  B  B1  1  0.80238200  0.67629300  0.26343700  1
  P  P0  1  0.51643100  0.24980100  0.32489100  1
  P  P1  1  0.44134100  0.75019900  0.67510900  1
loop_
_geom_bond_atom_site_label_1
_geom_bond_atom_site_label_2
_geom_bond_distance
_geom_bond_site_symmetry_2
Co0 P0 2.317154 1_555
Co1 P1 2.317156 1_555
Co2 P0 2.271312 1_565
Co3 P1 2.271312 1_545
Co4 P1 2.272002 1_555
Co4 P0 2.322246 1_555
Co5 P0 2.272002 1_555
Co5 P1 2.322246 1_555
Co6 P0 2.204608 1_555
Co6 P0 2.288794 1_655
Co7 P1 2.204608 1_555
Co7 P1 2.288794 1_655
Co8 P0 2.210047 1_555
Co9 P1 2.210047 1_555
Co10 P0 2.214486 1_565
Co10 P1 2.267689 1_655
Co11 P1 2.214488 1_545
Co11 P0 2.267687 1_555
B0 Co8 2.069788 1_556
B0 Co3 2.090136 1_555
B0 Co0 2.108234 1_556
B0 Co7 2.128419 1_455
B0 Co6 2.135072 1_455
B0 Co4 2.147323 1_555
B0 Co11 2.184864 1_555
B0 Co4 2.232237 1_455
B1 Co9 2.069790 1_554
B1 Co2 2.090138 1_555
B1 Co1 2.108234 1_554
B1 Co6 2.128420 1_555
B1 Co7 2.135072 1_555
B1 Co5 2.147315 1_655
B1 Co10 2.184860 1_555
B1 Co5 2.232245 1_555
