# generated using pymatgen
data_AlAg3F6
_symmetry_space_group_name_H-M   'P 1'
_cell_length_a   5.92971969
_cell_length_b   5.92971969
_cell_length_c   5.92971969
_cell_angle_alpha   60.00000000
_cell_angle_beta   60.00000000
_cell_angle_gamma   60.00000000
_symmetry_Int_Tables_number   1
_chemical_formula_structural   AlAg3F6
_chemical_formula_sum   'Al1 Ag3 F6'
_cell_volume   147.43055238
_cell_formula_units_Z   1
loop_
 _symmetry_equiv_pos_site_id
 _symmetry_equiv_pos_as_xyz
  1  'x, y, z'
loop_
 _atom_site_type_symbol
 _atom_site_label
 _atom_site_symmetry_multiplicity
 _atom_site_fract_x
 _atom_site_fract_y
 _atom_site_fract_z
 _atom_site_occupancy
  Al  Al0  1  0.00000000  0.00000000  0.00000000  1
  Ag  Ag0  1  0.25000000  0.25000000  0.25000000  1
  Ag  Ag1  1  0.75000000  0.75000000  0.75000000  1
  Ag  Ag2  1  0.50000000  0.50000000  0.50000000  1
  F  F0  1  0.78290400  0.21709600  0.21709600  1
  F  F1  1  0.21709600  0.78290400  0.78290400  1
  F  F2  1  0.21709600  0.78290400  0.21709600  1
  F  F3  1  0.78290400  0.21709600  0.78290400  1
  F  F4  1  0.21709600  0.21709600  0.78290400  1
  F  F5  1  0.78290400  0.78290400  0.21709600  1
loop_
_geom_bond_atom_site_label_1
_geom_bond_atom_site_label_2
_geom_bond_distance
_geom_bond_site_symmetry_2
Al0 F2 1.820543 1_545
Al0 F4 1.820543 1_554
Al0 F0 1.820543 1_455
Al0 F3 1.820543 1_454
Al0 F5 1.820543 1_445
Al0 F1 1.820543 1_544
Ag2 F1 2.372402 1_555
Ag2 F5 2.372402 1_555
Ag2 F3 2.372402 1_555
Ag2 F4 2.372402 1_555
Ag2 F2 2.372402 1_555
Ag2 F0 2.372402 1_555
