# generated using pymatgen
data_ThMo2O9
_symmetry_space_group_name_H-M   'P 1'
_cell_length_a   10.68546000
_cell_length_b   7.40962100
_cell_length_c   9.80763992
_cell_angle_alpha   86.64963496
_cell_angle_beta   90.00000000
_cell_angle_gamma   90.00000000
_symmetry_Int_Tables_number   1
_chemical_formula_structural   ThMo2O9
_chemical_formula_sum   'Th4 Mo8 O36'
_cell_volume   775.19473091
_cell_formula_units_Z   4
loop_
 _symmetry_equiv_pos_site_id
 _symmetry_equiv_pos_as_xyz
  1  'x, y, z'
loop_
 _atom_site_type_symbol
 _atom_site_label
 _atom_site_symmetry_multiplicity
 _atom_site_fract_x
 _atom_site_fract_y
 _atom_site_fract_z
 _atom_site_occupancy
  Th  Th0  1  0.53959600  0.27331500  0.23910400  1
  Th  Th1  1  0.03959600  0.72668500  0.26089600  1
  Th  Th2  1  0.46040400  0.72668500  0.76089600  1
  Th  Th3  1  0.96040400  0.27331500  0.73910400  1
  Mo  Mo0  1  0.23184000  0.37939200  0.00146000  1
  Mo  Mo1  1  0.73184000  0.62060800  0.49854000  1
  Mo  Mo2  1  0.76816000  0.62060800  0.99854000  1
  Mo  Mo3  1  0.26816000  0.37939200  0.50146000  1
  Mo  Mo4  1  0.59713400  0.20643400  0.82103100  1
  Mo  Mo5  1  0.09713400  0.79356600  0.67896900  1
  Mo  Mo6  1  0.40286600  0.79356600  0.17896900  1
  Mo  Mo7  1  0.90286600  0.20643400  0.32103100  1
  O  O0  1  0.56078000  0.43161400  0.75564200  1
  O  O1  1  0.06078000  0.56838600  0.74435800  1
  O  O2  1  0.43922000  0.56838600  0.24435800  1
  O  O3  1  0.93922000  0.43161400  0.25564200  1
  O  O4  1  0.48639600  0.04893500  0.75896700  1
  O  O5  1  0.98639600  0.95106500  0.74103300  1
  O  O6  1  0.51360400  0.95106500  0.24103300  1
  O  O7  1  0.01360400  0.04893500  0.25896700  1
  O  O8  1  0.75216900  0.15060100  0.76301000  1
  O  O9  1  0.25216900  0.84939900  0.73699000  1
  O  O10  1  0.24783100  0.84939900  0.23699000  1
  O  O11  1  0.74783100  0.15060100  0.26301000  1
  O  O12  1  0.11665400  0.24334800  0.92042400  1
  O  O13  1  0.61665400  0.75665200  0.57957600  1
  O  O14  1  0.88334600  0.75665200  0.07957600  1
  O  O15  1  0.38334600  0.24334800  0.42042400  1
  O  O16  1  0.32980800  0.48821600  0.87472700  1
  O  O17  1  0.82980800  0.51178400  0.62527300  1
  O  O18  1  0.67019200  0.51178400  0.12527300  1
  O  O19  1  0.17019200  0.48821600  0.37472700  1
  O  O20  1  0.15477900  0.55462200  0.09168700  1
  O  O21  1  0.65477900  0.44537800  0.40831300  1
  O  O22  1  0.84522100  0.44537800  0.90831300  1
  O  O23  1  0.34522100  0.55462200  0.59168700  1
  O  O24  1  0.61335900  0.13698000  0.46008100  1
  O  O25  1  0.11335900  0.86302000  0.03991900  1
  O  O26  1  0.38664100  0.86302000  0.53991900  1
  O  O27  1  0.88664100  0.13698000  0.96008100  1
  O  O28  1  0.58759300  0.20005000  0.00338300  1
  O  O29  1  0.08759300  0.79995000  0.49661700  1
  O  O30  1  0.41240700  0.79995000  0.99661700  1
  O  O31  1  0.91240700  0.20005000  0.50338300  1
  O  O32  1  0.33573900  0.25040800  0.11343200  1
  O  O33  1  0.83573900  0.74959200  0.38656800  1
  O  O34  1  0.66426100  0.74959200  0.88656800  1
  O  O35  1  0.16426100  0.25040800  0.61343200  1
loop_
_geom_bond_atom_site_label_1
_geom_bond_atom_site_label_2
_geom_bond_distance
_geom_bond_site_symmetry_2
Mo0 O16 1.781526 1_554
Mo0 O32 1.797024 1_555
Mo0 O12 1.804534 1_554
Mo0 O20 1.811413 1_555
Mo1 O17 1.781526 1_555
Mo1 O33 1.797024 1_555
Mo1 O13 1.804534 1_555
Mo1 O21 1.811413 1_555
Mo2 O18 1.781526 1_556
Mo2 O34 1.797024 1_555
Mo2 O14 1.804534 1_556
Mo2 O22 1.811413 1_555
Mo3 O19 1.781526 1_555
Mo3 O35 1.797024 1_555
Mo3 O15 1.804534 1_555
Mo3 O23 1.811413 1_555
Mo4 O28 1.789210 1_556
Mo4 O4 1.793215 1_555
Mo4 O0 1.794715 1_555
Mo4 O8 1.807449 1_555
Mo5 O29 1.789210 1_555
Mo5 O5 1.793215 1_455
Mo5 O1 1.794715 1_555
Mo5 O9 1.807449 1_555
Mo6 O30 1.789210 1_554
Mo6 O6 1.793215 1_555
Mo6 O2 1.794715 1_555
Mo6 O10 1.807449 1_555
Mo7 O31 1.789210 1_555
Mo7 O7 1.793215 1_655
Mo7 O3 1.794715 1_555
Mo7 O11 1.807449 1_555
O0 Th2 2.438525 1_555
O1 Th3 2.438525 1_455
O2 Th0 2.438525 1_555
O3 Th1 2.438525 1_655
O4 Th2 2.402825 1_545
O5 Th3 2.402825 1_565
O6 Th0 2.402825 1_565
O7 Th1 2.402825 1_545
O8 Th3 2.409943 1_555
O9 Th2 2.409943 1_555
O10 Th1 2.409943 1_555
O11 Th0 2.409943 1_555
O12 Th3 2.439908 1_455
O13 Th2 2.439908 1_555
O14 Th1 2.439908 1_655
O15 Th0 2.439908 1_555
O16 Th2 2.466847 1_555
O17 Th3 2.466847 1_555
O18 Th0 2.466847 1_555
O19 Th1 2.466847 1_555
O20 Th1 2.478231 1_555
O21 Th0 2.478231 1_555
O22 Th3 2.478231 1_555
O23 Th2 2.478231 1_555
O24 Th0 2.466346 1_555
O25 Th1 2.466346 1_555
O26 Th2 2.466346 1_555
O27 Th3 2.466346 1_555
O28 Th0 2.459504 1_555
O29 Th1 2.459504 1_555
O30 Th2 2.459504 1_555
O31 Th3 2.459504 1_555
O32 Th0 2.513453 1_555
O33 Th1 2.513453 1_655
O34 Th2 2.513453 1_555
O35 Th3 2.513453 1_455
