# generated using pymatgen
data_La2C3
_symmetry_space_group_name_H-M   'P 1'
_cell_length_a   7.64383834
_cell_length_b   7.64383980
_cell_length_c   7.64383948
_cell_angle_alpha   109.47121977
_cell_angle_beta   109.47122362
_cell_angle_gamma   109.47122940
_symmetry_Int_Tables_number   1
_chemical_formula_structural   La2C3
_chemical_formula_sum   'La8 C12'
_cell_volume   343.80538860
_cell_formula_units_Z   4
loop_
 _symmetry_equiv_pos_site_id
 _symmetry_equiv_pos_as_xyz
  1  'x, y, z'
loop_
 _atom_site_type_symbol
 _atom_site_label
 _atom_site_symmetry_multiplicity
 _atom_site_fract_x
 _atom_site_fract_y
 _atom_site_fract_z
 _atom_site_occupancy
  La  La0  1  0.60438051  0.60438051  0.60438051  1
  La  La1  1  0.39561949  0.50000000  1.00000000  1
  La  La2  1  0.50000000  0.00000000  0.39561949  1
  La  La3  1  1.00000000  0.39561949  0.50000000  1
  La  La4  1  0.50000000  0.00000000  0.89561949  1
  La  La5  1  1.00000000  0.89561949  0.50000000  1
  La  La6  1  0.89561949  0.50000000  1.00000000  1
  La  La7  1  0.10438051  0.10438051  0.10438051  1
  C  C0  1  0.75000000  0.80013095  0.05013095  1
  C  C1  1  0.75000000  0.94986905  0.19986905  1
  C  C2  1  0.30013095  0.25000000  0.55013095  1
  C  C3  1  0.55013095  0.30013095  0.25000000  1
  C  C4  1  0.19986905  0.75000000  0.94986905  1
  C  C5  1  0.94986905  0.19986905  0.75000000  1
  C  C6  1  0.25000000  0.69986905  0.44986905  1
  C  C7  1  0.69986905  0.44986905  0.25000000  1
  C  C8  1  0.25000000  0.55013095  0.30013095  1
  C  C9  1  0.44986905  0.25000000  0.69986905  1
  C  C10  1  0.05013095  0.75000000  0.80013095  1
  C  C11  1  0.80013095  0.05013095  0.75000000  1
loop_
_geom_bond_atom_site_label_1
_geom_bond_atom_site_label_2
_geom_bond_distance
_geom_bond_site_symmetry_2
C0 C1 1.321640 1_555
C0 La7 2.706782 1_665
C0 La1 2.706782 1_554
C0 La0 2.837188 1_554
C0 La6 2.837188 1_554
C1 La4 2.706783 1_564
C1 La5 2.706783 1_555
C1 La3 2.837187 1_565
C1 La2 2.837187 1_565
C2 C9 1.321640 1_555
C2 La0 2.706783 1_555
C2 La5 2.706783 1_445
C2 La7 2.837187 1_555
C2 La3 2.837187 1_455
C3 C7 1.321640 1_555
C3 La0 2.706783 1_555
C3 La4 2.706783 1_554
C3 La7 2.837187 1_555
C3 La2 2.837188 1_555
C4 La6 2.706783 1_455
C4 La4 2.706783 1_565
C4 La2 2.837187 1_566
C4 La1 2.837188 1_555
C5 La6 2.706783 1_555
C5 La5 2.706783 1_545
C5 La1 2.837187 1_655
C5 La3 2.837188 1_555
C6 C8 1.321640 1_555
C6 La3 2.706783 1_455
C6 La2 2.706783 1_565
C6 La4 2.837187 1_565
C6 La5 2.837188 1_455
C7 La1 2.706783 1_554
C7 La3 2.706783 1_555
C7 La5 2.837187 1_555
C7 La6 2.837188 1_554
C8 La0 2.706783 1_555
C8 La6 2.706783 1_454
C8 La1 2.837188 1_554
C8 La7 2.837188 1_555
C9 La2 2.706783 1_555
C9 La1 2.706783 1_555
C9 La6 2.837187 1_555
C9 La4 2.837188 1_555
C10 C4 1.321640 1_555
C10 La7 2.706783 1_566
C10 La3 2.706783 1_455
C10 La0 2.837187 1_455
C10 La5 2.837188 1_455
C11 C5 1.321640 1_555
C11 La7 2.706783 1_656
C11 La2 2.706783 1_555
C11 La4 2.837187 1_555
C11 La0 2.837188 1_545
