# generated using pymatgen
data_RbMg6BO7
_symmetry_space_group_name_H-M   'P 1'
_cell_length_a   7.85653229
_cell_length_b   4.81284550
_cell_length_c   4.81284550
_cell_angle_alpha   90.00000000
_cell_angle_beta   90.00000000
_cell_angle_gamma   90.00000000
_symmetry_Int_Tables_number   1
_chemical_formula_structural   RbMg6BO7
_chemical_formula_sum   'Rb1 Mg6 B1 O7'
_cell_volume   181.98464276
_cell_formula_units_Z   1
loop_
 _symmetry_equiv_pos_site_id
 _symmetry_equiv_pos_as_xyz
  1  'x, y, z'
loop_
 _atom_site_type_symbol
 _atom_site_label
 _atom_site_symmetry_multiplicity
 _atom_site_fract_x
 _atom_site_fract_y
 _atom_site_fract_z
 _atom_site_occupancy
  Rb  Rb0  1  0.05429823  0.00000000  0.00000000  1
  Mg  Mg0  1  0.99794312  0.50000000  0.50000000  1
  Mg  Mg1  1  0.50188034  0.50000000  0.50000000  1
  Mg  Mg2  1  0.26218393  0.00000000  0.50000000  1
  Mg  Mg3  1  0.74528792  0.00000000  0.50000000  1
  Mg  Mg4  1  0.26218393  0.50000000  -0.00000000  1
  Mg  Mg5  1  0.74528792  0.50000000  0.00000000  1
  B  B0  1  0.50393036  0.00000000  0.00000000  1
  O  O0  1  0.67691666  0.00000000  0.00000000  1
  O  O1  1  0.24896595  0.50000000  0.50000000  1
  O  O2  1  0.75059677  0.50000000  0.50000000  1
  O  O3  1  0.99895846  0.00000000  0.50000000  1
  O  O4  1  0.50130398  0.00000000  0.50000000  1
  O  O5  1  0.99895846  0.50000000  -0.00000000  1
  O  O6  1  0.50130398  0.50000000  0.00000000  1
loop_
_geom_bond_atom_site_label_1
_geom_bond_atom_site_label_2
_geom_bond_distance
_geom_bond_site_symmetry_2
Mg0 O2 1.943285 1_555
Mg0 O1 1.972169 1_655
Mg0 O3 2.406436 1_555
Mg0 O3 2.406436 1_565
Mg0 O5 2.406436 1_556
Mg0 O5 2.406436 1_555
Mg1 O2 1.954049 1_555
Mg1 O1 1.987030 1_555
Mg1 O6 2.406427 1_556
Mg1 O6 2.406427 1_555
Mg1 O4 2.406427 1_555
Mg1 O4 2.406427 1_565
Mg2 O4 1.878654 1_555
Mg2 O3 2.068039 1_455
Mg2 O1 2.408662 1_555
Mg2 O1 2.408662 1_545
Mg3 O4 1.916868 1_555
Mg3 O3 1.992971 1_555
Mg3 O2 2.406784 1_545
Mg3 O2 2.406784 1_555
Mg3 O0 2.465646 1_555
Mg3 O0 2.465646 1_556
Mg4 O6 1.878654 1_555
Mg4 O5 2.068039 1_455
Mg4 O1 2.408662 1_554
Mg4 O1 2.408662 1_555
Mg5 O6 1.916868 1_555
Mg5 O5 1.992971 1_555
Mg5 O2 2.406784 1_554
Mg5 O2 2.406784 1_555
Mg5 O0 2.465646 1_555
Mg5 O0 2.465646 1_565
B0 O0 1.359072 1_555
O0 Rb0 2.964910 1_655
O3 Rb0 2.445384 1_655
O3 Rb0 2.445384 1_656
O5 Rb0 2.445384 1_655
O5 Rb0 2.445384 1_665
