# generated using pymatgen
data_LaSmB12
_symmetry_space_group_name_H-M   'P 1'
_cell_length_a   4.13544400
_cell_length_b   4.13544400
_cell_length_c   8.27450000
_cell_angle_alpha   90.00000000
_cell_angle_beta   90.00000000
_cell_angle_gamma   90.00000000
_symmetry_Int_Tables_number   1
_chemical_formula_structural   LaSmB12
_chemical_formula_sum   'La1 Sm1 B12'
_cell_volume   141.50964736
_cell_formula_units_Z   1
loop_
 _symmetry_equiv_pos_site_id
 _symmetry_equiv_pos_as_xyz
  1  'x, y, z'
loop_
 _atom_site_type_symbol
 _atom_site_label
 _atom_site_symmetry_multiplicity
 _atom_site_fract_x
 _atom_site_fract_y
 _atom_site_fract_z
 _atom_site_occupancy
  La  La0  1  0.00000000  0.00000000  0.50000000  1
  Sm  Sm0  1  0.00000000  0.00000000  0.00000000  1
  B  B0  1  0.19928400  0.50000000  0.24893800  1
  B  B1  1  0.19928400  0.50000000  0.75106200  1
  B  B2  1  0.50000000  0.50000000  0.39930900  1
  B  B3  1  0.50000000  0.50000000  0.90066200  1
  B  B4  1  0.50000000  0.19928400  0.24893800  1
  B  B5  1  0.50000000  0.19928400  0.75106200  1
  B  B6  1  0.50000000  0.50000000  0.09933800  1
  B  B7  1  0.50000000  0.50000000  0.60069100  1
  B  B8  1  0.50000000  0.80071600  0.24893800  1
  B  B9  1  0.50000000  0.80071600  0.75106200  1
  B  B10  1  0.80071600  0.50000000  0.24893800  1
  B  B11  1  0.80071600  0.50000000  0.75106200  1
loop_
_geom_bond_atom_site_label_1
_geom_bond_atom_site_label_2
_geom_bond_distance
_geom_bond_site_symmetry_2
B0 B10 1.648256 1_455
B0 B6 1.754661 1_555
B0 B4 1.758708 1_555
B0 B8 1.758708 1_555
B0 B2 1.759168 1_555
B0 Sm0 3.032753 1_565
B0 Sm0 3.032753 1_555
B0 La0 3.044717 1_555
B0 La0 3.044717 1_565
B1 B11 1.648256 1_455
B1 B3 1.754661 1_555
B1 B5 1.758708 1_555
B1 B9 1.758708 1_555
B1 B7 1.759168 1_555
B1 Sm0 3.032753 1_556
B1 Sm0 3.032753 1_566
B1 La0 3.044717 1_555
B1 La0 3.044717 1_565
B2 B7 1.666335 1_555
B2 B4 1.759168 1_555
B2 B8 1.759168 1_555
B2 La0 3.040578 1_665
B2 La0 3.040578 1_555
B2 La0 3.040578 1_565
B2 La0 3.040578 1_655
B3 B6 1.643945 1_556
B3 B5 1.754661 1_555
B3 B9 1.754661 1_555
B3 Sm0 3.037530 1_556
B3 Sm0 3.037530 1_566
B3 Sm0 3.037530 1_656
B3 Sm0 3.037530 1_666
B4 B8 1.648256 1_545
B4 B6 1.754661 1_555
B4 Sm0 3.032753 1_655
B4 Sm0 3.032753 1_555
B4 La0 3.044717 1_555
B4 La0 3.044717 1_655
B5 B9 1.648256 1_545
B5 B7 1.759168 1_555
B5 Sm0 3.032753 1_556
B5 Sm0 3.032753 1_656
B5 La0 3.044717 1_555
B5 La0 3.044717 1_655
B6 B8 1.754661 1_555
B6 Sm0 3.037530 1_565
B6 Sm0 3.037530 1_655
B6 Sm0 3.037530 1_665
B6 Sm0 3.037530 1_555
B7 B9 1.759168 1_555
B7 La0 3.040578 1_555
B7 La0 3.040578 1_565
B7 La0 3.040578 1_655
B7 La0 3.040578 1_665
B8 Sm0 3.032753 1_565
B8 Sm0 3.032753 1_665
B8 La0 3.044717 1_565
B8 La0 3.044717 1_665
B9 Sm0 3.032753 1_566
B9 Sm0 3.032753 1_666
B9 La0 3.044717 1_565
B9 La0 3.044717 1_665
B10 B6 1.754661 1_555
B10 B4 1.758708 1_555
B10 B8 1.758708 1_555
B10 B2 1.759168 1_555
B10 Sm0 3.032753 1_655
B10 Sm0 3.032753 1_665
B10 La0 3.044717 1_655
B10 La0 3.044717 1_665
B11 B3 1.754661 1_555
B11 B5 1.758708 1_555
B11 B9 1.758708 1_555
B11 B7 1.759168 1_555
B11 Sm0 3.032753 1_656
B11 Sm0 3.032753 1_666
B11 La0 3.044717 1_655
B11 La0 3.044717 1_665
