# generated using pymatgen
data_Ba(TbTe2)2
_symmetry_space_group_name_H-M   'P 1'
_cell_length_a   4.49981364
_cell_length_b   13.82535459
_cell_length_c   16.32303725
_cell_angle_alpha   90.00000000
_cell_angle_beta   90.00000000
_cell_angle_gamma   90.00000000
_symmetry_Int_Tables_number   1
_chemical_formula_structural   Ba(TbTe2)2
_chemical_formula_sum   'Ba4 Tb8 Te16'
_cell_volume   1015.48094466
_cell_formula_units_Z   4
loop_
 _symmetry_equiv_pos_site_id
 _symmetry_equiv_pos_as_xyz
  1  'x, y, z'
loop_
 _atom_site_type_symbol
 _atom_site_label
 _atom_site_symmetry_multiplicity
 _atom_site_fract_x
 _atom_site_fract_y
 _atom_site_fract_z
 _atom_site_occupancy
  Ba  Ba0  1  0.75000000  0.26100464  0.83081025  1
  Ba  Ba1  1  0.25000000  0.73899536  0.16918975  1
  Ba  Ba2  1  0.75000000  0.76100464  0.66918975  1
  Ba  Ba3  1  0.25000000  0.23899536  0.33081025  1
  Tb  Tb0  1  0.25000000  0.08086420  0.59686095  1
  Tb  Tb1  1  0.75000000  0.91913580  0.40313905  1
  Tb  Tb2  1  0.25000000  0.58086420  0.90313905  1
  Tb  Tb3  1  0.75000000  0.41913580  0.09686095  1
  Tb  Tb4  1  0.75000000  0.94024852  0.89042685  1
  Tb  Tb5  1  0.25000000  0.05975148  0.10957315  1
  Tb  Tb6  1  0.75000000  0.44024852  0.60957315  1
  Tb  Tb7  1  0.25000000  0.55975148  0.39042685  1
  Te  Te0  1  0.25000000  0.47278537  0.21595087  1
  Te  Te1  1  0.75000000  0.52721463  0.78404913  1
  Te  Te2  1  0.25000000  0.97278537  0.28404913  1
  Te  Te3  1  0.75000000  0.02721463  0.71595087  1
  Te  Te4  1  0.25000000  0.37280519  0.97153573  1
  Te  Te5  1  0.75000000  0.62719481  0.02846427  1
  Te  Te6  1  0.25000000  0.87280519  0.52846427  1
  Te  Te7  1  0.75000000  0.12719481  0.47153573  1
  Te  Te8  1  0.25000000  0.29530787  0.66105034  1
  Te  Te9  1  0.75000000  0.70469213  0.33894966  1
  Te  Te10  1  0.25000000  0.79530787  0.83894966  1
  Te  Te11  1  0.75000000  0.20469213  0.16105034  1
  Te  Te12  1  0.75000000  0.41049986  0.42370448  1
  Te  Te13  1  0.25000000  0.58950014  0.57629552  1
  Te  Te14  1  0.75000000  0.91049986  0.07629552  1
  Te  Te15  1  0.25000000  0.08950014  0.92370448  1
loop_
_geom_bond_atom_site_label_1
_geom_bond_atom_site_label_2
_geom_bond_distance
_geom_bond_site_symmetry_2
Ba0 Te4 3.567595 1_555
Ba0 Te4 3.567595 1_655
Ba0 Te8 3.600753 1_655
Ba0 Te8 3.600753 1_555
Ba0 Te15 3.603257 1_655
Ba0 Te15 3.603257 1_555
Ba0 Te3 3.736628 1_555
Ba0 Te1 3.758763 1_555
Ba1 Te5 3.567595 1_555
Ba1 Te5 3.567595 1_455
Ba1 Te9 3.600753 1_455
Ba1 Te9 3.600753 1_555
Ba1 Te14 3.603257 1_555
Ba1 Te14 3.603257 1_455
Ba1 Te2 3.736628 1_555
Ba1 Te0 3.758763 1_555
Ba2 Te6 3.567595 1_655
Ba2 Te6 3.567595 1_555
Ba2 Te10 3.600753 1_555
Ba2 Te10 3.600753 1_655
Ba2 Te13 3.603257 1_555
Ba2 Te13 3.603257 1_655
Ba2 Te1 3.736628 1_555
Ba2 Te3 3.758763 1_565
Ba3 Te7 3.567595 1_455
Ba3 Te7 3.567595 1_555
Ba3 Te11 3.600753 1_455
Ba3 Te11 3.600753 1_555
Ba3 Te12 3.603257 1_555
Ba3 Te12 3.603257 1_455
Ba3 Te0 3.736628 1_555
Ba3 Te2 3.758763 1_545
Tb0 Te3 3.064477 1_455
Tb0 Te3 3.064477 1_555
Tb0 Te6 3.085552 1_545
Tb0 Te7 3.107605 1_455
Tb0 Te7 3.107605 1_555
Tb0 Te8 3.144458 1_555
Tb1 Te2 3.064477 1_655
Tb1 Te2 3.064477 1_555
Tb1 Te7 3.085552 1_565
Tb1 Te6 3.107605 1_555
Tb1 Te6 3.107605 1_655
Tb1 Te9 3.144458 1_555
Tb2 Te1 3.064477 1_455
Tb2 Te1 3.064477 1_555
Tb2 Te4 3.085552 1_555
Tb2 Te5 3.107605 1_456
Tb2 Te5 3.107605 1_556
Tb2 Te10 3.144458 1_555
Tb3 Te0 3.064477 1_655
Tb3 Te0 3.064477 1_555
Tb3 Te5 3.085552 1_555
Tb3 Te4 3.107605 1_554
Tb3 Te4 3.107605 1_654
Tb3 Te11 3.144458 1_555
Tb4 Te14 3.061692 1_556
Tb4 Te3 3.091374 1_565
Tb4 Te15 3.100805 1_565
Tb4 Te15 3.100805 1_665
Tb4 Te10 3.127869 1_555
Tb4 Te10 3.127869 1_655
Tb5 Te15 3.061692 1_554
Tb5 Te2 3.091374 1_545
Tb5 Te14 3.100805 1_445
Tb5 Te14 3.100805 1_545
Tb5 Te11 3.127869 1_455
Tb5 Te11 3.127869 1_555
Tb6 Te12 3.061692 1_555
Tb6 Te1 3.091374 1_555
Tb6 Te13 3.100805 1_555
Tb6 Te13 3.100805 1_655
Tb6 Te8 3.127869 1_655
Tb6 Te8 3.127869 1_555
Tb7 Te13 3.061692 1_555
Tb7 Te0 3.091374 1_555
Tb7 Te12 3.100805 1_555
Tb7 Te12 3.100805 1_455
Tb7 Te9 3.127869 1_555
Tb7 Te9 3.127869 1_455
