# generated using pymatgen
data_Al2FeSiO5
_symmetry_space_group_name_H-M   'P 1'
_cell_length_a   5.37623500
_cell_length_b   14.66221136
_cell_length_c   14.66221136
_cell_angle_alpha   113.18366301
_cell_angle_beta   90.00000000
_cell_angle_gamma   90.00000000
_symmetry_Int_Tables_number   1
_chemical_formula_structural   Al2FeSiO5
_chemical_formula_sum   'Al16 Fe8 Si8 O40'
_cell_volume   1062.45296541
_cell_formula_units_Z   8
loop_
 _symmetry_equiv_pos_site_id
 _symmetry_equiv_pos_as_xyz
  1  'x, y, z'
loop_
 _atom_site_type_symbol
 _atom_site_label
 _atom_site_symmetry_multiplicity
 _atom_site_fract_x
 _atom_site_fract_y
 _atom_site_fract_z
 _atom_site_occupancy
  Al  Al0  1  0.63208700  0.57459600  0.08983800  1
  Al  Al1  1  0.63208700  0.42540400  0.91016200  1
  Al  Al2  1  0.36791300  0.91016200  0.42540400  1
  Al  Al3  1  0.86791300  0.92540400  0.41016200  1
  Al  Al4  1  0.36791300  0.08983800  0.57459600  1
  Al  Al5  1  0.86791300  0.07459600  0.58983800  1
  Al  Al6  1  0.13208700  0.58983800  0.07459600  1
  Al  Al7  1  0.13208700  0.41016200  0.92540400  1
  Al  Al8  1  0.66682400  0.51790900  0.59812500  1
  Al  Al9  1  0.66682400  0.48209100  0.40187500  1
  Al  Al10  1  0.33317600  0.40187500  0.48209100  1
  Al  Al11  1  0.83317600  0.98209100  0.90187500  1
  Al  Al12  1  0.33317600  0.59812500  0.51790900  1
  Al  Al13  1  0.83317600  0.01790900  0.09812500  1
  Al  Al14  1  0.16682400  0.09812500  0.01790900  1
  Al  Al15  1  0.16682400  0.90187500  0.98209100  1
  Fe  Fe0  1  0.79201100  0.79978000  0.10555100  1
  Fe  Fe1  1  0.79201100  0.20022000  0.89444900  1
  Fe  Fe2  1  0.20798900  0.89444900  0.20022000  1
  Fe  Fe3  1  0.70798900  0.70022000  0.39444900  1
  Fe  Fe4  1  0.20798900  0.10555100  0.79978000  1
  Fe  Fe5  1  0.70798900  0.29978000  0.60555100  1
  Fe  Fe6  1  0.29201100  0.60555100  0.29978000  1
  Fe  Fe7  1  0.29201100  0.39444900  0.70022000  1
  Si  Si0  1  0.86574300  0.57096600  0.81906500  1
  Si  Si1  1  0.86574300  0.42903400  0.18093500  1
  Si  Si2  1  0.13425700  0.18093500  0.42903400  1
  Si  Si3  1  0.63425700  0.92903400  0.68093500  1
  Si  Si4  1  0.13425700  0.81906500  0.57096600  1
  Si  Si5  1  0.63425700  0.07096600  0.31906500  1
  Si  Si6  1  0.36574300  0.31906500  0.07096600  1
  Si  Si7  1  0.36574300  0.68093500  0.92903400  1
  O  O0  1  0.86031600  0.66983000  0.10045200  1
  O  O1  1  0.86031600  0.33017000  0.89954800  1
  O  O2  1  0.13968400  0.89954800  0.33017000  1
  O  O3  1  0.63968400  0.83017000  0.39954800  1
  O  O4  1  0.13968400  0.10045200  0.66983000  1
  O  O5  1  0.63968400  0.16983000  0.60045200  1
  O  O6  1  0.36031600  0.60045200  0.16983000  1
  O  O7  1  0.36031600  0.39954800  0.83017000  1
  O  O8  1  0.84426500  0.54684700  0.70106700  1
  O  O9  1  0.84426500  0.45315300  0.29893300  1
  O  O10  1  0.15573500  0.29893300  0.45315300  1
  O  O11  1  0.65573500  0.95315300  0.79893300  1
  O  O12  1  0.15573500  0.70106700  0.54684700  1
  O  O13  1  0.65573500  0.04684700  0.20106700  1
  O  O14  1  0.34426500  0.20106700  0.04684700  1
  O  O15  1  0.34426500  0.79893300  0.95315300  1
  O  O16  1  0.85775100  0.46782100  0.83659400  1
  O  O17  1  0.85775100  0.53217900  0.16340600  1
  O  O18  1  0.14224900  0.16340600  0.53217900  1
  O  O19  1  0.64224900  0.03217900  0.66340600  1
  O  O20  1  0.14224900  0.83659400  0.46782100  1
  O  O21  1  0.64224900  0.96782100  0.33659400  1
  O  O22  1  0.35775100  0.33659400  0.96782100  1
  O  O23  1  0.35775100  0.66340600  0.03217900  1
  O  O24  1  0.82302100  0.90654100  0.97883100  1
  O  O25  1  0.82302100  0.09345900  0.02116900  1
  O  O26  1  0.17697900  0.02116900  0.09345900  1
  O  O27  1  0.67697900  0.59345900  0.52116900  1
  O  O28  1  0.17697900  0.97883100  0.90654100  1
  O  O29  1  0.67697900  0.40654100  0.47883100  1
  O  O30  1  0.32302100  0.47883100  0.40654100  1
  O  O31  1  0.32302100  0.52116900  0.59345900  1
  O  O32  1  0.63727300  0.64561400  0.87606000  1
  O  O33  1  0.63727300  0.35438600  0.12394000  1
  O  O34  1  0.36272700  0.12394000  0.35438600  1
  O  O35  1  0.86272700  0.85438600  0.62394000  1
  O  O36  1  0.36272700  0.87606000  0.64561400  1
  O  O37  1  0.86272700  0.14561400  0.37606000  1
  O  O38  1  0.13727300  0.37606000  0.14561400  1
  O  O39  1  0.13727300  0.62394000  0.85438600  1
loop_
_geom_bond_atom_site_label_1
_geom_bond_atom_site_label_2
_geom_bond_distance
_geom_bond_site_symmetry_2
Al0 O6 1.817707 1_555
Al0 O0 1.818915 1_555
Al0 O17 1.884259 1_555
Al0 O23 2.335036 1_555
Al1 O7 1.817707 1_555
Al1 O1 1.818915 1_555
Al1 O16 1.884259 1_555
Al1 O22 2.335036 1_555
Al2 O3 1.817707 1_555
Al2 O2 1.818915 1_555
Al2 O20 1.884259 1_555
Al2 O21 2.335036 1_555
Al3 O2 1.817707 1_655
Al3 O3 1.818915 1_555
Al3 O21 1.884259 1_555
Al3 O20 2.335036 1_655
Al4 O5 1.817707 1_555
Al4 O4 1.818915 1_555
Al4 O18 1.884259 1_555
Al4 O19 2.335036 1_555
Al5 O4 1.817707 1_655
Al5 O5 1.818915 1_555
Al5 O19 1.884259 1_555
Al5 O18 2.335036 1_655
Al6 O0 1.817707 1_455
Al6 O6 1.818915 1_555
Al6 O23 1.884259 1_555
Al6 O17 2.335036 1_455
Al7 O1 1.817707 1_455
Al7 O7 1.818915 1_555
Al7 O22 1.884259 1_555
Al7 O16 2.335036 1_455
Al8 O8 1.692335 1_555
Al8 O31 1.850945 1_555
Al8 O29 1.865461 1_555
Al8 O27 1.867440 1_555
Al9 O9 1.692335 1_555
Al9 O30 1.850945 1_555
Al9 O27 1.865461 1_555
Al9 O29 1.867440 1_555
Al10 O10 1.692335 1_555
Al10 O29 1.850945 1_555
Al10 O31 1.865461 1_555
Al10 O30 1.867440 1_555
Al11 O11 1.692335 1_555
Al11 O28 1.850945 1_655
Al11 O25 1.865461 1_566
Al11 O24 1.867440 1_555
Al12 O12 1.692335 1_555
Al12 O27 1.850945 1_555
Al12 O30 1.865461 1_555
Al12 O31 1.867440 1_555
Al13 O13 1.692335 1_555
Al13 O26 1.850945 1_655
Al13 O24 1.865461 1_544
Al13 O25 1.867440 1_555
Al14 O14 1.692335 1_555
Al14 O25 1.850945 1_455
Al14 O28 1.865461 1_544
Al14 O26 1.867440 1_555
Al15 O15 1.692335 1_555
Al15 O24 1.850945 1_455
Al15 O26 1.865461 1_566
Al15 O28 1.867440 1_555
Fe0 O0 1.912762 1_555
Fe1 O1 1.912762 1_555
Fe2 O2 1.912762 1_555
Fe3 O3 1.912762 1_555
Fe4 O4 1.912762 1_555
Fe5 O5 1.912762 1_555
Fe6 O6 1.912762 1_555
Fe7 O7 1.912762 1_555
O8 Si0 1.627866 1_555
O9 Si1 1.627866 1_555
O10 Si2 1.627866 1_555
O11 Si3 1.627866 1_555
O12 Si4 1.627866 1_555
O13 Si5 1.627866 1_555
O14 Si6 1.627866 1_555
O15 Si7 1.627866 1_555
O16 Si0 1.631286 1_555
O17 Si1 1.631286 1_555
O18 Si2 1.631286 1_555
O19 Si3 1.631286 1_545
O20 Si4 1.631286 1_555
O21 Si5 1.631286 1_565
O22 Si6 1.631286 1_556
O23 Si7 1.631286 1_554
O32 Si0 1.638559 1_555
O32 Si7 1.638847 1_555
O33 Si1 1.638559 1_555
O33 Si6 1.638847 1_555
O34 Si2 1.638559 1_555
O34 Si5 1.638847 1_555
O35 Si3 1.638559 1_555
O35 Si4 1.638847 1_655
O36 Si4 1.638559 1_555
O36 Si3 1.638847 1_555
O37 Si5 1.638559 1_555
O37 Si2 1.638847 1_655
O38 Si6 1.638559 1_555
O38 Si1 1.638847 1_455
O39 Si7 1.638559 1_555
O39 Si0 1.638847 1_455
