# generated using pymatgen
data_Tb
_symmetry_space_group_name_H-M   'P 1'
_cell_length_a   7.34495086
_cell_length_b   7.34495291
_cell_length_c   11.20286110
_cell_angle_alpha   90.00000000
_cell_angle_beta   90.00000000
_cell_angle_gamma   120.00000073
_symmetry_Int_Tables_number   1
_chemical_formula_structural   Tb
_chemical_formula_sum   Tb16
_cell_volume   523.40454558
_cell_formula_units_Z   16
loop_
 _symmetry_equiv_pos_site_id
 _symmetry_equiv_pos_as_xyz
  1  'x, y, z'
loop_
 _atom_site_type_symbol
 _atom_site_label
 _atom_site_symmetry_multiplicity
 _atom_site_fract_x
 _atom_site_fract_y
 _atom_site_fract_z
 _atom_site_occupancy
  Tb  Tb0_0  1  0.16666650  0.33333350  0.12500000  1
  Tb  Tb0_1  1  0.16666650  0.33333350  0.62500000  1
  Tb  Tb0_2  1  0.16666650  0.83333350  0.12500000  1
  Tb  Tb0_3  1  0.16666650  0.83333350  0.62500000  1
  Tb  Tb0_4  1  0.66666650  0.33333350  0.12500000  1
  Tb  Tb0_5  1  0.66666650  0.33333350  0.62500000  1
  Tb  Tb0_6  1  0.66666650  0.83333350  0.12500000  1
  Tb  Tb0_7  1  0.66666650  0.83333350  0.62500000  1
  Tb  Tb1_0  1  0.33333350  0.16666650  0.37500000  1
  Tb  Tb1_1  1  0.33333350  0.16666650  0.87500000  1
  Tb  Tb1_2  1  0.33333350  0.66666650  0.37500000  1
  Tb  Tb1_3  1  0.33333350  0.66666650  0.87500000  1
  Tb  Tb1_4  1  0.83333350  0.16666650  0.37500000  1
  Tb  Tb1_5  1  0.83333350  0.16666650  0.87500000  1
  Tb  Tb1_6  1  0.83333350  0.66666650  0.37500000  1
  Tb  Tb1_7  1  0.83333350  0.66666650  0.87500000  1
loop_
_geom_bond_atom_site_label_1
_geom_bond_atom_site_label_2
_geom_bond_distance
_geom_bond_site_symmetry_2
Tb0_0 Tb1_4 3.512789 1_455
Tb0_0 Tb1_5 3.512789 1_454
Tb0_0 Tb1_3 3.512790 1_554
Tb0_0 Tb1_2 3.512790 1_555
Tb0_0 Tb1_0 3.512793 1_555
Tb0_0 Tb1_1 3.512793 1_554
Tb0_0 Tb0_4 3.672475 1_555
Tb0_0 Tb0_4 3.672475 1_455
Tb0_0 Tb0_6 3.672476 1_445
Tb0_0 Tb0_6 3.672476 1_555
Tb0_0 Tb0_2 3.672476 1_555
Tb0_0 Tb0_2 3.672476 1_545
Tb0_1 Tb1_5 3.512789 1_455
Tb0_1 Tb1_4 3.512789 1_455
Tb0_1 Tb1_3 3.512790 1_555
Tb0_1 Tb1_2 3.512790 1_555
Tb0_1 Tb1_0 3.512793 1_555
Tb0_1 Tb1_1 3.512793 1_555
Tb0_1 Tb0_5 3.672475 1_455
Tb0_1 Tb0_5 3.672475 1_555
Tb0_1 Tb0_7 3.672476 1_445
Tb0_1 Tb0_7 3.672476 1_555
Tb0_1 Tb0_3 3.672476 1_555
Tb0_1 Tb0_3 3.672476 1_545
Tb0_2 Tb1_7 3.512789 1_454
Tb0_2 Tb1_6 3.512789 1_455
Tb0_2 Tb1_1 3.512790 1_564
Tb0_2 Tb1_0 3.512790 1_565
Tb0_2 Tb1_2 3.512793 1_555
Tb0_2 Tb1_3 3.512793 1_554
Tb0_2 Tb0_6 3.672475 1_455
Tb0_2 Tb0_6 3.672475 1_555
Tb0_2 Tb0_4 3.672476 1_565
Tb0_2 Tb0_4 3.672476 1_455
Tb0_3 Tb1_6 3.512789 1_455
Tb0_3 Tb1_7 3.512789 1_455
Tb0_3 Tb1_1 3.512790 1_565
Tb0_3 Tb1_0 3.512790 1_565
Tb0_3 Tb1_2 3.512793 1_555
Tb0_3 Tb1_3 3.512793 1_555
Tb0_3 Tb0_7 3.672475 1_455
Tb0_3 Tb0_7 3.672475 1_555
Tb0_3 Tb0_5 3.672476 1_565
Tb0_3 Tb0_5 3.672476 1_455
Tb0_4 Tb1_1 3.512789 1_554
Tb0_4 Tb1_0 3.512789 1_555
Tb0_4 Tb1_6 3.512790 1_555
Tb0_4 Tb1_7 3.512790 1_554
Tb0_4 Tb1_4 3.512793 1_555
Tb0_4 Tb1_5 3.512793 1_554
Tb0_4 Tb0_6 3.672476 1_555
Tb0_4 Tb0_6 3.672476 1_545
Tb0_5 Tb1_1 3.512789 1_555
Tb0_5 Tb1_0 3.512789 1_555
Tb0_5 Tb1_6 3.512790 1_555
Tb0_5 Tb1_7 3.512790 1_555
Tb0_5 Tb1_5 3.512793 1_555
Tb0_5 Tb1_4 3.512793 1_555
Tb0_5 Tb0_7 3.672476 1_555
Tb0_5 Tb0_7 3.672476 1_545
Tb0_6 Tb1_2 3.512789 1_555
Tb0_6 Tb1_3 3.512789 1_554
Tb0_6 Tb1_4 3.512790 1_565
Tb0_6 Tb1_5 3.512790 1_564
Tb0_6 Tb1_6 3.512793 1_555
Tb0_6 Tb1_7 3.512793 1_554
Tb0_7 Tb1_3 3.512789 1_555
Tb0_7 Tb1_2 3.512789 1_555
Tb0_7 Tb1_4 3.512790 1_565
Tb0_7 Tb1_5 3.512790 1_565
Tb0_7 Tb1_6 3.512793 1_555
Tb0_7 Tb1_7 3.512793 1_555
Tb1_0 Tb1_4 3.672475 1_555
Tb1_0 Tb1_4 3.672475 1_455
Tb1_0 Tb1_6 3.672476 1_555
Tb1_0 Tb1_6 3.672476 1_445
Tb1_0 Tb1_2 3.672476 1_545
Tb1_0 Tb1_2 3.672476 1_555
Tb1_1 Tb1_5 3.672475 1_555
Tb1_1 Tb1_5 3.672475 1_455
Tb1_1 Tb1_7 3.672476 1_555
Tb1_1 Tb1_7 3.672476 1_445
Tb1_1 Tb1_3 3.672476 1_545
Tb1_1 Tb1_3 3.672476 1_555
Tb1_2 Tb1_6 3.672475 1_555
Tb1_2 Tb1_6 3.672475 1_455
Tb1_2 Tb1_4 3.672476 1_565
Tb1_2 Tb1_4 3.672476 1_455
Tb1_3 Tb1_7 3.672475 1_555
Tb1_3 Tb1_7 3.672475 1_455
Tb1_3 Tb1_5 3.672476 1_565
Tb1_3 Tb1_5 3.672476 1_455
Tb1_4 Tb1_6 3.672476 1_555
Tb1_4 Tb1_6 3.672476 1_545
Tb1_5 Tb1_7 3.672476 1_555
Tb1_5 Tb1_7 3.672476 1_545
