# generated using pymatgen
data_Li6V3P8O29
_symmetry_space_group_name_H-M   'P 1'
_cell_length_a   9.80243100
_cell_length_b   9.85761736
_cell_length_c   13.99941382
_cell_angle_alpha   89.94313818
_cell_angle_beta   90.49963826
_cell_angle_gamma   119.77631752
_symmetry_Int_Tables_number   1
_chemical_formula_structural   Li6V3P8O29
_chemical_formula_sum   'Li12 V6 P16 O58'
_cell_volume   1174.08892179
_cell_formula_units_Z   2
loop_
 _symmetry_equiv_pos_site_id
 _symmetry_equiv_pos_as_xyz
  1  'x, y, z'
loop_
 _atom_site_type_symbol
 _atom_site_label
 _atom_site_symmetry_multiplicity
 _atom_site_fract_x
 _atom_site_fract_y
 _atom_site_fract_z
 _atom_site_occupancy
  Li  Li0  1  0.31793000  0.22618000  0.44106500  1
  Li  Li1  1  0.76971500  0.09204800  0.43590500  1
  Li  Li2  1  0.65684700  0.32633500  0.11354600  1
  Li  Li3  1  0.90532600  0.23137000  0.94128300  1
  Li  Li4  1  0.77002000  0.67610300  0.94146800  1
  Li  Li5  1  0.09071600  0.31864200  0.56018000  1
  Li  Li6  1  0.90754800  0.67777200  0.43453200  1
  Li  Li7  1  0.23034400  0.32278700  0.06189900  1
  Li  Li8  1  0.34075000  0.68075100  0.89096900  1
  Li  Li9  1  0.22890700  0.90757400  0.56068100  1
  Li  Li10  1  0.68315800  0.77450500  0.55620000  1
  Li  Li11  1  0.01775000  0.96485900  0.00616700  1
  V  V0  1  0.99577600  0.43184100  0.74824100  1
  V  V1  1  0.00456900  0.57120100  0.24946700  1
  V  V2  1  0.43481900  0.43567000  0.24953300  1
  V  V3  1  0.56630700  0.56585300  0.75214100  1
  V  V4  1  0.43197000  0.00292300  0.75503900  1
  V  V5  1  0.56493400  0.99639100  0.24359500  1
  P  P0  1  0.30554800  0.08650800  0.15561500  1
  P  P1  1  0.31980200  0.23246000  0.66063100  1
  P  P2  1  0.76290400  0.08305300  0.65741300  1
  P  P3  1  0.66580700  0.33416200  0.87323900  1
  P  P4  1  0.66902400  0.33415400  0.37085600  1
  P  P5  1  0.90839200  0.22819800  0.15903200  1
  P  P6  1  0.08671200  0.31811100  0.34281400  1
  P  P7  1  0.77439900  0.68299200  0.15766000  1
  P  P8  1  0.22663900  0.31903700  0.84300100  1
  P  P9  1  0.91336800  0.68250600  0.65487400  1
  P  P10  1  0.08857000  0.77545300  0.83993000  1
  P  P11  1  0.33201700  0.66558300  0.62974400  1
  P  P12  1  0.33364900  0.66499000  0.12797500  1
  P  P13  1  0.23563300  0.91692100  0.34150500  1
  P  P14  1  0.68017300  0.76933000  0.33969400  1
  P  P15  1  0.69225500  0.91416300  0.84316400  1
  O  O0  1  0.24737900  0.00198700  0.43322800  1
  O  O1  1  0.33127400  0.08138700  0.66200500  1
  O  O2  1  0.22007900  0.23721000  0.93366000  1
  O  O3  1  0.33313000  0.25551600  0.15869800  1
  O  O4  1  0.47031500  0.09961200  0.16569300  1
  O  O5  1  0.51731800  0.19316900  0.83065500  1
  O  O6  1  0.61357300  0.09160900  0.68024200  1
  O  O7  1  0.79526200  0.01249900  0.92309200  1
  O  O8  1  0.74231700  0.08347500  0.16067200  1
  O  O9  1  0.51787100  0.33505900  0.32575000  1
  O  O10  1  0.48046300  0.37868000  0.67783000  1
  O  O11  1  0.67046200  0.18738000  0.32842500  1
  O  O12  1  0.67104100  0.34346100  0.98036500  1
  O  O13  1  0.65904500  0.33021600  0.47711500  1
  O  O14  1  0.81359600  0.33046400  0.83554400  1
  O  O15  1  0.62500400  0.51974100  0.16788400  1
  O  O16  1  0.67014200  0.48879600  0.83367400  1
  O  O17  1  0.91029200  0.24859200  0.65904300  1
  O  O18  1  0.99791400  0.20957900  0.25108600  1
  O  O19  1  0.99648700  0.24122500  0.43190700  1
  O  O20  1  0.99877400  0.23249300  0.07140400  1
  O  O21  1  0.89024000  0.37394500  0.17135700  1
  O  O22  1  0.81655700  0.48804900  0.33470500  1
  O  O23  1  0.07882000  0.34071000  0.83563700  1
  O  O24  1  0.90252200  0.52292300  0.67841200  1
  O  O25  1  0.74936000  0.66591200  0.65672900  1
  O  O26  1  0.20969200  0.21384800  0.75119800  1
  O  O27  1  0.24099600  0.24323400  0.57051200  1
  O  O28  1  0.76031100  0.75835400  0.42935400  1
  O  O29  1  0.25152100  0.33608700  0.34381300  1
  O  O30  1  0.09339500  0.47526800  0.32317000  1
  O  O31  1  0.91784500  0.65739800  0.16765800  1
  O  O32  1  0.18312400  0.51143200  0.66689500  1
  O  O33  1  0.10037100  0.62517500  0.83160600  1
  O  O34  1  0.99537000  0.78509900  0.92073300  1
  O  O35  1  0.00069500  0.75087100  0.56397700  1
  O  O36  1  0.01102000  0.79538800  0.74194000  1
  O  O37  1  0.08891100  0.75167200  0.34057800  1
  O  O38  1  0.33384200  0.51252100  0.16795200  1
  O  O39  1  0.37420700  0.48294300  0.83086100  1
  O  O40  1  0.18939700  0.66500600  0.17090600  1
  O  O41  1  0.32955300  0.65174500  0.02124200  1
  O  O42  1  0.34183200  0.66512100  0.52370600  1
  O  O43  1  0.32749300  0.81163300  0.66992700  1
  O  O44  1  0.51961100  0.62304000  0.32356800  1
  O  O45  1  0.48292100  0.66611100  0.67606000  1
  O  O46  1  0.25911800  0.91500400  0.83798000  1
  O  O47  1  0.21345200  0.00979600  0.25488800  1
  O  O48  1  0.20334200  0.99735400  0.07388700  1
  O  O49  1  0.38591000  0.90871600  0.32143700  1
  O  O50  1  0.48362900  0.80975000  0.16787400  1
  O  O51  1  0.52692100  0.89827600  0.83353300  1
  O  O52  1  0.66976500  0.74749600  0.84402500  1
  O  O53  1  0.78423500  0.76783800  0.06729800  1
  O  O54  1  0.78933000  0.78818100  0.24891800  1
  O  O55  1  0.66802600  0.91967200  0.33818300  1
  O  O56  1  0.74936100  0.99882200  0.56533800  1
  O  O57  1  0.78445000  0.98800400  0.74321500  1
loop_
_geom_bond_atom_site_label_1
_geom_bond_atom_site_label_2
_geom_bond_distance
_geom_bond_site_symmetry_2
Li0 O0 1.963561 1_555
Li0 O27 2.007823 1_555
Li0 O29 2.033047 1_555
Li0 O9 2.358331 1_555
Li1 O19 1.965253 1_555
Li1 O56 1.997129 1_545
Li1 O55 2.012717 1_545
Li1 O11 2.230126 1_555
Li2 O12 1.872064 1_554
Li2 O4 2.198273 1_555
Li2 O15 2.215629 1_555
Li2 O21 2.238612 1_555
Li3 O7 1.888959 1_555
Li3 O20 2.029376 1_556
Li3 O23 2.112214 1_655
Li3 O14 2.190952 1_555
Li4 O34 1.942030 1_555
Li4 O53 1.952928 1_556
Li4 O52 1.995899 1_555
Li4 O16 2.197557 1_555
Li5 O27 1.956327 1_555
Li5 O19 1.983416 1_455
Li5 O17 2.085203 1_455
Li5 O32 2.221783 1_555
Li6 O28 1.963686 1_555
Li6 O35 1.989241 1_655
Li6 O37 2.042994 1_655
Li6 O22 2.138445 1_555
Li7 O2 1.964766 1_554
Li7 O3 1.982247 1_555
Li7 O20 1.990198 1_455
Li7 O38 2.196872 1_555
Li8 O41 1.841504 1_556
Li8 O51 2.170329 1_555
Li8 O33 2.286377 1_555
Li8 O39 2.293697 1_555
Li9 O0 1.979276 1_565
Li9 O35 1.990493 1_555
Li9 O1 2.055969 1_565
Li9 O43 2.246433 1_555
Li10 O28 1.973386 1_555
Li10 O56 1.975068 1_555
Li10 O25 2.053948 1_555
Li10 O45 2.404312 1_555
Li11 O48 1.924263 1_555
Li11 O34 2.057214 1_454
Li11 O53 2.315014 1_455
O0 P13 1.506291 1_545
O1 P1 1.548235 1_555
O1 V4 2.000682 1_555
O2 P8 1.487764 1_555
O3 P0 1.550200 1_555
O3 V2 1.997149 1_555
O4 P0 1.560140 1_555
O4 V5 2.000615 1_545
O5 P3 1.543673 1_555
O5 V4 1.941053 1_555
O6 P2 1.543639 1_555
O6 V4 1.874735 1_555
O7 P15 1.490477 1_545
O8 P5 1.542666 1_555
O8 V5 1.912748 1_545
O9 P4 1.609644 1_555
O9 V2 1.889338 1_555
O10 P1 1.534672 1_555
O10 V3 1.908169 1_555
O11 P4 1.571148 1_555
O11 V5 2.018315 1_545
O12 P3 1.501465 1_555
O13 P4 1.490830 1_555
O14 P3 1.563437 1_555
O14 V0 1.986109 1_555
O15 P7 1.554760 1_555
O15 V2 1.992389 1_555
O16 P3 1.602047 1_555
O16 V3 1.913566 1_555
O17 P2 1.551954 1_555
O17 V0 2.001834 1_555
O18 P5 1.613779 1_555
O18 P6 1.615417 1_655
O19 P6 1.504611 1_655
O20 P5 1.507717 1_555
O21 P5 1.542896 1_555
O21 V1 2.012736 1_655
O22 P4 1.575169 1_555
O22 V1 2.007073 1_655
O23 P8 1.568647 1_555
O23 V0 1.916602 1_455
O24 P9 1.558211 1_555
O24 V0 1.842617 1_555
O25 P9 1.533486 1_555
O25 V3 2.063504 1_555
O26 P8 1.606962 1_555
O26 P1 1.622621 1_555
O27 P1 1.504631 1_555
O28 P14 1.507063 1_555
O29 P6 1.535189 1_555
O29 V2 2.054503 1_555
O30 P6 1.542267 1_555
O30 V1 1.875437 1_555
O31 P7 1.552182 1_555
O31 V1 1.858725 1_655
O32 P11 1.587012 1_555
O32 V0 1.971961 1_455
O33 P10 1.546686 1_555
O33 V0 2.021914 1_455
O34 P10 1.492582 1_655
O35 P9 1.500171 1_455
O36 P9 1.601419 1_455
O36 P10 1.621105 1_555
O37 P13 1.547562 1_555
O37 V1 2.000144 1_555
O38 P12 1.604152 1_555
O38 V2 1.892448 1_555
O39 P8 1.553789 1_555
O39 V3 1.983465 1_555
O40 P12 1.541333 1_555
O40 V1 1.927660 1_555
O41 P12 1.498474 1_555
O42 P11 1.488579 1_555
O43 P11 1.567362 1_555
O43 V4 2.022219 1_565
O44 P14 1.532263 1_555
O44 V2 1.908018 1_555
O45 P11 1.607541 1_555
O45 V3 1.887953 1_555
O46 P10 1.550649 1_555
O46 V4 1.882555 1_565
O47 P13 1.595852 1_545
O47 P0 1.630954 1_555
O48 P0 1.480760 1_565
O49 P13 1.543060 1_555
O49 V5 1.881260 1_555
O50 P12 1.553458 1_555
O50 V5 1.917453 1_555
O51 P15 1.553522 1_555
O51 V4 2.017795 1_565
O52 P15 1.545399 1_555
O52 V3 2.016795 1_555
O53 P7 1.492991 1_555
O54 P7 1.605428 1_555
O54 P14 1.618690 1_555
O55 P14 1.544718 1_555
O55 V5 2.019987 1_555
O56 P2 1.502737 1_565
O57 P2 1.598503 1_565
O57 P15 1.634340 1_555
