# generated using pymatgen
data_Na2Er2B2TeO10
_symmetry_space_group_name_H-M   'P 1'
_cell_length_a   9.97563500
_cell_length_b   6.34853000
_cell_length_c   6.75724419
_cell_angle_alpha   76.04281867
_cell_angle_beta   90.00000000
_cell_angle_gamma   90.00000000
_symmetry_Int_Tables_number   1
_chemical_formula_structural   Na2Er2B2TeO10
_chemical_formula_sum   'Na4 Er4 B4 Te2 O20'
_cell_volume   415.30604397
_cell_formula_units_Z   2
loop_
 _symmetry_equiv_pos_site_id
 _symmetry_equiv_pos_as_xyz
  1  'x, y, z'
loop_
 _atom_site_type_symbol
 _atom_site_label
 _atom_site_symmetry_multiplicity
 _atom_site_fract_x
 _atom_site_fract_y
 _atom_site_fract_z
 _atom_site_occupancy
  Na  Na0  1  0.61109800  0.41490200  0.16657600  1
  Na  Na1  1  0.11109800  0.58509800  0.33342400  1
  Na  Na2  1  0.38890200  0.58509800  0.83342400  1
  Na  Na3  1  0.88890200  0.41490200  0.66657600  1
  Er  Er0  1  0.83424400  0.87306600  0.02388300  1
  Er  Er1  1  0.33424400  0.12693400  0.47611700  1
  Er  Er2  1  0.16575600  0.12693400  0.97611700  1
  Er  Er3  1  0.66575600  0.87306600  0.52388300  1
  B  B0  1  0.40017600  0.66328400  0.37339400  1
  B  B1  1  0.90017600  0.33671600  0.12660600  1
  B  B2  1  0.59982400  0.33671600  0.62660600  1
  B  B3  1  0.09982400  0.66328400  0.87339400  1
  Te  Te0  1  0.50000000  0.00000000  0.00000000  1
  Te  Te1  1  0.00000000  0.00000000  0.50000000  1
  O  O0  1  0.82908500  0.52121200  0.05546200  1
  O  O1  1  0.32908500  0.47878800  0.44453800  1
  O  O2  1  0.17091500  0.47878800  0.94453800  1
  O  O3  1  0.67091500  0.52121200  0.55546200  1
  O  O4  1  0.65108400  0.00313800  0.17931300  1
  O  O5  1  0.15108400  0.99686200  0.32068700  1
  O  O6  1  0.34891600  0.99686200  0.82068700  1
  O  O7  1  0.84891600  0.00313800  0.67931300  1
  O  O8  1  0.43740200  0.70962000  0.16355000  1
  O  O9  1  0.93740200  0.29038000  0.33645000  1
  O  O10  1  0.56259800  0.29038000  0.83645000  1
  O  O11  1  0.06259800  0.70962000  0.66355000  1
  O  O12  1  0.93751500  0.19801100  0.00810400  1
  O  O13  1  0.43751500  0.80198900  0.49189600  1
  O  O14  1  0.06248500  0.80198900  0.99189600  1
  O  O15  1  0.56248500  0.19801100  0.50810400  1
  O  O16  1  0.38297600  0.16191500  0.13612400  1
  O  O17  1  0.88297600  0.83808500  0.36387600  1
  O  O18  1  0.61702400  0.83808500  0.86387600  1
  O  O19  1  0.11702400  0.16191500  0.63612400  1
loop_
_geom_bond_atom_site_label_1
_geom_bond_atom_site_label_2
_geom_bond_distance
_geom_bond_site_symmetry_2
Na0 O0 2.345954 1_555
Na0 O15 2.433953 1_555
Na0 O8 2.546576 1_555
Na0 O10 2.585714 1_554
Na0 O4 2.625163 1_555
Na0 O16 2.821338 1_555
Na0 O3 2.927872 1_555
Na0 O18 2.958741 1_554
Na1 O1 2.345954 1_555
Na1 O14 2.433953 1_554
Na1 O9 2.546576 1_455
Na1 O11 2.585714 1_555
Na1 O5 2.625163 1_555
Na1 O17 2.821338 1_455
Na1 O2 2.927872 1_554
Na1 O19 2.958741 1_555
Na2 O2 2.345954 1_555
Na2 O13 2.433953 1_555
Na2 O10 2.546576 1_555
Na2 O8 2.585714 1_556
Na2 O6 2.625163 1_555
Na2 O18 2.821338 1_555
Na2 O1 2.927872 1_555
Na2 O16 2.958741 1_556
Na3 O3 2.345954 1_555
Na3 O12 2.433953 1_556
Na3 O11 2.546576 1_655
Na3 O9 2.585714 1_555
Na3 O7 2.625163 1_555
Na3 O19 2.821338 1_655
Na3 O0 2.927872 1_556
Na3 O17 2.958741 1_555
Er0 O0 2.192695 1_555
Er0 O7 2.279696 1_564
Er0 O12 2.285217 1_565
Er0 O17 2.306001 1_555
Er0 O14 2.341243 1_654
Er0 O4 2.354098 1_565
Er0 O18 2.455533 1_554
Er1 O1 2.192695 1_555
Er1 O6 2.279696 1_545
Er1 O13 2.285217 1_545
Er1 O16 2.306001 1_555
Er1 O15 2.341243 1_555
Er1 O5 2.354098 1_545
Er1 O19 2.455533 1_555
Er2 O2 2.192695 1_555
Er2 O5 2.279696 1_546
Er2 O14 2.285217 1_545
Er2 O19 2.306001 1_555
Er2 O12 2.341243 1_456
Er2 O6 2.354098 1_545
Er2 O16 2.455533 1_556
Er3 O3 2.192695 1_555
Er3 O4 2.279696 1_565
Er3 O15 2.285217 1_565
Er3 O18 2.306001 1_555
Er3 O13 2.341243 1_555
Er3 O7 2.354098 1_565
Er3 O17 2.455533 1_555
B0 O1 1.354367 1_555
B0 O13 1.376768 1_555
B0 O8 1.426132 1_555
B1 O0 1.354367 1_555
B1 O12 1.376768 1_555
B1 O9 1.426132 1_555
B2 O3 1.354367 1_555
B2 O15 1.376768 1_555
B2 O10 1.426132 1_555
B3 O2 1.354367 1_555
B3 O14 1.376768 1_555
B3 O11 1.426132 1_555
O4 Te0 1.936929 1_555
O5 Te1 1.936929 1_565
O6 Te0 1.936929 1_566
O7 Te1 1.936929 1_655
O8 Te0 2.006725 1_565
O9 Te1 2.006725 1_655
O10 Te0 2.006725 1_556
O11 Te1 2.006725 1_565
O16 Te0 1.929145 1_555
O17 Te1 1.929145 1_665
O18 Te0 1.929145 1_566
O19 Te1 1.929145 1_555
