# generated using pymatgen
data_Mg2Sn
_symmetry_space_group_name_H-M   'P 1'
_cell_length_a   12.08369781
_cell_length_b   12.08369781
_cell_length_c   15.58290075
_cell_angle_alpha   72.54403508
_cell_angle_beta   72.54403508
_cell_angle_gamma   31.84204288
_symmetry_Int_Tables_number   1
_chemical_formula_structural   Mg2Sn
_chemical_formula_sum   'Mg32 Sn16'
_cell_volume   1140.52847514
_cell_formula_units_Z   16
loop_
 _symmetry_equiv_pos_site_id
 _symmetry_equiv_pos_as_xyz
  1  'x, y, z'
loop_
 _atom_site_type_symbol
 _atom_site_label
 _atom_site_symmetry_multiplicity
 _atom_site_fract_x
 _atom_site_fract_y
 _atom_site_fract_z
 _atom_site_occupancy
  Mg  Mg0_0  1  0.40694100  0.40694100  0.06696000  1
  Mg  Mg0_1  1  0.40694100  0.40694100  0.56696000  1
  Mg  Mg0_2  1  0.40694100  0.90694100  0.06696000  1
  Mg  Mg0_3  1  0.40694100  0.90694100  0.56696000  1
  Mg  Mg0_4  1  0.90694100  0.40694100  0.06696000  1
  Mg  Mg0_5  1  0.90694100  0.40694100  0.56696000  1
  Mg  Mg0_6  1  0.90694100  0.90694100  0.06696000  1
  Mg  Mg0_7  1  0.90694100  0.90694100  0.56696000  1
  Mg  Mg1_0  1  0.07107150  0.07107150  0.23746650  1
  Mg  Mg1_1  1  0.07107150  0.07107150  0.73746650  1
  Mg  Mg1_2  1  0.07107150  0.57107150  0.23746650  1
  Mg  Mg1_3  1  0.07107150  0.57107150  0.73746650  1
  Mg  Mg1_4  1  0.57107150  0.07107150  0.23746650  1
  Mg  Mg1_5  1  0.57107150  0.07107150  0.73746650  1
  Mg  Mg1_6  1  0.57107150  0.57107150  0.23746650  1
  Mg  Mg1_7  1  0.57107150  0.57107150  0.73746650  1
  Mg  Mg2_0  1  0.42892850  0.42892850  0.26253350  1
  Mg  Mg2_1  1  0.42892850  0.42892850  0.76253350  1
  Mg  Mg2_2  1  0.42892850  0.92892850  0.26253350  1
  Mg  Mg2_3  1  0.42892850  0.92892850  0.76253350  1
  Mg  Mg2_4  1  0.92892850  0.42892850  0.26253350  1
  Mg  Mg2_5  1  0.92892850  0.42892850  0.76253350  1
  Mg  Mg2_6  1  0.92892850  0.92892850  0.26253350  1
  Mg  Mg2_7  1  0.92892850  0.92892850  0.76253350  1
  Mg  Mg3_0  1  0.09305900  0.09305900  0.43304000  1
  Mg  Mg3_1  1  0.09305900  0.09305900  0.93304000  1
  Mg  Mg3_2  1  0.09305900  0.59305900  0.43304000  1
  Mg  Mg3_3  1  0.09305900  0.59305900  0.93304000  1
  Mg  Mg3_4  1  0.59305900  0.09305900  0.43304000  1
  Mg  Mg3_5  1  0.59305900  0.09305900  0.93304000  1
  Mg  Mg3_6  1  0.59305900  0.59305900  0.43304000  1
  Mg  Mg3_7  1  0.59305900  0.59305900  0.93304000  1
  Sn  Sn0_0  1  0.26809250  0.26809250  0.10046650  1
  Sn  Sn0_1  1  0.26809250  0.26809250  0.60046650  1
  Sn  Sn0_2  1  0.26809250  0.76809250  0.10046650  1
  Sn  Sn0_3  1  0.26809250  0.76809250  0.60046650  1
  Sn  Sn0_4  1  0.76809250  0.26809250  0.10046650  1
  Sn  Sn0_5  1  0.76809250  0.26809250  0.60046650  1
  Sn  Sn0_6  1  0.76809250  0.76809250  0.10046650  1
  Sn  Sn0_7  1  0.76809250  0.76809250  0.60046650  1
  Sn  Sn1_0  1  0.23190750  0.23190750  0.39953350  1
  Sn  Sn1_1  1  0.23190750  0.23190750  0.89953350  1
  Sn  Sn1_2  1  0.23190750  0.73190750  0.39953350  1
  Sn  Sn1_3  1  0.23190750  0.73190750  0.89953350  1
  Sn  Sn1_4  1  0.73190750  0.23190750  0.39953350  1
  Sn  Sn1_5  1  0.73190750  0.23190750  0.89953350  1
  Sn  Sn1_6  1  0.73190750  0.73190750  0.39953350  1
  Sn  Sn1_7  1  0.73190750  0.73190750  0.89953350  1
loop_
_geom_bond_atom_site_label_1
_geom_bond_atom_site_label_2
_geom_bond_distance
_geom_bond_site_symmetry_2
Mg0_0 Sn0_0 3.103915 1_555
Mg0_0 Sn1_5 3.123017 1_554
Mg0_0 Sn1_3 3.123017 1_554
Mg0_0 Mg1_4 3.237426 1_555
Mg0_0 Mg1_2 3.237426 1_555
Mg0_0 Mg2_0 3.243543 1_555
Mg0_0 Sn0_4 3.245584 1_555
Mg0_0 Sn0_2 3.245584 1_555
Mg0_1 Sn0_1 3.103915 1_555
Mg0_1 Sn1_4 3.123017 1_555
Mg0_1 Sn1_2 3.123017 1_555
Mg0_1 Mg1_3 3.237426 1_555
Mg0_1 Mg1_5 3.237426 1_555
Mg0_1 Mg2_1 3.243543 1_555
Mg0_1 Sn0_3 3.245584 1_555
Mg0_1 Sn0_5 3.245584 1_555
Mg0_2 Sn0_2 3.103915 1_555
Mg0_2 Sn1_7 3.123017 1_554
Mg0_2 Sn1_1 3.123017 1_564
Mg0_2 Mg1_6 3.237426 1_555
Mg0_2 Mg1_0 3.237426 1_565
Mg0_2 Mg2_2 3.243543 1_555
Mg0_2 Sn0_0 3.245584 1_565
Mg0_2 Sn0_6 3.245584 1_555
Mg0_3 Sn0_3 3.103915 1_555
Mg0_3 Sn1_0 3.123017 1_565
Mg0_3 Sn1_6 3.123017 1_555
Mg0_3 Mg1_7 3.237426 1_555
Mg0_3 Mg1_1 3.237426 1_565
Mg0_3 Mg2_3 3.243543 1_555
Mg0_3 Sn0_1 3.245584 1_565
Mg0_3 Sn0_7 3.245584 1_555
Mg0_4 Sn0_4 3.103915 1_555
Mg0_4 Sn1_7 3.123017 1_554
Mg0_4 Sn1_1 3.123017 1_654
Mg0_4 Mg1_6 3.237426 1_555
Mg0_4 Mg1_0 3.237426 1_655
Mg0_4 Mg2_4 3.243543 1_555
Mg0_4 Sn0_0 3.245584 1_655
Mg0_4 Sn0_6 3.245584 1_555
Mg0_5 Sn0_5 3.103915 1_555
Mg0_5 Sn1_0 3.123017 1_655
Mg0_5 Sn1_6 3.123017 1_555
Mg0_5 Mg1_7 3.237426 1_555
Mg0_5 Mg1_1 3.237426 1_655
Mg0_5 Mg2_5 3.243543 1_555
Mg0_5 Sn0_1 3.245584 1_655
Mg0_5 Sn0_7 3.245584 1_555
Mg0_6 Sn0_6 3.103915 1_555
Mg0_6 Sn1_3 3.123017 1_654
Mg0_6 Sn1_5 3.123017 1_564
Mg0_6 Mg1_2 3.237426 1_655
Mg0_6 Mg1_4 3.237426 1_565
Mg0_6 Mg2_6 3.243543 1_555
Mg0_6 Sn0_2 3.245584 1_655
Mg0_6 Sn0_4 3.245584 1_565
Mg0_7 Sn0_7 3.103915 1_555
Mg0_7 Sn1_4 3.123017 1_565
Mg0_7 Sn1_2 3.123017 1_655
Mg0_7 Mg1_5 3.237426 1_565
Mg0_7 Mg1_3 3.237426 1_655
Mg0_7 Mg2_7 3.243543 1_555
Mg0_7 Sn0_3 3.245584 1_655
Mg0_7 Sn0_5 3.245584 1_565
Mg1_0 Mg2_4 3.129452 1_455
Mg1_0 Mg2_2 3.129452 1_545
Mg1_0 Sn1_2 3.186523 1_545
Mg1_0 Sn1_4 3.186523 1_455
Mg1_0 Mg2_6 3.203177 1_445
Mg1_0 Sn0_4 3.234238 1_455
Mg1_0 Sn0_2 3.234238 1_545
Mg1_0 Mg3_0 3.243543 1_555
Mg1_0 Mg1_6 3.314704 1_455
Mg1_0 Mg1_6 3.314704 1_545
Mg1_1 Mg2_5 3.129452 1_455
Mg1_1 Mg2_3 3.129452 1_545
Mg1_1 Sn1_5 3.186523 1_455
Mg1_1 Sn1_3 3.186523 1_545
Mg1_1 Mg2_7 3.203177 1_445
Mg1_1 Sn0_3 3.234238 1_545
Mg1_1 Sn0_5 3.234238 1_455
Mg1_1 Mg3_1 3.243543 1_555
Mg1_1 Mg1_7 3.314704 1_455
Mg1_1 Mg1_7 3.314704 1_545
Mg1_2 Mg2_0 3.129452 1_555
Mg1_2 Mg2_6 3.129452 1_455
Mg1_2 Sn1_6 3.186523 1_455
Mg1_2 Sn1_0 3.186523 1_555
Mg1_2 Mg2_4 3.203177 1_455
Mg1_2 Sn0_6 3.234238 1_455
Mg1_2 Sn0_0 3.234238 1_555
Mg1_2 Mg3_2 3.243543 1_555
Mg1_2 Mg1_4 3.314704 1_555
Mg1_2 Mg1_4 3.314704 1_465
Mg1_3 Mg2_1 3.129452 1_555
Mg1_3 Mg2_7 3.129452 1_455
Mg1_3 Sn1_7 3.186523 1_455
Mg1_3 Sn1_1 3.186523 1_555
Mg1_3 Mg2_5 3.203177 1_455
Mg1_3 Sn0_7 3.234238 1_455
Mg1_3 Sn0_1 3.234238 1_555
Mg1_3 Mg3_3 3.243543 1_555
Mg1_3 Mg1_5 3.314704 1_465
Mg1_3 Mg1_5 3.314704 1_555
Mg1_4 Mg2_0 3.129452 1_555
Mg1_4 Mg2_6 3.129452 1_545
Mg1_4 Sn1_6 3.186523 1_545
Mg1_4 Sn1_0 3.186523 1_555
Mg1_4 Mg2_2 3.203177 1_545
Mg1_4 Sn0_6 3.234238 1_545
Mg1_4 Sn0_0 3.234238 1_555
Mg1_4 Mg3_4 3.243543 1_555
Mg1_5 Mg2_1 3.129452 1_555
Mg1_5 Mg2_7 3.129452 1_545
Mg1_5 Sn1_7 3.186523 1_545
Mg1_5 Sn1_1 3.186523 1_555
Mg1_5 Mg2_3 3.203177 1_545
Mg1_5 Sn0_7 3.234238 1_545
Mg1_5 Sn0_1 3.234238 1_555
Mg1_5 Mg3_5 3.243543 1_555
Mg1_6 Mg2_2 3.129452 1_555
Mg1_6 Mg2_4 3.129452 1_555
Mg1_6 Sn1_2 3.186523 1_555
Mg1_6 Sn1_4 3.186523 1_555
Mg1_6 Mg2_0 3.203177 1_555
Mg1_6 Sn0_4 3.234238 1_555
Mg1_6 Sn0_2 3.234238 1_555
Mg1_6 Mg3_6 3.243543 1_555
Mg1_7 Mg2_5 3.129452 1_555
Mg1_7 Mg2_3 3.129452 1_555
Mg1_7 Sn1_3 3.186523 1_555
Mg1_7 Sn1_5 3.186523 1_555
Mg1_7 Mg2_1 3.203177 1_555
Mg1_7 Sn0_5 3.234238 1_555
Mg1_7 Sn0_3 3.234238 1_555
Mg1_7 Mg3_7 3.243543 1_555
Mg2_0 Sn0_2 3.186523 1_555
Mg2_0 Sn0_4 3.186523 1_555
Mg2_0 Sn1_4 3.234238 1_555
Mg2_0 Sn1_2 3.234238 1_555
Mg2_0 Mg3_2 3.237426 1_555
Mg2_0 Mg3_4 3.237426 1_555
Mg2_0 Mg2_6 3.314704 1_455
Mg2_0 Mg2_6 3.314704 1_545
Mg2_1 Sn0_3 3.186523 1_555
Mg2_1 Sn0_5 3.186523 1_555
Mg2_1 Sn1_5 3.234238 1_555
Mg2_1 Sn1_3 3.234238 1_555
Mg2_1 Mg3_5 3.237426 1_555
Mg2_1 Mg3_3 3.237426 1_555
Mg2_1 Mg2_7 3.314704 1_455
Mg2_1 Mg2_7 3.314704 1_545
Mg2_2 Sn0_0 3.186523 1_565
Mg2_2 Sn0_6 3.186523 1_555
Mg2_2 Sn1_0 3.234238 1_565
Mg2_2 Sn1_6 3.234238 1_555
Mg2_2 Mg3_6 3.237426 1_555
Mg2_2 Mg3_0 3.237426 1_565
Mg2_2 Mg2_4 3.314704 1_465
Mg2_2 Mg2_4 3.314704 1_555
Mg2_3 Sn0_1 3.186523 1_565
Mg2_3 Sn0_7 3.186523 1_555
Mg2_3 Sn1_7 3.234238 1_555
Mg2_3 Sn1_1 3.234238 1_565
Mg2_3 Mg3_7 3.237426 1_555
Mg2_3 Mg3_1 3.237426 1_565
Mg2_3 Mg2_5 3.314704 1_465
Mg2_3 Mg2_5 3.314704 1_555
Mg2_4 Sn0_0 3.186523 1_655
Mg2_4 Sn0_6 3.186523 1_555
Mg2_4 Sn1_0 3.234238 1_655
Mg2_4 Sn1_6 3.234238 1_555
Mg2_4 Mg3_6 3.237426 1_555
Mg2_4 Mg3_0 3.237426 1_655
Mg2_5 Sn0_1 3.186523 1_655
Mg2_5 Sn0_7 3.186523 1_555
Mg2_5 Sn1_7 3.234238 1_555
Mg2_5 Sn1_1 3.234238 1_655
Mg2_5 Mg3_7 3.237426 1_555
Mg2_5 Mg3_1 3.237426 1_655
Mg2_6 Sn0_4 3.186523 1_565
Mg2_6 Sn0_2 3.186523 1_655
Mg2_6 Sn1_4 3.234238 1_565
Mg2_6 Sn1_2 3.234238 1_655
Mg2_6 Mg3_4 3.237426 1_565
Mg2_6 Mg3_2 3.237426 1_655
Mg2_7 Sn0_5 3.186523 1_565
Mg2_7 Sn0_3 3.186523 1_655
Mg2_7 Sn1_5 3.234238 1_565
Mg2_7 Sn1_3 3.234238 1_655
Mg2_7 Mg3_5 3.237426 1_565
Mg2_7 Mg3_3 3.237426 1_655
Mg3_0 Sn1_0 3.103915 1_555
Mg3_0 Sn0_3 3.123017 1_545
Mg3_0 Sn0_5 3.123017 1_455
Mg3_0 Sn1_2 3.245584 1_545
Mg3_0 Sn1_4 3.245584 1_455
Mg3_1 Sn1_1 3.103915 1_555
Mg3_1 Sn0_4 3.123017 1_456
Mg3_1 Sn0_2 3.123017 1_546
Mg3_1 Sn1_3 3.245584 1_545
Mg3_1 Sn1_5 3.245584 1_455
Mg3_2 Sn1_2 3.103915 1_555
Mg3_2 Sn0_7 3.123017 1_455
Mg3_2 Sn0_1 3.123017 1_555
Mg3_2 Sn1_6 3.245584 1_455
Mg3_2 Sn1_0 3.245584 1_555
Mg3_3 Sn1_3 3.103915 1_555
Mg3_3 Sn0_6 3.123017 1_456
Mg3_3 Sn0_0 3.123017 1_556
Mg3_3 Sn1_7 3.245584 1_455
Mg3_3 Sn1_1 3.245584 1_555
Mg3_4 Sn1_4 3.103915 1_555
Mg3_4 Sn0_7 3.123017 1_545
Mg3_4 Sn0_1 3.123017 1_555
Mg3_4 Sn1_6 3.245584 1_545
Mg3_4 Sn1_0 3.245584 1_555
Mg3_5 Sn1_5 3.103915 1_555
Mg3_5 Sn0_6 3.123017 1_546
Mg3_5 Sn0_0 3.123017 1_556
Mg3_5 Sn1_1 3.245584 1_555
Mg3_5 Sn1_7 3.245584 1_545
Mg3_6 Sn1_6 3.103915 1_555
Mg3_6 Sn0_5 3.123017 1_555
Mg3_6 Sn0_3 3.123017 1_555
Mg3_6 Sn1_2 3.245584 1_555
Mg3_6 Sn1_4 3.245584 1_555
Mg3_7 Sn1_7 3.103915 1_555
Mg3_7 Sn0_4 3.123017 1_556
Mg3_7 Sn0_2 3.123017 1_556
Mg3_7 Sn1_3 3.245584 1_555
Mg3_7 Sn1_5 3.245584 1_555
