# generated using pymatgen
data_HoV2O2
_symmetry_space_group_name_H-M   'P 1'
_cell_length_a   7.66881794
_cell_length_b   7.66881794
_cell_length_c   7.66881794
_cell_angle_alpha   114.32885470
_cell_angle_beta   114.32885470
_cell_angle_gamma   100.13996557
_symmetry_Int_Tables_number   1
_chemical_formula_structural   HoV2O2
_chemical_formula_sum   'Ho4 V8 O8'
_cell_volume   340.44492221
_cell_formula_units_Z   4
loop_
 _symmetry_equiv_pos_site_id
 _symmetry_equiv_pos_as_xyz
  1  'x, y, z'
loop_
 _atom_site_type_symbol
 _atom_site_label
 _atom_site_symmetry_multiplicity
 _atom_site_fract_x
 _atom_site_fract_y
 _atom_site_fract_z
 _atom_site_occupancy
  Ho  Ho0  1  0.87500000  0.12500000  0.25000000  1
  Ho  Ho1  1  0.87500000  0.62500000  0.75000000  1
  Ho  Ho2  1  0.37500000  0.12500000  0.25000000  1
  Ho  Ho3  1  0.87500000  0.12500000  0.75000000  1
  V  V0  1  0.51020900  0.30297100  0.79276200  1
  V  V1  1  0.51020900  0.71744700  0.20723800  1
  V  V2  1  0.46744700  0.76020900  0.70723800  1
  V  V3  1  0.23979100  0.53255300  0.29276200  1
  V  V4  1  0.23979100  0.94702900  0.70723800  1
  V  V5  1  0.05297100  0.76020900  0.29276200  1
  V  V6  1  0.28255300  0.48979100  0.79276200  1
  V  V7  1  0.69702900  0.48979100  0.20723800  1
  O  O0  1  0.65262700  0.30947000  0.65684300  1
  O  O1  1  0.65262700  0.99578500  0.34315700  1
  O  O2  1  0.74578500  0.90262700  0.84315700  1
  O  O3  1  0.09737300  0.25421500  0.15684300  1
  O  O4  1  0.09737300  0.94053000  0.84315700  1
  O  O5  1  0.05947000  0.90262700  0.15684300  1
  O  O6  1  0.00421500  0.34737300  0.65684300  1
  O  O7  1  0.69053000  0.34737300  0.34315700  1
loop_
_geom_bond_atom_site_label_1
_geom_bond_atom_site_label_2
_geom_bond_distance
_geom_bond_site_symmetry_2
Ho0 O1 2.322192 1_545
Ho0 O3 2.322192 1_655
Ho0 O5 2.469451 1_645
Ho0 O7 2.469451 1_555
Ho0 O6 2.469453 1_655
Ho0 O2 2.469453 1_544
Ho1 O4 2.322196 1_655
Ho1 O0 2.322196 1_555
Ho1 O2 2.469446 1_555
Ho1 O6 2.469446 1_655
Ho1 O7 2.469451 1_555
Ho1 O5 2.469451 1_656
Ho2 O5 2.322196 1_545
Ho2 O7 2.322196 1_555
Ho2 O1 2.469446 1_545
Ho2 O3 2.469446 1_555
Ho2 O0 2.469451 1_555
Ho2 O4 2.469451 1_544
Ho3 O2 2.322192 1_545
Ho3 O6 2.322192 1_655
Ho3 O4 2.469451 1_645
Ho3 O0 2.469451 1_555
Ho3 O3 2.469453 1_656
Ho3 O1 2.469453 1_545
O0 V0 1.800955 1_555
O1 V1 1.800961 1_555
O2 V2 1.800961 1_555
O3 V3 1.800961 1_555
O4 V4 1.800955 1_555
O5 V5 1.800955 1_555
O6 V6 1.800961 1_555
O7 V7 1.800955 1_555
