# generated using pymatgen
data_Ba3Ta2MnO9
_symmetry_space_group_name_H-M   'P 1'
_cell_length_a   9.33608587
_cell_length_b   9.33650409
_cell_length_c   11.77287100
_cell_angle_alpha   108.37478814
_cell_angle_beta   108.37570016
_cell_angle_gamma   66.18994210
_symmetry_Int_Tables_number   1
_chemical_formula_structural   Ba3Ta2MnO9
_chemical_formula_sum   'Ba12 Ta8 Mn4 O36'
_cell_volume   869.85550081
_cell_formula_units_Z   4
loop_
 _symmetry_equiv_pos_site_id
 _symmetry_equiv_pos_as_xyz
  1  'x, y, z'
loop_
 _atom_site_type_symbol
 _atom_site_label
 _atom_site_symmetry_multiplicity
 _atom_site_fract_x
 _atom_site_fract_y
 _atom_site_fract_z
 _atom_site_occupancy
  Ba  Ba0  1  0.00001400  0.00002100  0.49998500  1
  Ba  Ba1  1  0.50001000  0.50001400  0.74999300  1
  Ba  Ba2  1  0.99999400  0.99999100  0.00000000  1
  Ba  Ba3  1  0.49999600  0.49999900  0.24999500  1
  Ba  Ba4  1  0.33502900  0.00170000  0.33419600  1
  Ba  Ba5  1  0.83501000  0.50167100  0.58413900  1
  Ba  Ba6  1  0.33504600  0.00168200  0.83418200  1
  Ba  Ba7  1  0.83502300  0.50170200  0.08417500  1
  Ba  Ba8  1  0.16497200  0.49828000  0.41580400  1
  Ba  Ba9  1  0.66493700  0.99830400  0.66579800  1
  Ba  Ba10  1  0.16496700  0.49831500  0.91586000  1
  Ba  Ba11  1  0.66496000  0.99828300  0.16580600  1
  Ta  Ta0  1  0.58028500  0.24697800  0.45678600  1
  Ta  Ta1  1  0.08032000  0.74702000  0.70685900  1
  Ta  Ta2  1  0.58034100  0.24695200  0.95683000  1
  Ta  Ta3  1  0.08028300  0.74696500  0.20681500  1
  Ta  Ta4  1  0.91973600  0.25301700  0.29320000  1
  Ta  Ta5  1  0.41967100  0.75307400  0.54319700  1
  Ta  Ta6  1  0.91968000  0.25301800  0.79315400  1
  Ta  Ta7  1  0.41973000  0.75301400  0.04321700  1
  Mn  Mn0  1  0.25009900  0.25037300  0.62525500  1
  Mn  Mn1  1  0.75001400  0.74985500  0.87494000  1
  Mn  Mn2  1  0.25000900  0.24997600  0.12495700  1
  Mn  Mn3  1  0.75009500  0.74995400  0.37517000  1
  O  O0  1  0.99999200  0.99999400  0.24998700  1
  O  O1  1  0.49999700  0.49998700  0.49999000  1
  O  O2  1  0.99999500  0.99998400  0.74998800  1
  O  O3  1  0.49998700  0.49999100  0.99998400  1
  O  O4  1  0.74998500  0.24999100  0.37500000  1
  O  O5  1  0.24998300  0.74999200  0.62498200  1
  O  O6  1  0.74998800  0.24999200  0.87499900  1
  O  O7  1  0.24999500  0.74999900  0.12497600  1
  O  O8  1  0.24998600  0.74997400  0.37500300  1
  O  O9  1  0.75001600  0.25000900  0.62499000  1
  O  O10  1  0.24996500  0.74997700  0.87498300  1
  O  O11  1  0.74998800  0.25001500  0.12496400  1
  O  O12  1  0.42711700  0.25291700  0.30065600  1
  O  O13  1  0.92714300  0.75290700  0.55068700  1
  O  O14  1  0.42712400  0.25294400  0.80067800  1
  O  O15  1  0.92713400  0.75290300  0.05066800  1
  O  O16  1  0.07285900  0.24709600  0.44932300  1
  O  O17  1  0.57287200  0.74705600  0.69931700  1
  O  O18  1  0.07285300  0.24707600  0.94930200  1
  O  O19  1  0.57287500  0.74706800  0.19933000  1
  O  O20  1  0.66579100  0.01425800  0.42002900  1
  O  O21  1  0.16577100  0.51428300  0.67000400  1
  O  O22  1  0.66577900  0.01426500  0.92001300  1
  O  O23  1  0.16577400  0.51425300  0.16998900  1
  O  O24  1  0.83421600  0.48573700  0.32999300  1
  O  O25  1  0.33420400  0.98574500  0.57997400  1
  O  O26  1  0.83421700  0.48572400  0.82998600  1
  O  O27  1  0.33420100  0.98572900  0.07995600  1
  O  O28  1  0.42711500  0.25292800  0.53933300  1
  O  O29  1  0.92712000  0.75292100  0.78931700  1
  O  O30  1  0.42710400  0.25291200  0.03930900  1
  O  O31  1  0.92711800  0.75292800  0.28933800  1
  O  O32  1  0.07287400  0.24706000  0.21064400  1
  O  O33  1  0.57289100  0.74707400  0.46067000  1
  O  O34  1  0.07287400  0.24707800  0.71066800  1
  O  O35  1  0.57287700  0.74707500  0.96065700  1
loop_
_geom_bond_atom_site_label_1
_geom_bond_atom_site_label_2
_geom_bond_distance
_geom_bond_site_symmetry_2
Ba0 O16 2.920537 1_555
Ba0 O25 2.920620 1_545
Ba0 O34 2.920871 1_555
Ba0 O31 2.920950 1_445
Ba0 O20 2.921016 1_455
Ba0 O13 2.921280 1_445
Ba0 O0 2.943050 1_445
Ba0 O4 2.943072 1_455
Ba0 O8 2.943121 1_545
Ba0 O9 2.943236 1_455
Ba0 O5 2.943313 1_545
Ba0 O2 2.943418 1_445
Ba1 O17 2.920430 1_555
Ba1 O26 2.920734 1_555
Ba1 O35 2.920794 1_555
Ba1 O14 2.920872 1_555
Ba1 O28 2.920988 1_555
Ba1 O21 2.921072 1_555
Ba1 O1 2.943135 1_555
Ba1 O3 2.943247 1_555
Ba1 O5 2.943266 1_555
Ba1 O9 2.943321 1_555
Ba1 O10 2.943351 1_555
Ba1 O6 2.943351 1_555
Ba2 O32 2.920751 1_665
Ba2 O15 2.920776 1_555
Ba2 O27 2.920808 1_655
Ba2 O22 2.920847 1_564
Ba2 O18 2.920930 1_664
Ba2 O29 2.920983 1_554
Ba2 O0 2.943062 1_555
Ba2 O7 2.943066 1_655
Ba2 O11 2.943148 1_565
Ba2 O10 2.943224 1_654
Ba2 O6 2.943281 1_564
Ba2 O2 2.943341 1_554
Ba3 O19 2.920698 1_555
Ba3 O12 2.920789 1_555
Ba3 O24 2.920923 1_555
Ba3 O23 2.920962 1_555
Ba3 O33 2.921017 1_555
Ba3 O30 2.921147 1_555
Ba3 O1 2.943191 1_555
Ba3 O8 2.943286 1_555
Ba3 O4 2.943295 1_555
Ba3 O3 2.943297 1_554
Ba3 O11 2.943342 1_555
Ba3 O7 2.943366 1_555
Ba4 O25 2.946420 1_545
Ba4 O32 2.946700 1_555
Ba4 O16 2.946739 1_555
Ba4 O19 2.946941 1_545
Ba4 O33 2.946947 1_545
Ba4 O27 2.947220 1_545
Ba4 O20 2.970010 1_555
Ba4 O28 2.970036 1_555
Ba4 O12 2.970267 1_555
Ba4 O0 2.973582 1_445
Ba4 O8 2.973854 1_545
Ba4 O7 2.973862 1_545
Ba5 O24 2.946302 1_555
Ba5 O33 2.946352 1_555
Ba5 O16 2.946474 1_655
Ba5 O17 2.946797 1_555
Ba5 O34 2.947086 1_655
Ba5 O26 2.947105 1_555
Ba5 O21 2.970178 1_655
Ba5 O13 2.970218 1_555
Ba5 O29 2.970477 1_555
Ba5 O4 2.973238 1_555
Ba5 O9 2.973252 1_555
Ba5 O1 2.973303 1_555
Ba6 O27 2.946428 1_546
Ba6 O34 2.946745 1_555
Ba6 O35 2.946758 1_545
Ba6 O17 2.946805 1_545
Ba6 O18 2.946837 1_555
Ba6 O25 2.946890 1_545
Ba6 O22 2.969835 1_555
Ba6 O30 2.969900 1_556
Ba6 O14 2.970404 1_555
Ba6 O2 2.973682 1_445
Ba6 O5 2.973768 1_545
Ba6 O10 2.973859 1_545
Ba7 O35 2.946551 1_554
Ba7 O26 2.946664 1_554
Ba7 O19 2.946677 1_555
Ba7 O24 2.946868 1_555
Ba7 O18 2.946876 1_654
Ba7 O32 2.946988 1_655
Ba7 O23 2.969889 1_655
Ba7 O15 2.970081 1_555
Ba7 O31 2.970198 1_555
Ba7 O11 2.973356 1_555
Ba7 O3 2.973588 1_554
Ba7 O6 2.973662 1_554
Ba8 O28 2.946486 1_555
Ba8 O12 2.946611 1_555
Ba8 O21 2.946750 1_555
Ba8 O23 2.946844 1_555
Ba8 O13 2.946935 1_455
Ba8 O31 2.947014 1_455
Ba8 O24 2.969907 1_455
Ba8 O16 2.970009 1_555
Ba8 O32 2.970155 1_555
Ba8 O8 2.973363 1_555
Ba8 O1 2.973479 1_555
Ba8 O5 2.973613 1_555
Ba9 O20 2.946401 1_565
Ba9 O29 2.946737 1_555
Ba9 O28 2.946779 1_565
Ba9 O14 2.946868 1_565
Ba9 O13 2.946875 1_555
Ba9 O22 2.946912 1_565
Ba9 O25 2.969756 1_555
Ba9 O33 2.969866 1_555
Ba9 O17 2.970285 1_555
Ba9 O2 2.973689 1_555
Ba9 O6 2.973726 1_565
Ba9 O9 2.973887 1_565
Ba10 O23 2.946056 1_556
Ba10 O30 2.946301 1_556
Ba10 O15 2.946376 1_456
Ba10 O14 2.946898 1_555
Ba10 O29 2.947210 1_455
Ba10 O21 2.947316 1_555
Ba10 O26 2.970012 1_455
Ba10 O18 2.970074 1_555
Ba10 O34 2.970420 1_555
Ba10 O7 2.973137 1_556
Ba10 O3 2.973341 1_555
Ba10 O10 2.973427 1_555
Ba11 O31 2.946570 1_555
Ba11 O22 2.946669 1_564
Ba11 O15 2.946781 1_555
Ba11 O12 2.946833 1_565
Ba11 O20 2.947002 1_565
Ba11 O30 2.947092 1_565
Ba11 O27 2.969970 1_555
Ba11 O35 2.969971 1_554
Ba11 O19 2.970142 1_555
Ba11 O0 2.973553 1_555
Ba11 O4 2.973725 1_565
Ba11 O11 2.974021 1_565
Mn0 O21 2.201244 1_555
Mn0 O14 2.201361 1_555
Mn0 O28 2.203647 1_555
Mn0 O34 2.204394 1_555
Mn0 O16 2.206594 1_555
Mn0 O25 2.207314 1_545
Mn1 O26 2.203121 1_555
Mn1 O17 2.203546 1_555
Mn1 O35 2.203941 1_555
Mn1 O29 2.204135 1_555
Mn1 O15 2.204360 1_556
Mn1 O22 2.205458 1_565
Mn2 O30 2.203690 1_555
Mn2 O18 2.203888 1_554
Mn2 O12 2.204051 1_555
Mn2 O27 2.204097 1_545
Mn2 O32 2.204261 1_555
Mn2 O23 2.204341 1_555
Mn3 O13 2.202300 1_555
Mn3 O33 2.203150 1_555
Mn3 O24 2.203859 1_555
Mn3 O20 2.204556 1_565
Mn3 O31 2.204761 1_555
Mn3 O19 2.205680 1_555
O0 Ta4 2.110545 1_565
O0 Ta3 2.110588 1_655
O1 Ta0 2.110421 1_555
O1 Ta5 2.111069 1_555
O2 Ta1 2.110036 1_655
O2 Ta6 2.110626 1_565
O3 Ta7 2.110545 1_556
O3 Ta2 2.110660 1_555
O4 Ta0 2.110182 1_555
O4 Ta4 2.110781 1_555
O5 Ta5 2.110369 1_555
O5 Ta1 2.110442 1_555
O6 Ta2 2.110222 1_555
O6 Ta6 2.110655 1_555
O7 Ta7 2.110263 1_555
O7 Ta3 2.110808 1_555
O8 Ta5 2.110569 1_555
O8 Ta3 2.110579 1_555
O9 Ta6 2.110214 1_555
O9 Ta0 2.110835 1_555
O10 Ta1 2.109794 1_555
O10 Ta7 2.111229 1_556
O11 Ta2 2.109906 1_554
O11 Ta4 2.111165 1_555
O12 Ta0 1.941535 1_555
O13 Ta1 1.941915 1_655
O14 Ta2 1.941933 1_555
O15 Ta3 1.941604 1_655
O16 Ta4 1.941292 1_455
O17 Ta5 1.941604 1_555
O18 Ta6 1.941709 1_455
O19 Ta7 1.941301 1_555
O20 Ta0 1.941673 1_555
O21 Ta1 1.941798 1_555
O22 Ta2 1.941382 1_555
O23 Ta3 1.941603 1_555
O24 Ta4 1.941677 1_555
O25 Ta5 1.941258 1_555
O26 Ta6 1.941545 1_555
O27 Ta7 1.941638 1_555
O28 Ta0 1.941766 1_555
O29 Ta1 1.941451 1_655
O30 Ta2 1.941699 1_554
O31 Ta3 1.941469 1_655
O32 Ta4 1.941551 1_455
O33 Ta5 1.941809 1_555
O34 Ta6 1.941484 1_455
O35 Ta7 1.941731 1_556
