# generated using pymatgen
data_Mg4Si7
_symmetry_space_group_name_H-M   'P 1'
_cell_length_a   15.54985366
_cell_length_b   15.54985366
_cell_length_c   6.51444075
_cell_angle_alpha   86.28254252
_cell_angle_beta   86.28254252
_cell_angle_gamma   14.58702764
_symmetry_Int_Tables_number   1
_chemical_formula_structural   Mg4Si7
_chemical_formula_sum   'Mg8 Si14'
_cell_volume   395.86068013
_cell_formula_units_Z   2
loop_
 _symmetry_equiv_pos_site_id
 _symmetry_equiv_pos_as_xyz
  1  'x, y, z'
loop_
 _atom_site_type_symbol
 _atom_site_label
 _atom_site_symmetry_multiplicity
 _atom_site_fract_x
 _atom_site_fract_y
 _atom_site_fract_z
 _atom_site_occupancy
  Mg  Mg0  1  0.18602600  0.18602600  0.17299800  1
  Mg  Mg1  1  0.39218200  0.39218200  0.44497100  1
  Mg  Mg2  1  0.95901300  0.95901300  0.26877700  1
  Mg  Mg3  1  0.81788200  0.81788200  0.65321300  1
  Mg  Mg4  1  0.22584600  0.22584600  0.66100700  1
  Mg  Mg5  1  0.59759600  0.59759600  0.20925800  1
  Mg  Mg6  1  0.93371100  0.93371100  0.74633600  1
  Mg  Mg7  1  0.85424100  0.85424100  0.14294200  1
  Si  Si0  1  0.66640200  0.66640200  0.48880600  1
  Si  Si1  1  0.66427300  0.66427300  0.87064500  1
  Si  Si2  1  0.11611400  0.11611400  0.51396200  1
  Si  Si3  1  0.11531100  0.11531100  0.88790900  1
  Si  Si4  1  0.36682300  0.36682300  0.83562400  1
  Si  Si5  1  0.42558800  0.42558800  0.05103100  1
  Si  Si6  1  0.04012800  0.04012800  0.03296400  1
  Si  Si7  1  0.74299900  0.74299900  0.96846000  1
  Si  Si8  1  0.29988700  0.29988700  0.35825500  1
  Si  Si9  1  0.49547000  0.49547000  0.53872800  1
  Si  Si10  1  0.04053000  0.04053000  0.41516500  1
  Si  Si11  1  0.74598900  0.74598900  0.34596100  1
  Si  Si12  1  0.29284000  0.29284000  0.98532400  1
  Si  Si13  1  0.50176400  0.50176400  0.91126300  1
loop_
_geom_bond_atom_site_label_1
_geom_bond_atom_site_label_2
_geom_bond_distance
_geom_bond_site_symmetry_2
Mg0 Si0 2.886731 1_545
Mg0 Si0 2.886731 1_455
Mg0 Si1 2.898219 1_454
Mg0 Si1 2.898219 1_544
Mg0 Si7 2.907773 1_544
Mg0 Si7 2.907773 1_454
Mg0 Si3 2.955910 1_554
Mg0 Si11 2.976681 1_545
Mg0 Si11 2.976681 1_455
Mg0 Si2 2.993089 1_555
Mg1 Si4 2.613071 1_555
Mg1 Si5 2.702242 1_555
Mg1 Si8 2.938620 1_555
Mg2 Si5 2.676476 1_655
Mg2 Si5 2.676476 1_565
Mg2 Si10 2.747061 1_665
Mg2 Si6 2.849311 1_665
Mg2 Si9 2.917700 1_655
Mg2 Si9 2.917700 1_565
Mg3 Si4 2.796951 1_655
Mg3 Si4 2.796951 1_565
Mg3 Si8 2.834913 1_655
Mg3 Si8 2.834913 1_565
Mg3 Si7 2.988882 1_555
Mg3 Si12 2.992674 1_655
Mg3 Si12 2.992674 1_565
Mg3 Si11 3.083031 1_555
Mg4 Si7 2.885673 1_545
Mg4 Si7 2.885673 1_455
Mg4 Si11 2.885923 1_455
Mg4 Si11 2.885923 1_545
Mg4 Si8 2.918504 1_555
Mg4 Si0 2.964279 1_545
Mg4 Si0 2.964279 1_455
Mg4 Si1 3.005119 1_455
Mg4 Si1 3.005119 1_545
Mg4 Si12 3.050488 1_555
Mg5 Si2 2.883005 1_565
Mg5 Si2 2.883005 1_655
Mg5 Si0 2.885631 1_555
Mg5 Si3 2.903183 1_564
Mg5 Si3 2.903183 1_654
Mg5 Si10 2.913165 1_565
Mg5 Si10 2.913165 1_655
Mg5 Si1 2.916058 1_554
Mg5 Si6 2.936815 1_565
Mg5 Si6 2.936815 1_655
Mg6 Si5 2.799053 1_656
Mg6 Si5 2.799053 1_566
Mg6 Si4 2.887203 1_565
Mg6 Si4 2.887203 1_655
Mg6 Si9 3.003147 1_655
Mg6 Si9 3.003147 1_565
Mg6 Si13 3.123031 1_655
Mg6 Si13 3.123031 1_565
Mg7 Si4 2.820305 1_564
Mg7 Si4 2.820305 1_654
Mg7 Si8 2.892812 1_655
Mg7 Si8 2.892812 1_565
Mg7 Si12 2.965335 1_654
Mg7 Si12 2.965335 1_564
Mg7 Si5 2.987858 1_655
Mg7 Si5 2.987858 1_565
Si0 Si1 2.484039 1_555
Si0 Si2 2.509412 1_565
Si0 Si2 2.509412 1_655
Si0 Si11 2.568036 1_555
Si1 Si3 2.483693 1_565
Si1 Si3 2.483693 1_655
Si1 Si7 2.550720 1_555
Si2 Si3 2.434562 1_555
Si3 Si6 2.446498 1_556
Si4 Si5 2.363869 1_556
Si10 Si2 2.459038 1_555
Si10 Si6 2.490667 1_555
Si10 Si9 2.516115 1_455
Si10 Si9 2.516115 1_545
Si11 Si7 2.466954 1_554
Si11 Si8 2.585586 1_565
Si11 Si8 2.585586 1_655
Si12 Si4 2.422533 1_555
Si12 Si8 2.453256 1_556
Si12 Si7 2.509001 1_545
Si12 Si7 2.509001 1_455
Si13 Si9 2.447230 1_555
Si13 Si6 2.459433 1_656
Si13 Si6 2.459433 1_566
Si13 Si5 2.463994 1_556
