# generated using pymatgen
data_Li4Co2Ni5O12
_symmetry_space_group_name_H-M   'P 1'
_cell_length_a   5.06086300
_cell_length_b   9.72251306
_cell_length_c   13.17034110
_cell_angle_alpha   80.21609745
_cell_angle_beta   80.12692795
_cell_angle_gamma   84.70074124
_symmetry_Int_Tables_number   1
_chemical_formula_structural   Li4Co2Ni5O12
_chemical_formula_sum   'Li12 Co6 Ni15 O36'
_cell_volume   627.81908929
_cell_formula_units_Z   3
loop_
 _symmetry_equiv_pos_site_id
 _symmetry_equiv_pos_as_xyz
  1  'x, y, z'
loop_
 _atom_site_type_symbol
 _atom_site_label
 _atom_site_symmetry_multiplicity
 _atom_site_fract_x
 _atom_site_fract_y
 _atom_site_fract_z
 _atom_site_occupancy
  Li  Li0  1  0.77705700  0.99747900  0.94405900  1
  Li  Li1  1  0.81185300  0.75484200  0.64139300  1
  Li  Li2  1  0.72992600  0.50449300  0.55495500  1
  Li  Li3  1  0.60337700  0.50095000  0.77862800  1
  Li  Li4  1  0.44173500  0.99838200  0.61345100  1
  Li  Li5  1  0.46635200  0.75903100  0.30876600  1
  Li  Li6  1  0.13900000  0.74629200  0.97334200  1
  Li  Li7  1  0.39551600  0.49805600  0.21800000  1
  Li  Li8  1  0.26402700  0.50126800  0.44249600  1
  Li  Li9  1  0.05927600  0.50356700  0.89176200  1
  Li  Li10  1  0.23142100  0.99902000  0.05398400  1
  Li  Li11  1  0.11167800  0.00110500  0.28572400  1
  Co  Co0  1  0.91017000  0.75185200  0.41791100  1
  Co  Co1  1  0.74902100  0.24920900  0.25081500  1
  Co  Co2  1  0.41437300  0.24831600  0.91723900  1
  Co  Co3  1  0.59324900  0.74777700  0.08633300  1
  Co  Co4  1  0.24702500  0.74782900  0.75287200  1
  Co  Co5  1  0.07716000  0.25198700  0.58336800  1
  Ni  Ni0  1  0.99639900  0.99693400  0.50409000  1
  Ni  Ni1  1  0.96617100  0.24629000  0.80553500  1
  Ni  Ni2  1  0.69547400  0.75203300  0.85875500  1
  Ni  Ni3  1  0.82301700  0.50317700  0.33056200  1
  Ni  Ni4  1  0.85867100  0.25118600  0.02854900  1
  Ni  Ni5  1  0.67071400  0.99635100  0.17210800  1
  Ni  Ni6  1  0.53136100  0.25037900  0.69358800  1
  Ni  Ni7  1  0.63481000  0.24986100  0.47180300  1
  Ni  Ni8  1  0.32809900  0.99755500  0.83145100  1
  Ni  Ni9  1  0.36974900  0.74896900  0.52643000  1
  Ni  Ni10  1  0.49483700  0.50281200  0.00101800  1
  Ni  Ni11  1  0.15300400  0.50363100  0.66723300  1
  Ni  Ni12  1  0.19472000  0.25051700  0.36207000  1
  Ni  Ni13  1  0.30021800  0.24991300  0.13969300  1
  Ni  Ni14  1  0.04456400  0.74632600  0.19141200  1
  O  O0  1  0.94566000  0.63441800  0.76598000  1
  O  O1  1  0.78972800  0.64082800  0.98156300  1
  O  O2  1  0.95628600  0.36864900  0.46379900  1
  O  O3  1  0.85896600  0.36983000  0.67544500  1
  O  O4  1  0.70516200  0.36671200  0.90522700  1
  O  O5  1  0.82528700  0.85925800  0.29599900  1
  O  O6  1  0.70709100  0.86252800  0.50598500  1
  O  O7  1  0.79126300  0.13803200  0.59396900  1
  O  O8  1  0.48666400  0.86258900  0.95956200  1
  O  O9  1  0.97802600  0.13519900  0.16003400  1
  O  O10  1  0.89610500  0.14134400  0.37224500  1
  O  O11  1  0.87903500  0.87045400  0.07456800  1
  O  O12  1  0.62097800  0.13457000  0.82921900  1
  O  O13  1  0.54097500  0.86104400  0.74586800  1
  O  O14  1  0.61235800  0.63753700  0.43278900  1
  O  O15  1  0.70843400  0.63736300  0.19684800  1
  O  O16  1  0.38075000  0.63375200  0.86604600  1
  O  O17  1  0.44880200  0.63105500  0.65678300  1
  O  O18  1  0.60308200  0.35844900  0.12945300  1
  O  O19  1  0.51833600  0.36470400  0.34112600  1
  O  O20  1  0.28870000  0.36557400  0.79820200  1
  O  O21  1  0.36561900  0.36989200  0.57151600  1
  O  O22  1  0.37600000  0.86773800  0.16976500  1
  O  O23  1  0.44739700  0.13649000  0.25431000  1
  O  O24  1  0.16686600  0.85767200  0.62080700  1
  O  O25  1  0.53757700  0.13303700  0.03557300  1
  O  O26  1  0.04102200  0.86072000  0.83650100  1
  O  O27  1  0.12193400  0.12888600  0.92825600  1
  O  O28  1  0.28982100  0.14176700  0.48970700  1
  O  O29  1  0.21322700  0.13915400  0.70021900  1
  O  O30  1  0.20475300  0.86118600  0.41192200  1
  O  O31  1  0.30874600  0.63824700  0.09544400  1
  O  O32  1  0.03854900  0.63341800  0.53205300  1
  O  O33  1  0.11879600  0.62829300  0.32658300  1
  O  O34  1  0.20385500  0.36083600  0.00982900  1
  O  O35  1  0.05020600  0.36132300  0.24800400  1
loop_
_geom_bond_atom_site_label_1
_geom_bond_atom_site_label_2
_geom_bond_distance
_geom_bond_site_symmetry_2
Li0 O8 2.020789 1_555
Li0 O11 2.052083 1_556
Li0 O12 2.053815 1_565
Li0 O25 2.098208 1_566
Li0 O27 2.217855 1_665
Li0 O26 2.285240 1_655
Li1 O0 2.025701 1_555
Li1 O6 2.035879 1_555
Li1 O24 2.091338 1_655
Li1 O13 2.100784 1_555
Li1 O32 2.131830 1_655
Li1 O17 2.250165 1_555
Li2 O14 2.023559 1_555
Li2 O3 2.037207 1_555
Li2 O32 2.042862 1_655
Li2 O2 2.070224 1_555
Li2 O17 2.218112 1_555
Li2 O21 2.317366 1_555
Li3 O16 2.013394 1_555
Li3 O4 2.044394 1_555
Li3 O17 2.084484 1_555
Li3 O20 2.113308 1_555
Li3 O3 2.196918 1_555
Li3 O0 2.226006 1_555
Li4 O24 2.018988 1_555
Li4 O29 2.074249 1_565
Li4 O13 2.112276 1_555
Li4 O28 2.156414 1_565
Li4 O6 2.281937 1_555
Li4 O7 2.282096 1_565
Li5 O30 2.045457 1_555
Li5 O14 2.050927 1_555
Li5 O22 2.053721 1_555
Li5 O5 2.108110 1_555
Li5 O15 2.185991 1_555
Li5 O33 2.221414 1_555
Li6 O31 2.039723 1_556
Li6 O26 2.062713 1_555
Li6 O16 2.091967 1_555
Li6 O1 2.102146 1_455
Li6 O8 2.143693 1_555
Li6 O11 2.148872 1_456
Li7 O31 2.010163 1_555
Li7 O18 2.039688 1_555
Li7 O19 2.044306 1_555
Li7 O15 2.129933 1_555
Li7 O35 2.234096 1_555
Li7 O33 2.282711 1_555
Li8 O33 1.993074 1_555
Li8 O32 2.031454 1_555
Li8 O21 2.055212 1_555
Li8 O2 2.065184 1_455
Li8 O19 2.213442 1_555
Li8 O14 2.275053 1_555
Li9 O0 2.041732 1_455
Li9 O34 2.085261 1_556
Li9 O16 2.099859 1_555
Li9 O20 2.109491 1_555
Li9 O1 2.165067 1_455
Li9 O4 2.294528 1_455
Li10 O22 2.009581 1_555
Li10 O27 2.029292 1_564
Li10 O25 2.072181 1_565
Li10 O8 2.160509 1_554
Li10 O11 2.224228 1_455
Li10 O9 2.246990 1_465
Li11 O10 2.043220 1_455
Li11 O30 2.053442 1_545
Li11 O5 2.063857 1_445
Li11 O9 2.094065 1_455
Li11 O23 2.185731 1_555
Li11 O22 2.335638 1_545
Co0 O6 1.835969 1_555
Co0 O5 1.853878 1_555
Co0 O30 1.892807 1_655
Co0 O32 1.901668 1_655
Co0 O14 1.918178 1_555
Co0 O33 1.956009 1_655
Co1 O9 1.933732 1_555
Co1 O19 1.942728 1_555
Co1 O35 1.945951 1_655
Co1 O23 1.949626 1_555
Co1 O10 1.976262 1_555
Co1 O18 1.977707 1_555
Co2 O12 1.861882 1_555
Co2 O34 1.900388 1_556
Co2 O25 1.919475 1_556
Co2 O4 1.920153 1_555
Co2 O27 1.935525 1_555
Co2 O20 1.939752 1_555
Co3 O15 1.804188 1_555
Co3 O31 1.844473 1_555
Co3 O22 1.887049 1_555
Co3 O11 1.928068 1_555
Co3 O1 1.949379 1_554
Co3 O8 1.972013 1_554
Co4 O26 1.819464 1_555
Co4 O16 1.885545 1_555
Co4 O13 1.911571 1_555
Co4 O0 1.930648 1_455
Co4 O17 1.940183 1_555
Co4 O24 1.964952 1_555
Co5 O7 1.874763 1_455
Co5 O28 1.899805 1_555
Co5 O21 1.907818 1_555
Co5 O29 1.922542 1_555
Co5 O2 1.932807 1_455
Co5 O3 1.944727 1_455
Ni0 O30 2.043470 1_655
Ni0 O6 2.044941 1_555
Ni0 O7 2.056290 1_565
Ni0 O28 2.103093 1_665
Ni0 O24 2.114748 1_655
Ni0 O10 2.141537 1_565
Ni1 O3 2.042434 1_555
Ni1 O27 2.044602 1_655
Ni1 O29 2.056192 1_655
Ni1 O20 2.067895 1_655
Ni1 O12 2.092255 1_555
Ni1 O4 2.116972 1_555
Ni2 O1 1.894082 1_555
Ni2 O13 1.911848 1_555
Ni2 O8 1.956747 1_555
Ni2 O0 2.020060 1_555
Ni2 O16 2.029035 1_555
Ni2 O26 2.078714 1_655
Ni3 O33 2.002737 1_655
Ni3 O35 2.048022 1_655
Ni3 O19 2.110859 1_555
Ni3 O14 2.122269 1_555
Ni3 O15 2.137584 1_555
Ni3 O2 2.169733 1_555
Ni4 O4 2.038299 1_554
Ni4 O18 2.039399 1_555
Ni4 O9 2.050494 1_555
Ni4 O25 2.055695 1_555
Ni4 O34 2.087111 1_655
Ni4 O27 2.138084 1_654
Ni5 O11 2.022783 1_555
Ni5 O23 2.025609 1_565
Ni5 O22 2.040233 1_555
Ni5 O9 2.120506 1_565
Ni5 O5 2.134693 1_555
Ni5 O25 2.211684 1_565
Ni6 O29 2.002627 1_555
Ni6 O12 2.040660 1_555
Ni6 O7 2.067475 1_555
Ni6 O3 2.068865 1_555
Ni6 O21 2.070281 1_555
Ni6 O20 2.085906 1_555
Ni7 O7 2.020186 1_555
Ni7 O19 2.032103 1_555
Ni7 O10 2.049135 1_555
Ni7 O2 2.058832 1_555
Ni7 O28 2.078925 1_555
Ni7 O21 2.134516 1_555
Ni8 O13 2.005134 1_555
Ni8 O26 2.044247 1_555
Ni8 O27 2.048301 1_565
Ni8 O12 2.075785 1_565
Ni8 O29 2.146760 1_565
Ni8 O8 2.174871 1_555
Ni9 O24 1.877381 1_555
Ni9 O30 1.966308 1_555
Ni9 O14 1.972658 1_555
Ni9 O17 1.975761 1_555
Ni9 O6 2.072597 1_555
Ni9 O32 2.086650 1_555
Ni10 O31 2.023181 1_555
Ni10 O1 2.053153 1_554
Ni10 O4 2.079007 1_554
Ni10 O34 2.085645 1_555
Ni10 O18 2.121377 1_555
Ni10 O16 2.135672 1_554
Ni11 O17 2.002180 1_555
Ni11 O3 2.042782 1_455
Ni11 O0 2.063246 1_455
Ni11 O21 2.066687 1_555
Ni11 O32 2.133686 1_555
Ni11 O20 2.167407 1_555
Ni12 O10 1.899207 1_455
Ni12 O35 1.906192 1_555
Ni12 O28 1.937730 1_555
Ni12 O19 2.016869 1_555
Ni12 O2 2.069509 1_455
Ni12 O23 2.128152 1_555
Ni13 O18 1.913260 1_555
Ni13 O23 1.928136 1_555
Ni13 O34 1.971851 1_555
Ni13 O9 2.014699 1_455
Ni13 O25 2.080200 1_555
Ni13 O35 2.112374 1_555
Ni14 O33 2.020578 1_555
Ni14 O5 2.024641 1_455
Ni14 O31 2.025244 1_555
Ni14 O11 2.037283 1_455
Ni14 O15 2.070399 1_455
Ni14 O22 2.091786 1_555
