# generated using pymatgen
data_Ce2MgSe4
_symmetry_space_group_name_H-M   'P 1'
_cell_length_a   7.65514712
_cell_length_b   7.65514712
_cell_length_c   7.65514712
_cell_angle_alpha   111.42184828
_cell_angle_beta   111.42184828
_cell_angle_gamma   105.63668275
_symmetry_Int_Tables_number   1
_chemical_formula_structural   Ce2MgSe4
_chemical_formula_sum   'Ce4 Mg2 Se8'
_cell_volume   344.18352166
_cell_formula_units_Z   2
loop_
 _symmetry_equiv_pos_site_id
 _symmetry_equiv_pos_as_xyz
  1  'x, y, z'
loop_
 _atom_site_type_symbol
 _atom_site_label
 _atom_site_symmetry_multiplicity
 _atom_site_fract_x
 _atom_site_fract_y
 _atom_site_fract_z
 _atom_site_occupancy
  Ce  Ce0  1  0.87500000  0.75496200  0.37996200  1
  Ce  Ce1  1  0.50496200  0.12500000  0.87996200  1
  Ce  Ce2  1  0.37500000  0.49503800  0.62003800  1
  Ce  Ce3  1  0.24503800  0.62500000  0.12003800  1
  Mg  Mg0  1  0.00000000  0.00000000  0.00000000  1
  Mg  Mg1  1  0.75000000  0.25000000  0.50000000  1
  Se  Se0  1  0.50407300  0.37627700  0.26748200  1
  Se  Se1  1  0.76340900  0.49592700  0.87220400  1
  Se  Se2  1  0.10879400  0.23659100  0.73251800  1
  Se  Se3  1  0.62372300  0.89120600  0.12779600  1
  Se  Se4  1  0.24592700  0.01340900  0.37220400  1
  Se  Se5  1  0.98659100  0.35879400  0.23251800  1
  Se  Se6  1  0.64120600  0.87372300  0.62779600  1
  Se  Se7  1  0.12627700  0.75407300  0.76748200  1
loop_
_geom_bond_atom_site_label_1
_geom_bond_atom_site_label_2
_geom_bond_distance
_geom_bond_site_symmetry_2
Ce0 Se7 2.890322 1_655
Ce0 Se3 2.890328 1_555
Ce0 Se0 3.026740 1_555
Ce0 Se4 3.026740 1_665
Ce0 Se6 3.118738 1_555
Ce0 Se2 3.118745 1_665
Ce0 Se1 3.286571 1_554
Ce0 Se5 3.286577 1_555
Ce1 Se0 2.890322 1_556
Ce1 Se6 2.890328 1_545
Ce1 Se1 3.026740 1_555
Ce1 Se7 3.026740 1_545
Ce1 Se3 3.118738 1_546
Ce1 Se5 3.118745 1_556
Ce1 Se4 3.286571 1_555
Ce1 Se2 3.286577 1_555
Ce2 Se5 2.890320 1_455
Ce2 Se1 2.890322 1_555
Ce2 Se6 3.026743 1_555
Ce2 Se2 3.026745 1_555
Ce2 Se0 3.118744 1_555
Ce2 Se4 3.118744 1_555
Ce2 Se7 3.286571 1_555
Ce2 Se3 3.286573 1_556
Ce3 Se2 2.890320 1_554
Ce3 Se4 2.890322 1_565
Ce3 Se3 3.026743 1_555
Ce3 Se5 3.026745 1_455
Ce3 Se7 3.118744 1_554
Ce3 Se1 3.118744 1_454
Ce3 Se0 3.286571 1_555
Ce3 Se6 3.286573 1_555
Mg0 Se5 2.727090 1_455
Mg0 Se6 2.727092 1_444
Mg0 Se7 2.727096 1_544
Mg0 Se4 2.727096 1_555
Mg1 Se2 2.727090 1_655
Mg1 Se3 2.727092 1_545
Mg1 Se1 2.727096 1_555
Mg1 Se0 2.727096 1_555
