# generated using pymatgen
data_YMg2
_symmetry_space_group_name_H-M   'P 1'
_cell_length_a   5.92242705
_cell_length_b   5.92242705
_cell_length_c   5.21599800
_cell_angle_alpha   90.00000000
_cell_angle_beta   90.00000000
_cell_angle_gamma   119.99998936
_symmetry_Int_Tables_number   1
_chemical_formula_structural   YMg2
_chemical_formula_sum   'Y2 Mg4'
_cell_volume   158.44098512
_cell_formula_units_Z   2
loop_
 _symmetry_equiv_pos_site_id
 _symmetry_equiv_pos_as_xyz
  1  'x, y, z'
loop_
 _atom_site_type_symbol
 _atom_site_label
 _atom_site_symmetry_multiplicity
 _atom_site_fract_x
 _atom_site_fract_y
 _atom_site_fract_z
 _atom_site_occupancy
  Y  Y0  1  0.33333300  0.66666700  0.50000000  1
  Y  Y1  1  0.66666700  0.33333300  0.50000000  1
  Mg  Mg0  1  0.68075000  0.00000000  0.00000000  1
  Mg  Mg1  1  0.00000000  0.68075000  0.00000000  1
  Mg  Mg2  1  0.31925000  0.31925000  0.00000000  1
  Mg  Mg3  1  0.00000000  0.00000000  0.50000000  1
loop_
_geom_bond_atom_site_label_1
_geom_bond_atom_site_label_2
_geom_bond_distance
_geom_bond_site_symmetry_2
Y0 Y1 3.419312 1_455
Y0 Y1 3.419312 1_565
Y0 Y1 3.419322 1_555
Mg0 Mg3 3.221263 1_654
Mg0 Mg3 3.221263 1_655
Mg0 Mg1 3.274849 1_645
Mg0 Mg2 3.274849 1_655
Mg0 Y1 3.297044 1_554
Mg0 Y1 3.297044 1_555
Mg0 Y0 3.297046 1_545
Mg0 Y0 3.297046 1_544
Mg0 Mg2 3.493789 1_555
Mg0 Mg1 3.493789 1_655
Mg0 Mg1 3.493789 1_545
Mg0 Mg2 3.493789 1_545
Mg1 Mg3 3.221263 1_565
Mg1 Mg3 3.221263 1_564
Mg1 Mg2 3.274849 1_565
Mg1 Y0 3.297044 1_554
Mg1 Y0 3.297044 1_555
Mg1 Y1 3.297046 1_455
Mg1 Y1 3.297046 1_454
Mg1 Mg2 3.493789 1_555
Mg1 Mg2 3.493789 1_455
Mg2 Mg3 3.221263 1_555
Mg2 Mg3 3.221263 1_554
Mg2 Y0 3.297048 1_555
Mg2 Y0 3.297048 1_554
Mg2 Y1 3.297048 1_555
Mg2 Y1 3.297048 1_554
Mg3 Y1 3.419311 1_455
Mg3 Y0 3.419311 1_545
Mg3 Y0 3.419317 1_555
Mg3 Y0 3.419317 1_445
Mg3 Y1 3.419317 1_445
Mg3 Y1 3.419317 1_555
