# generated using pymatgen
data_CsCrO3F
_symmetry_space_group_name_H-M   'P 1'
_cell_length_a   5.88993844
_cell_length_b   5.88993844
_cell_length_c   8.69078201
_cell_angle_alpha   69.48658123
_cell_angle_beta   69.48658123
_cell_angle_gamma   89.99222888
_symmetry_Int_Tables_number   1
_chemical_formula_structural   CsCrO3F
_chemical_formula_sum   'Cs2 Cr2 O6 F2'
_cell_volume   261.87342214
_cell_formula_units_Z   2
loop_
 _symmetry_equiv_pos_site_id
 _symmetry_equiv_pos_as_xyz
  1  'x, y, z'
loop_
 _atom_site_type_symbol
 _atom_site_label
 _atom_site_symmetry_multiplicity
 _atom_site_fract_x
 _atom_site_fract_y
 _atom_site_fract_z
 _atom_site_occupancy
  Cs  Cs0  1  0.86845000  0.62452300  0.24783300  1
  Cs  Cs1  1  0.12452300  0.36845000  0.74783300  1
  Cr  Cr0  1  0.38166600  0.12305000  0.25330100  1
  Cr  Cr1  1  0.62305000  0.88166600  0.75330100  1
  O  O0  1  0.68651300  0.17104800  0.62781300  1
  O  O1  1  0.67104800  0.18651300  0.12781300  1
  O  O2  1  0.78947900  0.81695500  0.87391100  1
  O  O3  1  0.31695500  0.28947900  0.37391100  1
  O  O4  1  0.31527900  0.83323800  0.37747400  1
  O  O5  1  0.33323800  0.81527900  0.87747400  1
  F  F0  1  0.19931000  0.19048700  0.11966800  1
  F  F1  1  0.69048700  0.69931000  0.61966800  1
loop_
_geom_bond_atom_site_label_1
_geom_bond_atom_site_label_2
_geom_bond_distance
_geom_bond_site_symmetry_2
Cs0 F1 3.218556 1_555
Cs0 O5 3.226066 1_654
Cs0 O0 3.244451 1_555
Cs0 O2 3.246411 1_554
Cs0 O3 3.411445 1_555
Cs0 O4 3.434095 1_555
Cs0 O1 3.438841 1_565
Cs0 O1 3.439798 1_555
Cs0 F0 3.468234 1_665
Cs0 F0 3.470841 1_655
Cs0 O3 3.547540 1_655
Cs0 O4 3.571659 1_655
Cs1 F0 3.218556 1_556
Cs1 O4 3.226066 1_555
Cs1 O1 3.244451 1_456
Cs1 O3 3.246411 1_555
Cs1 O2 3.411445 1_445
Cs1 O5 3.434095 1_545
Cs1 O0 3.438841 1_555
Cs1 O0 3.439798 1_455
Cs1 F1 3.468234 1_555
Cs1 F1 3.470841 1_455
Cs1 O2 3.547540 1_455
Cs1 O5 3.571659 1_555
Cr0 O4 1.626236 1_545
Cr0 O3 1.626319 1_555
Cr0 O1 1.626627 1_555
Cr0 F0 1.791926 1_555
Cr1 O5 1.626236 1_555
Cr1 O2 1.626319 1_555
Cr1 O0 1.626627 1_565
Cr1 F1 1.791926 1_555
