# generated using pymatgen
data_NaMg30WO32
_symmetry_space_group_name_H-M   'P 1'
_cell_length_a   8.56566600
_cell_length_b   8.56566600
_cell_length_c   8.56018000
_cell_angle_alpha   90.00000000
_cell_angle_beta   90.00000000
_cell_angle_gamma   90.00000000
_symmetry_Int_Tables_number   1
_chemical_formula_structural   NaMg30WO32
_chemical_formula_sum   'Na1 Mg30 W1 O32'
_cell_volume   628.06583396
_cell_formula_units_Z   1
loop_
 _symmetry_equiv_pos_site_id
 _symmetry_equiv_pos_as_xyz
  1  'x, y, z'
loop_
 _atom_site_type_symbol
 _atom_site_label
 _atom_site_symmetry_multiplicity
 _atom_site_fract_x
 _atom_site_fract_y
 _atom_site_fract_z
 _atom_site_occupancy
  Na  Na0  1  0.00000000  0.00000000  0.00000000  1
  Mg  Mg0  1  0.50000000  0.00000000  0.00000000  1
  Mg  Mg1  1  0.00000000  0.50000000  0.00000000  1
  Mg  Mg2  1  0.00000000  0.00000000  0.50000000  1
  Mg  Mg3  1  0.50000000  0.00000000  0.50000000  1
  Mg  Mg4  1  0.00000000  0.50000000  0.50000000  1
  Mg  Mg5  1  0.50000000  0.50000000  0.50000000  1
  Mg  Mg6  1  0.24386200  0.24386200  0.00000000  1
  Mg  Mg7  1  0.75613800  0.24386200  0.00000000  1
  Mg  Mg8  1  0.24386200  0.75613800  0.00000000  1
  Mg  Mg9  1  0.75613800  0.75613800  0.00000000  1
  Mg  Mg10  1  0.24873000  0.24873000  0.50000000  1
  Mg  Mg11  1  0.75127000  0.24873000  0.50000000  1
  Mg  Mg12  1  0.24873000  0.75127000  0.50000000  1
  Mg  Mg13  1  0.75127000  0.75127000  0.50000000  1
  Mg  Mg14  1  0.24773100  0.00000000  0.24900600  1
  Mg  Mg15  1  0.75226900  0.00000000  0.24900600  1
  Mg  Mg16  1  0.24498800  0.50000000  0.25345100  1
  Mg  Mg17  1  0.75501200  0.50000000  0.25345100  1
  Mg  Mg18  1  0.24773100  0.00000000  0.75099400  1
  Mg  Mg19  1  0.75226900  0.00000000  0.75099400  1
  Mg  Mg20  1  0.24498800  0.50000000  0.74654900  1
  Mg  Mg21  1  0.75501200  0.50000000  0.74654900  1
  Mg  Mg22  1  0.00000000  0.24773100  0.24900600  1
  Mg  Mg23  1  0.50000000  0.24498800  0.25345100  1
  Mg  Mg24  1  0.00000000  0.75226900  0.24900600  1
  Mg  Mg25  1  0.50000000  0.75501200  0.25345100  1
  Mg  Mg26  1  0.00000000  0.24773100  0.75099400  1
  Mg  Mg27  1  0.50000000  0.24498800  0.74654900  1
  Mg  Mg28  1  0.00000000  0.75226900  0.75099400  1
  Mg  Mg29  1  0.50000000  0.75501200  0.74654900  1
  W  W0  1  0.50000000  0.50000000  0.00000000  1
  O  O0  1  0.00000000  0.00000000  0.26297300  1
  O  O1  1  0.50000000  0.00000000  0.25219000  1
  O  O2  1  0.00000000  0.50000000  0.25219000  1
  O  O3  1  0.50000000  0.50000000  0.25382400  1
  O  O4  1  0.00000000  0.00000000  0.73702700  1
  O  O5  1  0.50000000  0.00000000  0.74781000  1
  O  O6  1  0.00000000  0.50000000  0.74781000  1
  O  O7  1  0.50000000  0.50000000  0.74617600  1
  O  O8  1  0.25117000  0.25117000  0.24928800  1
  O  O9  1  0.74883000  0.25117000  0.24928800  1
  O  O10  1  0.25117000  0.74883000  0.24928800  1
  O  O11  1  0.74883000  0.74883000  0.24928800  1
  O  O12  1  0.25117000  0.25117000  0.75071200  1
  O  O13  1  0.74883000  0.25117000  0.75071200  1
  O  O14  1  0.25117000  0.74883000  0.75071200  1
  O  O15  1  0.74883000  0.74883000  0.75071200  1
  O  O16  1  0.26326600  0.00000000  0.00000000  1
  O  O17  1  0.73673400  0.00000000  0.00000000  1
  O  O18  1  0.24781600  0.50000000  0.00000000  1
  O  O19  1  0.75218400  0.50000000  0.00000000  1
  O  O20  1  0.25280000  0.00000000  0.50000000  1
  O  O21  1  0.74720000  0.00000000  0.50000000  1
  O  O22  1  0.25132900  0.50000000  0.50000000  1
  O  O23  1  0.74867100  0.50000000  0.50000000  1
  O  O24  1  0.00000000  0.26326600  0.00000000  1
  O  O25  1  0.50000000  0.24781600  0.00000000  1
  O  O26  1  0.00000000  0.73673400  0.00000000  1
  O  O27  1  0.50000000  0.75218400  0.00000000  1
  O  O28  1  0.00000000  0.25280000  0.50000000  1
  O  O29  1  0.50000000  0.25132900  0.50000000  1
  O  O30  1  0.00000000  0.74720000  0.50000000  1
  O  O31  1  0.50000000  0.74867100  0.50000000  1
loop_
_geom_bond_atom_site_label_1
_geom_bond_atom_site_label_2
_geom_bond_distance
_geom_bond_site_symmetry_2
Na0 O4 2.251096 1_554
Na0 O0 2.251096 1_555
Na0 O26 2.255049 1_545
Na0 O24 2.255049 1_555
Na0 O16 2.255049 1_555
Na0 O17 2.255049 1_455
Mg0 O17 2.027784 1_555
Mg0 O16 2.027784 1_555
Mg0 O25 2.122709 1_555
Mg0 O27 2.122709 1_545
Mg0 O1 2.158792 1_555
Mg0 O5 2.158792 1_554
Mg1 O24 2.027784 1_555
Mg1 O26 2.027784 1_555
Mg1 O18 2.122709 1_555
Mg1 O19 2.122709 1_455
Mg1 O2 2.158792 1_555
Mg1 O6 2.158792 1_554
Mg2 O0 2.028994 1_555
Mg2 O4 2.028994 1_555
Mg2 O21 2.165400 1_455
Mg2 O20 2.165400 1_555
Mg2 O28 2.165400 1_555
Mg2 O30 2.165400 1_545
Mg3 O20 2.117433 1_555
Mg3 O21 2.117433 1_555
Mg3 O1 2.121298 1_555
Mg3 O5 2.121298 1_555
Mg3 O29 2.152800 1_555
Mg3 O31 2.152800 1_545
Mg4 O28 2.117433 1_555
Mg4 O30 2.117433 1_555
Mg4 O2 2.121298 1_555
Mg4 O6 2.121298 1_555
Mg4 O23 2.152800 1_455
Mg4 O22 2.152800 1_555
Mg5 O7 2.107311 1_555
Mg5 O3 2.107311 1_555
Mg5 O29 2.130033 1_555
Mg5 O31 2.130033 1_555
Mg5 O23 2.130033 1_555
Mg5 O22 2.130033 1_555
Mg6 O24 2.095443 1_555
Mg6 O16 2.095443 1_555
Mg6 O12 2.135786 1_554
Mg6 O8 2.135786 1_555
Mg6 O25 2.194254 1_555
Mg6 O18 2.194254 1_555
Mg7 O17 2.095443 1_555
Mg7 O24 2.095443 1_655
Mg7 O13 2.135786 1_554
Mg7 O9 2.135786 1_555
Mg7 O19 2.194254 1_555
Mg7 O25 2.194254 1_555
Mg8 O26 2.095443 1_555
Mg8 O16 2.095443 1_565
Mg8 O14 2.135786 1_554
Mg8 O10 2.135786 1_555
Mg8 O27 2.194254 1_555
Mg8 O18 2.194254 1_555
Mg9 O17 2.095443 1_565
Mg9 O26 2.095443 1_655
Mg9 O15 2.135786 1_554
Mg9 O11 2.135786 1_555
Mg9 O19 2.194254 1_555
Mg9 O27 2.194254 1_555
Mg10 O20 2.130823 1_555
Mg10 O28 2.130823 1_555
Mg10 O8 2.146343 1_555
Mg10 O12 2.146343 1_555
Mg10 O22 2.152410 1_555
Mg10 O29 2.152410 1_555
Mg11 O21 2.130823 1_555
Mg11 O28 2.130823 1_655
Mg11 O9 2.146343 1_555
Mg11 O13 2.146343 1_555
Mg11 O23 2.152410 1_555
Mg11 O29 2.152410 1_555
Mg12 O30 2.130823 1_555
Mg12 O20 2.130823 1_565
Mg12 O10 2.146343 1_555
Mg12 O14 2.146343 1_555
Mg12 O22 2.152410 1_555
Mg12 O31 2.152410 1_555
Mg13 O21 2.130823 1_565
Mg13 O30 2.130823 1_655
Mg13 O11 2.146343 1_555
Mg13 O15 2.146343 1_555
Mg13 O23 2.152410 1_555
Mg13 O31 2.152410 1_555
Mg14 O0 2.125347 1_555
Mg14 O16 2.135686 1_555
Mg14 O20 2.148992 1_555
Mg14 O8 2.151641 1_555
Mg14 O10 2.151641 1_545
Mg14 O1 2.161024 1_555
Mg15 O0 2.125347 1_655
Mg15 O17 2.135686 1_555
Mg15 O21 2.148992 1_555
Mg15 O9 2.151641 1_555
Mg15 O11 2.151641 1_545
Mg15 O1 2.161024 1_555
Mg16 O2 2.098513 1_555
Mg16 O22 2.111203 1_555
Mg16 O10 2.132350 1_555
Mg16 O8 2.132350 1_555
Mg16 O18 2.169721 1_555
Mg16 O3 2.184350 1_555
Mg17 O2 2.098513 1_655
Mg17 O23 2.111203 1_555
Mg17 O11 2.132350 1_555
Mg17 O9 2.132350 1_555
Mg17 O19 2.169721 1_555
Mg17 O3 2.184350 1_555
Mg18 O4 2.125347 1_555
Mg18 O16 2.135686 1_556
Mg18 O20 2.148992 1_555
Mg18 O12 2.151641 1_555
Mg18 O14 2.151641 1_545
Mg18 O5 2.161024 1_555
Mg19 O4 2.125347 1_655
Mg19 O17 2.135686 1_556
Mg19 O21 2.148992 1_555
Mg19 O13 2.151641 1_555
Mg19 O15 2.151641 1_545
Mg19 O5 2.161024 1_555
Mg20 O6 2.098513 1_555
Mg20 O22 2.111203 1_555
Mg20 O12 2.132350 1_555
Mg20 O14 2.132350 1_555
Mg20 O18 2.169721 1_556
Mg20 O7 2.184350 1_555
Mg21 O6 2.098513 1_655
Mg21 O23 2.111203 1_555
Mg21 O15 2.132350 1_555
Mg21 O13 2.132350 1_555
Mg21 O19 2.169721 1_556
Mg21 O7 2.184350 1_555
Mg22 O0 2.125347 1_555
Mg22 O24 2.135686 1_555
Mg22 O28 2.148992 1_555
Mg22 O8 2.151641 1_555
Mg22 O9 2.151641 1_455
Mg22 O2 2.161024 1_555
Mg23 O1 2.098513 1_555
Mg23 O29 2.111203 1_555
Mg23 O8 2.132350 1_555
Mg23 O9 2.132350 1_555
Mg23 O25 2.169721 1_555
Mg23 O3 2.184350 1_555
Mg24 O0 2.125347 1_565
Mg24 O26 2.135686 1_555
Mg24 O30 2.148992 1_555
Mg24 O11 2.151641 1_455
Mg24 O10 2.151641 1_555
Mg24 O2 2.161024 1_555
Mg25 O1 2.098513 1_565
Mg25 O31 2.111203 1_555
Mg25 O10 2.132350 1_555
Mg25 O11 2.132350 1_555
Mg25 O27 2.169721 1_555
Mg25 O3 2.184350 1_555
Mg26 O4 2.125347 1_555
Mg26 O24 2.135686 1_556
Mg26 O28 2.148992 1_555
Mg26 O12 2.151641 1_555
Mg26 O13 2.151641 1_455
Mg26 O6 2.161024 1_555
Mg27 O5 2.098513 1_555
Mg27 O29 2.111203 1_555
Mg27 O13 2.132350 1_555
Mg27 O12 2.132350 1_555
Mg27 O25 2.169721 1_556
Mg27 O7 2.184350 1_555
Mg28 O4 2.125347 1_565
Mg28 O26 2.135686 1_556
Mg28 O30 2.148992 1_555
Mg28 O14 2.151641 1_555
Mg28 O15 2.151641 1_455
Mg28 O6 2.161024 1_555
Mg29 O5 2.098513 1_565
Mg29 O31 2.111203 1_555
Mg29 O15 2.132350 1_555
Mg29 O14 2.132350 1_555
Mg29 O27 2.169721 1_556
Mg29 O7 2.184350 1_555
O3 W0 2.172779 1_555
O7 W0 2.172779 1_556
O18 W0 2.160124 1_555
O19 W0 2.160124 1_555
O25 W0 2.160124 1_555
O27 W0 2.160124 1_555
