# generated using pymatgen
data_SiC
_symmetry_space_group_name_H-M   'P 1'
_cell_length_a   3.07569427
_cell_length_b   3.07569403
_cell_length_c   10.07064648
_cell_angle_alpha   90.00000000
_cell_angle_beta   90.00000000
_cell_angle_gamma   119.99999194
_symmetry_Int_Tables_number   1
_chemical_formula_structural   SiC
_chemical_formula_sum   'Si4 C4'
_cell_volume   82.50386818
_cell_formula_units_Z   4
loop_
 _symmetry_equiv_pos_site_id
 _symmetry_equiv_pos_as_xyz
  1  'x, y, z'
loop_
 _atom_site_type_symbol
 _atom_site_label
 _atom_site_symmetry_multiplicity
 _atom_site_fract_x
 _atom_site_fract_y
 _atom_site_fract_z
 _atom_site_occupancy
  Si  Si0  1  0.66666700  0.33333300  0.93784198  1
  Si  Si1  1  0.33333300  0.66666700  0.43784198  1
  Si  Si2  1  -0.00000000  0.00000000  0.68789438  1
  Si  Si3  1  0.00000000  -0.00000000  0.18789438  1
  C  C0  1  0.66666700  0.33333300  0.74980259  1
  C  C1  1  0.33333300  0.66666700  0.24980259  1
  C  C2  1  0.00000000  0.00000000  0.50046005  1
  C  C3  1  -0.00000000  -0.00000000  0.00046005  1
loop_
_geom_bond_atom_site_label_1
_geom_bond_atom_site_label_2
_geom_bond_distance
_geom_bond_site_symmetry_2
C0 Si2 1.882017 1_655
C0 Si2 1.882020 1_665
C0 Si2 1.882020 1_555
C0 Si0 1.893678 1_555
C1 Si3 1.882017 1_565
C1 Si3 1.882020 1_555
C1 Si3 1.882020 1_665
C1 Si1 1.893678 1_555
C2 Si1 1.884397 1_545
C2 Si1 1.884400 1_555
C2 Si1 1.884400 1_445
C2 Si2 1.887585 1_555
C3 Si0 1.884397 1_454
C3 Si0 1.884400 1_444
C3 Si0 1.884400 1_554
C3 Si3 1.887585 1_555
