# generated using pymatgen
data_NdFeNi4
_symmetry_space_group_name_H-M   'P 1'
_cell_length_a   4.99529666
_cell_length_b   4.99529666
_cell_length_c   3.95233200
_cell_angle_alpha   90.00000000
_cell_angle_beta   90.00000000
_cell_angle_gamma   120.00000877
_symmetry_Int_Tables_number   1
_chemical_formula_structural   NdFeNi4
_chemical_formula_sum   'Nd1 Fe1 Ni4'
_cell_volume   85.40957929
_cell_formula_units_Z   1
loop_
 _symmetry_equiv_pos_site_id
 _symmetry_equiv_pos_as_xyz
  1  'x, y, z'
loop_
 _atom_site_type_symbol
 _atom_site_label
 _atom_site_symmetry_multiplicity
 _atom_site_fract_x
 _atom_site_fract_y
 _atom_site_fract_z
 _atom_site_occupancy
  Nd  Nd0  1  0.33333300  0.66666700  0.00000000  1
  Fe  Fe0  1  0.66666700  0.33333300  0.00000000  1
  Ni  Ni0  1  0.00000000  0.00000000  0.00000000  1
  Ni  Ni1  1  0.83355100  0.66710200  0.50000000  1
  Ni  Ni2  1  0.33289800  0.16644900  0.50000000  1
  Ni  Ni3  1  0.83355100  0.16644900  0.50000000  1
loop_
_geom_bond_atom_site_label_1
_geom_bond_atom_site_label_2
_geom_bond_distance
_geom_bond_site_symmetry_2
Nd0 Ni0 2.884033 1_565
Nd0 Ni0 2.884037 1_555
Nd0 Ni0 2.884037 1_665
Nd0 Ni2 3.184882 1_565
Nd0 Ni2 3.184882 1_564
Nd0 Ni1 3.184882 1_455
Nd0 Ni1 3.184882 1_454
Nd0 Ni3 3.184883 1_565
Nd0 Ni3 3.184883 1_564
Nd0 Ni3 3.184883 1_454
Nd0 Ni3 3.184883 1_455
Nd0 Ni1 3.184885 1_554
Nd0 Ni1 3.184885 1_555
Nd0 Ni2 3.184885 1_555
Nd0 Ni2 3.184885 1_554
Fe0 Ni3 2.447463 1_555
Fe0 Ni3 2.447463 1_554
Fe0 Ni1 2.447465 1_555
Fe0 Ni1 2.447465 1_554
Fe0 Ni2 2.447465 1_554
Fe0 Ni2 2.447465 1_555
Fe0 Nd0 2.884033 1_545
Fe0 Nd0 2.884033 1_655
Fe0 Ni0 2.884033 1_655
Fe0 Ni0 2.884037 1_555
Fe0 Ni0 2.884037 1_665
Fe0 Nd0 2.884042 1_555
Ni0 Ni2 2.445244 1_554
Ni0 Ni2 2.445244 1_555
Ni0 Ni1 2.445244 1_444
Ni0 Ni1 2.445244 1_445
Ni0 Ni3 2.445244 1_454
Ni0 Ni3 2.445244 1_455
Ni1 Ni2 2.494386 1_665
Ni1 Ni3 2.494386 1_565
Ni1 Ni2 2.500910 1_555
Ni1 Ni3 2.500910 1_555
Ni2 Ni3 2.494386 1_455
Ni2 Ni3 2.500910 1_555
