# generated using pymatgen
data_Mn2CoNiSb2
_symmetry_space_group_name_H-M   'P 1'
_cell_length_a   7.39694207
_cell_length_b   7.39694207
_cell_length_c   7.39694192
_cell_angle_alpha   33.52949300
_cell_angle_beta   33.52949300
_cell_angle_gamma   33.52949230
_symmetry_Int_Tables_number   1
_chemical_formula_structural   Mn2CoNiSb2
_chemical_formula_sum   'Mn2 Co1 Ni1 Sb2'
_cell_volume   109.98509422
_cell_formula_units_Z   1
loop_
 _symmetry_equiv_pos_site_id
 _symmetry_equiv_pos_as_xyz
  1  'x, y, z'
loop_
 _atom_site_type_symbol
 _atom_site_label
 _atom_site_symmetry_multiplicity
 _atom_site_fract_x
 _atom_site_fract_y
 _atom_site_fract_z
 _atom_site_occupancy
  Mn  Mn0  1  0.74932900  0.74932900  0.74932900  1
  Mn  Mn1  1  0.25065000  0.25065000  0.25065000  1
  Co  Co0  1  0.99980400  0.99980400  0.99980400  1
  Ni  Ni0  1  0.50012200  0.50012200  0.50012200  1
  Sb  Sb0  1  0.12437000  0.12437000  0.12437000  1
  Sb  Sb1  1  0.62572400  0.62572400  0.62572400  1
loop_
_geom_bond_atom_site_label_1
_geom_bond_atom_site_label_2
_geom_bond_distance
_geom_bond_site_symmetry_2
Mn0 Sb1 2.586288 1_555
Mn0 Sb0 2.613658 1_566
Mn0 Sb0 2.613658 1_656
Mn0 Sb0 2.613658 1_665
Mn0 Ni0 3.027885 1_556
Mn0 Ni0 3.027885 1_565
Mn0 Ni0 3.027885 1_655
Mn1 Sb1 2.613889 1_455
Mn1 Sb1 2.613889 1_545
Mn1 Sb1 2.613889 1_554
Mn1 Sb0 2.642259 1_555
Mn1 Ni0 3.024665 1_554
Mn1 Ni0 3.024665 1_545
Mn1 Ni0 3.024665 1_455
Co0 Sb0 2.606396 1_666
Co0 Sb1 2.607013 1_565
Co0 Sb1 2.607013 1_655
Co0 Sb1 2.607013 1_556
Co0 Mn1 3.008078 1_665
Co0 Mn1 3.008078 1_566
Co0 Mn1 3.008078 1_656
Co0 Mn0 3.012539 1_556
Co0 Mn0 3.012539 1_655
Co0 Mn0 3.012539 1_565
Ni0 Sb0 2.618663 1_565
Ni0 Sb0 2.618663 1_655
Ni0 Sb0 2.618663 1_556
Ni0 Sb1 2.628073 1_555
