# generated using pymatgen
data_Li4Ti2V3Cu3O16
_symmetry_space_group_name_H-M   'P 1'
_cell_length_a   5.82258600
_cell_length_b   5.99809720
_cell_length_c   9.68570682
_cell_angle_alpha   93.36325268
_cell_angle_beta   89.94057290
_cell_angle_gamma   119.03902813
_symmetry_Int_Tables_number   1
_chemical_formula_structural   Li4Ti2V3Cu3O16
_chemical_formula_sum   'Li4 Ti2 V3 Cu3 O16'
_cell_volume   295.08863872
_cell_formula_units_Z   1
loop_
 _symmetry_equiv_pos_site_id
 _symmetry_equiv_pos_as_xyz
  1  'x, y, z'
loop_
 _atom_site_type_symbol
 _atom_site_label
 _atom_site_symmetry_multiplicity
 _atom_site_fract_x
 _atom_site_fract_y
 _atom_site_fract_z
 _atom_site_occupancy
  Li  Li0  1  0.32964100  0.32273100  0.08952700  1
  Li  Li1  1  0.00449000  0.99224000  0.00343500  1
  Li  Li2  1  0.99934300  0.00569200  0.51484100  1
  Li  Li3  1  0.65380900  0.69788200  0.59836700  1
  Ti  Ti0  1  0.35199400  0.29264300  0.51433700  1
  Ti  Ti1  1  0.67032900  0.66393100  0.99477100  1
  V  V0  1  0.83977200  0.81720800  0.28072600  1
  V  V1  1  0.17974900  0.65065200  0.76470500  1
  V  V2  1  0.34876800  0.80382600  0.27694700  1
  Cu  Cu0  1  0.66199000  0.17233300  0.79598100  1
  Cu  Cu1  1  0.16565600  0.17332300  0.79533800  1
  Cu  Cu2  1  0.83741000  0.33321600  0.29627200  1
  O  O0  1  0.67090200  0.14294400  0.40857200  1
  O  O1  1  0.46971600  0.06254300  0.65428400  1
  O  O2  1  0.31809900  0.36412800  0.88364400  1
  O  O3  1  0.00696200  0.98638900  0.70748900  1
  O  O4  1  0.01438800  0.99405800  0.19609300  1
  O  O5  1  0.18225300  0.15181100  0.41244600  1
  O  O6  1  0.45472300  0.52877100  0.64796500  1
  O  O7  1  0.02243800  0.52847800  0.64786400  1
  O  O8  1  0.83938400  0.32251000  0.91899800  1
  O  O9  1  0.16761100  0.68509300  0.39067800  1
  O  O10  1  0.96051000  0.54180400  0.16112100  1
  O  O11  1  0.49423700  0.53282400  0.16095800  1
  O  O12  1  0.64472700  0.68567700  0.39246000  1
  O  O13  1  0.85366400  0.79468500  0.90880500  1
  O  O14  1  0.50597900  0.95976400  0.16745000  1
  O  O15  1  0.35175900  0.79284000  0.90808400  1
loop_
_geom_bond_atom_site_label_1
_geom_bond_atom_site_label_2
_geom_bond_distance
_geom_bond_site_symmetry_2
Li0 O11 1.308349 1_555
Li0 O4 2.245655 1_545
Li1 O13 1.370918 1_454
Li1 O4 1.866207 1_555
Li2 O5 1.442088 1_655
Li2 O3 1.878186 1_645
Li2 O12 2.289819 1_545
Li3 O6 1.232040 1_555
Li3 O12 1.991215 1_555
Li3 O3 2.162253 1_655
Cu0 O8 1.507092 1_555
Cu0 O1 1.658919 1_555
Cu1 O3 1.311059 1_545
Cu1 O2 1.315196 1_555
Cu2 O0 1.579505 1_555
Cu2 O10 1.764164 1_555
Cu2 O9 2.196581 1_655
Cu2 O14 2.403961 1_545
O4 V0 1.372651 1_455
O5 Ti0 1.325901 1_555
O6 Ti0 1.732913 1_555
O7 V1 1.381999 1_555
O9 V2 1.481083 1_555
O10 V2 2.277797 1_655
O10 V0 2.337990 1_555
O10 Ti1 2.707964 1_554
O12 V0 1.520256 1_555
O12 V2 2.450746 1_555
O12 Ti0 2.505540 1_555
O13 Ti1 1.307637 1_555
O14 V2 1.456270 1_555
O15 V1 1.641248 1_555
