# generated using pymatgen
data_EuCdPb
_symmetry_space_group_name_H-M   'P 1'
_cell_length_a   5.03150501
_cell_length_b   5.03150501
_cell_length_c   7.97835021
_cell_angle_alpha   90.00000000
_cell_angle_beta   90.00000000
_cell_angle_gamma   119.99999329
_symmetry_Int_Tables_number   1
_chemical_formula_structural   EuCdPb
_chemical_formula_sum   'Eu2 Cd2 Pb2'
_cell_volume   174.92004309
_cell_formula_units_Z   2
loop_
 _symmetry_equiv_pos_site_id
 _symmetry_equiv_pos_as_xyz
  1  'x, y, z'
loop_
 _atom_site_type_symbol
 _atom_site_label
 _atom_site_symmetry_multiplicity
 _atom_site_fract_x
 _atom_site_fract_y
 _atom_site_fract_z
 _atom_site_occupancy
  Eu  Eu0  1  0.00000000  0.00000000  0.75113975  1
  Eu  Eu1  1  0.00000000  -0.00000000  0.25114045  1
  Cd  Cd0  1  0.66666700  0.33333300  0.95245936  1
  Cd  Cd1  1  0.33333300  0.66666700  0.45241751  1
  Pb  Pb0  1  0.66666700  0.33333300  0.54339948  1
  Pb  Pb1  1  0.33333300  0.66666700  0.04344345  1
loop_
_geom_bond_atom_site_label_1
_geom_bond_atom_site_label_2
_geom_bond_distance
_geom_bond_site_symmetry_2
Eu0 Pb0 3.344506 1_455
Eu0 Pb0 3.344510 1_445
Eu0 Pb0 3.344510 1_555
Eu0 Pb1 3.725233 1_546
Eu0 Pb1 3.725236 1_446
Eu0 Pb1 3.725236 1_556
Eu0 Eu1 3.989170 1_555
Eu0 Eu1 3.989181 1_556
Eu1 Pb1 3.344335 1_545
Eu1 Pb1 3.344339 1_555
Eu1 Pb1 3.344339 1_445
Eu1 Pb0 3.725010 1_455
Eu1 Pb0 3.725013 1_555
Eu1 Pb0 3.725013 1_445
Cd0 Pb1 2.994261 1_546
Cd0 Pb1 2.994261 1_656
Cd0 Pb1 2.994269 1_556
Cd0 Pb0 3.263623 1_555
Cd0 Eu0 3.319418 1_655
Cd0 Eu0 3.319422 1_665
Cd0 Eu0 3.319422 1_555
Cd0 Eu1 3.757295 1_656
Cd0 Eu1 3.757299 1_556
Cd0 Eu1 3.757299 1_666
Cd1 Pb0 2.994257 1_455
Cd1 Pb0 2.994257 1_565
Cd1 Pb0 2.994265 1_555
Cd1 Pb1 3.262938 1_555
Cd1 Eu1 3.319254 1_565
Cd1 Eu1 3.319258 1_555
Cd1 Eu1 3.319258 1_665
Cd1 Eu0 3.757504 1_565
Cd1 Eu0 3.757507 1_555
Cd1 Eu0 3.757507 1_665
