# generated using pymatgen
data_Sr2TaMnO6
_symmetry_space_group_name_H-M   'P 1'
_cell_length_a   7.87418300
_cell_length_b   7.87411400
_cell_length_c   10.06365861
_cell_angle_alpha   66.97119008
_cell_angle_beta   66.97106256
_cell_angle_gamma   89.99930144
_symmetry_Int_Tables_number   1
_chemical_formula_structural   Sr2TaMnO6
_chemical_formula_sum   'Sr8 Ta4 Mn4 O24'
_cell_volume   519.78415740
_cell_formula_units_Z   4
loop_
 _symmetry_equiv_pos_site_id
 _symmetry_equiv_pos_as_xyz
  1  'x, y, z'
loop_
 _atom_site_type_symbol
 _atom_site_label
 _atom_site_symmetry_multiplicity
 _atom_site_fract_x
 _atom_site_fract_y
 _atom_site_fract_z
 _atom_site_occupancy
  Sr  Sr0  1  0.12502700  0.12495900  0.24999200  1
  Sr  Sr1  1  0.87490500  0.37498300  0.75000800  1
  Sr  Sr2  1  0.37508300  0.87502100  0.75000800  1
  Sr  Sr3  1  0.62495700  0.62510600  0.24998500  1
  Sr  Sr4  1  0.37507300  0.37501900  0.74999600  1
  Sr  Sr5  1  0.12504900  0.62508700  0.24999700  1
  Sr  Sr6  1  0.62496500  0.12494600  0.24997900  1
  Sr  Sr7  1  0.87489000  0.87502700  0.75002000  1
  Ta  Ta0  1  0.49991500  0.49986200  0.00025200  1
  Ta  Ta1  1  0.24971400  0.74955200  0.50067500  1
  Ta  Ta2  1  0.75041600  0.25029900  0.49928500  1
  Ta  Ta3  1  0.00005900  0.00005200  0.99979100  1
  Mn  Mn0  1  0.24995800  0.24979200  0.50020900  1
  Mn  Mn1  1  0.00008400  0.50001600  0.99989200  1
  Mn  Mn2  1  0.49996800  0.00004200  0.99994400  1
  Mn  Mn3  1  0.75002400  0.74997700  0.49998900  1
  O  O0  1  0.24955000  0.49632300  0.50091900  1
  O  O1  1  0.00016200  0.74706500  0.99967700  1
  O  O2  1  0.49987000  0.24668000  0.00023800  1
  O  O3  1  0.75039500  0.99719300  0.49918500  1
  O  O4  1  0.11843600  0.11844800  0.76310200  1
  O  O5  1  0.86862200  0.36867700  0.26265700  1
  O  O6  1  0.36794700  0.86800900  0.26402300  1
  O  O7  1  0.61817200  0.61822100  0.76357600  1
  O  O8  1  0.00362100  0.25041200  0.49911100  1
  O  O9  1  0.75294400  0.49987600  0.00032300  1
  O  O10  1  0.25332700  0.00018800  0.99973300  1
  O  O11  1  0.50281700  0.74960400  0.50082600  1
  O  O12  1  0.24955000  0.00260800  0.50090200  1
  O  O13  1  0.00016100  0.25325800  0.99966500  1
  O  O14  1  0.49987500  0.75316500  0.00022100  1
  O  O15  1  0.75038700  0.50356100  0.49917900  1
  O  O16  1  0.38154400  0.38159100  0.23689700  1
  O  O17  1  0.13132500  0.63138400  0.73733700  1
  O  O18  1  0.63200300  0.13206400  0.73597800  1
  O  O19  1  0.88181300  0.88183300  0.23641600  1
  O  O20  1  0.49731200  0.25041400  0.49912500  1
  O  O21  1  0.24674200  0.49987600  0.00033200  1
  O  O22  1  0.74688700  0.00018700  0.99973700  1
  O  O23  1  0.99645000  0.74962100  0.50081700  1
loop_
_geom_bond_atom_site_label_1
_geom_bond_atom_site_label_2
_geom_bond_distance
_geom_bond_site_symmetry_2
Mn0 O20 1.943465 1_555
Mn0 O12 1.943636 1_555
Mn0 O0 1.944017 1_555
Mn0 O8 1.944047 1_555
Mn0 O4 2.203915 1_555
Mn0 O16 2.207428 1_555
Mn1 O13 1.943895 1_555
Mn1 O21 1.943966 1_556
Mn1 O9 1.944332 1_456
Mn1 O1 1.944446 1_555
Mn1 O17 2.201082 1_555
Mn1 O5 2.202842 1_456
Mn2 O14 1.942849 1_546
Mn2 O10 1.942928 1_555
Mn2 O2 1.943215 1_556
Mn2 O22 1.943471 1_555
Mn2 O18 2.212910 1_555
Mn2 O6 2.213858 1_546
Mn3 O11 1.943271 1_555
Mn3 O3 1.943453 1_555
Mn3 O15 1.943508 1_555
Mn3 O23 1.943676 1_555
Mn3 O19 2.209616 1_555
Mn3 O7 2.209733 1_555
O0 Ta1 1.992995 1_555
O0 Sr4 2.870118 1_555
O0 Sr1 2.870494 1_455
O0 Sr5 2.880861 1_555
O0 Sr3 2.880912 1_555
O1 Ta3 1.992498 1_565
O1 Sr7 2.873862 1_455
O1 Sr2 2.873954 1_555
O1 Sr5 2.877626 1_556
O1 Sr3 2.877670 1_456
O2 Ta0 1.993639 1_555
O2 Sr6 2.873646 1_555
O2 Sr0 2.873824 1_555
O2 Sr4 2.876458 1_554
O2 Sr1 2.876488 1_554
O3 Ta2 1.993379 1_565
O3 Sr6 2.870746 1_565
O3 Sr0 2.870777 1_665
O3 Sr2 2.880013 1_555
O3 Sr7 2.880057 1_555
O4 Ta3 1.984239 1_555
O4 Sr7 2.786376 1_445
O4 Sr1 2.786445 1_455
O4 Sr2 2.786490 1_545
O4 Sr4 2.786689 1_555
O5 Ta2 1.983728 1_555
O5 Sr6 2.786339 1_555
O5 Sr3 2.786464 1_555
O5 Sr0 2.786623 1_655
O5 Sr5 2.786961 1_655
O6 Ta1 1.983929 1_555
O6 Sr5 2.785569 1_555
O6 Sr0 2.785675 1_565
O6 Sr3 2.785917 1_555
O6 Sr6 2.785948 1_565
O7 Ta0 1.984130 1_556
O7 Sr4 2.785609 1_555
O7 Sr2 2.785620 1_555
O7 Sr1 2.786076 1_555
O7 Sr7 2.786095 1_555
O8 Ta2 1.993098 1_455
O8 Sr0 2.870095 1_555
O8 Sr5 2.870722 1_555
O8 Sr7 2.880691 1_445
O8 Sr1 2.881005 1_455
O9 Ta0 1.992676 1_555
O9 Sr3 2.873671 1_555
O9 Sr6 2.873946 1_555
O9 Sr7 2.877348 1_554
O9 Sr1 2.877606 1_554
O10 Ta3 1.994050 1_555
O10 Sr4 2.873684 1_555
O10 Sr2 2.873882 1_545
O10 Sr0 2.876455 1_556
O10 Sr5 2.876943 1_546
O11 Ta1 1.993574 1_555
O11 Sr4 2.870430 1_555
O11 Sr2 2.870455 1_555
O11 Sr3 2.880119 1_555
O11 Sr6 2.880245 1_565
O12 Ta1 1.993486 1_545
O12 Sr2 2.870415 1_545
O12 Sr7 2.870663 1_445
O12 Sr0 2.880859 1_555
O12 Sr6 2.880902 1_555
O13 Ta3 1.993277 1_555
O13 Sr1 2.873773 1_455
O13 Sr4 2.873901 1_555
O13 Sr0 2.877572 1_556
O13 Sr6 2.877641 1_456
O14 Ta0 1.994415 1_555
O14 Sr3 2.873782 1_555
O14 Sr5 2.873811 1_555
O14 Sr2 2.876177 1_554
O14 Sr7 2.876283 1_554
O15 Ta2 1.993797 1_555
O15 Sr3 2.870633 1_555
O15 Sr5 2.870893 1_655
O15 Sr4 2.879997 1_555
O15 Sr1 2.880123 1_555
O16 Ta0 1.983870 1_555
O16 Sr5 2.786030 1_555
O16 Sr3 2.786194 1_555
O16 Sr0 2.786418 1_555
O16 Sr6 2.786441 1_555
O17 Ta1 1.984013 1_555
O17 Sr2 2.786337 1_555
O17 Sr7 2.786379 1_455
O17 Sr4 2.786566 1_555
O17 Sr1 2.786814 1_455
O18 Ta2 1.984272 1_555
O18 Sr1 2.785598 1_555
O18 Sr4 2.785755 1_555
O18 Sr7 2.785980 1_545
O18 Sr2 2.786065 1_545
O19 Ta3 1.983702 1_664
O19 Sr0 2.785802 1_665
O19 Sr6 2.786019 1_565
O19 Sr5 2.786142 1_655
O19 Sr3 2.786355 1_555
O20 Ta2 1.993618 1_555
O20 Sr6 2.870409 1_555
O20 Sr3 2.870900 1_555
O20 Sr2 2.880639 1_545
O20 Sr4 2.880953 1_555
O21 Ta0 1.993216 1_555
O21 Sr5 2.873593 1_555
O21 Sr0 2.873885 1_555
O21 Sr2 2.877388 1_554
O21 Sr4 2.877596 1_554
O22 Ta3 1.993735 1_655
O22 Sr1 2.873472 1_555
O22 Sr7 2.873777 1_545
O22 Sr6 2.876242 1_556
O22 Sr3 2.876782 1_546
O23 Ta1 1.993689 1_655
O23 Sr7 2.870573 1_555
O23 Sr1 2.870779 1_555
O23 Sr5 2.880122 1_655
O23 Sr0 2.880142 1_665
