# generated using pymatgen
data_Hf2CoCuSn2
_symmetry_space_group_name_H-M   'P 1'
_cell_length_a   4.35668783
_cell_length_b   4.35668783
_cell_length_c   6.76558801
_cell_angle_alpha   90.00484014
_cell_angle_beta   89.99515986
_cell_angle_gamma   120.00440129
_symmetry_Int_Tables_number   1
_chemical_formula_structural   Hf2CoCuSn2
_chemical_formula_sum   'Hf2 Co1 Cu1 Sn2'
_cell_volume   111.20640475
_cell_formula_units_Z   1
loop_
 _symmetry_equiv_pos_site_id
 _symmetry_equiv_pos_as_xyz
  1  'x, y, z'
loop_
 _atom_site_type_symbol
 _atom_site_label
 _atom_site_symmetry_multiplicity
 _atom_site_fract_x
 _atom_site_fract_y
 _atom_site_fract_z
 _atom_site_occupancy
  Hf  Hf0  1  0.00000800  0.99999200  0.49551400  1
  Hf  Hf1  1  0.99999800  0.00000200  0.97566800  1
  Co  Co0  1  0.33332100  0.66667900  0.83675000  1
  Cu  Cu0  1  0.66667200  0.33332800  0.32981600  1
  Sn  Sn0  1  0.33334600  0.66665400  0.22409900  1
  Sn  Sn1  1  0.66665600  0.33334400  0.73415400  1
loop_
_geom_bond_atom_site_label_1
_geom_bond_atom_site_label_2
_geom_bond_distance
_geom_bond_site_symmetry_2
Hf0 Sn1 2.988834 1_455
Hf0 Sn1 2.988834 1_565
Hf0 Sn1 2.988954 1_465
Hf0 Sn0 3.114225 1_555
Hf0 Sn0 3.114264 1_565
Hf0 Sn0 3.114264 1_455
Hf1 Sn1 2.999281 1_545
Hf1 Sn1 2.999281 1_655
Hf1 Sn1 2.999704 1_555
Hf1 Sn0 3.025010 1_546
Hf1 Sn0 3.025010 1_656
Hf1 Sn0 3.025492 1_646
Co0 Sn1 2.609271 1_565
Co0 Sn1 2.609271 1_455
Co0 Sn1 2.609352 1_555
Co0 Sn0 2.620644 1_556
Co0 Hf1 2.685084 1_465
Co0 Hf1 2.685166 1_455
Co0 Hf1 2.685166 1_565
Cu0 Sn0 2.614933 1_655
Cu0 Sn0 2.614933 1_545
Cu0 Sn0 2.615115 1_555
Cu0 Sn1 2.735584 1_555
Cu0 Hf0 2.753682 1_545
Cu0 Hf0 2.753682 1_655
Cu0 Hf0 2.754012 1_645
