# generated using pymatgen
data_Nb(Mo3S4)2
_symmetry_space_group_name_H-M   'P 1'
_cell_length_a   6.38452752
_cell_length_b   6.38452752
_cell_length_c   6.38452735
_cell_angle_alpha   90.03473212
_cell_angle_beta   90.03473212
_cell_angle_gamma   90.03473631
_symmetry_Int_Tables_number   1
_chemical_formula_structural   Nb(Mo3S4)2
_chemical_formula_sum   'Nb1 Mo6 S8'
_cell_volume   260.24718423
_cell_formula_units_Z   1
loop_
 _symmetry_equiv_pos_site_id
 _symmetry_equiv_pos_as_xyz
  1  'x, y, z'
loop_
 _atom_site_type_symbol
 _atom_site_label
 _atom_site_symmetry_multiplicity
 _atom_site_fract_x
 _atom_site_fract_y
 _atom_site_fract_z
 _atom_site_occupancy
  Nb  Nb0  1  0.00000000  0.00000000  0.00000000  1
  Mo  Mo0  1  0.78390600  0.57894200  0.44375800  1
  Mo  Mo1  1  0.44375800  0.78390600  0.57894200  1
  Mo  Mo2  1  0.57894200  0.44375800  0.78390600  1
  Mo  Mo3  1  0.21609400  0.42105800  0.55624200  1
  Mo  Mo4  1  0.55624200  0.21609400  0.42105800  1
  Mo  Mo5  1  0.42105800  0.55624200  0.21609400  1
  S  S0  1  0.77046900  0.77046900  0.77046900  1
  S  S1  1  0.22953100  0.22953100  0.22953100  1
  S  S2  1  0.23867900  0.64463900  0.86935500  1
  S  S3  1  0.86935500  0.23867900  0.64463900  1
  S  S4  1  0.64463900  0.86935500  0.23867900  1
  S  S5  1  0.76132100  0.35536100  0.13064500  1
  S  S6  1  0.13064500  0.76132100  0.35536100  1
  S  S7  1  0.35536100  0.13064500  0.76132100  1
loop_
_geom_bond_atom_site_label_1
_geom_bond_atom_site_label_2
_geom_bond_distance
_geom_bond_site_symmetry_2
Nb0 S1 2.536689 1_555
Nb0 S0 2.536689 1_444
Nb0 S4 2.858112 1_445
Nb0 S7 2.858112 1_554
Nb0 S3 2.858113 1_454
Nb0 S6 2.858113 1_545
Nb0 S2 2.858113 1_544
Nb0 S5 2.858113 1_455
Mo0 S0 2.418850 1_555
Mo0 S4 2.438514 1_555
Mo0 S5 2.459815 1_555
Mo0 S6 2.564038 1_655
Mo0 S3 2.581836 1_555
Mo1 S0 2.418850 1_555
Mo1 S2 2.438514 1_555
Mo1 S6 2.459815 1_555
Mo1 S7 2.564039 1_565
Mo1 S4 2.581836 1_555
Mo2 S0 2.418850 1_555
Mo2 S3 2.438514 1_555
Mo2 S7 2.459815 1_555
Mo2 S5 2.564038 1_556
Mo2 S2 2.581836 1_555
Mo3 S1 2.418850 1_555
Mo3 S7 2.438514 1_555
Mo3 S2 2.459815 1_555
Mo3 S3 2.564038 1_455
Mo3 S6 2.581836 1_555
Mo4 S1 2.418850 1_555
Mo4 S5 2.438514 1_555
Mo4 S3 2.459815 1_555
Mo4 S4 2.564039 1_545
Mo4 S7 2.581836 1_555
Mo5 S1 2.418850 1_555
Mo5 S6 2.438514 1_555
Mo5 S4 2.459815 1_555
Mo5 S2 2.564038 1_554
Mo5 S5 2.581836 1_555
