# generated using pymatgen
data_NdN3O13
_symmetry_space_group_name_H-M   'P 1'
_cell_length_a   9.23245000
_cell_length_b   9.69649900
_cell_length_c   13.29184565
_cell_angle_alpha   78.90193397
_cell_angle_beta   90.00000000
_cell_angle_gamma   90.00000000
_symmetry_Int_Tables_number   1
_chemical_formula_structural   NdN3O13
_chemical_formula_sum   'Nd4 N12 O52'
_cell_volume   1167.66601123
_cell_formula_units_Z   4
loop_
 _symmetry_equiv_pos_site_id
 _symmetry_equiv_pos_as_xyz
  1  'x, y, z'
loop_
 _atom_site_type_symbol
 _atom_site_label
 _atom_site_symmetry_multiplicity
 _atom_site_fract_x
 _atom_site_fract_y
 _atom_site_fract_z
 _atom_site_occupancy
  Nd  Nd0  1  0.43891300  0.74812000  0.35645700  1
  Nd  Nd1  1  0.93891300  0.25188000  0.14354300  1
  Nd  Nd2  1  0.56108700  0.25188000  0.64354300  1
  Nd  Nd3  1  0.06108700  0.74812000  0.85645700  1
  N  N0  1  0.31804300  0.99517700  0.41642000  1
  N  N1  1  0.81804300  0.00482300  0.08358000  1
  N  N2  1  0.68195700  0.00482300  0.58358000  1
  N  N3  1  0.18195700  0.99517700  0.91642000  1
  N  N4  1  0.24366100  0.51226800  0.41012500  1
  N  N5  1  0.74366100  0.48773200  0.08987500  1
  N  N6  1  0.75633900  0.48773200  0.58987500  1
  N  N7  1  0.25633900  0.51226800  0.91012500  1
  N  N8  1  0.73675100  0.72097100  0.29447700  1
  N  N9  1  0.23675100  0.27902900  0.20552300  1
  N  N10  1  0.26324900  0.27902900  0.70552300  1
  N  N11  1  0.76324900  0.72097100  0.79447700  1
  O  O0  1  0.45451500  0.98032500  0.39553500  1
  O  O1  1  0.95451500  0.01967500  0.10446500  1
  O  O2  1  0.54548500  0.01967500  0.60446500  1
  O  O3  1  0.04548500  0.98032500  0.89553500  1
  O  O4  1  0.23588400  0.89145300  0.40399400  1
  O  O5  1  0.73588400  0.10854700  0.09600600  1
  O  O6  1  0.76411600  0.10854700  0.59600600  1
  O  O7  1  0.26411600  0.89145300  0.90399400  1
  O  O8  1  0.27237300  0.09863600  0.44587600  1
  O  O9  1  0.77237300  0.90136400  0.05412400  1
  O  O10  1  0.72762700  0.90136400  0.55412400  1
  O  O11  1  0.22762700  0.09863600  0.94587600  1
  O  O12  1  0.20734000  0.62221800  0.34346800  1
  O  O13  1  0.70734000  0.37778200  0.15653200  1
  O  O14  1  0.79266000  0.37778200  0.65653200  1
  O  O15  1  0.29266000  0.62221800  0.84346800  1
  O  O16  1  0.37640700  0.51374800  0.44459800  1
  O  O17  1  0.87640700  0.48625200  0.05540200  1
  O  O18  1  0.62359300  0.48625200  0.55540200  1
  O  O19  1  0.12359300  0.51374800  0.94459800  1
  O  O20  1  0.16247600  0.41411700  0.44041700  1
  O  O21  1  0.66247600  0.58588300  0.05958300  1
  O  O22  1  0.83752400  0.58588300  0.55958300  1
  O  O23  1  0.33752400  0.41411700  0.94041700  1
  O  O24  1  0.67498500  0.84244200  0.29254600  1
  O  O25  1  0.17498500  0.15755800  0.20745400  1
  O  O26  1  0.32501500  0.15755800  0.70745400  1
  O  O27  1  0.82501500  0.84244200  0.79254600  1
  O  O28  1  0.65262200  0.61302000  0.32303800  1
  O  O29  1  0.15262200  0.38698000  0.17696200  1
  O  O30  1  0.34737800  0.38698000  0.67696200  1
  O  O31  1  0.84737800  0.61302000  0.82303800  1
  O  O32  1  0.86310500  0.70970000  0.27140100  1
  O  O33  1  0.36310500  0.29030000  0.22859900  1
  O  O34  1  0.13689500  0.29030000  0.72859900  1
  O  O35  1  0.63689500  0.70970000  0.77140100  1
  O  O36  1  0.12667100  0.73768700  0.12862300  1
  O  O37  1  0.62667100  0.26231300  0.37137700  1
  O  O38  1  0.87332900  0.26231300  0.87137700  1
  O  O39  1  0.37332900  0.73768700  0.62862300  1
  O  O40  1  0.45830700  0.73274800  0.55826300  1
  O  O41  1  0.95830700  0.26725200  0.94173700  1
  O  O42  1  0.54169300  0.26725200  0.44173700  1
  O  O43  1  0.04169300  0.73274800  0.05826300  1
  O  O44  1  0.43821100  0.76433300  0.15564100  1
  O  O45  1  0.93821100  0.23566700  0.34435900  1
  O  O46  1  0.56178900  0.23566700  0.84435900  1
  O  O47  1  0.06178900  0.76433300  0.65564100  1
  O  O48  1  0.37344200  0.71367000  0.09046000  1
  O  O49  1  0.87344200  0.28633000  0.40954000  1
  O  O50  1  0.62655800  0.28633000  0.90954000  1
  O  O51  1  0.12655800  0.71367000  0.59046000  1
loop_
_geom_bond_atom_site_label_1
_geom_bond_atom_site_label_2
_geom_bond_distance
_geom_bond_site_symmetry_2
Nd0 O0 2.410471 1_555
Nd0 O16 2.417692 1_555
Nd0 O24 2.451395 1_555
Nd0 O28 2.455683 1_555
Nd0 O12 2.484413 1_555
Nd0 O4 2.486467 1_555
Nd0 O44 2.643468 1_555
Nd0 O40 2.663736 1_555
Nd1 O1 2.410471 1_555
Nd1 O17 2.417692 1_555
Nd1 O25 2.451395 1_655
Nd1 O29 2.455683 1_655
Nd1 O13 2.484413 1_555
Nd1 O5 2.486467 1_555
Nd1 O45 2.643468 1_555
Nd1 O41 2.663736 1_554
Nd2 O2 2.410471 1_555
Nd2 O18 2.417692 1_555
Nd2 O26 2.451395 1_555
Nd2 O30 2.455683 1_555
Nd2 O14 2.484413 1_555
Nd2 O6 2.486467 1_555
Nd2 O46 2.643468 1_555
Nd2 O42 2.663736 1_555
Nd3 O3 2.410471 1_555
Nd3 O19 2.417692 1_555
Nd3 O27 2.451395 1_455
Nd3 O31 2.455683 1_455
Nd3 O15 2.484413 1_555
Nd3 O7 2.486467 1_555
Nd3 O47 2.643468 1_555
Nd3 O43 2.663736 1_556
N0 O8 1.220113 1_565
N0 O4 1.295434 1_555
N0 O0 1.304116 1_555
N1 O9 1.220113 1_545
N1 O5 1.295434 1_555
N1 O1 1.304116 1_555
N2 O10 1.220113 1_545
N2 O6 1.295434 1_555
N2 O2 1.304116 1_555
N3 O11 1.220113 1_565
N3 O7 1.295434 1_555
N3 O3 1.304116 1_555
N4 O20 1.217445 1_555
N4 O12 1.292448 1_555
N4 O16 1.309472 1_555
N5 O21 1.217445 1_555
N5 O13 1.292448 1_555
N5 O17 1.309472 1_555
N6 O22 1.217445 1_555
N6 O14 1.292448 1_555
N6 O18 1.309472 1_555
N7 O23 1.217445 1_555
N7 O15 1.292448 1_555
N7 O19 1.309472 1_555
N8 O32 1.216463 1_555
N8 O28 1.300040 1_555
N8 O24 1.304424 1_555
N9 O33 1.216463 1_555
N9 O29 1.300040 1_555
N9 O25 1.304424 1_555
N10 O34 1.216463 1_555
N10 O30 1.300040 1_555
N10 O26 1.304424 1_555
N11 O35 1.216463 1_555
N11 O31 1.300040 1_555
N11 O27 1.304424 1_555
O36 O43 1.228694 1_555
O37 O42 1.228694 1_555
O38 O41 1.228694 1_555
O39 O40 1.228694 1_555
O44 O48 1.230188 1_555
O45 O49 1.230188 1_555
O46 O50 1.230188 1_555
O47 O51 1.230188 1_555
