# generated using pymatgen
data_Ba3Bi2RuO9
_symmetry_space_group_name_H-M   'P 1'
_cell_length_a   6.10967712
_cell_length_b   10.66877112
_cell_length_c   8.67198196
_cell_angle_alpha   65.37065119
_cell_angle_beta   89.73309372
_cell_angle_gamma   72.91660935
_symmetry_Int_Tables_number   1
_chemical_formula_structural   Ba3Bi2RuO9
_chemical_formula_sum   'Ba6 Bi4 Ru2 O18'
_cell_volume   486.63399994
_cell_formula_units_Z   2
loop_
 _symmetry_equiv_pos_site_id
 _symmetry_equiv_pos_as_xyz
  1  'x, y, z'
loop_
 _atom_site_type_symbol
 _atom_site_label
 _atom_site_symmetry_multiplicity
 _atom_site_fract_x
 _atom_site_fract_y
 _atom_site_fract_z
 _atom_site_occupancy
  Ba  Ba0  1  0.83423700  0.32604100  0.08125200  1
  Ba  Ba1  1  0.16829400  0.66358200  0.42465700  1
  Ba  Ba2  1  0.49699800  0.00410100  0.74216100  1
  Ba  Ba3  1  0.49907400  0.00728700  0.25207900  1
  Ba  Ba4  1  0.83632100  0.32923600  0.59116000  1
  Ba  Ba5  1  0.16503200  0.66976200  0.90866400  1
  Bi  Bi0  1  0.99916000  0.00285800  0.99860400  1
  Bi  Bi1  1  0.33421600  0.33043900  0.33474600  1
  Bi  Bi2  1  0.66667400  0.66666700  0.66668200  1
  Bi  Bi3  1  0.66669800  0.66665700  0.16668700  1
  Ru  Ru0  1  0.00086600  0.99865700  0.50069000  1
  Ru  Ru1  1  0.33250400  0.33469800  0.83266900  1
  O  O0  1  0.97178000  0.48026300  0.22901600  1
  O  O1  1  0.28833800  0.82754100  0.55804100  1
  O  O2  1  0.61843900  0.16516500  0.88937100  1
  O  O3  1  0.36154000  0.85308400  0.10430800  1
  O  O4  1  0.71489700  0.16817000  0.44394700  1
  O  O5  1  0.04497100  0.50579800  0.77528900  1
  O  O6  1  0.62548900  0.68995200  0.91092400  1
  O  O7  1  0.95930700  0.02300100  0.25961800  1
  O  O8  1  0.29683700  0.35225500  0.59404600  1
  O  O9  1  0.87415400  0.81009900  0.09346200  1
  O  O10  1  0.19398100  0.12957100  0.43291500  1
  O  O11  1  0.52110800  0.47043600  0.76202100  1
  O  O12  1  0.70783700  0.64338800  0.42239700  1
  O  O13  1  0.03648100  0.98108700  0.73927300  1
  O  O14  1  0.37402400  0.31032000  0.07373000  1
  O  O15  1  0.45917800  0.52322300  0.23987000  1
  O  O16  1  0.81223500  0.86289700  0.57130400  1
  O  O17  1  0.13932800  0.20376600  0.90041800  1
loop_
_geom_bond_atom_site_label_1
_geom_bond_atom_site_label_2
_geom_bond_distance
_geom_bond_site_symmetry_2
Ba0 O0 2.763166 1_555
Ba0 O7 2.796516 1_555
Ba0 O17 2.807979 1_654
Ba0 O14 2.868143 1_555
Ba0 O11 2.908649 1_554
Ba0 O4 3.089651 1_555
Ba0 O5 3.090843 1_654
Ba0 O10 3.248443 1_655
Ba0 O14 3.254354 1_655
Ba0 O15 3.334488 1_555
Ba0 O2 3.344167 1_554
Ba0 O6 3.348209 1_554
Ba1 O1 2.717323 1_555
Ba1 O8 2.866755 1_555
Ba1 O12 2.884662 1_455
Ba1 O15 2.894601 1_555
Ba1 O9 2.928771 1_455
Ba1 O5 3.017396 1_555
Ba1 O11 3.142640 1_555
Ba1 O3 3.144776 1_555
Ba1 O16 3.222080 1_455
Ba1 O12 3.240205 1_555
Ba1 O7 3.308881 1_465
Ba2 O2 2.778356 1_555
Ba2 O10 2.830082 1_555
Ba2 O16 2.881567 1_545
Ba2 O6 2.892709 1_545
Ba2 O13 2.896373 1_545
Ba2 O4 3.014674 1_555
Ba2 O3 3.112157 1_546
Ba2 O8 3.211115 1_555
Ba2 O13 3.233241 1_645
Ba2 O17 3.297012 1_555
Ba2 O9 3.298855 1_546
Ba2 O1 3.414612 1_545
Ba3 O3 2.763005 1_545
Ba3 O14 2.796450 1_555
Ba3 O10 2.808047 1_555
Ba3 O7 2.868246 1_555
Ba3 O16 2.908713 1_545
Ba3 O2 3.089814 1_554
Ba3 O1 3.090800 1_545
Ba3 O17 3.248442 1_554
Ba3 O7 3.254255 1_455
Ba3 O9 3.334585 1_545
Ba3 O4 3.344233 1_555
Ba3 O12 3.348106 1_545
Ba4 O4 2.778347 1_555
Ba4 O17 2.830129 1_655
Ba4 O11 2.881494 1_555
Ba4 O12 2.892739 1_555
Ba4 O8 2.896386 1_655
Ba4 O2 3.014603 1_555
Ba4 O0 3.112157 1_555
Ba4 O13 3.211069 1_645
Ba4 O8 3.233235 1_555
Ba4 O10 3.296912 1_655
Ba4 O15 3.298744 1_555
Ba4 O5 3.414652 1_655
Ba5 O5 2.717365 1_555
Ba5 O13 2.866734 1_555
Ba5 O6 2.884646 1_555
Ba5 O9 2.894524 1_456
Ba5 O15 2.928848 1_556
Ba5 O1 3.017282 1_555
Ba5 O16 3.142558 1_455
Ba5 O0 3.144800 1_456
Ba5 O11 3.222180 1_555
Ba5 O6 3.240215 1_455
Ba5 O14 3.309083 1_556
Bi0 O9 2.235200 1_546
Bi0 O3 2.239416 1_646
Bi0 O13 2.358610 1_645
Bi0 O2 2.365022 1_555
Bi0 O7 2.366115 1_556
Bi0 O17 2.367111 1_655
Bi1 O15 2.235264 1_555
Bi1 O0 2.239844 1_455
Bi1 O8 2.358589 1_555
Bi1 O4 2.364694 1_555
Bi1 O14 2.365995 1_555
Bi1 O10 2.367003 1_555
Bi2 O6 2.237876 1_555
Bi2 O12 2.238205 1_555
Bi2 O16 2.345563 1_555
Bi2 O11 2.345599 1_555
Bi2 O5 2.348836 1_655
Bi2 O1 2.349064 1_555
Bi3 O12 2.133509 1_555
Bi3 O6 2.133905 1_554
Bi3 O0 2.157945 1_555
Bi3 O3 2.158363 1_555
Bi3 O9 2.161917 1_555
Bi3 O15 2.162164 1_555
O1 Ru0 2.008103 1_555
O2 Ru1 1.993839 1_555
O4 Ru0 1.993804 1_645
O5 Ru1 2.008204 1_555
O7 Ru0 2.004011 1_645
O8 Ru1 2.005459 1_555
O10 Ru0 1.991433 1_545
O11 Ru1 2.008650 1_555
O13 Ru0 2.005036 1_555
O14 Ru1 2.003770 1_554
O16 Ru0 2.008958 1_655
O17 Ru1 1.991874 1_555
