# generated using pymatgen
data_VIr
_symmetry_space_group_name_H-M   'P 1'
_cell_length_a   5.27365639
_cell_length_b   5.27365639
_cell_length_c   3.96012057
_cell_angle_alpha   90.00000000
_cell_angle_beta   90.00000000
_cell_angle_gamma   94.50061776
_symmetry_Int_Tables_number   1
_chemical_formula_structural   VIr
_chemical_formula_sum   'V4 Ir4'
_cell_volume   109.79709402
_cell_formula_units_Z   4
loop_
 _symmetry_equiv_pos_site_id
 _symmetry_equiv_pos_as_xyz
  1  'x, y, z'
loop_
 _atom_site_type_symbol
 _atom_site_label
 _atom_site_symmetry_multiplicity
 _atom_site_fract_x
 _atom_site_fract_y
 _atom_site_fract_z
 _atom_site_occupancy
  V  V0  1  0.00000000  0.00000000  0.00000000  1
  V  V1  1  0.50000000  0.50000000  0.00000000  1
  V  V2  1  0.21491289  0.78508711  0.50000000  1
  V  V3  1  0.78508711  0.21491289  0.50000000  1
  Ir  Ir0  1  0.50000000  0.00000000  0.00000000  1
  Ir  Ir1  1  0.00000000  0.50000000  0.00000000  1
  Ir  Ir2  1  0.27712429  0.27712429  0.50000000  1
  Ir  Ir3  1  0.72287571  0.72287571  0.50000000  1
loop_
_geom_bond_atom_site_label_1
_geom_bond_atom_site_label_2
_geom_bond_distance
_geom_bond_site_symmetry_2
V0 V3 2.586759 1_455
V0 V3 2.586759 1_454
V0 V2 2.586759 1_544
V0 V2 2.586759 1_545
Ir0 V0 2.636828 1_655
Ir0 V0 2.636828 1_555
Ir0 V1 2.636828 1_555
Ir0 V1 2.636828 1_545
Ir0 V3 2.682932 1_555
Ir0 V2 2.682932 1_544
Ir0 V2 2.682932 1_545
Ir0 V3 2.682932 1_554
Ir1 V0 2.636828 1_555
Ir1 V1 2.636828 1_555
Ir1 V1 2.636828 1_455
Ir1 V0 2.636828 1_565
Ir1 V3 2.682932 1_455
Ir1 V2 2.682932 1_554
Ir1 V3 2.682932 1_454
Ir1 V2 2.682932 1_555
Ir2 V1 2.542994 1_555
Ir2 V1 2.542994 1_556
Ir2 V2 2.589826 1_545
Ir2 V3 2.589826 1_455
Ir2 V3 2.724271 1_555
Ir2 V2 2.724271 1_555
Ir2 V0 2.803062 1_556
Ir2 V0 2.803062 1_555
Ir3 V1 2.542994 1_556
Ir3 V1 2.542994 1_555
Ir3 V3 2.589826 1_565
Ir3 V2 2.589826 1_655
Ir3 V2 2.724271 1_555
Ir3 V3 2.724271 1_555
Ir3 V0 2.803062 1_665
Ir3 V0 2.803062 1_666
