# generated using pymatgen
data_LiCrP2O7
_symmetry_space_group_name_H-M   'P 1'
_cell_length_a   8.18370600
_cell_length_b   4.86832800
_cell_length_c   7.00223732
_cell_angle_alpha   71.55122340
_cell_angle_beta   90.00000000
_cell_angle_gamma   90.00000000
_symmetry_Int_Tables_number   1
_chemical_formula_structural   LiCrP2O7
_chemical_formula_sum   'Li2 Cr2 P4 O14'
_cell_volume   264.63847095
_cell_formula_units_Z   2
loop_
 _symmetry_equiv_pos_site_id
 _symmetry_equiv_pos_as_xyz
  1  'x, y, z'
loop_
 _atom_site_type_symbol
 _atom_site_label
 _atom_site_symmetry_multiplicity
 _atom_site_fract_x
 _atom_site_fract_y
 _atom_site_fract_z
 _atom_site_occupancy
  Li  Li0  1  0.88589400  0.82093800  0.17461200  1
  Li  Li1  1  0.38589400  0.17906200  0.82538800  1
  Cr  Cr0  1  0.74863100  0.21494900  0.77119400  1
  Cr  Cr1  1  0.24863100  0.78505100  0.22880600  1
  P  P0  1  0.06821700  0.39856300  0.97769600  1
  P  P1  1  0.56821700  0.60143700  0.02230400  1
  P  P2  1  0.96529300  0.78452300  0.58652000  1
  P  P3  1  0.46529300  0.21547700  0.41348000  1
  O  O0  1  0.09848000  0.59334700  0.74704500  1
  O  O1  1  0.59848000  0.40665300  0.25295500  1
  O  O2  1  0.06866100  0.59824800  0.10813300  1
  O  O3  1  0.56866100  0.40175200  0.89186700  1
  O  O4  1  0.31507000  0.40210800  0.41661500  1
  O  O5  1  0.81507000  0.59789200  0.58338500  1
  O  O6  1  0.55524500  0.13544000  0.61561400  1
  O  O7  1  0.05524500  0.86456000  0.38438600  1
  O  O8  1  0.42522000  0.94857200  0.35442400  1
  O  O9  1  0.92522000  0.05142800  0.64557600  1
  O  O10  1  0.40147500  0.75150000  0.01036000  1
  O  O11  1  0.90147500  0.24850000  0.98964000  1
  O  O12  1  0.71011500  0.81732700  0.98112000  1
  O  O13  1  0.21011500  0.18267300  0.01888000  1
loop_
_geom_bond_atom_site_label_1
_geom_bond_atom_site_label_2
_geom_bond_distance
_geom_bond_site_symmetry_2
Li0 O12 1.980006 1_554
Li0 O2 1.987105 1_655
Li0 O11 2.078509 1_564
Li0 O7 2.078685 1_655
Li1 O13 1.980006 1_556
Li1 O3 1.987105 1_555
Li1 O10 2.078509 1_546
Li1 O6 2.078685 1_555
Cr0 O9 1.984715 1_555
Cr0 O5 1.987195 1_555
Cr0 O11 2.022151 1_555
Cr0 O6 2.026868 1_555
Cr0 O3 2.048559 1_555
Cr0 O12 2.050932 1_545
Cr1 O8 1.984715 1_555
Cr1 O4 1.987195 1_555
Cr1 O10 2.022151 1_555
Cr1 O7 2.026868 1_555
Cr1 O2 2.048559 1_555
Cr1 O13 2.050932 1_565
O0 P0 1.612356 1_555
O0 P2 1.629592 1_455
O1 P1 1.612356 1_555
O1 P3 1.629592 1_555
O2 P0 1.530107 1_554
O3 P1 1.530107 1_556
O4 P3 1.532972 1_555
O5 P2 1.532972 1_555
O6 P3 1.532320 1_555
O7 P2 1.532320 1_455
O8 P3 1.518888 1_565
O9 P2 1.518888 1_545
O10 P1 1.537557 1_555
O11 P0 1.537557 1_655
O12 P1 1.531171 1_556
O13 P0 1.531171 1_554
