# generated using pymatgen
data_LiMn(PO3)5
_symmetry_space_group_name_H-M   'P 1'
_cell_length_a   13.63464900
_cell_length_b   9.01755100
_cell_length_c   10.32700345
_cell_angle_alpha   80.23933149
_cell_angle_beta   90.00000000
_cell_angle_gamma   90.00000000
_symmetry_Int_Tables_number   1
_chemical_formula_structural   LiMn(PO3)5
_chemical_formula_sum   'Li4 Mn4 P20 O60'
_cell_volume   1251.33709935
_cell_formula_units_Z   4
loop_
 _symmetry_equiv_pos_site_id
 _symmetry_equiv_pos_as_xyz
  1  'x, y, z'
loop_
 _atom_site_type_symbol
 _atom_site_label
 _atom_site_symmetry_multiplicity
 _atom_site_fract_x
 _atom_site_fract_y
 _atom_site_fract_z
 _atom_site_occupancy
  Li  Li0  1  0.61286000  0.08726800  0.22102800  1
  Li  Li1  1  0.88714000  0.08726800  0.72102800  1
  Li  Li2  1  0.38714000  0.91273200  0.77897200  1
  Li  Li3  1  0.11286000  0.91273200  0.27897200  1
  Mn  Mn0  1  0.50000000  0.50000000  0.00000000  1
  Mn  Mn1  1  0.00000000  0.50000000  0.00000000  1
  Mn  Mn2  1  0.00000000  0.50000000  0.50000000  1
  Mn  Mn3  1  0.50000000  0.50000000  0.50000000  1
  P  P0  1  0.63761200  0.52205400  0.74949800  1
  P  P1  1  0.74395000  0.99641100  0.47935700  1
  P  P2  1  0.35760500  0.47861200  0.74583600  1
  P  P3  1  0.41250600  0.19099000  0.92332100  1
  P  P4  1  0.36238800  0.47794600  0.25050200  1
  P  P5  1  0.24395000  0.00358900  0.02064300  1
  P  P6  1  0.64239500  0.52138800  0.25416400  1
  P  P7  1  0.91250600  0.80901000  0.57667900  1
  P  P8  1  0.08749400  0.19099000  0.42332100  1
  P  P9  1  0.93321000  0.80641500  0.09359300  1
  P  P10  1  0.25605000  0.00358900  0.52064300  1
  P  P11  1  0.13761200  0.47794600  0.75050200  1
  P  P12  1  0.86238800  0.52205400  0.24949800  1
  P  P13  1  0.14239500  0.47861200  0.24583600  1
  P  P14  1  0.43321000  0.19358500  0.40640700  1
  P  P15  1  0.06679000  0.19358500  0.90640700  1
  P  P16  1  0.75605000  0.99641100  0.97935700  1
  P  P17  1  0.56679000  0.80641500  0.59359300  1
  P  P18  1  0.85760500  0.52138800  0.75416400  1
  P  P19  1  0.58749400  0.80901000  0.07667900  1
  O  O0  1  0.73665700  0.07919200  0.09125900  1
  O  O1  1  0.07240400  0.55846000  0.83659400  1
  O  O2  1  0.01195900  0.29321500  0.98903900  1
  O  O3  1  0.26670300  0.90779700  0.65378700  1
  O  O4  1  0.26334300  0.92080800  0.90874100  1
  O  O5  1  0.64631000  0.69509400  0.19190800  1
  O  O6  1  0.62559100  0.50866500  0.40219700  1
  O  O7  1  0.98804100  0.70678500  0.01096100  1
  O  O8  1  0.12559100  0.49133500  0.09780300  1
  O  O9  1  0.76334300  0.07919200  0.59125900  1
  O  O10  1  0.64615900  0.89318800  0.49811500  1
  O  O11  1  0.13790700  0.30221000  0.80325400  1
  O  O12  1  0.04573100  0.06776800  0.36367700  1
  O  O13  1  0.36209300  0.30221000  0.30325400  1
  O  O14  1  0.02154200  0.28676000  0.49423200  1
  O  O15  1  0.61913200  0.49032800  0.89526900  1
  O  O16  1  0.07817500  0.57010500  0.31886700  1
  O  O17  1  0.85384100  0.89318800  0.99811500  1
  O  O18  1  0.35369000  0.30490600  0.80809200  1
  O  O19  1  0.97845800  0.71324000  0.50576800  1
  O  O20  1  0.45426900  0.06776800  0.86367700  1
  O  O21  1  0.74704200  0.46946000  0.73139400  1
  O  O22  1  0.37440900  0.49133500  0.59780300  1
  O  O23  1  0.95426900  0.93223200  0.63632300  1
  O  O24  1  0.86209300  0.69779000  0.19674600  1
  O  O25  1  0.42182500  0.57010500  0.81886700  1
  O  O26  1  0.54573100  0.93223200  0.13632300  1
  O  O27  1  0.88086800  0.49032800  0.39526900  1
  O  O28  1  0.50521000  0.90291700  0.66162700  1
  O  O29  1  0.82422000  0.86409700  0.47490600  1
  O  O30  1  0.51195900  0.70678500  0.51096100  1
  O  O31  1  0.35384100  0.10681200  0.50188500  1
  O  O32  1  0.42759600  0.55846000  0.33659400  1
  O  O33  1  0.99479000  0.90291700  0.16162700  1
  O  O34  1  0.32422000  0.13590300  0.02509400  1
  O  O35  1  0.87440900  0.50866500  0.90219700  1
  O  O36  1  0.49479000  0.09708300  0.33837300  1
  O  O37  1  0.48804100  0.29321500  0.48903900  1
  O  O38  1  0.73329700  0.09220300  0.34621300  1
  O  O39  1  0.92182500  0.42989500  0.68113300  1
  O  O40  1  0.63790700  0.69779000  0.69674600  1
  O  O41  1  0.25295800  0.53054000  0.26860600  1
  O  O42  1  0.23665700  0.92080800  0.40874100  1
  O  O43  1  0.76670300  0.09220300  0.84621300  1
  O  O44  1  0.47845800  0.28676000  0.99423200  1
  O  O45  1  0.24704200  0.53054000  0.76860600  1
  O  O46  1  0.11913200  0.50967200  0.60473100  1
  O  O47  1  0.85369000  0.69509400  0.69190800  1
  O  O48  1  0.57240400  0.44154000  0.66340600  1
  O  O49  1  0.17578000  0.13590300  0.52509400  1
  O  O50  1  0.23329700  0.90779700  0.15378700  1
  O  O51  1  0.14615900  0.10681200  0.00188500  1
  O  O52  1  0.57817500  0.42989500  0.18113300  1
  O  O53  1  0.67578000  0.86409700  0.97490600  1
  O  O54  1  0.75295800  0.46946000  0.23139400  1
  O  O55  1  0.14631000  0.30490600  0.30809200  1
  O  O56  1  0.92759600  0.44154000  0.16340600  1
  O  O57  1  0.00521000  0.09708300  0.83837300  1
  O  O58  1  0.52154200  0.71324000  0.00576800  1
  O  O59  1  0.38086800  0.50967200  0.10473100  1
loop_
_geom_bond_atom_site_label_1
_geom_bond_atom_site_label_2
_geom_bond_distance
_geom_bond_site_symmetry_2
Li0 O26 1.993015 1_545
Li0 O36 2.025909 1_555
Li0 O38 2.095072 1_555
Li0 O0 2.164124 1_555
Li1 O23 1.993015 1_545
Li1 O57 2.025909 1_655
Li1 O43 2.095072 1_555
Li1 O9 2.164124 1_555
Li2 O20 1.993015 1_565
Li2 O28 2.025909 1_555
Li2 O3 2.095072 1_555
Li2 O4 2.164124 1_555
Li3 O12 1.993015 1_565
Li3 O33 2.025909 1_455
Li3 O50 2.095072 1_555
Li3 O42 2.164124 1_555
Mn0 O44 1.956070 1_554
Mn0 O58 1.956070 1_555
Mn0 O59 1.961577 1_555
Mn0 O15 1.961577 1_554
Mn0 O25 2.152629 1_554
Mn0 O52 2.152629 1_555
Mn1 O2 1.894216 1_554
Mn1 O7 1.894216 1_455
Mn1 O56 1.948969 1_455
Mn1 O1 1.948969 1_554
Mn1 O8 1.982863 1_555
Mn1 O35 1.982863 1_454
Mn2 O14 1.956070 1_555
Mn2 O19 1.956070 1_455
Mn2 O46 1.961577 1_555
Mn2 O27 1.961577 1_455
Mn2 O39 2.152629 1_455
Mn2 O16 2.152629 1_555
Mn3 O37 1.894216 1_555
Mn3 O30 1.894216 1_555
Mn3 O32 1.948969 1_555
Mn3 O48 1.948969 1_555
Mn3 O22 1.982863 1_555
Mn3 O6 1.982863 1_555
O0 P16 1.501694 1_544
O1 P11 1.525427 1_555
O2 P15 1.534341 1_555
O3 P10 1.501704 1_565
O4 P5 1.501694 1_566
O5 P6 1.590078 1_555
O5 P19 1.643134 1_555
O6 P6 1.530760 1_555
O7 P9 1.534341 1_555
O8 P13 1.530760 1_555
O9 P1 1.501694 1_545
O10 P17 1.579229 1_555
O10 P1 1.618834 1_555
O11 P11 1.585993 1_555
O11 P15 1.637283 1_555
O12 P8 1.473217 1_555
O13 P4 1.585993 1_555
O13 P14 1.637283 1_555
O14 P8 1.518267 1_555
O15 P0 1.505148 1_555
O16 P13 1.492376 1_555
O17 P9 1.579229 1_556
O17 P16 1.618834 1_555
O18 P2 1.590078 1_555
O18 P3 1.643134 1_555
O19 P7 1.518267 1_555
O20 P3 1.473217 1_555
O21 P0 1.586232 1_555
O21 P18 1.607613 1_555
O22 P2 1.530760 1_555
O23 P7 1.473217 1_555
O24 P12 1.585993 1_555
O24 P9 1.637283 1_555
O25 P2 1.492376 1_555
O26 P19 1.473217 1_555
O27 P12 1.505148 1_555
O28 P17 1.470771 1_555
O29 P7 1.619682 1_555
O29 P1 1.625466 1_555
O30 P17 1.534341 1_555
O31 P14 1.579229 1_555
O31 P10 1.618834 1_555
O32 P4 1.525427 1_555
O33 P9 1.470771 1_555
O34 P3 1.619682 1_554
O34 P5 1.625466 1_555
O35 P18 1.530760 1_555
O36 P14 1.470771 1_555
O37 P14 1.534341 1_555
O38 P1 1.501704 1_545
O39 P18 1.492376 1_555
O40 P0 1.585993 1_555
O40 P17 1.637283 1_555
O41 P4 1.586232 1_555
O41 P13 1.607613 1_555
O42 P10 1.501694 1_565
O43 P16 1.501704 1_545
O44 P3 1.518267 1_555
O45 P11 1.586232 1_555
O45 P2 1.607613 1_555
O46 P11 1.505148 1_555
O47 P18 1.590078 1_555
O47 P7 1.643134 1_555
O48 P0 1.525427 1_555
O49 P8 1.619682 1_555
O49 P10 1.625466 1_555
O50 P5 1.501704 1_565
O51 P15 1.579229 1_554
O51 P5 1.618834 1_555
O52 P6 1.492376 1_555
O53 P19 1.619682 1_556
O53 P16 1.625466 1_555
O54 P12 1.586232 1_555
O54 P6 1.607613 1_555
O55 P13 1.590078 1_555
O55 P8 1.643134 1_555
O56 P12 1.525427 1_555
O57 P15 1.470771 1_555
O58 P19 1.518267 1_555
O59 P4 1.505148 1_555
