# generated using pymatgen
data_LuB2Ir3
_symmetry_space_group_name_H-M   'P 1'
_cell_length_a   6.26814959
_cell_length_b   10.80842449
_cell_length_c   10.80779000
_cell_angle_alpha   59.99805785
_cell_angle_beta   89.99300726
_cell_angle_gamma   89.98602606
_symmetry_Int_Tables_number   1
_chemical_formula_structural   LuB2Ir3
_chemical_formula_sum   'Lu8 B16 Ir24'
_cell_volume   634.10439292
_cell_formula_units_Z   8
loop_
 _symmetry_equiv_pos_site_id
 _symmetry_equiv_pos_as_xyz
  1  'x, y, z'
loop_
 _atom_site_type_symbol
 _atom_site_label
 _atom_site_symmetry_multiplicity
 _atom_site_fract_x
 _atom_site_fract_y
 _atom_site_fract_z
 _atom_site_occupancy
  Lu  Lu0_0  1  0.25000000  0.25000000  0.00000000  1
  Lu  Lu0_1  1  0.25000000  0.25000000  0.50000000  1
  Lu  Lu0_2  1  0.25000000  0.75000000  0.00000000  1
  Lu  Lu0_3  1  0.25000000  0.75000000  0.50000000  1
  Lu  Lu0_4  1  0.75000000  0.25000000  0.00000000  1
  Lu  Lu0_5  1  0.75000000  0.25000000  0.50000000  1
  Lu  Lu0_6  1  0.75000000  0.75000000  0.00000000  1
  Lu  Lu0_7  1  0.75000000  0.75000000  0.50000000  1
  B  B0_0  1  0.25000000  0.08334336  0.33331228  1
  B  B0_1  1  0.25000000  0.08334336  0.83331228  1
  B  B0_2  1  0.25000000  0.58334336  0.33331228  1
  B  B0_3  1  0.25000000  0.58334336  0.83331228  1
  B  B0_4  1  0.75000000  0.08334336  0.33331228  1
  B  B0_5  1  0.75000000  0.08334336  0.83331228  1
  B  B0_6  1  0.75000000  0.58334336  0.33331228  1
  B  B0_7  1  0.75000000  0.58334336  0.83331228  1
  B  B1_0  1  0.25000000  0.41665664  0.16668772  1
  B  B1_1  1  0.25000000  0.41665664  0.66668772  1
  B  B1_2  1  0.25000000  0.91665664  0.16668772  1
  B  B1_3  1  0.25000000  0.91665664  0.66668772  1
  B  B1_4  1  0.75000000  0.41665664  0.16668772  1
  B  B1_5  1  0.75000000  0.41665664  0.66668772  1
  B  B1_6  1  0.75000000  0.91665664  0.16668772  1
  B  B1_7  1  0.75000000  0.91665664  0.66668772  1
  Ir  Ir0_0  1  0.00000000  0.00000000  0.25000000  1
  Ir  Ir0_1  1  0.00000000  1.00000000  0.75000000  1
  Ir  Ir0_2  1  0.00000000  0.50000000  0.25000000  1
  Ir  Ir0_3  1  0.00000000  0.50000000  0.75000000  1
  Ir  Ir0_4  1  0.50000000  0.00000000  0.25000000  1
  Ir  Ir0_5  1  0.50000000  0.00000000  0.75000000  1
  Ir  Ir0_6  1  0.50000000  0.50000000  0.25000000  1
  Ir  Ir0_7  1  0.50000000  0.50000000  0.75000000  1
  Ir  Ir1_0  1  0.00000000  0.25000000  0.25000000  1
  Ir  Ir1_1  1  0.00000000  0.25000000  0.75000000  1
  Ir  Ir1_2  1  0.00000000  0.75000000  0.25000000  1
  Ir  Ir1_3  1  0.00000000  0.75000000  0.75000000  1
  Ir  Ir1_4  1  0.50000000  0.25000000  0.25000000  1
  Ir  Ir1_5  1  0.50000000  0.25000000  0.75000000  1
  Ir  Ir1_6  1  0.50000000  0.75000000  0.25000000  1
  Ir  Ir1_7  1  0.50000000  0.75000000  0.75000000  1
  Ir  Ir2_0  1  0.00000000  0.00000000  0.00000000  1
  Ir  Ir2_1  1  0.00000000  0.00000000  0.50000000  1
  Ir  Ir2_2  1  0.00000000  0.50000000  0.00000000  1
  Ir  Ir2_3  1  0.00000000  0.50000000  0.50000000  1
  Ir  Ir2_4  1  0.50000000  0.00000000  0.00000000  1
  Ir  Ir2_5  1  0.50000000  0.00000000  0.50000000  1
  Ir  Ir2_6  1  0.50000000  0.50000000  0.00000000  1
  Ir  Ir2_7  1  0.50000000  0.50000000  0.50000000  1
loop_
_geom_bond_atom_site_label_1
_geom_bond_atom_site_label_2
_geom_bond_distance
_geom_bond_site_symmetry_2
Lu0_0 Lu0_4 3.134075 1_555
Lu0_0 Lu0_4 3.134075 1_455
Lu0_1 Lu0_5 3.134075 1_455
Lu0_1 Lu0_5 3.134075 1_555
Lu0_2 Lu0_6 3.134075 1_555
Lu0_2 Lu0_6 3.134075 1_455
Lu0_3 Lu0_7 3.134075 1_555
Lu0_3 Lu0_7 3.134075 1_455
B0_0 Ir0_4 2.210871 1_555
B0_0 Ir1_0 2.210877 1_555
B0_0 Ir2_1 2.211251 1_555
B0_0 Ir2_5 2.211251 1_555
B0_0 Ir0_0 2.211338 1_555
B0_0 Ir1_4 2.211344 1_555
B0_0 Lu0_0 3.119682 1_555
B0_0 Lu0_3 3.120156 1_545
B0_0 Lu0_1 3.120166 1_555
B0_1 Ir0_5 2.210871 1_555
B0_1 Ir1_1 2.210877 1_555
B0_1 Ir2_0 2.211251 1_556
B0_1 Ir2_4 2.211251 1_556
B0_1 Ir0_1 2.211338 1_545
B0_1 Ir1_5 2.211344 1_555
B0_1 Lu0_1 3.119682 1_555
B0_1 Lu0_2 3.120156 1_546
B0_1 Lu0_0 3.120166 1_556
B0_2 Ir0_6 2.210871 1_555
B0_2 Ir1_2 2.210877 1_555
B0_2 Ir2_3 2.211251 1_555
B0_2 Ir2_7 2.211251 1_555
B0_2 Ir0_2 2.211338 1_555
B0_2 Ir1_6 2.211344 1_555
B0_2 Lu0_2 3.119682 1_555
B0_2 Lu0_1 3.120156 1_555
B0_2 Lu0_3 3.120166 1_555
B0_3 Ir0_7 2.210871 1_555
B0_3 Ir1_3 2.210877 1_555
B0_3 Ir2_2 2.211251 1_556
B0_3 Ir2_6 2.211251 1_556
B0_3 Ir0_3 2.211338 1_555
B0_3 Ir1_7 2.211344 1_555
B0_3 Lu0_3 3.119682 1_555
B0_3 Lu0_0 3.120156 1_556
B0_3 Lu0_2 3.120166 1_556
B0_4 Ir0_0 2.210871 1_655
B0_4 Ir1_4 2.210877 1_555
B0_4 Ir2_5 2.211251 1_555
B0_4 Ir2_1 2.211251 1_655
B0_4 Ir0_4 2.211338 1_555
B0_4 Ir1_0 2.211344 1_655
B0_4 Lu0_4 3.119682 1_555
B0_4 Lu0_7 3.120156 1_545
B0_4 Lu0_5 3.120166 1_555
B0_5 Ir0_1 2.210871 1_645
B0_5 Ir1_5 2.210877 1_555
B0_5 Ir2_4 2.211251 1_556
B0_5 Ir2_0 2.211251 1_656
B0_5 Ir0_5 2.211338 1_555
B0_5 Ir1_1 2.211344 1_655
B0_5 Lu0_5 3.119682 1_555
B0_5 Lu0_6 3.120156 1_546
B0_5 Lu0_4 3.120166 1_556
B0_6 Ir0_2 2.210871 1_655
B0_6 Ir1_6 2.210877 1_555
B0_6 Ir2_7 2.211251 1_555
B0_6 Ir2_3 2.211251 1_655
B0_6 Ir0_6 2.211338 1_555
B0_6 Ir1_2 2.211344 1_655
B0_6 Lu0_6 3.119682 1_555
B0_6 Lu0_5 3.120156 1_555
B0_6 Lu0_7 3.120166 1_555
B0_7 Ir0_3 2.210871 1_655
B0_7 Ir1_7 2.210877 1_555
B0_7 Ir2_6 2.211251 1_556
B0_7 Ir2_2 2.211251 1_656
B0_7 Ir0_7 2.211338 1_555
B0_7 Ir1_3 2.211344 1_655
B0_7 Lu0_7 3.119682 1_555
B0_7 Lu0_4 3.120156 1_556
B0_7 Lu0_6 3.120166 1_556
B1_0 Ir0_2 2.210871 1_555
B1_0 Ir1_4 2.210877 1_555
B1_0 Ir2_6 2.211251 1_555
B1_0 Ir2_2 2.211251 1_555
B1_0 Ir0_6 2.211338 1_555
B1_0 Ir1_0 2.211344 1_555
B1_0 Lu0_1 3.119682 1_555
B1_0 Lu0_2 3.120156 1_555
B1_0 Lu0_0 3.120166 1_555
B1_1 Ir0_3 2.210871 1_555
B1_1 Ir1_5 2.210877 1_555
B1_1 Ir2_7 2.211251 1_555
B1_1 Ir2_3 2.211251 1_555
B1_1 Ir0_7 2.211338 1_555
B1_1 Ir1_1 2.211344 1_555
B1_1 Lu0_0 3.119682 1_556
B1_1 Lu0_3 3.120156 1_555
B1_1 Lu0_1 3.120166 1_555
B1_2 Ir0_0 2.210871 1_565
B1_2 Ir1_6 2.210877 1_555
B1_2 Ir2_4 2.211251 1_565
B1_2 Ir2_0 2.211251 1_565
B1_2 Ir0_4 2.211338 1_565
B1_2 Ir1_2 2.211344 1_555
B1_2 Lu0_3 3.119682 1_555
B1_2 Lu0_0 3.120156 1_565
B1_2 Lu0_2 3.120166 1_555
B1_3 Ir0_1 2.210871 1_555
B1_3 Ir1_7 2.210877 1_555
B1_3 Ir2_5 2.211251 1_565
B1_3 Ir2_1 2.211251 1_565
B1_3 Ir0_5 2.211338 1_565
B1_3 Ir1_3 2.211344 1_555
B1_3 Lu0_2 3.119682 1_556
B1_3 Lu0_1 3.120156 1_565
B1_3 Lu0_3 3.120166 1_555
B1_4 Ir0_6 2.210871 1_555
B1_4 Ir1_0 2.210877 1_655
B1_4 Ir2_2 2.211251 1_655
B1_4 Ir2_6 2.211251 1_555
B1_4 Ir0_2 2.211338 1_655
B1_4 Ir1_4 2.211344 1_555
B1_4 Lu0_5 3.119682 1_555
B1_4 Lu0_6 3.120156 1_555
B1_4 Lu0_4 3.120166 1_555
B1_5 Ir0_7 2.210871 1_555
B1_5 Ir1_1 2.210877 1_655
B1_5 Ir2_3 2.211251 1_655
B1_5 Ir2_7 2.211251 1_555
B1_5 Ir0_3 2.211338 1_655
B1_5 Ir1_5 2.211344 1_555
B1_5 Lu0_4 3.119682 1_556
B1_5 Lu0_7 3.120156 1_555
B1_5 Lu0_5 3.120166 1_555
B1_6 Ir0_4 2.210871 1_565
B1_6 Ir1_2 2.210877 1_655
B1_6 Ir2_0 2.211251 1_665
B1_6 Ir2_4 2.211251 1_565
B1_6 Ir0_0 2.211338 1_665
B1_6 Ir1_6 2.211344 1_555
B1_6 Lu0_7 3.119682 1_555
B1_6 Lu0_4 3.120156 1_565
B1_6 Lu0_6 3.120166 1_555
B1_7 Ir0_5 2.210871 1_565
B1_7 Ir1_3 2.210877 1_655
B1_7 Ir2_1 2.211251 1_665
B1_7 Ir2_5 2.211251 1_565
B1_7 Ir0_1 2.211338 1_655
B1_7 Ir1_7 2.211344 1_555
B1_7 Lu0_6 3.119682 1_556
B1_7 Lu0_5 3.120156 1_565
B1_7 Lu0_7 3.120166 1_555
Ir0_0 Lu0_4 3.123315 1_455
Ir0_0 Lu0_3 3.123315 1_545
Ir0_0 Lu0_0 3.123645 1_555
Ir0_0 Lu0_7 3.123645 1_445
Ir0_1 Lu0_2 3.123315 1_556
Ir0_1 Lu0_5 3.123315 1_465
Ir0_1 Lu0_6 3.123645 1_456
Ir0_1 Lu0_1 3.123645 1_565
Ir0_2 Lu0_6 3.123315 1_455
Ir0_2 Lu0_1 3.123315 1_555
Ir0_2 Lu0_2 3.123645 1_555
Ir0_2 Lu0_5 3.123645 1_455
Ir0_3 Lu0_0 3.123315 1_556
Ir0_3 Lu0_7 3.123315 1_455
Ir0_3 Lu0_3 3.123645 1_555
Ir0_3 Lu0_4 3.123645 1_456
Ir0_4 Lu0_7 3.123315 1_545
Ir0_4 Lu0_0 3.123315 1_555
Ir0_4 Lu0_4 3.123645 1_555
Ir0_4 Lu0_3 3.123645 1_545
Ir0_5 Lu0_1 3.123315 1_555
Ir0_5 Lu0_6 3.123315 1_546
Ir0_5 Lu0_5 3.123645 1_555
Ir0_5 Lu0_2 3.123645 1_546
Ir0_6 Lu0_2 3.123315 1_555
Ir0_6 Lu0_5 3.123315 1_555
Ir0_6 Lu0_1 3.123645 1_555
Ir0_6 Lu0_6 3.123645 1_555
Ir0_7 Lu0_3 3.123315 1_555
Ir0_7 Lu0_4 3.123315 1_556
Ir0_7 Lu0_0 3.123645 1_556
Ir0_7 Lu0_7 3.123645 1_555
Ir1_0 Lu0_5 3.123314 1_455
Ir1_0 Lu0_0 3.123314 1_555
Ir1_0 Lu0_1 3.123645 1_555
Ir1_0 Lu0_4 3.123645 1_455
Ir1_1 Lu0_1 3.123314 1_555
Ir1_1 Lu0_4 3.123314 1_456
Ir1_1 Lu0_0 3.123645 1_556
Ir1_1 Lu0_5 3.123645 1_455
Ir1_2 Lu0_2 3.123314 1_555
Ir1_2 Lu0_7 3.123314 1_455
Ir1_2 Lu0_6 3.123645 1_455
Ir1_2 Lu0_3 3.123645 1_555
Ir1_3 Lu0_6 3.123314 1_456
Ir1_3 Lu0_3 3.123314 1_555
Ir1_3 Lu0_2 3.123645 1_556
Ir1_3 Lu0_7 3.123645 1_455
Ir1_4 Lu0_1 3.123314 1_555
Ir1_4 Lu0_4 3.123314 1_555
Ir1_4 Lu0_0 3.123645 1_555
Ir1_4 Lu0_5 3.123645 1_555
Ir1_5 Lu0_5 3.123314 1_555
Ir1_5 Lu0_0 3.123314 1_556
Ir1_5 Lu0_1 3.123645 1_555
Ir1_5 Lu0_4 3.123645 1_556
Ir1_6 Lu0_3 3.123314 1_555
Ir1_6 Lu0_6 3.123314 1_555
Ir1_6 Lu0_7 3.123645 1_555
Ir1_6 Lu0_2 3.123645 1_555
Ir1_7 Lu0_2 3.123314 1_556
Ir1_7 Lu0_7 3.123314 1_555
Ir1_7 Lu0_3 3.123645 1_555
Ir1_7 Lu0_6 3.123645 1_556
Ir2_0 Lu0_4 3.123286 1_455
Ir2_0 Lu0_2 3.123286 1_545
Ir2_0 Lu0_0 3.123948 1_555
Ir2_0 Lu0_6 3.123948 1_445
Ir2_1 Lu0_5 3.123286 1_455
Ir2_1 Lu0_3 3.123286 1_545
Ir2_1 Lu0_1 3.123948 1_555
Ir2_1 Lu0_7 3.123948 1_445
Ir2_2 Lu0_6 3.123286 1_455
Ir2_2 Lu0_0 3.123286 1_555
Ir2_2 Lu0_2 3.123948 1_555
Ir2_2 Lu0_4 3.123948 1_455
Ir2_3 Lu0_1 3.123286 1_555
Ir2_3 Lu0_7 3.123286 1_455
Ir2_3 Lu0_5 3.123948 1_455
Ir2_3 Lu0_3 3.123948 1_555
Ir2_4 Lu0_0 3.123286 1_555
Ir2_4 Lu0_6 3.123286 1_545
Ir2_4 Lu0_4 3.123948 1_555
Ir2_4 Lu0_2 3.123948 1_545
Ir2_5 Lu0_1 3.123286 1_555
Ir2_5 Lu0_7 3.123286 1_545
Ir2_5 Lu0_5 3.123948 1_555
Ir2_5 Lu0_3 3.123948 1_545
Ir2_6 Lu0_4 3.123286 1_555
Ir2_6 Lu0_2 3.123286 1_555
Ir2_6 Lu0_0 3.123948 1_555
Ir2_6 Lu0_6 3.123948 1_555
Ir2_7 Lu0_5 3.123286 1_555
Ir2_7 Lu0_3 3.123286 1_555
Ir2_7 Lu0_1 3.123948 1_555
Ir2_7 Lu0_7 3.123948 1_555
