# generated using pymatgen
data_Ga2TcPd
_symmetry_space_group_name_H-M   'P 1'
_cell_length_a   10.19966831
_cell_length_b   10.19966831
_cell_length_c   10.19966831
_cell_angle_alpha   123.29915323
_cell_angle_beta   118.74532314
_cell_angle_gamma   88.28501481
_symmetry_Int_Tables_number   1
_chemical_formula_structural   Ga2TcPd
_chemical_formula_sum   'Ga2 Tc1 Pd1'
_cell_volume   736.84825041
_cell_formula_units_Z   1
loop_
 _symmetry_equiv_pos_site_id
 _symmetry_equiv_pos_as_xyz
  1  'x, y, z'
loop_
 _atom_site_type_symbol
 _atom_site_label
 _atom_site_symmetry_multiplicity
 _atom_site_fract_x
 _atom_site_fract_y
 _atom_site_fract_z
 _atom_site_occupancy
  Ga  Ga0  1  0.00000000  0.25056600  0.25056600  1
  Ga  Ga1  1  0.00000000  0.74943400  0.74943400  1
  Tc  Tc0  1  0.00000000  0.00000000  0.00000000  1
  Pd  Pd0  1  0.00000000  0.50000000  0.50000000  1
loop_
_geom_bond_atom_site_label_1
_geom_bond_atom_site_label_2
_geom_bond_distance
_geom_bond_site_symmetry_2
Ga0 Pd0 2.416239 1_555
Ga0 Tc0 2.427205 1_555
Ga1 Pd0 2.416239 1_555
Ga1 Tc0 2.427205 1_566
