# generated using pymatgen
data_Co2BiB(PO5)2
_symmetry_space_group_name_H-M   'P 1'
_cell_length_a   5.12069581
_cell_length_b   6.50527929
_cell_length_c   11.39021600
_cell_angle_alpha   90.00047769
_cell_angle_beta   89.99863787
_cell_angle_gamma   107.90028447
_symmetry_Int_Tables_number   1
_chemical_formula_structural   Co2BiB(PO5)2
_chemical_formula_sum   'Co4 Bi2 B2 P4 O20'
_cell_volume   361.05891053
_cell_formula_units_Z   2
loop_
 _symmetry_equiv_pos_site_id
 _symmetry_equiv_pos_as_xyz
  1  'x, y, z'
loop_
 _atom_site_type_symbol
 _atom_site_label
 _atom_site_symmetry_multiplicity
 _atom_site_fract_x
 _atom_site_fract_y
 _atom_site_fract_z
 _atom_site_occupancy
  Co  Co0  1  0.35310300  0.33837700  0.39543200  1
  Co  Co1  1  0.64690300  0.66165800  0.89540700  1
  Co  Co2  1  0.64784000  0.66143800  0.60438700  1
  Co  Co3  1  0.35191400  0.33852300  0.10436100  1
  Bi  Bi0  1  0.25218500  0.93699600  0.74992000  1
  Bi  Bi1  1  0.74786200  0.06303200  0.24990700  1
  B  B0  1  0.06435400  0.48540300  0.75012500  1
  B  B1  1  0.93559900  0.51459000  0.25014800  1
  P  P0  1  0.79640800  0.21447800  0.56400500  1
  P  P1  1  0.20360800  0.78551500  0.06400800  1
  P  P2  1  0.20362300  0.78560200  0.43597400  1
  P  P3  1  0.79638700  0.21442500  0.93595500  1
  O  O0  1  0.87818800  0.61740700  0.75005700  1
  O  O1  1  0.12172800  0.38256500  0.25007000  1
  O  O2  1  0.35413100  0.63641200  0.75018700  1
  O  O3  1  0.64583400  0.36358800  0.25021000  1
  O  O4  1  0.03772500  0.34489400  0.64466200  1
  O  O5  1  0.96229400  0.65511400  0.14468100  1
  O  O6  1  0.96199400  0.65533100  0.35542400  1
  O  O7  1  0.03803300  0.34466100  0.85539400  1
  O  O8  1  0.64380700  0.99606400  0.62437800  1
  O  O9  1  0.35623300  0.00395900  0.12435200  1
  O  O10  1  0.35578800  0.00391500  0.37546300  1
  O  O11  1  0.64427000  0.99607800  0.87546700  1
  O  O12  1  0.93194800  0.17942600  0.44841300  1
  O  O13  1  0.06811300  0.82053000  0.94840800  1
  O  O14  1  0.06783500  0.82070900  0.55158700  1
  O  O15  1  0.93222400  0.17931400  0.05156200  1
  O  O16  1  0.59324900  0.34671100  0.54631800  1
  O  O17  1  0.40678900  0.65327400  0.04633500  1
  O  O18  1  0.40653000  0.65333400  0.45370700  1
  O  O19  1  0.59350000  0.34667900  0.95369600  1
loop_
_geom_bond_atom_site_label_1
_geom_bond_atom_site_label_2
_geom_bond_distance
_geom_bond_site_symmetry_2
Co0 O18 2.090159 1_555
Co0 O16 2.104263 1_555
Co0 O1 2.106467 1_555
Co0 O12 2.171049 1_455
Co0 O10 2.191865 1_555
Co0 O3 2.204246 1_555
Co1 O19 2.090372 1_555
Co1 O17 2.104462 1_556
Co1 O0 2.106160 1_555
Co1 O13 2.171287 1_655
Co1 O11 2.191480 1_555
Co1 O2 2.204388 1_555
Co2 O16 2.087001 1_555
Co2 O0 2.105740 1_555
Co2 O18 2.106024 1_555
Co2 O14 2.165806 1_655
Co2 O8 2.195111 1_555
Co2 O2 2.212640 1_555
Co3 O17 2.086756 1_555
Co3 O1 2.105565 1_555
Co3 O19 2.106603 1_554
Co3 O15 2.164436 1_455
Co3 O9 2.195175 1_555
Co3 O3 2.213786 1_555
Bi0 O2 2.173372 1_555
Bi0 O0 2.354240 1_455
Bi0 O8 2.395857 1_555
Bi0 O11 2.397803 1_555
Bi0 O14 2.475443 1_555
Bi0 O13 2.476836 1_555
Bi1 O3 2.173412 1_555
Bi1 O1 2.353646 1_655
Bi1 O9 2.396023 1_555
Bi1 O10 2.397745 1_555
Bi1 O15 2.475550 1_555
Bi1 O12 2.476985 1_555
B0 O0 1.466087 1_455
B0 O7 1.489385 1_555
B0 O4 1.490116 1_555
B0 O2 1.506916 1_555
B1 O1 1.466037 1_655
B1 O6 1.489401 1_555
B1 O5 1.490184 1_555
B1 O3 1.506852 1_555
O4 P0 1.564080 1_455
O5 P1 1.564123 1_655
O6 P2 1.564080 1_655
O7 P3 1.564113 1_455
O8 P0 1.555562 1_565
O9 P1 1.555598 1_545
O10 P2 1.555266 1_545
O11 P3 1.555270 1_565
O12 P0 1.537671 1_555
O13 P1 1.537597 1_556
O14 P2 1.538610 1_555
O15 P3 1.538716 1_554
O16 P0 1.553361 1_555
O17 P1 1.553466 1_555
O18 P2 1.552519 1_555
O19 P3 1.552367 1_555
