# generated using pymatgen
data_Mg6Si5
_symmetry_space_group_name_H-M   'P 1'
_cell_length_a   5.29729100
_cell_length_b   5.40269991
_cell_length_c   14.58250070
_cell_angle_alpha   83.06572123
_cell_angle_beta   79.59123374
_cell_angle_gamma   83.32276466
_symmetry_Int_Tables_number   1
_chemical_formula_structural   Mg6Si5
_chemical_formula_sum   'Mg12 Si10'
_cell_volume   405.56429532
_cell_formula_units_Z   2
loop_
 _symmetry_equiv_pos_site_id
 _symmetry_equiv_pos_as_xyz
  1  'x, y, z'
loop_
 _atom_site_type_symbol
 _atom_site_label
 _atom_site_symmetry_multiplicity
 _atom_site_fract_x
 _atom_site_fract_y
 _atom_site_fract_z
 _atom_site_occupancy
  Mg  Mg0  1  0.50837200  0.18541600  0.92099400  1
  Mg  Mg1  1  0.53739000  0.83884000  0.51531700  1
  Mg  Mg2  1  0.84843100  0.99580600  0.31772500  1
  Mg  Mg3  1  0.98739700  0.67521500  0.66083400  1
  Mg  Mg4  1  0.38592600  0.01796400  0.70603700  1
  Mg  Mg5  1  0.27621700  0.11346400  0.15400500  1
  Mg  Mg6  1  0.30331900  0.25021700  0.36217600  1
  Mg  Mg7  1  0.93998800  0.18827200  0.55084600  1
  Mg  Mg8  1  0.07037000  0.87391000  0.89838400  1
  Mg  Mg9  1  0.81411600  0.87422700  0.11297100  1
  Mg  Mg10  1  0.94058700  0.38297600  0.00854400  1
  Mg  Mg11  1  0.40039800  0.64331000  0.04285300  1
  Si  Si0  1  0.48780900  0.50911100  0.70313000  1
  Si  Si1  1  0.07590300  0.70190900  0.46749200  1
  Si  Si2  1  0.68637000  0.38749000  0.18965800  1
  Si  Si3  1  0.63605400  0.70515700  0.84900300  1
  Si  Si4  1  0.42427300  0.35090300  0.53828800  1
  Si  Si5  1  0.75817700  0.45912500  0.39707300  1
  Si  Si6  1  0.38917100  0.75694200  0.32102400  1
  Si  Si7  1  0.84261800  0.14074600  0.74298900  1
  Si  Si8  1  0.08066300  0.38890300  0.81972500  1
  Si  Si9  1  0.10275600  0.56360400  0.22441500  1
loop_
_geom_bond_atom_site_label_1
_geom_bond_atom_site_label_2
_geom_bond_distance
_geom_bond_site_symmetry_2
Mg0 Si3 2.878376 1_545
Mg0 Si7 2.884854 1_555
Mg0 Si8 2.959824 1_555
Mg0 Si3 2.986263 1_555
Mg1 Si4 2.739031 1_555
Mg1 Si4 2.809028 1_565
Mg1 Si1 2.843638 1_655
Mg1 Si5 2.849059 1_555
Mg1 Si1 2.858514 1_555
Mg1 Si0 3.068258 1_555
Mg1 Mg2 3.123431 1_555
Mg1 Si6 3.166550 1_555
Mg2 Si2 2.811650 1_565
Mg2 Si5 2.838042 1_565
Mg2 Si6 2.873891 1_555
Mg2 Si1 2.900277 1_655
Mg2 Si9 2.914144 1_655
Mg2 Si6 3.007988 1_655
Mg2 Mg5 3.041848 1_665
Mg2 Mg6 3.043608 1_565
Mg2 Si5 3.047470 1_555
Mg2 Mg6 3.108978 1_665
Mg2 Mg9 3.174446 1_555
Mg3 Si8 2.715874 1_655
Mg3 Si1 2.762171 1_655
Mg3 Si0 2.831673 1_555
Mg3 Si0 2.848960 1_655
Mg3 Si7 2.880329 1_565
Mg3 Si3 3.035015 1_555
Mg3 Si7 3.115966 1_555
Mg3 Si4 3.152463 1_655
Mg4 Si7 2.741101 1_555
Mg4 Si0 2.743336 1_545
Mg4 Si0 2.762582 1_555
Mg4 Si7 2.845273 1_455
Mg4 Si4 2.846697 1_555
Mg4 Si8 2.908540 1_555
Mg4 Si3 2.929982 1_545
Mg5 Si9 2.748707 1_555
Mg5 Si2 2.919729 1_555
Mg5 Si6 3.020912 1_545
Mg5 Si9 3.206426 1_545
Mg6 Si9 2.750048 1_555
Mg6 Si6 2.770371 1_545
Mg6 Si6 2.802871 1_555
Mg6 Si4 2.883542 1_555
Mg6 Si5 2.924517 1_555
Mg6 Si5 2.953272 1_455
Mg6 Si2 3.008534 1_555
Mg6 Si1 3.052534 1_555
Mg7 Si7 2.741829 1_555
Mg7 Si4 2.775321 1_655
Mg7 Si5 2.785240 1_555
Mg7 Si4 2.802231 1_555
Mg7 Si1 2.985890 1_645
Mg7 Si1 3.005087 1_655
Mg8 Si3 2.808551 1_455
Mg8 Si8 2.881359 1_565
Mg8 Si7 2.909198 1_465
Mg8 Si8 2.975707 1_555
Mg8 Si3 3.012111 1_555
Mg9 Si9 2.727251 1_655
Mg9 Si2 2.837975 1_555
Mg9 Si2 3.071971 1_565
Mg10 Si8 2.716450 1_654
Mg10 Si2 2.740845 1_555
Mg10 Si3 3.281800 1_554
Mg11 Si9 2.838226 1_555
Mg11 Si3 2.873103 1_554
Mg11 Si2 2.959484 1_555
Si0 Si8 2.588116 1_555
Si0 Si7 2.660222 1_555
Si0 Si4 2.734508 1_555
Si0 Si3 2.757638 1_555
Si1 Si6 2.466750 1_555
Si1 Si5 2.659128 1_455
Si1 Si4 2.733035 1_555
Si2 Si9 2.652525 1_655
Si3 Si8 2.743305 1_655
Si3 Si7 2.869618 1_565
Si4 Si5 2.518866 1_555
Si5 Si6 2.694583 1_555
Si5 Si9 2.868016 1_655
Si6 Si9 2.621830 1_555
Si7 Si8 2.430038 1_655
