# generated using pymatgen
data_Ba4Ta2O9
_symmetry_space_group_name_H-M   'P 1'
_cell_length_a   6.18418737
_cell_length_b   10.70151719
_cell_length_c   16.63961800
_cell_angle_alpha   90.00000000
_cell_angle_beta   90.00000000
_cell_angle_gamma   90.00342056
_symmetry_Int_Tables_number   1
_chemical_formula_structural   Ba4Ta2O9
_chemical_formula_sum   'Ba16 Ta8 O36'
_cell_volume   1101.21303513
_cell_formula_units_Z   4
loop_
 _symmetry_equiv_pos_site_id
 _symmetry_equiv_pos_as_xyz
  1  'x, y, z'
loop_
 _atom_site_type_symbol
 _atom_site_label
 _atom_site_symmetry_multiplicity
 _atom_site_fract_x
 _atom_site_fract_y
 _atom_site_fract_z
 _atom_site_occupancy
  Ba  Ba0  1  0.50254400  0.49927900  0.25227500  1
  Ba  Ba1  1  0.99745600  0.00072100  0.75227500  1
  Ba  Ba2  1  0.49745600  0.50072100  0.74772500  1
  Ba  Ba3  1  0.00254400  0.99927900  0.24772500  1
  Ba  Ba4  1  0.49578000  0.82838200  0.36610400  1
  Ba  Ba5  1  0.00422000  0.67161800  0.86610400  1
  Ba  Ba6  1  0.50422000  0.17161800  0.63389600  1
  Ba  Ba7  1  0.99578000  0.32838200  0.13389600  1
  Ba  Ba8  1  0.01239800  0.34076200  0.36520200  1
  Ba  Ba9  1  0.48760200  0.15923800  0.86520200  1
  Ba  Ba10  1  0.98760200  0.65923800  0.63479800  1
  Ba  Ba11  1  0.51239800  0.84076200  0.13479800  1
  Ba  Ba12  1  0.50000000  0.50000000  0.50000000  1
  Ba  Ba13  1  0.00000000  0.00000000  0.00000000  1
  Ba  Ba14  1  0.00000000  0.00000000  0.50000000  1
  Ba  Ba15  1  0.50000000  0.50000000  0.00000000  1
  Ta  Ta0  1  0.48551700  0.83561600  0.65338700  1
  Ta  Ta1  1  0.01448300  0.66438400  0.15338700  1
  Ta  Ta2  1  0.51448300  0.16438400  0.34661300  1
  Ta  Ta3  1  0.98551700  0.33561600  0.84661300  1
  Ta  Ta4  1  0.00364000  0.33023000  0.66462900  1
  Ta  Ta5  1  0.49636000  0.16977000  0.16462900  1
  Ta  Ta6  1  0.99636000  0.66977000  0.33537100  1
  Ta  Ta7  1  0.50364000  0.83023000  0.83537100  1
  O  O0  1  0.06107700  0.52449400  0.24399500  1
  O  O1  1  0.43892300  0.97550600  0.74399500  1
  O  O2  1  0.93892300  0.47550600  0.75600500  1
  O  O3  1  0.56107700  0.02449400  0.25600500  1
  O  O4  1  0.23504600  0.29265100  0.75743800  1
  O  O5  1  0.26495400  0.20734900  0.25743800  1
  O  O6  1  0.76495400  0.70734900  0.24256200  1
  O  O7  1  0.73504600  0.79265100  0.74256200  1
  O  O8  1  0.69193600  0.26661800  0.25098800  1
  O  O9  1  0.80806400  0.23338200  0.75098800  1
  O  O10  1  0.30806400  0.73338200  0.74901200  1
  O  O11  1  0.19193600  0.76661800  0.24901200  1
  O  O12  1  0.43404500  0.31914700  0.39604200  1
  O  O13  1  0.06595500  0.18085300  0.89604200  1
  O  O14  1  0.56595500  0.68085300  0.60395800  1
  O  O15  1  0.93404500  0.81914700  0.10395800  1
  O  O16  1  0.92659500  0.82456100  0.38620500  1
  O  O17  1  0.57340500  0.67543900  0.88620500  1
  O  O18  1  0.07340500  0.17543900  0.61379500  1
  O  O19  1  0.42659500  0.32456100  0.11379500  1
  O  O20  1  0.70785600  0.36305500  0.89300700  1
  O  O21  1  0.79214400  0.13694500  0.39300700  1
  O  O22  1  0.29214400  0.63694500  0.10699300  1
  O  O23  1  0.20785600  0.86305500  0.60699300  1
  O  O24  1  0.24545700  0.88009400  0.89044700  1
  O  O25  1  0.25454300  0.61990600  0.39044700  1
  O  O26  1  0.75454300  0.11990600  0.10955300  1
  O  O27  1  0.74545700  0.38009400  0.60955300  1
  O  O28  1  0.79337400  0.55878800  0.38574000  1
  O  O29  1  0.70662600  0.94121200  0.88574000  1
  O  O30  1  0.20662600  0.44121200  0.61426000  1
  O  O31  1  0.29337400  0.05878800  0.11426000  1
  O  O32  1  0.34153300  0.04955400  0.40532600  1
  O  O33  1  0.15846700  0.45044600  0.90532600  1
  O  O34  1  0.65846700  0.95044600  0.59467400  1
  O  O35  1  0.84153300  0.54955400  0.09467400  1
loop_
_geom_bond_atom_site_label_1
_geom_bond_atom_site_label_2
_geom_bond_distance
_geom_bond_site_symmetry_2
Ba0 O0 2.746891 1_555
Ba0 O8 2.751696 1_555
Ba0 O6 2.759924 1_555
Ba0 O28 2.927828 1_555
Ba0 O19 3.004337 1_555
Ba0 O25 3.050381 1_555
Ba0 O12 3.101302 1_555
Ba0 O22 3.115710 1_555
Ba1 O1 2.746891 1_645
Ba1 O9 2.751696 1_555
Ba1 O7 2.759924 1_545
Ba1 O29 2.927828 1_545
Ba1 O18 3.004337 1_655
Ba1 O24 3.050381 1_645
Ba1 O13 3.101302 1_655
Ba1 O23 3.115710 1_645
Ba2 O2 2.746891 1_555
Ba2 O10 2.751696 1_555
Ba2 O4 2.759924 1_555
Ba2 O30 2.927828 1_555
Ba2 O17 3.004337 1_555
Ba2 O27 3.050381 1_555
Ba2 O14 3.101302 1_555
Ba2 O20 3.115710 1_555
Ba3 O3 2.746891 1_465
Ba3 O11 2.751696 1_555
Ba3 O5 2.759924 1_565
Ba3 O31 2.927828 1_565
Ba3 O16 3.004337 1_455
Ba3 O26 3.050381 1_465
Ba3 O15 3.101302 1_455
Ba3 O21 3.115710 1_465
Ba4 O32 2.634050 1_565
Ba4 O16 2.685467 1_555
Ba4 O25 2.714168 1_555
Ba4 O11 2.786325 1_555
Ba4 O3 2.814912 1_565
Ba4 O6 2.945290 1_555
Ba5 O33 2.634050 1_555
Ba5 O17 2.685467 1_455
Ba5 O24 2.714168 1_555
Ba5 O10 2.786325 1_555
Ba5 O2 2.814912 1_455
Ba5 O7 2.945290 1_455
Ba6 O34 2.634050 1_545
Ba6 O18 2.685467 1_555
Ba6 O27 2.714168 1_555
Ba6 O9 2.786325 1_555
Ba6 O1 2.814912 1_545
Ba6 O4 2.945290 1_555
Ba7 O35 2.634050 1_555
Ba7 O19 2.685467 1_655
Ba7 O26 2.714168 1_555
Ba7 O8 2.786325 1_555
Ba7 O0 2.814912 1_655
Ba7 O5 2.945290 1_655
Ba8 O21 2.612742 1_455
Ba8 O12 2.667621 1_555
Ba8 O28 2.719497 1_455
Ba8 O5 2.773704 1_555
Ba8 O0 2.832698 1_555
Ba8 O8 2.858096 1_455
Ba9 O20 2.612742 1_555
Ba9 O13 2.667621 1_555
Ba9 O29 2.719497 1_545
Ba9 O4 2.773704 1_555
Ba9 O1 2.832698 1_545
Ba9 O9 2.858096 1_555
Ba10 O23 2.612742 1_655
Ba10 O14 2.667621 1_555
Ba10 O30 2.719497 1_655
Ba10 O7 2.773704 1_555
Ba10 O2 2.832698 1_555
Ba10 O10 2.858096 1_655
Ba11 O22 2.612742 1_555
Ba11 O15 2.667621 1_555
Ba11 O31 2.719497 1_565
Ba11 O6 2.773704 1_555
Ba11 O3 2.832698 1_565
Ba11 O11 2.858096 1_555
Ba12 O14 2.627609 1_555
Ba12 O12 2.627609 1_555
Ba12 O27 2.697033 1_555
Ba12 O25 2.697033 1_555
Ba12 O28 2.702220 1_555
Ba12 O30 2.702220 1_555
Ba13 O13 2.627609 1_554
Ba13 O15 2.627609 1_445
Ba13 O26 2.697033 1_455
Ba13 O24 2.697033 1_544
Ba13 O31 2.702220 1_555
Ba13 O29 2.702220 1_444
Ba14 O21 2.640043 1_455
Ba14 O23 2.640043 1_545
Ba14 O34 2.687706 1_445
Ba14 O32 2.687706 1_555
Ba14 O18 2.704848 1_555
Ba14 O16 2.704848 1_445
Ba15 O22 2.640043 1_555
Ba15 O20 2.640043 1_554
Ba15 O35 2.687706 1_555
Ba15 O33 2.687706 1_554
Ba15 O19 2.704848 1_555
Ba15 O17 2.704848 1_554
O0 Ta1 2.144132 1_555
O0 Ta6 2.211123 1_455
O1 Ta0 2.144132 1_555
O1 Ta7 2.211123 1_555
O2 Ta3 2.144132 1_555
O2 Ta4 2.211123 1_655
O3 Ta2 2.144132 1_555
O3 Ta5 2.211123 1_555
O4 Ta4 2.143503 1_555
O4 Ta3 2.189642 1_455
O5 Ta5 2.143503 1_555
O5 Ta2 2.189642 1_555
O6 Ta6 2.143503 1_555
O6 Ta1 2.189642 1_655
O7 Ta7 2.143503 1_555
O7 Ta0 2.189642 1_555
O8 Ta5 2.145174 1_555
O8 Ta2 2.221017 1_555
O9 Ta4 2.145174 1_655
O9 Ta3 2.221017 1_555
O10 Ta7 2.145174 1_555
O10 Ta0 2.221017 1_555
O11 Ta6 2.145174 1_455
O11 Ta1 2.221017 1_555
O12 Ta2 1.914945 1_555
O13 Ta3 1.914945 1_455
O14 Ta0 1.914945 1_555
O15 Ta1 1.914945 1_655
O16 Ta6 1.909369 1_555
O17 Ta7 1.909369 1_555
O18 Ta4 1.909369 1_555
O19 Ta5 1.909369 1_555
O20 Ta3 1.905438 1_555
O21 Ta2 1.905438 1_555
O22 Ta1 1.905438 1_555
O23 Ta0 1.905438 1_555
O24 Ta7 1.916773 1_555
O25 Ta6 1.916773 1_455
O26 Ta5 1.916773 1_555
O27 Ta4 1.916773 1_655
O28 Ta6 1.920580 1_555
O29 Ta7 1.920580 1_555
O30 Ta4 1.920580 1_555
O31 Ta5 1.920580 1_555
O32 Ta2 1.899561 1_555
O33 Ta3 1.899561 1_455
O34 Ta0 1.899561 1_555
O35 Ta1 1.899561 1_655
