# generated using pymatgen
data_Co3P2(H2O3)4
_symmetry_space_group_name_H-M   'P 1'
_cell_length_a   5.05606800
_cell_length_b   10.71745000
_cell_length_c   18.64453600
_cell_angle_alpha   90.00000000
_cell_angle_beta   90.00000000
_cell_angle_gamma   90.00000000
_symmetry_Int_Tables_number   1
_chemical_formula_structural   Co3P2(H2O3)4
_chemical_formula_sum   'Co12 P8 H32 O48'
_cell_volume   1010.31302507
_cell_formula_units_Z   4
loop_
 _symmetry_equiv_pos_site_id
 _symmetry_equiv_pos_as_xyz
  1  'x, y, z'
loop_
 _atom_site_type_symbol
 _atom_site_label
 _atom_site_symmetry_multiplicity
 _atom_site_fract_x
 _atom_site_fract_y
 _atom_site_fract_z
 _atom_site_occupancy
  Co  Co0  1  0.29119600  0.64185500  0.50024600  1
  Co  Co1  1  0.20880400  0.14185500  0.99975400  1
  Co  Co2  1  0.70880400  0.35814500  0.00024600  1
  Co  Co3  1  0.79119600  0.85814500  0.49975400  1
  Co  Co4  1  0.70880400  0.35814500  0.49975400  1
  Co  Co5  1  0.79119600  0.85814500  0.00024600  1
  Co  Co6  1  0.29119600  0.64185500  0.99975400  1
  Co  Co7  1  0.20880400  0.14185500  0.50024600  1
  Co  Co8  1  0.94162500  0.73817800  0.75000000  1
  Co  Co9  1  0.55837500  0.23817800  0.75000000  1
  Co  Co10  1  0.05837500  0.26182200  0.25000000  1
  Co  Co11  1  0.44162500  0.76182200  0.25000000  1
  P  P0  1  0.77115600  0.60286400  0.59499600  1
  P  P1  1  0.72884400  0.10286400  0.90500400  1
  P  P2  1  0.22884400  0.39713600  0.09499600  1
  P  P3  1  0.27115600  0.89713600  0.40500400  1
  P  P4  1  0.22884400  0.39713600  0.40500400  1
  P  P5  1  0.27115600  0.89713600  0.09499600  1
  P  P6  1  0.77115600  0.60286400  0.90500400  1
  P  P7  1  0.72884400  0.10286400  0.59499600  1
  H  H0  1  0.03963600  0.90065700  0.63678800  1
  H  H1  1  0.46036400  0.40065700  0.86321200  1
  H  H2  1  0.96036400  0.09934300  0.13678800  1
  H  H3  1  0.53963600  0.59934300  0.36321200  1
  H  H4  1  0.96036400  0.09934300  0.36321200  1
  H  H5  1  0.53963600  0.59934300  0.13678800  1
  H  H6  1  0.03963600  0.90065700  0.86321200  1
  H  H7  1  0.46036400  0.40065700  0.63678800  1
  H  H8  1  0.71042200  0.97617100  0.75000000  1
  H  H9  1  0.78957800  0.47617100  0.75000000  1
  H  H10  1  0.28957800  0.02382900  0.25000000  1
  H  H11  1  0.21042200  0.52382900  0.25000000  1
  H  H12  1  0.32181600  0.83807100  0.65078700  1
  H  H13  1  0.17818400  0.33807100  0.84921300  1
  H  H14  1  0.67818400  0.16192900  0.15078700  1
  H  H15  1  0.82181600  0.66192900  0.34921300  1
  H  H16  1  0.67818400  0.16192900  0.34921300  1
  H  H17  1  0.82181600  0.66192900  0.15078700  1
  H  H18  1  0.32181600  0.83807100  0.84921300  1
  H  H19  1  0.17818400  0.33807100  0.65078700  1
  H  H20  1  0.46068400  0.89175200  0.75000000  1
  H  H21  1  0.03931600  0.39175200  0.75000000  1
  H  H22  1  0.53931600  0.10824800  0.25000000  1
  H  H23  1  0.96068400  0.60824800  0.25000000  1
  H  H24  1  0.37296700  0.61051300  0.70886800  1
  H  H25  1  0.12703300  0.11051300  0.79113200  1
  H  H26  1  0.62703300  0.38948700  0.20886800  1
  H  H27  1  0.87296700  0.88948700  0.29113200  1
  H  H28  1  0.62703300  0.38948700  0.29113200  1
  H  H29  1  0.87296700  0.88948700  0.20886800  1
  H  H30  1  0.37296700  0.61051300  0.79113200  1
  H  H31  1  0.12703300  0.11051300  0.70886800  1
  O  O0  1  0.06841300  0.59389600  0.57997900  1
  O  O1  1  0.43158700  0.09389600  0.92002100  1
  O  O2  1  0.93158700  0.40610400  0.07997900  1
  O  O3  1  0.56841300  0.90610400  0.42002100  1
  O  O4  1  0.93158700  0.40610400  0.42002100  1
  O  O5  1  0.56841300  0.90610400  0.07997900  1
  O  O6  1  0.06841300  0.59389600  0.92002100  1
  O  O7  1  0.43158700  0.09389600  0.57997900  1
  O  O8  1  0.63738300  0.70023600  0.54137500  1
  O  O9  1  0.86261700  0.20023600  0.95862500  1
  O  O10  1  0.36261700  0.29976400  0.04137500  1
  O  O11  1  0.13738300  0.79976400  0.45862500  1
  O  O12  1  0.36261700  0.29976400  0.45862500  1
  O  O13  1  0.13738300  0.79976400  0.04137500  1
  O  O14  1  0.63738300  0.70023600  0.95862500  1
  O  O15  1  0.86261700  0.20023600  0.54137500  1
  O  O16  1  0.71228600  0.64066100  0.67297600  1
  O  O17  1  0.78771400  0.14066100  0.82702400  1
  O  O18  1  0.28771400  0.35933900  0.17297600  1
  O  O19  1  0.21228600  0.85933900  0.32702400  1
  O  O20  1  0.28771400  0.35933900  0.32702400  1
  O  O21  1  0.21228600  0.85933900  0.17297600  1
  O  O22  1  0.71228600  0.64066100  0.82702400  1
  O  O23  1  0.78771400  0.14066100  0.67297600  1
  O  O24  1  0.63295400  0.47562200  0.57828000  1
  O  O25  1  0.86704600  0.97562200  0.92172000  1
  O  O26  1  0.36704600  0.52437800  0.07828000  1
  O  O27  1  0.13295400  0.02437800  0.42172000  1
  O  O28  1  0.36704600  0.52437800  0.42172000  1
  O  O29  1  0.13295400  0.02437800  0.07828000  1
  O  O30  1  0.63295400  0.47562200  0.92172000  1
  O  O31  1  0.86704600  0.97562200  0.57828000  1
  O  O32  1  0.14469700  0.84635900  0.67060700  1
  O  O33  1  0.35530300  0.34635900  0.82939300  1
  O  O34  1  0.85530300  0.15364100  0.17060700  1
  O  O35  1  0.64469700  0.65364100  0.32939300  1
  O  O36  1  0.85530300  0.15364100  0.32939300  1
  O  O37  1  0.64469700  0.65364100  0.17060700  1
  O  O38  1  0.14469700  0.84635900  0.82939300  1
  O  O39  1  0.35530300  0.34635900  0.67060700  1
  O  O40  1  0.24904600  0.60822800  0.75000000  1
  O  O41  1  0.25095400  0.10822800  0.75000000  1
  O  O42  1  0.75095400  0.39177200  0.25000000  1
  O  O43  1  0.74904600  0.89177200  0.25000000  1
  O  O44  1  0.65390900  0.88856300  0.75000000  1
  O  O45  1  0.84609100  0.38856300  0.75000000  1
  O  O46  1  0.34609100  0.11143700  0.25000000  1
  O  O47  1  0.15390900  0.61143700  0.25000000  1
loop_
_geom_bond_atom_site_label_1
_geom_bond_atom_site_label_2
_geom_bond_distance
_geom_bond_site_symmetry_2
Co0 O0 1.934662 1_555
Co0 O28 1.968711 1_555
Co0 O8 2.010779 1_555
Co0 O11 2.017706 1_555
Co1 O1 1.934662 1_555
Co1 O29 1.968711 1_556
Co1 O9 2.010779 1_455
Co1 O10 2.017706 1_556
Co2 O2 1.934662 1_555
Co2 O30 1.968711 1_554
Co2 O10 2.010779 1_555
Co2 O9 2.017706 1_554
Co3 O3 1.934662 1_555
Co3 O31 1.968711 1_555
Co3 O11 2.010779 1_655
Co3 O8 2.017706 1_555
Co4 O4 1.934662 1_555
Co4 O24 1.968711 1_555
Co4 O12 2.010779 1_555
Co4 O15 2.017706 1_555
Co5 O5 1.934662 1_555
Co5 O25 1.968711 1_554
Co5 O13 2.010779 1_655
Co5 O14 2.017706 1_554
Co6 O6 1.934662 1_555
Co6 O26 1.968711 1_556
Co6 O14 2.010779 1_555
Co6 O13 2.017706 1_556
Co7 O7 1.934662 1_555
Co7 O27 1.968711 1_555
Co7 O15 2.010779 1_455
Co7 O12 2.017706 1_555
Co8 O40 2.087027 1_655
Co8 O16 2.121128 1_555
Co8 O22 2.121128 1_555
Co8 O38 2.142335 1_655
Co8 O32 2.142335 1_655
Co8 O44 2.171153 1_555
Co9 O41 2.087027 1_555
Co9 O23 2.121128 1_555
Co9 O17 2.121128 1_555
Co9 O39 2.142335 1_555
Co9 O33 2.142335 1_555
Co9 O45 2.171153 1_555
Co10 O42 2.087027 1_455
Co10 O20 2.121128 1_555
Co10 O18 2.121128 1_555
Co10 O36 2.142335 1_455
Co10 O34 2.142335 1_455
Co10 O46 2.171153 1_555
Co11 O43 2.087027 1_555
Co11 O19 2.121128 1_555
Co11 O21 2.121128 1_555
Co11 O37 2.142335 1_555
Co11 O35 2.142335 1_555
Co11 O47 2.171153 1_555
H0 O32 1.009157 1_555
H0 O31 1.611504 1_455
H1 O33 1.009157 1_555
H1 O30 1.611504 1_555
H2 O34 1.009157 1_555
H2 O29 1.611504 1_655
H3 O35 1.009157 1_555
H3 O28 1.611504 1_555
H4 O36 1.009157 1_555
H4 O27 1.611504 1_655
H5 O37 1.009157 1_555
H5 O26 1.611504 1_555
H6 O38 1.009157 1_555
H6 O25 1.611504 1_455
H7 O39 1.009157 1_555
H7 O24 1.611504 1_555
H8 O44 0.981449 1_555
H9 O45 0.981449 1_555
H10 O46 0.981449 1_555
H11 O47 0.981449 1_555
H12 O32 0.972837 1_555
H13 O33 0.972837 1_555
H14 O34 0.972837 1_555
H15 O35 0.972837 1_555
H16 O36 0.972837 1_555
H17 O37 0.972837 1_555
H18 O38 0.972837 1_555
H19 O39 0.972837 1_555
H20 O44 0.977556 1_555
H21 O45 0.977556 1_455
H22 O46 0.977556 1_555
H23 O47 0.977556 1_655
H24 O40 0.990598 1_555
H25 O41 0.990598 1_555
H26 O42 0.990598 1_555
H27 O43 0.990598 1_555
H28 O42 0.990598 1_555
H29 O43 0.990598 1_555
H30 O40 0.990598 1_555
H31 O41 0.990598 1_555
O0 P0 1.531827 1_455
O1 P1 1.531827 1_555
O2 P2 1.531827 1_655
O3 P3 1.531827 1_555
O4 P4 1.531827 1_655
O5 P5 1.531827 1_555
O6 P6 1.531827 1_455
O7 P7 1.531827 1_555
O8 P0 1.595621 1_555
O9 P1 1.595621 1_555
O10 P2 1.595621 1_555
O11 P3 1.595621 1_555
O12 P4 1.595621 1_555
O13 P5 1.595621 1_555
O14 P6 1.595621 1_555
O15 P7 1.595621 1_555
O16 P0 1.538350 1_555
O17 P1 1.538350 1_555
O18 P2 1.538350 1_555
O19 P3 1.538350 1_555
O20 P4 1.538350 1_555
O21 P5 1.538350 1_555
O22 P6 1.538350 1_555
O23 P7 1.538350 1_555
O24 P0 1.563682 1_555
O25 P1 1.563682 1_565
O26 P2 1.563682 1_555
O27 P3 1.563682 1_545
O28 P4 1.563682 1_555
O29 P5 1.563682 1_545
O30 P6 1.563682 1_555
O31 P7 1.563682 1_565
