# generated using pymatgen
data_V2H6C8N2O13
_symmetry_space_group_name_H-M   'P 1'
_cell_length_a   9.17226762
_cell_length_b   9.17226762
_cell_length_c   16.43685393
_cell_angle_alpha   74.21793689
_cell_angle_beta   74.21793689
_cell_angle_gamma   60.15649977
_symmetry_Int_Tables_number   1
_chemical_formula_structural   V2H6C8N2O13
_chemical_formula_sum   'V4 H12 C16 N4 O26'
_cell_volume   1138.67411318
_cell_formula_units_Z   2
loop_
 _symmetry_equiv_pos_site_id
 _symmetry_equiv_pos_as_xyz
  1  'x, y, z'
loop_
 _atom_site_type_symbol
 _atom_site_label
 _atom_site_symmetry_multiplicity
 _atom_site_fract_x
 _atom_site_fract_y
 _atom_site_fract_z
 _atom_site_occupancy
  V  V0  1  0.08657500  0.83647500  0.35574900  1
  V  V1  1  0.83647500  0.08657500  0.85574900  1
  V  V2  1  0.20694000  0.88460300  0.14055500  1
  V  V3  1  0.88460300  0.20694000  0.64055500  1
  H  H0  1  0.02968600  0.06068300  0.01494000  1
  H  H1  1  0.06068300  0.02968600  0.51494000  1
  H  H2  1  0.12088200  0.16861100  0.02539300  1
  H  H3  1  0.16861100  0.12088200  0.52539300  1
  H  H4  1  0.24534700  0.30502000  0.45078900  1
  H  H5  1  0.30502000  0.24534700  0.95078900  1
  H  H6  1  0.40519600  0.13306600  0.48409700  1
  H  H7  1  0.13306600  0.40519600  0.98409700  1
  H  H8  1  0.02947900  0.65679900  0.03939500  1
  H  H9  1  0.65679900  0.02947900  0.53939500  1
  H  H10  1  0.98106200  0.69342300  0.94886700  1
  H  H11  1  0.69342300  0.98106200  0.44886700  1
  C  C0  1  0.68081800  0.56012900  0.41484600  1
  C  C1  1  0.56012900  0.68081800  0.91484600  1
  C  C2  1  0.76888800  0.38569200  0.42136400  1
  C  C3  1  0.38569200  0.76888800  0.92136400  1
  C  C4  1  0.83521400  0.51569300  0.18091700  1
  C  C5  1  0.51569300  0.83521400  0.68091700  1
  C  C6  1  0.76574200  0.48815500  0.34139700  1
  C  C7  1  0.48815500  0.76574200  0.84139700  1
  C  C8  1  0.44441200  0.33190400  0.22815800  1
  C  C9  1  0.33190400  0.44441200  0.72815800  1
  C  C10  1  0.64017800  0.95782500  0.11094000  1
  C  C11  1  0.95782500  0.64017800  0.61094000  1
  C  C12  1  0.49667900  0.40118500  0.14742600  1
  C  C13  1  0.40118500  0.49667900  0.64742600  1
  C  C14  1  0.51780900  0.23668600  0.16192100  1
  C  C15  1  0.23668600  0.51780900  0.66192100  1
  N  N0  1  0.80796600  0.50323400  0.25723600  1
  N  N1  1  0.50323400  0.80796600  0.75723600  1
  N  N2  1  0.57302100  0.09292000  0.13447500  1
  N  N3  1  0.09292000  0.57302100  0.63447500  1
  O  O0  1  0.86820300  0.87021100  0.34935200  1
  O  O1  1  0.87021100  0.86820300  0.84935200  1
  O  O2  1  0.91431100  0.98542200  0.28613900  1
  O  O3  1  0.98542200  0.91431100  0.78613900  1
  O  O4  1  0.07084300  0.93368100  0.42929600  1
  O  O5  1  0.93368100  0.07084300  0.92929600  1
  O  O6  1  0.24937200  0.88097900  0.25300600  1
  O  O7  1  0.88097900  0.24937200  0.75300600  1
  O  O8  1  0.18266000  0.04678300  0.19957100  1
  O  O9  1  0.04678300  0.18266000  0.69957100  1
  O  O10  1  0.07515700  0.77924800  0.12355400  1
  O  O11  1  0.77924800  0.07515700  0.62355400  1
  O  O12  1  0.16061600  0.68726800  0.18963700  1
  O  O13  1  0.68726800  0.16061600  0.68963700  1
  O  O14  1  0.39394200  0.81120500  0.08463000  1
  O  O15  1  0.81120500  0.39394200  0.58463000  1
  O  O16  1  0.14345300  0.59997300  0.40680900  1
  O  O17  1  0.59997300  0.14345300  0.90680900  1
  O  O18  1  0.28753100  0.61077100  0.36416600  1
  O  O19  1  0.61077100  0.28753100  0.86416600  1
  O  O20  1  0.07063500  0.08218500  0.05820800  1
  O  O21  1  0.08218500  0.07063500  0.55820800  1
  O  O22  1  0.28325800  0.18562000  0.47595000  1
  O  O23  1  0.18562000  0.28325800  0.97595000  1
  O  O24  1  0.05196000  0.60507700  0.99004700  1
  O  O25  1  0.60507700  0.05196000  0.49004700  1
loop_
_geom_bond_atom_site_label_1
_geom_bond_atom_site_label_2
_geom_bond_distance
_geom_bond_site_symmetry_2
H0 O20 0.990496 1_555
H1 O21 0.990496 1_555
H2 O20 1.061866 1_555
H2 O23 1.418787 1_554
H3 O21 1.061866 1_555
H3 O22 1.418787 1_555
H4 O22 0.971691 1_555
H5 O23 0.971691 1_555
H6 O22 1.005482 1_555
H6 O25 1.620104 1_555
H7 O23 1.005482 1_555
H7 O24 1.620104 1_555
H8 O24 0.972874 1_554
H9 O25 0.972874 1_555
H10 O24 0.976878 1_655
H11 O25 0.976878 1_565
C0 C2 1.375300 1_555
C0 C6 1.382127 1_555
C1 C3 1.375300 1_555
C1 C7 1.382127 1_555
C2 C6 1.390482 1_555
C3 C7 1.390482 1_555
C4 N0 1.195432 1_555
C5 N1 1.195432 1_555
C6 N0 1.319306 1_555
C7 N1 1.319306 1_555
C10 N2 1.198322 1_565
C11 N3 1.198322 1_655
C12 C8 1.375859 1_555
C12 C14 1.381819 1_555
C13 C9 1.375859 1_555
C13 C15 1.381819 1_555
C14 N2 1.316634 1_555
C14 C8 1.390923 1_555
C15 N3 1.316634 1_555
C15 C9 1.390923 1_555
O0 O2 1.408422 1_555
O0 V0 1.897021 1_655
O1 O3 1.408422 1_555
O1 V1 1.897021 1_565
O2 V0 1.912284 1_655
O3 V1 1.912284 1_565
O4 V0 1.624971 1_555
O5 V1 1.624971 1_555
O6 O8 1.448537 1_565
O6 V2 1.978371 1_555
O6 V0 2.026880 1_555
O7 O9 1.448537 1_655
O7 V3 1.978371 1_555
O7 V1 2.026880 1_555
O8 V2 1.881780 1_545
O9 V3 1.881780 1_455
O10 O12 1.346292 1_555
O10 V2 1.991519 1_555
O11 O13 1.346292 1_555
O11 V3 1.991519 1_555
O12 V2 1.972861 1_555
O13 V3 1.972861 1_555
O14 V2 1.603104 1_555
O15 V3 1.603104 1_555
O16 O18 1.355051 1_555
O16 V0 1.950315 1_555
O17 O19 1.355051 1_555
O17 V1 1.950315 1_555
O18 V0 1.971680 1_555
O19 V1 1.971680 1_555
O20 V2 2.002647 1_545
O21 V3 2.002647 1_455
