# generated using pymatgen
data_LiCoS2
_symmetry_space_group_name_H-M   'P 1'
_cell_length_a   6.86143752
_cell_length_b   6.86143752
_cell_length_c   6.86143752
_cell_angle_alpha   60.00000000
_cell_angle_beta   60.00000000
_cell_angle_gamma   60.00000000
_symmetry_Int_Tables_number   1
_chemical_formula_structural   LiCoS2
_chemical_formula_sum   'Li4 Co4 S8'
_cell_volume   228.41800889
_cell_formula_units_Z   4
loop_
 _symmetry_equiv_pos_site_id
 _symmetry_equiv_pos_as_xyz
  1  'x, y, z'
loop_
 _atom_site_type_symbol
 _atom_site_label
 _atom_site_symmetry_multiplicity
 _atom_site_fract_x
 _atom_site_fract_y
 _atom_site_fract_z
 _atom_site_occupancy
  Li  Li0  1  0.12500000  0.12500000  0.12500000  1
  Li  Li1  1  0.62500000  0.12500000  0.12500000  1
  Li  Li2  1  0.12500000  0.62500000  0.12500000  1
  Li  Li3  1  0.12500000  0.12500000  0.62500000  1
  Co  Co0  1  0.62500000  0.62500000  0.12500000  1
  Co  Co1  1  0.62500000  0.62500000  0.62500000  1
  Co  Co2  1  0.62500000  0.12500000  0.62500000  1
  Co  Co3  1  0.12500000  0.62500000  0.62500000  1
  S  S0  1  0.85994500  0.42016400  0.85994500  1
  S  S1  1  0.85994500  0.85994500  0.42016400  1
  S  S2  1  0.85994500  0.85994500  0.85994500  1
  S  S3  1  0.42016400  0.85994500  0.85994500  1
  S  S4  1  0.39005500  0.39005500  0.39005500  1
  S  S5  1  0.82983600  0.39005500  0.39005500  1
  S  S6  1  0.39005500  0.82983600  0.39005500  1
  S  S7  1  0.39005500  0.39005500  0.82983600  1
loop_
_geom_bond_atom_site_label_1
_geom_bond_atom_site_label_2
_geom_bond_distance
_geom_bond_site_symmetry_2
Li0 S6 2.580255 1_545
Li0 S7 2.580255 1_554
Li0 S5 2.580255 1_455
Li0 S1 2.580255 1_445
Li0 S0 2.580255 1_454
Li0 S3 2.580255 1_544
Li1 S0 2.580250 1_554
Li1 S1 2.580250 1_545
Li1 S7 2.580250 1_554
Li1 S6 2.580250 1_545
Li1 S4 2.580256 1_555
Li1 S2 2.580256 1_544
Li2 S1 2.580250 1_455
Li2 S3 2.580250 1_554
Li2 S5 2.580250 1_455
Li2 S7 2.580250 1_554
Li2 S4 2.580256 1_555
Li2 S2 2.580256 1_454
Li3 S3 2.580250 1_545
Li3 S0 2.580250 1_455
Li3 S6 2.580250 1_545
Li3 S5 2.580250 1_455
Li3 S4 2.580256 1_555
Li3 S2 2.580256 1_445
Co0 S2 2.289140 1_554
Co0 S4 2.289140 1_555
Co0 S5 2.289144 1_555
Co0 S6 2.289144 1_555
Co0 S3 2.289144 1_554
Co0 S0 2.289144 1_554
Co1 S3 2.289139 1_555
Co1 S0 2.289139 1_555
Co1 S1 2.289139 1_555
Co1 S5 2.289139 1_555
Co1 S6 2.289139 1_555
Co1 S7 2.289139 1_555
Co2 S2 2.289140 1_545
Co2 S4 2.289140 1_555
Co2 S7 2.289144 1_555
Co2 S5 2.289144 1_555
Co2 S1 2.289144 1_545
Co2 S3 2.289144 1_545
Co3 S2 2.289140 1_455
Co3 S4 2.289140 1_555
Co3 S6 2.289144 1_555
Co3 S7 2.289144 1_555
Co3 S1 2.289144 1_455
Co3 S0 2.289144 1_455
