# generated using pymatgen
data_Cr23Ga26Fe3
_symmetry_space_group_name_H-M   'P 1'
_cell_length_a   7.78815217
_cell_length_b   7.75968025
_cell_length_c   12.73249688
_cell_angle_alpha   90.07704530
_cell_angle_beta   89.55146746
_cell_angle_gamma   109.38974334
_symmetry_Int_Tables_number   1
_chemical_formula_structural   Cr23Ga26Fe3
_chemical_formula_sum   'Cr23 Ga26 Fe3'
_cell_volume   725.80463272
_cell_formula_units_Z   1
loop_
 _symmetry_equiv_pos_site_id
 _symmetry_equiv_pos_as_xyz
  1  'x, y, z'
loop_
 _atom_site_type_symbol
 _atom_site_label
 _atom_site_symmetry_multiplicity
 _atom_site_fract_x
 _atom_site_fract_y
 _atom_site_fract_z
 _atom_site_occupancy
  Cr  Cr0  1  0.40348000  0.75013400  0.40379100  1
  Cr  Cr1  1  0.90569900  0.24929800  0.90078300  1
  Cr  Cr2  1  0.73895900  0.39800200  0.40367200  1
  Cr  Cr3  1  0.23486000  0.90091100  0.90080900  1
  Cr  Cr4  1  0.73496600  0.72855500  0.07143800  1
  Cr  Cr5  1  0.23255000  0.22814700  0.57452400  1
  Cr  Cr6  1  0.10041300  0.75933800  0.10022500  1
  Cr  Cr7  1  0.60175000  0.26079900  0.59979200  1
  Cr  Cr8  1  0.75579300  0.09578100  0.09714600  1
  Cr  Cr9  1  0.25880100  0.59846500  0.59657500  1
  Cr  Cr10  1  0.76710900  0.76701900  0.42795400  1
  Cr  Cr11  1  0.27059200  0.26938100  0.92984400  1
  Cr  Cr12  1  0.24427500  0.24348700  0.24431700  1
  Cr  Cr13  1  0.74914900  0.74610800  0.74601900  1
  Cr  Cr14  1  0.01684400  0.01900900  0.80327400  1
  Cr  Cr15  1  0.41101900  0.19564000  0.41070500  1
  Cr  Cr16  1  0.90829100  0.69418300  0.91148400  1
  Cr  Cr17  1  0.30595300  0.08772700  0.08844400  1
  Cr  Cr18  1  0.80388600  0.58695700  0.58814200  1
  Cr  Cr19  1  0.98127400  0.97951200  0.19776300  1
  Cr  Cr20  1  0.48223400  0.48178000  0.69599600  1
  Cr  Cr21  1  0.09142300  0.30587800  0.08980500  1
  Cr  Cr22  1  0.58946500  0.80329800  0.58966300  1
  Ga  Ga0  1  0.27281600  0.91864200  0.27272400  1
  Ga  Ga1  1  0.77081900  0.41915600  0.77247300  1
  Ga  Ga2  1  0.92103400  0.27425100  0.27334800  1
  Ga  Ga3  1  0.42181200  0.77380200  0.77404300  1
  Ga  Ga4  1  0.44998500  0.45059500  0.09793800  1
  Ga  Ga5  1  0.94724500  0.94844300  0.59511800  1
  Ga  Ga6  1  0.23117300  0.57671800  0.23187400  1
  Ga  Ga7  1  0.72464600  0.07616400  0.73060600  1
  Ga  Ga8  1  0.57922500  0.23353000  0.22715700  1
  Ga  Ga9  1  0.07920400  0.72685000  0.72645000  1
  Ga  Ga10  1  0.05141200  0.05816500  0.40315600  1
  Ga  Ga11  1  0.55105400  0.55800100  0.90329500  1
  Ga  Ga12  1  0.05782100  0.66640700  0.44195700  1
  Ga  Ga13  1  0.55830100  0.16584100  0.94249800  1
  Ga  Ga14  1  0.85511300  0.63345500  0.25139100  1
  Ga  Ga15  1  0.36322600  0.13685900  0.75071100  1
  Ga  Ga16  1  0.83092700  0.44260600  0.05772600  1
  Ga  Ga17  1  0.33106400  0.94373300  0.55727500  1
  Ga  Ga18  1  0.44719500  0.83089400  0.05391600  1
  Ga  Ga19  1  0.94954400  0.33144100  0.55360800  1
  Ga  Ga20  1  0.63451100  0.85876600  0.25040200  1
  Ga  Ga21  1  0.13776200  0.36496100  0.74983300  1
  Ga  Ga22  1  0.67020500  0.05645000  0.44405100  1
  Ga  Ga23  1  0.17001400  0.55796900  0.94373200  1
  Ga  Ga24  1  0.99663900  0.00130900  0.00012800  1
  Ga  Ga25  1  0.49678700  0.50077100  0.49759200  1
  Fe  Fe0  1  0.19865400  0.41314300  0.40987900  1
  Fe  Fe1  1  0.69717300  0.91198900  0.91127400  1
  Fe  Fe2  1  0.51585500  0.51967800  0.30367900  1
loop_
_geom_bond_atom_site_label_1
_geom_bond_atom_site_label_2
_geom_bond_distance
_geom_bond_site_symmetry_2
Cr0 Ga0 2.538938 1_555
Cr0 Fe2 2.569872 1_555
Cr0 Fe0 2.572453 1_555
Cr0 Ga25 2.579160 1_555
Cr0 Ga20 2.589343 1_555
Cr0 Ga12 2.593146 1_555
Cr0 Ga17 2.632742 1_555
Cr0 Ga22 2.638670 1_565
Cr0 Ga6 2.691113 1_555
Cr0 Cr22 2.742886 1_555
Cr0 Cr9 2.786369 1_555
Cr0 Cr10 2.810550 1_555
Cr1 Ga1 2.541988 1_555
Cr1 Cr14 2.547200 1_655
Cr1 Ga21 2.576660 1_655
Cr1 Fe1 2.584814 1_545
Cr1 Ga24 2.594250 1_556
Cr1 Ga13 2.614715 1_555
Cr1 Ga23 2.648355 1_655
Cr1 Ga16 2.671322 1_556
Cr1 Ga7 2.696347 1_555
Cr1 Cr21 2.776198 1_656
Cr1 Cr11 2.821262 1_655
Cr1 Cr8 2.841111 1_556
Cr2 Ga2 2.559174 1_555
Cr2 Ga25 2.565935 1_555
Cr2 Ga22 2.575339 1_555
Cr2 Fe2 2.580446 1_555
Cr2 Ga14 2.607770 1_555
Cr2 Ga8 2.685040 1_555
Cr2 Ga19 2.686116 1_555
Cr2 Ga12 2.706365 1_655
Cr2 Cr7 2.778643 1_555
Cr3 Ga24 2.562921 1_466
Cr3 Ga3 2.571075 1_555
Cr3 Ga23 2.596638 1_555
Cr3 Ga15 2.601562 1_565
Cr3 Ga9 2.677551 1_555
Cr3 Ga13 2.726335 1_565
Cr3 Ga18 2.734975 1_556
Cr3 Cr6 2.819962 1_556
Cr4 Ga4 2.550234 1_555
Cr4 Fe1 2.562567 1_554
Cr4 Ga24 2.563077 1_565
Cr4 Ga16 2.571074 1_555
Cr4 Ga18 2.625537 1_555
Cr4 Ga14 2.677046 1_555
Cr4 Ga11 2.677347 1_554
Cr4 Ga20 2.704818 1_555
Cr4 Cr6 2.802980 1_655
Cr4 Cr8 2.818661 1_565
Cr5 Ga5 2.550876 1_445
Cr5 Ga17 2.574479 1_545
Cr5 Ga25 2.598678 1_555
Cr5 Ga19 2.598882 1_455
Cr5 Fe0 2.606416 1_555
Cr5 Ga15 2.662450 1_555
Cr5 Ga21 2.672566 1_555
Cr5 Ga10 2.701064 1_555
Cr5 Cr7 2.822424 1_555
Cr5 Cr9 2.826050 1_555
Cr6 Ga24 2.614024 1_465
Cr6 Ga6 2.616530 1_555
Cr6 Ga18 2.632577 1_555
Cr6 Ga14 2.648937 1_455
Cr6 Ga0 2.663012 1_555
Cr6 Ga23 2.691241 1_554
Cr6 Ga16 2.706920 1_455
Cr7 Ga7 2.585505 1_555
Cr7 Ga15 2.613640 1_555
Cr7 Ga25 2.619708 1_555
Cr7 Ga19 2.640687 1_555
Cr7 Ga1 2.653597 1_555
Cr7 Ga22 2.695760 1_555
Cr7 Ga17 2.713104 1_545
Cr8 Ga24 2.540874 1_555
Cr8 Ga8 2.590238 1_555
Cr8 Ga16 2.605868 1_555
Cr8 Ga20 2.628635 1_545
Cr8 Ga18 2.653623 1_545
Cr8 Ga13 2.672822 1_554
Cr8 Fe1 2.723741 1_544
Cr8 Ga2 2.731441 1_555
Cr9 Ga25 2.547978 1_555
Cr9 Ga9 2.562810 1_555
Cr9 Ga17 2.596748 1_555
Cr9 Ga21 2.612673 1_555
Cr9 Ga19 2.664126 1_455
Cr9 Ga12 2.683774 1_555
Cr9 Ga3 2.731021 1_555
Cr9 Fe0 2.738427 1_555
Cr10 Cr22 2.538727 1_555
Cr10 Cr18 2.544946 1_555
Cr10 Ga25 2.564081 1_555
Cr10 Ga10 2.603047 1_665
Cr10 Ga22 2.603343 1_565
Cr10 Ga12 2.635881 1_655
Cr10 Ga14 2.653126 1_555
Cr10 Ga5 2.684686 1_555
Cr10 Ga20 2.685706 1_555
Cr10 Fe2 2.750113 1_555
Cr10 Cr2 2.815114 1_555
Cr11 Cr21 2.528209 1_556
Cr11 Cr17 2.532733 1_556
Cr11 Ga11 2.577494 1_555
Cr11 Ga24 2.590036 1_456
Cr11 Ga23 2.611708 1_555
Cr11 Ga13 2.625578 1_555
Cr11 Ga15 2.690831 1_555
Cr11 Ga4 2.691514 1_556
Cr11 Ga21 2.724816 1_555
Cr11 Cr14 2.787328 1_555
Cr11 Cr3 2.803505 1_545
Cr12 Cr21 2.437988 1_555
Cr12 Cr19 2.443878 1_445
Cr12 Cr17 2.448375 1_555
Cr12 Fe0 2.567971 1_555
Cr12 Fe2 2.578544 1_555
Cr12 Cr15 2.584144 1_555
Cr12 Ga4 2.621992 1_555
Cr12 Ga6 2.626451 1_555
Cr12 Ga0 2.628663 1_545
Cr12 Ga2 2.629714 1_455
Cr12 Ga10 2.634450 1_555
Cr12 Ga8 2.642646 1_555
Cr13 Cr18 2.465179 1_555
Cr13 Cr22 2.472746 1_555
Cr13 Cr20 2.473887 1_555
Cr13 Cr14 2.539797 1_665
Cr13 Cr16 2.551822 1_555
Cr13 Fe1 2.563850 1_555
Cr13 Ga1 2.620307 1_555
Cr13 Ga5 2.624924 1_555
Cr13 Ga9 2.633801 1_655
Cr13 Ga7 2.638327 1_565
Cr13 Ga11 2.642934 1_555
Cr13 Ga3 2.649905 1_555
Cr14 Ga24 2.511231 1_456
Cr14 Cr3 2.516796 1_545
Cr14 Ga21 2.621557 1_555
Cr14 Ga15 2.626211 1_555
Cr14 Ga7 2.633575 1_455
Cr14 Ga9 2.655167 1_545
Cr14 Fe1 2.712117 1_445
Cr14 Ga5 2.727543 1_445
Cr14 Cr16 2.746339 1_445
Cr15 Ga25 2.496105 1_555
Cr15 Cr2 2.516102 1_555
Cr15 Cr5 2.555822 1_555
Cr15 Ga17 2.621984 1_545
Cr15 Ga22 2.623692 1_555
Cr15 Ga8 2.638643 1_555
Cr15 Ga10 2.647863 1_555
Cr15 Ga0 2.710778 1_545
Cr15 Fe0 2.727251 1_555
Cr15 Fe2 2.733976 1_555
Cr15 Cr7 2.795086 1_555
Cr16 Cr4 2.497132 1_556
Cr16 Ga24 2.518545 1_566
Cr16 Cr3 2.519254 1_655
Cr16 Ga16 2.617692 1_556
Cr16 Ga23 2.624009 1_655
Cr16 Ga11 2.630660 1_555
Cr16 Ga9 2.667399 1_655
Cr16 Ga1 2.708485 1_555
Cr16 Fe1 2.721240 1_555
Cr16 Cr6 2.796478 1_656
Cr17 Cr6 2.523310 1_545
Cr17 Ga24 2.546590 1_455
Cr17 Ga18 2.611671 1_545
Cr17 Ga13 2.614937 1_554
Cr17 Ga0 2.658452 1_545
Cr17 Ga4 2.665576 1_555
Cr17 Ga8 2.717282 1_555
Cr17 Cr21 2.744953 1_555
Cr17 Cr19 2.752227 1_445
Cr17 Cr3 2.755735 1_544
Cr18 Cr7 2.501506 1_555
Cr18 Ga25 2.544784 1_555
Cr18 Ga12 2.625193 1_655
Cr18 Ga19 2.625775 1_555
Cr18 Ga5 2.654052 1_555
Cr18 Ga1 2.654473 1_555
Cr18 Ga9 2.717658 1_655
Cr18 Cr20 2.723774 1_555
Cr18 Cr2 2.727501 1_555
Cr18 Cr22 2.732775 1_555
Cr19 Cr6 2.520120 1_655
Cr19 Ga24 2.521532 1_565
Cr19 Cr8 2.574753 1_565
Cr19 Ga14 2.623926 1_555
Cr19 Ga20 2.629406 1_555
Cr19 Ga0 2.652697 1_655
Cr19 Ga2 2.660169 1_565
Cr19 Ga10 2.703087 1_665
Cr19 Cr21 2.754504 1_665
Cr19 Cr4 2.760173 1_555
Cr20 Cr7 2.518621 1_555
Cr20 Ga25 2.530132 1_555
Cr20 Cr9 2.556179 1_555
Cr20 Ga21 2.616703 1_555
Cr20 Ga15 2.618334 1_555
Cr20 Ga1 2.645089 1_555
Cr20 Ga3 2.652986 1_555
Cr20 Cr22 2.713447 1_555
Cr20 Ga11 2.722345 1_555
Cr20 Cr5 2.746758 1_555
Cr21 Ga24 2.506325 1_455
Cr21 Cr8 2.581913 1_455
Cr21 Ga16 2.617590 1_455
Cr21 Ga23 2.618633 1_554
Cr21 Ga4 2.644246 1_555
Cr21 Ga2 2.649402 1_455
Cr21 Ga6 2.715760 1_555
Cr22 Ga25 2.507360 1_555
Cr22 Cr9 2.538705 1_555
Cr22 Ga22 2.619712 1_565
Cr22 Ga17 2.622583 1_555
Cr22 Ga5 2.637543 1_555
Cr22 Ga3 2.650205 1_555
Cr22 Ga7 2.711319 1_565
Ga0 Ga6 2.615887 1_555
Ga0 Ga10 2.844880 1_565
Ga0 Ga8 2.848189 1_565
Ga0 Ga12 3.009373 1_555
Ga0 Ga20 3.014616 1_555
Ga1 Ga7 2.619313 1_555
Ga1 Ga9 2.826058 1_655
Ga1 Ga11 2.835435 1_555
Ga1 Ga13 3.014113 1_555
Ga1 Ga21 3.035090 1_655
Ga2 Ga8 2.645335 1_555
Ga2 Ga6 2.800156 1_655
Ga2 Ga22 3.024516 1_555
Ga3 Ga9 2.645547 1_555
Ga3 Ga7 2.771662 1_565
Ga4 Ga8 2.777806 1_555
Ga4 Ga6 2.797765 1_555
Ga5 Ga9 2.831440 1_655
Ga5 Ga7 2.837798 1_565
Ga10 Ga5 2.621616 1_445
Ga10 Ga2 2.781810 1_455
Ga11 Ga4 2.644911 1_556
Ga11 Ga3 2.770939 1_555
Ga14 Ga2 3.010870 1_555
Ga15 Ga3 3.015123 1_545
Ga16 Ga4 3.027597 1_555
Ga17 Ga9 3.011872 1_555
Ga17 Ga5 3.036281 1_455
Ga18 Ga4 3.011686 1_555
Ga19 Ga5 3.013444 1_545
Ga21 Ga9 3.006164 1_555
Ga23 Ga3 3.013520 1_555
Fe0 Ga25 2.468015 1_555
Fe0 Ga6 2.568526 1_555
Fe0 Ga19 2.577943 1_455
Fe0 Ga12 2.579559 1_555
Fe0 Ga10 2.610223 1_555
Fe0 Fe2 2.685039 1_555
Fe0 Ga2 2.713845 1_455
Fe1 Ga24 2.483089 1_566
Fe1 Ga13 2.571716 1_565
Fe1 Ga18 2.572756 1_556
Fe1 Ga11 2.603070 1_555
Fe1 Ga7 2.603754 1_565
Fe1 Ga3 2.707155 1_555
Fe2 Ga25 2.473922 1_555
Fe2 Ga20 2.572530 1_555
Fe2 Ga14 2.574690 1_555
Fe2 Ga6 2.575253 1_555
Fe2 Ga8 2.614843 1_555
Fe2 Ga4 2.692116 1_555
