# generated using pymatgen
data_TaPd
_symmetry_space_group_name_H-M   'P 1'
_cell_length_a   5.44703600
_cell_length_b   5.44703600
_cell_length_c   22.39939200
_cell_angle_alpha   90.00000000
_cell_angle_beta   90.00000000
_cell_angle_gamma   90.00000000
_symmetry_Int_Tables_number   1
_chemical_formula_structural   TaPd
_chemical_formula_sum   'Ta16 Pd16'
_cell_volume   664.59446707
_cell_formula_units_Z   16
loop_
 _symmetry_equiv_pos_site_id
 _symmetry_equiv_pos_as_xyz
  1  'x, y, z'
loop_
 _atom_site_type_symbol
 _atom_site_label
 _atom_site_symmetry_multiplicity
 _atom_site_fract_x
 _atom_site_fract_y
 _atom_site_fract_z
 _atom_site_occupancy
  Ta  Ta0_0  1  0.25000000  0.25000000  0.31233450  1
  Ta  Ta0_1  1  0.25000000  0.25000000  0.81233450  1
  Ta  Ta0_2  1  0.25000000  0.75000000  0.31233450  1
  Ta  Ta0_3  1  0.25000000  0.75000000  0.81233450  1
  Ta  Ta0_4  1  0.75000000  0.25000000  0.31233450  1
  Ta  Ta0_5  1  0.75000000  0.25000000  0.81233450  1
  Ta  Ta0_6  1  0.75000000  0.75000000  0.31233450  1
  Ta  Ta0_7  1  0.75000000  0.75000000  0.81233450  1
  Ta  Ta1_0  1  0.25000000  0.25000000  0.18766550  1
  Ta  Ta1_1  1  0.25000000  0.25000000  0.68766550  1
  Ta  Ta1_2  1  0.25000000  0.75000000  0.18766550  1
  Ta  Ta1_3  1  0.25000000  0.75000000  0.68766550  1
  Ta  Ta1_4  1  0.75000000  0.25000000  0.18766550  1
  Ta  Ta1_5  1  0.75000000  0.25000000  0.68766550  1
  Ta  Ta1_6  1  0.75000000  0.75000000  0.18766550  1
  Ta  Ta1_7  1  0.75000000  0.75000000  0.68766550  1
  Pd  Pd0_0  1  0.25000000  0.25000000  0.07870400  1
  Pd  Pd0_1  1  0.25000000  0.25000000  0.57870400  1
  Pd  Pd0_2  1  0.25000000  0.75000000  0.07870400  1
  Pd  Pd0_3  1  0.25000000  0.75000000  0.57870400  1
  Pd  Pd0_4  1  0.75000000  0.25000000  0.07870400  1
  Pd  Pd0_5  1  0.75000000  0.25000000  0.57870400  1
  Pd  Pd0_6  1  0.75000000  0.75000000  0.07870400  1
  Pd  Pd0_7  1  0.75000000  0.75000000  0.57870400  1
  Pd  Pd1_0  1  0.25000000  0.25000000  0.42129600  1
  Pd  Pd1_1  1  0.25000000  0.25000000  0.92129600  1
  Pd  Pd1_2  1  0.25000000  0.75000000  0.42129600  1
  Pd  Pd1_3  1  0.25000000  0.75000000  0.92129600  1
  Pd  Pd1_4  1  0.75000000  0.25000000  0.42129600  1
  Pd  Pd1_5  1  0.75000000  0.25000000  0.92129600  1
  Pd  Pd1_6  1  0.75000000  0.75000000  0.42129600  1
  Pd  Pd1_7  1  0.75000000  0.75000000  0.92129600  1
loop_
_geom_bond_atom_site_label_1
_geom_bond_atom_site_label_2
_geom_bond_distance
_geom_bond_site_symmetry_2
Ta0_0 Ta0_2 2.723518 1_555
Ta0_0 Ta0_2 2.723518 1_545
Ta0_0 Ta0_4 2.723518 1_455
Ta0_0 Ta0_4 2.723518 1_555
Ta0_0 Ta1_0 2.792510 1_555
Ta0_1 Ta0_5 2.723518 1_455
Ta0_1 Ta0_5 2.723518 1_555
Ta0_1 Ta0_3 2.723518 1_545
Ta0_1 Ta0_3 2.723518 1_555
Ta0_1 Ta1_1 2.792510 1_555
Ta0_2 Ta0_6 2.723518 1_455
Ta0_2 Ta0_6 2.723518 1_555
Ta0_2 Ta1_2 2.792510 1_555
Ta0_3 Ta0_7 2.723518 1_455
Ta0_3 Ta0_7 2.723518 1_555
Ta0_3 Ta1_3 2.792510 1_555
Ta0_4 Ta0_6 2.723518 1_555
Ta0_4 Ta0_6 2.723518 1_545
Ta0_4 Ta1_4 2.792510 1_555
Ta0_5 Ta0_7 2.723518 1_545
Ta0_5 Ta0_7 2.723518 1_555
Ta0_5 Ta1_5 2.792510 1_555
Ta0_6 Ta1_6 2.792510 1_555
Ta0_7 Ta1_7 2.792510 1_555
Ta1_0 Ta1_4 2.723518 1_455
Ta1_0 Ta1_4 2.723518 1_555
Ta1_0 Ta1_2 2.723518 1_555
Ta1_0 Ta1_2 2.723518 1_545
Ta1_1 Ta1_5 2.723518 1_455
Ta1_1 Ta1_3 2.723518 1_555
Ta1_1 Ta1_5 2.723518 1_555
Ta1_1 Ta1_3 2.723518 1_545
Ta1_2 Ta1_6 2.723518 1_555
Ta1_2 Ta1_6 2.723518 1_455
Ta1_3 Ta1_7 2.723518 1_555
Ta1_3 Ta1_7 2.723518 1_455
Ta1_4 Ta1_6 2.723518 1_555
Ta1_4 Ta1_6 2.723518 1_545
Ta1_5 Ta1_7 2.723518 1_545
Ta1_5 Ta1_7 2.723518 1_555
Pd0_0 Ta1_0 2.440671 1_555
Pd0_0 Pd0_4 2.723518 1_555
Pd0_0 Pd0_2 2.723518 1_555
Pd0_0 Pd0_2 2.723518 1_545
Pd0_0 Pd0_4 2.723518 1_455
Pd0_1 Ta1_1 2.440671 1_555
Pd0_1 Pd0_5 2.723518 1_455
Pd0_1 Pd0_3 2.723518 1_545
Pd0_1 Pd0_5 2.723518 1_555
Pd0_1 Pd0_3 2.723518 1_555
Pd0_2 Ta1_2 2.440671 1_555
Pd0_2 Pd0_6 2.723518 1_455
Pd0_2 Pd0_6 2.723518 1_555
Pd0_3 Ta1_3 2.440671 1_555
Pd0_3 Pd0_7 2.723518 1_455
Pd0_3 Pd0_7 2.723518 1_555
Pd0_4 Ta1_4 2.440671 1_555
Pd0_4 Pd0_6 2.723518 1_555
Pd0_4 Pd0_6 2.723518 1_545
Pd0_5 Ta1_5 2.440671 1_555
Pd0_5 Pd0_7 2.723518 1_555
Pd0_5 Pd0_7 2.723518 1_545
Pd0_6 Ta1_6 2.440671 1_555
Pd0_7 Ta1_7 2.440671 1_555
Pd1_0 Ta0_0 2.440671 1_555
Pd1_0 Pd1_2 2.723518 1_555
Pd1_0 Pd1_4 2.723518 1_455
Pd1_0 Pd1_4 2.723518 1_555
Pd1_0 Pd1_2 2.723518 1_545
Pd1_1 Ta0_1 2.440671 1_555
Pd1_1 Pd1_3 2.723518 1_545
Pd1_1 Pd1_3 2.723518 1_555
Pd1_1 Pd1_5 2.723518 1_455
Pd1_1 Pd1_5 2.723518 1_555
Pd1_2 Ta0_2 2.440671 1_555
Pd1_2 Pd1_6 2.723518 1_455
Pd1_2 Pd1_6 2.723518 1_555
Pd1_3 Ta0_3 2.440671 1_555
Pd1_3 Pd1_7 2.723518 1_555
Pd1_3 Pd1_7 2.723518 1_455
Pd1_4 Ta0_4 2.440671 1_555
Pd1_4 Pd1_6 2.723518 1_555
Pd1_4 Pd1_6 2.723518 1_545
Pd1_5 Ta0_5 2.440671 1_555
Pd1_5 Pd1_7 2.723518 1_555
Pd1_5 Pd1_7 2.723518 1_545
Pd1_6 Ta0_6 2.440671 1_555
Pd1_7 Ta0_7 2.440671 1_555
