# generated using pymatgen
data_CdC2S2(IN2)2
_symmetry_space_group_name_H-M   'P 1'
_cell_length_a   8.59135800
_cell_length_b   9.57486500
_cell_length_c   12.88364616
_cell_angle_alpha   83.83086728
_cell_angle_beta   90.00000000
_cell_angle_gamma   90.00000000
_symmetry_Int_Tables_number   1
_chemical_formula_structural   CdC2S2(IN2)2
_chemical_formula_sum   'Cd4 C8 S8 I8 N16'
_cell_volume   1053.68538411
_cell_formula_units_Z   4
loop_
 _symmetry_equiv_pos_site_id
 _symmetry_equiv_pos_as_xyz
  1  'x, y, z'
loop_
 _atom_site_type_symbol
 _atom_site_label
 _atom_site_symmetry_multiplicity
 _atom_site_fract_x
 _atom_site_fract_y
 _atom_site_fract_z
 _atom_site_occupancy
  Cd  Cd0  1  0.46826900  0.73627700  0.63719500  1
  Cd  Cd1  1  0.96826900  0.26372300  0.86280500  1
  Cd  Cd2  1  0.53173100  0.26372300  0.36280500  1
  Cd  Cd3  1  0.03173100  0.73627700  0.13719500  1
  C  C0  1  0.40074400  0.85981400  0.85434000  1
  C  C1  1  0.90074400  0.14018600  0.64566000  1
  C  C2  1  0.59925600  0.14018600  0.14566000  1
  C  C3  1  0.09925600  0.85981400  0.35434000  1
  C  C4  1  0.64889800  0.77446500  0.38480600  1
  C  C5  1  0.14889800  0.22553500  0.11519400  1
  C  C6  1  0.35110200  0.22553500  0.61519400  1
  C  C7  1  0.85110200  0.77446500  0.88480600  1
  S  S0  1  0.53331600  0.05486700  0.72456000  1
  S  S1  1  0.03331600  0.94513300  0.77544000  1
  S  S2  1  0.46668400  0.94513300  0.27544000  1
  S  S3  1  0.96668400  0.05486700  0.22456000  1
  S  S4  1  0.62812200  0.86755500  0.49768100  1
  S  S5  1  0.12812200  0.13244500  0.00231900  1
  S  S6  1  0.37187800  0.13244500  0.50231900  1
  S  S7  1  0.87187800  0.86755500  0.99768100  1
  I  I0  1  0.14359900  0.68027100  0.57479300  1
  I  I1  1  0.64359900  0.31972900  0.92520700  1
  I  I2  1  0.85640100  0.31972900  0.42520700  1
  I  I3  1  0.35640100  0.68027100  0.07479300  1
  I  I4  1  0.70566800  0.54736400  0.75354800  1
  I  I5  1  0.20566800  0.45263600  0.74645200  1
  I  I6  1  0.29433200  0.45263600  0.24645200  1
  I  I7  1  0.79433200  0.54736400  0.25354800  1
  N  N0  1  0.43383900  0.88902800  0.75817700  1
  N  N1  1  0.93383900  0.11097200  0.74182300  1
  N  N2  1  0.56616100  0.11097200  0.24182300  1
  N  N3  1  0.06616100  0.88902800  0.25817700  1
  N  N4  1  0.35396600  0.84126100  0.94220300  1
  N  N5  1  0.85396600  0.15873900  0.55779700  1
  N  N6  1  0.64603400  0.15873900  0.05779700  1
  N  N7  1  0.14603400  0.84126100  0.44220300  1
  N  N8  1  0.59475400  0.82116200  0.28799200  1
  N  N9  1  0.09475400  0.17883800  0.21200800  1
  N  N10  1  0.40524600  0.17883800  0.71200800  1
  N  N11  1  0.90524600  0.82116200  0.78799200  1
  N  N12  1  0.73270300  0.67182100  0.42245400  1
  N  N13  1  0.23270300  0.32817900  0.07754600  1
  N  N14  1  0.26729700  0.32817900  0.57754600  1
  N  N15  1  0.76729700  0.67182100  0.92245400  1
loop_
_geom_bond_atom_site_label_1
_geom_bond_atom_site_label_2
_geom_bond_distance
_geom_bond_site_symmetry_2
Cd0 N0 2.268500 1_555
Cd0 S4 2.492249 1_555
Cd0 I0 2.967675 1_555
Cd0 I4 3.015971 1_555
Cd1 N1 2.268500 1_555
Cd1 S5 2.492249 1_656
Cd1 I1 2.967675 1_555
Cd1 I5 3.015971 1_655
Cd2 N2 2.268500 1_555
Cd2 S6 2.492249 1_555
Cd2 I2 2.967675 1_555
Cd2 I6 3.015971 1_555
Cd3 N3 2.268500 1_555
Cd3 S7 2.492249 1_454
Cd3 I3 2.967675 1_555
Cd3 I7 3.015971 1_455
C0 N4 1.196355 1_555
C0 N0 1.272616 1_555
C1 N5 1.196355 1_555
C1 N1 1.272616 1_555
C2 N6 1.196355 1_555
C2 N2 1.272616 1_555
C3 N7 1.196355 1_555
C3 N3 1.272616 1_555
C4 N12 1.271656 1_555
C4 N8 1.360968 1_555
C4 S4 1.794360 1_555
C5 N13 1.271656 1_555
C5 N9 1.360968 1_555
C5 S5 1.794360 1_555
C6 N14 1.271656 1_555
C6 N10 1.360968 1_555
C6 S6 1.794360 1_555
C7 N15 1.271656 1_555
C7 N11 1.360968 1_555
C7 S7 1.794360 1_555
I0 N7 2.174552 1_555
I1 N6 2.174552 1_556
I2 N5 2.174552 1_555
I3 N4 2.174552 1_554
I4 N15 2.644479 1_555
I5 N14 2.644479 1_555
I6 N13 2.644479 1_555
I7 N12 2.644479 1_555
N0 S0 1.814268 1_565
N1 S1 1.814268 1_645
N2 S2 1.814268 1_545
N3 S3 1.814268 1_465
N8 S2 1.613855 1_555
N9 S3 1.613855 1_455
N10 S0 1.613855 1_555
N11 S1 1.613855 1_655
