# generated using pymatgen
data_Cd(Cu3O4)2
_symmetry_space_group_name_H-M   'P 1'
_cell_length_a   6.54887935
_cell_length_b   6.54887935
_cell_length_c   6.54887935
_cell_angle_alpha   60.00000000
_cell_angle_beta   60.00000000
_cell_angle_gamma   60.00000000
_symmetry_Int_Tables_number   1
_chemical_formula_structural   Cd(Cu3O4)2
_chemical_formula_sum   'Cd1 Cu6 O8'
_cell_volume   198.60307632
_cell_formula_units_Z   1
loop_
 _symmetry_equiv_pos_site_id
 _symmetry_equiv_pos_as_xyz
  1  'x, y, z'
loop_
 _atom_site_type_symbol
 _atom_site_label
 _atom_site_symmetry_multiplicity
 _atom_site_fract_x
 _atom_site_fract_y
 _atom_site_fract_z
 _atom_site_occupancy
  Cd  Cd0  1  0.00000000  0.00000000  0.00000000  1
  Cu  Cu0  1  0.50000000  0.00000000  0.50000000  1
  Cu  Cu1  1  0.50000000  0.00000000  0.00000000  1
  Cu  Cu2  1  0.00000000  0.00000000  0.50000000  1
  Cu  Cu3  1  0.00000000  0.50000000  0.00000000  1
  Cu  Cu4  1  0.00000000  0.50000000  0.50000000  1
  Cu  Cu5  1  0.50000000  0.50000000  0.00000000  1
  O  O0  1  0.85482800  0.43551500  0.85482800  1
  O  O1  1  0.14517200  0.14517200  0.14517200  1
  O  O2  1  0.85482800  0.85482800  0.85482800  1
  O  O3  1  0.56448500  0.14517200  0.14517200  1
  O  O4  1  0.85482800  0.85482800  0.43551500  1
  O  O5  1  0.43551500  0.85482800  0.85482800  1
  O  O6  1  0.14517200  0.14517200  0.56448500  1
  O  O7  1  0.14517200  0.56448500  0.14517200  1
loop_
_geom_bond_atom_site_label_1
_geom_bond_atom_site_label_2
_geom_bond_distance
_geom_bond_site_symmetry_2
Cd0 O5 2.328759 1_544
Cd0 O6 2.328759 1_554
Cd0 O0 2.328759 1_454
Cd0 O4 2.328759 1_445
Cd0 O7 2.328759 1_545
Cd0 O3 2.328759 1_455
Cd0 O2 2.328764 1_444
Cd0 O1 2.328764 1_555
Cu0 O4 1.921685 1_545
Cu0 O3 1.921685 1_555
Cu0 O6 1.921685 1_555
Cu0 O5 1.921685 1_545
Cu1 O2 1.921686 1_544
Cu1 O1 1.921686 1_555
Cu1 O5 1.921690 1_544
Cu1 O3 1.921690 1_555
Cu2 O2 1.921686 1_445
Cu2 O1 1.921686 1_555
Cu2 O4 1.921690 1_445
Cu2 O6 1.921690 1_555
Cu3 O2 1.921686 1_454
Cu3 O1 1.921686 1_555
Cu3 O0 1.921690 1_454
Cu3 O7 1.921690 1_555
Cu4 O4 1.921685 1_455
Cu4 O0 1.921685 1_455
Cu4 O7 1.921685 1_555
Cu4 O6 1.921685 1_555
Cu5 O3 1.921685 1_555
Cu5 O0 1.921685 1_554
Cu5 O7 1.921685 1_555
Cu5 O5 1.921685 1_554
