# generated using pymatgen
data_K4SiO4
_symmetry_space_group_name_H-M   'P 1'
_cell_length_a   6.42093904
_cell_length_b   10.31681253
_cell_length_c   10.33090912
_cell_angle_alpha   67.37141206
_cell_angle_beta   90.00000000
_cell_angle_gamma   90.00000000
_symmetry_Int_Tables_number   1
_chemical_formula_structural   K4SiO4
_chemical_formula_sum   'K16 Si4 O16'
_cell_volume   631.67394697
_cell_formula_units_Z   4
loop_
 _symmetry_equiv_pos_site_id
 _symmetry_equiv_pos_as_xyz
  1  'x, y, z'
loop_
 _atom_site_type_symbol
 _atom_site_label
 _atom_site_symmetry_multiplicity
 _atom_site_fract_x
 _atom_site_fract_y
 _atom_site_fract_z
 _atom_site_occupancy
  K  K0  1  0.66614344  0.88844671  0.63274171  1
  K  K1  1  0.33385656  0.11155329  0.36725829  1
  K  K2  1  0.83385656  0.38844671  0.63274171  1
  K  K3  1  0.59277404  0.30089160  0.06344799  1
  K  K4  1  0.09277404  0.19910840  0.93655201  1
  K  K5  1  0.40722596  0.69910840  0.93655201  1
  K  K6  1  0.90722596  0.80089160  0.06344799  1
  K  K7  1  0.60966871  0.08302129  0.84048669  1
  K  K8  1  0.10966871  0.41697871  0.15951331  1
  K  K9  1  0.39033129  0.91697871  0.15951331  1
  K  K10  1  0.89033129  0.58302129  0.84048669  1
  K  K11  1  0.68718093  0.70145130  0.42898969  1
  K  K12  1  0.18718093  0.79854870  0.57101031  1
  K  K13  1  0.31281907  0.29854870  0.57101031  1
  K  K14  1  0.81281907  0.20145130  0.42898969  1
  K  K15  1  0.16614344  0.61155329  0.36725829  1
  Si  Si0  1  0.36794420  0.49045889  0.75879041  1
  Si  Si1  1  0.86794420  0.00954111  0.24120959  1
  Si  Si2  1  0.13205580  0.99045889  0.75879041  1
  Si  Si3  1  0.63205580  0.50954111  0.24120959  1
  O  O0  1  0.23534680  0.96924324  0.91152900  1
  O  O1  1  -0.00128493  0.15368064  0.22169355  1
  O  O2  1  0.49871507  0.34631936  0.77830645  1
  O  O3  1  0.00128493  0.84631936  0.77830645  1
  O  O4  1  0.73534680  0.53075676  0.08847100  1
  O  O5  1  0.76465320  0.03075676  0.08847100  1
  O  O6  1  0.26465320  0.46924324  0.91152900  1
  O  O7  1  0.32302397  0.01532538  0.64321934  1
  O  O8  1  0.82302397  0.48467462  0.35678066  1
  O  O9  1  0.67697603  0.98467462  0.35678066  1
  O  O10  1  0.17697603  0.51532538  0.64321934  1
  O  O11  1  0.02265139  0.86979982  0.29970988  1
  O  O12  1  0.52265139  0.63020018  0.70029012  1
  O  O13  1  0.97734861  0.13020018  0.70029012  1
  O  O14  1  0.47734861  0.36979982  0.29970988  1
  O  O15  1  0.50128493  0.65368064  0.22169355  1
loop_
_geom_bond_atom_site_label_1
_geom_bond_atom_site_label_2
_geom_bond_distance
_geom_bond_site_symmetry_2
K0 O3 2.564798 1_655
K0 O7 2.586127 1_565
K0 O9 2.634438 1_555
K0 O12 2.646424 1_555
K1 O1 2.564798 1_555
K1 O9 2.586127 1_545
K1 O7 2.634438 1_555
K1 O14 2.646424 1_555
K2 O2 2.564798 1_555
K2 O10 2.586127 1_655
K2 O8 2.634438 1_555
K2 O13 2.646424 1_555
K3 O4 2.645851 1_555
K3 O6 2.796610 1_554
K3 O2 2.863492 1_554
K3 O14 2.889195 1_555
K3 O5 2.915031 1_555
K3 O1 3.140476 1_655
K4 O0 2.645851 1_545
K4 O5 2.796610 1_456
K4 O1 2.863492 1_556
K4 O13 2.889195 1_455
K4 O6 2.915031 1_555
K4 O2 3.140476 1_555
K5 O6 2.645851 1_555
K5 O4 2.796610 1_556
K5 O15 2.863492 1_556
K5 O12 2.889195 1_555
K5 O0 2.915031 1_555
K5 O3 3.140476 1_555
K6 O5 2.645851 1_565
K6 O0 2.796610 1_654
K6 O3 2.863492 1_654
K6 O11 2.889195 1_655
K6 O4 2.915031 1_555
K6 O15 3.140476 1_555
K7 O5 2.604114 1_556
K7 O2 2.637470 1_555
K7 O0 2.651488 1_545
K7 O13 2.713998 1_555
K7 O7 3.020566 1_555
K8 O6 2.604114 1_554
K8 O1 2.637470 1_555
K8 O4 2.651488 1_455
K8 O14 2.713998 1_555
K8 O8 3.020566 1_455
K9 O0 2.604114 1_554
K9 O15 2.637470 1_555
K9 O5 2.651488 1_565
K9 O11 2.713998 1_555
K9 O9 3.020566 1_555
K10 O4 2.604114 1_556
K10 O3 2.637470 1_655
K10 O6 2.651488 1_655
K10 O12 2.713998 1_555
K10 O10 3.020566 1_655
K11 O15 2.658211 1_555
K11 O9 2.724209 1_555
K11 O8 2.757317 1_555
K11 O11 2.766799 1_655
K11 O12 2.815416 1_555
K12 O3 2.658211 1_555
K12 O10 2.724209 1_555
K12 O7 2.757317 1_565
K12 O12 2.766799 1_555
K12 O11 2.815416 1_555
K13 O2 2.658211 1_555
K13 O7 2.724209 1_555
K13 O10 2.757317 1_555
K13 O13 2.766799 1_455
K13 O14 2.815416 1_555
K14 O1 2.658211 1_655
K14 O8 2.724209 1_555
K14 O9 2.757317 1_545
K14 O14 2.766799 1_555
K14 O13 2.815416 1_555
K15 O15 2.564798 1_555
K15 O8 2.586127 1_455
K15 O10 2.634438 1_555
K15 O11 2.646424 1_555
O0 Si2 1.646774 1_555
O1 Si1 1.651161 1_455
O2 Si0 1.651161 1_555
O3 Si2 1.651161 1_555
O4 Si3 1.646774 1_555
O5 Si1 1.646774 1_555
O6 Si0 1.646774 1_555
O7 Si2 1.661082 1_545
O8 Si3 1.661082 1_555
O9 Si1 1.661082 1_565
O10 Si0 1.661082 1_555
O11 Si1 1.661327 1_465
O12 Si0 1.661327 1_555
O13 Si2 1.661327 1_645
O14 Si3 1.661327 1_555
O15 Si3 1.651161 1_555
