# generated using pymatgen
data_Ba3Sc2N4
_symmetry_space_group_name_H-M   'P 1'
_cell_length_a   6.48951600
_cell_length_b   11.20866600
_cell_length_c   10.45111900
_cell_angle_alpha   90.00000000
_cell_angle_beta   90.00000000
_cell_angle_gamma   90.00000000
_symmetry_Int_Tables_number   1
_chemical_formula_structural   Ba3Sc2N4
_chemical_formula_sum   'Ba12 Sc8 N16'
_cell_volume   760.20203600
_cell_formula_units_Z   4
loop_
 _symmetry_equiv_pos_site_id
 _symmetry_equiv_pos_as_xyz
  1  'x, y, z'
loop_
 _atom_site_type_symbol
 _atom_site_label
 _atom_site_symmetry_multiplicity
 _atom_site_fract_x
 _atom_site_fract_y
 _atom_site_fract_z
 _atom_site_occupancy
  Ba  Ba0  1  0.61761800  0.15566500  0.41465600  1
  Ba  Ba1  1  0.88238200  0.84433500  0.41465600  1
  Ba  Ba2  1  0.61761800  0.34433500  0.08534400  1
  Ba  Ba3  1  0.88238200  0.65566500  0.08534400  1
  Ba  Ba4  1  0.38238200  0.84433500  0.58534400  1
  Ba  Ba5  1  0.11761800  0.15566500  0.58534400  1
  Ba  Ba6  1  0.38238200  0.65566500  0.91465600  1
  Ba  Ba7  1  0.11761800  0.34433500  0.91465600  1
  Ba  Ba8  1  0.75000000  0.50000000  0.41080000  1
  Ba  Ba9  1  0.75000000  0.00000000  0.08920000  1
  Ba  Ba10  1  0.25000000  0.50000000  0.58920000  1
  Ba  Ba11  1  0.25000000  0.00000000  0.91080000  1
  Sc  Sc0  1  0.75000000  0.50000000  0.74067000  1
  Sc  Sc1  1  0.75000000  0.00000000  0.75933000  1
  Sc  Sc2  1  0.25000000  0.50000000  0.25933000  1
  Sc  Sc3  1  0.25000000  0.00000000  0.24067000  1
  Sc  Sc4  1  0.66176100  0.25000000  0.75000000  1
  Sc  Sc5  1  0.83823900  0.75000000  0.75000000  1
  Sc  Sc6  1  0.33823900  0.75000000  0.25000000  1
  Sc  Sc7  1  0.16176100  0.25000000  0.25000000  1
  N  N0  1  0.86225600  0.35682600  0.63132800  1
  N  N1  1  0.63774400  0.64317400  0.63132800  1
  N  N2  1  0.86225600  0.14317400  0.86867200  1
  N  N3  1  0.63774400  0.85682600  0.86867200  1
  N  N4  1  0.13774400  0.64317400  0.36867200  1
  N  N5  1  0.36225600  0.35682600  0.36867200  1
  N  N6  1  0.13774400  0.85682600  0.13132800  1
  N  N7  1  0.36225600  0.14317400  0.13132800  1
  N  N8  1  0.51826800  0.40007900  0.83832300  1
  N  N9  1  0.98173200  0.59992100  0.83832300  1
  N  N10  1  0.51826800  0.09992100  0.66167700  1
  N  N11  1  0.98173200  0.90007900  0.66167700  1
  N  N12  1  0.48173200  0.59992100  0.16167700  1
  N  N13  1  0.01826800  0.40007900  0.16167700  1
  N  N14  1  0.48173200  0.90007900  0.33832300  1
  N  N15  1  0.01826800  0.09992100  0.33832300  1
loop_
_geom_bond_atom_site_label_1
_geom_bond_atom_site_label_2
_geom_bond_distance
_geom_bond_site_symmetry_2
Ba0 N10 2.733308 1_555
Ba0 N15 2.790511 1_655
Ba0 N5 2.839203 1_555
Ba0 N14 3.101776 1_545
Ba1 N11 2.733308 1_555
Ba1 N14 2.790511 1_555
Ba1 N4 2.839203 1_655
Ba1 N15 3.101776 1_665
Ba2 N8 2.733308 1_554
Ba2 N13 2.790511 1_655
Ba2 N7 2.839203 1_555
Ba2 N12 3.101776 1_555
Ba3 N9 2.733308 1_554
Ba3 N12 2.790511 1_555
Ba3 N6 2.839203 1_655
Ba3 N13 3.101776 1_655
Ba4 N14 2.733308 1_555
Ba4 N11 2.790511 1_455
Ba4 N1 2.839203 1_555
Ba4 N10 3.101776 1_565
Ba5 N15 2.733308 1_555
Ba5 N10 2.790511 1_555
Ba5 N0 2.839203 1_455
Ba5 N11 3.101776 1_445
Ba6 N12 2.733308 1_556
Ba6 N9 2.790511 1_455
Ba6 N3 2.839203 1_555
Ba6 N8 3.101776 1_555
Ba7 N13 2.733308 1_556
Ba7 N8 2.790511 1_555
Ba7 N2 2.839203 1_455
Ba7 N9 3.101776 1_455
Ba8 N0 2.901376 1_555
Ba8 N1 2.901376 1_555
Ba8 N5 3.016756 1_555
Ba8 N4 3.016756 1_655
Ba8 N13 3.326259 1_655
Ba8 N12 3.326259 1_555
Ba9 N2 2.901376 1_554
Ba9 N3 2.901376 1_544
Ba9 N7 3.016756 1_555
Ba9 N6 3.016756 1_645
Ba9 N15 3.326259 1_655
Ba9 N14 3.326259 1_545
Ba10 N5 2.901376 1_555
Ba10 N4 2.901376 1_555
Ba10 N0 3.016756 1_455
Ba10 N1 3.016756 1_555
Ba10 N8 3.326259 1_555
Ba10 N9 3.326259 1_455
Ba11 N6 2.901376 1_546
Ba11 N7 2.901376 1_556
Ba11 N3 3.016756 1_545
Ba11 N2 3.016756 1_455
Ba11 N10 3.326259 1_555
Ba11 N11 3.326259 1_445
N0 Sc0 2.100455 1_555
N0 Sc4 2.159825 1_555
N1 Sc0 2.100455 1_555
N1 Sc5 2.159825 1_555
N2 Sc1 2.100455 1_555
N2 Sc4 2.159825 1_555
N3 Sc1 2.100455 1_565
N3 Sc5 2.159825 1_555
N4 Sc2 2.100455 1_555
N4 Sc6 2.159825 1_555
N5 Sc2 2.100455 1_555
N5 Sc7 2.159825 1_555
N6 Sc3 2.100455 1_565
N6 Sc6 2.159825 1_555
N7 Sc3 2.100455 1_555
N7 Sc7 2.159825 1_555
N8 Sc4 2.132826 1_555
N8 Sc0 2.134818 1_555
N9 Sc5 2.132826 1_555
N9 Sc0 2.134818 1_555
N10 Sc4 2.132826 1_555
N10 Sc1 2.134818 1_555
N11 Sc5 2.132826 1_555
N11 Sc1 2.134818 1_565
N12 Sc6 2.132826 1_555
N12 Sc2 2.134818 1_555
N13 Sc7 2.132826 1_555
N13 Sc2 2.134818 1_555
N14 Sc6 2.132826 1_555
N14 Sc3 2.134818 1_565
N15 Sc7 2.132826 1_555
N15 Sc3 2.134818 1_555
