# generated using pymatgen
data_KMn8O16
_symmetry_space_group_name_H-M   'P 1'
_cell_length_a   9.99349600
_cell_length_b   9.99349600
_cell_length_c   5.89779100
_cell_angle_alpha   90.00000000
_cell_angle_beta   90.00000000
_cell_angle_gamma   90.00000000
_symmetry_Int_Tables_number   1
_chemical_formula_structural   KMn8O16
_chemical_formula_sum   'K2 Mn16 O32'
_cell_volume   589.01216484
_cell_formula_units_Z   2
loop_
 _symmetry_equiv_pos_site_id
 _symmetry_equiv_pos_as_xyz
  1  'x, y, z'
loop_
 _atom_site_type_symbol
 _atom_site_label
 _atom_site_symmetry_multiplicity
 _atom_site_fract_x
 _atom_site_fract_y
 _atom_site_fract_z
 _atom_site_occupancy
  K  K0  1  0.50000000  0.00000000  0.87351700  1
  K  K1  1  0.00000000  0.50000000  0.12648300  1
  Mn  Mn0  1  0.83281400  0.14838400  0.37507200  1
  Mn  Mn1  1  0.83475100  0.15018300  0.87500800  1
  Mn  Mn2  1  0.64838400  0.66718600  0.37507200  1
  Mn  Mn3  1  0.65018300  0.66524900  0.87500800  1
  Mn  Mn4  1  0.34981700  0.33475100  0.87500800  1
  Mn  Mn5  1  0.35161600  0.33281400  0.37507200  1
  Mn  Mn6  1  0.16524900  0.84981700  0.87500800  1
  Mn  Mn7  1  0.16718600  0.85161600  0.37507200  1
  Mn  Mn8  1  0.33475100  0.65018300  0.12499200  1
  Mn  Mn9  1  0.33281400  0.64838400  0.62492800  1
  Mn  Mn10  1  0.15018300  0.16524900  0.12499200  1
  Mn  Mn11  1  0.14838400  0.16718600  0.62492800  1
  Mn  Mn12  1  0.84981700  0.83475100  0.12499200  1
  Mn  Mn13  1  0.85161600  0.83281400  0.62492800  1
  Mn  Mn14  1  0.66524900  0.34981700  0.12499200  1
  Mn  Mn15  1  0.66718600  0.35161600  0.62492800  1
  O  O0  1  0.04293500  0.83482200  0.12602500  1
  O  O1  1  0.04360800  0.83621900  0.62500300  1
  O  O2  1  0.33482200  0.45706500  0.12602500  1
  O  O3  1  0.33621900  0.45639200  0.62500300  1
  O  O4  1  0.66517800  0.54293500  0.12602500  1
  O  O5  1  0.66378100  0.54360800  0.62500300  1
  O  O6  1  0.95706500  0.16517800  0.12602500  1
  O  O7  1  0.95639200  0.16378100  0.62500300  1
  O  O8  1  0.54293500  0.33482200  0.87397500  1
  O  O9  1  0.54360800  0.33621900  0.37499700  1
  O  O10  1  0.83482200  0.95706500  0.87397500  1
  O  O11  1  0.83621900  0.95639200  0.37499700  1
  O  O12  1  0.16378100  0.04360800  0.37499700  1
  O  O13  1  0.16517800  0.04293500  0.87397500  1
  O  O14  1  0.45639200  0.66378100  0.37499700  1
  O  O15  1  0.45706500  0.66517800  0.87397500  1
  O  O16  1  0.20354900  0.65637400  0.37256700  1
  O  O17  1  0.20334100  0.65476200  0.87792700  1
  O  O18  1  0.15476200  0.29665900  0.87792700  1
  O  O19  1  0.15637400  0.29645100  0.37256700  1
  O  O20  1  0.79665900  0.34523800  0.87792700  1
  O  O21  1  0.79645100  0.34362600  0.37256700  1
  O  O22  1  0.84362600  0.70354900  0.37256700  1
  O  O23  1  0.84523800  0.70334100  0.87792700  1
  O  O24  1  0.70334100  0.15476200  0.12207300  1
  O  O25  1  0.70354900  0.15637400  0.62743300  1
  O  O26  1  0.65476200  0.79665900  0.12207300  1
  O  O27  1  0.65637400  0.79645100  0.62743300  1
  O  O28  1  0.29665900  0.84523800  0.12207300  1
  O  O29  1  0.29645100  0.84362600  0.62743300  1
  O  O30  1  0.34523800  0.20334100  0.12207300  1
  O  O31  1  0.34362600  0.20354900  0.62743300  1
loop_
_geom_bond_atom_site_label_1
_geom_bond_atom_site_label_2
_geom_bond_distance
_geom_bond_site_symmetry_2
K0 O24 2.944545 1_556
K0 O30 2.944545 1_556
K0 O26 2.944545 1_546
K0 O28 2.944545 1_546
K0 O31 2.947263 1_555
K0 O25 2.947263 1_555
K0 O27 2.947263 1_545
K0 O29 2.947263 1_545
K1 O18 2.944545 1_554
K1 O17 2.944545 1_554
K1 O20 2.944545 1_454
K1 O23 2.944545 1_454
K1 O16 2.947263 1_555
K1 O22 2.947263 1_455
K1 O19 2.947263 1_555
K1 O21 2.947263 1_455
Mn0 O11 1.918973 1_545
Mn0 O7 1.929155 1_555
Mn0 O6 1.930659 1_555
Mn0 O25 1.972410 1_555
Mn0 O24 1.976025 1_555
Mn0 O21 1.984757 1_555
Mn1 O7 1.915797 1_555
Mn1 O6 1.925695 1_556
Mn1 O10 1.929934 1_545
Mn1 O24 1.962131 1_556
Mn1 O25 1.963418 1_555
Mn1 O20 1.986179 1_555
Mn2 O14 1.918973 1_555
Mn2 O5 1.929155 1_555
Mn2 O4 1.930659 1_555
Mn2 O27 1.972410 1_555
Mn2 O26 1.976025 1_555
Mn2 O22 1.984757 1_555
Mn3 O5 1.915797 1_555
Mn3 O4 1.925695 1_556
Mn3 O15 1.929934 1_555
Mn3 O26 1.962131 1_556
Mn3 O27 1.963418 1_555
Mn3 O23 1.986179 1_555
Mn4 O3 1.915797 1_555
Mn4 O2 1.925695 1_556
Mn4 O8 1.929934 1_555
Mn4 O30 1.962131 1_556
Mn4 O31 1.963418 1_555
Mn4 O18 1.986179 1_555
Mn5 O9 1.918973 1_555
Mn5 O3 1.929155 1_555
Mn5 O2 1.930659 1_555
Mn5 O31 1.972410 1_555
Mn5 O30 1.976025 1_555
Mn5 O19 1.984757 1_555
Mn6 O1 1.915797 1_555
Mn6 O0 1.925695 1_556
Mn6 O13 1.929934 1_565
Mn6 O28 1.962131 1_556
Mn6 O29 1.963418 1_555
Mn6 O17 1.986179 1_555
Mn7 O12 1.918973 1_565
Mn7 O1 1.929155 1_555
Mn7 O0 1.930659 1_555
Mn7 O29 1.972410 1_555
Mn7 O28 1.976025 1_555
Mn7 O16 1.984757 1_555
Mn8 O14 1.915797 1_555
Mn8 O15 1.925695 1_554
Mn8 O2 1.929934 1_555
Mn8 O17 1.962131 1_554
Mn8 O16 1.963418 1_555
Mn8 O28 1.986179 1_555
Mn9 O3 1.918973 1_555
Mn9 O14 1.929155 1_555
Mn9 O15 1.930659 1_555
Mn9 O16 1.972410 1_555
Mn9 O17 1.976025 1_555
Mn9 O29 1.984757 1_555
Mn10 O12 1.915797 1_555
Mn10 O13 1.925695 1_554
Mn10 O6 1.929934 1_455
Mn10 O18 1.962131 1_554
Mn10 O19 1.963418 1_555
Mn10 O30 1.986179 1_555
Mn11 O7 1.918973 1_455
Mn11 O12 1.929155 1_555
Mn11 O13 1.930659 1_555
Mn11 O19 1.972410 1_555
Mn11 O18 1.976025 1_555
Mn11 O31 1.984757 1_555
Mn12 O11 1.915797 1_555
Mn12 O10 1.925695 1_554
Mn12 O0 1.929934 1_655
Mn12 O23 1.962131 1_554
Mn12 O22 1.963418 1_555
Mn12 O26 1.986179 1_555
Mn13 O1 1.918973 1_655
Mn13 O11 1.929155 1_555
Mn13 O10 1.930659 1_555
Mn13 O22 1.972410 1_555
Mn13 O23 1.976025 1_555
Mn13 O27 1.984757 1_555
Mn14 O9 1.915797 1_555
Mn14 O8 1.925695 1_554
Mn14 O4 1.929934 1_555
Mn14 O20 1.962131 1_554
Mn14 O21 1.963418 1_555
Mn14 O24 1.986179 1_555
Mn15 O5 1.918973 1_555
Mn15 O9 1.929155 1_555
Mn15 O8 1.930659 1_555
Mn15 O21 1.972410 1_555
Mn15 O20 1.976025 1_555
Mn15 O25 1.984757 1_555
