# generated using pymatgen
data_ThBiTe
_symmetry_space_group_name_H-M   'P 1'
_cell_length_a   4.54051626
_cell_length_b   4.54051626
_cell_length_c   9.20309228
_cell_angle_alpha   90.00000000
_cell_angle_beta   90.00000000
_cell_angle_gamma   90.00000000
_symmetry_Int_Tables_number   1
_chemical_formula_structural   ThBiTe
_chemical_formula_sum   'Th2 Bi2 Te2'
_cell_volume   189.73360008
_cell_formula_units_Z   2
loop_
 _symmetry_equiv_pos_site_id
 _symmetry_equiv_pos_as_xyz
  1  'x, y, z'
loop_
 _atom_site_type_symbol
 _atom_site_label
 _atom_site_symmetry_multiplicity
 _atom_site_fract_x
 _atom_site_fract_y
 _atom_site_fract_z
 _atom_site_occupancy
  Th  Th0  1  0.75000000  0.75000000  0.72801971  1
  Th  Th1  1  0.25000000  0.25000000  0.27198029  1
  Bi  Bi0  1  0.75000000  0.25000000  0.00000000  1
  Bi  Bi1  1  0.25000000  0.75000000  0.00000000  1
  Te  Te0  1  0.75000000  0.75000000  0.36865289  1
  Te  Te1  1  0.25000000  0.25000000  0.63134711  1
loop_
_geom_bond_atom_site_label_1
_geom_bond_atom_site_label_2
_geom_bond_distance
_geom_bond_site_symmetry_2
Bi0 Bi1 3.210630 1_655
Bi0 Bi1 3.210630 1_555
Bi0 Bi1 3.210630 1_545
Bi0 Bi1 3.210630 1_645
Bi0 Th0 3.379257 1_544
Bi0 Th1 3.379257 1_555
Bi0 Th1 3.379257 1_655
Bi0 Th0 3.379257 1_554
Bi1 Th0 3.379257 1_454
Bi1 Th1 3.379257 1_565
Bi1 Th1 3.379257 1_555
Bi1 Th0 3.379257 1_554
Te0 Th0 3.307286 1_555
Te0 Th1 3.331619 1_565
Te0 Th1 3.331619 1_555
Te0 Th1 3.331619 1_655
Te0 Th1 3.331619 1_665
Te1 Th1 3.307286 1_555
Te1 Th0 3.331619 1_455
Te1 Th0 3.331619 1_445
Te1 Th0 3.331619 1_555
Te1 Th0 3.331619 1_545
