# generated using pymatgen
data_In3Ag3(HgTe4)2
_symmetry_space_group_name_H-M   'P 1'
_cell_length_a   6.62041700
_cell_length_b   6.62041700
_cell_length_c   13.00611500
_cell_angle_alpha   90.00000000
_cell_angle_beta   90.00000000
_cell_angle_gamma   90.00000000
_symmetry_Int_Tables_number   1
_chemical_formula_structural   In3Ag3(HgTe4)2
_chemical_formula_sum   'In3 Ag3 Hg2 Te8'
_cell_volume   570.05699627
_cell_formula_units_Z   1
loop_
 _symmetry_equiv_pos_site_id
 _symmetry_equiv_pos_as_xyz
  1  'x, y, z'
loop_
 _atom_site_type_symbol
 _atom_site_label
 _atom_site_symmetry_multiplicity
 _atom_site_fract_x
 _atom_site_fract_y
 _atom_site_fract_z
 _atom_site_occupancy
  In  In0  1  0.50000000  0.00000000  0.24922500  1
  In  In1  1  0.00000000  0.50000000  0.75077500  1
  In  In2  1  0.50000000  0.50000000  0.00000000  1
  Ag  Ag0  1  0.00000000  0.50000000  0.24948500  1
  Ag  Ag1  1  0.50000000  0.00000000  0.75051500  1
  Ag  Ag2  1  0.00000000  0.00000000  0.00000000  1
  Hg  Hg0  1  0.50000000  0.50000000  0.50000000  1
  Hg  Hg1  1  0.00000000  0.00000000  0.50000000  1
  Te  Te0  1  0.75378500  0.25223700  0.37151600  1
  Te  Te1  1  0.24901000  0.75617100  0.87533300  1
  Te  Te2  1  0.24621500  0.74776300  0.37151600  1
  Te  Te3  1  0.75099000  0.24382900  0.87533300  1
  Te  Te4  1  0.24382900  0.24901000  0.12466700  1
  Te  Te5  1  0.74776300  0.75378500  0.62848400  1
  Te  Te6  1  0.75617100  0.75099000  0.12466700  1
  Te  Te7  1  0.25223700  0.24621500  0.62848400  1
loop_
_geom_bond_atom_site_label_1
_geom_bond_atom_site_label_2
_geom_bond_distance
_geom_bond_site_symmetry_2
In0 Te0 2.853305 1_555
In0 Te2 2.853305 1_545
In0 Te4 2.866783 1_555
In0 Te6 2.866783 1_545
In1 Te5 2.853305 1_455
In1 Te7 2.853305 1_555
In1 Te3 2.866783 1_455
In1 Te1 2.866783 1_555
In2 Te4 2.875140 1_555
In2 Te3 2.875140 1_554
In2 Te1 2.875140 1_554
In2 Te6 2.875140 1_555
Ag0 Te0 2.804756 1_455
Ag0 Te2 2.804756 1_555
Ag0 Te4 2.828839 1_555
Ag0 Te6 2.828839 1_455
Ag1 Te5 2.804756 1_545
Ag1 Te7 2.804756 1_555
Ag1 Te1 2.828839 1_545
Ag1 Te3 2.828839 1_555
Ag2 Te1 2.820029 1_544
Ag2 Te3 2.820029 1_454
Ag2 Te6 2.820029 1_445
Ag2 Te4 2.820029 1_555
Hg0 Te2 2.882015 1_555
Hg0 Te0 2.882015 1_555
Hg0 Te5 2.882015 1_555
Hg0 Te7 2.882015 1_555
Hg1 Te0 2.870220 1_455
Hg1 Te2 2.870220 1_545
Hg1 Te7 2.870220 1_555
Hg1 Te5 2.870220 1_445
