# generated using pymatgen
data_ErNiSn2
_symmetry_space_group_name_H-M   'P 1'
_cell_length_a   4.41931800
_cell_length_b   14.58259300
_cell_length_c   16.07170200
_cell_angle_alpha   90.00000000
_cell_angle_beta   90.00000000
_cell_angle_gamma   90.00000000
_symmetry_Int_Tables_number   1
_chemical_formula_structural   ErNiSn2
_chemical_formula_sum   'Er12 Ni12 Sn24'
_cell_volume   1035.74269539
_cell_formula_units_Z   12
loop_
 _symmetry_equiv_pos_site_id
 _symmetry_equiv_pos_as_xyz
  1  'x, y, z'
loop_
 _atom_site_type_symbol
 _atom_site_label
 _atom_site_symmetry_multiplicity
 _atom_site_fract_x
 _atom_site_fract_y
 _atom_site_fract_z
 _atom_site_occupancy
  Er  Er0  1  0.25000000  0.97306800  0.34934400  1
  Er  Er1  1  0.25000000  0.52693200  0.84934400  1
  Er  Er2  1  0.75000000  0.02693200  0.65065600  1
  Er  Er3  1  0.75000000  0.47306800  0.15065600  1
  Er  Er4  1  0.25000000  0.27585500  0.86915800  1
  Er  Er5  1  0.25000000  0.22414500  0.36915800  1
  Er  Er6  1  0.75000000  0.72414500  0.13084200  1
  Er  Er7  1  0.75000000  0.77585500  0.63084200  1
  Er  Er8  1  0.25000000  0.39713600  0.64525700  1
  Er  Er9  1  0.25000000  0.10286400  0.14525700  1
  Er  Er10  1  0.75000000  0.60286400  0.35474300  1
  Er  Er11  1  0.75000000  0.89713600  0.85474300  1
  Ni  Ni0  1  0.25000000  0.60588200  0.05471700  1
  Ni  Ni1  1  0.25000000  0.89411800  0.55471700  1
  Ni  Ni2  1  0.75000000  0.39411800  0.94528300  1
  Ni  Ni3  1  0.75000000  0.10588200  0.44528300  1
  Ni  Ni4  1  0.25000000  0.74403000  0.30973800  1
  Ni  Ni5  1  0.25000000  0.75597000  0.80973800  1
  Ni  Ni6  1  0.75000000  0.25597000  0.69026200  1
  Ni  Ni7  1  0.75000000  0.24403000  0.19026200  1
  Ni  Ni8  1  0.25000000  0.04854400  0.79948000  1
  Ni  Ni9  1  0.25000000  0.45145600  0.29948000  1
  Ni  Ni10  1  0.75000000  0.95145600  0.20052000  1
  Ni  Ni11  1  0.75000000  0.54854400  0.70052000  1
  Sn  Sn0  1  0.25000000  0.17696100  0.68111200  1
  Sn  Sn1  1  0.25000000  0.32303900  0.18111200  1
  Sn  Sn2  1  0.75000000  0.82303900  0.31888800  1
  Sn  Sn3  1  0.75000000  0.67696100  0.81888800  1
  Sn  Sn4  1  0.25000000  0.05357900  0.95674500  1
  Sn  Sn5  1  0.25000000  0.44642100  0.45674500  1
  Sn  Sn6  1  0.75000000  0.94642100  0.04325500  1
  Sn  Sn7  1  0.75000000  0.55357900  0.54325500  1
  Sn  Sn8  1  0.25000000  0.07862500  0.51829500  1
  Sn  Sn9  1  0.25000000  0.42137500  0.01829500  1
  Sn  Sn10  1  0.75000000  0.92137500  0.48170500  1
  Sn  Sn11  1  0.75000000  0.57862500  0.98170500  1
  Sn  Sn12  1  0.25000000  0.60296800  0.21679600  1
  Sn  Sn13  1  0.25000000  0.89703200  0.71679600  1
  Sn  Sn14  1  0.75000000  0.39703200  0.78320400  1
  Sn  Sn15  1  0.75000000  0.10296800  0.28320400  1
  Sn  Sn16  1  0.25000000  0.73361900  0.47302500  1
  Sn  Sn17  1  0.25000000  0.76638100  0.97302500  1
  Sn  Sn18  1  0.75000000  0.26638100  0.52697500  1
  Sn  Sn19  1  0.75000000  0.23361900  0.02697500  1
  Sn  Sn20  1  0.25000000  0.86760400  0.17627400  1
  Sn  Sn21  1  0.25000000  0.63239600  0.67627400  1
  Sn  Sn22  1  0.75000000  0.13239600  0.82372600  1
  Sn  Sn23  1  0.75000000  0.36760400  0.32372600  1
loop_
_geom_bond_atom_site_label_1
_geom_bond_atom_site_label_2
_geom_bond_distance
_geom_bond_site_symmetry_2
Er0 Sn15 3.098518 1_465
Er0 Sn15 3.098518 1_565
Er0 Sn8 3.121289 1_565
Er0 Sn2 3.147809 1_555
Er0 Sn2 3.147809 1_455
Er0 Sn10 3.158496 1_455
Er0 Sn10 3.158496 1_555
Er0 Sn20 3.178390 1_555
Er0 Ni10 3.271527 1_455
Er0 Ni10 3.271527 1_555
Er0 Ni3 3.318305 1_465
Er0 Ni3 3.318305 1_565
Er0 Ni4 3.400083 1_555
Er0 Ni1 3.495720 1_555
Er1 Sn14 3.098518 1_555
Er1 Sn14 3.098518 1_455
Er1 Sn9 3.121289 1_556
Er1 Sn3 3.147809 1_455
Er1 Sn3 3.147809 1_555
Er1 Sn11 3.158496 1_555
Er1 Sn11 3.158496 1_455
Er1 Sn21 3.178390 1_555
Er1 Ni11 3.271527 1_455
Er1 Ni11 3.271527 1_555
Er1 Ni2 3.318305 1_555
Er1 Ni2 3.318305 1_455
Er1 Ni5 3.400083 1_555
Er1 Ni0 3.495720 1_556
Er2 Sn13 3.098518 1_545
Er2 Sn13 3.098518 1_645
Er2 Sn10 3.121289 1_545
Er2 Sn0 3.147809 1_555
Er2 Sn0 3.147809 1_655
Er2 Sn8 3.158496 1_555
Er2 Sn8 3.158496 1_655
Er2 Sn22 3.178390 1_555
Er2 Ni8 3.271527 1_655
Er2 Ni8 3.271527 1_555
Er2 Ni1 3.318305 1_545
Er2 Ni1 3.318305 1_645
Er2 Ni6 3.400083 1_555
Er2 Ni3 3.495720 1_555
Er3 Sn12 3.098518 1_655
Er3 Sn12 3.098518 1_555
Er3 Sn11 3.121289 1_554
Er3 Sn1 3.147809 1_555
Er3 Sn1 3.147809 1_655
Er3 Sn9 3.158496 1_655
Er3 Sn9 3.158496 1_555
Er3 Sn23 3.178390 1_555
Er3 Ni9 3.271527 1_555
Er3 Ni9 3.271527 1_655
Er3 Ni0 3.318305 1_555
Er3 Ni0 3.318305 1_655
Er3 Ni7 3.400083 1_555
Er3 Ni2 3.495720 1_554
Er4 Ni2 3.058369 1_455
Er4 Ni2 3.058369 1_555
Er4 Sn22 3.129253 1_555
Er4 Sn22 3.129253 1_455
Er4 Sn14 3.148569 1_555
Er4 Sn14 3.148569 1_455
Er4 Sn9 3.201280 1_556
Er4 Sn0 3.348664 1_555
Er4 Sn19 3.419825 1_556
Er4 Sn19 3.419825 1_456
Er4 Ni8 3.498834 1_555
Er4 Sn4 3.533831 1_555
Er5 Ni3 3.058369 1_555
Er5 Ni3 3.058369 1_455
Er5 Sn23 3.129253 1_555
Er5 Sn23 3.129253 1_455
Er5 Sn15 3.148569 1_555
Er5 Sn15 3.148569 1_455
Er5 Sn8 3.201280 1_555
Er5 Sn1 3.348664 1_555
Er5 Sn18 3.419825 1_555
Er5 Sn18 3.419825 1_455
Er5 Ni9 3.498834 1_555
Er5 Sn5 3.533831 1_555
Er6 Ni0 3.058369 1_655
Er6 Ni0 3.058369 1_555
Er6 Sn20 3.129253 1_655
Er6 Sn20 3.129253 1_555
Er6 Sn12 3.148569 1_655
Er6 Sn12 3.148569 1_555
Er6 Sn11 3.201280 1_554
Er6 Sn2 3.348664 1_555
Er6 Sn17 3.419825 1_654
Er6 Sn17 3.419825 1_554
Er6 Ni10 3.498834 1_555
Er6 Sn6 3.533831 1_555
Er7 Ni1 3.058369 1_555
Er7 Ni1 3.058369 1_655
Er7 Sn21 3.129253 1_655
Er7 Sn21 3.129253 1_555
Er7 Sn13 3.148569 1_555
Er7 Sn13 3.148569 1_655
Er7 Sn10 3.201280 1_555
Er7 Sn3 3.348664 1_555
Er7 Sn16 3.419825 1_655
Er7 Sn16 3.419825 1_555
Er7 Ni11 3.498834 1_555
Er7 Sn7 3.533831 1_555
Er8 Ni6 3.105392 1_455
Er8 Ni6 3.105392 1_555
Er8 Sn5 3.113787 1_555
Er8 Sn14 3.130156 1_555
Er8 Sn14 3.130156 1_455
Er8 Ni11 3.247515 1_555
Er8 Ni11 3.247515 1_455
Er8 Sn0 3.262024 1_555
Er8 Sn21 3.466728 1_555
Er8 Sn18 3.483109 1_455
Er8 Sn18 3.483109 1_555
Er8 Sn7 3.574155 1_455
Er8 Sn7 3.574155 1_555
Er9 Ni7 3.105392 1_455
Er9 Ni7 3.105392 1_555
Er9 Sn4 3.113787 1_554
Er9 Sn15 3.130156 1_555
Er9 Sn15 3.130156 1_455
Er9 Ni10 3.247515 1_445
Er9 Ni10 3.247515 1_545
Er9 Sn1 3.262024 1_555
Er9 Sn20 3.466728 1_545
Er9 Sn19 3.483109 1_555
Er9 Sn19 3.483109 1_455
Er9 Sn6 3.574155 1_445
Er9 Sn6 3.574155 1_545
Er10 Ni4 3.105392 1_655
Er10 Ni4 3.105392 1_555
Er10 Sn7 3.113787 1_555
Er10 Sn12 3.130156 1_555
Er10 Sn12 3.130156 1_655
Er10 Ni9 3.247515 1_655
Er10 Ni9 3.247515 1_555
Er10 Sn2 3.262024 1_555
Er10 Sn23 3.466728 1_555
Er10 Sn16 3.483109 1_555
Er10 Sn16 3.483109 1_655
Er10 Sn5 3.574155 1_555
Er10 Sn5 3.574155 1_655
Er11 Ni5 3.105392 1_555
Er11 Ni5 3.105392 1_655
Er11 Sn6 3.113787 1_556
Er11 Sn13 3.130156 1_555
Er11 Sn13 3.130156 1_655
Er11 Ni8 3.247515 1_565
Er11 Ni8 3.247515 1_665
Er11 Sn3 3.262024 1_555
Er11 Sn22 3.466728 1_565
Er11 Sn17 3.483109 1_555
Er11 Sn17 3.483109 1_655
Er11 Sn4 3.574155 1_665
Er11 Sn4 3.574155 1_565
Ni0 Sn11 2.533281 1_554
Ni0 Sn11 2.533281 1_454
Ni0 Sn12 2.605232 1_555
Ni0 Sn17 2.683595 1_554
Ni0 Sn9 2.753530 1_555
Ni1 Sn10 2.533281 1_555
Ni1 Sn10 2.533281 1_455
Ni1 Sn13 2.605232 1_555
Ni1 Sn16 2.683595 1_555
Ni1 Sn8 2.753530 1_565
Ni2 Sn9 2.533281 1_556
Ni2 Sn9 2.533281 1_656
Ni2 Sn14 2.605232 1_555
Ni2 Sn19 2.683595 1_556
Ni2 Sn11 2.753530 1_555
Ni3 Sn8 2.533281 1_555
Ni3 Sn8 2.533281 1_655
Ni3 Sn15 2.605232 1_555
Ni3 Sn18 2.683595 1_555
Ni3 Sn10 2.753530 1_545
Ni4 Sn2 2.496334 1_555
Ni4 Sn2 2.496334 1_455
Ni4 Sn12 2.542184 1_555
Ni4 Sn16 2.628688 1_555
Ni4 Sn20 2.801483 1_555
Ni5 Sn3 2.496334 1_555
Ni5 Sn3 2.496334 1_455
Ni5 Sn13 2.542184 1_555
Ni5 Sn17 2.628688 1_555
Ni5 Sn21 2.801483 1_555
Ni6 Sn0 2.496334 1_555
Ni6 Sn0 2.496334 1_655
Ni6 Sn14 2.542184 1_555
Ni6 Sn18 2.628688 1_555
Ni6 Sn22 2.801483 1_555
Ni7 Sn1 2.496334 1_655
Ni7 Sn1 2.496334 1_555
Ni7 Sn15 2.542184 1_555
Ni7 Sn19 2.628688 1_555
Ni7 Sn23 2.801483 1_555
Ni8 Sn4 2.528582 1_555
Ni8 Sn22 2.555314 1_555
Ni8 Sn22 2.555314 1_455
Ni8 Sn13 2.578278 1_545
Ni8 Sn0 2.669431 1_555
Ni9 Sn5 2.528582 1_555
Ni9 Sn23 2.555314 1_555
Ni9 Sn23 2.555314 1_455
Ni9 Sn12 2.578278 1_555
Ni9 Sn1 2.669431 1_555
Ni10 Sn6 2.528582 1_555
Ni10 Sn20 2.555314 1_555
Ni10 Sn20 2.555314 1_655
Ni10 Sn15 2.578278 1_565
Ni10 Sn2 2.669431 1_555
Ni11 Sn7 2.528582 1_555
Ni11 Sn21 2.555314 1_655
Ni11 Sn21 2.555314 1_555
Ni11 Sn14 2.578278 1_555
Ni11 Sn3 2.669431 1_555
Sn0 Sn8 2.983907 1_555
Sn1 Sn9 2.983907 1_555
Sn10 Sn2 2.983907 1_555
Sn11 Sn3 2.983907 1_555
