# generated using pymatgen
data_KZrMnBiO6
_symmetry_space_group_name_H-M   'P 1'
_cell_length_a   5.65431106
_cell_length_b   5.65431106
_cell_length_c   5.65431106
_cell_angle_alpha   60.00000000
_cell_angle_beta   60.00000000
_cell_angle_gamma   60.00000000
_symmetry_Int_Tables_number   1
_chemical_formula_structural   KZrMnBiO6
_chemical_formula_sum   'K1 Zr1 Mn1 Bi1 O6'
_cell_volume   127.82743984
_cell_formula_units_Z   1
loop_
 _symmetry_equiv_pos_site_id
 _symmetry_equiv_pos_as_xyz
  1  'x, y, z'
loop_
 _atom_site_type_symbol
 _atom_site_label
 _atom_site_symmetry_multiplicity
 _atom_site_fract_x
 _atom_site_fract_y
 _atom_site_fract_z
 _atom_site_occupancy
  K  K0  1  0.75000000  0.75000000  0.75000000  1
  Zr  Zr0  1  0.50000000  0.50000000  0.50000000  1
  Mn  Mn0  1  0.00000000  0.00000000  0.00000000  1
  Bi  Bi0  1  0.25000000  0.25000000  0.25000000  1
  O  O0  1  0.76100351  0.23899649  0.23899649  1
  O  O1  1  0.23899649  0.76100351  0.76100351  1
  O  O2  1  0.76100351  0.23899649  0.76100351  1
  O  O3  1  0.23899649  0.76100351  0.23899649  1
  O  O4  1  0.76100351  0.76100351  0.23899649  1
  O  O5  1  0.23899649  0.23899649  0.76100351  1
loop_
_geom_bond_atom_site_label_1
_geom_bond_atom_site_label_2
_geom_bond_distance
_geom_bond_site_symmetry_2
K0 O1 2.828524 1_655
K0 O2 2.828524 1_565
K0 O4 2.828524 1_556
K0 O0 2.828524 1_565
K0 O3 2.828524 1_655
K0 O5 2.828524 1_565
K0 O5 2.828524 1_655
K0 O0 2.828524 1_556
K0 O3 2.828524 1_556
K0 O2 2.828524 1_555
K0 O1 2.828524 1_555
K0 O4 2.828524 1_555
Mn0 O1 1.911112 1_544
Mn0 O5 1.911112 1_554
Mn0 O0 1.911112 1_455
Mn0 O3 1.911112 1_545
Mn0 O2 1.911112 1_454
Mn0 O4 1.911112 1_445
Bi0 O2 2.828524 1_554
Bi0 O0 2.828524 1_455
Bi0 O4 2.828524 1_545
Bi0 O3 2.828524 1_555
Bi0 O1 2.828524 1_545
Bi0 O0 2.828524 1_555
Bi0 O4 2.828524 1_455
Bi0 O1 2.828524 1_554
Bi0 O3 2.828524 1_545
Bi0 O2 2.828524 1_455
Bi0 O5 2.828524 1_555
Bi0 O5 2.828524 1_554
O0 Zr0 2.087089 1_555
O1 Zr0 2.087089 1_555
O2 Zr0 2.087089 1_555
O3 Zr0 2.087089 1_555
O4 Zr0 2.087089 1_555
O5 Zr0 2.087089 1_555
