# generated using pymatgen
data_Mo2N5Cl9O
_symmetry_space_group_name_H-M   'P 1'
_cell_length_a   8.77900923
_cell_length_b   8.77900986
_cell_length_c   14.26788600
_cell_angle_alpha   90.00000000
_cell_angle_beta   90.00000000
_cell_angle_gamma   101.60336504
_symmetry_Int_Tables_number   1
_chemical_formula_structural   Mo2N5Cl9O
_chemical_formula_sum   'Mo4 N10 Cl18 O2'
_cell_volume   1077.16749729
_cell_formula_units_Z   2
loop_
 _symmetry_equiv_pos_site_id
 _symmetry_equiv_pos_as_xyz
  1  'x, y, z'
loop_
 _atom_site_type_symbol
 _atom_site_label
 _atom_site_symmetry_multiplicity
 _atom_site_fract_x
 _atom_site_fract_y
 _atom_site_fract_z
 _atom_site_occupancy
  Mo  Mo0  1  0.02581500  0.97418500  0.94139300  1
  Mo  Mo1  1  0.97418500  0.02581500  0.44139300  1
  Mo  Mo2  1  0.25496900  0.74503100  0.21136800  1
  Mo  Mo3  1  0.74503100  0.25496900  0.71136800  1
  N  N0  1  0.55242600  0.44757400  0.15822100  1
  N  N1  1  0.44757400  0.55242600  0.65822100  1
  N  N2  1  0.72395800  0.80227200  0.21577100  1
  N  N3  1  0.19772800  0.27604200  0.21577100  1
  N  N4  1  0.27604200  0.19772800  0.71577100  1
  N  N5  1  0.80227200  0.72395800  0.71577100  1
  N  N6  1  0.43453800  0.03128300  0.42006500  1
  N  N7  1  0.96871700  0.56546200  0.42006500  1
  N  N8  1  0.56546200  0.96871700  0.92006500  1
  N  N9  1  0.03128300  0.43453800  0.92006500  1
  Cl  Cl0  1  0.89241800  0.10758200  0.04620700  1
  Cl  Cl1  1  0.10758200  0.89241800  0.54620700  1
  Cl  Cl2  1  0.25407700  0.14882500  0.97301500  1
  Cl  Cl3  1  0.85117500  0.74592300  0.97301500  1
  Cl  Cl4  1  0.74592300  0.85117500  0.47301500  1
  Cl  Cl5  1  0.14882500  0.25407700  0.47301500  1
  Cl  Cl6  1  0.16501300  0.83498700  0.84212000  1
  Cl  Cl7  1  0.83498700  0.16501300  0.34212000  1
  Cl  Cl8  1  0.40389900  0.59610100  0.10160200  1
  Cl  Cl9  1  0.59610100  0.40389900  0.60160200  1
  Cl  Cl10  1  0.40733400  0.96300700  0.14768000  1
  Cl  Cl11  1  0.03699300  0.59266600  0.14768000  1
  Cl  Cl12  1  0.59266600  0.03699300  0.64768000  1
  Cl  Cl13  1  0.96300700  0.40733400  0.64768000  1
  Cl  Cl14  1  0.09554300  0.90445700  0.28885000  1
  Cl  Cl15  1  0.90445700  0.09554300  0.78885000  1
  Cl  Cl16  1  0.35073500  0.64926500  0.34253100  1
  Cl  Cl17  1  0.64926500  0.35073500  0.84253100  1
  O  O0  1  0.55922700  0.44077300  0.23736700  1
  O  O1  1  0.44077300  0.55922700  0.73736700  1
loop_
_geom_bond_atom_site_label_1
_geom_bond_atom_site_label_2
_geom_bond_distance
_geom_bond_site_symmetry_2
N0 O0 1.133032 1_555
N1 O1 1.133032 1_555
Cl0 Mo0 2.351821 1_644
Cl1 Mo1 2.351821 1_465
Cl2 Mo0 2.309529 1_545
Cl3 Mo0 2.309529 1_655
Cl4 Mo1 2.309529 1_565
Cl5 Mo1 2.309529 1_455
Cl6 Mo0 2.365085 1_555
Cl7 Mo1 2.365085 1_555
Cl8 N0 2.176454 1_555
Cl8 Mo2 2.561115 1_555
Cl9 N1 2.176454 1_555
Cl9 Mo3 2.561115 1_555
Cl10 Mo2 2.290670 1_555
Cl11 Mo2 2.290670 1_555
Cl12 Mo3 2.290670 1_555
Cl13 Mo3 2.290670 1_555
Cl14 Mo2 2.434731 1_555
Cl14 Mo1 2.731993 1_465
Cl15 Mo3 2.434731 1_555
Cl15 Mo0 2.731993 1_645
Cl16 Mo2 2.280395 1_555
Cl17 Mo3 2.280395 1_555
