# generated using pymatgen
data_MnInCu
_symmetry_space_group_name_H-M   'P 1'
_cell_length_a   5.25785121
_cell_length_b   5.25785121
_cell_length_c   7.89565900
_cell_angle_alpha   90.00000000
_cell_angle_beta   90.00000000
_cell_angle_gamma   121.58131125
_symmetry_Int_Tables_number   1
_chemical_formula_structural   MnInCu
_chemical_formula_sum   'Mn4 In4 Cu4'
_cell_volume   185.94840869
_cell_formula_units_Z   4
loop_
 _symmetry_equiv_pos_site_id
 _symmetry_equiv_pos_as_xyz
  1  'x, y, z'
loop_
 _atom_site_type_symbol
 _atom_site_label
 _atom_site_symmetry_multiplicity
 _atom_site_fract_x
 _atom_site_fract_y
 _atom_site_fract_z
 _atom_site_occupancy
  Mn  Mn0  1  0.82956500  0.17043500  0.00000000  1
  Mn  Mn1  1  0.17066100  0.33644900  0.50000000  1
  Mn  Mn2  1  0.66355100  0.82933900  0.50000000  1
  Mn  Mn3  1  0.16922900  0.83077100  0.50000000  1
  In  In0  1  0.33435200  0.66564800  0.18373400  1
  In  In1  1  0.66754600  0.33245400  0.30888100  1
  In  In2  1  0.66754600  0.33245400  0.69111900  1
  In  In3  1  0.33435200  0.66564800  0.81626600  1
  Cu  Cu0  1  0.99695500  0.00304500  0.24594500  1
  Cu  Cu1  1  0.99695500  0.00304500  0.75405500  1
  Cu  Cu2  1  0.83105300  0.66263400  0.00000000  1
  Cu  Cu3  1  0.33736600  0.16894700  0.00000000  1
loop_
_geom_bond_atom_site_label_1
_geom_bond_atom_site_label_2
_geom_bond_distance
_geom_bond_site_symmetry_2
Mn1 Mn2 2.529356 1_555
Mn1 Mn2 2.602328 1_445
Mn1 Mn3 2.603023 1_555
Mn1 Mn3 2.654844 1_545
Mn2 Mn3 2.603023 1_555
Mn2 Mn3 2.654844 1_655
In0 Mn1 2.900344 1_555
In0 Mn2 2.900344 1_555
In0 In3 2.901402 1_554
In0 Mn3 2.921072 1_555
In0 Mn0 2.947882 1_565
In0 Mn0 2.947882 1_455
In0 In1 3.147062 1_565
In0 In1 3.147062 1_455
In0 In1 3.213907 1_555
In1 Mn0 2.856450 1_555
In1 Mn3 2.976726 1_545
In1 Mn3 2.976726 1_655
In1 In2 3.018021 1_555
In1 Mn2 3.026621 1_555
In1 Mn1 3.026621 1_555
In1 Mn1 3.035949 1_655
In1 Mn2 3.035949 1_545
In2 Mn0 2.856450 1_556
In2 Mn3 2.976726 1_545
In2 Mn3 2.976726 1_655
In2 Mn2 3.026621 1_555
In2 Mn1 3.026621 1_555
In2 Mn1 3.035949 1_655
In2 Mn2 3.035949 1_545
In2 In3 3.147062 1_545
In2 In3 3.147062 1_655
In2 In3 3.213907 1_555
In3 Mn1 2.900344 1_555
In3 Mn2 2.900344 1_555
In3 Mn3 2.921072 1_555
In3 Mn0 2.947882 1_566
In3 Mn0 2.947882 1_456
Cu0 Cu2 2.469832 1_545
Cu0 Cu3 2.469832 1_655
Cu0 Mn0 2.476184 1_555
Cu0 Mn2 2.500786 1_545
Cu0 Mn1 2.500786 1_655
Cu0 Mn3 2.554219 1_645
Cu0 In0 3.008697 1_545
Cu0 In0 3.008697 1_655
Cu0 In1 3.046660 1_655
Cu0 In1 3.046660 1_545
Cu0 In1 3.064061 1_555
Cu0 In0 3.135529 1_645
Cu1 Cu2 2.469832 1_546
Cu1 Cu3 2.469832 1_656
Cu1 Mn0 2.476184 1_556
Cu1 Mn2 2.500786 1_545
Cu1 Mn1 2.500786 1_655
Cu1 Mn3 2.554219 1_645
Cu1 In3 3.008697 1_545
Cu1 In3 3.008697 1_655
Cu1 In2 3.046660 1_655
Cu1 In2 3.046660 1_545
Cu1 In2 3.064061 1_555
Cu1 In3 3.135529 1_645
Cu2 Cu3 2.533446 1_555
Cu2 Mn0 2.583820 1_555
Cu2 Cu3 2.598238 1_665
Cu2 Mn0 2.674048 1_565
Cu2 In1 2.852632 1_555
Cu2 In2 2.852632 1_554
Cu2 In0 2.994743 1_555
Cu2 In3 2.994743 1_554
Cu2 In0 3.010583 1_655
Cu2 In3 3.010583 1_654
Cu3 Mn0 2.583820 1_555
Cu3 Mn0 2.674048 1_455
Cu3 In1 2.852632 1_555
Cu3 In2 2.852632 1_554
Cu3 In0 2.994743 1_555
Cu3 In3 2.994743 1_554
Cu3 In0 3.010583 1_545
Cu3 In3 3.010583 1_544
