# generated using pymatgen
data_Tm2NiGe6
_symmetry_space_group_name_H-M   'P 1'
_cell_length_a   3.99669000
_cell_length_b   4.02080400
_cell_length_c   10.79408904
_cell_angle_alpha   90.00000000
_cell_angle_beta   100.66890783
_cell_angle_gamma   90.00000000
_symmetry_Int_Tables_number   1
_chemical_formula_structural   Tm2NiGe6
_chemical_formula_sum   'Tm2 Ni1 Ge6'
_cell_volume   170.46147569
_cell_formula_units_Z   1
loop_
 _symmetry_equiv_pos_site_id
 _symmetry_equiv_pos_as_xyz
  1  'x, y, z'
loop_
 _atom_site_type_symbol
 _atom_site_label
 _atom_site_symmetry_multiplicity
 _atom_site_fract_x
 _atom_site_fract_y
 _atom_site_fract_z
 _atom_site_occupancy
  Tm  Tm0  1  0.77673000  0.50000000  0.55346000  1
  Tm  Tm1  1  0.11375200  0.50000000  0.22750300  1
  Ni  Ni0  1  0.55638600  0.00000000  0.11277300  1
  Ge  Ge0  1  0.49854500  0.50000000  0.99709000  1
  Ge  Ge1  1  0.38081400  0.50000000  0.76162800  1
  Ge  Ge2  1  0.99839200  0.00000000  0.99678300  1
  Ge  Ge3  1  0.87974900  0.00000000  0.75949900  1
  Ge  Ge4  1  0.66385100  0.00000000  0.32770100  1
  Ge  Ge5  1  0.23878200  0.00000000  0.47756300  1
loop_
_geom_bond_atom_site_label_1
_geom_bond_atom_site_label_2
_geom_bond_distance
_geom_bond_site_symmetry_2
Ni0 Tm1 3.084829 1_555
Ni0 Tm1 3.084829 1_545
Ni0 Tm1 3.084834 1_655
Ni0 Tm1 3.084834 1_645
Ge0 Ni0 2.355315 1_566
Ge0 Ni0 2.355315 1_556
Ge0 Ge1 2.497662 1_555
Ge0 Ge2 2.834625 1_465
Ge0 Ge2 2.834625 1_455
Ge0 Ge2 2.834628 1_555
Ge0 Ge2 2.834628 1_565
Ge0 Tm1 3.157060 1_556
Ge0 Tm1 3.157062 1_656
Ge1 Ge3 2.834714 1_565
Ge1 Ge3 2.834714 1_555
Ge1 Ge3 2.834716 1_465
Ge1 Ge3 2.834716 1_455
Ge1 Tm0 2.978132 1_455
Ge1 Tm0 2.978132 1_555
Ge2 Ni0 2.346734 1_656
Ge2 Ni0 2.346741 1_556
Ge2 Ge3 2.516989 1_555
Ge2 Tm1 3.167222 1_656
Ge2 Tm1 3.167222 1_646
Ge3 Tm0 2.969576 1_545
Ge3 Tm0 2.969576 1_555
Ge4 Ni0 2.279848 1_555
Ge4 Ge5 2.553508 1_655
Ge4 Ge5 2.553508 1_555
Ge4 Tm1 3.027334 1_545
Ge4 Tm1 3.027334 1_555
Ge4 Tm1 3.027334 1_655
Ge4 Tm1 3.027334 1_645
Ge4 Tm0 3.126737 1_545
Ge4 Tm0 3.126737 1_555
Ge5 Tm0 2.946734 1_545
Ge5 Tm0 2.946734 1_555
Ge5 Tm0 2.946737 1_445
Ge5 Tm0 2.946737 1_455
Ge5 Tm1 3.328292 1_555
Ge5 Tm1 3.328292 1_545
