# generated using pymatgen
data_Ca2Ti2O5
_symmetry_space_group_name_H-M   'P 1'
_cell_length_a   3.94311900
_cell_length_b   5.35137200
_cell_length_c   10.57661000
_cell_angle_alpha   90.00000000
_cell_angle_beta   90.00000000
_cell_angle_gamma   90.00000000
_symmetry_Int_Tables_number   1
_chemical_formula_structural   Ca2Ti2O5
_chemical_formula_sum   'Ca4 Ti4 O10'
_cell_volume   223.17806941
_cell_formula_units_Z   2
loop_
 _symmetry_equiv_pos_site_id
 _symmetry_equiv_pos_as_xyz
  1  'x, y, z'
loop_
 _atom_site_type_symbol
 _atom_site_label
 _atom_site_symmetry_multiplicity
 _atom_site_fract_x
 _atom_site_fract_y
 _atom_site_fract_z
 _atom_site_occupancy
  Ca  Ca0  1  0.00000000  0.73372100  0.38281800  1
  Ca  Ca1  1  0.00000000  0.26627900  0.61718200  1
  Ca  Ca2  1  0.00000000  0.23372100  0.11718200  1
  Ca  Ca3  1  0.00000000  0.76627900  0.88281800  1
  Ti  Ti0  1  0.50000000  0.72382000  0.12762400  1
  Ti  Ti1  1  0.50000000  0.27618000  0.87237600  1
  Ti  Ti2  1  0.50000000  0.77618000  0.62762400  1
  Ti  Ti3  1  0.50000000  0.22382000  0.37237600  1
  O  O0  1  0.50000000  0.00000000  0.00000000  1
  O  O1  1  0.50000000  0.60622900  0.78766800  1
  O  O2  1  0.50000000  0.10622900  0.71233200  1
  O  O3  1  0.50000000  0.89377100  0.28766800  1
  O  O4  1  0.00000000  0.79559800  0.61225900  1
  O  O5  1  0.00000000  0.20440200  0.38774100  1
  O  O6  1  0.50000000  0.39377100  0.21233200  1
  O  O7  1  0.00000000  0.70440200  0.11225900  1
  O  O8  1  0.50000000  0.50000000  0.50000000  1
  O  O9  1  0.00000000  0.29559800  0.88774100  1
loop_
_geom_bond_atom_site_label_1
_geom_bond_atom_site_label_2
_geom_bond_distance
_geom_bond_site_symmetry_2
Ca0 O3 2.373476 1_455
Ca0 O3 2.373476 1_555
Ca0 O4 2.449195 1_555
Ca0 O5 2.519327 1_565
Ca0 O8 2.643379 1_455
Ca0 O8 2.643379 1_555
Ca0 O5 2.833061 1_555
Ca0 O7 2.865895 1_555
Ca1 O2 2.373476 1_455
Ca1 O2 2.373476 1_555
Ca1 O5 2.449195 1_555
Ca1 O4 2.519327 1_545
Ca1 O8 2.643379 1_455
Ca1 O8 2.643379 1_555
Ca1 O4 2.833061 1_555
Ca1 O9 2.865895 1_555
Ca2 O6 2.373476 1_455
Ca2 O6 2.373476 1_555
Ca2 O9 2.449195 1_554
Ca2 O7 2.519327 1_555
Ca2 O0 2.643379 1_555
Ca2 O0 2.643379 1_455
Ca2 O7 2.833061 1_545
Ca2 O5 2.865895 1_555
Ca3 O1 2.373476 1_555
Ca3 O1 2.373476 1_455
Ca3 O7 2.449195 1_556
Ca3 O9 2.519327 1_555
Ca3 O0 2.643379 1_466
Ca3 O0 2.643379 1_566
Ca3 O9 2.833061 1_565
Ca3 O4 2.865895 1_555
O0 Ti1 2.001587 1_554
O0 Ti0 2.001587 1_545
O1 Ti2 1.921575 1_555
O1 Ti1 1.980453 1_555
O2 Ti1 1.921575 1_555
O2 Ti2 1.980453 1_545
O3 Ti0 1.921575 1_555
O3 Ti3 1.980453 1_565
O4 Ti2 1.980973 1_555
O4 Ti2 1.980973 1_455
O5 Ti3 1.980973 1_555
O5 Ti3 1.980973 1_455
O6 Ti3 1.921575 1_555
O6 Ti0 1.980453 1_555
O7 Ti0 1.980973 1_555
O7 Ti0 1.980973 1_455
O8 Ti2 2.001587 1_555
O8 Ti3 2.001587 1_555
O9 Ti1 1.980973 1_455
O9 Ti1 1.980973 1_555
