# generated using pymatgen
data_Ba2LiTmCu3O7
_symmetry_space_group_name_H-M   'P 1'
_cell_length_a   3.90595900
_cell_length_b   3.88736000
_cell_length_c   12.91568100
_cell_angle_alpha   90.00000000
_cell_angle_beta   90.00000000
_cell_angle_gamma   90.00000000
_symmetry_Int_Tables_number   1
_chemical_formula_structural   Ba2LiTmCu3O7
_chemical_formula_sum   'Ba2 Li1 Tm1 Cu3 O7'
_cell_volume   196.11000549
_cell_formula_units_Z   1
loop_
 _symmetry_equiv_pos_site_id
 _symmetry_equiv_pos_as_xyz
  1  'x, y, z'
loop_
 _atom_site_type_symbol
 _atom_site_label
 _atom_site_symmetry_multiplicity
 _atom_site_fract_x
 _atom_site_fract_y
 _atom_site_fract_z
 _atom_site_occupancy
  Ba  Ba0  1  0.50000000  0.50000000  0.10923200  1
  Ba  Ba1  1  0.50000000  0.50000000  0.79624300  1
  Li  Li0  1  0.00000000  0.50000000  0.26857700  1
  Tm  Tm0  1  0.50000000  0.50000000  0.51317900  1
  Cu  Cu0  1  0.00000000  0.00000000  0.63930000  1
  Cu  Cu1  1  0.00000000  0.00000000  0.40298100  1
  Cu  Cu2  1  0.00000000  0.00000000  0.97564100  1
  O  O0  1  0.50000000  0.00000000  0.41058700  1
  O  O1  1  0.00000000  0.00000000  0.83004300  1
  O  O2  1  0.50000000  0.00000000  0.62606700  1
  O  O3  1  0.00000000  0.50000000  0.40820600  1
  O  O4  1  0.00000000  0.50000000  0.62089100  1
  O  O5  1  0.00000000  0.00000000  0.14383100  1
  O  O6  1  0.00000000  0.50000000  0.97744500  1
loop_
_geom_bond_atom_site_label_1
_geom_bond_atom_site_label_2
_geom_bond_distance
_geom_bond_site_symmetry_2
Ba0 O6 2.590625 1_654
Ba0 O6 2.590625 1_554
Ba0 O5 2.791364 1_565
Ba0 O5 2.791364 1_665
Ba0 O5 2.791364 1_555
Ba0 O5 2.791364 1_655
Ba1 O1 2.789731 1_555
Ba1 O1 2.789731 1_655
Ba1 O1 2.789731 1_565
Ba1 O1 2.789731 1_665
Ba1 O2 2.934080 1_555
Ba1 O2 2.934080 1_565
Ba1 O4 2.990553 1_555
Ba1 O4 2.990553 1_655
Ba1 O6 3.048172 1_555
Ba1 O6 3.048172 1_655
Li0 O3 1.803404 1_555
Li0 O5 2.524637 1_565
Li0 O5 2.524637 1_555
Cu0 O4 1.958169 1_545
Cu0 O4 1.958169 1_555
Cu0 O2 1.960444 1_455
Cu0 O2 1.960444 1_555
Cu0 O1 2.463576 1_555
Cu1 O3 1.944851 1_555
Cu1 O3 1.944851 1_545
Cu1 O0 1.955449 1_555
Cu1 O0 1.955449 1_455
Cu2 O1 1.880497 1_555
Cu2 O6 1.943820 1_545
Cu2 O6 1.943820 1_555
Cu2 O5 2.172288 1_556
O0 Tm0 2.352369 1_545
O0 Tm0 2.352369 1_555
O2 Tm0 2.429759 1_545
O2 Tm0 2.429759 1_555
O3 Tm0 2.377460 1_455
O3 Tm0 2.377460 1_555
O4 Tm0 2.397810 1_455
O4 Tm0 2.397810 1_555
