# generated using pymatgen
data_BaCu2Ge3(HO5)2
_symmetry_space_group_name_H-M   'P 1'
_cell_length_a   5.64773900
_cell_length_b   6.28989984
_cell_length_c   13.83174600
_cell_angle_alpha   90.00000000
_cell_angle_beta   90.00000000
_cell_angle_gamma   116.67652522
_symmetry_Int_Tables_number   1
_chemical_formula_structural   BaCu2Ge3(HO5)2
_chemical_formula_sum   'Ba2 Cu4 Ge6 H4 O20'
_cell_volume   439.05288940
_cell_formula_units_Z   2
loop_
 _symmetry_equiv_pos_site_id
 _symmetry_equiv_pos_as_xyz
  1  'x, y, z'
loop_
 _atom_site_type_symbol
 _atom_site_label
 _atom_site_symmetry_multiplicity
 _atom_site_fract_x
 _atom_site_fract_y
 _atom_site_fract_z
 _atom_site_occupancy
  Ba  Ba0  1  0.33890700  0.67781400  0.75000000  1
  Ba  Ba1  1  0.66109300  0.32218600  0.25000000  1
  Cu  Cu0  1  0.00000000  0.50000000  0.00000000  1
  Cu  Cu1  1  0.50000000  0.50000000  0.00000000  1
  Cu  Cu2  1  0.00000000  0.50000000  0.50000000  1
  Cu  Cu3  1  0.50000000  0.50000000  0.50000000  1
  Ge  Ge0  1  0.03019100  0.06038200  0.87724000  1
  Ge  Ge1  1  0.96980900  0.93961800  0.12276000  1
  Ge  Ge2  1  0.03019100  0.06038200  0.62276000  1
  Ge  Ge3  1  0.96980900  0.93961800  0.37724000  1
  Ge  Ge4  1  0.50000000  0.00000000  0.00000000  1
  Ge  Ge5  1  0.50000000  0.00000000  0.50000000  1
  H  H0  1  0.30444500  0.60889000  0.19066500  1
  H  H1  1  0.69555500  0.39111000  0.80933500  1
  H  H2  1  0.30444500  0.60889000  0.30933500  1
  H  H3  1  0.69555500  0.39111000  0.69066500  1
  O  O0  1  0.18282100  0.36564100  0.91171600  1
  O  O1  1  0.81717900  0.63435900  0.08828400  1
  O  O2  1  0.18282100  0.36564100  0.58828400  1
  O  O3  1  0.81717900  0.63435900  0.41171600  1
  O  O4  1  0.34644500  0.69289000  0.05487900  1
  O  O5  1  0.65355500  0.30711000  0.94512100  1
  O  O6  1  0.34644500  0.69289000  0.44512100  1
  O  O7  1  0.65355500  0.30711000  0.55487900  1
  O  O8  1  0.20781000  0.89736500  0.90657400  1
  O  O9  1  0.31044500  0.10263500  0.09342600  1
  O  O10  1  0.20781000  0.89736500  0.59342600  1
  O  O11  1  0.31044500  0.10263500  0.40657400  1
  O  O12  1  0.79219000  0.10263500  0.09342600  1
  O  O13  1  0.68955500  0.89736500  0.90657400  1
  O  O14  1  0.79219000  0.10263500  0.40657400  1
  O  O15  1  0.68955500  0.89736500  0.59342600  1
  O  O16  1  0.04106800  0.08213600  0.75000000  1
  O  O17  1  0.95893200  0.91786400  0.25000000  1
  O  O18  1  0.25379700  0.50759500  0.25000000  1
  O  O19  1  0.74620300  0.49240500  0.75000000  1
loop_
_geom_bond_atom_site_label_1
_geom_bond_atom_site_label_2
_geom_bond_distance
_geom_bond_site_symmetry_2
Ba0 O10 2.839634 1_555
Ba0 O8 2.839634 1_555
Ba0 O15 2.839634 1_555
Ba0 O13 2.839634 1_555
Ba0 O0 2.842835 1_555
Ba0 O2 2.842835 1_555
Ba0 O19 3.010005 1_455
Ba0 O19 3.010010 1_555
Ba1 O12 2.839634 1_555
Ba1 O14 2.839634 1_555
Ba1 O11 2.839634 1_555
Ba1 O9 2.839634 1_555
Ba1 O3 2.842835 1_555
Ba1 O1 2.842835 1_555
Ba1 O18 3.010005 1_655
Ba1 O18 3.010010 1_555
Cu0 O4 1.935214 1_555
Cu0 O5 1.935214 1_454
Cu0 O1 2.013692 1_455
Cu0 O0 2.013692 1_554
Cu0 O8 2.580768 1_554
Cu0 O12 2.580768 1_455
Cu1 O4 1.935214 1_555
Cu1 O5 1.935214 1_554
Cu1 O0 2.013688 1_554
Cu1 O1 2.013688 1_555
Cu1 O9 2.580768 1_555
Cu1 O13 2.580768 1_554
Cu2 O7 1.935214 1_455
Cu2 O6 1.935214 1_555
Cu2 O2 2.013692 1_555
Cu2 O3 2.013692 1_455
Cu2 O10 2.580768 1_555
Cu2 O14 2.580768 1_455
Cu3 O7 1.935214 1_555
Cu3 O6 1.935214 1_555
Cu3 O2 2.013688 1_555
Cu3 O3 2.013688 1_555
Cu3 O11 2.580768 1_555
Cu3 O15 2.580768 1_555
Ge0 O16 1.764193 1_555
Ge0 O8 1.773659 1_545
Ge0 O13 1.773659 1_445
Ge0 O0 1.780708 1_555
Ge1 O17 1.764193 1_555
Ge1 O12 1.773659 1_565
Ge1 O9 1.773659 1_665
Ge1 O1 1.780708 1_555
Ge2 O16 1.764193 1_555
Ge2 O10 1.773659 1_545
Ge2 O15 1.773659 1_445
Ge2 O2 1.780708 1_555
Ge3 O17 1.764193 1_555
Ge3 O14 1.773659 1_565
Ge3 O11 1.773659 1_665
Ge3 O3 1.780708 1_555
Ge4 O4 1.885608 1_545
Ge4 O5 1.885608 1_554
Ge4 O9 1.962981 1_555
Ge4 O13 1.962981 1_544
Ge4 O12 1.962982 1_555
Ge4 O8 1.962982 1_544
Ge5 O7 1.885608 1_555
Ge5 O6 1.885608 1_545
Ge5 O11 1.962981 1_555
Ge5 O15 1.962981 1_545
Ge5 O14 1.962982 1_555
Ge5 O10 1.962982 1_545
H0 O18 0.998839 1_555
H1 O19 0.998839 1_555
H2 O18 0.998839 1_555
H3 O19 0.998839 1_555
