# generated using pymatgen
data_Li7Mn5O12
_symmetry_space_group_name_H-M   'P 1'
_cell_length_a   5.09376670
_cell_length_b   10.96151332
_cell_length_c   8.61792280
_cell_angle_alpha   104.89176032
_cell_angle_beta   106.40082787
_cell_angle_gamma   92.23272144
_symmetry_Int_Tables_number   1
_chemical_formula_structural   Li7Mn5O12
_chemical_formula_sum   'Li14 Mn10 O24'
_cell_volume   442.86231772
_cell_formula_units_Z   2
loop_
 _symmetry_equiv_pos_site_id
 _symmetry_equiv_pos_as_xyz
  1  'x, y, z'
loop_
 _atom_site_type_symbol
 _atom_site_label
 _atom_site_symmetry_multiplicity
 _atom_site_fract_x
 _atom_site_fract_y
 _atom_site_fract_z
 _atom_site_occupancy
  Li  Li0  1  0.98993600  0.24969800  0.24546900  1
  Li  Li1  1  0.01005300  0.75028600  0.75453200  1
  Li  Li2  1  0.49461000  0.12918800  0.96259100  1
  Li  Li3  1  0.49024800  0.61343200  0.45460600  1
  Li  Li4  1  0.50546800  0.87079400  0.03739300  1
  Li  Li5  1  0.50986000  0.38662500  0.54543000  1
  Li  Li6  1  0.51129900  0.37103000  0.20667000  1
  Li  Li7  1  0.52426000  0.87278500  0.71701300  1
  Li  Li8  1  0.48882600  0.62902900  0.79342300  1
  Li  Li9  1  0.47567900  0.12716400  0.28289200  1
  Li  Li10  1  0.51323000  0.38314000  0.88019300  1
  Li  Li11  1  0.51278300  0.87508500  0.37714600  1
  Li  Li12  1  0.48680100  0.61683200  0.11975500  1
  Li  Li13  1  0.48716600  0.12490100  0.62287700  1
  Mn  Mn0  1  0.00012300  0.49996900  0.49999800  1
  Mn  Mn1  1  0.00003200  0.99999400  0.99990600  1
  Mn  Mn2  1  0.98236500  0.24639500  0.91590200  1
  Mn  Mn3  1  0.01057600  0.74985800  0.42203400  1
  Mn  Mn4  1  0.01789700  0.75367000  0.08426400  1
  Mn  Mn5  1  0.98901000  0.25003800  0.57793700  1
  Mn  Mn6  1  0.99279800  0.49240200  0.16450100  1
  Mn  Mn7  1  0.99693200  0.99448500  0.66496800  1
  Mn  Mn8  1  0.00700400  0.50765000  0.83553700  1
  Mn  Mn9  1  0.00312500  0.00558200  0.33493100  1
  O  O0  1  0.22404500  0.44170400  0.35300500  1
  O  O1  1  0.22739700  0.94699000  0.85175100  1
  O  O2  1  0.77601400  0.55831000  0.64697800  1
  O  O3  1  0.77260300  0.05297300  0.14814900  1
  O  O4  1  0.20703800  0.17051400  0.08245800  1
  O  O5  1  0.22141700  0.66944500  0.58579300  1
  O  O6  1  0.79300700  0.82945200  0.91752900  1
  O  O7  1  0.77862400  0.33054400  0.41423900  1
  O  O8  1  0.24298700  0.69769800  0.27548900  1
  O  O9  1  0.19405300  0.17240400  0.75529800  1
  O  O10  1  0.75696300  0.30229900  0.72459000  1
  O  O11  1  0.80592500  0.82758800  0.24471100  1
  O  O12  1  0.22900400  0.44084500  0.01739600  1
  O  O13  1  0.23378000  0.94930500  0.52426400  1
  O  O14  1  0.77092400  0.55918300  0.98262100  1
  O  O15  1  0.76613600  0.05069500  0.47570100  1
  O  O16  1  0.23338600  0.44552300  0.68453800  1
  O  O17  1  0.23675200  0.95486800  0.19169900  1
  O  O18  1  0.76665600  0.55447000  0.31551900  1
  O  O19  1  0.76325300  0.04512300  0.80826000  1
  O  O20  1  0.25413800  0.69497700  0.95170900  1
  O  O21  1  0.20682400  0.17225800  0.43242600  1
  O  O22  1  0.74592600  0.30504500  0.04832400  1
  O  O23  1  0.79306400  0.82775600  0.56758700  1
loop_
_geom_bond_atom_site_label_1
_geom_bond_atom_site_label_2
_geom_bond_distance
_geom_bond_site_symmetry_2
Li0 O22 2.048296 1_555
Li0 O4 2.067654 1_655
Li0 O21 2.075536 1_655
Li0 O7 2.086921 1_555
Li0 O0 2.210971 1_655
Li0 O3 2.222415 1_555
Li1 O20 2.048424 1_555
Li1 O6 2.067303 1_455
Li1 O23 2.075837 1_455
Li1 O5 2.086904 1_555
Li1 O2 2.210567 1_455
Li1 O1 2.222249 1_555
Li2 O4 2.020817 1_556
Li2 O22 2.107628 1_556
Li2 O9 2.169475 1_555
Li2 O3 2.181833 1_556
Li2 O1 2.197086 1_545
Li2 O19 2.233087 1_555
Li3 O5 2.028122 1_555
Li3 O0 2.105289 1_555
Li3 O2 2.110217 1_555
Li3 O18 2.112475 1_555
Li3 O8 2.132571 1_555
Li3 O23 2.557411 1_555
Li4 O6 2.020674 1_554
Li4 O20 2.107335 1_554
Li4 O11 2.169326 1_555
Li4 O1 2.182360 1_554
Li4 O3 2.196723 1_565
Li4 O17 2.233269 1_555
Li5 O7 2.027996 1_555
Li5 O2 2.104805 1_555
Li5 O0 2.110397 1_555
Li5 O16 2.112749 1_555
Li5 O10 2.132917 1_555
Li5 O21 2.558297 1_555
Li6 O22 2.072366 1_555
Li6 O7 2.081008 1_555
Li6 O12 2.171819 1_555
Li6 O18 2.180082 1_555
Li6 O0 2.227040 1_555
Li6 O4 2.442800 1_555
Li7 O19 2.045897 1_565
Li7 O6 2.054844 1_555
Li7 O23 2.120931 1_555
Li7 O1 2.213243 1_555
Li7 O13 2.253217 1_555
Li7 O5 2.465353 1_555
Li8 O20 2.072146 1_555
Li8 O5 2.081218 1_555
Li8 O14 2.171119 1_555
Li8 O16 2.180846 1_555
Li8 O2 2.227501 1_555
Li8 O6 2.441804 1_555
Li9 O17 2.045386 1_545
Li9 O4 2.054193 1_555
Li9 O21 2.121897 1_555
Li9 O3 2.213493 1_555
Li9 O15 2.253169 1_555
Li9 O7 2.465981 1_555
Li10 O22 1.995971 1_556
Li10 O14 2.121021 1_555
Li10 O10 2.130713 1_555
Li10 O12 2.132579 1_556
Li10 O16 2.157286 1_555
Li10 O9 2.564964 1_555
Li11 O23 2.042830 1_555
Li11 O15 2.106986 1_565
Li11 O11 2.126227 1_555
Li11 O8 2.161780 1_555
Li11 O17 2.200261 1_555
Li11 O13 2.206018 1_555
Li12 O20 1.995763 1_554
Li12 O12 2.120783 1_555
Li12 O14 2.131626 1_554
Li12 O8 2.131885 1_555
Li12 O18 2.157822 1_555
Li12 O11 2.565007 1_555
Li13 O21 2.043187 1_555
Li13 O13 2.106940 1_545
Li13 O9 2.126027 1_555
Li13 O10 2.161872 1_555
Li13 O19 2.199998 1_555
Li13 O15 2.206173 1_555
Mn0 O0 1.941768 1_555
Mn0 O16 1.942470 1_555
Mn0 O2 1.942587 1_455
Mn0 O18 1.942824 1_455
Mn0 O7 1.982067 1_455
Mn0 O5 1.982070 1_555
Mn1 O19 1.941304 1_465
Mn1 O17 1.942109 1_556
Mn1 O1 1.953263 1_555
Mn1 O3 1.954043 1_466
Mn1 O4 1.962409 1_566
Mn1 O6 1.962701 1_455
Mn2 O22 1.904083 1_556
Mn2 O4 1.954999 1_656
Mn2 O10 1.979177 1_555
Mn2 O9 2.017455 1_655
Mn2 O12 2.258121 1_656
Mn2 O19 2.268318 1_555
Mn3 O5 1.944033 1_555
Mn3 O23 1.959113 1_455
Mn3 O8 1.961949 1_555
Mn3 O11 1.996689 1_455
Mn3 O13 2.258133 1_555
Mn3 O18 2.260870 1_455
Mn4 O20 1.904152 1_554
Mn4 O6 1.955791 1_454
Mn4 O8 1.978456 1_555
Mn4 O11 2.017342 1_455
Mn4 O14 2.259137 1_454
Mn4 O17 2.267151 1_555
Mn5 O7 1.943501 1_555
Mn5 O21 1.959660 1_655
Mn5 O10 1.961327 1_555
Mn5 O9 1.996896 1_655
Mn5 O15 2.256569 1_555
Mn5 O16 2.262674 1_655
Mn6 O0 1.941595 1_655
Mn6 O12 1.979970 1_655
Mn6 O14 1.980863 1_554
Mn6 O18 1.983972 1_555
Mn6 O22 2.198277 1_555
Mn6 O8 2.363247 1_655
Mn7 O1 1.910886 1_655
Mn7 O23 1.922097 1_555
Mn7 O13 1.932651 1_655
Mn7 O19 1.943988 1_565
Mn7 O15 1.977955 1_565
Mn7 O9 2.010820 1_665
Mn8 O2 1.941228 1_455
Mn8 O14 1.979286 1_455
Mn8 O12 1.981120 1_556
Mn8 O16 1.984932 1_555
Mn8 O20 2.198557 1_555
Mn8 O10 2.363451 1_455
Mn9 O3 1.910407 1_455
Mn9 O21 1.921335 1_555
Mn9 O15 1.933566 1_455
Mn9 O17 1.943517 1_545
Mn9 O13 1.978508 1_545
Mn9 O11 2.011664 1_445
