# generated using pymatgen
data_Sr3CoRuO6
_symmetry_space_group_name_H-M   'P 1'
_cell_length_a   6.84091108
_cell_length_b   6.71863776
_cell_length_c   6.68315200
_cell_angle_alpha   92.96559873
_cell_angle_beta   91.93007355
_cell_angle_gamma   91.67821077
_symmetry_Int_Tables_number   1
_chemical_formula_structural   Sr3CoRuO6
_chemical_formula_sum   'Sr6 Co2 Ru2 O12'
_cell_volume   306.43480012
_cell_formula_units_Z   2
loop_
 _symmetry_equiv_pos_site_id
 _symmetry_equiv_pos_as_xyz
  1  'x, y, z'
loop_
 _atom_site_type_symbol
 _atom_site_label
 _atom_site_symmetry_multiplicity
 _atom_site_fract_x
 _atom_site_fract_y
 _atom_site_fract_z
 _atom_site_occupancy
  Sr  Sr0  1  0.61052100  0.88382400  0.24926900  1
  Sr  Sr1  1  0.89042900  0.25027600  0.61301200  1
  Sr  Sr2  1  0.24779600  0.61354900  0.88775100  1
  Sr  Sr3  1  0.10928100  0.74762000  0.38570800  1
  Sr  Sr4  1  0.75224900  0.38510400  0.11392700  1
  Sr  Sr5  1  0.39040900  0.11768900  0.75271800  1
  Co  Co0  1  0.74129600  0.73580100  0.76540100  1
  Co  Co1  1  0.26127300  0.25247100  0.24369500  1
  Ru  Ru0  1  0.49960400  0.50395300  0.50013200  1
  Ru  Ru1  1  0.00036600  0.00025300  0.99707500  1
  O  O0  1  0.54337500  0.22124900  0.40731100  1
  O  O1  1  0.21367400  0.40665400  0.53165400  1
  O  O2  1  0.40907200  0.54189800  0.21177300  1
  O  O3  1  0.05873500  0.92071200  0.71758600  1
  O  O4  1  0.90451400  0.70975900  0.03135300  1
  O  O5  1  0.71392300  0.03019000  0.89821800  1
  O  O6  1  0.45091400  0.78318500  0.58826600  1
  O  O7  1  0.78648500  0.59627700  0.46909900  1
  O  O8  1  0.59135800  0.46104400  0.79066800  1
  O  O9  1  0.94373500  0.08156900  0.27906200  1
  O  O10  1  0.09599000  0.28803100  0.96718800  1
  O  O11  1  0.28500100  0.96889200  0.09913400  1
loop_
_geom_bond_atom_site_label_1
_geom_bond_atom_site_label_2
_geom_bond_distance
_geom_bond_site_symmetry_2
Co0 O4 2.084803 1_556
Co0 O8 2.102691 1_555
Co0 O5 2.141554 1_565
Co0 O7 2.182144 1_555
Co0 O6 2.316572 1_555
Co0 O3 2.508202 1_655
Co1 O11 2.104279 1_545
Co1 O10 2.161289 1_554
Co1 O1 2.176788 1_555
Co1 O2 2.188924 1_555
Co1 O0 2.206637 1_555
Co1 O9 2.451436 1_455
O0 Ru0 2.001512 1_555
O0 Sr0 2.512360 1_545
O0 Sr5 2.682187 1_555
O0 Sr1 2.699976 1_555
O0 Sr4 2.723611 1_555
O1 Ru0 2.065153 1_555
O1 Sr1 2.508650 1_455
O1 Sr3 2.643740 1_555
O1 Sr2 2.692898 1_555
O1 Sr5 2.779867 1_555
O2 Ru0 2.035224 1_555
O2 Sr2 2.473124 1_554
O2 Sr0 2.640296 1_555
O2 Sr4 2.688078 1_555
O2 Sr3 2.761879 1_555
O3 Ru1 1.973172 1_565
O3 Sr3 2.489940 1_555
O3 Sr5 2.590519 1_565
O3 Sr1 2.640474 1_465
O3 Sr2 2.743191 1_555
O4 Ru1 2.067146 1_664
O4 Sr4 2.485465 1_555
O4 Sr2 2.651456 1_654
O4 Sr3 2.707153 1_655
O4 Sr0 2.773510 1_555
O5 Ru1 2.065512 1_655
O5 Sr5 2.485859 1_555
O5 Sr0 2.698422 1_546
O5 Sr4 2.723095 1_556
O5 Sr1 2.760373 1_555
O6 Ru0 1.978119 1_555
O6 Sr5 2.501930 1_565
O6 Sr0 2.657825 1_555
O6 Sr3 2.659385 1_555
O6 Sr2 2.750699 1_555
O7 Ru0 2.061241 1_555
O7 Sr3 2.496151 1_655
O7 Sr1 2.667731 1_555
O7 Sr4 2.701250 1_555
O7 Sr0 2.765963 1_555
O8 Ru0 2.057596 1_555
O8 Sr4 2.475033 1_556
O8 Sr5 2.646879 1_555
O8 Sr2 2.677612 1_555
O8 Sr1 2.785692 1_555
O9 Ru1 1.988763 1_654
O9 Sr1 2.493217 1_555
O9 Sr0 2.601057 1_545
O9 Sr3 2.661681 1_645
O9 Sr4 2.717500 1_555
O10 Ru1 2.044706 1_555
O10 Sr2 2.483483 1_555
O10 Sr4 2.663764 1_456
O10 Sr1 2.708750 1_455
O10 Sr5 2.753282 1_555
O11 Ru1 2.061676 1_564
O11 Sr0 2.505130 1_555
O11 Sr5 2.681237 1_564
O11 Sr2 2.711364 1_554
O11 Sr3 2.769152 1_555
