# generated using pymatgen
data_Mn2NiN2
_symmetry_space_group_name_H-M   'P 1'
_cell_length_a   4.51100579
_cell_length_b   6.07593934
_cell_length_c   5.42037700
_cell_angle_alpha   90.00000000
_cell_angle_beta   90.00000000
_cell_angle_gamma   132.33447401
_symmetry_Int_Tables_number   1
_chemical_formula_structural   Mn2NiN2
_chemical_formula_sum   'Mn4 Ni2 N4'
_cell_volume   109.82306302
_cell_formula_units_Z   2
loop_
 _symmetry_equiv_pos_site_id
 _symmetry_equiv_pos_as_xyz
  1  'x, y, z'
loop_
 _atom_site_type_symbol
 _atom_site_label
 _atom_site_symmetry_multiplicity
 _atom_site_fract_x
 _atom_site_fract_y
 _atom_site_fract_z
 _atom_site_occupancy
  Mn  Mn0  1  0.36017900  0.02976200  0.83165700  1
  Mn  Mn1  1  0.63982100  0.66958300  0.83165700  1
  Mn  Mn2  1  0.63982100  0.97023800  0.33165700  1
  Mn  Mn3  1  0.36017900  0.33041700  0.33165700  1
  Ni  Ni0  1  0.00000000  0.52710500  0.61037000  1
  Ni  Ni1  1  0.00000000  0.47289500  0.11037000  1
  N  N0  1  0.45935900  0.12346500  0.15995800  1
  N  N1  1  0.54064100  0.66410500  0.15995800  1
  N  N2  1  0.54064100  0.87653500  0.65995800  1
  N  N3  1  0.45935900  0.33589500  0.65995800  1
loop_
_geom_bond_atom_site_label_1
_geom_bond_atom_site_label_2
_geom_bond_distance
_geom_bond_site_symmetry_2
Mn0 N0 1.829726 1_556
Mn0 N3 1.845320 1_555
Mn0 N2 1.848359 1_545
Mn1 N1 1.829725 1_556
Mn1 N2 1.845315 1_555
Mn1 N3 1.848354 1_555
Mn2 N2 1.829726 1_555
Mn2 N1 1.845320 1_555
Mn2 N0 1.848359 1_565
Mn3 N3 1.829725 1_555
Mn3 N0 1.845315 1_555
Mn3 N1 1.848354 1_555
N0 Ni1 1.885087 1_655
N1 Ni1 1.885088 1_555
N2 Ni0 1.885087 1_555
N3 Ni0 1.885088 1_655
