# generated using pymatgen
data_SrV3P4O17
_symmetry_space_group_name_H-M   'P 1'
_cell_length_a   7.64008900
_cell_length_b   10.20197200
_cell_length_c   16.53575600
_cell_angle_alpha   90.00000000
_cell_angle_beta   90.00000000
_cell_angle_gamma   90.00000000
_symmetry_Int_Tables_number   1
_chemical_formula_structural   SrV3P4O17
_chemical_formula_sum   'Sr4 V12 P16 O68'
_cell_volume   1288.86253665
_cell_formula_units_Z   4
loop_
 _symmetry_equiv_pos_site_id
 _symmetry_equiv_pos_as_xyz
  1  'x, y, z'
loop_
 _atom_site_type_symbol
 _atom_site_label
 _atom_site_symmetry_multiplicity
 _atom_site_fract_x
 _atom_site_fract_y
 _atom_site_fract_z
 _atom_site_occupancy
  Sr  Sr0  1  0.99412500  0.56314100  0.82118400  1
  Sr  Sr1  1  0.49412500  0.93685900  0.17881600  1
  Sr  Sr2  1  0.00587500  0.06314100  0.67881600  1
  Sr  Sr3  1  0.50587500  0.43685900  0.32118400  1
  V  V0  1  0.21717000  0.67683600  0.65039400  1
  V  V1  1  0.71717000  0.82316400  0.34960600  1
  V  V2  1  0.78283000  0.17683600  0.84960600  1
  V  V3  1  0.28283000  0.32316400  0.15039400  1
  V  V4  1  0.21136400  0.75210400  0.99690600  1
  V  V5  1  0.71136400  0.74789600  0.00309400  1
  V  V6  1  0.78863600  0.25210400  0.50309400  1
  V  V7  1  0.28863600  0.24789600  0.49690600  1
  V  V8  1  0.71801400  0.67461400  0.65244300  1
  V  V9  1  0.21801400  0.82538600  0.34755700  1
  V  V10  1  0.28198600  0.17461400  0.84755700  1
  V  V11  1  0.78198600  0.32538600  0.15244300  1
  P  P0  1  0.29513500  0.94029800  0.53923800  1
  P  P1  1  0.79513500  0.55970200  0.46076200  1
  P  P2  1  0.70486500  0.44029800  0.96076200  1
  P  P3  1  0.20486500  0.05970200  0.03923800  1
  P  P4  1  0.30482800  0.86209000  0.81241700  1
  P  P5  1  0.80482800  0.63791000  0.18758300  1
  P  P6  1  0.69517200  0.36209000  0.68758300  1
  P  P7  1  0.19517200  0.13791000  0.31241700  1
  P  P8  1  0.29061500  0.43776000  0.96103300  1
  P  P9  1  0.79061500  0.06224000  0.03896700  1
  P  P10  1  0.70938500  0.93776000  0.53896700  1
  P  P11  1  0.20938500  0.56224000  0.46103300  1
  P  P12  1  0.30309200  0.36390700  0.68926100  1
  P  P13  1  0.80309200  0.13609300  0.31073900  1
  P  P14  1  0.69690800  0.86390700  0.81073900  1
  P  P15  1  0.19690800  0.63609300  0.18926100  1
  O  O0  1  0.49788500  0.43757100  0.96592100  1
  O  O1  1  0.99788500  0.06242900  0.03407900  1
  O  O2  1  0.50211500  0.93757100  0.53407900  1
  O  O3  1  0.00211500  0.56242900  0.46592100  1
  O  O4  1  0.50012200  0.37300700  0.72248400  1
  O  O5  1  0.00012200  0.12699300  0.27751600  1
  O  O6  1  0.49987800  0.87300700  0.77751600  1
  O  O7  1  0.99987800  0.62699300  0.22248400  1
  O  O8  1  0.23801900  0.86218300  0.61447200  1
  O  O9  1  0.73801900  0.63781700  0.38552800  1
  O  O10  1  0.76198100  0.36218300  0.88552800  1
  O  O11  1  0.26198100  0.13781700  0.11447200  1
  O  O12  1  0.21346900  0.75051500  0.76610400  1
  O  O13  1  0.71346900  0.74948500  0.23389600  1
  O  O14  1  0.78653100  0.25051500  0.73389600  1
  O  O15  1  0.28653100  0.24948500  0.26610400  1
  O  O16  1  0.27656400  0.61305000  0.54134800  1
  O  O17  1  0.77656400  0.88695000  0.45865200  1
  O  O18  1  0.72343600  0.11305000  0.95865200  1
  O  O19  1  0.22343600  0.38695000  0.04134800  1
  O  O20  1  0.21984300  0.49629100  0.71127700  1
  O  O21  1  0.71984300  0.00370900  0.28872300  1
  O  O22  1  0.78015700  0.99629100  0.78872300  1
  O  O23  1  0.28015700  0.50370900  0.21127700  1
  O  O24  1  0.00368200  0.77559400  0.97664300  1
  O  O25  1  0.31648600  0.83441900  0.90181400  1
  O  O26  1  0.68351400  0.33441900  0.59818600  1
  O  O27  1  0.18351400  0.16558100  0.40181400  1
  O  O28  1  0.22859800  0.57726000  0.93986500  1
  O  O29  1  0.72859800  0.92274000  0.06013500  1
  O  O30  1  0.77140200  0.07726000  0.56013500  1
  O  O31  1  0.27140200  0.42274000  0.43986500  1
  O  O32  1  0.99643800  0.33005600  0.16332000  1
  O  O33  1  0.49643800  0.16994400  0.83668000  1
  O  O34  1  0.00356200  0.83005600  0.33668000  1
  O  O35  1  0.50356200  0.66994400  0.66332000  1
  O  O36  1  0.71816200  0.25129900  0.26426600  1
  O  O37  1  0.21816200  0.24870100  0.73573400  1
  O  O38  1  0.28183800  0.75129900  0.23573400  1
  O  O39  1  0.78183800  0.74870100  0.76426600  1
  O  O40  1  0.49716600  0.33181300  0.14528300  1
  O  O41  1  0.99716600  0.16818700  0.85471700  1
  O  O42  1  0.50283400  0.83181300  0.35471700  1
  O  O43  1  0.00283400  0.66818700  0.64528300  1
  O  O44  1  0.73682500  0.14431400  0.11295300  1
  O  O45  1  0.23682500  0.35568600  0.88704700  1
  O  O46  1  0.26317500  0.64431400  0.38704700  1
  O  O47  1  0.76317500  0.85568600  0.61295300  1
  O  O48  1  0.72137600  0.50351500  0.20652100  1
  O  O49  1  0.22137600  0.99648500  0.79347900  1
  O  O50  1  0.27862400  0.00351500  0.29347900  1
  O  O51  1  0.77862400  0.49648500  0.70652100  1
  O  O52  1  0.77394900  0.38876100  0.03994700  1
  O  O53  1  0.27394900  0.11123900  0.96005300  1
  O  O54  1  0.22605100  0.88876100  0.46005300  1
  O  O55  1  0.72605100  0.61123900  0.53994700  1
  O  O56  1  0.30429600  0.34083400  0.59931700  1
  O  O57  1  0.80429600  0.15916600  0.40068300  1
  O  O58  1  0.69570400  0.84083400  0.90068300  1
  O  O59  1  0.19570400  0.65916600  0.09931700  1
  O  O60  1  0.23881300  0.08212300  0.55916300  1
  O  O61  1  0.73881300  0.41787700  0.44083700  1
  O  O62  1  0.76118700  0.58212300  0.94083700  1
  O  O63  1  0.26118700  0.91787700  0.05916300  1
  O  O64  1  0.49631800  0.22440600  0.47664300  1
  O  O65  1  0.99631800  0.27559400  0.52335700  1
  O  O66  1  0.50368200  0.72440600  0.02335700  1
  O  O67  1  0.81648600  0.66558100  0.09818600  1
loop_
_geom_bond_atom_site_label_1
_geom_bond_atom_site_label_2
_geom_bond_distance
_geom_bond_site_symmetry_2
O0 P2 1.583889 1_555
O0 P8 1.585624 1_555
O1 P3 1.583889 1_655
O1 P9 1.585624 1_555
O2 P0 1.583889 1_555
O2 P10 1.585624 1_555
O3 P1 1.583889 1_455
O3 P11 1.585624 1_555
O4 P6 1.601924 1_555
O4 P12 1.605127 1_555
O5 P7 1.601924 1_555
O5 P13 1.605127 1_455
O6 P4 1.601924 1_555
O6 P14 1.605127 1_555
O7 P5 1.601924 1_555
O7 P15 1.605127 1_655
O8 P0 1.540512 1_555
O8 V0 1.988398 1_555
O8 Sr2 2.912198 1_565
O9 P1 1.540512 1_555
O9 V1 1.988398 1_555
O9 Sr3 2.912198 1_555
O10 P2 1.540512 1_555
O10 V2 1.988398 1_555
O10 Sr0 2.912198 1_555
O11 P3 1.540512 1_555
O11 V3 1.988398 1_555
O11 Sr1 2.912198 1_545
O12 P4 1.539274 1_555
O12 V0 2.055900 1_555
O12 Sr0 2.700375 1_455
O13 P5 1.539274 1_555
O13 V1 2.055900 1_555
O13 Sr1 2.700375 1_555
O14 P6 1.539274 1_555
O14 V2 2.055900 1_555
O14 Sr2 2.700375 1_655
O15 P7 1.539274 1_555
O15 V3 2.055900 1_555
O15 Sr3 2.700375 1_555
O16 P11 1.515222 1_555
O16 V0 1.969964 1_555
O17 P10 1.515222 1_555
O17 V1 1.969964 1_555
O18 P9 1.515222 1_556
O18 V2 1.969964 1_555
O19 P8 1.515222 1_554
O19 V3 1.969964 1_555
O20 P12 1.536596 1_555
O20 V0 2.099192 1_555
O20 Sr0 2.596531 1_455
O21 P13 1.536596 1_555
O21 V1 2.099192 1_545
O21 Sr1 2.596531 1_545
O22 P14 1.536596 1_555
O22 V2 2.099192 1_565
O22 Sr2 2.596531 1_665
O23 P15 1.536596 1_555
O23 V3 2.099192 1_555
O23 Sr3 2.596531 1_555
O24 V4 1.639312 1_555
O24 V5 2.293239 1_456
O25 P4 1.507594 1_555
O25 V4 1.955187 1_555
O26 P6 1.507594 1_555
O26 V6 1.955187 1_555
O27 P7 1.507594 1_555
O27 V7 1.955187 1_555
O28 P8 1.540275 1_555
O28 V4 2.022071 1_555
O28 Sr0 2.661047 1_455
O29 P9 1.540275 1_565
O29 V5 2.022071 1_555
O29 Sr1 2.661047 1_555
O30 P10 1.540275 1_545
O30 V6 2.022071 1_555
O30 Sr2 2.661047 1_655
O31 P11 1.540275 1_555
O31 V7 2.022071 1_555
O31 Sr3 2.661047 1_555
O32 V11 1.648963 1_555
O32 V3 2.199599 1_655
O33 V10 1.648963 1_555
O33 V2 2.199599 1_555
O34 V9 1.648963 1_555
O34 V1 2.199599 1_455
O35 V8 1.648963 1_555
O35 V0 2.199599 1_555
O36 P13 1.546924 1_555
O36 V11 2.056246 1_555
O36 Sr3 2.664601 1_555
O37 P12 1.546924 1_555
O37 V10 2.056246 1_555
O37 Sr2 2.664601 1_555
O38 P15 1.546924 1_555
O38 V9 2.056246 1_555
O38 Sr1 2.664601 1_555
O39 P14 1.546924 1_555
O39 V8 2.056246 1_555
O39 Sr0 2.664601 1_555
O40 V3 1.642098 1_555
O40 V11 2.180255 1_555
O41 V2 1.642098 1_555
O41 V10 2.180255 1_655
O42 V1 1.642098 1_555
O42 V9 2.180255 1_555
O43 V0 1.642098 1_555
O43 V8 2.180255 1_455
O44 P9 1.538418 1_555
O44 V11 1.989457 1_555
O44 Sr1 3.017239 1_545
O45 P8 1.538418 1_555
O45 V10 1.989457 1_555
O45 Sr0 3.017239 1_455
O46 P11 1.538418 1_555
O46 V9 1.989457 1_555
O46 Sr3 3.017239 1_555
O47 P10 1.538418 1_555
O47 V8 1.989457 1_555
O47 Sr2 3.017239 1_665
O48 P5 1.544174 1_555
O48 V11 2.077624 1_555
O48 Sr3 2.601573 1_555
O49 P4 1.544174 1_555
O49 V10 2.077624 1_565
O49 Sr2 2.601573 1_565
O50 P7 1.544174 1_555
O50 V9 2.077624 1_545
O50 Sr1 2.601573 1_545
O51 P6 1.544174 1_555
O51 V8 2.077624 1_555
O51 Sr0 2.601573 1_555
O52 P2 1.506490 1_554
O52 V11 1.970321 1_555
O53 P3 1.506490 1_556
O53 V10 1.970321 1_555
O54 P0 1.506490 1_555
O54 V9 1.970321 1_555
O55 P1 1.506490 1_555
O55 V8 1.970321 1_555
O56 P12 1.505832 1_555
O56 V7 1.944493 1_555
O57 P13 1.505832 1_555
O57 V6 1.944493 1_555
O58 P14 1.505832 1_555
O58 V5 1.944493 1_556
O59 P15 1.505832 1_555
O59 V4 1.944493 1_554
O60 P0 1.545063 1_545
O60 V7 2.016158 1_555
O60 Sr2 2.668218 1_555
O61 P1 1.545063 1_555
O61 V6 2.016158 1_555
O61 Sr3 2.668218 1_555
O62 P2 1.545063 1_555
O62 V5 2.016158 1_556
O62 Sr0 2.668218 1_555
O63 P3 1.545063 1_565
O63 V4 2.016158 1_554
O63 Sr1 2.668218 1_555
O64 V7 1.639312 1_555
O64 V6 2.293239 1_555
O65 V6 1.639312 1_555
O65 V7 2.293239 1_655
O66 V5 1.639312 1_555
O66 V4 2.293239 1_554
O67 P5 1.507594 1_555
O67 V5 1.955187 1_555
