# generated using pymatgen
data_ScV2O2
_symmetry_space_group_name_H-M   'P 1'
_cell_length_a   7.47598444
_cell_length_b   7.47598444
_cell_length_c   7.47598444
_cell_angle_alpha   114.27548523
_cell_angle_beta   114.27548523
_cell_angle_gamma   100.23880497
_symmetry_Int_Tables_number   1
_chemical_formula_structural   ScV2O2
_chemical_formula_sum   'Sc4 V8 O8'
_cell_volume   315.53341365
_cell_formula_units_Z   4
loop_
 _symmetry_equiv_pos_site_id
 _symmetry_equiv_pos_as_xyz
  1  'x, y, z'
loop_
 _atom_site_type_symbol
 _atom_site_label
 _atom_site_symmetry_multiplicity
 _atom_site_fract_x
 _atom_site_fract_y
 _atom_site_fract_z
 _atom_site_occupancy
  Sc  Sc0  1  0.87500000  0.12500000  0.75000000  1
  Sc  Sc1  1  0.37500000  0.12500000  0.25000000  1
  Sc  Sc2  1  0.87500000  0.62500000  0.75000000  1
  Sc  Sc3  1  0.87500000  0.12500000  0.25000000  1
  V  V0  1  0.70003900  0.48859000  0.21145000  1
  V  V1  1  0.27714000  0.48859000  0.78855000  1
  V  V2  1  0.23859000  0.52714000  0.28855000  1
  V  V3  1  0.47286000  0.76141000  0.71145000  1
  V  V4  1  0.04996100  0.76141000  0.28855000  1
  V  V5  1  0.23859000  0.95003900  0.71145000  1
  V  V6  1  0.51141000  0.72286000  0.21145000  1
  V  V7  1  0.51141000  0.29996100  0.78855000  1
  O  O0  1  0.68380600  0.34094600  0.34286000  1
  O  O1  1  0.99808500  0.34094600  0.65714000  1
  O  O2  1  0.09094600  0.24808500  0.15714000  1
  O  O3  1  0.75191500  0.90905400  0.84286000  1
  O  O4  1  0.06619400  0.90905400  0.15714000  1
  O  O5  1  0.09094600  0.93380600  0.84286000  1
  O  O6  1  0.65905400  0.00191500  0.34286000  1
  O  O7  1  0.65905400  0.31619400  0.65714000  1
loop_
_geom_bond_atom_site_label_1
_geom_bond_atom_site_label_2
_geom_bond_distance
_geom_bond_site_symmetry_2
O0 V0 1.772076 1_555
O0 Sc1 2.203109 1_555
O0 Sc2 2.417862 1_555
O0 Sc3 2.417862 1_555
O1 V1 1.772084 1_655
O1 Sc0 2.203105 1_555
O1 Sc2 2.417858 1_555
O1 Sc3 2.417864 1_555
O2 V2 1.772084 1_555
O2 Sc3 2.203105 1_455
O2 Sc1 2.417858 1_555
O2 Sc0 2.417864 1_454
O3 V3 1.772084 1_555
O3 Sc0 2.203105 1_565
O3 Sc2 2.417858 1_555
O3 Sc3 2.417864 1_566
O4 V4 1.772076 1_555
O4 Sc1 2.203109 1_565
O4 Sc2 2.417862 1_454
O4 Sc3 2.417862 1_465
O5 V5 1.772076 1_555
O5 Sc2 2.203109 1_455
O5 Sc1 2.417862 1_566
O5 Sc0 2.417862 1_465
O6 V6 1.772084 1_545
O6 Sc3 2.203105 1_555
O6 Sc1 2.417858 1_555
O6 Sc0 2.417864 1_555
O7 V7 1.772076 1_555
O7 Sc2 2.203109 1_555
O7 Sc1 2.417862 1_555
O7 Sc0 2.417862 1_555
