# generated using pymatgen
data_Ho2Pt
_symmetry_space_group_name_H-M   'P 1'
_cell_length_a   4.73520687
_cell_length_b   7.08068830
_cell_length_c   8.72287926
_cell_angle_alpha   90.00000000
_cell_angle_beta   90.00000000
_cell_angle_gamma   90.00000000
_symmetry_Int_Tables_number   1
_chemical_formula_structural   Ho2Pt
_chemical_formula_sum   'Ho8 Pt4'
_cell_volume   292.46526559
_cell_formula_units_Z   4
loop_
 _symmetry_equiv_pos_site_id
 _symmetry_equiv_pos_as_xyz
  1  'x, y, z'
loop_
 _atom_site_type_symbol
 _atom_site_label
 _atom_site_symmetry_multiplicity
 _atom_site_fract_x
 _atom_site_fract_y
 _atom_site_fract_z
 _atom_site_occupancy
  Ho  Ho0  1  0.75000000  0.64326560  0.58116185  1
  Ho  Ho1  1  0.75000000  0.14326560  0.91883715  1
  Ho  Ho2  1  0.25000000  0.35673440  0.41883715  1
  Ho  Ho3  1  0.25000000  0.85673440  0.08116185  1
  Ho  Ho4  1  0.75000000  0.50887534  0.16691269  1
  Ho  Ho5  1  0.75000000  0.00887434  0.33308831  1
  Ho  Ho6  1  0.25000000  0.49112566  0.83308831  1
  Ho  Ho7  1  0.25000000  0.99112466  0.66691269  1
  Pt  Pt0  1  0.75000000  0.24101092  0.59240370  1
  Pt  Pt1  1  0.75000000  0.74101092  0.90759630  1
  Pt  Pt2  1  0.25000000  0.75898908  0.40759630  1
  Pt  Pt3  1  0.25000000  0.25898908  0.09240370  1
loop_
_geom_bond_atom_site_label_1
_geom_bond_atom_site_label_2
_geom_bond_distance
_geom_bond_site_symmetry_2
Ho0 Pt0 2.849928 1_555
Ho0 Pt2 2.927309 1_555
Ho0 Pt2 2.927309 1_655
Ho0 Pt1 2.930353 1_555
Ho1 Pt1 2.849927 1_545
Ho1 Pt3 2.927313 1_556
Ho1 Pt3 2.927313 1_656
Ho1 Pt0 2.930345 1_555
Ho2 Pt2 2.849927 1_555
Ho2 Pt0 2.927313 1_555
Ho2 Pt0 2.927313 1_455
Ho2 Pt3 2.930345 1_555
Ho3 Pt3 2.849928 1_565
Ho3 Pt1 2.927309 1_554
Ho3 Pt1 2.927309 1_454
Ho3 Pt2 2.930353 1_555
Ho4 Pt1 2.796115 1_554
Ho4 Pt3 3.026321 1_655
Ho4 Pt3 3.026321 1_555
Ho5 Pt0 2.796113 1_555
Ho5 Pt2 3.026315 1_645
Ho5 Pt2 3.026315 1_545
Ho6 Pt3 2.796113 1_556
Ho6 Pt1 3.026315 1_555
Ho6 Pt1 3.026315 1_455
Ho7 Pt2 2.796115 1_555
Ho7 Pt0 3.026321 1_565
Ho7 Pt0 3.026321 1_465
