# generated using pymatgen
data_Yb5Si3C
_symmetry_space_group_name_H-M   'P 1'
_cell_length_a   8.90709788
_cell_length_b   8.90709788
_cell_length_c   5.96128100
_cell_angle_alpha   90.00000000
_cell_angle_beta   90.00000000
_cell_angle_gamma   119.99999909
_symmetry_Int_Tables_number   1
_chemical_formula_structural   Yb5Si3C
_chemical_formula_sum   'Yb10 Si6 C2'
_cell_volume   409.58371317
_cell_formula_units_Z   2
loop_
 _symmetry_equiv_pos_site_id
 _symmetry_equiv_pos_as_xyz
  1  'x, y, z'
loop_
 _atom_site_type_symbol
 _atom_site_label
 _atom_site_symmetry_multiplicity
 _atom_site_fract_x
 _atom_site_fract_y
 _atom_site_fract_z
 _atom_site_occupancy
  Yb  Yb0  1  0.66666700  0.33333300  0.00000000  1
  Yb  Yb1  1  0.33333300  0.66666700  0.00000000  1
  Yb  Yb2  1  0.33333300  0.66666700  0.50000000  1
  Yb  Yb3  1  0.66666700  0.33333300  0.50000000  1
  Yb  Yb4  1  0.77628700  0.77628700  0.75000000  1
  Yb  Yb5  1  0.22371300  0.00000000  0.75000000  1
  Yb  Yb6  1  0.00000000  0.22371300  0.75000000  1
  Yb  Yb7  1  0.22371300  0.22371300  0.25000000  1
  Yb  Yb8  1  0.77628700  0.00000000  0.25000000  1
  Yb  Yb9  1  0.00000000  0.77628700  0.25000000  1
  Si  Si0  1  0.42343800  0.42343800  0.75000000  1
  Si  Si1  1  0.57656200  0.00000000  0.75000000  1
  Si  Si2  1  0.00000000  0.57656200  0.75000000  1
  Si  Si3  1  0.57656200  0.57656200  0.25000000  1
  Si  Si4  1  0.42343800  0.00000000  0.25000000  1
  Si  Si5  1  0.00000000  0.42343800  0.25000000  1
  C  C0  1  0.00000000  0.00000000  0.00000000  1
  C  C1  1  0.00000000  0.00000000  0.50000000  1
loop_
_geom_bond_atom_site_label_1
_geom_bond_atom_site_label_2
_geom_bond_distance
_geom_bond_site_symmetry_2
Si0 Yb2 3.049180 1_555
Si0 Yb3 3.049180 1_555
Si0 Yb0 3.049180 1_556
Si0 Yb1 3.049180 1_556
Si0 Yb4 3.142861 1_555
Si0 Yb5 3.268051 1_555
Si0 Yb6 3.268051 1_555
Si0 Yb7 3.471160 1_555
Si0 Yb7 3.471160 1_556
Si1 Yb3 3.049172 1_555
Si1 Yb0 3.049172 1_556
Si1 Yb1 3.049174 1_546
Si1 Yb2 3.049174 1_545
Si1 Yb5 3.142861 1_555
Si1 Yb4 3.268051 1_545
Si1 Yb6 3.268051 1_655
Si1 Yb8 3.471160 1_556
Si1 Yb8 3.471160 1_555
Si2 Yb1 3.049172 1_556
Si2 Yb2 3.049172 1_555
Si2 Yb0 3.049174 1_456
Si2 Yb3 3.049174 1_455
Si2 Yb6 3.142861 1_555
Si2 Yb4 3.268051 1_455
Si2 Yb5 3.268051 1_565
Si2 Yb9 3.471160 1_555
Si2 Yb9 3.471160 1_556
Si3 Yb2 3.049180 1_555
Si3 Yb3 3.049180 1_555
Si3 Yb0 3.049180 1_555
Si3 Yb1 3.049180 1_555
Si3 Yb7 3.142861 1_555
Si3 Yb8 3.268051 1_565
Si3 Yb9 3.268051 1_655
Si3 Yb4 3.471160 1_554
Si3 Yb4 3.471160 1_555
Si4 Yb2 3.049172 1_545
Si4 Yb1 3.049172 1_545
Si4 Yb3 3.049174 1_555
Si4 Yb0 3.049174 1_555
Si4 Yb8 3.142861 1_555
Si4 Yb7 3.268051 1_555
Si4 Yb9 3.268051 1_545
Si4 Yb5 3.471160 1_554
Si4 Yb5 3.471160 1_555
Si5 Yb3 3.049172 1_455
Si5 Yb0 3.049172 1_455
Si5 Yb2 3.049174 1_555
Si5 Yb1 3.049174 1_555
Si5 Yb9 3.142861 1_555
Si5 Yb7 3.268051 1_555
Si5 Yb8 3.268051 1_455
Si5 Yb6 3.471160 1_554
Si5 Yb6 3.471160 1_555
C0 Yb6 2.488301 1_554
C0 Yb5 2.488301 1_554
C0 Yb8 2.488301 1_455
C0 Yb9 2.488301 1_545
C0 Yb7 2.488301 1_555
C0 Yb4 2.488301 1_444
C1 Yb5 2.488301 1_555
C1 Yb6 2.488301 1_555
C1 Yb8 2.488301 1_455
C1 Yb9 2.488301 1_545
C1 Yb7 2.488301 1_555
C1 Yb4 2.488301 1_445
