# generated using pymatgen
data_Al4Fe2Si5O18
_symmetry_space_group_name_H-M   'P 1'
_cell_length_a   10.03890181
_cell_length_b   10.03890181
_cell_length_c   9.40853800
_cell_angle_alpha   90.00000000
_cell_angle_beta   90.00000000
_cell_angle_gamma   120.72560159
_symmetry_Int_Tables_number   1
_chemical_formula_structural   Al4Fe2Si5O18
_chemical_formula_sum   'Al8 Fe4 Si10 O36'
_cell_volume   815.08540835
_cell_formula_units_Z   2
loop_
 _symmetry_equiv_pos_site_id
 _symmetry_equiv_pos_as_xyz
  1  'x, y, z'
loop_
 _atom_site_type_symbol
 _atom_site_label
 _atom_site_symmetry_multiplicity
 _atom_site_fract_x
 _atom_site_fract_y
 _atom_site_fract_z
 _atom_site_occupancy
  Al  Al0  1  0.25720600  0.35602300  0.50000000  1
  Al  Al1  1  0.74279400  0.64397700  0.50000000  1
  Al  Al2  1  0.35602300  0.25720600  0.00000000  1
  Al  Al3  1  0.64397700  0.74279400  0.00000000  1
  Al  Al4  1  0.50000000  0.00000000  0.24959100  1
  Al  Al5  1  0.00000000  0.50000000  0.25040900  1
  Al  Al6  1  0.50000000  0.00000000  0.75040900  1
  Al  Al7  1  0.00000000  0.50000000  0.74959100  1
  Fe  Fe0  1  0.33715600  0.66284400  0.25000000  1
  Fe  Fe1  1  0.66284400  0.33715600  0.25000000  1
  Fe  Fe2  1  0.66284400  0.33715600  0.75000000  1
  Fe  Fe3  1  0.33715600  0.66284400  0.75000000  1
  Si  Si0  1  0.63188800  0.90124500  0.50000000  1
  Si  Si1  1  0.36811200  0.09875500  0.50000000  1
  Si  Si2  1  0.90124500  0.63188800  0.00000000  1
  Si  Si3  1  0.09875500  0.36811200  0.00000000  1
  Si  Si4  1  0.73010300  0.11024100  0.00000000  1
  Si  Si5  1  0.26989700  0.88975900  0.00000000  1
  Si  Si6  1  0.11024100  0.73010300  0.50000000  1
  Si  Si7  1  0.88975900  0.26989700  0.50000000  1
  Si  Si8  1  0.50000000  0.50000000  0.25000000  1
  Si  Si9  1  0.50000000  0.50000000  0.75000000  1
  O  O0  1  0.65063400  0.13935500  0.14169900  1
  O  O1  1  0.34936600  0.86064500  0.14169900  1
  O  O2  1  0.13935500  0.65063400  0.35830100  1
  O  O3  1  0.86064500  0.34936600  0.35830100  1
  O  O4  1  0.34936600  0.86064500  0.85830100  1
  O  O5  1  0.65063400  0.13935500  0.85830100  1
  O  O6  1  0.86064500  0.34936600  0.64169900  1
  O  O7  1  0.13935500  0.65063400  0.64169900  1
  O  O8  1  0.52202800  0.86877400  0.35776400  1
  O  O9  1  0.47797200  0.13122600  0.35776400  1
  O  O10  1  0.86877400  0.52202800  0.14223600  1
  O  O11  1  0.13122600  0.47797200  0.14223600  1
  O  O12  1  0.47797200  0.13122600  0.64223600  1
  O  O13  1  0.52202800  0.86877400  0.64223600  1
  O  O14  1  0.13122600  0.47797200  0.85776400  1
  O  O15  1  0.86877400  0.52202800  0.85776400  1
  O  O16  1  0.35344900  0.47466600  0.34838100  1
  O  O17  1  0.64655100  0.52533400  0.34838100  1
  O  O18  1  0.47466600  0.35344900  0.15161900  1
  O  O19  1  0.52533400  0.64655100  0.15161900  1
  O  O20  1  0.64655100  0.52533400  0.65161900  1
  O  O21  1  0.35344900  0.47466600  0.65161900  1
  O  O22  1  0.52533400  0.64655100  0.84838100  1
  O  O23  1  0.47466600  0.35344900  0.84838100  1
  O  O24  1  0.70817700  0.79569300  0.50000000  1
  O  O25  1  0.29182300  0.20430700  0.50000000  1
  O  O26  1  0.79569300  0.70817700  0.00000000  1
  O  O27  1  0.20430700  0.29182300  0.00000000  1
  O  O28  1  0.76188700  0.08592500  0.50000000  1
  O  O29  1  0.23811300  0.91407500  0.50000000  1
  O  O30  1  0.08592500  0.76188700  0.00000000  1
  O  O31  1  0.91407500  0.23811300  0.00000000  1
  O  O32  1  0.69169800  0.93425900  0.00000000  1
  O  O33  1  0.30830200  0.06574100  0.00000000  1
  O  O34  1  0.93425900  0.69169800  0.50000000  1
  O  O35  1  0.06574100  0.30830200  0.50000000  1
loop_
_geom_bond_atom_site_label_1
_geom_bond_atom_site_label_2
_geom_bond_distance
_geom_bond_site_symmetry_2
Al0 O25 1.726656 1_555
Al0 O35 1.727145 1_555
Al0 O21 1.791958 1_555
Al0 O16 1.791958 1_555
Al1 O24 1.726656 1_555
Al1 O34 1.727145 1_555
Al1 O20 1.791958 1_555
Al1 O17 1.791958 1_555
Al2 O27 1.726656 1_555
Al2 O33 1.727145 1_555
Al2 O23 1.791958 1_554
Al2 O18 1.791958 1_555
Al3 O26 1.726656 1_555
Al3 O32 1.727145 1_555
Al3 O22 1.791958 1_554
Al3 O19 1.791958 1_555
Al4 O1 1.764243 1_545
Al4 O0 1.764243 1_555
Al4 O8 1.765744 1_545
Al4 O9 1.765744 1_555
Al5 O3 1.764243 1_455
Al5 O2 1.764243 1_555
Al5 O10 1.765744 1_455
Al5 O11 1.765744 1_555
Al6 O4 1.764243 1_545
Al6 O5 1.764243 1_555
Al6 O13 1.765744 1_545
Al6 O12 1.765744 1_555
Al7 O6 1.764243 1_455
Al7 O7 1.764243 1_555
Al7 O15 1.765744 1_455
Al7 O14 1.765744 1_555
Fe0 O1 2.178898 1_555
Fe0 O2 2.178898 1_555
Fe0 O19 2.183568 1_555
Fe0 O16 2.183568 1_555
Fe0 O11 2.196721 1_555
Fe0 O8 2.196721 1_555
Fe1 O0 2.178898 1_555
Fe1 O3 2.178898 1_555
Fe1 O17 2.183568 1_555
Fe1 O18 2.183568 1_555
Fe1 O9 2.196721 1_555
Fe1 O10 2.196721 1_555
Fe2 O5 2.178898 1_555
Fe2 O6 2.178898 1_555
Fe2 O20 2.183568 1_555
Fe2 O23 2.183568 1_555
Fe2 O12 2.196721 1_555
Fe2 O15 2.196721 1_555
Fe3 O4 2.178898 1_555
Fe3 O7 2.178898 1_555
Fe3 O22 2.183568 1_555
Fe3 O21 2.183568 1_555
Fe3 O14 2.196721 1_555
Fe3 O13 2.196721 1_555
O0 Si4 1.654543 1_555
O1 Si5 1.654543 1_555
O2 Si6 1.654543 1_555
O3 Si7 1.654543 1_555
O4 Si5 1.654543 1_556
O5 Si4 1.654543 1_556
O6 Si7 1.654543 1_555
O7 Si6 1.654543 1_555
O8 Si0 1.657134 1_555
O9 Si1 1.657134 1_555
O10 Si2 1.657134 1_555
O11 Si3 1.657134 1_555
O12 Si1 1.657134 1_555
O13 Si0 1.657134 1_555
O14 Si3 1.657134 1_556
O15 Si2 1.657134 1_556
O16 Si8 1.644255 1_555
O17 Si8 1.644255 1_555
O18 Si8 1.644255 1_555
O19 Si8 1.644255 1_555
O20 Si9 1.644255 1_555
O21 Si9 1.644255 1_555
O22 Si9 1.644255 1_555
O23 Si9 1.644255 1_555
O24 Si0 1.593300 1_555
O25 Si1 1.593300 1_555
O26 Si2 1.593300 1_555
O27 Si3 1.593300 1_555
O28 Si7 1.623634 1_555
O28 Si0 1.633399 1_545
O29 Si6 1.623634 1_555
O29 Si1 1.633399 1_565
O30 Si5 1.623634 1_555
O30 Si2 1.633399 1_455
O31 Si4 1.623634 1_555
O31 Si3 1.633399 1_655
O32 Si4 1.604288 1_565
O33 Si5 1.604288 1_545
O34 Si6 1.604288 1_655
O35 Si7 1.604288 1_455
