# generated using pymatgen
data_HfZrCoSb2Rh
_symmetry_space_group_name_H-M   'P 1'
_cell_length_a   7.92743283
_cell_length_b   7.92743283
_cell_length_c   7.92743269
_cell_angle_alpha   33.56713237
_cell_angle_beta   33.56713237
_cell_angle_gamma   33.56712739
_symmetry_Int_Tables_number   1
_chemical_formula_structural   HfZrCoSb2Rh
_chemical_formula_sum   'Hf1 Zr1 Co1 Sb2 Rh1'
_cell_volume   135.66325850
_cell_formula_units_Z   1
loop_
 _symmetry_equiv_pos_site_id
 _symmetry_equiv_pos_as_xyz
  1  'x, y, z'
loop_
 _atom_site_type_symbol
 _atom_site_label
 _atom_site_symmetry_multiplicity
 _atom_site_fract_x
 _atom_site_fract_y
 _atom_site_fract_z
 _atom_site_occupancy
  Hf  Hf0  1  0.62536700  0.62536700  0.62536700  1
  Zr  Zr0  1  0.12457000  0.12457000  0.12457000  1
  Co  Co0  1  0.74974900  0.74974900  0.74974900  1
  Sb  Sb0  1  0.99991100  0.99991100  0.99991100  1
  Sb  Sb1  1  0.49980200  0.49980200  0.49980200  1
  Rh  Rh0  1  0.25060100  0.25060100  0.25060100  1
loop_
_geom_bond_atom_site_label_1
_geom_bond_atom_site_label_2
_geom_bond_distance
_geom_bond_site_symmetry_2
Hf0 Sb0 2.800077 1_455
Hf0 Sb0 2.800077 1_545
Hf0 Sb0 2.800078 1_554
Hf0 Rh0 2.801724 1_655
Hf0 Rh0 2.801724 1_565
Hf0 Rh0 2.801724 1_556
Hf0 Sb1 2.815339 1_555
Co0 Hf0 2.788815 1_555
Co0 Zr0 2.802133 1_566
Co0 Zr0 2.802133 1_656
Co0 Zr0 2.802133 1_665
Sb0 Zr0 2.795025 1_666
Sb1 Zr0 2.805205 1_655
Sb1 Zr0 2.805205 1_565
Sb1 Zr0 2.805206 1_556
Rh0 Zr0 2.825788 1_555
