# generated using pymatgen
data_Cs3SbS4
_symmetry_space_group_name_H-M   'P 1'
_cell_length_a   10.02165982
_cell_length_b   10.12475186
_cell_length_c   11.76368245
_cell_angle_alpha   90.00000000
_cell_angle_beta   90.00000000
_cell_angle_gamma   90.00000000
_symmetry_Int_Tables_number   1
_chemical_formula_structural   Cs3SbS4
_chemical_formula_sum   'Cs12 Sb4 S16'
_cell_volume   1193.62343678
_cell_formula_units_Z   4
loop_
 _symmetry_equiv_pos_site_id
 _symmetry_equiv_pos_as_xyz
  1  'x, y, z'
loop_
 _atom_site_type_symbol
 _atom_site_label
 _atom_site_symmetry_multiplicity
 _atom_site_fract_x
 _atom_site_fract_y
 _atom_site_fract_z
 _atom_site_occupancy
  Cs  Cs0  1  0.85053570  0.91365362  0.75000000  1
  Cs  Cs1  1  0.35053570  0.58634638  0.75000000  1
  Cs  Cs2  1  0.14946430  0.08634638  0.25000000  1
  Cs  Cs3  1  0.64946430  0.41365362  0.25000000  1
  Cs  Cs4  1  0.04664811  0.29528564  0.54177243  1
  Cs  Cs5  1  0.54664811  0.20471436  0.95822757  1
  Cs  Cs6  1  0.95335189  0.70471436  0.04177243  1
  Cs  Cs7  1  0.45335189  0.79528564  0.45822757  1
  Cs  Cs8  1  0.95335189  0.70471436  0.45822757  1
  Cs  Cs9  1  0.45335189  0.79528564  0.04177243  1
  Cs  Cs10  1  0.04664811  0.29528564  0.95822757  1
  Cs  Cs11  1  0.54664811  0.20471436  0.54177243  1
  Sb  Sb0  1  0.77482816  0.48105756  0.75000000  1
  Sb  Sb1  1  0.27482816  0.01894244  0.75000000  1
  Sb  Sb2  1  0.22517184  0.51894244  0.25000000  1
  Sb  Sb3  1  0.72517184  0.98105756  0.25000000  1
  S  S0  1  0.79690066  0.25033109  0.75000000  1
  S  S1  1  0.29690066  0.24966891  0.75000000  1
  S  S2  1  0.20309934  0.74966891  0.25000000  1
  S  S3  1  0.70309934  0.75033109  0.25000000  1
  S  S4  1  0.98897982  0.57632762  0.75000000  1
  S  S5  1  0.48897982  0.92367238  0.75000000  1
  S  S6  1  0.01102018  0.42367238  0.25000000  1
  S  S7  1  0.51102018  0.07632762  0.25000000  1
  S  S8  1  0.83813341  0.04397915  0.41535170  1
  S  S9  1  0.33813341  0.45602085  0.08464830  1
  S  S10  1  0.16186659  0.95602085  0.91535170  1
  S  S11  1  0.66186659  0.54397915  0.58464830  1
  S  S12  1  0.16186659  0.95602085  0.58464830  1
  S  S13  1  0.66186659  0.54397915  0.91535170  1
  S  S14  1  0.83813341  0.04397915  0.08464830  1
  S  S15  1  0.33813341  0.45602085  0.41535170  1
loop_
_geom_bond_atom_site_label_1
_geom_bond_atom_site_label_2
_geom_bond_distance
_geom_bond_site_symmetry_2
Cs0 S0 3.450894 1_565
Cs0 S5 3.624810 1_555
Cs0 S4 3.686401 1_555
Cs0 S12 3.701664 1_655
Cs0 S10 3.701664 1_655
Cs1 S1 3.450894 1_555
Cs1 S4 3.624810 1_455
Cs1 S5 3.686401 1_555
Cs1 S11 3.701664 1_555
Cs1 S13 3.701664 1_555
Cs2 S2 3.450894 1_545
Cs2 S7 3.624810 1_555
Cs2 S6 3.686401 1_555
Cs2 S14 3.701664 1_455
Cs2 S8 3.701664 1_455
Cs3 S3 3.450894 1_555
Cs3 S6 3.624810 1_655
Cs3 S7 3.686401 1_555
Cs3 S15 3.701664 1_555
Cs3 S9 3.701664 1_555
Cs4 S0 3.531537 1_455
Cs4 S1 3.535996 1_555
Cs4 S8 3.612815 1_455
Cs4 S12 3.658786 1_545
Cs4 S15 3.659692 1_555
Cs4 S6 3.687546 1_555
Cs4 S4 3.798806 1_455
Cs5 S1 3.531537 1_555
Cs5 S0 3.535996 1_555
Cs5 S9 3.612815 1_556
Cs5 S13 3.658786 1_555
Cs5 S14 3.659692 1_556
Cs5 S7 3.687546 1_556
Cs5 S5 3.798806 1_545
Cs6 S2 3.531537 1_655
Cs6 S3 3.535996 1_555
Cs6 S10 3.612815 1_654
Cs6 S14 3.658786 1_565
Cs6 S13 3.659692 1_554
Cs6 S4 3.687546 1_554
Cs6 S6 3.798806 1_655
Cs7 S3 3.531537 1_555
Cs7 S2 3.535996 1_555
Cs7 S11 3.612815 1_555
Cs7 S15 3.658786 1_555
Cs7 S12 3.659692 1_555
Cs7 S5 3.687546 1_555
Cs7 S7 3.798806 1_565
Cs8 S2 3.531537 1_655
Cs8 S3 3.535996 1_555
Cs8 S12 3.612815 1_655
Cs8 S8 3.658786 1_565
Cs8 S11 3.659692 1_555
Cs8 S4 3.687546 1_555
Cs8 S6 3.798806 1_655
Cs9 S3 3.531537 1_555
Cs9 S2 3.535996 1_555
Cs9 S13 3.612815 1_554
Cs9 S9 3.658786 1_555
Cs9 S10 3.659692 1_554
Cs9 S5 3.687546 1_554
Cs9 S7 3.798806 1_565
Cs10 S0 3.531537 1_455
Cs10 S1 3.535996 1_555
Cs10 S14 3.612815 1_456
Cs10 S10 3.658786 1_545
Cs10 S9 3.659692 1_556
Cs10 S6 3.687546 1_556
Cs10 S4 3.798806 1_455
Cs11 S1 3.531537 1_555
Cs11 S0 3.535996 1_555
Cs11 S15 3.612815 1_555
Cs11 S11 3.658786 1_555
Cs11 S8 3.659692 1_555
Cs11 S7 3.687546 1_555
Cs11 S5 3.798806 1_545
S0 Sb0 2.346498 1_555
S1 Sb1 2.346498 1_555
S2 Sb2 2.346498 1_555
S3 Sb3 2.346498 1_555
S4 Sb0 2.352957 1_555
S5 Sb1 2.352957 1_565
S6 Sb2 2.352957 1_555
S7 Sb3 2.352957 1_545
S8 Sb3 2.339018 1_545
S9 Sb2 2.339018 1_555
S10 Sb1 2.339018 1_565
S11 Sb0 2.339018 1_555
S12 Sb1 2.339018 1_565
S13 Sb0 2.339018 1_555
S14 Sb3 2.339018 1_545
S15 Sb2 2.339018 1_555
