# generated using pymatgen
data_Ga2Cu(SeO3)4
_symmetry_space_group_name_H-M   'P 1'
_cell_length_a   4.67680000
_cell_length_b   15.18498500
_cell_length_c   17.29938666
_cell_angle_alpha   64.50671834
_cell_angle_beta   90.00000000
_cell_angle_gamma   90.00000000
_symmetry_Int_Tables_number   1
_chemical_formula_structural   Ga2Cu(SeO3)4
_chemical_formula_sum   'Ga8 Cu4 Se16 O48'
_cell_volume   1108.93580327
_cell_formula_units_Z   4
loop_
 _symmetry_equiv_pos_site_id
 _symmetry_equiv_pos_as_xyz
  1  'x, y, z'
loop_
 _atom_site_type_symbol
 _atom_site_label
 _atom_site_symmetry_multiplicity
 _atom_site_fract_x
 _atom_site_fract_y
 _atom_site_fract_z
 _atom_site_occupancy
  Ga  Ga0  1  0.42297200  0.27278400  0.57933100  1
  Ga  Ga1  1  0.92297200  0.22721600  0.42066900  1
  Ga  Ga2  1  0.57702800  0.72721600  0.42066900  1
  Ga  Ga3  1  0.07702800  0.77278400  0.57933100  1
  Ga  Ga4  1  0.40347500  0.64984800  0.08136700  1
  Ga  Ga5  1  0.90347500  0.85015200  0.91863300  1
  Ga  Ga6  1  0.59652500  0.35015200  0.91863300  1
  Ga  Ga7  1  0.09652500  0.14984800  0.08136700  1
  Cu  Cu0  1  0.00000000  0.50000000  0.50000000  1
  Cu  Cu1  1  0.50000000  0.00000000  0.50000000  1
  Cu  Cu2  1  0.50000000  0.00000000  0.00000000  1
  Cu  Cu3  1  0.00000000  0.50000000  0.00000000  1
  Se  Se0  1  0.39123400  0.40067500  0.39353000  1
  Se  Se1  1  0.89123400  0.09932500  0.60647000  1
  Se  Se2  1  0.60876600  0.59932500  0.60647000  1
  Se  Se3  1  0.10876600  0.90067500  0.39353000  1
  Se  Se4  1  0.94145900  0.33985100  0.67829900  1
  Se  Se5  1  0.44145900  0.16014900  0.32170100  1
  Se  Se6  1  0.05854100  0.66014900  0.32170100  1
  Se  Se7  1  0.55854100  0.83985100  0.67829900  1
  Se  Se8  1  0.87065400  0.79747700  0.10530000  1
  Se  Se9  1  0.37065400  0.70252300  0.89470000  1
  Se  Se10  1  0.12934600  0.20252300  0.89470000  1
  Se  Se11  1  0.62934600  0.29747700  0.10530000  1
  Se  Se12  1  0.91903400  0.48591400  0.17924600  1
  Se  Se13  1  0.41903400  0.01408600  0.82075400  1
  Se  Se14  1  0.08096600  0.51408600  0.82075400  1
  Se  Se15  1  0.58096600  0.98591400  0.17924600  1
  O  O0  1  0.25173100  0.39973300  0.48870600  1
  O  O1  1  0.75173100  0.10026700  0.51129400  1
  O  O2  1  0.74826900  0.60026700  0.51129400  1
  O  O3  1  0.24826900  0.89973300  0.48870600  1
  O  O4  1  0.12605900  0.35015300  0.35729300  1
  O  O5  1  0.62605900  0.14984700  0.64270700  1
  O  O6  1  0.87394100  0.64984700  0.64270700  1
  O  O7  1  0.37394100  0.85015300  0.35729300  1
  O  O8  1  0.60526700  0.30020600  0.45855200  1
  O  O9  1  0.10526700  0.19979400  0.54144800  1
  O  O10  1  0.39473300  0.69979400  0.54144800  1
  O  O11  1  0.89473300  0.80020600  0.45855200  1
  O  O12  1  0.19540100  0.25625700  0.67748200  1
  O  O13  1  0.69540100  0.24374300  0.32251800  1
  O  O14  1  0.80459900  0.74374300  0.32251800  1
  O  O15  1  0.30459900  0.75625700  0.67748200  1
  O  O16  1  0.71497400  0.35598200  0.59355800  1
  O  O17  1  0.21497400  0.14401800  0.40644200  1
  O  O18  1  0.28502600  0.64401800  0.40644200  1
  O  O19  1  0.78502600  0.85598200  0.59355800  1
  O  O20  1  0.09832500  0.45295700  0.62442900  1
  O  O21  1  0.59832500  0.04704300  0.37557100  1
  O  O22  1  0.90167500  0.54704300  0.37557100  1
  O  O23  1  0.40167500  0.95295700  0.62442900  1
  O  O24  1  0.08415900  0.75745400  0.04258500  1
  O  O25  1  0.58415900  0.74254600  0.95741500  1
  O  O26  1  0.91584100  0.24254600  0.95741500  1
  O  O27  1  0.41584100  0.25745400  0.04258500  1
  O  O28  1  0.60427700  0.71207100  0.14369000  1
  O  O29  1  0.10427700  0.78792900  0.85631000  1
  O  O30  1  0.39572300  0.28792900  0.85631000  1
  O  O31  1  0.89572300  0.21207100  0.14369000  1
  O  O32  1  0.73471200  0.88842500  0.00875400  1
  O  O33  1  0.23471200  0.61157500  0.99124600  1
  O  O34  1  0.26528800  0.11157500  0.99124600  1
  O  O35  1  0.76528800  0.38842500  0.00875400  1
  O  O36  1  0.70461400  0.55668000  0.09251300  1
  O  O37  1  0.20461400  0.94332000  0.90748700  1
  O  O38  1  0.29538600  0.44332000  0.90748700  1
  O  O39  1  0.79538600  0.05668000  0.09251300  1
  O  O40  1  0.18444600  0.56609500  0.18100200  1
  O  O41  1  0.68444600  0.93390500  0.81899800  1
  O  O42  1  0.81555400  0.43390500  0.81899800  1
  O  O43  1  0.31555400  0.06609500  0.18100200  1
  O  O44  1  0.07730200  0.42452900  0.12634900  1
  O  O45  1  0.57730200  0.07547100  0.87365100  1
  O  O46  1  0.92269800  0.57547100  0.87365100  1
  O  O47  1  0.42269800  0.92452900  0.12634900  1
loop_
_geom_bond_atom_site_label_1
_geom_bond_atom_site_label_2
_geom_bond_distance
_geom_bond_site_symmetry_2
Ga0 O12 1.926644 1_555
Ga0 O16 1.946605 1_555
Ga0 O5 1.956335 1_555
Ga0 O0 2.052754 1_555
Ga0 O9 2.119179 1_555
Ga0 O8 2.125304 1_555
Ga1 O13 1.926644 1_555
Ga1 O17 1.946605 1_655
Ga1 O4 1.956335 1_655
Ga1 O1 2.052754 1_555
Ga1 O8 2.119179 1_555
Ga1 O9 2.125304 1_655
Ga2 O14 1.926644 1_555
Ga2 O18 1.946605 1_555
Ga2 O7 1.956335 1_555
Ga2 O2 2.052754 1_555
Ga2 O11 2.119179 1_555
Ga2 O10 2.125304 1_555
Ga3 O15 1.926644 1_555
Ga3 O19 1.946605 1_455
Ga3 O6 1.956335 1_455
Ga3 O3 2.052754 1_555
Ga3 O10 2.119179 1_555
Ga3 O11 2.125304 1_455
Ga4 O40 1.936662 1_555
Ga4 O36 1.946121 1_555
Ga4 O28 1.952944 1_555
Ga4 O33 2.042369 1_554
Ga4 O24 2.099181 1_555
Ga4 O25 2.166846 1_554
Ga5 O41 1.936662 1_555
Ga5 O37 1.946121 1_655
Ga5 O29 1.952944 1_655
Ga5 O32 2.042369 1_556
Ga5 O25 2.099181 1_555
Ga5 O24 2.166846 1_656
Ga6 O42 1.936662 1_555
Ga6 O38 1.946121 1_555
Ga6 O30 1.952944 1_555
Ga6 O35 2.042369 1_556
Ga6 O26 2.099181 1_555
Ga6 O27 2.166846 1_556
Ga7 O43 1.936662 1_555
Ga7 O39 1.946121 1_455
Ga7 O31 1.952944 1_455
Ga7 O34 2.042369 1_554
Ga7 O27 2.099181 1_555
Ga7 O26 2.166846 1_454
Cu0 O0 1.999609 1_555
Cu0 O2 1.999609 1_455
Cu0 O20 2.007876 1_555
Cu0 O22 2.007876 1_455
Cu0 O16 2.476324 1_455
Cu0 O18 2.476324 1_555
Cu1 O1 1.999609 1_555
Cu1 O3 1.999609 1_545
Cu1 O23 2.007876 1_545
Cu1 O21 2.007876 1_555
Cu1 O19 2.476324 1_545
Cu1 O17 2.476324 1_555
Cu2 O34 1.969149 1_554
Cu2 O32 1.969149 1_545
Cu2 O45 2.016271 1_554
Cu2 O47 2.016271 1_545
Cu2 O39 2.529087 1_555
Cu2 O37 2.529087 1_544
Cu3 O33 1.969149 1_554
Cu3 O35 1.969149 1_455
Cu3 O44 2.016271 1_555
Cu3 O46 2.016271 1_454
Cu3 O36 2.529087 1_455
Cu3 O38 2.529087 1_554
O0 Se0 1.765364 1_555
O1 Se1 1.765364 1_555
O2 Se2 1.765364 1_555
O3 Se3 1.765364 1_555
O4 Se0 1.712759 1_555
O5 Se1 1.712759 1_555
O6 Se2 1.712759 1_555
O7 Se3 1.712759 1_555
O8 Se0 1.765657 1_555
O9 Se1 1.765657 1_455
O10 Se2 1.765657 1_555
O11 Se3 1.765657 1_655
O12 Se4 1.742823 1_455
O13 Se5 1.742823 1_555
O14 Se6 1.742823 1_655
O15 Se7 1.742823 1_555
O16 Se4 1.738365 1_555
O17 Se5 1.738365 1_555
O18 Se6 1.738365 1_555
O19 Se7 1.738365 1_555
O20 Se4 1.725902 1_455
O21 Se5 1.725902 1_555
O22 Se6 1.725902 1_655
O23 Se7 1.725902 1_555
O24 Se8 1.763821 1_455
O25 Se9 1.763821 1_555
O26 Se10 1.763821 1_655
O27 Se11 1.763821 1_555
O28 Se8 1.712766 1_555
O29 Se9 1.712766 1_555
O30 Se10 1.712766 1_555
O31 Se11 1.712766 1_555
O32 Se8 1.765069 1_555
O33 Se9 1.765069 1_555
O34 Se10 1.765069 1_555
O35 Se11 1.765069 1_555
O36 Se12 1.738880 1_555
O37 Se13 1.738880 1_565
O38 Se14 1.738880 1_555
O39 Se15 1.738880 1_545
O40 Se12 1.748129 1_455
O41 Se13 1.748129 1_565
O42 Se14 1.748129 1_655
O43 Se15 1.748129 1_545
O44 Se12 1.728693 1_455
O45 Se13 1.728693 1_555
O46 Se14 1.728693 1_655
O47 Se15 1.728693 1_555
