# generated using pymatgen
data_Li4V3OF11
_symmetry_space_group_name_H-M   'P 1'
_cell_length_a   5.24981000
_cell_length_b   5.48028987
_cell_length_c   16.14870562
_cell_angle_alpha   80.84365474
_cell_angle_beta   89.60980806
_cell_angle_gamma   88.13119320
_symmetry_Int_Tables_number   1
_chemical_formula_structural   Li4V3OF11
_chemical_formula_sum   'Li8 V6 O2 F22'
_cell_volume   458.44133069
_cell_formula_units_Z   2
loop_
 _symmetry_equiv_pos_site_id
 _symmetry_equiv_pos_as_xyz
  1  'x, y, z'
loop_
 _atom_site_type_symbol
 _atom_site_label
 _atom_site_symmetry_multiplicity
 _atom_site_fract_x
 _atom_site_fract_y
 _atom_site_fract_z
 _atom_site_occupancy
  Li  Li0  1  0.48777900  0.11289000  0.89791900  1
  Li  Li1  1  0.33104300  0.53157800  0.48822100  1
  Li  Li2  1  0.54397600  0.57090600  0.77423500  1
  Li  Li3  1  0.01141700  0.55525600  0.90273700  1
  Li  Li4  1  0.83915300  0.95940200  0.50511900  1
  Li  Li5  1  0.78099800  0.19346500  0.17644200  1
  Li  Li6  1  0.97732400  0.03268600  0.77756700  1
  Li  Li7  1  0.23931300  0.66223800  0.15088300  1
  V  V0  1  0.00220500  0.65342600  0.66679300  1
  V  V1  1  0.49688200  0.49722400  0.00126800  1
  V  V2  1  0.50011400  0.83755500  0.32999300  1
  V  V3  1  0.99497800  0.00409800  0.00029200  1
  V  V4  1  0.99939900  0.33725800  0.33322500  1
  V  V5  1  0.49350900  0.16109000  0.66656900  1
  O  O0  1  0.77791800  0.30826700  0.97232100  1
  O  O1  1  0.22074600  0.69128400  0.01435500  1
  F  F0  1  0.17005700  0.30454900  0.70921900  1
  F  F1  1  0.64580500  0.49043300  0.65550400  1
  F  F2  1  0.08760800  0.70241200  0.54206100  1
  F  F3  1  0.37693900  0.49979800  0.88025000  1
  F  F4  1  0.41247700  0.86569300  0.21478800  1
  F  F5  1  0.91983500  0.93948800  0.11788100  1
  F  F6  1  0.58557400  0.79608500  0.44893000  1
  F  F7  1  0.88242300  0.67348100  0.79202700  1
  F  F8  1  0.18576300  0.01613200  0.35421700  1
  F  F9  1  0.33058100  0.83783100  0.70675100  1
  F  F10  1  0.31072700  0.18554400  0.02538400  1
  F  F11  1  0.69955400  0.80955100  0.95902000  1
  F  F12  1  0.69360300  0.15682000  0.29685500  1
  F  F13  1  0.82098400  0.00149400  0.63480300  1
  F  F14  1  0.07840500  0.38123300  0.21374600  1
  F  F15  1  0.40320900  0.21409200  0.55215900  1
  F  F16  1  0.12746200  0.04517700  0.88260900  1
  F  F17  1  0.62748400  0.14812800  0.78472100  1
  F  F18  1  0.58347000  0.46689900  0.11751000  1
  F  F19  1  0.90064400  0.28052800  0.44810700  1
  F  F20  1  0.30972300  0.51591100  0.36606800  1
  F  F21  1  0.81824300  0.65981700  0.31003400  1
loop_
_geom_bond_atom_site_label_1
_geom_bond_atom_site_label_2
_geom_bond_distance
_geom_bond_site_symmetry_2
Li0 O0 2.334700 1_555
Li3 O0 2.050091 1_455
Li3 O1 2.349554 1_556
Li7 O1 2.187690 1_555
O0 V1 1.874203 1_556
O0 V3 1.981086 1_556
O1 V1 1.801119 1_555
O1 V3 2.035306 1_465
F0 Li6 2.005370 1_455
F0 V5 2.011272 1_555
F0 V0 2.093533 1_555
F1 V5 1.979482 1_555
F1 Li2 2.096733 1_555
F1 V0 2.120700 1_655
F2 Li1 1.852454 1_555
F2 Li4 1.914189 1_455
F2 V0 2.038084 1_555
F3 Li2 1.908222 1_555
F3 Li3 1.973346 1_555
F3 V1 2.055074 1_556
F3 Li0 2.155275 1_555
F4 Li7 1.892013 1_555
F4 V2 1.900608 1_555
F5 V3 1.916187 1_565
F5 Li5 1.925155 1_565
F5 Li7 2.234700 1_655
F6 Li4 1.936296 1_555
F6 V2 1.951437 1_555
F6 Li1 2.027673 1_555
F7 Li2 1.918074 1_555
F7 Li3 1.921954 1_655
F7 Li6 2.023366 1_565
F7 V0 2.132226 1_655
F8 V2 1.960085 1_545
F8 V4 1.967640 1_455
F9 Li2 1.996223 1_555
F9 V5 2.004117 1_565
F9 V0 2.178499 1_555
F9 Li6 2.473462 1_465
F10 V1 1.978969 1_555
F10 V3 2.036068 1_455
F10 Li0 2.338828 1_554
F11 V1 2.065067 1_556
F11 V3 2.081914 1_566
F11 Li0 2.084592 1_565
F11 Li3 2.383858 1_655
F12 Li5 1.975233 1_555
F12 V2 2.046957 1_545
F12 V4 2.049687 1_555
F13 V5 2.004102 1_555
F13 V0 2.094113 1_645
F13 Li4 2.144224 1_545
F13 Li6 2.485624 1_555
F14 Li7 1.921279 1_555
F14 V4 1.949474 1_455
F14 Li5 2.043141 1_455
F15 V5 1.885413 1_555
F15 Li1 1.904604 1_555
F16 Li6 1.887335 1_455
F16 Li0 1.964260 1_555
F16 V3 2.000525 1_456
F17 Li6 1.931648 1_555
F17 Li0 1.948184 1_555
F17 V5 2.027830 1_555
F17 Li2 2.323576 1_555
F18 V1 1.914519 1_555
F18 Li5 1.919570 1_555
F18 Li7 2.178308 1_555
F19 Li4 1.888468 1_545
F19 V4 1.902904 1_555
F20 Li1 1.992144 1_555
F20 V4 2.043291 1_455
F20 V2 2.055651 1_555
F21 V2 1.956641 1_555
F21 V4 1.963174 1_555
