# generated using pymatgen
data_SmCo3P2
_symmetry_space_group_name_H-M   'P 1'
_cell_length_a   3.74557200
_cell_length_b   10.61547100
_cell_length_c   12.29569600
_cell_angle_alpha   90.00000000
_cell_angle_beta   90.00000000
_cell_angle_gamma   90.00000000
_symmetry_Int_Tables_number   1
_chemical_formula_structural   SmCo3P2
_chemical_formula_sum   'Sm6 Co18 P12'
_cell_volume   488.88930323
_cell_formula_units_Z   6
loop_
 _symmetry_equiv_pos_site_id
 _symmetry_equiv_pos_as_xyz
  1  'x, y, z'
loop_
 _atom_site_type_symbol
 _atom_site_label
 _atom_site_symmetry_multiplicity
 _atom_site_fract_x
 _atom_site_fract_y
 _atom_site_fract_z
 _atom_site_occupancy
  Sm  Sm0  1  0.00000000  0.50000000  0.52357600  1
  Sm  Sm1  1  0.50000000  0.00000000  0.47642400  1
  Sm  Sm2  1  0.50000000  0.81628700  0.20559000  1
  Sm  Sm3  1  0.50000000  0.18371300  0.20559000  1
  Sm  Sm4  1  0.00000000  0.68371300  0.79441000  1
  Sm  Sm5  1  0.00000000  0.31628700  0.79441000  1
  Co  Co0  1  0.50000000  0.50000000  0.15844900  1
  Co  Co1  1  0.00000000  0.00000000  0.84155100  1
  Co  Co2  1  0.50000000  0.50000000  0.70324800  1
  Co  Co3  1  0.00000000  0.00000000  0.29675200  1
  Co  Co4  1  0.00000000  0.50000000  0.98636000  1
  Co  Co5  1  0.50000000  0.00000000  0.01364000  1
  Co  Co6  1  0.50000000  0.33354100  0.99437700  1
  Co  Co7  1  0.50000000  0.66645900  0.99437700  1
  Co  Co8  1  0.00000000  0.16645900  0.00562300  1
  Co  Co9  1  0.00000000  0.83354100  0.00562300  1
  Co  Co10  1  0.50000000  0.29599500  0.43127100  1
  Co  Co11  1  0.50000000  0.70400500  0.43127100  1
  Co  Co12  1  0.00000000  0.20400500  0.56872900  1
  Co  Co13  1  0.00000000  0.79599500  0.56872900  1
  Co  Co14  1  0.50000000  0.88052400  0.70827400  1
  Co  Co15  1  0.50000000  0.11947600  0.70827400  1
  Co  Co16  1  0.00000000  0.61947600  0.29172600  1
  Co  Co17  1  0.00000000  0.38052400  0.29172600  1
  P  P0  1  0.50000000  0.50000000  0.88425200  1
  P  P1  1  0.00000000  0.00000000  0.11574800  1
  P  P2  1  0.50000000  0.50000000  0.34312300  1
  P  P3  1  0.00000000  0.00000000  0.65687700  1
  P  P4  1  0.50000000  0.30798800  0.61464700  1
  P  P5  1  0.50000000  0.69201200  0.61464700  1
  P  P6  1  0.00000000  0.19201200  0.38535300  1
  P  P7  1  0.00000000  0.80798800  0.38535300  1
  P  P8  1  0.50000000  0.84965700  0.89454200  1
  P  P9  1  0.50000000  0.15034300  0.89454200  1
  P  P10  1  0.00000000  0.65034300  0.10545800  1
  P  P11  1  0.00000000  0.34965700  0.10545800  1
loop_
_geom_bond_atom_site_label_1
_geom_bond_atom_site_label_2
_geom_bond_distance
_geom_bond_site_symmetry_2
Co0 P2 2.270695 1_555
Co0 P10 2.545379 1_655
Co0 P10 2.545379 1_555
Co0 P11 2.545379 1_655
Co0 P11 2.545379 1_555
Co1 P3 2.270695 1_555
Co1 P9 2.545379 1_455
Co1 P8 2.545379 1_545
Co1 P8 2.545379 1_445
Co1 P9 2.545379 1_555
Co2 P0 2.225570 1_555
Co2 P5 2.311163 1_555
Co2 P4 2.311163 1_555
Co2 Sm0 2.896180 1_555
Co2 Sm0 2.896180 1_655
Co2 Sm4 2.926948 1_555
Co2 Sm4 2.926948 1_655
Co2 Sm5 2.926948 1_655
Co2 Sm5 2.926948 1_555
Co3 P1 2.225570 1_555
Co3 P7 2.311163 1_545
Co3 P6 2.311163 1_555
Co3 Sm1 2.896180 1_555
Co3 Sm1 2.896180 1_455
Co3 Sm2 2.926948 1_545
Co3 Sm3 2.926948 1_555
Co3 Sm3 2.926948 1_455
Co3 Sm2 2.926948 1_445
Co4 P10 2.165996 1_556
Co4 P11 2.165996 1_556
Co4 P0 2.254680 1_555
Co4 P0 2.254680 1_455
Co4 Sm4 3.061638 1_555
Co4 Sm5 3.061638 1_555
Co5 P9 2.165996 1_554
Co5 P8 2.165996 1_544
Co5 P1 2.254680 1_655
Co5 P1 2.254680 1_555
Co5 Sm3 3.061638 1_555
Co5 Sm2 3.061638 1_545
Co6 P0 2.226190 1_555
Co6 P9 2.299748 1_555
Co6 P11 2.324232 1_556
Co6 P11 2.324232 1_656
Co6 Sm3 3.045347 1_556
Co6 Sm5 3.096166 1_655
Co6 Sm5 3.096166 1_555
Co7 P0 2.226190 1_555
Co7 P8 2.299748 1_555
Co7 P10 2.324232 1_656
Co7 P10 2.324232 1_556
Co7 Sm2 3.045347 1_556
Co7 Sm4 3.096166 1_555
Co7 Sm4 3.096166 1_655
Co8 P1 2.226190 1_555
Co8 P11 2.299748 1_555
Co8 P9 2.324232 1_554
Co8 P9 2.324232 1_454
Co8 Sm5 3.045347 1_554
Co8 Sm3 3.096166 1_455
Co8 Sm3 3.096166 1_555
Co9 P1 2.226190 1_565
Co9 P10 2.299748 1_555
Co9 P8 2.324232 1_454
Co9 P8 2.324232 1_554
Co9 Sm4 3.045347 1_554
Co9 Sm2 3.096166 1_555
Co9 Sm2 3.096166 1_455
Co10 P6 2.246003 1_655
Co10 P6 2.246003 1_555
Co10 P4 2.258327 1_555
Co10 P2 2.421688 1_555
Co10 Sm3 3.020064 1_555
Co10 Sm0 3.079823 1_655
Co10 Sm0 3.079823 1_555
Co10 Sm1 3.190798 1_555
Co11 P7 2.246003 1_555
Co11 P7 2.246003 1_655
Co11 P5 2.258327 1_555
Co11 P2 2.421688 1_555
Co11 Sm2 3.020064 1_555
Co11 Sm0 3.079823 1_655
Co11 Sm0 3.079823 1_555
Co11 Sm1 3.190798 1_565
Co12 P4 2.246003 1_555
Co12 P4 2.246003 1_455
Co12 P6 2.258327 1_555
Co12 P3 2.421688 1_555
Co12 Sm5 3.020064 1_555
Co12 Sm1 3.079823 1_555
Co12 Sm1 3.079823 1_455
Co12 Sm0 3.190798 1_555
Co13 P5 2.246003 1_455
Co13 P5 2.246003 1_555
Co13 P7 2.258327 1_555
Co13 P3 2.421688 1_565
Co13 Sm4 3.020064 1_555
Co13 Sm1 3.079823 1_565
Co13 Sm1 3.079823 1_465
Co13 Sm0 3.190798 1_555
Co14 P5 2.308649 1_555
Co14 P8 2.313615 1_555
Co14 P3 2.348462 1_565
Co14 P3 2.348462 1_665
Co14 Sm4 2.998992 1_555
Co14 Sm4 2.998992 1_655
Co14 Sm1 3.120158 1_565
Co15 P4 2.308649 1_555
Co15 P9 2.313615 1_555
Co15 P3 2.348462 1_655
Co15 P3 2.348462 1_555
Co15 Sm5 2.998992 1_655
Co15 Sm5 2.998992 1_555
Co15 Sm1 3.120158 1_555
Co16 P7 2.308649 1_555
Co16 P10 2.313615 1_555
Co16 P2 2.348462 1_555
Co16 P2 2.348462 1_455
Co16 Sm2 2.998992 1_455
Co16 Sm2 2.998992 1_555
Co16 Sm0 3.120158 1_555
Co17 P6 2.308649 1_555
Co17 P11 2.313615 1_555
Co17 P2 2.348462 1_555
Co17 P2 2.348462 1_455
Co17 Sm3 2.998992 1_455
Co17 Sm3 2.998992 1_555
Co17 Sm0 3.120158 1_555
P0 Sm4 2.920771 1_555
P0 Sm4 2.920771 1_655
P0 Sm5 2.920771 1_655
P0 Sm5 2.920771 1_555
P1 Sm3 2.920771 1_555
P1 Sm3 2.920771 1_455
P1 Sm2 2.920771 1_445
P1 Sm2 2.920771 1_545
P2 Sm0 2.903512 1_555
P2 Sm0 2.903512 1_655
P3 Sm1 2.903512 1_555
P3 Sm1 2.903512 1_455
P4 Sm5 2.898373 1_555
P4 Sm5 2.898373 1_655
P4 Sm0 2.985950 1_555
P4 Sm0 2.985950 1_655
P5 Sm4 2.898373 1_555
P5 Sm4 2.898373 1_655
P5 Sm0 2.985950 1_655
P5 Sm0 2.985950 1_555
P6 Sm3 2.898373 1_555
P6 Sm3 2.898373 1_455
P6 Sm1 2.985950 1_555
P6 Sm1 2.985950 1_455
P7 Sm2 2.898373 1_555
P7 Sm2 2.898373 1_455
P7 Sm1 2.985950 1_565
P7 Sm1 2.985950 1_465
P8 Sm4 2.850667 1_655
P8 Sm4 2.850667 1_555
P9 Sm5 2.850667 1_655
P9 Sm5 2.850667 1_555
P10 Sm2 2.850667 1_455
P10 Sm2 2.850667 1_555
P11 Sm3 2.850667 1_555
P11 Sm3 2.850667 1_455
