# generated using pymatgen
data_Y6Mn23
_symmetry_space_group_name_H-M   'P 1'
_cell_length_a   8.54772456
_cell_length_b   8.54772456
_cell_length_c   8.54772456
_cell_angle_alpha   60.00000000
_cell_angle_beta   60.00000000
_cell_angle_gamma   60.00000000
_symmetry_Int_Tables_number   1
_chemical_formula_structural   Y6Mn23
_chemical_formula_sum   'Y6 Mn23'
_cell_volume   441.60762089
_cell_formula_units_Z   1
loop_
 _symmetry_equiv_pos_site_id
 _symmetry_equiv_pos_as_xyz
  1  'x, y, z'
loop_
 _atom_site_type_symbol
 _atom_site_label
 _atom_site_symmetry_multiplicity
 _atom_site_fract_x
 _atom_site_fract_y
 _atom_site_fract_z
 _atom_site_occupancy
  Y  Y0  1  0.79479900  0.79479900  0.20520100  1
  Y  Y1  1  0.20520100  0.79479900  0.20520100  1
  Y  Y2  1  0.79479900  0.20520100  0.20520100  1
  Y  Y3  1  0.20520100  0.20520100  0.79479900  1
  Y  Y4  1  0.79479900  0.20520100  0.79479900  1
  Y  Y5  1  0.20520100  0.79479900  0.79479900  1
  Mn  Mn0  1  0.50000000  0.50000000  0.50000000  1
  Mn  Mn1  1  0.00000000  0.00000000  0.50000000  1
  Mn  Mn2  1  0.50000000  0.00000000  0.50000000  1
  Mn  Mn3  1  0.00000000  0.50000000  0.50000000  1
  Mn  Mn4  1  0.50000000  0.50000000  0.00000000  1
  Mn  Mn5  1  0.00000000  0.50000000  0.00000000  1
  Mn  Mn6  1  0.50000000  0.00000000  0.00000000  1
  Mn  Mn7  1  0.82214300  0.82214300  0.53357000  1
  Mn  Mn8  1  0.82214300  0.53357000  0.82214300  1
  Mn  Mn9  1  0.53357000  0.82214300  0.82214300  1
  Mn  Mn10  1  0.82214300  0.82214300  0.82214300  1
  Mn  Mn11  1  0.17785700  0.17785700  0.46643000  1
  Mn  Mn12  1  0.17785700  0.46643000  0.17785700  1
  Mn  Mn13  1  0.46643000  0.17785700  0.17785700  1
  Mn  Mn14  1  0.17785700  0.17785700  0.17785700  1
  Mn  Mn15  1  0.62205700  0.62205700  0.13382900  1
  Mn  Mn16  1  0.62205700  0.13382900  0.62205700  1
  Mn  Mn17  1  0.13382900  0.62205700  0.62205700  1
  Mn  Mn18  1  0.62205700  0.62205700  0.62205700  1
  Mn  Mn19  1  0.37794300  0.37794300  0.86617100  1
  Mn  Mn20  1  0.37794300  0.86617100  0.37794300  1
  Mn  Mn21  1  0.86617100  0.37794300  0.37794300  1
  Mn  Mn22  1  0.37794300  0.37794300  0.37794300  1
loop_
_geom_bond_atom_site_label_1
_geom_bond_atom_site_label_2
_geom_bond_distance
_geom_bond_site_symmetry_2
Y0 Y4 3.508003 1_564
Y0 Y1 3.508003 1_655
Y0 Y5 3.508003 1_654
Y0 Y2 3.508003 1_565
Y1 Y2 3.508003 1_465
Y1 Y3 3.508003 1_564
Y1 Y5 3.508003 1_554
Y2 Y4 3.508003 1_554
Y2 Y3 3.508003 1_654
Y3 Y5 3.508003 1_545
Y3 Y4 3.508003 1_455
Y4 Y5 3.508003 1_645
Mn0 Mn21 2.555576 1_555
Mn0 Mn19 2.555576 1_555
Mn0 Mn20 2.555576 1_555
Mn0 Mn18 2.555576 1_555
Mn0 Mn17 2.555576 1_555
Mn0 Mn15 2.555576 1_555
Mn0 Mn22 2.555576 1_555
Mn0 Mn16 2.555576 1_555
Mn1 Mn10 2.478614 1_445
Mn1 Mn14 2.478614 1_555
Mn1 Mn11 2.478619 1_555
Mn1 Mn7 2.478619 1_445
Mn1 Mn17 2.638375 1_545
Mn1 Mn16 2.638375 1_455
Mn1 Mn20 2.638375 1_545
Mn1 Mn21 2.638375 1_455
Mn1 Y4 3.070215 1_455
Mn1 Y5 3.070215 1_545
Mn1 Y1 3.070215 1_545
Mn1 Y2 3.070215 1_455
Mn2 Mn9 2.478611 1_545
Mn2 Mn7 2.478611 1_545
Mn2 Mn22 2.638375 1_555
Mn2 Mn20 2.638375 1_545
Mn2 Y3 3.070215 1_555
Mn2 Y2 3.070215 1_555
Mn2 Y0 3.070215 1_545
Mn2 Y5 3.070215 1_545
Mn3 Mn7 2.478611 1_455
Mn3 Mn8 2.478611 1_455
Mn3 Y3 3.070215 1_555
Mn3 Y1 3.070215 1_555
Mn3 Y4 3.070215 1_455
Mn3 Y0 3.070215 1_455
Mn4 Mn8 2.478611 1_554
Mn4 Mn9 2.478611 1_554
Mn4 Y1 3.070215 1_555
Mn4 Y2 3.070215 1_555
Mn4 Y4 3.070215 1_554
Mn4 Y5 3.070215 1_554
Mn5 Mn8 2.478619 1_454
Mn5 Y0 3.070215 1_455
Mn5 Y5 3.070215 1_554
Mn5 Y2 3.070215 1_455
Mn5 Y3 3.070215 1_554
Mn6 Mn9 2.478619 1_544
Mn6 Y0 3.070215 1_545
Mn6 Y4 3.070215 1_554
Mn6 Y1 3.070215 1_545
Mn6 Y3 3.070215 1_554
Mn7 Mn8 2.466643 1_555
Mn7 Mn9 2.466643 1_555
Mn7 Y0 3.058451 1_555
Mn7 Y1 3.058456 1_655
Mn7 Y2 3.058456 1_565
Mn8 Mn9 2.466643 1_555
Mn8 Y4 3.058451 1_555
Mn8 Y3 3.058456 1_655
Mn8 Y2 3.058456 1_556
Mn9 Y5 3.058451 1_555
Mn9 Y3 3.058456 1_565
Mn9 Y1 3.058456 1_556
Mn10 Mn8 2.466643 1_555
Mn10 Mn9 2.466643 1_555
Mn10 Mn7 2.466643 1_555
Mn10 Mn6 2.478614 1_566
Mn10 Mn5 2.478614 1_656
Mn10 Mn15 2.600017 1_556
Mn10 Mn17 2.600017 1_655
Mn10 Mn16 2.600017 1_565
Mn10 Y4 3.058459 1_565
Mn10 Y0 3.058459 1_556
Mn10 Y5 3.058459 1_655
Mn11 Mn14 2.466643 1_555
Mn11 Mn12 2.466643 1_555
Mn11 Mn13 2.466643 1_555
Mn11 Mn3 2.478611 1_555
Mn11 Mn2 2.478611 1_555
Mn11 Mn22 2.600014 1_555
Mn11 Mn20 2.600021 1_545
Mn11 Mn21 2.600021 1_455
Mn11 Y3 3.058451 1_555
Mn11 Y5 3.058456 1_545
Mn11 Y4 3.058456 1_455
Mn12 Mn14 2.466643 1_555
Mn12 Mn13 2.466643 1_555
Mn12 Mn3 2.478611 1_555
Mn12 Mn4 2.478611 1_555
Mn12 Mn5 2.478619 1_555
Mn12 Mn22 2.600014 1_555
Mn12 Mn21 2.600021 1_455
Mn12 Mn19 2.600021 1_554
Mn12 Y1 3.058451 1_555
Mn12 Y0 3.058456 1_455
Mn12 Y5 3.058456 1_554
Mn13 Mn14 2.466643 1_555
Mn13 Mn4 2.478611 1_555
Mn13 Mn2 2.478611 1_555
Mn13 Mn6 2.478619 1_555
Mn13 Mn22 2.600014 1_555
Mn13 Mn20 2.600021 1_545
Mn13 Mn19 2.600021 1_554
Mn13 Y2 3.058451 1_555
Mn13 Y0 3.058456 1_545
Mn13 Y4 3.058456 1_554
Mn14 Mn5 2.478614 1_555
Mn14 Mn6 2.478614 1_555
Mn14 Mn20 2.600017 1_545
Mn14 Mn21 2.600017 1_455
Mn14 Mn19 2.600017 1_554
Mn14 Y1 3.058459 1_545
Mn14 Y2 3.058459 1_455
Mn14 Y3 3.058459 1_554
Mn15 Mn9 2.600021 1_554
Mn15 Mn8 2.600021 1_554
Mn15 Mn4 2.638375 1_555
Mn15 Mn5 2.638375 1_655
Mn15 Mn6 2.638375 1_565
Mn15 Mn21 2.950925 1_555
Mn15 Mn20 2.950925 1_555
Mn15 Mn22 2.950925 1_555
Mn15 Y0 2.952014 1_555
Mn15 Y2 2.952014 1_555
Mn15 Y1 2.952014 1_555
Mn16 Mn9 2.600021 1_545
Mn16 Mn7 2.600021 1_545
Mn16 Mn2 2.638375 1_555
Mn16 Mn6 2.638375 1_556
Mn16 Mn21 2.950925 1_555
Mn16 Mn19 2.950925 1_555
Mn16 Mn22 2.950925 1_555
Mn16 Y4 2.952014 1_555
Mn16 Y3 2.952014 1_555
Mn16 Y2 2.952014 1_555
Mn17 Mn7 2.600021 1_455
Mn17 Mn8 2.600021 1_455
Mn17 Mn3 2.638375 1_555
Mn17 Mn5 2.638375 1_556
Mn17 Mn20 2.950925 1_555
Mn17 Mn19 2.950925 1_555
Mn17 Mn22 2.950925 1_555
Mn17 Y5 2.952014 1_555
Mn17 Y3 2.952014 1_555
Mn17 Y1 2.952014 1_555
Mn18 Mn8 2.600014 1_555
Mn18 Mn9 2.600014 1_555
Mn18 Mn7 2.600014 1_555
Mn18 Mn3 2.638375 1_655
Mn18 Mn4 2.638375 1_556
Mn18 Mn2 2.638375 1_565
Mn18 Mn19 2.950925 1_555
Mn18 Mn20 2.950925 1_555
Mn18 Mn21 2.950925 1_555
Mn18 Y5 2.952014 1_555
Mn18 Y4 2.952014 1_555
Mn18 Y0 2.952014 1_555
Mn19 Mn5 2.638375 1_556
Mn19 Mn6 2.638375 1_556
Mn19 Mn4 2.638375 1_556
Mn19 Y5 2.952014 1_555
Mn19 Y4 2.952014 1_555
Mn19 Y3 2.952014 1_555
Mn20 Mn6 2.638375 1_565
Mn20 Y0 2.952014 1_555
Mn20 Y5 2.952014 1_555
Mn20 Y1 2.952014 1_555
Mn21 Mn5 2.638375 1_655
Mn21 Mn3 2.638375 1_655
Mn21 Y0 2.952014 1_555
Mn21 Y4 2.952014 1_555
Mn21 Y2 2.952014 1_555
Mn22 Mn3 2.638375 1_555
Mn22 Mn4 2.638375 1_555
Mn22 Y2 2.952014 1_555
Mn22 Y1 2.952014 1_555
Mn22 Y3 2.952014 1_555
