# generated using pymatgen
data_Hf2Ga3Ni
_symmetry_space_group_name_H-M   'P 1'
_cell_length_a   4.15484300
_cell_length_b   5.34473456
_cell_length_c   5.29614507
_cell_angle_alpha   92.18536131
_cell_angle_beta   113.09466881
_cell_angle_gamma   67.12726587
_symmetry_Int_Tables_number   1
_chemical_formula_structural   Hf2Ga3Ni
_chemical_formula_sum   'Hf2 Ga3 Ni1'
_cell_volume   98.76607487
_cell_formula_units_Z   1
loop_
 _symmetry_equiv_pos_site_id
 _symmetry_equiv_pos_as_xyz
  1  'x, y, z'
loop_
 _atom_site_type_symbol
 _atom_site_label
 _atom_site_symmetry_multiplicity
 _atom_site_fract_x
 _atom_site_fract_y
 _atom_site_fract_z
 _atom_site_occupancy
  Hf  Hf0  1  0.74332000  0.71837900  0.20502000  1
  Hf  Hf1  1  0.24619000  0.29751200  0.78989200  1
  Ga  Ga0  1  0.47358500  0.67231800  0.61948700  1
  Ga  Ga1  1  0.04028800  0.13709200  0.21766900  1
  Ga  Ga2  1  0.94393700  0.89534600  0.78321900  1
  Ni  Ni0  1  0.55268000  0.27935300  0.38471300  1
loop_
_geom_bond_atom_site_label_1
_geom_bond_atom_site_label_2
_geom_bond_distance
_geom_bond_site_symmetry_2
Hf0 Ni0 3.008361 1_565
Hf0 Ni0 3.040646 1_555
Hf0 Ni0 3.040650 1_655
Hf0 Hf1 3.266102 1_564
Hf0 Hf1 3.289508 1_655
Hf1 Ni0 2.875348 1_555
Hf1 Ni0 2.875348 1_455
Hf1 Ni0 2.887087 1_556
Ga0 Ni0 2.376995 1_555
Ga0 Ga2 2.528744 1_555
Ga0 Ga2 2.528744 1_455
Ga0 Ga1 2.803862 1_565
Ga0 Hf1 2.828100 1_655
Ga0 Hf1 2.828102 1_555
Ga0 Hf0 2.884537 1_555
Ga0 Hf0 2.884543 1_455
Ga0 Hf0 2.891887 1_556
Ga0 Hf1 3.295067 1_565
Ga1 Ni0 2.371186 1_455
Ga1 Ni0 2.371190 1_555
Ga1 Ga2 2.564495 1_444
Ga1 Hf0 2.854877 1_455
Ga1 Hf0 2.933491 1_445
Ga1 Hf0 2.933491 1_545
Ga1 Hf1 2.972985 1_454
Ga1 Hf1 2.972988 1_554
Ga1 Hf1 2.998250 1_555
Ga2 Ni0 2.520826 1_565
Ga2 Hf1 2.873380 1_665
Ga2 Hf1 2.873384 1_565
Ga2 Hf1 2.939813 1_655
Ga2 Hf0 2.968931 1_656
Ga2 Hf0 2.968936 1_556
Ga2 Hf0 3.058788 1_555
