# generated using pymatgen
data_NaB24S6(Br2O)12
_symmetry_space_group_name_H-M   'P 1'
_cell_length_a   13.26403107
_cell_length_b   13.26401317
_cell_length_c   19.71380637
_cell_angle_alpha   90.00007715
_cell_angle_beta   89.99996143
_cell_angle_gamma   119.99995525
_symmetry_Int_Tables_number   1
_chemical_formula_structural   NaB24S6(Br2O)12
_chemical_formula_sum   'Na2 B48 S12 Br48 O24'
_cell_volume   3003.66703963
_cell_formula_units_Z   2
loop_
 _symmetry_equiv_pos_site_id
 _symmetry_equiv_pos_as_xyz
  1  'x, y, z'
loop_
 _atom_site_type_symbol
 _atom_site_label
 _atom_site_symmetry_multiplicity
 _atom_site_fract_x
 _atom_site_fract_y
 _atom_site_fract_z
 _atom_site_occupancy
  Na  Na0  1  0.66661940  0.33330970  0.25000000  1
  Na  Na1  1  0.33338060  0.66669030  0.75000000  1
  B  B0  1  0.25482212  0.66677451  0.18091303  1
  B  B1  1  0.33322566  0.58804762  0.18091313  1
  B  B2  1  0.41195229  0.74517800  0.18091300  1
  B  B3  1  0.74517788  0.41195239  0.68091303  1
  B  B4  1  0.58804771  0.33322571  0.68091300  1
  B  B5  1  0.66677434  0.25482196  0.68091313  1
  B  B6  1  0.74517788  0.33322549  0.81908697  1
  B  B7  1  0.66677434  0.41195238  0.81908687  1
  B  B8  1  0.58804771  0.25482200  0.81908700  1
  B  B9  1  0.25482212  0.58804761  0.31908697  1
  B  B10  1  0.41195229  0.66677429  0.31908700  1
  B  B11  1  0.33322566  0.74517804  0.31908687  1
  B  B12  1  0.20583736  0.53937390  0.23374451  1
  B  B13  1  0.46062610  0.66646333  0.23374460  1
  B  B14  1  0.33353673  0.79416277  0.23374465  1
  B  B15  1  0.79416264  0.33353654  0.73374451  1
  B  B16  1  0.66646327  0.46062604  0.73374465  1
  B  B17  1  0.53937390  0.20583723  0.73374460  1
  B  B18  1  0.79416264  0.46062610  0.76625549  1
  B  B19  1  0.53937390  0.33353667  0.76625540  1
  B  B20  1  0.66646327  0.20583723  0.76625535  1
  B  B21  1  0.20583736  0.66646346  0.26625549  1
  B  B22  1  0.33353673  0.53937396  0.26625535  1
  B  B23  1  0.46062610  0.79416277  0.26625540  1
  B  B24  1  0.07985414  0.00105882  0.93081010  1
  B  B25  1  0.99894117  0.07879537  0.93081004  1
  B  B26  1  0.92120467  0.92014580  0.93081011  1
  B  B27  1  0.92014586  0.92120468  0.43081010  1
  B  B28  1  0.07879533  0.99894113  0.43081011  1
  B  B29  1  0.00105883  0.07985420  0.43081004  1
  B  B30  1  0.92014586  0.99894118  0.06918990  1
  B  B31  1  0.00105883  0.92120463  0.06918996  1
  B  B32  1  0.07879533  0.07985420  0.06918989  1
  B  B33  1  0.07985414  0.07879532  0.56918990  1
  B  B34  1  0.92120467  0.00105887  0.56918989  1
  B  B35  1  0.99894117  0.92014580  0.56918996  1
  B  B36  1  0.00575368  0.87579973  0.98280810  1
  B  B37  1  0.12420010  0.12995370  0.98280816  1
  B  B38  1  0.87004627  0.99424641  0.98280828  1
  B  B39  1  0.99424632  0.87004605  0.48280810  1
  B  B40  1  0.12995373  0.12420014  0.48280828  1
  B  B41  1  0.87579990  0.00575359  0.48280816  1
  B  B42  1  0.99424632  0.12420027  0.01719190  1
  B  B43  1  0.87579990  0.87004630  0.01719184  1
  B  B44  1  0.12995373  0.00575359  0.01719172  1
  B  B45  1  0.00575368  0.12995395  0.51719190  1
  B  B46  1  0.87004627  0.87579986  0.51719172  1
  B  B47  1  0.12420010  0.99424641  0.51719184  1
  S  S0  1  0.85214414  0.51491687  0.10817160  1
  S  S1  1  0.48508098  0.33722680  0.10816971  1
  S  S2  1  0.66277419  0.14785617  0.10817070  1
  S  S3  1  0.14785586  0.66277273  0.60817160  1
  S  S4  1  0.33722581  0.48508198  0.60817070  1
  S  S5  1  0.51491902  0.85214582  0.60816971  1
  S  S6  1  0.14785586  0.48508313  0.89182840  1
  S  S7  1  0.51491902  0.66277320  0.89183029  1
  S  S8  1  0.33722581  0.85214383  0.89182930  1
  S  S9  1  0.85214414  0.33722727  0.39182840  1
  S  S10  1  0.66277419  0.51491802  0.39182930  1
  S  S11  1  0.48508098  0.14785418  0.39183029  1
  Br  Br0  1  0.16772525  0.66643085  0.10129376  1
  Br  Br1  1  0.33356933  0.50129407  0.10129382  1
  Br  Br2  1  0.49870568  0.83227515  0.10129374  1
  Br  Br3  1  0.83227475  0.49870561  0.60129376  1
  Br  Br4  1  0.50129432  0.33356947  0.60129374  1
  Br  Br5  1  0.66643067  0.16772474  0.60129382  1
  Br  Br6  1  0.83227475  0.33356915  0.89870624  1
  Br  Br7  1  0.66643067  0.49870593  0.89870618  1
  Br  Br8  1  0.50129432  0.16772485  0.89870626  1
  Br  Br9  1  0.16772525  0.50129439  0.39870624  1
  Br  Br10  1  0.49870568  0.66643053  0.39870626  1
  Br  Br11  1  0.33356933  0.83227526  0.39870618  1
  Br  Br12  1  0.06093182  0.39623401  0.21557602  1
  Br  Br13  1  0.60376586  0.66469777  0.21557615  1
  Br  Br14  1  0.33530270  0.93906854  0.21557603  1
  Br  Br15  1  0.93906818  0.33530219  0.71557602  1
  Br  Br16  1  0.66469730  0.60376584  0.71557603  1
  Br  Br17  1  0.39623414  0.06093191  0.71557615  1
  Br  Br18  1  0.93906818  0.60376599  0.78442398  1
  Br  Br19  1  0.39623414  0.33530223  0.78442385  1
  Br  Br20  1  0.66469730  0.06093146  0.78442397  1
  Br  Br21  1  0.06093182  0.66469781  0.28442398  1
  Br  Br22  1  0.33530270  0.39623416  0.28442397  1
  Br  Br23  1  0.60376586  0.93906809  0.28442385  1
  Br  Br24  1  0.16690776  0.00281215  0.85119778  1
  Br  Br25  1  0.99718795  0.16409593  0.85119799  1
  Br  Br26  1  0.83590424  0.83309136  0.85119811  1
  Br  Br27  1  0.83309224  0.83590439  0.35119778  1
  Br  Br28  1  0.16409576  0.99718712  0.35119811  1
  Br  Br29  1  0.00281205  0.16690799  0.35119799  1
  Br  Br30  1  0.83309224  0.99718785  0.14880222  1
  Br  Br31  1  0.00281205  0.83590407  0.14880201  1
  Br  Br32  1  0.16409576  0.16690864  0.14880189  1
  Br  Br33  1  0.16690776  0.16409561  0.64880222  1
  Br  Br34  1  0.83590424  0.00281288  0.64880189  1
  Br  Br35  1  0.99718795  0.83309201  0.64880201  1
  Br  Br36  1  0.01237044  0.73555215  0.96311732  1
  Br  Br37  1  0.26444824  0.27681813  0.96311737  1
  Br  Br38  1  0.72318172  0.98762984  0.96311737  1
  Br  Br39  1  0.98762956  0.72318171  0.46311732  1
  Br  Br40  1  0.27681828  0.26444812  0.46311737  1
  Br  Br41  1  0.73555176  0.01236989  0.46311737  1
  Br  Br42  1  0.98762956  0.26444785  0.03688268  1
  Br  Br43  1  0.73555176  0.72318187  0.03688263  1
  Br  Br44  1  0.27681828  0.01237016  0.03688263  1
  Br  Br45  1  0.01237044  0.27681829  0.53688268  1
  Br  Br46  1  0.72318172  0.73555188  0.53688263  1
  Br  Br47  1  0.26444824  0.98763011  0.53688263  1
  O  O0  1  0.80065318  0.49079415  0.17554125  1
  O  O1  1  0.50920152  0.30985898  0.17553981  1
  O  O2  1  0.69013910  0.19934377  0.17554094  1
  O  O3  1  0.19934682  0.69014097  0.67554125  1
  O  O4  1  0.30986090  0.50920466  0.67554094  1
  O  O5  1  0.49079848  0.80065746  0.67553981  1
  O  O6  1  0.19934682  0.50920585  0.82445875  1
  O  O7  1  0.49079848  0.69014102  0.82446019  1
  O  O8  1  0.30986090  0.80065623  0.82445906  1
  O  O9  1  0.80065318  0.30985903  0.32445875  1
  O  O10  1  0.69013910  0.49079534  0.32445906  1
  O  O11  1  0.50920152  0.19934254  0.32446019  1
  O  O12  1  0.84261064  0.41690162  0.07009351  1
  O  O13  1  0.58309838  0.42570978  0.07009322  1
  O  O14  1  0.57429013  0.15738863  0.07009347  1
  O  O15  1  0.15738936  0.57429098  0.57009351  1
  O  O16  1  0.42570987  0.58309850  0.57009347  1
  O  O17  1  0.41690162  0.84261140  0.57009322  1
  O  O18  1  0.15738936  0.58309838  0.92990649  1
  O  O19  1  0.41690162  0.57429022  0.92990678  1
  O  O20  1  0.42570987  0.84261137  0.92990653  1
  O  O21  1  0.84261064  0.42570902  0.42990649  1
  O  O22  1  0.57429013  0.41690150  0.42990653  1
  O  O23  1  0.58309838  0.15738860  0.42990678  1
loop_
_geom_bond_atom_site_label_1
_geom_bond_atom_site_label_2
_geom_bond_distance
_geom_bond_site_symmetry_2
Na0 O1 2.441664 1_555
Na0 O11 2.441664 1_555
Na0 O2 2.442083 1_555
Na0 O10 2.442083 1_555
Na0 O9 2.442345 1_555
Na0 O0 2.442345 1_555
Na1 O7 2.441664 1_555
Na1 O5 2.441664 1_555
Na1 O8 2.442083 1_555
Na1 O4 2.442083 1_555
Na1 O3 2.442345 1_555
Na1 O6 2.442345 1_555
B0 Br0 1.947566 1_555
B1 Br1 1.947567 1_555
B2 Br2 1.947568 1_555
B3 Br3 1.947566 1_555
B4 Br4 1.947568 1_555
B5 Br5 1.947567 1_555
B6 Br6 1.947566 1_555
B7 Br7 1.947567 1_555
B8 Br8 1.947568 1_555
B9 Br9 1.947566 1_555
B10 Br10 1.947568 1_555
B11 Br11 1.947567 1_555
B12 Br12 1.943714 1_555
B13 Br13 1.943712 1_555
B14 Br14 1.943714 1_555
B15 Br15 1.943714 1_555
B16 Br16 1.943714 1_555
B17 Br17 1.943712 1_555
B18 Br18 1.943714 1_555
B19 Br19 1.943712 1_555
B20 Br20 1.943714 1_555
B21 Br21 1.943714 1_555
B22 Br22 1.943714 1_555
B23 Br23 1.943712 1_555
B24 Br24 1.941697 1_555
B25 Br25 1.941695 1_555
B26 Br26 1.941695 1_555
B27 Br27 1.941697 1_555
B28 Br28 1.941695 1_555
B29 Br29 1.941695 1_555
B30 Br30 1.941697 1_555
B31 Br31 1.941695 1_555
B32 Br32 1.941695 1_555
B33 Br33 1.941697 1_555
B34 Br34 1.941695 1_555
B35 Br35 1.941695 1_555
B36 Br36 1.944778 1_555
B37 Br37 1.944786 1_555
B38 Br38 1.944786 1_555
B39 Br39 1.944778 1_555
B40 Br40 1.944786 1_555
B41 Br41 1.944786 1_555
B42 Br42 1.944778 1_555
B43 Br43 1.944786 1_555
B44 Br44 1.944786 1_555
B45 Br45 1.944778 1_555
B46 Br46 1.944786 1_555
B47 Br47 1.944786 1_555
O0 S0 1.454025 1_555
O1 S1 1.454022 1_555
O2 S2 1.454019 1_555
O3 S3 1.454025 1_555
O4 S4 1.454019 1_555
O5 S5 1.454022 1_555
O6 S6 1.454025 1_555
O7 S7 1.454022 1_555
O8 S8 1.454019 1_555
O9 S9 1.454025 1_555
O10 S10 1.454019 1_555
O11 S11 1.454022 1_555
O12 S0 1.450959 1_555
O13 S1 1.450966 1_555
O14 S2 1.450973 1_555
O15 S3 1.450959 1_555
O16 S4 1.450973 1_555
O17 S5 1.450966 1_555
O18 S6 1.450959 1_555
O19 S7 1.450966 1_555
O20 S8 1.450973 1_555
O21 S9 1.450959 1_555
O22 S10 1.450973 1_555
O23 S11 1.450966 1_555
