# generated using pymatgen
data_Sr2CoO4
_symmetry_space_group_name_H-M   'P 1'
_cell_length_a   3.92207700
_cell_length_b   12.42039300
_cell_length_c   7.77494500
_cell_angle_alpha   90.00000000
_cell_angle_beta   90.00000000
_cell_angle_gamma   90.00000000
_symmetry_Int_Tables_number   1
_chemical_formula_structural   Sr2CoO4
_chemical_formula_sum   'Sr8 Co4 O16'
_cell_volume   378.74663149
_cell_formula_units_Z   4
loop_
 _symmetry_equiv_pos_site_id
 _symmetry_equiv_pos_as_xyz
  1  'x, y, z'
loop_
 _atom_site_type_symbol
 _atom_site_label
 _atom_site_symmetry_multiplicity
 _atom_site_fract_x
 _atom_site_fract_y
 _atom_site_fract_z
 _atom_site_occupancy
  Sr  Sr0  1  0.50000000  0.14105700  0.12943000  1
  Sr  Sr1  1  0.50000000  0.14078100  0.62056500  1
  Sr  Sr2  1  0.00000000  0.64078100  0.37943500  1
  Sr  Sr3  1  0.00000000  0.64105700  0.87057000  1
  Sr  Sr4  1  0.00000000  0.35921900  0.37943500  1
  Sr  Sr5  1  0.00000000  0.35894300  0.87057000  1
  Sr  Sr6  1  0.50000000  0.85921900  0.62056500  1
  Sr  Sr7  1  0.50000000  0.85894300  0.12943000  1
  Co  Co0  1  0.00000000  0.00000000  0.37477700  1
  Co  Co1  1  0.50000000  0.50000000  0.62522300  1
  Co  Co2  1  0.00000000  0.00000000  0.87528100  1
  Co  Co3  1  0.50000000  0.50000000  0.12471900  1
  O  O0  1  0.50000000  0.34765800  0.12400200  1
  O  O1  1  0.50000000  0.34011000  0.62586900  1
  O  O2  1  0.00000000  0.84011000  0.37413100  1
  O  O3  1  0.00000000  0.84765800  0.87599800  1
  O  O4  1  0.00000000  0.15989000  0.37413100  1
  O  O5  1  0.00000000  0.15234200  0.87599800  1
  O  O6  1  0.50000000  0.65989000  0.62586900  1
  O  O7  1  0.50000000  0.65234200  0.12400200  1
  O  O8  1  0.00000000  0.00000000  0.14091500  1
  O  O9  1  0.00000000  0.00000000  0.60846700  1
  O  O10  1  0.50000000  0.50000000  0.39153300  1
  O  O11  1  0.50000000  0.50000000  0.85908500  1
  O  O12  1  0.50000000  0.00000000  0.37443900  1
  O  O13  1  0.50000000  0.00000000  0.87506900  1
  O  O14  1  0.00000000  0.50000000  0.62556100  1
  O  O15  1  0.00000000  0.50000000  0.12493100  1
loop_
_geom_bond_atom_site_label_1
_geom_bond_atom_site_label_2
_geom_bond_distance
_geom_bond_site_symmetry_2
Co0 O9 1.816927 1_555
Co0 O8 1.818264 1_555
Co0 O12 1.961040 1_555
Co0 O12 1.961040 1_455
Co0 O2 1.985903 1_545
Co0 O4 1.985903 1_555
Co1 O10 1.816927 1_555
Co1 O11 1.818264 1_555
Co1 O14 1.961040 1_555
Co1 O14 1.961040 1_655
Co1 O1 1.985903 1_555
Co1 O6 1.985903 1_555
Co2 O5 1.892156 1_555
Co2 O3 1.892156 1_545
Co2 O13 1.961039 1_555
Co2 O13 1.961039 1_455
Co2 O8 2.065290 1_556
Co2 O9 2.074464 1_555
Co3 O7 1.892156 1_555
Co3 O0 1.892156 1_555
Co3 O15 1.961039 1_655
Co3 O15 1.961039 1_555
Co3 O11 2.065290 1_554
Co3 O10 2.074464 1_555
O0 Sr0 2.566413 1_555
O0 Sr5 2.783500 1_654
O0 Sr5 2.783500 1_554
O0 Sr4 2.794709 1_555
O0 Sr4 2.794709 1_655
O1 Sr1 2.476088 1_555
O1 Sr5 2.742268 1_555
O1 Sr5 2.742268 1_655
O1 Sr4 2.751927 1_555
O1 Sr4 2.751927 1_655
O2 Sr2 2.476088 1_555
O2 Sr7 2.742268 1_455
O2 Sr7 2.742268 1_555
O2 Sr6 2.751927 1_455
O2 Sr6 2.751927 1_555
O3 Sr3 2.566413 1_555
O3 Sr7 2.783500 1_456
O3 Sr7 2.783500 1_556
O3 Sr6 2.794709 1_455
O3 Sr6 2.794709 1_555
O4 Sr4 2.476088 1_555
O4 Sr0 2.742268 1_455
O4 Sr0 2.742268 1_555
O4 Sr1 2.751927 1_455
O4 Sr1 2.751927 1_555
O5 Sr5 2.566413 1_555
O5 Sr0 2.783500 1_556
O5 Sr0 2.783500 1_456
O5 Sr1 2.794709 1_455
O5 Sr1 2.794709 1_555
O6 Sr6 2.476088 1_555
O6 Sr3 2.742268 1_555
O6 Sr3 2.742268 1_655
O6 Sr2 2.751927 1_555
O6 Sr2 2.751927 1_655
O7 Sr7 2.566413 1_555
O7 Sr3 2.783500 1_554
O7 Sr3 2.783500 1_654
O7 Sr2 2.794709 1_555
O7 Sr2 2.794709 1_655
O8 Sr0 2.631177 1_555
O8 Sr7 2.631177 1_545
O8 Sr7 2.631177 1_445
O8 Sr0 2.631177 1_455
O9 Sr1 2.629062 1_555
O9 Sr1 2.629062 1_455
O9 Sr6 2.629062 1_445
O9 Sr6 2.629062 1_545
O10 Sr2 2.629062 1_555
O10 Sr2 2.629062 1_655
O10 Sr4 2.629062 1_555
O10 Sr4 2.629062 1_655
O11 Sr3 2.631177 1_555
O11 Sr3 2.631177 1_655
O11 Sr5 2.631177 1_655
O11 Sr5 2.631177 1_555
O12 Sr7 2.588090 1_545
O12 Sr0 2.588090 1_555
O12 Sr1 2.592175 1_555
O12 Sr6 2.592175 1_545
O13 Sr1 2.640628 1_555
O13 Sr6 2.640628 1_545
O13 Sr0 2.642067 1_556
O13 Sr7 2.642067 1_546
O14 Sr3 2.588090 1_555
O14 Sr5 2.588090 1_555
O14 Sr2 2.592175 1_555
O14 Sr4 2.592175 1_555
O15 Sr2 2.640628 1_555
O15 Sr4 2.640628 1_555
O15 Sr3 2.642067 1_554
O15 Sr5 2.642067 1_554
