# generated using pymatgen
data_Ca3AlSb3
_symmetry_space_group_name_H-M   'P 1'
_cell_length_a   4.51342936
_cell_length_b   12.93826770
_cell_length_c   14.33342830
_cell_angle_alpha   90.00000000
_cell_angle_beta   90.00000000
_cell_angle_gamma   90.00000000
_symmetry_Int_Tables_number   1
_chemical_formula_structural   Ca3AlSb3
_chemical_formula_sum   'Ca12 Al4 Sb12'
_cell_volume   837.01426704
_cell_formula_units_Z   4
loop_
 _symmetry_equiv_pos_site_id
 _symmetry_equiv_pos_as_xyz
  1  'x, y, z'
loop_
 _atom_site_type_symbol
 _atom_site_label
 _atom_site_symmetry_multiplicity
 _atom_site_fract_x
 _atom_site_fract_y
 _atom_site_fract_z
 _atom_site_occupancy
  Ca  Ca0  1  0.25000000  0.05929959  0.88900024  1
  Ca  Ca1  1  0.75000000  0.94070041  0.11099976  1
  Ca  Ca2  1  0.25000000  0.55929959  0.61099976  1
  Ca  Ca3  1  0.75000000  0.44070041  0.38900024  1
  Ca  Ca4  1  0.25000000  0.84924614  0.49596837  1
  Ca  Ca5  1  0.75000000  0.15075386  0.50403163  1
  Ca  Ca6  1  0.25000000  0.34924614  0.00403163  1
  Ca  Ca7  1  0.75000000  0.65075386  0.99596837  1
  Ca  Ca8  1  0.75000000  0.22831657  0.22041631  1
  Ca  Ca9  1  0.25000000  0.77168343  0.77958369  1
  Ca  Ca10  1  0.75000000  0.72831657  0.27958369  1
  Ca  Ca11  1  0.25000000  0.27168343  0.72041631  1
  Al  Al0  1  0.25000000  0.06761846  0.29681139  1
  Al  Al1  1  0.75000000  0.93238154  0.70318861  1
  Al  Al2  1  0.25000000  0.56761846  0.20318861  1
  Al  Al3  1  0.75000000  0.43238154  0.79681139  1
  Sb  Sb0  1  0.25000000  0.25547829  0.38069553  1
  Sb  Sb1  1  0.75000000  0.74452171  0.61930447  1
  Sb  Sb2  1  0.25000000  0.75547829  0.11930447  1
  Sb  Sb3  1  0.75000000  0.24452171  0.88069553  1
  Sb  Sb4  1  0.25000000  0.11305061  0.11063660  1
  Sb  Sb5  1  0.75000000  0.88694939  0.88936340  1
  Sb  Sb6  1  0.25000000  0.61305061  0.38936340  1
  Sb  Sb7  1  0.75000000  0.38694939  0.61063660  1
  Sb  Sb8  1  0.25000000  0.03940196  0.64994023  1
  Sb  Sb9  1  0.75000000  0.96059804  0.35005977  1
  Sb  Sb10  1  0.25000000  0.53940196  0.85005977  1
  Sb  Sb11  1  0.75000000  0.46059804  0.14994023  1
loop_
_geom_bond_atom_site_label_1
_geom_bond_atom_site_label_2
_geom_bond_distance
_geom_bond_site_symmetry_2
Ca0 Sb5 3.172586 1_445
Ca0 Sb5 3.172586 1_545
Ca0 Sb4 3.252039 1_556
Ca0 Sb3 3.293922 1_455
Ca0 Sb3 3.293922 1_555
Ca0 Sb8 3.436207 1_555
Ca1 Sb4 3.172586 1_565
Ca1 Sb4 3.172586 1_665
Ca1 Sb5 3.252039 1_554
Ca1 Sb2 3.293922 1_655
Ca1 Sb2 3.293922 1_555
Ca1 Sb9 3.436207 1_555
Ca2 Sb7 3.172586 1_455
Ca2 Sb7 3.172586 1_555
Ca2 Sb6 3.252039 1_555
Ca2 Sb1 3.293922 1_455
Ca2 Sb1 3.293922 1_555
Ca2 Sb10 3.436207 1_555
Ca3 Sb6 3.172586 1_555
Ca3 Sb6 3.172586 1_655
Ca3 Sb7 3.252039 1_555
Ca3 Sb0 3.293922 1_555
Ca3 Sb0 3.293922 1_655
Ca3 Sb11 3.436207 1_555
Ca4 Sb1 3.170785 1_455
Ca4 Sb1 3.170785 1_555
Ca4 Sb8 3.305089 1_565
Ca4 Sb9 3.397383 1_455
Ca4 Sb9 3.397383 1_555
Ca4 Sb6 3.416684 1_555
Ca5 Sb0 3.170785 1_655
Ca5 Sb0 3.170785 1_555
Ca5 Sb9 3.305089 1_545
Ca5 Sb8 3.397383 1_555
Ca5 Sb8 3.397383 1_655
Ca5 Sb7 3.416684 1_555
Ca6 Sb3 3.170785 1_454
Ca6 Sb3 3.170785 1_554
Ca6 Sb10 3.305089 1_554
Ca6 Sb11 3.397383 1_455
Ca6 Sb11 3.397383 1_555
Ca6 Sb4 3.416684 1_555
Ca7 Sb2 3.170785 1_556
Ca7 Sb2 3.170785 1_656
Ca7 Sb11 3.305089 1_556
Ca7 Sb10 3.397383 1_555
Ca7 Sb10 3.397383 1_655
Ca7 Sb5 3.416684 1_555
Ca8 Sb4 3.129349 1_555
Ca8 Sb4 3.129349 1_655
Ca8 Sb11 3.170549 1_555
Ca8 Sb0 3.239457 1_555
Ca8 Sb0 3.239457 1_655
Ca9 Sb5 3.129349 1_455
Ca9 Sb5 3.129349 1_555
Ca9 Sb10 3.170549 1_555
Ca9 Sb1 3.239457 1_455
Ca9 Sb1 3.239457 1_555
Ca10 Sb6 3.129349 1_655
Ca10 Sb6 3.129349 1_555
Ca10 Sb9 3.170549 1_555
Ca10 Sb2 3.239457 1_555
Ca10 Sb2 3.239457 1_655
Ca11 Sb7 3.129349 1_455
Ca11 Sb7 3.129349 1_555
Ca11 Sb8 3.170549 1_555
Ca11 Sb3 3.239457 1_455
Ca11 Sb3 3.239457 1_555
Al0 Sb0 2.711708 1_555
Al0 Sb4 2.732497 1_555
Al0 Sb9 2.755461 1_445
Al0 Sb9 2.755461 1_545
Al0 Ca8 3.258018 1_455
Al0 Ca8 3.258018 1_555
Al1 Sb1 2.711708 1_555
Al1 Sb5 2.732497 1_555
Al1 Sb8 2.755461 1_665
Al1 Sb8 2.755461 1_565
Al1 Ca9 3.258018 1_555
Al1 Ca9 3.258018 1_655
Al2 Sb2 2.711708 1_555
Al2 Sb6 2.732497 1_555
Al2 Sb11 2.755461 1_555
Al2 Sb11 2.755461 1_455
Al2 Ca10 3.258018 1_455
Al2 Ca10 3.258018 1_555
Al3 Sb3 2.711708 1_555
Al3 Sb7 2.732497 1_555
Al3 Sb10 2.755461 1_655
Al3 Sb10 2.755461 1_555
Al3 Ca11 3.258018 1_555
Al3 Ca11 3.258018 1_655
