# generated using pymatgen
data_NdMn7O12
_symmetry_space_group_name_H-M   'P 1'
_cell_length_a   6.55180434
_cell_length_b   6.55180434
_cell_length_c   6.55180434
_cell_angle_alpha   109.47122063
_cell_angle_beta   109.47122063
_cell_angle_gamma   109.47122063
_symmetry_Int_Tables_number   1
_chemical_formula_structural   NdMn7O12
_chemical_formula_sum   'Nd1 Mn7 O12'
_cell_volume   216.50147904
_cell_formula_units_Z   1
loop_
 _symmetry_equiv_pos_site_id
 _symmetry_equiv_pos_as_xyz
  1  'x, y, z'
loop_
 _atom_site_type_symbol
 _atom_site_label
 _atom_site_symmetry_multiplicity
 _atom_site_fract_x
 _atom_site_fract_y
 _atom_site_fract_z
 _atom_site_occupancy
  Nd  Nd0  1  0.00000000  0.00000000  0.00000000  1
  Mn  Mn0  1  0.50000000  0.50000000  0.00000000  1
  Mn  Mn1  1  0.50000000  0.00000000  0.00000000  1
  Mn  Mn2  1  0.00000000  0.00000000  0.50000000  1
  Mn  Mn3  1  0.00000000  0.50000000  0.50000000  1
  Mn  Mn4  1  0.00000000  0.50000000  0.00000000  1
  Mn  Mn5  1  0.50000000  0.50000000  0.50000000  1
  Mn  Mn6  1  0.50000000  0.00000000  0.50000000  1
  O  O0  1  0.51914900  0.69435500  0.82479400  1
  O  O1  1  0.48085100  0.30564500  0.17520600  1
  O  O2  1  0.13043900  0.30564500  0.82479400  1
  O  O3  1  0.86956100  0.69435500  0.17520600  1
  O  O4  1  0.30564500  0.82479400  0.13043900  1
  O  O5  1  0.69435500  0.17520600  0.86956100  1
  O  O6  1  0.30564500  0.17520600  0.48085100  1
  O  O7  1  0.69435500  0.82479400  0.51914900  1
  O  O8  1  0.82479400  0.51914900  0.69435500  1
  O  O9  1  0.17520600  0.48085100  0.30564500  1
  O  O10  1  0.17520600  0.86956100  0.69435500  1
  O  O11  1  0.82479400  0.13043900  0.30564500  1
loop_
_geom_bond_atom_site_label_1
_geom_bond_atom_site_label_2
_geom_bond_distance
_geom_bond_site_symmetry_2
Nd0 O8 2.665288 1_444
Nd0 O0 2.665288 1_444
Nd0 O9 2.665288 1_555
Nd0 O6 2.665288 1_555
Nd0 O7 2.665288 1_444
Nd0 O1 2.665288 1_555
Nd0 O2 2.665288 1_554
Nd0 O11 2.665288 1_455
Nd0 O4 2.665288 1_545
Nd0 O3 2.665288 1_445
Nd0 O5 2.665288 1_454
Nd0 O10 2.665288 1_544
Mn0 O3 1.979628 1_555
Mn0 O2 1.979628 1_554
Mn0 O1 1.979628 1_555
Mn0 O0 1.979628 1_554
Mn1 O11 2.018558 1_555
Mn1 O1 2.018558 1_555
Mn1 O5 2.018558 1_554
Mn1 O10 2.018558 1_544
Mn1 O4 2.018558 1_545
Mn1 O0 2.018558 1_544
Mn2 O2 2.018558 1_555
Mn2 O6 2.018558 1_555
Mn2 O10 2.018558 1_545
Mn2 O3 2.018558 1_445
Mn2 O11 2.018558 1_455
Mn2 O7 2.018558 1_445
Mn3 O10 1.979628 1_555
Mn3 O11 1.979628 1_455
Mn3 O8 1.979628 1_455
Mn3 O9 1.979628 1_555
Mn4 O4 2.018558 1_555
Mn4 O9 2.018558 1_555
Mn4 O5 2.018558 1_454
Mn4 O3 2.018558 1_455
Mn4 O2 2.018558 1_554
Mn4 O8 2.018558 1_454
Mn5 O0 2.018558 1_555
Mn5 O7 2.018558 1_555
Mn5 O8 2.018558 1_555
Mn5 O9 2.018558 1_555
Mn5 O1 2.018558 1_555
Mn5 O6 2.018558 1_555
Mn6 O5 1.979628 1_555
Mn6 O6 1.979628 1_555
Mn6 O4 1.979628 1_545
Mn6 O7 1.979628 1_545
