# generated using pymatgen
data_Cs(Mg4Al3)4
_symmetry_space_group_name_H-M   'P 1'
_cell_length_a   9.27078636
_cell_length_b   9.27078636
_cell_length_c   9.27078636
_cell_angle_alpha   109.47122063
_cell_angle_beta   109.47122063
_cell_angle_gamma   109.47122063
_symmetry_Int_Tables_number   1
_chemical_formula_structural   Cs(Mg4Al3)4
_chemical_formula_sum   'Cs1 Mg16 Al12'
_cell_volume   613.37748220
_cell_formula_units_Z   1
loop_
 _symmetry_equiv_pos_site_id
 _symmetry_equiv_pos_as_xyz
  1  'x, y, z'
loop_
 _atom_site_type_symbol
 _atom_site_label
 _atom_site_symmetry_multiplicity
 _atom_site_fract_x
 _atom_site_fract_y
 _atom_site_fract_z
 _atom_site_occupancy
  Cs  Cs0  1  0.00000000  0.00000000  0.00000000  1
  Mg  Mg0  1  0.40034100  0.40034100  0.71826700  1
  Mg  Mg1  1  0.68207500  0.28173300  0.68207500  1
  Mg  Mg2  1  0.28173300  0.68207500  0.68207500  1
  Mg  Mg3  1  0.63622900  0.63622900  0.63622900  1
  Mg  Mg4  1  0.31792500  0.00000000  0.59965900  1
  Mg  Mg5  1  0.00000000  0.31792500  0.59965900  1
  Mg  Mg6  1  0.71826700  0.40034100  0.40034100  1
  Mg  Mg7  1  0.40034100  0.71826700  0.40034100  1
  Mg  Mg8  1  0.00000000  0.00000000  0.36377100  1
  Mg  Mg9  1  0.00000000  0.59965900  0.31792500  1
  Mg  Mg10  1  0.59965900  0.00000000  0.31792500  1
  Mg  Mg11  1  0.68207500  0.68207500  0.28173300  1
  Mg  Mg12  1  0.59965900  0.31792500  0.00000000  1
  Mg  Mg13  1  0.36377100  0.00000000  0.00000000  1
  Mg  Mg14  1  0.00000000  0.36377100  0.00000000  1
  Mg  Mg15  1  0.31792500  0.59965900  0.00000000  1
  Al  Al0  1  0.18986700  0.18986700  0.81225000  1
  Al  Al1  1  0.62238300  0.00000000  0.81013300  1
  Al  Al2  1  0.00000000  0.62238300  0.81013300  1
  Al  Al3  1  0.81013300  0.00000000  0.62238300  1
  Al  Al4  1  0.00000000  0.81013300  0.62238300  1
  Al  Al5  1  0.37761700  0.18775000  0.37761700  1
  Al  Al6  1  0.18775000  0.37761700  0.37761700  1
  Al  Al7  1  0.81225000  0.18986700  0.18986700  1
  Al  Al8  1  0.18986700  0.81225000  0.18986700  1
  Al  Al9  1  0.37761700  0.37761700  0.18775000  1
  Al  Al10  1  0.81013300  0.62238300  0.00000000  1
  Al  Al11  1  0.62238300  0.81013300  0.00000000  1
loop_
_geom_bond_atom_site_label_1
_geom_bond_atom_site_label_2
_geom_bond_distance
_geom_bond_site_symmetry_2
Cs0 Mg8 3.372443 1_555
Cs0 Mg14 3.372443 1_555
Cs0 Mg13 3.372443 1_555
Cs0 Mg3 3.372443 1_444
Mg0 Mg3 3.028632 1_555
Mg0 Mg15 3.142347 1_556
Mg0 Mg12 3.142347 1_556
Mg0 Mg4 3.224372 1_555
Mg0 Mg5 3.224372 1_555
Mg0 Mg1 3.224381 1_555
Mg0 Mg2 3.224381 1_555
Mg1 Mg14 3.028622 1_656
Mg1 Mg10 3.142350 1_555
Mg1 Mg4 3.142350 1_555
Mg1 Mg12 3.224372 1_556
Mg1 Mg5 3.224372 1_655
Mg1 Mg6 3.224381 1_555
Mg2 Mg9 3.142350 1_555
Mg2 Mg5 3.142350 1_555
Mg2 Mg4 3.224372 1_565
Mg2 Mg7 3.224381 1_555
Mg3 Mg6 3.028632 1_555
Mg3 Mg7 3.028632 1_555
Mg4 Mg8 3.028625 1_555
Mg4 Mg7 3.142347 1_545
Mg4 Mg9 3.224373 1_545
Mg5 Mg8 3.028625 1_555
Mg5 Mg6 3.142347 1_455
Mg6 Mg9 3.142347 1_655
Mg7 Mg9 3.224372 1_555
Mg10 Mg13 3.028625 1_555
Mg10 Mg7 3.142347 1_545
Mg10 Mg6 3.224372 1_555
Mg10 Mg11 3.224372 1_545
Mg10 Mg15 3.224373 1_545
Mg10 Mg5 3.224373 1_655
Mg11 Mg8 3.028622 1_665
Mg11 Mg15 3.142350 1_555
Mg11 Mg12 3.142350 1_555
Mg11 Mg9 3.224372 1_655
Mg11 Mg6 3.224381 1_555
Mg11 Mg7 3.224381 1_555
Mg12 Mg13 3.028625 1_555
Mg12 Mg6 3.224372 1_555
Mg12 Mg4 3.224373 1_554
Mg12 Mg9 3.224373 1_655
Mg13 Mg2 3.028622 1_544
Mg14 Mg9 3.028625 1_555
Mg14 Mg15 3.028625 1_555
Mg15 Mg7 3.224372 1_555
Mg15 Mg2 3.224372 1_554
Mg15 Mg5 3.224373 1_554
Al0 Al9 2.842372 1_556
Al0 Mg0 2.846496 1_555
Al0 Al3 2.874421 1_455
Al0 Al4 2.874421 1_545
Al0 Mg4 3.005402 1_555
Al0 Mg5 3.005402 1_555
Al0 Mg15 3.174791 1_556
Al0 Mg12 3.174791 1_556
Al0 Mg14 3.284955 1_556
Al0 Mg13 3.284955 1_556
Al0 Cs0 3.353489 1_556
Al1 Al3 2.842372 1_555
Al1 Mg4 2.846504 1_555
Al1 Al7 2.874421 1_556
Al1 Al11 2.874421 1_546
Al1 Mg12 3.005402 1_556
Al1 Mg2 3.005407 1_545
Al1 Mg1 3.174783 1_555
Al1 Mg7 3.174789 1_545
Al1 Mg14 3.284955 1_656
Al1 Mg3 3.284955 1_545
Al1 Cs0 3.353489 1_656
Al2 Al4 2.842372 1_555
Al2 Mg5 2.846504 1_555
Al2 Al8 2.874421 1_556
Al2 Mg15 3.005402 1_556
Al2 Mg1 3.005407 1_455
Al2 Mg2 3.174783 1_555
Al2 Mg6 3.174789 1_455
Al2 Mg13 3.284955 1_566
Al2 Mg3 3.284955 1_455
Al2 Cs0 3.353489 1_566
Al3 Mg10 2.846504 1_555
Al3 Al4 2.874421 1_645
Al3 Mg5 3.005402 1_655
Al3 Mg11 3.005407 1_545
Al3 Mg1 3.174783 1_555
Al3 Mg7 3.174789 1_545
Al3 Mg14 3.284955 1_656
Al3 Mg3 3.284955 1_545
Al3 Cs0 3.353489 1_656
Al4 Mg9 2.846504 1_555
Al4 Mg4 3.005402 1_565
Al4 Mg11 3.005407 1_455
Al4 Mg2 3.174783 1_555
Al4 Mg6 3.174789 1_455
Al4 Mg13 3.284955 1_566
Al4 Mg3 3.284955 1_455
Al4 Cs0 3.353489 1_566
Al5 Al8 2.842372 1_545
Al5 Mg1 2.846507 1_555
Al5 Al9 2.874421 1_555
Al5 Al6 2.874421 1_555
Al5 Mg6 3.005409 1_555
Al5 Mg0 3.005409 1_555
Al5 Mg10 3.174791 1_555
Al5 Mg4 3.174791 1_555
Al5 Mg13 3.284955 1_555
Al5 Mg8 3.284955 1_555
Al5 Cs0 3.353489 1_555
Al6 Al7 2.842372 1_455
Al6 Mg2 2.846507 1_555
Al6 Al9 2.874421 1_555
Al6 Mg7 3.005409 1_555
Al6 Mg0 3.005409 1_555
Al6 Mg5 3.174791 1_555
Al6 Mg9 3.174791 1_555
Al6 Mg14 3.284955 1_555
Al6 Mg8 3.284955 1_555
Al6 Cs0 3.353489 1_555
Al7 Mg6 2.846496 1_555
Al7 Mg12 3.005402 1_555
Al7 Mg10 3.005402 1_555
Al7 Mg5 3.174791 1_655
Al7 Mg9 3.174791 1_655
Al7 Mg14 3.284955 1_655
Al7 Mg8 3.284955 1_655
Al7 Cs0 3.353489 1_655
Al8 Mg7 2.846496 1_555
Al8 Mg9 3.005402 1_555
Al8 Mg15 3.005402 1_555
Al8 Mg4 3.174791 1_565
Al8 Mg10 3.174791 1_565
Al8 Mg8 3.284955 1_565
Al8 Mg13 3.284955 1_565
Al8 Cs0 3.353489 1_565
Al9 Mg11 2.846507 1_555
Al9 Mg6 3.005409 1_555
Al9 Mg7 3.005409 1_555
Al9 Mg15 3.174791 1_555
Al9 Mg12 3.174791 1_555
Al9 Mg13 3.284955 1_555
Al9 Mg14 3.284955 1_555
Al9 Cs0 3.353489 1_555
Al10 Al11 2.842372 1_555
Al10 Mg12 2.846504 1_555
Al10 Al8 2.874421 1_655
Al10 Al2 2.874421 1_654
Al10 Mg9 3.005402 1_655
Al10 Mg1 3.005407 1_554
Al10 Mg11 3.174783 1_555
Al10 Mg0 3.174789 1_554
Al10 Mg8 3.284955 1_665
Al10 Mg3 3.284955 1_554
Al10 Cs0 3.353489 1_665
Al11 Mg15 2.846504 1_555
Al11 Al7 2.874421 1_565
Al11 Mg10 3.005402 1_565
Al11 Mg2 3.005407 1_554
Al11 Mg11 3.174783 1_555
Al11 Mg0 3.174789 1_554
Al11 Mg8 3.284955 1_665
Al11 Mg3 3.284955 1_554
Al11 Cs0 3.353489 1_665
