# generated using pymatgen
data_Yb2Ge6Pd
_symmetry_space_group_name_H-M   'P 1'
_cell_length_a   5.68523907
_cell_length_b   5.68523907
_cell_length_c   21.37728067
_cell_angle_alpha   90.00000000
_cell_angle_beta   90.00000000
_cell_angle_gamma   90.62138533
_symmetry_Int_Tables_number   1
_chemical_formula_structural   Yb2Ge6Pd
_chemical_formula_sum   'Yb8 Ge24 Pd4'
_cell_volume   690.91462003
_cell_formula_units_Z   4
loop_
 _symmetry_equiv_pos_site_id
 _symmetry_equiv_pos_as_xyz
  1  'x, y, z'
loop_
 _atom_site_type_symbol
 _atom_site_label
 _atom_site_symmetry_multiplicity
 _atom_site_fract_x
 _atom_site_fract_y
 _atom_site_fract_z
 _atom_site_occupancy
  Yb  Yb0  1  0.62721175  0.12385979  0.08070839  1
  Yb  Yb1  1  0.87278825  0.37614021  0.58070839  1
  Yb  Yb2  1  0.62385979  0.12721175  0.41929161  1
  Yb  Yb3  1  0.87614021  0.37278825  0.91929161  1
  Yb  Yb4  1  0.37278825  0.87614021  0.91929161  1
  Yb  Yb5  1  0.12721175  0.62385979  0.41929161  1
  Yb  Yb6  1  0.37614021  0.87278825  0.58070839  1
  Yb  Yb7  1  0.12385979  0.62721175  0.08070839  1
  Ge  Ge0  1  0.59481338  0.59481338  0.80681177  1
  Ge  Ge1  1  0.90518662  0.90518662  0.30681177  1
  Ge  Ge2  1  0.09481338  0.09481338  0.69318823  1
  Ge  Ge3  1  0.40518662  0.40518662  0.19318823  1
  Ge  Ge4  1  0.65340927  0.65340927  0.69167701  1
  Ge  Ge5  1  0.84659073  0.84659073  0.19167701  1
  Ge  Ge6  1  0.15340927  0.15340927  0.80832299  1
  Ge  Ge7  1  0.34659073  0.34659073  0.30832299  1
  Ge  Ge8  1  0.86613332  0.86613332  0.97248300  1
  Ge  Ge9  1  0.63386668  0.63386668  0.47248300  1
  Ge  Ge10  1  0.36613332  0.36613332  0.52751700  1
  Ge  Ge11  1  0.13386668  0.13386668  0.02751700  1
  Ge  Ge12  1  0.84805815  0.40380309  0.19255320  1
  Ge  Ge13  1  0.65194185  0.09619691  0.69255320  1
  Ge  Ge14  1  0.90380309  0.34805815  0.30744680  1
  Ge  Ge15  1  0.59619691  0.15194185  0.80744680  1
  Ge  Ge16  1  0.15194185  0.59619691  0.80744680  1
  Ge  Ge17  1  0.34805815  0.90380309  0.30744680  1
  Ge  Ge18  1  0.09619691  0.65194185  0.69255320  1
  Ge  Ge19  1  0.40380309  0.84805815  0.19255320  1
  Ge  Ge20  1  0.11691497  0.11691497  0.45592147  1
  Ge  Ge21  1  0.38308503  0.38308503  0.95592147  1
  Ge  Ge22  1  0.61691497  0.61691497  0.04407853  1
  Ge  Ge23  1  0.88308503  0.88308503  0.54407853  1
  Pd  Pd0  1  0.87249216  0.87249216  0.85882116  1
  Pd  Pd1  1  0.62750784  0.62750784  0.35882116  1
  Pd  Pd2  1  0.37249216  0.37249216  0.64117884  1
  Pd  Pd3  1  0.12750784  0.12750784  0.14117884  1
loop_
_geom_bond_atom_site_label_1
_geom_bond_atom_site_label_2
_geom_bond_distance
_geom_bond_site_symmetry_2
Ge0 Pd0 2.483241 1_555
Ge0 Ge4 2.505471 1_555
Ge0 Ge15 2.517965 1_555
Ge0 Ge16 2.517965 1_555
Ge0 Yb3 3.158623 1_555
Ge0 Yb4 3.158623 1_555
Ge1 Pd1 2.483241 1_555
Ge1 Ge5 2.505471 1_555
Ge1 Ge14 2.517965 1_565
Ge1 Ge17 2.517965 1_655
Ge1 Yb2 3.158623 1_565
Ge1 Yb5 3.158623 1_655
Ge2 Pd2 2.483241 1_555
Ge2 Ge6 2.505471 1_555
Ge2 Yb6 3.158623 1_545
Ge2 Yb1 3.158623 1_455
Ge3 Pd3 2.483241 1_555
Ge3 Ge7 2.505471 1_555
Ge3 Yb0 3.158623 1_555
Ge3 Yb7 3.158623 1_555
Ge4 Pd2 2.492260 1_555
Ge4 Yb1 3.116155 1_555
Ge4 Yb6 3.116155 1_555
Ge5 Pd3 2.492260 1_665
Ge5 Yb7 3.116155 1_655
Ge5 Yb0 3.116155 1_565
Ge6 Pd0 2.492260 1_445
Ge6 Yb4 3.116155 1_545
Ge6 Yb3 3.116155 1_455
Ge7 Pd1 2.492260 1_555
Ge7 Yb5 3.116155 1_555
Ge7 Yb2 3.116155 1_555
Ge8 Pd0 2.430313 1_555
Ge8 Yb4 3.027620 1_555
Ge8 Yb3 3.027620 1_555
Ge8 Yb0 3.063938 1_566
Ge8 Yb7 3.063938 1_656
Ge8 Yb3 3.096719 1_565
Ge8 Yb4 3.096719 1_655
Ge9 Pd1 2.430313 1_555
Ge9 Yb2 3.027620 1_565
Ge9 Yb5 3.027620 1_655
Ge9 Yb1 3.063938 1_555
Ge9 Yb6 3.063938 1_555
Ge9 Yb2 3.096719 1_555
Ge9 Yb5 3.096719 1_555
Ge10 Pd2 2.430313 1_555
Ge10 Ge9 2.442866 1_555
Ge10 Ge20 2.512759 1_555
Ge10 Yb1 3.027620 1_455
Ge10 Yb6 3.027620 1_545
Ge10 Yb5 3.063938 1_555
Ge10 Yb2 3.063938 1_555
Ge10 Yb6 3.096719 1_555
Ge10 Yb1 3.096719 1_555
Ge11 Pd3 2.430313 1_555
Ge11 Ge8 2.442866 1_444
Ge11 Ge21 2.512759 1_554
Ge11 Yb0 3.027620 1_555
Ge11 Yb7 3.027620 1_555
Ge11 Yb3 3.063938 1_454
Ge11 Yb4 3.063938 1_544
Ge11 Yb7 3.096719 1_545
Ge11 Yb0 3.096719 1_455
Ge12 Ge14 2.497108 1_555
Ge12 Pd3 2.500357 1_655
Ge12 Ge5 2.517528 1_555
Ge12 Ge3 2.517965 1_555
Ge12 Yb7 3.121737 1_655
Ge12 Yb0 3.127730 1_555
Ge13 Ge15 2.497108 1_555
Ge13 Pd2 2.500357 1_555
Ge13 Ge4 2.517528 1_545
Ge13 Ge2 2.517965 1_655
Ge13 Yb6 3.121737 1_545
Ge13 Yb1 3.127730 1_555
Ge14 Pd1 2.500357 1_555
Ge14 Ge7 2.517528 1_655
Ge14 Yb5 3.121737 1_655
Ge14 Yb2 3.127730 1_555
Ge15 Pd0 2.500357 1_545
Ge15 Ge6 2.517528 1_555
Ge15 Yb4 3.121737 1_545
Ge15 Yb3 3.127730 1_555
Ge16 Ge18 2.497108 1_555
Ge16 Pd0 2.500357 1_455
Ge16 Ge6 2.517528 1_555
Ge16 Yb3 3.121737 1_455
Ge16 Yb4 3.127730 1_555
Ge17 Ge19 2.497108 1_555
Ge17 Pd1 2.500357 1_555
Ge17 Ge7 2.517528 1_565
Ge17 Yb2 3.121737 1_565
Ge17 Yb5 3.127730 1_555
Ge18 Pd2 2.500357 1_555
Ge18 Ge4 2.517528 1_455
Ge18 Ge2 2.517965 1_565
Ge18 Yb1 3.121737 1_455
Ge18 Yb6 3.127730 1_555
Ge19 Pd3 2.500357 1_565
Ge19 Ge5 2.517528 1_555
Ge19 Ge3 2.517965 1_555
Ge19 Yb0 3.121737 1_565
Ge19 Yb7 3.127730 1_555
Ge20 Ge23 2.654755 1_445
Ge20 Yb5 2.911653 1_545
Ge20 Yb2 2.911653 1_455
Ge20 Yb5 2.986544 1_555
Ge20 Yb2 2.986544 1_555
Ge20 Yb1 3.355408 1_455
Ge20 Yb6 3.355408 1_545
Ge21 Ge22 2.654755 1_556
Ge21 Yb3 2.911653 1_555
Ge21 Yb4 2.911653 1_555
Ge21 Yb3 2.986544 1_455
Ge21 Yb4 2.986544 1_545
Ge21 Yb7 3.355408 1_556
Ge21 Yb0 3.355408 1_556
Ge22 Ge8 2.512759 1_554
Ge22 Yb0 2.911653 1_555
Ge22 Yb7 2.911653 1_555
Ge22 Yb0 2.986544 1_565
Ge22 Yb7 2.986544 1_655
Ge22 Yb3 3.355408 1_554
Ge22 Yb4 3.355408 1_554
Ge23 Ge9 2.512759 1_555
Ge23 Yb6 2.911653 1_655
Ge23 Yb1 2.911653 1_565
Ge23 Yb1 2.986544 1_555
Ge23 Yb6 2.986544 1_555
Ge23 Yb2 3.355408 1_565
Ge23 Yb5 3.355408 1_655
Pd0 Yb4 3.121487 1_555
Pd0 Yb3 3.121487 1_555
Pd0 Yb4 3.124143 1_655
Pd0 Yb3 3.124143 1_565
Pd1 Yb5 3.121487 1_655
Pd1 Yb2 3.121487 1_565
Pd1 Yb5 3.124143 1_555
Pd1 Yb2 3.124143 1_555
Pd2 Yb6 3.121487 1_545
Pd2 Yb1 3.121487 1_455
Pd2 Yb1 3.124143 1_555
Pd2 Yb6 3.124143 1_555
Pd3 Yb0 3.121487 1_555
Pd3 Yb7 3.121487 1_555
Pd3 Yb0 3.124143 1_455
Pd3 Yb7 3.124143 1_545
