# generated using pymatgen
data_CsErCdTe3
_symmetry_space_group_name_H-M   'P 1'
_cell_length_a   8.85692682
_cell_length_b   8.85692682
_cell_length_c   11.80220115
_cell_angle_alpha   90.00000000
_cell_angle_beta   90.00000000
_cell_angle_gamma   150.51948044
_symmetry_Int_Tables_number   1
_chemical_formula_structural   CsErCdTe3
_chemical_formula_sum   'Cs2 Er2 Cd2 Te6'
_cell_volume   455.62427848
_cell_formula_units_Z   2
loop_
 _symmetry_equiv_pos_site_id
 _symmetry_equiv_pos_as_xyz
  1  'x, y, z'
loop_
 _atom_site_type_symbol
 _atom_site_label
 _atom_site_symmetry_multiplicity
 _atom_site_fract_x
 _atom_site_fract_y
 _atom_site_fract_z
 _atom_site_occupancy
  Cs  Cs0  1  0.75035469  0.24964531  0.75000000  1
  Cs  Cs1  1  0.24964531  0.75035469  0.25000000  1
  Er  Er0  1  -0.00000000  0.00000000  0.50000000  1
  Er  Er1  1  -0.00000000  0.00000000  -0.00000000  1
  Cd  Cd0  1  0.53855745  0.46144255  0.25000000  1
  Cd  Cd1  1  0.46144255  0.53855745  0.75000000  1
  Te  Te0  1  0.37989147  0.62010853  0.54525095  1
  Te  Te1  1  0.62010853  0.37989147  0.45474905  1
  Te  Te2  1  0.62010853  0.37989147  0.04525095  1
  Te  Te3  1  0.37989147  0.62010853  0.95474905  1
  Te  Te4  1  0.93578040  0.06421960  0.25000000  1
  Te  Te5  1  0.06421960  0.93578040  0.75000000  1
loop_
_geom_bond_atom_site_label_1
_geom_bond_atom_site_label_2
_geom_bond_distance
_geom_bond_site_symmetry_2
Cs0 Te5 3.904607 1_545
Cs0 Te5 3.904607 1_655
Cs0 Te3 3.980220 1_545
Cs0 Te0 3.980220 1_545
Cs0 Te0 3.980220 1_655
Cs0 Te3 3.980220 1_655
Cs0 Te1 4.137742 1_555
Cs0 Te2 4.137742 1_556
Cs1 Te4 3.904607 1_455
Cs1 Te4 3.904607 1_565
Cs1 Te1 3.980220 1_565
Cs1 Te2 3.980220 1_565
Cs1 Te1 3.980220 1_455
Cs1 Te2 3.980220 1_455
Cs1 Te3 4.137742 1_554
Cs1 Te0 4.137742 1_555
Er0 Te1 3.097937 1_555
Er0 Te0 3.097937 1_445
Er0 Te0 3.097937 1_555
Er0 Te1 3.097937 1_445
Er0 Te4 3.148976 1_455
Er0 Te5 3.148976 1_545
Er1 Te2 3.097937 1_445
Er1 Te3 3.097937 1_554
Er1 Te2 3.097937 1_555
Er1 Te3 3.097937 1_444
Er1 Te5 3.148976 1_544
Er1 Te4 3.148976 1_455
Cd0 Te2 2.791262 1_555
Cd0 Te1 2.791262 1_555
Cd0 Te4 2.859781 1_565
Cd0 Te4 2.859781 1_455
Cd1 Te3 2.791262 1_555
Cd1 Te0 2.791262 1_555
Cd1 Te5 2.859781 1_545
Cd1 Te5 2.859781 1_655
