# generated using pymatgen
data_HfNF5
_symmetry_space_group_name_H-M   'P 1'
_cell_length_a   8.49253930
_cell_length_b   8.49253930
_cell_length_c   8.34483500
_cell_angle_alpha   90.00000000
_cell_angle_beta   90.00000000
_cell_angle_gamma   121.30088463
_symmetry_Int_Tables_number   1
_chemical_formula_structural   HfNF5
_chemical_formula_sum   'Hf4 N4 F20'
_cell_volume   514.25668917
_cell_formula_units_Z   4
loop_
 _symmetry_equiv_pos_site_id
 _symmetry_equiv_pos_as_xyz
  1  'x, y, z'
loop_
 _atom_site_type_symbol
 _atom_site_label
 _atom_site_symmetry_multiplicity
 _atom_site_fract_x
 _atom_site_fract_y
 _atom_site_fract_z
 _atom_site_occupancy
  Hf  Hf0  1  0.75563500  0.75563500  0.24676200  1
  Hf  Hf1  1  0.74436500  0.74436500  0.74676200  1
  Hf  Hf2  1  0.24436500  0.24436500  0.75323800  1
  Hf  Hf3  1  0.25563500  0.25563500  0.25323800  1
  N  N0  1  0.27247200  0.72752800  0.50000000  1
  N  N1  1  0.22752800  0.77247200  0.00000000  1
  N  N2  1  0.72752800  0.27247200  0.50000000  1
  N  N3  1  0.77247200  0.22752800  0.00000000  1
  F  F0  1  0.50304400  0.50304400  0.24574700  1
  F  F1  1  0.99695600  0.99695600  0.74574700  1
  F  F2  1  0.49695600  0.49695600  0.75425300  1
  F  F3  1  0.00304400  0.00304400  0.25425300  1
  F  F4  1  0.74606500  0.74606500  0.00243000  1
  F  F5  1  0.75393500  0.75393500  0.50243000  1
  F  F6  1  0.25393500  0.25393500  0.99757000  1
  F  F7  1  0.24606500  0.24606500  0.49757000  1
  F  F8  1  0.87659000  0.61914100  0.27131500  1
  F  F9  1  0.62341000  0.88085900  0.77131500  1
  F  F10  1  0.12341000  0.38085900  0.72868500  1
  F  F11  1  0.37659000  0.11914100  0.22868500  1
  F  F12  1  0.61914100  0.87659000  0.27131500  1
  F  F13  1  0.88085900  0.62341000  0.77131500  1
  F  F14  1  0.38085900  0.12341000  0.72868500  1
  F  F15  1  0.11914100  0.37659000  0.22868500  1
  F  F16  1  0.36344700  0.63655300  0.50000000  1
  F  F17  1  0.13655300  0.86344700  0.00000000  1
  F  F18  1  0.63655300  0.36344700  0.50000000  1
  F  F19  1  0.86344700  0.13655300  0.00000000  1
loop_
_geom_bond_atom_site_label_1
_geom_bond_atom_site_label_2
_geom_bond_distance
_geom_bond_site_symmetry_2
F0 Hf3 2.060630 1_555
F0 Hf0 2.102839 1_555
F1 Hf2 2.060630 1_665
F1 Hf1 2.102839 1_555
F2 Hf1 2.060630 1_555
F2 Hf2 2.102839 1_555
F3 Hf0 2.060630 1_445
F3 Hf3 2.102839 1_555
F4 Hf0 2.040466 1_555
F4 Hf1 2.133554 1_554
F5 Hf1 2.040466 1_555
F5 Hf0 2.133554 1_555
F6 Hf2 2.040466 1_555
F6 Hf3 2.133554 1_556
F7 Hf3 2.040466 1_555
F7 Hf2 2.133554 1_555
F8 Hf0 1.917836 1_555
F9 Hf1 1.917836 1_555
F10 Hf2 1.917836 1_555
F11 Hf3 1.917836 1_555
F12 Hf0 1.917836 1_555
F13 Hf1 1.917836 1_555
F14 Hf2 1.917836 1_555
F15 Hf3 1.917836 1_555
F16 N0 1.346882 1_555
F17 N1 1.346882 1_555
F18 N2 1.346882 1_555
F19 N3 1.346882 1_555
