# generated using pymatgen
data_Sr2TbCu2IrO8
_symmetry_space_group_name_H-M   'P 1'
_cell_length_a   3.86602750
_cell_length_b   3.86602750
_cell_length_c   11.85174600
_cell_angle_alpha   90.00000000
_cell_angle_beta   90.00000000
_cell_angle_gamma   90.35689218
_symmetry_Int_Tables_number   1
_chemical_formula_structural   Sr2TbCu2IrO8
_chemical_formula_sum   'Sr2 Tb1 Cu2 Ir1 O8'
_cell_volume   177.13475743
_cell_formula_units_Z   1
loop_
 _symmetry_equiv_pos_site_id
 _symmetry_equiv_pos_as_xyz
  1  'x, y, z'
loop_
 _atom_site_type_symbol
 _atom_site_label
 _atom_site_symmetry_multiplicity
 _atom_site_fract_x
 _atom_site_fract_y
 _atom_site_fract_z
 _atom_site_occupancy
  Sr  Sr0  1  0.50221600  0.50221600  0.19402400  1
  Sr  Sr1  1  0.50221600  0.50221600  0.80597600  1
  Tb  Tb0  1  0.49914500  0.49914500  0.50000000  1
  Cu  Cu0  1  0.99908300  0.99908300  0.35920600  1
  Cu  Cu1  1  0.99908300  0.99908300  0.64079400  1
  Ir  Ir0  1  0.98126500  0.98126500  0.00000000  1
  O  O0  1  0.99326300  0.99326300  0.17105700  1
  O  O1  1  0.99326300  0.99326300  0.82894300  1
  O  O2  1  0.49889600  0.99895300  0.37672300  1
  O  O3  1  0.99895300  0.49889600  0.37672300  1
  O  O4  1  0.49889600  0.99895300  0.62327700  1
  O  O5  1  0.99895300  0.49889600  0.62327700  1
  O  O6  1  0.93476500  0.47700300  0.00000000  1
  O  O7  1  0.47700300  0.93476500  0.00000000  1
loop_
_geom_bond_atom_site_label_1
_geom_bond_atom_site_label_2
_geom_bond_distance
_geom_bond_site_symmetry_2
Cu0 O2 1.943415 1_655
Cu0 O3 1.943415 1_565
Cu0 O3 1.944846 1_555
Cu0 O2 1.944846 1_555
Cu0 O0 2.230120 1_555
Cu1 O5 1.943415 1_565
Cu1 O4 1.943415 1_655
Cu1 O5 1.944846 1_555
Cu1 O4 1.944846 1_555
Cu1 O1 2.230120 1_555
Ir0 O7 1.926064 1_655
Ir0 O6 1.926064 1_565
Ir0 O7 1.956647 1_555
Ir0 O6 1.956647 1_555
Ir0 O0 2.028378 1_555
Ir0 O1 2.028378 1_554
O0 Sr0 2.690176 1_555
O0 Sr0 2.756104 1_565
O0 Sr0 2.756104 1_655
O0 Sr0 2.787287 1_665
O1 Sr1 2.690176 1_555
O1 Sr1 2.756104 1_565
O1 Sr1 2.756104 1_655
O1 Sr1 2.787287 1_665
O2 Tb0 2.422469 1_555
O2 Tb0 2.423644 1_565
O2 Sr0 2.894294 1_555
O2 Sr0 2.910989 1_565
O3 Tb0 2.422469 1_555
O3 Tb0 2.423644 1_655
O3 Sr0 2.894294 1_555
O3 Sr0 2.910989 1_655
O4 Tb0 2.422469 1_555
O4 Tb0 2.423644 1_565
O4 Sr1 2.894294 1_555
O4 Sr1 2.910989 1_565
O5 Tb0 2.422469 1_555
O5 Tb0 2.423644 1_655
O5 Sr1 2.894294 1_555
O5 Sr1 2.910989 1_655
O6 Sr1 2.845303 1_554
O6 Sr0 2.845303 1_555
O6 Sr1 3.179201 1_654
O6 Sr0 3.179201 1_655
O7 Sr1 2.845303 1_554
O7 Sr0 2.845303 1_555
O7 Sr1 3.179201 1_564
O7 Sr0 3.179201 1_565
