# generated using pymatgen
data_Cu(ClO7)2
_symmetry_space_group_name_H-M   'P 1'
_cell_length_a   22.49498300
_cell_length_b   4.61952600
_cell_length_c   14.15502198
_cell_angle_alpha   89.27603117
_cell_angle_beta   90.00000000
_cell_angle_gamma   90.00000000
_symmetry_Int_Tables_number   1
_chemical_formula_structural   Cu(ClO7)2
_chemical_formula_sum   'Cu6 Cl12 O84'
_cell_volume   1470.81808925
_cell_formula_units_Z   6
loop_
 _symmetry_equiv_pos_site_id
 _symmetry_equiv_pos_as_xyz
  1  'x, y, z'
loop_
 _atom_site_type_symbol
 _atom_site_label
 _atom_site_symmetry_multiplicity
 _atom_site_fract_x
 _atom_site_fract_y
 _atom_site_fract_z
 _atom_site_occupancy
  Cu  Cu0  1  0.00000000  0.50000000  0.00000000  1
  Cu  Cu1  1  0.50000000  0.50000000  0.50000000  1
  Cu  Cu2  1  0.33307900  0.99667700  0.99968500  1
  Cu  Cu3  1  0.83307900  0.00332300  0.50031500  1
  Cu  Cu4  1  0.66692100  0.00332300  0.00031500  1
  Cu  Cu5  1  0.16692100  0.99667700  0.49968500  1
  Cl  Cl0  1  0.00295700  0.70288000  0.34151600  1
  Cl  Cl1  1  0.50295700  0.29712000  0.15848400  1
  Cl  Cl2  1  0.99704300  0.29712000  0.65848400  1
  Cl  Cl3  1  0.49704300  0.70288000  0.84151600  1
  Cl  Cl4  1  0.16514200  0.24398200  0.15839700  1
  Cl  Cl5  1  0.66514200  0.75601800  0.34160300  1
  Cl  Cl6  1  0.83485800  0.75601800  0.84160300  1
  Cl  Cl7  1  0.33485800  0.24398200  0.65839700  1
  Cl  Cl8  1  0.32972800  0.72439500  0.34245700  1
  Cl  Cl9  1  0.82972800  0.27560500  0.15754300  1
  Cl  Cl10  1  0.67027200  0.27560500  0.65754300  1
  Cl  Cl11  1  0.17027200  0.72439500  0.84245700  1
  O  O0  1  0.00744800  0.38835500  0.32946500  1
  O  O1  1  0.50744800  0.61164500  0.17053500  1
  O  O2  1  0.99255200  0.61164500  0.67053500  1
  O  O3  1  0.49255200  0.38835500  0.82946500  1
  O  O4  1  0.00970000  0.77925400  0.43963900  1
  O  O5  1  0.50970000  0.22074600  0.06036100  1
  O  O6  1  0.99030000  0.22074600  0.56036100  1
  O  O7  1  0.49030000  0.77925400  0.93963900  1
  O  O8  1  0.05309300  0.82146100  0.28523800  1
  O  O9  1  0.55309300  0.17853900  0.21476200  1
  O  O10  1  0.94690700  0.17853900  0.71476200  1
  O  O11  1  0.44690700  0.82146100  0.78523800  1
  O  O12  1  0.94681000  0.80428700  0.30401100  1
  O  O13  1  0.44681000  0.19571300  0.19598900  1
  O  O14  1  0.05319000  0.19571300  0.69598900  1
  O  O15  1  0.55319000  0.80428700  0.80401100  1
  O  O16  1  0.16600800  0.92810900  0.16055300  1
  O  O17  1  0.66600800  0.07189100  0.33944700  1
  O  O18  1  0.83399200  0.07189100  0.83944700  1
  O  O19  1  0.33399200  0.92810900  0.66055300  1
  O  O20  1  0.17033000  0.34229500  0.06027700  1
  O  O21  1  0.67033000  0.65770500  0.43972300  1
  O  O22  1  0.82967000  0.65770500  0.93972300  1
  O  O23  1  0.32967000  0.34229500  0.56027700  1
  O  O24  1  0.21415900  0.35171000  0.21491700  1
  O  O25  1  0.71415900  0.64829000  0.28508300  1
  O  O26  1  0.78584100  0.64829000  0.78508300  1
  O  O27  1  0.28584100  0.35171000  0.71491700  1
  O  O28  1  0.10829100  0.34278000  0.19794400  1
  O  O29  1  0.60829100  0.65722000  0.30205600  1
  O  O30  1  0.89170900  0.65722000  0.80205600  1
  O  O31  1  0.39170900  0.34278000  0.69794400  1
  O  O32  1  0.32621900  0.40657100  0.34766000  1
  O  O33  1  0.82621900  0.59342900  0.15234000  1
  O  O34  1  0.67378100  0.59342900  0.65234000  1
  O  O35  1  0.17378100  0.40657100  0.84766000  1
  O  O36  1  0.33440900  0.82689800  0.43998700  1
  O  O37  1  0.83440900  0.17310200  0.06001300  1
  O  O38  1  0.66559100  0.17310200  0.56001300  1
  O  O39  1  0.16559100  0.82689800  0.93998700  1
  O  O40  1  0.38145100  0.80852600  0.28808100  1
  O  O41  1  0.88145100  0.19147400  0.21191900  1
  O  O42  1  0.61854900  0.19147400  0.71191900  1
  O  O43  1  0.11854900  0.80852600  0.78808100  1
  O  O44  1  0.27506900  0.83476800  0.29989400  1
  O  O45  1  0.77506900  0.16523200  0.20010600  1
  O  O46  1  0.72493100  0.16523200  0.70010600  1
  O  O47  1  0.22493100  0.83476800  0.79989400  1
  O  O48  1  0.94977400  0.77889000  0.04639400  1
  O  O49  1  0.44977400  0.22111000  0.45360600  1
  O  O50  1  0.05022600  0.22111000  0.95360600  1
  O  O51  1  0.55022600  0.77889000  0.54639400  1
  O  O52  1  0.01239500  0.16576100  0.10472800  1
  O  O53  1  0.51239500  0.83423900  0.39527200  1
  O  O54  1  0.98760500  0.83423900  0.89527200  1
  O  O55  1  0.48760500  0.16576100  0.60472800  1
  O  O56  1  0.05019700  0.77842600  0.04870300  1
  O  O57  1  0.55019700  0.22157400  0.45129700  1
  O  O58  1  0.94980300  0.22157400  0.95129700  1
  O  O59  1  0.44980300  0.77842600  0.54870300  1
  O  O60  1  0.11824500  0.27910000  0.44882200  1
  O  O61  1  0.61824500  0.72090000  0.05117800  1
  O  O62  1  0.88175500  0.72090000  0.55117800  1
  O  O63  1  0.38175500  0.27910000  0.94882200  1
  O  O64  1  0.16215800  0.66078200  0.39549600  1
  O  O65  1  0.66215800  0.33921800  0.10450400  1
  O  O66  1  0.83784200  0.33921800  0.60450400  1
  O  O67  1  0.33784200  0.66078200  0.89549600  1
  O  O68  1  0.21902800  0.28164500  0.45923200  1
  O  O69  1  0.71902800  0.71835500  0.04076800  1
  O  O70  1  0.78097200  0.71835500  0.54076800  1
  O  O71  1  0.28097200  0.28164500  0.95923200  1
  O  O72  1  0.28339400  0.72297400  0.05154900  1
  O  O73  1  0.78339400  0.27702600  0.44845100  1
  O  O74  1  0.71660600  0.27702600  0.94845100  1
  O  O75  1  0.21660600  0.72297400  0.55154900  1
  O  O76  1  0.33195500  0.35136800  0.10167000  1
  O  O77  1  0.83195500  0.64863200  0.39833000  1
  O  O78  1  0.66804500  0.64863200  0.89833000  1
  O  O79  1  0.16804500  0.35136800  0.60167000  1
  O  O80  1  0.38646300  0.71922100  0.04178000  1
  O  O81  1  0.88646300  0.28077900  0.45822000  1
  O  O82  1  0.61353700  0.28077900  0.95822000  1
  O  O83  1  0.11353700  0.71922100  0.54178000  1
loop_
_geom_bond_atom_site_label_1
_geom_bond_atom_site_label_2
_geom_bond_distance
_geom_bond_site_symmetry_2
Cu0 O50 1.840920 1_554
Cu0 O48 1.840920 1_455
Cu0 O56 1.851221 1_555
Cu0 O58 1.851221 1_454
Cu0 O52 2.145112 1_555
Cu0 O54 2.145112 1_454
Cu1 O51 1.840920 1_555
Cu1 O49 1.840920 1_555
Cu1 O57 1.851221 1_555
Cu1 O59 1.851221 1_555
Cu1 O55 2.145112 1_555
Cu1 O53 2.145112 1_555
Cu2 O72 1.833936 1_556
Cu2 O63 1.842744 1_565
Cu2 O71 1.848166 1_565
Cu2 O80 1.849495 1_556
Cu2 O67 2.156858 1_555
Cu2 O76 2.197519 1_566
Cu3 O73 1.833936 1_555
Cu3 O62 1.842744 1_545
Cu3 O70 1.848166 1_545
Cu3 O81 1.849495 1_555
Cu3 O66 2.156858 1_555
Cu3 O77 2.197519 1_545
Cu4 O74 1.833936 1_554
Cu4 O61 1.842744 1_545
Cu4 O69 1.848166 1_545
Cu4 O82 1.849495 1_554
Cu4 O65 2.156858 1_555
Cu4 O78 2.197519 1_544
Cu5 O75 1.833936 1_555
Cu5 O60 1.842744 1_565
Cu5 O68 1.848166 1_565
Cu5 O83 1.849495 1_555
Cu5 O64 2.156858 1_555
Cu5 O79 2.197519 1_565
Cl0 O4 1.445338 1_555
Cl0 O12 1.445765 1_455
Cl0 O0 1.468554 1_555
Cl0 O8 1.481754 1_555
Cl1 O5 1.445338 1_555
Cl1 O13 1.445765 1_555
Cl1 O1 1.468554 1_555
Cl1 O9 1.481754 1_555
Cl2 O6 1.445338 1_555
Cl2 O14 1.445765 1_655
Cl2 O2 1.468554 1_555
Cl2 O10 1.481754 1_555
Cl3 O7 1.445338 1_555
Cl3 O15 1.445765 1_555
Cl3 O3 1.468554 1_555
Cl3 O11 1.481754 1_555
Cl4 O24 1.453820 1_555
Cl4 O16 1.459247 1_545
Cl4 O20 1.460465 1_555
Cl4 O28 1.470921 1_555
Cl5 O25 1.453820 1_555
Cl5 O17 1.459247 1_565
Cl5 O21 1.460465 1_555
Cl5 O29 1.470921 1_555
Cl6 O26 1.453820 1_555
Cl6 O18 1.459247 1_565
Cl6 O22 1.460465 1_555
Cl6 O30 1.470921 1_555
Cl7 O27 1.453820 1_555
Cl7 O19 1.459247 1_545
Cl7 O23 1.460465 1_555
Cl7 O31 1.470921 1_555
Cl8 O40 1.445567 1_555
Cl8 O44 1.458420 1_555
Cl8 O36 1.468916 1_555
Cl8 O32 1.471232 1_555
Cl9 O41 1.445567 1_555
Cl9 O45 1.458420 1_555
Cl9 O37 1.468916 1_555
Cl9 O33 1.471232 1_555
Cl10 O42 1.445567 1_555
Cl10 O46 1.458420 1_555
Cl10 O38 1.468916 1_555
Cl10 O34 1.471232 1_555
Cl11 O43 1.445567 1_555
Cl11 O47 1.458420 1_555
Cl11 O39 1.468916 1_555
Cl11 O35 1.471232 1_555
