# generated using pymatgen
data_LaB4(IrOs)2
_symmetry_space_group_name_H-M   'P 1'
_cell_length_a   4.01471400
_cell_length_b   7.68715300
_cell_length_c   7.68715300
_cell_angle_alpha   90.00000000
_cell_angle_beta   90.00000000
_cell_angle_gamma   90.00000000
_symmetry_Int_Tables_number   1
_chemical_formula_structural   LaB4(IrOs)2
_chemical_formula_sum   'La2 B8 Ir4 Os4'
_cell_volume   237.23876940
_cell_formula_units_Z   2
loop_
 _symmetry_equiv_pos_site_id
 _symmetry_equiv_pos_as_xyz
  1  'x, y, z'
loop_
 _atom_site_type_symbol
 _atom_site_label
 _atom_site_symmetry_multiplicity
 _atom_site_fract_x
 _atom_site_fract_y
 _atom_site_fract_z
 _atom_site_occupancy
  La  La0  1  0.25144600  0.25000000  0.25000000  1
  La  La1  1  0.75144600  0.75000000  0.75000000  1
  B  B0  1  0.35996100  0.91119900  0.03502600  1
  B  B1  1  0.35996100  0.58880100  0.46497400  1
  B  B2  1  0.85996100  0.53502600  0.08880100  1
  B  B3  1  0.85996100  0.96497400  0.41119900  1
  B  B4  1  0.64255500  0.08645300  0.97048000  1
  B  B5  1  0.64255500  0.41354700  0.52952000  1
  B  B6  1  0.14255500  0.47048000  0.91354700  1
  B  B7  1  0.14255500  0.02952000  0.58645300  1
  Ir  Ir0  1  0.14012400  0.40246000  0.64005800  1
  Ir  Ir1  1  0.14012400  0.09754000  0.85994200  1
  Ir  Ir2  1  0.64012400  0.14005800  0.59754000  1
  Ir  Ir3  1  0.64012400  0.35994200  0.90246000  1
  Os  Os0  1  0.85663800  0.60472000  0.35863300  1
  Os  Os1  1  0.85663800  0.89528000  0.14136700  1
  Os  Os2  1  0.35663800  0.85863300  0.39528000  1
  Os  Os3  1  0.35663800  0.64136700  0.10472000  1
loop_
_geom_bond_atom_site_label_1
_geom_bond_atom_site_label_2
_geom_bond_distance
_geom_bond_site_symmetry_2
La0 Os2 3.236762 1_545
La0 Os3 3.236762 1_555
La0 Os1 3.262680 1_445
La0 Os0 3.262680 1_455
La1 Os0 3.236762 1_555
La1 Os1 3.236762 1_556
La1 Os2 3.262680 1_555
La1 Os3 3.262680 1_556
B0 B4 1.829841 1_564
B0 Os3 2.142353 1_555
B0 Ir1 2.154589 1_564
B0 Os1 2.158545 1_555
B0 Os1 2.183217 1_455
B0 La1 2.967560 1_554
B0 La0 3.115069 1_565
B0 La1 3.507775 1_454
B1 B5 1.829841 1_555
B1 Os2 2.142353 1_555
B1 Ir0 2.154589 1_555
B1 Os0 2.158545 1_555
B1 Os0 2.183217 1_455
B1 La1 2.967560 1_555
B1 La0 3.115069 1_555
B1 La1 3.507775 1_455
B2 B6 1.829841 1_654
B2 Os0 2.142353 1_555
B2 Ir3 2.154589 1_554
B2 Os3 2.158545 1_655
B2 Os3 2.183217 1_555
B2 La0 2.967560 1_655
B2 La1 3.115069 1_554
B2 La0 3.507775 1_555
B3 B7 1.829841 1_665
B3 Os1 2.142353 1_555
B3 Ir2 2.154589 1_565
B3 Os2 2.158545 1_655
B3 Os2 2.183217 1_555
B3 La0 2.967560 1_665
B3 La1 3.115069 1_555
B3 La0 3.507775 1_565
B4 Os1 2.150349 1_546
B4 Ir3 2.166421 1_555
B4 Ir1 2.172484 1_655
B4 Ir1 2.190446 1_555
B4 La0 2.943305 1_556
B4 La1 3.122974 1_545
B4 La0 3.489017 1_656
B5 Os0 2.150349 1_555
B5 Ir2 2.166421 1_555
B5 Ir0 2.172484 1_655
B5 Ir0 2.190446 1_555
B5 La0 2.943305 1_555
B5 La1 3.122974 1_555
B5 La0 3.489017 1_655
B6 Os3 2.150349 1_556
B6 Ir0 2.166421 1_555
B6 Ir3 2.172484 1_555
B6 Ir3 2.190446 1_455
B6 La1 2.943305 1_455
B6 La0 3.122974 1_556
B6 La1 3.489017 1_555
B7 Os2 2.150349 1_545
B7 Ir1 2.166421 1_555
B7 Ir2 2.172484 1_555
B7 Ir2 2.190446 1_455
B7 La1 2.943305 1_445
B7 La0 3.122974 1_555
B7 La1 3.489017 1_545
Ir0 La1 3.207276 1_455
Ir0 La0 3.250216 1_555
Ir1 La1 3.207276 1_445
Ir1 La0 3.250216 1_556
Ir2 La0 3.207276 1_555
Ir2 La1 3.250216 1_545
Ir3 La0 3.207276 1_556
Ir3 La1 3.250216 1_555
