# generated using pymatgen
data_Zr2VNi3
_symmetry_space_group_name_H-M   'P 1'
_cell_length_a   4.93524362
_cell_length_b   4.93524362
_cell_length_c   4.93524365
_cell_angle_alpha   61.26899475
_cell_angle_beta   61.26899475
_cell_angle_gamma   61.26900505
_symmetry_Int_Tables_number   1
_chemical_formula_structural   Zr2VNi3
_chemical_formula_sum   'Zr2 V1 Ni3'
_cell_volume   87.42354343
_cell_formula_units_Z   1
loop_
 _symmetry_equiv_pos_site_id
 _symmetry_equiv_pos_as_xyz
  1  'x, y, z'
loop_
 _atom_site_type_symbol
 _atom_site_label
 _atom_site_symmetry_multiplicity
 _atom_site_fract_x
 _atom_site_fract_y
 _atom_site_fract_z
 _atom_site_occupancy
  Zr  Zr0  1  0.62979600  0.62979600  0.62979600  1
  Zr  Zr1  1  0.37020400  0.37020400  0.37020400  1
  V  V0  1  0.00000000  0.00000000  0.00000000  1
  Ni  Ni0  1  0.00000000  0.50000000  0.00000000  1
  Ni  Ni1  1  0.50000000  0.00000000  0.00000000  1
  Ni  Ni2  1  0.00000000  0.00000000  0.50000000  1
loop_
_geom_bond_atom_site_label_1
_geom_bond_atom_site_label_2
_geom_bond_distance
_geom_bond_site_symmetry_2
Zr0 Zr1 3.035067 1_556
Zr0 Zr1 3.035068 1_655
Zr0 Zr1 3.035068 1_565
Zr0 Zr1 3.107729 1_555
V0 Zr1 2.937198 1_554
V0 Zr0 2.937198 1_445
V0 Zr0 2.937198 1_544
V0 Zr1 2.937198 1_545
V0 Zr0 2.937198 1_454
V0 Zr1 2.937198 1_455
Ni0 V0 2.467622 1_565
Ni0 V0 2.467622 1_555
Ni0 Ni2 2.514801 1_564
Ni0 Ni2 2.514801 1_555
Ni0 Ni1 2.514801 1_555
Ni0 Ni1 2.514801 1_465
Ni0 Zr1 2.836444 1_555
Ni0 Zr0 2.836444 1_454
Ni0 Zr0 2.956132 1_554
Ni0 Zr1 2.956132 1_455
Ni0 Zr0 2.956132 1_455
Ni0 Zr1 2.956132 1_554
Ni1 V0 2.467622 1_555
Ni1 V0 2.467622 1_655
Ni1 Ni2 2.514801 1_555
Ni1 Ni2 2.514801 1_654
Ni1 Zr1 2.836444 1_555
Ni1 Zr0 2.836444 1_544
Ni1 Zr0 2.956132 1_554
Ni1 Zr1 2.956132 1_545
Ni1 Zr1 2.956132 1_554
Ni1 Zr0 2.956132 1_545
Ni2 V0 2.467622 1_556
Ni2 V0 2.467622 1_555
Ni2 Zr1 2.836444 1_555
Ni2 Zr0 2.836444 1_445
Ni2 Zr1 2.956133 1_545
Ni2 Zr0 2.956133 1_545
Ni2 Zr0 2.956133 1_455
Ni2 Zr1 2.956133 1_455
