# generated using pymatgen
data_Ho5(SiB4)2
_symmetry_space_group_name_H-M   'P 1'
_cell_length_a   7.19512636
_cell_length_b   7.19512636
_cell_length_c   8.03870609
_cell_angle_alpha   90.00000000
_cell_angle_beta   90.00000000
_cell_angle_gamma   90.00000000
_symmetry_Int_Tables_number   1
_chemical_formula_structural   Ho5(SiB4)2
_chemical_formula_sum   'Ho10 Si4 B16'
_cell_volume   416.16255491
_cell_formula_units_Z   2
loop_
 _symmetry_equiv_pos_site_id
 _symmetry_equiv_pos_as_xyz
  1  'x, y, z'
loop_
 _atom_site_type_symbol
 _atom_site_label
 _atom_site_symmetry_multiplicity
 _atom_site_fract_x
 _atom_site_fract_y
 _atom_site_fract_z
 _atom_site_occupancy
  Ho  Ho0  1  0.68078381  0.18078381  0.22362260  1
  Ho  Ho1  1  0.31921619  0.81921619  0.77637740  1
  Ho  Ho2  1  0.31921619  0.81921619  0.22362260  1
  Ho  Ho3  1  0.81921619  0.68078381  0.22362260  1
  Ho  Ho4  1  0.81921619  0.68078381  0.77637740  1
  Ho  Ho5  1  0.68078381  0.18078381  0.77637740  1
  Ho  Ho6  1  0.18078381  0.31921619  0.77637740  1
  Ho  Ho7  1  0.18078381  0.31921619  0.22362260  1
  Ho  Ho8  1  -0.00000000  0.00000000  0.50000000  1
  Ho  Ho9  1  0.50000000  0.50000000  0.50000000  1
  Si  Si0  1  0.11531163  0.61531163  0.50000000  1
  Si  Si1  1  0.88468837  0.38468837  0.50000000  1
  Si  Si2  1  0.38468837  0.11531163  0.50000000  1
  Si  Si3  1  0.61531163  0.88468837  0.50000000  1
  B  B0  1  0.17223685  0.03923032  0.00000000  1
  B  B1  1  0.82776315  0.96076968  0.00000000  1
  B  B2  1  0.96076968  0.17223685  0.00000000  1
  B  B3  1  0.32776315  0.53923032  0.00000000  1
  B  B4  1  0.03923032  0.82776315  0.00000000  1
  B  B5  1  0.67223685  0.46076968  0.00000000  1
  B  B6  1  0.53923032  0.67223685  0.00000000  1
  B  B7  1  0.46076968  0.32776315  0.00000000  1
  B  B8  1  0.09052201  0.59052201  0.00000000  1
  B  B9  1  0.90947799  0.40947799  0.00000000  1
  B  B10  1  0.40947799  0.09052201  0.00000000  1
  B  B11  1  0.59052201  0.90947799  0.00000000  1
  B  B12  1  -0.00000000  0.00000000  0.16292596  1
  B  B13  1  -0.00000000  0.00000000  0.83707404  1
  B  B14  1  0.50000000  0.50000000  0.83707404  1
  B  B15  1  0.50000000  0.50000000  0.16292596  1
loop_
_geom_bond_atom_site_label_1
_geom_bond_atom_site_label_2
_geom_bond_distance
_geom_bond_site_symmetry_2
Ho0 Si1 3.039885 1_555
Ho0 Si2 3.113958 1_555
Ho0 Si3 3.113958 1_545
Ho1 Si0 3.039885 1_555
Ho1 Si2 3.113958 1_565
Ho1 Si3 3.113958 1_555
Ho2 Si0 3.039885 1_555
Ho2 Si2 3.113958 1_565
Ho2 Si3 3.113958 1_555
Ho3 Si3 3.039885 1_555
Ho3 Si0 3.113958 1_655
Ho3 Si1 3.113958 1_555
Ho4 Si3 3.039885 1_555
Ho4 Si0 3.113958 1_655
Ho4 Si1 3.113958 1_555
Ho5 Si1 3.039885 1_555
Ho5 Si2 3.113958 1_555
Ho5 Si3 3.113958 1_545
Ho6 Si2 3.039885 1_555
Ho6 Si0 3.113958 1_555
Ho6 Si1 3.113958 1_455
Ho7 Si2 3.039885 1_555
Ho7 Si0 3.113958 1_555
Ho7 Si1 3.113958 1_455
Ho8 Si3 2.889557 1_445
Ho8 Si2 2.889557 1_555
Ho8 Si1 2.889557 1_455
Ho8 Si0 2.889557 1_545
Ho9 Si0 2.889557 1_555
Ho9 Si3 2.889557 1_555
Ho9 Si2 2.889557 1_555
Ho9 Si1 2.889557 1_555
Si0 Si1 2.346694 1_455
Si2 Si3 2.346694 1_545
B0 B10 1.746419 1_555
B0 B4 1.797473 1_545
B0 B2 1.797473 1_455
B0 B12 1.825049 1_555
B0 B13 1.825049 1_554
B0 Ho2 2.618370 1_545
B0 Ho1 2.618370 1_544
B0 Ho7 2.700671 1_555
B0 Ho6 2.700671 1_554
B1 B11 1.746419 1_555
B1 B4 1.797473 1_655
B1 B2 1.797473 1_565
B1 B12 1.825049 1_665
B1 B13 1.825049 1_664
B1 Ho0 2.618370 1_565
B1 Ho5 2.618370 1_564
B1 Ho3 2.700671 1_555
B1 Ho4 2.700671 1_554
B2 B9 1.746419 1_555
B2 Ho7 2.618370 1_655
B2 Ho6 2.618370 1_654
B2 Ho0 2.700671 1_555
B2 Ho5 2.700671 1_554
B3 B8 1.746419 1_555
B3 B6 1.797473 1_555
B3 B7 1.797473 1_555
B3 Ho6 2.618370 1_554
B3 Ho7 2.618370 1_555
B3 Ho2 2.700671 1_555
B3 Ho1 2.700671 1_554
B4 B8 1.746419 1_555
B4 Ho3 2.618370 1_455
B4 Ho4 2.618370 1_454
B4 Ho1 2.700671 1_554
B4 Ho2 2.700671 1_555
B5 B9 1.746419 1_555
B5 B6 1.797473 1_555
B5 B7 1.797473 1_555
B5 Ho3 2.618370 1_555
B5 Ho4 2.618370 1_554
B5 Ho0 2.700671 1_555
B5 Ho5 2.700671 1_554
B6 Ho2 2.618370 1_555
B6 Ho1 2.618370 1_554
B6 Ho3 2.700671 1_555
B6 Ho4 2.700671 1_554
B7 Ho0 2.618370 1_555
B7 Ho5 2.618370 1_554
B7 Ho7 2.700671 1_555
B7 Ho6 2.700671 1_554
B8 B9 1.842204 1_455
B8 Ho4 2.732012 1_454
B8 Ho3 2.732012 1_455
B8 Ho7 2.732012 1_555
B8 Ho6 2.732012 1_554
B8 Ho2 2.940532 1_555
B8 Ho1 2.940532 1_554
B9 Ho7 2.732012 1_655
B9 Ho6 2.732012 1_654
B9 Ho3 2.732012 1_555
B9 Ho4 2.732012 1_554
B9 Ho0 2.940532 1_555
B9 Ho5 2.940532 1_554
B10 B7 1.746419 1_555
B10 B11 1.842204 1_545
B10 Ho2 2.732012 1_545
B10 Ho1 2.732012 1_544
B10 Ho0 2.732012 1_555
B10 Ho5 2.732012 1_554
B10 Ho7 2.940532 1_555
B10 Ho6 2.940532 1_554
B11 B6 1.746419 1_555
B11 Ho0 2.732012 1_565
B11 Ho5 2.732012 1_564
B11 Ho2 2.732012 1_555
B11 Ho1 2.732012 1_554
B11 Ho3 2.940532 1_555
B11 Ho4 2.940532 1_554
B12 B4 1.825049 1_545
B12 B2 1.825049 1_455
B12 Ho0 2.684277 1_455
B12 Ho7 2.684277 1_555
B12 Ho2 2.684277 1_545
B12 Ho3 2.684277 1_445
B12 Ho8 2.709639 1_555
B13 B4 1.825049 1_546
B13 B2 1.825049 1_456
B13 Ho4 2.684277 1_445
B13 Ho1 2.684277 1_545
B13 Ho5 2.684277 1_455
B13 Ho6 2.684277 1_555
B13 Ho8 2.709639 1_555
B14 B7 1.825049 1_556
B14 B6 1.825049 1_556
B14 B3 1.825049 1_556
B14 B5 1.825049 1_556
B14 Ho1 2.684277 1_555
B14 Ho5 2.684277 1_555
B14 Ho4 2.684277 1_555
B14 Ho6 2.684277 1_555
B14 Ho9 2.709639 1_555
B15 B5 1.825049 1_555
B15 B3 1.825049 1_555
B15 B7 1.825049 1_555
B15 B6 1.825049 1_555
B15 Ho0 2.684277 1_555
B15 Ho2 2.684277 1_555
B15 Ho3 2.684277 1_555
B15 Ho7 2.684277 1_555
B15 Ho9 2.709639 1_555
