# generated using pymatgen
data_TbAlNi4
_symmetry_space_group_name_H-M   'P 1'
_cell_length_a   4.86255476
_cell_length_b   4.86255476
_cell_length_c   3.98259588
_cell_angle_alpha   90.00000000
_cell_angle_beta   90.00000000
_cell_angle_gamma   118.48453369
_symmetry_Int_Tables_number   1
_chemical_formula_structural   TbAlNi4
_chemical_formula_sum   'Tb1 Al1 Ni4'
_cell_volume   82.76703302
_cell_formula_units_Z   1
loop_
 _symmetry_equiv_pos_site_id
 _symmetry_equiv_pos_as_xyz
  1  'x, y, z'
loop_
 _atom_site_type_symbol
 _atom_site_label
 _atom_site_symmetry_multiplicity
 _atom_site_fract_x
 _atom_site_fract_y
 _atom_site_fract_z
 _atom_site_occupancy
  Tb  Tb0  1  0.50000000  0.50000000  -0.00000000  1
  Al  Al0  1  0.00000000  -0.00000000  0.50000000  1
  Ni  Ni0  1  0.16822841  0.83177159  0.00000000  1
  Ni  Ni1  1  0.83177159  0.16822841  0.00000000  1
  Ni  Ni2  1  0.00000000  0.50000000  0.50000000  1
  Ni  Ni3  1  0.50000000  -0.00000000  0.50000000  1
loop_
_geom_bond_atom_site_label_1
_geom_bond_atom_site_label_2
_geom_bond_distance
_geom_bond_site_symmetry_2
Al0 Ni3 2.431277 1_555
Al0 Ni3 2.431277 1_455
Al0 Ni2 2.431277 1_555
Al0 Ni2 2.431277 1_545
Al0 Ni1 2.437591 1_456
Al0 Ni0 2.437591 1_546
Al0 Ni1 2.437591 1_455
Al0 Ni0 2.437591 1_545
Al0 Tb0 3.185783 1_555
Al0 Tb0 3.185783 1_446
Al0 Tb0 3.185783 1_556
Al0 Tb0 3.185783 1_445
Ni0 Ni3 2.445048 1_564
Ni0 Ni2 2.445048 1_554
Ni0 Ni2 2.445048 1_555
Ni0 Ni3 2.445048 1_565
Ni0 Tb0 2.772665 1_555
Ni0 Tb0 2.856664 1_455
Ni0 Tb0 2.856664 1_565
Ni1 Ni2 2.445048 1_654
Ni1 Ni3 2.445048 1_555
Ni1 Ni2 2.445048 1_655
Ni1 Ni3 2.445048 1_554
Ni1 Tb0 2.772665 1_555
Ni1 Tb0 2.856664 1_545
Ni1 Tb0 2.856664 1_655
Ni2 Ni3 2.486755 1_455
Ni2 Ni3 2.486755 1_565
Ni2 Tb0 3.142670 1_555
Ni2 Tb0 3.142670 1_556
Ni2 Tb0 3.142670 1_455
Ni2 Tb0 3.142670 1_456
Ni3 Tb0 3.142670 1_555
Ni3 Tb0 3.142670 1_556
Ni3 Tb0 3.142670 1_545
Ni3 Tb0 3.142670 1_546
