# generated using pymatgen
data_BiBPbS4
_symmetry_space_group_name_H-M   'P 1'
_cell_length_a   6.13828788
_cell_length_b   6.32229900
_cell_length_c   9.40673388
_cell_angle_alpha   90.00000000
_cell_angle_beta   107.65816915
_cell_angle_gamma   90.00000000
_symmetry_Int_Tables_number   1
_chemical_formula_structural   BiBPbS4
_chemical_formula_sum   'Bi2 B2 Pb2 S8'
_cell_volume   347.85705118
_cell_formula_units_Z   2
loop_
 _symmetry_equiv_pos_site_id
 _symmetry_equiv_pos_as_xyz
  1  'x, y, z'
loop_
 _atom_site_type_symbol
 _atom_site_label
 _atom_site_symmetry_multiplicity
 _atom_site_fract_x
 _atom_site_fract_y
 _atom_site_fract_z
 _atom_site_occupancy
  Bi  Bi0  1  0.68486700  0.25038400  0.84997400  1
  Bi  Bi1  1  0.31513300  0.75038400  0.15002600  1
  B  B0  1  0.15911800  0.24979300  0.19611000  1
  B  B1  1  0.84088200  0.74979300  0.80389000  1
  Pb  Pb0  1  0.73352400  0.30960800  0.44434700  1
  Pb  Pb1  1  0.26647600  0.80960800  0.55565300  1
  S  S0  1  0.39397100  0.24318400  0.58250600  1
  S  S1  1  0.60602900  0.74318400  0.41749400  1
  S  S2  1  0.01175200  0.49253700  0.21067600  1
  S  S3  1  0.98824800  0.99253700  0.78932400  1
  S  S4  1  0.98569600  0.50677900  0.78574500  1
  S  S5  1  0.01430400  0.00677900  0.21425500  1
  S  S6  1  0.42981700  0.24851600  0.15343600  1
  S  S7  1  0.57018300  0.74851600  0.84656400  1
loop_
_geom_bond_atom_site_label_1
_geom_bond_atom_site_label_2
_geom_bond_distance
_geom_bond_site_symmetry_2
Bi0 S0 2.606756 1_555
Bi0 S4 2.660712 1_555
Bi0 S3 2.663736 1_545
Bi1 S1 2.606756 1_555
Bi1 S5 2.660712 1_565
Bi1 S2 2.663736 1_555
B0 S2 1.807630 1_555
B0 S5 1.808836 1_555
B0 S6 1.823973 1_555
B1 S3 1.807630 1_555
B1 S4 1.808836 1_555
B1 S7 1.823973 1_555
Pb0 S0 2.802308 1_555
Pb0 S6 2.831635 1_555
Pb0 S1 2.840863 1_555
Pb1 S1 2.802308 1_555
Pb1 S7 2.831635 1_555
Pb1 S0 2.840863 1_565
