# generated using pymatgen
data_Li9Mn2Co5O16
_symmetry_space_group_name_H-M   'P 1'
_cell_length_a   5.18509599
_cell_length_b   10.26424149
_cell_length_c   5.90643126
_cell_angle_alpha   104.02375580
_cell_angle_beta   70.64591095
_cell_angle_gamma   84.58149276
_symmetry_Int_Tables_number   1
_chemical_formula_structural   Li9Mn2Co5O16
_chemical_formula_sum   'Li9 Mn2 Co5 O16'
_cell_volume   282.45155267
_cell_formula_units_Z   1
loop_
 _symmetry_equiv_pos_site_id
 _symmetry_equiv_pos_as_xyz
  1  'x, y, z'
loop_
 _atom_site_type_symbol
 _atom_site_label
 _atom_site_symmetry_multiplicity
 _atom_site_fract_x
 _atom_site_fract_y
 _atom_site_fract_z
 _atom_site_occupancy
  Li  Li0  1  0.50206900  0.12466500  0.93545200  1
  Li  Li1  1  0.49793800  0.37607600  0.30866700  1
  Li  Li2  1  0.50039600  0.63101300  0.68544700  1
  Li  Li3  1  0.50601100  0.86720500  0.05670600  1
  Li  Li4  1  0.50006200  0.12510800  0.44245800  1
  Li  Li5  1  0.49944600  0.37407900  0.81486300  1
  Li  Li6  1  0.49360200  0.63118800  0.20088300  1
  Li  Li7  1  0.49714400  0.86903000  0.55393900  1
  Li  Li8  1  0.00295500  0.74933400  0.62365700  1
  Mn  Mn0  1  0.99547900  0.99919200  0.99626400  1
  Mn  Mn1  1  0.00030700  0.50333000  0.74981400  1
  Co  Co0  1  0.99983300  0.25006000  0.37644500  1
  Co  Co1  1  0.99947900  0.75068500  0.12247100  1
  Co  Co2  1  0.00087800  0.99620800  0.49719100  1
  Co  Co3  1  0.99993800  0.24971900  0.87555500  1
  Co  Co4  1  0.00523900  0.50382000  0.25622500  1
  O  O0  1  0.23406000  0.06963300  0.74280200  1
  O  O1  1  0.21995100  0.32043000  0.12041800  1
  O  O2  1  0.24144900  0.55694700  0.48272500  1
  O  O3  1  0.22665300  0.82064200  0.86988800  1
  O  O4  1  0.20722800  0.06425300  0.21740500  1
  O  O5  1  0.23304500  0.31531800  0.61575800  1
  O  O6  1  0.21361700  0.56127000  0.96590300  1
  O  O7  1  0.22914400  0.82500700  0.35368800  1
  O  O8  1  0.76660100  0.18435600  0.13985500  1
  O  O9  1  0.78994800  0.43816400  0.53503600  1
  O  O10  1  0.76047900  0.67381500  0.89548900  1
  O  O11  1  0.76319100  0.93404200  0.26007000  1
  O  O12  1  0.77851600  0.18059700  0.63152500  1
  O  O13  1  0.77156700  0.42774100  0.00933200  1
  O  O14  1  0.77966800  0.67955600  0.37499800  1
  O  O15  1  0.78410900  0.94751600  0.78907000  1
loop_
_geom_bond_atom_site_label_1
_geom_bond_atom_site_label_2
_geom_bond_distance
_geom_bond_site_symmetry_2
Li0 O15 2.022427 1_545
Li0 O0 2.104702 1_555
Li0 O4 2.118265 1_556
Li0 O12 2.134500 1_555
Li0 O8 2.147578 1_556
Li0 O1 2.166258 1_556
Li1 O2 1.993662 1_555
Li1 O13 2.086600 1_555
Li1 O8 2.101886 1_555
Li1 O1 2.133087 1_555
Li1 O5 2.150366 1_555
Li1 O9 2.365874 1_555
Li2 O3 2.101334 1_555
Li2 O10 2.123048 1_555
Li2 O14 2.127562 1_555
Li2 O6 2.147243 1_555
Li2 O2 2.152108 1_555
Li2 O9 2.159616 1_555
Li3 O7 2.035181 1_555
Li3 O10 2.084328 1_554
Li3 O3 2.116284 1_554
Li3 O11 2.127605 1_555
Li3 O15 2.145421 1_554
Li3 O4 2.212441 1_565
Li4 O5 2.087575 1_555
Li4 O11 2.089171 1_545
Li4 O0 2.095146 1_555
Li4 O8 2.126637 1_555
Li4 O12 2.138163 1_555
Li4 O4 2.361573 1_555
Li5 O6 2.106931 1_555
Li5 O9 2.120651 1_555
Li5 O13 2.127887 1_556
Li5 O5 2.131913 1_555
Li5 O1 2.135262 1_556
Li5 O12 2.141699 1_555
Li6 O10 2.049969 1_554
Li6 O14 2.099257 1_555
Li6 O2 2.102762 1_555
Li6 O7 2.108773 1_555
Li6 O13 2.218956 1_555
Li6 O6 2.366088 1_554
Li7 O7 2.117328 1_555
Li7 O14 2.117745 1_555
Li7 O11 2.123471 1_555
Li7 O3 2.131237 1_555
Li7 O0 2.166236 1_565
Li7 O15 2.417745 1_555
Li8 O7 2.013494 1_555
Li8 O2 2.044866 1_555
Li8 O10 2.051496 1_455
Li8 O15 2.060614 1_455
Li8 O3 2.181449 1_555
Li8 O14 2.187298 1_455
Mn0 O15 1.914238 1_555
Mn0 O3 1.918794 1_655
Mn0 O11 1.933620 1_556
Mn0 O0 1.939145 1_665
Mn0 O8 1.966098 1_566
Mn0 O4 2.005923 1_666
Mn1 O10 1.870556 1_455
Mn1 O2 1.896897 1_555
Mn1 O9 1.972316 1_455
Mn1 O6 1.974331 1_555
Mn1 O13 1.975699 1_456
Mn1 O5 1.998417 1_555
Co0 O12 1.903756 1_555
Co0 O1 1.911074 1_655
Co0 O4 1.936741 1_655
Co0 O9 1.959728 1_555
Co0 O8 2.165045 1_555
Co0 O5 2.176198 1_655
Co1 O14 1.901279 1_555
Co1 O3 1.908643 1_654
Co1 O11 1.966424 1_555
Co1 O6 1.976945 1_654
Co1 O7 2.147013 1_655
Co1 O10 2.174579 1_554
Co2 O7 1.851384 1_555
Co2 O15 1.929895 1_455
Co2 O12 1.947979 1_465
Co2 O4 1.972825 1_565
Co2 O11 2.178763 1_455
Co2 O0 2.222410 1_565
Co3 O13 1.907052 1_556
Co3 O5 1.921982 1_655
Co3 O0 1.936004 1_655
Co3 O8 1.939041 1_556
Co3 O12 2.157317 1_555
Co3 O1 2.158950 1_656
Co4 O14 1.886329 1_455
Co4 O1 1.925275 1_555
Co4 O6 1.959060 1_554
Co4 O9 1.968159 1_455
Co4 O2 2.108495 1_555
Co4 O13 2.236557 1_455
