# generated using pymatgen
data_SrAlIn
_symmetry_space_group_name_H-M   'P 1'
_cell_length_a   6.25934620
_cell_length_b   6.25934620
_cell_length_c   8.03494216
_cell_angle_alpha   50.91878054
_cell_angle_beta   50.91878054
_cell_angle_gamma   46.75964566
_symmetry_Int_Tables_number   1
_chemical_formula_structural   SrAlIn
_chemical_formula_sum   'Sr2 Al2 In2'
_cell_volume   166.68544939
_cell_formula_units_Z   2
loop_
 _symmetry_equiv_pos_site_id
 _symmetry_equiv_pos_as_xyz
  1  'x, y, z'
loop_
 _atom_site_type_symbol
 _atom_site_label
 _atom_site_symmetry_multiplicity
 _atom_site_fract_x
 _atom_site_fract_y
 _atom_site_fract_z
 _atom_site_occupancy
  Sr  Sr0  1  0.45401200  0.45401200  0.29672900  1
  Sr  Sr1  1  0.54598800  0.54598800  0.70327100  1
  Al  Al0  1  0.15237500  0.15237500  0.90723800  1
  Al  Al1  1  0.84762500  0.84762500  0.09276200  1
  In  In0  1  0.83097400  0.83097400  0.73708700  1
  In  In1  1  0.16902600  0.16902600  0.26291300  1
loop_
_geom_bond_atom_site_label_1
_geom_bond_atom_site_label_2
_geom_bond_distance
_geom_bond_site_symmetry_2
Al0 Al1 2.704532 1_446
Al0 In0 2.897651 1_545
Al0 In0 2.897651 1_455
Al0 In1 2.992472 1_556
Al0 Sr0 3.370538 1_456
Al0 Sr0 3.370538 1_546
Al0 Sr0 3.566736 1_555
Al0 Sr1 3.600127 1_555
Al0 Sr1 3.619656 1_545
Al0 Sr1 3.619656 1_455
Al1 In1 2.897651 1_565
Al1 In1 2.897651 1_655
Al1 In0 2.992472 1_554
Al1 Sr1 3.370538 1_654
Al1 Sr1 3.370538 1_564
Al1 Sr1 3.566736 1_555
Al1 Sr0 3.600127 1_555
Al1 Sr0 3.619656 1_565
Al1 Sr0 3.619656 1_655
In0 In1 3.045616 1_665
In0 Sr1 3.380176 1_655
In0 Sr1 3.380176 1_565
In0 Sr1 3.466971 1_555
In0 Sr0 3.496817 1_556
In0 Sr0 3.717017 1_565
In0 Sr0 3.717017 1_655
In1 Sr0 3.380176 1_545
In1 Sr0 3.380176 1_455
In1 Sr0 3.466971 1_555
In1 Sr1 3.496817 1_554
In1 Sr1 3.717017 1_545
In1 Sr1 3.717017 1_455
