# generated using pymatgen
data_Tb2CuGe6
_symmetry_space_group_name_H-M   'P 1'
_cell_length_a   4.06945400
_cell_length_b   4.07611300
_cell_length_c   10.88388321
_cell_angle_alpha   90.00000000
_cell_angle_beta   100.77476272
_cell_angle_gamma   90.00000000
_symmetry_Int_Tables_number   1
_chemical_formula_structural   Tb2CuGe6
_chemical_formula_sum   'Tb2 Cu1 Ge6'
_cell_volume   177.35408137
_cell_formula_units_Z   1
loop_
 _symmetry_equiv_pos_site_id
 _symmetry_equiv_pos_as_xyz
  1  'x, y, z'
loop_
 _atom_site_type_symbol
 _atom_site_label
 _atom_site_symmetry_multiplicity
 _atom_site_fract_x
 _atom_site_fract_y
 _atom_site_fract_z
 _atom_site_occupancy
  Tb  Tb0  1  0.99635700  0.00000000  0.99271400  1
  Tb  Tb1  1  0.32965800  0.00000000  0.65931600  1
  Cu  Cu0  1  0.77571200  0.50000000  0.55142400  1
  Ge  Ge0  1  0.71522900  0.00000000  0.43045800  1
  Ge  Ge1  1  0.59965400  0.00000000  0.19930800  1
  Ge  Ge2  1  0.45383100  0.50000000  0.90766200  1
  Ge  Ge3  1  0.88439900  0.50000000  0.76879800  1
  Ge  Ge4  1  0.09896100  0.50000000  0.19792200  1
  Ge  Ge5  1  0.21519900  0.50000000  0.43039800  1
loop_
_geom_bond_atom_site_label_1
_geom_bond_atom_site_label_2
_geom_bond_distance
_geom_bond_site_symmetry_2
Cu0 Ge3 2.324162 1_555
Cu0 Ge5 2.411343 1_555
Cu0 Ge5 2.411343 1_655
Cu0 Ge0 2.413809 1_565
Cu0 Ge0 2.413809 1_555
Cu0 Tb1 3.102344 1_555
Cu0 Tb1 3.102344 1_565
Cu0 Tb1 3.102344 1_655
Cu0 Tb1 3.102344 1_665
Ge0 Ge1 2.471455 1_555
Ge0 Ge5 2.879894 1_645
Ge0 Ge5 2.879894 1_655
Ge0 Ge5 2.879894 1_545
Ge0 Ge5 2.879894 1_555
Ge0 Tb1 3.182401 1_555
Ge0 Tb1 3.182401 1_655
Ge1 Ge4 2.879932 1_645
Ge1 Ge4 2.879932 1_655
Ge1 Ge4 2.879932 1_555
Ge1 Ge4 2.879932 1_545
Ge1 Tb0 3.003226 1_554
Ge1 Tb0 3.003226 1_454
Ge2 Ge3 2.518839 1_555
Ge2 Ge3 2.518839 1_455
Ge2 Tb0 3.020058 1_565
Ge2 Tb0 3.020058 1_555
Ge2 Tb0 3.020058 1_465
Ge2 Tb0 3.020058 1_455
Ge2 Tb1 3.347293 1_555
Ge2 Tb1 3.347293 1_565
Ge3 Tb1 3.108705 1_555
Ge3 Tb1 3.108705 1_565
Ge3 Tb1 3.108705 1_655
Ge3 Tb1 3.108705 1_665
Ge3 Tb0 3.144111 1_565
Ge3 Tb0 3.144111 1_555
Ge4 Ge5 2.485633 1_555
Ge4 Tb0 2.994608 1_464
Ge4 Tb0 2.994608 1_454
Ge5 Tb1 3.185023 1_565
Ge5 Tb1 3.185023 1_555
