# generated using pymatgen
data_CaV4(CoO4)3
_symmetry_space_group_name_H-M   'P 1'
_cell_length_a   6.48682592
_cell_length_b   6.44543091
_cell_length_c   10.54565538
_cell_angle_alpha   90.65596352
_cell_angle_beta   89.68710184
_cell_angle_gamma   109.86155830
_symmetry_Int_Tables_number   1
_chemical_formula_structural   CaV4(CoO4)3
_chemical_formula_sum   'Ca2 V8 Co6 O24'
_cell_volume   414.66275358
_cell_formula_units_Z   2
loop_
 _symmetry_equiv_pos_site_id
 _symmetry_equiv_pos_as_xyz
  1  'x, y, z'
loop_
 _atom_site_type_symbol
 _atom_site_label
 _atom_site_symmetry_multiplicity
 _atom_site_fract_x
 _atom_site_fract_y
 _atom_site_fract_z
 _atom_site_occupancy
  Ca  Ca0  1  0.00002300  0.99996900  0.00000700  1
  Ca  Ca1  1  0.50002500  0.50001400  0.50000100  1
  V  V0  1  0.74902200  0.75085800  0.25002800  1
  V  V1  1  0.25099600  0.24912700  0.74995100  1
  V  V2  1  0.49988000  0.99993500  0.99997800  1
  V  V3  1  0.00014400  0.50014500  0.49999600  1
  V  V4  1  0.00000700  0.50006600  0.99995700  1
  V  V5  1  0.50011200  0.99992900  0.49998300  1
  V  V6  1  0.24824300  0.24846500  0.25167100  1
  V  V7  1  0.75172100  0.75156500  0.74836900  1
  Co  Co0  1  0.75188000  0.24863200  0.25078600  1
  Co  Co1  1  0.24799700  0.75146500  0.74910100  1
  Co  Co2  1  0.00000600  0.00008500  0.50006100  1
  Co  Co3  1  0.25246300  0.74903900  0.24965500  1
  Co  Co4  1  0.74755900  0.25096900  0.75035200  1
  Co  Co5  1  0.49997900  0.49994000  0.99997700  1
  O  O0  1  0.03433500  0.33787900  0.15285300  1
  O  O1  1  0.53146500  0.83543400  0.65208000  1
  O  O2  1  0.46848300  0.16445200  0.34778000  1
  O  O3  1  0.96574500  0.66217700  0.84724000  1
  O  O4  1  0.66139800  0.96531400  0.15257300  1
  O  O5  1  0.15565600  0.46494300  0.64605400  1
  O  O6  1  0.84433800  0.53491600  0.35388300  1
  O  O7  1  0.33842900  0.03473500  0.84752900  1
  O  O8  1  0.39413400  0.20403300  0.08696700  1
  O  O9  1  0.89346500  0.71226000  0.59056600  1
  O  O10  1  0.10693400  0.28780000  0.40958100  1
  O  O11  1  0.60555500  0.79590400  0.91294200  1
  O  O12  1  0.70976400  0.88510800  0.40427300  1
  O  O13  1  0.21090300  0.38834700  0.90414600  1
  O  O14  1  0.78907200  0.61172400  0.09575300  1
  O  O15  1  0.29032000  0.11480100  0.59582200  1
  O  O16  1  0.06348000  0.94579800  0.23973300  1
  O  O17  1  0.56073500  0.44935800  0.74200800  1
  O  O18  1  0.43942100  0.55069900  0.25807500  1
  O  O19  1  0.93630400  0.05411400  0.76025100  1
  O  O20  1  0.23309500  0.75283300  0.05664700  1
  O  O21  1  0.73176100  0.25279200  0.55688700  1
  O  O22  1  0.26819800  0.74736100  0.44306400  1
  O  O23  1  0.76695700  0.24701400  0.94342100  1
loop_
_geom_bond_atom_site_label_1
_geom_bond_atom_site_label_2
_geom_bond_distance
_geom_bond_site_symmetry_2
Ca0 O16 2.609927 1_555
Ca0 O19 2.610555 1_464
Ca0 O8 2.611500 1_565
Ca0 O11 2.613764 1_454
Ca0 O23 2.616231 1_464
Ca0 O20 2.616871 1_555
Ca0 O14 2.621074 1_455
Ca0 O13 2.622131 1_564
Ca0 O3 2.641924 1_454
Ca0 O0 2.642982 1_565
Ca0 O7 2.662721 1_564
Ca0 O4 2.664540 1_455
Ca1 O12 2.603595 1_555
Ca1 O15 2.604539 1_555
Ca1 O21 2.611136 1_555
Ca1 O22 2.612379 1_555
Ca1 O18 2.624414 1_555
Ca1 O17 2.625347 1_555
Ca1 O10 2.628486 1_555
Ca1 O1 2.629104 1_555
Ca1 O2 2.630595 1_555
Ca1 O9 2.630879 1_555
Ca1 O5 2.653451 1_555
Ca1 O6 2.653764 1_555
Co0 O4 1.996727 1_545
Co0 O0 2.007825 1_655
Co0 O2 2.008624 1_555
Co0 O6 2.038582 1_555
Co1 O7 1.997639 1_565
Co1 O3 2.007866 1_455
Co1 O1 2.009195 1_555
Co1 O5 2.039539 1_555
Co2 O10 1.997445 1_555
Co2 O9 1.998080 1_445
Co2 O12 2.042031 1_445
Co2 O15 2.042192 1_555
Co3 O20 2.040892 1_555
Co3 O18 2.042109 1_555
Co3 O22 2.043070 1_555
Co3 O16 2.045224 1_555
Co4 O23 2.041594 1_555
Co4 O17 2.041626 1_555
Co4 O21 2.043714 1_555
Co4 O19 2.044469 1_555
Co5 O8 2.023350 1_556
Co5 O11 2.023847 1_555
Co5 O14 2.035170 1_556
Co5 O13 2.035327 1_555
O0 V6 1.978996 1_555
O0 V4 1.985664 1_554
O1 V7 1.979369 1_555
O1 V5 1.981715 1_555
O2 V6 1.978785 1_555
O2 V5 1.983250 1_545
O3 V7 1.979809 1_555
O3 V4 1.983711 1_655
O4 V0 1.965381 1_555
O4 V2 1.980562 1_554
O5 V3 1.903173 1_555
O5 V1 2.035873 1_555
O6 V3 1.903887 1_655
O6 V0 2.036190 1_555
O7 V1 1.965082 1_555
O7 V2 1.979405 1_545
O8 V2 1.902964 1_544
O8 V6 2.036986 1_555
O9 V7 1.952144 1_555
O9 V3 1.966225 1_655
O10 V6 1.951717 1_555
O10 V3 1.967070 1_555
O11 V2 1.902577 1_555
O11 V7 2.036547 1_555
O12 V0 1.890092 1_555
O12 V5 2.016874 1_555
O13 V1 1.907237 1_555
O13 V4 2.012104 1_555
O14 V0 1.907589 1_555
O14 V4 2.011999 1_654
O15 V1 1.889411 1_555
O15 V5 2.018461 1_545
O16 V6 1.914496 1_565
O16 V0 2.002646 1_455
O17 V7 1.921368 1_555
O17 V1 1.987018 1_555
O18 V6 1.921894 1_555
O18 V0 1.986217 1_555
O19 V7 1.913523 1_545
O19 V1 2.004004 1_655
O20 V4 1.900410 1_554
O20 V2 2.006569 1_554
O21 V5 1.896766 1_545
O21 V3 2.014231 1_655
O22 V5 1.896566 1_555
O22 V3 2.012653 1_555
O23 V4 1.900857 1_655
O23 V2 2.007258 1_545
