# generated using pymatgen
data_Pr11Cd45
_symmetry_space_group_name_H-M   'P 1'
_cell_length_a   15.53144823
_cell_length_b   15.53151050
_cell_length_c   15.53145948
_cell_angle_alpha   60.00011553
_cell_angle_beta   60.00041752
_cell_angle_gamma   60.00024780
_symmetry_Int_Tables_number   1
_chemical_formula_structural   Pr11Cd45
_chemical_formula_sum   'Pr22 Cd90'
_cell_volume   2649.26548199
_cell_formula_units_Z   2
loop_
 _symmetry_equiv_pos_site_id
 _symmetry_equiv_pos_as_xyz
  1  'x, y, z'
loop_
 _atom_site_type_symbol
 _atom_site_label
 _atom_site_symmetry_multiplicity
 _atom_site_fract_x
 _atom_site_fract_y
 _atom_site_fract_z
 _atom_site_occupancy
  Pr  Pr0  1  0.00000057  0.00000115  0.99999875  1
  Pr  Pr1  1  0.01390971  0.33188955  0.64028859  1
  Pr  Pr2  1  0.01390844  0.01390964  0.64028847  1
  Pr  Pr3  1  0.33188877  0.01391119  0.64028783  1
  Pr  Pr4  1  0.01390920  0.64028930  0.33188973  1
  Pr  Pr5  1  0.33188854  0.64028953  0.01390969  1
  Pr  Pr6  1  0.01390881  0.64028949  0.01390898  1
  Pr  Pr7  1  0.64028898  0.01390951  0.01390833  1
  Pr  Pr8  1  0.64028897  0.33188898  0.01390957  1
  Pr  Pr9  1  0.64028814  0.01391015  0.33188996  1
  Pr  Pr10  1  0.33189101  0.01391166  0.01391094  1
  Pr  Pr11  1  0.01390978  0.01391086  0.33189215  1
  Pr  Pr12  1  0.01391072  0.33189162  0.01391093  1
  Pr  Pr13  1  0.24999843  0.24999951  0.24999888  1
  Pr  Pr14  1  0.40660612  0.40660729  0.78018052  1
  Pr  Pr15  1  0.40660582  0.78018222  0.40660580  1
  Pr  Pr16  1  0.78018072  0.40660705  0.40660581  1
  Pr  Pr17  1  0.40660546  0.40660723  0.40660523  1
  Pr  Pr18  1  0.66249015  0.66249157  0.01252563  1
  Pr  Pr19  1  0.66249036  0.01252599  0.66249119  1
  Pr  Pr20  1  0.01252460  0.66249081  0.66249138  1
  Pr  Pr21  1  0.66249053  0.66249100  0.66249200  1
  Cd  Cd0  1  0.08296699  0.08296790  0.75108763  1
  Cd  Cd1  1  0.08296681  0.75108836  0.08296864  1
  Cd  Cd2  1  0.75108858  0.08296686  0.08296780  1
  Cd  Cd3  1  0.08297051  0.08296997  0.08297205  1
  Cd  Cd4  1  0.91165036  0.91164899  0.26505068  1
  Cd  Cd5  1  0.91164930  0.26505448  0.91164816  1
  Cd  Cd6  1  0.26505439  0.91164916  0.91164932  1
  Cd  Cd7  1  0.91164873  0.91164925  0.91164782  1
  Cd  Cd8  1  0.15684895  0.15684690  0.84315177  1
  Cd  Cd9  1  0.84315111  0.15684029  0.84314994  1
  Cd  Cd10  1  0.15683969  0.84315139  0.84315285  1
  Cd  Cd11  1  0.84315312  0.84315046  0.15684164  1
  Cd  Cd12  1  0.15684526  0.84315176  0.15684911  1
  Cd  Cd13  1  0.84315235  0.15684507  0.15685082  1
  Cd  Cd14  1  0.39055670  0.20163049  0.01725440  1
  Cd  Cd15  1  0.39055810  0.39055287  0.01725610  1
  Cd  Cd16  1  0.20163172  0.39055415  0.01725480  1
  Cd  Cd17  1  0.39055228  0.01725526  0.20163247  1
  Cd  Cd18  1  0.20163429  0.01725376  0.39055506  1
  Cd  Cd19  1  0.39055514  0.01725969  0.39055624  1
  Cd  Cd20  1  0.01725458  0.39055715  0.39055612  1
  Cd  Cd21  1  0.01725364  0.20163018  0.39055747  1
  Cd  Cd22  1  0.01725667  0.39055475  0.20162772  1
  Cd  Cd23  1  0.20163757  0.39055658  0.39055297  1
  Cd  Cd24  1  0.39055828  0.39055248  0.20162892  1
  Cd  Cd25  1  0.39055812  0.20163130  0.39055223  1
  Cd  Cd26  1  0.16396794  0.16395918  0.50813958  1
  Cd  Cd27  1  0.16395871  0.50811654  0.16396012  1
  Cd  Cd28  1  0.50813908  0.16395927  0.16396945  1
  Cd  Cd29  1  0.16395996  0.16396119  0.16396228  1
  Cd  Cd30  1  0.26306160  0.61409583  0.85978642  1
  Cd  Cd31  1  0.26305862  0.26305768  0.85979059  1
  Cd  Cd32  1  0.61409539  0.26306247  0.85978401  1
  Cd  Cd33  1  0.26306069  0.85978709  0.61409582  1
  Cd  Cd34  1  0.61409794  0.85978619  0.26305805  1
  Cd  Cd35  1  0.26305860  0.85978975  0.26305694  1
  Cd  Cd36  1  0.85978744  0.26306385  0.26305521  1
  Cd  Cd37  1  0.85978776  0.61409637  0.26305873  1
  Cd  Cd38  1  0.85978622  0.26306232  0.61409362  1
  Cd  Cd39  1  0.61409598  0.26305555  0.26305890  1
  Cd  Cd40  1  0.26305715  0.26305762  0.61409511  1
  Cd  Cd41  1  0.26305802  0.61409628  0.26305702  1
  Cd  Cd42  1  0.49999983  0.49999680  0.50000108  1
  Cd  Cd43  1  0.64027961  0.45077373  0.26866845  1
  Cd  Cd44  1  0.64028040  0.64028088  0.26866322  1
  Cd  Cd45  1  0.45077273  0.64028177  0.26866601  1
  Cd  Cd46  1  0.64028097  0.26866614  0.45077467  1
  Cd  Cd47  1  0.45077461  0.26866723  0.64028051  1
  Cd  Cd48  1  0.64028039  0.26866340  0.64028014  1
  Cd  Cd49  1  0.26866220  0.64028111  0.64028037  1
  Cd  Cd50  1  0.26866696  0.45077447  0.64027997  1
  Cd  Cd51  1  0.26866488  0.64028183  0.45077399  1
  Cd  Cd52  1  0.45077160  0.64027924  0.64027895  1
  Cd  Cd53  1  0.64027938  0.64027883  0.45077190  1
  Cd  Cd54  1  0.64027919  0.45077094  0.64027898  1
  Cd  Cd55  1  0.51209686  0.83290760  0.14290066  1
  Cd  Cd56  1  0.51209491  0.51209650  0.14290118  1
  Cd  Cd57  1  0.83290755  0.51209719  0.14290167  1
  Cd  Cd58  1  0.51209832  0.14289946  0.83290734  1
  Cd  Cd59  1  0.83290696  0.14290043  0.51209761  1
  Cd  Cd60  1  0.51209637  0.14290125  0.51209574  1
  Cd  Cd61  1  0.14290032  0.51209688  0.51209420  1
  Cd  Cd62  1  0.14289877  0.83290788  0.51209696  1
  Cd  Cd63  1  0.14289864  0.51209915  0.83290809  1
  Cd  Cd64  1  0.83290612  0.51209448  0.51209332  1
  Cd  Cd65  1  0.51209385  0.51209499  0.83290689  1
  Cd  Cd66  1  0.51209411  0.83290709  0.51209374  1
  Cd  Cd67  1  0.75000362  0.75000689  0.74999970  1
  Cd  Cd68  1  0.83038405  0.83038508  0.50885649  1
  Cd  Cd69  1  0.83038349  0.50886114  0.83038021  1
  Cd  Cd70  1  0.50885891  0.83038514  0.83038172  1
  Cd  Cd71  1  0.83038326  0.83038637  0.83038083  1
  Cd  Cd72  1  0.91186061  0.91186160  0.58814146  1
  Cd  Cd73  1  0.58813940  0.91185960  0.58814096  1
  Cd  Cd74  1  0.91185920  0.58814050  0.58813882  1
  Cd  Cd75  1  0.58814010  0.58814118  0.91185920  1
  Cd  Cd76  1  0.91185957  0.58814318  0.91186172  1
  Cd  Cd77  1  0.58814151  0.91186044  0.91186099  1
  Cd  Cd78  1  0.76314320  0.07012794  0.40358056  1
  Cd  Cd79  1  0.76313952  0.76314673  0.40358064  1
  Cd  Cd80  1  0.07012726  0.76314388  0.40357886  1
  Cd  Cd81  1  0.76314753  0.40357812  0.07012844  1
  Cd  Cd82  1  0.07012867  0.40357935  0.76314657  1
  Cd  Cd83  1  0.76314819  0.40357354  0.76314668  1
  Cd  Cd84  1  0.40357964  0.76314417  0.76314334  1
  Cd  Cd85  1  0.40358032  0.07012988  0.76314205  1
  Cd  Cd86  1  0.40357618  0.76314933  0.07012751  1
  Cd  Cd87  1  0.07013671  0.76313636  0.76314654  1
  Cd  Cd88  1  0.76313544  0.76314374  0.07013887  1
  Cd  Cd89  1  0.76314389  0.07012663  0.76315023  1
loop_
_geom_bond_atom_site_label_1
_geom_bond_atom_site_label_2
_geom_bond_distance
_geom_bond_site_symmetry_2
Cd0 Cd9 3.045579 1_455
Cd0 Cd10 3.045591 1_545
Cd0 Cd8 3.045678 1_555
Cd0 Cd26 3.080928 1_555
Cd0 Pr0 3.156548 1_555
Cd0 Pr2 3.178708 1_555
Cd0 Pr1 3.178795 1_555
Cd0 Pr3 3.178798 1_555
Cd1 Cd11 3.045551 1_455
Cd1 Cd10 3.045576 1_554
Cd1 Cd12 3.045644 1_555
Cd1 Cd27 3.081234 1_555
Cd1 Pr0 3.156574 1_564
Cd1 Pr6 3.178717 1_555
Cd1 Pr4 3.178784 1_555
Cd1 Pr5 3.178795 1_555
Cd2 Cd9 3.045602 1_554
Cd2 Cd28 3.080948 1_555
Cd2 Pr0 3.156561 1_654
Cd2 Pr7 3.178714 1_555
Cd2 Pr9 3.178802 1_555
Cd2 Pr8 3.178803 1_555
Cd3 Cd8 3.045632 1_554
Cd3 Pr0 3.156546 1_554
Cd3 Pr11 3.178773 1_555
Cd3 Pr10 3.178780 1_555
Cd3 Pr12 3.178799 1_555
Cd4 Cd68 3.091806 1_555
Cd4 Cd80 3.265503 1_655
Cd4 Cd78 3.265566 1_565
Cd4 Cd79 3.265605 1_555
Cd4 Pr0 3.361237 1_664
Cd4 Pr4 3.455862 1_655
Cd4 Pr11 3.455878 1_665
Cd4 Pr9 3.455888 1_565
Cd5 Cd69 3.091821 1_555
Cd5 Cd8 3.129808 1_655
Cd5 Cd9 3.129936 1_555
Cd5 Cd83 3.265480 1_555
Cd5 Cd82 3.265509 1_655
Cd5 Cd81 3.265514 1_556
Cd5 Pr0 3.361260 1_655
Cd5 Pr1 3.455859 1_655
Cd5 Pr12 3.455862 1_656
Cd5 Pr8 3.455871 1_556
Cd6 Cd70 3.091791 1_555
Cd6 Cd8 3.129784 1_565
Cd6 Cd86 3.265450 1_556
Cd6 Cd85 3.265536 1_565
Cd6 Cd84 3.265592 1_555
Cd6 Pr0 3.361263 1_565
Cd6 Pr10 3.455858 1_566
Cd6 Pr5 3.455866 1_556
Cd6 Pr3 3.455883 1_565
Cd7 Cd71 3.091659 1_555
Cd7 Cd9 3.129688 1_565
Cd7 Cd89 3.265476 1_565
Cd7 Cd87 3.265630 1_655
Cd7 Cd88 3.265673 1_556
Cd7 Pr0 3.361256 1_665
Cd7 Pr2 3.455852 1_665
Cd7 Pr7 3.455861 1_566
Cd7 Pr6 3.455862 1_656
Cd8 Cd85 3.129486 1_555
Cd8 Cd82 3.129504 1_555
Cd8 Pr0 3.445126 1_555
Cd9 Pr0 3.445157 1_655
Cd10 Cd30 3.013774 1_555
Cd10 Cd33 3.013781 1_555
Cd10 Cd87 3.129377 1_555
Cd10 Cd84 3.129595 1_555
Cd10 Cd7 3.129685 1_455
Cd10 Cd6 3.129913 1_555
Cd10 Pr0 3.445151 1_565
Cd11 Cd37 3.013747 1_555
Cd11 Cd34 3.013755 1_555
Cd11 Cd2 3.045589 1_565
Cd11 Cd88 3.129413 1_555
Cd11 Cd79 3.129581 1_555
Cd11 Cd7 3.129720 1_554
Cd11 Cd4 3.129855 1_555
Cd11 Pr0 3.445170 1_664
Cd12 Cd41 3.013764 1_555
Cd12 Cd35 3.013783 1_555
Cd12 Cd3 3.045613 1_565
Cd12 Cd80 3.129464 1_555
Cd12 Cd86 3.129482 1_555
Cd12 Cd4 3.129743 1_455
Cd12 Cd6 3.129812 1_554
Cd12 Pr0 3.445122 1_564
Cd13 Cd39 3.013770 1_555
Cd13 Cd36 3.013789 1_555
Cd13 Cd3 3.045607 1_655
Cd13 Cd2 3.045676 1_555
Cd13 Cd78 3.129464 1_555
Cd13 Cd81 3.129512 1_555
Cd13 Cd4 3.129754 1_545
Cd13 Cd5 3.129844 1_554
Cd13 Pr0 3.445155 1_654
Cd14 Cd58 2.842243 1_554
Cd14 Cd17 2.863648 1_555
Cd14 Cd15 2.934274 1_555
Cd14 Cd16 2.934285 1_555
Cd14 Cd29 3.259921 1_555
Cd14 Cd28 3.260294 1_555
Cd14 Cd31 3.381282 1_554
Cd14 Cd32 3.381392 1_554
Cd14 Pr13 3.403177 1_555
Cd14 Pr14 3.450908 1_554
Cd14 Pr10 3.491222 1_555
Cd14 Pr7 3.491280 1_555
Cd15 Cd65 2.842251 1_554
Cd15 Cd24 2.863577 1_555
Cd15 Cd16 2.934300 1_555
Cd15 Cd27 3.259954 1_555
Cd15 Cd28 3.260063 1_555
Cd15 Cd32 3.381340 1_554
Cd15 Cd30 3.381379 1_554
Cd15 Pr13 3.403163 1_555
Cd15 Pr14 3.450890 1_554
Cd15 Pr8 3.491249 1_555
Cd15 Pr5 3.491328 1_555
Cd16 Cd63 2.842239 1_554
Cd16 Cd22 2.863614 1_555
Cd16 Cd29 3.259888 1_555
Cd16 Cd27 3.259908 1_555
Cd16 Cd31 3.381286 1_554
Cd16 Cd30 3.381414 1_554
Cd16 Pr13 3.403141 1_555
Cd16 Pr14 3.450905 1_554
Cd16 Pr12 3.491216 1_555
Cd16 Pr6 3.491328 1_555
Cd17 Cd55 2.842259 1_545
Cd17 Cd18 2.934225 1_555
Cd17 Cd19 2.934318 1_555
Cd17 Cd29 3.259859 1_555
Cd17 Cd28 3.260267 1_555
Cd17 Cd35 3.381279 1_545
Cd17 Cd34 3.381425 1_545
Cd17 Pr13 3.403161 1_555
Cd17 Pr15 3.450879 1_545
Cd17 Pr10 3.491206 1_555
Cd17 Pr7 3.491347 1_555
Cd18 Cd62 2.842259 1_545
Cd18 Cd21 2.863682 1_555
Cd18 Cd19 2.934270 1_555
Cd18 Cd29 3.259889 1_555
Cd18 Cd26 3.260239 1_555
Cd18 Cd35 3.381320 1_545
Cd18 Cd33 3.381364 1_545
Cd18 Pr13 3.403159 1_555
Cd18 Pr15 3.450859 1_545
Cd18 Pr11 3.491261 1_555
Cd18 Pr2 3.491324 1_555
Cd19 Cd66 2.842251 1_545
Cd19 Cd25 2.863562 1_555
Cd19 Cd28 3.259945 1_555
Cd19 Cd26 3.259951 1_555
Cd19 Cd33 3.381377 1_545
Cd19 Cd34 3.381436 1_545
Cd19 Pr13 3.403143 1_555
Cd19 Pr15 3.450945 1_545
Cd19 Pr3 3.491242 1_555
Cd19 Pr9 3.491254 1_555
Cd20 Cd64 2.842228 1_455
Cd20 Cd23 2.863706 1_555
Cd20 Cd21 2.934318 1_555
Cd20 Cd22 2.934336 1_555
Cd20 Cd27 3.259900 1_555
Cd20 Cd26 3.260109 1_555
Cd20 Cd38 3.381335 1_455
Cd20 Cd37 3.381342 1_455
Cd20 Pr13 3.403189 1_555
Cd20 Pr16 3.450880 1_455
Cd20 Pr1 3.491268 1_555
Cd20 Pr4 3.491278 1_555
Cd21 Cd59 2.842223 1_455
Cd21 Cd22 2.934324 1_555
Cd21 Cd29 3.259902 1_555
Cd21 Cd26 3.260282 1_555
Cd21 Cd36 3.381329 1_455
Cd21 Cd38 3.381363 1_455
Cd21 Pr13 3.403179 1_555
Cd21 Pr16 3.450906 1_455
Cd21 Pr11 3.491231 1_555
Cd21 Pr2 3.491261 1_555
Cd22 Cd57 2.842218 1_455
Cd22 Cd29 3.259861 1_555
Cd22 Cd27 3.259888 1_555
Cd22 Cd36 3.381275 1_455
Cd22 Cd37 3.381429 1_455
Cd22 Pr13 3.403142 1_555
Cd22 Pr16 3.450944 1_455
Cd22 Pr12 3.491180 1_555
Cd22 Pr6 3.491294 1_555
Cd23 Cd61 2.842249 1_555
Cd23 Cd24 2.934258 1_555
Cd23 Cd25 2.934263 1_555
Cd23 Cd26 3.259902 1_555
Cd23 Cd27 3.259918 1_555
Cd23 Cd41 3.381320 1_555
Cd23 Cd40 3.381329 1_555
Cd23 Pr13 3.403192 1_555
Cd23 Pr17 3.450807 1_555
Cd23 Pr4 3.491329 1_555
Cd23 Pr1 3.491362 1_555
Cd24 Cd56 2.842283 1_555
Cd24 Cd25 2.934248 1_555
Cd24 Cd28 3.259787 1_555
Cd24 Cd27 3.259939 1_555
Cd24 Cd39 3.381353 1_555
Cd24 Cd41 3.381438 1_555
Cd24 Pr13 3.403150 1_555
Cd24 Pr17 3.450931 1_555
Cd24 Pr8 3.491261 1_555
Cd24 Pr5 3.491318 1_555
Cd25 Cd60 2.842275 1_555
Cd25 Cd28 3.259723 1_555
Cd25 Cd26 3.259815 1_555
Cd25 Cd39 3.381324 1_555
Cd25 Cd40 3.381406 1_555
Cd25 Pr13 3.403152 1_555
Cd25 Pr17 3.450921 1_555
Cd25 Pr9 3.491262 1_555
Cd25 Pr3 3.491311 1_555
Cd26 Pr13 3.273592 1_555
Cd26 Pr3 3.307165 1_555
Cd26 Pr1 3.307305 1_555
Cd26 Pr2 3.307639 1_555
Cd27 Pr13 3.273297 1_555
Cd27 Pr6 3.307501 1_555
Cd27 Pr5 3.307537 1_555
Cd27 Pr4 3.307540 1_555
Cd28 Pr13 3.273594 1_555
Cd28 Pr9 3.307169 1_555
Cd28 Pr8 3.307298 1_555
Cd28 Pr7 3.307667 1_555
Cd29 Cd3 3.081204 1_555
Cd29 Pr13 3.273231 1_555
Cd29 Pr12 3.307503 1_555
Cd29 Pr11 3.307515 1_555
Cd29 Pr10 3.307528 1_555
Cd30 Cd52 3.185589 1_555
Cd30 Cd49 3.185632 1_555
Cd30 Cd65 3.250134 1_555
Cd30 Cd63 3.250210 1_555
Cd30 Cd87 3.267507 1_555
Cd30 Cd84 3.267525 1_555
Cd30 Pr14 3.305708 1_555
Cd30 Pr5 3.317514 1_556
Cd30 Pr6 3.317637 1_556
Cd31 Cd8 3.013787 1_555
Cd31 Cd47 3.185654 1_555
Cd31 Cd50 3.185656 1_555
Cd31 Cd58 3.250226 1_555
Cd31 Cd63 3.250262 1_555
Cd31 Cd82 3.267608 1_555
Cd31 Cd85 3.267643 1_555
Cd31 Pr14 3.305708 1_555
Cd31 Pr10 3.317549 1_556
Cd31 Pr12 3.317577 1_556
Cd32 Cd9 3.013764 1_555
Cd32 Cd54 3.185551 1_555
Cd32 Cd48 3.185599 1_555
Cd32 Cd65 3.250156 1_555
Cd32 Cd58 3.250200 1_555
Cd32 Cd83 3.267516 1_555
Cd32 Cd89 3.267611 1_555
Cd32 Pr14 3.305678 1_555
Cd32 Pr8 3.317546 1_556
Cd32 Pr7 3.317642 1_556
Cd33 Cd52 3.185596 1_555
Cd33 Cd49 3.185640 1_555
Cd33 Cd66 3.250151 1_555
Cd33 Cd62 3.250228 1_555
Cd33 Cd84 3.267513 1_555
Cd33 Cd87 3.267605 1_555
Cd33 Pr15 3.305715 1_555
Cd33 Pr3 3.317531 1_565
Cd33 Pr2 3.317628 1_565
Cd34 Cd53 3.185606 1_555
Cd34 Cd44 3.185618 1_555
Cd34 Cd66 3.250185 1_555
Cd34 Cd55 3.250189 1_555
Cd34 Cd88 3.267476 1_555
Cd34 Cd79 3.267495 1_555
Cd34 Pr15 3.305729 1_555
Cd34 Pr9 3.317556 1_565
Cd34 Pr7 3.317600 1_565
Cd35 Cd45 3.185622 1_555
Cd35 Cd51 3.185637 1_555
Cd35 Cd55 3.250213 1_555
Cd35 Cd62 3.250240 1_555
Cd35 Cd86 3.267588 1_555
Cd35 Cd80 3.267654 1_555
Cd35 Pr15 3.305694 1_555
Cd35 Pr10 3.317555 1_565
Cd35 Pr11 3.317589 1_565
Cd36 Cd43 3.185589 1_555
Cd36 Cd46 3.185647 1_555
Cd36 Cd57 3.250156 1_555
Cd36 Cd59 3.250270 1_555
Cd36 Cd81 3.267532 1_555
Cd36 Cd78 3.267698 1_555
Cd36 Pr16 3.305688 1_555
Cd36 Pr12 3.317542 1_655
Cd36 Pr11 3.317637 1_655
Cd37 Cd53 3.185620 1_555
Cd37 Cd44 3.185628 1_555
Cd37 Cd64 3.250156 1_555
Cd37 Cd57 3.250183 1_555
Cd37 Cd88 3.267555 1_555
Cd37 Cd79 3.267587 1_555
Cd37 Pr16 3.305720 1_555
Cd37 Pr4 3.317525 1_655
Cd37 Pr6 3.317598 1_655
Cd38 Cd9 3.013767 1_555
Cd38 Cd54 3.185576 1_555
Cd38 Cd48 3.185617 1_555
Cd38 Cd64 3.250139 1_555
Cd38 Cd59 3.250199 1_555
Cd38 Cd83 3.267525 1_555
Cd38 Cd89 3.267679 1_555
Cd38 Pr16 3.305674 1_555
Cd38 Pr1 3.317535 1_655
Cd38 Pr2 3.317635 1_655
Cd39 Cd46 3.185643 1_555
Cd39 Cd43 3.185669 1_555
Cd39 Cd60 3.250192 1_555
Cd39 Cd56 3.250250 1_555
Cd39 Cd78 3.267558 1_555
Cd39 Cd81 3.267626 1_555
Cd39 Pr17 3.305749 1_555
Cd39 Pr9 3.317551 1_555
Cd39 Pr8 3.317587 1_555
Cd40 Cd8 3.013770 1_555
Cd40 Cd47 3.185662 1_555
Cd40 Cd50 3.185663 1_555
Cd40 Cd60 3.250228 1_555
Cd40 Cd61 3.250230 1_555
Cd40 Cd85 3.267569 1_555
Cd40 Cd82 3.267619 1_555
Cd40 Pr17 3.305737 1_555
Cd40 Pr1 3.317561 1_555
Cd40 Pr3 3.317564 1_555
Cd41 Cd45 3.185617 1_555
Cd41 Cd51 3.185637 1_555
Cd41 Cd56 3.250203 1_555
Cd41 Cd61 3.250208 1_555
Cd41 Cd80 3.267593 1_555
Cd41 Cd86 3.267598 1_555
Cd41 Pr17 3.305705 1_555
Cd41 Pr5 3.317569 1_555
Cd41 Pr4 3.317584 1_555
Cd42 Cd47 3.390215 1_555
Cd42 Cd54 3.390221 1_555
Cd42 Cd50 3.390237 1_555
Cd42 Cd43 3.390243 1_555
Cd42 Cd46 3.390244 1_555
Cd42 Cd52 3.390263 1_555
Cd42 Cd48 3.390267 1_555
Cd42 Cd53 3.390269 1_555
Cd42 Cd45 3.390287 1_555
Cd42 Cd51 3.390287 1_555
Cd42 Cd49 3.390336 1_555
Cd42 Cd44 3.390337 1_555
Cd42 Pr17 3.553063 1_555
Cd42 Pr14 3.553075 1_555
Cd42 Pr16 3.553096 1_555
Cd42 Pr15 3.553156 1_555
Cd43 Cd46 2.828396 1_555
Cd43 Cd44 2.943298 1_555
Cd43 Cd45 2.943342 1_555
Cd43 Cd81 2.943596 1_555
Cd43 Cd56 2.969615 1_555
Cd43 Cd57 2.969620 1_555
Cd43 Pr16 3.387706 1_555
Cd43 Pr17 3.387756 1_555
Cd43 Pr18 3.665903 1_555
Cd44 Cd53 2.828390 1_555
Cd44 Cd45 2.943300 1_555
Cd44 Cd88 2.943375 1_555
Cd44 Cd55 2.969569 1_555
Cd44 Cd57 2.969580 1_555
Cd44 Pr16 3.387765 1_555
Cd44 Pr15 3.387791 1_555
Cd44 Pr18 3.665842 1_555
Cd45 Cd51 2.828419 1_555
Cd45 Cd86 2.943568 1_555
Cd45 Cd55 2.969600 1_555
Cd45 Cd56 2.969611 1_555
Cd45 Pr15 3.387744 1_555
Cd45 Pr17 3.387769 1_555
Cd45 Pr18 3.665887 1_555
Cd46 Cd48 2.943271 1_555
Cd46 Cd47 2.943324 1_555
Cd46 Cd78 2.943565 1_555
Cd46 Cd59 2.969582 1_555
Cd46 Cd60 2.969603 1_555
Cd46 Pr16 3.387731 1_555
Cd46 Pr17 3.387784 1_555
Cd46 Pr19 3.665872 1_555
Cd47 Cd50 2.828409 1_555
Cd47 Cd48 2.943267 1_555
Cd47 Cd85 2.943549 1_555
Cd47 Cd58 2.969597 1_555
Cd47 Cd60 2.969621 1_555
Cd47 Pr14 3.387731 1_555
Cd47 Pr17 3.387777 1_555
Cd47 Pr19 3.665883 1_555
Cd48 Cd54 2.828387 1_555
Cd48 Cd89 2.943554 1_555
Cd48 Cd59 2.969579 1_555
Cd48 Cd58 2.969579 1_555
Cd48 Pr16 3.387783 1_555
Cd48 Pr14 3.387791 1_555
Cd48 Pr19 3.665848 1_555
Cd49 Cd52 2.828397 1_555
Cd49 Cd51 2.943284 1_555
Cd49 Cd50 2.943291 1_555
Cd49 Cd87 2.943412 1_555
Cd49 Cd62 2.969575 1_555
Cd49 Cd63 2.969578 1_555
Cd49 Pr14 3.387773 1_555
Cd49 Pr15 3.387789 1_555
Cd49 Pr20 3.665838 1_555
Cd50 Cd51 2.943325 1_555
Cd50 Cd82 2.943565 1_555
Cd50 Cd61 2.969623 1_555
Cd50 Cd63 2.969637 1_555
Cd50 Pr14 3.387719 1_555
Cd50 Pr17 3.387773 1_555
Cd50 Pr20 3.665896 1_555
Cd51 Cd80 2.943548 1_555
Cd51 Cd62 2.969600 1_555
Cd51 Cd61 2.969608 1_555
Cd51 Pr15 3.387745 1_555
Cd51 Pr17 3.387785 1_555
Cd51 Pr20 3.665887 1_555
Cd52 Cd53 2.943344 1_555
Cd52 Cd54 2.943350 1_555
Cd52 Cd84 2.943529 1_555
Cd52 Cd65 2.969601 1_555
Cd52 Cd66 2.969614 1_555
Cd52 Pr14 3.387723 1_555
Cd52 Pr15 3.387727 1_555
Cd52 Pr21 3.665902 1_555
Cd53 Cd54 2.943338 1_555
Cd53 Cd79 2.943512 1_555
Cd53 Cd64 2.969581 1_555
Cd53 Cd66 2.969621 1_555
Cd53 Pr16 3.387731 1_555
Cd53 Pr15 3.387737 1_555
Cd53 Pr21 3.665909 1_555
Cd54 Cd83 2.943577 1_555
Cd54 Cd64 2.969608 1_555
Cd54 Cd65 2.969630 1_555
Cd54 Pr14 3.387723 1_555
Cd54 Pr16 3.387730 1_555
Cd54 Pr21 3.665928 1_555
Cd55 Cd77 2.930029 1_554
Cd55 Cd88 3.201087 1_555
Cd55 Cd86 3.201248 1_555
Cd55 Pr18 3.318030 1_555
Cd55 Pr15 3.377464 1_555
Cd55 Pr7 3.443419 1_565
Cd55 Pr10 3.443435 1_565
Cd56 Cd75 2.930058 1_554
Cd56 Cd81 3.201269 1_555
Cd56 Cd86 3.201275 1_555
Cd56 Pr18 3.318011 1_555
Cd56 Pr17 3.377451 1_555
Cd56 Pr5 3.443452 1_555
Cd56 Pr8 3.443489 1_555
Cd57 Cd76 2.930032 1_554
Cd57 Cd88 3.201187 1_555
Cd57 Cd81 3.201252 1_555
Cd57 Pr18 3.318034 1_555
Cd57 Pr16 3.377444 1_555
Cd57 Pr6 3.443411 1_655
Cd57 Pr12 3.443461 1_655
Cd58 Cd77 2.930025 1_545
Cd58 Cd89 3.201176 1_555
Cd58 Cd85 3.201253 1_555
Cd58 Pr19 3.318014 1_555
Cd58 Pr14 3.377502 1_555
Cd58 Pr7 3.443381 1_556
Cd58 Pr10 3.443445 1_556
Cd59 Cd72 2.930023 1_545
Cd59 Cd78 3.201258 1_555
Cd59 Cd89 3.201261 1_555
Cd59 Pr19 3.318022 1_555
Cd59 Pr16 3.377485 1_555
Cd59 Pr2 3.443388 1_655
Cd59 Pr11 3.443447 1_655
Cd60 Cd73 2.930059 1_545
Cd60 Cd85 3.201189 1_555
Cd60 Cd78 3.201196 1_555
Cd60 Pr19 3.317987 1_555
Cd60 Pr17 3.377480 1_555
Cd60 Pr9 3.443464 1_555
Cd60 Pr3 3.443468 1_555
Cd61 Cd74 2.930049 1_455
Cd61 Cd80 3.201198 1_555
Cd61 Cd82 3.201262 1_555
Cd61 Pr20 3.318027 1_555
Cd61 Pr17 3.377466 1_555
Cd61 Pr4 3.443425 1_555
Cd61 Pr1 3.443468 1_555
Cd62 Cd72 2.930012 1_455
Cd62 Cd87 3.201224 1_555
Cd62 Cd80 3.201263 1_555
Cd62 Pr20 3.318025 1_555
Cd62 Pr15 3.377489 1_555
Cd62 Pr11 3.443414 1_565
Cd62 Pr2 3.443422 1_565
Cd63 Cd76 2.930023 1_455
Cd63 Cd87 3.201078 1_555
Cd63 Cd82 3.201240 1_555
Cd63 Pr20 3.318005 1_555
Cd63 Pr14 3.377489 1_555
Cd63 Pr6 3.443398 1_556
Cd63 Pr12 3.443447 1_556
Cd64 Cd74 2.930078 1_555
Cd64 Cd79 3.201258 1_555
Cd64 Cd83 3.201279 1_555
Cd64 Pr21 3.318073 1_555
Cd64 Pr16 3.377387 1_555
Cd64 Pr1 3.443462 1_655
Cd64 Pr4 3.443463 1_655
Cd65 Cd75 2.930080 1_555
Cd65 Cd84 3.201224 1_555
Cd65 Cd83 3.201294 1_555
Cd65 Pr21 3.318038 1_555
Cd65 Pr14 3.377403 1_555
Cd65 Pr8 3.443452 1_556
Cd65 Pr5 3.443468 1_556
Cd66 Cd73 2.930083 1_555
Cd66 Cd79 3.201175 1_555
Cd66 Cd84 3.201226 1_555
Cd66 Pr21 3.318047 1_555
Cd66 Pr15 3.377393 1_555
Cd66 Pr9 3.443456 1_565
Cd66 Pr3 3.443479 1_565
Cd67 Cd71 3.057989 1_555
Cd67 Cd68 3.058040 1_555
Cd67 Cd70 3.058061 1_555
Cd67 Cd69 3.058077 1_555
Cd67 Pr19 3.329122 1_565
Cd67 Pr20 3.329143 1_655
Cd67 Pr18 3.329203 1_556
Cd67 Pr21 3.329325 1_555
Cd68 Cd78 3.059364 1_565
Cd68 Cd80 3.059370 1_655
Cd68 Cd79 3.059538 1_555
Cd68 Cd72 3.071973 1_555
Cd68 Cd73 3.072073 1_555
Cd68 Cd74 3.072075 1_555
Cd69 Cd82 3.059399 1_655
Cd69 Cd81 3.059435 1_556
Cd69 Cd83 3.059530 1_555
Cd69 Cd76 3.071993 1_555
Cd69 Cd74 3.072030 1_555
Cd69 Cd75 3.072057 1_555
Cd70 Cd85 3.059392 1_565
Cd70 Cd86 3.059408 1_556
Cd70 Cd84 3.059541 1_555
Cd70 Cd77 3.071962 1_555
Cd70 Cd73 3.072022 1_555
Cd70 Cd75 3.072067 1_555
Cd71 Cd89 3.059325 1_565
Cd71 Cd87 3.059477 1_655
Cd71 Cd88 3.059529 1_556
Cd71 Cd72 3.072004 1_555
Cd71 Cd77 3.072036 1_555
Cd71 Cd76 3.072057 1_555
Cd72 Pr19 3.171162 1_565
Cd72 Pr20 3.171171 1_655
Cd72 Pr2 3.280176 1_665
Cd72 Pr11 3.280269 1_665
Cd73 Pr19 3.171116 1_565
Cd73 Pr21 3.171147 1_555
Cd73 Pr9 3.280290 1_565
Cd73 Pr3 3.280291 1_565
Cd74 Pr20 3.171121 1_655
Cd74 Pr21 3.171141 1_555
Cd74 Pr4 3.280269 1_655
Cd74 Pr1 3.280297 1_655
Cd75 Pr18 3.171106 1_556
Cd75 Pr21 3.171124 1_555
Cd75 Pr5 3.280302 1_556
Cd75 Pr8 3.280313 1_556
Cd76 Pr18 3.171152 1_556
Cd76 Pr20 3.171163 1_655
Cd76 Pr6 3.280173 1_656
Cd76 Pr12 3.280300 1_656
Cd77 Pr18 3.171147 1_556
Cd77 Pr19 3.171155 1_565
Cd77 Pr7 3.280189 1_566
Cd77 Pr10 3.280291 1_566
Cd78 Pr9 3.225824 1_555
Cd78 Pr11 3.225888 1_655
Cd78 Pr19 3.305975 1_555
Cd79 Pr9 3.225836 1_565
Cd79 Pr4 3.225922 1_655
Cd79 Pr21 3.305978 1_555
Cd80 Pr4 3.225808 1_555
Cd80 Pr11 3.225903 1_565
Cd80 Pr20 3.305996 1_555
Cd81 Pr12 3.225843 1_655
Cd81 Pr8 3.225868 1_555
Cd81 Pr18 3.306016 1_555
Cd82 Pr12 3.225855 1_556
Cd82 Pr1 3.225871 1_555
Cd82 Pr20 3.305987 1_555
Cd83 Cd9 3.129516 1_555
Cd83 Pr1 3.225828 1_655
Cd83 Pr8 3.225844 1_556
Cd83 Pr21 3.306063 1_555
Cd84 Pr5 3.225873 1_556
Cd84 Pr3 3.225886 1_565
Cd84 Pr21 3.305976 1_555
Cd85 Pr3 3.225835 1_555
Cd85 Pr10 3.225916 1_556
Cd85 Pr19 3.305965 1_555
Cd86 Pr10 3.225844 1_565
Cd86 Pr5 3.225860 1_555
Cd86 Pr18 3.306018 1_555
Cd87 Pr6 3.225805 1_556
Cd87 Pr2 3.225962 1_565
Cd87 Pr20 3.305974 1_555
Cd88 Pr7 3.225851 1_565
Cd88 Pr6 3.225953 1_655
Cd88 Pr18 3.305944 1_555
Cd89 Cd9 3.129334 1_555
Cd89 Pr7 3.225779 1_556
Cd89 Pr2 3.225871 1_655
Cd89 Pr19 3.305993 1_555
