# generated using pymatgen
data_TeMoWSe2S
_symmetry_space_group_name_H-M   'P 1'
_cell_length_a   3.34403589
_cell_length_b   3.34403589
_cell_length_c   38.05008900
_cell_angle_alpha   90.00000000
_cell_angle_beta   90.00000000
_cell_angle_gamma   119.99999782
_symmetry_Int_Tables_number   1
_chemical_formula_structural   TeMoWSe2S
_chemical_formula_sum   'Te2 Mo2 W2 Se4 S2'
_cell_volume   368.49209686
_cell_formula_units_Z   2
loop_
 _symmetry_equiv_pos_site_id
 _symmetry_equiv_pos_as_xyz
  1  'x, y, z'
loop_
 _atom_site_type_symbol
 _atom_site_label
 _atom_site_symmetry_multiplicity
 _atom_site_fract_x
 _atom_site_fract_y
 _atom_site_fract_z
 _atom_site_occupancy
  Te  Te0  1  0.33333300  0.66666700  0.70764400  1
  Te  Te1  1  0.33333300  0.66666700  0.60745500  1
  Mo  Mo0  1  0.33333300  0.66666700  0.46965900  1
  Mo  Mo1  1  0.66666700  0.33333300  0.28181600  1
  W  W0  1  0.33333300  0.66666700  0.09392300  1
  W  W1  1  0.66666700  0.33333300  0.65757500  1
  Se  Se0  1  0.33333300  0.66666700  0.32553500  1
  Se  Se1  1  0.66666700  0.33333300  0.42589000  1
  Se  Se2  1  0.66666700  0.33333300  0.51338200  1
  Se  Se3  1  0.33333300  0.66666700  0.23802300  1
  S  S0  1  0.66666700  0.33333300  0.05388900  1
  S  S1  1  0.66666700  0.33333300  0.13395700  1
loop_
_geom_bond_atom_site_label_1
_geom_bond_atom_site_label_2
_geom_bond_distance
_geom_bond_site_symmetry_2
Te0 W1 2.712386 1_455
Te0 W1 2.712386 1_565
Te0 W1 2.712390 1_555
Te1 W1 2.713749 1_455
Te1 W1 2.713749 1_565
Te1 W1 2.713753 1_555
Mo0 Se2 2.548587 1_455
Mo0 Se2 2.548587 1_565
Mo0 Se2 2.548591 1_555
Mo0 Se1 2.549730 1_455
Mo0 Se1 2.549730 1_565
Mo0 Se1 2.549734 1_555
Mo1 Se0 2.548488 1_545
Mo1 Se0 2.548488 1_655
Mo1 Se0 2.548492 1_555
Mo1 Se3 2.550327 1_545
Mo1 Se3 2.550327 1_655
Mo1 Se3 2.550331 1_555
S0 W0 2.459259 1_545
S0 W0 2.459259 1_655
S0 W0 2.459263 1_555
S1 W0 2.459259 1_545
S1 W0 2.459259 1_655
S1 W0 2.459263 1_555
