# generated using pymatgen
data_U2Hg5(AsO9)2
_symmetry_space_group_name_H-M   'P 1'
_cell_length_a   7.00771700
_cell_length_b   7.21414930
_cell_length_c   9.71242969
_cell_angle_alpha   105.57635350
_cell_angle_beta   109.30045128
_cell_angle_gamma   95.10954676
_symmetry_Int_Tables_number   1
_chemical_formula_structural   U2Hg5(AsO9)2
_chemical_formula_sum   'U2 Hg5 As2 O18'
_cell_volume   437.77277532
_cell_formula_units_Z   1
loop_
 _symmetry_equiv_pos_site_id
 _symmetry_equiv_pos_as_xyz
  1  'x, y, z'
loop_
 _atom_site_type_symbol
 _atom_site_label
 _atom_site_symmetry_multiplicity
 _atom_site_fract_x
 _atom_site_fract_y
 _atom_site_fract_z
 _atom_site_occupancy
  U  U0  1  0.62898600  0.00341900  0.21066400  1
  U  U1  1  0.37101400  0.99658100  0.78933600  1
  Hg  Hg0  1  0.00000000  0.50000000  0.50000000  1
  Hg  Hg1  1  0.92741100  0.26801400  0.04339500  1
  Hg  Hg2  1  0.07258900  0.73198600  0.95660500  1
  Hg  Hg3  1  0.39229000  0.57091000  0.31149900  1
  Hg  Hg4  1  0.60771000  0.42909000  0.68850100  1
  As  As0  1  0.77299600  0.93655900  0.60426300  1
  As  As1  1  0.22700400  0.06344100  0.39573700  1
  O  O0  1  0.78831000  0.04156300  0.46931600  1
  O  O1  1  0.21169000  0.95843700  0.53068400  1
  O  O2  1  0.00649800  0.93046100  0.73305700  1
  O  O3  1  0.99350200  0.06953900  0.26694300  1
  O  O4  1  0.64282700  0.07149600  0.70525000  1
  O  O5  1  0.35717300  0.92850400  0.29475000  1
  O  O6  1  0.64974800  0.68806800  0.52012500  1
  O  O7  1  0.35025200  0.31193200  0.47987500  1
  O  O8  1  0.04329900  0.55073400  0.31854900  1
  O  O9  1  0.95670100  0.44926600  0.68145100  1
  O  O10  1  0.19420000  0.44733000  0.08081700  1
  O  O11  1  0.80580000  0.55267000  0.91918300  1
  O  O12  1  0.67871600  0.05807600  0.99878600  1
  O  O13  1  0.32128400  0.94192400  0.00121400  1
  O  O14  1  0.62516000  0.73974600  0.16268800  1
  O  O15  1  0.37484000  0.26025400  0.83731200  1
  O  O16  1  0.61815800  0.26670700  0.26946100  1
  O  O17  1  0.38184200  0.73329300  0.73053900  1
loop_
_geom_bond_atom_site_label_1
_geom_bond_atom_site_label_2
_geom_bond_distance
_geom_bond_site_symmetry_2
Hg0 O8 2.002983 1_555
Hg0 O9 2.002983 1_455
Hg1 O10 2.041664 1_655
Hg1 O12 2.048684 1_554
Hg2 O11 2.041664 1_455
Hg2 O13 2.048684 1_556
Hg3 O10 2.095821 1_555
Hg3 O6 2.113585 1_555
Hg3 O8 2.461631 1_555
Hg3 O5 2.655947 1_555
Hg4 O11 2.095821 1_555
Hg4 O7 2.113585 1_555
Hg4 O9 2.461631 1_555
Hg4 O4 2.655947 1_555
As0 O0 1.707304 1_565
As0 O2 1.712754 1_655
As0 O4 1.725851 1_565
As0 O6 1.760191 1_555
As1 O1 1.707304 1_545
As1 O3 1.712754 1_455
As1 O5 1.725851 1_545
As1 O7 1.760191 1_555
O0 U0 2.313669 1_555
O1 U1 2.313669 1_555
O2 U1 2.402362 1_555
O3 U0 2.402362 1_555
O4 U1 2.381021 1_545
O5 U0 2.381021 1_565
O12 U0 2.323151 1_556
O12 U1 2.330222 1_545
O13 U1 2.323151 1_554
O13 U0 2.330222 1_565
O14 U0 1.828323 1_565
O15 U1 1.828323 1_545
O16 U0 1.846993 1_555
O17 U1 1.846993 1_555
