# generated using pymatgen
data_Mg5Si6
_symmetry_space_group_name_H-M   'P 1'
_cell_length_a   14.63216244
_cell_length_b   14.63216244
_cell_length_c   6.83920376
_cell_angle_alpha   86.74750887
_cell_angle_beta   86.74750887
_cell_angle_gamma   16.33797944
_symmetry_Int_Tables_number   1
_chemical_formula_structural   Mg5Si6
_chemical_formula_sum   'Mg10 Si12'
_cell_volume   411.22750855
_cell_formula_units_Z   2
loop_
 _symmetry_equiv_pos_site_id
 _symmetry_equiv_pos_as_xyz
  1  'x, y, z'
loop_
 _atom_site_type_symbol
 _atom_site_label
 _atom_site_symmetry_multiplicity
 _atom_site_fract_x
 _atom_site_fract_y
 _atom_site_fract_z
 _atom_site_occupancy
  Mg  Mg0  1  0.36786700  0.36786700  0.15977500  1
  Mg  Mg1  1  0.63213300  0.63213300  0.84022500  1
  Mg  Mg2  1  0.20163300  0.20163300  0.01250900  1
  Mg  Mg3  1  0.04269500  0.04269500  0.67639100  1
  Mg  Mg4  1  0.95730500  0.95730500  0.32360900  1
  Mg  Mg5  1  0.79836700  0.79836700  0.98749100  1
  Mg  Mg6  1  0.16329300  0.16329300  0.51825800  1
  Mg  Mg7  1  0.08129700  0.08129700  0.17244700  1
  Mg  Mg8  1  0.91870300  0.91870300  0.82755300  1
  Mg  Mg9  1  0.83670700  0.83670700  0.48174200  1
  Si  Si0  1  0.34567500  0.34567500  0.78593200  1
  Si  Si1  1  0.40041100  0.40041100  0.51285400  1
  Si  Si2  1  0.59958900  0.59958900  0.48714600  1
  Si  Si3  1  0.65432500  0.65432500  0.21406800  1
  Si  Si4  1  0.27490900  0.27490900  0.29194600  1
  Si  Si5  1  0.45826000  0.45826000  0.02319500  1
  Si  Si6  1  0.47403600  0.47403600  0.65754100  1
  Si  Si7  1  0.72509100  0.72509100  0.70805400  1
  Si  Si8  1  0.26995600  0.26995600  0.65787200  1
  Si  Si9  1  0.52596400  0.52596400  0.34245900  1
  Si  Si10  1  0.54174000  0.54174000  0.97680500  1
  Si  Si11  1  0.73004400  0.73004400  0.34212800  1
loop_
_geom_bond_atom_site_label_1
_geom_bond_atom_site_label_2
_geom_bond_distance
_geom_bond_site_symmetry_2
Mg0 Si1 2.642126 1_555
Mg0 Si0 2.671859 1_554
Mg0 Si5 2.729181 1_555
Mg0 Si4 2.790876 1_555
Mg1 Si2 2.642126 1_555
Mg1 Si3 2.671859 1_556
Mg1 Si10 2.729181 1_555
Mg1 Si7 2.790876 1_555
Mg2 Si3 2.807929 1_455
Mg2 Si3 2.807929 1_545
Mg2 Si4 2.936482 1_555
Mg2 Si7 2.992994 1_544
Mg2 Si7 2.992994 1_454
Mg2 Si8 3.041290 1_554
Mg3 Si6 2.885205 1_455
Mg3 Si6 2.885205 1_545
Mg3 Si2 2.910253 1_455
Mg3 Si2 2.910253 1_545
Mg3 Si10 2.922052 1_455
Mg3 Si10 2.922052 1_545
Mg3 Si9 3.146496 1_455
Mg3 Si9 3.146496 1_545
Mg4 Si9 2.885205 1_565
Mg4 Si9 2.885205 1_655
Mg4 Si1 2.910253 1_655
Mg4 Si1 2.910253 1_565
Mg4 Si5 2.922052 1_655
Mg4 Si5 2.922052 1_565
Mg4 Si6 3.146496 1_565
Mg4 Si6 3.146496 1_655
Mg5 Si0 2.807929 1_655
Mg5 Si0 2.807929 1_565
Mg5 Si7 2.936482 1_555
Mg5 Si4 2.992994 1_566
Mg5 Si4 2.992994 1_656
Mg5 Si11 3.041290 1_556
Mg6 Si2 2.796131 1_455
Mg6 Si2 2.796131 1_545
Mg6 Si3 2.963168 1_455
Mg6 Si3 2.963168 1_545
Mg6 Si11 3.040663 1_545
Mg6 Si11 3.040663 1_455
Mg6 Si7 3.078743 1_545
Mg6 Si7 3.078743 1_455
Mg7 Si10 2.757152 1_454
Mg7 Si10 2.757152 1_544
Mg7 Si9 2.833770 1_545
Mg7 Si9 2.833770 1_455
Mg7 Si3 2.991302 1_455
Mg7 Si3 2.991302 1_545
Mg7 Si2 3.060497 1_545
Mg7 Si2 3.060497 1_455
Mg8 Si5 2.757152 1_566
Mg8 Si5 2.757152 1_656
Mg8 Si6 2.833770 1_655
Mg8 Si6 2.833770 1_565
Mg8 Si0 2.991302 1_655
Mg8 Si0 2.991302 1_565
Mg8 Si1 3.060497 1_655
Mg8 Si1 3.060497 1_565
Mg9 Si1 2.796131 1_565
Mg9 Si1 2.796131 1_655
Mg9 Si0 2.963168 1_565
Mg9 Si0 2.963168 1_655
Mg9 Si8 3.040663 1_565
Mg9 Si8 3.040663 1_655
Mg9 Si4 3.078743 1_565
Mg9 Si4 3.078743 1_655
Si0 Si1 2.379621 1_555
Si0 Si8 2.407949 1_555
Si1 Si6 2.402007 1_555
Si2 Si3 2.379621 1_555
Si2 Si9 2.402007 1_555
Si4 Si8 2.498528 1_555
Si5 Si6 2.516295 1_554
Si6 Si9 2.556311 1_555
Si7 Si8 2.465453 1_655
Si7 Si8 2.465453 1_565
Si10 Si5 2.420824 1_556
Si10 Si9 2.516295 1_556
Si11 Si3 2.407949 1_555
Si11 Si4 2.465453 1_655
Si11 Si4 2.465453 1_565
Si11 Si7 2.498528 1_555
