# generated using pymatgen
data_K2MgNb2P2(CO7)2
_symmetry_space_group_name_H-M   'P 1'
_cell_length_a   9.62831253
_cell_length_b   6.78183470
_cell_length_c   5.39444059
_cell_angle_alpha   84.69226676
_cell_angle_beta   87.06369460
_cell_angle_gamma   86.31756155
_symmetry_Int_Tables_number   1
_chemical_formula_structural   K2MgNb2P2(CO7)2
_chemical_formula_sum   'K2 Mg1 Nb2 P2 C2 O14'
_cell_volume   349.64600047
_cell_formula_units_Z   1
loop_
 _symmetry_equiv_pos_site_id
 _symmetry_equiv_pos_as_xyz
  1  'x, y, z'
loop_
 _atom_site_type_symbol
 _atom_site_label
 _atom_site_symmetry_multiplicity
 _atom_site_fract_x
 _atom_site_fract_y
 _atom_site_fract_z
 _atom_site_occupancy
  K  K0  1  0.19557000  0.47550900  0.29691900  1
  K  K1  1  0.77236900  0.92760800  0.76884100  1
  Mg  Mg0  1  0.21491100  0.97825300  0.17624500  1
  Nb  Nb0  1  0.36459000  0.77582000  0.78615600  1
  Nb  Nb1  1  0.65410000  0.27137700  0.22140100  1
  P  P0  1  0.41759000  0.27128000  0.74491800  1
  P  P1  1  0.57219900  0.77117900  0.30192800  1
  C  C0  1  0.09906700  0.77584900  0.69668900  1
  C  C1  1  0.92312200  0.20254100  0.23612400  1
  O  O0  1  0.05538200  0.16324200  0.25166100  1
  O  O1  1  0.14450300  0.79471900  0.92593000  1
  O  O2  1  0.19694600  0.81895400  0.51585900  1
  O  O3  1  0.32572200  0.09639600  0.85587000  1
  O  O4  1  0.32776300  0.46683400  0.78013100  1
  O  O5  1  0.42606100  0.79560800  0.18375900  1
  O  O6  1  0.45250200  0.25131900  0.46435800  1
  O  O7  1  0.55543300  0.75958400  0.59230600  1
  O  O8  1  0.55243700  0.26611800  0.88870100  1
  O  O9  1  0.66168400  0.94871300  0.22107400  1
  O  O10  1  0.64906100  0.57774900  0.22119800  1
  O  O11  1  0.83971200  0.21225500  0.43616800  1
  O  O12  1  0.86180300  0.23745800  0.02695600  1
  O  O13  1  0.98747300  0.70941700  0.65680900  1
loop_
_geom_bond_atom_site_label_1
_geom_bond_atom_site_label_2
_geom_bond_distance
_geom_bond_site_symmetry_2
K0 O0 2.619719 1_555
K0 O2 2.708265 1_555
K0 O1 2.845330 1_554
K0 O4 2.952974 1_555
K0 O6 2.956183 1_555
K0 O4 3.008720 1_554
K0 O13 3.172218 1_455
K0 O5 3.200806 1_555
K1 O13 2.547119 1_555
K1 O11 2.601566 1_565
K1 O9 2.624166 1_556
K1 O7 2.697860 1_555
K1 O12 2.827100 1_566
K1 O8 3.111655 1_565
K1 O9 3.180004 1_555
Mg0 O0 1.970178 1_565
Mg0 O2 2.044197 1_555
Mg0 O1 2.084536 1_554
Mg0 O3 2.105190 1_564
Mg0 O5 2.311879 1_555
Nb0 O7 2.068933 1_555
Nb0 O4 2.151069 1_555
Nb0 O1 2.212394 1_555
Nb0 O2 2.217792 1_555
Nb0 O3 2.245105 1_565
Nb0 O5 2.272044 1_556
Nb1 O10 2.075113 1_555
Nb1 O8 2.092074 1_554
Nb1 O11 2.175079 1_555
Nb1 O9 2.184941 1_545
Nb1 O12 2.218808 1_555
Nb1 O6 2.290020 1_555
C0 O13 1.227812 1_455
C0 O2 1.346698 1_555
C0 O1 1.352368 1_555
C1 O0 1.289540 1_655
C1 O12 1.295633 1_555
C1 O11 1.315821 1_555
O3 P0 1.580030 1_555
O4 P0 1.557366 1_555
O5 P1 1.567173 1_555
O6 P0 1.549784 1_555
O7 P1 1.561688 1_555
O8 P0 1.542999 1_555
O9 P1 1.542660 1_555
O10 P1 1.551176 1_555
