# generated using pymatgen
data_La2FeAs2RuO2
_symmetry_space_group_name_H-M   'P 1'
_cell_length_a   4.05003600
_cell_length_b   4.05003600
_cell_length_c   9.09766300
_cell_angle_alpha   90.00000000
_cell_angle_beta   90.00000000
_cell_angle_gamma   90.00000000
_symmetry_Int_Tables_number   1
_chemical_formula_structural   La2FeAs2RuO2
_chemical_formula_sum   'La2 Fe1 As2 Ru1 O2'
_cell_volume   149.22707025
_cell_formula_units_Z   1
loop_
 _symmetry_equiv_pos_site_id
 _symmetry_equiv_pos_as_xyz
  1  'x, y, z'
loop_
 _atom_site_type_symbol
 _atom_site_label
 _atom_site_symmetry_multiplicity
 _atom_site_fract_x
 _atom_site_fract_y
 _atom_site_fract_z
 _atom_site_occupancy
  La  La0  1  0.50000000  0.00000000  0.86386100  1
  La  La1  1  0.00000000  0.50000000  0.13613900  1
  Fe  Fe0  1  0.50000000  0.50000000  0.50000000  1
  As  As0  1  0.50000000  0.00000000  0.33259000  1
  As  As1  1  0.00000000  0.50000000  0.66741000  1
  Ru  Ru0  1  0.00000000  0.00000000  0.50000000  1
  O  O0  1  0.50000000  0.50000000  0.00000000  1
  O  O1  1  0.00000000  0.00000000  0.00000000  1
loop_
_geom_bond_atom_site_label_1
_geom_bond_atom_site_label_2
_geom_bond_distance
_geom_bond_site_symmetry_2
La0 O0 2.373751 1_546
La0 O0 2.373751 1_556
La0 O1 2.373751 1_556
La0 O1 2.373751 1_656
La1 O0 2.373751 1_455
La1 O1 2.373751 1_555
La1 O0 2.373751 1_555
La1 O1 2.373751 1_565
Fe0 Ru0 2.863808 1_565
Fe0 Ru0 2.863808 1_655
Fe0 Ru0 2.863808 1_555
Fe0 Ru0 2.863808 1_665
As0 Ru0 2.533841 1_655
As0 Fe0 2.533841 1_545
As0 Ru0 2.533841 1_555
As0 Fe0 2.533841 1_555
As0 La1 3.375743 1_555
As0 La1 3.375743 1_545
As0 La1 3.375743 1_645
As0 La1 3.375743 1_655
As1 Ru0 2.533841 1_555
As1 Fe0 2.533841 1_455
As1 Fe0 2.533841 1_555
As1 Ru0 2.533841 1_565
As1 La0 3.375743 1_455
As1 La0 3.375743 1_555
As1 La0 3.375743 1_465
As1 La0 3.375743 1_565
