# generated using pymatgen
data_Tl5NO5
_symmetry_space_group_name_H-M   'P 1'
_cell_length_a   11.55437300
_cell_length_b   3.92223600
_cell_length_c   5.64442317
_cell_angle_alpha   86.06978225
_cell_angle_beta   90.00000000
_cell_angle_gamma   90.00000000
_symmetry_Int_Tables_number   1
_chemical_formula_structural   Tl5NO5
_chemical_formula_sum   'Tl5 N1 O5'
_cell_volume   255.19791617
_cell_formula_units_Z   1
loop_
 _symmetry_equiv_pos_site_id
 _symmetry_equiv_pos_as_xyz
  1  'x, y, z'
loop_
 _atom_site_type_symbol
 _atom_site_label
 _atom_site_symmetry_multiplicity
 _atom_site_fract_x
 _atom_site_fract_y
 _atom_site_fract_z
 _atom_site_occupancy
  Tl  Tl0  1  0.00000000  0.58471100  0.30124000  1
  Tl  Tl1  1  0.67358300  0.61281600  0.31707400  1
  Tl  Tl2  1  0.83058700  0.08127500  0.78080100  1
  Tl  Tl3  1  0.32641700  0.61281600  0.31707400  1
  Tl  Tl4  1  0.16941300  0.08127500  0.78080100  1
  N  N0  1  0.50000000  0.01980200  0.89405200  1
  O  O0  1  0.50000000  0.91934600  0.65415200  1
  O  O1  1  0.84142600  0.55005200  0.03523100  1
  O  O2  1  0.50000000  0.32506600  0.91340900  1
  O  O3  1  0.15857400  0.55005200  0.03523100  1
  O  O4  1  0.50000000  0.17979000  0.47093400  1
loop_
_geom_bond_atom_site_label_1
_geom_bond_atom_site_label_2
_geom_bond_distance
_geom_bond_site_symmetry_2
N0 O2 1.209727 1_555
N0 O0 1.435954 1_545
O0 O4 1.402918 1_565
O1 Tl0 2.378635 1_655
O1 Tl2 2.412616 1_554
O1 Tl2 2.451372 1_564
O1 Tl1 2.531013 1_555
O3 Tl0 2.378635 1_555
O3 Tl4 2.412616 1_554
O3 Tl4 2.451372 1_564
O3 Tl3 2.531013 1_555
O4 Tl1 2.731168 1_555
O4 Tl3 2.731168 1_555
