# generated using pymatgen
data_Hf6Ga2Co
_symmetry_space_group_name_H-M   'P 1'
_cell_length_a   3.31563130
_cell_length_b   7.70877792
_cell_length_c   7.70867462
_cell_angle_alpha   119.99957174
_cell_angle_beta   90.00000000
_cell_angle_gamma   90.00000000
_symmetry_Int_Tables_number   1
_chemical_formula_structural   Hf6Ga2Co
_chemical_formula_sum   'Hf6 Ga2 Co1'
_cell_volume   170.63337687
_cell_formula_units_Z   1
loop_
 _symmetry_equiv_pos_site_id
 _symmetry_equiv_pos_as_xyz
  1  'x, y, z'
loop_
 _atom_site_type_symbol
 _atom_site_label
 _atom_site_symmetry_multiplicity
 _atom_site_fract_x
 _atom_site_fract_y
 _atom_site_fract_z
 _atom_site_occupancy
  Hf  Hf0  1  0.00000000  0.24845014  0.00001671  1
  Hf  Hf1  1  0.00000000  0.75153011  0.75155762  1
  Hf  Hf2  1  0.00000000  0.99998915  0.24843172  1
  Hf  Hf3  1  0.50000000  0.59912206  0.99999238  1
  Hf  Hf4  1  0.50000000  0.40085813  0.40086196  1
  Hf  Hf5  1  0.50000000  0.99998863  0.59916332  1
  Ga  Ga0  1  0.00000000  0.33331928  0.66666124  1
  Ga  Ga1  1  0.00000000  0.66664830  0.33332830  1
  Co  Co0  1  0.50000000  0.99999220  0.99998577  1
loop_
_geom_bond_atom_site_label_1
_geom_bond_atom_site_label_2
_geom_bond_distance
_geom_bond_site_symmetry_2
Ga0 Hf3 2.878263 1_455
Ga0 Hf3 2.878263 1_555
Ga0 Hf4 2.878267 1_555
Ga0 Hf4 2.878267 1_455
Ga0 Hf5 2.878334 1_545
Ga0 Hf5 2.878334 1_445
Ga0 Hf1 2.951605 1_555
Ga0 Hf2 2.951721 1_545
Ga0 Hf0 2.951732 1_556
Ga1 Hf4 2.878207 1_555
Ga1 Hf4 2.878207 1_455
Ga1 Hf3 2.878279 1_454
Ga1 Hf3 2.878279 1_554
Ga1 Hf5 2.878378 1_455
Ga1 Hf5 2.878378 1_555
Ga1 Hf0 2.951533 1_555
Ga1 Hf1 2.951736 1_555
Ga1 Hf2 2.951789 1_555
Co0 Hf0 2.533041 1_566
Co0 Hf0 2.533041 1_666
Co0 Hf2 2.533051 1_656
Co0 Hf2 2.533051 1_556
Co0 Hf1 2.533056 1_655
Co0 Hf1 2.533056 1_555
Co0 Hf5 3.089796 1_555
Co0 Hf4 3.090225 1_566
Co0 Hf3 3.090244 1_555
