# generated using pymatgen
data_LiBi3PbWClO8
_symmetry_space_group_name_H-M   'P 1'
_cell_length_a   3.93244500
_cell_length_b   3.93244500
_cell_length_c   15.37268800
_cell_angle_alpha   90.00000000
_cell_angle_beta   90.00000000
_cell_angle_gamma   90.00000000
_symmetry_Int_Tables_number   1
_chemical_formula_structural   LiBi3PbWClO8
_chemical_formula_sum   'Li1 Bi3 Pb1 W1 Cl1 O8'
_cell_volume   237.72514850
_cell_formula_units_Z   1
loop_
 _symmetry_equiv_pos_site_id
 _symmetry_equiv_pos_as_xyz
  1  'x, y, z'
loop_
 _atom_site_type_symbol
 _atom_site_label
 _atom_site_symmetry_multiplicity
 _atom_site_fract_x
 _atom_site_fract_y
 _atom_site_fract_z
 _atom_site_occupancy
  Li  Li0  1  0.00000000  0.00000000  0.23947200  1
  Bi  Bi0  1  0.50000000  0.50000000  0.19863000  1
  Bi  Bi1  1  0.00000000  0.00000000  0.39871600  1
  Bi  Bi2  1  0.00000000  0.00000000  0.64349700  1
  Pb  Pb0  1  0.50000000  0.50000000  0.80987400  1
  W  W0  1  0.00000000  0.00000000  0.99726100  1
  Cl  Cl0  1  0.50000000  0.50000000  0.47848400  1
  O  O0  1  0.00000000  0.00000000  0.12774700  1
  O  O1  1  0.50000000  0.00000000  0.00276900  1
  O  O2  1  0.00000000  0.50000000  0.00276900  1
  O  O3  1  0.00000000  0.00000000  0.87628900  1
  O  O4  1  0.50000000  0.00000000  0.70923100  1
  O  O5  1  0.00000000  0.50000000  0.70923100  1
  O  O6  1  0.50000000  0.00000000  0.28427400  1
  O  O7  1  0.00000000  0.50000000  0.28427400  1
loop_
_geom_bond_atom_site_label_1
_geom_bond_atom_site_label_2
_geom_bond_distance
_geom_bond_site_symmetry_2
Li0 O0 1.717514 1_555
Li0 O7 2.083357 1_555
Li0 O6 2.083357 1_455
Li0 O7 2.083357 1_545
Li0 O6 2.083357 1_555
Bi0 O6 2.366307 1_565
Bi0 O7 2.366307 1_655
Bi0 O7 2.366307 1_555
Bi0 O6 2.366307 1_555
Bi1 Li0 2.448008 1_555
Bi1 O7 2.638390 1_555
Bi1 O6 2.638390 1_455
Bi1 O7 2.638390 1_545
Bi1 O6 2.638390 1_555
Bi1 Cl0 3.039037 1_555
Bi1 Cl0 3.039037 1_455
Bi1 Cl0 3.039037 1_445
Bi1 Cl0 3.039037 1_545
Bi2 O4 2.210692 1_455
Bi2 O5 2.210692 1_545
Bi2 O4 2.210692 1_555
Bi2 O5 2.210692 1_555
O0 W0 2.005921 1_554
O1 W0 1.968045 1_554
O1 W0 1.968045 1_654
O2 W0 1.968045 1_554
O2 W0 1.968045 1_564
O3 W0 1.859665 1_555
O4 Pb0 2.501942 1_555
O4 Pb0 2.501942 1_545
O5 Pb0 2.501942 1_555
O5 Pb0 2.501942 1_455
