# generated using pymatgen
data_MgO
_symmetry_space_group_name_H-M   'P 1'
_cell_length_a   10.36242297
_cell_length_b   9.00632613
_cell_length_c   10.17451277
_cell_angle_alpha   96.13607717
_cell_angle_beta   88.32727291
_cell_angle_gamma   90.70177381
_symmetry_Int_Tables_number   1
_chemical_formula_structural   MgO
_chemical_formula_sum   'Mg40 O40'
_cell_volume   943.67811452
_cell_formula_units_Z   40
loop_
 _symmetry_equiv_pos_site_id
 _symmetry_equiv_pos_as_xyz
  1  'x, y, z'
loop_
 _atom_site_type_symbol
 _atom_site_label
 _atom_site_symmetry_multiplicity
 _atom_site_fract_x
 _atom_site_fract_y
 _atom_site_fract_z
 _atom_site_occupancy
  Mg  Mg0  1  0.25049000  0.59038900  0.74896100  1
  Mg  Mg1  1  0.99265200  0.58000800  0.92130100  1
  Mg  Mg2  1  0.92582100  0.31926300  0.06729500  1
  Mg  Mg3  1  0.44083700  0.64504200  0.28443600  1
  Mg  Mg4  1  0.58938200  0.63834800  0.06483500  1
  Mg  Mg5  1  0.43415300  0.77813100  0.89439200  1
  Mg  Mg6  1  0.39497800  0.08120100  0.05483600  1
  Mg  Mg7  1  0.69632900  0.62475900  0.81799100  1
  Mg  Mg8  1  0.51991900  0.12020900  0.77504800  1
  Mg  Mg9  1  0.90839700  0.98462500  0.85350800  1
  Mg  Mg10  1  0.11609100  0.25537100  0.84940200  1
  Mg  Mg11  1  0.48372700  0.41966800  0.80007200  1
  Mg  Mg12  1  0.85957400  0.69458900  0.58142300  1
  Mg  Mg13  1  0.47684000  0.29423800  0.30362600  1
  Mg  Mg14  1  0.77474300  0.28779700  0.79024300  1
  Mg  Mg15  1  0.01279900  0.58845600  0.27778200  1
  Mg  Mg16  1  0.73530700  0.97197500  0.61141800  1
  Mg  Mg17  1  0.67105600  0.99741200  0.97593600  1
  Mg  Mg18  1  0.74519300  0.10609600  0.23331500  1
  Mg  Mg19  1  0.21441900  0.97799300  0.31818200  1
  Mg  Mg20  1  0.50722400  0.51419200  0.56418800  1
  Mg  Mg21  1  0.98847400  0.99409200  0.15467900  1
  Mg  Mg22  1  0.44703600  0.80808600  0.62292400  1
  Mg  Mg23  1  0.22636300  0.74341000  0.10203500  1
  Mg  Mg24  1  0.95635000  0.31761500  0.38696900  1
  Mg  Mg25  1  0.84285100  0.75026500  0.09002500  1
  Mg  Mg26  1  0.22503600  0.44803600  0.51197600  1
  Mg  Mg27  1  0.47354700  0.01733600  0.41661900  1
  Mg  Mg28  1  0.28906500  0.16082500  0.58161400  1
  Mg  Mg29  1  0.01832000  0.08999800  0.54912700  1
  Mg  Mg30  1  0.54803300  0.32853000  0.04897500  1
  Mg  Mg31  1  0.73557400  0.48999000  0.31371000  1
  Mg  Mg32  1  0.98234900  0.42599100  0.66356800  1
  Mg  Mg33  1  0.28855300  0.42918000  0.03137700  1
  Mg  Mg34  1  0.22479600  0.74423600  0.43700000  1
  Mg  Mg35  1  0.16831600  0.92600400  0.92007500  1
  Mg  Mg36  1  0.70785100  0.82172800  0.36159300  1
  Mg  Mg37  1  0.11203200  0.85393700  0.66914800  1
  Mg  Mg38  1  0.18437300  0.25839000  0.24166700  1
  Mg  Mg39  1  0.69113800  0.25762700  0.51493900  1
  O  O0  1  0.83103000  0.90355600  0.23695200  1
  O  O1  1  0.40761800  0.27195600  0.91941500  1
  O  O2  1  0.63901000  0.45947300  0.93888600  1
  O  O3  1  0.66454600  0.05114400  0.42314100  1
  O  O4  1  0.61324900  0.30197500  0.69194000  1
  O  O5  1  0.66281700  0.77356400  0.55052400  1
  O  O6  1  0.44207400  0.02922400  0.61171700  1
  O  O7  1  0.13155000  0.75573200  0.27062700  1
  O  O8  1  0.51488300  0.63798400  0.74962100  1
  O  O9  1  0.86688700  0.59125800  0.74436500  1
  O  O10  1  0.18517000  0.55766900  0.92722700  1
  O  O11  1  0.82802200  0.30433500  0.24845800  1
  O  O12  1  0.35517900  0.40923700  0.65309700  1
  O  O13  1  0.13730700  0.28636400  0.05686300  1
  O  O14  1  0.00088000  0.82348300  0.97752900  1
  O  O15  1  0.37492100  0.62607400  0.47912500  1
  O  O16  1  0.12800200  0.27896200  0.62620100  1
  O  O17  1  0.41157700  0.42494900  0.18247100  1
  O  O18  1  0.11963300  0.62287100  0.61109100  1
  O  O19  1  0.40450800  0.67647100  0.05608300  1
  O  O20  1  0.28252600  0.80929700  0.78010800  1
  O  O21  1  0.72683200  0.06773700  0.79708300  1
  O  O22  1  0.37974100  0.85322400  0.32698800  1
  O  O23  1  0.92018200  0.55373400  0.10500200  1
  O  O24  1  0.49371700  0.97936900  0.91046900  1
  O  O25  1  0.33515600  0.17712200  0.37277900  1
  O  O26  1  0.87525300  0.25620700  0.56229000  1
  O  O27  1  0.91895300  0.90694700  0.62750400  1
  O  O28  1  0.56567600  0.15085100  0.14974000  1
  O  O29  1  0.17970000  0.95654000  0.51875500  1
  O  O30  1  0.63418800  0.65022700  0.24787000  1
  O  O31  1  0.05614200  0.11775000  0.31833300  1
  O  O32  1  0.23302300  0.97403500  0.09900300  1
  O  O33  1  0.85162500  0.09254000  0.03655300  1
  O  O34  1  0.59898100  0.39657200  0.42048400  1
  O  O35  1  0.12224000  0.43353200  0.35078000  1
  O  O36  1  0.69678200  0.77765900  0.97287200  1
  O  O37  1  0.94605400  0.35186100  0.85955900  1
  O  O38  1  0.08749400  0.04293100  0.80155200  1
  O  O39  1  0.88052400  0.56728800  0.41820900  1
loop_
_geom_bond_atom_site_label_1
_geom_bond_atom_site_label_2
_geom_bond_distance
_geom_bond_site_symmetry_2
Mg0 O10 1.967857 1_555
Mg0 O20 1.988520 1_555
Mg0 O18 2.024978 1_555
Mg0 O12 2.105096 1_555
Mg1 O10 2.010820 1_655
Mg1 O23 2.030176 1_556
Mg1 O37 2.137127 1_555
Mg1 O14 2.207505 1_655
Mg1 O9 2.264669 1_555
Mg2 O11 2.093624 1_555
Mg2 O23 2.106772 1_555
Mg2 O33 2.167379 1_555
Mg2 O37 2.168592 1_554
Mg2 O13 2.212999 1_655
Mg3 O22 1.985763 1_555
Mg3 O30 2.028017 1_555
Mg3 O15 2.100015 1_555
Mg3 O17 2.159044 1_555
Mg3 O19 2.411267 1_555
Mg4 O30 1.924011 1_555
Mg4 O19 1.956654 1_555
Mg4 O36 1.960686 1_554
Mg4 O2 2.010586 1_554
Mg5 O24 1.899391 1_555
Mg5 O19 1.981090 1_556
Mg5 O8 2.004775 1_555
Mg5 O20 2.021592 1_555
Mg6 O24 1.921675 1_544
Mg6 O32 1.989729 1_545
Mg6 O28 2.097078 1_555
Mg6 O1 2.314549 1_554
Mg7 O9 1.913983 1_555
Mg7 O36 1.978880 1_555
Mg7 O8 2.032947 1_555
Mg7 O2 2.099746 1_555
Mg8 O6 1.963355 1_555
Mg8 O24 1.981033 1_545
Mg8 O4 2.130647 1_555
Mg8 O1 2.211247 1_555
Mg8 O21 2.224046 1_555
Mg9 O38 1.994413 1_665
Mg9 O33 2.079015 1_566
Mg9 O21 2.149228 1_565
Mg9 O14 2.261225 1_655
Mg9 O27 2.330727 1_555
Mg10 O38 1.944471 1_555
Mg10 O37 1.969310 1_455
Mg10 O13 2.116936 1_556
Mg10 O16 2.302995 1_555
Mg11 O4 1.958242 1_555
Mg11 O12 2.025499 1_555
Mg11 O1 2.032231 1_555
Mg11 O8 2.103404 1_555
Mg11 O2 2.173207 1_555
Mg12 O39 1.922842 1_555
Mg12 O9 1.989774 1_555
Mg12 O27 2.013120 1_555
Mg12 O5 2.209644 1_555
Mg13 O34 1.920952 1_555
Mg13 O17 1.934206 1_555
Mg13 O25 1.955406 1_555
Mg13 O28 2.116435 1_555
Mg14 O37 1.985605 1_555
Mg14 O4 1.986814 1_555
Mg14 O21 2.045177 1_555
Mg14 O2 2.466860 1_555
Mg14 O26 2.504015 1_555
Mg15 O7 1.939593 1_555
Mg15 O39 1.973331 1_455
Mg15 O23 2.020620 1_455
Mg15 O35 2.023385 1_555
Mg16 O5 1.974572 1_555
Mg16 O21 1.990965 1_565
Mg16 O27 2.014259 1_555
Mg16 O3 2.258871 1_565
Mg17 O24 1.971826 1_555
Mg17 O36 1.997096 1_555
Mg17 O21 2.054921 1_565
Mg17 O33 2.128540 1_566
Mg17 O28 2.372993 1_566
Mg18 O11 1.964556 1_555
Mg18 O0 2.043559 1_545
Mg18 O28 2.128377 1_555
Mg18 O3 2.184851 1_555
Mg18 O33 2.249724 1_555
Mg19 O22 2.069597 1_555
Mg19 O31 2.079511 1_565
Mg19 O29 2.090714 1_555
Mg19 O7 2.180283 1_555
Mg19 O25 2.205196 1_565
Mg19 O32 2.229257 1_555
Mg20 O34 1.943302 1_555
Mg20 O15 1.983313 1_555
Mg20 O12 2.063325 1_555
Mg20 O8 2.089453 1_555
Mg21 O0 2.015188 1_555
Mg21 O31 2.038915 1_665
Mg21 O33 2.144702 1_565
Mg21 O14 2.241760 1_654
Mg21 O32 2.584729 1_655
Mg22 O6 2.008402 1_565
Mg22 O15 2.215248 1_555
Mg22 O8 2.237076 1_555
Mg22 O20 2.302482 1_555
Mg22 O5 2.347544 1_555
Mg23 O7 1.945145 1_555
Mg23 O19 1.976470 1_555
Mg23 O32 2.080878 1_555
Mg23 O10 2.352606 1_554
Mg24 O11 1.959132 1_555
Mg24 O35 2.044941 1_655
Mg24 O26 2.075103 1_555
Mg24 O31 2.128825 1_655
Mg24 O39 2.377118 1_555
Mg25 O0 1.925624 1_555
Mg25 O23 1.974304 1_555
Mg25 O36 1.987484 1_554
Mg25 O14 2.109982 1_654
Mg26 O35 1.973431 1_555
Mg26 O12 2.057741 1_555
Mg26 O18 2.080318 1_555
Mg26 O16 2.225542 1_555
Mg26 O15 2.262395 1_555
Mg27 O22 1.920827 1_545
Mg27 O6 1.993937 1_555
Mg27 O3 2.000746 1_555
Mg27 O25 2.133447 1_555
Mg28 O16 2.004878 1_555
Mg28 O6 2.040723 1_555
Mg28 O25 2.184060 1_555
Mg28 O29 2.195025 1_545
Mg28 O12 2.376434 1_555
Mg29 O29 2.067952 1_545
Mg29 O26 2.111048 1_455
Mg29 O16 2.126607 1_555
Mg29 O27 2.146076 1_445
Mg29 O31 2.408224 1_555
Mg30 O2 1.930722 1_554
Mg30 O28 2.003528 1_555
Mg30 O1 2.016101 1_554
Mg30 O17 2.064991 1_555
Mg31 O39 1.944374 1_555
Mg31 O11 1.979675 1_555
Mg31 O30 1.979923 1_555
Mg31 O34 1.991982 1_555
Mg32 O9 2.011822 1_555
Mg32 O16 2.020866 1_655
Mg32 O26 2.078464 1_555
Mg32 O37 2.190516 1_555
Mg32 O18 2.355681 1_655
Mg33 O10 1.992118 1_554
Mg33 O17 2.029305 1_555
Mg33 O13 2.043580 1_555
Mg33 O1 2.107353 1_554
Mg33 O19 2.509922 1_555
Mg34 O15 1.978205 1_555
Mg34 O7 1.986260 1_555
Mg34 O29 2.055606 1_555
Mg34 O22 2.210362 1_555
Mg34 O18 2.406618 1_555
Mg35 O38 1.901760 1_565
Mg35 O32 1.961318 1_556
Mg35 O20 2.036073 1_555
Mg35 O14 2.054647 1_555
Mg36 O0 1.965424 1_555
Mg36 O30 1.986926 1_555
Mg36 O5 2.054759 1_555
Mg36 O3 2.142985 1_565
Mg37 O29 1.977578 1_555
Mg37 O38 2.068125 1_565
Mg37 O18 2.103432 1_555
Mg37 O27 2.127596 1_455
Mg37 O20 2.188244 1_555
Mg38 O35 1.934929 1_555
Mg38 O13 1.998664 1_555
Mg38 O31 2.021883 1_555
Mg38 O25 2.261646 1_555
Mg39 O34 1.934287 1_555
Mg39 O4 1.955370 1_555
Mg39 O26 1.981878 1_555
Mg39 O3 2.009416 1_555
