# generated using pymatgen
data_SrPrMnO4
_symmetry_space_group_name_H-M   'P 1'
_cell_length_a   6.98422216
_cell_length_b   6.98422216
_cell_length_c   6.98422216
_cell_angle_alpha   147.85836731
_cell_angle_beta   147.85836731
_cell_angle_gamma   46.09448848
_symmetry_Int_Tables_number   1
_chemical_formula_structural   SrPrMnO4
_chemical_formula_sum   'Sr1 Pr1 Mn1 O4'
_cell_volume   96.09469440
_cell_formula_units_Z   1
loop_
 _symmetry_equiv_pos_site_id
 _symmetry_equiv_pos_as_xyz
  1  'x, y, z'
loop_
 _atom_site_type_symbol
 _atom_site_label
 _atom_site_symmetry_multiplicity
 _atom_site_fract_x
 _atom_site_fract_y
 _atom_site_fract_z
 _atom_site_occupancy
  Sr  Sr0  1  0.64486600  0.64486600  0.00000000  1
  Pr  Pr0  1  0.35836600  0.35836600  0.00000000  1
  Mn  Mn0  1  0.00336500  0.00336500  0.00000000  1
  O  O0  1  0.83252200  0.83252200  0.00000000  1
  O  O1  1  0.17585600  0.17585600  0.00000000  1
  O  O2  1  0.99251200  0.49251200  0.50000000  1
  O  O3  1  0.49251200  0.99251200  0.50000000  1
loop_
_geom_bond_atom_site_label_1
_geom_bond_atom_site_label_2
_geom_bond_distance
_geom_bond_site_symmetry_2
Mn0 O2 1.938435 1_444
Mn0 O3 1.938435 1_444
Mn0 O3 1.938435 1_545
Mn0 O2 1.938435 1_455
Mn0 O0 2.195933 1_445
Mn0 O1 2.217116 1_555
O0 Sr0 2.412039 1_555
O0 Pr0 2.754358 1_655
O0 Pr0 2.754358 1_666
O0 Pr0 2.754358 1_565
O0 Pr0 2.754358 1_554
O1 Pr0 2.345895 1_555
O1 Sr0 2.763116 1_556
O1 Sr0 2.763116 1_444
O1 Sr0 2.763116 1_545
O1 Sr0 2.763116 1_455
O2 Pr0 2.590579 1_656
O2 Pr0 2.590579 1_555
O2 Sr0 2.751899 1_656
O2 Sr0 2.751899 1_555
O3 Pr0 2.590579 1_555
O3 Pr0 2.590579 1_566
O3 Sr0 2.751899 1_566
O3 Sr0 2.751899 1_555
