# generated using pymatgen
data_KLiAl2Si4(O5F)2
_symmetry_space_group_name_H-M   'P 1'
_cell_length_a   5.33338464
_cell_length_b   5.33338464
_cell_length_c   10.39186760
_cell_angle_alpha   84.56023007
_cell_angle_beta   84.56023007
_cell_angle_gamma   119.96058166
_symmetry_Int_Tables_number   1
_chemical_formula_structural   KLiAl2Si4(O5F)2
_chemical_formula_sum   'K1 Li1 Al2 Si4 O10 F2'
_cell_volume   251.45620893
_cell_formula_units_Z   1
loop_
 _symmetry_equiv_pos_site_id
 _symmetry_equiv_pos_as_xyz
  1  'x, y, z'
loop_
 _atom_site_type_symbol
 _atom_site_label
 _atom_site_symmetry_multiplicity
 _atom_site_fract_x
 _atom_site_fract_y
 _atom_site_fract_z
 _atom_site_occupancy
  K  K0  1  0.00000000  0.00000000  0.00000000  1
  Li  Li0  1  0.50000000  0.50000000  0.50000000  1
  Al  Al0  1  0.83024100  0.16975900  0.50000000  1
  Al  Al1  1  0.16975900  0.83024100  0.50000000  1
  Si  Si0  1  0.58741000  0.25042500  0.23126700  1
  Si  Si1  1  0.41259000  0.74957500  0.76873300  1
  Si  Si2  1  0.74957500  0.41259000  0.76873300  1
  Si  Si3  1  0.25042500  0.58741000  0.23126700  1
  O  O0  1  0.42967700  0.94158600  0.16834900  1
  O  O1  1  0.57032300  0.05841400  0.83165100  1
  O  O2  1  0.05841400  0.57032300  0.83165100  1
  O  O3  1  0.94158600  0.42967700  0.16834900  1
  O  O4  1  0.53743200  0.17463100  0.39626300  1
  O  O5  1  0.46256800  0.82536900  0.60373700  1
  O  O6  1  0.82536900  0.46256800  0.60373700  1
  O  O7  1  0.17463100  0.53743200  0.39626300  1
  O  O8  1  0.45455200  0.45455200  0.17483500  1
  O  O9  1  0.54544800  0.54544800  0.82516500  1
  F  F0  1  0.88626200  0.88626200  0.40841100  1
  F  F1  1  0.11373800  0.11373800  0.59158900  1
loop_
_geom_bond_atom_site_label_1
_geom_bond_atom_site_label_2
_geom_bond_distance
_geom_bond_site_symmetry_2
K0 O9 3.125641 1_554
K0 O8 3.125641 1_445
K0 O0 3.127161 1_545
K0 O3 3.127161 1_455
K0 O1 3.127161 1_454
K0 O2 3.127161 1_544
K0 O3 3.217319 1_445
K0 O0 3.217319 1_445
K0 O2 3.217319 1_554
K0 O1 3.217319 1_554
K0 O8 3.294760 1_555
K0 O9 3.294760 1_444
Li0 O5 2.207537 1_555
Li0 O6 2.207537 1_555
Li0 O7 2.207537 1_555
Li0 O4 2.207537 1_555
Al0 F1 1.987825 1_655
Al0 F0 1.987825 1_545
Al0 O4 1.988971 1_555
Al0 O6 1.988971 1_555
Al0 O7 2.001852 1_655
Al0 O5 2.001852 1_545
Al1 F1 1.987825 1_565
Al1 F0 1.987825 1_455
Al1 O7 1.988971 1_555
Al1 O5 1.988971 1_555
Al1 O4 2.001852 1_565
Al1 O6 2.001852 1_455
O0 Si3 1.659284 1_555
O0 Si0 1.665169 1_565
O1 Si2 1.659284 1_555
O1 Si1 1.665169 1_545
O2 Si1 1.659284 1_555
O2 Si2 1.665169 1_455
O3 Si0 1.659284 1_555
O3 Si3 1.665169 1_655
O4 Si0 1.687803 1_555
O5 Si1 1.687803 1_555
O6 Si2 1.687803 1_555
O7 Si3 1.687803 1_555
O8 Si3 1.661168 1_555
O8 Si0 1.661168 1_555
O9 Si2 1.661168 1_555
O9 Si1 1.661168 1_555
F0 Li0 2.100328 1_555
F1 Li0 2.100328 1_555
