# generated using pymatgen
data_Tb4CdPd
_symmetry_space_group_name_H-M   'P 1'
_cell_length_a   9.69098430
_cell_length_b   9.69091809
_cell_length_c   9.69091225
_cell_angle_alpha   59.99988043
_cell_angle_beta   60.00010722
_cell_angle_gamma   60.00016036
_symmetry_Int_Tables_number   1
_chemical_formula_structural   Tb4CdPd
_chemical_formula_sum   'Tb16 Cd4 Pd4'
_cell_volume   643.55098822
_cell_formula_units_Z   4
loop_
 _symmetry_equiv_pos_site_id
 _symmetry_equiv_pos_as_xyz
  1  'x, y, z'
loop_
 _atom_site_type_symbol
 _atom_site_label
 _atom_site_symmetry_multiplicity
 _atom_site_fract_x
 _atom_site_fract_y
 _atom_site_fract_z
 _atom_site_occupancy
  Tb  Tb0  1  0.35350729  0.35353555  0.35352179  1
  Tb  Tb1  1  0.35350212  0.35353036  0.93944078  1
  Tb  Tb2  1  0.35350951  0.93943391  0.35352353  1
  Tb  Tb3  1  0.93944505  0.35352436  0.35351026  1
  Tb  Tb4  1  0.81005317  0.18996435  0.18995356  1
  Tb  Tb5  1  0.18995300  0.81003230  0.81004710  1
  Tb  Tb6  1  0.18995882  0.81003619  0.18996521  1
  Tb  Tb7  1  0.81004961  0.18995794  0.81003650  1
  Tb  Tb8  1  0.18995103  0.18996740  0.81004617  1
  Tb  Tb9  1  0.81005398  0.81002719  0.18995552  1
  Tb  Tb10  1  0.93470490  0.56530775  0.56530699  1
  Tb  Tb11  1  0.56531575  0.93468058  0.93469388  1
  Tb  Tb12  1  0.56531776  0.93468337  0.56531120  1
  Tb  Tb13  1  0.93470172  0.56530581  0.93468602  1
  Tb  Tb14  1  0.56531492  0.56530874  0.93469257  1
  Tb  Tb15  1  0.93470583  0.93467719  0.56530784  1
  Cd  Cd0  1  0.58150552  0.58148491  0.58148440  1
  Cd  Cd1  1  0.58150767  0.58148715  0.25551654  1
  Cd  Cd2  1  0.58150392  0.25552812  0.58148298  1
  Cd  Cd3  1  0.25548149  0.58150568  0.58150541  1
  Pd  Pd0  1  0.14439011  0.14441056  0.14440817  1
  Pd  Pd1  1  0.14438929  0.14441069  0.56679110  1
  Pd  Pd2  1  0.14439097  0.56679129  0.14440880  1
  Pd  Pd3  1  0.56678858  0.14440962  0.14440067  1
loop_
_geom_bond_atom_site_label_1
_geom_bond_atom_site_label_2
_geom_bond_distance
_geom_bond_site_symmetry_2
Tb0 Tb10 3.528363 1_455
Tb0 Tb14 3.528551 1_554
Tb0 Tb12 3.528736 1_545
Tb1 Tb13 3.528348 1_455
Tb1 Tb14 3.528666 1_555
Tb1 Tb11 3.528716 1_545
Tb10 Tb3 3.528610 1_555
Tb10 Tb15 3.579538 1_555
Tb10 Tb13 3.579595 1_555
Tb10 Tb12 3.579666 1_555
Tb10 Tb14 3.579724 1_555
Tb10 Tb6 3.635476 1_655
Tb10 Tb8 3.635487 1_655
Tb10 Tb9 3.635601 1_555
Tb10 Tb7 3.635608 1_555
Tb11 Tb2 3.528562 1_556
Tb11 Tb14 3.579563 1_555
Tb11 Tb12 3.579632 1_555
Tb11 Tb13 3.579656 1_555
Tb11 Tb15 3.579726 1_555
Tb11 Tb9 3.635582 1_556
Tb11 Tb6 3.635634 1_556
Tb11 Tb7 3.635662 1_565
Tb11 Tb8 3.635717 1_565
Tb12 Tb2 3.528693 1_555
Tb12 Tb14 3.579604 1_555
Tb12 Tb15 3.579688 1_555
Tb12 Tb9 3.635667 1_555
Tb12 Tb4 3.635692 1_565
Tb12 Tb5 3.635730 1_555
Tb12 Tb8 3.635752 1_565
Tb13 Tb3 3.528479 1_556
Tb13 Tb15 3.579573 1_555
Tb13 Tb14 3.579676 1_555
Tb13 Tb8 3.635450 1_655
Tb13 Tb5 3.635451 1_655
Tb13 Tb4 3.635507 1_556
Tb13 Tb9 3.635521 1_556
Tb14 Tb4 3.635568 1_556
Tb14 Tb6 3.635626 1_556
Tb14 Tb7 3.635629 1_555
Tb14 Tb5 3.635684 1_555
Tb15 Tb2 3.528379 1_655
Tb15 Tb3 3.528662 1_565
Tb15 Tb6 3.635487 1_655
Tb15 Tb5 3.635501 1_655
Tb15 Tb4 3.635632 1_565
Tb15 Tb7 3.635644 1_565
Cd0 Cd2 3.158835 1_555
Cd0 Cd1 3.158905 1_555
Cd0 Cd3 3.159291 1_555
Cd0 Tb12 3.273533 1_555
Cd0 Tb10 3.273594 1_555
Cd0 Tb14 3.273599 1_555
Cd0 Tb3 3.368656 1_555
Cd0 Tb2 3.368777 1_555
Cd0 Tb1 3.368805 1_555
Cd0 Tb9 3.507921 1_555
Cd0 Tb7 3.507937 1_555
Cd0 Tb5 3.508122 1_555
Cd1 Cd2 3.158872 1_555
Cd1 Cd3 3.159327 1_555
Cd1 Tb11 3.273435 1_554
Cd1 Tb14 3.273455 1_554
Cd1 Tb13 3.273497 1_554
Cd1 Tb3 3.368634 1_555
Cd1 Tb0 3.368750 1_555
Cd1 Tb2 3.368757 1_555
Cd1 Tb4 3.507881 1_555
Cd1 Tb9 3.507896 1_555
Cd1 Tb6 3.508070 1_555
Cd2 Cd3 3.159258 1_555
Cd2 Tb12 3.273588 1_545
Cd2 Tb15 3.273631 1_545
Cd2 Tb11 3.273636 1_545
Cd2 Tb3 3.368674 1_555
Cd2 Tb0 3.368790 1_555
Cd2 Tb1 3.368823 1_555
Cd2 Tb4 3.507936 1_555
Cd2 Tb7 3.507963 1_555
Cd2 Tb8 3.508138 1_555
Cd3 Tb15 3.273137 1_455
Cd3 Tb10 3.273152 1_455
Cd3 Tb13 3.273199 1_455
Cd3 Tb0 3.368682 1_555
Cd3 Tb2 3.368691 1_555
Cd3 Tb1 3.368715 1_555
Cd3 Tb6 3.507855 1_555
Cd3 Tb8 3.507870 1_555
Cd3 Tb5 3.507880 1_555
Pd0 Tb3 2.866121 1_455
Pd0 Tb1 2.866227 1_554
Pd0 Tb2 2.866248 1_545
Pd0 Tb4 2.867417 1_455
Pd0 Tb8 2.867567 1_554
Pd0 Tb6 2.867660 1_545
Pd0 Tb13 3.528267 1_454
Pd0 Tb15 3.528307 1_445
Pd0 Tb11 3.528555 1_544
Pd1 Tb3 2.866185 1_455
Pd1 Tb0 2.866303 1_555
Pd1 Tb2 2.866314 1_545
Pd1 Tb7 2.867455 1_455
Pd1 Tb8 2.867677 1_555
Pd1 Tb5 2.867705 1_545
Pd1 Tb10 3.528286 1_455
Pd1 Tb15 3.528319 1_445
Pd1 Tb12 3.528586 1_545
Pd2 Tb3 2.866099 1_455
Pd2 Tb1 2.866209 1_554
Pd2 Tb0 2.866211 1_555
Pd2 Tb9 2.867409 1_455
Pd2 Tb5 2.867551 1_554
Pd2 Tb6 2.867618 1_555
Pd2 Tb13 3.528290 1_454
Pd2 Tb10 3.528293 1_455
Pd2 Tb14 3.528538 1_554
Pd3 Tb1 2.866331 1_554
Pd3 Tb0 2.866335 1_555
Pd3 Tb2 2.866386 1_545
Pd3 Tb7 2.867644 1_554
Pd3 Tb4 2.867713 1_555
Pd3 Tb9 2.867776 1_545
Pd3 Tb14 3.528322 1_554
Pd3 Tb11 3.528410 1_544
Pd3 Tb12 3.528424 1_545
