# generated using pymatgen
data_Hf2Si4Mo3
_symmetry_space_group_name_H-M   'P 1'
_cell_length_a   6.54578982
_cell_length_b   6.73756867
_cell_length_c   12.52096279
_cell_angle_alpha   90.00000000
_cell_angle_beta   90.00000000
_cell_angle_gamma   90.00000000
_symmetry_Int_Tables_number   1
_chemical_formula_structural   Hf2Si4Mo3
_chemical_formula_sum   'Hf8 Si16 Mo12'
_cell_volume   552.20837096
_cell_formula_units_Z   4
loop_
 _symmetry_equiv_pos_site_id
 _symmetry_equiv_pos_as_xyz
  1  'x, y, z'
loop_
 _atom_site_type_symbol
 _atom_site_label
 _atom_site_symmetry_multiplicity
 _atom_site_fract_x
 _atom_site_fract_y
 _atom_site_fract_z
 _atom_site_occupancy
  Hf  Hf0  1  0.99364057  0.16985905  0.09308799  1
  Hf  Hf1  1  0.00635943  0.83014095  0.90691201  1
  Hf  Hf2  1  0.50635943  0.66985905  0.90691201  1
  Hf  Hf3  1  0.00635943  0.83014095  0.59308799  1
  Hf  Hf4  1  0.49364057  0.33014095  0.09308799  1
  Hf  Hf5  1  0.99364057  0.16985905  0.40691201  1
  Hf  Hf6  1  0.49364057  0.33014095  0.40691201  1
  Hf  Hf7  1  0.50635943  0.66985905  0.59308799  1
  Si  Si0  1  0.03251320  0.12258604  0.75000000  1
  Si  Si1  1  0.96748680  0.87741396  0.25000000  1
  Si  Si2  1  0.46748680  0.62258604  0.25000000  1
  Si  Si3  1  0.53251320  0.37741396  0.75000000  1
  Si  Si4  1  0.29964012  0.86340858  0.75000000  1
  Si  Si5  1  0.70035988  0.13659142  0.25000000  1
  Si  Si6  1  0.20035988  0.36340858  0.25000000  1
  Si  Si7  1  0.79964012  0.63659142  0.75000000  1
  Si  Si8  1  0.16610754  0.45944488  0.54312537  1
  Si  Si9  1  0.83389246  0.54055512  0.45687463  1
  Si  Si10  1  0.33389246  0.95944488  0.45687463  1
  Si  Si11  1  0.83389246  0.54055512  0.04312537  1
  Si  Si12  1  0.66610754  0.04055512  0.54312537  1
  Si  Si13  1  0.16610754  0.45944488  0.95687463  1
  Si  Si14  1  0.66610754  0.04055512  0.95687463  1
  Si  Si15  1  0.33389246  0.95944488  0.04312537  1
  Mo  Mo0  1  0.16802353  0.51477533  0.75000000  1
  Mo  Mo1  1  0.83197647  0.48522467  0.25000000  1
  Mo  Mo2  1  0.33197647  0.01477533  0.25000000  1
  Mo  Mo3  1  0.66802353  0.98522467  0.75000000  1
  Mo  Mo4  1  0.33001946  0.16450289  0.62298319  1
  Mo  Mo5  1  0.66998054  0.83549711  0.37701681  1
  Mo  Mo6  1  0.16998054  0.66450289  0.37701681  1
  Mo  Mo7  1  0.66998054  0.83549711  0.12298319  1
  Mo  Mo8  1  0.83001946  0.33549711  0.62298319  1
  Mo  Mo9  1  0.33001946  0.16450289  0.87701681  1
  Mo  Mo10  1  0.83001946  0.33549711  0.87701681  1
  Mo  Mo11  1  0.16998054  0.66450289  0.12298319  1
loop_
_geom_bond_atom_site_label_1
_geom_bond_atom_site_label_2
_geom_bond_distance
_geom_bond_site_symmetry_2
Hf0 Si15 2.713239 1_645
Hf0 Si6 2.718741 1_655
Hf0 Si5 2.756030 1_555
Hf0 Si11 2.778983 1_555
Hf0 Si1 2.787771 1_545
Hf0 Si13 2.826677 1_654
Hf0 Si14 2.874780 1_554
Hf1 Si14 2.713239 1_465
Hf1 Si7 2.718741 1_455
Hf1 Si4 2.756030 1_555
Hf1 Si13 2.778983 1_555
Hf1 Si0 2.787771 1_565
Hf1 Si11 2.826677 1_456
Hf1 Si15 2.874780 1_556
Hf2 Si13 2.713239 1_555
Hf2 Si4 2.718741 1_555
Hf2 Si7 2.756030 1_555
Hf2 Si14 2.778983 1_565
Hf2 Si3 2.787771 1_555
Hf2 Si15 2.826677 1_556
Hf2 Si11 2.874780 1_556
Hf3 Si12 2.713239 1_465
Hf3 Si7 2.718741 1_455
Hf3 Si4 2.756030 1_555
Hf3 Si8 2.778983 1_555
Hf3 Si0 2.787771 1_565
Hf3 Si9 2.826677 1_455
Hf3 Si10 2.874780 1_555
Hf4 Si11 2.713239 1_555
Hf4 Si5 2.718741 1_555
Hf4 Si6 2.756030 1_555
Hf4 Si15 2.778983 1_545
Hf4 Si2 2.787771 1_555
Hf4 Si14 2.826677 1_554
Hf4 Si13 2.874780 1_554
Hf5 Si10 2.713239 1_645
Hf5 Si6 2.718741 1_655
Hf5 Si5 2.756030 1_555
Hf5 Si9 2.778983 1_555
Hf5 Si1 2.787771 1_545
Hf5 Si8 2.826677 1_655
Hf5 Si12 2.874780 1_555
Hf6 Si9 2.713239 1_555
Hf6 Si5 2.718741 1_555
Hf6 Si6 2.756030 1_555
Hf6 Si10 2.778983 1_545
Hf6 Si2 2.787771 1_555
Hf6 Si12 2.826677 1_555
Hf6 Si8 2.874780 1_555
Hf7 Si8 2.713239 1_555
Hf7 Si4 2.718741 1_555
Hf7 Si7 2.756030 1_555
Hf7 Si12 2.778983 1_565
Hf7 Si3 2.787771 1_555
Hf7 Si10 2.826677 1_555
Hf7 Si9 2.874780 1_555
Si0 Si4 2.471185 1_545
Si1 Si5 2.471185 1_565
Si2 Si6 2.471185 1_555
Si3 Si7 2.471185 1_555
Si8 Si9 2.488745 1_455
Si10 Si12 2.488745 1_565
Si11 Si13 2.488745 1_654
Si14 Si15 2.488745 1_546
Mo0 Si4 2.501952 1_555
Mo0 Si7 2.547210 1_455
Mo0 Si3 2.559083 1_555
Mo0 Si8 2.616988 1_555
Mo0 Si13 2.616988 1_555
Mo0 Si0 2.787310 1_555
Mo1 Si5 2.501952 1_555
Mo1 Si6 2.547210 1_655
Mo1 Si2 2.559083 1_555
Mo1 Si9 2.616988 1_555
Mo1 Si11 2.616988 1_555
Mo1 Si1 2.787310 1_555
Mo2 Si6 2.501952 1_555
Mo2 Si5 2.547210 1_555
Mo2 Si1 2.559083 1_445
Mo2 Si10 2.616988 1_545
Mo2 Si15 2.616988 1_545
Mo2 Si2 2.787310 1_545
Mo3 Si7 2.501952 1_555
Mo3 Si4 2.547210 1_555
Mo3 Si0 2.559083 1_665
Mo3 Si12 2.616988 1_565
Mo3 Si14 2.616988 1_565
Mo3 Si3 2.787310 1_565
Mo4 Si8 2.469800 1_555
Mo4 Si10 2.497032 1_545
Mo4 Si3 2.518727 1_555
Mo4 Si0 2.530112 1_555
Mo4 Si12 2.556761 1_555
Mo4 Si4 2.585387 1_545
Mo5 Si9 2.469800 1_555
Mo5 Si12 2.497032 1_565
Mo5 Si2 2.518727 1_555
Mo5 Si1 2.530112 1_555
Mo5 Si10 2.556761 1_555
Mo5 Si5 2.585387 1_565
Mo6 Si10 2.469800 1_555
Mo6 Si8 2.497032 1_555
Mo6 Si1 2.518727 1_455
Mo6 Si2 2.530112 1_555
Mo6 Si9 2.556761 1_455
Mo6 Si6 2.585387 1_555
Mo7 Si11 2.469800 1_555
Mo7 Si14 2.497032 1_564
Mo7 Si2 2.518727 1_555
Mo7 Si1 2.530112 1_555
Mo7 Si15 2.556761 1_555
Mo7 Si5 2.585387 1_565
Mo8 Si12 2.469800 1_555
Mo8 Si9 2.497032 1_555
Mo8 Si0 2.518727 1_655
Mo8 Si3 2.530112 1_555
Mo8 Si8 2.556761 1_655
Mo8 Si7 2.585387 1_555
Mo9 Si13 2.469800 1_555
Mo9 Si15 2.497032 1_546
Mo9 Si3 2.518727 1_555
Mo9 Si0 2.530112 1_555
Mo9 Si14 2.556761 1_555
Mo9 Si4 2.585387 1_545
Mo10 Si14 2.469800 1_555
Mo10 Si11 2.497032 1_556
Mo10 Si0 2.518727 1_655
Mo10 Si3 2.530112 1_555
Mo10 Si13 2.556761 1_655
Mo10 Si7 2.585387 1_555
Mo11 Si15 2.469800 1_555
Mo11 Si13 2.497032 1_554
Mo11 Si1 2.518727 1_455
Mo11 Si2 2.530112 1_555
Mo11 Si11 2.556761 1_455
Mo11 Si6 2.585387 1_555
