# generated using pymatgen
data_Zr3(Sn2Sb)2
_symmetry_space_group_name_H-M   'P 1'
_cell_length_a   5.56180032
_cell_length_b   5.56180032
_cell_length_c   7.65051137
_cell_angle_alpha   89.85469883
_cell_angle_beta   89.85469883
_cell_angle_gamma   119.98975636
_symmetry_Int_Tables_number   1
_chemical_formula_structural   Zr3(Sn2Sb)2
_chemical_formula_sum   'Zr3 Sn4 Sb2'
_cell_volume   204.97038549
_cell_formula_units_Z   1
loop_
 _symmetry_equiv_pos_site_id
 _symmetry_equiv_pos_as_xyz
  1  'x, y, z'
loop_
 _atom_site_type_symbol
 _atom_site_label
 _atom_site_symmetry_multiplicity
 _atom_site_fract_x
 _atom_site_fract_y
 _atom_site_fract_z
 _atom_site_occupancy
  Zr  Zr0  1  0.50444412  0.00898071  0.16271880  1
  Zr  Zr1  1  0.99101929  0.49555588  0.83728120  1
  Zr  Zr2  1  0.50503985  0.49496015  0.50000000  1
  Sn  Sn0  1  0.83564243  0.16435757  0.50000000  1
  Sn  Sn1  1  0.16804006  0.33982578  0.17025300  1
  Sn  Sn2  1  0.66017422  0.83195994  0.82974700  1
  Sn  Sn3  1  0.17351327  0.82648673  0.50000000  1
  Sb  Sb0  1  0.83488502  0.67275725  0.16718525  1
  Sb  Sb1  1  0.32724275  0.16511498  0.83281475  1
loop_
_geom_bond_atom_site_label_1
_geom_bond_atom_site_label_2
_geom_bond_distance
_geom_bond_site_symmetry_2
Sn0 Sn2 2.982383 1_545
Sn0 Sn1 2.982383 1_655
Sn0 Zr1 3.040125 1_555
Sn0 Zr0 3.040125 1_555
Sn0 Zr2 3.184636 1_555
Sn0 Sn3 3.189812 1_655
Sn0 Sn3 3.189812 1_545
Sn0 Zr2 3.224669 1_655
Sn0 Zr2 3.224669 1_545
Sn0 Sn3 3.254650 1_645
Sn1 Zr2 3.006668 1_555
Sn1 Zr1 3.010455 1_454
Sn1 Zr0 3.197422 1_455
Sn1 Zr0 3.214299 1_555
Sn1 Zr0 3.223704 1_565
Sn2 Zr2 3.006668 1_555
Sn2 Zr0 3.010455 1_566
Sn2 Zr1 3.197422 1_565
Sn2 Zr1 3.214299 1_555
Sn2 Zr1 3.223704 1_455
Sn3 Zr1 3.028412 1_455
Sn3 Zr0 3.028412 1_565
Sn3 Zr2 3.193537 1_555
Sn3 Zr2 3.220174 1_455
Sn3 Zr2 3.220174 1_565
Sb0 Zr1 2.992115 1_554
Sb0 Zr2 2.996082 1_555
Sb0 Sn3 3.030986 1_655
Sb0 Sn2 3.042045 1_554
Sb0 Zr0 3.197857 1_555
Sb0 Sn1 3.208233 1_655
Sb0 Zr0 3.211151 1_565
Sb0 Sn1 3.212281 1_555
Sb0 Sn1 3.213563 1_665
Sb0 Zr0 3.225414 1_665
Sb1 Zr0 2.992115 1_556
Sb1 Zr2 2.996082 1_555
Sb1 Sn3 3.030986 1_545
Sb1 Sn1 3.042045 1_556
Sb1 Zr1 3.197857 1_555
Sb1 Sn2 3.208233 1_545
Sb1 Zr1 3.211151 1_455
Sb1 Sn2 3.212281 1_555
Sb1 Sn2 3.213563 1_445
Sb1 Zr1 3.225414 1_445
