# generated using pymatgen
data_Li9Mn2Co5O16
_symmetry_space_group_name_H-M   'P 1'
_cell_length_a   3.01932900
_cell_length_b   8.04844232
_cell_length_c   12.00448056
_cell_angle_alpha   90.75578510
_cell_angle_beta   95.09870209
_cell_angle_gamma   91.01718984
_symmetry_Int_Tables_number   1
_chemical_formula_structural   Li9Mn2Co5O16
_chemical_formula_sum   'Li9 Mn2 Co5 O16'
_cell_volume   290.48757950
_cell_formula_units_Z   1
loop_
 _symmetry_equiv_pos_site_id
 _symmetry_equiv_pos_as_xyz
  1  'x, y, z'
loop_
 _atom_site_type_symbol
 _atom_site_label
 _atom_site_symmetry_multiplicity
 _atom_site_fract_x
 _atom_site_fract_y
 _atom_site_fract_z
 _atom_site_occupancy
  Li  Li0  1  0.00003100  0.74573100  0.87877500  1
  Li  Li1  1  0.50405900  0.50385400  0.24823300  1
  Li  Li2  1  0.99840300  0.25026200  0.62591500  1
  Li  Li3  1  0.50000000  0.00000000  0.00000000  1
  Li  Li4  1  0.00159700  0.74973800  0.37408500  1
  Li  Li5  1  0.49594100  0.49614600  0.75176700  1
  Li  Li6  1  0.99996900  0.25426900  0.12122500  1
  Li  Li7  1  0.50000000  0.00000000  0.50000000  1
  Li  Li8  1  0.50000000  0.50000000  0.00000000  1
  Mn  Mn0  1  0.00055800  0.75110400  0.62606600  1
  Mn  Mn1  1  0.99944200  0.24889600  0.37393400  1
  Co  Co0  1  0.49866200  0.00364600  0.75189600  1
  Co  Co1  1  0.00210100  0.74038300  0.11970200  1
  Co  Co2  1  0.50000000  0.50000000  0.50000000  1
  Co  Co3  1  0.99789900  0.25961700  0.88029800  1
  Co  Co4  1  0.50133800  0.99635400  0.24810400  1
  O  O0  1  0.47695600  0.76265700  0.74920500  1
  O  O1  1  0.99391100  0.52475000  0.12791200  1
  O  O2  1  0.47538100  0.26094400  0.49627100  1
  O  O3  1  0.97714200  0.01985800  0.86759400  1
  O  O4  1  0.47767900  0.76265300  0.24191500  1
  O  O5  1  0.97599600  0.50777500  0.61833400  1
  O  O6  1  0.47777200  0.24886300  0.99070900  1
  O  O7  1  0.97455700  0.00711200  0.36822100  1
  O  O8  1  0.52222800  0.75113700  0.00929100  1
  O  O9  1  0.02400400  0.49222500  0.38166600  1
  O  O10  1  0.52232100  0.23734700  0.75808500  1
  O  O11  1  0.02285800  0.98014200  0.13240600  1
  O  O12  1  0.52461900  0.73905600  0.50372900  1
  O  O13  1  0.00608900  0.47525000  0.87208800  1
  O  O14  1  0.52304400  0.23734300  0.25079500  1
  O  O15  1  0.02544300  0.99288800  0.63177900  1
loop_
_geom_bond_atom_site_label_1
_geom_bond_atom_site_label_2
_geom_bond_distance
_geom_bond_site_symmetry_2
Li0 O8 2.121156 1_556
Li0 O0 2.123391 1_455
Li0 O13 2.177833 1_555
Li0 O3 2.214070 1_465
Li0 O0 2.215447 1_555
Li0 O8 2.222631 1_456
Li1 O1 2.026635 1_455
Li1 O4 2.087983 1_555
Li1 O9 2.145054 1_655
Li1 O14 2.147334 1_555
Li1 O1 2.163181 1_555
Li1 O9 2.255482 1_555
Li2 O15 2.076390 1_645
Li2 O5 2.077812 1_555
Li2 O2 2.120094 1_555
Li2 O10 2.143509 1_655
Li2 O2 2.213830 1_655
Li2 O10 2.235820 1_555
Li3 O6 2.009509 1_554
Li3 O8 2.009509 1_545
Li3 O3 2.147983 1_454
Li3 O11 2.147983 1_645
Li3 O3 2.243423 1_554
Li3 O11 2.243423 1_545
Li4 O7 2.076390 1_465
Li4 O9 2.077812 1_555
Li4 O12 2.120094 1_555
Li4 O4 2.143509 1_455
Li4 O12 2.213830 1_455
Li4 O4 2.235820 1_555
Li5 O13 2.026635 1_655
Li5 O10 2.087983 1_555
Li5 O5 2.145054 1_455
Li5 O0 2.147334 1_555
Li5 O13 2.163181 1_555
Li5 O5 2.255482 1_555
Li6 O6 2.121156 1_554
Li6 O14 2.123391 1_655
Li6 O1 2.177833 1_555
Li6 O11 2.214070 1_645
Li6 O14 2.215447 1_555
Li6 O6 2.222631 1_654
Li7 O2 2.103751 1_555
Li7 O12 2.103751 1_545
Li7 O15 2.140623 1_645
Li7 O7 2.140623 1_455
Li7 O15 2.227377 1_545
Li7 O7 2.227377 1_555
Li8 O8 2.022461 1_555
Li8 O6 2.022461 1_554
Li8 O1 2.048360 1_555
Li8 O13 2.048360 1_554
Li8 O1 2.269849 1_455
Li8 O13 2.269849 1_654
Mn0 O15 1.946170 1_555
Mn0 O5 1.959170 1_455
Mn0 O12 1.961471 1_455
Mn0 O0 1.968876 1_555
Mn0 O12 2.254907 1_555
Mn0 O0 2.260549 1_455
Mn1 O7 1.946170 1_555
Mn1 O9 1.959170 1_655
Mn1 O2 1.961471 1_655
Mn1 O14 1.968876 1_555
Mn1 O2 2.254907 1_555
Mn1 O14 2.260549 1_655
Co0 O10 1.881254 1_555
Co0 O3 1.914434 1_555
Co0 O15 1.937600 1_545
Co0 O0 1.939276 1_545
Co0 O3 2.194718 1_455
Co0 O15 2.241808 1_645
Co1 O1 1.739466 1_455
Co1 O8 1.878745 1_455
Co1 O11 1.933163 1_555
Co1 O4 1.963641 1_555
Co1 O8 2.144454 1_555
Co1 O4 2.260027 1_455
Co2 O12 1.923921 1_555
Co2 O2 1.923921 1_555
Co2 O5 1.928455 1_555
Co2 O9 1.928455 1_555
Co2 O5 2.219383 1_455
Co2 O9 2.219383 1_655
Co3 O13 1.739466 1_655
Co3 O6 1.878745 1_655
Co3 O3 1.933163 1_555
Co3 O10 1.963641 1_555
Co3 O6 2.144454 1_555
Co3 O10 2.260027 1_655
Co4 O4 1.881254 1_555
Co4 O11 1.914434 1_555
Co4 O7 1.937600 1_565
Co4 O14 1.939276 1_565
Co4 O11 2.194718 1_655
Co4 O7 2.241808 1_465
