# generated using pymatgen
data_LaMnO3
_symmetry_space_group_name_H-M   'P 1'
_cell_length_a   4.13700800
_cell_length_b   5.80749800
_cell_length_c   12.90489000
_cell_angle_alpha   90.00000000
_cell_angle_beta   90.00000000
_cell_angle_gamma   90.00000000
_symmetry_Int_Tables_number   1
_chemical_formula_structural   LaMnO3
_chemical_formula_sum   'La4 Mn4 O12'
_cell_volume   310.04857285
_cell_formula_units_Z   4
loop_
 _symmetry_equiv_pos_site_id
 _symmetry_equiv_pos_as_xyz
  1  'x, y, z'
loop_
 _atom_site_type_symbol
 _atom_site_label
 _atom_site_symmetry_multiplicity
 _atom_site_fract_x
 _atom_site_fract_y
 _atom_site_fract_z
 _atom_site_occupancy
  La  La0  1  0.60132700  0.63929600  0.25000000  1
  La  La1  1  0.39867300  0.36070400  0.75000000  1
  La  La2  1  0.10132700  0.86070400  0.75000000  1
  La  La3  1  0.89867300  0.13929600  0.25000000  1
  Mn  Mn0  1  0.00000000  0.00000000  0.50000000  1
  Mn  Mn1  1  0.00000000  0.00000000  0.00000000  1
  Mn  Mn2  1  0.50000000  0.50000000  0.50000000  1
  Mn  Mn3  1  0.50000000  0.50000000  0.00000000  1
  O  O0  1  0.25531700  0.24422200  0.57106700  1
  O  O1  1  0.62966300  0.01550500  0.75000000  1
  O  O2  1  0.37033700  0.98449500  0.25000000  1
  O  O3  1  0.74468300  0.75577800  0.07106700  1
  O  O4  1  0.74468300  0.75577800  0.42893300  1
  O  O5  1  0.75531700  0.25577800  0.07106700  1
  O  O6  1  0.12966300  0.48449500  0.25000000  1
  O  O7  1  0.24468300  0.74422200  0.92893300  1
  O  O8  1  0.24468300  0.74422200  0.57106700  1
  O  O9  1  0.87033700  0.51550500  0.75000000  1
  O  O10  1  0.25531700  0.24422200  0.92893300  1
  O  O11  1  0.75531700  0.25577800  0.42893300  1
loop_
_geom_bond_atom_site_label_1
_geom_bond_atom_site_label_2
_geom_bond_distance
_geom_bond_site_symmetry_2
La0 O6 2.148417 1_555
La0 O2 2.220851 1_555
La0 O6 2.363394 1_655
La0 O3 2.478170 1_555
La0 O4 2.478170 1_555
La1 O9 2.148417 1_555
La1 O1 2.220851 1_555
La1 O9 2.363394 1_455
La1 O10 2.478170 1_555
La1 O0 2.478170 1_555
La2 O1 2.148417 1_465
La2 O9 2.220851 1_455
La2 O1 2.363394 1_565
La2 O8 2.478170 1_555
La2 O7 2.478170 1_555
La3 O2 2.148417 1_645
La3 O6 2.220851 1_655
La3 O2 2.363394 1_545
La3 O11 2.478170 1_555
La3 O5 2.478170 1_555
Mn0 O4 1.992080 1_445
Mn0 O0 1.992080 1_555
Mn0 O11 2.017984 1_455
Mn0 O8 2.017984 1_545
Mn1 O3 1.992080 1_445
Mn1 O10 1.992080 1_554
Mn1 O7 2.017984 1_544
Mn1 O5 2.017984 1_455
Mn2 O8 1.992080 1_555
Mn2 O11 1.992080 1_555
Mn2 O0 2.017984 1_555
Mn2 O4 2.017984 1_555
Mn3 O7 1.992080 1_554
Mn3 O5 1.992080 1_555
Mn3 O3 2.017984 1_555
Mn3 O10 2.017984 1_554
