# generated using pymatgen
data_La2Cr2O5
_symmetry_space_group_name_H-M   'P 1'
_cell_length_a   8.81505877
_cell_length_b   8.81505877
_cell_length_c   8.81505877
_cell_angle_alpha   143.35315591
_cell_angle_beta   143.12268012
_cell_angle_gamma   52.96864311
_symmetry_Int_Tables_number   1
_chemical_formula_structural   La2Cr2O5
_chemical_formula_sum   'La4 Cr4 O10'
_cell_volume   243.85186905
_cell_formula_units_Z   2
loop_
 _symmetry_equiv_pos_site_id
 _symmetry_equiv_pos_as_xyz
  1  'x, y, z'
loop_
 _atom_site_type_symbol
 _atom_site_label
 _atom_site_symmetry_multiplicity
 _atom_site_fract_x
 _atom_site_fract_y
 _atom_site_fract_z
 _atom_site_occupancy
  La  La0  1  0.14629500  0.61218400  0.50184200  1
  La  La1  1  0.85370500  0.35554700  0.46588800  1
  La  La2  1  0.61034100  0.11218400  0.46588800  1
  La  La3  1  0.38965900  0.85554700  0.50184200  1
  Cr  Cr0  1  0.00000000  0.98408500  0.98408500  1
  Cr  Cr1  1  0.50000000  0.48408500  0.98408500  1
  Cr  Cr2  1  0.20812500  0.23767300  0.94579800  1
  Cr  Cr3  1  0.79187500  0.73767300  0.02954900  1
  O  O0  1  0.72029800  0.20593700  0.98295600  1
  O  O1  1  0.27970200  0.26265800  0.48564000  1
  O  O2  1  0.72298200  0.70593700  0.48564000  1
  O  O3  1  0.27701800  0.76265800  0.98295600  1
  O  O4  1  0.03115700  0.10299600  0.88692400  1
  O  O5  1  0.96884300  0.85576800  0.07184000  1
  O  O6  1  0.71607200  0.60299600  0.07184000  1
  O  O7  1  0.28392800  0.35576800  0.88692400  1
  O  O8  1  0.49067100  0.97488100  0.96555100  1
  O  O9  1  0.50932900  0.47488100  0.48421000  1
loop_
_geom_bond_atom_site_label_1
_geom_bond_atom_site_label_2
_geom_bond_distance
_geom_bond_site_symmetry_2
La0 O6 2.374074 1_455
La0 O3 2.463594 1_555
La0 O1 2.468753 1_555
La0 O8 2.648289 1_555
La0 O9 2.749299 1_555
La0 O4 2.815600 1_565
La0 O4 2.864105 1_554
La1 O7 2.374077 1_655
La1 O2 2.463581 1_555
La1 O0 2.468740 1_554
La1 O9 2.648292 1_555
La1 O8 2.749299 1_544
La1 O5 2.815608 1_556
La1 O5 2.864098 1_545
La2 O4 2.374082 1_655
La2 O1 2.463592 1_555
La2 O3 2.468750 1_544
La2 O9 2.648284 1_555
La2 O8 2.749304 1_544
La2 O6 2.815605 1_556
La2 O6 2.864105 1_545
La3 O5 2.374079 1_455
La3 O0 2.463584 1_565
La3 O2 2.468742 1_555
La3 O8 2.648284 1_555
La3 O9 2.749302 1_555
La3 O7 2.815607 1_565
La3 O7 2.864101 1_554
Cr0 O3 2.009872 1_555
Cr0 O2 2.009873 1_455
Cr0 O5 2.017782 1_456
Cr0 O4 2.017782 1_565
Cr0 O0 2.021843 1_465
Cr0 O1 2.021845 1_566
Cr1 O1 2.009872 1_555
Cr1 O0 2.009877 1_555
Cr1 O6 2.017775 1_556
Cr1 O7 2.017775 1_555
Cr1 O3 2.021845 1_555
Cr1 O2 2.021846 1_556
Cr2 O4 2.014728 1_555
Cr2 O7 2.014736 1_555
Cr2 O9 2.132962 1_556
Cr2 O8 2.145654 1_545
Cr3 O6 2.014728 1_555
Cr3 O5 2.014735 1_555
Cr3 O8 2.132963 1_554
Cr3 O9 2.145658 1_554
