# generated using pymatgen
data_Sr3(MnN2)2
_symmetry_space_group_name_H-M   'P 1'
_cell_length_a   7.10780835
_cell_length_b   8.64230586
_cell_length_c   5.56800741
_cell_angle_alpha   89.99999610
_cell_angle_beta   93.50331369
_cell_angle_gamma   127.44102016
_symmetry_Int_Tables_number   1
_chemical_formula_structural   Sr3(MnN2)2
_chemical_formula_sum   'Sr6 Mn4 N8'
_cell_volume   270.75997024
_cell_formula_units_Z   2
loop_
 _symmetry_equiv_pos_site_id
 _symmetry_equiv_pos_as_xyz
  1  'x, y, z'
loop_
 _atom_site_type_symbol
 _atom_site_label
 _atom_site_symmetry_multiplicity
 _atom_site_fract_x
 _atom_site_fract_y
 _atom_site_fract_z
 _atom_site_occupancy
  Sr  Sr0  1  0.24785210  0.99059752  0.05224533  1
  Sr  Sr1  1  0.75214790  0.74274642  0.44775467  1
  Sr  Sr2  1  0.75214790  0.00940248  0.94775467  1
  Sr  Sr3  1  0.24785210  0.25725358  0.55224533  1
  Sr  Sr4  1  0.00000000  0.59836576  0.75000000  1
  Sr  Sr5  1  1.00000000  0.40163424  0.25000000  1
  Mn  Mn0  1  0.58269650  0.16491609  0.57381731  1
  Mn  Mn1  1  0.41730350  0.58221959  0.92618269  1
  Mn  Mn2  1  0.41730350  0.83508391  0.42618269  1
  Mn  Mn3  1  0.58269650  0.41778041  0.07381731  1
  N  N0  1  0.25727695  0.94197101  0.52481807  1
  N  N1  1  0.74272305  0.68469406  0.97518193  1
  N  N2  1  0.74272305  0.05802899  0.47518193  1
  N  N3  1  0.25727695  0.31530594  0.02481807  1
  N  N4  1  0.64294792  0.27099892  0.88758938  1
  N  N5  1  0.35705208  0.62805100  0.61241062  1
  N  N6  1  0.35705208  0.72900108  0.11241062  1
  N  N7  1  0.64294792  0.37194900  0.38758938  1
loop_
_geom_bond_atom_site_label_1
_geom_bond_atom_site_label_2
_geom_bond_distance
_geom_bond_site_symmetry_2
Mn0 N4 1.872807 1_555
Mn0 N7 1.892771 1_555
Mn0 N0 1.908142 1_545
Mn0 N2 1.950024 1_555
Mn1 N5 1.872807 1_555
Mn1 N6 1.892771 1_556
Mn1 N1 1.908142 1_555
Mn1 N3 1.950024 1_556
Mn2 N6 1.872807 1_555
Mn2 N5 1.892771 1_555
Mn2 N2 1.908142 1_565
Mn2 N0 1.950024 1_555
Mn3 N7 1.872807 1_555
Mn3 N4 1.892771 1_554
Mn3 N3 1.908142 1_555
Mn3 N1 1.950024 1_554
N0 Sr0 2.667857 1_555
N0 Sr4 2.722465 1_555
N0 Sr3 2.770444 1_565
N0 Sr1 2.886984 1_455
N0 Sr0 2.977194 1_556
N1 Sr1 2.667858 1_556
N1 Sr4 2.722465 1_655
N1 Sr2 2.770453 1_565
N1 Sr0 2.886983 1_656
N1 Sr1 2.977195 1_555
N2 Sr2 2.667857 1_555
N2 Sr5 2.722465 1_555
N2 Sr1 2.770444 1_545
N2 Sr3 2.886984 1_655
N2 Sr2 2.977194 1_554
N3 Sr3 2.667858 1_554
N3 Sr5 2.722465 1_455
N3 Sr0 2.770453 1_545
N3 Sr2 2.886983 1_454
N3 Sr3 2.977195 1_555
N4 Sr4 2.557227 1_655
N4 Sr0 2.576721 1_546
N4 Sr5 2.770853 1_556
N4 Sr2 2.815616 1_555
N5 Sr4 2.557227 1_555
N5 Sr1 2.576719 1_555
N5 Sr5 2.770853 1_455
N5 Sr3 2.815625 1_555
N6 Sr5 2.557227 1_455
N6 Sr2 2.576721 1_564
N6 Sr4 2.770853 1_554
N6 Sr0 2.815616 1_555
N7 Sr5 2.557227 1_555
N7 Sr3 2.576719 1_555
N7 Sr4 2.770853 1_655
N7 Sr1 2.815625 1_555
