# generated using pymatgen
data_Li9Mn2Co5O16
_symmetry_space_group_name_H-M   'P 1'
_cell_length_a   5.88478700
_cell_length_b   5.90228470
_cell_length_c   8.60551561
_cell_angle_alpha   88.08068010
_cell_angle_beta   70.69459453
_cell_angle_gamma   86.81417941
_symmetry_Int_Tables_number   1
_chemical_formula_structural   Li9Mn2Co5O16
_chemical_formula_sum   'Li9 Mn2 Co5 O16'
_cell_volume   281.62178758
_cell_formula_units_Z   1
loop_
 _symmetry_equiv_pos_site_id
 _symmetry_equiv_pos_as_xyz
  1  'x, y, z'
loop_
 _atom_site_type_symbol
 _atom_site_label
 _atom_site_symmetry_multiplicity
 _atom_site_fract_x
 _atom_site_fract_y
 _atom_site_fract_z
 _atom_site_occupancy
  Li  Li0  1  0.00000000  0.00000000  0.00000000  1
  Li  Li1  1  0.12213300  0.74553200  0.24632600  1
  Li  Li2  1  0.50000000  0.00000000  0.00000000  1
  Li  Li3  1  0.63514500  0.74594600  0.24144000  1
  Li  Li4  1  0.75107100  0.50119600  0.49750800  1
  Li  Li5  1  0.24892900  0.49880400  0.50249200  1
  Li  Li6  1  0.36485500  0.25405400  0.75856000  1
  Li  Li7  1  0.87786700  0.25446800  0.75367400  1
  Li  Li8  1  0.00000000  0.50000000  0.00000000  1
  Mn  Mn0  1  0.87495900  0.74576400  0.75496300  1
  Mn  Mn1  1  0.12504100  0.25423600  0.24503700  1
  Co  Co0  1  0.24803100  0.99788800  0.49930800  1
  Co  Co1  1  0.37124800  0.74306600  0.75089800  1
  Co  Co2  1  0.50000000  0.50000000  0.00000000  1
  Co  Co3  1  0.62875200  0.25693400  0.24910200  1
  Co  Co4  1  0.75196900  0.00211200  0.50069200  1
  O  O0  1  0.75702600  0.75253400  0.98608200  1
  O  O1  1  0.88731700  0.48743600  0.25234500  1
  O  O2  1  0.27999800  0.73320700  0.98111900  1
  O  O3  1  0.36367600  0.47325600  0.24500200  1
  O  O4  1  0.52101900  0.23545600  0.48646500  1
  O  O5  1  0.02265100  0.23649500  0.48809600  1
  O  O6  1  0.11825900  0.97150200  0.74209000  1
  O  O7  1  0.64122000  0.99258400  0.73598000  1
  O  O8  1  0.24297400  0.24746600  0.01391800  1
  O  O9  1  0.35878000  0.00741600  0.26402000  1
  O  O10  1  0.72000200  0.26679300  0.01888100  1
  O  O11  1  0.88174100  0.02849800  0.25791000  1
  O  O12  1  0.97734900  0.76350500  0.51190400  1
  O  O13  1  0.47898100  0.76454400  0.51353500  1
  O  O14  1  0.63632400  0.52674400  0.75499800  1
  O  O15  1  0.11268300  0.51256400  0.74765500  1
loop_
_geom_bond_atom_site_label_1
_geom_bond_atom_site_label_2
_geom_bond_distance
_geom_bond_site_symmetry_2
Li0 O6 2.104583 1_544
Li0 O11 2.104583 1_455
Li0 O8 2.132908 1_555
Li0 O0 2.132908 1_444
Li0 O2 2.184669 1_544
Li0 O10 2.184669 1_455
Li1 O3 2.083224 1_555
Li1 O1 2.100987 1_455
Li1 O11 2.110894 1_465
Li1 O2 2.163026 1_554
Li1 O12 2.163117 1_455
Li1 O9 2.178768 1_565
Li2 O8 2.020373 1_555
Li2 O0 2.020373 1_544
Li2 O10 2.136592 1_555
Li2 O2 2.136592 1_544
Li2 O7 2.146816 1_544
Li2 O9 2.146816 1_555
Li3 O0 2.073675 1_554
Li3 O1 2.090427 1_555
Li3 O9 2.143971 1_565
Li3 O13 2.218670 1_555
Li3 O11 2.308250 1_565
Li3 O3 2.322421 1_555
Li4 O1 1.996567 1_555
Li4 O14 2.100085 1_555
Li4 O12 2.129921 1_555
Li4 O13 2.142561 1_555
Li4 O4 2.152440 1_555
Li4 O5 2.155699 1_655
Li5 O15 1.996567 1_555
Li5 O3 2.100085 1_555
Li5 O5 2.129921 1_555
Li5 O4 2.142561 1_555
Li5 O13 2.152440 1_555
Li5 O12 2.155699 1_455
Li6 O8 2.073675 1_556
Li6 O15 2.090427 1_555
Li6 O7 2.143971 1_545
Li6 O4 2.218670 1_555
Li6 O6 2.308250 1_545
Li6 O14 2.322421 1_555
Li7 O14 2.083224 1_555
Li7 O15 2.100987 1_655
Li7 O6 2.110894 1_645
Li7 O10 2.163026 1_556
Li7 O5 2.163117 1_655
Li7 O7 2.178768 1_545
Li8 O0 2.035898 1_454
Li8 O8 2.035898 1_555
Li8 O1 2.050228 1_455
Li8 O15 2.050228 1_554
Li8 O2 2.167054 1_554
Li8 O10 2.167054 1_455
Mn0 O0 1.878438 1_555
Mn0 O15 1.894504 1_655
Mn0 O14 1.960790 1_555
Mn0 O12 1.976874 1_555
Mn0 O6 1.983612 1_655
Mn0 O7 1.987682 1_555
Mn1 O8 1.878438 1_555
Mn1 O1 1.894504 1_455
Mn1 O3 1.960790 1_555
Mn1 O5 1.976874 1_555
Mn1 O11 1.983612 1_455
Mn1 O9 1.987682 1_555
Co0 O5 1.902551 1_565
Co0 O13 1.910405 1_555
Co0 O9 1.910900 1_565
Co0 O6 1.977103 1_555
Co0 O12 2.140934 1_455
Co0 O4 2.163729 1_565
Co1 O2 1.873258 1_555
Co1 O13 1.930201 1_555
Co1 O14 1.968955 1_555
Co1 O6 1.970986 1_555
Co1 O15 2.104207 1_555
Co1 O7 2.195905 1_555
Co2 O10 1.877024 1_555
Co2 O2 1.877024 1_554
Co2 O3 1.996780 1_555
Co2 O14 1.996780 1_554
Co2 O0 2.154680 1_554
Co2 O8 2.154680 1_555
Co3 O10 1.873258 1_555
Co3 O4 1.930201 1_555
Co3 O3 1.968955 1_555
Co3 O11 1.970986 1_555
Co3 O1 2.104207 1_555
Co3 O9 2.195905 1_555
Co4 O12 1.902551 1_545
Co4 O4 1.910405 1_555
Co4 O7 1.910900 1_545
Co4 O11 1.977103 1_555
Co4 O5 2.140934 1_655
Co4 O13 2.163729 1_545
