# generated using pymatgen
data_Nd5Bi3
_symmetry_space_group_name_H-M   'P 1'
_cell_length_a   6.58177300
_cell_length_b   9.54675358
_cell_length_c   9.53939478
_cell_angle_alpha   120.02552022
_cell_angle_beta   90.00000000
_cell_angle_gamma   90.00000000
_symmetry_Int_Tables_number   1
_chemical_formula_structural   Nd5Bi3
_chemical_formula_sum   'Nd10 Bi6'
_cell_volume   518.96530715
_cell_formula_units_Z   2
loop_
 _symmetry_equiv_pos_site_id
 _symmetry_equiv_pos_as_xyz
  1  'x, y, z'
loop_
 _atom_site_type_symbol
 _atom_site_label
 _atom_site_symmetry_multiplicity
 _atom_site_fract_x
 _atom_site_fract_y
 _atom_site_fract_z
 _atom_site_occupancy
  Nd  Nd0  1  0.49999900  0.33336900  0.66673400  1
  Nd  Nd1  1  0.49999900  0.66663500  0.33326600  1
  Nd  Nd2  1  0.99999900  0.66663100  0.33326600  1
  Nd  Nd3  1  0.99999900  0.33336500  0.66673400  1
  Nd  Nd4  1  0.75000000  0.24868700  0.00000000  1
  Nd  Nd5  1  0.75000100  0.75184400  0.75156800  1
  Nd  Nd6  1  0.75000100  0.00027700  0.24843200  1
  Nd  Nd7  1  0.25000000  0.75131300  0.00000000  1
  Nd  Nd8  1  0.25000100  0.24815600  0.24843200  1
  Nd  Nd9  1  0.25000100  0.99972300  0.75156800  1
  Bi  Bi0  1  0.74999800  0.61317700  0.00000000  1
  Bi  Bi1  1  0.75000000  0.38701000  0.38702300  1
  Bi  Bi2  1  0.75000000  0.99998700  0.61297700  1
  Bi  Bi3  1  0.24999800  0.38682300  0.00000000  1
  Bi  Bi4  1  0.25000000  0.61299000  0.61297700  1
  Bi  Bi5  1  0.25000000  0.00001300  0.38702300  1
loop_
_geom_bond_atom_site_label_1
_geom_bond_atom_site_label_2
_geom_bond_distance
_geom_bond_site_symmetry_2
Bi0 Nd5 3.241699 1_554
Bi0 Nd6 3.241706 1_565
Bi0 Nd1 3.383965 1_555
Bi0 Nd0 3.383965 1_554
Bi0 Nd2 3.383983 1_555
Bi0 Nd3 3.383983 1_554
Bi0 Nd4 3.479696 1_555
Bi0 Nd7 3.545271 1_555
Bi0 Nd7 3.545296 1_655
Bi1 Nd6 3.239468 1_555
Bi1 Nd4 3.239643 1_555
Bi1 Nd0 3.384805 1_555
Bi1 Nd3 3.384819 1_555
Bi1 Nd2 3.386223 1_555
Bi1 Nd1 3.386262 1_555
Bi1 Nd5 3.478920 1_555
Bi1 Nd8 3.546985 1_555
Bi1 Nd8 3.546997 1_655
Bi2 Nd5 3.239477 1_555
Bi2 Nd4 3.239643 1_566
Bi2 Nd1 3.384805 1_555
Bi2 Nd2 3.384819 1_555
Bi2 Nd3 3.386223 1_565
Bi2 Nd0 3.386262 1_565
Bi2 Nd6 3.478925 1_565
Bi2 Nd9 3.546986 1_555
Bi2 Nd9 3.546999 1_655
Bi3 Nd8 3.241699 1_555
Bi3 Nd9 3.241706 1_544
Bi3 Nd3 3.383965 1_454
Bi3 Nd2 3.383965 1_455
Bi3 Nd0 3.383983 1_554
Bi3 Nd1 3.383983 1_555
Bi3 Nd7 3.479696 1_555
Bi3 Nd4 3.545271 1_455
Bi3 Nd4 3.545296 1_555
Bi4 Nd9 3.239468 1_555
Bi4 Nd7 3.239643 1_556
Bi4 Nd2 3.384805 1_455
Bi4 Nd1 3.384819 1_555
Bi4 Nd0 3.386223 1_555
Bi4 Nd3 3.386262 1_455
Bi4 Nd8 3.478920 1_555
Bi4 Nd5 3.546985 1_455
Bi4 Nd5 3.546997 1_555
Bi5 Nd8 3.239477 1_555
Bi5 Nd7 3.239643 1_545
Bi5 Nd3 3.384805 1_455
Bi5 Nd0 3.384819 1_555
Bi5 Nd1 3.386223 1_545
Bi5 Nd2 3.386262 1_445
Bi5 Nd9 3.478925 1_545
Bi5 Nd6 3.546986 1_455
Bi5 Nd6 3.546999 1_555
