# generated using pymatgen
data_Cr7Te8
_symmetry_space_group_name_H-M   'P 1'
_cell_length_a   7.47226457
_cell_length_b   7.47226457
_cell_length_c   9.40839485
_cell_angle_alpha   56.47185962
_cell_angle_beta   56.47185962
_cell_angle_gamma   66.22956116
_symmetry_Int_Tables_number   1
_chemical_formula_structural   Cr7Te8
_chemical_formula_sum   'Cr7 Te8'
_cell_volume   361.40133333
_cell_formula_units_Z   1
loop_
 _symmetry_equiv_pos_site_id
 _symmetry_equiv_pos_as_xyz
  1  'x, y, z'
loop_
 _atom_site_type_symbol
 _atom_site_label
 _atom_site_symmetry_multiplicity
 _atom_site_fract_x
 _atom_site_fract_y
 _atom_site_fract_z
 _atom_site_occupancy
  Cr  Cr0  1  0.73301700  0.26698300  0.50000000  1
  Cr  Cr1  1  0.26698300  0.73301700  0.50000000  1
  Cr  Cr2  1  0.50000000  0.00000000  0.50000000  1
  Cr  Cr3  1  0.00000000  0.50000000  0.50000000  1
  Cr  Cr4  1  0.73636600  0.73636600  0.00994600  1
  Cr  Cr5  1  0.26363400  0.26363400  0.99005400  1
  Cr  Cr6  1  0.00000000  0.00000000  0.00000000  1
  Te  Te0  1  0.96458700  0.96458700  0.33199900  1
  Te  Te1  1  0.03541300  0.03541300  0.66800100  1
  Te  Te2  1  0.53953000  0.03231900  0.16889900  1
  Te  Te3  1  0.46047000  0.96768100  0.83110100  1
  Te  Te4  1  0.96768100  0.46047000  0.83110100  1
  Te  Te5  1  0.03231900  0.53953000  0.16889900  1
  Te  Te6  1  0.45209600  0.45209600  0.33402600  1
  Te  Te7  1  0.54790400  0.54790400  0.66597400  1
loop_
_geom_bond_atom_site_label_1
_geom_bond_atom_site_label_2
_geom_bond_distance
_geom_bond_site_symmetry_2
Cr0 Te7 2.766277 1_555
Cr0 Te6 2.766277 1_555
Cr0 Te5 2.796514 1_655
Cr0 Te3 2.796514 1_545
Cr0 Te1 2.893156 1_655
Cr0 Te0 2.893156 1_545
Cr1 Te7 2.766277 1_555
Cr1 Te6 2.766277 1_555
Cr1 Te2 2.796514 1_565
Cr1 Te4 2.796514 1_455
Cr1 Te1 2.893156 1_565
Cr1 Te0 2.893156 1_455
Cr2 Te6 2.791750 1_555
Cr2 Te7 2.791750 1_545
Cr2 Te3 2.838939 1_545
Cr2 Te2 2.838939 1_555
Cr2 Te0 2.877447 1_545
Cr2 Te1 2.877447 1_555
Cr3 Te6 2.791750 1_555
Cr3 Te7 2.791750 1_455
Cr3 Te4 2.838939 1_455
Cr3 Te5 2.838939 1_555
Cr3 Te0 2.877447 1_455
Cr3 Te1 2.877447 1_555
Cr4 Te6 2.765622 1_555
Cr4 Te3 2.795629 1_554
Cr4 Te4 2.795629 1_554
Cr4 Te2 2.809222 1_565
Cr4 Te5 2.809222 1_655
Cr4 Te1 2.911834 1_664
Cr5 Te7 2.765622 1_555
Cr5 Te5 2.795629 1_556
Cr5 Te2 2.795629 1_556
Cr5 Te3 2.809222 1_545
Cr5 Te4 2.809222 1_455
Cr5 Te0 2.911834 1_446
Cr6 Te0 2.850801 1_445
Cr6 Te1 2.850801 1_554
Cr6 Te4 2.852422 1_454
Cr6 Te2 2.852422 1_455
Cr6 Te5 2.852422 1_545
Cr6 Te3 2.852422 1_544
