# generated using pymatgen
data_Sr2CoSeO2
_symmetry_space_group_name_H-M   'P 1'
_cell_length_a   4.04131000
_cell_length_b   4.04131000
_cell_length_c   6.94243500
_cell_angle_alpha   90.00000000
_cell_angle_beta   90.00000000
_cell_angle_gamma   90.00000000
_symmetry_Int_Tables_number   1
_chemical_formula_structural   Sr2CoSeO2
_chemical_formula_sum   'Sr2 Co1 Se1 O2'
_cell_volume   113.38514330
_cell_formula_units_Z   1
loop_
 _symmetry_equiv_pos_site_id
 _symmetry_equiv_pos_as_xyz
  1  'x, y, z'
loop_
 _atom_site_type_symbol
 _atom_site_label
 _atom_site_symmetry_multiplicity
 _atom_site_fract_x
 _atom_site_fract_y
 _atom_site_fract_z
 _atom_site_occupancy
  Sr  Sr0  1  0.50000000  0.50000000  0.73959800  1
  Sr  Sr1  1  0.50000000  0.50000000  0.26040200  1
  Co  Co0  1  0.00000000  0.00000000  0.50000000  1
  Se  Se0  1  0.00000000  0.00000000  0.00000000  1
  O  O0  1  0.00000000  0.50000000  0.50000000  1
  O  O1  1  0.50000000  0.00000000  0.50000000  1
loop_
_geom_bond_atom_site_label_1
_geom_bond_atom_site_label_2
_geom_bond_distance
_geom_bond_site_symmetry_2
Co0 O0 2.020655 1_555
Co0 O1 2.020655 1_555
Co0 O1 2.020655 1_455
Co0 O0 2.020655 1_545
Se0 Sr1 3.381467 1_455
Se0 Sr1 3.381467 1_555
Se0 Sr1 3.381467 1_545
Se0 Sr1 3.381467 1_445
Se0 Sr0 3.381467 1_454
Se0 Sr0 3.381467 1_554
Se0 Sr0 3.381467 1_444
Se0 Sr0 3.381467 1_544
O0 Sr0 2.617236 1_455
O0 Sr0 2.617236 1_555
O0 Sr1 2.617236 1_455
O0 Sr1 2.617236 1_555
O1 Sr0 2.617236 1_545
O1 Sr0 2.617236 1_555
O1 Sr1 2.617236 1_545
O1 Sr1 2.617236 1_555
