# generated using pymatgen
data_CdHg3Te4
_symmetry_space_group_name_H-M   'P 1'
_cell_length_a   6.57103147
_cell_length_b   6.57103147
_cell_length_c   6.57103147
_cell_angle_alpha   90.00000000
_cell_angle_beta   90.00000000
_cell_angle_gamma   90.00000000
_symmetry_Int_Tables_number   1
_chemical_formula_structural   CdHg3Te4
_chemical_formula_sum   'Cd1 Hg3 Te4'
_cell_volume   283.72698387
_cell_formula_units_Z   1
loop_
 _symmetry_equiv_pos_site_id
 _symmetry_equiv_pos_as_xyz
  1  'x, y, z'
loop_
 _atom_site_type_symbol
 _atom_site_label
 _atom_site_symmetry_multiplicity
 _atom_site_fract_x
 _atom_site_fract_y
 _atom_site_fract_z
 _atom_site_occupancy
  Cd  Cd0  1  0.00000000  -0.00000000  0.00000000  1
  Hg  Hg0  1  0.00000000  0.50000000  0.50000000  1
  Hg  Hg1  1  0.50000000  -0.00000000  0.50000000  1
  Hg  Hg2  1  0.50000000  0.50000000  0.00000000  1
  Te  Te0  1  0.24983411  0.24983411  0.24983411  1
  Te  Te1  1  0.75016589  0.75016589  0.24983411  1
  Te  Te2  1  0.24983411  0.75016589  0.75016589  1
  Te  Te3  1  0.75016589  0.24983411  0.75016589  1
loop_
_geom_bond_atom_site_label_1
_geom_bond_atom_site_label_2
_geom_bond_distance
_geom_bond_site_symmetry_2
Cd0 Te3 2.843452 1_454
Cd0 Te0 2.843452 1_555
Cd0 Te1 2.843452 1_445
Cd0 Te2 2.843452 1_544
Hg0 Te2 2.845970 1_555
Hg0 Te3 2.845970 1_455
Hg0 Te1 2.845970 1_455
Hg0 Te0 2.845970 1_555
Hg1 Te1 2.845970 1_545
Hg1 Te2 2.845970 1_545
Hg1 Te0 2.845970 1_555
Hg1 Te3 2.845970 1_555
Hg2 Te3 2.845970 1_554
Hg2 Te1 2.845970 1_555
Hg2 Te2 2.845970 1_554
Hg2 Te0 2.845970 1_555
