# generated using pymatgen
data_Tb2Ga3Co14
_symmetry_space_group_name_H-M   'P 1'
_cell_length_a   6.33355139
_cell_length_b   6.33355139
_cell_length_c   6.33355189
_cell_angle_alpha   83.08111664
_cell_angle_beta   83.08111664
_cell_angle_gamma   83.08112867
_symmetry_Int_Tables_number   1
_chemical_formula_structural   Tb2Ga3Co14
_chemical_formula_sum   'Tb2 Ga3 Co14'
_cell_volume   248.92519145
_cell_formula_units_Z   1
loop_
 _symmetry_equiv_pos_site_id
 _symmetry_equiv_pos_as_xyz
  1  'x, y, z'
loop_
 _atom_site_type_symbol
 _atom_site_label
 _atom_site_symmetry_multiplicity
 _atom_site_fract_x
 _atom_site_fract_y
 _atom_site_fract_z
 _atom_site_occupancy
  Tb  Tb0  1  0.65966087  0.65966087  0.65966087  1
  Tb  Tb1  1  0.33576390  0.33576390  0.33576390  1
  Ga  Ga0  1  0.15765891  0.65126482  0.65126482  1
  Ga  Ga1  1  0.65126482  0.65126482  0.15765891  1
  Ga  Ga2  1  0.65126482  0.15765891  0.65126482  1
  Co  Co0  1  0.90756727  0.90756727  0.90756727  1
  Co  Co1  1  0.09692839  0.09692839  0.09692839  1
  Co  Co2  1  0.00341572  0.00341572  0.49695626  1
  Co  Co3  1  0.00341572  0.49695626  0.00341572  1
  Co  Co4  1  0.49695626  0.00341572  0.00341572  1
  Co  Co5  1  0.28543599  0.71276625  0.00300515  1
  Co  Co6  1  0.71276625  0.00300515  0.28543599  1
  Co  Co7  1  0.00300515  0.28543599  0.71276625  1
  Co  Co8  1  0.28543599  0.00300515  0.71276625  1
  Co  Co9  1  0.00300515  0.71276625  0.28543599  1
  Co  Co10  1  0.71276625  0.28543599  0.00300515  1
  Co  Co11  1  0.85674226  0.33847364  0.33847364  1
  Co  Co12  1  0.33847364  0.33847364  0.85674226  1
  Co  Co13  1  0.33847364  0.85674226  0.33847364  1
loop_
_geom_bond_atom_site_label_1
_geom_bond_atom_site_label_2
_geom_bond_distance
_geom_bond_site_symmetry_2
Ga0 Tb1 3.022297 1_555
Ga0 Tb0 3.142267 1_455
Ga0 Tb0 3.193234 1_555
Ga1 Tb1 3.022296 1_555
Ga1 Tb0 3.142267 1_554
Ga1 Tb0 3.193234 1_555
Ga2 Tb1 3.022297 1_555
Ga2 Tb0 3.142267 1_545
Ga2 Tb0 3.193234 1_555
Co0 Co1 2.314046 1_666
Co0 Co3 2.613114 1_656
Co0 Co4 2.613114 1_566
Co0 Co2 2.613114 1_665
Co0 Co7 2.659454 1_665
Co0 Co8 2.659454 1_665
Co0 Co6 2.659454 1_566
Co0 Co9 2.659454 1_656
Co0 Co5 2.659454 1_656
Co0 Co10 2.659454 1_566
Co0 Ga1 2.678635 1_556
Co0 Ga0 2.678636 1_655
Co0 Ga2 2.678636 1_565
Co0 Tb0 3.029486 1_555
Co1 Co12 2.537210 1_554
Co1 Co13 2.537211 1_545
Co1 Co11 2.537211 1_455
Co1 Co3 2.546003 1_555
Co1 Co4 2.546003 1_555
Co1 Co2 2.546003 1_555
Co1 Co9 2.679004 1_545
Co1 Co6 2.679004 1_455
Co1 Co8 2.679005 1_554
Co1 Co7 2.679005 1_554
Co1 Co5 2.679005 1_545
Co1 Co10 2.679005 1_455
Co1 Tb1 2.918637 1_555
Co2 Co7 2.375917 1_555
Co2 Co8 2.375917 1_555
Co2 Co9 2.404078 1_545
Co2 Co6 2.404078 1_455
Co2 Ga2 2.462508 1_455
Co2 Ga0 2.462508 1_545
Co2 Tb1 3.152120 1_555
Co2 Tb0 3.256252 1_445
Co3 Co5 2.375916 1_555
Co3 Co9 2.375917 1_555
Co3 Co7 2.404078 1_554
Co3 Ga0 2.462508 1_554
Co3 Ga1 2.462508 1_455
Co3 Tb1 3.152120 1_555
Co3 Tb0 3.256253 1_454
Co4 Co6 2.375917 1_555
Co4 Co5 2.404078 1_545
Co4 Co8 2.404078 1_554
Co4 Ga2 2.462508 1_554
Co4 Ga1 2.462508 1_545
Co4 Tb1 3.152120 1_555
Co4 Tb0 3.256253 1_544
Co5 Co9 2.372473 1_555
Co5 Co8 2.438062 1_564
Co5 Ga0 2.547350 1_554
Co5 Ga1 2.591728 1_555
Co5 Tb1 3.001803 1_555
Co5 Tb0 3.033489 1_554
Co6 Co9 2.438062 1_645
Co6 Ga1 2.547350 1_545
Co6 Ga2 2.591728 1_555
Co6 Tb1 3.001803 1_555
Co6 Tb0 3.033489 1_545
Co7 Co8 2.372473 1_555
Co7 Ga2 2.547349 1_455
Co7 Ga0 2.591728 1_555
Co7 Tb1 3.001803 1_555
Co7 Tb0 3.033489 1_455
Co8 Ga0 2.547349 1_545
Co8 Ga2 2.591728 1_555
Co8 Tb1 3.001803 1_555
Co8 Tb0 3.033489 1_545
Co9 Ga1 2.547350 1_455
Co9 Ga0 2.591728 1_555
Co9 Tb1 3.001803 1_555
Co9 Tb0 3.033489 1_455
Co10 Co6 2.372473 1_555
Co10 Co4 2.375916 1_555
Co10 Co3 2.404078 1_655
Co10 Co7 2.438062 1_654
Co10 Co11 2.484209 1_555
Co10 Ga2 2.547350 1_554
Co10 Ga1 2.591728 1_555
Co10 Co12 2.617823 1_554
Co10 Tb1 3.001803 1_555
Co10 Tb0 3.033489 1_554
Co11 Co3 2.368616 1_655
Co11 Co2 2.368616 1_655
Co11 Ga2 2.474089 1_555
Co11 Ga1 2.474089 1_555
Co11 Co6 2.484208 1_555
Co11 Co9 2.617823 1_655
Co11 Co7 2.617824 1_655
Co11 Tb1 3.029879 1_655
Co11 Tb0 3.099667 1_555
Co11 Tb1 3.303875 1_555
Co12 Co4 2.368616 1_556
Co12 Co3 2.368616 1_556
Co12 Ga0 2.474089 1_555
Co12 Ga2 2.474089 1_555
Co12 Co8 2.484209 1_555
Co12 Co7 2.484209 1_555
Co12 Co5 2.617823 1_556
Co12 Tb1 3.029880 1_556
Co12 Tb0 3.099666 1_555
Co12 Tb1 3.303876 1_555
Co13 Co4 2.368616 1_565
Co13 Co2 2.368616 1_565
Co13 Ga0 2.474089 1_555
Co13 Ga1 2.474089 1_555
Co13 Co9 2.484208 1_555
Co13 Co5 2.484209 1_555
Co13 Co6 2.617823 1_565
Co13 Co8 2.617824 1_565
Co13 Tb1 3.029879 1_565
Co13 Tb0 3.099667 1_555
Co13 Tb1 3.303875 1_555
