# generated using pymatgen
data_Y11Ta5O28
_symmetry_space_group_name_H-M   'P 1'
_cell_length_a   6.45334100
_cell_length_b   7.37129488
_cell_length_c   13.02978983
_cell_angle_alpha   106.42101329
_cell_angle_beta   99.50637733
_cell_angle_gamma   90.07829568
_symmetry_Int_Tables_number   1
_chemical_formula_structural   Y11Ta5O28
_chemical_formula_sum   'Y11 Ta5 O28'
_cell_volume   585.61642179
_cell_formula_units_Z   1
loop_
 _symmetry_equiv_pos_site_id
 _symmetry_equiv_pos_as_xyz
  1  'x, y, z'
loop_
 _atom_site_type_symbol
 _atom_site_label
 _atom_site_symmetry_multiplicity
 _atom_site_fract_x
 _atom_site_fract_y
 _atom_site_fract_z
 _atom_site_occupancy
  Y  Y0  1  0.71656800  0.62196300  0.25432200  1
  Y  Y1  1  0.50000000  0.50000000  0.50000000  1
  Y  Y2  1  0.77758000  0.12587100  0.24834600  1
  Y  Y3  1  0.50000000  0.00000000  0.00000000  1
  Y  Y4  1  0.00699300  0.74595800  0.49829600  1
  Y  Y5  1  0.99300700  0.25404200  0.50170400  1
  Y  Y6  1  0.50000000  0.50000000  0.00000000  1
  Y  Y7  1  0.22242000  0.87412900  0.75165400  1
  Y  Y8  1  0.97743200  0.75907800  0.98062300  1
  Y  Y9  1  0.28343200  0.37803700  0.74567800  1
  Y  Y10  1  0.02256800  0.24092200  0.01937700  1
  Ta  Ta0  1  0.50000000  0.00000000  0.50000000  1
  Ta  Ta1  1  0.75833300  0.60660900  0.75477400  1
  Ta  Ta2  1  0.24071100  0.86101400  0.24514500  1
  Ta  Ta3  1  0.24166700  0.39339100  0.24522600  1
  Ta  Ta4  1  0.75928900  0.13898600  0.75485500  1
  O  O0  1  0.61995900  0.40309400  0.69200800  1
  O  O1  1  0.85488900  0.85756300  0.78377300  1
  O  O2  1  0.63970500  0.75520300  0.59242200  1
  O  O3  1  0.64844600  0.15473200  0.58959900  1
  O  O4  1  0.70522000  0.21572500  0.06937100  1
  O  O5  1  0.69599800  0.71440000  0.06934800  1
  O  O6  1  0.22978200  0.96680300  0.56895400  1
  O  O7  1  0.20106100  0.47098900  0.55496000  1
  O  O8  1  0.53145400  0.36968600  0.21146400  1
  O  O9  1  0.03074800  0.62322700  0.69717400  1
  O  O10  1  0.36029500  0.24479700  0.40757800  1
  O  O11  1  0.35155400  0.84526800  0.41040100  1
  O  O12  1  0.03202400  0.17764600  0.69852000  1
  O  O13  1  0.53132200  0.91786900  0.21064200  1
  O  O14  1  0.14511100  0.14243700  0.21622700  1
  O  O15  1  0.38004100  0.59690600  0.30799200  1
  O  O16  1  0.96925200  0.37677300  0.30282600  1
  O  O17  1  0.46854600  0.63031400  0.78853600  1
  O  O18  1  0.46867800  0.08213100  0.78935800  1
  O  O19  1  0.16145900  0.48540200  0.08676900  1
  O  O20  1  0.96797600  0.82235400  0.30148000  1
  O  O21  1  0.16116500  0.92637500  0.08655900  1
  O  O22  1  0.79893900  0.52901100  0.44504000  1
  O  O23  1  0.29478000  0.78427500  0.93062900  1
  O  O24  1  0.30400200  0.28560000  0.93065200  1
  O  O25  1  0.77021800  0.03319700  0.43104600  1
  O  O26  1  0.83883500  0.07362500  0.91344100  1
  O  O27  1  0.83854100  0.51459800  0.91323100  1
loop_
_geom_bond_atom_site_label_1
_geom_bond_atom_site_label_2
_geom_bond_distance
_geom_bond_site_symmetry_2
O0 Ta1 1.666794 1_555
O0 Y9 2.411040 1_555
O0 Ta4 2.435581 1_555
O1 Ta1 1.864643 1_555
O1 Ta4 2.279163 1_565
O1 Y7 2.484247 1_655
O2 Y1 2.039058 1_555
O2 Ta0 2.528545 1_565
O2 Ta1 2.652958 1_555
O3 Ta0 1.567264 1_555
O3 Ta4 2.189611 1_555
O4 Y3 1.971234 1_555
O4 Y10 2.271779 1_655
O4 Y2 2.570882 1_555
O4 Y6 2.764961 1_555
O5 Y6 1.929665 1_555
O5 Y8 2.377113 1_554
O5 Y0 2.667190 1_555
O5 Y3 2.748386 1_565
O6 Y4 2.067316 1_555
O6 Ta0 2.132751 1_565
O6 Y7 2.663196 1_555
O6 Y5 2.863770 1_465
O7 Y5 1.974985 1_455
O7 Y1 2.195901 1_555
O7 Y4 2.601811 1_555
O7 Y9 2.730324 1_555
O8 Ta3 1.987582 1_555
O8 Y0 2.093683 1_555
O8 Y2 2.495553 1_555
O9 Ta1 2.038628 1_455
O9 Y7 2.101398 1_555
O9 Y9 2.576527 1_555
O10 Y1 2.039058 1_555
O10 Ta0 2.528545 1_555
O10 Ta3 2.652958 1_555
O11 Ta0 1.567264 1_565
O11 Ta2 2.189611 1_555
O12 Ta4 2.064326 1_455
O12 Y9 2.083925 1_555
O12 Y5 2.749661 1_455
O12 Y7 2.756238 1_545
O13 Ta2 2.068283 1_555
O13 Y2 2.104111 1_565
O13 Y0 2.644803 1_555
O14 Ta3 1.864643 1_555
O14 Ta2 2.279163 1_545
O14 Y2 2.484247 1_455
O15 Ta3 1.666794 1_555
O15 Y0 2.411040 1_555
O15 Ta2 2.435581 1_555
O16 Ta3 2.038628 1_655
O16 Y2 2.101398 1_555
O16 Y0 2.576527 1_555
O17 Ta1 1.987582 1_555
O17 Y9 2.093683 1_555
O17 Y7 2.495553 1_555
O18 Ta4 2.068283 1_555
O18 Y7 2.104111 1_545
O18 Y9 2.644803 1_555
O19 Y10 1.913906 1_555
O19 Ta3 2.330331 1_555
O19 Y6 2.635682 1_555
O19 Y8 2.904205 1_454
O19 Ta2 2.933107 1_555
O20 Ta2 2.064326 1_655
O20 Y0 2.083925 1_555
O20 Y4 2.749661 1_655
O20 Y2 2.756238 1_565
O21 Y8 1.823437 1_454
O21 Ta2 2.231274 1_555
O22 Y4 1.974985 1_655
O22 Y1 2.195901 1_555
O22 Y5 2.601811 1_555
O22 Y0 2.730324 1_555
O23 Y3 1.971234 1_566
O23 Y8 2.271779 1_455
O23 Y7 2.570882 1_555
O23 Y6 2.764961 1_556
O24 Y6 1.929665 1_556
O24 Y10 2.377113 1_556
O24 Y9 2.667190 1_555
O24 Y3 2.748386 1_556
O25 Y5 2.067316 1_555
O25 Ta0 2.132751 1_555
O25 Y2 2.663196 1_555
O25 Y4 2.863770 1_645
O26 Y10 1.823437 1_656
O26 Ta4 2.231274 1_555
O27 Y8 1.913906 1_555
O27 Ta1 2.330331 1_555
O27 Y6 2.635682 1_556
O27 Y10 2.904205 1_656
O27 Ta4 2.933107 1_555
