# generated using pymatgen
data_NaMg6Ga
_symmetry_space_group_name_H-M   'P 1'
_cell_length_a   5.13105600
_cell_length_b   6.41388400
_cell_length_c   11.10129100
_cell_angle_alpha   90.00000000
_cell_angle_beta   90.00000000
_cell_angle_gamma   90.00000000
_symmetry_Int_Tables_number   1
_chemical_formula_structural   NaMg6Ga
_chemical_formula_sum   'Na2 Mg12 Ga2'
_cell_volume   365.34346440
_cell_formula_units_Z   2
loop_
 _symmetry_equiv_pos_site_id
 _symmetry_equiv_pos_as_xyz
  1  'x, y, z'
loop_
 _atom_site_type_symbol
 _atom_site_label
 _atom_site_symmetry_multiplicity
 _atom_site_fract_x
 _atom_site_fract_y
 _atom_site_fract_z
 _atom_site_occupancy
  Na  Na0  1  0.00000000  0.50000000  0.33080600  1
  Na  Na1  1  0.00000000  0.00000000  0.83080600  1
  Mg  Mg0  1  0.00000000  0.25516900  0.08412300  1
  Mg  Mg1  1  0.00000000  0.74483100  0.08412300  1
  Mg  Mg2  1  0.00000000  0.50000000  0.83450200  1
  Mg  Mg3  1  0.50000000  0.25382200  0.91730300  1
  Mg  Mg4  1  0.50000000  0.74617800  0.91730300  1
  Mg  Mg5  1  0.50000000  0.50000000  0.66715500  1
  Mg  Mg6  1  0.00000000  0.75516900  0.58412300  1
  Mg  Mg7  1  0.00000000  0.24483100  0.58412300  1
  Mg  Mg8  1  0.00000000  0.00000000  0.33450200  1
  Mg  Mg9  1  0.50000000  0.75382200  0.41730300  1
  Mg  Mg10  1  0.50000000  0.24617800  0.41730300  1
  Mg  Mg11  1  0.50000000  0.00000000  0.16715500  1
  Ga  Ga0  1  0.50000000  0.50000000  0.16468500  1
  Ga  Ga1  1  0.50000000  0.00000000  0.66468500  1
loop_
_geom_bond_atom_site_label_1
_geom_bond_atom_site_label_2
_geom_bond_distance
_geom_bond_site_symmetry_2
Mg0 Mg1 3.140635 1_555
Mg0 Na0 3.156783 1_555
Mg0 Mg3 3.164112 1_554
Mg0 Mg3 3.164112 1_454
Mg0 Mg11 3.179641 1_455
Mg0 Mg11 3.179641 1_555
Mg0 Mg2 3.185118 1_554
Mg0 Mg8 3.225574 1_555
Mg0 Na1 3.253721 1_554
Mg0 Mg1 3.273249 1_545
Mg1 Na0 3.156783 1_555
Mg1 Mg4 3.164112 1_454
Mg1 Mg4 3.164112 1_554
Mg1 Mg11 3.179641 1_465
Mg1 Mg11 3.179641 1_565
Mg1 Mg2 3.185118 1_554
Mg1 Mg8 3.225574 1_565
Mg1 Na1 3.253721 1_564
Mg2 Mg3 3.149598 1_455
Mg2 Mg4 3.149598 1_455
Mg2 Mg3 3.149598 1_555
Mg2 Mg4 3.149598 1_555
Mg2 Mg5 3.167528 1_455
Mg2 Mg5 3.167528 1_555
Mg2 Na1 3.207204 1_555
Mg2 Na1 3.207204 1_565
Mg2 Mg6 3.225574 1_555
Mg2 Mg7 3.225574 1_555
Mg3 Mg4 3.157914 1_555
Mg3 Na1 3.186582 1_655
Mg3 Na1 3.186582 1_555
Mg3 Mg5 3.194471 1_555
Mg3 Mg4 3.255970 1_545
Mg4 Na1 3.186582 1_565
Mg4 Na1 3.186582 1_665
Mg4 Mg5 3.194471 1_555
Mg5 Mg7 3.179641 1_655
Mg5 Mg6 3.179641 1_555
Mg5 Mg6 3.179641 1_655
Mg5 Mg7 3.179641 1_555
Mg5 Mg9 3.216152 1_555
Mg6 Mg7 3.140635 1_565
Mg6 Na1 3.156783 1_565
Mg6 Mg9 3.164112 1_455
Mg6 Mg9 3.164112 1_555
Mg6 Mg8 3.185118 1_565
Mg6 Na0 3.253721 1_555
Mg6 Mg7 3.273249 1_555
Mg7 Na1 3.156783 1_555
Mg7 Mg8 3.185118 1_555
Mg7 Na0 3.253721 1_555
Mg8 Mg9 3.149598 1_445
Mg8 Mg9 3.149598 1_545
Mg8 Na0 3.207204 1_555
Mg8 Na0 3.207204 1_545
Mg9 Na0 3.186582 1_555
Mg9 Na0 3.186582 1_655
Mg10 Mg8 3.149598 1_555
Mg10 Mg8 3.149598 1_655
Mg10 Mg9 3.157914 1_545
Mg10 Mg7 3.164112 1_555
Mg10 Mg7 3.164112 1_655
Mg10 Na0 3.186582 1_555
Mg10 Na0 3.186582 1_655
Mg10 Mg11 3.194471 1_555
Mg10 Mg5 3.216152 1_555
Mg10 Mg9 3.255970 1_555
Mg11 Mg8 3.167528 1_655
Mg11 Mg8 3.167528 1_555
Mg11 Mg9 3.194471 1_545
Mg11 Mg4 3.216152 1_544
Mg11 Mg3 3.216152 1_554
Ga0 Mg0 3.138101 1_655
Ga0 Mg1 3.138101 1_555
Ga0 Mg1 3.138101 1_655
Ga0 Mg0 3.138101 1_555
Ga0 Na0 3.159565 1_655
Ga0 Na0 3.159565 1_555
Ga0 Mg4 3.167814 1_554
Ga0 Mg3 3.167814 1_554
Ga0 Mg11 3.207059 1_555
Ga0 Mg11 3.207059 1_565
Ga0 Mg9 3.242671 1_555
Ga0 Mg10 3.242671 1_555
Ga1 Mg7 3.138101 1_655
Ga1 Mg6 3.138101 1_645
Ga1 Mg6 3.138101 1_545
Ga1 Mg7 3.138101 1_555
Ga1 Na1 3.159565 1_555
Ga1 Na1 3.159565 1_655
Ga1 Mg10 3.167814 1_555
Ga1 Mg9 3.167814 1_545
Ga1 Mg5 3.207059 1_555
Ga1 Mg5 3.207059 1_545
Ga1 Mg4 3.242671 1_545
Ga1 Mg3 3.242671 1_555
