# generated using pymatgen
data_Ba2CuH6
_symmetry_space_group_name_H-M   'P 1'
_cell_length_a   7.88925981
_cell_length_b   7.88925981
_cell_length_c   5.85575800
_cell_angle_alpha   90.00000000
_cell_angle_beta   90.00000000
_cell_angle_gamma   136.41056466
_symmetry_Int_Tables_number   1
_chemical_formula_structural   Ba2CuH6
_chemical_formula_sum   'Ba4 Cu2 H12'
_cell_volume   251.29340553
_cell_formula_units_Z   2
loop_
 _symmetry_equiv_pos_site_id
 _symmetry_equiv_pos_as_xyz
  1  'x, y, z'
loop_
 _atom_site_type_symbol
 _atom_site_label
 _atom_site_symmetry_multiplicity
 _atom_site_fract_x
 _atom_site_fract_y
 _atom_site_fract_z
 _atom_site_occupancy
  Ba  Ba0  1  0.35816900  0.64183100  0.00000000  1
  Ba  Ba1  1  0.85816900  0.14183100  0.50000000  1
  Ba  Ba2  1  0.64183100  0.35816900  0.00000000  1
  Ba  Ba3  1  0.14183100  0.85816900  0.50000000  1
  Cu  Cu0  1  0.00000000  0.00000000  0.00000000  1
  Cu  Cu1  1  0.50000000  0.50000000  0.50000000  1
  H  H0  1  0.00027000  0.50027000  0.25000000  1
  H  H1  1  0.49973000  0.99973000  0.75000000  1
  H  H2  1  0.99973000  0.49973000  0.75000000  1
  H  H3  1  0.50027000  0.00027000  0.25000000  1
  H  H4  1  0.10898000  0.89102000  0.00000000  1
  H  H5  1  0.60898000  0.39102000  0.50000000  1
  H  H6  1  0.89102000  0.10898000  0.00000000  1
  H  H7  1  0.39102000  0.60898000  0.50000000  1
  H  H8  1  0.79185000  0.79185000  0.20705600  1
  H  H9  1  0.20815000  0.20815000  0.79294400  1
  H  H10  1  0.70815000  0.70815000  0.70705600  1
  H  H11  1  0.29185000  0.29185000  0.29294400  1
loop_
_geom_bond_atom_site_label_1
_geom_bond_atom_site_label_2
_geom_bond_distance
_geom_bond_site_symmetry_2
Ba0 H1 2.606700 1_554
Ba0 H0 2.606700 1_555
Ba0 H3 2.608477 1_565
Ba0 H2 2.608477 1_454
Ba0 H9 2.951448 1_554
Ba0 H8 2.951448 1_555
Ba0 H10 2.957587 1_554
Ba0 H11 2.957587 1_555
Ba0 H7 2.967173 1_555
Ba0 H7 2.967173 1_554
Ba0 H6 2.968419 1_565
Ba0 H6 2.968419 1_455
Ba1 H2 2.606700 1_555
Ba1 H3 2.606700 1_555
Ba1 H0 2.608477 1_655
Ba1 H1 2.608477 1_545
Ba1 H11 2.951448 1_655
Ba1 H10 2.951448 1_545
Ba1 H8 2.957587 1_545
Ba1 H9 2.957587 1_655
Ba1 H6 2.967173 1_555
Ba1 H6 2.967173 1_556
Ba1 H7 2.968419 1_655
Ba1 H7 2.968419 1_545
Ba2 H2 2.606700 1_554
Ba2 H3 2.606700 1_555
Ba2 H0 2.608477 1_655
Ba2 H1 2.608477 1_544
Ba2 H9 2.951448 1_554
Ba2 H8 2.951448 1_555
Ba2 H10 2.957587 1_554
Ba2 H11 2.957587 1_555
Ba2 H5 2.967173 1_555
Ba2 H5 2.967173 1_554
Ba2 H4 2.968419 1_655
Ba2 H4 2.968419 1_545
Ba3 H1 2.606700 1_555
Ba3 H0 2.606700 1_555
Ba3 H3 2.608477 1_565
Ba3 H2 2.608477 1_455
Ba3 H11 2.951448 1_565
Ba3 H10 2.951448 1_455
Ba3 H9 2.957587 1_565
Ba3 H8 2.957587 1_455
Ba3 H4 2.967173 1_555
Ba3 H4 2.967173 1_556
Ba3 H5 2.968419 1_455
Ba3 H5 2.968419 1_565
Cu0 H4 1.596630 1_545
Cu0 H6 1.596630 1_455
Cu0 H8 1.719600 1_445
Cu0 H9 1.719600 1_554
Cu1 H5 1.596630 1_555
Cu1 H7 1.596630 1_555
Cu1 H10 1.719600 1_555
Cu1 H11 1.719600 1_555
