# generated using pymatgen
data_KPtBr3NO
_symmetry_space_group_name_H-M   'P 1'
_cell_length_a   8.55002200
_cell_length_b   14.68818700
_cell_length_c   19.68650100
_cell_angle_alpha   90.00000000
_cell_angle_beta   90.00000000
_cell_angle_gamma   90.00000000
_symmetry_Int_Tables_number   1
_chemical_formula_structural   KPtBr3NO
_chemical_formula_sum   'K12 Pt12 Br36 N12 O12'
_cell_volume   2472.31588044
_cell_formula_units_Z   12
loop_
 _symmetry_equiv_pos_site_id
 _symmetry_equiv_pos_as_xyz
  1  'x, y, z'
loop_
 _atom_site_type_symbol
 _atom_site_label
 _atom_site_symmetry_multiplicity
 _atom_site_fract_x
 _atom_site_fract_y
 _atom_site_fract_z
 _atom_site_occupancy
  K  K0  1  0.75000000  0.00000000  0.59992200  1
  K  K1  1  0.25000000  0.50000000  0.90007800  1
  K  K2  1  0.25000000  0.00000000  0.40007800  1
  K  K3  1  0.75000000  0.50000000  0.09992200  1
  K  K4  1  0.52011300  0.32617900  0.52623100  1
  K  K5  1  0.02011300  0.17382100  0.97376900  1
  K  K6  1  0.47988700  0.82617900  0.97376900  1
  K  K7  1  0.97988700  0.67382100  0.52623100  1
  K  K8  1  0.47988700  0.67382100  0.47376900  1
  K  K9  1  0.97988700  0.82617900  0.02623100  1
  K  K10  1  0.52011300  0.17382100  0.02623100  1
  K  K11  1  0.02011300  0.32617900  0.47376900  1
  Pt  Pt0  1  0.75000000  0.00000000  0.83745100  1
  Pt  Pt1  1  0.25000000  0.50000000  0.66254900  1
  Pt  Pt2  1  0.25000000  0.00000000  0.16254900  1
  Pt  Pt3  1  0.75000000  0.50000000  0.33745100  1
  Pt  Pt4  1  0.73869300  0.30563300  0.83523300  1
  Pt  Pt5  1  0.23869300  0.19436700  0.66476700  1
  Pt  Pt6  1  0.26130700  0.80563300  0.66476700  1
  Pt  Pt7  1  0.76130700  0.69436700  0.83523300  1
  Pt  Pt8  1  0.26130700  0.69436700  0.16476700  1
  Pt  Pt9  1  0.76130700  0.80563300  0.33523300  1
  Pt  Pt10  1  0.73869300  0.19436700  0.33523300  1
  Pt  Pt11  1  0.23869300  0.30563300  0.16476700  1
  Br  Br0  1  0.75000000  0.00000000  0.96825000  1
  Br  Br1  1  0.25000000  0.50000000  0.53175000  1
  Br  Br2  1  0.25000000  0.00000000  0.03175000  1
  Br  Br3  1  0.75000000  0.50000000  0.46825000  1
  Br  Br4  1  0.76672800  0.36806300  0.96508700  1
  Br  Br5  1  0.26672800  0.13193700  0.53491300  1
  Br  Br6  1  0.23327200  0.86806300  0.53491300  1
  Br  Br7  1  0.73327200  0.63193700  0.96508700  1
  Br  Br8  1  0.23327200  0.63193700  0.03491300  1
  Br  Br9  1  0.73327200  0.86806300  0.46508700  1
  Br  Br10  1  0.76672800  0.13193700  0.46508700  1
  Br  Br11  1  0.26672800  0.36806300  0.03491300  1
  Br  Br12  1  0.46050100  0.99531100  0.84504200  1
  Br  Br13  1  0.96050100  0.50468900  0.65495800  1
  Br  Br14  1  0.53949900  0.49531100  0.65495800  1
  Br  Br15  1  0.03949900  0.00468900  0.84504200  1
  Br  Br16  1  0.53949900  0.00468900  0.15495800  1
  Br  Br17  1  0.03949900  0.49531100  0.34504200  1
  Br  Br18  1  0.46050100  0.50468900  0.34504200  1
  Br  Br19  1  0.96050100  0.99531100  0.15495800  1
  Br  Br20  1  0.44282500  0.31250500  0.84131300  1
  Br  Br21  1  0.94282500  0.18749500  0.65868700  1
  Br  Br22  1  0.55717500  0.81250500  0.65868700  1
  Br  Br23  1  0.05717500  0.68749500  0.84131300  1
  Br  Br24  1  0.55717500  0.68749500  0.15868700  1
  Br  Br25  1  0.05717500  0.81250500  0.34131300  1
  Br  Br26  1  0.44282500  0.18749500  0.34131300  1
  Br  Br27  1  0.94282500  0.31250500  0.15868700  1
  Br  Br28  1  0.03820500  0.29900600  0.83131100  1
  Br  Br29  1  0.53820500  0.20099400  0.66868900  1
  Br  Br30  1  0.96179500  0.79900600  0.66868900  1
  Br  Br31  1  0.46179500  0.70099400  0.83131100  1
  Br  Br32  1  0.96179500  0.70099400  0.16868900  1
  Br  Br33  1  0.46179500  0.79900600  0.33131100  1
  Br  Br34  1  0.03820500  0.20099400  0.33131100  1
  Br  Br35  1  0.53820500  0.29900600  0.16868900  1
  N  N0  1  0.75000000  0.00000000  0.74870200  1
  N  N1  1  0.25000000  0.50000000  0.75129800  1
  N  N2  1  0.25000000  0.00000000  0.25129800  1
  N  N3  1  0.75000000  0.50000000  0.24870200  1
  N  N4  1  0.74103700  0.35066200  0.75492700  1
  N  N5  1  0.24103700  0.14933800  0.74507300  1
  N  N6  1  0.25896300  0.85066200  0.74507300  1
  N  N7  1  0.75896300  0.64933800  0.75492700  1
  N  N8  1  0.25896300  0.64933800  0.24507300  1
  N  N9  1  0.75896300  0.85066200  0.25492700  1
  N  N10  1  0.74103700  0.14933800  0.25492700  1
  N  N11  1  0.24103700  0.35066200  0.24507300  1
  O  O0  1  0.50000000  0.00000000  0.50000000  1
  O  O1  1  0.00000000  0.50000000  0.00000000  1
  O  O2  1  0.50000000  0.50000000  0.00000000  1
  O  O3  1  0.00000000  0.00000000  0.50000000  1
  O  O4  1  0.73893500  0.20428300  0.89473200  1
  O  O5  1  0.23893500  0.29571700  0.60526800  1
  O  O6  1  0.26106500  0.70428300  0.60526800  1
  O  O7  1  0.76106500  0.79571700  0.89473200  1
  O  O8  1  0.26106500  0.79571700  0.10526800  1
  O  O9  1  0.76106500  0.70428300  0.39473200  1
  O  O10  1  0.73893500  0.29571700  0.39473200  1
  O  O11  1  0.23893500  0.20428300  0.10526800  1
loop_
_geom_bond_atom_site_label_1
_geom_bond_atom_site_label_2
_geom_bond_distance
_geom_bond_site_symmetry_2
K0 O0 2.904904 1_555
K0 O3 2.904904 1_655
K0 N0 2.928958 1_555
K1 O1 2.904904 1_556
K1 O2 2.904904 1_556
K1 N1 2.928958 1_555
K2 O3 2.904904 1_555
K2 O0 2.904904 1_555
K2 N2 2.928958 1_555
K3 O1 2.904904 1_655
K3 O2 2.904904 1_555
K3 N3 2.928958 1_555
K4 O5 2.898414 1_555
K4 O10 3.225250 1_555
K5 O4 2.898414 1_455
K5 O11 3.225250 1_556
K6 O7 2.898414 1_555
K6 O8 3.225250 1_556
K7 O6 2.898414 1_655
K7 O9 3.225250 1_555
K8 O9 2.898414 1_555
K8 O6 3.225250 1_555
K9 O8 2.898414 1_655
K9 O7 3.225250 1_554
K10 O11 2.898414 1_555
K10 O4 3.225250 1_554
K11 O10 2.898414 1_455
K11 O5 3.225250 1_555
Br0 Pt0 2.574975 1_555
Br0 K9 3.418279 1_546
Br0 K10 3.418279 1_556
Br0 K6 3.444396 1_545
Br0 K5 3.444396 1_655
Br1 Pt1 2.574975 1_555
Br1 K11 3.418279 1_555
Br1 K8 3.418279 1_555
Br1 K7 3.444396 1_455
Br1 K4 3.444396 1_555
Br2 Pt2 2.574975 1_555
Br2 K5 3.418279 1_554
Br2 K6 3.418279 1_544
Br2 K9 3.444396 1_445
Br2 K10 3.444396 1_555
Br3 Pt3 2.574975 1_555
Br3 K4 3.418279 1_555
Br3 K7 3.418279 1_555
Br3 K8 3.444396 1_555
Br3 K11 3.444396 1_655
Br4 Pt4 2.726417 1_555
Br4 K3 3.289676 1_556
Br4 K5 3.586457 1_655
Br4 K10 3.746322 1_556
Br5 Pt5 2.726417 1_555
Br5 K2 3.289676 1_555
Br5 K4 3.586457 1_555
Br5 K11 3.746322 1_555
Br6 Pt6 2.726417 1_555
Br6 K2 3.289676 1_565
Br6 K7 3.586457 1_455
Br6 K8 3.746322 1_555
Br7 Pt7 2.726417 1_555
Br7 K3 3.289676 1_556
Br7 K6 3.586457 1_555
Br7 K9 3.746322 1_556
Br8 Pt8 2.726417 1_555
Br8 K1 3.289676 1_554
Br8 K9 3.586457 1_455
Br8 K6 3.746322 1_554
Br9 Pt9 2.726417 1_555
Br9 K0 3.289676 1_565
Br9 K8 3.586457 1_555
Br9 K7 3.746322 1_555
Br10 Pt10 2.726417 1_555
Br10 K0 3.289676 1_555
Br10 K11 3.586457 1_655
Br10 K4 3.746322 1_555
Br11 Pt11 2.726417 1_555
Br11 K1 3.289676 1_554
Br11 K10 3.586457 1_555
Br11 K5 3.746322 1_554
Br12 Pt0 2.480686 1_565
Br12 K6 3.552608 1_555
Br13 Pt1 2.480686 1_655
Br13 K7 3.552608 1_555
Br14 Pt1 2.480686 1_555
Br14 K4 3.552608 1_555
Br15 Pt0 2.480686 1_455
Br15 K5 3.552608 1_555
Br16 Pt2 2.480686 1_555
Br16 K10 3.552608 1_555
Br17 Pt3 2.480686 1_455
Br17 K11 3.552608 1_555
Br18 Pt3 2.480686 1_555
Br18 K8 3.552608 1_555
Br19 Pt2 2.480686 1_665
Br19 K9 3.552608 1_555
Br20 Pt4 2.534519 1_555
Br20 K1 3.411853 1_555
Br21 Pt5 2.534519 1_655
Br21 K0 3.411853 1_555
Br22 Pt6 2.534519 1_555
Br22 K0 3.411853 1_565
Br23 Pt7 2.534519 1_455
Br23 K1 3.411853 1_555
Br24 Pt8 2.534519 1_555
Br24 K3 3.411853 1_555
Br25 Pt9 2.534519 1_455
Br25 K2 3.411853 1_565
Br26 Pt10 2.534519 1_555
Br26 K2 3.411853 1_555
Br27 Pt11 2.534519 1_655
Br27 K3 3.411853 1_555
Br28 Pt4 2.563846 1_455
Br28 K5 3.357099 1_555
Br28 K1 3.718550 1_555
Br29 Pt5 2.563846 1_555
Br29 K4 3.357099 1_555
Br29 K0 3.718550 1_555
Br30 Pt6 2.563846 1_655
Br30 K7 3.357099 1_555
Br30 K0 3.718550 1_565
Br31 Pt7 2.563846 1_555
Br31 K6 3.357099 1_555
Br31 K1 3.718550 1_555
Br32 Pt8 2.563846 1_655
Br32 K9 3.357099 1_555
Br32 K3 3.718550 1_555
Br33 Pt9 2.563846 1_555
Br33 K8 3.357099 1_555
Br33 K2 3.718550 1_565
Br34 Pt10 2.563846 1_455
Br34 K11 3.357099 1_555
Br34 K2 3.718550 1_555
Br35 Pt11 2.563846 1_555
Br35 K10 3.357099 1_555
Br35 K3 3.718550 1_555
N0 Pt0 1.747157 1_555
N1 Pt1 1.747157 1_555
N2 Pt2 1.747157 1_555
N3 Pt3 1.747157 1_555
N4 Pt4 1.713834 1_555
N5 Pt5 1.713834 1_555
N6 Pt6 1.713834 1_555
N7 Pt7 1.713834 1_555
N8 Pt8 1.713834 1_555
N9 Pt9 1.713834 1_555
N10 Pt10 1.713834 1_555
N11 Pt11 1.713834 1_555
O4 Pt4 1.894224 1_555
O5 Pt5 1.894224 1_555
O6 Pt6 1.894224 1_555
O7 Pt7 1.894224 1_555
O8 Pt8 1.894224 1_555
O9 Pt9 1.894224 1_555
O10 Pt10 1.894224 1_555
O11 Pt11 1.894224 1_555
