# generated using pymatgen
data_Ba2Gd2Si4O13
_symmetry_space_group_name_H-M   'P 1'
_cell_length_a   7.04124757
_cell_length_b   7.04124757
_cell_length_c   17.71816054
_cell_angle_alpha   77.10269485
_cell_angle_beta   77.10269485
_cell_angle_gamma   43.99635324
_symmetry_Int_Tables_number   1
_chemical_formula_structural   Ba2Gd2Si4O13
_chemical_formula_sum   'Ba4 Gd4 Si8 O26'
_cell_volume   592.23929419
_cell_formula_units_Z   2
loop_
 _symmetry_equiv_pos_site_id
 _symmetry_equiv_pos_as_xyz
  1  'x, y, z'
loop_
 _atom_site_type_symbol
 _atom_site_label
 _atom_site_symmetry_multiplicity
 _atom_site_fract_x
 _atom_site_fract_y
 _atom_site_fract_z
 _atom_site_occupancy
  Ba  Ba0  1  0.33346500  0.34132100  0.83298100  1
  Ba  Ba1  1  0.65867900  0.66653500  0.66701900  1
  Ba  Ba2  1  0.66653500  0.65867900  0.16701900  1
  Ba  Ba3  1  0.34132100  0.33346500  0.33298100  1
  Gd  Gd0  1  0.39643300  0.37392700  0.58419900  1
  Gd  Gd1  1  0.62607300  0.60356700  0.91580100  1
  Gd  Gd2  1  0.60356700  0.62607300  0.41580100  1
  Gd  Gd3  1  0.37392700  0.39643300  0.08419900  1
  Si  Si0  1  0.98224700  0.89332800  0.68352600  1
  Si  Si1  1  0.10667200  0.01775300  0.81647400  1
  Si  Si2  1  0.01775300  0.10667200  0.31647400  1
  Si  Si3  1  0.89332800  0.98224700  0.18352600  1
  Si  Si4  1  0.08477100  0.15236200  0.54356300  1
  Si  Si5  1  0.84763800  0.91522900  0.95643700  1
  Si  Si6  1  0.91522900  0.84763800  0.45643700  1
  Si  Si7  1  0.15236200  0.08477100  0.04356300  1
  O  O0  1  0.66141000  0.17674400  0.68885600  1
  O  O1  1  0.82325600  0.33859000  0.81114400  1
  O  O2  1  0.33859000  0.82325600  0.31114400  1
  O  O3  1  0.17674400  0.66141000  0.18885600  1
  O  O4  1  0.06193300  0.60953900  0.69301200  1
  O  O5  1  0.39046100  0.93806700  0.80698800  1
  O  O6  1  0.93806700  0.39046100  0.30698800  1
  O  O7  1  0.60953900  0.06193300  0.19301200  1
  O  O8  1  0.14434300  0.85565700  0.75000000  1
  O  O9  1  0.85565700  0.14434300  0.25000000  1
  O  O10  1  0.16165400  0.87623400  0.59987500  1
  O  O11  1  0.12376600  0.83834600  0.90012500  1
  O  O12  1  0.83834600  0.12376600  0.40012500  1
  O  O13  1  0.87623400  0.16165400  0.09987500  1
  O  O14  1  0.25752500  0.05556300  0.45942500  1
  O  O15  1  0.94443700  0.74247500  0.04057500  1
  O  O16  1  0.74247500  0.94443700  0.54057500  1
  O  O17  1  0.05556300  0.25752500  0.95942500  1
  O  O18  1  0.16479500  0.24804800  0.59593600  1
  O  O19  1  0.75195200  0.83520500  0.90406400  1
  O  O20  1  0.83520500  0.75195200  0.40406400  1
  O  O21  1  0.24804800  0.16479500  0.09593600  1
  O  O22  1  0.74814200  0.39464600  0.53754000  1
  O  O23  1  0.60535400  0.25185800  0.96246000  1
  O  O24  1  0.25185800  0.60535400  0.46246000  1
  O  O25  1  0.39464600  0.74814200  0.03754000  1
loop_
_geom_bond_atom_site_label_1
_geom_bond_atom_site_label_2
_geom_bond_distance
_geom_bond_site_symmetry_2
Ba0 O5 2.701327 1_545
Ba0 O19 2.741085 1_545
Ba0 O0 2.834560 1_555
Ba0 O4 2.864134 1_555
Ba0 O17 2.882766 1_555
Ba0 O8 2.934122 1_555
Ba0 O23 2.984175 1_555
Ba0 O11 3.079439 1_555
Ba0 O19 3.100242 1_455
Ba0 O1 3.369883 1_555
Ba1 O4 2.701327 1_655
Ba1 O18 2.741085 1_655
Ba1 O1 2.834560 1_555
Ba1 O5 2.864134 1_555
Ba1 O16 2.882766 1_555
Ba1 O8 2.934122 1_555
Ba1 O22 2.984175 1_555
Ba1 O10 3.079439 1_555
Ba1 O18 3.100242 1_565
Ba1 O0 3.369883 1_555
Ba2 O7 2.701327 1_565
Ba2 O21 2.741085 1_565
Ba2 O2 2.834560 1_555
Ba2 O6 2.864134 1_555
Ba2 O15 2.882766 1_555
Ba2 O9 2.934122 1_555
Ba2 O25 2.984175 1_555
Ba2 O13 3.079439 1_555
Ba2 O21 3.100242 1_655
Ba2 O3 3.369883 1_555
Ba3 O6 2.701327 1_455
Ba3 O20 2.741085 1_455
Ba3 O3 2.834560 1_555
Ba3 O7 2.864134 1_555
Ba3 O14 2.882766 1_555
Ba3 O9 2.934122 1_555
Ba3 O24 2.984175 1_555
Ba3 O12 3.079439 1_555
Ba3 O20 3.100242 1_545
Ba3 O2 3.369883 1_555
Gd0 O16 2.298016 1_545
Gd0 O18 2.309835 1_555
Gd0 O24 2.317054 1_555
Gd0 O0 2.348489 1_555
Gd0 O4 2.407403 1_555
Gd0 O22 2.527778 1_555
Gd0 O10 2.672196 1_555
Gd1 O17 2.298016 1_655
Gd1 O19 2.309835 1_555
Gd1 O25 2.317054 1_556
Gd1 O1 2.348489 1_555
Gd1 O5 2.407403 1_555
Gd1 O23 2.527778 1_555
Gd1 O11 2.672196 1_555
Gd2 O14 2.298016 1_565
Gd2 O20 2.309835 1_555
Gd2 O22 2.317054 1_555
Gd2 O2 2.348489 1_555
Gd2 O6 2.407403 1_555
Gd2 O24 2.527778 1_555
Gd2 O12 2.672196 1_555
Gd3 O15 2.298016 1_455
Gd3 O21 2.309835 1_555
Gd3 O23 2.317054 1_554
Gd3 O3 2.348489 1_555
Gd3 O7 2.407403 1_555
Gd3 O25 2.527778 1_555
Gd3 O13 2.672196 1_555
O0 Si0 1.611649 1_545
O1 Si1 1.611649 1_655
O2 Si2 1.611649 1_565
O3 Si3 1.611649 1_455
O4 Si0 1.617107 1_455
O5 Si1 1.617107 1_565
O6 Si2 1.617107 1_655
O7 Si3 1.617107 1_545
O8 Si1 1.668927 1_565
O8 Si0 1.668927 1_455
O9 Si2 1.668927 1_655
O9 Si3 1.668927 1_545
O10 Si0 1.682881 1_455
O10 Si4 1.711598 1_565
O11 Si1 1.682881 1_565
O11 Si5 1.711598 1_455
O12 Si2 1.682881 1_655
O12 Si6 1.711598 1_545
O13 Si3 1.682881 1_545
O13 Si7 1.711598 1_655
O14 Si4 1.617967 1_555
O15 Si5 1.617967 1_554
O16 Si6 1.617967 1_555
O17 Si7 1.617967 1_556
O18 Si4 1.640504 1_555
O19 Si5 1.640504 1_555
O20 Si6 1.640504 1_555
O21 Si7 1.640504 1_555
O22 Si4 1.659450 1_655
O23 Si5 1.659450 1_545
O24 Si6 1.659450 1_455
O25 Si7 1.659450 1_565
