# generated using pymatgen
data_Li6Co3Ni(PO4)6
_symmetry_space_group_name_H-M   'P 1'
_cell_length_a   8.41291500
_cell_length_b   8.47702918
_cell_length_c   8.50538614
_cell_angle_alpha   62.45319165
_cell_angle_beta   62.58654536
_cell_angle_gamma   62.80725303
_symmetry_Int_Tables_number   1
_chemical_formula_structural   Li6Co3Ni(PO4)6
_chemical_formula_sum   'Li6 Co3 Ni1 P6 O24'
_cell_volume   453.88472729
_cell_formula_units_Z   1
loop_
 _symmetry_equiv_pos_site_id
 _symmetry_equiv_pos_as_xyz
  1  'x, y, z'
loop_
 _atom_site_type_symbol
 _atom_site_label
 _atom_site_symmetry_multiplicity
 _atom_site_fract_x
 _atom_site_fract_y
 _atom_site_fract_z
 _atom_site_occupancy
  Li  Li0  1  0.97482500  0.00816900  0.99474800  1
  Li  Li1  1  0.24677600  0.65068600  0.85040300  1
  Li  Li2  1  0.52289900  0.50677700  0.48980800  1
  Li  Li3  1  0.76588700  0.34189000  0.15630500  1
  Li  Li4  1  0.33880000  0.15809900  0.76335200  1
  Li  Li5  1  0.15934000  0.76792100  0.34006600  1
  Co  Co0  1  0.85687100  0.86095400  0.85316300  1
  Co  Co1  1  0.64555700  0.64562800  0.63971100  1
  Co  Co2  1  0.35160800  0.35225300  0.35249700  1
  Ni  Ni0  1  0.14361600  0.14597100  0.14588200  1
  P  P0  1  0.94765000  0.54969600  0.24916800  1
  P  P1  1  0.55061700  0.25117300  0.94946800  1
  P  P2  1  0.25078200  0.95014800  0.54556700  1
  P  P3  1  0.74901900  0.04183500  0.45783600  1
  P  P4  1  0.45756700  0.74869800  0.03915600  1
  P  P5  1  0.04394600  0.46041500  0.75029900  1
  O  O0  1  0.87139900  0.51027700  0.69706100  1
  O  O1  1  0.68631800  0.88232000  0.49031400  1
  O  O2  1  0.95106900  0.73549900  0.08257900  1
  O  O3  1  0.47164000  0.69456900  0.88199100  1
  O  O4  1  0.75721200  0.57126900  0.40817600  1
  O  O5  1  0.97045900  0.39066500  0.19309700  1
  O  O6  1  0.74167600  0.09634700  0.93014200  1
  O  O7  1  0.55040400  0.42181200  0.76507000  1
  O  O8  1  0.40643800  0.75511100  0.57359900  1
  O  O9  1  0.80881800  0.00500700  0.61931900  1
  O  O10  1  0.90867500  0.05701400  0.26566800  1
  O  O11  1  0.63137100  0.79578100  0.99543500  1
  O  O12  1  0.38843700  0.19575000  0.97272600  1
  O  O13  1  0.09598800  0.93169300  0.74146600  1
  O  O14  1  0.19190900  0.97365500  0.38962000  1
  O  O15  1  0.59221400  0.23708200  0.43554400  1
  O  O16  1  0.43642300  0.59131100  0.23424600  1
  O  O17  1  0.26946600  0.91240200  0.05910100  1
  O  O18  1  0.03174800  0.61831600  0.80220800  1
  O  O19  1  0.23603600  0.43100800  0.58987200  1
  O  O20  1  0.51564800  0.31019500  0.11369600  1
  O  O21  1  0.05373400  0.26908700  0.90961800  1
  O  O22  1  0.31476000  0.11179700  0.50991200  1
  O  O23  1  0.11239800  0.51072200  0.31311400  1
loop_
_geom_bond_atom_site_label_1
_geom_bond_atom_site_label_2
_geom_bond_distance
_geom_bond_site_symmetry_2
Li0 O6 1.995131 1_555
Li0 O2 2.151356 1_546
Li0 O13 2.183099 1_645
Li0 O21 2.296774 1_655
Li0 O10 2.298245 1_556
Li0 O17 2.470254 1_646
Li1 O8 2.092321 1_555
Li1 O13 2.102647 1_555
Li1 O18 2.180920 1_555
Li1 O3 2.234495 1_555
Li1 O2 2.400054 1_456
Li1 O7 2.425219 1_555
Li2 O4 2.010072 1_555
Li2 O8 2.181523 1_555
Li2 O7 2.200090 1_555
Li2 O15 2.299889 1_555
Li2 O16 2.303583 1_555
Li2 O19 2.445599 1_555
Li3 O10 2.107098 1_555
Li3 O5 2.120580 1_555
Li3 O15 2.145758 1_555
Li3 O21 2.408441 1_654
Li3 O20 2.438265 1_555
Li3 O16 2.615484 1_555
Li4 O21 2.111271 1_555
Li4 O19 2.113278 1_555
Li4 O12 2.186281 1_555
Li4 O17 2.432921 1_546
Li4 O22 2.469448 1_555
Li4 O15 2.621387 1_555
Li5 O17 2.088153 1_555
Li5 O14 2.125389 1_555
Li5 O16 2.147116 1_555
Li5 O10 2.433982 1_465
Li5 O23 2.508936 1_555
Co0 O11 1.895851 1_555
Co0 O9 1.911331 1_565
Co0 O18 2.013602 1_655
Co0 O13 2.030948 1_655
Co0 O6 2.050933 1_565
Co0 O2 2.073812 1_556
Co1 O0 1.872869 1_555
Co1 O1 1.904590 1_555
Co1 O3 2.004735 1_555
Co1 O4 2.015303 1_555
Co1 O8 2.019142 1_555
Co1 O7 2.026938 1_555
Co2 O23 1.923649 1_555
Co2 O22 1.927340 1_555
Co2 O20 1.948341 1_555
Co2 O19 2.076809 1_555
Co2 O16 2.098325 1_555
Co2 O15 2.102848 1_555
Ni0 O12 2.003902 1_554
Ni0 O14 2.007161 1_545
Ni0 O5 2.013967 1_455
Ni0 O17 2.074183 1_545
Ni0 O10 2.076225 1_455
Ni0 O21 2.106479 1_554
O0 P5 1.535692 1_655
O1 P3 1.534697 1_565
O2 P0 1.558500 1_555
O3 P4 1.543830 1_556
O4 P0 1.547618 1_555
O5 P0 1.534806 1_555
O6 P1 1.536664 1_555
O7 P1 1.566531 1_555
O8 P2 1.565017 1_555
O9 P3 1.527448 1_555
O10 P3 1.560142 1_555
O11 P4 1.526772 1_556
O12 P1 1.540408 1_555
O13 P2 1.563225 1_555
O14 P2 1.521377 1_555
O15 P3 1.568469 1_555
O16 P4 1.569219 1_555
O17 P4 1.556349 1_555
O18 P5 1.541582 1_555
O19 P5 1.565732 1_555
O20 P1 1.556114 1_554
O21 P5 1.556081 1_555
O22 P2 1.548817 1_545
O23 P0 1.560579 1_455
