# generated using pymatgen
data_H4C(N2O)2
_symmetry_space_group_name_H-M   'P 1'
_cell_length_a   16.33655915
_cell_length_b   13.65409333
_cell_length_c   9.39374692
_cell_angle_alpha   88.25901592
_cell_angle_beta   56.65897234
_cell_angle_gamma   35.08201174
_symmetry_Int_Tables_number   1
_chemical_formula_structural   H4C(N2O)2
_chemical_formula_sum   'H16 C4 N16 O8'
_cell_volume   489.88144717
_cell_formula_units_Z   4
loop_
 _symmetry_equiv_pos_site_id
 _symmetry_equiv_pos_as_xyz
  1  'x, y, z'
loop_
 _atom_site_type_symbol
 _atom_site_label
 _atom_site_symmetry_multiplicity
 _atom_site_fract_x
 _atom_site_fract_y
 _atom_site_fract_z
 _atom_site_occupancy
  H  H0  1  0.91954700  0.45711100  0.05718800  1
  H  H1  1  0.56615400  0.05718800  0.45711100  1
  H  H2  1  0.19281200  0.68384600  0.33045300  1
  H  H3  1  0.79288900  0.33045300  0.68384600  1
  H  H4  1  0.74330200  0.51714000  0.16699400  1
  H  H5  1  0.57256500  0.16699400  0.51714000  1
  H  H6  1  0.08300600  0.67743500  0.50669800  1
  H  H7  1  0.73286000  0.50669800  0.67743500  1
  H  H8  1  0.84805900  0.27133200  0.19322400  1
  H  H9  1  0.68738500  0.19322400  0.27133200  1
  H  H10  1  0.05677600  0.56261500  0.40194100  1
  H  H11  1  0.97866800  0.40194100  0.56261500  1
  H  H12  1  0.16900400  0.95015500  0.03487600  1
  H  H13  1  0.84596600  0.03487600  0.95015500  1
  H  H14  1  0.21512400  0.40403400  0.08099600  1
  H  H15  1  0.29984500  0.08099600  0.40403400  1
  C  C0  1  0.08126000  0.17612000  0.02546300  1
  C  C1  1  0.71715700  0.02546300  0.17612000  1
  C  C2  1  0.22453700  0.53284300  0.16874000  1
  C  C3  1  0.07388000  0.16874000  0.53284300  1
  N  N0  1  0.32916900  0.97432700  0.89365600  1
  N  N1  1  0.80284700  0.89365600  0.97432700  1
  N  N2  1  0.35634400  0.44715300  0.92083100  1
  N  N3  1  0.27567300  0.92083100  0.44715300  1
  N  N4  1  0.41190500  0.98492100  0.83358100  1
  N  N5  1  0.76959300  0.83358100  0.98492100  1
  N  N6  1  0.41641900  0.48040700  0.83809500  1
  N  N7  1  0.26507900  0.83809500  0.48040700  1
  N  N8  1  0.91058600  0.39111000  0.08100600  1
  N  N9  1  0.61729800  0.08100600  0.39111000  1
  N  N10  1  0.16899400  0.63270200  0.33941400  1
  N  N11  1  0.85889000  0.33941500  0.63270200  1
  N  N12  1  0.03218000  0.12669100  0.08567300  1
  N  N13  1  0.75545700  0.08567300  0.12669100  1
  N  N14  1  0.16432700  0.49454300  0.21782000  1
  N  N15  1  0.12330900  0.21782000  0.49454300  1
  O  O0  1  0.22025900  0.23619800  0.93206200  1
  O  O1  1  0.61148200  0.93206200  0.23619800  1
  O  O2  1  0.31793800  0.63851800  0.02974100  1
  O  O3  1  0.01380200  0.02974100  0.63851800  1
  O  O4  1  0.42278800  0.63341200  0.90096100  1
  O  O5  1  0.04283900  0.90096100  0.63341200  1
  O  O6  1  0.34903900  0.20716100  0.82721200  1
  O  O7  1  0.61658800  0.82721200  0.20716100  1
loop_
_geom_bond_atom_site_label_1
_geom_bond_atom_site_label_2
_geom_bond_distance
_geom_bond_site_symmetry_2
H0 N8 1.025322 1_555
H1 N9 1.025322 1_555
H2 N10 1.025322 1_555
H3 N11 1.025335 1_555
H4 N8 1.021406 1_555
H5 N9 1.021420 1_555
H6 N10 1.021413 1_555
H7 N11 1.021404 1_555
H8 N12 1.013346 1_655
H9 N13 1.013333 1_555
H10 N14 1.013340 1_555
H11 N15 1.013341 1_655
H12 N12 1.055211 1_565
H12 O4 1.651328 1_554
H13 N13 1.055211 1_556
H13 O5 1.651328 1_645
H14 N14 1.055211 1_555
H14 O6 1.651320 1_554
H15 N15 1.055211 1_555
H15 O7 1.651333 1_545
C0 N8 1.327290 1_455
C0 N12 1.335009 1_555
C0 N0 1.399579 1_544
C1 N9 1.327290 1_555
C1 N13 1.335022 1_555
C1 N1 1.399592 1_544
C2 N10 1.327290 1_555
C2 N14 1.335023 1_555
C2 N2 1.399584 1_554
C3 N11 1.327285 1_455
C3 N15 1.335008 1_555
C3 N3 1.399585 1_545
N0 N4 1.281735 1_555
N1 N5 1.281720 1_555
N2 N6 1.281722 1_555
N3 N7 1.281734 1_555
N4 O0 1.363037 1_565
N5 O1 1.363035 1_556
N6 O2 1.363028 1_556
N7 O3 1.363042 1_565
O0 O6 1.390740 1_555
O1 O7 1.390754 1_555
O2 O4 1.390753 1_554
O3 O5 1.390741 1_545
