# generated using pymatgen
data_BaSrLiNdTlCu2O7
_symmetry_space_group_name_H-M   'P 1'
_cell_length_a   3.89115000
_cell_length_b   3.90723663
_cell_length_c   14.92467460
_cell_angle_alpha   89.56437591
_cell_angle_beta   90.00000000
_cell_angle_gamma   90.00000000
_symmetry_Int_Tables_number   1
_chemical_formula_structural   BaSrLiNdTlCu2O7
_chemical_formula_sum   'Ba1 Sr1 Li1 Nd1 Tl1 Cu2 O7'
_cell_volume   226.90287830
_cell_formula_units_Z   1
loop_
 _symmetry_equiv_pos_site_id
 _symmetry_equiv_pos_as_xyz
  1  'x, y, z'
loop_
 _atom_site_type_symbol
 _atom_site_label
 _atom_site_symmetry_multiplicity
 _atom_site_fract_x
 _atom_site_fract_y
 _atom_site_fract_z
 _atom_site_occupancy
  Ba  Ba0  1  0.50000000  0.50529700  0.78696400  1
  Sr  Sr0  1  0.50000000  0.53588600  0.12534600  1
  Li  Li0  1  0.50000000  0.51858600  0.36112800  1
  Nd  Nd0  1  0.50000000  0.51278100  0.53733900  1
  Tl  Tl0  1  0.00000000  0.06272600  0.96982500  1
  Cu  Cu0  1  0.00000000  0.00967700  0.64073900  1
  Cu  Cu1  1  0.00000000  0.01655900  0.40938400  1
  O  O0  1  0.50000000  0.01049600  0.63174100  1
  O  O1  1  0.00000000  0.50991600  0.63245100  1
  O  O2  1  0.50000000  0.01646300  0.41602000  1
  O  O3  1  0.00000000  0.51626300  0.41633900  1
  O  O4  1  0.00000000  0.99098500  0.82534100  1
  O  O5  1  0.00000000  0.97634200  0.12267800  1
  O  O6  1  0.50000000  0.41569100  0.97366400  1
loop_
_geom_bond_atom_site_label_1
_geom_bond_atom_site_label_2
_geom_bond_distance
_geom_bond_site_symmetry_2
Ba0 O4 2.780487 1_555
Ba0 O4 2.780487 1_655
Ba0 O6 2.805704 1_555
Ba0 O4 2.852028 1_545
Ba0 O4 2.852028 1_645
Ba0 O1 3.017093 1_555
Ba0 O1 3.017093 1_655
Ba0 O0 3.028639 1_555
Ba0 O0 3.032120 1_565
Li0 O3 2.112869 1_655
Li0 O3 2.112869 1_555
Li0 O2 2.116525 1_565
Li0 O2 2.120336 1_555
Nd0 O0 2.407197 1_555
Nd0 O1 2.408354 1_555
Nd0 O1 2.408354 1_655
Nd0 O0 2.410091 1_565
Nd0 O3 2.654486 1_655
Nd0 O3 2.654486 1_555
Nd0 O2 2.663166 1_555
Nd0 O2 2.664076 1_565
Cu0 O0 1.950205 1_555
Cu0 O0 1.950205 1_455
Cu0 O1 1.957524 1_555
Cu0 O1 1.957537 1_545
Cu1 O2 1.948094 1_555
Cu1 O2 1.948094 1_455
Cu1 O3 1.956007 1_555
Cu1 O3 1.956741 1_545
O4 Tl0 2.176632 1_565
O5 Tl0 2.303575 1_564
O5 Sr0 2.597601 1_455
O5 Sr0 2.597601 1_555
O5 Sr0 2.927106 1_565
O5 Sr0 2.927106 1_465
O6 Sr0 2.315498 1_556
O6 Tl0 2.385731 1_555
O6 Tl0 2.385731 1_655
