# generated using pymatgen
data_SrYMg14O16
_symmetry_space_group_name_H-M   'P 1'
_cell_length_a   8.82453300
_cell_length_b   8.82453300
_cell_length_c   4.48168000
_cell_angle_alpha   90.00000000
_cell_angle_beta   90.00000000
_cell_angle_gamma   90.00000000
_symmetry_Int_Tables_number   1
_chemical_formula_structural   SrYMg14O16
_chemical_formula_sum   'Sr1 Y1 Mg14 O16'
_cell_volume   348.99909996
_cell_formula_units_Z   1
loop_
 _symmetry_equiv_pos_site_id
 _symmetry_equiv_pos_as_xyz
  1  'x, y, z'
loop_
 _atom_site_type_symbol
 _atom_site_label
 _atom_site_symmetry_multiplicity
 _atom_site_fract_x
 _atom_site_fract_y
 _atom_site_fract_z
 _atom_site_occupancy
  Sr  Sr0  1  0.50000000  0.50000000  0.00000000  1
  Y  Y0  1  0.00000000  0.00000000  0.00000000  1
  Mg  Mg0  1  0.50000000  0.00000000  0.00000000  1
  Mg  Mg1  1  0.00000000  0.50000000  0.00000000  1
  Mg  Mg2  1  0.26186900  0.00000000  0.50000000  1
  Mg  Mg3  1  0.73813100  0.00000000  0.50000000  1
  Mg  Mg4  1  0.24245500  0.50000000  0.50000000  1
  Mg  Mg5  1  0.75754500  0.50000000  0.50000000  1
  Mg  Mg6  1  0.00000000  0.26186900  0.50000000  1
  Mg  Mg7  1  0.50000000  0.24245500  0.50000000  1
  Mg  Mg8  1  0.00000000  0.73813100  0.50000000  1
  Mg  Mg9  1  0.50000000  0.75754500  0.50000000  1
  Mg  Mg10  1  0.25190000  0.25190000  0.00000000  1
  Mg  Mg11  1  0.74810000  0.25190000  0.00000000  1
  Mg  Mg12  1  0.25190000  0.74810000  0.00000000  1
  Mg  Mg13  1  0.74810000  0.74810000  0.00000000  1
  O  O0  1  0.00000000  0.25546600  0.00000000  1
  O  O1  1  0.50000000  0.22939100  0.00000000  1
  O  O2  1  0.00000000  0.74453400  0.00000000  1
  O  O3  1  0.50000000  0.77060900  0.00000000  1
  O  O4  1  0.25023300  0.25023300  0.50000000  1
  O  O5  1  0.74976700  0.25023300  0.50000000  1
  O  O6  1  0.25023300  0.74976700  0.50000000  1
  O  O7  1  0.74976700  0.74976700  0.50000000  1
  O  O8  1  0.00000000  0.00000000  0.50000000  1
  O  O9  1  0.50000000  0.00000000  0.50000000  1
  O  O10  1  0.00000000  0.50000000  0.50000000  1
  O  O11  1  0.50000000  0.50000000  0.50000000  1
  O  O12  1  0.25546600  0.00000000  0.00000000  1
  O  O13  1  0.74453400  0.00000000  0.00000000  1
  O  O14  1  0.22939100  0.50000000  0.00000000  1
  O  O15  1  0.77060900  0.50000000  0.00000000  1
loop_
_geom_bond_atom_site_label_1
_geom_bond_atom_site_label_2
_geom_bond_distance
_geom_bond_site_symmetry_2
Mg0 O1 2.024268 1_555
Mg0 O3 2.024268 1_545
Mg0 O12 2.157898 1_555
Mg0 O13 2.157898 1_555
Mg0 O9 2.240840 1_555
Mg0 O9 2.240840 1_554
Mg1 O15 2.024268 1_455
Mg1 O14 2.024268 1_555
Mg1 O0 2.157898 1_555
Mg1 O2 2.157898 1_555
Mg1 O10 2.240840 1_555
Mg1 O10 2.240840 1_554
Mg2 O9 2.101395 1_555
Mg2 O4 2.210575 1_555
Mg2 O6 2.210575 1_545
Mg2 O12 2.241552 1_556
Mg2 O12 2.241552 1_555
Mg2 O8 2.310872 1_555
Mg3 O9 2.101395 1_555
Mg3 O5 2.210575 1_555
Mg3 O7 2.210575 1_545
Mg3 O13 2.241552 1_555
Mg3 O13 2.241552 1_556
Mg3 O8 2.310872 1_655
Mg4 O10 2.139552 1_555
Mg4 O6 2.205146 1_555
Mg4 O4 2.205146 1_555
Mg4 O14 2.243804 1_555
Mg4 O14 2.243804 1_556
Mg4 O11 2.272714 1_555
Mg5 O10 2.139552 1_655
Mg5 O7 2.205146 1_555
Mg5 O5 2.205146 1_555
Mg5 O15 2.243804 1_556
Mg5 O15 2.243804 1_555
Mg5 O11 2.272714 1_555
Mg6 O10 2.101395 1_555
Mg6 O4 2.210575 1_555
Mg6 O5 2.210575 1_455
Mg6 O0 2.241552 1_555
Mg6 O0 2.241552 1_556
Mg6 O8 2.310872 1_555
Mg7 O9 2.139552 1_555
Mg7 O5 2.205146 1_555
Mg7 O4 2.205146 1_555
Mg7 O1 2.243804 1_555
Mg7 O1 2.243804 1_556
Mg7 O11 2.272714 1_555
Mg8 O10 2.101395 1_555
Mg8 O7 2.210575 1_455
Mg8 O6 2.210575 1_555
Mg8 O2 2.241552 1_556
Mg8 O2 2.241552 1_555
Mg8 O8 2.310872 1_565
Mg9 O9 2.139552 1_565
Mg9 O7 2.205146 1_555
Mg9 O6 2.205146 1_555
Mg9 O3 2.243804 1_556
Mg9 O3 2.243804 1_555
Mg9 O11 2.272714 1_555
Mg10 O14 2.198359 1_555
Mg10 O1 2.198359 1_555
Mg10 O12 2.223123 1_555
Mg10 O0 2.223123 1_555
Mg10 O4 2.240937 1_554
Mg10 O4 2.240937 1_555
Mg11 O15 2.198359 1_555
Mg11 O1 2.198359 1_555
Mg11 O13 2.223123 1_555
Mg11 O0 2.223123 1_655
Mg11 O5 2.240937 1_555
Mg11 O5 2.240937 1_554
Mg12 O14 2.198359 1_555
Mg12 O3 2.198359 1_555
Mg12 O2 2.223123 1_555
Mg12 O12 2.223123 1_565
Mg12 O6 2.240937 1_555
Mg12 O6 2.240937 1_554
Mg13 O15 2.198359 1_555
Mg13 O3 2.198359 1_555
Mg13 O2 2.223123 1_655
Mg13 O13 2.223123 1_565
Mg13 O7 2.240937 1_555
Mg13 O7 2.240937 1_554
O0 Y0 2.254368 1_555
O1 Sr0 2.387998 1_555
O2 Y0 2.254368 1_565
O3 Sr0 2.387998 1_555
O8 Y0 2.240840 1_556
O8 Y0 2.240840 1_555
O11 Sr0 2.240840 1_555
O11 Sr0 2.240840 1_556
O12 Y0 2.254368 1_555
O13 Y0 2.254368 1_655
O14 Sr0 2.387998 1_555
O15 Sr0 2.387998 1_555
