# generated using pymatgen
data_MgSi2
_symmetry_space_group_name_H-M   'P 1'
_cell_length_a   5.63752237
_cell_length_b   5.63752237
_cell_length_c   11.13719274
_cell_angle_alpha   73.81264803
_cell_angle_beta   73.81264803
_cell_angle_gamma   39.42111467
_symmetry_Int_Tables_number   1
_chemical_formula_structural   MgSi2
_chemical_formula_sum   'Mg4 Si8'
_cell_volume   214.68760531
_cell_formula_units_Z   4
loop_
 _symmetry_equiv_pos_site_id
 _symmetry_equiv_pos_as_xyz
  1  'x, y, z'
loop_
 _atom_site_type_symbol
 _atom_site_label
 _atom_site_symmetry_multiplicity
 _atom_site_fract_x
 _atom_site_fract_y
 _atom_site_fract_z
 _atom_site_occupancy
  Mg  Mg0  1  0.21226900  0.21226900  0.29382700  1
  Mg  Mg1  1  0.50000000  0.50000000  0.50000000  1
  Mg  Mg2  1  0.78773100  0.78773100  0.70617300  1
  Mg  Mg3  1  0.50000000  0.50000000  0.00000000  1
  Si  Si0  1  0.18445900  0.18445900  0.54749700  1
  Si  Si1  1  0.55473200  0.55473200  0.23115000  1
  Si  Si2  1  0.76666500  0.76666500  0.06837200  1
  Si  Si3  1  0.08483000  0.08483000  0.78227300  1
  Si  Si4  1  0.91517000  0.91517000  0.21772700  1
  Si  Si5  1  0.81554100  0.81554100  0.45250300  1
  Si  Si6  1  0.44526800  0.44526800  0.76885000  1
  Si  Si7  1  0.23333500  0.23333500  0.93162800  1
loop_
_geom_bond_atom_site_label_1
_geom_bond_atom_site_label_2
_geom_bond_distance
_geom_bond_site_symmetry_2
Mg0 Si0 2.752238 1_555
Mg0 Si1 2.754974 1_545
Mg0 Si1 2.754974 1_455
Mg0 Si4 2.809048 1_455
Mg0 Si4 2.809048 1_545
Mg0 Si5 3.014479 1_455
Mg0 Si5 3.014479 1_545
Mg0 Si2 3.065077 1_545
Mg0 Si2 3.065077 1_455
Mg1 Si1 2.876231 1_555
Mg1 Si6 2.876231 1_555
Mg1 Si0 2.888230 1_655
Mg1 Si0 2.888230 1_565
Mg1 Si5 2.888230 1_545
Mg1 Si5 2.888230 1_455
Mg2 Si5 2.752238 1_555
Mg2 Si6 2.754974 1_565
Mg2 Si6 2.754974 1_655
Mg2 Si3 2.809048 1_655
Mg2 Si3 2.809048 1_565
Mg2 Si0 3.014479 1_655
Mg2 Si0 3.014479 1_565
Mg2 Si7 3.065077 1_655
Mg2 Si7 3.065077 1_565
Mg3 Si6 2.801894 1_554
Mg3 Si1 2.801894 1_555
Mg3 Si4 3.002128 1_455
Mg3 Si3 3.002128 1_654
Mg3 Si3 3.002128 1_564
Mg3 Si4 3.002128 1_545
Mg3 Si7 3.035154 1_654
Mg3 Si7 3.035154 1_564
Mg3 Si2 3.035154 1_545
Mg3 Si2 3.035154 1_455
Mg3 Si2 3.141347 1_555
Mg3 Si7 3.141347 1_554
Si0 Si5 2.408014 1_545
Si0 Si5 2.408014 1_455
Si0 Si3 2.513474 1_555
Si1 Si2 2.435506 1_555
Si1 Si4 2.441953 1_545
Si1 Si4 2.441953 1_455
Si2 Si7 2.525627 1_564
Si2 Si7 2.525627 1_654
Si2 Si4 2.608543 1_555
Si3 Si6 2.441953 1_455
Si3 Si6 2.441953 1_545
Si3 Si7 2.608543 1_555
Si4 Si5 2.513474 1_555
Si6 Si7 2.435506 1_555
