# generated using pymatgen
data_Cs2GeSe3
_symmetry_space_group_name_H-M   'P 1'
_cell_length_a   8.13613378
_cell_length_b   8.13613378
_cell_length_c   10.47346003
_cell_angle_alpha   59.75741544
_cell_angle_beta   59.75741544
_cell_angle_gamma   54.93677522
_symmetry_Int_Tables_number   1
_chemical_formula_structural   Cs2GeSe3
_chemical_formula_sum   'Cs4 Ge2 Se6'
_cell_volume   467.19131036
_cell_formula_units_Z   2
loop_
 _symmetry_equiv_pos_site_id
 _symmetry_equiv_pos_as_xyz
  1  'x, y, z'
loop_
 _atom_site_type_symbol
 _atom_site_label
 _atom_site_symmetry_multiplicity
 _atom_site_fract_x
 _atom_site_fract_y
 _atom_site_fract_z
 _atom_site_occupancy
  Cs  Cs0  1  0.58340308  0.58340308  0.13764746  1
  Cs  Cs1  1  0.41659692  0.41659692  0.86235254  1
  Cs  Cs2  1  0.80373056  0.80373056  0.31978561  1
  Cs  Cs3  1  0.19626944  0.19626944  0.68021439  1
  Ge  Ge0  1  0.11599360  0.11599360  0.31892649  1
  Ge  Ge1  1  0.88400640  0.88400640  0.68107351  1
  Se  Se0  1  0.10951811  0.10951811  0.10443986  1
  Se  Se1  1  0.89048189  0.89048189  0.89556014  1
  Se  Se2  1  0.29170620  0.29170620  0.27474111  1
  Se  Se3  1  0.70829380  0.70829380  0.72525889  1
  Se  Se4  1  0.23815871  0.76184129  0.50000000  1
  Se  Se5  1  0.76184129  0.23815871  0.50000000  1
loop_
_geom_bond_atom_site_label_1
_geom_bond_atom_site_label_2
_geom_bond_distance
_geom_bond_site_symmetry_2
Cs0 Se2 3.596227 1_555
Cs0 Se3 3.614471 1_554
Cs0 Se1 3.650036 1_554
Cs0 Se0 3.768057 1_655
Cs0 Se0 3.768057 1_565
Cs0 Se4 3.811412 1_555
Cs0 Se5 3.811412 1_555
Cs1 Se3 3.596227 1_555
Cs1 Se2 3.614471 1_556
Cs1 Se0 3.650036 1_556
Cs1 Se1 3.768057 1_455
Cs1 Se1 3.768057 1_545
Cs1 Se5 3.811412 1_555
Cs1 Se4 3.811412 1_555
Cs2 Se0 3.643277 1_665
Cs2 Se3 3.645519 1_555
Cs2 Se2 3.798644 1_565
Cs2 Se2 3.798644 1_655
Cs2 Se1 3.871945 1_554
Cs2 Se5 4.154288 1_555
Cs2 Se4 4.154288 1_555
Cs3 Se1 3.643277 1_445
Cs3 Se2 3.645519 1_555
Cs3 Se3 3.798644 1_545
Cs3 Se3 3.798644 1_455
Cs3 Se0 3.871945 1_556
Cs3 Se4 4.154288 1_555
Cs3 Se5 4.154288 1_555
Ge0 Se0 2.300776 1_555
Ge0 Se2 2.305902 1_555
Ge0 Se5 2.447608 1_455
Ge0 Se4 2.447608 1_545
Ge1 Se1 2.300776 1_555
Ge1 Se3 2.305902 1_555
Ge1 Se4 2.447608 1_655
Ge1 Se5 2.447608 1_565
