# generated using pymatgen
data_Pr(Al5Fe)2
_symmetry_space_group_name_H-M   'P 1'
_cell_length_a   6.86250871
_cell_length_b   6.86250871
_cell_length_c   9.12634600
_cell_angle_alpha   90.00000000
_cell_angle_beta   90.00000000
_cell_angle_gamma   97.23642356
_symmetry_Int_Tables_number   1
_chemical_formula_structural   Pr(Al5Fe)2
_chemical_formula_sum   'Pr2 Al20 Fe4'
_cell_volume   426.37297076
_cell_formula_units_Z   2
loop_
 _symmetry_equiv_pos_site_id
 _symmetry_equiv_pos_as_xyz
  1  'x, y, z'
loop_
 _atom_site_type_symbol
 _atom_site_label
 _atom_site_symmetry_multiplicity
 _atom_site_fract_x
 _atom_site_fract_y
 _atom_site_fract_z
 _atom_site_occupancy
  Pr  Pr0  1  0.87620000  0.12380000  0.75000000  1
  Pr  Pr1  1  0.12380000  0.87620000  0.25000000  1
  Al  Al0  1  0.62486000  0.37514000  0.54671600  1
  Al  Al1  1  0.37514000  0.62486000  0.45328400  1
  Al  Al2  1  0.37514000  0.62486000  0.04671600  1
  Al  Al3  1  0.62486000  0.37514000  0.95328400  1
  Al  Al4  1  0.22932500  0.22932500  0.50000000  1
  Al  Al5  1  0.77067500  0.77067500  0.50000000  1
  Al  Al6  1  0.77067500  0.77067500  0.00000000  1
  Al  Al7  1  0.22932500  0.22932500  0.00000000  1
  Al  Al8  1  0.84028600  0.15971400  0.09803800  1
  Al  Al9  1  0.15971400  0.84028600  0.90196200  1
  Al  Al10  1  0.15971400  0.84028600  0.59803800  1
  Al  Al11  1  0.84028600  0.15971400  0.40196200  1
  Al  Al12  1  0.86640300  0.58646100  0.75000000  1
  Al  Al13  1  0.13359700  0.41353900  0.25000000  1
  Al  Al14  1  0.41353900  0.13359700  0.75000000  1
  Al  Al15  1  0.58646100  0.86640300  0.25000000  1
  Al  Al16  1  0.22151100  0.48000600  0.75000000  1
  Al  Al17  1  0.77848900  0.51999400  0.25000000  1
  Al  Al18  1  0.51999400  0.77848900  0.75000000  1
  Al  Al19  1  0.48000600  0.22151100  0.25000000  1
  Fe  Fe0  1  0.00000000  0.50000000  0.50000000  1
  Fe  Fe1  1  0.00000000  0.50000000  0.00000000  1
  Fe  Fe2  1  0.50000000  0.00000000  0.00000000  1
  Fe  Fe3  1  0.50000000  0.00000000  0.50000000  1
loop_
_geom_bond_atom_site_label_1
_geom_bond_atom_site_label_2
_geom_bond_distance
_geom_bond_site_symmetry_2
Al0 Al11 2.582045 1_555
Al0 Fe3 2.643442 1_555
Al0 Fe0 2.643442 1_655
Al0 Al1 2.709339 1_555
Al0 Al14 2.772542 1_555
Al0 Al12 2.772542 1_555
Al0 Al4 2.804742 1_555
Al0 Al5 2.804742 1_555
Al0 Al19 3.027960 1_555
Al0 Al17 3.027960 1_555
Al0 Pr0 3.184562 1_555
Al1 Al10 2.582045 1_555
Al1 Fe0 2.643442 1_555
Al1 Fe3 2.643442 1_565
Al1 Al13 2.772542 1_555
Al1 Al15 2.772542 1_555
Al1 Al4 2.804742 1_555
Al1 Al5 2.804742 1_555
Al1 Al18 3.027960 1_555
Al1 Al16 3.027960 1_555
Al1 Pr1 3.184562 1_555
Al2 Al9 2.582045 1_554
Al2 Fe1 2.643442 1_555
Al2 Fe2 2.643442 1_565
Al2 Al3 2.709339 1_554
Al2 Al7 2.804742 1_555
Al2 Al6 2.804742 1_555
Al2 Pr1 3.184562 1_555
Al3 Al8 2.582045 1_556
Al3 Fe2 2.643442 1_556
Al3 Fe1 2.643442 1_656
Al3 Al6 2.804742 1_556
Al3 Al7 2.804742 1_556
Al3 Pr0 3.184562 1_555
Al4 Fe3 2.581368 1_555
Al4 Fe0 2.581368 1_555
Al4 Pr0 3.340725 1_455
Al4 Pr1 3.340725 1_545
Al5 Fe3 2.581368 1_565
Al5 Fe0 2.581368 1_655
Al5 Pr1 3.340725 1_655
Al5 Pr0 3.340725 1_565
Al6 Fe1 2.581368 1_655
Al6 Fe2 2.581368 1_565
Al6 Al8 2.799140 1_565
Al6 Al9 2.799140 1_654
Al6 Pr0 3.340725 1_564
Al6 Pr1 3.340725 1_655
Al7 Fe2 2.581368 1_555
Al7 Fe1 2.581368 1_555
Al7 Al9 2.799140 1_544
Al7 Al8 2.799140 1_455
Al7 Pr0 3.340725 1_454
Al7 Pr1 3.340725 1_545
Al8 Fe1 2.609649 1_655
Al8 Fe2 2.609649 1_555
Al8 Pr0 3.197775 1_554
Al8 Pr1 3.232318 1_645
Al9 Fe2 2.609649 1_566
Al9 Fe1 2.609649 1_556
Al9 Pr1 3.197775 1_556
Al9 Pr0 3.232318 1_465
Al10 Fe0 2.609649 1_555
Al10 Fe3 2.609649 1_565
Al10 Al9 2.773716 1_555
Al10 Al4 2.799140 1_565
Al10 Al5 2.799140 1_455
Al10 Al14 2.850575 1_565
Al10 Al12 2.850575 1_455
Al10 Al18 2.912087 1_555
Al10 Al16 2.912087 1_555
Al10 Pr1 3.197775 1_555
Al10 Pr0 3.232318 1_465
Al11 Fe3 2.609649 1_555
Al11 Fe0 2.609649 1_655
Al11 Al8 2.773716 1_555
Al11 Al4 2.799140 1_655
Al11 Al5 2.799140 1_545
Al11 Al15 2.850575 1_545
Al11 Al13 2.850575 1_655
Al11 Al19 2.912087 1_555
Al11 Al17 2.912087 1_555
Al11 Pr0 3.197775 1_555
Al11 Pr1 3.232318 1_645
Al12 Fe1 2.556418 1_656
Al12 Fe0 2.556418 1_655
Al12 Al16 2.630750 1_655
Al12 Al5 2.728470 1_555
Al12 Al6 2.728470 1_556
Al12 Al3 2.772542 1_555
Al12 Al9 2.850575 1_655
Al12 Al18 2.859553 1_555
Al12 Pr0 3.184183 1_555
Al12 Pr0 3.679629 1_565
Al13 Fe1 2.556418 1_555
Al13 Fe0 2.556418 1_555
Al13 Al17 2.630750 1_455
Al13 Al7 2.728470 1_555
Al13 Al4 2.728470 1_555
Al13 Al2 2.772542 1_555
Al13 Al8 2.850575 1_455
Al13 Al19 2.859553 1_555
Al13 Pr1 3.184183 1_555
Al13 Pr1 3.679629 1_545
Al14 Fe3 2.556418 1_555
Al14 Fe2 2.556418 1_556
Al14 Al18 2.630750 1_545
Al14 Al7 2.728470 1_556
Al14 Al4 2.728470 1_555
Al14 Al3 2.772542 1_555
Al14 Al9 2.850575 1_545
Al14 Al16 2.859553 1_555
Al14 Pr0 3.184183 1_555
Al14 Pr0 3.679629 1_455
Al15 Fe2 2.556418 1_565
Al15 Fe3 2.556418 1_565
Al15 Al19 2.630750 1_565
Al15 Al5 2.728470 1_555
Al15 Al6 2.728470 1_555
Al15 Al2 2.772542 1_555
Al15 Al8 2.850575 1_565
Al15 Al17 2.859553 1_555
Al15 Pr1 3.184183 1_555
Al15 Pr1 3.679629 1_655
Al16 Al18 2.708209 1_555
Al16 Fe1 2.754592 1_556
Al16 Fe0 2.754592 1_555
Al16 Al4 2.862025 1_555
Al16 Al7 2.862025 1_556
Al16 Al9 2.912087 1_555
Al16 Al2 3.027960 1_556
Al16 Pr0 3.183012 1_455
Al17 Al19 2.708209 1_555
Al17 Fe1 2.754592 1_655
Al17 Fe0 2.754592 1_655
Al17 Al5 2.862025 1_555
Al17 Al6 2.862025 1_555
Al17 Al8 2.912087 1_555
Al17 Al3 3.027960 1_554
Al17 Pr1 3.183012 1_655
Al18 Fe3 2.754592 1_565
Al18 Fe2 2.754592 1_566
Al18 Al5 2.862025 1_555
Al18 Al6 2.862025 1_556
Al18 Al9 2.912087 1_555
Al18 Al2 3.027960 1_556
Al18 Pr0 3.183012 1_565
Al19 Fe3 2.754592 1_555
Al19 Fe2 2.754592 1_555
Al19 Al7 2.862025 1_555
Al19 Al4 2.862025 1_555
Al19 Al8 2.912087 1_555
Al19 Al3 3.027960 1_554
Al19 Pr1 3.183012 1_545
Fe0 Pr1 3.469857 1_555
Fe0 Pr0 3.469857 1_455
Fe1 Pr1 3.469857 1_555
Fe1 Pr0 3.469857 1_454
Fe2 Pr1 3.469857 1_545
Fe2 Pr0 3.469857 1_554
Fe3 Pr1 3.469857 1_545
Fe3 Pr0 3.469857 1_555
