# generated using pymatgen
data_Ca2Mn2Si4H6O17
_symmetry_space_group_name_H-M   'P 1'
_cell_length_a   12.09165091
_cell_length_b   5.58213017
_cell_length_c   5.35550814
_cell_angle_alpha   68.43320654
_cell_angle_beta   92.61381105
_cell_angle_gamma   91.72901736
_symmetry_Int_Tables_number   1
_chemical_formula_structural   Ca2Mn2Si4H6O17
_chemical_formula_sum   'Ca2 Mn2 Si4 H6 O17'
_cell_volume   335.78945810
_cell_formula_units_Z   1
loop_
 _symmetry_equiv_pos_site_id
 _symmetry_equiv_pos_as_xyz
  1  'x, y, z'
loop_
 _atom_site_type_symbol
 _atom_site_label
 _atom_site_symmetry_multiplicity
 _atom_site_fract_x
 _atom_site_fract_y
 _atom_site_fract_z
 _atom_site_occupancy
  Ca  Ca0  1  0.73321800  0.30009400  0.30229900  1
  Ca  Ca1  1  0.26612800  0.70202500  0.69350100  1
  Mn  Mn0  1  0.99998100  0.00406500  0.49728800  1
  Mn  Mn1  1  0.99960500  0.50329800  0.99597800  1
  Si  Si0  1  0.84815600  0.94872600  0.97867700  1
  Si  Si1  1  0.15174500  0.05769200  0.01534400  1
  Si  Si2  1  0.60365200  0.91064800  0.88666200  1
  Si  Si3  1  0.39643300  0.11979200  0.08236400  1
  H  H0  1  0.50778600  0.53026400  0.05445600  1
  H  H1  1  0.49215700  0.94428800  0.47433900  1
  H  H2  1  0.68583600  0.69178800  0.56553700  1
  H  H3  1  0.31456600  0.43628200  0.29493300  1
  H  H4  1  0.81057500  0.59450500  0.59946200  1
  H  H5  1  0.19000000  0.39999600  0.40230400  1
  O  O0  1  0.91423200  0.10238400  0.15474500  1
  O  O1  1  0.08554500  0.90288400  0.84064800  1
  O  O2  1  0.71675900  0.00193700  0.02014500  1
  O  O3  1  0.28315400  0.99786100  0.98114100  1
  O  O4  1  0.87319500  0.08850700  0.65732100  1
  O  O5  1  0.13197400  0.36691400  0.90300000  1
  O  O6  1  0.12783800  0.92222500  0.33807800  1
  O  O7  1  0.86674400  0.63897600  0.08867600  1
  O  O8  1  0.50064600  0.07364600  0.92458600  1
  O  O9  1  0.61773200  0.96709800  0.57184900  1
  O  O10  1  0.38466700  0.42235800  0.02801200  1
  O  O11  1  0.41168500  0.93789100  0.40607500  1
  O  O12  1  0.58633000  0.59977100  0.06896400  1
  O  O13  1  0.95073800  0.65685200  0.62914900  1
  O  O14  1  0.04885600  0.35172300  0.36252100  1
  O  O15  1  0.73207700  0.54037900  0.58517400  1
  O  O16  1  0.26799300  0.43813100  0.44377300  1
loop_
_geom_bond_atom_site_label_1
_geom_bond_atom_site_label_2
_geom_bond_distance
_geom_bond_site_symmetry_2
Ca0 O9 2.354490 1_545
Ca0 O15 2.364573 1_555
Ca0 O7 2.426359 1_555
Ca0 O12 2.440202 1_555
Ca0 O4 2.459868 1_555
Ca0 O2 2.625746 1_555
Ca0 O0 2.752787 1_555
Ca1 O16 2.326445 1_555
Ca1 O10 2.354936 1_556
Ca1 O11 2.412049 1_555
Ca1 O5 2.414405 1_555
Ca1 O6 2.458421 1_555
Ca1 O3 2.638800 1_555
Ca1 O1 2.756863 1_555
Mn0 O13 1.890046 1_545
Mn0 O14 1.891122 1_655
Mn0 O4 1.940987 1_555
Mn0 O6 1.942951 1_645
Mn0 O0 1.965272 1_555
Mn0 O1 1.966989 1_645
Mn1 O14 1.904397 1_656
Mn1 O13 1.905269 1_555
Mn1 O5 1.953013 1_655
Mn1 O7 1.955384 1_556
Mn1 O1 2.306949 1_655
Mn1 O0 2.310575 1_556
H0 O12 1.025551 1_555
H0 O10 1.608885 1_555
H1 O11 1.028003 1_555
H1 O9 1.599807 1_555
H2 O15 0.997914 1_555
H3 O16 0.999985 1_555
H3 O10 1.721676 1_555
H4 O15 0.995557 1_555
H4 O13 1.731839 1_555
H5 O16 0.993754 1_555
H5 O14 1.735511 1_555
O0 Si0 1.657625 1_544
O1 Si1 1.657460 1_566
O2 Si0 1.664635 1_544
O2 Si2 1.666664 1_544
O3 Si1 1.665357 1_566
O3 Si3 1.667505 1_566
O4 Si0 1.645736 1_545
O5 Si1 1.626932 1_556
O6 Si1 1.647507 1_565
O7 Si0 1.627807 1_554
O8 Si3 1.626327 1_556
O8 Si2 1.627189 1_545
O9 Si2 1.613440 1_555
O10 Si3 1.614577 1_555
O11 Si3 1.660883 1_565
O12 Si2 1.661227 1_554
