# generated using pymatgen
data_HoNi5
_symmetry_space_group_name_H-M   'P 1'
_cell_length_a   4.81686337
_cell_length_b   4.81684688
_cell_length_c   3.90834211
_cell_angle_alpha   90.00000000
_cell_angle_beta   90.00000000
_cell_angle_gamma   119.99575220
_symmetry_Int_Tables_number   1
_chemical_formula_structural   HoNi5
_chemical_formula_sum   'Ho1 Ni5'
_cell_volume   78.53603305
_cell_formula_units_Z   1
loop_
 _symmetry_equiv_pos_site_id
 _symmetry_equiv_pos_as_xyz
  1  'x, y, z'
loop_
 _atom_site_type_symbol
 _atom_site_label
 _atom_site_symmetry_multiplicity
 _atom_site_fract_x
 _atom_site_fract_y
 _atom_site_fract_z
 _atom_site_occupancy
  Ho  Ho0  1  0.00000000  -0.00000000  -0.00000000  1
  Ni  Ni0  1  0.00000000  0.50000000  0.50000000  1
  Ni  Ni1  1  0.33336857  0.66666914  0.00000000  1
  Ni  Ni2  1  0.66663143  0.33333086  0.00000000  1
  Ni  Ni3  1  0.50000000  -0.00000000  0.50000000  1
  Ni  Ni4  1  0.50000000  0.50000000  0.50000000  1
loop_
_geom_bond_atom_site_label_1
_geom_bond_atom_site_label_2
_geom_bond_distance
_geom_bond_site_symmetry_2
Ho0 Ni2 2.780989 1_555
Ho0 Ni1 2.780989 1_445
Ho0 Ni1 2.781090 1_545
Ho0 Ni2 2.781090 1_455
Ho0 Ni2 2.781137 1_445
Ho0 Ni1 2.781137 1_555
Ho0 Ni0 3.101498 1_544
Ho0 Ni0 3.101498 1_555
Ho0 Ni0 3.101498 1_545
Ho0 Ni0 3.101498 1_554
Ho0 Ni3 3.101504 1_554
Ho0 Ni3 3.101504 1_455
Ho0 Ni3 3.101504 1_454
Ho0 Ni3 3.101504 1_555
Ho0 Ni4 3.101621 1_554
Ho0 Ni4 3.101621 1_444
Ho0 Ni4 3.101621 1_555
Ho0 Ni4 3.101621 1_445
Ni0 Ni2 2.398515 1_455
Ni0 Ni1 2.398515 1_556
Ni0 Ni1 2.398515 1_555
Ni0 Ni2 2.398515 1_456
Ni0 Ni4 2.408432 1_555
Ni0 Ni4 2.408432 1_455
Ni0 Ni3 2.408582 1_565
Ni0 Ni3 2.408582 1_455
Ni1 Ni4 2.398297 1_554
Ni1 Ni4 2.398297 1_555
Ni1 Ni3 2.398421 1_564
Ni1 Ni3 2.398421 1_565
Ni1 Ni2 2.780680 1_555
Ni1 Ni2 2.781106 1_565
Ni1 Ni2 2.781430 1_455
Ni2 Ni4 2.398297 1_555
Ni2 Ni4 2.398297 1_554
Ni2 Ni3 2.398421 1_554
Ni2 Ni3 2.398421 1_555
Ni3 Ni4 2.408423 1_545
Ni3 Ni4 2.408423 1_555
