# generated using pymatgen
data_YMg4(SiO3)4
_symmetry_space_group_name_H-M   'P 1'
_cell_length_a   11.75016881
_cell_length_b   11.75016881
_cell_length_c   11.75016881
_cell_angle_alpha   102.96409529
_cell_angle_beta   123.45756056
_cell_angle_gamma   102.96409529
_symmetry_Int_Tables_number   1
_chemical_formula_structural   YMg4(SiO3)4
_chemical_formula_sum   'Y4 Mg16 Si16 O48'
_cell_volume   1192.03014131
_cell_formula_units_Z   4
loop_
 _symmetry_equiv_pos_site_id
 _symmetry_equiv_pos_as_xyz
  1  'x, y, z'
loop_
 _atom_site_type_symbol
 _atom_site_label
 _atom_site_symmetry_multiplicity
 _atom_site_fract_x
 _atom_site_fract_y
 _atom_site_fract_z
 _atom_site_occupancy
  Y  Y0  1  0.50000000  0.00000000  0.50000000  1
  Y  Y1  1  0.75000000  0.50000000  0.25000000  1
  Y  Y2  1  0.00000000  0.00000000  0.00000000  1
  Y  Y3  1  0.25000000  0.50000000  0.75000000  1
  Mg  Mg0  1  0.20176400  0.44356700  0.13041900  1
  Mg  Mg1  1  0.68685100  0.55643300  0.75819600  1
  Mg  Mg2  1  0.00819600  0.57134500  0.95176300  1
  Mg  Mg3  1  0.04823700  0.05643300  0.61958100  1
  Mg  Mg4  1  0.38041900  0.42865500  0.43685100  1
  Mg  Mg5  1  0.56314900  0.94356700  0.99180400  1
  Mg  Mg6  1  0.24180400  0.92865500  0.79823700  1
  Mg  Mg7  1  0.86958100  0.07134500  0.31314900  1
  Mg  Mg8  1  0.37955900  0.24585100  0.60133200  1
  Mg  Mg9  1  0.35548000  0.75414900  0.13370800  1
  Mg  Mg10  1  0.38370800  0.27822800  0.12955900  1
  Mg  Mg11  1  0.87044100  0.25414900  0.14866800  1
  Mg  Mg12  1  0.85133200  0.72177200  0.10548000  1
  Mg  Mg13  1  0.89452000  0.74585100  0.61629200  1
  Mg  Mg14  1  0.86629200  0.22177200  0.62044100  1
  Mg  Mg15  1  0.39866800  0.77822800  0.64452000  1
  Si  Si0  1  0.62500000  0.25000000  0.87500000  1
  Si  Si1  1  0.62500000  0.75000000  0.37500000  1
  Si  Si2  1  0.62500000  0.25000000  0.37500000  1
  Si  Si3  1  0.12500000  0.75000000  0.37500000  1
  Si  Si4  1  0.12500000  0.25000000  0.37500000  1
  Si  Si5  1  0.12500000  0.75000000  0.87500000  1
  Si  Si6  1  0.12500000  0.25000000  0.87500000  1
  Si  Si7  1  0.62500000  0.75000000  0.87500000  1
  Si  Si8  1  0.25421800  0.65696700  0.32207200  1
  Si  Si9  1  0.66510500  0.34303300  0.59725000  1
  Si  Si10  1  0.84725000  0.43214500  0.00421800  1
  Si  Si11  1  0.99578200  0.84303300  0.42792800  1
  Si  Si12  1  0.57207200  0.56785500  0.41510500  1
  Si  Si13  1  0.58489500  0.15696700  0.15275000  1
  Si  Si14  1  0.40275000  0.06785500  0.74578200  1
  Si  Si15  1  0.67792800  0.93214500  0.33489500  1
  O  O0  1  0.29478900  0.05925900  0.32314100  1
  O  O1  1  0.26388200  0.94074100  0.23553000  1
  O  O2  1  0.48553000  0.47164800  0.04478900  1
  O  O3  1  0.95521100  0.44074100  0.42685900  1
  O  O4  1  0.57314100  0.52835200  0.01388200  1
  O  O5  1  0.98611800  0.55925900  0.51447000  1
  O  O6  1  0.76447000  0.02835200  0.70521100  1
  O  O7  1  0.67685900  0.97164800  0.73611800  1
  O  O8  1  0.01910900  0.16134200  0.18356000  1
  O  O9  1  0.02221800  0.83865800  0.85776600  1
  O  O10  1  0.10776600  0.33554800  0.76910900  1
  O  O11  1  0.23089100  0.33865800  0.56644000  1
  O  O12  1  0.43356000  0.66445200  0.77221800  1
  O  O13  1  0.22778200  0.66134200  0.89223400  1
  O  O14  1  0.14223400  0.16445200  0.98089100  1
  O  O15  1  0.81644000  0.83554800  0.97778200  1
  O  O16  1  0.41152900  0.43275700  0.27363900  1
  O  O17  1  0.84088200  0.56724300  0.97877200  1
  O  O18  1  0.22877200  0.63789000  0.16152900  1
  O  O19  1  0.83847100  0.06724300  0.47636100  1
  O  O20  1  0.52363900  0.36211000  0.59088200  1
  O  O21  1  0.40911800  0.93275700  0.77122800  1
  O  O22  1  0.02122800  0.86211000  0.58847100  1
  O  O23  1  0.72636100  0.13789000  0.15911800  1
  O  O24  1  0.25284200  0.51994900  0.33439700  1
  O  O25  1  0.81444800  0.48005100  0.73289300  1
  O  O26  1  0.98289300  0.41844500  0.00284200  1
  O  O27  1  0.99715800  0.98005100  0.41560300  1
  O  O28  1  0.58439700  0.58155500  0.56444800  1
  O  O29  1  0.43555200  0.01994900  0.01710700  1
  O  O30  1  0.26710700  0.08155500  0.74715800  1
  O  O31  1  0.66560300  0.91844500  0.18555200  1
  O  O32  1  0.51478500  0.32148000  0.81841000  1
  O  O33  1  0.49693000  0.67852000  0.19330500  1
  O  O34  1  0.44330500  0.19637500  0.26478500  1
  O  O35  1  0.73521500  0.17852000  0.93159000  1
  O  O36  1  0.06841000  0.80362500  0.24693000  1
  O  O37  1  0.75307000  0.82148000  0.55669500  1
  O  O38  1  0.80669500  0.30362500  0.48521500  1
  O  O39  1  0.18159000  0.69637500  0.50307000  1
  O  O40  1  0.68366300  0.21097500  0.61753400  1
  O  O41  1  0.40655900  0.78902500  0.47268800  1
  O  O42  1  0.72268800  0.56612900  0.43366300  1
  O  O43  1  0.56633700  0.28902500  0.13246600  1
  O  O44  1  0.86753400  0.43387100  0.15655900  1
  O  O45  1  0.84344100  0.71097500  0.27731200  1
  O  O46  1  0.52731200  0.93387100  0.31633700  1
  O  O47  1  0.38246600  0.06612900  0.59344100  1
loop_
_geom_bond_atom_site_label_1
_geom_bond_atom_site_label_2
_geom_bond_distance
_geom_bond_site_symmetry_2
Mg0 O24 2.029108 1_555
Mg0 O26 2.039173 1_455
Mg0 O16 2.141504 1_555
Mg0 O18 2.149510 1_555
Mg1 O25 2.029113 1_555
Mg1 O28 2.039163 1_555
Mg1 O17 2.141515 1_555
Mg1 O20 2.149506 1_555
Mg2 O26 2.029113 1_456
Mg2 O25 2.039163 1_455
Mg2 O18 2.141515 1_556
Mg2 O17 2.149506 1_455
Mg3 O27 2.029102 1_445
Mg3 O30 2.039164 1_555
Mg3 O19 2.141513 1_455
Mg3 O22 2.149508 1_545
Mg4 O28 2.029106 1_555
Mg4 O24 2.039170 1_555
Mg4 O20 2.141510 1_555
Mg4 O16 2.149498 1_555
Mg5 O29 2.029113 1_566
Mg5 O31 2.039163 1_556
Mg5 O21 2.141515 1_555
Mg5 O23 2.149506 1_566
Mg6 O30 2.029113 1_565
Mg6 O29 2.039163 1_566
Mg6 O22 2.141515 1_555
Mg6 O21 2.149506 1_555
Mg7 O31 2.029106 1_545
Mg7 O27 2.039170 1_545
Mg7 O23 2.141510 1_555
Mg7 O19 2.149498 1_555
Mg8 O32 1.923813 1_555
Mg8 O20 2.003533 1_555
Mg8 O47 2.101741 1_555
Mg8 O11 2.162050 1_555
Mg9 O33 1.923822 1_555
Mg9 O18 2.003525 1_555
Mg9 O46 2.101743 1_555
Mg9 O13 2.162042 1_554
Mg10 O34 1.923822 1_555
Mg10 O16 2.003525 1_555
Mg10 O43 2.101743 1_555
Mg10 O14 2.162041 1_554
Mg11 O35 1.923813 1_554
Mg11 O23 2.003533 1_555
Mg11 O44 2.101741 1_555
Mg11 O8 2.162050 1_655
Mg12 O36 1.923814 1_655
Mg12 O17 2.003519 1_554
Mg12 O45 2.101749 1_555
Mg12 O15 2.162041 1_554
Mg13 O37 1.923822 1_555
Mg13 O22 2.003525 1_655
Mg13 O42 2.101743 1_555
Mg13 O9 2.162042 1_655
Mg14 O38 1.923822 1_555
Mg14 O19 2.003525 1_555
Mg14 O40 2.101743 1_555
Mg14 O10 2.162041 1_655
Mg15 O39 1.923814 1_555
Mg15 O21 2.003519 1_555
Mg15 O41 2.101749 1_555
Mg15 O12 2.162041 1_555
O0 O1 1.359639 1_545
O0 Y0 2.548525 1_555
O1 Y0 2.548525 1_565
O2 O4 1.359639 1_555
O2 Y1 2.548525 1_555
O3 O5 1.359639 1_555
O3 Y1 2.548525 1_555
O4 Y1 2.548525 1_555
O5 Y1 2.548525 1_555
O6 O7 1.359639 1_545
O6 Y0 2.548525 1_555
O7 Y0 2.548525 1_565
O8 Si4 1.724611 1_555
O8 Y2 2.395178 1_555
O9 Si5 1.724610 1_555
O9 Y2 2.395185 1_566
O10 Si6 1.724601 1_555
O10 Y3 2.395193 1_555
O11 Si4 1.724611 1_555
O11 Y3 2.395178 1_555
O12 Si7 1.724610 1_555
O12 Y3 2.395185 1_555
O13 Si5 1.724610 1_555
O13 Y3 2.395185 1_555
O14 Si6 1.724601 1_555
O14 Y2 2.395193 1_556
O15 Si7 1.724610 1_555
O15 Y2 2.395185 1_666
O16 Si12 1.690113 1_555
O17 Si10 1.690117 1_556
O18 Si8 1.690107 1_555
O19 Si15 1.690113 1_545
O20 Si9 1.690113 1_555
O21 Si14 1.690117 1_565
O22 Si11 1.690107 1_455
O23 Si13 1.690113 1_555
O24 Si8 1.645844 1_555
O25 Si9 1.645846 1_555
O26 Si10 1.645852 1_555
O27 Si11 1.645844 1_555
O28 Si12 1.645846 1_555
O29 Si13 1.645846 1_555
O30 Si14 1.645852 1_555
O31 Si15 1.645846 1_555
O32 Si0 1.616733 1_555
O33 Si1 1.616733 1_555
O34 Si2 1.616733 1_555
O35 Si0 1.616733 1_555
O36 Si3 1.616733 1_555
O37 Si1 1.616733 1_555
O38 Si2 1.616733 1_555
O39 Si3 1.616733 1_555
O40 Si9 1.665109 1_555
O40 Y0 2.342475 1_555
O41 Si8 1.665106 1_555
O41 Y0 2.342475 1_565
O42 Si12 1.665109 1_555
O42 Y1 2.342475 1_555
O43 Si13 1.665109 1_555
O43 Y1 2.342475 1_555
O44 Si10 1.665098 1_555
O44 Y1 2.342475 1_555
O45 Si11 1.665106 1_555
O45 Y1 2.342475 1_555
O46 Si15 1.665109 1_555
O46 Y0 2.342475 1_565
O47 Si14 1.665098 1_555
O47 Y0 2.342475 1_555
