# generated using pymatgen
data_MgSi2
_symmetry_space_group_name_H-M   'P 1'
_cell_length_a   3.74035800
_cell_length_b   5.76789238
_cell_length_c   11.10312294
_cell_angle_alpha   95.09911129
_cell_angle_beta   98.72465945
_cell_angle_gamma   108.60486359
_symmetry_Int_Tables_number   1
_chemical_formula_structural   MgSi2
_chemical_formula_sum   'Mg4 Si8'
_cell_volume   221.97137702
_cell_formula_units_Z   4
loop_
 _symmetry_equiv_pos_site_id
 _symmetry_equiv_pos_as_xyz
  1  'x, y, z'
loop_
 _atom_site_type_symbol
 _atom_site_label
 _atom_site_symmetry_multiplicity
 _atom_site_fract_x
 _atom_site_fract_y
 _atom_site_fract_z
 _atom_site_occupancy
  Mg  Mg0  1  0.58195000  0.70307500  0.82426700  1
  Mg  Mg1  1  0.05726000  0.18351300  0.16581400  1
  Mg  Mg2  1  0.63364300  0.19292100  0.41629600  1
  Mg  Mg3  1  0.09252600  0.91646200  0.62150100  1
  Si  Si0  1  0.26454200  0.76133200  0.03557800  1
  Si  Si1  1  0.28639200  0.07051400  0.89631500  1
  Si  Si2  1  0.81376100  0.31011700  0.67486400  1
  Si  Si3  1  0.29883400  0.55491400  0.37460400  1
  Si  Si4  1  0.92452300  0.34655600  0.90124400  1
  Si  Si5  1  0.75172700  0.62825700  0.14581800  1
  Si  Si6  1  0.92129300  0.82499400  0.35466400  1
  Si  Si7  1  0.37357200  0.50738400  0.58917600  1
loop_
_geom_bond_atom_site_label_1
_geom_bond_atom_site_label_2
_geom_bond_distance
_geom_bond_site_symmetry_2
Mg0 Si7 2.644356 1_555
Mg0 Si1 2.751384 1_665
Mg0 Si1 2.795635 1_565
Mg0 Si0 2.826049 1_556
Mg0 Si4 2.874444 1_555
Mg0 Si4 2.954546 1_455
Mg0 Si0 3.103437 1_656
Mg0 Si2 3.108489 1_555
Mg0 Si2 3.142457 1_455
Mg1 Si3 2.833072 1_555
Mg1 Si5 3.012235 1_445
Mg1 Si6 3.058553 1_445
Mg1 Si5 3.066182 1_555
Mg1 Si0 3.088792 1_545
Mg1 Si5 3.135372 1_455
Mg1 Si4 3.179091 1_454
Mg1 Si0 3.206011 1_445
Mg2 Si6 2.748012 1_545
Mg2 Si6 2.766205 1_445
Mg2 Si3 2.793991 1_555
Mg2 Si2 2.816138 1_555
Mg2 Si3 2.823231 1_655
Mg2 Si7 2.999000 1_555
Mg2 Si7 3.033211 1_655
Mg3 Si2 2.837709 1_465
Mg3 Si2 2.855088 1_565
Mg3 Si7 2.889252 1_555
Mg3 Si6 2.897785 1_455
Mg3 Si7 2.904417 1_455
Mg3 Si1 3.010221 1_565
Si0 Si5 2.388793 1_455
Si0 Si5 2.406398 1_555
Si0 Si1 2.452212 1_564
Si0 Si4 2.532669 1_454
Si1 Si4 2.398359 1_455
Si1 Si4 2.398965 1_555
Si2 Si7 2.413132 1_555
Si2 Si7 2.420903 1_655
Si2 Si4 2.463380 1_555
Si3 Si7 2.406695 1_555
Si3 Si6 2.408274 1_555
Si3 Si6 2.416607 1_455
Si5 Si6 2.386174 1_555
