# generated using pymatgen
data_Te2Mo3(SeS)2
_symmetry_space_group_name_H-M   'P 1'
_cell_length_a   3.34935344
_cell_length_b   3.34935344
_cell_length_c   30.95988300
_cell_angle_alpha   90.00000000
_cell_angle_beta   90.00000000
_cell_angle_gamma   119.99998888
_symmetry_Int_Tables_number   1
_chemical_formula_structural   Te2Mo3(SeS)2
_chemical_formula_sum   'Te2 Mo3 Se2 S2'
_cell_volume   300.78207286
_cell_formula_units_Z   1
loop_
 _symmetry_equiv_pos_site_id
 _symmetry_equiv_pos_as_xyz
  1  'x, y, z'
loop_
 _atom_site_type_symbol
 _atom_site_label
 _atom_site_symmetry_multiplicity
 _atom_site_fract_x
 _atom_site_fract_y
 _atom_site_fract_z
 _atom_site_occupancy
  Te  Te0  1  0.33333300  0.66666700  0.40810400  1
  Te  Te1  1  0.33333300  0.66666700  0.28573000  1
  Mo  Mo0  1  0.33333300  0.66666700  0.11564900  1
  Mo  Mo1  1  0.33333300  0.66666700  0.57838900  1
  Mo  Mo2  1  0.66666700  0.33333300  0.34697400  1
  Se  Se0  1  0.66666700  0.33333300  0.52452200  1
  Se  Se1  1  0.66666700  0.33333300  0.63219400  1
  S  S0  1  0.66666700  0.33333300  0.06670300  1
  S  S1  1  0.66666700  0.33333300  0.16457700  1
loop_
_geom_bond_atom_site_label_1
_geom_bond_atom_site_label_2
_geom_bond_distance
_geom_bond_site_symmetry_2
Mo0 S1 2.456424 1_455
Mo0 S1 2.456424 1_565
Mo0 S1 2.456428 1_555
Mo0 S0 2.456767 1_455
Mo0 S0 2.456767 1_565
Mo0 S0 2.456772 1_555
Mo1 Se1 2.552305 1_455
Mo1 Se1 2.552305 1_565
Mo1 Se1 2.552309 1_555
Mo1 Se0 2.553558 1_455
Mo1 Se0 2.553558 1_565
Mo1 Se0 2.553562 1_555
Mo2 Te0 2.705778 1_545
Mo2 Te0 2.705778 1_655
Mo2 Te0 2.705782 1_555
Mo2 Te1 2.708248 1_545
Mo2 Te1 2.708248 1_655
Mo2 Te1 2.708251 1_555
