# generated using pymatgen
data_Mn(HO)2
_symmetry_space_group_name_H-M   'P 1'
_cell_length_a   5.86834500
_cell_length_b   6.73556345
_cell_length_c   5.84136581
_cell_angle_alpha   89.90019422
_cell_angle_beta   118.86859889
_cell_angle_gamma   107.04169441
_symmetry_Int_Tables_number   1
_chemical_formula_structural   Mn(HO)2
_chemical_formula_sum   'Mn4 H8 O8'
_cell_volume   190.60657724
_cell_formula_units_Z   4
loop_
 _symmetry_equiv_pos_site_id
 _symmetry_equiv_pos_as_xyz
  1  'x, y, z'
loop_
 _atom_site_type_symbol
 _atom_site_label
 _atom_site_symmetry_multiplicity
 _atom_site_fract_x
 _atom_site_fract_y
 _atom_site_fract_z
 _atom_site_occupancy
  Mn  Mn0  1  0.97792700  0.45316400  0.98486100  1
  Mn  Mn1  1  0.97779500  0.20274600  0.48488300  1
  Mn  Mn2  1  0.97806100  0.95296400  0.98501900  1
  Mn  Mn3  1  0.97801400  0.70272800  0.48492400  1
  H  H0  1  0.55341200  0.34681000  0.44066600  1
  H  H1  1  0.55387400  0.84692000  0.44093800  1
  H  H2  1  0.55426700  0.09880900  0.94070000  1
  H  H3  1  0.55382300  0.59836100  0.94069000  1
  H  H4  1  0.40219100  0.56142500  0.51912100  1
  H  H5  1  0.40206200  0.06099800  0.51937100  1
  H  H6  1  0.40186000  0.31248500  0.01917800  1
  H  H7  1  0.40241300  0.81264000  0.01933600  1
  O  O0  1  0.75425200  0.39596300  0.54410400  1
  O  O1  1  0.75464100  0.89588700  0.54448000  1
  O  O2  1  0.75493900  0.14573300  0.04398700  1
  O  O3  1  0.75463300  0.64561400  0.04393200  1
  O  O4  1  0.20103600  0.51039000  0.42441200  1
  O  O5  1  0.20100200  0.01035000  0.42445700  1
  O  O6  1  0.20074700  0.26034000  0.92444800  1
  O  O7  1  0.20147500  0.76052100  0.92465800  1
loop_
_geom_bond_atom_site_label_1
_geom_bond_atom_site_label_2
_geom_bond_distance
_geom_bond_site_symmetry_2
Mn0 O4 2.217394 1_656
Mn0 O0 2.223480 1_555
Mn0 O3 2.224896 1_556
Mn0 O6 2.227939 1_655
Mn0 O2 2.228273 1_556
Mn0 O7 2.231938 1_655
Mn1 O6 2.217493 1_655
Mn1 O2 2.224286 1_555
Mn1 O1 2.226944 1_545
Mn1 O5 2.227692 1_655
Mn1 O0 2.230405 1_555
Mn1 O4 2.233381 1_655
Mn2 O5 2.216841 1_666
Mn2 O1 2.222396 1_555
Mn2 O2 2.225413 1_566
Mn2 O3 2.228324 1_556
Mn2 O7 2.228777 1_655
Mn2 O6 2.231001 1_665
Mn3 O7 2.218301 1_655
Mn3 O3 2.224713 1_555
Mn3 O4 2.226714 1_655
Mn3 O0 2.226797 1_555
Mn3 O1 2.230140 1_555
Mn3 O5 2.232679 1_665
H0 O0 0.973721 1_555
H1 O1 0.973414 1_555
H2 O2 0.973205 1_556
H3 O3 0.973795 1_556
H4 O4 0.974632 1_555
H5 O5 0.974155 1_555
H6 O6 0.974444 1_554
H7 O7 0.973594 1_554
