# generated using pymatgen
data_Ba3Ga3P5
_symmetry_space_group_name_H-M   'P 1'
_cell_length_a   12.89080224
_cell_length_b   12.89080224
_cell_length_c   12.89080270
_cell_angle_alpha   69.73494669
_cell_angle_beta   69.73494669
_cell_angle_gamma   69.73494694
_symmetry_Int_Tables_number   1
_chemical_formula_structural   Ba3Ga3P5
_chemical_formula_sum   'Ba18 Ga18 P30'
_cell_volume   1821.66953596
_cell_formula_units_Z   6
loop_
 _symmetry_equiv_pos_site_id
 _symmetry_equiv_pos_as_xyz
  1  'x, y, z'
loop_
 _atom_site_type_symbol
 _atom_site_label
 _atom_site_symmetry_multiplicity
 _atom_site_fract_x
 _atom_site_fract_y
 _atom_site_fract_z
 _atom_site_occupancy
  Ba  Ba0  1  0.14013272  0.22653631  0.64968146  1
  Ba  Ba1  1  0.64968146  0.14013272  0.22653631  1
  Ba  Ba2  1  0.22653631  0.64968146  0.14013272  1
  Ba  Ba3  1  0.14968146  0.72653631  0.64013272  1
  Ba  Ba4  1  0.64013272  0.14968146  0.72653631  1
  Ba  Ba5  1  0.72653631  0.64013272  0.14968146  1
  Ba  Ba6  1  0.85986728  0.77346369  0.35031854  1
  Ba  Ba7  1  0.35031854  0.85986728  0.77346369  1
  Ba  Ba8  1  0.77346369  0.35031854  0.85986728  1
  Ba  Ba9  1  0.85031854  0.27346369  0.35986728  1
  Ba  Ba10  1  0.35986728  0.85031854  0.27346369  1
  Ba  Ba11  1  0.27346369  0.35986728  0.85031854  1
  Ba  Ba12  1  0.39883627  0.39883627  0.39883627  1
  Ba  Ba13  1  0.89883627  0.89883627  0.89883627  1
  Ba  Ba14  1  0.60116373  0.60116373  0.60116373  1
  Ba  Ba15  1  0.10116373  0.10116373  0.10116373  1
  Ba  Ba16  1  0.25000000  0.25000000  0.25000000  1
  Ba  Ba17  1  0.75000000  0.75000000  0.75000000  1
  Ga  Ga0  1  0.08276722  0.57512270  0.48849777  1
  Ga  Ga1  1  0.48849777  0.08276722  0.57512270  1
  Ga  Ga2  1  0.57512270  0.48849777  0.08276722  1
  Ga  Ga3  1  0.98849777  0.07512270  0.58276722  1
  Ga  Ga4  1  0.58276722  0.98849777  0.07512270  1
  Ga  Ga5  1  0.07512270  0.58276722  0.98849777  1
  Ga  Ga6  1  0.91723278  0.42487730  0.51150223  1
  Ga  Ga7  1  0.51150223  0.91723278  0.42487730  1
  Ga  Ga8  1  0.42487730  0.51150223  0.91723278  1
  Ga  Ga9  1  0.01150223  0.92487730  0.41723278  1
  Ga  Ga10  1  0.41723278  0.01150223  0.92487730  1
  Ga  Ga11  1  0.92487730  0.41723278  0.01150223  1
  Ga  Ga12  1  0.97919875  0.52080125  0.25000000  1
  Ga  Ga13  1  0.25000000  0.97919875  0.52080125  1
  Ga  Ga14  1  0.52080125  0.25000000  0.97919875  1
  Ga  Ga15  1  0.75000000  0.02080125  0.47919875  1
  Ga  Ga16  1  0.47919875  0.75000000  0.02080125  1
  Ga  Ga17  1  0.02080125  0.47919875  0.75000000  1
  P  P0  1  0.10767895  0.44855733  0.37689631  1
  P  P1  1  0.37689631  0.10767895  0.44855733  1
  P  P2  1  0.44855733  0.37689631  0.10767895  1
  P  P3  1  0.87689631  0.94855733  0.60767895  1
  P  P4  1  0.60767895  0.87689631  0.94855733  1
  P  P5  1  0.94855733  0.60767895  0.87689631  1
  P  P6  1  0.89232105  0.55144267  0.62310369  1
  P  P7  1  0.62310369  0.89232105  0.55144267  1
  P  P8  1  0.55144267  0.62310369  0.89232105  1
  P  P9  1  0.12310369  0.05144267  0.39232105  1
  P  P10  1  0.39232105  0.12310369  0.05144267  1
  P  P11  1  0.05144267  0.39232105  0.12310369  1
  P  P12  1  0.20261530  0.47235369  0.61380120  1
  P  P13  1  0.61380120  0.20261530  0.47235369  1
  P  P14  1  0.47235369  0.61380120  0.20261530  1
  P  P15  1  0.11380120  0.97235369  0.70261530  1
  P  P16  1  0.70261530  0.11380120  0.97235369  1
  P  P17  1  0.97235369  0.70261530  0.11380120  1
  P  P18  1  0.79738470  0.52764631  0.38619880  1
  P  P19  1  0.38619880  0.79738470  0.52764631  1
  P  P20  1  0.52764631  0.38619880  0.79738470  1
  P  P21  1  0.88619880  0.02764631  0.29738470  1
  P  P22  1  0.29738470  0.88619880  0.02764631  1
  P  P23  1  0.02764631  0.29738470  0.88619880  1
  P  P24  1  0.62224157  0.87775843  0.25000000  1
  P  P25  1  0.25000000  0.62224157  0.87775843  1
  P  P26  1  0.87775843  0.25000000  0.62224157  1
  P  P27  1  0.75000000  0.37775843  0.12224157  1
  P  P28  1  0.12224157  0.75000000  0.37775843  1
  P  P29  1  0.37775843  0.12224157  0.75000000  1
loop_
_geom_bond_atom_site_label_1
_geom_bond_atom_site_label_2
_geom_bond_distance
_geom_bond_site_symmetry_2
Ba0 P23 3.190842 1_555
Ba0 P15 3.221527 1_545
Ba0 P12 3.376174 1_555
Ba0 P29 3.398502 1_555
Ba0 P26 3.420813 1_455
Ba0 P1 3.523547 1_555
Ba0 Ga17 3.565923 1_555
Ba0 Ga6 3.642472 1_455
Ba0 Ga3 3.654009 1_455
Ba0 Ga13 3.720635 1_545
Ba0 P0 3.734891 1_555
Ba1 P21 3.190842 1_555
Ba1 P16 3.221527 1_554
Ba1 P13 3.376175 1_555
Ba1 P27 3.398502 1_555
Ba1 P24 3.420813 1_545
Ba1 P2 3.523547 1_555
Ba1 Ga15 3.565923 1_555
Ba1 Ga7 3.642472 1_545
Ba1 Ga4 3.654009 1_545
Ba1 Ga14 3.720635 1_554
Ba1 P1 3.734891 1_555
Ba2 P22 3.190842 1_555
Ba2 P17 3.221527 1_455
Ba2 P14 3.376174 1_555
Ba2 P28 3.398502 1_555
Ba2 P25 3.420813 1_554
Ba2 P0 3.523547 1_555
Ba2 Ga16 3.565923 1_555
Ba2 Ga8 3.642472 1_554
Ba2 Ga5 3.654009 1_554
Ba2 Ga12 3.720635 1_455
Ba2 P2 3.734891 1_555
Ba3 P19 3.190842 1_555
Ba3 P12 3.221527 1_555
Ba3 P15 3.376174 1_555
Ba3 P25 3.398502 1_555
Ba3 P28 3.420813 1_555
Ba3 P5 3.523547 1_455
Ba3 Ga13 3.565923 1_555
Ba3 Ga9 3.642472 1_555
Ba3 Ga0 3.654009 1_555
Ba3 Ga17 3.720635 1_555
Ba3 P3 3.734891 1_455
Ba4 P20 3.190842 1_555
Ba4 P13 3.221527 1_555
Ba4 P16 3.376175 1_555
Ba4 P26 3.398502 1_555
Ba4 P29 3.420813 1_555
Ba4 P3 3.523547 1_545
Ba4 Ga14 3.565923 1_555
Ba4 Ga10 3.642472 1_555
Ba4 Ga1 3.654009 1_555
Ba4 Ga15 3.720635 1_555
Ba4 P4 3.734891 1_545
Ba5 P18 3.190842 1_555
Ba5 P14 3.221527 1_555
Ba5 P17 3.376174 1_555
Ba5 P24 3.398502 1_555
Ba5 P27 3.420813 1_555
Ba5 P4 3.523547 1_554
Ba5 Ga12 3.565923 1_555
Ba5 Ga11 3.642472 1_555
Ba5 Ga2 3.654009 1_555
Ba5 Ga16 3.720635 1_555
Ba5 P5 3.734891 1_554
Ba6 P17 3.190842 1_555
Ba6 P21 3.221527 1_565
Ba6 P18 3.376174 1_555
Ba6 P24 3.398502 1_555
Ba6 P28 3.420813 1_655
Ba6 P7 3.523547 1_555
Ba6 Ga12 3.565923 1_555
Ba6 Ga0 3.642472 1_655
Ba6 Ga9 3.654009 1_655
Ba6 Ga15 3.720635 1_565
Ba6 P6 3.734891 1_555
Ba7 P15 3.190842 1_555
Ba7 P22 3.221527 1_556
Ba7 P19 3.376175 1_555
Ba7 P25 3.398502 1_555
Ba7 P29 3.420813 1_565
Ba7 P8 3.523547 1_555
Ba7 Ga13 3.565923 1_555
Ba7 Ga1 3.642472 1_565
Ba7 Ga10 3.654009 1_565
Ba7 Ga16 3.720635 1_556
Ba7 P7 3.734891 1_555
Ba8 P16 3.190842 1_555
Ba8 P23 3.221527 1_655
Ba8 P20 3.376174 1_555
Ba8 P26 3.398502 1_555
Ba8 P27 3.420813 1_556
Ba8 P6 3.523547 1_555
Ba8 Ga14 3.565923 1_555
Ba8 Ga2 3.642472 1_556
Ba8 Ga11 3.654009 1_556
Ba8 Ga17 3.720635 1_655
Ba8 P8 3.734891 1_555
Ba9 P13 3.190842 1_555
Ba9 P18 3.221527 1_555
Ba9 P21 3.376174 1_555
Ba9 P27 3.398502 1_555
Ba9 P26 3.420813 1_555
Ba9 P11 3.523547 1_655
Ba9 Ga15 3.565923 1_555
Ba9 Ga3 3.642472 1_555
Ba9 Ga6 3.654009 1_555
Ba9 Ga12 3.720635 1_555
Ba9 P9 3.734891 1_655
Ba10 P14 3.190842 1_555
Ba10 P19 3.221527 1_555
Ba10 P22 3.376175 1_555
Ba10 P28 3.398502 1_555
Ba10 P24 3.420813 1_555
Ba10 P9 3.523547 1_565
Ba10 Ga16 3.565923 1_555
Ba10 Ga4 3.642472 1_555
Ba10 Ga7 3.654009 1_555
Ba10 Ga13 3.720635 1_555
Ba10 P10 3.734891 1_565
Ba11 P12 3.190842 1_555
Ba11 P20 3.221527 1_555
Ba11 P23 3.376174 1_555
Ba11 P29 3.398502 1_555
Ba11 P25 3.420813 1_555
Ba11 P10 3.523547 1_556
Ba11 Ga17 3.565923 1_555
Ba11 Ga5 3.642472 1_555
Ba11 Ga8 3.654009 1_555
Ba11 Ga14 3.720635 1_555
Ba11 P11 3.734891 1_556
Ba12 P13 3.205959 1_555
Ba12 P14 3.205959 1_555
Ba12 P12 3.205959 1_555
Ba12 P1 3.677093 1_555
Ba12 P0 3.677093 1_555
Ba12 P2 3.677093 1_555
Ba13 P16 3.205959 1_565
Ba13 P15 3.205959 1_655
Ba13 P17 3.205959 1_556
Ba13 P4 3.677093 1_555
Ba13 P5 3.677093 1_555
Ba13 P3 3.677093 1_555
Ba14 P19 3.205959 1_555
Ba14 P20 3.205959 1_555
Ba14 P18 3.205959 1_555
Ba14 P7 3.677093 1_555
Ba14 P6 3.677093 1_555
Ba14 P8 3.677093 1_555
Ba15 P22 3.205959 1_545
Ba15 P21 3.205959 1_455
Ba15 P23 3.205959 1_554
Ba15 P10 3.677093 1_555
Ba15 P11 3.677093 1_555
Ba15 P9 3.677093 1_555
Ba16 P9 3.187723 1_555
Ba16 P2 3.187723 1_555
Ba16 P11 3.187724 1_555
Ba16 P0 3.187724 1_555
Ba16 P10 3.187724 1_555
Ba16 P1 3.187724 1_555
Ba17 P8 3.187723 1_555
Ba17 P3 3.187723 1_555
Ba17 P5 3.187724 1_555
Ba17 P6 3.187724 1_555
Ba17 P4 3.187724 1_555
Ba17 P7 3.187724 1_555
Ga0 P28 2.332563 1_555
Ga0 P12 2.362092 1_555
Ga0 P0 2.403674 1_555
Ga0 P6 2.516417 1_455
Ga1 P29 2.332563 1_555
Ga1 P13 2.362092 1_555
Ga1 P1 2.403674 1_555
Ga1 P7 2.516417 1_545
Ga2 P27 2.332563 1_555
Ga2 P14 2.362092 1_555
Ga2 P2 2.403673 1_555
Ga2 P8 2.516417 1_554
Ga3 P26 2.332563 1_555
Ga3 P15 2.362092 1_645
Ga3 P3 2.403673 1_545
Ga3 P9 2.516417 1_655
Ga4 P24 2.332563 1_555
Ga4 P16 2.362092 1_564
Ga4 P4 2.403674 1_554
Ga4 P10 2.516417 1_565
Ga5 P25 2.332563 1_555
Ga5 P17 2.362092 1_456
Ga5 P5 2.403674 1_455
Ga5 P11 2.516417 1_556
Ga6 P26 2.332563 1_555
Ga6 P18 2.362092 1_555
Ga6 P6 2.403674 1_555
Ga6 P0 2.516417 1_655
Ga7 P24 2.332563 1_555
Ga7 P19 2.362092 1_555
Ga7 P7 2.403674 1_555
Ga7 P1 2.516417 1_565
Ga8 P25 2.332563 1_555
Ga8 P20 2.362092 1_555
Ga8 P8 2.403673 1_555
Ga8 P2 2.516417 1_556
Ga9 P28 2.332563 1_555
Ga9 P21 2.362092 1_465
Ga9 P9 2.403673 1_565
Ga9 P3 2.516417 1_455
Ga10 P29 2.332563 1_555
Ga10 P22 2.362092 1_546
Ga10 P10 2.403674 1_556
Ga10 P4 2.516417 1_545
Ga11 P27 2.332563 1_555
Ga11 P23 2.362092 1_654
Ga11 P11 2.403674 1_655
Ga11 P5 2.516417 1_554
Ga12 P17 2.386822 1_555
Ga12 P18 2.386822 1_555
Ga12 P0 2.457469 1_655
Ga12 P11 2.457469 1_655
Ga13 P19 2.386822 1_555
Ga13 P15 2.386823 1_555
Ga13 P1 2.457469 1_565
Ga13 P9 2.457469 1_565
Ga14 P16 2.386822 1_555
Ga14 P20 2.386823 1_555
Ga14 P10 2.457469 1_556
Ga14 P2 2.457469 1_556
Ga15 P13 2.386822 1_555
Ga15 P21 2.386823 1_555
Ga15 P7 2.457469 1_545
Ga15 P3 2.457469 1_545
Ga16 P22 2.386822 1_555
Ga16 P14 2.386823 1_555
Ga16 P4 2.457469 1_554
Ga16 P8 2.457469 1_554
Ga17 P23 2.386822 1_555
Ga17 P12 2.386822 1_555
Ga17 P6 2.457469 1_455
Ga17 P5 2.457469 1_455
