# generated using pymatgen
data_SrGeO3
_symmetry_space_group_name_H-M   'P 1'
_cell_length_a   7.26079034
_cell_length_b   7.26079034
_cell_length_c   11.28756380
_cell_angle_alpha   71.65165741
_cell_angle_beta   71.65165741
_cell_angle_gamma   60.11372609
_symmetry_Int_Tables_number   1
_chemical_formula_structural   SrGeO3
_chemical_formula_sum   'Sr6 Ge6 O18'
_cell_volume   480.60186377
_cell_formula_units_Z   6
loop_
 _symmetry_equiv_pos_site_id
 _symmetry_equiv_pos_as_xyz
  1  'x, y, z'
loop_
 _atom_site_type_symbol
 _atom_site_label
 _atom_site_symmetry_multiplicity
 _atom_site_fract_x
 _atom_site_fract_y
 _atom_site_fract_z
 _atom_site_occupancy
  Sr  Sr0  1  0.00000000  0.50000000  0.50000000  1
  Sr  Sr1  1  0.50000000  -0.00000000  -0.00000000  1
  Sr  Sr2  1  0.15828594  0.67039209  0.99933515  1
  Sr  Sr3  1  0.32960791  0.84171406  0.50066485  1
  Sr  Sr4  1  0.84171406  0.32960791  0.00066485  1
  Sr  Sr5  1  0.67039209  0.15828594  0.49933515  1
  Ge  Ge0  1  0.84362405  0.15637595  0.75000000  1
  Ge  Ge1  1  0.15637595  0.84362405  0.25000000  1
  Ge  Ge2  1  0.32259677  0.41808432  0.74652136  1
  Ge  Ge3  1  0.58191568  0.67740323  0.75347864  1
  Ge  Ge4  1  0.67740323  0.58191568  0.25347864  1
  Ge  Ge5  1  0.41808432  0.32259677  0.24652136  1
  O  O0  1  0.34979715  0.65020285  0.75000000  1
  O  O1  1  0.65020285  0.34979715  0.25000000  1
  O  O2  1  0.88795754  0.01062082  0.89920574  1
  O  O3  1  0.98937918  0.11204246  0.60079426  1
  O  O4  1  0.11204246  0.98937918  0.10079426  1
  O  O5  1  0.01062082  0.88795754  0.39920574  1
  O  O6  1  0.58282850  0.18475254  0.74853529  1
  O  O7  1  0.81524746  0.41717150  0.75146471  1
  O  O8  1  0.41717150  0.81524746  0.25146471  1
  O  O9  1  0.18475254  0.58282850  0.24853529  1
  O  O10  1  0.17608917  0.36866857  0.89484864  1
  O  O11  1  0.63133143  0.82391083  0.60515136  1
  O  O12  1  0.46837021  0.28129183  0.09515995  1
  O  O13  1  0.71870817  0.53162979  0.40484005  1
  O  O14  1  0.53162979  0.71870817  0.90484005  1
  O  O15  1  0.28129183  0.46837021  0.59515995  1
  O  O16  1  0.36866857  0.17608917  0.39484864  1
  O  O17  1  0.82391083  0.63133143  0.10515136  1
loop_
_geom_bond_atom_site_label_1
_geom_bond_atom_site_label_2
_geom_bond_distance
_geom_bond_site_symmetry_2
Ge0 O2 1.714561 1_555
Ge0 O3 1.714561 1_555
Ge0 O7 1.804754 1_555
Ge0 O6 1.804754 1_555
Ge1 O4 1.714561 1_555
Ge1 O5 1.714561 1_555
Ge1 O8 1.804754 1_555
Ge1 O9 1.804754 1_555
Ge2 O10 1.715899 1_555
Ge2 O15 1.721327 1_555
Ge2 O6 1.803771 1_555
Ge2 O0 1.805340 1_555
Ge3 O11 1.715899 1_555
Ge3 O14 1.721327 1_555
Ge3 O7 1.803771 1_555
Ge3 O0 1.805340 1_555
Ge4 O17 1.715899 1_555
Ge4 O13 1.721327 1_555
Ge4 O8 1.803771 1_555
Ge4 O1 1.805340 1_555
Ge5 O16 1.715899 1_555
Ge5 O12 1.721327 1_555
Ge5 O9 1.803771 1_555
Ge5 O1 1.805340 1_555
O0 Sr3 2.732865 1_555
O0 Sr2 2.732865 1_555
O1 Sr5 2.732865 1_555
O1 Sr4 2.732865 1_555
O2 Sr2 2.457493 1_645
O2 Sr1 2.716374 1_556
O2 Sr4 2.727905 1_556
O3 Sr3 2.457493 1_645
O3 Sr0 2.716374 1_655
O3 Sr5 2.727905 1_555
O4 Sr4 2.457493 1_465
O4 Sr1 2.716374 1_565
O4 Sr2 2.727905 1_554
O5 Sr5 2.457493 1_465
O5 Sr0 2.716374 1_555
O5 Sr3 2.727905 1_555
O6 Sr5 2.728731 1_555
O6 Sr1 2.747700 1_556
O7 Sr4 2.728731 1_556
O7 Sr0 2.747700 1_655
O8 Sr3 2.728731 1_555
O8 Sr1 2.747700 1_565
O9 Sr2 2.728731 1_554
O9 Sr0 2.747700 1_555
O10 Sr4 2.459395 1_456
O10 Sr2 2.730492 1_555
O10 Sr1 2.754750 1_556
O11 Sr5 2.459395 1_565
O11 Sr3 2.730492 1_555
O11 Sr0 2.754750 1_655
O12 Sr1 2.477160 1_555
O12 Sr2 2.736974 1_554
O12 Sr4 2.738756 1_555
O13 Sr0 2.477160 1_655
O13 Sr3 2.736974 1_555
O13 Sr5 2.738756 1_555
O14 Sr1 2.477160 1_566
O14 Sr4 2.736974 1_556
O14 Sr2 2.738756 1_555
O15 Sr0 2.477160 1_555
O15 Sr5 2.736974 1_555
O15 Sr3 2.738756 1_555
O16 Sr3 2.459395 1_545
O16 Sr5 2.730492 1_555
O16 Sr0 2.754750 1_555
O17 Sr2 2.459395 1_654
O17 Sr4 2.730492 1_555
O17 Sr1 2.754750 1_565
