# generated using pymatgen
data_Ce(CuSb)2
_symmetry_space_group_name_H-M   'P 1'
_cell_length_a   4.62653000
_cell_length_b   4.62653000
_cell_length_c   10.31775600
_cell_angle_alpha   90.00000000
_cell_angle_beta   90.00000000
_cell_angle_gamma   90.00000000
_symmetry_Int_Tables_number   1
_chemical_formula_structural   Ce(CuSb)2
_chemical_formula_sum   'Ce2 Cu4 Sb4'
_cell_volume   220.84929563
_cell_formula_units_Z   2
loop_
 _symmetry_equiv_pos_site_id
 _symmetry_equiv_pos_as_xyz
  1  'x, y, z'
loop_
 _atom_site_type_symbol
 _atom_site_label
 _atom_site_symmetry_multiplicity
 _atom_site_fract_x
 _atom_site_fract_y
 _atom_site_fract_z
 _atom_site_occupancy
  Ce  Ce0  1  0.50000000  0.00000000  0.75603500  1
  Ce  Ce1  1  0.00000000  0.50000000  0.24396500  1
  Cu  Cu0  1  0.00000000  0.00000000  0.00000000  1
  Cu  Cu1  1  0.50000000  0.50000000  0.00000000  1
  Cu  Cu2  1  0.50000000  0.00000000  0.37118700  1
  Cu  Cu3  1  0.00000000  0.50000000  0.62881300  1
  Sb  Sb0  1  0.50000000  0.00000000  0.12904400  1
  Sb  Sb1  1  0.00000000  0.50000000  0.87095600  1
  Sb  Sb2  1  0.00000000  0.00000000  0.50000000  1
  Sb  Sb3  1  0.50000000  0.50000000  0.50000000  1
loop_
_geom_bond_atom_site_label_1
_geom_bond_atom_site_label_2
_geom_bond_distance
_geom_bond_site_symmetry_2
Ce0 Cu1 3.418676 1_546
Ce0 Cu0 3.418676 1_556
Ce0 Cu0 3.418676 1_656
Ce0 Cu1 3.418676 1_556
Ce0 Sb1 3.479704 1_655
Ce0 Sb1 3.479704 1_645
Ce0 Sb1 3.479704 1_545
Ce0 Sb1 3.479704 1_555
Ce0 Sb3 3.511383 1_545
Ce0 Sb2 3.511383 1_555
Ce0 Sb2 3.511383 1_655
Ce0 Sb3 3.511383 1_555
Ce0 Cu3 3.524972 1_655
Ce0 Cu3 3.524972 1_555
Ce0 Cu3 3.524972 1_545
Ce0 Cu3 3.524972 1_645
Ce1 Cu0 3.418676 1_555
Ce1 Cu0 3.418676 1_565
Ce1 Cu1 3.418676 1_555
Ce1 Cu1 3.418676 1_455
Ce1 Sb0 3.479704 1_565
Ce1 Sb0 3.479704 1_455
Ce1 Sb0 3.479704 1_465
Ce1 Sb0 3.479704 1_555
Ce1 Sb2 3.511383 1_555
Ce1 Sb3 3.511383 1_455
Ce1 Sb3 3.511383 1_555
Ce1 Sb2 3.511383 1_565
Ce1 Cu2 3.524972 1_555
Ce1 Cu2 3.524972 1_465
Ce1 Cu2 3.524972 1_455
Ce1 Cu2 3.524972 1_565
Cu0 Sb1 2.669071 1_544
Cu0 Sb0 2.669071 1_455
Cu0 Sb0 2.669071 1_555
Cu0 Sb1 2.669071 1_554
Cu1 Sb0 2.669071 1_555
Cu1 Sb0 2.669071 1_565
Cu1 Sb1 2.669071 1_554
Cu1 Sb1 2.669071 1_654
Cu2 Sb0 2.498372 1_555
Cu2 Sb2 2.667883 1_555
Cu2 Sb3 2.667883 1_545
Cu2 Sb3 2.667883 1_555
Cu2 Sb2 2.667883 1_655
Cu3 Sb1 2.498372 1_555
Cu3 Sb3 2.667883 1_555
Cu3 Sb2 2.667883 1_565
Cu3 Sb2 2.667883 1_555
Cu3 Sb3 2.667883 1_455
