# generated using pymatgen
data_Pr5Ni19
_symmetry_space_group_name_H-M   'P 1'
_cell_length_a   5.01317970
_cell_length_b   5.01317970
_cell_length_c   32.51338200
_cell_angle_alpha   90.00000000
_cell_angle_beta   90.00000000
_cell_angle_gamma   120.04797489
_symmetry_Int_Tables_number   1
_chemical_formula_structural   Pr5Ni19
_chemical_formula_sum   'Pr10 Ni38'
_cell_volume   707.30897689
_cell_formula_units_Z   2
loop_
 _symmetry_equiv_pos_site_id
 _symmetry_equiv_pos_as_xyz
  1  'x, y, z'
loop_
 _atom_site_type_symbol
 _atom_site_label
 _atom_site_symmetry_multiplicity
 _atom_site_fract_x
 _atom_site_fract_y
 _atom_site_fract_z
 _atom_site_occupancy
  Pr  Pr0  1  0.66665100  0.33334900  0.75000000  1
  Pr  Pr1  1  0.33334900  0.66665100  0.25000000  1
  Pr  Pr2  1  0.66667400  0.33332600  0.63283700  1
  Pr  Pr3  1  0.33332600  0.66667400  0.36716300  1
  Pr  Pr4  1  0.33332600  0.66667400  0.13283700  1
  Pr  Pr5  1  0.66667400  0.33332600  0.86716300  1
  Pr  Pr6  1  0.66672200  0.33327800  0.52266700  1
  Pr  Pr7  1  0.33327800  0.66672200  0.47733300  1
  Pr  Pr8  1  0.33327800  0.66672200  0.02266700  1
  Pr  Pr9  1  0.66672200  0.33327800  0.97733300  1
  Ni  Ni0  1  0.00000000  0.00000000  0.50000000  1
  Ni  Ni1  1  0.00000000  0.00000000  0.00000000  1
  Ni  Ni2  1  0.00002200  0.99997800  0.75000000  1
  Ni  Ni3  1  0.99997800  0.00002200  0.25000000  1
  Ni  Ni4  1  0.66668600  0.33331400  0.25000000  1
  Ni  Ni5  1  0.33331400  0.66668600  0.75000000  1
  Ni  Ni6  1  0.99995100  0.00004900  0.62795400  1
  Ni  Ni7  1  0.00004900  0.99995100  0.37204600  1
  Ni  Ni8  1  0.00004900  0.99995100  0.12795400  1
  Ni  Ni9  1  0.99995100  0.00004900  0.87204600  1
  Ni  Ni10  1  0.66665300  0.33334700  0.37265100  1
  Ni  Ni11  1  0.33334700  0.66665300  0.62734900  1
  Ni  Ni12  1  0.33334700  0.66665300  0.87265100  1
  Ni  Ni13  1  0.66665300  0.33334700  0.12734900  1
  Ni  Ni14  1  0.16548700  0.33132600  0.56636500  1
  Ni  Ni15  1  0.16570900  0.83429100  0.56632300  1
  Ni  Ni16  1  0.66867400  0.83451300  0.56636500  1
  Ni  Ni17  1  0.83451300  0.66867400  0.43363500  1
  Ni  Ni18  1  0.83429100  0.16570900  0.43367700  1
  Ni  Ni19  1  0.33132600  0.16548700  0.43363500  1
  Ni  Ni20  1  0.83451300  0.66867400  0.06636500  1
  Ni  Ni21  1  0.83429100  0.16570900  0.06632300  1
  Ni  Ni22  1  0.33132600  0.16548700  0.06636500  1
  Ni  Ni23  1  0.16548700  0.33132600  0.93363500  1
  Ni  Ni24  1  0.16570900  0.83429100  0.93367700  1
  Ni  Ni25  1  0.66867400  0.83451300  0.93363500  1
  Ni  Ni26  1  0.16738200  0.33479200  0.68934300  1
  Ni  Ni27  1  0.16734400  0.83265600  0.68936300  1
  Ni  Ni28  1  0.66520800  0.83261800  0.68934300  1
  Ni  Ni29  1  0.83261800  0.66520800  0.31065700  1
  Ni  Ni30  1  0.83265600  0.16734400  0.31063700  1
  Ni  Ni31  1  0.33479200  0.16738200  0.31065700  1
  Ni  Ni32  1  0.83261800  0.66520800  0.18934300  1
  Ni  Ni33  1  0.83265600  0.16734400  0.18936300  1
  Ni  Ni34  1  0.33479200  0.16738200  0.18934300  1
  Ni  Ni35  1  0.16738200  0.33479200  0.81065700  1
  Ni  Ni36  1  0.16734400  0.83265600  0.81063700  1
  Ni  Ni37  1  0.66520800  0.83261800  0.81065700  1
loop_
_geom_bond_atom_site_label_1
_geom_bond_atom_site_label_2
_geom_bond_distance
_geom_bond_site_symmetry_2
Ni0 Ni18 2.592553 1_455
Ni0 Ni15 2.592553 1_545
Ni0 Ni14 2.592889 1_555
Ni0 Ni19 2.592889 1_555
Ni0 Ni16 2.592889 1_445
Ni0 Ni17 2.592889 1_445
Ni0 Pr6 2.985592 1_555
Ni0 Pr7 2.985592 1_555
Ni0 Pr6 2.985592 1_445
Ni0 Pr7 2.985592 1_445
Ni0 Pr6 2.986927 1_455
Ni0 Pr7 2.986927 1_545
Ni1 Ni21 2.592553 1_455
Ni1 Ni24 2.592553 1_544
Ni1 Ni22 2.592889 1_555
Ni1 Ni20 2.592889 1_445
Ni1 Ni23 2.592889 1_554
Ni1 Ni25 2.592889 1_444
Ni1 Pr8 2.985592 1_555
Ni1 Pr9 2.985592 1_554
Ni1 Pr8 2.985592 1_445
Ni1 Pr9 2.985592 1_444
Ni1 Pr8 2.986927 1_545
Ni1 Pr9 2.986927 1_454
Ni2 Ni36 2.449229 1_555
Ni2 Ni27 2.449229 1_555
Ni2 Ni37 2.449565 1_455
Ni2 Ni35 2.449565 1_565
Ni2 Ni28 2.449565 1_455
Ni2 Ni26 2.449565 1_565
Ni2 Pr0 2.892798 1_455
Ni2 Pr0 2.892798 1_565
Ni2 Pr0 2.895387 1_465
Ni3 Ni30 2.449229 1_555
Ni3 Ni33 2.449229 1_555
Ni3 Ni31 2.449565 1_655
Ni3 Ni32 2.449565 1_545
Ni3 Ni34 2.449565 1_655
Ni3 Pr1 2.892798 1_545
Ni3 Pr1 2.892798 1_655
Ni3 Pr1 2.895387 1_645
Ni4 Pr1 2.892946 1_545
Ni4 Pr1 2.892946 1_655
Ni4 Pr1 2.895092 1_555
Ni5 Pr0 2.892946 1_455
Ni5 Pr0 2.892946 1_565
Ni5 Pr0 2.895092 1_555
Ni6 Pr2 2.897559 1_545
Ni6 Pr2 2.897559 1_655
Ni6 Pr2 2.898921 1_555
Ni7 Pr3 2.897559 1_455
Ni7 Pr3 2.897559 1_565
Ni7 Pr3 2.898921 1_555
Ni8 Pr4 2.897559 1_455
Ni8 Pr4 2.897559 1_565
Ni8 Pr4 2.898921 1_555
Ni9 Pr5 2.897559 1_545
Ni9 Pr5 2.897559 1_655
Ni9 Pr5 2.898921 1_555
Ni10 Ni19 2.459449 1_555
Ni10 Ni17 2.459449 1_555
Ni10 Ni18 2.461043 1_555
Ni10 Ni31 2.477226 1_555
Ni10 Ni29 2.477226 1_555
Ni10 Ni30 2.478728 1_555
Ni10 Pr3 2.898486 1_545
Ni10 Pr3 2.898486 1_655
Ni10 Pr3 2.900499 1_555
Ni11 Ni14 2.459449 1_555
Ni11 Ni16 2.459449 1_555
Ni11 Ni15 2.461043 1_555
Ni11 Ni26 2.477226 1_555
Ni11 Ni28 2.477226 1_555
Ni11 Ni27 2.478728 1_555
Ni11 Pr2 2.898486 1_455
Ni11 Pr2 2.898486 1_565
Ni11 Pr2 2.900499 1_555
Ni12 Ni23 2.459449 1_555
Ni12 Ni25 2.459449 1_555
Ni12 Ni24 2.461043 1_555
Ni12 Ni35 2.477226 1_555
Ni12 Ni37 2.477226 1_555
Ni12 Ni36 2.478728 1_555
Ni12 Pr5 2.898486 1_455
Ni12 Pr5 2.898486 1_565
Ni12 Pr5 2.900499 1_555
Ni13 Ni22 2.459449 1_555
Ni13 Ni20 2.459449 1_555
Ni13 Ni21 2.461043 1_555
Ni13 Ni34 2.477226 1_555
Ni13 Ni32 2.477226 1_555
Ni13 Ni33 2.478728 1_555
Ni13 Pr4 2.898486 1_545
Ni13 Pr4 2.898486 1_655
Ni13 Pr4 2.900499 1_555
Ni14 Ni6 2.465045 1_455
Ni14 Ni16 2.488807 1_445
Ni14 Ni15 2.492284 1_545
Ni14 Ni16 2.520737 1_555
Ni14 Ni15 2.520897 1_555
Ni14 Pr6 2.880135 1_455
Ni14 Pr6 2.882382 1_555
Ni14 Pr7 3.240023 1_555
Ni14 Pr2 3.308975 1_455
Ni14 Pr2 3.310384 1_555
Ni15 Ni6 2.467367 1_465
Ni15 Ni16 2.492284 1_455
Ni15 Ni16 2.520897 1_555
Ni15 Pr6 2.879005 1_565
Ni15 Pr6 2.879005 1_455
Ni15 Pr7 3.238774 1_555
Ni15 Pr2 3.309195 1_565
Ni15 Pr2 3.309195 1_455
Ni16 Ni6 2.465045 1_565
Ni16 Pr6 2.880135 1_565
Ni16 Pr6 2.882382 1_555
Ni16 Pr7 3.240023 1_555
Ni16 Pr2 3.308975 1_565
Ni16 Pr2 3.310384 1_555
Ni17 Ni7 2.465045 1_655
Ni17 Ni19 2.488807 1_665
Ni17 Ni18 2.492284 1_565
Ni17 Ni19 2.520737 1_555
Ni17 Ni18 2.520897 1_555
Ni17 Pr7 2.880135 1_655
Ni17 Pr7 2.882382 1_555
Ni17 Pr6 3.240023 1_555
Ni17 Pr3 3.308975 1_655
Ni17 Pr3 3.310384 1_555
Ni18 Ni7 2.467367 1_645
Ni18 Ni19 2.492284 1_655
Ni18 Ni19 2.520897 1_555
Ni18 Pr7 2.879005 1_655
Ni18 Pr7 2.879005 1_545
Ni18 Pr6 3.238774 1_555
Ni18 Pr3 3.309195 1_655
Ni18 Pr3 3.309195 1_545
Ni19 Ni7 2.465045 1_545
Ni19 Pr7 2.880135 1_545
Ni19 Pr7 2.882382 1_555
Ni19 Pr6 3.240023 1_555
Ni19 Pr3 3.308975 1_545
Ni19 Pr3 3.310384 1_555
Ni20 Ni8 2.465045 1_655
Ni20 Ni22 2.488807 1_665
Ni20 Ni21 2.492284 1_565
Ni20 Ni22 2.520737 1_555
Ni20 Ni21 2.520897 1_555
Ni20 Pr8 2.880135 1_655
Ni20 Pr8 2.882382 1_555
Ni20 Pr9 3.240023 1_554
Ni20 Pr4 3.308975 1_655
Ni20 Pr4 3.310384 1_555
Ni21 Ni8 2.467367 1_645
Ni21 Ni22 2.492284 1_655
Ni21 Ni22 2.520897 1_555
Ni21 Pr8 2.879005 1_655
Ni21 Pr8 2.879005 1_545
Ni21 Pr9 3.238774 1_554
Ni21 Pr4 3.309195 1_545
Ni21 Pr4 3.309195 1_655
Ni22 Ni8 2.465045 1_545
Ni22 Pr8 2.880135 1_545
Ni22 Pr8 2.882382 1_555
Ni22 Pr9 3.240023 1_554
Ni22 Pr4 3.308975 1_545
Ni22 Pr4 3.310384 1_555
Ni23 Ni9 2.465045 1_455
Ni23 Ni25 2.488807 1_445
Ni23 Ni24 2.492284 1_545
Ni23 Ni25 2.520737 1_555
Ni23 Ni24 2.520897 1_555
Ni23 Pr9 2.880135 1_455
Ni23 Pr9 2.882382 1_555
Ni23 Pr8 3.240023 1_556
Ni23 Pr5 3.308975 1_455
Ni23 Pr5 3.310384 1_555
Ni24 Ni9 2.467367 1_465
Ni24 Ni25 2.492284 1_455
Ni24 Ni25 2.520897 1_555
Ni24 Pr9 2.879005 1_565
Ni24 Pr9 2.879005 1_455
Ni24 Pr8 3.238774 1_556
Ni24 Pr5 3.309195 1_455
Ni24 Pr5 3.309195 1_565
Ni25 Ni9 2.465045 1_565
Ni25 Pr9 2.880135 1_565
Ni25 Pr9 2.882382 1_555
Ni25 Pr8 3.240023 1_556
Ni25 Pr5 3.308975 1_565
Ni25 Pr5 3.310384 1_555
Ni26 Ni5 2.442070 1_555
Ni26 Ni6 2.468585 1_455
Ni26 Ni28 2.493881 1_555
Ni26 Ni27 2.495977 1_555
Ni26 Ni28 2.515663 1_445
Ni26 Ni27 2.517203 1_545
Ni26 Pr2 3.107682 1_455
Ni26 Pr2 3.107893 1_555
Ni26 Pr0 3.189397 1_555
Ni26 Pr0 3.189463 1_455
Ni27 Ni5 2.442280 1_555
Ni27 Ni6 2.469841 1_465
Ni27 Ni28 2.495977 1_555
Ni27 Ni28 2.517203 1_455
Ni27 Pr2 3.106705 1_565
Ni27 Pr2 3.106705 1_455
Ni27 Pr0 3.187599 1_455
Ni27 Pr0 3.187599 1_565
Ni28 Ni5 2.442070 1_555
Ni28 Ni6 2.468585 1_565
Ni28 Pr2 3.107682 1_565
Ni28 Pr2 3.107893 1_555
Ni28 Pr0 3.189397 1_555
Ni28 Pr0 3.189463 1_565
Ni29 Ni4 2.442070 1_555
Ni29 Ni3 2.449565 1_565
Ni29 Ni7 2.468585 1_655
Ni29 Ni31 2.493881 1_555
Ni29 Ni30 2.495977 1_555
Ni29 Ni31 2.515663 1_665
Ni29 Ni30 2.517203 1_565
Ni29 Pr3 3.107682 1_655
Ni29 Pr3 3.107893 1_555
Ni29 Pr1 3.189397 1_555
Ni29 Pr1 3.189463 1_655
Ni30 Ni4 2.442280 1_555
Ni30 Ni7 2.469841 1_645
Ni30 Ni31 2.495977 1_555
Ni30 Ni31 2.517203 1_655
Ni30 Pr3 3.106705 1_655
Ni30 Pr3 3.106705 1_545
Ni30 Pr1 3.187599 1_545
Ni30 Pr1 3.187599 1_655
Ni31 Ni4 2.442070 1_555
Ni31 Ni7 2.468585 1_545
Ni31 Pr3 3.107682 1_545
Ni31 Pr3 3.107893 1_555
Ni31 Pr1 3.189397 1_555
Ni31 Pr1 3.189463 1_545
Ni32 Ni4 2.442070 1_555
Ni32 Ni8 2.468585 1_655
Ni32 Ni34 2.493881 1_555
Ni32 Ni33 2.495977 1_555
Ni32 Ni34 2.515663 1_665
Ni32 Ni33 2.517203 1_565
Ni32 Pr4 3.107682 1_655
Ni32 Pr4 3.107893 1_555
Ni32 Pr1 3.189397 1_555
Ni32 Pr1 3.189463 1_655
Ni33 Ni4 2.442280 1_555
Ni33 Ni8 2.469841 1_645
Ni33 Ni34 2.495977 1_555
Ni33 Ni34 2.517203 1_655
Ni33 Pr4 3.106705 1_655
Ni33 Pr4 3.106705 1_545
Ni33 Pr1 3.187599 1_545
Ni33 Pr1 3.187599 1_655
Ni34 Ni4 2.442070 1_555
Ni34 Ni8 2.468585 1_545
Ni34 Pr4 3.107682 1_545
Ni34 Pr4 3.107893 1_555
Ni34 Pr1 3.189397 1_555
Ni34 Pr1 3.189463 1_545
Ni35 Ni5 2.442070 1_555
Ni35 Ni9 2.468585 1_455
Ni35 Ni37 2.493881 1_555
Ni35 Ni36 2.495977 1_555
Ni35 Ni37 2.515663 1_445
Ni35 Ni36 2.517203 1_545
Ni35 Pr5 3.107682 1_455
Ni35 Pr5 3.107893 1_555
Ni35 Pr0 3.189397 1_555
Ni35 Pr0 3.189463 1_455
Ni36 Ni5 2.442280 1_555
Ni36 Ni9 2.469841 1_465
Ni36 Ni37 2.495977 1_555
Ni36 Ni37 2.517203 1_455
Ni36 Pr5 3.106705 1_565
Ni36 Pr5 3.106705 1_455
Ni36 Pr0 3.187599 1_455
Ni36 Pr0 3.187599 1_565
Ni37 Ni5 2.442070 1_555
Ni37 Ni9 2.468585 1_565
Ni37 Pr5 3.107682 1_565
Ni37 Pr5 3.107893 1_555
Ni37 Pr0 3.189397 1_555
Ni37 Pr0 3.189463 1_565
