# generated using pymatgen
data_SrZnCr(PO4)2
_symmetry_space_group_name_H-M   'P 1'
_cell_length_a   5.60995000
_cell_length_b   6.95922203
_cell_length_c   9.39964060
_cell_angle_alpha   109.39576054
_cell_angle_beta   102.65584447
_cell_angle_gamma   98.79594774
_symmetry_Int_Tables_number   1
_chemical_formula_structural   SrZnCr(PO4)2
_chemical_formula_sum   'Sr2 Zn2 Cr2 P4 O16'
_cell_volume   327.42258647
_cell_formula_units_Z   2
loop_
 _symmetry_equiv_pos_site_id
 _symmetry_equiv_pos_as_xyz
  1  'x, y, z'
loop_
 _atom_site_type_symbol
 _atom_site_label
 _atom_site_symmetry_multiplicity
 _atom_site_fract_x
 _atom_site_fract_y
 _atom_site_fract_z
 _atom_site_occupancy
  Sr  Sr0  1  0.19943300  0.74678100  0.05307400  1
  Sr  Sr1  1  0.80056700  0.25321900  0.94692600  1
  Zn  Zn0  1  0.35459900  0.73852700  0.64142100  1
  Zn  Zn1  1  0.64540100  0.26147300  0.35857900  1
  Cr  Cr0  1  0.08932500  0.29362000  0.54659500  1
  Cr  Cr1  1  0.91067500  0.70638000  0.45340500  1
  P  P0  1  0.15810100  0.18914300  0.23223300  1
  P  P1  1  0.84189900  0.81085700  0.76776700  1
  P  P2  1  0.53823300  0.72349300  0.29634300  1
  P  P3  1  0.46176700  0.27650700  0.70365700  1
  O  O0  1  0.90618000  0.66138200  0.90250700  1
  O  O1  1  0.44437900  0.26283700  0.21655900  1
  O  O2  1  0.90143100  0.03993800  0.75775700  1
  O  O3  1  0.25984200  0.41494600  0.68843400  1
  O  O4  1  0.55562100  0.73716300  0.78344100  1
  O  O5  1  0.44911900  0.15815600  0.58910500  1
  O  O6  1  0.55088100  0.84184400  0.41089500  1
  O  O7  1  0.39246900  0.12980400  0.87394500  1
  O  O8  1  0.09856900  0.96006200  0.24224300  1
  O  O9  1  0.60753100  0.87019600  0.12605500  1
  O  O10  1  0.09382000  0.33861800  0.09749300  1
  O  O11  1  0.96882200  0.19314600  0.38914000  1
  O  O12  1  0.03117800  0.80685400  0.61086000  1
  O  O13  1  0.26706700  0.57362100  0.35109500  1
  O  O14  1  0.74015800  0.58505400  0.31156600  1
  O  O15  1  0.73293300  0.42637900  0.64890500  1
loop_
_geom_bond_atom_site_label_1
_geom_bond_atom_site_label_2
_geom_bond_distance
_geom_bond_site_symmetry_2
Cr0 O3 1.360865 1_555
Cr0 O11 1.366036 1_455
Cr0 O15 2.567704 1_455
Cr1 O14 1.360865 1_555
Cr1 O12 1.366036 1_655
Cr1 O13 2.567704 1_655
O0 Sr0 1.784591 1_656
O0 P1 1.898892 1_555
O0 Sr1 2.995861 1_555
O1 Zn1 1.551106 1_555
O1 P0 1.663113 1_555
O2 P1 1.616326 1_545
O2 Sr1 2.151688 1_555
O3 P3 1.608163 1_555
O4 Zn0 1.551106 1_555
O4 P1 1.663113 1_555
O5 P3 1.096545 1_555
O6 P2 1.096545 1_555
O7 Sr1 2.183753 1_555
O7 P3 2.234319 1_555
O8 P0 1.616326 1_565
O8 Sr0 2.151688 1_555
O9 Sr0 2.183753 1_555
O9 P2 2.234319 1_555
O10 Sr1 1.784591 1_454
O10 P0 1.898892 1_555
O10 Sr0 2.995861 1_555
O11 Zn1 1.930485 1_555
O11 P0 1.992870 1_655
O12 Zn0 1.930485 1_555
O12 P1 1.992870 1_455
O13 P2 1.970067 1_555
O13 Zn0 2.483092 1_555
O14 P2 1.608163 1_555
O15 P3 1.970067 1_555
O15 Zn1 2.483092 1_555
