# generated using pymatgen
data_NaAgH2(SO2)2
_symmetry_space_group_name_H-M   'P 1'
_cell_length_a   7.82517859
_cell_length_b   7.80199785
_cell_length_c   9.42310100
_cell_angle_alpha   90.00000000
_cell_angle_beta   90.00000000
_cell_angle_gamma   96.51808652
_symmetry_Int_Tables_number   1
_chemical_formula_structural   NaAgH2(SO2)2
_chemical_formula_sum   'Na4 Ag4 H8 S8 O16'
_cell_volume   571.58071773
_cell_formula_units_Z   4
loop_
 _symmetry_equiv_pos_site_id
 _symmetry_equiv_pos_as_xyz
  1  'x, y, z'
loop_
 _atom_site_type_symbol
 _atom_site_label
 _atom_site_symmetry_multiplicity
 _atom_site_fract_x
 _atom_site_fract_y
 _atom_site_fract_z
 _atom_site_occupancy
  Na  Na0  1  0.16947700  0.95847300  0.55588400  1
  Na  Na1  1  0.66947700  0.95847300  0.44411600  1
  Na  Na2  1  0.16355900  0.46291800  0.48712300  1
  Na  Na3  1  0.66355900  0.46291800  0.51287700  1
  Ag  Ag0  1  0.49970500  0.99947400  0.95544600  1
  Ag  Ag1  1  0.99970500  0.99947400  0.04455400  1
  Ag  Ag2  1  0.20690600  0.49615000  0.06158300  1
  Ag  Ag3  1  0.70690600  0.49615000  0.93841700  1
  H  H0  1  0.47914200  0.13512800  0.69023600  1
  H  H1  1  0.97914200  0.13512800  0.30976400  1
  H  H2  1  0.32853500  0.24269300  0.71718600  1
  H  H3  1  0.82853500  0.24269300  0.28281400  1
  H  H4  1  0.45479500  0.61828200  0.29428300  1
  H  H5  1  0.95479500  0.61828200  0.70571700  1
  H  H6  1  0.31738300  0.74821100  0.29870800  1
  H  H7  1  0.81738300  0.74821100  0.70129200  1
  S  S0  1  0.45212700  0.67547800  0.91733500  1
  S  S1  1  0.95212700  0.67547800  0.08266500  1
  S  S2  1  0.28847500  0.18672800  0.08331400  1
  S  S3  1  0.78847500  0.18672800  0.91668600  1
  S  S4  1  0.39561100  0.66795900  0.69960900  1
  S  S5  1  0.89561100  0.66795900  0.30039100  1
  S  S6  1  0.36012900  0.17097900  0.29722400  1
  S  S7  1  0.86012900  0.17097900  0.70277600  1
  O  O0  1  0.21503200  0.70449400  0.68051000  1
  O  O1  1  0.71503200  0.70449400  0.31949000  1
  O  O2  1  0.41515000  0.49055400  0.64977600  1
  O  O3  1  0.91515000  0.49055400  0.35022400  1
  O  O4  1  0.51880600  0.79774700  0.63078400  1
  O  O5  1  0.01880600  0.79774700  0.36921600  1
  O  O6  1  0.20515200  0.19926000  0.38256600  1
  O  O7  1  0.70515200  0.19926000  0.61743400  1
  O  O8  1  0.50384700  0.30586900  0.32120200  1
  O  O9  1  0.00384700  0.30586900  0.67879800  1
  O  O10  1  0.40772900  0.99566400  0.32361300  1
  O  O11  1  0.90772900  0.99566400  0.67638700  1
  O  O12  1  0.35542600  0.12333300  0.71327700  1
  O  O13  1  0.85542500  0.12333300  0.28672300  1
  O  O14  1  0.33135500  0.62493500  0.30584700  1
  O  O15  1  0.83135500  0.62493500  0.69415300  1
loop_
_geom_bond_atom_site_label_1
_geom_bond_atom_site_label_2
_geom_bond_distance
_geom_bond_site_symmetry_2
Na0 O12 2.355088 1_565
Na0 O0 2.364971 1_555
Na0 O11 2.388250 1_455
Na0 O5 2.391854 1_555
Na0 O6 2.481007 1_565
Na0 O10 2.868396 1_555
Na1 O13 2.355084 1_565
Na1 O1 2.364971 1_555
Na1 O10 2.388250 1_555
Na1 O4 2.391854 1_555
Na1 O7 2.481007 1_565
Na1 O11 2.868396 1_555
Na2 O6 2.336696 1_555
Na2 O3 2.363115 1_455
Na2 O14 2.421356 1_555
Na2 O9 2.444971 1_555
Na2 O2 2.485000 1_555
Na2 O0 2.619743 1_555
Na3 O7 2.336696 1_555
Na3 O2 2.363115 1_555
Na3 O15 2.421356 1_555
Na3 O8 2.444971 1_555
Na3 O3 2.485000 1_555
Na3 O1 2.619743 1_555
Ag0 S0 2.538458 1_555
Ag0 S3 2.573796 1_565
Ag0 S2 2.620415 1_566
Ag0 O12 2.768327 1_565
Ag1 S1 2.538458 1_555
Ag1 S2 2.573796 1_665
Ag1 S3 2.620415 1_564
Ag1 O13 2.768330 1_565
Ag2 S1 2.570036 1_455
Ag2 S2 2.574318 1_555
Ag2 S0 2.622549 1_554
Ag2 O14 2.652117 1_555
Ag3 S0 2.570036 1_555
Ag3 S3 2.574318 1_555
Ag3 S1 2.622549 1_556
Ag3 O15 2.652117 1_555
H0 O12 0.986205 1_555
H1 O13 0.986212 1_555
H2 O12 0.978440 1_555
H3 O13 0.978438 1_555
H4 O14 0.979281 1_555
H5 O15 0.979281 1_555
H6 O14 0.982553 1_555
H7 O15 0.982553 1_555
S0 S4 2.098194 1_555
S1 S5 2.098194 1_555
S2 S6 2.099562 1_555
S3 S7 2.099562 1_555
O0 S4 1.483858 1_555
O1 S5 1.483858 1_555
O2 S4 1.485833 1_555
O3 S5 1.485833 1_555
O4 S4 1.467548 1_555
O5 S5 1.467548 1_455
O6 S6 1.492263 1_555
O7 S7 1.492263 1_555
O8 S6 1.467883 1_555
O9 S7 1.467883 1_455
O10 S6 1.478898 1_565
O11 S7 1.478898 1_565
