# generated using pymatgen
data_Zn3Si14H90(C15O2)2
_symmetry_space_group_name_H-M   'P 1'
_cell_length_a   14.48818557
_cell_length_b   14.62571669
_cell_length_c   19.35868261
_cell_angle_alpha   81.83977696
_cell_angle_beta   68.95000915
_cell_angle_gamma   65.15493318
_symmetry_Int_Tables_number   1
_chemical_formula_structural   Zn3Si14H90(C15O2)2
_chemical_formula_sum   'Zn6 Si28 H180 C60 O8'
_cell_volume   3473.84200262
_cell_formula_units_Z   2
loop_
 _symmetry_equiv_pos_site_id
 _symmetry_equiv_pos_as_xyz
  1  'x, y, z'
loop_
 _atom_site_type_symbol
 _atom_site_label
 _atom_site_symmetry_multiplicity
 _atom_site_fract_x
 _atom_site_fract_y
 _atom_site_fract_z
 _atom_site_occupancy
  Zn  Zn0  1  0.26092575  0.00285801  0.75676383  1
  Zn  Zn1  1  0.73907425  0.99714199  0.24323617  1
  Zn  Zn2  1  0.34560978  0.78394561  0.74548149  1
  Zn  Zn3  1  0.65439022  0.21605439  0.25451851  1
  Zn  Zn4  1  0.43454018  0.56720158  0.72621314  1
  Zn  Zn5  1  0.56545982  0.43279842  0.27378686  1
  Si  Si0  1  0.98421847  0.07726090  0.71168221  1
  Si  Si1  1  0.01578153  0.92273910  0.28831779  1
  Si  Si2  1  0.11769065  0.90921965  0.70421089  1
  Si  Si3  1  0.88230935  0.09078035  0.29578911  1
  Si  Si4  1  0.03974601  0.80538511  0.78970678  1
  Si  Si5  1  0.96025399  0.19461489  0.21029322  1
  Si  Si6  1  0.17132167  0.67867840  0.83801650  1
  Si  Si7  1  0.82867833  0.32132160  0.16198350  1
  Si  Si8  1  0.15380336  0.52219217  0.84201235  1
  Si  Si9  1  0.84619664  0.47780783  0.15798765  1
  Si  Si10  1  0.17967429  0.85157952  0.58006701  1
  Si  Si11  1  0.82032571  0.14842048  0.41993299  1
  Si  Si12  1  0.13430012  0.72680836  0.96147117  1
  Si  Si13  1  0.86569988  0.27319164  0.03852883  1
  Si  Si14  1  0.48675452  0.02305890  0.83230849  1
  Si  Si15  1  0.51324548  0.97694110  0.16769151  1
  Si  Si16  1  0.48999607  0.87229984  0.79420610  1
  Si  Si17  1  0.51000393  0.12770016  0.20579390  1
  Si  Si18  1  0.60734680  0.82760055  0.67036740  1
  Si  Si19  1  0.39265320  0.17239945  0.32963260  1
  Si  Si20  1  0.61116073  0.67459638  0.63645695  1
  Si  Si21  1  0.38883927  0.32540362  0.36354305  1
  Si  Si22  1  0.64257564  0.67034298  0.50586836  1
  Si  Si23  1  0.35742436  0.32965702  0.49413164  1
  Si  Si24  1  0.53543546  0.74941547  0.88471761  1
  Si  Si25  1  0.46456454  0.25058453  0.11528239  1
  Si  Si26  1  0.76252523  0.52595498  0.65055634  1
  Si  Si27  1  0.23747477  0.47404502  0.34944366  1
  H  H0  1  0.12995851  0.18676086  0.76077888  1
  H  H1  1  0.87004149  0.81323914  0.23922112  1
  H  H2  1  0.22592688  0.17275415  0.80328013  1
  H  H3  1  0.77407312  0.82724585  0.19671987  1
  H  H4  1  0.26382610  0.17061746  0.70474870  1
  H  H5  1  0.73617390  0.82938254  0.29525130  1
  H  H6  1  0.43912113  0.39146496  0.72200487  1
  H  H7  1  0.56087887  0.60853504  0.27799513  1
  H  H8  1  0.55219340  0.40531284  0.65134894  1
  H  H9  1  0.44780660  0.59468716  0.34865106  1
  H  H10  1  0.55019868  0.38518296  0.74492459  1
  H  H11  1  0.44980132  0.61481704  0.25507541  1
  H  H12  1  0.12238732  0.14794699  0.63742733  1
  H  H13  1  0.87761268  0.85205301  0.36257267  1
  H  H14  1  0.03998791  0.15108471  0.58677445  1
  H  H15  1  0.96001209  0.84891529  0.41322555  1
  H  H16  1  0.98877684  0.24137544  0.65819717  1
  H  H17  1  0.01122316  0.75862456  0.34180283  1
  H  H18  1  0.88634029  0.09507196  0.84793159  1
  H  H19  1  0.11365971  0.90492804  0.15206841  1
  H  H20  1  0.99236023  0.13777495  0.82379966  1
  H  H21  1  0.00763977  0.86222505  0.17620034  1
  H  H22  1  0.87068473  0.21463639  0.80531504  1
  H  H23  1  0.12931527  0.78536361  0.19468496  1
  H  H24  1  0.80391989  0.15675350  0.69732002  1
  H  H25  1  0.19608011  0.84324650  0.30267998  1
  H  H26  1  0.88745477  0.05271834  0.63504798  1
  H  H27  1  0.11254523  0.94728166  0.36495202  1
  H  H28  1  0.82649329  0.03210586  0.73030355  1
  H  H29  1  0.17350671  0.96789414  0.26969645  1
  H  H30  1  0.93233183  0.81007126  0.71240550  1
  H  H31  1  0.06766817  0.18992874  0.28759450  1
  H  H32  1  0.04720098  0.69341454  0.69774592  1
  H  H33  1  0.95279902  0.30658546  0.30225408  1
  H  H34  1  0.93274712  0.71378314  0.77966187  1
  H  H35  1  0.06725288  0.28621686  0.22033813  1
  H  H36  1  0.87805425  0.83451808  0.90333055  1
  H  H37  1  0.12194575  0.16548192  0.09666945  1
  H  H38  1  0.93839941  0.91823555  0.90393658  1
  H  H39  1  0.06160059  0.08176445  0.09606342  1
  H  H40  1  0.85812590  0.94288922  0.84671066  1
  H  H41  1  0.14187410  0.05711078  0.15328934  1
  H  H42  1  0.19518168  0.39372828  0.75238024  1
  H  H43  1  0.80481832  0.60627172  0.24761976  1
  H  H44  1  0.13021750  0.51698154  0.72111911  1
  H  H45  1  0.86978250  0.48301846  0.27888089  1
  H  H46  1  0.26993667  0.46910440  0.71002557  1
  H  H47  1  0.73006333  0.53089560  0.28997443  1
  H  H48  1  0.97601560  0.57670269  0.94761519  1
  H  H49  1  0.02398440  0.42329731  0.05238481  1
  H  H50  1  0.95536504  0.58819793  0.86108071  1
  H  H51  1  0.04463496  0.41180207  0.13891929  1
  H  H52  1  0.00282399  0.46757839  0.90069558  1
  H  H53  1  0.99717601  0.53242161  0.09930442  1
  H  H54  1  0.32472399  0.40521859  0.86712914  1
  H  H55  1  0.67527601  0.59478141  0.13287086  1
  H  H56  1  0.21207211  0.43921638  0.95070399  1
  H  H57  1  0.78792789  0.56078362  0.04929601  1
  H  H58  1  0.22957638  0.34967174  0.88869865  1
  H  H59  1  0.77042362  0.65032826  0.11130135  1
  H  H60  1  0.35407649  0.72098043  0.59034466  1
  H  H61  1  0.64592351  0.27901957  0.40965534  1
  H  H62  1  0.25810861  0.66768079  0.60626940  1
  H  H63  1  0.74189139  0.33231921  0.39373060  1
  H  H64  1  0.32743577  0.69419421  0.51436919  1
  H  H65  1  0.67256423  0.30580579  0.48563081  1
  H  H66  1  0.28385266  0.89711491  0.45806692  1
  H  H67  1  0.71614734  0.10288509  0.54193308  1
  H  H68  1  0.17344407  0.00699861  0.50434183  1
  H  H69  1  0.82655593  0.99300139  0.49565817  1
  H  H70  1  0.29244388  0.95521646  0.52887878  1
  H  H71  1  0.70755612  0.04478354  0.47112122  1
  H  H72  1  0.11429583  0.82223921  0.48804123  1
  H  H73  1  0.88570417  0.17776079  0.51195877  1
  H  H74  1  0.04484598  0.78637474  0.57605832  1
  H  H75  1  0.95515402  0.21362526  0.42394168  1
  H  H76  1  0.00555039  0.91605566  0.55192139  1
  H  H77  1  0.99444961  0.08394434  0.44807861  1
  H  H78  1  0.93294148  0.82519754  0.01602060  1
  H  H79  1  0.06705852  0.17480246  0.98397940  1
  H  H80  1  0.96381201  0.69384377  0.02085078  1
  H  H81  1  0.03618799  0.30615623  0.97914922  1
  H  H82  1  0.99037416  0.75052215  0.08263273  1
  H  H83  1  0.00962584  0.24947785  0.91736727  1
  H  H84  1  0.19628635  0.56834742  0.03211280  1
  H  H85  1  0.80371365  0.43165258  0.96788720  1
  H  H86  1  0.30991922  0.59352521  0.97426303  1
  H  H87  1  0.69008078  0.40647479  0.02573697  1
  H  H88  1  0.22236209  0.66536991  0.05685010  1
  H  H89  1  0.77763791  0.33463009  0.94314990  1
  H  H90  1  0.14020612  0.86942620  0.01369423  1
  H  H91  1  0.85979388  0.13057380  0.98630577  1
  H  H92  1  0.23707296  0.83884227  0.92309280  1
  H  H93  1  0.76292704  0.16115773  0.07690720  1
  H  H94  1  0.09822474  0.90896002  0.93456893  1
  H  H95  1  0.90177526  0.09103998  0.06543107  1
  H  H96  1  0.28834793  0.10980726  0.90373494  1
  H  H97  1  0.71165207  0.89019274  0.09626506  1
  H  H98  1  0.36088113  0.03557556  0.96314983  1
  H  H99  1  0.63911887  0.96442444  0.03685017  1
  H  H100  1  0.36775775  0.15370960  0.93064918  1
  H  H101  1  0.63224225  0.84629040  0.06935082  1
  H  H102  1  0.49076355  0.18772972  0.78291655  1
  H  H103  1  0.50923645  0.81227028  0.21708345  1
  H  H104  1  0.57256344  0.09292512  0.71298562  1
  H  H105  1  0.42743656  0.90707488  0.28701438  1
  H  H106  1  0.42950103  0.14705604  0.73559603  1
  H  H107  1  0.57049897  0.85294396  0.26440397  1
  H  H108  1  0.61910932  0.05364250  0.86866369  1
  H  H109  1  0.38089068  0.94635750  0.13133631  1
  H  H110  1  0.60467484  0.94261129  0.91202569  1
  H  H111  1  0.39532516  0.05738871  0.08797431  1
  H  H112  1  0.68471897  0.93894663  0.81719657  1
  H  H113  1  0.31528103  0.06105337  0.18280343  1
  H  H114  1  0.73002650  0.91175415  0.65581978  1
  H  H115  1  0.26997350  0.08824585  0.34418022  1
  H  H116  1  0.78841806  0.78484115  0.68401135  1
  H  H117  1  0.21158194  0.21515885  0.31598865  1
  H  H118  1  0.79308012  0.81152289  0.59043919  1
  H  H119  1  0.20691988  0.18847711  0.40956081  1
  H  H120  1  0.58688688  0.92806458  0.55713714  1
  H  H121  1  0.41311312  0.07193542  0.44286286  1
  H  H122  1  0.46012897  0.92769705  0.61441237  1
  H  H123  1  0.53987103  0.07230295  0.38558763  1
  H  H124  1  0.51131425  0.00702206  0.63692672  1
  H  H125  1  0.48868575  0.99297794  0.36307328  1
  H  H126  1  0.61057565  0.57420610  0.42743815  1
  H  H127  1  0.38942435  0.42579390  0.57256185  1
  H  H128  1  0.68289867  0.48947906  0.48355034  1
  H  H129  1  0.31710133  0.51052094  0.51644966  1
  H  H130  1  0.54155470  0.55989488  0.52205533  1
  H  H131  1  0.45844530  0.44010512  0.47794467  1
  H  H132  1  0.80601686  0.71323467  0.46053716  1
  H  H133  1  0.19398314  0.28676533  0.53946284  1
  H  H134  1  0.84667877  0.58020340  0.46052938  1
  H  H135  1  0.15332123  0.41979660  0.53947062  1
  H  H136  1  0.79664924  0.65408978  0.39080822  1
  H  H137  1  0.20335076  0.34591022  0.60919178  1
  H  H138  1  0.56567484  0.76971786  0.41133295  1
  H  H139  1  0.43432516  0.23028214  0.58866705  1
  H  H140  1  0.46886923  0.81273304  0.50000225  1
  H  H141  1  0.53113077  0.18726696  0.49999775  1
  H  H142  1  0.57838908  0.85098361  0.46424827  1
  H  H143  1  0.42161092  0.14901639  0.53575173  1
  H  H144  1  0.47922715  0.73156516  0.02037345  1
  H  H145  1  0.52077285  0.26843484  0.97962655  1
  H  H146  1  0.48522592  0.85151417  0.99680988  1
  H  H147  1  0.51477408  0.14848583  0.00319012  1
  H  H148  1  0.37232992  0.83141189  0.99639372  1
  H  H149  1  0.62767008  0.16858811  0.00360628  1
  H  H150  1  0.70261127  0.63378377  0.90924379  1
  H  H151  1  0.29738873  0.36621623  0.09075621  1
  H  H152  1  0.73588193  0.67182666  0.81518470  1
  H  H153  1  0.26411807  0.32817334  0.18481530  1
  H  H154  1  0.70595937  0.75477406  0.88650079  1
  H  H155  1  0.29404063  0.24522594  0.11349921  1
  H  H156  1  0.41420043  0.66597558  0.88920669  1
  H  H157  1  0.58579957  0.33402442  0.11079331  1
  H  H158  1  0.54184579  0.61041708  0.81919874  1
  H  H159  1  0.45815421  0.38958292  0.18080126  1
  H  H160  1  0.52810260  0.58067269  0.91394381  1
  H  H161  1  0.47189740  0.41932731  0.08605619  1
  H  H162  1  0.73591092  0.51406869  0.78708735  1
  H  H163  1  0.26408908  0.48593131  0.21291265  1
  H  H164  1  0.67828547  0.44148459  0.76375653  1
  H  H165  1  0.32171453  0.55851541  0.23624347  1
  H  H166  1  0.82061952  0.39690275  0.73952338  1
  H  H167  1  0.17938048  0.60309725  0.26047662  1
  H  H168  1  0.87678015  0.35832022  0.59032166  1
  H  H169  1  0.12321985  0.64167978  0.40967834  1
  H  H170  1  0.74109474  0.39246755  0.59583355  1
  H  H171  1  0.25890526  0.60753245  0.40416645  1
  H  H172  1  0.82421163  0.44504024  0.52628702  1
  H  H173  1  0.17578837  0.55495976  0.47371298  1
  H  H174  1  0.95459673  0.48835403  0.62647091  1
  H  H175  1  0.04540327  0.51164597  0.37352909  1
  H  H176  1  0.90210421  0.59450796  0.57339753  1
  H  H177  1  0.09789579  0.40549204  0.42660247  1
  H  H178  1  0.87307383  0.60887254  0.66955038  1
  H  H179  1  0.12692617  0.39112746  0.33044962  1
  C  C0  1  0.21514938  0.14814349  0.75680176  1
  C  C1  1  0.78485062  0.85185651  0.24319824  1
  C  C2  1  0.50031450  0.42257031  0.70947569  1
  C  C3  1  0.49968550  0.57742969  0.29052431  1
  C  C4  1  0.03970856  0.16191727  0.64181766  1
  C  C5  1  0.96029144  0.83808273  0.35818234  1
  C  C6  1  0.92863765  0.13637078  0.80644118  1
  C  C7  1  0.07136235  0.86362922  0.19355882  1
  C  C8  1  0.86493315  0.07865568  0.69151607  1
  C  C9  1  0.13506685  0.92134432  0.30848393  1
  C  C10  1  0.98342906  0.74962373  0.73980278  1
  C  C11  1  0.01657094  0.25037627  0.26019722  1
  C  C12  1  0.91750542  0.88299379  0.86859372  1
  C  C13  1  0.08249458  0.11700621  0.13140628  1
  C  C14  1  0.19107481  0.47128143  0.74703530  1
  C  C15  1  0.80892519  0.52871857  0.25296470  1
  C  C16  1  0.00804070  0.54159399  0.89288175  1
  C  C17  1  0.99195930  0.45840601  0.10711825  1
  C  C18  1  0.23840259  0.42004046  0.89206726  1
  C  C19  1  0.76159741  0.57995954  0.10793274  1
  C  C20  1  0.29028605  0.72131241  0.57212797  1
  C  C21  1  0.70971395  0.27868759  0.42787203  1
  C  C22  1  0.23771529  0.93619170  0.51207030  1
  C  C23  1  0.76228471  0.06380830  0.48792970  1
  C  C24  1  0.07500542  0.84369547  0.54709372  1
  C  C25  1  0.92499458  0.15630453  0.45290628  1
  C  C26  1  0.99156265  0.75139061  0.02532717  1
  C  C27  1  0.00843735  0.24860939  0.97467283  1
  C  C28  1  0.22527045  0.62846240  0.00981592  1
  C  C29  1  0.77472955  0.37153760  0.99018408  1
  C  C30  1  0.15477610  0.84722781  0.95748899  1
  C  C31  1  0.84522390  0.15277219  0.04251101  1
  C  C32  1  0.36413120  0.08588864  0.91529541  1
  C  C33  1  0.63586880  0.91411136  0.08470459  1
  C  C34  1  0.49532621  0.12160031  0.75855977  1
  C  C35  1  0.50467379  0.87839969  0.24144023  1
  C  C36  1  0.61060931  0.98503724  0.86021660  1
  C  C37  1  0.38939069  0.01496276  0.13978340  1
  C  C38  1  0.74315250  0.83349392  0.64838351  1
  C  C39  1  0.25684750  0.16650608  0.35161649  1
  C  C40  1  0.53367649  0.93263827  0.61484663  1
  C  C41  1  0.46632351  0.06736173  0.38515337  1
  C  C42  1  0.61729153  0.56288843  0.48321417  1
  C  C43  1  0.38270847  0.43711157  0.51678583  1
  C  C44  1  0.78676899  0.65245688  0.45008187  1
  C  C45  1  0.21323101  0.34754312  0.54991813  1
  C  C46  1  0.55506706  0.78771948  0.46784336  1
  C  C47  1  0.44493294  0.21228052  0.53215664  1
  C  C48  1  0.46031684  0.79667449  0.98365790  1
  C  C49  1  0.53968316  0.20332551  0.01634210  1
  C  C50  1  0.68424949  0.69828555  0.87197555  1
  C  C51  1  0.31575051  0.30171445  0.12802445  1
  C  C52  1  0.50167772  0.64126812  0.87568715  1
  C  C53  1  0.49832228  0.35873188  0.12431285  1
  C  C54  1  0.74607843  0.46519654  0.74471839  1
  C  C55  1  0.25392157  0.53480346  0.25528161  1
  C  C56  1  0.80408548  0.42131069  0.58412153  1
  C  C57  1  0.19591452  0.57868931  0.41587847  1
  C  C58  1  0.88370579  0.55877102  0.62762045  1
  C  C59  1  0.11629421  0.44122898  0.37237955  1
  O  O0  1  0.22615620  0.90360143  0.72280030  1
  O  O1  1  0.77384380  0.09639857  0.27719970  1
  O  O2  1  0.37110999  0.88485185  0.78750292  1
  O  O3  1  0.62889001  0.11514815  0.21249708  1
  O  O4  1  0.29650577  0.67219259  0.78474037  1
  O  O5  1  0.70349423  0.32780741  0.21525963  1
  O  O6  1  0.48623763  0.67710868  0.68635784  1
  O  O7  1  0.51376237  0.32289132  0.31364216  1
loop_
_geom_bond_atom_site_label_1
_geom_bond_atom_site_label_2
_geom_bond_distance
_geom_bond_site_symmetry_2
C0 H2 1.097092 1_555
C0 H0 1.098455 1_555
C0 H4 1.100491 1_555
C0 Zn0 1.941884 1_555
C1 H3 1.097092 1_555
C1 H1 1.098455 1_555
C1 H5 1.100491 1_555
C1 Zn1 1.941884 1_555
C2 H6 1.097707 1_555
C2 H8 1.099313 1_555
C2 H10 1.099973 1_555
C2 Zn4 1.940763 1_555
C3 H7 1.097707 1_555
C3 H9 1.099313 1_555
C3 H11 1.099973 1_555
C3 Zn5 1.940763 1_555
C4 H14 1.097649 1_555
C4 H12 1.099988 1_555
C4 H16 1.100685 1_455
C4 Si0 1.894357 1_455
C5 H15 1.097649 1_555
C5 H13 1.099988 1_555
C5 H17 1.100685 1_655
C5 Si1 1.894357 1_655
C6 H18 1.097840 1_555
C6 H20 1.098382 1_555
C6 H22 1.101899 1_555
C6 Si0 1.888106 1_555
C7 H19 1.097840 1_555
C7 H21 1.098382 1_555
C7 H23 1.101899 1_555
C7 Si1 1.888106 1_555
C8 H26 1.096732 1_555
C8 H28 1.100270 1_555
C8 H24 1.102421 1_555
C8 Si0 1.895356 1_555
C9 H27 1.096732 1_555
C9 H29 1.100270 1_555
C9 H25 1.102421 1_555
C9 Si1 1.895356 1_555
C10 H32 1.097139 1_655
C10 H30 1.099962 1_555
C10 H34 1.100439 1_555
C10 Si4 1.900860 1_655
C11 H33 1.097139 1_455
C11 H31 1.099962 1_555
C11 H35 1.100439 1_555
C11 Si5 1.900860 1_455
C12 H38 1.097927 1_555
C12 H40 1.100059 1_555
C12 H36 1.100295 1_555
C12 Si4 1.901856 1_655
C13 H39 1.097927 1_555
C13 H41 1.100059 1_555
C13 H37 1.100295 1_555
C13 Si5 1.901856 1_455
C14 H44 1.096913 1_555
C14 H46 1.098924 1_555
C14 H42 1.102364 1_555
C14 Si8 1.887891 1_555
C15 H45 1.096913 1_555
C15 H47 1.098924 1_555
C15 H43 1.102364 1_555
C15 Si9 1.887891 1_555
C16 H48 1.096684 1_455
C16 H50 1.098765 1_455
C16 H52 1.102054 1_555
C16 Si8 1.895238 1_555
C17 H49 1.096684 1_655
C17 H51 1.098765 1_655
C17 H53 1.102054 1_555
C17 Si9 1.895238 1_555
C18 H56 1.096404 1_555
C18 H54 1.101053 1_555
C18 H58 1.102489 1_555
C18 Si8 1.891243 1_555
C19 H57 1.096404 1_555
C19 H55 1.101053 1_555
C19 H59 1.102489 1_555
C19 Si9 1.891243 1_555
C20 H62 1.099194 1_555
C20 H60 1.099282 1_555
C20 H64 1.100641 1_555
C20 Si10 1.887387 1_555
C21 H63 1.099194 1_555
C21 H61 1.099282 1_555
C21 H65 1.100641 1_555
C21 Si11 1.887387 1_555
C22 H68 1.098945 1_565
C22 H70 1.099304 1_555
C22 H66 1.101350 1_555
C22 Si10 1.894244 1_555
C23 H69 1.098945 1_545
C23 H71 1.099304 1_555
C23 H67 1.101350 1_555
C23 Si11 1.894244 1_555
C24 H74 1.098434 1_555
C24 H76 1.098620 1_555
C24 H72 1.101648 1_555
C24 Si10 1.893043 1_555
C25 H75 1.098434 1_555
C25 H77 1.098620 1_555
C25 H73 1.101648 1_555
C25 Si11 1.893043 1_555
C26 H78 1.096972 1_555
C26 H80 1.098934 1_555
C26 H82 1.101635 1_555
C26 Si12 1.897094 1_654
C27 H79 1.096972 1_555
C27 H81 1.098934 1_555
C27 H83 1.101635 1_555
C27 Si13 1.897094 1_456
C28 H86 1.098062 1_554
C28 H84 1.099091 1_555
C28 H88 1.102297 1_555
C28 Si12 1.895470 1_554
C29 H87 1.098062 1_556
C29 H85 1.099091 1_555
C29 H89 1.102297 1_555
C29 Si13 1.895470 1_556
C30 H94 1.099611 1_555
C30 H92 1.100018 1_555
C30 H90 1.100699 1_556
C30 Si12 1.892072 1_555
C31 H95 1.099611 1_555
C31 H93 1.100018 1_555
C31 H91 1.100699 1_554
C31 Si13 1.892072 1_555
C32 H98 1.098265 1_555
C32 H96 1.099775 1_555
C32 H100 1.101700 1_555
C32 Si14 1.891692 1_555
C33 H99 1.098265 1_555
C33 H97 1.099775 1_555
C33 H101 1.101700 1_555
C33 Si15 1.891692 1_555
C34 H106 1.097705 1_555
C34 H104 1.099059 1_555
C34 H102 1.102496 1_555
C34 Si14 1.889384 1_555
C35 H107 1.097705 1_555
C35 H105 1.099059 1_555
C35 H103 1.102496 1_555
C35 Si15 1.889384 1_555
C36 H110 1.097523 1_555
C36 H112 1.099835 1_555
C36 H108 1.101637 1_565
C36 Si14 1.895707 1_565
C37 H111 1.097523 1_555
C37 H113 1.099835 1_555
C37 H109 1.101637 1_545
C37 Si15 1.895707 1_545
C38 H116 1.097994 1_555
C38 H118 1.099494 1_555
C38 H114 1.100554 1_555
C38 Si18 1.894857 1_555
C39 H117 1.097994 1_555
C39 H119 1.099494 1_555
C39 H115 1.100554 1_555
C39 Si19 1.894857 1_555
C40 H120 1.098211 1_555
C40 H124 1.098895 1_565
C40 H122 1.100933 1_555
C40 Si18 1.905774 1_555
C41 H121 1.098211 1_555
C41 H125 1.098895 1_545
C41 H123 1.100933 1_555
C41 Si19 1.905774 1_555
C42 H128 1.095976 1_555
C42 H130 1.099846 1_555
C42 H126 1.101783 1_555
C42 Si22 1.895074 1_555
C43 H129 1.095976 1_555
C43 H131 1.099846 1_555
C43 H127 1.101783 1_555
C43 Si23 1.895074 1_555
C44 H134 1.098035 1_555
C44 H132 1.099473 1_555
C44 H136 1.102190 1_555
C44 Si22 1.897183 1_555
C45 H135 1.098035 1_555
C45 H133 1.099473 1_555
C45 H137 1.102190 1_555
C45 Si23 1.897183 1_555
C46 H142 1.096685 1_555
C46 H140 1.096929 1_555
C46 H138 1.103036 1_555
C46 Si22 1.891847 1_555
C47 H143 1.096685 1_555
C47 H141 1.096929 1_555
C47 H139 1.103036 1_555
C47 Si23 1.891847 1_555
C48 H146 1.097997 1_555
C48 H148 1.099766 1_555
C48 H144 1.102530 1_556
C48 Si24 1.891303 1_555
C49 H147 1.097997 1_555
C49 H149 1.099766 1_555
C49 H145 1.102530 1_554
C49 Si25 1.891303 1_555
C50 H152 1.097606 1_555
C50 H154 1.099291 1_555
C50 H150 1.102279 1_555
C50 Si24 1.893155 1_555
C51 H153 1.097606 1_555
C51 H155 1.099291 1_555
C51 H151 1.102279 1_555
C51 Si25 1.893155 1_555
C52 H158 1.095607 1_555
C52 H156 1.099571 1_555
C52 H160 1.101240 1_555
C52 Si24 1.887234 1_555
C53 H159 1.095607 1_555
C53 H157 1.099571 1_555
C53 H161 1.101240 1_555
C53 Si25 1.887234 1_555
C54 H162 1.093856 1_555
C54 H164 1.100332 1_555
C54 H166 1.103696 1_555
C54 Si26 1.890849 1_555
C55 H163 1.093856 1_555
C55 H165 1.100332 1_555
C55 H167 1.103696 1_555
C55 Si27 1.890849 1_555
C56 H172 1.095077 1_555
C56 H170 1.099986 1_555
C56 H168 1.102935 1_555
C56 Si26 1.893959 1_555
C57 H173 1.095077 1_555
C57 H171 1.099986 1_555
C57 H169 1.102935 1_555
C57 Si27 1.893959 1_555
C58 H178 1.097147 1_555
C58 H176 1.098367 1_555
C58 H174 1.103302 1_555
C58 Si26 1.896723 1_555
C59 H179 1.097147 1_555
C59 H177 1.098367 1_555
C59 H175 1.103302 1_555
C59 Si27 1.896723 1_555
O0 Si2 1.701504 1_555
O0 Zn0 1.979115 1_565
O0 Zn2 2.008298 1_555
O1 Si3 1.701504 1_555
O1 Zn1 1.979115 1_545
O1 Zn3 2.008298 1_555
O2 Si16 1.704533 1_555
O2 Zn0 1.989189 1_565
O2 Zn2 1.997801 1_555
O3 Si17 1.704533 1_555
O3 Zn1 1.989189 1_545
O3 Zn3 1.997801 1_555
O4 Si6 1.703414 1_555
O4 Zn4 1.981599 1_555
O4 Zn2 1.997827 1_555
O5 Si7 1.703414 1_555
O5 Zn5 1.981599 1_555
O5 Zn3 1.997827 1_555
O6 Si20 1.705435 1_555
O6 Zn4 1.996193 1_555
O6 Zn2 2.014941 1_555
O7 Si21 1.705435 1_555
O7 Zn5 1.996193 1_555
O7 Zn3 2.014941 1_555
