# generated using pymatgen
data_SnCS(NCl)2
_symmetry_space_group_name_H-M   'P 1'
_cell_length_a   6.98271930
_cell_length_b   8.34273847
_cell_length_c   15.76052900
_cell_angle_alpha   90.00000000
_cell_angle_beta   90.00000000
_cell_angle_gamma   126.10558130
_symmetry_Int_Tables_number   1
_chemical_formula_structural   SnCS(NCl)2
_chemical_formula_sum   'Sn4 C4 S4 N8 Cl8'
_cell_volume   741.78675416
_cell_formula_units_Z   4
loop_
 _symmetry_equiv_pos_site_id
 _symmetry_equiv_pos_as_xyz
  1  'x, y, z'
loop_
 _atom_site_type_symbol
 _atom_site_label
 _atom_site_symmetry_multiplicity
 _atom_site_fract_x
 _atom_site_fract_y
 _atom_site_fract_z
 _atom_site_occupancy
  Sn  Sn0  1  0.31346600  0.15759900  0.24105600  1
  Sn  Sn1  1  0.18653400  0.34240100  0.74105600  1
  Sn  Sn2  1  0.68653400  0.84240100  0.75894400  1
  Sn  Sn3  1  0.81346600  0.65759900  0.25894400  1
  C  C0  1  0.67180500  0.25720400  0.48217100  1
  C  C1  1  0.82819500  0.24279600  0.98217100  1
  C  C2  1  0.32819500  0.74279600  0.51782900  1
  C  C3  1  0.17180500  0.75720400  0.01782900  1
  S  S0  1  0.44908800  0.43361400  0.33779300  1
  S  S1  1  0.05091200  0.06638600  0.83779300  1
  S  S2  1  0.55091200  0.56638600  0.66220700  1
  S  S3  1  0.94908800  0.93361400  0.16220700  1
  N  N0  1  0.48991800  0.22068500  0.51556200  1
  N  N1  1  0.01008200  0.27931500  0.01556200  1
  N  N2  1  0.51008200  0.77931500  0.48443800  1
  N  N3  1  0.98991800  0.72068500  0.98443800  1
  N  N4  1  0.85337200  0.29233400  0.44904000  1
  N  N5  1  0.64662800  0.20766600  0.94904000  1
  N  N6  1  0.14662800  0.70766600  0.55096000  1
  N  N7  1  0.35337200  0.79233400  0.05096000  1
  Cl  Cl0  1  0.03582900  0.90742800  0.37564600  1
  Cl  Cl1  1  0.46417100  0.59257200  0.87564600  1
  Cl  Cl2  1  0.96417100  0.09257200  0.62435400  1
  Cl  Cl3  1  0.53582900  0.40742800  0.12435400  1
  Cl  Cl4  1  0.55326700  0.04677300  0.24823700  1
  Cl  Cl5  1  0.94673300  0.45322700  0.74823700  1
  Cl  Cl6  1  0.44673300  0.95322700  0.75176300  1
  Cl  Cl7  1  0.05326700  0.54677300  0.25176300  1
loop_
_geom_bond_atom_site_label_1
_geom_bond_atom_site_label_2
_geom_bond_distance
_geom_bond_site_symmetry_2
C0 N0 1.235638 1_555
C0 N4 1.236133 1_555
C1 N1 1.235638 1_656
C1 N5 1.236133 1_555
C2 N2 1.235638 1_555
C2 N6 1.236133 1_555
C3 N3 1.235638 1_454
C3 N7 1.236133 1_555
S0 Sn3 2.430321 1_555
S0 Sn0 2.440035 1_555
S1 Sn2 2.430321 1_445
S1 Sn1 2.440035 1_555
S2 Sn1 2.430321 1_555
S2 Sn2 2.440035 1_555
S3 Sn0 2.430321 1_665
S3 Sn3 2.440035 1_555
Cl0 Sn3 2.514741 1_455
Cl0 Sn0 2.800950 1_565
Cl1 Sn2 2.514741 1_555
Cl1 Sn1 2.800950 1_555
Cl2 Sn1 2.514741 1_655
Cl2 Sn2 2.800950 1_545
Cl3 Sn0 2.514741 1_555
Cl3 Sn3 2.800950 1_555
Cl4 Sn0 2.344383 1_555
Cl5 Sn1 2.344383 1_655
Cl6 Sn2 2.344383 1_555
Cl7 Sn3 2.344383 1_455
