# generated using pymatgen
data_ZnSn2(PO4)2
_symmetry_space_group_name_H-M   'P 1'
_cell_length_a   5.23296507
_cell_length_b   9.62658733
_cell_length_c   16.51770970
_cell_angle_alpha   87.07365145
_cell_angle_beta   80.85741862
_cell_angle_gamma   74.23665186
_symmetry_Int_Tables_number   1
_chemical_formula_structural   ZnSn2(PO4)2
_chemical_formula_sum   'Zn4 Sn8 P8 O32'
_cell_volume   790.59565826
_cell_formula_units_Z   4
loop_
 _symmetry_equiv_pos_site_id
 _symmetry_equiv_pos_as_xyz
  1  'x, y, z'
loop_
 _atom_site_type_symbol
 _atom_site_label
 _atom_site_symmetry_multiplicity
 _atom_site_fract_x
 _atom_site_fract_y
 _atom_site_fract_z
 _atom_site_occupancy
  Zn  Zn0  1  0.38142700  0.84847400  0.83977100  1
  Zn  Zn1  1  0.07244800  0.64896900  0.66068300  1
  Zn  Zn2  1  0.92742000  0.35245500  0.33935300  1
  Zn  Zn3  1  0.61787300  0.14859300  0.16096300  1
  Sn  Sn0  1  0.18843600  0.19811300  0.98950500  1
  Sn  Sn1  1  0.37779300  0.29899500  0.51056000  1
  Sn  Sn2  1  0.81270200  0.79757700  0.01043200  1
  Sn  Sn3  1  0.50005400  0.49864700  0.00294100  1
  Sn  Sn4  1  0.62410100  0.69863300  0.48969800  1
  Sn  Sn5  1  0.65648600  0.75249700  0.25136800  1
  Sn  Sn6  1  0.34111900  0.25102700  0.75010300  1
  Sn  Sn7  1  0.99909000  0.99803500  0.50144800  1
  P  P0  1  0.08887100  0.58498000  0.86153200  1
  P  P1  1  0.69280300  0.44346600  0.62346800  1
  P  P2  1  0.90901000  0.41437200  0.13837100  1
  P  P3  1  0.23913500  0.94386100  0.12422100  1
  P  P4  1  0.46261300  0.08797900  0.36164700  1
  P  P5  1  0.54133400  0.91284400  0.63843700  1
  P  P6  1  0.30705200  0.55732600  0.37591600  1
  P  P7  1  0.75845100  0.05523500  0.87607500  1
  O  O0  1  0.73147000  0.32096600  0.11045600  1
  O  O1  1  0.64452700  0.91761300  0.89661000  1
  O  O2  1  0.84097200  0.82118600  0.60897100  1
  O  O3  1  0.73862400  0.33189500  0.55336400  1
  O  O4  1  0.16739900  0.38601600  0.06916700  1
  O  O5  1  0.60583300  0.38330800  0.70784700  1
  O  O6  1  0.62278800  0.16766000  0.94597500  1
  O  O7  1  0.93530400  0.98816100  0.12151800  1
  O  O8  1  0.26286300  0.66989700  0.44546900  1
  O  O9  1  0.46030600  0.58113700  0.60370200  1
  O  O10  1  0.75456600  0.57509600  0.13132400  1
  O  O11  1  0.58208200  0.13966100  0.27924700  1
  O  O12  1  0.35019800  0.08287200  0.10527100  1
  O  O13  1  0.95321700  0.48977700  0.62022900  1
  O  O14  1  0.26526700  0.67747100  0.89076900  1
  O  O15  1  0.23968200  0.42341900  0.86727500  1
  O  O16  1  0.00354000  0.63920700  0.77907200  1
  O  O17  1  0.37601300  0.83359400  0.05356600  1
  O  O18  1  0.53942200  0.07386100  0.63168800  1
  O  O19  1  0.42903700  0.85829500  0.72083500  1
  O  O20  1  0.04360400  0.51423700  0.37846100  1
  O  O21  1  0.37742600  0.88445300  0.57022900  1
  O  O22  1  0.06255600  0.01007700  0.87817200  1
  O  O23  1  0.30316400  0.88257400  0.20826000  1
  O  O24  1  0.53668700  0.41873200  0.39614800  1
  O  O25  1  0.16606200  0.18256600  0.39009000  1
  O  O26  1  0.99889300  0.36271600  0.22049100  1
  O  O27  1  0.62783500  0.11493600  0.42993600  1
  O  O28  1  0.82788700  0.61316100  0.92966500  1
  O  O29  1  0.69273800  0.11514600  0.79192900  1
  O  O30  1  0.39857400  0.61583200  0.29148500  1
  O  O31  1  0.46183400  0.92709400  0.36805700  1
loop_
_geom_bond_atom_site_label_1
_geom_bond_atom_site_label_2
_geom_bond_distance
_geom_bond_site_symmetry_2
O0 P2 1.586394 1_555
O0 Zn3 2.009937 1_555
O0 Sn3 2.606502 1_555
O1 P7 1.595186 1_565
O1 Zn0 2.047545 1_555
O1 Sn2 2.322908 1_556
O2 P5 1.588604 1_555
O2 Zn1 2.009594 1_655
O2 Sn7 2.593630 1_555
O3 P1 1.565492 1_555
O3 Sn1 2.222068 1_555
O4 P2 1.596747 1_455
O4 Sn0 2.259276 1_554
O4 Sn3 2.387839 1_555
O5 P1 1.531094 1_555
O5 Sn6 2.141975 1_555
O6 P7 1.567809 1_555
O6 Sn0 2.215707 1_555
O7 P3 1.537522 1_655
O7 Zn3 1.983412 1_565
O8 P6 1.566600 1_555
O8 Sn4 2.219746 1_555
O9 P1 1.596630 1_555
O9 Zn1 2.041399 1_555
O9 Sn4 2.314389 1_555
O10 P2 1.546845 1_555
O10 Sn5 2.580252 1_555
O11 P4 1.523256 1_555
O11 Zn3 1.932626 1_555
O12 P3 1.596413 1_545
O12 Zn3 2.039350 1_555
O12 Sn0 2.321916 1_554
O13 P1 1.537255 1_555
O13 Zn1 1.985152 1_655
O14 P0 1.584350 1_555
O14 Zn0 2.007075 1_555
O14 Sn3 2.674793 1_556
O15 P0 1.546789 1_555
O15 Sn6 2.510883 1_555
O16 P0 1.523518 1_555
O16 Zn1 1.933510 1_555
O17 P3 1.565116 1_555
O17 Sn2 2.219733 1_555
O18 P5 1.545784 1_545
O18 Sn6 2.558381 1_555
O19 P5 1.521183 1_555
O19 Zn0 1.941330 1_555
O20 P6 1.537826 1_555
O20 Zn2 1.988580 1_455
O21 P5 1.595495 1_555
O21 Sn4 2.253493 1_555
O21 Sn7 2.411998 1_455
O22 P7 1.537123 1_455
O22 Zn0 1.990186 1_545
O23 P3 1.531024 1_555
O23 Sn5 2.136100 1_555
O24 P6 1.595853 1_555
O24 Zn2 2.051989 1_555
O24 Sn1 2.321723 1_555
O25 P4 1.581862 1_555
O25 Zn2 2.004875 1_455
O25 Sn7 2.702101 1_445
O26 P2 1.521585 1_555
O26 Zn2 1.941963 1_555
O27 P4 1.596535 1_555
O27 Sn1 2.247793 1_555
O27 Sn7 2.416956 1_545
O28 P0 1.595856 1_655
O28 Sn2 2.251503 1_556
O28 Sn3 2.419651 1_556
O29 P7 1.531332 1_555
O29 Sn6 2.139618 1_555
O30 P6 1.531541 1_555
O30 Sn5 2.140797 1_555
O31 P4 1.548056 1_565
O31 Sn5 2.520760 1_555
