# generated using pymatgen
data_Sr3ScN3
_symmetry_space_group_name_H-M   'P 1'
_cell_length_a   7.98770200
_cell_length_b   7.98770133
_cell_length_c   5.38754400
_cell_angle_alpha   90.00000000
_cell_angle_beta   90.00000000
_cell_angle_gamma   119.99977428
_symmetry_Int_Tables_number   1
_chemical_formula_structural   Sr3ScN3
_chemical_formula_sum   'Sr6 Sc2 N6'
_cell_volume   297.69128529
_cell_formula_units_Z   2
loop_
 _symmetry_equiv_pos_site_id
 _symmetry_equiv_pos_as_xyz
  1  'x, y, z'
loop_
 _atom_site_type_symbol
 _atom_site_label
 _atom_site_symmetry_multiplicity
 _atom_site_fract_x
 _atom_site_fract_y
 _atom_site_fract_z
 _atom_site_occupancy
  Sr  Sr0  1  0.92971600  0.65786600  0.25000000  1
  Sr  Sr1  1  0.72815000  0.07027900  0.25000000  1
  Sr  Sr2  1  0.34212900  0.27184800  0.25000000  1
  Sr  Sr3  1  0.07028400  0.34213400  0.75000000  1
  Sr  Sr4  1  0.27185000  0.92972100  0.75000000  1
  Sr  Sr5  1  0.65787100  0.72815200  0.75000000  1
  Sc  Sc0  1  0.66664200  0.33332400  0.75000000  1
  Sc  Sc1  1  0.33335800  0.66667600  0.25000000  1
  N  N0  1  0.90266200  0.60967500  0.75000000  1
  N  N1  1  0.70702100  0.09734400  0.75000000  1
  N  N2  1  0.39032600  0.29297900  0.75000000  1
  N  N3  1  0.09733800  0.39032500  0.25000000  1
  N  N4  1  0.29297900  0.90265600  0.25000000  1
  N  N5  1  0.60967400  0.70702100  0.25000000  1
loop_
_geom_bond_atom_site_label_1
_geom_bond_atom_site_label_2
_geom_bond_distance
_geom_bond_site_symmetry_2
N0 Sc0 2.065271 1_555
N0 Sr5 2.563061 1_555
N0 Sr0 2.714424 1_555
N0 Sr0 2.714424 1_556
N0 Sr4 2.773618 1_655
N0 Sr3 3.036596 1_655
N1 Sc0 2.065181 1_555
N1 Sr3 2.563039 1_655
N1 Sr1 2.714427 1_555
N1 Sr1 2.714427 1_556
N1 Sr5 2.773617 1_545
N1 Sr4 3.036662 1_545
N2 Sc0 2.064946 1_555
N2 Sr4 2.562993 1_545
N2 Sr2 2.714430 1_556
N2 Sr2 2.714430 1_555
N2 Sr3 2.773639 1_555
N2 Sr5 3.036675 1_555
N3 Sc1 2.065271 1_555
N3 Sr2 2.563061 1_555
N3 Sr3 2.714424 1_554
N3 Sr3 2.714424 1_555
N3 Sr1 2.773618 1_455
N3 Sr0 3.036596 1_455
N4 Sc1 2.065181 1_555
N4 Sr0 2.563039 1_455
N4 Sr4 2.714427 1_554
N4 Sr4 2.714427 1_555
N4 Sr2 2.773617 1_565
N4 Sr1 3.036662 1_565
N5 Sc1 2.064946 1_555
N5 Sr1 2.562993 1_565
N5 Sr5 2.714430 1_555
N5 Sr5 2.714430 1_554
N5 Sr0 2.773639 1_555
N5 Sr2 3.036675 1_555
