# generated using pymatgen
data_BaAlCu4O7
_symmetry_space_group_name_H-M   'P 1'
_cell_length_a   5.98452056
_cell_length_b   5.98452056
_cell_length_c   9.91896500
_cell_angle_alpha   90.00000000
_cell_angle_beta   90.00000000
_cell_angle_gamma   120.00000623
_symmetry_Int_Tables_number   1
_chemical_formula_structural   BaAlCu4O7
_chemical_formula_sum   'Ba2 Al2 Cu8 O14'
_cell_volume   307.64912870
_cell_formula_units_Z   2
loop_
 _symmetry_equiv_pos_site_id
 _symmetry_equiv_pos_as_xyz
  1  'x, y, z'
loop_
 _atom_site_type_symbol
 _atom_site_label
 _atom_site_symmetry_multiplicity
 _atom_site_fract_x
 _atom_site_fract_y
 _atom_site_fract_z
 _atom_site_occupancy
  Ba  Ba0  1  0.66666700  0.33333300  0.50279800  1
  Ba  Ba1  1  0.33333300  0.66666700  0.00279800  1
  Al  Al0  1  0.66666700  0.33333300  0.88108200  1
  Al  Al1  1  0.33333300  0.66666700  0.38108200  1
  Cu  Cu0  1  0.82265700  0.17734300  0.19106600  1
  Cu  Cu1  1  0.64531300  0.82265700  0.69106600  1
  Cu  Cu2  1  0.17734300  0.35468700  0.69106600  1
  Cu  Cu3  1  0.82265700  0.64531300  0.19106600  1
  Cu  Cu4  1  0.35468700  0.17734300  0.19106600  1
  Cu  Cu5  1  0.17734300  0.82265700  0.69106600  1
  Cu  Cu6  1  0.00000000  0.00000000  0.44085300  1
  Cu  Cu7  1  0.00000000  0.00000000  0.94085300  1
  O  O0  1  0.82021400  0.17978600  0.99425800  1
  O  O1  1  0.64042700  0.82021400  0.49425800  1
  O  O2  1  0.17978600  0.35957300  0.49425800  1
  O  O3  1  0.82021400  0.64042700  0.99425800  1
  O  O4  1  0.35957300  0.17978600  0.99425800  1
  O  O5  1  0.17978600  0.82021400  0.49425800  1
  O  O6  1  0.00000000  0.00000000  0.74696600  1
  O  O7  1  0.00000000  0.00000000  0.24696600  1
  O  O8  1  0.48498600  0.51501400  0.26877500  1
  O  O9  1  0.96997200  0.48498600  0.76877500  1
  O  O10  1  0.51501400  0.03002800  0.76877500  1
  O  O11  1  0.48498600  0.96997200  0.26877500  1
  O  O12  1  0.51501400  0.48498600  0.76877500  1
  O  O13  1  0.03002800  0.51501400  0.26877500  1
loop_
_geom_bond_atom_site_label_1
_geom_bond_atom_site_label_2
_geom_bond_distance
_geom_bond_site_symmetry_2
Ba0 O13 2.989105 1_655
Ba0 O11 2.989105 1_545
Ba0 O8 2.989108 1_555
Ba0 O1 2.996541 1_545
Ba0 O2 2.996541 1_655
Ba0 O5 2.996546 1_655
Ba0 O5 2.996546 1_545
Ba0 O1 2.996553 1_555
Ba0 O2 2.996553 1_555
Ba0 O10 3.071030 1_555
Ba0 O9 3.071030 1_555
Ba0 O12 3.071032 1_555
Ba1 O10 2.989105 1_564
Ba1 O9 2.989105 1_454
Ba1 O12 2.989108 1_554
Ba1 O3 2.996541 1_454
Ba1 O4 2.996541 1_564
Ba1 O0 2.996546 1_564
Ba1 O0 2.996546 1_454
Ba1 O3 2.996553 1_554
Ba1 O4 2.996553 1_554
Ba1 O13 3.071030 1_555
Ba1 O11 3.071030 1_555
Ba1 O8 3.071032 1_555
Al0 O9 1.926646 1_555
Al0 O10 1.926646 1_555
Al0 O12 1.926650 1_555
Al0 O3 1.947656 1_555
Al0 O4 1.947656 1_555
Al0 O0 1.947657 1_555
Al1 O11 1.926646 1_555
Al1 O13 1.926646 1_555
Al1 O8 1.926650 1_555
Al1 O1 1.947656 1_555
Al1 O2 1.947656 1_555
Al1 O5 1.947657 1_555
Cu0 O7 1.920050 1_655
Cu0 O13 1.926143 1_655
Cu0 O11 1.926143 1_545
Cu0 O0 1.952296 1_554
Cu1 O6 1.920055 1_665
Cu1 O10 1.926139 1_565
Cu1 O12 1.926144 1_555
Cu1 O1 1.952296 1_555
Cu2 O6 1.920055 1_555
Cu2 O9 1.926139 1_455
Cu2 O12 1.926144 1_555
Cu2 O2 1.952296 1_555
Cu3 O7 1.920055 1_665
Cu3 O13 1.926139 1_655
Cu3 O8 1.926144 1_555
Cu3 O3 1.952296 1_554
Cu4 O7 1.920055 1_555
Cu4 O11 1.926139 1_545
Cu4 O8 1.926144 1_555
Cu4 O4 1.952296 1_554
Cu5 O6 1.920050 1_565
Cu5 O10 1.926143 1_565
Cu5 O9 1.926143 1_455
Cu5 O5 1.952296 1_555
Cu6 O7 1.923158 1_555
Cu6 O5 1.937396 1_545
Cu6 O2 1.937400 1_555
Cu6 O1 1.937400 1_445
Cu7 O6 1.923158 1_555
Cu7 O0 1.937396 1_455
Cu7 O4 1.937400 1_555
Cu7 O3 1.937400 1_445
