# generated using pymatgen
data_LaMg2Cd
_symmetry_space_group_name_H-M   'P 1'
_cell_length_a   12.69722983
_cell_length_b   14.45292360
_cell_length_c   14.45292402
_cell_angle_alpha   62.44215134
_cell_angle_beta   63.94321894
_cell_angle_gamma   63.94322010
_symmetry_Int_Tables_number   1
_chemical_formula_structural   LaMg2Cd
_chemical_formula_sum   'La1 Mg2 Cd1'
_cell_volume   2017.47137113
_cell_formula_units_Z   1
loop_
 _symmetry_equiv_pos_site_id
 _symmetry_equiv_pos_as_xyz
  1  'x, y, z'
loop_
 _atom_site_type_symbol
 _atom_site_label
 _atom_site_symmetry_multiplicity
 _atom_site_fract_x
 _atom_site_fract_y
 _atom_site_fract_z
 _atom_site_occupancy
  La  La0  1  0.50000000  -0.00000000  0.00000000  1
  Mg  Mg0  1  0.76060878  0.00000000  1.00000000  1
  Mg  Mg1  1  0.23939122  1.00000000  0.00000000  1
  Cd  Cd0  1  0.00000000  -0.00000000  0.00000000  1
loop_
_geom_bond_atom_site_label_1
_geom_bond_atom_site_label_2
_geom_bond_distance
_geom_bond_site_symmetry_2
La0 Mg0 3.309010 1_554
La0 Mg1 3.309010 1_545
Cd0 Mg1 3.039605 1_545
Cd0 Mg0 3.039605 1_454
