# generated using pymatgen
data_Nd2Ge5Rh3
_symmetry_space_group_name_H-M   'P 1'
_cell_length_a   8.41022406
_cell_length_b   8.41014552
_cell_length_c   8.40960323
_cell_angle_alpha   137.82749798
_cell_angle_beta   106.22483636
_cell_angle_gamma   88.82141419
_symmetry_Int_Tables_number   1
_chemical_formula_structural   Nd2Ge5Rh3
_chemical_formula_sum   'Nd4 Ge10 Rh6'
_cell_volume   367.03805904
_cell_formula_units_Z   2
loop_
 _symmetry_equiv_pos_site_id
 _symmetry_equiv_pos_as_xyz
  1  'x, y, z'
loop_
 _atom_site_type_symbol
 _atom_site_label
 _atom_site_symmetry_multiplicity
 _atom_site_fract_x
 _atom_site_fract_y
 _atom_site_fract_z
 _atom_site_occupancy
  Nd  Nd0  1  0.59814218  0.86755375  0.73086709  1
  Nd  Nd1  1  0.13671888  0.36739923  0.76919309  1
  Nd  Nd2  1  0.40186098  0.13244761  0.26913703  1
  Nd  Nd3  1  0.86327851  0.63260040  0.23080378  1
  Ge  Ge0  1  0.50003963  0.25013237  0.75014752  1
  Ge  Ge1  1  0.49996830  0.74987478  0.24985277  1
  Ge  Ge2  1  0.25925850  0.60018849  0.65891257  1
  Ge  Ge3  1  0.94119436  0.10026448  0.84113977  1
  Ge  Ge4  1  0.74074145  0.39981155  0.34108976  1
  Ge  Ge5  1  0.05880331  0.89973353  0.15885928  1
  Ge  Ge6  1  0.22315640  0.97330158  0.75009185  1
  Ge  Ge7  1  0.22320062  0.47330310  0.24995536  1
  Ge  Ge8  1  0.77679807  0.52669527  0.75004517  1
  Ge  Ge9  1  0.77684079  0.02669524  0.24990802  1
  Rh  Rh0  1  -0.00003073  0.25008777  0.25008373  1
  Rh  Rh1  1  0.74764695  0.14046421  0.60679089  1
  Rh  Rh2  1  0.46631014  0.35939129  0.10703484  1
  Rh  Rh3  1  0.25235991  0.85953751  0.39321104  1
  Rh  Rh4  1  0.00002458  0.74990660  0.74991771  1
  Rh  Rh5  1  0.53369018  0.64061023  0.89295875  1
loop_
_geom_bond_atom_site_label_1
_geom_bond_atom_site_label_2
_geom_bond_distance
_geom_bond_site_symmetry_2
Nd0 Rh5 3.179095 1_555
Nd0 Rh2 3.274477 1_566
Nd0 Rh2 3.275320 1_555
Nd0 Rh3 3.410933 1_555
Nd0 Rh0 3.495116 1_666
Nd0 Rh4 3.496183 1_655
Nd0 Rh1 3.512758 1_565
Nd1 Rh1 3.179776 1_455
Nd1 Rh3 3.273554 1_545
Nd1 Rh3 3.276334 1_556
Nd1 Rh2 3.411035 1_556
Nd1 Rh0 3.494371 1_555
Nd1 Rh4 3.494754 1_555
Nd1 Rh5 3.512576 1_555
Nd2 Rh2 3.179171 1_555
Nd2 Rh5 3.274473 1_544
Nd2 Rh5 3.275275 1_555
Nd2 Rh1 3.410940 1_555
Nd2 Rh4 3.495173 1_544
Nd2 Rh0 3.496240 1_555
Nd2 Rh3 3.512725 1_545
Nd3 Rh3 3.179842 1_655
Nd3 Rh1 3.273524 1_565
Nd3 Rh1 3.276317 1_554
Nd3 Rh5 3.411047 1_554
Nd3 Rh4 3.494436 1_655
Nd3 Rh0 3.494812 1_655
Nd3 Rh2 3.512534 1_555
Ge0 Rh5 2.511819 1_555
Ge0 Rh2 2.511921 1_556
Ge0 Rh3 2.512355 1_545
Ge0 Rh1 2.513237 1_555
Ge0 Nd3 3.201486 1_556
Ge0 Nd1 3.201629 1_555
Ge0 Nd0 3.201853 1_545
Ge0 Nd2 3.202659 1_555
Ge1 Rh2 2.511835 1_555
Ge1 Rh5 2.511921 1_554
Ge1 Rh1 2.512330 1_565
Ge1 Rh3 2.513252 1_555
Ge1 Nd1 3.201554 1_554
Ge1 Nd3 3.201562 1_555
Ge1 Nd2 3.201796 1_565
Ge1 Nd0 3.202724 1_555
Ge2 Rh5 2.412150 1_555
Ge2 Rh0 2.512924 1_555
Ge2 Rh4 2.513090 1_555
Ge2 Ge7 2.655031 1_555
Ge2 Ge6 2.655414 1_555
Ge2 Nd1 3.010576 1_555
Ge2 Nd2 3.246986 1_566
Ge2 Nd2 3.247662 1_555
Ge2 Nd0 3.290647 1_555
Ge3 Rh1 2.412518 1_555
Ge3 Rh0 2.512310 1_656
Ge3 Rh4 2.513390 1_645
Ge3 Ge6 2.654882 1_645
Ge3 Ge7 2.655086 1_656
Ge3 Nd0 3.010208 1_545
Ge3 Nd3 3.247260 1_556
Ge3 Nd3 3.247591 1_545
Ge3 Nd1 3.292470 1_655
Ge4 Rh2 2.412185 1_555
Ge4 Rh4 2.512888 1_655
Ge4 Rh0 2.513055 1_655
Ge4 Ge8 2.655027 1_555
Ge4 Ge9 2.655424 1_555
Ge4 Nd3 3.010604 1_555
Ge4 Nd0 3.246978 1_544
Ge4 Nd0 3.247653 1_555
Ge4 Nd2 3.290627 1_555
Ge5 Rh3 2.412547 1_555
Ge5 Rh4 2.512270 1_554
Ge5 Rh0 2.513360 1_565
Ge5 Ge9 2.654886 1_465
Ge5 Ge8 2.655078 1_454
Ge5 Nd2 3.010243 1_565
Ge5 Nd1 3.247251 1_554
Ge5 Nd1 3.247581 1_565
Ge5 Nd3 3.292445 1_455
Ge6 Rh3 2.475695 1_555
Ge6 Rh2 2.476167 1_566
Ge6 Rh4 2.681575 1_555
Ge6 Nd1 3.273624 1_565
Ge6 Nd0 3.274053 1_555
Ge6 Nd2 3.295489 1_566
Ge6 Nd3 3.296186 1_455
Ge7 Rh2 2.475624 1_555
Ge7 Rh3 2.475895 1_555
Ge7 Rh0 2.682910 1_555
Ge7 Nd1 3.273244 1_554
Ge7 Nd0 3.274252 1_555
Ge7 Nd3 3.296092 1_455
Ge7 Nd2 3.297602 1_555
Ge8 Rh5 2.475586 1_555
Ge8 Rh1 2.475875 1_555
Ge8 Rh4 2.682852 1_655
Ge8 Nd3 3.273209 1_556
Ge8 Nd2 3.274219 1_555
Ge8 Nd1 3.296074 1_655
Ge8 Nd0 3.297592 1_555
Ge9 Rh1 2.475656 1_555
Ge9 Rh5 2.476137 1_544
Ge9 Rh0 2.681530 1_655
Ge9 Nd3 3.273586 1_545
Ge9 Nd2 3.274016 1_555
Ge9 Nd0 3.295474 1_544
Ge9 Nd1 3.296174 1_655
