# generated using pymatgen
data_LaSbTe
_symmetry_space_group_name_H-M   'P 1'
_cell_length_a   4.40986852
_cell_length_b   4.40986852
_cell_length_c   9.73997718
_cell_angle_alpha   90.00000000
_cell_angle_beta   90.00000000
_cell_angle_gamma   90.00000000
_symmetry_Int_Tables_number   1
_chemical_formula_structural   LaSbTe
_chemical_formula_sum   'La2 Sb2 Te2'
_cell_volume   189.41275536
_cell_formula_units_Z   2
loop_
 _symmetry_equiv_pos_site_id
 _symmetry_equiv_pos_as_xyz
  1  'x, y, z'
loop_
 _atom_site_type_symbol
 _atom_site_label
 _atom_site_symmetry_multiplicity
 _atom_site_fract_x
 _atom_site_fract_y
 _atom_site_fract_z
 _atom_site_occupancy
  La  La0  1  0.75000000  0.75000000  0.72232082  1
  La  La1  1  0.25000000  0.25000000  0.27767918  1
  Sb  Sb0  1  0.75000000  0.25000000  -0.00000000  1
  Sb  Sb1  1  0.25000000  0.75000000  -0.00000000  1
  Te  Te0  1  0.75000000  0.75000000  0.37253338  1
  Te  Te1  1  0.25000000  0.25000000  0.62746662  1
loop_
_geom_bond_atom_site_label_1
_geom_bond_atom_site_label_2
_geom_bond_distance
_geom_bond_site_symmetry_2
La0 Te1 3.252233 1_665
La0 Te1 3.252233 1_555
La0 Te1 3.252233 1_565
La0 Te1 3.252233 1_655
La0 Te0 3.406922 1_555
La0 Sb1 3.489489 1_656
La0 Sb0 3.489489 1_566
La0 Sb1 3.489489 1_556
La0 Sb0 3.489489 1_556
La1 Te0 3.252233 1_555
La1 Te0 3.252233 1_545
La1 Te0 3.252233 1_455
La1 Te0 3.252233 1_445
La1 Te1 3.406922 1_555
La1 Sb1 3.489489 1_555
La1 Sb0 3.489489 1_455
La1 Sb0 3.489489 1_555
La1 Sb1 3.489489 1_545
Sb0 Sb1 3.118248 1_545
Sb0 Sb1 3.118248 1_645
Sb0 Sb1 3.118248 1_555
Sb0 Sb1 3.118248 1_655
