# generated using pymatgen
data_Sr3CoSb2O9
_symmetry_space_group_name_H-M   'P 1'
_cell_length_a   9.91042050
_cell_length_b   9.91042050
_cell_length_c   9.91042050
_cell_angle_alpha   146.58664325
_cell_angle_beta   131.23427397
_cell_angle_gamma   60.40546401
_symmetry_Int_Tables_number   1
_chemical_formula_structural   Sr3CoSb2O9
_chemical_formula_sum   'Sr6 Co2 Sb4 O18'
_cell_volume   399.34220652
_cell_formula_units_Z   2
loop_
 _symmetry_equiv_pos_site_id
 _symmetry_equiv_pos_as_xyz
  1  'x, y, z'
loop_
 _atom_site_type_symbol
 _atom_site_label
 _atom_site_symmetry_multiplicity
 _atom_site_fract_x
 _atom_site_fract_y
 _atom_site_fract_z
 _atom_site_occupancy
  Sr  Sr0  1  0.58392800  0.32635300  0.25757500  1
  Sr  Sr1  1  0.93122200  0.67364700  0.25757500  1
  Sr  Sr2  1  0.23083000  0.00000000  0.23083000  1
  Sr  Sr3  1  0.41607200  0.67364700  0.74242500  1
  Sr  Sr4  1  0.76917000  0.00000000  0.76917000  1
  Sr  Sr5  1  0.06877800  0.32635300  0.74242500  1
  Co  Co0  1  0.83306000  0.83306000  0.00000000  1
  Co  Co1  1  0.16694000  0.16694000  0.00000000  1
  Sb  Sb0  1  0.00000000  0.50000000  0.50000000  1
  Sb  Sb1  1  0.33285400  0.83285400  0.50000000  1
  Sb  Sb2  1  0.66714600  0.16714600  0.50000000  1
  Sb  Sb3  1  0.50000000  0.50000000  0.00000000  1
  O  O0  1  0.74536100  0.50000000  0.24536100  1
  O  O1  1  0.10020200  0.83828600  0.26191600  1
  O  O2  1  0.42363000  0.16171400  0.26191600  1
  O  O3  1  0.25463900  0.50000000  0.75463900  1
  O  O4  1  0.57637000  0.83828600  0.73808400  1
  O  O5  1  0.89979800  0.16171400  0.73808400  1
  O  O6  1  0.91928800  0.66417700  0.74489000  1
  O  O7  1  0.25238200  0.00096700  0.74858500  1
  O  O8  1  0.58079400  0.33367600  0.75288200  1
  O  O9  1  0.91928800  0.17439800  0.25511000  1
  O  O10  1  0.25238200  0.50379700  0.25141500  1
  O  O11  1  0.58079400  0.82791200  0.24711800  1
  O  O12  1  0.08071200  0.82560200  0.74489000  1
  O  O13  1  0.41920600  0.17208800  0.75288200  1
  O  O14  1  0.74761800  0.49620300  0.74858500  1
  O  O15  1  0.08071200  0.33582300  0.25511000  1
  O  O16  1  0.41920600  0.66632400  0.24711800  1
  O  O17  1  0.74761800  0.99903300  0.25141500  1
loop_
_geom_bond_atom_site_label_1
_geom_bond_atom_site_label_2
_geom_bond_distance
_geom_bond_site_symmetry_2
Co0 O17 2.048030 1_555
Co0 O14 2.048030 1_554
Co0 O6 2.072382 1_554
Co0 O9 2.072386 1_565
Co0 O1 2.145043 1_655
Co0 O4 2.145043 1_554
Co1 O7 2.048030 1_554
Co1 O10 2.048030 1_555
Co1 O15 2.072382 1_555
Co1 O12 2.072386 1_544
Co1 O2 2.145043 1_555
Co1 O5 2.145043 1_454
O0 Sb3 2.007710 1_555
O0 Sb0 2.083629 1_655
O0 Sr4 2.855623 1_565
O0 Sr4 2.855623 1_554
O0 Sr1 2.976283 1_555
O0 Sr0 2.976283 1_555
O1 Sb1 1.950386 1_555
O1 Sr2 2.781843 1_565
O1 Sr1 2.820519 1_455
O1 Sr5 2.860743 1_554
O1 Sr5 2.860743 1_565
O2 Sb2 1.950386 1_555
O2 Sr2 2.781843 1_555
O2 Sr0 2.820519 1_555
O2 Sr3 2.860743 1_555
O2 Sr3 2.860743 1_544
O3 Sb3 2.007710 1_556
O3 Sb0 2.083629 1_555
O3 Sr2 2.855623 1_555
O3 Sr2 2.855623 1_566
O3 Sr3 2.976283 1_555
O3 Sr5 2.976283 1_555
O4 Sb1 1.950386 1_555
O4 Sr4 2.781843 1_565
O4 Sr3 2.820519 1_555
O4 Sr0 2.860743 1_555
O4 Sr0 2.860743 1_566
O5 Sb2 1.950386 1_555
O5 Sr4 2.781843 1_555
O5 Sr5 2.820519 1_655
O5 Sr1 2.860743 1_545
O5 Sr1 2.860743 1_556
O6 Sb0 1.964353 1_655
O6 Sr2 2.755391 1_666
O6 Sr4 2.755397 1_565
O6 Sr5 2.901112 1_655
O6 Sr0 2.901118 1_555
O7 Sb1 1.976490 1_545
O7 Sr1 2.785745 1_445
O7 Sr3 2.785745 1_545
O7 Sr5 2.846055 1_555
O7 Sr0 2.846055 1_556
O8 Sb3 1.974371 1_556
O8 Sb2 2.065023 1_555
O8 Sr4 2.973694 1_555
O8 Sr2 2.973694 1_555
O8 Sr1 2.992460 1_556
O8 Sr3 2.992460 1_555
O9 Sb0 1.964349 1_655
O9 Sr4 2.755388 1_554
O9 Sr2 2.755388 1_655
O9 Sr0 2.901121 1_555
O9 Sr5 2.901121 1_655
O10 Sb1 1.976490 1_555
O10 Sr1 2.785745 1_455
O10 Sr3 2.785745 1_555
O10 Sr0 2.846055 1_555
O10 Sr5 2.846055 1_554
O11 Sb3 1.974371 1_555
O11 Sb2 2.065023 1_565
O11 Sr4 2.973694 1_565
O11 Sr2 2.973694 1_565
O11 Sr1 2.992460 1_555
O11 Sr3 2.992460 1_554
O12 Sb0 1.964349 1_555
O12 Sr4 2.755388 1_465
O12 Sr2 2.755388 1_566
O12 Sr3 2.901121 1_555
O12 Sr1 2.901121 1_455
O13 Sb3 1.974371 1_556
O13 Sb1 2.065023 1_545
O13 Sr4 2.973694 1_555
O13 Sr2 2.973694 1_555
O13 Sr5 2.992460 1_555
O13 Sr0 2.992460 1_556
O14 Sb2 1.976490 1_555
O14 Sr0 2.785745 1_555
O14 Sr5 2.785745 1_655
O14 Sr3 2.846055 1_555
O14 Sr1 2.846055 1_556
O15 Sb0 1.964353 1_555
O15 Sr4 2.755391 1_454
O15 Sr2 2.755397 1_555
O15 Sr1 2.901112 1_455
O15 Sr3 2.901118 1_555
O16 Sb3 1.974371 1_555
O16 Sb1 2.065023 1_555
O16 Sr4 2.973694 1_565
O16 Sr2 2.973694 1_565
O16 Sr5 2.992460 1_554
O16 Sr0 2.992460 1_555
O17 Sb2 1.976490 1_565
O17 Sr5 2.785745 1_665
O17 Sr0 2.785745 1_565
O17 Sr1 2.846055 1_555
O17 Sr3 2.846055 1_554
