# generated using pymatgen
data_Te4Mo3S2
_symmetry_space_group_name_H-M   'P 1'
_cell_length_a   3.42421510
_cell_length_b   3.42421510
_cell_length_c   31.59260600
_cell_angle_alpha   90.00000000
_cell_angle_beta   90.00000000
_cell_angle_gamma   119.99998253
_symmetry_Int_Tables_number   1
_chemical_formula_structural   Te4Mo3S2
_chemical_formula_sum   'Te4 Mo3 S2'
_cell_volume   320.80286232
_cell_formula_units_Z   1
loop_
 _symmetry_equiv_pos_site_id
 _symmetry_equiv_pos_as_xyz
  1  'x, y, z'
loop_
 _atom_site_type_symbol
 _atom_site_label
 _atom_site_symmetry_multiplicity
 _atom_site_fract_x
 _atom_site_fract_y
 _atom_site_fract_z
 _atom_site_occupancy
  Te  Te0  1  0.33333300  0.66666700  0.70980800  1
  Te  Te1  1  0.33333300  0.66666700  0.17241500  1
  Te  Te2  1  0.33333300  0.66666700  0.82758500  1
  Te  Te3  1  0.33333300  0.66666700  0.29019200  1
  Mo  Mo0  1  0.00000000  0.00000000  0.76867300  1
  Mo  Mo1  1  0.00000000  0.00000000  0.23132700  1
  Mo  Mo2  1  0.33333300  0.66666700  0.00000000  1
  S  S0  1  0.00000000  0.00000000  0.04734000  1
  S  S1  1  0.00000000  0.00000000  0.95266000  1
loop_
_geom_bond_atom_site_label_1
_geom_bond_atom_site_label_2
_geom_bond_distance
_geom_bond_site_symmetry_2
Mo0 Te0 2.714201 1_545
Mo0 Te0 2.714204 1_555
Mo0 Te0 2.714204 1_445
Mo0 Te2 2.715219 1_545
Mo0 Te2 2.715221 1_555
Mo0 Te2 2.715221 1_445
Mo1 Te3 2.714201 1_545
Mo1 Te3 2.714204 1_555
Mo1 Te3 2.714204 1_445
Mo1 Te1 2.715219 1_545
Mo1 Te1 2.715221 1_445
Mo1 Te1 2.715221 1_555
Mo2 S1 2.478953 1_564
Mo2 S0 2.478953 1_565
Mo2 S1 2.478956 1_554
Mo2 S1 2.478956 1_664
Mo2 S0 2.478956 1_665
Mo2 S0 2.478956 1_555
