# generated using pymatgen
data_NaPr2IrO6
_symmetry_space_group_name_H-M   'P 1'
_cell_length_a   6.01083100
_cell_length_b   5.58127600
_cell_length_c   9.73556900
_cell_angle_alpha   55.84812002
_cell_angle_beta   90.00000000
_cell_angle_gamma   90.00000000
_symmetry_Int_Tables_number   1
_chemical_formula_structural   NaPr2IrO6
_chemical_formula_sum   'Na2 Pr4 Ir2 O12'
_cell_volume   270.28679722
_cell_formula_units_Z   2
loop_
 _symmetry_equiv_pos_site_id
 _symmetry_equiv_pos_as_xyz
  1  'x, y, z'
loop_
 _atom_site_type_symbol
 _atom_site_label
 _atom_site_symmetry_multiplicity
 _atom_site_fract_x
 _atom_site_fract_y
 _atom_site_fract_z
 _atom_site_occupancy
  Na  Na0  1  0.50000000  0.00000000  0.50000000  1
  Na  Na1  1  0.00000000  0.00000000  0.00000000  1
  Pr  Pr0  1  0.42692900  0.77432600  0.24677600  1
  Pr  Pr1  1  0.07307100  0.77432600  0.74677600  1
  Pr  Pr2  1  0.92692900  0.22567400  0.25322400  1
  Pr  Pr3  1  0.57307100  0.22567400  0.75322400  1
  Ir  Ir0  1  0.00000000  0.50000000  0.50000000  1
  Ir  Ir1  1  0.50000000  0.50000000  0.00000000  1
  O  O0  1  0.71900200  0.73016400  0.43360000  1
  O  O1  1  0.21900200  0.26983600  0.06640000  1
  O  O2  1  0.28099800  0.26983600  0.56640000  1
  O  O3  1  0.78099800  0.73016400  0.93360000  1
  O  O4  1  0.04735600  0.61451100  0.26753100  1
  O  O5  1  0.54735600  0.38548900  0.23246900  1
  O  O6  1  0.95264400  0.38548900  0.73246900  1
  O  O7  1  0.45264400  0.61451100  0.76753100  1
  O  O8  1  0.32520400  0.84634400  0.94826500  1
  O  O9  1  0.82520400  0.15365600  0.55173500  1
  O  O10  1  0.67479600  0.15365600  0.05173500  1
  O  O11  1  0.17479600  0.84634400  0.44826500  1
loop_
_geom_bond_atom_site_label_1
_geom_bond_atom_site_label_2
_geom_bond_distance
_geom_bond_site_symmetry_2
Na0 O5 2.280798 1_555
Na0 O7 2.280798 1_545
Na0 O11 2.301123 1_545
Na0 O9 2.301123 1_555
Na0 O2 2.347758 1_555
Na0 O0 2.347758 1_545
Na1 O6 2.280798 1_454
Na1 O4 2.280798 1_545
Na1 O8 2.301123 1_544
Na1 O10 2.301123 1_455
Na1 O3 2.347758 1_444
Na1 O1 2.347758 1_555
Ir0 O4 1.996897 1_555
Ir0 O6 1.996897 1_455
Ir0 O0 1.997136 1_455
Ir0 O2 1.997136 1_555
Ir0 O11 2.000272 1_555
Ir0 O9 2.000272 1_455
Ir1 O5 1.996897 1_555
Ir1 O7 1.996897 1_554
Ir1 O1 1.997136 1_555
Ir1 O3 1.997136 1_554
Ir1 O10 2.000272 1_555
Ir1 O8 2.000272 1_554
O0 Pr0 2.438793 1_555
O0 Pr2 2.615610 1_565
O0 Pr3 2.922839 1_555
O1 Pr2 2.438793 1_455
O1 Pr0 2.615610 1_545
O1 Pr1 2.922839 1_554
O2 Pr3 2.438793 1_555
O2 Pr1 2.615610 1_545
O2 Pr0 2.922839 1_555
O3 Pr1 2.438793 1_655
O3 Pr3 2.615610 1_565
O3 Pr2 2.922839 1_556
O4 Pr2 2.364862 1_455
O4 Pr0 2.416515 1_555
O5 Pr0 2.364862 1_555
O5 Pr2 2.416515 1_555
O6 Pr1 2.364862 1_655
O6 Pr3 2.416515 1_555
O7 Pr3 2.364862 1_555
O7 Pr1 2.416515 1_555
O8 Pr3 2.407063 1_565
O8 Pr1 2.681714 1_555
O8 Pr0 2.769427 1_556
O9 Pr1 2.407063 1_645
O9 Pr3 2.681714 1_555
O9 Pr2 2.769427 1_555
O10 Pr0 2.407063 1_545
O10 Pr2 2.681714 1_555
O10 Pr3 2.769427 1_554
O11 Pr2 2.407063 1_465
O11 Pr0 2.681714 1_555
O11 Pr1 2.769427 1_555
