# generated using pymatgen
data_RbAg(PO3)2
_symmetry_space_group_name_H-M   'P 1'
_cell_length_a   13.37857796
_cell_length_b   6.17392777
_cell_length_c   7.49099827
_cell_angle_alpha   83.90188286
_cell_angle_beta   90.00000000
_cell_angle_gamma   90.00000000
_symmetry_Int_Tables_number   1
_chemical_formula_structural   RbAg(PO3)2
_chemical_formula_sum   'Rb4 Ag4 P8 O24'
_cell_volume   615.24307259
_cell_formula_units_Z   4
loop_
 _symmetry_equiv_pos_site_id
 _symmetry_equiv_pos_as_xyz
  1  'x, y, z'
loop_
 _atom_site_type_symbol
 _atom_site_label
 _atom_site_symmetry_multiplicity
 _atom_site_fract_x
 _atom_site_fract_y
 _atom_site_fract_z
 _atom_site_occupancy
  Rb  Rb0  1  0.16793508  0.28193409  0.76244530  1
  Rb  Rb1  1  0.83206492  0.71806591  0.23755470  1
  Rb  Rb2  1  0.66793508  0.71806591  0.73755470  1
  Rb  Rb3  1  0.33206492  0.28193409  0.26244530  1
  Ag  Ag0  1  0.97303447  0.81076190  0.81049551  1
  Ag  Ag1  1  0.02696553  0.18923810  0.18950449  1
  Ag  Ag2  1  0.47303447  0.18923810  0.68950449  1
  Ag  Ag3  1  0.52696553  0.81076190  0.31049451  1
  P  P0  1  0.36636089  0.68898016  0.64591837  1
  P  P1  1  0.63363911  0.31101984  0.35408163  1
  P  P2  1  0.86636089  0.31101984  0.85408163  1
  P  P3  1  0.13363911  0.68898016  0.14591837  1
  P  P4  1  0.17145818  0.84331140  0.49978836  1
  P  P5  1  0.82854182  0.15668860  0.50021164  1
  P  P6  1  0.67145818  0.15668860  0.00021164  1
  P  P7  1  0.32854182  0.84331140  -0.00021164  1
  O  O0  1  0.85609471  0.93364601  0.57828129  1
  O  O1  1  0.14390529  0.06635399  0.42171871  1
  O  O2  1  0.35609471  0.06635399  0.92171871  1
  O  O3  1  0.64390529  0.93364601  0.07828129  1
  O  O4  1  0.35064104  0.46767959  0.59031408  1
  O  O5  1  0.64935896  0.53232041  0.40968592  1
  O  O6  1  0.85064104  0.53232041  0.90968592  1
  O  O7  1  0.14935896  0.46767959  0.09031408  1
  O  O8  1  0.12054189  0.73720989  0.66215313  1
  O  O9  1  0.87945811  0.26279011  0.33784687  1
  O  O10  1  0.62054189  0.26279011  0.83784687  1
  O  O11  1  0.37945811  0.73720989  0.16215313  1
  O  O12  1  0.28955249  0.85898101  0.54226446  1
  O  O13  1  0.71044751  0.14101899  0.45773554  1
  O  O14  1  0.78955249  0.14101899  0.95773554  1
  O  O15  1  0.21044751  0.85898101  0.04226446  1
  O  O16  1  0.46643845  0.79469703  0.62728599  1
  O  O17  1  0.53356155  0.20530297  0.37271401  1
  O  O18  1  0.96643845  0.20530297  0.87271401  1
  O  O19  1  0.03356155  0.79469703  0.12728599  1
  O  O20  1  0.32951233  0.67470413  0.85097072  1
  O  O21  1  0.67048767  0.32529587  0.14902928  1
  O  O22  1  0.82951233  0.32529587  0.64902928  1
  O  O23  1  0.17048767  0.67470413  0.35097072  1
loop_
_geom_bond_atom_site_label_1
_geom_bond_atom_site_label_2
_geom_bond_distance
_geom_bond_site_symmetry_2
Ag0 O8 2.332965 1_655
Ag0 O0 2.401819 1_555
Ag0 O6 2.432527 1_555
Ag0 O19 2.499409 1_656
Ag0 O18 2.529759 1_565
Ag1 O9 2.332965 1_455
Ag1 O1 2.401819 1_555
Ag1 O7 2.432527 1_555
Ag1 O18 2.499409 1_454
Ag1 O19 2.529759 1_545
Ag2 O10 2.332965 1_555
Ag2 O2 2.401819 1_555
Ag2 O4 2.432527 1_555
Ag2 O17 2.499409 1_555
Ag2 O16 2.529759 1_545
Ag3 O11 2.332961 1_555
Ag3 O3 2.401814 1_555
Ag3 O5 2.432528 1_555
Ag3 O16 2.499416 1_555
Ag3 O17 2.529761 1_565
O0 P5 1.484269 1_565
O0 Rb1 3.018489 1_555
O0 Rb2 3.032239 1_555
O1 P4 1.484269 1_545
O1 Rb0 3.018489 1_555
O1 Rb3 3.032239 1_555
O2 P7 1.484269 1_546
O2 Rb3 3.018489 1_556
O2 Rb0 3.032239 1_555
O3 P6 1.484269 1_565
O3 Rb2 3.018489 1_554
O3 Rb1 3.032239 1_555
O4 P0 1.485059 1_555
O4 Rb3 2.829759 1_555
O4 Rb0 2.939116 1_555
O5 P1 1.485059 1_555
O5 Rb2 2.829759 1_555
O5 Rb1 2.939116 1_555
O6 P2 1.485059 1_555
O6 Rb1 2.829759 1_556
O6 Rb2 2.939116 1_555
O7 P3 1.485059 1_555
O7 Rb0 2.829759 1_554
O7 Rb3 2.939116 1_555
O8 P4 1.484308 1_555
O8 Rb0 2.901484 1_555
O9 P5 1.484308 1_555
O9 Rb1 2.901484 1_555
O10 P6 1.484308 1_556
O10 Rb2 2.901484 1_555
O11 P7 1.484308 1_555
O11 Rb3 2.901484 1_555
O12 P0 1.608508 1_555
O12 P4 1.616581 1_555
O12 Rb3 3.220727 1_565
O13 P1 1.608508 1_555
O13 P5 1.616581 1_555
O13 Rb2 3.220727 1_545
O14 P2 1.608508 1_555
O14 P6 1.616581 1_556
O14 Rb1 3.220727 1_546
O15 P3 1.608508 1_555
O15 P7 1.616581 1_555
O15 Rb0 3.220727 1_564
O16 P0 1.489553 1_555
O16 Rb2 2.844315 1_555
O17 P1 1.489553 1_555
O17 Rb3 2.844315 1_555
O18 P2 1.489553 1_555
O18 Rb0 2.844315 1_655
O19 P3 1.489553 1_555
O19 Rb1 2.844315 1_455
O20 P7 1.604090 1_556
O20 P0 1.606697 1_555
O21 P6 1.604090 1_555
O21 P1 1.606697 1_555
O22 P5 1.604090 1_555
O22 P2 1.606697 1_555
O23 P4 1.604090 1_555
O23 P3 1.606697 1_555
