# generated using pymatgen
data_Mg2Zn
_symmetry_space_group_name_H-M   'P 1'
_cell_length_a   11.42934562
_cell_length_b   11.42934562
_cell_length_c   14.13969646
_cell_angle_alpha   78.18466777
_cell_angle_beta   78.18466777
_cell_angle_gamma   31.79340530
_symmetry_Int_Tables_number   1
_chemical_formula_structural   Mg2Zn
_chemical_formula_sum   'Mg32 Zn16'
_cell_volume   950.83210168
_cell_formula_units_Z   16
loop_
 _symmetry_equiv_pos_site_id
 _symmetry_equiv_pos_as_xyz
  1  'x, y, z'
loop_
 _atom_site_type_symbol
 _atom_site_label
 _atom_site_symmetry_multiplicity
 _atom_site_fract_x
 _atom_site_fract_y
 _atom_site_fract_z
 _atom_site_occupancy
  Mg  Mg0_0  1  0.00227100  0.00227100  0.00303950  1
  Mg  Mg0_1  1  0.00227100  0.00227100  0.50303950  1
  Mg  Mg0_2  1  0.00227100  0.50227100  0.00303950  1
  Mg  Mg0_3  1  0.00227100  0.50227100  0.50303950  1
  Mg  Mg0_4  1  0.50227100  0.00227100  0.00303950  1
  Mg  Mg0_5  1  0.50227100  0.00227100  0.50303950  1
  Mg  Mg0_6  1  0.50227100  0.50227100  0.00303950  1
  Mg  Mg0_7  1  0.50227100  0.50227100  0.50303950  1
  Mg  Mg1_0  1  0.16761650  0.16761650  0.17034200  1
  Mg  Mg1_1  1  0.16761650  0.16761650  0.67034200  1
  Mg  Mg1_2  1  0.16761650  0.66761650  0.17034200  1
  Mg  Mg1_3  1  0.16761650  0.66761650  0.67034200  1
  Mg  Mg1_4  1  0.66761650  0.16761650  0.17034200  1
  Mg  Mg1_5  1  0.66761650  0.16761650  0.67034200  1
  Mg  Mg1_6  1  0.66761650  0.66761650  0.17034200  1
  Mg  Mg1_7  1  0.66761650  0.66761650  0.67034200  1
  Mg  Mg2_0  1  0.32911800  0.32911800  0.32881350  1
  Mg  Mg2_1  1  0.32911800  0.32911800  0.82881350  1
  Mg  Mg2_2  1  0.32911800  0.82911800  0.32881350  1
  Mg  Mg2_3  1  0.32911800  0.82911800  0.82881350  1
  Mg  Mg2_4  1  0.82911800  0.32911800  0.32881350  1
  Mg  Mg2_5  1  0.82911800  0.32911800  0.82881350  1
  Mg  Mg2_6  1  0.82911800  0.82911800  0.32881350  1
  Mg  Mg2_7  1  0.82911800  0.82911800  0.82881350  1
  Mg  Mg3_0  1  0.14029050  0.14029050  0.46979800  1
  Mg  Mg3_1  1  0.14029050  0.14029050  0.96979800  1
  Mg  Mg3_2  1  0.14029050  0.64029050  0.46979800  1
  Mg  Mg3_3  1  0.14029050  0.64029050  0.96979800  1
  Mg  Mg3_4  1  0.64029050  0.14029050  0.46979800  1
  Mg  Mg3_5  1  0.64029050  0.14029050  0.96979800  1
  Mg  Mg3_6  1  0.64029050  0.64029050  0.46979800  1
  Mg  Mg3_7  1  0.64029050  0.64029050  0.96979800  1
  Zn  Zn0_0  1  0.30532050  0.30532050  0.14051650  1
  Zn  Zn0_1  1  0.30532050  0.30532050  0.64051650  1
  Zn  Zn0_2  1  0.30532050  0.80532050  0.14051650  1
  Zn  Zn0_3  1  0.30532050  0.80532050  0.64051650  1
  Zn  Zn0_4  1  0.80532050  0.30532050  0.14051650  1
  Zn  Zn0_5  1  0.80532050  0.30532050  0.64051650  1
  Zn  Zn0_6  1  0.80532050  0.80532050  0.14051650  1
  Zn  Zn0_7  1  0.80532050  0.80532050  0.64051650  1
  Zn  Zn1_0  1  0.47205000  0.47205000  0.30415750  1
  Zn  Zn1_1  1  0.47205000  0.47205000  0.80415750  1
  Zn  Zn1_2  1  0.47205000  0.97205000  0.30415750  1
  Zn  Zn1_3  1  0.47205000  0.97205000  0.80415750  1
  Zn  Zn1_4  1  0.97205000  0.47205000  0.30415750  1
  Zn  Zn1_5  1  0.97205000  0.47205000  0.80415750  1
  Zn  Zn1_6  1  0.97205000  0.97205000  0.30415750  1
  Zn  Zn1_7  1  0.97205000  0.97205000  0.80415750  1
loop_
_geom_bond_atom_site_label_1
_geom_bond_atom_site_label_2
_geom_bond_distance
_geom_bond_site_symmetry_2
Mg0_0 Zn0_4 2.924766 1_455
Mg0_0 Zn0_2 2.924766 1_545
Mg0_0 Mg3_1 2.969945 1_554
Mg0_0 Zn1_7 3.024078 1_444
Mg0_0 Mg3_3 3.037159 1_544
Mg0_0 Mg3_5 3.037159 1_454
Mg0_0 Mg2_3 3.098545 1_544
Mg0_0 Mg2_5 3.098545 1_454
Mg0_0 Mg1_2 3.104060 1_545
Mg0_0 Mg1_4 3.104060 1_455
Mg0_0 Mg0_6 3.130542 1_455
Mg0_0 Mg0_6 3.130542 1_545
Mg0_1 Zn0_3 2.924766 1_545
Mg0_1 Zn0_5 2.924766 1_455
Mg0_1 Mg3_0 2.969945 1_555
Mg0_1 Zn1_6 3.024078 1_445
Mg0_1 Mg3_2 3.037159 1_545
Mg0_1 Mg3_4 3.037159 1_455
Mg0_1 Mg2_2 3.098545 1_545
Mg0_1 Mg2_4 3.098545 1_455
Mg0_1 Mg1_3 3.104060 1_545
Mg0_1 Mg1_5 3.104060 1_455
Mg0_1 Mg0_7 3.130542 1_455
Mg0_1 Mg0_7 3.130542 1_545
Mg0_2 Zn0_6 2.924766 1_455
Mg0_2 Zn0_0 2.924766 1_555
Mg0_2 Mg3_3 2.969945 1_554
Mg0_2 Zn1_5 3.024078 1_454
Mg0_2 Mg3_1 3.037159 1_554
Mg0_2 Mg3_7 3.037159 1_454
Mg0_2 Mg2_7 3.098545 1_454
Mg0_2 Mg2_1 3.098545 1_554
Mg0_2 Mg1_0 3.104060 1_555
Mg0_2 Mg1_6 3.104060 1_455
Mg0_2 Mg0_4 3.130542 1_555
Mg0_2 Mg0_4 3.130542 1_465
Mg0_3 Zn0_7 2.924766 1_455
Mg0_3 Zn0_1 2.924766 1_555
Mg0_3 Mg3_2 2.969945 1_555
Mg0_3 Zn1_4 3.024078 1_455
Mg0_3 Mg3_6 3.037159 1_455
Mg0_3 Mg3_0 3.037159 1_555
Mg0_3 Mg2_6 3.098545 1_455
Mg0_3 Mg2_0 3.098545 1_555
Mg0_3 Mg1_7 3.104060 1_455
Mg0_3 Mg1_1 3.104060 1_555
Mg0_3 Mg0_5 3.130542 1_465
Mg0_3 Mg0_5 3.130542 1_555
Mg0_4 Zn0_6 2.924766 1_545
Mg0_4 Zn0_0 2.924766 1_555
Mg0_4 Mg3_5 2.969945 1_554
Mg0_4 Zn1_3 3.024078 1_544
Mg0_4 Mg3_1 3.037159 1_554
Mg0_4 Mg3_7 3.037159 1_544
Mg0_4 Mg2_7 3.098545 1_544
Mg0_4 Mg2_1 3.098545 1_554
Mg0_4 Mg1_0 3.104060 1_555
Mg0_4 Mg1_6 3.104060 1_545
Mg0_5 Zn0_7 2.924766 1_545
Mg0_5 Zn0_1 2.924766 1_555
Mg0_5 Mg3_4 2.969945 1_555
Mg0_5 Zn1_2 3.024078 1_545
Mg0_5 Mg3_6 3.037159 1_545
Mg0_5 Mg3_0 3.037159 1_555
Mg0_5 Mg2_6 3.098545 1_545
Mg0_5 Mg2_0 3.098545 1_555
Mg0_5 Mg1_7 3.104060 1_545
Mg0_5 Mg1_1 3.104060 1_555
Mg0_6 Zn0_2 2.924766 1_555
Mg0_6 Zn0_4 2.924766 1_555
Mg0_6 Mg3_7 2.969945 1_554
Mg0_6 Zn1_1 3.024078 1_554
Mg0_6 Mg3_3 3.037159 1_554
Mg0_6 Mg3_5 3.037159 1_554
Mg0_6 Mg2_3 3.098545 1_554
Mg0_6 Mg2_5 3.098545 1_554
Mg0_6 Mg1_4 3.104060 1_555
Mg0_6 Mg1_2 3.104060 1_555
Mg0_7 Zn0_5 2.924766 1_555
Mg0_7 Zn0_3 2.924766 1_555
Mg0_7 Mg3_6 2.969945 1_555
Mg0_7 Zn1_0 3.024078 1_555
Mg0_7 Mg3_4 3.037159 1_555
Mg0_7 Mg3_2 3.037159 1_555
Mg0_7 Mg2_2 3.098545 1_555
Mg0_7 Mg2_4 3.098545 1_555
Mg0_7 Mg1_3 3.104060 1_555
Mg0_7 Mg1_5 3.104060 1_555
Mg1_0 Zn1_4 2.902819 1_455
Mg1_0 Zn1_2 2.902819 1_545
Mg1_0 Zn0_0 2.966329 1_555
Mg1_0 Mg3_1 3.021102 1_554
Mg1_0 Zn0_2 3.027553 1_545
Mg1_0 Zn0_4 3.027553 1_455
Mg1_0 Mg2_4 3.065946 1_455
Mg1_0 Mg2_2 3.065946 1_545
Mg1_0 Mg1_6 3.130542 1_545
Mg1_0 Mg1_6 3.130542 1_455
Mg1_1 Zn1_3 2.902819 1_545
Mg1_1 Zn1_5 2.902819 1_455
Mg1_1 Zn0_1 2.966329 1_555
Mg1_1 Mg3_0 3.021102 1_555
Mg1_1 Zn0_3 3.027553 1_545
Mg1_1 Zn0_5 3.027553 1_455
Mg1_1 Mg2_5 3.065946 1_455
Mg1_1 Mg2_3 3.065946 1_545
Mg1_1 Mg1_7 3.130542 1_455
Mg1_1 Mg1_7 3.130542 1_545
Mg1_2 Zn1_0 2.902819 1_555
Mg1_2 Zn1_6 2.902819 1_455
Mg1_2 Zn0_2 2.966329 1_555
Mg1_2 Mg3_3 3.021102 1_554
Mg1_2 Zn0_0 3.027553 1_555
Mg1_2 Zn0_6 3.027553 1_455
Mg1_2 Mg2_0 3.065946 1_555
Mg1_2 Mg2_6 3.065946 1_455
Mg1_2 Mg1_4 3.130542 1_555
Mg1_2 Mg1_4 3.130542 1_465
Mg1_3 Zn1_7 2.902819 1_455
Mg1_3 Zn1_1 2.902819 1_555
Mg1_3 Zn0_3 2.966329 1_555
Mg1_3 Mg3_2 3.021102 1_555
Mg1_3 Zn0_1 3.027553 1_555
Mg1_3 Zn0_7 3.027553 1_455
Mg1_3 Mg2_1 3.065946 1_555
Mg1_3 Mg2_7 3.065946 1_455
Mg1_3 Mg1_5 3.130542 1_555
Mg1_3 Mg1_5 3.130542 1_465
Mg1_4 Zn1_0 2.902819 1_555
Mg1_4 Zn1_6 2.902819 1_545
Mg1_4 Zn0_4 2.966329 1_555
Mg1_4 Mg3_5 3.021102 1_554
Mg1_4 Zn0_0 3.027553 1_555
Mg1_4 Zn0_6 3.027553 1_545
Mg1_4 Mg2_0 3.065946 1_555
Mg1_4 Mg2_6 3.065946 1_545
Mg1_5 Zn1_7 2.902819 1_545
Mg1_5 Zn1_1 2.902819 1_555
Mg1_5 Zn0_5 2.966329 1_555
Mg1_5 Mg3_4 3.021102 1_555
Mg1_5 Zn0_1 3.027553 1_555
Mg1_5 Zn0_7 3.027553 1_545
Mg1_5 Mg2_1 3.065946 1_555
Mg1_5 Mg2_7 3.065946 1_545
Mg1_6 Zn1_4 2.902819 1_555
Mg1_6 Zn1_2 2.902819 1_555
Mg1_6 Zn0_6 2.966329 1_555
Mg1_6 Mg3_7 3.021102 1_554
Mg1_6 Zn0_2 3.027553 1_555
Mg1_6 Zn0_4 3.027553 1_555
Mg1_6 Mg2_4 3.065946 1_555
Mg1_6 Mg2_2 3.065946 1_555
Mg1_7 Zn1_5 2.902819 1_555
Mg1_7 Zn1_3 2.902819 1_555
Mg1_7 Zn0_7 2.966329 1_555
Mg1_7 Mg3_6 3.021102 1_555
Mg1_7 Zn0_5 3.027553 1_555
Mg1_7 Zn0_3 3.027553 1_555
Mg1_7 Mg2_5 3.065946 1_555
Mg1_7 Mg2_3 3.065946 1_555
Mg2_0 Zn0_0 2.820555 1_555
Mg2_0 Zn1_4 2.908880 1_455
Mg2_0 Zn1_2 2.908880 1_545
Mg2_0 Mg3_4 3.061728 1_555
Mg2_0 Mg3_2 3.061728 1_555
Mg2_0 Zn1_0 3.086919 1_555
Mg2_0 Mg2_6 3.130542 1_455
Mg2_0 Mg2_6 3.130542 1_545
Mg2_1 Zn0_1 2.820555 1_555
Mg2_1 Zn1_5 2.908880 1_455
Mg2_1 Zn1_3 2.908880 1_545
Mg2_1 Mg3_5 3.061728 1_555
Mg2_1 Mg3_3 3.061728 1_555
Mg2_1 Zn1_1 3.086919 1_555
Mg2_1 Mg2_7 3.130542 1_545
Mg2_1 Mg2_7 3.130542 1_455
Mg2_2 Zn0_2 2.820555 1_555
Mg2_2 Zn1_6 2.908880 1_455
Mg2_2 Zn1_0 2.908880 1_555
Mg2_2 Mg3_0 3.061728 1_565
Mg2_2 Mg3_6 3.061728 1_555
Mg2_2 Zn1_2 3.086919 1_555
Mg2_2 Mg2_4 3.130542 1_465
Mg2_2 Mg2_4 3.130542 1_555
Mg2_3 Zn0_3 2.820555 1_555
Mg2_3 Zn1_1 2.908880 1_555
Mg2_3 Zn1_7 2.908880 1_455
Mg2_3 Mg3_7 3.061728 1_555
Mg2_3 Mg3_1 3.061728 1_565
Mg2_3 Zn1_3 3.086919 1_555
Mg2_3 Mg2_5 3.130542 1_555
Mg2_3 Mg2_5 3.130542 1_465
Mg2_4 Zn0_4 2.820555 1_555
Mg2_4 Zn1_6 2.908880 1_545
Mg2_4 Zn1_0 2.908880 1_555
Mg2_4 Mg3_0 3.061728 1_655
Mg2_4 Mg3_6 3.061728 1_555
Mg2_4 Zn1_4 3.086919 1_555
Mg2_5 Zn0_5 2.820555 1_555
Mg2_5 Zn1_1 2.908880 1_555
Mg2_5 Zn1_7 2.908880 1_545
Mg2_5 Mg3_7 3.061728 1_555
Mg2_5 Mg3_1 3.061728 1_655
Mg2_5 Zn1_5 3.086919 1_555
Mg2_6 Zn0_6 2.820555 1_555
Mg2_6 Zn1_2 2.908880 1_555
Mg2_6 Zn1_4 2.908880 1_555
Mg2_6 Mg3_2 3.061728 1_655
Mg2_6 Mg3_4 3.061728 1_565
Mg2_6 Zn1_6 3.086919 1_555
Mg2_7 Zn0_7 2.820555 1_555
Mg2_7 Zn1_3 2.908880 1_555
Mg2_7 Zn1_5 2.908880 1_555
Mg2_7 Mg3_5 3.061728 1_565
Mg2_7 Mg3_3 3.061728 1_655
Mg2_7 Zn1_7 3.086919 1_555
Mg3_0 Zn1_2 3.061667 1_545
Mg3_0 Zn1_4 3.061667 1_455
Mg3_0 Mg3_6 3.130542 1_545
Mg3_0 Mg3_6 3.130542 1_455
Mg3_0 Zn0_3 3.137914 1_545
Mg3_0 Zn0_5 3.137914 1_455
Mg3_1 Zn1_3 3.061667 1_545
Mg3_1 Zn1_5 3.061667 1_455
Mg3_1 Mg3_7 3.130542 1_455
Mg3_1 Mg3_7 3.130542 1_545
Mg3_1 Zn0_4 3.137914 1_456
Mg3_1 Zn0_2 3.137914 1_546
Mg3_2 Zn1_0 3.061667 1_555
Mg3_2 Zn1_6 3.061667 1_455
Mg3_2 Mg3_4 3.130542 1_555
Mg3_2 Mg3_4 3.130542 1_465
Mg3_2 Zn0_1 3.137914 1_555
Mg3_2 Zn0_7 3.137914 1_455
Mg3_3 Zn1_7 3.061667 1_455
Mg3_3 Zn1_1 3.061667 1_555
Mg3_3 Mg3_5 3.130542 1_555
Mg3_3 Mg3_5 3.130542 1_465
Mg3_3 Zn0_0 3.137914 1_556
Mg3_3 Zn0_6 3.137914 1_456
Mg3_4 Zn1_0 3.061667 1_555
Mg3_4 Zn1_6 3.061667 1_545
Mg3_4 Zn0_1 3.137914 1_555
Mg3_4 Zn0_7 3.137914 1_545
Mg3_5 Zn1_7 3.061667 1_545
Mg3_5 Zn1_1 3.061667 1_555
Mg3_5 Zn0_0 3.137914 1_556
Mg3_5 Zn0_6 3.137914 1_546
Mg3_6 Zn1_2 3.061667 1_555
Mg3_6 Zn1_4 3.061667 1_555
Mg3_6 Zn0_5 3.137914 1_555
Mg3_6 Zn0_3 3.137914 1_555
Mg3_7 Zn1_5 3.061667 1_555
Mg3_7 Zn1_3 3.061667 1_555
Mg3_7 Zn0_2 3.137914 1_556
Mg3_7 Zn0_4 3.137914 1_556
