# generated using pymatgen
data_Ca2V3O8
_symmetry_space_group_name_H-M   'P 1'
_cell_length_a   6.04378101
_cell_length_b   6.04381502
_cell_length_c   10.60957000
_cell_angle_alpha   89.99973286
_cell_angle_beta   90.00031777
_cell_angle_gamma   119.99512418
_symmetry_Int_Tables_number   1
_chemical_formula_structural   Ca2V3O8
_chemical_formula_sum   'Ca4 V6 O16'
_cell_volume   335.63684729
_cell_formula_units_Z   2
loop_
 _symmetry_equiv_pos_site_id
 _symmetry_equiv_pos_as_xyz
  1  'x, y, z'
loop_
 _atom_site_type_symbol
 _atom_site_label
 _atom_site_symmetry_multiplicity
 _atom_site_fract_x
 _atom_site_fract_y
 _atom_site_fract_z
 _atom_site_occupancy
  Ca  Ca0  1  0.66665800  0.33333600  0.02592500  1
  Ca  Ca1  1  0.33332700  0.66666700  0.52592200  1
  Ca  Ca2  1  0.66667600  0.33332500  0.43154600  1
  Ca  Ca3  1  0.33332800  0.66667800  0.93154600  1
  V  V0  1  0.67306900  0.83641400  0.24581200  1
  V  V1  1  0.83653700  0.16345000  0.74584000  1
  V  V2  1  0.16336900  0.32692700  0.24581300  1
  V  V3  1  0.83652400  0.67307600  0.74581400  1
  V  V4  1  0.32692600  0.16347400  0.74581100  1
  V  V5  1  0.16355800  0.83664500  0.24583200  1
  O  O0  1  0.84668700  0.15385100  0.15388900  1
  O  O1  1  0.69288400  0.84642400  0.65389000  1
  O  O2  1  0.15358600  0.30711600  0.65389100  1
  O  O3  1  0.84615800  0.69288100  0.15388900  1
  O  O4  1  0.30712700  0.15331500  0.15388900  1
  O  O5  1  0.15358500  0.84641500  0.65388900  1
  O  O6  1  0.52340800  0.47659500  0.84920600  1
  O  O7  1  0.04683000  0.52362900  0.34917900  1
  O  O8  1  0.47680400  0.95317400  0.34917700  1
  O  O9  1  0.52341200  0.04683100  0.84917700  1
  O  O10  1  0.99999900  0.00000400  0.34412200  1
  O  O11  1  0.00000600  0.99999600  0.84412700  1
  O  O12  1  0.33333300  0.66666500  0.14522100  1
  O  O13  1  0.95317200  0.47658500  0.84917400  1
  O  O14  1  0.47637800  0.52319400  0.34919700  1
  O  O15  1  0.66666100  0.33334000  0.64522100  1
loop_
_geom_bond_atom_site_label_1
_geom_bond_atom_site_label_2
_geom_bond_distance
_geom_bond_site_symmetry_2
Ca0 O0 2.320320 1_555
Ca0 O4 2.320511 1_555
Ca0 O3 2.320577 1_555
Ca0 O6 2.400831 1_554
Ca0 O9 2.401139 1_554
Ca0 O13 2.401190 1_554
Ca1 O5 2.320249 1_555
Ca1 O2 2.320629 1_555
Ca1 O1 2.320638 1_555
Ca1 O14 2.400944 1_555
Ca1 O7 2.401060 1_555
Ca1 O8 2.401116 1_555
Ca2 O14 2.173136 1_555
Ca2 O7 2.173288 1_655
Ca2 O8 2.173291 1_545
Ca2 O15 2.267000 1_555
Ca3 O6 2.173088 1_555
Ca3 O9 2.173297 1_565
Ca3 O13 2.173312 1_455
Ca3 O12 2.267000 1_556
O0 V2 1.925305 1_655
O0 V0 1.928758 1_545
O1 V3 1.926608 1_555
O1 V1 1.927030 1_565
O2 V4 1.926557 1_555
O2 V1 1.927120 1_455
O3 V0 1.924941 1_555
O3 V5 1.928686 1_655
O4 V5 1.925357 1_545
O4 V2 1.928360 1_555
O5 V4 1.927027 1_565
O5 V3 1.927045 1_455
O6 V3 1.986894 1_555
O6 V4 1.986937 1_555
O7 V5 1.986062 1_555
O7 V2 1.987291 1_555
O8 V0 1.986108 1_555
O8 V5 1.987264 1_555
O9 V1 1.986592 1_555
O9 V4 1.986676 1_555
O10 V5 2.003811 1_645
O10 V2 2.004042 1_655
O10 V0 2.004070 1_545
O11 V1 2.003806 1_465
O11 V3 2.004055 1_455
O11 V4 2.004065 1_565
O12 V0 2.073951 1_555
O12 V2 2.073975 1_555
O12 V5 2.074046 1_555
O13 V1 1.986617 1_555
O13 V3 1.986687 1_555
O14 V2 1.986262 1_555
O14 V0 1.987421 1_555
O15 V4 2.073947 1_555
O15 V3 2.073975 1_555
O15 V1 2.074128 1_555
