# generated using pymatgen
data_Mg30MnAlO32
_symmetry_space_group_name_H-M   'P 1'
_cell_length_a   8.55839000
_cell_length_b   8.55839000
_cell_length_c   8.55187800
_cell_angle_alpha   90.00000000
_cell_angle_beta   90.00000000
_cell_angle_gamma   90.00000000
_symmetry_Int_Tables_number   1
_chemical_formula_structural   Mg30MnAlO32
_chemical_formula_sum   'Mg30 Mn1 Al1 O32'
_cell_volume   626.39119286
_cell_formula_units_Z   1
loop_
 _symmetry_equiv_pos_site_id
 _symmetry_equiv_pos_as_xyz
  1  'x, y, z'
loop_
 _atom_site_type_symbol
 _atom_site_label
 _atom_site_symmetry_multiplicity
 _atom_site_fract_x
 _atom_site_fract_y
 _atom_site_fract_z
 _atom_site_occupancy
  Mg  Mg0  1  0.50000000  0.00000000  0.00000000  1
  Mg  Mg1  1  0.00000000  0.50000000  0.00000000  1
  Mg  Mg2  1  0.00000000  0.00000000  0.50000000  1
  Mg  Mg3  1  0.50000000  0.00000000  0.50000000  1
  Mg  Mg4  1  0.00000000  0.50000000  0.50000000  1
  Mg  Mg5  1  0.50000000  0.50000000  0.50000000  1
  Mg  Mg6  1  0.25004900  0.25004900  0.00000000  1
  Mg  Mg7  1  0.74995100  0.25004900  0.00000000  1
  Mg  Mg8  1  0.25004900  0.74995100  0.00000000  1
  Mg  Mg9  1  0.74995100  0.74995100  0.00000000  1
  Mg  Mg10  1  0.25061300  0.25061300  0.50000000  1
  Mg  Mg11  1  0.74938700  0.25061300  0.50000000  1
  Mg  Mg12  1  0.25061300  0.74938700  0.50000000  1
  Mg  Mg13  1  0.74938700  0.74938700  0.50000000  1
  Mg  Mg14  1  0.25080200  0.00000000  0.25055600  1
  Mg  Mg15  1  0.74919800  0.00000000  0.25055600  1
  Mg  Mg16  1  0.24938300  0.50000000  0.25132500  1
  Mg  Mg17  1  0.75061700  0.50000000  0.25132500  1
  Mg  Mg18  1  0.25080200  0.00000000  0.74944400  1
  Mg  Mg19  1  0.74919800  0.00000000  0.74944400  1
  Mg  Mg20  1  0.24938300  0.50000000  0.74867500  1
  Mg  Mg21  1  0.75061700  0.50000000  0.74867500  1
  Mg  Mg22  1  0.00000000  0.25080200  0.25055600  1
  Mg  Mg23  1  0.50000000  0.24938300  0.25132500  1
  Mg  Mg24  1  0.00000000  0.74919800  0.25055600  1
  Mg  Mg25  1  0.50000000  0.75061700  0.25132500  1
  Mg  Mg26  1  0.00000000  0.25080200  0.74944400  1
  Mg  Mg27  1  0.50000000  0.24938300  0.74867500  1
  Mg  Mg28  1  0.00000000  0.74919800  0.74944400  1
  Mg  Mg29  1  0.50000000  0.75061700  0.74867500  1
  Mn  Mn0  1  0.50000000  0.50000000  0.00000000  1
  Al  Al0  1  0.00000000  0.00000000  0.00000000  1
  O  O0  1  0.00000000  0.00000000  0.23525500  1
  O  O1  1  0.50000000  0.00000000  0.24882100  1
  O  O2  1  0.00000000  0.50000000  0.24882100  1
  O  O3  1  0.50000000  0.50000000  0.25629200  1
  O  O4  1  0.00000000  0.00000000  0.76474500  1
  O  O5  1  0.50000000  0.00000000  0.75117900  1
  O  O6  1  0.00000000  0.50000000  0.75117900  1
  O  O7  1  0.50000000  0.50000000  0.74370800  1
  O  O8  1  0.25008500  0.25008500  0.24912400  1
  O  O9  1  0.74991500  0.25008500  0.24912400  1
  O  O10  1  0.25008500  0.74991500  0.24912400  1
  O  O11  1  0.74991500  0.74991500  0.24912400  1
  O  O12  1  0.25008500  0.25008500  0.75087600  1
  O  O13  1  0.74991500  0.25008500  0.75087600  1
  O  O14  1  0.25008500  0.74991500  0.75087600  1
  O  O15  1  0.74991500  0.74991500  0.75087600  1
  O  O16  1  0.23334300  0.00000000  0.00000000  1
  O  O17  1  0.76665700  0.00000000  0.00000000  1
  O  O18  1  0.23984400  0.50000000  0.00000000  1
  O  O19  1  0.76015600  0.50000000  0.00000000  1
  O  O20  1  0.24737800  0.00000000  0.50000000  1
  O  O21  1  0.75262200  0.00000000  0.50000000  1
  O  O22  1  0.24845400  0.50000000  0.50000000  1
  O  O23  1  0.75154600  0.50000000  0.50000000  1
  O  O24  1  0.00000000  0.23334300  0.00000000  1
  O  O25  1  0.50000000  0.23984400  0.00000000  1
  O  O26  1  0.00000000  0.76665700  0.00000000  1
  O  O27  1  0.50000000  0.76015600  0.00000000  1
  O  O28  1  0.00000000  0.24737800  0.50000000  1
  O  O29  1  0.50000000  0.24845400  0.50000000  1
  O  O30  1  0.00000000  0.75262200  0.50000000  1
  O  O31  1  0.50000000  0.75154600  0.50000000  1
loop_
_geom_bond_atom_site_label_1
_geom_bond_atom_site_label_2
_geom_bond_distance
_geom_bond_site_symmetry_2
Mg0 O25 2.052678 1_555
Mg0 O27 2.052678 1_545
Mg0 O1 2.127887 1_555
Mg0 O5 2.127887 1_554
Mg0 O17 2.282155 1_555
Mg0 O16 2.282155 1_555
Mg1 O18 2.052678 1_555
Mg1 O19 2.052678 1_455
Mg1 O2 2.127887 1_555
Mg1 O6 2.127887 1_554
Mg1 O26 2.282155 1_555
Mg1 O24 2.282155 1_555
Mg2 O28 2.117157 1_555
Mg2 O30 2.117157 1_545
Mg2 O21 2.117157 1_455
Mg2 O20 2.117157 1_555
Mg2 O0 2.264067 1_555
Mg2 O4 2.264067 1_555
Mg3 O29 2.126366 1_555
Mg3 O31 2.126366 1_545
Mg3 O5 2.148052 1_555
Mg3 O1 2.148052 1_555
Mg3 O21 2.162038 1_555
Mg3 O20 2.162038 1_555
Mg4 O22 2.126366 1_555
Mg4 O23 2.126366 1_455
Mg4 O6 2.148052 1_555
Mg4 O2 2.148052 1_555
Mg4 O30 2.162038 1_555
Mg4 O28 2.162038 1_555
Mg5 O7 2.084161 1_555
Mg5 O3 2.084161 1_555
Mg5 O23 2.152829 1_555
Mg5 O31 2.152829 1_555
Mg5 O29 2.152829 1_555
Mg5 O22 2.152829 1_555
Mg6 O8 2.130478 1_555
Mg6 O12 2.130478 1_554
Mg6 O25 2.140960 1_555
Mg6 O18 2.140960 1_555
Mg6 O16 2.144788 1_555
Mg6 O24 2.144788 1_555
Mg7 O9 2.130478 1_555
Mg7 O13 2.130478 1_554
Mg7 O25 2.140960 1_555
Mg7 O19 2.140960 1_555
Mg7 O17 2.144788 1_555
Mg7 O24 2.144788 1_655
Mg8 O10 2.130478 1_555
Mg8 O14 2.130478 1_554
Mg8 O18 2.140960 1_555
Mg8 O27 2.140960 1_555
Mg8 O26 2.144788 1_555
Mg8 O16 2.144788 1_565
Mg9 O11 2.130478 1_555
Mg9 O15 2.130478 1_554
Mg9 O19 2.140960 1_555
Mg9 O27 2.140960 1_555
Mg9 O17 2.144788 1_565
Mg9 O26 2.144788 1_655
Mg10 O22 2.134431 1_555
Mg10 O29 2.134431 1_555
Mg10 O20 2.145022 1_555
Mg10 O28 2.145022 1_555
Mg10 O12 2.145470 1_555
Mg10 O8 2.145470 1_555
Mg11 O29 2.134431 1_555
Mg11 O23 2.134431 1_555
Mg11 O21 2.145022 1_555
Mg11 O28 2.145022 1_655
Mg11 O13 2.145470 1_555
Mg11 O9 2.145470 1_555
Mg12 O22 2.134431 1_555
Mg12 O31 2.134431 1_555
Mg12 O30 2.145022 1_555
Mg12 O20 2.145022 1_565
Mg12 O14 2.145470 1_555
Mg12 O10 2.145470 1_555
Mg13 O31 2.134431 1_555
Mg13 O23 2.134431 1_555
Mg13 O21 2.145022 1_565
Mg13 O30 2.145022 1_655
Mg13 O15 2.145470 1_555
Mg13 O11 2.145470 1_555
Mg14 O1 2.132785 1_555
Mg14 O20 2.133416 1_555
Mg14 O8 2.140369 1_555
Mg14 O10 2.140369 1_545
Mg14 O16 2.147928 1_555
Mg14 O0 2.150446 1_555
Mg15 O1 2.132785 1_555
Mg15 O21 2.133416 1_555
Mg15 O9 2.140369 1_555
Mg15 O11 2.140369 1_545
Mg15 O17 2.147928 1_555
Mg15 O0 2.150446 1_655
Mg16 O22 2.126653 1_555
Mg16 O2 2.134424 1_555
Mg16 O10 2.138961 1_555
Mg16 O8 2.138961 1_555
Mg16 O3 2.145299 1_555
Mg16 O18 2.150851 1_555
Mg17 O23 2.126653 1_555
Mg17 O2 2.134424 1_655
Mg17 O11 2.138961 1_555
Mg17 O9 2.138961 1_555
Mg17 O3 2.145299 1_555
Mg17 O19 2.150851 1_555
Mg18 O5 2.132785 1_555
Mg18 O20 2.133416 1_555
Mg18 O14 2.140369 1_545
Mg18 O12 2.140369 1_555
Mg18 O16 2.147928 1_556
Mg18 O4 2.150446 1_555
Mg19 O5 2.132785 1_555
Mg19 O21 2.133416 1_555
Mg19 O15 2.140369 1_545
Mg19 O13 2.140369 1_555
Mg19 O17 2.147928 1_556
Mg19 O4 2.150446 1_655
Mg20 O22 2.126653 1_555
Mg20 O6 2.134424 1_555
Mg20 O12 2.138961 1_555
Mg20 O14 2.138961 1_555
Mg20 O7 2.145299 1_555
Mg20 O18 2.150851 1_556
Mg21 O23 2.126653 1_555
Mg21 O6 2.134424 1_655
Mg21 O13 2.138961 1_555
Mg21 O15 2.138961 1_555
Mg21 O7 2.145299 1_555
Mg21 O19 2.150851 1_556
Mg22 O2 2.132785 1_555
Mg22 O28 2.133416 1_555
Mg22 O8 2.140369 1_555
Mg22 O9 2.140369 1_455
Mg22 O24 2.147928 1_555
Mg22 O0 2.150446 1_555
Mg23 O29 2.126653 1_555
Mg23 O1 2.134424 1_555
Mg23 O8 2.138961 1_555
Mg23 O9 2.138961 1_555
Mg23 O3 2.145299 1_555
Mg23 O25 2.150851 1_555
Mg24 O2 2.132785 1_555
Mg24 O30 2.133416 1_555
Mg24 O11 2.140369 1_455
Mg24 O10 2.140369 1_555
Mg24 O26 2.147928 1_555
Mg24 O0 2.150446 1_565
Mg25 O31 2.126653 1_555
Mg25 O1 2.134424 1_565
Mg25 O10 2.138961 1_555
Mg25 O11 2.138961 1_555
Mg25 O3 2.145299 1_555
Mg25 O27 2.150851 1_555
Mg26 O6 2.132785 1_555
Mg26 O28 2.133416 1_555
Mg26 O13 2.140369 1_455
Mg26 O12 2.140369 1_555
Mg26 O24 2.147928 1_556
Mg26 O4 2.150446 1_555
Mg27 O29 2.126653 1_555
Mg27 O5 2.134424 1_555
Mg27 O13 2.138961 1_555
Mg27 O12 2.138961 1_555
Mg27 O7 2.145299 1_555
Mg27 O25 2.150851 1_556
Mg28 O6 2.132785 1_555
Mg28 O30 2.133416 1_555
Mg28 O14 2.140369 1_555
Mg28 O15 2.140369 1_455
Mg28 O26 2.147928 1_556
Mg28 O4 2.150446 1_565
Mg29 O31 2.126653 1_555
Mg29 O5 2.134424 1_565
Mg29 O14 2.138961 1_555
Mg29 O15 2.138961 1_555
Mg29 O7 2.145299 1_555
Mg29 O27 2.150851 1_556
Mn0 O3 2.191778 1_555
Mn0 O7 2.191778 1_554
Mn0 O19 2.226517 1_555
Mn0 O27 2.226517 1_555
Mn0 O25 2.226517 1_555
Mn0 O18 2.226517 1_555
Al0 O24 1.997040 1_555
Al0 O16 1.997040 1_555
Al0 O26 1.997040 1_545
Al0 O17 1.997040 1_455
Al0 O0 2.011872 1_555
Al0 O4 2.011872 1_554
