# generated using pymatgen
data_Hf5NiSn3
_symmetry_space_group_name_H-M   'P 1'
_cell_length_a   5.85355500
_cell_length_b   8.58385432
_cell_length_c   8.58385432
_cell_angle_alpha   120.00000249
_cell_angle_beta   90.00000000
_cell_angle_gamma   90.00000000
_symmetry_Int_Tables_number   1
_chemical_formula_structural   Hf5NiSn3
_chemical_formula_sum   'Hf10 Ni2 Sn6'
_cell_volume   373.52098084
_cell_formula_units_Z   2
loop_
 _symmetry_equiv_pos_site_id
 _symmetry_equiv_pos_as_xyz
  1  'x, y, z'
loop_
 _atom_site_type_symbol
 _atom_site_label
 _atom_site_symmetry_multiplicity
 _atom_site_fract_x
 _atom_site_fract_y
 _atom_site_fract_z
 _atom_site_occupancy
  Hf  Hf0  1  0.75000000  0.74681500  0.74681500  1
  Hf  Hf1  1  0.25000000  0.25318500  0.25318500  1
  Hf  Hf2  1  0.75000000  0.00000000  0.25318500  1
  Hf  Hf3  1  0.25000000  0.00000000  0.74681500  1
  Hf  Hf4  1  0.75000000  0.25318500  0.00000000  1
  Hf  Hf5  1  0.25000000  0.74681500  0.00000000  1
  Hf  Hf6  1  0.00000000  0.66666700  0.33333300  1
  Hf  Hf7  1  0.00000000  0.33333300  0.66666700  1
  Hf  Hf8  1  0.50000000  0.33333300  0.66666700  1
  Hf  Hf9  1  0.50000000  0.66666700  0.33333300  1
  Ni  Ni0  1  0.00000000  0.00000000  0.00000000  1
  Ni  Ni1  1  0.50000000  0.00000000  0.00000000  1
  Sn  Sn0  1  0.75000000  0.39317400  0.39317400  1
  Sn  Sn1  1  0.25000000  0.60682600  0.60682600  1
  Sn  Sn2  1  0.75000000  0.00000000  0.60682600  1
  Sn  Sn3  1  0.25000000  0.00000000  0.39317400  1
  Sn  Sn4  1  0.75000000  0.60682600  0.00000000  1
  Sn  Sn5  1  0.25000000  0.39317400  0.00000000  1
loop_
_geom_bond_atom_site_label_1
_geom_bond_atom_site_label_2
_geom_bond_distance
_geom_bond_site_symmetry_2
Hf0 Ni1 2.620067 1_566
Hf0 Ni0 2.620067 1_666
Hf0 Sn4 2.962893 1_556
Hf0 Sn2 2.962893 1_565
Hf0 Sn0 3.035603 1_555
Hf0 Sn1 3.163855 1_555
Hf0 Sn1 3.163855 1_655
Hf1 Ni0 2.620067 1_555
Hf1 Ni1 2.620067 1_555
Hf1 Sn3 2.962893 1_555
Hf1 Sn5 2.962893 1_555
Hf1 Sn1 3.035603 1_555
Hf1 Sn0 3.163855 1_455
Hf1 Sn0 3.163855 1_555
Hf2 Ni1 2.620067 1_555
Hf2 Ni0 2.620067 1_655
Hf2 Sn4 2.962893 1_545
Hf2 Sn0 2.962893 1_555
Hf2 Sn2 3.035603 1_555
Hf2 Sn3 3.163855 1_655
Hf2 Sn3 3.163855 1_555
Hf3 Ni0 2.620067 1_556
Hf3 Ni1 2.620067 1_556
Hf3 Sn5 2.962893 1_556
Hf3 Sn1 2.962893 1_545
Hf3 Sn3 3.035603 1_555
Hf3 Sn2 3.163855 1_555
Hf3 Sn2 3.163855 1_455
Hf4 Ni1 2.620067 1_555
Hf4 Ni0 2.620067 1_655
Hf4 Sn2 2.962893 1_554
Hf4 Sn0 2.962893 1_555
Hf4 Sn4 3.035603 1_555
Hf4 Sn5 3.163855 1_555
Hf4 Sn5 3.163855 1_655
Hf5 Ni1 2.620067 1_565
Hf5 Ni0 2.620067 1_565
Hf5 Sn3 2.962893 1_565
Hf5 Sn1 2.962893 1_554
Hf5 Sn5 3.035603 1_555
Hf5 Sn4 3.163855 1_455
Hf5 Sn4 3.163855 1_555
Hf6 Hf9 2.926778 1_455
Hf6 Hf9 2.926778 1_555
Hf6 Sn4 3.020356 1_455
Hf6 Sn3 3.020356 1_565
Hf6 Sn2 3.020358 1_465
Hf6 Sn5 3.020358 1_555
Hf6 Sn1 3.020363 1_555
Hf6 Sn0 3.020363 1_455
Hf7 Hf8 2.926778 1_455
Hf7 Hf8 2.926778 1_555
Hf7 Sn2 3.020356 1_455
Hf7 Sn5 3.020356 1_556
Hf7 Sn4 3.020358 1_456
Hf7 Sn3 3.020358 1_555
Hf7 Sn1 3.020363 1_555
Hf7 Sn0 3.020363 1_455
Hf8 Sn2 3.020356 1_555
Hf8 Sn5 3.020356 1_556
Hf8 Sn4 3.020358 1_556
Hf8 Sn3 3.020358 1_555
Hf8 Sn1 3.020363 1_555
Hf8 Sn0 3.020363 1_555
Hf9 Sn4 3.020356 1_555
Hf9 Sn3 3.020356 1_565
Hf9 Sn2 3.020358 1_565
Hf9 Sn5 3.020358 1_555
Hf9 Sn1 3.020363 1_555
Hf9 Sn0 3.020363 1_555
Ni0 Ni1 2.926778 1_455
Ni0 Ni1 2.926778 1_555
