# generated using pymatgen
data_DyRh2
_symmetry_space_group_name_H-M   'P 1'
_cell_length_a   5.29426079
_cell_length_b   5.29426073
_cell_length_c   5.29426109
_cell_angle_alpha   59.99999779
_cell_angle_beta   59.99999816
_cell_angle_gamma   59.99999102
_symmetry_Int_Tables_number   1
_chemical_formula_structural   DyRh2
_chemical_formula_sum   'Dy2 Rh4'
_cell_volume   104.93031334
_cell_formula_units_Z   2
loop_
 _symmetry_equiv_pos_site_id
 _symmetry_equiv_pos_as_xyz
  1  'x, y, z'
loop_
 _atom_site_type_symbol
 _atom_site_label
 _atom_site_symmetry_multiplicity
 _atom_site_fract_x
 _atom_site_fract_y
 _atom_site_fract_z
 _atom_site_occupancy
  Dy  Dy0  1  0.12500000  0.12500000  0.12500000  1
  Dy  Dy1  1  0.87500000  0.87500000  0.87500000  1
  Rh  Rh0  1  0.50000000  -0.00000000  0.50000000  1
  Rh  Rh1  1  -0.00000000  0.50000000  0.50000000  1
  Rh  Rh2  1  0.50000000  0.50000000  0.50000000  1
  Rh  Rh3  1  0.50000000  0.50000000  0.00000000  1
loop_
_geom_bond_atom_site_label_1
_geom_bond_atom_site_label_2
_geom_bond_distance
_geom_bond_site_symmetry_2
Dy0 Rh3 3.104035 1_545
Dy0 Rh2 3.104035 1_545
Dy0 Rh3 3.104035 1_455
Dy0 Rh2 3.104035 1_455
Dy0 Rh1 3.104036 1_545
Dy0 Rh0 3.104036 1_455
Dy0 Rh1 3.104036 1_555
Dy0 Rh1 3.104036 1_554
Dy0 Rh0 3.104036 1_555
Dy0 Rh0 3.104036 1_554
Dy0 Rh3 3.104036 1_555
Dy0 Rh2 3.104036 1_554
Dy1 Rh3 3.104035 1_566
Dy1 Rh2 3.104035 1_565
Dy1 Rh3 3.104035 1_656
Dy1 Rh2 3.104035 1_655
Dy1 Rh1 3.104036 1_665
Dy1 Rh0 3.104036 1_665
Dy1 Rh1 3.104036 1_655
Dy1 Rh1 3.104036 1_656
Dy1 Rh0 3.104036 1_565
Dy1 Rh0 3.104036 1_566
Dy1 Rh3 3.104036 1_556
Dy1 Rh2 3.104036 1_556
Rh0 Rh1 2.647130 1_645
Rh0 Rh1 2.647130 1_555
Rh0 Rh2 2.647130 1_545
Rh0 Rh2 2.647130 1_555
Rh0 Rh3 2.647130 1_546
Rh0 Rh3 2.647130 1_555
Rh1 Rh2 2.647130 1_555
Rh1 Rh2 2.647130 1_455
Rh1 Rh3 2.647130 1_456
Rh1 Rh3 2.647130 1_555
Rh2 Rh3 2.647131 1_556
Rh2 Rh3 2.647131 1_555
