# generated using pymatgen
data_Li5Mn(CoO4)2
_symmetry_space_group_name_H-M   'P 1'
_cell_length_a   6.52700630
_cell_length_b   6.52700630
_cell_length_c   9.86759780
_cell_angle_alpha   52.29651047
_cell_angle_beta   52.29651047
_cell_angle_gamma   25.83249463
_symmetry_Int_Tables_number   1
_chemical_formula_structural   Li5Mn(CoO4)2
_chemical_formula_sum   'Li5 Mn1 Co2 O8'
_cell_volume   142.63108415
_cell_formula_units_Z   1
loop_
 _symmetry_equiv_pos_site_id
 _symmetry_equiv_pos_as_xyz
  1  'x, y, z'
loop_
 _atom_site_type_symbol
 _atom_site_label
 _atom_site_symmetry_multiplicity
 _atom_site_fract_x
 _atom_site_fract_y
 _atom_site_fract_z
 _atom_site_occupancy
  Li  Li0  1  0.87528700  0.87528700  0.38236500  1
  Li  Li1  1  0.62608500  0.62608500  0.12769800  1
  Li  Li2  1  0.37391500  0.37391500  0.87230200  1
  Li  Li3  1  0.12471300  0.12471300  0.61763500  1
  Li  Li4  1  0.50000000  0.50000000  0.50000000  1
  Mn  Mn0  1  0.00000000  0.00000000  0.00000000  1
  Co  Co0  1  0.76859800  0.76859800  0.73516200  1
  Co  Co1  1  0.23140200  0.23140200  0.26483800  1
  O  O0  1  0.81984000  0.81984000  0.07141900  1
  O  O1  1  0.55750400  0.55750400  0.83429100  1
  O  O2  1  0.30354300  0.30354300  0.57841300  1
  O  O3  1  0.07414800  0.07414800  0.30421600  1
  O  O4  1  0.92585200  0.92585200  0.69578400  1
  O  O5  1  0.69645700  0.69645700  0.42158700  1
  O  O6  1  0.44249600  0.44249600  0.16570900  1
  O  O7  1  0.18016000  0.18016000  0.92858100  1
loop_
_geom_bond_atom_site_label_1
_geom_bond_atom_site_label_2
_geom_bond_distance
_geom_bond_site_symmetry_2
Li0 O5 2.054762 1_555
Li0 O2 2.118529 1_565
Li0 O2 2.118529 1_655
Li0 O3 2.132671 1_665
Li0 O6 2.266304 1_565
Li0 O6 2.266304 1_655
Li1 O3 2.038311 1_565
Li1 O3 2.038311 1_655
Li1 O6 2.120798 1_555
Li1 O0 2.160551 1_555
Li1 O7 2.183110 1_564
Li1 O7 2.183110 1_654
Li2 O4 2.038311 1_545
Li2 O4 2.038311 1_455
Li2 O1 2.120798 1_555
Li2 O7 2.160551 1_555
Li2 O0 2.183110 1_546
Li2 O0 2.183110 1_456
Li3 O2 2.054762 1_555
Li3 O5 2.118529 1_545
Li3 O5 2.118529 1_455
Li3 O4 2.132671 1_445
Li3 O1 2.266304 1_545
Li3 O1 2.266304 1_455
Li4 O5 2.102352 1_555
Li4 O2 2.102352 1_555
Li4 O4 2.112748 1_455
Li4 O4 2.112748 1_545
Li4 O3 2.112748 1_655
Li4 O3 2.112748 1_565
Mn0 O7 1.929783 1_554
Mn0 O0 1.929783 1_445
Mn0 O6 1.958639 1_545
Mn0 O1 1.958639 1_544
Mn0 O1 1.958639 1_454
Mn0 O6 1.958639 1_455
Co0 O4 1.782909 1_555
Co0 O2 1.963574 1_655
Co0 O2 1.963574 1_565
Co0 O7 2.083834 1_655
Co0 O7 2.083834 1_565
Co0 O1 2.207696 1_555
Co1 O3 1.782909 1_555
Co1 O5 1.963574 1_455
Co1 O5 1.963574 1_545
Co1 O0 2.083834 1_545
Co1 O0 2.083834 1_455
Co1 O6 2.207696 1_555
