# generated using pymatgen
data_Na7Sn12
_symmetry_space_group_name_H-M   'P 1'
_cell_length_a   9.52203948
_cell_length_b   13.76693305
_cell_length_c   17.98895704
_cell_angle_alpha   90.30099818
_cell_angle_beta   90.06134039
_cell_angle_gamma   89.90941778
_symmetry_Int_Tables_number   1
_chemical_formula_structural   Na7Sn12
_chemical_formula_sum   'Na28 Sn48'
_cell_volume   2358.12260847
_cell_formula_units_Z   4
loop_
 _symmetry_equiv_pos_site_id
 _symmetry_equiv_pos_as_xyz
  1  'x, y, z'
loop_
 _atom_site_type_symbol
 _atom_site_label
 _atom_site_symmetry_multiplicity
 _atom_site_fract_x
 _atom_site_fract_y
 _atom_site_fract_z
 _atom_site_occupancy
  Na  Na0  1  0.18296089  0.40493420  0.48758053  1
  Na  Na1  1  0.81703911  0.59506580  0.51241947  1
  Na  Na2  1  0.18365015  0.09636913  0.01241842  1
  Na  Na3  1  0.81634985  0.90363087  0.98758158  1
  Na  Na4  1  0.55593465  0.77443893  0.41851925  1
  Na  Na5  1  0.44406535  0.22556107  0.58148075  1
  Na  Na6  1  0.55361829  0.71865567  0.07760622  1
  Na  Na7  1  0.44638171  0.28134433  0.92239378  1
  Na  Na8  1  0.26744695  0.41239319  0.27874311  1
  Na  Na9  1  0.73255305  0.58760681  0.72125689  1
  Na  Na10  1  0.26784703  0.08923706  0.21990743  1
  Na  Na11  1  0.73215297  0.91076294  0.78009257  1
  Na  Na12  1  0.17680825  0.76387645  0.47778160  1
  Na  Na13  1  0.82319175  0.23612355  0.52221840  1
  Na  Na14  1  0.18514880  0.72805350  0.02076346  1
  Na  Na15  1  0.81485120  0.27194650  0.97923654  1
  Na  Na16  1  0.55531025  0.39760042  0.42454959  1
  Na  Na17  1  0.44468975  0.60239958  0.57545041  1
  Na  Na18  1  0.55458132  0.10279232  0.07511261  1
  Na  Na19  1  0.44541868  0.89720768  0.92488739  1
  Na  Na20  1  0.26795299  0.74866671  0.24911545  1
  Na  Na21  1  0.73204701  0.25133329  0.75088455  1
  Na  Na22  1  0.13986804  0.08518589  0.49001965  1
  Na  Na23  1  0.86013196  0.91481411  0.50998035  1
  Na  Na24  1  0.14937747  0.42106210  0.00810727  1
  Na  Na25  1  0.85062253  0.57893790  0.99189273  1
  Na  Na26  1  0.59892768  0.06778846  0.44746115  1
  Na  Na27  1  0.40107232  0.93221154  0.55253885  1
  Sn  Sn0  1  0.35077924  0.58806213  0.40032277  1
  Sn  Sn1  1  0.64922076  0.41193787  0.59967723  1
  Sn  Sn2  1  0.35062393  0.91146848  0.10080826  1
  Sn  Sn3  1  0.64937607  0.08853152  0.89919174  1
  Sn  Sn4  1  0.71687203  0.41628717  0.26010463  1
  Sn  Sn5  1  0.28312797  0.58371283  0.73989537  1
  Sn  Sn6  1  0.71504462  0.08408948  0.24010799  1
  Sn  Sn7  1  0.28495538  0.91591052  0.75989201  1
  Sn  Sn8  1  0.05744106  0.58385630  0.34180759  1
  Sn  Sn9  1  0.94255894  0.41614370  0.65819241  1
  Sn  Sn10  1  0.05748661  0.91586354  0.15794373  1
  Sn  Sn11  1  0.94251339  0.08413646  0.84205627  1
  Sn  Sn12  1  0.89921283  0.41183191  0.39060064  1
  Sn  Sn13  1  0.10078717  0.58816809  0.60939936  1
  Sn  Sn14  1  0.90029069  0.08867972  0.11090024  1
  Sn  Sn15  1  0.09970931  0.91132028  0.88909976  1
  Sn  Sn16  1  0.88465926  0.08283295  0.37326839  1
  Sn  Sn17  1  0.11534074  0.91716705  0.62673161  1
  Sn  Sn18  1  0.87600390  0.41737124  0.12425733  1
  Sn  Sn19  1  0.12399610  0.58262876  0.87574267  1
  Sn  Sn20  1  0.05820349  0.92176840  0.32504292  1
  Sn  Sn21  1  0.94179651  0.07823160  0.67495708  1
  Sn  Sn22  1  0.06195693  0.57522908  0.17376231  1
  Sn  Sn23  1  0.93804307  0.42477092  0.82623769  1
  Sn  Sn24  1  0.52490033  0.25065968  0.25011995  1
  Sn  Sn25  1  0.47509967  0.74934032  0.74988005  1
  Sn  Sn26  1  0.34992242  0.95894452  0.37293488  1
  Sn  Sn27  1  0.65007758  0.04105548  0.62706512  1
  Sn  Sn28  1  0.35885575  0.53777503  0.12314920  1
  Sn  Sn29  1  0.64114425  0.46222497  0.87685080  1
  Sn  Sn30  1  0.71060781  0.74871725  0.25023384  1
  Sn  Sn31  1  0.28939219  0.25128275  0.74976616  1
  Sn  Sn32  1  0.52116368  0.57959326  0.26166767  1
  Sn  Sn33  1  0.47883632  0.42040674  0.73833233  1
  Sn  Sn34  1  0.52349228  0.91889400  0.23851110  1
  Sn  Sn35  1  0.47650772  0.08110600  0.76148890  1
  Sn  Sn36  1  0.06248086  0.24344121  0.33390702  1
  Sn  Sn37  1  0.93751914  0.75655879  0.66609298  1
  Sn  Sn38  1  0.06279759  0.25869278  0.16488045  1
  Sn  Sn39  1  0.93720241  0.74130722  0.83511955  1
  Sn  Sn40  1  0.35597961  0.20092398  0.38407546  1
  Sn  Sn41  1  0.64402039  0.79907602  0.61592454  1
  Sn  Sn42  1  0.36027291  0.30323977  0.11545549  1
  Sn  Sn43  1  0.63972709  0.69676023  0.88454451  1
  Sn  Sn44  1  0.89259357  0.75576363  0.37994878  1
  Sn  Sn45  1  0.10740643  0.24423637  0.62005122  1
  Sn  Sn46  1  0.89465742  0.74335660  0.12140002  1
  Sn  Sn47  1  0.10534258  0.25664340  0.87859998  1
loop_
_geom_bond_atom_site_label_1
_geom_bond_atom_site_label_2
_geom_bond_distance
_geom_bond_site_symmetry_2
Na0 Sn12 3.216118 1_455
Na0 Sn45 3.339874 1_555
Na0 Sn0 3.381284 1_555
Na0 Sn13 3.423033 1_555
Na0 Sn36 3.719913 1_555
Na0 Sn40 3.742496 1_555
Na0 Na8 3.844713 1_555
Na0 Na5 3.892063 1_555
Na1 Sn13 3.216118 1_655
Na1 Sn44 3.339874 1_555
Na1 Sn1 3.381284 1_555
Na1 Sn12 3.423033 1_555
Na1 Sn37 3.719913 1_555
Na1 Sn41 3.742496 1_555
Na1 Na9 3.844713 1_555
Na1 Na4 3.892063 1_555
Na2 Sn14 3.231547 1_455
Na2 Sn47 3.356516 1_554
Na2 Sn2 3.400011 1_545
Na2 Sn15 3.463141 1_544
Na2 Sn38 3.711388 1_555
Na2 Sn42 3.785237 1_555
Na2 Na7 3.929165 1_554
Na3 Sn15 3.231547 1_655
Na3 Sn46 3.356516 1_556
Na3 Sn3 3.400011 1_565
Na3 Sn14 3.463141 1_566
Na3 Sn39 3.711388 1_555
Na3 Sn43 3.785237 1_555
Na3 Na6 3.929165 1_556
Na4 Sn0 3.242295 1_555
Na4 Sn44 3.290012 1_555
Na4 Sn26 3.312883 1_555
Na4 Sn30 3.384612 1_555
Na4 Sn41 3.662081 1_555
Na5 Sn1 3.242295 1_555
Na5 Sn45 3.290012 1_555
Na5 Sn27 3.312883 1_555
Na5 Sn31 3.384612 1_555
Na5 Sn40 3.662081 1_555
Na6 Sn28 3.217259 1_555
Na6 Sn2 3.306102 1_555
Na6 Sn46 3.358125 1_555
Na6 Sn30 3.468119 1_555
Na6 Sn43 3.580370 1_554
Na7 Sn29 3.217259 1_555
Na7 Sn3 3.306102 1_555
Na7 Sn47 3.358125 1_555
Na7 Sn31 3.468119 1_555
Na7 Sn42 3.580370 1_556
Na8 Sn36 3.201039 1_555
Na8 Sn8 3.289316 1_555
Na8 Sn24 3.347524 1_555
Na8 Sn0 3.347917 1_555
Na8 Sn32 3.354991 1_555
Na8 Sn42 3.409185 1_555
Na8 Sn28 3.410582 1_555
Na8 Sn38 3.525493 1_555
Na8 Sn22 3.527488 1_555
Na8 Sn40 3.580971 1_555
Na9 Sn37 3.201039 1_555
Na9 Sn9 3.289316 1_555
Na9 Sn25 3.347524 1_555
Na9 Sn1 3.347917 1_555
Na9 Sn33 3.354991 1_555
Na9 Sn43 3.409185 1_555
Na9 Sn29 3.410582 1_555
Na9 Sn39 3.525493 1_555
Na9 Sn23 3.527488 1_555
Na9 Sn41 3.580971 1_555
Na10 Sn38 3.200023 1_555
Na10 Sn10 3.306663 1_545
Na10 Sn2 3.338156 1_545
Na10 Sn24 3.350632 1_555
Na10 Sn26 3.383640 1_545
Na10 Sn34 3.394936 1_545
Na10 Sn40 3.426508 1_555
Na10 Sn36 3.533555 1_555
Na10 Sn20 3.598027 1_545
Na10 Sn42 3.613154 1_555
Na10 Na18 3.780977 1_555
Na10 Na2 3.818539 1_555
Na11 Sn39 3.200023 1_555
Na11 Sn11 3.306663 1_565
Na11 Sn3 3.338156 1_565
Na11 Sn25 3.350632 1_555
Na11 Sn27 3.383640 1_565
Na11 Sn35 3.394936 1_565
Na11 Sn41 3.426508 1_555
Na11 Sn37 3.533555 1_555
Na11 Sn21 3.598027 1_565
Na11 Sn43 3.613154 1_555
Na11 Na19 3.780977 1_555
Na11 Na3 3.818539 1_555
Na12 Sn44 3.228394 1_455
Na12 Sn0 3.240531 1_555
Na12 Na27 3.422867 1_555
Na12 Sn17 3.451903 1_555
Na12 Sn13 3.471399 1_555
Na12 Sn8 3.654631 1_555
Na12 Sn26 3.682425 1_555
Na12 Sn20 3.687557 1_555
Na12 Na23 3.703689 1_455
Na12 Na4 3.768512 1_555
Na12 Na17 3.814289 1_555
Na13 Sn45 3.228394 1_655
Na13 Sn1 3.240531 1_555
Na13 Na26 3.422867 1_555
Na13 Sn16 3.451903 1_555
Na13 Sn12 3.471399 1_555
Na13 Sn9 3.654631 1_555
Na13 Sn27 3.682425 1_555
Na13 Sn21 3.687557 1_555
Na13 Na22 3.703689 1_655
Na13 Na5 3.768512 1_555
Na13 Na16 3.814289 1_555
Na14 Sn2 3.301748 1_555
Na14 Sn46 3.313270 1_455
Na14 Sn19 3.331447 1_554
Na14 Sn15 3.562224 1_554
Na14 Sn28 3.608414 1_555
Na14 Na6 3.655782 1_555
Na14 Sn22 3.667856 1_555
Na14 Sn10 3.765899 1_555
Na14 Na19 3.822198 1_554
Na14 Na25 3.825769 1_454
Na15 Sn3 3.301748 1_555
Na15 Sn47 3.313270 1_655
Na15 Sn18 3.331447 1_556
Na15 Sn14 3.562224 1_556
Na15 Sn29 3.608414 1_555
Na15 Na7 3.655782 1_555
Na15 Sn23 3.667856 1_555
Na15 Sn11 3.765899 1_555
Na15 Na18 3.822198 1_556
Na15 Na24 3.825769 1_656
Na16 Sn1 3.278928 1_555
Na16 Sn0 3.294269 1_555
Na16 Sn12 3.338005 1_555
Na16 Sn4 3.347051 1_555
Na16 Sn40 3.384744 1_555
Na16 Na8 3.797749 1_555
Na16 Na5 3.845220 1_555
Na17 Sn0 3.278928 1_555
Na17 Sn1 3.294269 1_555
Na17 Sn13 3.338005 1_555
Na17 Sn5 3.347051 1_555
Na17 Sn41 3.384744 1_555
Na17 Na9 3.797749 1_555
Na17 Na4 3.845220 1_555
Na18 Sn3 3.296549 1_554
Na18 Sn2 3.309671 1_545
Na18 Sn6 3.347768 1_555
Na18 Sn14 3.359061 1_555
Na18 Sn42 3.395696 1_555
Na18 Na2 3.707606 1_555
Na18 Na7 3.835112 1_554
Na19 Sn2 3.296549 1_556
Na19 Sn3 3.309671 1_565
Na19 Sn7 3.347768 1_555
Na19 Sn15 3.359061 1_555
Na19 Sn43 3.395696 1_555
Na19 Na3 3.707606 1_555
Na19 Na6 3.835112 1_556
Na20 Sn32 3.356895 1_555
Na20 Sn22 3.370635 1_555
Na20 Sn34 3.387163 1_555
Na20 Sn20 3.389720 1_555
Na20 Sn8 3.465216 1_555
Na20 Sn10 3.467338 1_555
Na20 Sn2 3.582397 1_555
Na20 Sn0 3.600346 1_555
Na20 Sn26 3.726452 1_555
Na21 Sn33 3.356895 1_555
Na21 Sn23 3.370635 1_555
Na21 Sn35 3.387163 1_555
Na21 Sn21 3.389720 1_555
Na21 Sn9 3.465216 1_555
Na21 Sn11 3.467338 1_555
Na21 Sn3 3.582397 1_555
Na21 Sn1 3.600346 1_555
Na21 Sn27 3.726452 1_555
Na22 Sn16 3.210305 1_455
Na22 Sn45 3.210481 1_555
Na22 Sn40 3.233615 1_555
Na22 Sn26 3.378885 1_545
Na22 Sn17 3.393507 1_545
Na22 Na27 3.447973 1_545
Na22 Na23 3.571556 1_445
Na22 Sn36 3.637449 1_555
Na22 Na5 3.847847 1_555
Na23 Sn17 3.210305 1_655
Na23 Sn44 3.210481 1_555
Na23 Sn41 3.233615 1_555
Na23 Sn27 3.378885 1_565
Na23 Sn16 3.393507 1_565
Na23 Na26 3.447973 1_565
Na23 Sn37 3.637449 1_555
Na23 Na4 3.847847 1_555
Na24 Sn42 3.226008 1_555
Na24 Sn47 3.266871 1_554
Na24 Sn19 3.275390 1_554
Na24 Sn28 3.287785 1_555
Na24 Sn18 3.340273 1_455
Na24 Na25 3.589847 1_454
Na24 Sn38 3.702275 1_555
Na24 Sn22 3.743124 1_555
Na24 Na7 3.746503 1_554
Na25 Sn43 3.226008 1_555
Na25 Sn46 3.266871 1_556
Na25 Sn18 3.275390 1_556
Na25 Sn29 3.287785 1_555
Na25 Sn19 3.340273 1_655
Na25 Sn39 3.702275 1_555
Na25 Sn23 3.743124 1_555
Na25 Na6 3.746503 1_556
Na26 Sn16 3.039592 1_555
Na26 Sn26 3.106095 1_545
Na26 Sn40 3.164506 1_555
Na26 Na27 3.265266 1_545
Na26 Sn27 3.289356 1_555
Na26 Na5 3.556264 1_555
Na27 Sn17 3.039592 1_555
Na27 Sn27 3.106095 1_565
Na27 Sn41 3.164506 1_555
Na27 Sn26 3.289356 1_555
Na27 Na4 3.556264 1_555
Sn0 Sn32 2.978615 1_555
Sn0 Sn8 2.984425 1_555
Sn1 Sn33 2.978615 1_555
Sn1 Sn9 2.984425 1_555
Sn2 Sn34 2.974101 1_555
Sn3 Sn35 2.974101 1_555
Sn10 Sn46 2.910200 1_455
Sn10 Sn14 2.936695 1_465
Sn10 Sn2 2.975931 1_555
Sn10 Sn20 3.006613 1_555
Sn11 Sn47 2.910200 1_655
Sn11 Sn15 2.936695 1_645
Sn11 Sn3 2.975931 1_555
Sn11 Sn21 3.006613 1_555
Sn12 Sn4 2.919160 1_555
Sn12 Sn8 2.947030 1_655
Sn12 Sn36 2.966201 1_655
Sn13 Sn5 2.919160 1_555
Sn13 Sn9 2.947030 1_455
Sn13 Sn37 2.966201 1_455
Sn14 Sn6 2.920362 1_555
Sn14 Sn38 2.966469 1_655
Sn15 Sn7 2.920362 1_555
Sn15 Sn39 2.966469 1_455
Sn16 Sn36 2.878909 1_655
Sn16 Sn6 2.887708 1_555
Sn16 Sn20 2.893323 1_645
Sn17 Sn37 2.878909 1_455
Sn17 Sn7 2.887708 1_555
Sn17 Sn21 2.893323 1_465
Sn18 Sn4 2.876897 1_555
Sn18 Sn38 2.910576 1_655
Sn18 Sn22 2.939321 1_655
Sn19 Sn5 2.876897 1_555
Sn19 Sn39 2.910576 1_455
Sn19 Sn23 2.939321 1_455
Sn20 Sn26 2.952093 1_555
Sn20 Sn44 2.953590 1_455
Sn21 Sn27 2.952093 1_555
Sn21 Sn45 2.953590 1_655
Sn22 Sn46 2.964864 1_455
Sn22 Sn28 3.013835 1_555
Sn22 Sn8 3.025017 1_555
Sn23 Sn47 2.964864 1_655
Sn23 Sn29 3.013835 1_555
Sn23 Sn9 3.025017 1_555
Sn24 Sn6 2.924447 1_555
Sn24 Sn4 2.929354 1_555
Sn24 Sn42 2.975970 1_555
Sn24 Sn40 2.981923 1_555
Sn25 Sn7 2.924447 1_555
Sn25 Sn5 2.929354 1_555
Sn25 Sn43 2.975970 1_555
Sn25 Sn41 2.981923 1_555
Sn26 Sn34 2.979034 1_555
Sn26 Sn40 3.336872 1_565
Sn27 Sn35 2.979034 1_555
Sn27 Sn41 3.336872 1_545
Sn28 Sn32 2.984727 1_555
Sn28 Sn42 3.231077 1_555
Sn29 Sn33 2.984727 1_555
Sn29 Sn43 3.231077 1_555
Sn30 Sn44 2.906319 1_555
Sn30 Sn46 2.907661 1_555
Sn30 Sn34 2.949399 1_555
Sn30 Sn32 2.955760 1_555
Sn31 Sn45 2.906319 1_555
Sn31 Sn47 2.907661 1_555
Sn31 Sn35 2.949399 1_555
Sn31 Sn33 2.955760 1_555
Sn32 Sn4 2.917926 1_555
Sn33 Sn5 2.917926 1_555
Sn34 Sn6 2.917559 1_565
Sn35 Sn7 2.917559 1_545
Sn36 Sn40 2.993734 1_555
Sn36 Sn38 3.048958 1_555
Sn37 Sn41 2.993734 1_555
Sn37 Sn39 3.048958 1_555
Sn38 Sn42 3.034253 1_555
Sn39 Sn43 3.034253 1_555
Sn44 Sn8 2.917043 1_655
Sn45 Sn9 2.917043 1_455
