# generated using pymatgen
data_KZr6BI14
_symmetry_space_group_name_H-M   'P 1'
_cell_length_a   10.88467369
_cell_length_b   10.88467369
_cell_length_c   13.13497800
_cell_angle_alpha   90.00000000
_cell_angle_beta   90.00000000
_cell_angle_gamma   95.57567393
_symmetry_Int_Tables_number   1
_chemical_formula_structural   KZr6BI14
_chemical_formula_sum   'K2 Zr12 B2 I28'
_cell_volume   1548.81854944
_cell_formula_units_Z   2
loop_
 _symmetry_equiv_pos_site_id
 _symmetry_equiv_pos_as_xyz
  1  'x, y, z'
loop_
 _atom_site_type_symbol
 _atom_site_label
 _atom_site_symmetry_multiplicity
 _atom_site_fract_x
 _atom_site_fract_y
 _atom_site_fract_z
 _atom_site_occupancy
  K  K0  1  0.50000000  0.50000000  0.00000000  1
  K  K1  1  0.00000000  0.00000000  0.50000000  1
  Zr  Zr0  1  0.36613100  0.36613100  0.40190100  1
  Zr  Zr1  1  0.63386900  0.63386900  0.59809900  1
  Zr  Zr2  1  0.13386900  0.13386900  0.90190100  1
  Zr  Zr3  1  0.86613100  0.86613100  0.09809900  1
  Zr  Zr4  1  0.95787900  0.17065800  0.10841000  1
  Zr  Zr5  1  0.04212100  0.82934200  0.89159000  1
  Zr  Zr6  1  0.54212100  0.32934200  0.60841000  1
  Zr  Zr7  1  0.67065800  0.45787900  0.39159000  1
  Zr  Zr8  1  0.45787900  0.67065800  0.39159000  1
  Zr  Zr9  1  0.32934200  0.54212100  0.60841000  1
  Zr  Zr10  1  0.82934200  0.04212100  0.89159000  1
  Zr  Zr11  1  0.17065800  0.95787900  0.10841000  1
  B  B0  1  0.00000000  0.00000000  0.00000000  1
  B  B1  1  0.50000000  0.50000000  0.50000000  1
  I  I0  1  0.11593900  0.36580300  0.00632700  1
  I  I1  1  0.88406100  0.63419700  0.99367300  1
  I  I2  1  0.38406100  0.13419700  0.50632700  1
  I  I3  1  0.86580300  0.61593900  0.49367300  1
  I  I4  1  0.61593900  0.86580300  0.49367300  1
  I  I5  1  0.13419700  0.38406100  0.50632700  1
  I  I6  1  0.63419700  0.88406100  0.99367300  1
  I  I7  1  0.36580300  0.11593900  0.00632700  1
  I  I8  1  0.74925600  0.25074400  0.00000000  1
  I  I9  1  0.25074400  0.74925600  0.00000000  1
  I  I10  1  0.75074400  0.24925600  0.50000000  1
  I  I11  1  0.24925600  0.75074400  0.50000000  1
  I  I12  1  0.90041300  0.40041300  0.25000000  1
  I  I13  1  0.09958700  0.59958700  0.75000000  1
  I  I14  1  0.59958700  0.09958700  0.75000000  1
  I  I15  1  0.40041300  0.90041300  0.25000000  1
  I  I16  1  0.15635100  0.15635100  0.26055800  1
  I  I17  1  0.84364900  0.84364900  0.73944200  1
  I  I18  1  0.34364900  0.34364900  0.76055800  1
  I  I19  1  0.65635100  0.65635100  0.23944200  1
  I  I20  1  0.28704600  0.53547700  0.25100700  1
  I  I21  1  0.71295400  0.46452300  0.74899300  1
  I  I22  1  0.21295400  0.96452300  0.75100700  1
  I  I23  1  0.03547700  0.78704600  0.24899300  1
  I  I24  1  0.78704600  0.03547700  0.24899300  1
  I  I25  1  0.96452300  0.21295400  0.75100700  1
  I  I26  1  0.46452300  0.71295400  0.74899300  1
  I  I27  1  0.53547700  0.28704600  0.25100700  1
loop_
_geom_bond_atom_site_label_1
_geom_bond_atom_site_label_2
_geom_bond_distance
_geom_bond_site_symmetry_2
B0 Zr3 2.343955 1_445
B0 Zr2 2.343955 1_554
B0 Zr10 2.419479 1_454
B0 Zr5 2.419479 1_544
B0 Zr4 2.419479 1_455
B0 Zr11 2.419479 1_545
B1 Zr0 2.343955 1_555
B1 Zr1 2.343955 1_555
B1 Zr7 2.419479 1_555
B1 Zr6 2.419479 1_555
B1 Zr8 2.419479 1_555
B1 Zr9 2.419479 1_555
I0 Zr2 2.896280 1_554
I0 Zr4 2.925650 1_455
I1 Zr3 2.896280 1_556
I1 Zr5 2.925650 1_655
I2 Zr0 2.896280 1_555
I2 Zr6 2.925650 1_555
I3 Zr1 2.896280 1_555
I3 Zr7 2.925650 1_555
I4 Zr1 2.896280 1_555
I4 Zr8 2.925650 1_555
I5 Zr0 2.896280 1_555
I5 Zr9 2.925650 1_555
I6 Zr3 2.896280 1_556
I6 Zr10 2.925650 1_565
I7 Zr2 2.896280 1_554
I7 Zr11 2.925650 1_545
I8 Zr4 2.885949 1_555
I8 Zr10 2.885949 1_554
I8 K0 4.018936 1_555
I9 Zr11 2.885949 1_555
I9 Zr5 2.885949 1_554
I9 K0 4.018936 1_555
I10 Zr7 2.885949 1_555
I10 Zr6 2.885949 1_555
I10 K1 4.018936 1_655
I11 Zr8 2.885949 1_555
I11 Zr9 2.885949 1_555
I11 K1 4.018936 1_565
I12 Zr7 3.226150 1_555
I12 Zr4 3.226150 1_555
I13 Zr5 3.226150 1_555
I13 Zr9 3.226150 1_555
I14 Zr10 3.226150 1_555
I14 Zr6 3.226150 1_555
I15 Zr8 3.226150 1_555
I15 Zr11 3.226150 1_555
I16 Zr11 2.958104 1_545
I16 Zr4 2.958104 1_455
I16 Zr0 3.586263 1_555
I16 K1 3.888584 1_555
I17 Zr10 2.958104 1_565
I17 Zr5 2.958104 1_655
I17 Zr1 3.586263 1_555
I17 K1 3.888584 1_665
I18 Zr9 2.958104 1_555
I18 Zr6 2.958104 1_555
I18 Zr2 3.586263 1_555
I18 K0 3.888584 1_556
I19 Zr7 2.958104 1_555
I19 Zr8 2.958104 1_555
I19 Zr3 3.586263 1_555
I19 K0 3.888584 1_555
I20 Zr0 2.894008 1_555
I20 Zr8 2.915599 1_555
I20 K0 4.070122 1_555
I21 Zr1 2.894008 1_555
I21 Zr6 2.915599 1_555
I21 K0 4.070122 1_556
I22 Zr2 2.894008 1_565
I22 Zr5 2.915599 1_555
I22 K1 4.070122 1_565
I23 Zr3 2.894008 1_455
I23 Zr11 2.915599 1_555
I23 K1 4.070122 1_565
I24 Zr3 2.894008 1_545
I24 Zr4 2.915599 1_555
I24 K1 4.070122 1_655
I25 Zr2 2.894008 1_655
I25 Zr10 2.915599 1_555
I25 K1 4.070122 1_655
I26 Zr1 2.894008 1_555
I26 Zr9 2.915599 1_555
I26 K0 4.070122 1_556
I27 Zr0 2.894008 1_555
I27 Zr7 2.915599 1_555
I27 K0 4.070122 1_555
