# generated using pymatgen
data_Tl2PO4
_symmetry_space_group_name_H-M   'P 1'
_cell_length_a   6.39275900
_cell_length_b   5.50472300
_cell_length_c   17.38313415
_cell_angle_alpha   78.95829169
_cell_angle_beta   90.00000000
_cell_angle_gamma   90.00000000
_symmetry_Int_Tables_number   1
_chemical_formula_structural   Tl2PO4
_chemical_formula_sum   'Tl8 P4 O16'
_cell_volume   600.39475427
_cell_formula_units_Z   4
loop_
 _symmetry_equiv_pos_site_id
 _symmetry_equiv_pos_as_xyz
  1  'x, y, z'
loop_
 _atom_site_type_symbol
 _atom_site_label
 _atom_site_symmetry_multiplicity
 _atom_site_fract_x
 _atom_site_fract_y
 _atom_site_fract_z
 _atom_site_occupancy
  Tl  Tl0  1  0.07424100  0.16558900  0.10982000  1
  Tl  Tl1  1  0.92575900  0.16558900  0.60982000  1
  Tl  Tl2  1  0.58033700  0.61307000  0.02612300  1
  Tl  Tl3  1  0.41966300  0.61307000  0.52612300  1
  Tl  Tl4  1  0.59974400  0.37757300  0.75879500  1
  Tl  Tl5  1  0.40025600  0.37757300  0.25879500  1
  Tl  Tl6  1  0.84822100  0.74016200  0.33896900  1
  Tl  Tl7  1  0.15177900  0.74016200  0.83896900  1
  P  P0  1  0.58961600  0.93593300  0.16165900  1
  P  P1  1  0.41038400  0.93593300  0.66165900  1
  P  P2  1  0.91092100  0.17392100  0.39606600  1
  P  P3  1  0.08907900  0.17392100  0.89606600  1
  O  O0  1  0.38955800  0.81375000  0.13518800  1
  O  O1  1  0.61044200  0.81375000  0.63518800  1
  O  O2  1  0.57700300  0.22270600  0.14443600  1
  O  O3  1  0.42299700  0.22270600  0.64443600  1
  O  O4  1  0.59463800  0.85057900  0.25523400  1
  O  O5  1  0.40536200  0.85057900  0.75523400  1
  O  O6  1  0.78625000  0.84108100  0.12429000  1
  O  O7  1  0.21375000  0.84108100  0.62429000  1
  O  O8  1  0.82293900  0.37030400  0.32244400  1
  O  O9  1  0.17706100  0.37030400  0.82244400  1
  O  O10  1  0.99166700  0.31923500  0.45592200  1
  O  O11  1  0.00833300  0.31923500  0.95592200  1
  O  O12  1  0.73234300  0.98170700  0.42368600  1
  O  O13  1  0.26765700  0.98170700  0.92368600  1
  O  O14  1  0.08221500  0.01582900  0.36009800  1
  O  O15  1  0.91778500  0.01582900  0.86009800  1
loop_
_geom_bond_atom_site_label_1
_geom_bond_atom_site_label_2
_geom_bond_distance
_geom_bond_site_symmetry_2
O0 P0 1.555088 1_555
O0 Tl2 2.665411 1_555
O0 Tl0 2.771578 1_565
O1 P1 1.555088 1_555
O1 Tl3 2.665411 1_555
O1 Tl1 2.771578 1_565
O2 P0 1.551482 1_545
O2 Tl5 2.569903 1_555
O2 Tl2 2.674875 1_555
O3 P1 1.551482 1_545
O3 Tl4 2.569903 1_555
O3 Tl3 2.674875 1_555
O4 P0 1.604666 1_555
O4 Tl6 2.185681 1_555
O5 P1 1.604666 1_555
O5 Tl7 2.185681 1_555
O6 P0 1.550692 1_555
O6 Tl0 2.543936 1_665
O6 Tl2 2.653403 1_555
O7 P1 1.550692 1_555
O7 Tl1 2.543936 1_465
O7 Tl3 2.653403 1_555
O8 P2 1.610243 1_555
O8 Tl6 2.116085 1_555
O9 P3 1.610243 1_555
O9 Tl7 2.116085 1_555
O10 P2 1.519122 1_555
O10 Tl1 2.680115 1_555
O11 P3 1.519122 1_555
O11 Tl0 2.680115 1_556
O12 P2 1.568035 1_565
O12 Tl6 2.288104 1_555
O13 P3 1.568035 1_565
O13 Tl7 2.288104 1_555
O14 P2 1.598686 1_455
O14 Tl6 2.211047 1_445
O15 P3 1.598686 1_655
O15 Tl7 2.211047 1_645
