# generated using pymatgen
data_TlSiPt5
_symmetry_space_group_name_H-M   'P 1'
_cell_length_a   3.97237954
_cell_length_b   3.97237954
_cell_length_c   7.22853874
_cell_angle_alpha   90.00000000
_cell_angle_beta   90.00000000
_cell_angle_gamma   90.00000000
_symmetry_Int_Tables_number   1
_chemical_formula_structural   TlSiPt5
_chemical_formula_sum   'Tl1 Si1 Pt5'
_cell_volume   114.06488990
_cell_formula_units_Z   1
loop_
 _symmetry_equiv_pos_site_id
 _symmetry_equiv_pos_as_xyz
  1  'x, y, z'
loop_
 _atom_site_type_symbol
 _atom_site_label
 _atom_site_symmetry_multiplicity
 _atom_site_fract_x
 _atom_site_fract_y
 _atom_site_fract_z
 _atom_site_occupancy
  Tl  Tl0  1  0.50000000  0.50000000  0.00000000  1
  Si  Si0  1  0.00000000  -0.00000000  0.50000000  1
  Pt  Pt0  1  -0.00000000  0.50000000  0.30174459  1
  Pt  Pt1  1  0.00000000  0.50000000  0.69825541  1
  Pt  Pt2  1  0.50000000  0.00000000  0.30174459  1
  Pt  Pt3  1  0.50000000  -0.00000000  0.69825541  1
  Pt  Pt4  1  0.00000000  -0.00000000  0.00000000  1
loop_
_geom_bond_atom_site_label_1
_geom_bond_atom_site_label_2
_geom_bond_distance
_geom_bond_site_symmetry_2
Pt0 Si0 2.449228 1_555
Pt0 Si0 2.449228 1_565
Pt0 Tl0 2.949994 1_455
Pt0 Tl0 2.949994 1_555
Pt1 Si0 2.449228 1_555
Pt1 Si0 2.449228 1_565
Pt1 Tl0 2.949994 1_556
Pt1 Tl0 2.949994 1_456
Pt2 Si0 2.449228 1_655
Pt2 Si0 2.449228 1_555
Pt2 Tl0 2.949994 1_555
Pt2 Tl0 2.949994 1_545
Pt3 Si0 2.449228 1_655
Pt3 Si0 2.449228 1_555
Pt3 Tl0 2.949994 1_556
Pt3 Tl0 2.949994 1_546
Pt4 Tl0 2.808897 1_555
Pt4 Tl0 2.808897 1_545
Pt4 Tl0 2.808897 1_445
Pt4 Tl0 2.808897 1_455
