# generated using pymatgen
data_Sr2GdBiO6
_symmetry_space_group_name_H-M   'P 1'
_cell_length_a   8.58581575
_cell_length_b   8.58581575
_cell_length_c   8.58581575
_cell_angle_alpha   90.00000000
_cell_angle_beta   90.00000000
_cell_angle_gamma   90.00000000
_symmetry_Int_Tables_number   1
_chemical_formula_structural   Sr2GdBiO6
_chemical_formula_sum   'Sr8 Gd4 Bi4 O24'
_cell_volume   632.91398653
_cell_formula_units_Z   4
loop_
 _symmetry_equiv_pos_site_id
 _symmetry_equiv_pos_as_xyz
  1  'x, y, z'
loop_
 _atom_site_type_symbol
 _atom_site_label
 _atom_site_symmetry_multiplicity
 _atom_site_fract_x
 _atom_site_fract_y
 _atom_site_fract_z
 _atom_site_occupancy
  Sr  Sr0  1  0.50000000  0.50000000  0.50000000  1
  Sr  Sr1  1  0.00000000  0.00000000  0.00000000  1
  Sr  Sr2  1  0.00000000  0.00000000  0.50000000  1
  Sr  Sr3  1  0.00000000  0.50000000  0.00000000  1
  Sr  Sr4  1  0.50000000  0.00000000  0.00000000  1
  Sr  Sr5  1  0.50000000  0.50000000  0.00000000  1
  Sr  Sr6  1  0.50000000  0.00000000  0.50000000  1
  Sr  Sr7  1  0.00000000  0.50000000  0.50000000  1
  Gd  Gd0  1  0.25000000  0.25000000  0.25000000  1
  Gd  Gd1  1  0.25000000  0.75000000  0.75000000  1
  Gd  Gd2  1  0.75000000  0.25000000  0.75000000  1
  Gd  Gd3  1  0.75000000  0.75000000  0.25000000  1
  Bi  Bi0  1  0.75000000  0.75000000  0.75000000  1
  Bi  Bi1  1  0.75000000  0.25000000  0.25000000  1
  Bi  Bi2  1  0.25000000  0.75000000  0.25000000  1
  Bi  Bi3  1  0.25000000  0.25000000  0.75000000  1
  O  O0  1  0.21389208  0.29554260  0.50795056  1
  O  O1  1  0.21389208  0.70445740  0.49204944  1
  O  O2  1  0.78610792  0.29554260  0.49204944  1
  O  O3  1  0.78610792  0.70445740  0.50795056  1
  O  O4  1  0.29554260  0.50795056  0.21389208  1
  O  O5  1  0.70445740  0.49204944  0.21389208  1
  O  O6  1  0.29554260  0.49204944  0.78610792  1
  O  O7  1  0.70445740  0.50795056  0.78610792  1
  O  O8  1  0.50795056  0.21389208  0.29554260  1
  O  O9  1  0.49204944  0.21389208  0.70445740  1
  O  O10  1  0.49204944  0.78610792  0.29554260  1
  O  O11  1  0.50795056  0.78610792  0.70445740  1
  O  O12  1  0.28610792  0.20445740  0.99204944  1
  O  O13  1  0.28610792  0.79554260  0.00795056  1
  O  O14  1  0.71389208  0.20445740  0.00795056  1
  O  O15  1  0.71389208  0.79554260  0.99204944  1
  O  O16  1  0.20445740  0.99204944  0.28610792  1
  O  O17  1  0.79554260  0.00795056  0.28610792  1
  O  O18  1  0.20445740  0.00795056  0.71389208  1
  O  O19  1  0.79554260  0.99204944  0.71389208  1
  O  O20  1  0.99204944  0.28610792  0.20445740  1
  O  O21  1  0.00795056  0.28610792  0.79554260  1
  O  O22  1  0.00795056  0.71389208  0.20445740  1
  O  O23  1  0.99204944  0.71389208  0.79554260  1
loop_
_geom_bond_atom_site_label_1
_geom_bond_atom_site_label_2
_geom_bond_distance
_geom_bond_site_symmetry_2
Gd0 O0 2.270236 1_555
Gd0 O4 2.270236 1_555
Gd0 O8 2.270236 1_555
Gd0 O20 2.270236 1_455
Gd0 O16 2.270236 1_545
Gd0 O12 2.270236 1_554
Gd1 O23 2.270236 1_455
Gd1 O1 2.270236 1_555
Gd1 O6 2.270236 1_555
Gd1 O13 2.270236 1_556
Gd1 O11 2.270236 1_555
Gd1 O18 2.270236 1_565
Gd2 O19 2.270236 1_545
Gd2 O21 2.270236 1_655
Gd2 O9 2.270236 1_555
Gd2 O2 2.270236 1_555
Gd2 O7 2.270236 1_555
Gd2 O14 2.270236 1_556
Gd3 O15 2.270236 1_554
Gd3 O10 2.270236 1_555
Gd3 O3 2.270236 1_555
Gd3 O17 2.270236 1_565
Gd3 O5 2.270236 1_555
Gd3 O22 2.270236 1_655
Bi0 O7 2.137262 1_555
Bi0 O3 2.137262 1_555
Bi0 O11 2.137262 1_555
Bi0 O15 2.137262 1_555
Bi0 O19 2.137262 1_555
Bi0 O23 2.137262 1_555
Bi1 O8 2.137262 1_555
Bi1 O17 2.137262 1_555
Bi1 O5 2.137262 1_555
Bi1 O2 2.137262 1_555
Bi1 O14 2.137262 1_555
Bi1 O20 2.137262 1_555
Bi2 O4 2.137262 1_555
Bi2 O1 2.137262 1_555
Bi2 O13 2.137262 1_555
Bi2 O10 2.137262 1_555
Bi2 O22 2.137262 1_555
Bi2 O16 2.137262 1_555
Bi3 O0 2.137262 1_555
Bi3 O21 2.137262 1_555
Bi3 O6 2.137262 1_555
Bi3 O9 2.137262 1_555
Bi3 O18 2.137262 1_555
Bi3 O12 2.137262 1_555
O0 Sr7 2.541399 1_555
O0 Sr0 3.020008 1_555
O0 Sr2 3.133040 1_555
O1 Sr7 2.541399 1_555
O1 Sr0 3.020008 1_555
O1 Sr2 3.133040 1_565
O2 Sr7 2.541399 1_655
O2 Sr0 3.020008 1_555
O2 Sr2 3.133040 1_655
O3 Sr7 2.541399 1_655
O3 Sr0 3.020008 1_555
O3 Sr2 3.133040 1_665
O4 Sr5 2.541399 1_555
O4 Sr0 3.020008 1_555
O4 Sr3 3.133040 1_555
O5 Sr5 2.541399 1_555
O5 Sr0 3.020008 1_555
O5 Sr3 3.133040 1_655
O6 Sr5 2.541399 1_556
O6 Sr0 3.020008 1_555
O6 Sr3 3.133040 1_556
O7 Sr5 2.541399 1_556
O7 Sr0 3.020008 1_555
O7 Sr3 3.133040 1_656
O8 Sr6 2.541399 1_555
O8 Sr0 3.020008 1_555
O8 Sr4 3.133040 1_555
O9 Sr6 2.541399 1_555
O9 Sr0 3.020008 1_555
O9 Sr4 3.133040 1_556
O10 Sr6 2.541399 1_565
O10 Sr0 3.020008 1_555
O10 Sr4 3.133040 1_565
O11 Sr6 2.541399 1_565
O11 Sr0 3.020008 1_555
O11 Sr4 3.133040 1_566
O12 Sr4 2.541399 1_556
O12 Sr1 3.020008 1_556
O12 Sr5 3.133040 1_556
O13 Sr4 2.541399 1_565
O13 Sr1 3.020008 1_565
O13 Sr5 3.133040 1_555
O14 Sr4 2.541399 1_555
O14 Sr1 3.020008 1_655
O14 Sr5 3.133040 1_555
O15 Sr4 2.541399 1_566
O15 Sr1 3.020008 1_666
O15 Sr5 3.133040 1_556
O16 Sr2 2.541399 1_565
O16 Sr1 3.020008 1_565
O16 Sr6 3.133040 1_565
O17 Sr2 2.541399 1_655
O17 Sr1 3.020008 1_655
O17 Sr6 3.133040 1_555
O18 Sr2 2.541399 1_555
O18 Sr1 3.020008 1_556
O18 Sr6 3.133040 1_555
O19 Sr2 2.541399 1_665
O19 Sr1 3.020008 1_666
O19 Sr6 3.133040 1_565
O20 Sr3 2.541399 1_655
O20 Sr1 3.020008 1_655
O20 Sr7 3.133040 1_655
O21 Sr3 2.541399 1_556
O21 Sr1 3.020008 1_556
O21 Sr7 3.133040 1_555
O22 Sr3 2.541399 1_555
O22 Sr1 3.020008 1_565
O22 Sr7 3.133040 1_555
O23 Sr3 2.541399 1_656
O23 Sr1 3.020008 1_666
O23 Sr7 3.133040 1_655
