# generated using pymatgen
data_Tc3W
_symmetry_space_group_name_H-M   'P 1'
_cell_length_a   5.56450638
_cell_length_b   5.56450638
_cell_length_c   4.48090500
_cell_angle_alpha   90.00000000
_cell_angle_beta   90.00000000
_cell_angle_gamma   120.00000458
_symmetry_Int_Tables_number   1
_chemical_formula_structural   Tc3W
_chemical_formula_sum   'Tc6 W2'
_cell_volume   120.15715541
_cell_formula_units_Z   2
loop_
 _symmetry_equiv_pos_site_id
 _symmetry_equiv_pos_as_xyz
  1  'x, y, z'
loop_
 _atom_site_type_symbol
 _atom_site_label
 _atom_site_symmetry_multiplicity
 _atom_site_fract_x
 _atom_site_fract_y
 _atom_site_fract_z
 _atom_site_occupancy
  Tc  Tc0  1  0.16706700  0.33413500  0.25000000  1
  Tc  Tc1  1  0.66586500  0.83293300  0.25000000  1
  Tc  Tc2  1  0.16706700  0.83293300  0.25000000  1
  Tc  Tc3  1  0.83293300  0.66586500  0.75000000  1
  Tc  Tc4  1  0.33413500  0.16706700  0.75000000  1
  Tc  Tc5  1  0.83293300  0.16706700  0.75000000  1
  W  W0  1  0.33333300  0.66666700  0.75000000  1
  W  W1  1  0.66666700  0.33333300  0.25000000  1
loop_
_geom_bond_atom_site_label_1
_geom_bond_atom_site_label_2
_geom_bond_distance
_geom_bond_site_symmetry_2
Tc0 W0 2.754550 1_555
Tc0 W0 2.754550 1_554
Tc0 Tc5 2.759049 1_455
Tc0 Tc5 2.759049 1_454
Tc0 Tc4 2.759054 1_555
Tc0 Tc4 2.759054 1_554
Tc0 Tc1 2.775564 1_555
Tc0 Tc2 2.775565 1_555
Tc0 W1 2.782250 1_455
Tc0 W1 2.782261 1_555
Tc0 Tc1 2.788942 1_445
Tc0 Tc2 2.788942 1_545
Tc1 W0 2.754550 1_555
Tc1 W0 2.754550 1_554
Tc1 Tc5 2.759049 1_565
Tc1 Tc5 2.759049 1_564
Tc1 Tc3 2.759054 1_554
Tc1 Tc3 2.759054 1_555
Tc1 Tc2 2.775565 1_555
Tc1 W1 2.782250 1_565
Tc1 W1 2.782261 1_555
Tc1 Tc2 2.788942 1_655
Tc2 W0 2.754550 1_555
Tc2 W0 2.754550 1_554
Tc2 Tc4 2.759049 1_565
Tc2 Tc3 2.759049 1_455
Tc2 Tc3 2.759049 1_454
Tc2 Tc4 2.759049 1_564
Tc2 W1 2.782256 1_455
Tc2 W1 2.782256 1_565
Tc3 W1 2.754550 1_555
Tc3 W1 2.754550 1_556
Tc3 Tc4 2.775564 1_555
Tc3 Tc5 2.775565 1_555
Tc3 W0 2.782250 1_655
Tc3 W0 2.782261 1_555
Tc3 Tc4 2.788942 1_665
Tc3 Tc5 2.788942 1_565
Tc4 W1 2.754550 1_556
Tc4 W1 2.754550 1_555
Tc4 Tc5 2.775565 1_555
Tc4 W0 2.782250 1_545
Tc4 W0 2.782261 1_555
Tc4 Tc5 2.788942 1_455
Tc5 W1 2.754550 1_555
Tc5 W1 2.754550 1_556
Tc5 W0 2.782256 1_545
Tc5 W0 2.782256 1_655
