# generated using pymatgen
data_LiIn4(Ge2O7)2
_symmetry_space_group_name_H-M   'P 1'
_cell_length_a   7.10979810
_cell_length_b   7.10979810
_cell_length_c   7.11710612
_cell_angle_alpha   59.96599874
_cell_angle_beta   59.96599874
_cell_angle_gamma   59.92622074
_symmetry_Int_Tables_number   1
_chemical_formula_structural   LiIn4(Ge2O7)2
_chemical_formula_sum   'Li1 In4 Ge4 O14'
_cell_volume   254.11897716
_cell_formula_units_Z   1
loop_
 _symmetry_equiv_pos_site_id
 _symmetry_equiv_pos_as_xyz
  1  'x, y, z'
loop_
 _atom_site_type_symbol
 _atom_site_label
 _atom_site_symmetry_multiplicity
 _atom_site_fract_x
 _atom_site_fract_y
 _atom_site_fract_z
 _atom_site_occupancy
  Li  Li0  1  0.12327800  0.12327800  0.12672200  1
  In  In0  1  0.50019300  0.50019300  0.00004300  1
  In  In1  1  0.50041900  0.99999200  0.49979500  1
  In  In2  1  0.99999200  0.50041900  0.49979500  1
  In  In3  1  0.50019300  0.50019300  0.49957100  1
  Ge  Ge0  1  0.99340200  0.99340200  0.51985600  1
  Ge  Ge1  1  0.99393700  0.51822100  0.99392100  1
  Ge  Ge2  1  0.51822100  0.99393700  0.99392100  1
  Ge  Ge3  1  0.99340200  0.99340200  0.99334000  1
  O  O0  1  0.37502300  0.37502300  0.37497700  1
  O  O1  1  0.62481100  0.62481100  0.62518900  1
  O  O2  1  0.32461100  0.92487000  0.92540700  1
  O  O3  1  0.92487000  0.32461100  0.32511200  1
  O  O4  1  0.92487000  0.32461100  0.92540700  1
  O  O5  1  0.32461100  0.92487000  0.32511200  1
  O  O6  1  0.92462700  0.92462700  0.32537300  1
  O  O7  1  0.32443500  0.32443500  0.92556500  1
  O  O8  1  0.67321500  0.07648400  0.07635500  1
  O  O9  1  0.07648400  0.67321500  0.67394600  1
  O  O10  1  0.07648400  0.67321500  0.07635500  1
  O  O11  1  0.67321500  0.07648400  0.67394600  1
  O  O12  1  0.07646200  0.07646200  0.67353800  1
  O  O13  1  0.67361300  0.67361300  0.07638700  1
loop_
_geom_bond_atom_site_label_1
_geom_bond_atom_site_label_2
_geom_bond_distance
_geom_bond_site_symmetry_2
Li0 O6 1.997477 1_445
Li0 O3 2.009529 1_455
Li0 O5 2.009529 1_545
Li0 O2 2.009529 1_544
Li0 O4 2.009529 1_454
Li0 O7 2.022675 1_554
In0 O1 2.177605 1_554
In0 O0 2.178061 1_555
In0 O10 2.490026 1_555
In0 O8 2.490026 1_555
In0 O13 2.490100 1_555
In0 O4 2.497554 1_554
In0 O2 2.497554 1_554
In0 O7 2.509003 1_554
In1 O0 2.175514 1_565
In1 O1 2.176394 1_555
In1 O12 2.491942 1_565
In1 O11 2.491986 1_565
In1 O8 2.491993 1_565
In1 O6 2.494568 1_555
In1 O2 2.506524 1_555
In1 O5 2.506529 1_555
In2 O0 2.175514 1_655
In2 O1 2.176394 1_555
In2 O12 2.491942 1_655
In2 O9 2.491986 1_655
In2 O10 2.491993 1_655
In2 O6 2.494568 1_555
In2 O4 2.506524 1_555
In2 O3 2.506529 1_555
In3 O1 2.177605 1_555
In3 O0 2.178061 1_555
In3 O9 2.490026 1_555
In3 O11 2.490026 1_555
In3 O13 2.490100 1_555
In3 O5 2.497554 1_555
In3 O3 2.497554 1_555
In3 O7 2.509003 1_555
Ge0 O11 1.880312 1_565
Ge0 O9 1.880312 1_655
Ge0 O12 1.880554 1_665
Ge0 O3 1.990620 1_565
Ge0 O5 1.990620 1_655
Ge0 O6 1.997184 1_555
Ge1 O13 1.881784 1_556
Ge1 O10 1.882298 1_656
Ge1 O9 1.882299 1_655
Ge1 O7 1.984527 1_655
Ge1 O4 1.990678 1_555
Ge1 O3 1.990678 1_556
Ge2 O13 1.881784 1_556
Ge2 O8 1.882298 1_566
Ge2 O11 1.882299 1_565
Ge2 O7 1.984527 1_565
Ge2 O2 1.990678 1_555
Ge2 O5 1.990678 1_556
Ge3 O10 1.880312 1_656
Ge3 O8 1.880312 1_566
Ge3 O12 1.880554 1_665
Ge3 O2 1.990620 1_655
Ge3 O4 1.990620 1_565
Ge3 O6 1.997185 1_556
