# generated using pymatgen
data_Mg2ScCr3S8
_symmetry_space_group_name_H-M   'P 1'
_cell_length_a   7.30104980
_cell_length_b   7.30104027
_cell_length_c   7.30112698
_cell_angle_alpha   60.17961197
_cell_angle_beta   60.17883033
_cell_angle_gamma   60.18056390
_symmetry_Int_Tables_number   1
_chemical_formula_structural   Mg2ScCr3S8
_chemical_formula_sum   'Mg2 Sc1 Cr3 S8'
_cell_volume   276.31755264
_cell_formula_units_Z   1
loop_
 _symmetry_equiv_pos_site_id
 _symmetry_equiv_pos_as_xyz
  1  'x, y, z'
loop_
 _atom_site_type_symbol
 _atom_site_label
 _atom_site_symmetry_multiplicity
 _atom_site_fract_x
 _atom_site_fract_y
 _atom_site_fract_z
 _atom_site_occupancy
  Mg  Mg0  1  0.87565879  0.87567521  0.87569791  1
  Mg  Mg1  1  0.12432451  0.12430607  0.12431333  1
  Sc  Sc0  1  0.50000259  0.50003334  0.49995590  1
  Cr  Cr0  1  0.50027998  0.49989691  0.99991672  1
  Cr  Cr1  1  0.00006022  0.49997288  0.49983054  1
  Cr  Cr2  1  0.49973934  0.00019335  0.50021087  1
  S  S0  1  0.73617710  0.73619737  0.73620467  1
  S  S1  1  0.25349257  0.25350173  0.71689185  1
  S  S2  1  0.25349940  0.71685985  0.25351382  1
  S  S3  1  0.71687661  0.25350001  0.25349890  1
  S  S4  1  0.74648492  0.28310897  0.74648958  1
  S  S5  1  0.28311931  0.74648066  0.74649684  1
  S  S6  1  0.26378290  0.26378810  0.26382409  1
  S  S7  1  0.74650577  0.74648055  0.28315599  1
loop_
_geom_bond_atom_site_label_1
_geom_bond_atom_site_label_2
_geom_bond_distance
_geom_bond_site_symmetry_2
Mg0 S4 2.435561 1_565
Mg0 S7 2.435707 1_556
Mg0 S5 2.435707 1_655
Mg0 S0 2.491130 1_555
Mg1 S1 2.435480 1_554
Mg1 S3 2.435633 1_455
Mg1 S2 2.435639 1_545
Mg1 S6 2.491121 1_555
Cr0 S3 2.436179 1_556
Cr0 S4 2.436207 1_555
Cr0 S2 2.438096 1_556
Cr0 S5 2.438101 1_555
Cr0 S0 2.450137 1_555
Cr0 S6 2.452235 1_556
Cr1 S7 2.436440 1_455
Cr1 S2 2.436730 1_555
Cr1 S4 2.437424 1_455
Cr1 S1 2.437656 1_555
Cr1 S6 2.450159 1_555
Cr1 S0 2.452231 1_455
Cr2 S1 2.435084 1_555
Cr2 S5 2.436866 1_545
Cr2 S3 2.437356 1_555
Cr2 S7 2.439141 1_545
Cr2 S6 2.450847 1_555
Cr2 S0 2.451526 1_545
S1 Sc0 2.557119 1_555
S2 Sc0 2.556739 1_555
S3 Sc0 2.556926 1_555
S4 Sc0 2.557066 1_555
S5 Sc0 2.556909 1_555
S7 Sc0 2.556702 1_555
