# generated using pymatgen
data_Cd3Co2(CN)12
_symmetry_space_group_name_H-M   'P 1'
_cell_length_a   7.59768200
_cell_length_b   7.59768200
_cell_length_c   10.75716300
_cell_angle_alpha   90.00000000
_cell_angle_beta   90.00000000
_cell_angle_gamma   90.00000000
_symmetry_Int_Tables_number   1
_chemical_formula_structural   Cd3Co2(CN)12
_chemical_formula_sum   'Cd3 Co2 C12 N12'
_cell_volume   620.95477910
_cell_formula_units_Z   1
loop_
 _symmetry_equiv_pos_site_id
 _symmetry_equiv_pos_as_xyz
  1  'x, y, z'
loop_
 _atom_site_type_symbol
 _atom_site_label
 _atom_site_symmetry_multiplicity
 _atom_site_fract_x
 _atom_site_fract_y
 _atom_site_fract_z
 _atom_site_occupancy
  Cd  Cd0  1  0.50000000  0.00000000  0.25636000  1
  Cd  Cd1  1  0.00000000  0.50000000  0.74364000  1
  Cd  Cd2  1  0.50000000  0.50000000  0.00000000  1
  Co  Co0  1  0.50000000  0.00000000  0.74940000  1
  Co  Co1  1  0.00000000  0.50000000  0.25060000  1
  C  C0  1  0.50000000  0.00000000  0.92288400  1
  C  C1  1  0.00000000  0.50000000  0.42425500  1
  C  C2  1  0.17450400  0.32684700  0.24983100  1
  C  C3  1  0.67315300  0.82549600  0.75016900  1
  C  C4  1  0.82549600  0.32684700  0.24983100  1
  C  C5  1  0.32684700  0.82549600  0.75016900  1
  C  C6  1  0.50000000  0.00000000  0.57574500  1
  C  C7  1  0.00000000  0.50000000  0.07711600  1
  C  C8  1  0.82549600  0.67315300  0.24983100  1
  C  C9  1  0.32684700  0.17450400  0.75016900  1
  C  C10  1  0.17450400  0.67315300  0.24983100  1
  C  C11  1  0.67315300  0.17450400  0.75016900  1
  N  N0  1  0.50000000  0.00000000  0.03197100  1
  N  N1  1  0.00000000  0.50000000  0.53257000  1
  N  N2  1  0.28614700  0.22084000  0.24554900  1
  N  N3  1  0.77916000  0.71385300  0.75445100  1
  N  N4  1  0.71385300  0.22084000  0.24554900  1
  N  N5  1  0.22084000  0.71385300  0.75445100  1
  N  N6  1  0.50000000  0.00000000  0.46743000  1
  N  N7  1  0.00000000  0.50000000  0.96802900  1
  N  N8  1  0.71385300  0.77916000  0.24554900  1
  N  N9  1  0.22084000  0.28614700  0.75445100  1
  N  N10  1  0.28614700  0.77916000  0.24554900  1
  N  N11  1  0.77916000  0.28614700  0.75445100  1
loop_
_geom_bond_atom_site_label_1
_geom_bond_atom_site_label_2
_geom_bond_distance
_geom_bond_site_symmetry_2
Cd0 N6 2.270514 1_555
Cd0 N8 2.338528 1_545
Cd0 N2 2.338528 1_555
Cd0 N4 2.338528 1_555
Cd0 N10 2.338528 1_545
Cd0 N0 2.413789 1_555
Cd1 N1 2.270514 1_555
Cd1 N3 2.338528 1_455
Cd1 N5 2.338528 1_555
Cd1 N9 2.338528 1_555
Cd1 N11 2.338528 1_455
Cd1 N7 2.413789 1_555
C0 N0 1.173467 1_556
C0 Co0 1.866196 1_555
C1 N1 1.165162 1_555
C1 Co1 1.868035 1_555
C2 N2 1.170595 1_555
C2 Co1 1.867775 1_555
C3 N3 1.170595 1_555
C3 Co0 1.867775 1_565
C4 N4 1.170595 1_555
C4 Co1 1.867775 1_655
C5 N5 1.170595 1_555
C5 Co0 1.867775 1_565
C6 N6 1.165162 1_555
C6 Co0 1.868035 1_555
C7 N7 1.173467 1_554
C7 Co1 1.866196 1_555
C8 N8 1.170595 1_555
C8 Co1 1.867775 1_655
C9 N9 1.170595 1_555
C9 Co0 1.867775 1_555
C10 N10 1.170595 1_555
C10 Co1 1.867775 1_555
C11 N11 1.170595 1_555
C11 Co0 1.867775 1_555
