# generated using pymatgen
data_Pr3Pd
_symmetry_space_group_name_H-M   'P 1'
_cell_length_a   6.35936954
_cell_length_b   6.35936954
_cell_length_c   6.35936954
_cell_angle_alpha   137.57373836
_cell_angle_beta   137.57373836
_cell_angle_gamma   61.55646917
_symmetry_Int_Tables_number   1
_chemical_formula_structural   Pr3Pd
_chemical_formula_sum   'Pr3 Pd1'
_cell_volume   115.71835871
_cell_formula_units_Z   1
loop_
 _symmetry_equiv_pos_site_id
 _symmetry_equiv_pos_as_xyz
  1  'x, y, z'
loop_
 _atom_site_type_symbol
 _atom_site_label
 _atom_site_symmetry_multiplicity
 _atom_site_fract_x
 _atom_site_fract_y
 _atom_site_fract_z
 _atom_site_occupancy
  Pr  Pr0  1  0.75000000  0.25000000  0.49999900  1
  Pr  Pr1  1  0.25000000  0.75000000  0.49999900  1
  Pr  Pr2  1  0.50000000  0.50000000  0.00000000  1
  Pd  Pd0  1  0.00000000  0.00000000  0.00000000  1
loop_
_geom_bond_atom_site_label_1
_geom_bond_atom_site_label_2
_geom_bond_distance
_geom_bond_site_symmetry_2
Pr0 Pr1 3.254195 1_656
Pr0 Pr1 3.254195 1_645
Pr0 Pr1 3.254195 1_544
Pr0 Pr1 3.254195 1_555
Pr0 Pr2 3.571806 1_555
Pr0 Pr2 3.571809 1_656
Pr0 Pr2 3.571815 1_545
Pr0 Pr2 3.571818 1_556
Pr1 Pr2 3.571806 1_555
Pr1 Pr2 3.571809 1_566
Pr1 Pr2 3.571815 1_455
Pr1 Pr2 3.571818 1_556
Pd0 Pr2 3.254195 1_444
Pd0 Pr2 3.254195 1_556
Pd0 Pr2 3.254195 1_545
Pd0 Pr2 3.254195 1_455
Pd0 Pr0 3.571806 1_455
Pd0 Pr1 3.571806 1_545
Pd0 Pr1 3.571809 1_444
Pd0 Pr0 3.571809 1_444
Pd0 Pr0 3.571815 1_555
Pd0 Pr1 3.571815 1_555
Pd0 Pr0 3.571818 1_454
Pd0 Pr1 3.571818 1_544
