# generated using pymatgen
data_Er2MgTl2(WO4)4
_symmetry_space_group_name_H-M   'P 1'
_cell_length_a   7.58987676
_cell_length_b   7.89943694
_cell_length_c   7.50840030
_cell_angle_alpha   62.20845426
_cell_angle_beta   61.91523184
_cell_angle_gamma   86.90856741
_symmetry_Int_Tables_number   1
_chemical_formula_structural   Er2MgTl2(WO4)4
_chemical_formula_sum   'Er2 Mg1 Tl2 W4 O16'
_cell_volume   343.35476044
_cell_formula_units_Z   1
loop_
 _symmetry_equiv_pos_site_id
 _symmetry_equiv_pos_as_xyz
  1  'x, y, z'
loop_
 _atom_site_type_symbol
 _atom_site_label
 _atom_site_symmetry_multiplicity
 _atom_site_fract_x
 _atom_site_fract_y
 _atom_site_fract_z
 _atom_site_occupancy
  Er  Er0  1  0.23227911  0.79268855  0.73801605  1
  Er  Er1  1  0.76510560  0.20953003  0.24951463  1
  Mg  Mg0  1  0.00955452  0.52135206  0.60917471  1
  Tl  Tl0  1  0.75631191  0.14632733  0.78020339  1
  Tl  Tl1  1  0.25390300  0.86829965  0.17363354  1
  W  W0  1  0.30989881  0.31334923  0.69736284  1
  W  W1  1  0.70834365  0.67985451  0.30243397  1
  W  W2  1  0.67888945  0.69589695  0.80873003  1
  W  W3  1  0.30014745  0.31152748  0.20458265  1
  O  O0  1  0.37766942  0.24970918  0.95079236  1
  O  O1  1  0.62341237  0.74664193  0.07198816  1
  O  O2  1  0.77211483  0.60759858  0.55984555  1
  O  O3  1  0.22309351  0.39255797  0.44504630  1
  O  O4  1  0.64253065  0.93694390  0.62326943  1
  O  O5  1  0.35301336  0.07707414  0.38246654  1
  O  O6  1  0.02776700  0.33439259  0.88751374  1
  O  O7  1  0.96539124  0.67180571  0.10631720  1
  O  O8  1  0.39761988  0.61335885  0.55557139  1
  O  O9  1  0.61610804  0.38105254  0.44513316  1
  O  O10  1  0.35892705  0.59462359  0.96902779  1
  O  O11  1  0.61999281  0.40852831  0.04472452  1
  O  O12  1  0.25189654  0.04939837  0.79194602  1
  O  O13  1  0.74261485  0.93888843  0.22630587  1
  O  O14  1  0.97584692  0.73302601  0.69693960  1
  O  O15  1  0.02923504  0.24224108  0.30446056  1
loop_
_geom_bond_atom_site_label_1
_geom_bond_atom_site_label_2
_geom_bond_distance
_geom_bond_site_symmetry_2
Er0 O14 2.214714 1_455
Er0 O7 2.265881 1_456
Er0 O12 2.270114 1_565
Er0 O10 2.292924 1_555
Er0 O5 2.310718 1_565
Er0 O8 2.336102 1_555
Er1 O6 2.223767 1_654
Er1 O13 2.246102 1_545
Er1 O15 2.278121 1_655
Er1 O11 2.280861 1_555
Er1 O9 2.323495 1_555
Er1 O4 2.345289 1_545
Mg0 O6 1.984857 1_555
Mg0 O2 2.027260 1_455
Mg0 O14 2.029352 1_455
Mg0 O3 2.071546 1_555
Mg0 Tl1 2.850473 1_555
O0 W3 1.999224 1_556
O0 W0 2.034644 1_555
O0 Tl1 2.623755 1_546
O0 Tl0 2.796957 1_555
O1 W1 1.962137 1_555
O1 W2 2.045028 1_554
O1 Tl0 2.756483 1_564
O1 Tl1 2.783770 1_555
O2 W1 2.029252 1_555
O2 W2 2.096802 1_555
O3 W3 2.013626 1_555
O3 W0 2.107142 1_555
O4 W2 1.863741 1_555
O4 Tl0 2.792773 1_565
O5 W3 1.868880 1_555
O6 W0 1.988906 1_555
O7 W1 1.829647 1_555
O8 W0 2.084028 1_555
O8 W1 2.105332 1_555
O9 W0 2.078318 1_555
O9 W1 2.079200 1_555
O10 W3 2.001139 1_556
O10 W2 2.132071 1_555
O11 W2 2.026191 1_554
O11 W3 2.126145 1_555
O12 W0 1.862648 1_555
O12 Tl1 2.544709 1_546
O13 W1 1.846115 1_555
O14 W2 1.982667 1_555
O15 W3 1.837564 1_555
