# generated using pymatgen
data_YSiIr
_symmetry_space_group_name_H-M   'P 1'
_cell_length_a   4.22177086
_cell_length_b   6.85233383
_cell_length_c   7.43634291
_cell_angle_alpha   89.99980659
_cell_angle_beta   90.00000000
_cell_angle_gamma   90.00000000
_symmetry_Int_Tables_number   1
_chemical_formula_structural   YSiIr
_chemical_formula_sum   'Y4 Si4 Ir4'
_cell_volume   215.12583976
_cell_formula_units_Z   4
loop_
 _symmetry_equiv_pos_site_id
 _symmetry_equiv_pos_as_xyz
  1  'x, y, z'
loop_
 _atom_site_type_symbol
 _atom_site_label
 _atom_site_symmetry_multiplicity
 _atom_site_fract_x
 _atom_site_fract_y
 _atom_site_fract_z
 _atom_site_occupancy
  Y  Y0  1  0.25000000  0.00172653  0.31256655  1
  Y  Y1  1  0.25000000  0.50171764  0.18740256  1
  Y  Y2  1  0.75000000  0.99828018  0.68744202  1
  Y  Y3  1  0.75000000  0.49826303  0.81258832  1
  Si  Si0  1  0.25000000  0.29992270  0.60904957  1
  Si  Si1  1  0.25000000  0.79994569  0.89096581  1
  Si  Si2  1  0.75000000  0.70007468  0.39095457  1
  Si  Si3  1  0.75000000  0.20005841  0.10902959  1
  Ir  Ir0  1  0.25000000  0.15622196  0.93344464  1
  Ir  Ir1  1  0.25000000  0.65623232  0.56655914  1
  Ir  Ir2  1  0.75000000  0.84378697  0.06654901  1
  Ir  Ir3  1  0.75000000  0.34376990  0.43344823  1
loop_
_geom_bond_atom_site_label_1
_geom_bond_atom_site_label_2
_geom_bond_distance
_geom_bond_site_symmetry_2
Si0 Y3 2.931540 1_455
Si0 Y3 2.931540 1_555
Si0 Y0 3.006025 1_555
Si0 Y2 3.011307 1_545
Si0 Y2 3.011307 1_445
Si1 Y2 2.931459 1_555
Si1 Y2 2.931459 1_455
Si1 Y1 3.005911 1_556
Si1 Y3 3.011477 1_555
Si1 Y3 3.011477 1_455
Si2 Y1 2.931644 1_555
Si2 Y1 2.931644 1_655
Si2 Y2 3.006093 1_555
Si2 Y0 3.011344 1_565
Si2 Y0 3.011344 1_665
Si3 Y0 2.931501 1_555
Si3 Y0 2.931501 1_655
Si3 Y3 3.005827 1_554
Si3 Y1 3.011360 1_555
Si3 Y1 3.011360 1_655
Ir0 Si1 2.461677 1_545
Ir0 Si3 2.500190 1_556
Ir0 Si3 2.500190 1_456
Ir0 Si0 2.605541 1_555
Ir0 Y2 2.995616 1_545
Ir0 Y2 2.995616 1_445
Ir0 Y0 3.011490 1_556
Ir0 Y1 3.028425 1_556
Ir0 Y3 3.279762 1_455
Ir0 Y3 3.279762 1_555
Ir1 Si0 2.461912 1_555
Ir1 Si2 2.500270 1_555
Ir1 Si2 2.500270 1_455
Ir1 Si1 2.605660 1_555
Ir1 Y3 2.995800 1_555
Ir1 Y3 2.995800 1_455
Ir1 Y1 3.011784 1_555
Ir1 Y0 3.028568 1_565
Ir1 Y2 3.279854 1_455
Ir1 Y2 3.279854 1_555
Ir2 Si3 2.461646 1_565
Ir2 Si1 2.500187 1_554
Ir2 Si1 2.500187 1_654
Ir2 Si2 2.605643 1_555
Ir2 Y0 2.995678 1_565
Ir2 Y0 2.995678 1_665
Ir2 Y2 3.011381 1_554
Ir2 Y3 3.028589 1_554
Ir2 Y1 3.279895 1_655
Ir2 Y1 3.279895 1_555
Ir3 Si2 2.461883 1_555
Ir3 Si0 2.500261 1_655
Ir3 Si0 2.500261 1_555
Ir3 Si3 2.605737 1_555
Ir3 Y1 2.995822 1_555
Ir3 Y1 2.995822 1_655
Ir3 Y3 3.011618 1_555
Ir3 Y2 3.028550 1_545
Ir3 Y0 3.279829 1_655
Ir3 Y0 3.279829 1_555
