# generated using pymatgen
data_CaPt2
_symmetry_space_group_name_H-M   'P 1'
_cell_length_a   5.40650467
_cell_length_b   5.40650467
_cell_length_c   8.91414304
_cell_angle_alpha   90.00000000
_cell_angle_beta   90.00000000
_cell_angle_gamma   119.99979404
_symmetry_Int_Tables_number   1
_chemical_formula_structural   CaPt2
_chemical_formula_sum   'Ca4 Pt8'
_cell_volume   225.65465473
_cell_formula_units_Z   4
loop_
 _symmetry_equiv_pos_site_id
 _symmetry_equiv_pos_as_xyz
  1  'x, y, z'
loop_
 _atom_site_type_symbol
 _atom_site_label
 _atom_site_symmetry_multiplicity
 _atom_site_fract_x
 _atom_site_fract_y
 _atom_site_fract_z
 _atom_site_occupancy
  Ca  Ca0  1  0.66667596  0.33332404  0.56504887  1
  Ca  Ca1  1  0.33332404  0.66667596  0.43495113  1
  Ca  Ca2  1  0.33332404  0.66667596  0.06504887  1
  Ca  Ca3  1  0.66667596  0.33332404  0.93495113  1
  Pt  Pt0  1  -0.00000000  -0.00000000  0.50000000  1
  Pt  Pt1  1  -0.00000000  -0.00000000  -0.00000000  1
  Pt  Pt2  1  0.16889500  0.33775914  0.75000000  1
  Pt  Pt3  1  0.16889078  0.83110922  0.75000000  1
  Pt  Pt4  1  0.66224086  0.83110500  0.75000000  1
  Pt  Pt5  1  0.83110500  0.66224086  0.25000000  1
  Pt  Pt6  1  0.83110922  0.16889078  0.25000000  1
  Pt  Pt7  1  0.33775914  0.16889500  0.25000000  1
loop_
_geom_bond_atom_site_label_1
_geom_bond_atom_site_label_2
_geom_bond_distance
_geom_bond_site_symmetry_2
Ca0 Pt2 3.166403 1_555
Ca0 Pt4 3.166403 1_555
Ca0 Pt4 3.166417 1_545
Ca0 Pt2 3.166417 1_655
Ca0 Pt3 3.166417 1_655
Ca0 Pt3 3.166417 1_545
Ca0 Pt0 3.174760 1_655
Ca0 Pt0 3.174898 1_555
Ca0 Pt0 3.174898 1_665
Ca0 Pt6 3.202821 1_555
Ca0 Pt5 3.202937 1_555
Ca0 Pt7 3.202937 1_555
Ca0 Ca3 3.297362 1_555
Ca0 Ca1 3.329843 1_545
Ca0 Ca1 3.329843 1_655
Ca0 Ca1 3.330079 1_555
Ca1 Pt5 3.166403 1_555
Ca1 Pt7 3.166403 1_555
Ca1 Pt7 3.166417 1_565
Ca1 Pt5 3.166417 1_455
Ca1 Pt6 3.166417 1_565
Ca1 Pt6 3.166417 1_455
Ca1 Pt0 3.174760 1_565
Ca1 Pt0 3.174898 1_555
Ca1 Pt0 3.174898 1_665
Ca1 Pt3 3.202821 1_555
Ca1 Pt4 3.202937 1_555
Ca1 Pt2 3.202937 1_555
Ca1 Ca2 3.297362 1_555
Ca2 Pt5 3.166403 1_555
Ca2 Pt7 3.166403 1_555
Ca2 Pt7 3.166417 1_565
Ca2 Pt5 3.166417 1_455
Ca2 Pt6 3.166417 1_565
Ca2 Pt6 3.166417 1_455
Ca2 Pt1 3.174760 1_565
Ca2 Pt1 3.174898 1_665
Ca2 Pt1 3.174898 1_555
Ca2 Pt3 3.202821 1_554
Ca2 Pt4 3.202937 1_554
Ca2 Pt2 3.202937 1_554
Ca2 Ca3 3.329843 1_454
Ca2 Ca3 3.329843 1_564
Ca2 Ca3 3.330079 1_554
Ca3 Pt2 3.166403 1_555
Ca3 Pt4 3.166403 1_555
Ca3 Pt4 3.166417 1_545
Ca3 Pt2 3.166417 1_655
Ca3 Pt3 3.166417 1_655
Ca3 Pt3 3.166417 1_545
Ca3 Pt1 3.174760 1_656
Ca3 Pt1 3.174898 1_666
Ca3 Pt1 3.174898 1_556
Ca3 Pt6 3.202821 1_556
Ca3 Pt5 3.202937 1_556
Ca3 Pt7 3.202937 1_556
Pt0 Pt5 2.732646 1_445
Pt0 Pt4 2.732646 1_445
Pt0 Pt2 2.732646 1_555
Pt0 Pt7 2.732646 1_555
Pt0 Pt3 2.732704 1_545
Pt0 Pt6 2.732704 1_455
Pt1 Pt5 2.732646 1_445
Pt1 Pt4 2.732646 1_444
Pt1 Pt2 2.732646 1_554
Pt1 Pt7 2.732646 1_555
Pt1 Pt3 2.732704 1_544
Pt1 Pt6 2.732704 1_455
Pt2 Pt4 2.667285 1_555
Pt2 Pt3 2.667311 1_555
Pt2 Pt3 2.739194 1_545
Pt2 Pt4 2.739237 1_445
Pt3 Pt4 2.667311 1_555
Pt3 Pt4 2.739194 1_455
Pt5 Pt7 2.667285 1_555
Pt5 Pt6 2.667311 1_555
Pt5 Pt6 2.739194 1_565
Pt5 Pt7 2.739237 1_665
Pt6 Pt7 2.667311 1_555
Pt6 Pt7 2.739194 1_655
