# generated using pymatgen
data_CaCuF5
_symmetry_space_group_name_H-M   'P 1'
_cell_length_a   5.54428800
_cell_length_b   5.55540198
_cell_length_c   7.71083208
_cell_angle_alpha   69.38132926
_cell_angle_beta   69.63660232
_cell_angle_gamma   71.15789169
_symmetry_Int_Tables_number   1
_chemical_formula_structural   CaCuF5
_chemical_formula_sum   'Ca2 Cu2 F10'
_cell_volume   202.88526725
_cell_formula_units_Z   2
loop_
 _symmetry_equiv_pos_site_id
 _symmetry_equiv_pos_as_xyz
  1  'x, y, z'
loop_
 _atom_site_type_symbol
 _atom_site_label
 _atom_site_symmetry_multiplicity
 _atom_site_fract_x
 _atom_site_fract_y
 _atom_site_fract_z
 _atom_site_occupancy
  Ca  Ca0  1  0.45825800  0.54346100  0.74964100  1
  Ca  Ca1  1  0.54174200  0.45653900  0.25035900  1
  Cu  Cu0  1  0.00000000  0.00000000  0.00000000  1
  Cu  Cu1  1  0.00000000  0.00000000  0.50000000  1
  F  F0  1  0.92839200  0.06294600  0.25403400  1
  F  F1  1  0.07160800  0.93705400  0.74596600  1
  F  F2  1  0.25000200  0.20750000  0.37822700  1
  F  F3  1  0.78551700  0.76434300  0.11379000  1
  F  F4  1  0.30609200  0.71296500  0.02228900  1
  F  F5  1  0.28710000  0.68915900  0.47816900  1
  F  F6  1  0.69390800  0.28703500  0.97771100  1
  F  F7  1  0.71290000  0.31084100  0.52183100  1
  F  F8  1  0.21448300  0.23565700  0.88621000  1
  F  F9  1  0.74999800  0.79250000  0.62177300  1
loop_
_geom_bond_atom_site_label_1
_geom_bond_atom_site_label_2
_geom_bond_distance
_geom_bond_site_symmetry_2
Ca0 F9 2.208473 1_555
Ca0 F8 2.256929 1_555
Ca0 F7 2.333082 1_555
Ca0 F6 2.336976 1_555
Ca0 F5 2.372860 1_555
Ca0 F4 2.380148 1_556
Ca0 F1 2.519584 1_555
Ca1 F2 2.208473 1_555
Ca1 F3 2.256929 1_555
Ca1 F5 2.333082 1_555
Ca1 F4 2.336976 1_555
Ca1 F7 2.372860 1_555
Ca1 F6 2.380148 1_554
Ca1 F0 2.519584 1_555
Cu0 F8 1.835293 1_554
Cu0 F3 1.835293 1_445
Cu0 F4 1.927255 1_545
Cu0 F6 1.927255 1_454
Cu0 F0 1.992080 1_455
Cu0 F1 1.992080 1_544
Cu1 F2 1.869674 1_555
Cu1 F9 1.869674 1_445
Cu1 F7 1.945979 1_455
Cu1 F5 1.945979 1_545
Cu1 F1 1.960679 1_545
Cu1 F0 1.960679 1_455
