# generated using pymatgen
data_Pr(BO2)5
_symmetry_space_group_name_H-M   'P 1'
_cell_length_a   10.37084200
_cell_length_b   6.55935900
_cell_length_c   11.22540007
_cell_angle_alpha   66.19028407
_cell_angle_beta   90.00000000
_cell_angle_gamma   90.00000000
_symmetry_Int_Tables_number   1
_chemical_formula_structural   Pr(BO2)5
_chemical_formula_sum   'Pr4 B20 O40'
_cell_volume   698.62915909
_cell_formula_units_Z   4
loop_
 _symmetry_equiv_pos_site_id
 _symmetry_equiv_pos_as_xyz
  1  'x, y, z'
loop_
 _atom_site_type_symbol
 _atom_site_label
 _atom_site_symmetry_multiplicity
 _atom_site_fract_x
 _atom_site_fract_y
 _atom_site_fract_z
 _atom_site_occupancy
  Pr  Pr0  1  0.14208600  0.23116700  0.12807700  1
  Pr  Pr1  1  0.64208600  0.76883300  0.37192300  1
  Pr  Pr2  1  0.85791400  0.76883300  0.87192300  1
  Pr  Pr3  1  0.35791400  0.23116700  0.62807700  1
  B  B0  1  0.31976400  0.44361000  0.83163500  1
  B  B1  1  0.81976400  0.55639000  0.66836500  1
  B  B2  1  0.68023600  0.55639000  0.16836500  1
  B  B3  1  0.18023600  0.44361000  0.33163500  1
  B  B4  1  0.37184300  0.74895700  0.60197800  1
  B  B5  1  0.87184300  0.25104300  0.89802200  1
  B  B6  1  0.62815700  0.25104300  0.39802200  1
  B  B7  1  0.12815700  0.74895700  0.10197800  1
  B  B8  1  0.15531600  0.70281300  0.88132100  1
  B  B9  1  0.65531600  0.29718700  0.61867900  1
  B  B10  1  0.84468400  0.29718700  0.11867900  1
  B  B11  1  0.34468400  0.70281300  0.38132100  1
  B  B12  1  0.00680700  0.30913200  0.70098400  1
  B  B13  1  0.50680700  0.69086800  0.79901600  1
  B  B14  1  0.99319300  0.69086800  0.29901600  1
  B  B15  1  0.49319300  0.30913200  0.20098400  1
  B  B16  1  0.26237600  0.01084600  0.91817300  1
  B  B17  1  0.76237600  0.98915400  0.58182700  1
  B  B18  1  0.73762400  0.98915400  0.08182700  1
  B  B19  1  0.23762400  0.01084600  0.41817300  1
  O  O0  1  0.44241100  0.50189100  0.87346000  1
  O  O1  1  0.94241100  0.49810900  0.62654000  1
  O  O2  1  0.55758900  0.49810900  0.12654000  1
  O  O3  1  0.05758900  0.50189100  0.37346000  1
  O  O4  1  0.30115900  0.55751600  0.69044500  1
  O  O5  1  0.80115900  0.44248400  0.80955500  1
  O  O6  1  0.69884100  0.44248400  0.30955500  1
  O  O7  1  0.19884100  0.55751600  0.19044500  1
  O  O8  1  0.21031600  0.48136300  0.90655100  1
  O  O9  1  0.71031600  0.51863700  0.59344900  1
  O  O10  1  0.78968400  0.51863700  0.09344900  1
  O  O11  1  0.28968400  0.48136300  0.40655100  1
  O  O12  1  0.11033500  0.23914500  0.64948700  1
  O  O13  1  0.61033500  0.76085500  0.85051300  1
  O  O14  1  0.88966500  0.76085500  0.35051300  1
  O  O15  1  0.38966500  0.23914500  0.14948700  1
  O  O16  1  0.29070000  0.95414900  0.53920700  1
  O  O17  1  0.79070000  0.04585100  0.96079300  1
  O  O18  1  0.70930000  0.04585100  0.46079300  1
  O  O19  1  0.20930000  0.95414900  0.03920700  1
  O  O20  1  0.32513900  0.20594500  0.85363300  1
  O  O21  1  0.82513900  0.79405500  0.64636700  1
  O  O22  1  0.67486100  0.79405500  0.14636700  1
  O  O23  1  0.17486100  0.20594500  0.35363300  1
  O  O24  1  0.92340900  0.31621900  0.00099100  1
  O  O25  1  0.42340900  0.68378100  0.49900900  1
  O  O26  1  0.07659100  0.68378100  0.99900900  1
  O  O27  1  0.57659100  0.31621900  0.50099100  1
  O  O28  1  0.74544100  0.12242000  0.15029900  1
  O  O29  1  0.24544100  0.87758000  0.34970100  1
  O  O30  1  0.25455900  0.87758000  0.84970100  1
  O  O31  1  0.75455900  0.12242000  0.65029900  1
  O  O32  1  0.02832300  0.82573200  0.17087200  1
  O  O33  1  0.52832300  0.17426800  0.32912800  1
  O  O34  1  0.97167700  0.17426800  0.82912800  1
  O  O35  1  0.47167700  0.82573200  0.67087200  1
  O  O36  1  0.93327400  0.24574100  0.22571400  1
  O  O37  1  0.43327400  0.75425900  0.27428600  1
  O  O38  1  0.06672600  0.75425900  0.77428600  1
  O  O39  1  0.56672600  0.24574100  0.72571400  1
loop_
_geom_bond_atom_site_label_1
_geom_bond_atom_site_label_2
_geom_bond_distance
_geom_bond_site_symmetry_2
B0 O0 1.459231 1_555
B0 O4 1.466737 1_555
B0 O20 1.477678 1_555
B0 O8 1.491664 1_555
B1 O1 1.459231 1_555
B1 O5 1.466737 1_555
B1 O21 1.477678 1_555
B1 O9 1.491664 1_555
B2 O2 1.459231 1_555
B2 O6 1.466737 1_555
B2 O22 1.477678 1_555
B2 O10 1.491664 1_555
B3 O3 1.459231 1_555
B3 O7 1.466737 1_555
B3 O23 1.477678 1_555
B3 O11 1.491664 1_555
B4 O4 1.446917 1_555
B4 O25 1.484509 1_555
B4 O35 1.496036 1_555
B4 O16 1.500153 1_555
B5 O5 1.446917 1_555
B5 O24 1.484509 1_556
B5 O34 1.496036 1_555
B5 O17 1.500153 1_555
B6 O6 1.446917 1_555
B6 O27 1.484509 1_555
B6 O33 1.496036 1_555
B6 O18 1.500153 1_555
B7 O7 1.446917 1_555
B7 O26 1.484509 1_554
B7 O32 1.496036 1_555
B7 O19 1.500153 1_555
B8 O38 1.440224 1_555
B8 O30 1.473404 1_555
B8 O8 1.477621 1_555
B8 O26 1.514694 1_555
B9 O39 1.440224 1_555
B9 O31 1.473404 1_555
B9 O9 1.477621 1_555
B9 O27 1.514694 1_555
B10 O36 1.440224 1_555
B10 O28 1.473404 1_555
B10 O10 1.477621 1_555
B10 O24 1.514694 1_555
B11 O37 1.440224 1_555
B11 O29 1.473404 1_555
B11 O11 1.477621 1_555
B11 O25 1.514694 1_555
B12 O1 1.358130 1_455
B12 O12 1.382734 1_555
B12 O34 1.398950 1_455
B13 O0 1.358130 1_555
B13 O13 1.382734 1_555
B13 O35 1.398950 1_555
B14 O3 1.358130 1_655
B14 O14 1.382734 1_555
B14 O32 1.398950 1_655
B15 O2 1.358130 1_555
B15 O15 1.382734 1_555
B15 O33 1.398950 1_555
B16 O20 1.355609 1_555
B16 O19 1.370867 1_546
B16 O30 1.379840 1_545
B17 O21 1.355609 1_555
B17 O18 1.370867 1_565
B17 O31 1.379840 1_565
B18 O22 1.355609 1_555
B18 O17 1.370867 1_564
B18 O28 1.379840 1_565
B19 O23 1.355609 1_555
B19 O16 1.370867 1_545
B19 O29 1.379840 1_545
O4 Pr3 2.574678 1_555
O5 Pr2 2.574678 1_555
O6 Pr1 2.574678 1_555
O7 Pr0 2.574678 1_555
O8 Pr0 2.466322 1_556
O9 Pr1 2.466322 1_555
O10 Pr2 2.466322 1_554
O11 Pr3 2.466322 1_555
O12 Pr3 2.581325 1_555
O13 Pr2 2.581325 1_555
O14 Pr1 2.581325 1_555
O15 Pr0 2.581325 1_555
O16 Pr3 2.499279 1_565
O17 Pr2 2.499279 1_545
O18 Pr1 2.499279 1_545
O19 Pr0 2.499279 1_565
O20 Pr3 2.493090 1_555
O21 Pr2 2.493090 1_555
O22 Pr1 2.493090 1_555
O23 Pr0 2.493090 1_555
O24 Pr0 2.616681 1_655
O24 Pr2 2.810990 1_554
O25 Pr1 2.616681 1_555
O25 Pr3 2.810990 1_555
O26 Pr2 2.616681 1_455
O26 Pr0 2.810990 1_556
O27 Pr3 2.616681 1_555
O27 Pr1 2.810990 1_555
O28 Pr1 2.838772 1_545
O29 Pr0 2.838772 1_565
O30 Pr3 2.838772 1_565
O31 Pr2 2.838772 1_545
O32 Pr0 2.768326 1_565
O33 Pr1 2.768326 1_545
O34 Pr2 2.768326 1_545
O35 Pr3 2.768326 1_565
O36 Pr0 2.446347 1_655
O37 Pr1 2.446347 1_555
O38 Pr2 2.446347 1_455
O39 Pr3 2.446347 1_555
