# generated using pymatgen
data_Zr6Be15Pd8
_symmetry_space_group_name_H-M   'P 1'
_cell_length_a   8.08849935
_cell_length_b   8.08850125
_cell_length_c   8.08849878
_cell_angle_alpha   59.99641493
_cell_angle_beta   59.99641964
_cell_angle_gamma   59.99641328
_symmetry_Int_Tables_number   1
_chemical_formula_structural   Zr6Be15Pd8
_chemical_formula_sum   'Zr6 Be15 Pd8'
_cell_volume   374.15680247
_cell_formula_units_Z   1
loop_
 _symmetry_equiv_pos_site_id
 _symmetry_equiv_pos_as_xyz
  1  'x, y, z'
loop_
 _atom_site_type_symbol
 _atom_site_label
 _atom_site_symmetry_multiplicity
 _atom_site_fract_x
 _atom_site_fract_y
 _atom_site_fract_z
 _atom_site_occupancy
  Zr  Zr0  1  0.70075022  0.29924815  0.29924786  1
  Zr  Zr1  1  0.29924941  0.70075182  0.70075258  1
  Zr  Zr2  1  0.29924835  0.70075049  0.29924817  1
  Zr  Zr3  1  0.70075163  0.29924998  0.70075178  1
  Zr  Zr4  1  0.29924790  0.29924781  0.70075037  1
  Zr  Zr5  1  0.70075194  0.70075186  0.29924951  1
  Be  Be0  1  0.32479997  0.32479909  0.32479992  1
  Be  Be1  1  0.67520028  0.67520049  0.67519991  1
  Be  Be2  1  0.32478941  0.32478992  0.02562261  1
  Be  Be3  1  0.32478975  0.02562253  0.32478923  1
  Be  Be4  1  0.67521072  0.67521069  0.97437700  1
  Be  Be5  1  0.67521065  0.97437751  0.67521040  1
  Be  Be6  1  0.02562251  0.32478974  0.32478925  1
  Be  Be7  1  0.97437748  0.67521085  0.67521024  1
  Be  Be8  1  0.50000127  -0.00000073  0.00000082  1
  Be  Be9  1  -0.00000169  0.50000030  0.50000052  1
  Be  Be10  1  -0.00000133  0.50000125  0.00000094  1
  Be  Be11  1  0.49999997  -0.00000032  0.49999890  1
  Be  Be12  1  -0.00000055  0.00000043  0.50000025  1
  Be  Be13  1  0.50000011  0.49999996  -0.00000020  1
  Be  Be14  1  -0.00000123  -0.00000047  0.00000090  1
  Pd  Pd0  1  0.12508133  0.12508085  0.12508100  1
  Pd  Pd1  1  0.87491971  0.87491846  0.87491920  1
  Pd  Pd2  1  0.12508062  0.12508036  0.62475362  1
  Pd  Pd3  1  0.12508182  0.62475314  0.12508310  1
  Pd  Pd4  1  0.87491815  0.87491917  0.37524703  1
  Pd  Pd5  1  0.87491959  0.37524654  0.87491831  1
  Pd  Pd6  1  0.62475358  0.12508118  0.12508028  1
  Pd  Pd7  1  0.37524642  0.87491893  0.87491848  1
loop_
_geom_bond_atom_site_label_1
_geom_bond_atom_site_label_2
_geom_bond_distance
_geom_bond_site_symmetry_2
Be0 Be11 2.340931 1_555
Be0 Be13 2.340939 1_555
Be0 Be9 2.340948 1_555
Be0 Be3 2.419975 1_555
Be0 Be2 2.419975 1_555
Be0 Be6 2.419978 1_555
Be0 Pd3 2.424026 1_555
Be0 Pd6 2.424035 1_555
Be0 Pd2 2.424038 1_555
Be0 Zr0 2.849208 1_555
Be0 Zr4 2.849208 1_555
Be0 Zr2 2.849217 1_555
Be1 Be9 2.340926 1_655
Be1 Be11 2.340936 1_565
Be1 Be13 2.340937 1_556
Be1 Be4 2.419977 1_555
Be1 Be5 2.419978 1_555
Be1 Be7 2.419978 1_555
Be1 Pd4 2.424029 1_555
Be1 Pd7 2.424034 1_555
Be1 Pd5 2.424036 1_555
Be1 Zr5 2.849209 1_555
Be1 Zr1 2.849210 1_555
Be1 Zr3 2.849210 1_555
Be2 Be8 2.340978 1_555
Be2 Be6 2.419679 1_555
Be2 Be3 2.419681 1_555
Be2 Pd6 2.424044 1_555
Be2 Pd3 2.424049 1_555
Be2 Pd0 2.424084 1_555
Be2 Zr1 2.849210 1_554
Be2 Zr3 2.849214 1_554
Be2 Zr4 2.849364 1_554
Be3 Be8 2.340965 1_555
Be3 Be6 2.419683 1_555
Be3 Pd6 2.424046 1_555
Be3 Pd2 2.424046 1_555
Be3 Pd0 2.424080 1_555
Be3 Zr5 2.849213 1_545
Be3 Zr1 2.849219 1_545
Be3 Zr2 2.849358 1_545
Be4 Be8 2.340969 1_566
Be4 Be5 2.419679 1_555
Be4 Be7 2.419679 1_555
Be4 Pd7 2.424048 1_555
Be4 Pd5 2.424048 1_555
Be4 Pd1 2.424083 1_555
Be4 Zr0 2.849216 1_556
Be4 Zr2 2.849216 1_556
Be4 Zr5 2.849361 1_556
Be5 Be8 2.340975 1_566
Be5 Be7 2.419679 1_555
Be5 Pd4 2.424041 1_555
Be5 Pd7 2.424048 1_555
Be5 Pd1 2.424086 1_555
Be5 Zr4 2.849215 1_565
Be5 Zr0 2.849215 1_565
Be5 Zr3 2.849361 1_565
Be6 Be9 2.341146 1_555
Be6 Pd3 2.424046 1_555
Be6 Pd2 2.424047 1_555
Be6 Pd0 2.424083 1_555
Be6 Zr5 2.849213 1_455
Be6 Zr3 2.849215 1_455
Be6 Zr0 2.849362 1_455
Be7 Be9 2.341149 1_655
Be7 Pd4 2.424044 1_555
Be7 Pd5 2.424046 1_555
Be7 Pd1 2.424082 1_555
Be7 Zr2 2.849213 1_655
Be7 Zr4 2.849216 1_655
Be7 Zr1 2.849360 1_655
Be8 Pd1 2.475937 1_544
Be8 Pd0 2.475947 1_555
Be8 Pd6 2.476085 1_555
Be8 Pd7 2.476110 1_544
Be8 Zr5 2.914563 1_545
Be8 Zr2 2.914575 1_545
Be8 Zr3 2.914576 1_554
Be8 Zr4 2.914587 1_554
Be9 Pd3 2.475930 1_555
Be9 Pd5 2.475933 1_455
Be9 Pd4 2.475940 1_455
Be9 Pd2 2.475948 1_555
Be9 Zr3 2.914609 1_455
Be9 Zr5 2.914610 1_455
Be9 Zr4 2.914624 1_555
Be9 Zr2 2.914630 1_555
Be10 Be4 2.340964 1_454
Be10 Be6 2.340966 1_555
Be10 Be7 2.340975 1_454
Be10 Be2 2.340977 1_555
Be10 Pd1 2.475929 1_454
Be10 Pd0 2.475950 1_555
Be10 Pd5 2.476103 1_454
Be10 Pd3 2.476108 1_555
Be10 Zr5 2.914562 1_455
Be10 Zr0 2.914573 1_455
Be10 Zr1 2.914576 1_554
Be10 Zr4 2.914589 1_554
Be11 Be3 2.341138 1_555
Be11 Be5 2.341157 1_545
Be11 Pd4 2.475935 1_545
Be11 Pd6 2.475938 1_555
Be11 Pd2 2.475943 1_555
Be11 Pd7 2.475945 1_545
Be11 Zr5 2.914611 1_545
Be11 Zr1 2.914616 1_545
Be11 Zr0 2.914621 1_555
Be11 Zr4 2.914624 1_555
Be12 Be5 2.340967 1_445
Be12 Be7 2.340971 1_445
Be12 Be6 2.340972 1_555
Be12 Be3 2.340976 1_555
Be12 Pd1 2.475940 1_445
Be12 Pd0 2.475942 1_555
Be12 Pd2 2.476090 1_555
Be12 Pd4 2.476098 1_445
Be12 Zr3 2.914573 1_455
Be12 Zr0 2.914574 1_455
Be12 Zr2 2.914579 1_545
Be12 Zr1 2.914579 1_545
Be13 Be2 2.341144 1_555
Be13 Be4 2.341149 1_554
Be13 Pd3 2.475936 1_555
Be13 Pd6 2.475940 1_555
Be13 Pd7 2.475941 1_554
Be13 Pd5 2.475944 1_554
Be13 Zr1 2.914613 1_554
Be13 Zr3 2.914616 1_554
Be13 Zr0 2.914616 1_555
Be13 Zr2 2.914621 1_555
Be14 Pd6 2.478094 1_455
Be14 Pd4 2.478101 1_445
Be14 Pd3 2.478103 1_545
Be14 Pd5 2.478107 1_454
Be14 Pd2 2.478108 1_554
Be14 Pd7 2.478111 1_544
Be14 Pd1 2.478251 1_444
Be14 Pd0 2.478266 1_555
Pd0 Zr2 2.839482 1_545
Pd0 Zr4 2.839482 1_554
Pd0 Zr0 2.839486 1_455
Pd1 Zr1 2.839477 1_655
Pd1 Zr5 2.839481 1_556
Pd1 Zr3 2.839490 1_565
Pd2 Zr1 2.839497 1_545
Pd2 Zr3 2.839500 1_455
Pd2 Zr4 2.839706 1_555
Pd3 Zr5 2.839506 1_455
Pd3 Zr1 2.839510 1_554
Pd3 Zr2 2.839688 1_555
Pd4 Zr0 2.839500 1_565
Pd4 Zr2 2.839508 1_655
Pd4 Zr5 2.839702 1_555
Pd5 Zr4 2.839495 1_655
Pd5 Zr0 2.839504 1_556
Pd5 Zr3 2.839703 1_555
Pd6 Zr3 2.839497 1_554
Pd6 Zr5 2.839503 1_545
Pd6 Zr0 2.839704 1_555
Pd7 Zr4 2.839500 1_565
Pd7 Zr2 2.839505 1_556
Pd7 Zr1 2.839696 1_555
