# generated using pymatgen
data_Al4(BiS4)3
_symmetry_space_group_name_H-M   'P 1'
_cell_length_a   7.25642552
_cell_length_b   7.25642552
_cell_length_c   39.67041600
_cell_angle_alpha   90.00000000
_cell_angle_beta   90.00000000
_cell_angle_gamma   91.98614082
_symmetry_Int_Tables_number   1
_chemical_formula_structural   Al4(BiS4)3
_chemical_formula_sum   'Al16 Bi12 S48'
_cell_volume   2087.61906121
_cell_formula_units_Z   4
loop_
 _symmetry_equiv_pos_site_id
 _symmetry_equiv_pos_as_xyz
  1  'x, y, z'
loop_
 _atom_site_type_symbol
 _atom_site_label
 _atom_site_symmetry_multiplicity
 _atom_site_fract_x
 _atom_site_fract_y
 _atom_site_fract_z
 _atom_site_occupancy
  Al  Al0  1  0.00000000  0.50000000  0.41332800  1
  Al  Al1  1  0.00000000  0.50000000  0.73350100  1
  Al  Al2  1  0.00000000  0.50000000  0.48859400  1
  Al  Al3  1  0.00000000  0.50000000  0.15711900  1
  Al  Al4  1  0.00000000  0.50000000  0.91332800  1
  Al  Al5  1  0.00000000  0.50000000  0.23350100  1
  Al  Al6  1  0.50000000  0.00000000  0.01140600  1
  Al  Al7  1  0.50000000  0.00000000  0.34288100  1
  Al  Al8  1  0.50000000  0.00000000  0.58667200  1
  Al  Al9  1  0.50000000  0.00000000  0.26649900  1
  Al  Al10  1  0.50000000  0.00000000  0.76649900  1
  Al  Al11  1  0.50000000  0.00000000  0.08667200  1
  Al  Al12  1  0.00000000  0.50000000  0.65711900  1
  Al  Al13  1  0.00000000  0.50000000  0.98859400  1
  Al  Al14  1  0.50000000  0.00000000  0.51140600  1
  Al  Al15  1  0.50000000  0.00000000  0.84288100  1
  Bi  Bi0  1  0.50000000  0.50000000  0.70944800  1
  Bi  Bi1  1  0.50000000  0.50000000  0.04096800  1
  Bi  Bi2  1  0.50000000  0.50000000  0.36948700  1
  Bi  Bi3  1  0.00000000  0.00000000  0.45903200  1
  Bi  Bi4  1  0.00000000  0.00000000  0.79055200  1
  Bi  Bi5  1  0.00000000  0.00000000  0.13051300  1
  Bi  Bi6  1  0.50000000  0.50000000  0.63051300  1
  Bi  Bi7  1  0.50000000  0.50000000  0.95903200  1
  Bi  Bi8  1  0.50000000  0.50000000  0.29055200  1
  Bi  Bi9  1  0.00000000  0.00000000  0.54096800  1
  Bi  Bi10  1  0.00000000  0.00000000  0.86948700  1
  Bi  Bi11  1  0.00000000  0.00000000  0.20944800  1
  S  S0  1  0.82285700  0.33306800  0.45306500  1
  S  S1  1  0.80764200  0.32995100  0.76989500  1
  S  S2  1  0.80575800  0.30490800  0.13165900  1
  S  S3  1  0.68759400  0.79501800  0.61015300  1
  S  S4  1  0.70550000  0.83113800  0.97914400  1
  S  S5  1  0.67637400  0.84370800  0.30158500  1
  S  S6  1  0.33306800  0.82285700  0.54693500  1
  S  S7  1  0.30490800  0.80575800  0.86834100  1
  S  S8  1  0.32995100  0.80764200  0.23010500  1
  S  S9  1  0.84370800  0.67637400  0.69841500  1
  S  S10  1  0.83113800  0.70550000  0.02085600  1
  S  S11  1  0.79501800  0.68759400  0.38984700  1
  S  S12  1  0.31240600  0.20498200  0.61015300  1
  S  S13  1  0.29450000  0.16886200  0.97914400  1
  S  S14  1  0.32362600  0.15629200  0.30158500  1
  S  S15  1  0.17714300  0.66693200  0.45306500  1
  S  S16  1  0.19235800  0.67004900  0.76989500  1
  S  S17  1  0.19424200  0.69509200  0.13165900  1
  S  S18  1  0.80490800  0.30575800  0.63165900  1
  S  S19  1  0.83306800  0.32285700  0.95306500  1
  S  S20  1  0.82995100  0.30764200  0.26989500  1
  S  S21  1  0.66693200  0.17714300  0.54693500  1
  S  S22  1  0.69509200  0.19424200  0.86834100  1
  S  S23  1  0.67004900  0.19235800  0.23010500  1
  S  S24  1  0.69235800  0.17004900  0.73010500  1
  S  S25  1  0.67714300  0.16693200  0.04693500  1
  S  S26  1  0.69424200  0.19509200  0.36834100  1
  S  S27  1  0.15629200  0.32362600  0.69841500  1
  S  S28  1  0.16886200  0.29450000  0.02085600  1
  S  S29  1  0.20498200  0.31240600  0.38984700  1
  S  S30  1  0.66886200  0.79450000  0.47914400  1
  S  S31  1  0.65629200  0.82362600  0.80158500  1
  S  S32  1  0.70498200  0.81240600  0.11015300  1
  S  S33  1  0.33113800  0.20550000  0.47914400  1
  S  S34  1  0.34370800  0.17637400  0.80158500  1
  S  S35  1  0.29501800  0.18759400  0.11015300  1
  S  S36  1  0.19509200  0.69424200  0.63165900  1
  S  S37  1  0.16693200  0.67714300  0.95306500  1
  S  S38  1  0.17004900  0.69235800  0.26989500  1
  S  S39  1  0.20550000  0.33113800  0.52085600  1
  S  S40  1  0.18759400  0.29501800  0.88984700  1
  S  S41  1  0.17637400  0.34370800  0.19841500  1
  S  S42  1  0.79450000  0.66886200  0.52085600  1
  S  S43  1  0.81240600  0.70498200  0.88984700  1
  S  S44  1  0.82362600  0.65629200  0.19841500  1
  S  S45  1  0.30764200  0.82995100  0.73010500  1
  S  S46  1  0.32285700  0.83306800  0.04693500  1
  S  S47  1  0.30575800  0.80490800  0.36834100  1
loop_
_geom_bond_atom_site_label_1
_geom_bond_atom_site_label_2
_geom_bond_distance
_geom_bond_site_symmetry_2
Al0 S11 2.252453 1_455
Al0 S29 2.252453 1_555
Al0 S15 2.344502 1_555
Al0 S0 2.344502 1_455
Al1 S9 2.227592 1_455
Al1 S27 2.227592 1_555
Al1 S16 2.331532 1_555
Al1 S1 2.331532 1_455
Al2 S0 2.235678 1_455
Al2 S15 2.235678 1_555
Al2 S42 2.343026 1_455
Al2 S39 2.343026 1_555
Al3 S17 2.207403 1_555
Al3 S2 2.207403 1_455
Al3 S44 2.389276 1_455
Al3 S41 2.389276 1_555
Al4 S40 2.252453 1_555
Al4 S43 2.252453 1_455
Al4 S37 2.344502 1_555
Al4 S19 2.344502 1_455
Al5 S44 2.227592 1_455
Al5 S41 2.227592 1_555
Al5 S38 2.331532 1_555
Al5 S20 2.331532 1_455
Al6 S25 2.235678 1_555
Al6 S46 2.235678 1_545
Al6 S13 2.343026 1_554
Al6 S4 2.343026 1_544
Al7 S26 2.207403 1_555
Al7 S47 2.207403 1_545
Al7 S5 2.389276 1_545
Al7 S14 2.389276 1_555
Al8 S3 2.252453 1_545
Al8 S12 2.252453 1_555
Al8 S21 2.344502 1_555
Al8 S6 2.344502 1_545
Al9 S5 2.227592 1_545
Al9 S14 2.227592 1_555
Al9 S8 2.331532 1_545
Al9 S23 2.331532 1_555
Al10 S31 2.227592 1_545
Al10 S34 2.227592 1_555
Al10 S24 2.331532 1_555
Al10 S45 2.331532 1_545
Al11 S35 2.252453 1_555
Al11 S32 2.252453 1_545
Al11 S25 2.344502 1_555
Al11 S46 2.344502 1_545
Al12 S36 2.207403 1_555
Al12 S18 2.207403 1_455
Al12 S9 2.389276 1_455
Al12 S27 2.389276 1_555
Al13 S37 2.235678 1_555
Al13 S19 2.235678 1_455
Al13 S28 2.343026 1_556
Al13 S10 2.343026 1_456
Al14 S21 2.235678 1_555
Al14 S6 2.235678 1_545
Al14 S33 2.343026 1_555
Al14 S30 2.343026 1_545
Al15 S22 2.207403 1_555
Al15 S7 2.207403 1_545
Al15 S31 2.389276 1_545
Al15 S34 2.389276 1_555
Bi0 S9 2.798000 1_555
Bi0 S27 2.798000 1_555
Bi0 S24 2.929852 1_555
Bi0 S45 2.929852 1_555
Bi1 S46 2.786578 1_555
Bi1 S25 2.786578 1_555
Bi1 S10 2.895805 1_555
Bi1 S28 2.895805 1_555
Bi2 S11 2.624180 1_555
Bi2 S29 2.624180 1_555
Bi2 S26 2.664634 1_555
Bi2 S47 2.664634 1_555
Bi3 S0 2.786578 1_455
Bi3 S15 2.786578 1_545
Bi3 S30 2.895805 1_445
Bi3 S33 2.895805 1_555
Bi4 S34 2.798000 1_555
Bi4 S31 2.798000 1_445
Bi4 S16 2.929852 1_545
Bi4 S1 2.929852 1_455
Bi5 S35 2.624180 1_555
Bi5 S32 2.624180 1_445
Bi5 S2 2.664634 1_455
Bi5 S17 2.664634 1_545
Bi6 S3 2.624180 1_555
Bi6 S12 2.624180 1_555
Bi6 S36 2.664634 1_555
Bi6 S18 2.664634 1_555
Bi7 S19 2.786578 1_555
Bi7 S37 2.786578 1_555
Bi7 S4 2.895805 1_555
Bi7 S13 2.895805 1_555
Bi8 S5 2.798000 1_555
Bi8 S14 2.798000 1_555
Bi8 S38 2.929852 1_555
Bi8 S20 2.929852 1_555
Bi9 S21 2.786578 1_455
Bi9 S6 2.786578 1_545
Bi9 S39 2.895805 1_555
Bi9 S42 2.895805 1_445
Bi10 S40 2.624180 1_555
Bi10 S43 2.624180 1_445
Bi10 S7 2.664634 1_545
Bi10 S22 2.664634 1_455
Bi11 S41 2.798000 1_555
Bi11 S44 2.798000 1_445
Bi11 S23 2.929852 1_455
Bi11 S8 2.929852 1_545
S1 S24 2.114353 1_555
S10 S4 2.111417 1_554
S13 S28 2.111417 1_556
S16 S45 2.114353 1_555
S20 S23 2.114353 1_555
S30 S42 2.111417 1_555
S33 S39 2.111417 1_555
S38 S8 2.114353 1_555
