# generated using pymatgen
data_HgPb4
_symmetry_space_group_name_H-M   'P 1'
_cell_length_a   7.06737080
_cell_length_b   7.06737080
_cell_length_c   28.12014724
_cell_angle_alpha   82.78091026
_cell_angle_beta   90.00000000
_cell_angle_gamma   120.00000000
_symmetry_Int_Tables_number   1
_chemical_formula_structural   HgPb4
_chemical_formula_sum   'Hg8 Pb32'
_cell_volume   1203.49165833
_cell_formula_units_Z   8
loop_
 _symmetry_equiv_pos_site_id
 _symmetry_equiv_pos_as_xyz
  1  'x, y, z'
loop_
 _atom_site_type_symbol
 _atom_site_label
 _atom_site_symmetry_multiplicity
 _atom_site_fract_x
 _atom_site_fract_y
 _atom_site_fract_z
 _atom_site_occupancy
  Hg  Hg0_0  1  0.00000000  0.00000000  0.00000000  1
  Hg  Hg0_1  1  1.00000000  0.00000000  0.50000000  1
  Hg  Hg0_2  1  0.00000000  0.50000000  0.00000000  1
  Hg  Hg0_3  1  0.00000000  0.50000000  0.50000000  1
  Hg  Hg0_4  1  0.50000000  1.00000000  0.00000000  1
  Hg  Hg0_5  1  0.50000000  1.00000000  0.50000000  1
  Hg  Hg0_6  1  0.50000000  0.50000000  0.00000000  1
  Hg  Hg0_7  1  0.50000000  0.50000000  0.50000000  1
  Pb  Pb0_0  1  0.30155883  0.10311667  0.09532449  1
  Pb  Pb0_1  1  0.30155883  0.10311667  0.59532449  1
  Pb  Pb0_2  1  0.30155883  0.60311667  0.09532449  1
  Pb  Pb0_3  1  0.30155883  0.60311667  0.59532449  1
  Pb  Pb0_4  1  0.80155883  0.10311667  0.09532449  1
  Pb  Pb0_5  1  0.80155883  0.10311667  0.59532449  1
  Pb  Pb0_6  1  0.80155883  0.60311667  0.09532449  1
  Pb  Pb0_7  1  0.80155883  0.60311667  0.59532449  1
  Pb  Pb1_0  1  0.10041982  0.20083863  0.19874155  1
  Pb  Pb1_1  1  0.10041982  0.20083863  0.69874155  1
  Pb  Pb1_2  1  0.10041982  0.70083863  0.19874155  1
  Pb  Pb1_3  1  0.10041982  0.70083863  0.69874155  1
  Pb  Pb1_4  1  0.60041981  0.20083863  0.19874155  1
  Pb  Pb1_5  1  0.60041981  0.20083863  0.69874155  1
  Pb  Pb1_6  1  0.60041981  0.70083863  0.19874155  1
  Pb  Pb1_7  1  0.60041981  0.70083863  0.69874155  1
  Pb  Pb2_0  1  0.39958018  0.29916137  0.30125845  1
  Pb  Pb2_1  1  0.39958018  0.29916137  0.80125845  1
  Pb  Pb2_2  1  0.39958018  0.79916137  0.30125845  1
  Pb  Pb2_3  1  0.39958018  0.79916137  0.80125845  1
  Pb  Pb2_4  1  0.89958018  0.29916137  0.30125845  1
  Pb  Pb2_5  1  0.89958018  0.29916137  0.80125845  1
  Pb  Pb2_6  1  0.89958018  0.79916137  0.30125845  1
  Pb  Pb2_7  1  0.89958018  0.79916137  0.80125845  1
  Pb  Pb3_0  1  0.19844116  0.39688333  0.40467551  1
  Pb  Pb3_1  1  0.19844116  0.39688332  0.90467551  1
  Pb  Pb3_2  1  0.19844116  0.89688333  0.40467551  1
  Pb  Pb3_3  1  0.19844116  0.89688333  0.90467551  1
  Pb  Pb3_4  1  0.69844116  0.39688333  0.40467551  1
  Pb  Pb3_5  1  0.69844116  0.39688332  0.90467551  1
  Pb  Pb3_6  1  0.69844116  0.89688332  0.40467551  1
  Pb  Pb3_7  1  0.69844116  0.89688333  0.90467551  1
loop_
_geom_bond_atom_site_label_1
_geom_bond_atom_site_label_2
_geom_bond_distance
_geom_bond_site_symmetry_2
Hg0_0 Pb3_3 3.346086 1_544
Hg0_0 Pb0_4 3.346086 1_455
Hg0_0 Pb3_7 3.346090 1_444
Hg0_0 Pb0_0 3.346090 1_555
Hg0_0 Pb3_1 3.346090 1_554
Hg0_0 Pb0_6 3.346090 1_445
Hg0_1 Pb0_5 3.346086 1_555
Hg0_1 Pb3_2 3.346086 1_645
Hg0_1 Pb0_1 3.346090 1_655
Hg0_1 Pb3_6 3.346090 1_545
Hg0_1 Pb0_7 3.346090 1_545
Hg0_1 Pb3_0 3.346090 1_655
Hg0_2 Pb3_1 3.346086 1_554
Hg0_2 Pb0_6 3.346086 1_455
Hg0_2 Pb0_2 3.346090 1_555
Hg0_2 Pb3_5 3.346090 1_454
Hg0_2 Pb3_3 3.346090 1_554
Hg0_2 Pb0_4 3.346090 1_455
Hg0_3 Pb0_7 3.346086 1_455
Hg0_3 Pb3_0 3.346086 1_555
Hg0_3 Pb0_3 3.346090 1_555
Hg0_3 Pb3_4 3.346090 1_455
Hg0_3 Pb0_5 3.346090 1_455
Hg0_3 Pb3_2 3.346090 1_555
Hg0_4 Pb3_7 3.346086 1_554
Hg0_4 Pb0_0 3.346086 1_565
Hg0_4 Pb3_3 3.346090 1_554
Hg0_4 Pb0_4 3.346090 1_565
Hg0_4 Pb3_5 3.346090 1_564
Hg0_4 Pb0_2 3.346090 1_555
Hg0_5 Pb0_1 3.346086 1_565
Hg0_5 Pb3_6 3.346086 1_555
Hg0_5 Pb0_5 3.346090 1_565
Hg0_5 Pb3_2 3.346090 1_555
Hg0_5 Pb0_3 3.346090 1_555
Hg0_5 Pb3_4 3.346090 1_565
Hg0_6 Pb0_2 3.346086 1_555
Hg0_6 Pb3_5 3.346086 1_554
Hg0_6 Pb3_1 3.346090 1_554
Hg0_6 Pb0_6 3.346090 1_555
Hg0_6 Pb3_7 3.346090 1_554
Hg0_6 Pb0_0 3.346090 1_555
Hg0_7 Pb3_4 3.346086 1_555
Hg0_7 Pb0_3 3.346086 1_555
Hg0_7 Pb0_7 3.346090 1_555
Hg0_7 Pb3_0 3.346090 1_555
Hg0_7 Pb3_6 3.346090 1_555
Hg0_7 Pb0_1 3.346090 1_555
Pb0_0 Pb1_0 3.527224 1_555
Pb0_0 Pb1_4 3.527224 1_555
Pb0_0 Pb1_2 3.527224 1_545
Pb0_0 Pb0_6 3.533685 1_555
Pb0_0 Pb0_2 3.533685 1_545
Pb0_0 Pb0_2 3.533685 1_555
Pb0_0 Pb0_4 3.533685 1_455
Pb0_0 Pb0_4 3.533685 1_555
Pb0_0 Pb0_6 3.533685 1_445
Pb0_1 Pb1_1 3.527224 1_555
Pb0_1 Pb1_5 3.527224 1_555
Pb0_1 Pb1_3 3.527224 1_545
Pb0_1 Pb0_5 3.533685 1_555
Pb0_1 Pb0_3 3.533685 1_545
Pb0_1 Pb0_7 3.533685 1_445
Pb0_1 Pb0_7 3.533685 1_555
Pb0_1 Pb0_5 3.533685 1_455
Pb0_1 Pb0_3 3.533685 1_555
Pb0_2 Pb1_2 3.527224 1_555
Pb0_2 Pb1_6 3.527224 1_555
Pb0_2 Pb1_0 3.527224 1_555
Pb0_2 Pb0_4 3.533685 1_565
Pb0_2 Pb0_6 3.533685 1_555
Pb0_2 Pb0_6 3.533685 1_455
Pb0_2 Pb0_4 3.533685 1_455
Pb0_3 Pb1_3 3.527224 1_555
Pb0_3 Pb1_7 3.527224 1_555
Pb0_3 Pb1_1 3.527224 1_555
Pb0_3 Pb0_5 3.533685 1_565
Pb0_3 Pb0_7 3.533685 1_555
Pb0_3 Pb0_7 3.533685 1_455
Pb0_3 Pb0_5 3.533685 1_455
Pb0_4 Pb1_4 3.527224 1_555
Pb0_4 Pb1_0 3.527224 1_655
Pb0_4 Pb1_6 3.527224 1_545
Pb0_4 Pb0_6 3.533685 1_545
Pb0_4 Pb0_6 3.533685 1_555
Pb0_5 Pb1_5 3.527224 1_555
Pb0_5 Pb1_1 3.527224 1_655
Pb0_5 Pb1_7 3.527224 1_545
Pb0_5 Pb0_7 3.533685 1_545
Pb0_5 Pb0_7 3.533685 1_555
Pb0_6 Pb1_6 3.527224 1_555
Pb0_6 Pb1_2 3.527224 1_655
Pb0_6 Pb1_4 3.527224 1_555
Pb0_7 Pb1_7 3.527224 1_555
Pb0_7 Pb1_3 3.527224 1_655
Pb0_7 Pb1_5 3.527224 1_555
Pb1_0 Pb2_0 3.506821 1_555
Pb1_0 Pb2_6 3.506821 1_445
Pb1_0 Pb2_4 3.506828 1_455
Pb1_0 Pb1_6 3.533685 1_555
Pb1_0 Pb1_4 3.533685 1_555
Pb1_0 Pb1_2 3.533685 1_545
Pb1_0 Pb1_2 3.533685 1_555
Pb1_0 Pb1_4 3.533685 1_455
Pb1_0 Pb1_6 3.533685 1_445
Pb1_1 Pb2_1 3.506821 1_555
Pb1_1 Pb2_7 3.506821 1_445
Pb1_1 Pb2_5 3.506828 1_455
Pb1_1 Pb1_7 3.533685 1_555
Pb1_1 Pb1_5 3.533685 1_555
Pb1_1 Pb1_3 3.533685 1_555
Pb1_1 Pb1_3 3.533685 1_545
Pb1_1 Pb1_5 3.533685 1_455
Pb1_1 Pb1_7 3.533685 1_445
Pb1_2 Pb2_2 3.506821 1_555
Pb1_2 Pb2_4 3.506821 1_455
Pb1_2 Pb2_6 3.506828 1_455
Pb1_2 Pb1_6 3.533685 1_555
Pb1_2 Pb1_4 3.533685 1_565
Pb1_2 Pb1_4 3.533685 1_455
Pb1_2 Pb1_6 3.533685 1_455
Pb1_3 Pb2_3 3.506821 1_555
Pb1_3 Pb2_5 3.506821 1_455
Pb1_3 Pb2_7 3.506828 1_455
Pb1_3 Pb1_5 3.533685 1_565
Pb1_3 Pb1_7 3.533685 1_555
Pb1_3 Pb1_7 3.533685 1_455
Pb1_3 Pb1_5 3.533685 1_455
Pb1_4 Pb2_4 3.506821 1_555
Pb1_4 Pb2_2 3.506821 1_545
Pb1_4 Pb2_0 3.506828 1_555
Pb1_4 Pb1_6 3.533685 1_555
Pb1_4 Pb1_6 3.533685 1_545
Pb1_5 Pb2_5 3.506821 1_555
Pb1_5 Pb2_3 3.506821 1_545
Pb1_5 Pb2_1 3.506828 1_555
Pb1_5 Pb1_7 3.533685 1_555
Pb1_5 Pb1_7 3.533685 1_545
Pb1_6 Pb2_6 3.506821 1_555
Pb1_6 Pb2_0 3.506821 1_555
Pb1_6 Pb2_2 3.506828 1_555
Pb1_7 Pb2_7 3.506821 1_555
Pb1_7 Pb2_1 3.506821 1_555
Pb1_7 Pb2_3 3.506828 1_555
Pb2_0 Pb3_0 3.527224 1_555
Pb2_0 Pb3_4 3.527224 1_555
Pb2_0 Pb3_2 3.527224 1_545
Pb2_0 Pb2_2 3.533685 1_545
Pb2_0 Pb2_4 3.533685 1_455
Pb2_0 Pb2_6 3.533685 1_445
Pb2_0 Pb2_6 3.533685 1_555
Pb2_0 Pb2_2 3.533685 1_555
Pb2_0 Pb2_4 3.533685 1_555
Pb2_1 Pb3_1 3.527224 1_555
Pb2_1 Pb3_5 3.527224 1_555
Pb2_1 Pb3_3 3.527224 1_545
Pb2_1 Pb2_7 3.533685 1_555
Pb2_1 Pb2_5 3.533685 1_555
Pb2_1 Pb2_3 3.533685 1_555
Pb2_1 Pb2_5 3.533685 1_455
Pb2_1 Pb2_3 3.533685 1_545
Pb2_1 Pb2_7 3.533685 1_445
Pb2_2 Pb3_2 3.527224 1_555
Pb2_2 Pb3_6 3.527224 1_555
Pb2_2 Pb3_0 3.527224 1_555
Pb2_2 Pb2_4 3.533685 1_565
Pb2_2 Pb2_6 3.533685 1_555
Pb2_2 Pb2_6 3.533685 1_455
Pb2_2 Pb2_4 3.533685 1_455
Pb2_3 Pb3_3 3.527224 1_555
Pb2_3 Pb3_7 3.527224 1_555
Pb2_3 Pb3_1 3.527224 1_555
Pb2_3 Pb2_7 3.533685 1_555
Pb2_3 Pb2_5 3.533685 1_455
Pb2_3 Pb2_5 3.533685 1_565
Pb2_3 Pb2_7 3.533685 1_455
Pb2_4 Pb3_4 3.527224 1_555
Pb2_4 Pb3_0 3.527224 1_655
Pb2_4 Pb3_6 3.527224 1_545
Pb2_4 Pb2_6 3.533685 1_545
Pb2_4 Pb2_6 3.533685 1_555
Pb2_5 Pb3_5 3.527224 1_555
Pb2_5 Pb3_1 3.527224 1_655
Pb2_5 Pb3_7 3.527224 1_545
Pb2_5 Pb2_7 3.533685 1_555
Pb2_5 Pb2_7 3.533685 1_545
Pb2_6 Pb3_6 3.527224 1_555
Pb2_6 Pb3_2 3.527224 1_655
Pb2_6 Pb3_4 3.527224 1_555
Pb2_7 Pb3_7 3.527224 1_555
Pb2_7 Pb3_3 3.527224 1_655
Pb2_7 Pb3_5 3.527224 1_555
Pb3_0 Pb3_2 3.533685 1_555
Pb3_0 Pb3_6 3.533685 1_555
Pb3_0 Pb3_4 3.533685 1_455
Pb3_0 Pb3_4 3.533685 1_555
Pb3_0 Pb3_6 3.533685 1_445
Pb3_0 Pb3_2 3.533685 1_545
Pb3_1 Pb3_7 3.533685 1_445
Pb3_1 Pb3_3 3.533685 1_545
Pb3_1 Pb3_5 3.533685 1_455
Pb3_1 Pb3_5 3.533685 1_555
Pb3_1 Pb3_7 3.533685 1_555
Pb3_1 Pb3_3 3.533685 1_555
Pb3_2 Pb3_6 3.533685 1_455
Pb3_2 Pb3_4 3.533685 1_455
Pb3_2 Pb3_6 3.533685 1_555
Pb3_2 Pb3_4 3.533685 1_565
Pb3_3 Pb3_5 3.533685 1_565
Pb3_3 Pb3_7 3.533685 1_455
Pb3_3 Pb3_7 3.533685 1_555
Pb3_3 Pb3_5 3.533685 1_455
Pb3_4 Pb3_6 3.533685 1_555
Pb3_4 Pb3_6 3.533685 1_545
Pb3_5 Pb3_7 3.533685 1_545
Pb3_5 Pb3_7 3.533685 1_555
