# generated using pymatgen
data_Mo4O9
_symmetry_space_group_name_H-M   'P 1'
_cell_length_a   6.80374400
_cell_length_b   6.80374400
_cell_length_c   3.85187500
_cell_angle_alpha   90.00000000
_cell_angle_beta   90.00000000
_cell_angle_gamma   90.00000000
_symmetry_Int_Tables_number   1
_chemical_formula_structural   Mo4O9
_chemical_formula_sum   'Mo4 O9'
_cell_volume   178.30688531
_cell_formula_units_Z   1
loop_
 _symmetry_equiv_pos_site_id
 _symmetry_equiv_pos_as_xyz
  1  'x, y, z'
loop_
 _atom_site_type_symbol
 _atom_site_label
 _atom_site_symmetry_multiplicity
 _atom_site_fract_x
 _atom_site_fract_y
 _atom_site_fract_z
 _atom_site_occupancy
  Mo  Mo0  1  0.62659200  0.80357700  0.50000000  1
  Mo  Mo1  1  0.19642300  0.62659200  0.50000000  1
  Mo  Mo2  1  0.37340800  0.19642300  0.50000000  1
  Mo  Mo3  1  0.80357700  0.37340800  0.50000000  1
  O  O0  1  0.50000000  0.50000000  0.50000000  1
  O  O1  1  0.79980200  0.36977800  0.00000000  1
  O  O2  1  0.36977800  0.20019800  0.00000000  1
  O  O3  1  0.63022200  0.79980200  0.00000000  1
  O  O4  1  0.20019800  0.63022200  0.00000000  1
  O  O5  1  0.10568400  0.33820700  0.50000000  1
  O  O6  1  0.33820700  0.89431600  0.50000000  1
  O  O7  1  0.66179300  0.10568400  0.50000000  1
  O  O8  1  0.89431600  0.66179300  0.50000000  1
loop_
_geom_bond_atom_site_label_1
_geom_bond_atom_site_label_2
_geom_bond_distance
_geom_bond_site_symmetry_2
Mo0 O3 1.926267 1_555
Mo0 O3 1.926267 1_556
Mo0 O6 2.056931 1_555
Mo0 O8 2.061196 1_555
Mo0 O7 2.069365 1_565
Mo0 O0 2.237848 1_555
Mo1 O4 1.926267 1_555
Mo1 O4 1.926267 1_556
Mo1 O5 2.056931 1_555
Mo1 O6 2.061196 1_555
Mo1 O8 2.069365 1_455
Mo1 O0 2.237848 1_555
Mo2 O2 1.926267 1_555
Mo2 O2 1.926267 1_556
Mo2 O7 2.056931 1_555
Mo2 O5 2.061196 1_555
Mo2 O6 2.069365 1_545
Mo2 O0 2.237848 1_555
Mo3 O1 1.926267 1_555
Mo3 O1 1.926267 1_556
Mo3 O8 2.056931 1_555
Mo3 O7 2.061196 1_555
Mo3 O5 2.069365 1_655
Mo3 O0 2.237848 1_555
