# generated using pymatgen
data_KMg14Mn
_symmetry_space_group_name_H-M   'P 1'
_cell_length_a   6.48090717
_cell_length_b   6.49853434
_cell_length_c   10.41614068
_cell_angle_alpha   90.00000000
_cell_angle_beta   90.00000000
_cell_angle_gamma   120.09001865
_symmetry_Int_Tables_number   1
_chemical_formula_structural   KMg14Mn
_chemical_formula_sum   'K1 Mg14 Mn1'
_cell_volume   379.57187849
_cell_formula_units_Z   1
loop_
 _symmetry_equiv_pos_site_id
 _symmetry_equiv_pos_as_xyz
  1  'x, y, z'
loop_
 _atom_site_type_symbol
 _atom_site_label
 _atom_site_symmetry_multiplicity
 _atom_site_fract_x
 _atom_site_fract_y
 _atom_site_fract_z
 _atom_site_occupancy
  K  K0  1  0.16506004  0.83252952  0.12500000  1
  Mg  Mg0  1  0.16582382  0.33291141  0.62500000  1
  Mg  Mg1  1  0.16815163  0.83407532  0.62500000  1
  Mg  Mg2  1  0.66137833  0.33534322  0.12500000  1
  Mg  Mg3  1  0.66654249  0.33202739  0.62500000  1
  Mg  Mg4  1  0.66137833  0.82603411  0.12500000  1
  Mg  Mg5  1  0.66654249  0.83451410  0.62500000  1
  Mg  Mg6  1  0.33553546  0.17897430  0.38098946  1
  Mg  Mg7  1  0.33553546  0.17897430  0.86901054  1
  Mg  Mg8  1  0.33553546  0.65656217  0.38098946  1
  Mg  Mg9  1  0.33553546  0.65656217  0.86901054  1
  Mg  Mg10  1  0.84002502  0.17001301  0.36628682  1
  Mg  Mg11  1  0.84002502  0.17001301  0.88371318  1
  Mg  Mg12  1  0.82446995  0.66223547  0.38782156  1
  Mg  Mg13  1  0.82446995  0.66223547  0.86217844  1
  Mn  Mn0  1  0.17399106  0.33699503  0.12500000  1
loop_
_geom_bond_atom_site_label_1
_geom_bond_atom_site_label_2
_geom_bond_distance
_geom_bond_site_symmetry_2
K0 Mg2 3.237961 1_565
K0 Mg4 3.237961 1_555
K0 Mg2 3.243357 1_455
K0 Mg4 3.243357 1_455
K0 Mn0 3.249653 1_565
K0 Mn0 3.249653 1_555
K0 Mg9 3.302269 1_554
K0 Mg8 3.302269 1_555
K0 Mg6 3.302275 1_565
K0 Mg7 3.302275 1_564
K0 Mg13 3.337961 1_454
K0 Mg12 3.337961 1_455
Mg0 Mg7 3.126297 1_555
Mg0 Mg6 3.126297 1_555
Mg0 Mg8 3.126304 1_555
Mg0 Mg9 3.126304 1_555
Mg0 Mg5 3.232919 1_445
Mg0 Mg3 3.232920 1_455
Mg0 Mg5 3.247995 1_555
Mg0 Mg3 3.247995 1_555
Mg0 Mg1 3.249293 1_545
Mg0 Mg1 3.249293 1_555
Mg0 Mg10 3.255698 1_455
Mg0 Mg11 3.255698 1_455
Mg1 Mg13 3.133275 1_455
Mg1 Mg12 3.133275 1_455
Mg1 Mg9 3.197233 1_555
Mg1 Mg8 3.197233 1_555
Mg1 Mg7 3.197240 1_565
Mg1 Mg6 3.197240 1_565
Mg1 Mg3 3.228596 1_565
Mg1 Mg5 3.228596 1_555
Mg1 Mg3 3.252313 1_455
Mg1 Mg5 3.252313 1_455
Mg2 Mn0 3.164107 1_555
Mg2 Mg4 3.188772 1_555
Mg2 Mg6 3.232675 1_555
Mg2 Mg7 3.232675 1_554
Mg2 Mg4 3.309763 1_545
Mg2 Mn0 3.316827 1_655
Mg3 Mg6 3.148293 1_555
Mg3 Mg7 3.148293 1_555
Mg3 Mg5 3.233107 1_545
Mg3 Mg5 3.265427 1_555
Mg4 Mn0 3.164107 1_555
Mg4 Mg9 3.232675 1_554
Mg4 Mg8 3.232675 1_555
Mg4 Mn0 3.316826 1_665
Mg5 Mg8 3.148293 1_555
Mg5 Mg9 3.148293 1_555
Mg6 Mg8 3.103621 1_555
Mg6 Mn0 3.215353 1_555
Mg6 Mg8 3.394913 1_545
Mg7 Mg9 3.103621 1_555
Mg7 Mn0 3.215353 1_556
Mg7 Mg9 3.394913 1_545
Mg8 Mn0 3.215359 1_555
Mg9 Mn0 3.215359 1_556
Mg10 Mn0 3.134272 1_655
Mg10 Mg2 3.171547 1_555
Mg10 Mg4 3.171554 1_545
Mg10 Mg8 3.186242 1_655
Mg10 Mg6 3.186242 1_655
Mg10 Mg12 3.258168 1_555
Mg10 Mg12 3.258168 1_545
Mg10 Mg3 3.289603 1_555
Mg10 Mg5 3.289610 1_545
Mg10 Mg8 3.302684 1_545
Mg10 Mg6 3.302684 1_555
Mg11 Mn0 3.134272 1_656
Mg11 Mg2 3.171547 1_556
Mg11 Mg4 3.171554 1_546
Mg11 Mg9 3.186242 1_655
Mg11 Mg7 3.186242 1_655
Mg11 Mg13 3.258168 1_555
Mg11 Mg13 3.258168 1_545
Mg11 Mg3 3.289603 1_555
Mg11 Mg5 3.289610 1_545
Mg11 Mg9 3.302684 1_545
Mg11 Mg7 3.302684 1_555
Mg12 Mg5 3.090838 1_555
Mg12 Mg3 3.090845 1_555
Mg12 Mg6 3.151220 1_555
Mg12 Mg8 3.151220 1_555
Mg12 Mg4 3.297395 1_555
Mg12 Mg2 3.297401 1_555
Mg12 Mg6 3.331565 1_665
Mg12 Mg8 3.331565 1_655
Mg13 Mg5 3.090838 1_555
Mg13 Mg3 3.090845 1_555
Mg13 Mg7 3.151220 1_555
Mg13 Mg9 3.151220 1_555
Mg13 Mg4 3.297395 1_556
Mg13 Mg2 3.297401 1_556
Mg13 Mg7 3.331565 1_665
Mg13 Mg9 3.331565 1_655
