# generated using pymatgen
data_RbMg6Cd
_symmetry_space_group_name_H-M   'P 1'
_cell_length_a   5.42824500
_cell_length_b   6.80571800
_cell_length_c   11.93313400
_cell_angle_alpha   90.00000000
_cell_angle_beta   90.00000000
_cell_angle_gamma   90.00000000
_symmetry_Int_Tables_number   1
_chemical_formula_structural   RbMg6Cd
_chemical_formula_sum   'Rb2 Mg12 Cd2'
_cell_volume   440.84701882
_cell_formula_units_Z   2
loop_
 _symmetry_equiv_pos_site_id
 _symmetry_equiv_pos_as_xyz
  1  'x, y, z'
loop_
 _atom_site_type_symbol
 _atom_site_label
 _atom_site_symmetry_multiplicity
 _atom_site_fract_x
 _atom_site_fract_y
 _atom_site_fract_z
 _atom_site_occupancy
  Rb  Rb0  1  0.50000000  0.00000000  0.16671400  1
  Rb  Rb1  1  0.50000000  0.50000000  0.66671400  1
  Mg  Mg0  1  0.50000000  0.24433300  0.41766100  1
  Mg  Mg1  1  0.50000000  0.75566700  0.41766100  1
  Mg  Mg2  1  0.00000000  0.73196500  0.07815400  1
  Mg  Mg3  1  0.00000000  0.26803500  0.07815400  1
  Mg  Mg4  1  0.00000000  0.00000000  0.34523600  1
  Mg  Mg5  1  0.00000000  0.50000000  0.33335000  1
  Mg  Mg6  1  0.50000000  0.74433300  0.91766100  1
  Mg  Mg7  1  0.50000000  0.25566700  0.91766100  1
  Mg  Mg8  1  0.00000000  0.23196500  0.57815400  1
  Mg  Mg9  1  0.00000000  0.76803500  0.57815400  1
  Mg  Mg10  1  0.00000000  0.50000000  0.84523600  1
  Mg  Mg11  1  0.00000000  0.00000000  0.83335000  1
  Cd  Cd0  1  0.50000000  0.50000000  0.16306500  1
  Cd  Cd1  1  0.50000000  0.00000000  0.66306500  1
loop_
_geom_bond_atom_site_label_1
_geom_bond_atom_site_label_2
_geom_bond_distance
_geom_bond_site_symmetry_2
Mg0 Mg4 3.298259 1_555
Mg0 Mg4 3.298259 1_655
Mg0 Mg8 3.322872 1_555
Mg0 Mg8 3.322872 1_655
Mg0 Mg1 3.325723 1_545
Mg0 Mg5 3.377318 1_655
Mg0 Mg5 3.377318 1_555
Mg0 Rb0 3.425295 1_555
Mg0 Rb1 3.443875 1_555
Mg0 Mg1 3.479995 1_555
Mg1 Mg4 3.298259 1_665
Mg1 Mg4 3.298259 1_565
Mg1 Mg9 3.322872 1_655
Mg1 Mg9 3.322872 1_555
Mg1 Mg5 3.377318 1_555
Mg1 Mg5 3.377318 1_655
Mg1 Rb0 3.425295 1_565
Mg1 Rb1 3.443875 1_555
Mg2 Mg3 3.157377 1_555
Mg2 Mg6 3.322872 1_454
Mg2 Mg6 3.322872 1_554
Mg2 Mg5 3.430166 1_555
Mg2 Rb0 3.436696 1_465
Mg2 Rb0 3.436696 1_565
Mg3 Mg7 3.322872 1_554
Mg3 Mg7 3.322872 1_454
Mg3 Mg5 3.430166 1_555
Mg3 Rb0 3.436696 1_455
Mg3 Rb0 3.436696 1_555
Mg4 Mg8 3.196491 1_555
Mg4 Mg9 3.196491 1_545
Mg4 Mg5 3.405814 1_545
Mg4 Mg5 3.405814 1_555
Mg4 Rb0 3.450327 1_455
Mg4 Rb0 3.450327 1_555
Mg5 Mg9 3.444048 1_555
Mg5 Mg8 3.444048 1_555
Mg6 Mg7 3.325723 1_555
Mg6 Rb1 3.425295 1_555
Mg6 Rb0 3.443875 1_566
Mg6 Mg7 3.479995 1_565
Mg7 Rb1 3.425295 1_555
Mg7 Rb0 3.443875 1_556
Mg8 Mg9 3.157377 1_545
Mg8 Rb1 3.436696 1_455
Mg8 Rb1 3.436696 1_555
Mg9 Rb1 3.436696 1_555
Mg9 Rb1 3.436696 1_455
Mg10 Mg2 3.196491 1_556
Mg10 Mg3 3.196491 1_556
Mg10 Mg6 3.298259 1_555
Mg10 Mg6 3.298259 1_455
Mg10 Mg7 3.298259 1_455
Mg10 Mg7 3.298259 1_555
Mg10 Mg11 3.405814 1_555
Mg10 Mg11 3.405814 1_565
Mg10 Rb1 3.450327 1_555
Mg10 Rb1 3.450327 1_455
Mg11 Mg7 3.377318 1_555
Mg11 Mg7 3.377318 1_455
Mg11 Mg6 3.377318 1_545
Mg11 Mg6 3.377318 1_445
Mg11 Mg8 3.430166 1_555
Mg11 Mg9 3.430166 1_545
Mg11 Mg3 3.444048 1_556
Mg11 Mg2 3.444048 1_546
Cd0 Mg2 3.299303 1_555
Cd0 Mg2 3.299303 1_655
Cd0 Mg3 3.299303 1_655
Cd0 Mg3 3.299303 1_555
Cd0 Mg6 3.367620 1_554
Cd0 Mg7 3.367620 1_554
Cd0 Mg5 3.390519 1_555
Cd0 Mg5 3.390519 1_655
Cd0 Rb0 3.403138 1_555
Cd0 Rb0 3.403138 1_565
Cd0 Mg0 3.501116 1_555
Cd0 Mg1 3.501116 1_555
Cd1 Mg8 3.299303 1_555
Cd1 Mg8 3.299303 1_655
Cd1 Mg9 3.299303 1_645
Cd1 Mg9 3.299303 1_545
Cd1 Mg0 3.367620 1_555
Cd1 Mg1 3.367620 1_545
Cd1 Mg11 3.390519 1_555
Cd1 Mg11 3.390519 1_655
Cd1 Rb1 3.403138 1_545
Cd1 Rb1 3.403138 1_555
Cd1 Mg7 3.501116 1_555
Cd1 Mg6 3.501116 1_545
