# generated using pymatgen
data_Ta2Ti2(CuO4)3
_symmetry_space_group_name_H-M   'P 1'
_cell_length_a   6.48812522
_cell_length_b   6.48812522
_cell_length_c   7.50769522
_cell_angle_alpha   54.98569131
_cell_angle_beta   54.98569131
_cell_angle_gamma   70.81460924
_symmetry_Int_Tables_number   1
_chemical_formula_structural   Ta2Ti2(CuO4)3
_chemical_formula_sum   'Ta2 Ti2 Cu3 O12'
_cell_volume   211.99324316
_cell_formula_units_Z   1
loop_
 _symmetry_equiv_pos_site_id
 _symmetry_equiv_pos_as_xyz
  1  'x, y, z'
loop_
 _atom_site_type_symbol
 _atom_site_label
 _atom_site_symmetry_multiplicity
 _atom_site_fract_x
 _atom_site_fract_y
 _atom_site_fract_z
 _atom_site_occupancy
  Ta  Ta0  1  0.50000000  0.00000000  0.00000000  1
  Ta  Ta1  1  0.00000000  0.50000000  0.00000000  1
  Ti  Ti0  1  0.50000000  0.00000000  0.50000000  1
  Ti  Ti1  1  0.00000000  0.50000000  0.50000000  1
  Cu  Cu0  1  0.50000000  0.50000000  0.00000000  1
  Cu  Cu1  1  0.00000000  0.00000000  0.50000000  1
  Cu  Cu2  1  0.50000000  0.50000000  0.50000000  1
  O  O0  1  0.18378700  0.18378700  0.50549200  1
  O  O1  1  0.81621300  0.81621300  0.49450800  1
  O  O2  1  0.81881800  0.81881800  0.87041000  1
  O  O3  1  0.18118200  0.18118200  0.12959000  1
  O  O4  1  0.50671300  0.87185200  0.31101300  1
  O  O5  1  0.49328700  0.12814800  0.68898700  1
  O  O6  1  0.87185200  0.50671300  0.31101300  1
  O  O7  1  0.12814800  0.49328700  0.68898700  1
  O  O8  1  0.31049700  0.68895100  0.18275100  1
  O  O9  1  0.68950300  0.31104900  0.81724900  1
  O  O10  1  0.31104900  0.68950300  0.81724900  1
  O  O11  1  0.68895100  0.31049700  0.18275100  1
loop_
_geom_bond_atom_site_label_1
_geom_bond_atom_site_label_2
_geom_bond_distance
_geom_bond_site_symmetry_2
Cu0 O9 1.975046 1_554
Cu0 O8 1.975046 1_555
Cu0 O10 1.975046 1_554
Cu0 O11 1.975046 1_555
Cu1 O0 1.973039 1_555
Cu1 O1 1.973039 1_445
Cu1 O2 1.975506 1_445
Cu1 O3 1.975506 1_555
Cu2 O4 1.976272 1_555
Cu2 O6 1.976272 1_555
Cu2 O7 1.976272 1_555
Cu2 O5 1.976272 1_555
O0 Ti0 1.996047 1_555
O0 Ti1 1.996047 1_555
O1 Ti1 1.996047 1_655
O1 Ti0 1.996047 1_565
O2 Ta1 2.003013 1_656
O2 Ta0 2.003013 1_566
O3 Ta1 2.003013 1_555
O3 Ta0 2.003013 1_555
O4 Ti0 1.991331 1_565
O4 Ta0 2.002597 1_565
O5 Ti0 1.991331 1_555
O5 Ta0 2.002597 1_556
O6 Ti1 1.991331 1_655
O6 Ta1 2.002597 1_655
O7 Ti1 1.991331 1_555
O7 Ta1 2.002597 1_556
O8 Ta0 1.996115 1_565
O8 Ti1 2.000105 1_555
O9 Ta0 1.996115 1_556
O9 Ti1 2.000105 1_655
O10 Ta1 1.996115 1_556
O10 Ti0 2.000105 1_565
O11 Ta1 1.996115 1_655
O11 Ti0 2.000105 1_555
