# generated using pymatgen
data_Mg3Sb2
_symmetry_space_group_name_H-M   'P 1'
_cell_length_a   11.52212202
_cell_length_b   11.52212202
_cell_length_c   11.52212202
_cell_angle_alpha   109.47122063
_cell_angle_beta   109.47122063
_cell_angle_gamma   109.47122063
_symmetry_Int_Tables_number   1
_chemical_formula_structural   Mg3Sb2
_chemical_formula_sum   'Mg24 Sb16'
_cell_volume   1177.53959595
_cell_formula_units_Z   8
loop_
 _symmetry_equiv_pos_site_id
 _symmetry_equiv_pos_as_xyz
  1  'x, y, z'
loop_
 _atom_site_type_symbol
 _atom_site_label
 _atom_site_symmetry_multiplicity
 _atom_site_fract_x
 _atom_site_fract_y
 _atom_site_fract_z
 _atom_site_occupancy
  Mg  Mg0  1  0.99447688  0.73907676  0.97917287  1
  Mg  Mg1  1  0.74009611  0.76092324  0.25540012  1
  Mg  Mg2  1  0.50552312  0.98469599  0.24459988  1
  Mg  Mg3  1  0.75990389  0.51530401  0.52082713  1
  Mg  Mg4  1  0.73907676  0.97917287  0.99447688  1
  Mg  Mg5  1  0.76092324  0.25540012  0.74009611  1
  Mg  Mg6  1  0.98469599  0.24459988  0.50552312  1
  Mg  Mg7  1  0.51530401  0.52082713  0.75990389  1
  Mg  Mg8  1  0.97917287  0.99447688  0.73907676  1
  Mg  Mg9  1  0.25540012  0.74009611  0.76092324  1
  Mg  Mg10  1  0.24459988  0.50552312  0.98469599  1
  Mg  Mg11  1  0.52082713  0.75990389  0.51530401  1
  Mg  Mg12  1  0.00552312  0.26092324  0.02082713  1
  Mg  Mg13  1  0.25990389  0.23907676  0.74459988  1
  Mg  Mg14  1  0.49447688  0.01530401  0.75540012  1
  Mg  Mg15  1  0.24009611  0.48469599  0.47917287  1
  Mg  Mg16  1  0.26092324  0.02082713  0.00552312  1
  Mg  Mg17  1  0.23907676  0.74459988  0.25990389  1
  Mg  Mg18  1  0.01530401  0.75540012  0.49447688  1
  Mg  Mg19  1  0.48469599  0.47917287  0.24009611  1
  Mg  Mg20  1  0.02082713  0.00552312  0.26092324  1
  Mg  Mg21  1  0.74459988  0.25990389  0.23907676  1
  Mg  Mg22  1  0.75540012  0.49447688  0.01530401  1
  Mg  Mg23  1  0.47917287  0.24009611  0.48469599  1
  Sb  Sb0  1  0.00000000  0.50000000  0.00000000  1
  Sb  Sb1  1  0.00000000  0.00000000  0.50000000  1
  Sb  Sb2  1  0.50000000  0.00000000  0.00000000  1
  Sb  Sb3  1  0.50000000  0.50000000  0.50000000  1
  Sb  Sb4  1  0.26450592  0.75000000  0.51450592  1
  Sb  Sb5  1  0.23549408  0.25000000  0.98549408  1
  Sb  Sb6  1  0.75000000  0.51450592  0.26450592  1
  Sb  Sb7  1  0.25000000  0.98549408  0.23549408  1
  Sb  Sb8  1  0.51450592  0.26450592  0.75000000  1
  Sb  Sb9  1  0.98549408  0.23549408  0.25000000  1
  Sb  Sb10  1  0.73549408  0.25000000  0.48549408  1
  Sb  Sb11  1  0.76450592  0.75000000  0.01450592  1
  Sb  Sb12  1  0.25000000  0.48549408  0.73549408  1
  Sb  Sb13  1  0.75000000  0.01450592  0.76450592  1
  Sb  Sb14  1  0.48549408  0.73549408  0.25000000  1
  Sb  Sb15  1  0.01450592  0.76450592  0.75000000  1
loop_
_geom_bond_atom_site_label_1
_geom_bond_atom_site_label_2
_geom_bond_distance
_geom_bond_site_symmetry_2
Mg0 Sb15 2.826413 1_655
Mg0 Sb11 2.847825 1_556
Mg0 Sb0 2.863082 1_656
Mg0 Sb7 2.914101 1_656
Mg1 Sb14 2.826413 1_555
Mg1 Sb11 2.847825 1_555
Mg1 Sb1 2.863082 1_665
Mg1 Sb6 2.914101 1_555
Mg2 Sb14 2.826413 1_555
Mg2 Sb10 2.847825 1_565
Mg2 Sb2 2.863082 1_565
Mg2 Sb7 2.914101 1_555
Mg3 Sb15 2.826413 1_655
Mg3 Sb10 2.847825 1_555
Mg3 Sb3 2.863082 1_555
Mg3 Sb6 2.914101 1_555
Mg4 Sb11 2.826413 1_556
Mg4 Sb13 2.847825 1_565
Mg4 Sb2 2.863082 1_566
Mg4 Sb9 2.914101 1_566
Mg5 Sb10 2.826413 1_555
Mg5 Sb13 2.847825 1_555
Mg5 Sb0 2.863082 1_656
Mg5 Sb8 2.914101 1_555
Mg6 Sb10 2.826413 1_555
Mg6 Sb12 2.847825 1_655
Mg6 Sb1 2.863082 1_655
Mg6 Sb9 2.914101 1_555
Mg7 Sb11 2.826413 1_556
Mg7 Sb12 2.847825 1_555
Mg7 Sb3 2.863082 1_555
Mg7 Sb8 2.914101 1_555
Mg8 Sb13 2.826413 1_565
Mg8 Sb15 2.847825 1_655
Mg8 Sb1 2.863082 1_665
Mg8 Sb5 2.914101 1_665
Mg9 Sb12 2.826413 1_555
Mg9 Sb15 2.847825 1_555
Mg9 Sb2 2.863082 1_566
Mg9 Sb4 2.914101 1_555
Mg10 Sb12 2.826413 1_555
Mg10 Sb14 2.847825 1_556
Mg10 Sb0 2.863082 1_556
Mg10 Sb5 2.914101 1_555
Mg11 Sb13 2.826413 1_565
Mg11 Sb14 2.847825 1_555
Mg11 Sb3 2.863082 1_555
Mg11 Sb4 2.914101 1_555
Mg12 Sb9 2.826413 1_455
Mg12 Sb5 2.847825 1_554
Mg12 Sb0 2.863082 1_555
Mg12 Sb13 2.914101 1_454
Mg13 Sb8 2.826413 1_555
Mg13 Sb5 2.847825 1_555
Mg13 Sb1 2.863082 1_555
Mg13 Sb12 2.914101 1_555
Mg14 Sb8 2.826413 1_555
Mg14 Sb4 2.847825 1_545
Mg14 Sb2 2.863082 1_556
Mg14 Sb13 2.914101 1_555
Mg15 Sb9 2.826413 1_455
Mg15 Sb4 2.847825 1_555
Mg15 Sb3 2.863082 1_555
Mg15 Sb12 2.914101 1_555
Mg16 Sb5 2.826413 1_554
Mg16 Sb7 2.847825 1_545
Mg16 Sb2 2.863082 1_555
Mg16 Sb15 2.914101 1_544
Mg17 Sb4 2.826413 1_555
Mg17 Sb7 2.847825 1_555
Mg17 Sb0 2.863082 1_555
Mg17 Sb14 2.914101 1_555
Mg18 Sb4 2.826413 1_555
Mg18 Sb6 2.847825 1_455
Mg18 Sb1 2.863082 1_565
Mg18 Sb15 2.914101 1_555
Mg19 Sb5 2.826413 1_554
Mg19 Sb6 2.847825 1_555
Mg19 Sb3 2.863082 1_555
Mg19 Sb14 2.914101 1_555
Mg20 Sb7 2.826413 1_545
Mg20 Sb9 2.847825 1_455
Mg20 Sb1 2.863082 1_555
Mg20 Sb11 2.914101 1_445
Mg21 Sb6 2.826413 1_555
Mg21 Sb9 2.847825 1_555
Mg21 Sb2 2.863082 1_555
Mg21 Sb10 2.914101 1_555
Mg22 Sb6 2.826413 1_555
Mg22 Sb8 2.847825 1_554
Mg22 Sb0 2.863082 1_655
Mg22 Sb11 2.914101 1_555
Mg23 Sb7 2.826413 1_545
Mg23 Sb8 2.847825 1_555
Mg23 Sb3 2.863082 1_555
Mg23 Sb10 2.914101 1_555
