# generated using pymatgen
data_Mg30ZnSnO32
_symmetry_space_group_name_H-M   'P 1'
_cell_length_a   8.59842000
_cell_length_b   8.59842000
_cell_length_c   8.57604100
_cell_angle_alpha   90.00000000
_cell_angle_beta   90.00000000
_cell_angle_gamma   90.00000000
_symmetry_Int_Tables_number   1
_chemical_formula_structural   Mg30ZnSnO32
_chemical_formula_sum   'Mg30 Zn1 Sn1 O32'
_cell_volume   634.05095128
_cell_formula_units_Z   1
loop_
 _symmetry_equiv_pos_site_id
 _symmetry_equiv_pos_as_xyz
  1  'x, y, z'
loop_
 _atom_site_type_symbol
 _atom_site_label
 _atom_site_symmetry_multiplicity
 _atom_site_fract_x
 _atom_site_fract_y
 _atom_site_fract_z
 _atom_site_occupancy
  Mg  Mg0  1  0.50000000  0.00000000  0.00000000  1
  Mg  Mg1  1  0.50000000  0.00000000  0.50000000  1
  Mg  Mg2  1  0.00000000  0.50000000  0.00000000  1
  Mg  Mg3  1  0.00000000  0.50000000  0.50000000  1
  Mg  Mg4  1  0.50000000  0.50000000  0.00000000  1
  Mg  Mg5  1  0.50000000  0.50000000  0.50000000  1
  Mg  Mg6  1  0.25492100  0.00000000  0.24547600  1
  Mg  Mg7  1  0.25492100  0.00000000  0.75452400  1
  Mg  Mg8  1  0.74507900  0.00000000  0.24547600  1
  Mg  Mg9  1  0.74507900  0.00000000  0.75452400  1
  Mg  Mg10  1  0.25017500  0.50000000  0.24958600  1
  Mg  Mg11  1  0.25017500  0.50000000  0.75041400  1
  Mg  Mg12  1  0.74982500  0.50000000  0.24958600  1
  Mg  Mg13  1  0.74982500  0.50000000  0.75041400  1
  Mg  Mg14  1  0.00000000  0.25492100  0.24547600  1
  Mg  Mg15  1  0.00000000  0.25492100  0.75452400  1
  Mg  Mg16  1  0.50000000  0.25017500  0.24958600  1
  Mg  Mg17  1  0.50000000  0.25017500  0.75041400  1
  Mg  Mg18  1  0.00000000  0.74507900  0.24547600  1
  Mg  Mg19  1  0.00000000  0.74507900  0.75452400  1
  Mg  Mg20  1  0.50000000  0.74982500  0.24958600  1
  Mg  Mg21  1  0.50000000  0.74982500  0.75041400  1
  Mg  Mg22  1  0.25005000  0.25005000  0.00000000  1
  Mg  Mg23  1  0.25423600  0.25423600  0.50000000  1
  Mg  Mg24  1  0.74995000  0.25005000  0.00000000  1
  Mg  Mg25  1  0.74576400  0.25423600  0.50000000  1
  Mg  Mg26  1  0.25005000  0.74995000  0.00000000  1
  Mg  Mg27  1  0.25423600  0.74576400  0.50000000  1
  Mg  Mg28  1  0.74995000  0.74995000  0.00000000  1
  Mg  Mg29  1  0.74576400  0.74576400  0.50000000  1
  Zn  Zn0  1  0.00000000  0.00000000  0.00000000  1
  Sn  Sn0  1  0.00000000  0.00000000  0.50000000  1
  O  O0  1  0.00000000  0.25850600  0.00000000  1
  O  O1  1  0.00000000  0.26980300  0.50000000  1
  O  O2  1  0.50000000  0.25121200  0.00000000  1
  O  O3  1  0.50000000  0.25320400  0.50000000  1
  O  O4  1  0.00000000  0.74149400  0.00000000  1
  O  O5  1  0.00000000  0.73019700  0.50000000  1
  O  O6  1  0.50000000  0.74878800  0.00000000  1
  O  O7  1  0.50000000  0.74679600  0.50000000  1
  O  O8  1  0.24923800  0.24923800  0.25035000  1
  O  O9  1  0.24923800  0.24923800  0.74965000  1
  O  O10  1  0.75076200  0.24923800  0.25035000  1
  O  O11  1  0.75076200  0.24923800  0.74965000  1
  O  O12  1  0.24923800  0.75076200  0.25035000  1
  O  O13  1  0.24923800  0.75076200  0.74965000  1
  O  O14  1  0.75076200  0.75076200  0.25035000  1
  O  O15  1  0.75076200  0.75076200  0.74965000  1
  O  O16  1  0.00000000  0.00000000  0.23103000  1
  O  O17  1  0.00000000  0.00000000  0.76897000  1
  O  O18  1  0.50000000  0.00000000  0.24757500  1
  O  O19  1  0.50000000  0.00000000  0.75242500  1
  O  O20  1  0.00000000  0.50000000  0.24757500  1
  O  O21  1  0.00000000  0.50000000  0.75242500  1
  O  O22  1  0.50000000  0.50000000  0.24954000  1
  O  O23  1  0.50000000  0.50000000  0.75046000  1
  O  O24  1  0.25850600  0.00000000  0.00000000  1
  O  O25  1  0.26980300  0.00000000  0.50000000  1
  O  O26  1  0.74149400  0.00000000  0.00000000  1
  O  O27  1  0.73019700  0.00000000  0.50000000  1
  O  O28  1  0.25121200  0.50000000  0.00000000  1
  O  O29  1  0.25320400  0.50000000  0.50000000  1
  O  O30  1  0.74878800  0.50000000  0.00000000  1
  O  O31  1  0.74679600  0.50000000  0.50000000  1
loop_
_geom_bond_atom_site_label_1
_geom_bond_atom_site_label_2
_geom_bond_distance
_geom_bond_site_symmetry_2
Mg0 O26 2.076467 1_555
Mg0 O24 2.076467 1_555
Mg0 O18 2.123213 1_555
Mg0 O19 2.123213 1_554
Mg0 O6 2.160026 1_545
Mg0 O2 2.160026 1_555
Mg1 O25 1.979330 1_555
Mg1 O27 1.979330 1_555
Mg1 O18 2.164807 1_555
Mg1 O19 2.164807 1_555
Mg1 O3 2.177154 1_555
Mg1 O7 2.177154 1_545
Mg2 O0 2.076467 1_555
Mg2 O4 2.076467 1_555
Mg2 O21 2.123213 1_554
Mg2 O20 2.123213 1_555
Mg2 O28 2.160026 1_555
Mg2 O30 2.160026 1_455
Mg3 O1 1.979330 1_555
Mg3 O5 1.979330 1_555
Mg3 O21 2.164807 1_555
Mg3 O20 2.164807 1_555
Mg3 O29 2.177154 1_555
Mg3 O31 2.177154 1_455
Mg4 O6 2.139184 1_555
Mg4 O30 2.139184 1_555
Mg4 O2 2.139184 1_555
Mg4 O28 2.139184 1_555
Mg4 O23 2.140065 1_554
Mg4 O22 2.140065 1_555
Mg5 O7 2.122056 1_555
Mg5 O29 2.122056 1_555
Mg5 O31 2.122056 1_555
Mg5 O3 2.122056 1_555
Mg5 O22 2.147955 1_555
Mg5 O23 2.147955 1_555
Mg6 O24 2.105438 1_555
Mg6 O18 2.107369 1_555
Mg6 O8 2.144018 1_555
Mg6 O12 2.144018 1_545
Mg6 O25 2.186556 1_555
Mg6 O16 2.195416 1_555
Mg7 O24 2.105438 1_556
Mg7 O19 2.107369 1_555
Mg7 O9 2.144018 1_555
Mg7 O13 2.144018 1_545
Mg7 O25 2.186556 1_555
Mg7 O17 2.195416 1_555
Mg8 O26 2.105438 1_555
Mg8 O18 2.107369 1_555
Mg8 O10 2.144018 1_555
Mg8 O14 2.144018 1_545
Mg8 O27 2.186556 1_555
Mg8 O16 2.195416 1_655
Mg9 O26 2.105438 1_556
Mg9 O19 2.107369 1_555
Mg9 O11 2.144018 1_555
Mg9 O15 2.144018 1_545
Mg9 O27 2.186556 1_555
Mg9 O17 2.195416 1_655
Mg10 O28 2.140478 1_555
Mg10 O29 2.147719 1_555
Mg10 O22 2.148100 1_555
Mg10 O20 2.151179 1_555
Mg10 O12 2.156182 1_555
Mg10 O8 2.156182 1_555
Mg11 O28 2.140478 1_556
Mg11 O29 2.147719 1_555
Mg11 O23 2.148100 1_555
Mg11 O21 2.151179 1_555
Mg11 O13 2.156182 1_555
Mg11 O9 2.156182 1_555
Mg12 O30 2.140478 1_555
Mg12 O31 2.147719 1_555
Mg12 O22 2.148100 1_555
Mg12 O20 2.151179 1_655
Mg12 O14 2.156182 1_555
Mg12 O10 2.156182 1_555
Mg13 O30 2.140478 1_556
Mg13 O31 2.147719 1_555
Mg13 O23 2.148100 1_555
Mg13 O21 2.151179 1_655
Mg13 O15 2.156182 1_555
Mg13 O11 2.156182 1_555
Mg14 O0 2.105438 1_555
Mg14 O20 2.107369 1_555
Mg14 O8 2.144018 1_555
Mg14 O10 2.144018 1_455
Mg14 O1 2.186556 1_555
Mg14 O16 2.195416 1_555
Mg15 O0 2.105438 1_556
Mg15 O21 2.107369 1_555
Mg15 O9 2.144018 1_555
Mg15 O11 2.144018 1_455
Mg15 O1 2.186556 1_555
Mg15 O17 2.195416 1_555
Mg16 O2 2.140478 1_555
Mg16 O3 2.147719 1_555
Mg16 O22 2.148100 1_555
Mg16 O18 2.151179 1_555
Mg16 O10 2.156182 1_555
Mg16 O8 2.156182 1_555
Mg17 O2 2.140478 1_556
Mg17 O3 2.147719 1_555
Mg17 O23 2.148100 1_555
Mg17 O19 2.151179 1_555
Mg17 O11 2.156182 1_555
Mg17 O9 2.156182 1_555
Mg18 O4 2.105438 1_555
Mg18 O20 2.107369 1_555
Mg18 O12 2.144018 1_555
Mg18 O14 2.144018 1_455
Mg18 O5 2.186556 1_555
Mg18 O16 2.195416 1_565
Mg19 O4 2.105438 1_556
Mg19 O21 2.107369 1_555
Mg19 O13 2.144018 1_555
Mg19 O15 2.144018 1_455
Mg19 O5 2.186556 1_555
Mg19 O17 2.195416 1_565
Mg20 O6 2.140478 1_555
Mg20 O7 2.147719 1_555
Mg20 O22 2.148100 1_555
Mg20 O18 2.151179 1_565
Mg20 O14 2.156182 1_555
Mg20 O12 2.156182 1_555
Mg21 O6 2.140478 1_556
Mg21 O7 2.147719 1_555
Mg21 O23 2.148100 1_555
Mg21 O19 2.151179 1_565
Mg21 O15 2.156182 1_555
Mg21 O13 2.156182 1_555
Mg22 O9 2.147035 1_554
Mg22 O8 2.147035 1_555
Mg22 O2 2.149198 1_555
Mg22 O28 2.149198 1_555
Mg22 O0 2.151264 1_555
Mg22 O24 2.151264 1_555
Mg23 O29 2.113201 1_555
Mg23 O3 2.113201 1_555
Mg23 O8 2.141871 1_555
Mg23 O9 2.141871 1_555
Mg23 O1 2.190122 1_555
Mg23 O25 2.190122 1_555
Mg24 O11 2.147035 1_554
Mg24 O10 2.147035 1_555
Mg24 O30 2.149198 1_555
Mg24 O2 2.149198 1_555
Mg24 O0 2.151264 1_655
Mg24 O26 2.151264 1_555
Mg25 O3 2.113201 1_555
Mg25 O31 2.113201 1_555
Mg25 O10 2.141871 1_555
Mg25 O11 2.141871 1_555
Mg25 O27 2.190122 1_555
Mg25 O1 2.190122 1_655
Mg26 O13 2.147035 1_554
Mg26 O12 2.147035 1_555
Mg26 O28 2.149198 1_555
Mg26 O6 2.149198 1_555
Mg26 O4 2.151264 1_555
Mg26 O24 2.151264 1_565
Mg27 O29 2.113201 1_555
Mg27 O7 2.113201 1_555
Mg27 O12 2.141871 1_555
Mg27 O13 2.141871 1_555
Mg27 O5 2.190122 1_555
Mg27 O25 2.190122 1_565
Mg28 O15 2.147035 1_554
Mg28 O14 2.147035 1_555
Mg28 O30 2.149198 1_555
Mg28 O6 2.149198 1_555
Mg28 O4 2.151264 1_655
Mg28 O26 2.151264 1_565
Mg29 O7 2.113201 1_555
Mg29 O31 2.113201 1_555
Mg29 O14 2.141871 1_555
Mg29 O15 2.141871 1_555
Mg29 O5 2.190122 1_655
Mg29 O27 2.190122 1_565
O0 Zn0 2.222743 1_555
O1 Sn0 2.319880 1_555
O4 Zn0 2.222743 1_565
O5 Sn0 2.319880 1_565
O16 Zn0 1.981323 1_555
O16 Sn0 2.306698 1_555
O17 Zn0 1.981323 1_556
O17 Sn0 2.306698 1_555
O24 Zn0 2.222743 1_555
O25 Sn0 2.319880 1_555
O26 Zn0 2.222743 1_655
O27 Sn0 2.319880 1_655
