# generated using pymatgen
data_La2UTe5
_symmetry_space_group_name_H-M   'P 1'
_cell_length_a   10.01110076
_cell_length_b   10.01110076
_cell_length_c   8.97784810
_cell_angle_alpha   89.32170630
_cell_angle_beta   89.32170630
_cell_angle_gamma   36.39548950
_symmetry_Int_Tables_number   1
_chemical_formula_structural   La2UTe5
_chemical_formula_sum   'La4 U2 Te10'
_cell_volume   533.84746322
_cell_formula_units_Z   2
loop_
 _symmetry_equiv_pos_site_id
 _symmetry_equiv_pos_as_xyz
  1  'x, y, z'
loop_
 _atom_site_type_symbol
 _atom_site_label
 _atom_site_symmetry_multiplicity
 _atom_site_fract_x
 _atom_site_fract_y
 _atom_site_fract_z
 _atom_site_occupancy
  La  La0  1  0.25069800  0.25039300  0.26752700  1
  La  La1  1  0.59694800  0.57764400  0.26367200  1
  La  La2  1  0.74960700  0.74930200  0.73247300  1
  La  La3  1  0.42235600  0.40305200  0.73632800  1
  U  U0  1  0.90021700  0.93375100  0.26236600  1
  U  U1  1  0.06624900  0.09978300  0.73763400  1
  Te  Te0  1  0.24633500  0.24515100  0.63862400  1
  Te  Te1  1  0.92489500  0.91401400  0.62777900  1
  Te  Te2  1  0.57360000  0.59386000  0.64040800  1
  Te  Te3  1  0.75484900  0.75366500  0.36137600  1
  Te  Te4  1  0.40614000  0.42640000  0.35959200  1
  Te  Te5  1  0.08598600  0.07510500  0.37222100  1
  Te  Te6  1  0.57933800  0.05820600  0.00235200  1
  Te  Te7  1  0.24737400  0.75262600  0.00000000  1
  Te  Te8  1  0.94179400  0.42066200  0.99764800  1
  Te  Te9  1  0.75362100  0.24637900  0.00000000  1
loop_
_geom_bond_atom_site_label_1
_geom_bond_atom_site_label_2
_geom_bond_distance
_geom_bond_site_symmetry_2
La0 Te6 3.150602 1_555
La0 Te8 3.151653 1_454
La0 Te3 3.236331 1_455
La0 Te3 3.241637 1_545
La0 Te4 3.269353 1_555
La0 Te0 3.331768 1_555
La0 Te5 3.356269 1_555
La1 Te5 3.251732 1_655
La1 Te9 3.284184 1_555
La1 Te5 3.301982 1_565
La1 Te3 3.305649 1_555
La1 Te7 3.338902 1_555
La1 Te8 3.354318 1_554
La1 Te4 3.356991 1_555
La1 Te2 3.384375 1_555
La2 Te8 3.150602 1_555
La2 Te6 3.151653 1_566
La2 Te0 3.236331 1_565
La2 Te0 3.241637 1_655
La2 Te2 3.269353 1_555
La2 Te3 3.331768 1_555
La2 Te1 3.356269 1_555
La3 Te1 3.251732 1_545
La3 Te9 3.284184 1_556
La3 Te1 3.301982 1_455
La3 Te0 3.305649 1_555
La3 Te7 3.338902 1_556
La3 Te6 3.354318 1_556
La3 Te2 3.356991 1_555
La3 Te4 3.384375 1_555
Te0 U1 3.211476 1_555
Te1 U1 3.278293 1_665
Te1 U0 3.284481 1_555
Te2 U1 3.206037 1_655
Te2 U1 3.285981 1_565
Te3 U0 3.211476 1_555
Te4 U0 3.206037 1_545
Te4 U0 3.285981 1_455
Te5 U0 3.278293 1_445
Te5 U1 3.284481 1_555
Te6 U0 3.314537 1_545
Te7 Te9 3.087380 1_465
Te7 Te9 3.165504 1_555
Te7 U0 3.267546 1_455
Te7 U1 3.267546 1_564
Te8 U1 3.314537 1_655
Te9 U1 3.163901 1_654
Te9 U0 3.163901 1_545
