# generated using pymatgen
data_Te2Mo3WSe6
_symmetry_space_group_name_H-M   'P 1'
_cell_length_a   3.38482077
_cell_length_b   3.38482077
_cell_length_c   38.43948700
_cell_angle_alpha   90.00000000
_cell_angle_beta   90.00000000
_cell_angle_gamma   120.00001511
_symmetry_Int_Tables_number   1
_chemical_formula_structural   Te2Mo3WSe6
_chemical_formula_sum   'Te2 Mo3 W1 Se6'
_cell_volume   381.39895956
_cell_formula_units_Z   1
loop_
 _symmetry_equiv_pos_site_id
 _symmetry_equiv_pos_as_xyz
  1  'x, y, z'
loop_
 _atom_site_type_symbol
 _atom_site_label
 _atom_site_symmetry_multiplicity
 _atom_site_fract_x
 _atom_site_fract_y
 _atom_site_fract_z
 _atom_site_occupancy
  Te  Te0  1  0.33333300  0.66666700  0.70665300  1
  Te  Te1  1  0.33333300  0.66666700  0.60841400  1
  Mo  Mo0  1  0.33333300  0.66666700  0.09392100  1
  Mo  Mo1  1  0.33333300  0.66666700  0.46964700  1
  Mo  Mo2  1  0.66666700  0.33333300  0.28180000  1
  W  W0  1  0.66666700  0.33333300  0.65753900  1
  Se  Se0  1  0.33333300  0.66666700  0.32483500  1
  Se  Se1  1  0.66666700  0.33333300  0.05089600  1
  Se  Se2  1  0.66666700  0.33333300  0.42663900  1
  Se  Se3  1  0.66666700  0.33333300  0.13695100  1
  Se  Se4  1  0.66666700  0.33333300  0.51268700  1
  Se  Se5  1  0.33333300  0.66666700  0.23876600  1
loop_
_geom_bond_atom_site_label_1
_geom_bond_atom_site_label_2
_geom_bond_distance
_geom_bond_site_symmetry_2
Te0 W0 2.717209 1_455
Te0 W0 2.717209 1_565
Te0 W0 2.717214 1_555
Te1 W0 2.717503 1_455
Te1 W0 2.717503 1_565
Te1 W0 2.717507 1_555
Mo0 Se1 2.560126 1_455
Mo0 Se1 2.560126 1_565
Mo0 Se1 2.560131 1_555
Mo0 Se3 2.560250 1_455
Mo0 Se3 2.560250 1_565
Mo0 Se3 2.560255 1_555
Mo1 Se2 2.559704 1_455
Mo1 Se2 2.559704 1_565
Mo1 Se2 2.559709 1_555
Mo1 Se4 2.560498 1_565
Mo1 Se4 2.560498 1_455
Mo1 Se4 2.560503 1_555
Mo2 Se5 2.560349 1_545
Mo2 Se5 2.560349 1_655
Mo2 Se5 2.560354 1_555
Mo2 Se0 2.560374 1_545
Mo2 Se0 2.560374 1_655
Mo2 Se0 2.560379 1_555
