# generated using pymatgen
data_NaMnTe2
_symmetry_space_group_name_H-M   'P 1'
_cell_length_a   4.29619251
_cell_length_b   4.29619251
_cell_length_c   7.91247200
_cell_angle_alpha   90.00000000
_cell_angle_beta   90.00000000
_cell_angle_gamma   120.00000785
_symmetry_Int_Tables_number   1
_chemical_formula_structural   NaMnTe2
_chemical_formula_sum   'Na1 Mn1 Te2'
_cell_volume   126.47661995
_cell_formula_units_Z   1
loop_
 _symmetry_equiv_pos_site_id
 _symmetry_equiv_pos_as_xyz
  1  'x, y, z'
loop_
 _atom_site_type_symbol
 _atom_site_label
 _atom_site_symmetry_multiplicity
 _atom_site_fract_x
 _atom_site_fract_y
 _atom_site_fract_z
 _atom_site_occupancy
  Na  Na0  1  0.00000000  0.00000000  0.96784500  1
  Mn  Mn0  1  0.33333300  0.66666700  0.39653000  1
  Te  Te0  1  0.33333300  0.66666700  0.71653400  1
  Te  Te1  1  0.66666700  0.33333300  0.25309100  1
loop_
_geom_bond_atom_site_label_1
_geom_bond_atom_site_label_2
_geom_bond_distance
_geom_bond_site_symmetry_2
Na0 Te0 3.179074 1_545
Na0 Te0 3.179076 1_555
Na0 Te0 3.179076 1_445
Na0 Te1 3.353575 1_456
Na0 Te1 3.353577 1_446
Na0 Te1 3.353577 1_556
Mn0 Te0 2.532023 1_555
Mn0 Te1 2.727735 1_565
Mn0 Te1 2.727735 1_455
Mn0 Te1 2.727742 1_555
