# generated using pymatgen
data_Li7Mn2(CoO4)3
_symmetry_space_group_name_H-M   'P 1'
_cell_length_a   5.88359500
_cell_length_b   5.88829036
_cell_length_c   7.65328243
_cell_angle_alpha   100.81770516
_cell_angle_beta   100.32960173
_cell_angle_gamma   119.91061270
_symmetry_Int_Tables_number   1
_chemical_formula_structural   Li7Mn2(CoO4)3
_chemical_formula_sum   'Li7 Mn2 Co3 O12'
_cell_volume   213.83216841
_cell_formula_units_Z   1
loop_
 _symmetry_equiv_pos_site_id
 _symmetry_equiv_pos_as_xyz
  1  'x, y, z'
loop_
 _atom_site_type_symbol
 _atom_site_label
 _atom_site_symmetry_multiplicity
 _atom_site_fract_x
 _atom_site_fract_y
 _atom_site_fract_z
 _atom_site_occupancy
  Li  Li0  1  0.50285300  0.83520200  0.33778400  1
  Li  Li1  1  0.49528000  0.66410200  0.66547600  1
  Li  Li2  1  0.50287000  0.33373400  0.33437200  1
  Li  Li3  1  0.48582600  0.14996000  0.65766200  1
  Li  Li4  1  0.50180800  0.00211600  0.99977300  1
  Li  Li5  1  0.50494600  0.50589300  0.00387100  1
  Li  Li6  1  0.00376000  0.83354600  0.33335400  1
  Mn  Mn0  1  0.00362600  0.00062500  0.00440700  1
  Mn  Mn1  1  0.00120700  0.33412200  0.33433900  1
  Co  Co0  1  0.99243500  0.66929500  0.65609400  1
  Co  Co1  1  0.00068000  0.51223100  0.00230500  1
  Co  Co2  1  0.00099900  0.16124900  0.66336700  1
  O  O0  1  0.22118600  0.24943400  0.50256200  1
  O  O1  1  0.23318700  0.07605300  0.83724500  1
  O  O2  1  0.23104500  0.71741200  0.49161500  1
  O  O3  1  0.21684000  0.57287800  0.83193400  1
  O  O4  1  0.22833900  0.39310100  0.16697500  1
  O  O5  1  0.23051900  0.91890300  0.15097100  1
  O  O6  1  0.78399600  0.41594400  0.16834400  1
  O  O7  1  0.76455000  0.25350900  0.49109900  1
  O  O8  1  0.78060100  0.94822100  0.16670800  1
  O  O9  1  0.76516400  0.74743800  0.51298600  1
  O  O10  1  0.76904900  0.61438100  0.85064700  1
  O  O11  1  0.77923400  0.09065100  0.83610800  1
loop_
_geom_bond_atom_site_label_1
_geom_bond_atom_site_label_2
_geom_bond_distance
_geom_bond_site_symmetry_2
Li0 O7 2.073505 1_565
Li0 O2 2.073672 1_555
Li0 O9 2.181799 1_555
Li0 O8 2.199406 1_555
Li0 O4 2.206023 1_555
Li0 O5 2.254981 1_555
Li1 O2 2.046367 1_555
Li1 O9 2.055881 1_555
Li1 O0 2.079969 1_555
Li1 O10 2.120378 1_555
Li1 O11 2.146269 1_565
Li1 O3 2.173244 1_555
Li2 O7 2.075588 1_555
Li2 O4 2.088442 1_555
Li2 O9 2.104441 1_555
Li2 O5 2.123033 1_545
Li2 O6 2.184220 1_555
Li2 O0 2.198735 1_555
Li3 O1 2.144728 1_555
Li3 O2 2.154832 1_545
Li3 O0 2.164295 1_555
Li3 O7 2.174922 1_555
Li3 O11 2.214039 1_555
Li3 O10 2.343749 1_555
Li4 O5 2.054762 1_546
Li4 O8 2.084074 1_546
Li4 O6 2.091820 1_556
Li4 O1 2.102162 1_555
Li4 O3 2.152211 1_545
Li4 O11 2.152833 1_555
Li5 O10 2.035306 1_554
Li5 O4 2.147014 1_555
Li5 O1 2.147113 1_554
Li5 O8 2.193439 1_555
Li5 O3 2.195943 1_554
Li5 O6 2.221915 1_555
Li6 O5 2.059944 1_555
Li6 O9 2.088458 1_455
Li6 O2 2.089245 1_555
Li6 O6 2.095494 1_455
Li6 O0 2.098025 1_565
Li6 O8 2.100806 1_455
Mn0 O5 1.891585 1_545
Mn0 O8 1.919517 1_445
Mn0 O10 1.935108 1_444
Mn0 O1 1.973046 1_554
Mn0 O4 1.979991 1_555
Mn0 O11 2.006859 1_454
Mn1 O2 1.929766 1_555
Mn1 O6 1.934131 1_455
Mn1 O7 1.938329 1_455
Mn1 O8 1.964972 1_445
Mn1 O4 1.965986 1_555
Mn1 O0 1.966832 1_555
Co0 O9 1.864637 1_555
Co0 O2 2.001676 1_655
Co0 O3 2.067300 1_655
Co0 O1 2.081083 1_665
Co0 O7 2.084440 1_555
Co0 O10 2.123135 1_555
Co1 O6 1.921490 1_455
Co1 O3 1.939507 1_554
Co1 O5 2.013313 1_555
Co1 O10 2.019543 1_454
Co1 O11 2.114842 1_454
Co1 O4 2.130254 1_555
Co2 O0 1.898231 1_555
Co2 O11 1.976612 1_455
Co2 O1 2.042268 1_555
Co2 O9 2.046927 1_445
Co2 O3 2.078657 1_555
Co2 O7 2.081707 1_455
