# generated using pymatgen
data_U6Si11O
_symmetry_space_group_name_H-M   'P 1'
_cell_length_a   6.94524782
_cell_length_b   6.94524782
_cell_length_c   7.60199500
_cell_angle_alpha   90.00000000
_cell_angle_beta   90.00000000
_cell_angle_gamma   119.99999832
_symmetry_Int_Tables_number   1
_chemical_formula_structural   U6Si11O
_chemical_formula_sum   'U6 Si11 O1'
_cell_volume   317.56579087
_cell_formula_units_Z   1
loop_
 _symmetry_equiv_pos_site_id
 _symmetry_equiv_pos_as_xyz
  1  'x, y, z'
loop_
 _atom_site_type_symbol
 _atom_site_label
 _atom_site_symmetry_multiplicity
 _atom_site_fract_x
 _atom_site_fract_y
 _atom_site_fract_z
 _atom_site_occupancy
  U  U0  1  0.67061900  0.00000000  0.24811900  1
  U  U1  1  0.00000000  0.67061900  0.24811900  1
  U  U2  1  0.67061900  0.00000000  0.75188100  1
  U  U3  1  0.00000000  0.67061900  0.75188100  1
  U  U4  1  0.32938100  0.32938100  0.24811900  1
  U  U5  1  0.32938100  0.32938100  0.75188100  1
  Si  Si0  1  0.33333300  0.66666700  0.50000000  1
  Si  Si1  1  0.66666700  0.33333300  0.50000000  1
  Si  Si2  1  0.00000000  0.00000000  0.50000000  1
  Si  Si3  1  0.32465600  0.00000000  0.00000000  1
  Si  Si4  1  0.00000000  0.32465600  0.00000000  1
  Si  Si5  1  0.67534400  0.67534400  0.00000000  1
  Si  Si6  1  0.33333300  0.66666700  0.00000000  1
  Si  Si7  1  0.66666700  0.33333300  0.00000000  1
  Si  Si8  1  0.33513200  0.00000000  0.50000000  1
  Si  Si9  1  0.00000000  0.33513200  0.50000000  1
  Si  Si10  1  0.66486800  0.66486800  0.50000000  1
  O  O0  1  0.00000000  0.00000000  0.00000000  1
loop_
_geom_bond_atom_site_label_1
_geom_bond_atom_site_label_2
_geom_bond_distance
_geom_bond_site_symmetry_2
Si0 Si8 2.308858 1_565
Si0 Si9 2.308862 1_555
Si0 Si10 2.308865 1_555
Si0 U3 3.015020 1_555
Si0 U1 3.015020 1_555
Si0 U2 3.015023 1_565
Si0 U0 3.015023 1_565
Si0 U5 3.015025 1_555
Si0 U4 3.015025 1_555
Si1 Si9 2.308858 1_655
Si1 Si8 2.308862 1_555
Si1 Si10 2.308865 1_555
Si1 U2 3.015020 1_555
Si1 U0 3.015020 1_555
Si1 U3 3.015023 1_655
Si1 U1 3.015023 1_655
Si1 U5 3.015025 1_555
Si1 U4 3.015025 1_555
Si2 Si9 2.327575 1_555
Si2 Si8 2.327575 1_555
Si2 U2 2.983239 1_455
Si2 U3 2.983239 1_545
Si2 U1 2.983239 1_545
Si2 U0 2.983239 1_455
Si2 U5 2.983239 1_555
Si2 U4 2.983239 1_555
Si3 Si6 2.345793 1_545
Si3 Si7 2.345797 1_555
Si3 U4 2.952459 1_555
Si3 U5 2.952459 1_554
Si3 U1 2.952459 1_545
Si3 U3 2.952459 1_544
Si3 U0 3.054700 1_555
Si3 U2 3.054700 1_554
Si4 Si7 2.345793 1_455
Si4 Si6 2.345797 1_555
Si4 U4 2.952459 1_555
Si4 U5 2.952459 1_554
Si4 U0 2.952459 1_455
Si4 U2 2.952459 1_454
Si4 U1 3.054700 1_555
Si4 U3 3.054700 1_554
Si5 Si6 2.345800 1_555
Si5 Si7 2.345800 1_555
Si5 U1 2.952459 1_655
Si5 U0 2.952459 1_565
Si5 U2 2.952459 1_564
Si5 U3 2.952459 1_654
Si5 U4 3.054700 1_555
Si5 U5 3.054700 1_554
Si6 U1 2.996939 1_555
Si6 U3 2.996939 1_554
Si6 U0 2.996942 1_565
Si6 U2 2.996942 1_564
Si6 U4 2.996944 1_555
Si6 U5 2.996944 1_554
Si7 U0 2.996939 1_555
Si7 U2 2.996939 1_554
Si7 U1 2.996942 1_655
Si7 U3 2.996942 1_654
Si7 U4 2.996944 1_555
Si7 U5 2.996944 1_554
Si8 U5 2.998780 1_555
Si8 U4 2.998780 1_555
Si8 U3 2.998780 1_545
Si8 U1 2.998780 1_545
Si8 U2 3.015881 1_555
Si8 U0 3.015881 1_555
Si9 U5 2.998780 1_555
Si9 U4 2.998780 1_555
Si9 U2 2.998780 1_455
Si9 U0 2.998780 1_455
Si9 U3 3.015881 1_555
Si9 U1 3.015881 1_555
Si10 Si2 2.327575 1_665
Si10 U2 2.998780 1_565
Si10 U3 2.998780 1_655
Si10 U1 2.998780 1_655
Si10 U0 2.998780 1_565
Si10 U5 3.015881 1_555
Si10 U4 3.015881 1_555
O0 Si4 2.254816 1_555
O0 Si3 2.254816 1_555
O0 Si5 2.254816 1_445
O0 U0 2.964964 1_455
O0 U1 2.964964 1_545
O0 U3 2.964964 1_544
O0 U2 2.964964 1_454
O0 U4 2.964964 1_555
O0 U5 2.964964 1_554
