# generated using pymatgen
data_Al3GePd4
_symmetry_space_group_name_H-M   'P 1'
_cell_length_a   4.93058271
_cell_length_b   4.93071394
_cell_length_c   4.92967684
_cell_angle_alpha   89.84466467
_cell_angle_beta   90.21011667
_cell_angle_gamma   89.77633520
_symmetry_Int_Tables_number   1
_chemical_formula_structural   Al3GePd4
_chemical_formula_sum   'Al3 Ge1 Pd4'
_cell_volume   119.84465345
_cell_formula_units_Z   1
loop_
 _symmetry_equiv_pos_site_id
 _symmetry_equiv_pos_as_xyz
  1  'x, y, z'
loop_
 _atom_site_type_symbol
 _atom_site_label
 _atom_site_symmetry_multiplicity
 _atom_site_fract_x
 _atom_site_fract_y
 _atom_site_fract_z
 _atom_site_occupancy
  Al  Al0  1  0.34827100  0.65787000  0.15739000  1
  Al  Al1  1  0.65748300  0.15150200  0.34240400  1
  Al  Al2  1  0.84237500  0.84235500  0.84837100  1
  Ge  Ge0  1  0.15424900  0.34592100  0.65427000  1
  Pd  Pd0  1  0.85156300  0.64815100  0.35146600  1
  Pd  Pd1  1  0.64537500  0.35205000  0.85295800  1
  Pd  Pd2  1  0.35288000  0.85476800  0.64792000  1
  Pd  Pd3  1  0.14780400  0.14738200  0.14522100  1
loop_
_geom_bond_atom_site_label_1
_geom_bond_atom_site_label_2
_geom_bond_distance
_geom_bond_site_symmetry_2
Al0 Pd1 2.585173 1_554
Al0 Pd3 2.605072 1_565
Al0 Pd2 2.608262 1_555
Al0 Pd0 2.633131 1_455
Al0 Pd0 2.656501 1_555
Al0 Pd2 2.690386 1_554
Al0 Pd3 2.708509 1_555
Al1 Pd2 2.585813 1_545
Al1 Pd1 2.605490 1_554
Al1 Pd3 2.609001 1_655
Al1 Pd0 2.633072 1_555
Al1 Pd0 2.656685 1_545
Al1 Pd3 2.691305 1_555
Al1 Pd1 2.707421 1_555
Al2 Pd3 2.585498 1_666
Al2 Pd2 2.605032 1_555
Al2 Pd1 2.608974 1_555
Al2 Pd0 2.632987 1_555
Al2 Pd0 2.656279 1_556
Al2 Pd1 2.690979 1_565
Al2 Pd2 2.708330 1_655
Ge0 Pd0 2.574976 1_455
Ge0 Pd3 2.608602 1_556
Ge0 Pd2 2.609034 1_545
Ge0 Pd1 2.609109 1_555
Ge0 Pd3 2.696226 1_555
Ge0 Pd1 2.696882 1_455
Ge0 Pd2 2.697054 1_555
