# generated using pymatgen
data_Li9Mn2Co5O16
_symmetry_space_group_name_H-M   'P 1'
_cell_length_a   19.37981686
_cell_length_b   19.37981686
_cell_length_c   5.06978380
_cell_angle_alpha   86.26775361
_cell_angle_beta   86.26775361
_cell_angle_gamma   8.71564397
_symmetry_Int_Tables_number   1
_chemical_formula_structural   Li9Mn2Co5O16
_chemical_formula_sum   'Li9 Mn2 Co5 O16'
_cell_volume   287.91349310
_cell_formula_units_Z   1
loop_
 _symmetry_equiv_pos_site_id
 _symmetry_equiv_pos_as_xyz
  1  'x, y, z'
loop_
 _atom_site_type_symbol
 _atom_site_label
 _atom_site_symmetry_multiplicity
 _atom_site_fract_x
 _atom_site_fract_y
 _atom_site_fract_z
 _atom_site_occupancy
  Li  Li0  1  0.06643200  0.06643200  0.30328600  1
  Li  Li1  1  0.68242300  0.68242300  0.43764600  1
  Li  Li2  1  0.31116200  0.31116200  0.55596600  1
  Li  Li3  1  0.93602300  0.93602300  0.68488900  1
  Li  Li4  1  0.56476200  0.56476200  0.80385700  1
  Li  Li5  1  0.18326500  0.18326500  0.95290300  1
  Li  Li6  1  0.81172900  0.81172900  0.06597300  1
  Li  Li7  1  0.43669000  0.43669000  0.19395800  1
  Li  Li8  1  0.62434100  0.62434100  0.12401700  1
  Mn  Mn0  1  0.99984200  0.99984200  0.99900100  1
  Mn  Mn1  1  0.74830300  0.74830300  0.75243400  1
  Co  Co0  1  0.24795800  0.24795800  0.25214800  1
  Co  Co1  1  0.87399900  0.87399900  0.37508400  1
  Co  Co2  1  0.49990500  0.49990500  0.49866800  1
  Co  Co3  1  0.12403000  0.12403000  0.62478800  1
  Co  Co4  1  0.37395200  0.37395200  0.87511400  1
  O  O0  1  0.52782900  0.52782900  0.12978600  1
  O  O1  1  0.15205900  0.15205900  0.32463500  1
  O  O2  1  0.77675100  0.77675100  0.42138400  1
  O  O3  1  0.40352400  0.40352400  0.54515400  1
  O  O4  1  0.02741000  0.02741000  0.66910800  1
  O  O5  1  0.65167800  0.65167800  0.76640600  1
  O  O6  1  0.27664600  0.27664600  0.88326800  1
  O  O7  1  0.90290500  0.90290500  0.04425700  1
  O  O8  1  0.59621200  0.59621200  0.47853100  1
  O  O9  1  0.22075600  0.22075600  0.62416900  1
  O  O10  1  0.84511800  0.84511800  0.70554200  1
  O  O11  1  0.47162400  0.47162400  0.86875800  1
  O  O12  1  0.09664700  0.09664700  0.92441000  1
  O  O13  1  0.71966700  0.71966700  0.08059500  1
  O  O14  1  0.34451200  0.34451200  0.20516800  1
  O  O15  1  0.97115900  0.97115900  0.32909900  1
loop_
_geom_bond_atom_site_label_1
_geom_bond_atom_site_label_2
_geom_bond_distance
_geom_bond_site_symmetry_2
Li0 O8 2.101420 1_455
Li0 O8 2.101420 1_545
Li0 O12 2.181810 1_554
Li0 O0 2.310700 1_545
Li0 O0 2.310700 1_455
Li0 O4 2.312764 1_555
Li1 O5 1.982755 1_555
Li1 O1 1.990381 1_655
Li1 O1 1.990381 1_565
Li1 O13 2.237939 1_555
Li1 O9 2.332464 1_655
Li1 O9 2.332464 1_565
Li2 O6 2.060069 1_555
Li2 O2 2.126295 1_455
Li2 O2 2.126295 1_545
Li2 O14 2.127186 1_555
Li2 O10 2.143743 1_545
Li2 O10 2.143743 1_455
Li3 O3 2.089038 1_565
Li3 O3 2.089038 1_655
Li3 O7 2.157113 1_556
Li3 O15 2.185809 1_555
Li3 O11 2.257869 1_655
Li3 O11 2.257869 1_565
Li4 O8 1.983913 1_555
Li4 O12 2.039329 1_655
Li4 O12 2.039329 1_565
Li4 O0 2.111831 1_556
Li4 O4 2.201774 1_655
Li4 O4 2.201774 1_565
Li5 O9 2.135817 1_555
Li5 O13 2.164649 1_546
Li5 O13 2.164649 1_456
Li5 O5 2.168734 1_545
Li5 O5 2.168734 1_455
Li5 O1 2.170134 1_556
Li6 O14 2.094866 1_565
Li6 O14 2.094866 1_655
Li6 O10 2.167101 1_554
Li6 O2 2.180840 1_555
Li6 O6 2.242506 1_564
Li6 O6 2.242506 1_654
Li7 O11 2.061643 1_554
Li7 O3 2.124885 1_555
Li7 O15 2.128770 1_455
Li7 O15 2.128770 1_545
Li7 O7 2.139801 1_455
Li7 O7 2.139801 1_545
Li8 O5 2.037922 1_554
Li8 O8 2.038881 1_555
Li8 O12 2.116489 1_654
Li8 O12 2.116489 1_564
Li8 O1 2.119611 1_565
Li8 O1 2.119611 1_655
Mn0 O4 1.923462 1_665
Mn0 O15 1.946100 1_556
Mn0 O0 1.967658 1_656
Mn0 O0 1.967658 1_566
Mn0 O11 1.971755 1_565
Mn0 O11 1.971755 1_655
Mn1 O13 1.937092 1_556
Mn1 O2 1.945436 1_555
Mn1 O9 1.953242 1_565
Mn1 O9 1.953242 1_655
Mn1 O6 1.975649 1_655
Mn1 O6 1.975649 1_565
Co0 O13 2.060233 1_455
Co0 O13 2.060233 1_545
Co0 O2 2.065808 1_545
Co0 O2 2.065808 1_455
Co0 O9 2.098469 1_555
Co0 O6 2.110917 1_554
Co1 O10 1.951539 1_555
Co1 O7 1.953573 1_555
Co1 O14 2.082647 1_565
Co1 O14 2.082647 1_655
Co1 O3 2.083842 1_655
Co1 O3 2.083842 1_565
Co2 O4 2.040843 1_565
Co2 O4 2.040843 1_655
Co2 O15 2.065542 1_545
Co2 O15 2.065542 1_455
Co2 O0 2.097288 1_555
Co2 O11 2.108859 1_555
Co3 O12 1.793738 1_555
Co3 O1 1.809369 1_555
Co3 O5 1.981384 1_455
Co3 O5 1.981384 1_545
Co3 O8 1.994545 1_455
Co3 O8 1.994545 1_545
Co4 O14 1.961101 1_556
Co4 O3 1.963393 1_555
Co4 O10 2.067473 1_455
Co4 O10 2.067473 1_545
Co4 O7 2.069101 1_546
Co4 O7 2.069101 1_456
