# generated using pymatgen
data_Dy2In8Co
_symmetry_space_group_name_H-M   'P 1'
_cell_length_a   4.67165100
_cell_length_b   4.67165100
_cell_length_c   11.86570800
_cell_angle_alpha   90.00000000
_cell_angle_beta   90.00000000
_cell_angle_gamma   90.00000000
_symmetry_Int_Tables_number   1
_chemical_formula_structural   Dy2In8Co
_chemical_formula_sum   'Dy2 In8 Co1'
_cell_volume   258.96104480
_cell_formula_units_Z   1
loop_
 _symmetry_equiv_pos_site_id
 _symmetry_equiv_pos_as_xyz
  1  'x, y, z'
loop_
 _atom_site_type_symbol
 _atom_site_label
 _atom_site_symmetry_multiplicity
 _atom_site_fract_x
 _atom_site_fract_y
 _atom_site_fract_z
 _atom_site_occupancy
  Dy  Dy0  1  0.00000000  0.00000000  0.69189700  1
  Dy  Dy1  1  0.00000000  0.00000000  0.30810300  1
  In  In0  1  0.50000000  0.00000000  0.50000000  1
  In  In1  1  0.00000000  0.50000000  0.50000000  1
  In  In2  1  0.50000000  0.50000000  0.69329600  1
  In  In3  1  0.50000000  0.50000000  0.30670400  1
  In  In4  1  0.50000000  0.00000000  0.87926600  1
  In  In5  1  0.00000000  0.50000000  0.87926600  1
  In  In6  1  0.50000000  0.00000000  0.12073400  1
  In  In7  1  0.00000000  0.50000000  0.12073400  1
  Co  Co0  1  0.00000000  0.00000000  0.00000000  1
loop_
_geom_bond_atom_site_label_1
_geom_bond_atom_site_label_2
_geom_bond_distance
_geom_bond_site_symmetry_2
Dy0 In4 3.224747 1_455
Dy0 In4 3.224747 1_555
Dy0 In5 3.224747 1_555
Dy0 In5 3.224747 1_545
Dy0 In0 3.262021 1_455
Dy0 In0 3.262021 1_555
Dy0 In1 3.262021 1_555
Dy0 In1 3.262021 1_545
Dy0 In2 3.303398 1_445
Dy0 In2 3.303398 1_455
Dy0 In2 3.303398 1_545
Dy0 In2 3.303398 1_555
Dy1 In6 3.224747 1_555
Dy1 In6 3.224747 1_455
Dy1 In7 3.224747 1_545
Dy1 In7 3.224747 1_555
Dy1 In0 3.262021 1_455
Dy1 In0 3.262021 1_555
Dy1 In1 3.262021 1_555
Dy1 In1 3.262021 1_545
Dy1 In3 3.303398 1_555
Dy1 In3 3.303398 1_445
Dy1 In3 3.303398 1_455
Dy1 In3 3.303398 1_545
In0 In2 3.273630 1_545
In0 In3 3.273630 1_545
In0 In3 3.273630 1_555
In0 In2 3.273630 1_555
In0 In1 3.303356 1_655
In0 In1 3.303356 1_555
In0 In1 3.303356 1_545
In0 In1 3.303356 1_645
In1 In3 3.273630 1_455
In1 In3 3.273630 1_555
In1 In2 3.273630 1_555
In1 In2 3.273630 1_455
In2 In4 3.213325 1_565
In2 In5 3.213325 1_655
In2 In4 3.213325 1_555
In2 In5 3.213325 1_555
In3 In6 3.213325 1_555
In3 In6 3.213325 1_565
In3 In7 3.213325 1_655
In3 In7 3.213325 1_555
In4 In6 2.865189 1_556
In4 In5 3.303356 1_655
In4 In5 3.303356 1_555
In4 In5 3.303356 1_645
In4 In5 3.303356 1_545
In5 In7 2.865189 1_556
In6 In7 3.303356 1_645
In6 In7 3.303356 1_555
In6 In7 3.303356 1_655
In6 In7 3.303356 1_545
Co0 In5 2.740147 1_544
Co0 In6 2.740147 1_455
Co0 In4 2.740147 1_554
Co0 In6 2.740147 1_555
Co0 In5 2.740147 1_554
Co0 In4 2.740147 1_454
Co0 In7 2.740147 1_555
Co0 In7 2.740147 1_545
