# generated using pymatgen
data_Sr(YSe2)2
_symmetry_space_group_name_H-M   'P 1'
_cell_length_a   4.14021165
_cell_length_b   12.63259380
_cell_length_c   14.95552715
_cell_angle_alpha   90.00000000
_cell_angle_beta   90.00000000
_cell_angle_gamma   90.00000000
_symmetry_Int_Tables_number   1
_chemical_formula_structural   Sr(YSe2)2
_chemical_formula_sum   'Sr4 Y8 Se16'
_cell_volume   782.19817856
_cell_formula_units_Z   4
loop_
 _symmetry_equiv_pos_site_id
 _symmetry_equiv_pos_as_xyz
  1  'x, y, z'
loop_
 _atom_site_type_symbol
 _atom_site_label
 _atom_site_symmetry_multiplicity
 _atom_site_fract_x
 _atom_site_fract_y
 _atom_site_fract_z
 _atom_site_occupancy
  Sr  Sr0  1  0.75000000  0.73971897  0.16528585  1
  Sr  Sr1  1  0.75000000  0.23971897  0.33471415  1
  Sr  Sr2  1  0.25000000  0.26028103  0.83471415  1
  Sr  Sr3  1  0.25000000  0.76028103  0.66528585  1
  Y  Y0  1  0.75000000  0.06078170  0.11125625  1
  Y  Y1  1  0.75000000  0.56078170  0.38874375  1
  Y  Y2  1  0.25000000  0.93921830  0.88874375  1
  Y  Y3  1  0.25000000  0.43921830  0.61125625  1
  Y  Y4  1  0.75000000  0.08482003  0.59784986  1
  Y  Y5  1  0.75000000  0.58482003  0.90215014  1
  Y  Y6  1  0.25000000  0.91517997  0.40215014  1
  Y  Y7  1  0.25000000  0.41517997  0.09784986  1
  Se  Se0  1  0.75000000  0.29652074  0.67185820  1
  Se  Se1  1  0.75000000  0.79652074  0.82814180  1
  Se  Se2  1  0.25000000  0.70347926  0.32814180  1
  Se  Se3  1  0.25000000  0.20347926  0.17185820  1
  Se  Se4  1  0.75000000  0.37171670  0.96880112  1
  Se  Se5  1  0.75000000  0.87171670  0.53119888  1
  Se  Se6  1  0.25000000  0.62828330  0.03119888  1
  Se  Se7  1  0.25000000  0.12828330  0.46880112  1
  Se  Se8  1  0.75000000  0.47013076  0.21582489  1
  Se  Se9  1  0.75000000  0.97013076  0.28417511  1
  Se  Se10  1  0.25000000  0.52986924  0.78417511  1
  Se  Se11  1  0.25000000  0.02986924  0.71582489  1
  Se  Se12  1  0.75000000  0.09153718  0.92335943  1
  Se  Se13  1  0.75000000  0.59153718  0.57664057  1
  Se  Se14  1  0.25000000  0.90846282  0.07664057  1
  Se  Se15  1  0.25000000  0.40846282  0.42335943  1
loop_
_geom_bond_atom_site_label_1
_geom_bond_atom_site_label_2
_geom_bond_distance
_geom_bond_site_symmetry_2
Se0 Y3 2.890725 1_555
Se0 Y3 2.890725 1_655
Se0 Y4 2.894325 1_555
Se0 Sr2 3.229094 1_655
Se0 Sr2 3.229094 1_555
Se1 Y2 2.890725 1_555
Se1 Y2 2.890725 1_655
Se1 Y5 2.894325 1_555
Se1 Sr3 3.229094 1_655
Se1 Sr3 3.229094 1_555
Se2 Y1 2.890725 1_455
Se2 Y1 2.890725 1_555
Se2 Y6 2.894325 1_555
Se2 Sr0 3.229094 1_455
Se2 Sr0 3.229094 1_555
Se3 Y0 2.890725 1_455
Se3 Y0 2.890725 1_555
Se3 Y7 2.894325 1_555
Se3 Sr1 3.229094 1_455
Se3 Sr1 3.229094 1_555
Se4 Y5 2.870668 1_555
Se4 Y7 2.882996 1_556
Se4 Y7 2.882996 1_656
Se4 Sr2 3.207555 1_555
Se4 Sr2 3.207555 1_655
Se5 Y4 2.870668 1_565
Se5 Y6 2.882996 1_555
Se5 Y6 2.882996 1_655
Se5 Sr3 3.207555 1_555
Se5 Sr3 3.207555 1_655
Se6 Y7 2.870668 1_555
Se6 Y5 2.882996 1_554
Se6 Y5 2.882996 1_454
Se6 Sr0 3.207555 1_555
Se6 Sr0 3.207555 1_455
Se7 Y6 2.870668 1_545
Se7 Y4 2.882996 1_455
Se7 Y4 2.882996 1_555
Se7 Sr1 3.207555 1_455
Se7 Sr1 3.207555 1_555
Se8 Y7 2.807177 1_555
Se8 Y7 2.807177 1_655
Se8 Y1 2.828296 1_555
Se8 Sr1 3.410811 1_555
Se8 Sr0 3.488465 1_555
Se9 Y6 2.807177 1_555
Se9 Y6 2.807177 1_655
Se9 Y0 2.828296 1_565
Se9 Sr0 3.410811 1_555
Se9 Sr1 3.488465 1_565
Se10 Y5 2.807177 1_555
Se10 Y5 2.807177 1_455
Se10 Y3 2.828296 1_555
Se10 Sr3 3.410811 1_555
Se10 Sr2 3.488465 1_555
Se11 Y4 2.807177 1_555
Se11 Y4 2.807177 1_455
Se11 Y2 2.828296 1_545
Se11 Sr2 3.410811 1_555
Se11 Sr3 3.488465 1_545
Se12 Y0 2.836827 1_556
Se12 Y2 2.873295 1_645
Se12 Y2 2.873295 1_545
Se12 Sr2 3.253758 1_555
Se12 Sr2 3.253758 1_655
Se13 Y1 2.836827 1_555
Se13 Y3 2.873295 1_655
Se13 Y3 2.873295 1_555
Se13 Sr3 3.253758 1_555
Se13 Sr3 3.253758 1_655
Se14 Y2 2.836827 1_554
Se14 Y0 2.873295 1_565
Se14 Y0 2.873295 1_465
Se14 Sr0 3.253758 1_555
Se14 Sr0 3.253758 1_455
Se15 Y3 2.836827 1_555
Se15 Y1 2.873295 1_555
Se15 Y1 2.873295 1_455
Se15 Sr1 3.253758 1_455
Se15 Sr1 3.253758 1_555
