# generated using pymatgen
data_Sr3Sn3Au8
_symmetry_space_group_name_H-M   'P 1'
_cell_length_a   8.98052628
_cell_length_b   8.98052628
_cell_length_c   9.88513809
_cell_angle_alpha   57.48439117
_cell_angle_beta   57.48439117
_cell_angle_gamma   30.84029400
_symmetry_Int_Tables_number   1
_chemical_formula_structural   Sr3Sn3Au8
_chemical_formula_sum   'Sr3 Sn3 Au8'
_cell_volume   339.26529160
_cell_formula_units_Z   1
loop_
 _symmetry_equiv_pos_site_id
 _symmetry_equiv_pos_as_xyz
  1  'x, y, z'
loop_
 _atom_site_type_symbol
 _atom_site_label
 _atom_site_symmetry_multiplicity
 _atom_site_fract_x
 _atom_site_fract_y
 _atom_site_fract_z
 _atom_site_occupancy
  Sr  Sr0  1  0.69809500  0.69809500  0.27414900  1
  Sr  Sr1  1  0.30190500  0.30190500  0.72585100  1
  Sr  Sr2  1  0.00000000  0.00000000  0.00000000  1
  Sn  Sn0  1  0.00000000  0.00000000  0.50000000  1
  Sn  Sn1  1  0.32912600  0.32912600  0.31775300  1
  Sn  Sn2  1  0.67087400  0.67087400  0.68224700  1
  Au  Au0  1  0.87285800  0.87285800  0.85258500  1
  Au  Au1  1  0.12714200  0.12714200  0.14741500  1
  Au  Au2  1  0.13697400  0.13697400  0.57755200  1
  Au  Au3  1  0.86302600  0.86302600  0.42244800  1
  Au  Au4  1  0.49646700  0.49646700  0.30279900  1
  Au  Au5  1  0.50353300  0.50353300  0.69720100  1
  Au  Au6  1  0.65927200  0.65927200  0.97040300  1
  Au  Au7  1  0.34072800  0.34072800  0.02959700  1
loop_
_geom_bond_atom_site_label_1
_geom_bond_atom_site_label_2
_geom_bond_distance
_geom_bond_site_symmetry_2
Sn0 Sr1 3.729737 1_455
Sn0 Sr1 3.729737 1_545
Sn0 Sr0 3.729737 1_455
Sn0 Sr0 3.729737 1_545
Sn1 Sr0 3.482163 1_545
Sn1 Sr0 3.482163 1_455
Sn1 Sr2 3.736000 1_655
Sn1 Sr2 3.736000 1_565
Sn1 Sr1 3.791538 1_555
Sn2 Sr1 3.482163 1_565
Sn2 Sr1 3.482163 1_655
Sn2 Sr2 3.736000 1_566
Sn2 Sr2 3.736000 1_656
Sn2 Sr0 3.791538 1_555
Au0 Au7 2.826240 1_656
Au0 Au7 2.826240 1_566
Au0 Sn0 2.904697 1_665
Au0 Au5 3.050377 1_655
Au0 Au5 3.050377 1_565
Au0 Au6 3.198341 1_555
Au0 Sr1 3.239914 1_655
Au0 Sr1 3.239914 1_565
Au0 Sr2 3.247633 1_666
Au0 Sr0 3.529811 1_556
Au1 Au6 2.826240 1_544
Au1 Au6 2.826240 1_454
Au1 Sn0 2.904697 1_555
Au1 Au4 3.050377 1_545
Au1 Au4 3.050377 1_455
Au1 Au7 3.198341 1_555
Au1 Sr0 3.239914 1_455
Au1 Sr0 3.239914 1_545
Au1 Sr2 3.247633 1_555
Au1 Sr1 3.529811 1_554
Au2 Sn2 2.791952 1_455
Au2 Sn2 2.791952 1_545
Au2 Sn1 2.852334 1_555
Au2 Sn0 2.870527 1_555
Au2 Au5 3.064569 1_455
Au2 Au5 3.064569 1_545
Au2 Sr2 3.466765 1_556
Au2 Sr0 3.503909 1_545
Au2 Sr0 3.503909 1_455
Au2 Sr1 3.869449 1_555
Au3 Sn1 2.791952 1_655
Au3 Sn1 2.791952 1_565
Au3 Sn2 2.852334 1_555
Au3 Sn0 2.870527 1_665
Au3 Au4 3.064569 1_565
Au3 Au4 3.064569 1_655
Au3 Sr2 3.466765 1_665
Au3 Sr1 3.503909 1_655
Au3 Sr1 3.503909 1_565
Au3 Sr0 3.869449 1_555
Au4 Sn1 2.817671 1_555
Au4 Au6 2.900549 1_554
Au4 Sn0 3.104624 1_655
Au4 Sn0 3.104624 1_565
Au4 Sr0 3.341449 1_555
Au4 Sr1 3.623000 1_555
Au4 Sr2 3.802738 1_565
Au4 Sr2 3.802738 1_655
Au5 Sn2 2.817671 1_555
Au5 Au7 2.900549 1_556
Au5 Sn0 3.104624 1_655
Au5 Sn0 3.104624 1_565
Au5 Sr1 3.341449 1_555
Au5 Sr0 3.623000 1_555
Au5 Sr2 3.802738 1_566
Au5 Sr2 3.802738 1_656
Au6 Sn2 2.741525 1_555
Au6 Sr1 3.314669 1_565
Au6 Sr1 3.314669 1_655
Au6 Sr0 3.423176 1_556
Au6 Sr2 3.534511 1_566
Au6 Sr2 3.534511 1_656
Au7 Sn1 2.741525 1_555
Au7 Sr0 3.314669 1_545
Au7 Sr0 3.314669 1_455
Au7 Sr1 3.423176 1_554
Au7 Sr2 3.534511 1_565
Au7 Sr2 3.534511 1_655
