# generated using pymatgen
data_Sr2VMoO6
_symmetry_space_group_name_H-M   'P 1'
_cell_length_a   6.92108771
_cell_length_b   6.92109350
_cell_length_c   6.92109638
_cell_angle_alpha   70.43043033
_cell_angle_beta   70.72496844
_cell_angle_gamma   109.56931638
_symmetry_Int_Tables_number   1
_chemical_formula_structural   Sr2VMoO6
_chemical_formula_sum   'Sr4 V2 Mo2 O12'
_cell_volume   255.21009009
_cell_formula_units_Z   2
loop_
 _symmetry_equiv_pos_site_id
 _symmetry_equiv_pos_as_xyz
  1  'x, y, z'
loop_
 _atom_site_type_symbol
 _atom_site_label
 _atom_site_symmetry_multiplicity
 _atom_site_fract_x
 _atom_site_fract_y
 _atom_site_fract_z
 _atom_site_occupancy
  Sr  Sr0  1  0.50000100  0.50000100  0.50000000  1
  Sr  Sr1  1  0.00000100  0.50000000  0.00000000  1
  Sr  Sr2  1  0.50000100  0.00000100  0.00000100  1
  Sr  Sr3  1  0.00000100  0.00000100  0.49999900  1
  V  V0  1  0.99999800  0.99999700  0.99999300  1
  V  V1  1  0.49999400  0.99999700  0.50000100  1
  Mo  Mo0  1  0.00000000  0.50000200  0.50000100  1
  Mo  Mo1  1  0.50000100  0.50000100  0.00000000  1
  O  O0  1  0.25000300  0.00000100  0.75000400  1
  O  O1  1  0.75000000  0.00000000  0.24999700  1
  O  O2  1  0.75900100  0.49999800  0.74099800  1
  O  O3  1  0.24099700  0.50000000  0.25900100  1
  O  O4  1  0.23747000  0.23746700  0.99999900  1
  O  O5  1  0.74917400  0.24917100  0.49999900  1
  O  O6  1  0.76252800  0.76253100  0.00000300  1
  O  O7  1  0.25083500  0.75082900  0.50000200  1
  O  O8  1  0.49999900  0.23746700  0.26253000  1
  O  O9  1  0.99999700  0.24917100  0.75083300  1
  O  O10  1  0.50000200  0.76253400  0.73746500  1
  O  O11  1  0.99999900  0.75083100  0.24917200  1
loop_
_geom_bond_atom_site_label_1
_geom_bond_atom_site_label_2
_geom_bond_distance
_geom_bond_site_symmetry_2
Mo0 O2 1.930650 1_455
Mo0 O3 1.930678 1_555
Mo0 O11 2.002143 1_455
Mo0 O9 2.002147 1_455
Mo0 O5 2.002148 1_455
Mo0 O7 2.002164 1_555
Mo1 O3 2.074898 1_555
Mo1 O2 2.074902 1_554
Mo1 O6 2.095543 1_555
Mo1 O8 2.095546 1_555
Mo1 O10 2.095566 1_554
Mo1 O4 2.095567 1_554
O0 V0 2.002742 1_445
O0 V1 2.002774 1_545
O0 Sr2 2.822071 1_556
O0 Sr0 2.822097 1_555
O0 Sr1 2.822103 1_546
O0 Sr3 2.822139 1_555
O1 V0 2.002802 1_544
O1 V1 2.002810 1_545
O1 Sr2 2.822071 1_555
O1 Sr0 2.822091 1_545
O1 Sr1 2.822097 1_655
O1 Sr3 2.822116 1_655
O2 Sr2 2.823002 1_556
O2 Sr0 2.823009 1_555
O2 Sr1 2.823032 1_656
O2 Sr3 2.823035 1_665
O3 Sr1 2.823004 1_555
O3 Sr3 2.823013 1_555
O3 Sr2 2.823024 1_565
O3 Sr0 2.823037 1_555
O4 V0 1.895543 1_445
O4 Sr2 2.828985 1_556
O4 Sr0 2.828996 1_555
O4 Sr3 2.829002 1_556
O4 Sr1 2.829013 1_556
O5 V1 1.988950 1_545
O5 Sr3 2.827223 1_655
O5 Sr1 2.827234 1_655
O5 Sr2 2.827251 1_556
O5 Sr0 2.827257 1_555
O6 V0 1.895456 1_554
O6 Sr0 2.828984 1_555
O6 Sr2 2.828984 1_565
O6 Sr3 2.829024 1_664
O6 Sr1 2.829024 1_655
O7 V1 1.988846 1_555
O7 Sr0 2.827207 1_555
O7 Sr1 2.827229 1_556
O7 Sr2 2.827246 1_565
O7 Sr3 2.827274 1_565
O8 V1 1.895491 1_545
O8 Sr2 2.828979 1_555
O8 Sr3 2.828991 1_555
O8 Sr1 2.829013 1_655
O8 Sr0 2.829030 1_555
O9 V0 1.988877 1_545
O9 Sr2 2.827218 1_556
O9 Sr1 2.827224 1_656
O9 Sr0 2.827264 1_655
O9 Sr3 2.827269 1_655
O10 V1 1.895487 1_555
O10 Sr3 2.828997 1_665
O10 Sr0 2.828997 1_555
O10 Sr1 2.829008 1_556
O10 Sr2 2.829026 1_566
O11 V0 1.988921 1_554
O11 Sr0 2.827230 1_555
O11 Sr3 2.827230 1_665
O11 Sr2 2.827252 1_665
O11 Sr1 2.827264 1_655
