# generated using pymatgen
data_ZrTl2PbS4
_symmetry_space_group_name_H-M   'P 1'
_cell_length_a   8.80685475
_cell_length_b   8.80685475
_cell_length_c   6.82756924
_cell_angle_alpha   73.33512626
_cell_angle_beta   73.33512626
_cell_angle_gamma   56.03083919
_symmetry_Int_Tables_number   1
_chemical_formula_structural   ZrTl2PbS4
_chemical_formula_sum   'Zr2 Tl4 Pb2 S8'
_cell_volume   415.36038080
_cell_formula_units_Z   2
loop_
 _symmetry_equiv_pos_site_id
 _symmetry_equiv_pos_as_xyz
  1  'x, y, z'
loop_
 _atom_site_type_symbol
 _atom_site_label
 _atom_site_symmetry_multiplicity
 _atom_site_fract_x
 _atom_site_fract_y
 _atom_site_fract_z
 _atom_site_occupancy
  Zr  Zr0  1  0.12262425  0.87737575  0.75000000  1
  Zr  Zr1  1  0.87737575  0.12262425  0.25000000  1
  Tl  Tl0  1  0.12372082  0.37673155  0.73473643  1
  Tl  Tl1  1  0.62326845  0.87627918  0.76526357  1
  Tl  Tl2  1  0.87627918  0.62326845  0.26526357  1
  Tl  Tl3  1  0.37673155  0.12372082  0.23473643  1
  Pb  Pb0  1  0.62436546  0.37563454  0.75000000  1
  Pb  Pb1  1  0.37563454  0.62436546  0.25000000  1
  S  S0  1  0.00727341  0.80070584  0.50203118  1
  S  S1  1  0.19929416  0.99272559  0.99796882  1
  S  S2  1  0.99272559  0.19929416  0.49796882  1
  S  S3  1  0.80070584  0.00727441  0.00203118  1
  S  S4  1  0.23300489  0.55512399  0.96350987  1
  S  S5  1  0.44487601  0.76699511  0.53649013  1
  S  S6  1  0.76699511  0.44487601  0.03649013  1
  S  S7  1  0.55512399  0.23300489  0.46350987  1
loop_
_geom_bond_atom_site_label_1
_geom_bond_atom_site_label_2
_geom_bond_distance
_geom_bond_site_symmetry_2
Pb0 S2 2.932227 1_555
Pb0 S3 2.932227 1_556
Pb0 S6 2.953820 1_556
Pb0 S7 2.953820 1_555
Pb0 S5 2.975693 1_555
Pb0 S4 2.975693 1_555
Pb1 S1 2.932227 1_554
Pb1 S0 2.932232 1_555
Pb1 S5 2.953820 1_555
Pb1 S4 2.953820 1_554
Pb1 S7 2.975693 1_555
Pb1 S6 2.975693 1_555
S0 Zr0 2.600558 1_555
S0 Zr1 2.648409 1_465
S0 Tl1 3.129670 1_455
S1 Zr0 2.600552 1_555
S1 Zr1 2.648409 1_466
S1 Tl0 3.129677 1_565
S2 Zr1 2.600552 1_555
S2 Zr0 2.648409 1_645
S2 Tl3 3.129677 1_655
S3 Zr1 2.600552 1_555
S3 Zr0 2.648409 1_644
S3 Tl2 3.129677 1_545
S4 Zr0 2.545847 1_555
S4 Tl2 3.060153 1_456
S4 Tl0 3.129497 1_555
S5 Zr0 2.545847 1_555
S5 Tl3 3.060153 1_565
S5 Tl1 3.129497 1_555
S6 Zr1 2.545847 1_555
S6 Tl0 3.060153 1_654
S6 Tl2 3.129497 1_555
S7 Zr1 2.545847 1_555
S7 Tl1 3.060153 1_545
S7 Tl3 3.129497 1_555
