# generated using pymatgen
data_NaYb(PS3)2
_symmetry_space_group_name_H-M   'P 1'
_cell_length_a   7.32236700
_cell_length_b   7.34485249
_cell_length_c   9.87572317
_cell_angle_alpha   87.28203634
_cell_angle_beta   75.24000696
_cell_angle_gamma   87.97242783
_symmetry_Int_Tables_number   1
_chemical_formula_structural   NaYb(PS3)2
_chemical_formula_sum   'Na2 Yb2 P4 S12'
_cell_volume   512.87959287
_cell_formula_units_Z   2
loop_
 _symmetry_equiv_pos_site_id
 _symmetry_equiv_pos_as_xyz
  1  'x, y, z'
loop_
 _atom_site_type_symbol
 _atom_site_label
 _atom_site_symmetry_multiplicity
 _atom_site_fract_x
 _atom_site_fract_y
 _atom_site_fract_z
 _atom_site_occupancy
  Na  Na0  1  0.52388700  0.37250600  0.32964900  1
  Na  Na1  1  0.47611300  0.62749400  0.67035100  1
  Yb  Yb0  1  0.95089000  0.11700200  0.71750800  1
  Yb  Yb1  1  0.04911000  0.88299800  0.28249200  1
  P  P0  1  0.73471300  0.03008500  0.05993900  1
  P  P1  1  0.26528700  0.96991500  0.94006100  1
  P  P2  1  0.05392000  0.60522000  0.55895200  1
  P  P3  1  0.94608000  0.39478000  0.44104800  1
  S  S0  1  0.66851800  0.00310600  0.26619000  1
  S  S1  1  0.67062100  0.25552100  0.96753600  1
  S  S2  1  0.91267800  0.51620200  0.26143600  1
  S  S3  1  0.33148200  0.99689400  0.73381000  1
  S  S4  1  0.84992600  0.80847300  0.57550400  1
  S  S5  1  0.08732200  0.48379800  0.73856400  1
  S  S6  1  0.15007400  0.19152700  0.42449600  1
  S  S7  1  0.85590600  0.82767900  0.94515300  1
  S  S8  1  0.29904800  0.69697300  0.42669200  1
  S  S9  1  0.70095200  0.30302700  0.57330800  1
  S  S10  1  0.14409400  0.17232100  0.05484700  1
  S  S11  1  0.32937900  0.74447900  0.03246400  1
loop_
_geom_bond_atom_site_label_1
_geom_bond_atom_site_label_2
_geom_bond_distance
_geom_bond_site_symmetry_2
Na0 S8 2.905758 1_555
Na0 S0 2.914699 1_555
Na0 S2 2.973279 1_555
Na0 S6 2.994917 1_555
Na0 S9 3.026246 1_555
Na1 S9 2.905758 1_555
Na1 S3 2.914699 1_555
Na1 S5 2.973279 1_555
Na1 S4 2.994917 1_555
Na1 S8 3.026246 1_555
P0 S1 1.953093 1_554
P0 S7 1.958710 1_544
P0 S0 1.971936 1_555
P1 S11 1.953093 1_556
P1 S10 1.958710 1_566
P1 S3 1.971936 1_555
P2 S5 2.014232 1_555
P2 S8 2.046818 1_555
P2 S4 2.056088 1_455
P3 S2 2.014232 1_555
P3 S9 2.046818 1_555
P3 S6 2.056088 1_655
S0 Yb1 2.934583 1_645
S1 Yb0 2.975267 1_555
S2 Yb1 2.940859 1_655
S3 Yb0 2.934583 1_465
S4 Yb1 2.925088 1_655
S4 Yb0 2.932012 1_565
S5 Yb0 2.940859 1_455
S6 Yb0 2.925088 1_455
S6 Yb1 2.932012 1_545
S7 Yb0 2.984710 1_565
S8 Yb1 2.865445 1_555
S9 Yb0 2.865445 1_555
S10 Yb1 2.984710 1_545
S11 Yb1 2.975267 1_555
