# generated using pymatgen
data_Zn2SiO4
_symmetry_space_group_name_H-M   'P 1'
_cell_length_a   5.06618844
_cell_length_b   6.65704295
_cell_length_c   10.29488244
_cell_angle_alpha   90.00000000
_cell_angle_beta   90.00000000
_cell_angle_gamma   90.00000000
_symmetry_Int_Tables_number   1
_chemical_formula_structural   Zn2SiO4
_chemical_formula_sum   'Zn8 Si4 O16'
_cell_volume   347.20349661
_cell_formula_units_Z   4
loop_
 _symmetry_equiv_pos_site_id
 _symmetry_equiv_pos_as_xyz
  1  'x, y, z'
loop_
 _atom_site_type_symbol
 _atom_site_label
 _atom_site_symmetry_multiplicity
 _atom_site_fract_x
 _atom_site_fract_y
 _atom_site_fract_z
 _atom_site_occupancy
  Zn  Zn0  1  0.67508674  0.99953128  0.65533254  1
  Zn  Zn1  1  0.82491326  0.50046872  0.15533254  1
  Zn  Zn2  1  0.32491326  0.49953128  0.34466746  1
  Zn  Zn3  1  0.17508674  0.00046872  0.84466746  1
  Zn  Zn4  1  0.32491326  0.00046872  0.34466746  1
  Zn  Zn5  1  0.17508674  0.49953128  0.84466746  1
  Zn  Zn6  1  0.67508674  0.50046872  0.65533254  1
  Zn  Zn7  1  0.82491326  0.99953128  0.15533254  1
  Si  Si0  1  0.17677028  0.25000000  0.59264304  1
  Si  Si1  1  0.32322972  0.25000000  0.09264304  1
  Si  Si2  1  0.82322972  0.75000000  0.40735696  1
  Si  Si3  1  0.67677028  0.75000000  0.90735696  1
  O  O0  1  0.85668678  0.25000000  0.61166393  1
  O  O1  1  0.64331322  0.25000000  0.11166393  1
  O  O2  1  0.14331322  0.75000000  0.38833607  1
  O  O3  1  0.35668678  0.75000000  0.88833607  1
  O  O4  1  0.23628342  0.25000000  0.94038137  1
  O  O5  1  0.26371658  0.25000000  0.44038137  1
  O  O6  1  0.76371658  0.75000000  0.05961863  1
  O  O7  1  0.73628342  0.75000000  0.55961863  1
  O  O8  1  0.29444245  0.04968219  0.66357194  1
  O  O9  1  0.20555755  0.45031781  0.16357194  1
  O  O10  1  0.70555755  0.54968219  0.33642806  1
  O  O11  1  0.79444245  0.95031781  0.83642806  1
  O  O12  1  0.70555755  0.95031781  0.33642806  1
  O  O13  1  0.79444245  0.54968219  0.83642806  1
  O  O14  1  0.29444245  0.45031781  0.66357194  1
  O  O15  1  0.20555755  0.04968219  0.16357194  1
loop_
_geom_bond_atom_site_label_1
_geom_bond_atom_site_label_2
_geom_bond_distance
_geom_bond_site_symmetry_2
O0 Si0 1.633384 1_655
O0 Zn0 1.956707 1_545
O0 Zn6 1.956707 1_555
O1 Si1 1.633384 1_555
O1 Zn1 1.956707 1_555
O1 Zn7 1.956707 1_545
O2 Si2 1.633384 1_455
O2 Zn2 1.956707 1_555
O2 Zn4 1.956707 1_565
O3 Si3 1.633384 1_555
O3 Zn5 1.956707 1_555
O3 Zn3 1.956707 1_565
O4 Si1 1.628231 1_556
O4 Zn3 1.956131 1_555
O4 Zn5 1.956131 1_555
O5 Si0 1.628231 1_555
O5 Zn2 1.956131 1_555
O5 Zn4 1.956131 1_555
O6 Si3 1.628231 1_554
O6 Zn7 1.956131 1_555
O6 Zn1 1.956131 1_555
O7 Si2 1.628231 1_555
O7 Zn0 1.956131 1_555
O7 Zn6 1.956131 1_555
O8 Si0 1.633058 1_555
O8 Zn0 1.958939 1_545
O8 Zn3 1.987158 1_555
O9 Si1 1.633058 1_555
O9 Zn1 1.958939 1_455
O9 Zn2 1.987158 1_555
O10 Si2 1.633058 1_555
O10 Zn2 1.958939 1_555
O10 Zn1 1.987158 1_555
O11 Si3 1.633058 1_555
O11 Zn3 1.958939 1_665
O11 Zn0 1.987158 1_555
O12 Si2 1.633058 1_555
O12 Zn4 1.958939 1_565
O12 Zn7 1.987158 1_555
O13 Si3 1.633058 1_555
O13 Zn5 1.958939 1_655
O13 Zn6 1.987158 1_555
O14 Si0 1.633058 1_555
O14 Zn6 1.958939 1_555
O14 Zn5 1.987158 1_555
O15 Si1 1.633058 1_555
O15 Zn7 1.958939 1_445
O15 Zn4 1.987158 1_555
