# generated using pymatgen
data_Li3Mn2CoO6
_symmetry_space_group_name_H-M   'P 1'
_cell_length_a   2.99336823
_cell_length_b   2.99336823
_cell_length_c   14.69366500
_cell_angle_alpha   90.00000000
_cell_angle_beta   90.00000000
_cell_angle_gamma   120.00000515
_symmetry_Int_Tables_number   1
_chemical_formula_structural   Li3Mn2CoO6
_chemical_formula_sum   'Li3 Mn2 Co1 O6'
_cell_volume   114.01999934
_cell_formula_units_Z   1
loop_
 _symmetry_equiv_pos_site_id
 _symmetry_equiv_pos_as_xyz
  1  'x, y, z'
loop_
 _atom_site_type_symbol
 _atom_site_label
 _atom_site_symmetry_multiplicity
 _atom_site_fract_x
 _atom_site_fract_y
 _atom_site_fract_z
 _atom_site_occupancy
  Li  Li0  1  0.00000000  0.00000000  0.50000000  1
  Li  Li1  1  0.33333300  0.66666700  0.84521100  1
  Li  Li2  1  0.66666700  0.33333300  0.15478900  1
  Mn  Mn0  1  0.33333300  0.66666700  0.33241700  1
  Mn  Mn1  1  0.66666700  0.33333300  0.66758300  1
  Co  Co0  1  0.00000000  0.00000000  0.00000000  1
  O  O0  1  0.00000000  0.00000000  0.73910600  1
  O  O1  1  0.33333300  0.66666700  0.07814100  1
  O  O2  1  0.66666700  0.33333300  0.40914900  1
  O  O3  1  0.00000000  0.00000000  0.26089400  1
  O  O4  1  0.33333300  0.66666700  0.59085100  1
  O  O5  1  0.66666700  0.33333300  0.92185900  1
loop_
_geom_bond_atom_site_label_1
_geom_bond_atom_site_label_2
_geom_bond_distance
_geom_bond_site_symmetry_2
Li0 O2 2.183757 1_455
Li0 O4 2.183757 1_545
Li0 O2 2.183759 1_555
Li0 O4 2.183759 1_445
Li0 O2 2.183759 1_445
Li0 O4 2.183759 1_555
Li1 O5 2.062804 1_455
Li1 O5 2.062804 1_565
Li1 O5 2.062809 1_555
Li1 O0 2.327541 1_565
Li1 O0 2.327543 1_555
Li1 O0 2.327543 1_665
Li2 O1 2.062804 1_545
Li2 O1 2.062804 1_655
Li2 O1 2.062809 1_555
Li2 O3 2.327541 1_655
Li2 O3 2.327543 1_665
Li2 O3 2.327543 1_555
Mn0 O3 2.022674 1_565
Mn0 O3 2.022676 1_665
Mn0 O3 2.022676 1_555
Mn0 O2 2.063478 1_455
Mn0 O2 2.063478 1_565
Mn0 O2 2.063483 1_555
Mn1 O0 2.022674 1_655
Mn1 O0 2.022676 1_555
Mn1 O0 2.022676 1_665
Mn1 O4 2.063478 1_545
Mn1 O4 2.063478 1_655
Mn1 O4 2.063483 1_555
Co0 O1 2.074863 1_545
Co0 O5 2.074863 1_454
Co0 O1 2.074865 1_555
Co0 O1 2.074865 1_445
Co0 O5 2.074865 1_554
Co0 O5 2.074865 1_444
