# generated using pymatgen
data_MoSCl
_symmetry_space_group_name_H-M   'P 1'
_cell_length_a   6.93287793
_cell_length_b   6.93287793
_cell_length_c   6.93287793
_cell_angle_alpha   60.00000000
_cell_angle_beta   60.00000000
_cell_angle_gamma   60.00000000
_symmetry_Int_Tables_number   1
_chemical_formula_structural   MoSCl
_chemical_formula_sum   'Mo4 S4 Cl4'
_cell_volume   235.62733063
_cell_formula_units_Z   4
loop_
 _symmetry_equiv_pos_site_id
 _symmetry_equiv_pos_as_xyz
  1  'x, y, z'
loop_
 _atom_site_type_symbol
 _atom_site_label
 _atom_site_symmetry_multiplicity
 _atom_site_fract_x
 _atom_site_fract_y
 _atom_site_fract_z
 _atom_site_occupancy
  Mo  Mo0  1  0.35095500  0.35095500  0.35095500  1
  Mo  Mo1  1  0.35095500  0.35095500  0.94713500  1
  Mo  Mo2  1  0.35095500  0.94713500  0.35095500  1
  Mo  Mo3  1  0.94713500  0.35095500  0.35095500  1
  S  S0  1  0.11607800  0.11607800  0.11607800  1
  S  S1  1  0.11607800  0.11607800  0.65176700  1
  S  S2  1  0.11607800  0.65176700  0.11607800  1
  S  S3  1  0.65176700  0.11607800  0.11607800  1
  Cl  Cl0  1  0.61797400  0.61797400  0.61797400  1
  Cl  Cl1  1  0.61797400  0.61797400  0.14607700  1
  Cl  Cl2  1  0.61797400  0.14607700  0.61797400  1
  Cl  Cl3  1  0.14607700  0.61797400  0.61797400  1
loop_
_geom_bond_atom_site_label_1
_geom_bond_atom_site_label_2
_geom_bond_distance
_geom_bond_site_symmetry_2
Mo0 S1 2.347799 1_555
Mo0 S3 2.347799 1_555
Mo0 S2 2.347799 1_555
Mo1 S0 2.347797 1_556
Mo1 S2 2.347803 1_556
Mo1 S3 2.347803 1_556
Mo2 S0 2.347797 1_565
Mo2 S3 2.347803 1_565
Mo2 S1 2.347803 1_565
Mo3 S0 2.347797 1_655
Mo3 S1 2.347803 1_655
Mo3 S2 2.347803 1_655
Cl0 Mo1 2.653218 1_555
Cl0 Mo3 2.653218 1_555
Cl0 Mo2 2.653218 1_555
Cl1 Mo0 2.653217 1_555
Cl1 Mo3 2.653222 1_555
Cl1 Mo2 2.653222 1_555
Cl2 Mo0 2.653217 1_555
Cl2 Mo1 2.653222 1_555
Cl2 Mo3 2.653222 1_555
Cl3 Mo0 2.653217 1_555
Cl3 Mo1 2.653222 1_555
Cl3 Mo2 2.653222 1_555
