# generated using pymatgen
data_Li15W7N19
_symmetry_space_group_name_H-M   'P 1'
_cell_length_a   5.78464511
_cell_length_b   11.10040300
_cell_length_c   17.58868998
_cell_angle_alpha   91.21181051
_cell_angle_beta   93.95526150
_cell_angle_gamma   104.16676860
_symmetry_Int_Tables_number   1
_chemical_formula_structural   Li15W7N19
_chemical_formula_sum   'Li30 W14 N38'
_cell_volume   1091.60217202
_cell_formula_units_Z   2
loop_
 _symmetry_equiv_pos_site_id
 _symmetry_equiv_pos_as_xyz
  1  'x, y, z'
loop_
 _atom_site_type_symbol
 _atom_site_label
 _atom_site_symmetry_multiplicity
 _atom_site_fract_x
 _atom_site_fract_y
 _atom_site_fract_z
 _atom_site_occupancy
  Li  Li0  1  0.50013500  0.61374200  0.45389600  1
  Li  Li1  1  0.49986500  0.38625800  0.54610400  1
  Li  Li2  1  0.52741200  0.16964600  0.65279900  1
  Li  Li3  1  0.47258800  0.83035400  0.34720100  1
  Li  Li4  1  0.78418000  0.98699900  0.20811100  1
  Li  Li5  1  0.21582000  0.01300100  0.79188900  1
  Li  Li6  1  0.93092500  0.96340000  0.36792400  1
  Li  Li7  1  0.06907500  0.03660000  0.63207600  1
  Li  Li8  1  0.83284800  0.75928100  0.28375700  1
  Li  Li9  1  0.16715200  0.24071900  0.71624300  1
  Li  Li10  1  0.77555100  0.14027800  0.82189500  1
  Li  Li11  1  0.22444900  0.85972200  0.17810500  1
  Li  Li12  1  0.88235500  0.91965600  0.89555800  1
  Li  Li13  1  0.11764500  0.08034400  0.10444200  1
  Li  Li14  1  0.65449700  0.07127300  0.95607400  1
  Li  Li15  1  0.34550300  0.92872700  0.04392600  1
  Li  Li16  1  0.63176700  0.91475000  0.50193300  1
  Li  Li17  1  0.36823300  0.08525000  0.49806700  1
  Li  Li18  1  0.62405000  0.51408600  0.30200300  1
  Li  Li19  1  0.37595000  0.48591400  0.69799700  1
  Li  Li20  1  0.98017700  0.37692100  0.01709900  1
  Li  Li21  1  0.01982300  0.62307900  0.98290100  1
  Li  Li22  1  0.85260100  0.73258100  0.79303900  1
  Li  Li23  1  0.14739900  0.26741900  0.20696100  1
  Li  Li24  1  0.71985600  0.16612100  0.40557000  1
  Li  Li25  1  0.28014400  0.83387900  0.59443000  1
  Li  Li26  1  0.57372400  0.34292300  0.85075900  1
  Li  Li27  1  0.42627600  0.65707700  0.14924100  1
  Li  Li28  1  0.00000000  0.50000000  0.50000000  1
  Li  Li29  1  0.50000000  0.50000000  0.00000000  1
  W  W0  1  0.60108000  0.20759500  0.11997200  1
  W  W1  1  0.39892000  0.79240500  0.88002800  1
  W  W2  1  0.81308200  0.42811900  0.70202900  1
  W  W3  1  0.18691800  0.57188100  0.29797100  1
  W  W4  1  0.70758200  0.66961600  0.61339900  1
  W  W5  1  0.29241800  0.33038400  0.38660100  1
  W  W6  1  0.03145000  0.75501300  0.45639300  1
  W  W7  1  0.96855000  0.24498700  0.54360700  1
  W  W8  1  0.87110400  0.54194700  0.12574700  1
  W  W9  1  0.12889600  0.45805300  0.87425300  1
  W  W10  1  0.62726500  0.93689900  0.70832400  1
  W  W11  1  0.37273500  0.06310100  0.29167600  1
  W  W12  1  0.72524600  0.81889100  0.06181200  1
  W  W13  1  0.27475400  0.18110900  0.93818800  1
  N  N0  1  0.87360000  0.16100500  0.13845300  1
  N  N1  1  0.12640000  0.83899500  0.86154700  1
  N  N2  1  0.84464400  0.36345000  0.60464100  1
  N  N3  1  0.15535600  0.63655000  0.39535900  1
  N  N4  1  0.64861500  0.01714300  0.31618800  1
  N  N5  1  0.35138500  0.98285700  0.68381200  1
  N  N6  1  0.60499400  0.84155400  0.80075900  1
  N  N7  1  0.39500600  0.15844600  0.19924100  1
  N  N8  1  0.67532600  0.38112400  0.10398200  1
  N  N9  1  0.32467400  0.61887600  0.89601800  1
  N  N10  1  0.55855500  0.43673900  0.42869500  1
  N  N11  1  0.44144500  0.56326100  0.57130500  1
  N  N12  1  0.73887600  0.10388700  0.51751600  1
  N  N13  1  0.26112400  0.89611300  0.48248400  1
  N  N14  1  0.96705600  0.67554900  0.55134600  1
  N  N15  1  0.03294400  0.32445100  0.44865400  1
  N  N16  1  0.03075400  0.90137400  0.08606300  1
  N  N17  1  0.96924600  0.09862600  0.91393700  1
  N  N18  1  0.76203100  0.79294700  0.41284900  1
  N  N19  1  0.23796900  0.20705300  0.58715100  1
  N  N20  1  0.65864400  0.83293300  0.62192400  1
  N  N21  1  0.34135600  0.16706700  0.37807600  1
  N  N22  1  0.85598400  0.45678500  0.91750300  1
  N  N23  1  0.14401600  0.54321500  0.08249700  1
  N  N24  1  0.58253600  0.87542800  0.96885400  1
  N  N25  1  0.41746400  0.12457200  0.03114600  1
  N  N26  1  0.71644400  0.64232200  0.06456500  1
  N  N27  1  0.28355600  0.35767800  0.93543500  1
  N  N28  1  0.87720900  0.07668400  0.72206200  1
  N  N29  1  0.12279100  0.92331600  0.27793800  1
  N  N30  1  0.91693900  0.58957900  0.23280400  1
  N  N31  1  0.08306100  0.41042100  0.76719600  1
  N  N32  1  0.77652500  0.59697200  0.70791800  1
  N  N33  1  0.22347500  0.40302800  0.29208200  1
  N  N34  1  0.53788700  0.33473700  0.73185100  1
  N  N35  1  0.46211300  0.66526300  0.26814900  1
  N  N36  1  0.53951500  0.85143800  0.13517200  1
  N  N37  1  0.46048500  0.14856200  0.86482800  1
loop_
_geom_bond_atom_site_label_1
_geom_bond_atom_site_label_2
_geom_bond_distance
_geom_bond_site_symmetry_2
Li0 N10 2.116595 1_555
Li0 N11 2.178606 1_555
Li0 N3 2.253173 1_555
Li0 N18 2.347331 1_555
Li1 N11 2.116595 1_555
Li1 N10 2.178606 1_555
Li1 N2 2.253173 1_555
Li1 N19 2.347331 1_555
Li2 N19 2.098312 1_555
Li2 N5 2.173597 1_545
Li2 N34 2.263079 1_555
Li2 N2 2.659355 1_555
Li3 N18 2.098312 1_555
Li3 N4 2.173597 1_565
Li3 N35 2.263079 1_555
Li3 N3 2.659355 1_555
Li4 N36 2.130414 1_555
Li4 N4 2.155843 1_565
Li4 N0 2.279904 1_565
Li4 N29 2.495478 1_655
Li5 N37 2.130414 1_555
Li5 N5 2.155843 1_545
Li5 N1 2.279904 1_545
Li5 N28 2.495478 1_455
Li6 N4 2.036091 1_565
Li6 N29 2.095027 1_655
Li6 N18 2.103283 1_555
Li7 N5 2.036091 1_545
Li7 N28 2.095027 1_455
Li7 N19 2.103283 1_555
Li8 N35 2.138886 1_555
Li8 N29 2.162342 1_655
Li8 N30 2.241787 1_555
Li8 N18 2.372819 1_555
Li9 N34 2.138886 1_555
Li9 N28 2.162342 1_455
Li9 N31 2.241787 1_555
Li9 N19 2.372819 1_555
Li10 N17 2.031016 1_555
Li10 N37 2.041890 1_555
Li10 N28 2.054421 1_555
Li11 N16 2.031016 1_555
Li11 N36 2.041890 1_555
Li11 N29 2.054421 1_555
Li12 N17 1.940493 1_565
Li12 N1 1.965971 1_655
Li12 N24 2.197592 1_555
Li12 N6 2.234939 1_555
Li13 N16 1.940493 1_545
Li13 N0 1.965971 1_455
Li13 N25 2.197592 1_555
Li13 N7 2.234939 1_555
Li14 N17 1.970161 1_555
Li14 N24 2.130849 1_545
Li14 N25 2.141824 1_556
Li14 N37 2.202807 1_555
Li15 N16 1.970161 1_555
Li15 N25 2.130849 1_565
Li15 N24 2.141824 1_554
Li15 N36 2.202807 1_555
Li16 N12 2.045090 1_565
Li16 N13 2.106046 1_555
Li16 N20 2.325526 1_555
Li16 N18 2.328721 1_555
Li17 N13 2.045090 1_545
Li17 N12 2.106046 1_555
Li17 N21 2.325526 1_555
Li17 N19 2.328721 1_555
Li18 N30 2.164899 1_555
Li18 N35 2.186995 1_555
Li18 N33 2.335894 1_555
Li18 N10 2.425778 1_555
Li19 N31 2.164899 1_555
Li19 N34 2.186995 1_555
Li19 N32 2.335894 1_555
Li19 N11 2.425778 1_555
Li20 N23 2.128906 1_655
Li20 N22 2.138816 1_554
Li20 N27 2.388900 1_654
Li20 N8 2.419967 1_555
Li21 N22 2.128906 1_455
Li21 N23 2.138816 1_556
Li21 N26 2.388900 1_456
Li21 N9 2.419967 1_555
Li22 N1 2.028921 1_655
Li22 N32 2.047111 1_555
Li22 N6 2.097900 1_555
Li23 N0 2.028921 1_455
Li23 N33 2.047111 1_555
Li23 N7 2.097900 1_555
Li24 N12 2.105015 1_555
Li24 N4 2.200730 1_555
Li24 N21 2.212063 1_555
Li24 N15 2.267046 1_655
Li25 N13 2.105015 1_555
Li25 N5 2.200730 1_555
Li25 N20 2.212063 1_555
Li25 N14 2.267046 1_455
Li26 N22 2.074662 1_555
Li26 N34 2.085249 1_555
Li26 N37 2.120904 1_555
Li26 N27 2.351916 1_555
Li27 N23 2.074662 1_555
Li27 N35 2.085249 1_555
Li27 N36 2.120904 1_555
Li27 N26 2.351916 1_555
Li28 N15 2.186389 1_555
Li28 N14 2.186389 1_455
Li28 N2 2.484349 1_455
Li28 N3 2.484349 1_555
Li28 N11 2.688885 1_555
Li28 N10 2.688885 1_455
Li29 N26 2.028018 1_555
Li29 N27 2.028018 1_554
Li29 N8 2.572168 1_555
Li29 N9 2.572168 1_554
N0 W0 1.787107 1_555
N1 W1 1.787107 1_555
N2 W2 1.880971 1_555
N2 W7 1.975636 1_555
N3 W3 1.880971 1_555
N3 W6 1.975636 1_555
N4 W11 1.818192 1_555
N5 W10 1.818192 1_555
N6 W1 1.898863 1_555
N6 W10 1.953186 1_555
N7 W0 1.898863 1_555
N7 W11 1.953186 1_555
N8 W8 1.880882 1_555
N8 W0 1.899629 1_555
N9 W9 1.880882 1_555
N9 W1 1.899629 1_555
N10 W5 1.796706 1_555
N11 W4 1.796706 1_555
N12 W7 1.815439 1_555
N13 W6 1.815439 1_555
N14 W4 1.905021 1_555
N14 W6 1.921810 1_655
N15 W5 1.905021 1_555
N15 W7 1.921810 1_455
N16 W12 1.797469 1_455
N17 W13 1.797469 1_655
N18 W6 1.833846 1_655
N19 W7 1.833846 1_455
N20 W4 1.906500 1_555
N20 W10 1.934063 1_555
N21 W5 1.906500 1_555
N21 W11 1.934063 1_555
N22 W9 1.796224 1_655
N23 W8 1.796224 1_455
N24 W1 1.910342 1_555
N24 W12 1.964537 1_556
N25 W0 1.910342 1_555
N25 W13 1.964537 1_554
N26 W8 1.898869 1_555
N26 W12 1.949870 1_555
N27 W9 1.898869 1_555
N27 W13 1.949870 1_555
N28 W10 1.842364 1_545
N29 W11 1.842364 1_565
N30 W3 1.924614 1_655
N30 W8 1.927670 1_555
N31 W2 1.924614 1_455
N31 W9 1.927670 1_555
N32 W4 1.922431 1_555
N32 W2 1.938404 1_555
N33 W5 1.922431 1_555
N33 W3 1.938404 1_555
N34 W2 1.792834 1_555
N35 W3 1.792834 1_555
N36 W12 1.819685 1_555
N37 W13 1.819685 1_555
