# generated using pymatgen
data_Zn
_symmetry_space_group_name_H-M   'P 1'
_cell_length_a   5.23707330
_cell_length_b   5.23707330
_cell_length_c   14.94383101
_cell_angle_alpha   79.36667029
_cell_angle_beta   100.63332971
_cell_angle_gamma   120.03947722
_symmetry_Int_Tables_number   1
_chemical_formula_structural   Zn
_chemical_formula_sum   Zn24
_cell_volume   346.66674054
_cell_formula_units_Z   24
loop_
 _symmetry_equiv_pos_site_id
 _symmetry_equiv_pos_as_xyz
  1  'x, y, z'
loop_
 _atom_site_type_symbol
 _atom_site_label
 _atom_site_symmetry_multiplicity
 _atom_site_fract_x
 _atom_site_fract_y
 _atom_site_fract_z
 _atom_site_occupancy
  Zn  Zn0_0  1  0.00000000  0.00000000  0.00000000  1
  Zn  Zn0_1  1  0.00000000  0.00000000  0.50000000  1
  Zn  Zn0_2  1  0.00000000  0.50000000  0.00000000  1
  Zn  Zn0_3  1  0.00000000  0.50000000  0.50000000  1
  Zn  Zn0_4  1  0.50000000  0.00000000  0.00000000  1
  Zn  Zn0_5  1  0.50000000  0.00000000  0.50000000  1
  Zn  Zn0_6  1  0.50000000  0.50000000  0.00000000  1
  Zn  Zn0_7  1  0.50000000  0.50000000  0.50000000  1
  Zn  Zn1_0  1  0.38900893  0.11099107  0.16725249  1
  Zn  Zn1_1  1  0.38900893  0.11099107  0.66725249  1
  Zn  Zn1_2  1  0.38900893  0.61099107  0.16725249  1
  Zn  Zn1_3  1  0.38900893  0.61099107  0.66725249  1
  Zn  Zn1_4  1  0.88900893  0.11099107  0.16725249  1
  Zn  Zn1_5  1  0.88900893  0.11099107  0.66725249  1
  Zn  Zn1_6  1  0.88900893  0.61099107  0.16725249  1
  Zn  Zn1_7  1  0.88900893  0.61099107  0.66725249  1
  Zn  Zn2_0  1  0.11099107  0.38900893  0.33274701  1
  Zn  Zn2_1  1  0.11099107  0.38900893  0.83274701  1
  Zn  Zn2_2  1  0.11099107  0.88900893  0.33274701  1
  Zn  Zn2_3  1  0.11099107  0.88900893  0.83274701  1
  Zn  Zn2_4  1  0.61099107  0.38900893  0.33274701  1
  Zn  Zn2_5  1  0.61099107  0.38900893  0.83274701  1
  Zn  Zn2_6  1  0.61099107  0.88900893  0.33274701  1
  Zn  Zn2_7  1  0.61099107  0.88900893  0.83274701  1
loop_
_geom_bond_atom_site_label_1
_geom_bond_atom_site_label_2
_geom_bond_distance
_geom_bond_site_symmetry_2
Zn0_0 Zn0_6 2.616974 1_555
Zn0_0 Zn0_6 2.616974 1_445
Zn0_0 Zn0_4 2.618537 1_555
Zn0_0 Zn0_2 2.618537 1_555
Zn0_0 Zn0_2 2.618537 1_545
Zn0_0 Zn0_4 2.618537 1_455
Zn0_0 Zn1_0 2.864731 1_555
Zn0_0 Zn1_6 2.864731 1_445
Zn0_0 Zn2_7 2.864737 1_444
Zn0_0 Zn2_1 2.864737 1_554
Zn0_0 Zn1_4 2.886746 1_455
Zn0_0 Zn2_3 2.886753 1_544
Zn0_1 Zn0_7 2.616974 1_555
Zn0_1 Zn0_7 2.616974 1_445
Zn0_1 Zn0_5 2.618537 1_555
Zn0_1 Zn0_3 2.618537 1_555
Zn0_1 Zn0_3 2.618537 1_545
Zn0_1 Zn0_5 2.618537 1_455
Zn0_1 Zn1_1 2.864731 1_555
Zn0_1 Zn1_7 2.864731 1_445
Zn0_1 Zn2_6 2.864737 1_445
Zn0_1 Zn2_0 2.864737 1_555
Zn0_1 Zn1_5 2.886746 1_455
Zn0_1 Zn2_2 2.886753 1_545
Zn0_2 Zn0_4 2.616974 1_455
Zn0_2 Zn0_4 2.616974 1_565
Zn0_2 Zn0_6 2.618537 1_555
Zn0_2 Zn0_6 2.618537 1_455
Zn0_2 Zn1_2 2.864731 1_555
Zn0_2 Zn1_4 2.864731 1_455
Zn0_2 Zn2_5 2.864737 1_454
Zn0_2 Zn2_3 2.864737 1_554
Zn0_2 Zn1_6 2.886746 1_455
Zn0_2 Zn2_1 2.886753 1_554
Zn0_3 Zn0_5 2.616974 1_565
Zn0_3 Zn0_5 2.616974 1_455
Zn0_3 Zn0_7 2.618537 1_555
Zn0_3 Zn0_7 2.618537 1_455
Zn0_3 Zn1_5 2.864731 1_455
Zn0_3 Zn1_3 2.864731 1_555
Zn0_3 Zn2_2 2.864737 1_555
Zn0_3 Zn2_4 2.864737 1_455
Zn0_3 Zn1_7 2.886746 1_455
Zn0_3 Zn2_0 2.886753 1_555
Zn0_4 Zn0_6 2.618537 1_555
Zn0_4 Zn0_6 2.618537 1_545
Zn0_4 Zn1_2 2.864731 1_545
Zn0_4 Zn1_4 2.864731 1_555
Zn0_4 Zn2_3 2.864737 1_544
Zn0_4 Zn2_5 2.864737 1_554
Zn0_4 Zn1_0 2.886746 1_555
Zn0_4 Zn2_7 2.886753 1_544
Zn0_5 Zn0_7 2.618537 1_555
Zn0_5 Zn0_7 2.618537 1_545
Zn0_5 Zn1_5 2.864731 1_555
Zn0_5 Zn1_3 2.864731 1_545
Zn0_5 Zn2_2 2.864737 1_545
Zn0_5 Zn2_4 2.864737 1_555
Zn0_5 Zn1_1 2.886746 1_555
Zn0_5 Zn2_6 2.886753 1_545
Zn0_6 Zn1_6 2.864731 1_555
Zn0_6 Zn1_0 2.864731 1_555
Zn0_6 Zn2_1 2.864737 1_554
Zn0_6 Zn2_7 2.864737 1_554
Zn0_6 Zn1_2 2.886746 1_555
Zn0_6 Zn2_5 2.886753 1_554
Zn0_7 Zn1_7 2.864731 1_555
Zn0_7 Zn1_1 2.864731 1_555
Zn0_7 Zn2_0 2.864737 1_555
Zn0_7 Zn2_6 2.864737 1_555
Zn0_7 Zn1_3 2.886746 1_555
Zn0_7 Zn2_4 2.886753 1_555
Zn1_0 Zn1_6 2.616974 1_555
Zn1_0 Zn1_6 2.616974 1_445
Zn1_0 Zn1_2 2.618537 1_555
Zn1_0 Zn1_4 2.618537 1_555
Zn1_0 Zn1_2 2.618537 1_545
Zn1_0 Zn1_4 2.618537 1_455
Zn1_0 Zn2_6 2.837311 1_545
Zn1_0 Zn2_2 2.856734 1_545
Zn1_0 Zn2_4 2.856734 1_555
Zn1_1 Zn1_7 2.616974 1_555
Zn1_1 Zn1_7 2.616974 1_445
Zn1_1 Zn1_3 2.618537 1_555
Zn1_1 Zn1_3 2.618537 1_545
Zn1_1 Zn1_5 2.618537 1_555
Zn1_1 Zn1_5 2.618537 1_455
Zn1_1 Zn2_7 2.837311 1_545
Zn1_1 Zn2_5 2.856734 1_555
Zn1_1 Zn2_3 2.856734 1_545
Zn1_2 Zn1_4 2.616974 1_565
Zn1_2 Zn1_4 2.616974 1_455
Zn1_2 Zn1_6 2.618537 1_555
Zn1_2 Zn1_6 2.618537 1_455
Zn1_2 Zn2_4 2.837311 1_555
Zn1_2 Zn2_0 2.856734 1_555
Zn1_2 Zn2_6 2.856734 1_555
Zn1_3 Zn1_5 2.616974 1_565
Zn1_3 Zn1_5 2.616974 1_455
Zn1_3 Zn1_7 2.618537 1_555
Zn1_3 Zn1_7 2.618537 1_455
Zn1_3 Zn2_5 2.837311 1_555
Zn1_3 Zn2_1 2.856734 1_555
Zn1_3 Zn2_7 2.856734 1_555
Zn1_4 Zn1_6 2.618537 1_545
Zn1_4 Zn1_6 2.618537 1_555
Zn1_4 Zn2_2 2.837311 1_645
Zn1_4 Zn2_6 2.856734 1_545
Zn1_4 Zn2_0 2.856734 1_655
Zn1_5 Zn1_7 2.618537 1_555
Zn1_5 Zn1_7 2.618537 1_545
Zn1_5 Zn2_3 2.837311 1_645
Zn1_5 Zn2_7 2.856734 1_545
Zn1_5 Zn2_1 2.856734 1_655
Zn1_6 Zn2_0 2.837311 1_655
Zn1_6 Zn2_4 2.856734 1_555
Zn1_6 Zn2_2 2.856734 1_655
Zn1_7 Zn2_1 2.837311 1_655
Zn1_7 Zn2_5 2.856734 1_555
Zn1_7 Zn2_3 2.856734 1_655
Zn2_0 Zn2_6 2.616974 1_555
Zn2_0 Zn2_6 2.616974 1_445
Zn2_0 Zn2_4 2.618537 1_555
Zn2_0 Zn2_2 2.618537 1_555
Zn2_0 Zn2_2 2.618537 1_545
Zn2_0 Zn2_4 2.618537 1_455
Zn2_1 Zn2_7 2.616974 1_445
Zn2_1 Zn2_7 2.616974 1_555
Zn2_1 Zn2_5 2.618537 1_555
Zn2_1 Zn2_3 2.618537 1_555
Zn2_1 Zn2_3 2.618537 1_545
Zn2_1 Zn2_5 2.618537 1_455
Zn2_2 Zn2_4 2.616974 1_565
Zn2_2 Zn2_4 2.616974 1_455
Zn2_2 Zn2_6 2.618537 1_555
Zn2_2 Zn2_6 2.618537 1_455
Zn2_3 Zn2_5 2.616974 1_565
Zn2_3 Zn2_5 2.616974 1_455
Zn2_3 Zn2_7 2.618537 1_455
Zn2_3 Zn2_7 2.618537 1_555
Zn2_4 Zn2_6 2.618537 1_555
Zn2_4 Zn2_6 2.618537 1_545
Zn2_5 Zn2_7 2.618537 1_545
Zn2_5 Zn2_7 2.618537 1_555
