# generated using pymatgen
data_CoPW
_symmetry_space_group_name_H-M   'P 1'
_cell_length_a   3.73100713
_cell_length_b   5.75633963
_cell_length_c   6.68603992
_cell_angle_alpha   90.00000000
_cell_angle_beta   90.00000000
_cell_angle_gamma   90.00000000
_symmetry_Int_Tables_number   1
_chemical_formula_structural   CoPW
_chemical_formula_sum   'Co4 P4 W4'
_cell_volume   143.59570630
_cell_formula_units_Z   4
loop_
 _symmetry_equiv_pos_site_id
 _symmetry_equiv_pos_as_xyz
  1  'x, y, z'
loop_
 _atom_site_type_symbol
 _atom_site_label
 _atom_site_symmetry_multiplicity
 _atom_site_fract_x
 _atom_site_fract_y
 _atom_site_fract_z
 _atom_site_occupancy
  Co  Co0  1  0.25000000  0.86011558  0.93075202  1
  Co  Co1  1  0.25000000  0.36011558  0.56924798  1
  Co  Co2  1  0.75000000  0.13988442  0.06924798  1
  Co  Co3  1  0.75000000  0.63988442  0.43075202  1
  P  P0  1  0.25000000  0.23178039  0.87908553  1
  P  P1  1  0.25000000  0.73178039  0.62091447  1
  P  P2  1  0.75000000  0.76821961  0.12091447  1
  P  P3  1  0.75000000  0.26821961  0.37908553  1
  W  W0  1  0.25000000  0.96659893  0.33172634  1
  W  W1  1  0.25000000  0.46659893  0.16827366  1
  W  W2  1  0.75000000  0.03340107  0.66827366  1
  W  W3  1  0.75000000  0.53340107  0.83172634  1
loop_
_geom_bond_atom_site_label_1
_geom_bond_atom_site_label_2
_geom_bond_distance
_geom_bond_site_symmetry_2
Co0 P0 2.167138 1_565
Co0 P1 2.199365 1_555
Co0 P2 2.318722 1_456
Co0 P2 2.318722 1_556
Co0 W3 2.730462 1_555
Co0 W3 2.730462 1_455
Co0 W2 2.748619 1_565
Co0 W2 2.748619 1_465
Co0 W0 2.750109 1_556
Co0 W1 2.766441 1_556
Co1 P1 2.167138 1_555
Co1 P0 2.199365 1_555
Co1 P3 2.318722 1_455
Co1 P3 2.318722 1_555
Co1 W2 2.730462 1_455
Co1 W2 2.730462 1_555
Co1 W3 2.748619 1_455
Co1 W3 2.748619 1_555
Co1 W1 2.750109 1_555
Co1 W0 2.766441 1_545
Co2 P2 2.167138 1_545
Co2 P3 2.199365 1_555
Co2 P0 2.318722 1_554
Co2 P0 2.318722 1_654
Co2 W1 2.730462 1_555
Co2 W1 2.730462 1_655
Co2 W0 2.748619 1_545
Co2 W0 2.748619 1_645
Co2 W2 2.750109 1_554
Co2 W3 2.766441 1_554
Co3 P3 2.167138 1_555
Co3 P2 2.199365 1_555
Co3 P1 2.318722 1_555
Co3 P1 2.318722 1_655
Co3 W0 2.730462 1_555
Co3 W0 2.730462 1_655
Co3 W1 2.748619 1_555
Co3 W1 2.748619 1_655
Co3 W3 2.750109 1_555
Co3 W2 2.766441 1_565
P0 W1 2.359151 1_556
P0 W3 2.568047 1_455
P0 W3 2.568047 1_555
P0 W2 2.602078 1_455
P0 W2 2.602078 1_555
P1 W0 2.359151 1_555
P1 W2 2.568047 1_465
P1 W2 2.568047 1_565
P1 W3 2.602078 1_455
P1 W3 2.602078 1_555
P2 W3 2.359151 1_554
P2 W1 2.568047 1_655
P2 W1 2.568047 1_555
P2 W0 2.602078 1_555
P2 W0 2.602078 1_655
P3 W2 2.359151 1_555
P3 W0 2.568047 1_545
P3 W0 2.568047 1_645
P3 W1 2.602078 1_555
P3 W1 2.602078 1_655
