# generated using pymatgen
data_Ce(P3Ru)4
_symmetry_space_group_name_H-M   'P 1'
_cell_length_a   6.97608470
_cell_length_b   6.97608462
_cell_length_c   6.97608438
_cell_angle_alpha   109.47122585
_cell_angle_beta   109.47122554
_cell_angle_gamma   109.47122011
_symmetry_Int_Tables_number   1
_chemical_formula_structural   Ce(P3Ru)4
_chemical_formula_sum   'Ce1 P12 Ru4'
_cell_volume   261.34444139
_cell_formula_units_Z   1
loop_
 _symmetry_equiv_pos_site_id
 _symmetry_equiv_pos_as_xyz
  1  'x, y, z'
loop_
 _atom_site_type_symbol
 _atom_site_label
 _atom_site_symmetry_multiplicity
 _atom_site_fract_x
 _atom_site_fract_y
 _atom_site_fract_z
 _atom_site_occupancy
  Ce  Ce0  1  -0.00000000  -0.00000000  0.00000000  1
  P  P0  1  0.50012042  0.85666622  0.64345420  1
  P  P1  1  0.21321201  0.85666622  0.35654580  1
  P  P2  1  0.78678799  0.14333378  0.64345420  1
  P  P3  1  0.14333378  0.35654580  0.49987958  1
  P  P4  1  0.35654580  0.49987958  0.14333378  1
  P  P5  1  0.49987958  0.14333378  0.35654580  1
  P  P6  1  0.14333378  0.64345420  0.78678799  1
  P  P7  1  0.35654580  0.21321201  0.85666622  1
  P  P8  1  0.85666622  0.64345420  0.50012042  1
  P  P9  1  0.64345420  0.78678799  0.14333378  1
  P  P10  1  0.85666622  0.35654580  0.21321201  1
  P  P11  1  0.64345420  0.50012042  0.85666622  1
  Ru  Ru0  1  0.50000000  -0.00000000  0.00000000  1
  Ru  Ru1  1  -0.00000000  -0.00000000  0.50000000  1
  Ru  Ru2  1  -0.00000000  0.50000000  0.00000000  1
  Ru  Ru3  1  0.50000000  0.50000000  0.50000000  1
loop_
_geom_bond_atom_site_label_1
_geom_bond_atom_site_label_2
_geom_bond_distance
_geom_bond_site_symmetry_2
Ce0 P3 3.095469 1_555
Ce0 P8 3.095469 1_444
Ce0 P5 3.095469 1_555
Ce0 P0 3.095469 1_444
Ce0 P4 3.095469 1_555
Ce0 P11 3.095469 1_444
Ce0 P2 3.095469 1_454
Ce0 P1 3.095469 1_545
Ce0 P10 3.095469 1_455
Ce0 P6 3.095469 1_544
Ce0 P7 3.095469 1_554
Ce0 P9 3.095469 1_445
P0 P2 2.309190 1_565
P0 P1 2.311130 1_555
P0 Ru0 2.351671 1_566
P0 Ru3 2.351671 1_555
P1 P5 2.309190 1_565
P1 Ru2 2.351671 1_555
P1 Ru1 2.351671 1_565
P2 P5 2.311130 1_555
P2 Ru2 2.351671 1_656
P2 Ru1 2.351671 1_655
P3 P6 2.311130 1_555
P3 Ru1 2.351671 1_555
P3 Ru3 2.351671 1_555
P4 P7 2.309190 1_554
P4 P9 2.311130 1_555
P4 Ru3 2.351671 1_555
P4 Ru2 2.351671 1_555
P5 Ru0 2.351671 1_555
P5 Ru3 2.351671 1_555
P6 P8 2.309190 1_455
P6 Ru0 2.351671 1_566
P6 Ru2 2.351671 1_556
P7 Ru1 2.351671 1_555
P7 Ru0 2.351671 1_556
P8 Ru1 2.351671 1_665
P8 Ru3 2.351671 1_555
P9 Ru1 2.351671 1_665
P9 Ru0 2.351671 1_565
P10 P3 2.309190 1_655
P10 P8 2.311130 1_555
P10 Ru0 2.351671 1_555
P10 Ru2 2.351671 1_655
P11 P9 2.309190 1_556
P11 P7 2.311130 1_555
P11 Ru3 2.351671 1_555
P11 Ru2 2.351671 1_656
