# generated using pymatgen
data_Ta2Cu(ReSe4)2
_symmetry_space_group_name_H-M   'P 1'
_cell_length_a   3.46478900
_cell_length_b   3.46478900
_cell_length_c   26.69908900
_cell_angle_alpha   90.00000000
_cell_angle_beta   90.00000000
_cell_angle_gamma   119.99998084
_symmetry_Int_Tables_number   1
_chemical_formula_structural   Ta2Cu(ReSe4)2
_chemical_formula_sum   'Ta2 Cu1 Re2 Se8'
_cell_volume   277.57525124
_cell_formula_units_Z   1
loop_
 _symmetry_equiv_pos_site_id
 _symmetry_equiv_pos_as_xyz
  1  'x, y, z'
loop_
 _atom_site_type_symbol
 _atom_site_label
 _atom_site_symmetry_multiplicity
 _atom_site_fract_x
 _atom_site_fract_y
 _atom_site_fract_z
 _atom_site_occupancy
  Ta  Ta0  1  0.33333300  0.66666700  0.37600000  1
  Ta  Ta1  1  0.33333300  0.66666700  0.87500300  1
  Cu  Cu0  1  0.33333300  0.66666700  0.25275400  1
  Re  Re0  1  0.33333300  0.66666700  0.12068400  1
  Re  Re1  1  0.33333300  0.66666700  0.62503100  1
  Se  Se0  1  0.00000000  0.00000000  0.31208800  1
  Se  Se1  1  0.00000000  0.00000000  0.81210600  1
  Se  Se2  1  0.66666700  0.33333300  0.18629400  1
  Se  Se3  1  0.66666700  0.33333300  0.68370500  1
  Se  Se4  1  0.66666700  0.33333300  0.06382800  1
  Se  Se5  1  0.66666700  0.33333300  0.56633300  1
  Se  Se6  1  0.00000000  0.00000000  0.43838400  1
  Se  Se7  1  0.00000000  0.00000000  0.93779000  1
loop_
_geom_bond_atom_site_label_1
_geom_bond_atom_site_label_2
_geom_bond_distance
_geom_bond_site_symmetry_2
Cu0 Se0 2.551696 1_565
Cu0 Se0 2.551699 1_555
Cu0 Se0 2.551699 1_665
Cu0 Se2 2.673977 1_455
Cu0 Se2 2.673977 1_565
Cu0 Se2 2.673981 1_555
Re0 Se4 2.511158 1_455
Re0 Se4 2.511158 1_565
Re0 Se4 2.511163 1_555
Re0 Se2 2.658971 1_455
Re0 Se2 2.658971 1_565
Re0 Se2 2.658976 1_555
Re1 Se3 2.540794 1_455
Re1 Se3 2.540794 1_565
Re1 Se3 2.540799 1_555
Re1 Se5 2.541190 1_455
Re1 Se5 2.541190 1_565
Re1 Se5 2.541194 1_555
Se0 Ta0 2.629326 1_545
Se0 Ta0 2.629328 1_555
Se0 Ta0 2.629328 1_445
Se1 Ta1 2.611820 1_545
Se1 Ta1 2.611823 1_445
Se1 Ta1 2.611823 1_555
Se6 Ta0 2.603035 1_545
Se6 Ta0 2.603037 1_445
Se6 Ta0 2.603037 1_555
Se7 Ta1 2.609932 1_545
Se7 Ta1 2.609935 1_555
Se7 Ta1 2.609935 1_445
