# generated using pymatgen
data_BaCdPb
_symmetry_space_group_name_H-M   'P 1'
_cell_length_a   6.71415681
_cell_length_b   6.71415681
_cell_length_c   8.63034368
_cell_angle_alpha   50.37074037
_cell_angle_beta   50.37074037
_cell_angle_gamma   46.53908807
_symmetry_Int_Tables_number   1
_chemical_formula_structural   BaCdPb
_chemical_formula_sum   'Ba2 Cd2 Pb2'
_cell_volume   203.23607161
_cell_formula_units_Z   2
loop_
 _symmetry_equiv_pos_site_id
 _symmetry_equiv_pos_as_xyz
  1  'x, y, z'
loop_
 _atom_site_type_symbol
 _atom_site_label
 _atom_site_symmetry_multiplicity
 _atom_site_fract_x
 _atom_site_fract_y
 _atom_site_fract_z
 _atom_site_occupancy
  Ba  Ba0  1  0.54254102  0.54254102  0.20657511  1
  Ba  Ba1  1  0.45745898  0.45745898  0.79342489  1
  Cd  Cd0  1  0.15570089  0.15570089  0.40298017  1
  Cd  Cd1  1  0.84429911  0.84429911  0.59701983  1
  Pb  Pb0  1  0.83508200  0.83508200  0.22955292  1
  Pb  Pb1  1  0.16491800  0.16491800  0.77044708  1
loop_
_geom_bond_atom_site_label_1
_geom_bond_atom_site_label_2
_geom_bond_distance
_geom_bond_site_symmetry_2
Ba0 Pb0 3.594415 1_545
Ba0 Pb0 3.594415 1_455
Ba0 Cd1 3.595566 1_545
Ba0 Cd1 3.595566 1_455
Ba0 Pb1 3.728766 1_555
Ba0 Pb0 3.749188 1_555
Ba0 Cd1 3.786710 1_554
Ba0 Cd0 3.796535 1_555
Ba0 Cd0 3.891414 1_565
Ba0 Cd0 3.891414 1_655
Ba0 Pb1 3.948624 1_654
Ba0 Pb1 3.948624 1_564
Ba1 Pb1 3.594415 1_655
Ba1 Pb1 3.594415 1_565
Ba1 Cd0 3.595566 1_655
Ba1 Cd0 3.595566 1_565
Ba1 Pb0 3.728766 1_555
Ba1 Pb1 3.749188 1_555
Ba1 Cd0 3.786710 1_556
Ba1 Cd1 3.796535 1_555
Ba1 Cd1 3.891414 1_455
Ba1 Cd1 3.891414 1_545
Ba1 Pb0 3.948624 1_546
Ba1 Pb0 3.948624 1_456
Cd0 Cd1 2.937407 1_445
Cd0 Pb0 3.094103 1_455
Cd0 Pb0 3.094103 1_545
Cd0 Pb1 3.251338 1_555
Cd1 Pb1 3.094103 1_565
Cd1 Pb1 3.094103 1_655
Cd1 Pb0 3.251338 1_555
Pb0 Pb1 3.141408 1_664
