# generated using pymatgen
data_NaCr2FeO10
_symmetry_space_group_name_H-M   'P 1'
_cell_length_a   5.98088952
_cell_length_b   5.98088952
_cell_length_c   7.60213474
_cell_angle_alpha   68.88554336
_cell_angle_beta   68.88554336
_cell_angle_gamma   54.99476324
_symmetry_Int_Tables_number   1
_chemical_formula_structural   NaCr2FeO10
_chemical_formula_sum   'Na1 Cr2 Fe1 O10'
_cell_volume   203.54787957
_cell_formula_units_Z   1
loop_
 _symmetry_equiv_pos_site_id
 _symmetry_equiv_pos_as_xyz
  1  'x, y, z'
loop_
 _atom_site_type_symbol
 _atom_site_label
 _atom_site_symmetry_multiplicity
 _atom_site_fract_x
 _atom_site_fract_y
 _atom_site_fract_z
 _atom_site_occupancy
  Na  Na0  1  0.00000000  0.00000000  0.50000000  1
  Cr  Cr0  1  0.39254900  0.39254900  0.28945900  1
  Cr  Cr1  1  0.60745100  0.60745100  0.71054100  1
  Fe  Fe0  1  0.00000000  0.00000000  0.00000000  1
  O  O0  1  0.81218200  0.81218200  0.07651600  1
  O  O1  1  0.18781800  0.18781800  0.92348400  1
  O  O2  1  0.74477100  0.23133500  0.19577100  1
  O  O3  1  0.25522900  0.76866500  0.80422900  1
  O  O4  1  0.76866500  0.25522900  0.80422900  1
  O  O5  1  0.23133500  0.74477100  0.19577100  1
  O  O6  1  0.64425500  0.64425500  0.48108000  1
  O  O7  1  0.35574500  0.35574500  0.51892000  1
  O  O8  1  0.25077700  0.25077700  0.25544300  1
  O  O9  1  0.74922300  0.74922300  0.74455700  1
loop_
_geom_bond_atom_site_label_1
_geom_bond_atom_site_label_2
_geom_bond_distance
_geom_bond_site_symmetry_2
Na0 O9 2.553163 1_445
Na0 O8 2.553163 1_555
Na0 O4 2.721852 1_455
Na0 O5 2.721852 1_545
Na0 O3 2.721852 1_545
Na0 O2 2.721852 1_455
Cr0 O7 1.625460 1_555
Cr0 O8 1.626544 1_555
Cr0 O5 1.719921 1_555
Cr0 O2 1.719921 1_555
Cr1 O6 1.625460 1_555
Cr1 O9 1.626544 1_555
Cr1 O4 1.719921 1_555
Cr1 O3 1.719921 1_555
Fe0 O1 1.835276 1_554
Fe0 O0 1.835276 1_445
Fe0 O5 1.970557 1_545
Fe0 O4 1.970557 1_454
Fe0 O2 1.970557 1_455
Fe0 O3 1.970557 1_544
