# generated using pymatgen
data_TbPPd
_symmetry_space_group_name_H-M   'P 1'
_cell_length_a   4.02440848
_cell_length_b   6.96639589
_cell_length_c   7.72854515
_cell_angle_alpha   90.00000000
_cell_angle_beta   90.00000000
_cell_angle_gamma   90.00000000
_symmetry_Int_Tables_number   1
_chemical_formula_structural   TbPPd
_chemical_formula_sum   'Tb4 P4 Pd4'
_cell_volume   216.67457580
_cell_formula_units_Z   4
loop_
 _symmetry_equiv_pos_site_id
 _symmetry_equiv_pos_as_xyz
  1  'x, y, z'
loop_
 _atom_site_type_symbol
 _atom_site_label
 _atom_site_symmetry_multiplicity
 _atom_site_fract_x
 _atom_site_fract_y
 _atom_site_fract_z
 _atom_site_occupancy
  Tb  Tb0  1  0.25000000  0.52911349  0.18980465  1
  Tb  Tb1  1  0.75000000  0.47088651  0.81019535  1
  Tb  Tb2  1  0.75000000  0.97088651  0.68980465  1
  Tb  Tb3  1  0.25000000  0.02911349  0.31019535  1
  P  P0  1  0.25000000  0.75128251  0.87926502  1
  P  P1  1  0.75000000  0.24871749  0.12073498  1
  P  P2  1  0.75000000  0.74871749  0.37926502  1
  P  P3  1  0.25000000  0.25128251  0.62073498  1
  Pd  Pd0  1  0.25000000  0.65120625  0.56188275  1
  Pd  Pd1  1  0.75000000  0.34879375  0.43811725  1
  Pd  Pd2  1  0.75000000  0.84879375  0.06188275  1
  Pd  Pd3  1  0.25000000  0.15120525  0.93811725  1
loop_
_geom_bond_atom_site_label_1
_geom_bond_atom_site_label_2
_geom_bond_distance
_geom_bond_site_symmetry_2
P0 Pd2 2.549977 1_556
P0 Pd2 2.549977 1_456
P0 Pd0 2.550055 1_555
P0 Pd3 2.822904 1_565
P0 Tb1 2.854731 1_455
P0 Tb1 2.854731 1_555
P0 Tb0 2.855788 1_556
P0 Tb2 2.921205 1_455
P0 Tb2 2.921205 1_555
P1 Pd3 2.549978 1_654
P1 Pd3 2.549978 1_554
P1 Pd1 2.550055 1_555
P1 Pd2 2.822911 1_545
P1 Tb0 2.854731 1_655
P1 Tb0 2.854731 1_555
P1 Tb1 2.855788 1_554
P1 Tb3 2.921205 1_555
P1 Tb3 2.921205 1_655
P2 Pd0 2.549977 1_555
P2 Pd0 2.549977 1_655
P2 Pd2 2.550055 1_555
P2 Pd1 2.822911 1_555
P2 Tb3 2.854731 1_665
P2 Tb3 2.854731 1_565
P2 Tb2 2.855788 1_555
P2 Tb0 2.921205 1_555
P2 Tb0 2.921205 1_655
P3 Pd1 2.549977 1_455
P3 Pd1 2.549977 1_555
P3 Pd3 2.550057 1_555
P3 Pd0 2.822911 1_555
P3 Tb2 2.854731 1_445
P3 Tb2 2.854731 1_545
P3 Tb3 2.855788 1_555
P3 Tb1 2.921205 1_555
P3 Tb1 2.921205 1_455
Pd0 Tb0 2.998772 1_555
Pd0 Tb1 3.051209 1_555
Pd0 Tb1 3.051209 1_455
Pd0 Pd1 3.066301 1_455
Pd0 Pd1 3.066301 1_555
Pd0 Tb2 3.160065 1_455
Pd0 Tb2 3.160065 1_555
Pd0 Tb3 3.273312 1_565
Pd1 Tb1 2.998772 1_555
Pd1 Tb0 3.051209 1_655
Pd1 Tb0 3.051209 1_555
Pd1 Tb3 3.160065 1_655
Pd1 Tb3 3.160065 1_555
Pd1 Tb2 3.273312 1_545
Pd2 Tb2 2.998772 1_554
Pd2 Tb3 3.051209 1_565
Pd2 Tb3 3.051209 1_665
Pd2 Pd3 3.066296 1_564
Pd2 Pd3 3.066296 1_664
Pd2 Tb0 3.160065 1_655
Pd2 Tb0 3.160065 1_555
Pd2 Tb1 3.273312 1_554
Pd3 Tb3 2.998770 1_556
Pd3 Tb2 3.051206 1_445
Pd3 Tb2 3.051206 1_545
Pd3 Tb1 3.160070 1_455
Pd3 Tb1 3.160070 1_555
Pd3 Tb0 3.273317 1_556
