# generated using pymatgen
data_Lu3Mg2MoS8
_symmetry_space_group_name_H-M   'P 1'
_cell_length_a   7.72852035
_cell_length_b   7.62694331
_cell_length_c   7.72865600
_cell_angle_alpha   59.55927018
_cell_angle_beta   59.99713913
_cell_angle_gamma   59.55953899
_symmetry_Int_Tables_number   1
_chemical_formula_structural   Lu3Mg2MoS8
_chemical_formula_sum   'Lu3 Mg2 Mo1 S8'
_cell_volume   319.96467273
_cell_formula_units_Z   1
loop_
 _symmetry_equiv_pos_site_id
 _symmetry_equiv_pos_as_xyz
  1  'x, y, z'
loop_
 _atom_site_type_symbol
 _atom_site_label
 _atom_site_symmetry_multiplicity
 _atom_site_fract_x
 _atom_site_fract_y
 _atom_site_fract_z
 _atom_site_occupancy
  Lu  Lu0  1  0.50000100  0.50002100  0.49997800  1
  Lu  Lu1  1  0.49999400  0.49999600  0.00000400  1
  Lu  Lu2  1  0.00000600  0.50000800  0.49999000  1
  Mg  Mg0  1  0.87470600  0.87584000  0.87473900  1
  Mg  Mg1  1  0.12528300  0.12415900  0.12526800  1
  Mo  Mo0  1  0.50000500  0.99998800  0.50001100  1
  S  S0  1  0.73588900  0.75751200  0.73590000  1
  S  S1  1  0.26410400  0.24248700  0.72928400  1
  S  S2  1  0.25612200  0.73163000  0.25611600  1
  S  S3  1  0.72931400  0.24247800  0.26409800  1
  S  S4  1  0.74386300  0.26837200  0.74387100  1
  S  S5  1  0.27069800  0.75751100  0.73590800  1
  S  S6  1  0.26411300  0.24246200  0.26412000  1
  S  S7  1  0.73590400  0.75753000  0.27071600  1
loop_
_geom_bond_atom_site_label_1
_geom_bond_atom_site_label_2
_geom_bond_distance
_geom_bond_site_symmetry_2
Lu0 S2 2.651521 1_555
Lu0 S4 2.651583 1_555
Lu0 S7 2.681827 1_555
Lu0 S5 2.681889 1_555
Lu0 S3 2.681907 1_555
Lu0 S1 2.681918 1_555
Lu1 S2 2.651389 1_555
Lu1 S4 2.651455 1_554
Lu1 S0 2.681803 1_554
Lu1 S6 2.681830 1_555
Lu1 S5 2.681886 1_554
Lu1 S3 2.682000 1_555
Lu2 S2 2.651314 1_555
Lu2 S4 2.651539 1_455
Lu2 S7 2.681802 1_455
Lu2 S0 2.681853 1_455
Lu2 S6 2.681863 1_555
Lu2 S1 2.681884 1_555
Mg0 S4 2.428056 1_565
Mg0 S7 2.496041 1_556
Mg0 S5 2.496092 1_655
Mg0 S0 2.496109 1_555
Mg1 S2 2.428037 1_545
Mg1 S3 2.495948 1_455
Mg1 S1 2.496080 1_554
Mg1 S6 2.496124 1_555
Mo0 S7 2.560711 1_555
Mo0 S1 2.560815 1_565
Mo0 S5 2.560847 1_555
Mo0 S3 2.560929 1_565
Mo0 S0 2.560963 1_555
Mo0 S6 2.561018 1_565
