# generated using pymatgen
data_LaAg5
_symmetry_space_group_name_H-M   'P 1'
_cell_length_a   5.66503815
_cell_length_b   5.66503815
_cell_length_c   9.28416100
_cell_angle_alpha   90.00000000
_cell_angle_beta   90.00000000
_cell_angle_gamma   120.00000181
_symmetry_Int_Tables_number   1
_chemical_formula_structural   LaAg5
_chemical_formula_sum   'La2 Ag10'
_cell_volume   258.03520645
_cell_formula_units_Z   2
loop_
 _symmetry_equiv_pos_site_id
 _symmetry_equiv_pos_as_xyz
  1  'x, y, z'
loop_
 _atom_site_type_symbol
 _atom_site_label
 _atom_site_symmetry_multiplicity
 _atom_site_fract_x
 _atom_site_fract_y
 _atom_site_fract_z
 _atom_site_occupancy
  La  La0  1  0.66666700  0.33333300  0.91028900  1
  La  La1  1  0.33333300  0.66666700  0.08971100  1
  Ag  Ag0  1  0.00000000  0.00000000  0.50000000  1
  Ag  Ag1  1  0.00000000  0.00000000  0.00000000  1
  Ag  Ag2  1  0.82982800  0.17017200  0.26158700  1
  Ag  Ag3  1  0.82982800  0.65965600  0.26158700  1
  Ag  Ag4  1  0.34034400  0.17017200  0.26158700  1
  Ag  Ag5  1  0.17017200  0.82982800  0.73841300  1
  Ag  Ag6  1  0.17017200  0.34034400  0.73841300  1
  Ag  Ag7  1  0.65965600  0.82982800  0.73841300  1
  Ag  Ag8  1  0.33333300  0.66666700  0.44864200  1
  Ag  Ag9  1  0.66666700  0.33333300  0.55135800  1
loop_
_geom_bond_atom_site_label_1
_geom_bond_atom_site_label_2
_geom_bond_distance
_geom_bond_site_symmetry_2
Ag0 Ag6 2.772633 1_555
Ag0 Ag3 2.772633 1_445
Ag0 Ag7 2.772633 1_445
Ag0 Ag4 2.772633 1_555
Ag0 Ag5 2.772633 1_545
Ag0 Ag2 2.772633 1_455
Ag0 Ag8 3.305281 1_545
Ag0 Ag9 3.305281 1_455
Ag0 Ag9 3.305286 1_445
Ag0 Ag8 3.305286 1_445
Ag0 Ag9 3.305286 1_555
Ag0 Ag8 3.305286 1_555
Ag1 Ag3 2.947243 1_445
Ag1 Ag7 2.947243 1_444
Ag1 Ag6 2.947243 1_554
Ag1 Ag4 2.947243 1_555
Ag1 Ag5 2.947243 1_544
Ag1 Ag2 2.947243 1_455
Ag1 La1 3.375091 1_545
Ag1 La0 3.375091 1_454
Ag1 La1 3.375096 1_445
Ag1 La1 3.375096 1_555
Ag1 La0 3.375096 1_444
Ag1 La0 3.375096 1_554
Ag2 Ag3 2.772946 1_555
Ag2 Ag4 2.772946 1_555
Ag2 Ag3 2.892093 1_545
Ag2 Ag4 2.892093 1_655
Ag2 Ag9 3.130603 1_555
Ag2 La1 3.251259 1_545
Ag2 La1 3.251259 1_655
Ag2 Ag8 3.322694 1_545
Ag2 Ag8 3.322694 1_655
Ag2 La0 3.633248 1_554
Ag3 Ag4 2.772945 1_555
Ag3 Ag4 2.892093 1_665
Ag3 Ag9 3.130605 1_555
Ag3 La1 3.251256 1_655
Ag3 La1 3.251261 1_555
Ag3 Ag8 3.322692 1_655
Ag3 Ag8 3.322697 1_555
Ag3 La0 3.633251 1_554
Ag4 Ag9 3.130605 1_555
Ag4 La1 3.251256 1_545
Ag4 La1 3.251261 1_555
Ag4 Ag8 3.322692 1_545
Ag4 Ag8 3.322697 1_555
Ag4 La0 3.633251 1_554
Ag5 Ag7 2.772946 1_555
Ag5 Ag6 2.772946 1_555
Ag5 Ag7 2.892093 1_455
Ag5 Ag6 2.892093 1_565
Ag5 Ag8 3.130603 1_555
Ag5 La0 3.251259 1_455
Ag5 La0 3.251259 1_565
Ag5 Ag9 3.322694 1_455
Ag5 Ag9 3.322694 1_565
Ag5 La1 3.633248 1_556
Ag6 Ag7 2.772945 1_555
Ag6 Ag7 2.892093 1_445
Ag6 Ag8 3.130605 1_555
Ag6 La0 3.251256 1_455
Ag6 La0 3.251261 1_555
Ag6 Ag9 3.322692 1_455
Ag6 Ag9 3.322697 1_555
Ag6 La1 3.633251 1_556
Ag7 Ag8 3.130605 1_555
Ag7 La0 3.251256 1_565
Ag7 La0 3.251261 1_555
Ag7 Ag9 3.322692 1_565
Ag7 Ag9 3.322697 1_555
Ag7 La1 3.633251 1_556
Ag8 La1 3.332373 1_555
Ag8 Ag9 3.406897 1_455
Ag8 Ag9 3.406897 1_565
Ag8 Ag9 3.406906 1_555
Ag9 La0 3.332373 1_555
