# generated using pymatgen
data_AlNi3F15
_symmetry_space_group_name_H-M   'P 1'
_cell_length_a   8.74798335
_cell_length_b   6.27248106
_cell_length_c   10.77110600
_cell_angle_alpha   90.00000000
_cell_angle_beta   90.00000000
_cell_angle_gamma   105.06908248
_symmetry_Int_Tables_number   1
_chemical_formula_structural   AlNi3F15
_chemical_formula_sum   'Al2 Ni6 F30'
_cell_volume   570.70376601
_cell_formula_units_Z   2
loop_
 _symmetry_equiv_pos_site_id
 _symmetry_equiv_pos_as_xyz
  1  'x, y, z'
loop_
 _atom_site_type_symbol
 _atom_site_label
 _atom_site_symmetry_multiplicity
 _atom_site_fract_x
 _atom_site_fract_y
 _atom_site_fract_z
 _atom_site_occupancy
  Al  Al0  1  0.91549900  0.41354100  0.25000000  1
  Al  Al1  1  0.41807800  0.58523200  0.75000000  1
  Ni  Ni0  1  0.16680400  0.00037000  0.49906400  1
  Ni  Ni1  1  0.50108500  0.01107100  0.50353800  1
  Ni  Ni2  1  0.83192400  0.98790400  0.49615200  1
  Ni  Ni3  1  0.16680400  0.00037000  0.00093600  1
  Ni  Ni4  1  0.50108500  0.01107100  0.99646200  1
  Ni  Ni5  1  0.83192400  0.98790400  0.00384800  1
  F  F0  1  0.11112200  0.55145500  0.25000000  1
  F  F1  1  0.34822500  0.56643100  0.25000000  1
  F  F2  1  0.80260600  0.59014200  0.25000000  1
  F  F3  1  0.22370700  0.44143800  0.75000000  1
  F  F4  1  0.53392700  0.41230100  0.75000000  1
  F  F5  1  0.99027100  0.43848400  0.75000000  1
  F  F6  1  0.03338700  0.13026500  0.58036400  1
  F  F7  1  0.33393200  0.10343500  0.60223800  1
  F  F8  1  0.70139200  0.12262300  0.59190000  1
  F  F9  1  0.30010300  0.87049200  0.41759200  1
  F  F10  1  0.63119700  0.87550700  0.40813800  1
  F  F11  1  0.99879100  0.89730800  0.39628700  1
  F  F12  1  0.10074200  0.76224600  0.90687000  1
  F  F13  1  0.45718500  0.76074200  0.87645500  1
  F  F14  1  0.80137000  0.73964800  0.91474300  1
  F  F15  1  0.23140100  0.23973400  0.09469800  1
  F  F16  1  0.53263200  0.26020800  0.08459700  1
  F  F17  1  0.87300400  0.23893500  0.12323700  1
  F  F18  1  0.23140100  0.23973400  0.40530200  1
  F  F19  1  0.53263200  0.26020800  0.41540300  1
  F  F20  1  0.87300400  0.23893500  0.37676300  1
  F  F21  1  0.10074200  0.76224600  0.59313000  1
  F  F22  1  0.45718500  0.76074200  0.62354500  1
  F  F23  1  0.80137000  0.73964800  0.58525700  1
  F  F24  1  0.03338700  0.13026500  0.91963600  1
  F  F25  1  0.33393200  0.10343500  0.89776200  1
  F  F26  1  0.70139200  0.12262300  0.90810000  1
  F  F27  1  0.30010300  0.87049200  0.08240800  1
  F  F28  1  0.63119700  0.87550700  0.09186200  1
  F  F29  1  0.99879100  0.89730800  0.10371300  1
loop_
_geom_bond_atom_site_label_1
_geom_bond_atom_site_label_2
_geom_bond_distance
_geom_bond_site_symmetry_2
Al0 F2 1.664697 1_555
Al0 F0 1.705037 1_655
Al0 F20 1.729232 1_555
Al0 F17 1.729232 1_555
Al1 F4 1.665909 1_555
Al1 F3 1.705073 1_555
Al1 F22 1.728687 1_555
Al1 F13 1.728687 1_555
F6 Ni0 1.813097 1_555
F6 Ni2 1.976832 1_445
F7 Ni0 1.816314 1_555
F7 Ni1 2.011099 1_555
F8 Ni2 1.892964 1_545
F8 Ni1 1.956630 1_555
F9 Ni0 1.813142 1_565
F9 Ni1 1.979802 1_565
F10 Ni1 1.891488 1_565
F10 Ni2 1.958428 1_555
F11 Ni0 1.819230 1_665
F11 Ni2 2.010510 1_555
F12 Ni3 1.772750 1_566
F13 Ni4 1.992549 1_565
F14 Ni5 1.789127 1_556
F15 Ni3 1.775481 1_555
F16 Ni4 1.787502 1_554
F17 Ni5 1.991963 1_545
F18 Ni0 1.775481 1_555
F19 Ni1 1.787502 1_555
F20 Ni2 1.991963 1_545
F21 Ni0 1.772750 1_565
F22 Ni1 1.992549 1_565
F23 Ni2 1.789127 1_555
F24 Ni3 1.813097 1_556
F24 Ni5 1.976832 1_446
F25 Ni3 1.816314 1_556
F25 Ni4 2.011099 1_555
F26 Ni5 1.892964 1_546
F26 Ni4 1.956630 1_555
F27 Ni3 1.813142 1_565
F27 Ni4 1.979802 1_564
F28 Ni4 1.891488 1_564
F28 Ni5 1.958428 1_555
F29 Ni3 1.819230 1_665
F29 Ni5 2.010510 1_555
