# generated using pymatgen
data_ZrSiO2
_symmetry_space_group_name_H-M   'P 1'
_cell_length_a   7.11676848
_cell_length_b   7.11676848
_cell_length_c   7.11676848
_cell_angle_alpha   127.45086097
_cell_angle_beta   127.45086097
_cell_angle_gamma   77.51631581
_symmetry_Int_Tables_number   1
_chemical_formula_structural   ZrSiO2
_chemical_formula_sum   'Zr4 Si4 O8'
_cell_volume   220.32090023
_cell_formula_units_Z   4
loop_
 _symmetry_equiv_pos_site_id
 _symmetry_equiv_pos_as_xyz
  1  'x, y, z'
loop_
 _atom_site_type_symbol
 _atom_site_label
 _atom_site_symmetry_multiplicity
 _atom_site_fract_x
 _atom_site_fract_y
 _atom_site_fract_z
 _atom_site_occupancy
  Zr  Zr0  1  0.87500000  0.62500000  0.25000000  1
  Zr  Zr1  1  0.37500000  0.62500000  0.75000000  1
  Zr  Zr2  1  0.37500000  0.62500000  0.25000000  1
  Zr  Zr3  1  0.37500000  0.12500000  0.75000000  1
  Si  Si0  1  0.37500000  0.12500000  0.25000000  1
  Si  Si1  1  0.87500000  0.12500000  0.75000000  1
  Si  Si2  1  0.87500000  0.12500000  0.25000000  1
  Si  Si3  1  0.87500000  0.62500000  0.75000000  1
  O  O0  1  0.17525200  0.43641000  0.26115700  1
  O  O1  1  0.17525200  0.91409500  0.73884300  1
  O  O2  1  0.18641000  0.42525200  0.76115700  1
  O  O3  1  0.57474800  0.81359000  0.23884300  1
  O  O4  1  0.66409500  0.42525200  0.23884300  1
  O  O5  1  0.57474800  0.33590500  0.76115700  1
  O  O6  1  0.56359000  0.82474800  0.73884300  1
  O  O7  1  0.08590500  0.82474800  0.26115700  1
loop_
_geom_bond_atom_site_label_1
_geom_bond_atom_site_label_2
_geom_bond_distance
_geom_bond_site_symmetry_2
O0 Zr2 2.218161 1_555
O0 Zr0 2.248794 1_455
O0 Zr1 2.248799 1_555
O0 Si1 2.345214 1_454
O0 Si0 2.345219 1_555
O1 Zr3 2.218166 1_565
O1 Zr0 2.248797 1_455
O1 Zr1 2.248797 1_555
O1 Si1 2.345213 1_465
O1 Si0 2.345213 1_566
O2 Zr1 2.218161 1_555
O2 Zr3 2.248794 1_555
O2 Zr2 2.248799 1_556
O2 Si2 2.345214 1_455
O2 Si3 2.345219 1_455
O3 Zr2 2.218161 1_555
O3 Zr0 2.248794 1_555
O3 Zr1 2.248799 1_554
O3 Si1 2.345214 1_565
O3 Si0 2.345219 1_565
O4 Zr0 2.218166 1_555
O4 Zr2 2.248797 1_555
O4 Zr3 2.248797 1_554
O4 Si3 2.345213 1_555
O4 Si2 2.345213 1_555
O5 Zr3 2.218166 1_555
O5 Zr0 2.248797 1_556
O5 Zr1 2.248797 1_555
O5 Si1 2.345213 1_555
O5 Si0 2.345213 1_555
O6 Zr1 2.218161 1_555
O6 Zr3 2.248794 1_565
O6 Zr2 2.248799 1_555
O6 Si2 2.345214 1_566
O6 Si3 2.345219 1_555
O7 Zr0 2.218166 1_455
O7 Zr3 2.248797 1_565
O7 Zr2 2.248797 1_555
O7 Si2 2.345213 1_465
O7 Si3 2.345213 1_454
