# generated using pymatgen
data_KTiO3
_symmetry_space_group_name_H-M   'P 1'
_cell_length_a   5.79865428
_cell_length_b   5.79865428
_cell_length_c   9.65299700
_cell_angle_alpha   90.00000000
_cell_angle_beta   90.00000000
_cell_angle_gamma   120.00000324
_symmetry_Int_Tables_number   1
_chemical_formula_structural   KTiO3
_chemical_formula_sum   'K4 Ti4 O12'
_cell_volume   281.09118249
_cell_formula_units_Z   4
loop_
 _symmetry_equiv_pos_site_id
 _symmetry_equiv_pos_as_xyz
  1  'x, y, z'
loop_
 _atom_site_type_symbol
 _atom_site_label
 _atom_site_symmetry_multiplicity
 _atom_site_fract_x
 _atom_site_fract_y
 _atom_site_fract_z
 _atom_site_occupancy
  K  K0  1  0.00000000  0.00000000  0.50000000  1
  K  K1  1  0.00000000  0.00000000  0.00000000  1
  K  K2  1  0.66666700  0.33333300  0.25000000  1
  K  K3  1  0.33333300  0.66666700  0.75000000  1
  Ti  Ti0  1  0.33333300  0.66666700  0.40604900  1
  Ti  Ti1  1  0.66666700  0.33333300  0.59395100  1
  Ti  Ti2  1  0.66666700  0.33333300  0.90604900  1
  Ti  Ti3  1  0.33333300  0.66666700  0.09395100  1
  O  O0  1  0.50000000  0.50000000  0.50000000  1
  O  O1  1  0.50000000  0.00000000  0.50000000  1
  O  O2  1  0.00000000  0.50000000  0.50000000  1
  O  O3  1  0.50000000  0.50000000  0.00000000  1
  O  O4  1  0.50000000  0.00000000  0.00000000  1
  O  O5  1  0.00000000  0.50000000  0.00000000  1
  O  O6  1  0.19516800  0.80483200  0.25000000  1
  O  O7  1  0.19516800  0.39033700  0.25000000  1
  O  O8  1  0.60966300  0.80483200  0.25000000  1
  O  O9  1  0.80483200  0.19516800  0.75000000  1
  O  O10  1  0.80483200  0.60966300  0.75000000  1
  O  O11  1  0.39033700  0.19516800  0.75000000  1
loop_
_geom_bond_atom_site_label_1
_geom_bond_atom_site_label_2
_geom_bond_distance
_geom_bond_site_symmetry_2
K0 O0 2.899327 1_555
K0 O0 2.899327 1_445
K0 O1 2.899327 1_455
K0 O1 2.899327 1_555
K0 O2 2.899327 1_555
K0 O2 2.899327 1_545
K0 O9 3.109033 1_455
K0 O6 3.109033 1_545
K0 O7 3.109036 1_555
K0 O10 3.109036 1_445
K0 O11 3.109036 1_555
K0 O8 3.109036 1_445
K1 O3 2.899327 1_555
K1 O3 2.899327 1_445
K1 O4 2.899327 1_555
K1 O5 2.899327 1_555
K1 O5 2.899327 1_545
K1 O4 2.899327 1_455
K1 O6 3.109033 1_545
K1 O9 3.109033 1_454
K1 O7 3.109036 1_555
K1 O10 3.109036 1_444
K1 O11 3.109036 1_554
K1 O8 3.109036 1_445
K2 O8 2.913419 1_545
K2 O7 2.913419 1_655
K2 O6 2.913424 1_655
K2 O6 2.913424 1_545
K2 O7 2.913431 1_555
K2 O8 2.913431 1_555
K2 O2 2.936971 1_655
K2 O4 2.936971 1_555
K2 O1 2.936971 1_555
K2 O5 2.936971 1_655
K2 O0 2.936974 1_555
K2 O3 2.936974 1_555
K3 O10 2.913419 1_455
K3 O11 2.913419 1_565
K3 O9 2.913424 1_565
K3 O9 2.913424 1_455
K3 O11 2.913431 1_555
K3 O10 2.913431 1_555
K3 O4 2.936971 1_566
K3 O5 2.936971 1_556
K3 O1 2.936971 1_565
K3 O2 2.936971 1_555
K3 O3 2.936974 1_556
K3 O0 2.936974 1_555
O0 Ti0 1.903819 1_555
O0 Ti1 1.903819 1_555
O1 Ti0 1.903815 1_545
O1 Ti1 1.903815 1_555
O2 Ti0 1.903815 1_555
O2 Ti1 1.903815 1_455
O3 Ti3 1.903819 1_555
O3 Ti2 1.903819 1_554
O4 Ti2 1.903815 1_554
O4 Ti3 1.903815 1_545
O5 Ti3 1.903815 1_555
O5 Ti2 1.903815 1_454
O6 Ti0 2.048094 1_555
O6 Ti3 2.048094 1_555
O7 Ti3 2.048093 1_555
O7 Ti0 2.048093 1_555
O8 Ti0 2.048093 1_555
O8 Ti3 2.048093 1_555
O9 Ti2 2.048094 1_555
O9 Ti1 2.048094 1_555
O10 Ti1 2.048093 1_555
O10 Ti2 2.048093 1_555
O11 Ti1 2.048093 1_555
O11 Ti2 2.048093 1_555
