# generated using pymatgen
data_ErGaO3
_symmetry_space_group_name_H-M   'P 1'
_cell_length_a   5.26975400
_cell_length_b   5.57494900
_cell_length_c   7.61208800
_cell_angle_alpha   90.00000000
_cell_angle_beta   90.00000000
_cell_angle_gamma   90.00000000
_symmetry_Int_Tables_number   1
_chemical_formula_structural   ErGaO3
_chemical_formula_sum   'Er4 Ga4 O12'
_cell_volume   223.63256306
_cell_formula_units_Z   4
loop_
 _symmetry_equiv_pos_site_id
 _symmetry_equiv_pos_as_xyz
  1  'x, y, z'
loop_
 _atom_site_type_symbol
 _atom_site_label
 _atom_site_symmetry_multiplicity
 _atom_site_fract_x
 _atom_site_fract_y
 _atom_site_fract_z
 _atom_site_occupancy
  Er  Er0  1  0.01921900  0.43150600  0.25000000  1
  Er  Er1  1  0.98078100  0.56849400  0.75000000  1
  Er  Er2  1  0.51921900  0.06849400  0.75000000  1
  Er  Er3  1  0.48078100  0.93150600  0.25000000  1
  Ga  Ga0  1  0.00000000  0.00000000  0.00000000  1
  Ga  Ga1  1  0.50000000  0.50000000  0.00000000  1
  Ga  Ga2  1  0.00000000  0.00000000  0.50000000  1
  Ga  Ga3  1  0.50000000  0.50000000  0.50000000  1
  O  O0  1  0.30704300  0.19455800  0.05853800  1
  O  O1  1  0.69295700  0.80544200  0.94146200  1
  O  O2  1  0.80704300  0.30544200  0.94146200  1
  O  O3  1  0.69295700  0.80544200  0.55853800  1
  O  O4  1  0.19295700  0.69455800  0.05853800  1
  O  O5  1  0.30704300  0.19455800  0.44146200  1
  O  O6  1  0.19295700  0.69455800  0.44146200  1
  O  O7  1  0.80704300  0.30544200  0.55853800  1
  O  O8  1  0.61470200  0.54123600  0.25000000  1
  O  O9  1  0.38529800  0.45876400  0.75000000  1
  O  O10  1  0.11470200  0.95876400  0.75000000  1
  O  O11  1  0.88529800  0.04123600  0.25000000  1
loop_
_geom_bond_atom_site_label_1
_geom_bond_atom_site_label_2
_geom_bond_distance
_geom_bond_site_symmetry_2
Er0 O8 2.217745 1_455
Er0 O4 2.261185 1_555
Er0 O6 2.261185 1_555
Er0 O11 2.287330 1_455
Er0 O5 2.483873 1_555
Er0 O0 2.483873 1_555
Er0 O2 2.694461 1_454
Er0 O7 2.694461 1_455
Er1 O9 2.217745 1_655
Er1 O7 2.261185 1_555
Er1 O2 2.261185 1_555
Er1 O10 2.287330 1_655
Er1 O1 2.483873 1_555
Er1 O3 2.483873 1_555
Er1 O4 2.694461 1_656
Er1 O6 2.694461 1_655
Er2 O10 2.217745 1_545
Er2 O3 2.261185 1_545
Er2 O1 2.261185 1_545
Er2 O9 2.287330 1_555
Er2 O7 2.483873 1_555
Er2 O2 2.483873 1_555
Er2 O5 2.694461 1_555
Er2 O0 2.694461 1_556
Er3 O11 2.217745 1_565
Er3 O0 2.261185 1_565
Er3 O5 2.261185 1_565
Er3 O8 2.287330 1_555
Er3 O6 2.483873 1_555
Er3 O4 2.483873 1_555
Er3 O3 2.694461 1_555
Er3 O1 2.694461 1_554
Ga0 O1 1.998269 1_444
Ga0 O0 1.998269 1_555
Ga0 O11 2.009901 1_455
Ga0 O10 2.009901 1_544
Ga0 O2 2.032762 1_454
Ga0 O4 2.032762 1_545
Ga1 O2 1.998269 1_554
Ga1 O4 1.998269 1_555
Ga1 O8 2.009901 1_555
Ga1 O9 2.009901 1_554
Ga1 O1 2.032762 1_554
Ga1 O0 2.032762 1_555
Ga2 O3 1.998269 1_445
Ga2 O5 1.998269 1_555
Ga2 O11 2.009901 1_455
Ga2 O10 2.009901 1_545
Ga2 O7 2.032762 1_455
Ga2 O6 2.032762 1_545
Ga3 O7 1.998269 1_555
Ga3 O6 1.998269 1_555
Ga3 O8 2.009901 1_555
Ga3 O9 2.009901 1_555
Ga3 O5 2.032762 1_555
Ga3 O3 2.032762 1_555
