# generated using pymatgen
data_Lu2Au
_symmetry_space_group_name_H-M   'P 1'
_cell_length_a   4.80968483
_cell_length_b   6.92617775
_cell_length_c   8.66762464
_cell_angle_alpha   90.00000000
_cell_angle_beta   90.00000000
_cell_angle_gamma   90.00000000
_symmetry_Int_Tables_number   1
_chemical_formula_structural   Lu2Au
_chemical_formula_sum   'Lu8 Au4'
_cell_volume   288.74225718
_cell_formula_units_Z   4
loop_
 _symmetry_equiv_pos_site_id
 _symmetry_equiv_pos_as_xyz
  1  'x, y, z'
loop_
 _atom_site_type_symbol
 _atom_site_label
 _atom_site_symmetry_multiplicity
 _atom_site_fract_x
 _atom_site_fract_y
 _atom_site_fract_z
 _atom_site_occupancy
  Lu  Lu0  1  0.75000000  0.64732957  0.57937663  1
  Lu  Lu1  1  0.75000000  0.14732957  0.92062337  1
  Lu  Lu2  1  0.25000000  0.35267043  0.42062337  1
  Lu  Lu3  1  0.25000000  0.85267043  0.07937663  1
  Lu  Lu4  1  0.75000000  0.01517849  0.32310535  1
  Lu  Lu5  1  0.75000000  0.51517849  0.17689465  1
  Lu  Lu6  1  0.25000000  0.98482151  0.67689465  1
  Lu  Lu7  1  0.25000000  0.48482051  0.82310535  1
  Au  Au0  1  0.75000000  0.24284199  0.59841975  1
  Au  Au1  1  0.75000000  0.74284199  0.90158025  1
  Au  Au2  1  0.25000000  0.75715801  0.40158025  1
  Au  Au3  1  0.25000000  0.25715801  0.09841975  1
loop_
_geom_bond_atom_site_label_1
_geom_bond_atom_site_label_2
_geom_bond_distance
_geom_bond_site_symmetry_2
Au0 Lu0 2.806411 1_555
Au0 Lu4 2.860236 1_555
Au0 Lu1 2.870022 1_555
Au0 Lu2 2.955812 1_555
Au0 Lu2 2.955812 1_655
Au0 Lu6 3.072399 1_645
Au0 Lu6 3.072399 1_545
Au0 Lu7 3.519221 1_555
Au0 Lu7 3.519221 1_655
Au1 Lu1 2.806411 1_565
Au1 Lu5 2.860236 1_556
Au1 Lu0 2.870022 1_555
Au1 Lu3 2.955812 1_556
Au1 Lu3 2.955812 1_656
Au1 Lu7 3.072403 1_655
Au1 Lu7 3.072403 1_555
Au1 Lu6 3.519224 1_655
Au1 Lu6 3.519224 1_555
Au2 Lu2 2.806411 1_555
Au2 Lu6 2.860236 1_555
Au2 Lu3 2.870022 1_555
Au2 Lu0 2.955812 1_555
Au2 Lu0 2.955812 1_455
Au2 Lu4 3.072399 1_465
Au2 Lu4 3.072399 1_565
Au2 Lu5 3.519224 1_455
Au2 Lu5 3.519224 1_555
Au3 Lu3 2.806411 1_545
Au3 Lu7 2.860232 1_554
Au3 Lu2 2.870022 1_555
Au3 Lu1 2.955812 1_554
Au3 Lu1 2.955812 1_454
Au3 Lu5 3.072399 1_455
Au3 Lu5 3.072399 1_555
Au3 Lu4 3.519224 1_555
Au3 Lu4 3.519224 1_455
