# generated using pymatgen
data_CsEu
_symmetry_space_group_name_H-M   'P 1'
_cell_length_a   8.92883977
_cell_length_b   8.92883977
_cell_length_c   16.01726200
_cell_angle_alpha   90.00000000
_cell_angle_beta   90.00000000
_cell_angle_gamma   119.99999829
_symmetry_Int_Tables_number   1
_chemical_formula_structural   CsEu
_chemical_formula_sum   'Cs8 Eu8'
_cell_volume   1105.88247980
_cell_formula_units_Z   8
loop_
 _symmetry_equiv_pos_site_id
 _symmetry_equiv_pos_as_xyz
  1  'x, y, z'
loop_
 _atom_site_type_symbol
 _atom_site_label
 _atom_site_symmetry_multiplicity
 _atom_site_fract_x
 _atom_site_fract_y
 _atom_site_fract_z
 _atom_site_occupancy
  Cs  Cs0_0  1  0.16666650  0.33333350  0.25000000  1
  Cs  Cs0_1  1  0.16666650  0.33333350  0.75000000  1
  Cs  Cs0_2  1  0.16666650  0.83333350  0.25000000  1
  Cs  Cs0_3  1  0.16666650  0.83333350  0.75000000  1
  Cs  Cs0_4  1  0.66666650  0.33333350  0.25000000  1
  Cs  Cs0_5  1  0.66666650  0.33333350  0.75000000  1
  Cs  Cs0_6  1  0.66666650  0.83333350  0.25000000  1
  Cs  Cs0_7  1  0.66666650  0.83333350  0.75000000  1
  Eu  Eu0_0  1  0.00000000  0.00000000  0.00000000  1
  Eu  Eu0_1  1  0.00000000  0.00000000  0.50000000  1
  Eu  Eu0_2  1  0.00000000  0.50000000  0.00000000  1
  Eu  Eu0_3  1  0.00000000  0.50000000  0.50000000  1
  Eu  Eu0_4  1  0.50000000  0.00000000  0.00000000  1
  Eu  Eu0_5  1  0.50000000  0.00000000  0.50000000  1
  Eu  Eu0_6  1  0.50000000  0.50000000  0.00000000  1
  Eu  Eu0_7  1  0.50000000  0.50000000  0.50000000  1
loop_
_geom_bond_atom_site_label_1
_geom_bond_atom_site_label_2
_geom_bond_distance
_geom_bond_site_symmetry_2
Cs0_0 Cs0_2 4.464420 1_555
Cs0_0 Cs0_4 4.464420 1_555
Cs0_0 Cs0_4 4.464420 1_455
Cs0_0 Cs0_2 4.464420 1_545
Cs0_0 Cs0_6 4.464420 1_555
Cs0_0 Cs0_6 4.464420 1_445
Cs0_0 Eu0_2 4.762165 1_555
Cs0_0 Eu0_3 4.762165 1_555
Cs0_0 Eu0_6 4.762167 1_555
Cs0_0 Eu0_7 4.762167 1_555
Cs0_0 Eu0_1 4.762167 1_555
Cs0_0 Eu0_0 4.762167 1_555
Cs0_1 Cs0_3 4.464420 1_555
Cs0_1 Cs0_5 4.464420 1_555
Cs0_1 Cs0_5 4.464420 1_455
Cs0_1 Cs0_3 4.464420 1_545
Cs0_1 Cs0_7 4.464420 1_555
Cs0_1 Cs0_7 4.464420 1_445
Cs0_1 Eu0_3 4.762165 1_555
Cs0_1 Eu0_2 4.762165 1_556
Cs0_1 Eu0_1 4.762167 1_555
Cs0_1 Eu0_7 4.762167 1_555
Cs0_1 Eu0_0 4.762167 1_556
Cs0_1 Eu0_6 4.762167 1_556
Cs0_2 Cs0_6 4.464420 1_555
Cs0_2 Cs0_6 4.464420 1_455
Cs0_2 Cs0_4 4.464420 1_565
Cs0_2 Cs0_4 4.464420 1_455
Cs0_2 Eu0_0 4.762165 1_565
Cs0_2 Eu0_1 4.762165 1_565
Cs0_2 Eu0_3 4.762167 1_555
Cs0_2 Eu0_2 4.762167 1_555
Cs0_2 Eu0_4 4.762167 1_565
Cs0_2 Eu0_5 4.762167 1_565
Cs0_3 Cs0_7 4.464420 1_555
Cs0_3 Cs0_7 4.464420 1_455
Cs0_3 Cs0_5 4.464420 1_565
Cs0_3 Cs0_5 4.464420 1_455
Cs0_3 Eu0_1 4.762165 1_565
Cs0_3 Eu0_0 4.762165 1_566
Cs0_3 Eu0_3 4.762167 1_555
Cs0_3 Eu0_5 4.762167 1_565
Cs0_3 Eu0_4 4.762167 1_566
Cs0_3 Eu0_2 4.762167 1_556
Cs0_4 Cs0_6 4.464420 1_555
Cs0_4 Cs0_6 4.464420 1_545
Cs0_4 Eu0_6 4.762165 1_555
Cs0_4 Eu0_7 4.762165 1_555
Cs0_4 Eu0_3 4.762167 1_655
Cs0_4 Eu0_5 4.762167 1_555
Cs0_4 Eu0_4 4.762167 1_555
Cs0_4 Eu0_2 4.762167 1_655
Cs0_5 Cs0_7 4.464420 1_555
Cs0_5 Cs0_7 4.464420 1_545
Cs0_5 Eu0_7 4.762165 1_555
Cs0_5 Eu0_6 4.762165 1_556
Cs0_5 Eu0_5 4.762167 1_555
Cs0_5 Eu0_3 4.762167 1_655
Cs0_5 Eu0_4 4.762167 1_556
Cs0_5 Eu0_2 4.762167 1_656
Cs0_6 Eu0_5 4.762165 1_565
Cs0_6 Eu0_4 4.762165 1_565
Cs0_6 Eu0_6 4.762167 1_555
Cs0_6 Eu0_7 4.762167 1_555
Cs0_6 Eu0_0 4.762167 1_665
Cs0_6 Eu0_1 4.762167 1_665
Cs0_7 Eu0_5 4.762165 1_565
Cs0_7 Eu0_4 4.762165 1_566
Cs0_7 Eu0_7 4.762167 1_555
Cs0_7 Eu0_1 4.762167 1_665
Cs0_7 Eu0_6 4.762167 1_556
Cs0_7 Eu0_0 4.762167 1_666
Eu0_0 Eu0_2 4.464420 1_555
Eu0_0 Eu0_4 4.464420 1_555
Eu0_0 Eu0_2 4.464420 1_545
Eu0_0 Eu0_4 4.464420 1_455
Eu0_0 Eu0_6 4.464420 1_445
Eu0_0 Eu0_6 4.464420 1_555
Eu0_1 Eu0_3 4.464420 1_555
Eu0_1 Eu0_5 4.464420 1_455
Eu0_1 Eu0_5 4.464420 1_555
Eu0_1 Eu0_3 4.464420 1_545
Eu0_1 Eu0_7 4.464420 1_445
Eu0_1 Eu0_7 4.464420 1_555
Eu0_2 Eu0_6 4.464420 1_455
Eu0_2 Eu0_6 4.464420 1_555
Eu0_2 Eu0_4 4.464420 1_565
Eu0_2 Eu0_4 4.464420 1_455
Eu0_3 Eu0_7 4.464420 1_455
Eu0_3 Eu0_7 4.464420 1_555
Eu0_3 Eu0_5 4.464420 1_565
Eu0_3 Eu0_5 4.464420 1_455
Eu0_4 Eu0_6 4.464420 1_555
Eu0_4 Eu0_6 4.464420 1_545
Eu0_5 Eu0_7 4.464420 1_555
Eu0_5 Eu0_7 4.464420 1_545
