# generated using pymatgen
data_HfP2O9
_symmetry_space_group_name_H-M   'P 1'
_cell_length_a   5.36451700
_cell_length_b   9.11810600
_cell_length_c   15.60408173
_cell_angle_alpha   69.84301706
_cell_angle_beta   90.00000000
_cell_angle_gamma   90.00000000
_symmetry_Int_Tables_number   1
_chemical_formula_structural   HfP2O9
_chemical_formula_sum   'Hf4 P8 O36'
_cell_volume   716.51346494
_cell_formula_units_Z   4
loop_
 _symmetry_equiv_pos_site_id
 _symmetry_equiv_pos_as_xyz
  1  'x, y, z'
loop_
 _atom_site_type_symbol
 _atom_site_label
 _atom_site_symmetry_multiplicity
 _atom_site_fract_x
 _atom_site_fract_y
 _atom_site_fract_z
 _atom_site_occupancy
  Hf  Hf0  1  0.76656200  0.23688200  0.02482500  1
  Hf  Hf1  1  0.73343800  0.23688200  0.52482500  1
  Hf  Hf2  1  0.23343800  0.76311800  0.97517500  1
  Hf  Hf3  1  0.26656200  0.76311800  0.47517500  1
  P  P0  1  0.25932200  0.99202300  0.12031400  1
  P  P1  1  0.24067800  0.99202300  0.62031400  1
  P  P2  1  0.74067800  0.00797700  0.87968600  1
  P  P3  1  0.75932200  0.00797700  0.37968600  1
  P  P4  1  0.72795300  0.54386800  0.10611300  1
  P  P5  1  0.77204700  0.54386800  0.60611300  1
  P  P6  1  0.27204700  0.45613200  0.89388700  1
  P  P7  1  0.22795300  0.45613200  0.39388700  1
  O  O0  1  0.27964100  0.89523200  0.05734300  1
  O  O1  1  0.22035900  0.89523200  0.55734300  1
  O  O2  1  0.72035900  0.10476800  0.94265700  1
  O  O3  1  0.77964100  0.10476800  0.44265700  1
  O  O4  1  0.00432300  0.07272100  0.10887200  1
  O  O5  1  0.49567700  0.07272100  0.60887200  1
  O  O6  1  0.99567700  0.92727900  0.89112800  1
  O  O7  1  0.50432300  0.92727900  0.39112800  1
  O  O8  1  0.46686900  0.11571000  0.09837000  1
  O  O9  1  0.03313100  0.11571000  0.59837000  1
  O  O10  1  0.53313100  0.88429000  0.90163000  1
  O  O11  1  0.96686900  0.88429000  0.40163000  1
  O  O12  1  0.28534400  0.87707500  0.22086200  1
  O  O13  1  0.21465600  0.87707500  0.72086200  1
  O  O14  1  0.71465600  0.12292500  0.77913800  1
  O  O15  1  0.78534400  0.12292500  0.27913800  1
  O  O16  1  0.93622300  0.65785300  0.05769600  1
  O  O17  1  0.56377700  0.65785300  0.55769600  1
  O  O18  1  0.06377700  0.34214700  0.94230400  1
  O  O19  1  0.43622300  0.34214700  0.44230400  1
  O  O20  1  0.47437300  0.60148000  0.06158600  1
  O  O21  1  0.02562700  0.60148000  0.56158600  1
  O  O22  1  0.52562700  0.39852000  0.93841400  1
  O  O23  1  0.97437300  0.39852000  0.43841400  1
  O  O24  1  0.70800200  0.52948800  0.20927300  1
  O  O25  1  0.79199800  0.52948800  0.70927300  1
  O  O26  1  0.29199800  0.47051200  0.79072700  1
  O  O27  1  0.20800200  0.47051200  0.29072700  1
  O  O28  1  0.78777000  0.38145800  0.10125100  1
  O  O29  1  0.71223000  0.38145800  0.60125100  1
  O  O30  1  0.21223000  0.61854200  0.89874900  1
  O  O31  1  0.28777000  0.61854200  0.39874900  1
  O  O32  1  0.11821700  0.26506900  0.25414100  1
  O  O33  1  0.38178300  0.26506900  0.75414100  1
  O  O34  1  0.88178300  0.73493100  0.74585900  1
  O  O35  1  0.61821700  0.73493100  0.24585900  1
loop_
_geom_bond_atom_site_label_1
_geom_bond_atom_site_label_2
_geom_bond_distance
_geom_bond_site_symmetry_2
Hf0 O2 2.054496 1_554
Hf0 O4 2.057767 1_655
Hf0 O8 2.061209 1_555
Hf0 O28 2.063108 1_555
Hf0 O18 2.066327 1_654
Hf0 O22 2.071528 1_554
Hf1 O3 2.054496 1_555
Hf1 O5 2.057767 1_555
Hf1 O9 2.061209 1_655
Hf1 O29 2.063108 1_555
Hf1 O19 2.066327 1_555
Hf1 O23 2.071528 1_555
Hf2 O0 2.054496 1_556
Hf2 O6 2.057767 1_455
Hf2 O10 2.061209 1_555
Hf2 O30 2.063108 1_555
Hf2 O16 2.066327 1_456
Hf2 O20 2.071528 1_556
Hf3 O1 2.054496 1_555
Hf3 O7 2.057767 1_555
Hf3 O11 2.061209 1_455
Hf3 O31 2.063108 1_555
Hf3 O17 2.066327 1_555
Hf3 O21 2.071528 1_555
O0 P0 1.534259 1_555
O1 P1 1.534259 1_555
O2 P2 1.534259 1_555
O3 P3 1.534259 1_555
O4 P0 1.534286 1_545
O5 P1 1.534286 1_545
O6 P2 1.534286 1_565
O7 P3 1.534286 1_565
O8 P0 1.537092 1_545
O9 P1 1.537092 1_545
O10 P2 1.537092 1_565
O11 P3 1.537092 1_565
O12 P0 1.564073 1_555
O13 P1 1.564073 1_555
O14 P2 1.564073 1_555
O15 P3 1.564073 1_555
O16 P4 1.535615 1_555
O17 P5 1.535615 1_555
O18 P6 1.535615 1_555
O19 P7 1.535615 1_555
O20 P4 1.535470 1_555
O21 P5 1.535470 1_455
O22 P6 1.535470 1_555
O23 P7 1.535470 1_655
O24 P4 1.573014 1_555
O25 P5 1.573014 1_555
O26 P6 1.573014 1_555
O27 P7 1.573014 1_555
O28 P4 1.542445 1_555
O29 P5 1.542445 1_555
O30 P6 1.542445 1_555
O31 P7 1.542445 1_555
