# generated using pymatgen
data_DyAlCo4
_symmetry_space_group_name_H-M   'P 1'
_cell_length_a   3.87447800
_cell_length_b   5.02769301
_cell_length_c   5.02716063
_cell_angle_alpha   60.00163384
_cell_angle_beta   90.00000000
_cell_angle_gamma   90.00000000
_symmetry_Int_Tables_number   1
_chemical_formula_structural   DyAlCo4
_chemical_formula_sum   'Dy1 Al1 Co4'
_cell_volume   84.80910775
_cell_formula_units_Z   1
loop_
 _symmetry_equiv_pos_site_id
 _symmetry_equiv_pos_as_xyz
  1  'x, y, z'
loop_
 _atom_site_type_symbol
 _atom_site_label
 _atom_site_symmetry_multiplicity
 _atom_site_fract_x
 _atom_site_fract_y
 _atom_site_fract_z
 _atom_site_occupancy
  Dy  Dy0  1  0.00000000  0.00006900  0.00000700  1
  Al  Al0  1  0.00000000  0.33339500  0.33319300  1
  Co  Co0  1  0.00000000  0.66664400  0.66674500  1
  Co  Co1  1  0.50000000  0.50255500  0.50253600  1
  Co  Co2  1  0.50000000  0.50245800  0.99503800  1
  Co  Co3  1  0.50000000  0.99477800  0.50258100  1
loop_
_geom_bond_atom_site_label_1
_geom_bond_atom_site_label_2
_geom_bond_distance
_geom_bond_site_symmetry_2
Al0 Co2 2.433180 1_454
Al0 Co2 2.433180 1_554
Al0 Co1 2.434122 1_555
Al0 Co1 2.434122 1_455
Al0 Co3 2.434492 1_445
Al0 Co3 2.434492 1_545
Al0 Co0 2.901528 1_554
Al0 Dy0 2.901889 1_555
Al0 Dy0 2.902820 1_565
Al0 Dy0 2.903122 1_556
Al0 Co0 2.903147 1_555
Al0 Co0 2.903155 1_545
Co0 Co3 2.407122 1_455
Co0 Co3 2.407122 1_555
Co0 Co2 2.407443 1_455
Co0 Co2 2.407443 1_555
Co0 Co1 2.407480 1_555
Co0 Co1 2.407480 1_455
Co0 Dy0 2.902389 1_556
Co0 Dy0 2.902651 1_566
Co0 Dy0 2.902791 1_565
Co1 Co3 2.474859 1_555
Co1 Co2 2.475643 1_555
Co1 Co2 2.551518 1_554
Co1 Co3 2.552834 1_545
Co1 Dy0 3.173627 1_556
Co1 Dy0 3.173627 1_656
Co1 Dy0 3.173794 1_565
Co1 Dy0 3.173794 1_665
Co2 Co3 2.475508 1_555
Co2 Co3 2.552043 1_546
Co2 Dy0 3.173387 1_656
Co2 Dy0 3.173387 1_556
Co2 Dy0 3.174144 1_566
Co2 Dy0 3.174144 1_666
Co3 Dy0 3.173279 1_565
Co3 Dy0 3.173279 1_665
Co3 Dy0 3.173850 1_566
Co3 Dy0 3.173850 1_666
