# generated using pymatgen
data_AlSeO10
_symmetry_space_group_name_H-M   'P 1'
_cell_length_a   9.85351100
_cell_length_b   8.53629800
_cell_length_c   11.77274813
_cell_angle_alpha   48.50906384
_cell_angle_beta   90.00000000
_cell_angle_gamma   90.00000000
_symmetry_Int_Tables_number   1
_chemical_formula_structural   AlSeO10
_chemical_formula_sum   'Al4 Se4 O40'
_cell_volume   741.74622041
_cell_formula_units_Z   4
loop_
 _symmetry_equiv_pos_site_id
 _symmetry_equiv_pos_as_xyz
  1  'x, y, z'
loop_
 _atom_site_type_symbol
 _atom_site_label
 _atom_site_symmetry_multiplicity
 _atom_site_fract_x
 _atom_site_fract_y
 _atom_site_fract_z
 _atom_site_occupancy
  Al  Al0  1  0.96850000  0.99449400  0.64179300  1
  Al  Al1  1  0.53150000  0.99449400  0.14179300  1
  Al  Al2  1  0.03150000  0.00550600  0.35820700  1
  Al  Al3  1  0.46850000  0.00550600  0.85820700  1
  Se  Se0  1  0.34715900  0.66233900  0.71445500  1
  Se  Se1  1  0.15284100  0.66233900  0.21445500  1
  Se  Se2  1  0.65284100  0.33766100  0.28554500  1
  Se  Se3  1  0.84715900  0.33766100  0.78554500  1
  O  O0  1  0.08257200  0.00742100  0.50772400  1
  O  O1  1  0.41742800  0.00742100  0.00772400  1
  O  O2  1  0.91742800  0.99257900  0.49227600  1
  O  O3  1  0.58257200  0.99257900  0.99227600  1
  O  O4  1  0.08862600  0.98593500  0.76974500  1
  O  O5  1  0.41137400  0.98593500  0.26974500  1
  O  O6  1  0.91137400  0.01406500  0.23025500  1
  O  O7  1  0.58862600  0.01406500  0.73025500  1
  O  O8  1  0.81579400  0.98066300  0.74193500  1
  O  O9  1  0.68420600  0.98066300  0.24193500  1
  O  O10  1  0.18420600  0.01933700  0.25806500  1
  O  O11  1  0.31579400  0.01933700  0.75806500  1
  O  O12  1  0.99543800  0.67151200  0.82970800  1
  O  O13  1  0.50456200  0.67151200  0.32970800  1
  O  O14  1  0.00456200  0.32848800  0.17029200  1
  O  O15  1  0.49543800  0.32848800  0.67029200  1
  O  O16  1  0.46106000  0.68799700  0.98695600  1
  O  O17  1  0.03894000  0.68799700  0.48695600  1
  O  O18  1  0.53894000  0.31200300  0.01304400  1
  O  O19  1  0.96106000  0.31200300  0.51304400  1
  O  O20  1  0.79301400  0.47598800  0.22788900  1
  O  O21  1  0.70698600  0.47598800  0.72788900  1
  O  O22  1  0.20698600  0.52401200  0.77211100  1
  O  O23  1  0.29301400  0.52401200  0.27211100  1
  O  O24  1  0.63367800  0.40301200  0.02390200  1
  O  O25  1  0.86632200  0.40301200  0.52390200  1
  O  O26  1  0.36632200  0.59698800  0.97609800  1
  O  O27  1  0.13367800  0.59698800  0.47609800  1
  O  O28  1  0.57996500  0.51481400  0.39047800  1
  O  O29  1  0.92003500  0.51481400  0.89047800  1
  O  O30  1  0.42003500  0.48518600  0.60952200  1
  O  O31  1  0.07996500  0.48518600  0.10952200  1
  O  O32  1  0.67327500  0.09533300  0.44540900  1
  O  O33  1  0.82672500  0.09533300  0.94540900  1
  O  O34  1  0.32672500  0.90466700  0.55459100  1
  O  O35  1  0.17327500  0.90466700  0.05459100  1
  O  O36  1  0.69319400  0.88064300  0.76764100  1
  O  O37  1  0.80680600  0.88064300  0.26764100  1
  O  O38  1  0.30680600  0.11935700  0.23235900  1
  O  O39  1  0.19319400  0.11935700  0.73235900  1
loop_
_geom_bond_atom_site_label_1
_geom_bond_atom_site_label_2
_geom_bond_distance
_geom_bond_site_symmetry_2
Al0 O2 1.841206 1_555
Al0 O8 1.866418 1_555
Al0 O4 1.878736 1_655
Al0 O0 1.880431 1_665
Al0 O19 2.050729 1_565
Al0 O12 2.117624 1_555
Al1 O3 1.841206 1_554
Al1 O9 1.866418 1_555
Al1 O5 1.878736 1_555
Al1 O1 1.880431 1_565
Al1 O18 2.050729 1_565
Al1 O13 2.117624 1_555
Al2 O0 1.841206 1_555
Al2 O10 1.866418 1_555
Al2 O6 1.878736 1_455
Al2 O2 1.880431 1_445
Al2 O17 2.050729 1_545
Al2 O14 2.117624 1_555
Al3 O1 1.841206 1_556
Al3 O11 1.866418 1_555
Al3 O7 1.878736 1_555
Al3 O3 1.880431 1_545
Al3 O16 2.050729 1_545
Al3 O15 2.117624 1_555
O10 O38 1.391963 1_555
O11 O39 1.391963 1_555
O12 O29 1.259008 1_555
O13 O28 1.259008 1_555
O14 O31 1.259008 1_555
O15 O30 1.259008 1_555
O16 O26 1.273927 1_555
O17 O27 1.273927 1_555
O18 O24 1.273927 1_555
O19 O25 1.273927 1_555
O20 Se2 1.643394 1_555
O21 Se3 1.643394 1_555
O22 Se0 1.643394 1_555
O23 Se1 1.643394 1_555
O28 Se2 2.608421 1_555
O29 Se3 2.608421 1_555
O30 Se0 2.608421 1_555
O31 Se1 2.608421 1_555
O32 Se2 1.644143 1_555
O33 Se3 1.644143 1_555
O34 Se0 1.644143 1_555
O35 Se1 1.644143 1_555
O36 O7 1.374163 1_565
O36 O8 1.391963 1_555
O37 O6 1.374163 1_565
O37 O9 1.391963 1_555
O38 O5 1.374163 1_545
O39 O4 1.374163 1_545
