# generated using pymatgen
data_Li7Mn4CoO12
_symmetry_space_group_name_H-M   'P 1'
_cell_length_a   2.87141742
_cell_length_b   9.84468184
_cell_length_c   15.69306769
_cell_angle_alpha   82.87615753
_cell_angle_beta   90.05091718
_cell_angle_gamma   98.29216721
_symmetry_Int_Tables_number   1
_chemical_formula_structural   Li7Mn4CoO12
_chemical_formula_sum   'Li14 Mn8 Co2 O24'
_cell_volume   435.52288935
_cell_formula_units_Z   2
loop_
 _symmetry_equiv_pos_site_id
 _symmetry_equiv_pos_as_xyz
  1  'x, y, z'
loop_
 _atom_site_type_symbol
 _atom_site_label
 _atom_site_symmetry_multiplicity
 _atom_site_fract_x
 _atom_site_fract_y
 _atom_site_fract_z
 _atom_site_occupancy
  Li  Li0  1  0.50009300  0.00014200  0.16656800  1
  Li  Li1  1  0.99991200  0.99985400  0.66676600  1
  Li  Li2  1  0.62139900  0.24241200  0.04244900  1
  Li  Li3  1  0.12024600  0.24198300  0.54343300  1
  Li  Li4  1  0.37976300  0.75801600  0.28990400  1
  Li  Li5  1  0.87860600  0.75758700  0.79088800  1
  Li  Li6  1  0.87798000  0.75619000  0.12973400  1
  Li  Li7  1  0.37791300  0.75609100  0.63000500  1
  Li  Li8  1  0.12209400  0.24390800  0.20333200  1
  Li  Li9  1  0.62203000  0.24381700  0.70360300  1
  Li  Li10  1  0.62729800  0.25426200  0.37255500  1
  Li  Li11  1  0.12652800  0.25409500  0.87311200  1
  Li  Li12  1  0.87270800  0.74573600  0.46078100  1
  Li  Li13  1  0.37347700  0.74590400  0.96022200  1
  Mn  Mn0  1  0.00151500  0.00231900  0.00364100  1
  Mn  Mn1  1  0.50147900  0.00233100  0.50362000  1
  Mn  Mn2  1  0.99852800  0.99766700  0.32971900  1
  Mn  Mn3  1  0.49848500  0.99767600  0.82968700  1
  Mn  Mn4  1  0.24885300  0.49739700  0.08127400  1
  Mn  Mn5  1  0.74880000  0.49708100  0.58172000  1
  Mn  Mn6  1  0.75119900  0.50289500  0.25159800  1
  Mn  Mn7  1  0.25107500  0.50262600  0.75205400  1
  Co  Co0  1  0.74999800  0.49999600  0.91666700  1
  Co  Co1  1  0.25000300  0.49999800  0.41666500  1
  O  O0  1  0.05286300  0.10644100  0.43706600  1
  O  O1  1  0.55246800  0.10633600  0.93712600  1
  O  O2  1  0.44714500  0.89355900  0.39627400  1
  O  O3  1  0.94753200  0.89365500  0.89620200  1
  O  O4  1  0.80837100  0.61599500  0.02854000  1
  O  O5  1  0.30758800  0.61603000  0.52913800  1
  O  O6  1  0.19241500  0.38396900  0.30419600  1
  O  O7  1  0.69161900  0.38402800  0.80479000  1
  O  O8  1  0.05653100  0.11246100  0.08927100  1
  O  O9  1  0.55629000  0.11248800  0.58922400  1
  O  O10  1  0.94372000  0.88751600  0.24411700  1
  O  O11  1  0.44347000  0.88752600  0.74405600  1
  O  O12  1  0.30906200  0.62052100  0.19647500  1
  O  O13  1  0.81232700  0.62028700  0.69714000  1
  O  O14  1  0.68765600  0.37973200  0.13618900  1
  O  O15  1  0.19094400  0.37948500  0.63685800  1
  O  O16  1  0.55598300  0.11365500  0.27950400  1
  O  O17  1  0.05599600  0.11367400  0.77948600  1
  O  O18  1  0.44400300  0.88631600  0.05384200  1
  O  O19  1  0.94402600  0.88634500  0.55383500  1
  O  O20  1  0.80618300  0.61445900  0.36542400  1
  O  O21  1  0.32202200  0.61418300  0.86639300  1
  O  O22  1  0.69382200  0.38553400  0.46791100  1
  O  O23  1  0.17798000  0.38582100  0.96694600  1
loop_
_geom_bond_atom_site_label_1
_geom_bond_atom_site_label_2
_geom_bond_distance
_geom_bond_site_symmetry_2
Li0 O8 2.094538 1_555
Li0 O10 2.098340 1_545
Li0 O8 2.099555 1_655
Li0 O10 2.102502 1_445
Li0 O18 2.202310 1_545
Li0 O16 2.203327 1_555
Li1 O11 2.094522 1_655
Li1 O9 2.098317 1_565
Li1 O11 2.099537 1_555
Li1 O9 2.102483 1_665
Li1 O17 2.202194 1_665
Li1 O19 2.203236 1_555
Li2 O8 1.990971 1_655
Li2 O8 1.994445 1_555
Li2 O14 2.108640 1_555
Li2 O23 2.211098 1_654
Li2 O1 2.244499 1_554
Li2 O23 2.262565 1_554
Li3 O9 1.985157 1_555
Li3 O9 1.985771 1_455
Li3 O15 2.106085 1_555
Li3 O22 2.232079 1_455
Li3 O22 2.242995 1_555
Li3 O0 2.254260 1_555
Li4 O10 1.985171 1_455
Li4 O10 1.985779 1_555
Li4 O12 2.106084 1_555
Li4 O20 2.232096 1_555
Li4 O20 2.243015 1_455
Li4 O2 2.254305 1_555
Li5 O11 1.990944 1_555
Li5 O11 1.994426 1_655
Li5 O13 2.108597 1_555
Li5 O21 2.211095 1_555
Li5 O3 2.244331 1_555
Li5 O21 2.262542 1_655
Li6 O12 2.130880 1_655
Li6 O12 2.139217 1_555
Li6 O18 2.166045 1_555
Li6 O18 2.173831 1_655
Li6 O4 2.220407 1_555
Li6 O10 2.331058 1_555
Li7 O13 2.135952 1_455
Li7 O13 2.140725 1_555
Li7 O19 2.168718 1_455
Li7 O19 2.176601 1_555
Li7 O5 2.215424 1_555
Li7 O11 2.327376 1_555
Li8 O14 2.136048 1_555
Li8 O14 2.140951 1_455
Li8 O16 2.168731 1_555
Li8 O16 2.176608 1_455
Li8 O6 2.215386 1_555
Li8 O8 2.327583 1_555
Li9 O15 2.130907 1_555
Li9 O15 2.139231 1_655
Li9 O17 2.166059 1_655
Li9 O17 2.173854 1_555
Li9 O7 2.220430 1_555
Li9 O9 2.331024 1_555
Li10 O22 2.086588 1_555
Li10 O6 2.111510 1_555
Li10 O6 2.116633 1_655
Li10 O16 2.123542 1_555
Li10 O0 2.186596 1_655
Li10 O0 2.192833 1_555
Li11 O23 2.071205 1_555
Li11 O7 2.112705 1_455
Li11 O7 2.117289 1_555
Li11 O17 2.129160 1_555
Li11 O1 2.183929 1_555
Li11 O1 2.188868 1_455
Li12 O20 2.086635 1_555
Li12 O5 2.111484 1_655
Li12 O5 2.116621 1_555
Li12 O19 2.123593 1_555
Li12 O2 2.186582 1_555
Li12 O2 2.192822 1_655
Li13 O21 2.071108 1_555
Li13 O4 2.112501 1_556
Li13 O4 2.117189 1_456
Li13 O18 2.129024 1_556
Li13 O3 2.183920 1_455
Li13 O3 2.188854 1_555
Mn0 O8 1.821565 1_555
Mn0 O18 1.932040 1_545
Mn0 O18 1.933732 1_445
Mn0 O1 1.977749 1_554
Mn0 O1 1.978401 1_454
Mn0 O3 2.100058 1_444
Mn1 O9 1.821333 1_555
Mn1 O19 1.932133 1_545
Mn1 O19 1.933610 1_445
Mn1 O0 1.978287 1_555
Mn1 O0 1.979240 1_655
Mn1 O2 2.099431 1_545
Mn2 O10 1.821268 1_555
Mn2 O16 1.932141 1_565
Mn2 O16 1.933622 1_665
Mn2 O2 1.978285 1_655
Mn2 O2 1.979238 1_555
Mn2 O0 2.099456 1_665
Mn3 O11 1.821631 1_555
Mn3 O17 1.932011 1_565
Mn3 O17 1.933709 1_665
Mn3 O3 1.977762 1_455
Mn3 O3 1.978423 1_555
Mn3 O1 2.100034 1_565
Mn4 O4 1.957608 1_455
Mn4 O14 1.960493 1_555
Mn4 O4 1.962369 1_555
Mn4 O14 1.974251 1_455
Mn4 O23 2.211479 1_554
Mn4 O12 2.291283 1_555
Mn5 O5 1.960517 1_555
Mn5 O5 1.961474 1_655
Mn5 O15 1.968239 1_555
Mn5 O15 1.968336 1_655
Mn5 O22 2.203778 1_555
Mn5 O13 2.294722 1_555
Mn6 O6 1.960468 1_655
Mn6 O6 1.961456 1_555
Mn6 O12 1.968290 1_655
Mn6 O12 1.968420 1_555
Mn6 O20 2.204109 1_555
Mn6 O14 2.294314 1_555
Mn7 O7 1.957749 1_555
Mn7 O13 1.960348 1_455
Mn7 O7 1.962249 1_455
Mn7 O13 1.974344 1_555
Mn7 O21 2.211525 1_555
Mn7 O15 2.291319 1_555
Co0 O23 1.890225 1_655
Co0 O21 1.890261 1_555
Co0 O23 1.957960 1_555
Co0 O21 1.957995 1_655
Co0 O7 2.203496 1_555
Co0 O4 2.203627 1_556
Co1 O20 1.930111 1_555
Co1 O22 1.930152 1_455
Co1 O20 1.930828 1_455
Co1 O22 1.930871 1_555
Co1 O6 2.211862 1_555
Co1 O5 2.211934 1_555
