# generated using pymatgen
data_Li7Mn2(CoO4)3
_symmetry_space_group_name_H-M   'P 1'
_cell_length_a   7.81118024
_cell_length_b   7.81118024
_cell_length_c   11.75692406
_cell_angle_alpha   56.04716906
_cell_angle_beta   56.04716906
_cell_angle_gamma   21.43518459
_symmetry_Int_Tables_number   1
_chemical_formula_structural   Li7Mn2(CoO4)3
_chemical_formula_sum   'Li7 Mn2 Co3 O12'
_cell_volume   215.68147030
_cell_formula_units_Z   1
loop_
 _symmetry_equiv_pos_site_id
 _symmetry_equiv_pos_as_xyz
  1  'x, y, z'
loop_
 _atom_site_type_symbol
 _atom_site_label
 _atom_site_symmetry_multiplicity
 _atom_site_fract_x
 _atom_site_fract_y
 _atom_site_fract_z
 _atom_site_occupancy
  Li  Li0  1  0.67152100  0.67152100  0.73788500  1
  Li  Li1  1  0.99663400  0.99663400  0.26504100  1
  Li  Li2  1  0.35265700  0.35265700  0.73122500  1
  Li  Li3  1  0.64840500  0.64840500  0.27226400  1
  Li  Li4  1  0.00331200  0.00331200  0.74022000  1
  Li  Li5  1  0.32714900  0.32714900  0.25818000  1
  Li  Li6  1  0.00063800  0.00063800  0.49643800  1
  Mn  Mn0  1  0.00005200  0.00005200  0.00062500  1
  Mn  Mn1  1  0.33845300  0.33845300  0.49675300  1
  Co  Co0  1  0.66595300  0.66595300  0.00333500  1
  Co  Co1  1  0.33075200  0.33075200  0.99772300  1
  Co  Co2  1  0.65304300  0.65304300  0.50573100  1
  O  O0  1  0.50267600  0.50267600  0.88791600  1
  O  O1  1  0.83120300  0.83120300  0.39038700  1
  O  O2  1  0.15223200  0.15223200  0.89786400  1
  O  O3  1  0.48551100  0.48551100  0.38462900  1
  O  O4  1  0.83524600  0.83524600  0.88072200  1
  O  O5  1  0.16926000  0.16926000  0.38211100  1
  O  O6  1  0.83199500  0.83199500  0.61249700  1
  O  O7  1  0.17214800  0.17214800  0.11420900  1
  O  O8  1  0.51106600  0.51106600  0.62130200  1
  O  O9  1  0.84643700  0.84643700  0.10378600  1
  O  O10  1  0.17916500  0.17916500  0.60561900  1
  O  O11  1  0.49449500  0.49449500  0.11353900  1
loop_
_geom_bond_atom_site_label_1
_geom_bond_atom_site_label_2
_geom_bond_distance
_geom_bond_site_symmetry_2
Li0 O6 2.027951 1_555
Li0 O10 2.081978 1_565
Li0 O10 2.081978 1_655
Li0 O0 2.152040 1_555
Li0 O2 2.258836 1_565
Li0 O2 2.258836 1_655
Li1 O3 1.960404 1_655
Li1 O3 1.960404 1_565
Li1 O1 2.089421 1_555
Li1 O7 2.229701 1_665
Li1 O11 2.313086 1_655
Li1 O11 2.313086 1_565
Li2 O8 2.002537 1_555
Li2 O6 2.159282 1_545
Li2 O6 2.159282 1_455
Li2 O4 2.176417 1_545
Li2 O4 2.176417 1_455
Li2 O2 2.539866 1_555
Li3 O3 2.059602 1_555
Li3 O5 2.085784 1_655
Li3 O5 2.085784 1_565
Li3 O7 2.219483 1_655
Li3 O7 2.219483 1_565
Li3 O9 2.513670 1_555
Li4 O8 1.972267 1_455
Li4 O8 1.972267 1_545
Li4 O4 2.130566 1_445
Li4 O10 2.221341 1_555
Li4 O0 2.259696 1_545
Li4 O0 2.259696 1_455
Li5 O5 1.995536 1_555
Li5 O11 2.127015 1_555
Li5 O1 2.154059 1_455
Li5 O1 2.154059 1_545
Li5 O9 2.209473 1_455
Li5 O9 2.209473 1_545
Li6 O3 2.058894 1_455
Li6 O3 2.058894 1_545
Li6 O6 2.132450 1_445
Li6 O5 2.133292 1_555
Li6 O8 2.134941 1_455
Li6 O8 2.134941 1_545
Mn0 O2 1.925578 1_554
Mn0 O11 1.936749 1_545
Mn0 O11 1.936749 1_455
Mn0 O9 1.944163 1_445
Mn0 O0 1.951155 1_454
Mn0 O0 1.951155 1_544
Mn1 O3 1.857504 1_555
Mn1 O6 1.954065 1_545
Mn1 O6 1.954065 1_455
Mn1 O1 1.960760 1_545
Mn1 O1 1.960760 1_455
Mn1 O10 2.014623 1_555
Co0 O7 1.989802 1_565
Co0 O7 1.989802 1_655
Co0 O2 1.997258 1_654
Co0 O2 1.997258 1_564
Co0 O4 2.138270 1_554
Co0 O11 2.174565 1_555
Co1 O4 1.974644 1_545
Co1 O4 1.974644 1_455
Co1 O7 2.003036 1_556
Co1 O9 2.016026 1_546
Co1 O9 2.016026 1_456
Co1 O0 2.181245 1_555
Co2 O8 1.797014 1_555
Co2 O5 1.968032 1_565
Co2 O5 1.968032 1_655
Co2 O10 2.045826 1_655
Co2 O10 2.045826 1_565
Co2 O1 2.258685 1_555
