# generated using pymatgen
data_LaYbO3
_symmetry_space_group_name_H-M   'P 1'
_cell_length_a   5.87062500
_cell_length_b   6.09925400
_cell_length_c   8.54254100
_cell_angle_alpha   90.00000000
_cell_angle_beta   90.00000000
_cell_angle_gamma   90.00000000
_symmetry_Int_Tables_number   1
_chemical_formula_structural   LaYbO3
_chemical_formula_sum   'La4 Yb4 O12'
_cell_volume   305.87792208
_cell_formula_units_Z   4
loop_
 _symmetry_equiv_pos_site_id
 _symmetry_equiv_pos_as_xyz
  1  'x, y, z'
loop_
 _atom_site_type_symbol
 _atom_site_label
 _atom_site_symmetry_multiplicity
 _atom_site_fract_x
 _atom_site_fract_y
 _atom_site_fract_z
 _atom_site_occupancy
  La  La0  1  0.52075500  0.56167500  0.25000000  1
  La  La1  1  0.97924500  0.06167500  0.25000000  1
  La  La2  1  0.47924500  0.43832500  0.75000000  1
  La  La3  1  0.02075500  0.93832500  0.75000000  1
  Yb  Yb0  1  0.50000000  0.00000000  0.00000000  1
  Yb  Yb1  1  0.00000000  0.50000000  0.50000000  1
  Yb  Yb2  1  0.50000000  0.00000000  0.50000000  1
  Yb  Yb3  1  0.00000000  0.50000000  0.00000000  1
  O  O0  1  0.35933700  0.92739800  0.25000000  1
  O  O1  1  0.14066300  0.42739800  0.25000000  1
  O  O2  1  0.64066300  0.07260200  0.75000000  1
  O  O3  1  0.85933700  0.57260200  0.75000000  1
  O  O4  1  0.81057500  0.80965800  0.07589300  1
  O  O5  1  0.68942500  0.30965800  0.42410700  1
  O  O6  1  0.18942500  0.19034200  0.57589300  1
  O  O7  1  0.31057500  0.69034200  0.92410700  1
  O  O8  1  0.18942500  0.19034200  0.92410700  1
  O  O9  1  0.31057500  0.69034200  0.57589300  1
  O  O10  1  0.81057500  0.80965800  0.42410700  1
  O  O11  1  0.68942500  0.30965800  0.07589300  1
loop_
_geom_bond_atom_site_label_1
_geom_bond_atom_site_label_2
_geom_bond_distance
_geom_bond_site_symmetry_2
La0 O5 2.356974 1_555
La0 O11 2.356974 1_555
La0 O1 2.376929 1_555
La0 O0 2.423579 1_555
La0 O4 2.719310 1_555
La0 O10 2.719310 1_555
La0 O7 3.144638 1_554
La0 O9 3.144638 1_555
La1 O10 2.356974 1_545
La1 O4 2.356974 1_545
La1 O0 2.376929 1_645
La1 O1 2.423579 1_655
La1 O11 2.719310 1_555
La1 O5 2.719310 1_555
La1 O6 3.144638 1_655
La1 O8 3.144638 1_654
La2 O7 2.356974 1_555
La2 O9 2.356974 1_555
La2 O3 2.376929 1_555
La2 O2 2.423579 1_555
La2 O8 2.719310 1_555
La2 O6 2.719310 1_555
La2 O5 3.144638 1_555
La2 O11 3.144638 1_556
La3 O8 2.356974 1_565
La3 O6 2.356974 1_565
La3 O2 2.376929 1_465
La3 O3 2.423579 1_455
La3 O7 2.719310 1_555
La3 O9 2.719310 1_555
La3 O10 3.144638 1_455
La3 O4 3.144638 1_456
O0 Yb2 2.332153 1_565
O0 Yb0 2.332153 1_565
O1 Yb3 2.332153 1_555
O1 Yb1 2.332153 1_555
O2 Yb2 2.332153 1_555
O2 Yb0 2.332153 1_556
O3 Yb3 2.332153 1_656
O3 Yb1 2.332153 1_655
O4 Yb0 2.256639 1_565
O4 Yb3 2.285625 1_655
O5 Yb1 2.256639 1_655
O5 Yb2 2.285625 1_555
O6 Yb2 2.256639 1_555
O6 Yb1 2.285625 1_555
O7 Yb3 2.256639 1_556
O7 Yb0 2.285625 1_566
O8 Yb0 2.256639 1_556
O8 Yb3 2.285625 1_556
O9 Yb1 2.256639 1_555
O9 Yb2 2.285625 1_565
O10 Yb2 2.256639 1_565
O10 Yb1 2.285625 1_655
O11 Yb3 2.256639 1_655
O11 Yb0 2.285625 1_555
