# generated using pymatgen
data_BaClO
_symmetry_space_group_name_H-M   'P 1'
_cell_length_a   4.19533600
_cell_length_b   7.68851900
_cell_length_c   9.46443800
_cell_angle_alpha   90.00000000
_cell_angle_beta   90.00000000
_cell_angle_gamma   90.00000000
_symmetry_Int_Tables_number   1
_chemical_formula_structural   BaClO
_chemical_formula_sum   'Ba4 Cl4 O4'
_cell_volume   305.28416015
_cell_formula_units_Z   4
loop_
 _symmetry_equiv_pos_site_id
 _symmetry_equiv_pos_as_xyz
  1  'x, y, z'
loop_
 _atom_site_type_symbol
 _atom_site_label
 _atom_site_symmetry_multiplicity
 _atom_site_fract_x
 _atom_site_fract_y
 _atom_site_fract_z
 _atom_site_occupancy
  Ba  Ba0  1  0.25000000  0.77689300  0.88093700  1
  Ba  Ba1  1  0.75000000  0.22310700  0.11906300  1
  Ba  Ba2  1  0.75000000  0.72310700  0.38093700  1
  Ba  Ba3  1  0.25000000  0.27689300  0.61906300  1
  Cl  Cl0  1  0.25000000  0.54464900  0.16392500  1
  Cl  Cl1  1  0.75000000  0.45535100  0.83607500  1
  Cl  Cl2  1  0.75000000  0.95535100  0.66392500  1
  Cl  Cl3  1  0.25000000  0.04464900  0.33607500  1
  O  O0  1  0.25000000  0.59746900  0.53353200  1
  O  O1  1  0.75000000  0.40253100  0.46646800  1
  O  O2  1  0.75000000  0.90253100  0.03353200  1
  O  O3  1  0.25000000  0.09746900  0.96646800  1
loop_
_geom_bond_atom_site_label_1
_geom_bond_atom_site_label_2
_geom_bond_distance
_geom_bond_site_symmetry_2
Ba0 O3 2.594284 1_565
Ba0 O2 2.723802 1_556
Ba0 O2 2.723802 1_456
Ba0 Cl0 3.218978 1_556
Ba0 Cl2 3.240571 1_455
Ba0 Cl2 3.240571 1_555
Ba0 Cl1 3.269889 1_555
Ba0 Cl1 3.269889 1_455
Ba1 O2 2.594284 1_545
Ba1 O3 2.723802 1_654
Ba1 O3 2.723802 1_554
Ba1 Cl1 3.218978 1_554
Ba1 Cl3 3.240571 1_555
Ba1 Cl3 3.240571 1_655
Ba1 Cl0 3.269889 1_655
Ba1 Cl0 3.269889 1_555
Ba2 O1 2.594284 1_555
Ba2 O0 2.723802 1_555
Ba2 O0 2.723802 1_655
Ba2 Cl2 3.218978 1_555
Ba2 Cl0 3.240571 1_655
Ba2 Cl0 3.240571 1_555
Ba2 Cl3 3.269889 1_665
Ba2 Cl3 3.269889 1_565
Ba3 O0 2.594284 1_555
Ba3 O1 2.723802 1_455
Ba3 O1 2.723802 1_555
Ba3 Cl3 3.218978 1_555
Ba3 Cl1 3.240571 1_555
Ba3 Cl1 3.240571 1_455
Ba3 Cl2 3.269889 1_545
Ba3 Cl2 3.269889 1_445
