# generated using pymatgen
data_Mg6FeCo
_symmetry_space_group_name_H-M   'P 1'
_cell_length_a   4.67444900
_cell_length_b   5.98147000
_cell_length_c   10.15897900
_cell_angle_alpha   90.00000000
_cell_angle_beta   90.00000000
_cell_angle_gamma   90.00000000
_symmetry_Int_Tables_number   1
_chemical_formula_structural   Mg6FeCo
_chemical_formula_sum   'Mg12 Fe2 Co2'
_cell_volume   284.04582960
_cell_formula_units_Z   2
loop_
 _symmetry_equiv_pos_site_id
 _symmetry_equiv_pos_as_xyz
  1  'x, y, z'
loop_
 _atom_site_type_symbol
 _atom_site_label
 _atom_site_symmetry_multiplicity
 _atom_site_fract_x
 _atom_site_fract_y
 _atom_site_fract_z
 _atom_site_occupancy
  Mg  Mg0  1  0.00000000  0.26635300  0.09171600  1
  Mg  Mg1  1  0.00000000  0.73364700  0.09171600  1
  Mg  Mg2  1  0.00000000  0.50000000  0.83716600  1
  Mg  Mg3  1  0.50000000  0.23319700  0.90702900  1
  Mg  Mg4  1  0.50000000  0.76680300  0.90702900  1
  Mg  Mg5  1  0.50000000  0.50000000  0.66232000  1
  Mg  Mg6  1  0.00000000  0.76635300  0.59171600  1
  Mg  Mg7  1  0.00000000  0.23364700  0.59171600  1
  Mg  Mg8  1  0.00000000  0.00000000  0.33716600  1
  Mg  Mg9  1  0.50000000  0.73319700  0.40702900  1
  Mg  Mg10  1  0.50000000  0.26680300  0.40702900  1
  Mg  Mg11  1  0.50000000  0.00000000  0.16232000  1
  Fe  Fe0  1  0.00000000  0.50000000  0.32600900  1
  Fe  Fe1  1  0.00000000  0.00000000  0.82600900  1
  Co  Co0  1  0.50000000  0.50000000  0.17701400  1
  Co  Co1  1  0.50000000  0.00000000  0.67701400  1
loop_
_geom_bond_atom_site_label_1
_geom_bond_atom_site_label_2
_geom_bond_distance
_geom_bond_site_symmetry_2
Mg0 Mg1 2.795105 1_555
Mg0 Mg11 2.918102 1_555
Mg0 Mg11 2.918102 1_455
Mg0 Mg2 2.939453 1_554
Mg0 Mg8 2.959034 1_555
Mg0 Mg3 3.003697 1_554
Mg0 Mg3 3.003697 1_454
Mg0 Mg1 3.186365 1_545
Mg1 Mg11 2.918102 1_565
Mg1 Mg11 2.918102 1_465
Mg1 Mg2 2.939453 1_554
Mg1 Mg8 2.959034 1_565
Mg1 Mg4 3.003697 1_554
Mg1 Mg4 3.003697 1_454
Mg2 Mg4 2.917732 1_555
Mg2 Mg3 2.917732 1_455
Mg2 Mg4 2.917732 1_455
Mg2 Mg3 2.917732 1_555
Mg2 Mg5 2.935593 1_455
Mg2 Mg5 2.935593 1_555
Mg2 Mg6 2.959034 1_555
Mg2 Mg7 2.959034 1_555
Mg3 Mg4 2.789722 1_545
Mg3 Mg5 2.954146 1_555
Mg3 Mg4 3.191748 1_555
Mg4 Mg5 2.954146 1_555
Mg5 Mg7 2.918102 1_655
Mg5 Mg6 2.918102 1_555
Mg5 Mg7 2.918102 1_555
Mg5 Mg6 2.918102 1_655
Mg5 Mg9 2.944802 1_555
Mg6 Mg7 2.795105 1_565
Mg6 Mg8 2.939453 1_565
Mg6 Mg9 3.003697 1_455
Mg6 Mg9 3.003697 1_555
Mg6 Mg7 3.186365 1_555
Mg7 Mg8 2.939453 1_555
Mg8 Mg9 2.917732 1_545
Mg8 Mg9 2.917732 1_445
Mg10 Mg9 2.789722 1_555
Mg10 Mg8 2.917732 1_555
Mg10 Mg8 2.917732 1_655
Mg10 Mg5 2.944802 1_555
Mg10 Mg11 2.954146 1_555
Mg10 Mg7 3.003697 1_655
Mg10 Mg7 3.003697 1_555
Mg10 Mg9 3.191748 1_545
Mg11 Mg8 2.935593 1_555
Mg11 Mg8 2.935593 1_655
Mg11 Mg3 2.944802 1_554
Mg11 Mg4 2.944802 1_544
Mg11 Mg9 2.954146 1_545
Fe0 Mg1 2.760145 1_555
Fe0 Mg0 2.760145 1_555
Fe0 Mg9 2.843539 1_455
Fe0 Mg9 2.843539 1_555
Fe0 Mg10 2.843539 1_455
Fe0 Mg10 2.843539 1_555
Fe0 Mg8 2.992882 1_565
Fe0 Mg8 2.992882 1_555
Fe0 Mg7 3.134408 1_555
Fe0 Mg6 3.134408 1_555
Fe1 Mg6 2.760145 1_545
Fe1 Mg7 2.760145 1_555
Fe1 Mg4 2.843539 1_545
Fe1 Mg3 2.843539 1_455
Fe1 Mg3 2.843539 1_555
Fe1 Mg4 2.843539 1_445
Fe1 Mg2 2.992882 1_545
Fe1 Mg2 2.992882 1_555
Fe1 Mg0 3.134408 1_556
Fe1 Mg1 3.134408 1_546
Co0 Mg9 2.721376 1_555
Co0 Mg10 2.721376 1_555
Co0 Fe0 2.784549 1_655
Co0 Fe0 2.784549 1_555
Co0 Mg0 2.857738 1_655
Co0 Mg1 2.857738 1_655
Co0 Mg1 2.857738 1_555
Co0 Mg0 2.857738 1_555
Co0 Mg11 2.994458 1_565
Co0 Mg11 2.994458 1_555
Co0 Mg3 3.173265 1_554
Co0 Mg4 3.173265 1_554
Co1 Mg3 2.721376 1_555
Co1 Mg4 2.721376 1_545
Co1 Fe1 2.784549 1_555
Co1 Fe1 2.784549 1_655
Co1 Mg6 2.857738 1_545
Co1 Mg7 2.857738 1_555
Co1 Mg7 2.857738 1_655
Co1 Mg6 2.857738 1_645
Co1 Mg5 2.994458 1_545
Co1 Mg5 2.994458 1_555
Co1 Mg9 3.173265 1_545
Co1 Mg10 3.173265 1_555
