# generated using pymatgen
data_La3SiN4F
_symmetry_space_group_name_H-M   'P 1'
_cell_length_a   6.89298354
_cell_length_b   7.73452882
_cell_length_c   9.92799918
_cell_angle_alpha   90.00000000
_cell_angle_beta   90.00000000
_cell_angle_gamma   90.00000000
_symmetry_Int_Tables_number   1
_chemical_formula_structural   La3SiN4F
_chemical_formula_sum   'La12 Si4 N16 F4'
_cell_volume   529.30114819
_cell_formula_units_Z   4
loop_
 _symmetry_equiv_pos_site_id
 _symmetry_equiv_pos_as_xyz
  1  'x, y, z'
loop_
 _atom_site_type_symbol
 _atom_site_label
 _atom_site_symmetry_multiplicity
 _atom_site_fract_x
 _atom_site_fract_y
 _atom_site_fract_z
 _atom_site_occupancy
  La  La0  1  0.90046190  0.52534774  0.33776280  1
  La  La1  1  0.59953810  0.97465226  0.83776280  1
  La  La2  1  0.09953810  0.02534774  0.66223720  1
  La  La3  1  0.40046190  0.47465226  0.16223720  1
  La  La4  1  0.09953810  0.47465226  0.66223720  1
  La  La5  1  0.40046190  0.02534774  0.16223720  1
  La  La6  1  0.90046190  0.97465226  0.33776280  1
  La  La7  1  0.59953810  0.52534774  0.83776280  1
  La  La8  1  0.41392085  0.75000000  0.46637625  1
  La  La9  1  0.08607915  0.75000000  0.96637625  1
  La  La10  1  0.58607915  0.25000000  0.53362375  1
  La  La11  1  0.91392085  0.25000000  0.03362375  1
  Si  Si0  1  0.69086461  0.75000000  0.10627122  1
  Si  Si1  1  0.80913539  0.75000000  0.60627122  1
  Si  Si2  1  0.30913539  0.25000000  0.89372878  1
  Si  Si3  1  0.19086461  0.25000000  0.39372878  1
  N  N0  1  0.80915089  0.55662716  0.07721897  1
  N  N1  1  0.69084911  0.94337284  0.57721897  1
  N  N2  1  0.19084911  0.05662716  0.92278103  1
  N  N3  1  0.30915089  0.44337284  0.42278103  1
  N  N4  1  0.19084911  0.44337284  0.92278103  1
  N  N5  1  0.30915089  0.05662716  0.42278103  1
  N  N6  1  0.80915089  0.94337284  0.07721897  1
  N  N7  1  0.69084911  0.55662716  0.57721897  1
  N  N8  1  0.47962115  0.75000000  0.00738885  1
  N  N9  1  0.02037885  0.75000000  0.50738885  1
  N  N10  1  0.52037885  0.25000000  0.99261115  1
  N  N11  1  0.97962115  0.25000000  0.49261115  1
  N  N12  1  0.62682052  0.75000000  0.27666163  1
  N  N13  1  0.87317948  0.75000000  0.77666163  1
  N  N14  1  0.37317948  0.25000000  0.72333837  1
  N  N15  1  0.12682052  0.25000000  0.22333837  1
  F  F0  1  0.16140891  0.75000000  0.22607068  1
  F  F1  1  0.33859109  0.75000000  0.72607068  1
  F  F2  1  0.83859109  0.25000000  0.77392932  1
  F  F3  1  0.66140891  0.25000000  0.27392932  1
loop_
_geom_bond_atom_site_label_1
_geom_bond_atom_site_label_2
_geom_bond_distance
_geom_bond_site_symmetry_2
La0 N9 2.557038 1_655
La0 N12 2.635324 1_555
La0 N0 2.673124 1_555
La0 N11 2.682663 1_555
La0 N7 2.792454 1_555
La0 N15 2.874119 1_655
La0 N3 3.008391 1_655
La1 N8 2.557038 1_556
La1 N13 2.635324 1_555
La1 N1 2.673124 1_555
La1 N10 2.682663 1_565
La1 N6 2.792454 1_556
La1 N14 2.874119 1_565
La1 N2 3.008391 1_565
La2 N11 2.557038 1_455
La2 N14 2.635324 1_555
La2 N2 2.673124 1_555
La2 N9 2.682663 1_545
La2 N5 2.792454 1_555
La2 N13 2.874119 1_445
La2 N1 3.008391 1_445
La3 N10 2.557038 1_554
La3 N15 2.635324 1_555
La3 N3 2.673124 1_555
La3 N8 2.682663 1_555
La3 N4 2.792454 1_554
La3 N12 2.874119 1_555
La3 N0 3.008391 1_555
La4 N11 2.557038 1_455
La4 N14 2.635324 1_555
La4 N4 2.673124 1_555
La4 N9 2.682663 1_555
La4 N3 2.792454 1_555
La4 N13 2.874119 1_455
La4 N7 3.008391 1_455
La5 N10 2.557038 1_554
La5 N15 2.635324 1_555
La5 N5 2.673124 1_555
La5 N8 2.682663 1_545
La5 N2 2.792454 1_554
La5 N12 2.874119 1_545
La5 N6 3.008391 1_545
La6 N9 2.557038 1_655
La6 N12 2.635324 1_555
La6 N6 2.673124 1_555
La6 N11 2.682663 1_565
La6 N1 2.792454 1_555
La6 N15 2.874119 1_665
La6 N5 3.008391 1_665
La7 N8 2.557038 1_556
La7 N13 2.635324 1_555
La7 N7 2.673124 1_555
La7 N10 2.682663 1_555
La7 N0 2.792454 1_556
La7 N14 2.874119 1_555
La7 N4 3.008391 1_555
La8 N12 2.387702 1_555
La8 N5 2.516631 1_565
La8 N3 2.516631 1_555
La8 N1 2.663024 1_555
La8 N7 2.663024 1_555
La8 N9 2.743067 1_555
La9 N13 2.387702 1_455
La9 N2 2.516631 1_565
La9 N4 2.516631 1_555
La9 N6 2.663024 1_456
La9 N0 2.663024 1_456
La9 N8 2.743067 1_556
La10 N14 2.387702 1_555
La10 N1 2.516631 1_545
La10 N7 2.516631 1_555
La10 N3 2.663024 1_555
La10 N5 2.663024 1_555
La10 N11 2.743067 1_555
La11 N15 2.387702 1_655
La11 N0 2.516631 1_555
La11 N6 2.516631 1_545
La11 N2 2.663024 1_654
La11 N4 2.663024 1_654
La11 N10 2.743067 1_554
N0 Si0 1.727699 1_555
N1 Si1 1.727699 1_555
N2 Si2 1.727699 1_555
N3 Si3 1.727699 1_555
N4 Si2 1.727699 1_555
N5 Si3 1.727699 1_555
N6 Si0 1.727699 1_555
N7 Si1 1.727699 1_555
N8 Si0 1.756122 1_555
N9 Si1 1.756122 1_455
N10 Si2 1.756122 1_555
N11 Si3 1.756122 1_655
N12 Si0 1.748289 1_555
N13 Si1 1.748289 1_555
N14 Si2 1.748289 1_555
N15 Si3 1.748289 1_555
F0 La9 2.630013 1_554
F0 La0 2.735714 1_455
F0 La6 2.735714 1_455
F0 La5 2.766295 1_565
F0 La3 2.766295 1_555
F0 La8 2.953197 1_555
F1 La8 2.630013 1_555
F1 La7 2.735714 1_555
F1 La1 2.735714 1_555
F1 La2 2.766295 1_565
F1 La4 2.766295 1_555
F1 La9 2.953197 1_555
F2 La11 2.630013 1_556
F2 La2 2.735714 1_655
F2 La4 2.735714 1_655
F2 La1 2.766295 1_545
F2 La7 2.766295 1_555
F2 La10 2.953197 1_555
F3 La10 2.630013 1_555
F3 La5 2.735714 1_555
F3 La3 2.735714 1_555
F3 La6 2.766295 1_545
F3 La0 2.766295 1_555
F3 La11 2.953197 1_555
