# generated using pymatgen
data_LiTi2Zn2(PO5)2
_symmetry_space_group_name_H-M   'P 1'
_cell_length_a   5.56482638
_cell_length_b   7.41853986
_cell_length_c   7.97099758
_cell_angle_alpha   88.56710516
_cell_angle_beta   43.44396703
_cell_angle_gamma   107.00239819
_symmetry_Int_Tables_number   1
_chemical_formula_structural   LiTi2Zn2(PO5)2
_chemical_formula_sum   'Li1 Ti2 Zn2 P2 O10'
_cell_volume   201.80821293
_cell_formula_units_Z   1
loop_
 _symmetry_equiv_pos_site_id
 _symmetry_equiv_pos_as_xyz
  1  'x, y, z'
loop_
 _atom_site_type_symbol
 _atom_site_label
 _atom_site_symmetry_multiplicity
 _atom_site_fract_x
 _atom_site_fract_y
 _atom_site_fract_z
 _atom_site_occupancy
  Li  Li0  1  0.00025800  0.50008500  0.99963600  1
  Ti  Ti0  1  0.49995900  0.50003200  0.49960200  1
  Ti  Ti1  1  0.50004900  0.00001800  0.49951800  1
  Zn  Zn0  1  0.23212500  0.23422700  0.34273200  1
  Zn  Zn1  1  0.76823900  0.76587600  0.65630500  1
  P  P0  1  0.54287400  0.26876400  0.85171100  1
  P  P1  1  0.45730600  0.73126800  0.14737800  1
  O  O0  1  0.64374700  0.14016100  0.67459300  1
  O  O1  1  0.48957100  0.43666400  0.77580200  1
  O  O2  1  0.35658800  0.85994800  0.32439400  1
  O  O3  1  0.51061500  0.56343200  0.22330800  1
  O  O4  1  0.13157100  0.64044000  0.18120800  1
  O  O5  1  0.84687400  0.86346900  0.85024700  1
  O  O6  1  0.86859600  0.35961200  0.81797800  1
  O  O7  1  0.15328100  0.13655500  0.14889800  1
  O  O8  1  0.47222900  0.74476600  0.60852500  1
  O  O9  1  0.52804300  0.25536600  0.39070100  1
loop_
_geom_bond_atom_site_label_1
_geom_bond_atom_site_label_2
_geom_bond_distance
_geom_bond_site_symmetry_2
Li0 O1 2.134407 1_555
Li0 O3 2.135527 1_456
Li0 O4 2.208838 1_556
Li0 O6 2.211102 1_455
Li0 O9 2.224957 1_456
Li0 O8 2.225128 1_555
O0 P0 1.564697 1_555
O0 Zn0 2.049270 1_655
O0 Ti1 2.207854 1_555
O1 P0 1.563504 1_555
O1 Zn1 2.191032 1_555
O1 Ti0 2.195193 1_555
O2 P1 1.564686 1_555
O2 Zn1 2.049221 1_455
O2 Ti1 2.207100 1_565
O3 P1 1.563212 1_555
O3 Zn0 2.190982 1_555
O3 Ti0 2.194829 1_555
O4 P1 1.542498 1_555
O4 Ti0 2.157190 1_455
O5 P1 1.567067 1_556
O5 Zn1 1.989598 1_555
O5 Ti1 2.236736 1_665
O6 P0 1.542978 1_555
O6 Ti0 2.156313 1_655
O7 P0 1.567311 1_554
O7 Zn0 1.989759 1_555
O7 Ti1 2.236876 1_455
O8 Zn1 1.909474 1_555
O8 Ti1 1.978786 1_565
O8 Ti0 2.030284 1_555
O9 Zn0 1.910183 1_555
O9 Ti1 1.978398 1_555
O9 Ti0 2.029801 1_555
