# generated using pymatgen
data_PtW
_symmetry_space_group_name_H-M   'P 1'
_cell_length_a   9.77582092
_cell_length_b   9.77582092
_cell_length_c   9.77582029
_cell_angle_alpha   33.45124308
_cell_angle_beta   33.45124308
_cell_angle_gamma   33.45124462
_symmetry_Int_Tables_number   1
_chemical_formula_structural   PtW
_chemical_formula_sum   'Pt8 W8'
_cell_volume   252.80649298
_cell_formula_units_Z   8
loop_
 _symmetry_equiv_pos_site_id
 _symmetry_equiv_pos_as_xyz
  1  'x, y, z'
loop_
 _atom_site_type_symbol
 _atom_site_label
 _atom_site_symmetry_multiplicity
 _atom_site_fract_x
 _atom_site_fract_y
 _atom_site_fract_z
 _atom_site_occupancy
  Pt  Pt0_0  1  0.00000000  0.00000000  0.00000000  1
  Pt  Pt0_1  1  0.00000000  0.00000000  0.50000000  1
  Pt  Pt0_2  1  1.00000000  0.50000000  0.00000000  1
  Pt  Pt0_3  1  1.00000000  0.50000000  0.50000000  1
  Pt  Pt0_4  1  0.50000000  0.00000000  0.00000000  1
  Pt  Pt0_5  1  0.50000000  0.00000000  0.50000000  1
  Pt  Pt0_6  1  0.50000000  0.50000000  0.00000000  1
  Pt  Pt0_7  1  0.50000000  0.50000000  0.50000000  1
  W  W0_0  1  0.25000000  0.25000000  0.25000000  1
  W  W0_1  1  0.25000000  0.25000000  0.75000000  1
  W  W0_2  1  0.25000000  0.75000000  0.25000000  1
  W  W0_3  1  0.25000000  0.75000000  0.75000000  1
  W  W0_4  1  0.75000000  0.25000000  0.25000000  1
  W  W0_5  1  0.75000000  0.25000000  0.75000000  1
  W  W0_6  1  0.75000000  0.75000000  0.25000000  1
  W  W0_7  1  0.75000000  0.75000000  0.75000000  1
loop_
_geom_bond_atom_site_label_1
_geom_bond_atom_site_label_2
_geom_bond_distance
_geom_bond_site_symmetry_2
Pt0_0 Pt0_3 2.813372 1_445
Pt0_0 Pt0_5 2.813372 1_554
Pt0_0 Pt0_5 2.813372 1_455
Pt0_0 Pt0_3 2.813372 1_454
Pt0_0 Pt0_6 2.813372 1_545
Pt0_0 Pt0_6 2.813372 1_455
Pt0_0 W0_2 2.819873 1_545
Pt0_0 W0_4 2.819873 1_455
Pt0_0 W0_5 2.819873 1_454
Pt0_0 W0_3 2.819873 1_544
Pt0_0 W0_1 2.819873 1_554
Pt0_0 W0_6 2.819873 1_445
Pt0_1 Pt0_2 2.813372 1_455
Pt0_1 Pt0_4 2.813372 1_555
Pt0_1 Pt0_2 2.813372 1_446
Pt0_1 Pt0_4 2.813372 1_456
Pt0_1 Pt0_7 2.813372 1_545
Pt0_1 Pt0_7 2.813372 1_455
Pt0_1 W0_3 2.819873 1_545
Pt0_1 W0_5 2.819873 1_455
Pt0_1 W0_2 2.819873 1_545
Pt0_1 W0_4 2.819873 1_455
Pt0_1 W0_0 2.819873 1_555
Pt0_1 W0_7 2.819873 1_445
Pt0_2 Pt0_7 2.813372 1_654
Pt0_2 Pt0_7 2.813372 1_555
Pt0_2 Pt0_4 2.813372 1_565
Pt0_2 Pt0_4 2.813372 1_655
Pt0_2 W0_6 2.819873 1_555
Pt0_2 W0_1 2.819873 1_654
Pt0_2 W0_0 2.819873 1_655
Pt0_2 W0_7 2.819873 1_554
Pt0_2 W0_3 2.819873 1_654
Pt0_2 W0_4 2.819873 1_555
Pt0_3 Pt0_6 2.813372 1_655
Pt0_3 Pt0_6 2.813372 1_556
Pt0_3 Pt0_5 2.813372 1_565
Pt0_3 Pt0_5 2.813372 1_655
Pt0_3 W0_7 2.819873 1_555
Pt0_3 W0_0 2.819873 1_655
Pt0_3 W0_6 2.819873 1_555
Pt0_3 W0_1 2.819873 1_655
Pt0_3 W0_2 2.819873 1_655
Pt0_3 W0_5 2.819873 1_555
Pt0_4 Pt0_7 2.813372 1_545
Pt0_4 Pt0_7 2.813372 1_554
Pt0_4 W0_6 2.819873 1_545
Pt0_4 W0_0 2.819873 1_555
Pt0_4 W0_1 2.819873 1_554
Pt0_4 W0_7 2.819873 1_544
Pt0_4 W0_5 2.819873 1_554
Pt0_4 W0_2 2.819873 1_545
Pt0_5 Pt0_6 2.813372 1_555
Pt0_5 Pt0_6 2.813372 1_546
Pt0_5 W0_7 2.819873 1_545
Pt0_5 W0_6 2.819873 1_545
Pt0_5 W0_0 2.819873 1_555
Pt0_5 W0_1 2.819873 1_555
Pt0_5 W0_4 2.819873 1_555
Pt0_5 W0_3 2.819873 1_545
Pt0_6 W0_2 2.819873 1_555
Pt0_6 W0_4 2.819873 1_555
Pt0_6 W0_5 2.819873 1_554
Pt0_6 W0_3 2.819873 1_554
Pt0_6 W0_7 2.819873 1_554
Pt0_6 W0_0 2.819873 1_555
Pt0_7 W0_2 2.819873 1_555
Pt0_7 W0_4 2.819873 1_555
Pt0_7 W0_3 2.819873 1_555
Pt0_7 W0_5 2.819873 1_555
Pt0_7 W0_1 2.819873 1_555
Pt0_7 W0_6 2.819873 1_555
W0_0 W0_5 2.813372 1_455
W0_0 W0_3 2.813372 1_545
W0_0 W0_3 2.813372 1_554
W0_0 W0_5 2.813372 1_554
W0_0 W0_6 2.813372 1_545
W0_0 W0_6 2.813372 1_455
W0_1 W0_4 2.813372 1_555
W0_1 W0_2 2.813372 1_555
W0_1 W0_4 2.813372 1_456
W0_1 W0_2 2.813372 1_546
W0_1 W0_7 2.813372 1_545
W0_1 W0_7 2.813372 1_455
W0_2 W0_7 2.813372 1_455
W0_2 W0_7 2.813372 1_554
W0_2 W0_4 2.813372 1_555
W0_2 W0_4 2.813372 1_465
W0_3 W0_6 2.813372 1_555
W0_3 W0_6 2.813372 1_456
W0_3 W0_5 2.813372 1_465
W0_3 W0_5 2.813372 1_555
W0_4 W0_7 2.813372 1_545
W0_4 W0_7 2.813372 1_554
W0_5 W0_6 2.813372 1_546
W0_5 W0_6 2.813372 1_555
