# generated using pymatgen
data_Li6V5O12
_symmetry_space_group_name_H-M   'P 1'
_cell_length_a   5.04587954
_cell_length_b   5.04587954
_cell_length_c   9.54508063
_cell_angle_alpha   86.34170191
_cell_angle_beta   86.34170191
_cell_angle_gamma   116.19454783
_symmetry_Int_Tables_number   1
_chemical_formula_structural   Li6V5O12
_chemical_formula_sum   'Li6 V5 O12'
_cell_volume   216.47241431
_cell_formula_units_Z   1
loop_
 _symmetry_equiv_pos_site_id
 _symmetry_equiv_pos_as_xyz
  1  'x, y, z'
loop_
 _atom_site_type_symbol
 _atom_site_label
 _atom_site_symmetry_multiplicity
 _atom_site_fract_x
 _atom_site_fract_y
 _atom_site_fract_z
 _atom_site_occupancy
  Li  Li0  1  0.75763000  0.24237000  0.00000000  1
  Li  Li1  1  0.83206200  0.64399800  0.75663600  1
  Li  Li2  1  0.69430500  0.86786700  0.23882800  1
  Li  Li3  1  0.35600200  0.16793800  0.24336400  1
  Li  Li4  1  0.13213300  0.30569500  0.76117200  1
  Li  Li5  1  0.08590400  0.91409600  0.00000000  1
  V  V0  1  0.92070300  0.07929700  0.50000000  1
  V  V1  1  0.57086900  0.42913100  0.50000000  1
  V  V2  1  0.42781600  0.57218400  0.00000000  1
  V  V3  1  0.47918500  0.98917700  0.74975800  1
  V  V4  1  0.01082300  0.52081500  0.25024200  1
  O  O0  1  0.81851600  0.33247400  0.63230900  1
  O  O1  1  0.66752600  0.18148400  0.36769100  1
  O  O2  1  0.91844600  0.76383400  0.37729500  1
  O  O3  1  0.73535900  0.54371000  0.12350200  1
  O  O4  1  0.73810100  0.90701600  0.88781600  1
  O  O5  1  0.45629000  0.26464100  0.87649800  1
  O  O6  1  0.57225300  0.75232200  0.62532400  1
  O  O7  1  0.23616600  0.08155400  0.62270500  1
  O  O8  1  0.24767800  0.42774700  0.37467600  1
  O  O9  1  0.36081300  0.83134000  0.13179900  1
  O  O10  1  0.09298400  0.26189900  0.11218400  1
  O  O11  1  0.16866000  0.63918700  0.86820100  1
loop_
_geom_bond_atom_site_label_1
_geom_bond_atom_site_label_2
_geom_bond_distance
_geom_bond_site_symmetry_2
Li0 O3 2.019150 1_555
Li0 O5 2.019150 1_554
Li0 O4 2.029091 1_544
Li0 O10 2.029091 1_655
Li0 O9 2.360653 1_545
Li0 O11 2.360653 1_654
Li1 O0 2.009331 1_555
Li1 O4 2.060523 1_555
Li1 O11 2.069584 1_655
Li1 O6 2.084041 1_555
Li1 O5 2.192646 1_555
Li1 O7 2.449350 1_665
Li2 O9 1.969496 1_555
Li2 O2 1.981890 1_555
Li2 O3 2.104719 1_555
Li2 O1 2.109824 1_565
Li2 O10 2.305015 1_665
Li2 O8 2.556025 1_555
Li3 O1 2.009331 1_555
Li3 O10 2.060523 1_555
Li3 O9 2.069584 1_545
Li3 O8 2.084041 1_555
Li3 O3 2.192646 1_555
Li3 O2 2.449350 1_445
Li4 O11 1.969496 1_555
Li4 O7 1.981890 1_555
Li4 O5 2.104719 1_555
Li4 O0 2.109824 1_455
Li4 O4 2.305015 1_445
Li4 O6 2.556025 1_555
Li5 O9 2.085248 1_555
Li5 O11 2.085248 1_554
Li5 O4 2.101707 1_454
Li5 O10 2.101707 1_565
Li5 O3 2.132020 1_455
Li5 O5 2.132020 1_564
O0 V1 2.013731 1_555
O0 V3 2.019375 1_545
O0 V0 2.048685 1_555
O1 V1 2.013731 1_555
O1 V4 2.019375 1_655
O1 V0 2.048685 1_555
O2 V4 1.952925 1_655
O2 V0 2.032070 1_565
O2 V1 2.042171 1_555
O3 V4 1.935799 1_655
O3 V2 2.055999 1_555
O4 V2 1.916320 1_556
O4 V3 2.059949 1_555
O5 V3 1.935799 1_545
O5 V2 2.055999 1_556
O6 V3 1.914437 1_555
O6 V0 2.040387 1_565
O6 V1 2.080966 1_555
O7 V3 1.952925 1_545
O7 V0 2.032070 1_455
O7 V1 2.042171 1_555
O8 V4 1.914437 1_555
O8 V0 2.040387 1_455
O8 V1 2.080966 1_555
O9 V4 1.981982 1_555
O9 V2 1.988195 1_555
O10 V2 1.916320 1_555
O10 V4 2.059949 1_555
O11 V3 1.981982 1_555
O11 V2 1.988195 1_556
