# generated using pymatgen
data_Co5CuS8
_symmetry_space_group_name_H-M   'P 1'
_cell_length_a   6.63736104
_cell_length_b   6.63736104
_cell_length_c   6.63736104
_cell_angle_alpha   60.00000000
_cell_angle_beta   60.00000000
_cell_angle_gamma   60.00000000
_symmetry_Int_Tables_number   1
_chemical_formula_structural   Co5CuS8
_chemical_formula_sum   'Co5 Cu1 S8'
_cell_volume   206.76228705
_cell_formula_units_Z   1
loop_
 _symmetry_equiv_pos_site_id
 _symmetry_equiv_pos_as_xyz
  1  'x, y, z'
loop_
 _atom_site_type_symbol
 _atom_site_label
 _atom_site_symmetry_multiplicity
 _atom_site_fract_x
 _atom_site_fract_y
 _atom_site_fract_z
 _atom_site_occupancy
  Co  Co0  1  0.62561500  0.62561500  0.12315500  1
  Co  Co1  1  0.62561500  0.12315500  0.62561500  1
  Co  Co2  1  0.12315500  0.62561500  0.62561500  1
  Co  Co3  1  0.62561500  0.62561500  0.62561500  1
  Co  Co4  1  0.25000000  0.25000000  0.25000000  1
  Cu  Cu0  1  0.00000000  0.00000000  0.00000000  1
  S  S0  1  0.86227700  0.86227700  0.41316800  1
  S  S1  1  0.86227700  0.41316800  0.86227700  1
  S  S2  1  0.41316800  0.86227700  0.86227700  1
  S  S3  1  0.86227700  0.86227700  0.86227700  1
  S  S4  1  0.38247400  0.38247400  0.85257800  1
  S  S5  1  0.38247400  0.85257800  0.38247400  1
  S  S6  1  0.85257800  0.38247400  0.38247400  1
  S  S7  1  0.38247400  0.38247400  0.38247400  1
loop_
_geom_bond_atom_site_label_1
_geom_bond_atom_site_label_2
_geom_bond_distance
_geom_bond_site_symmetry_2
Co0 S3 2.227270 1_554
Co0 S2 2.227274 1_554
Co0 S1 2.227274 1_554
Co0 S5 2.284803 1_555
Co0 S6 2.284803 1_555
Co0 S7 2.284803 1_555
Co1 S3 2.227270 1_545
Co1 S2 2.227274 1_545
Co1 S0 2.227274 1_545
Co1 S6 2.284803 1_555
Co1 S4 2.284803 1_555
Co1 S7 2.284803 1_555
Co2 S3 2.227270 1_455
Co2 S0 2.227274 1_455
Co2 S1 2.227274 1_455
Co2 S5 2.284803 1_555
Co2 S4 2.284803 1_555
Co2 S7 2.284803 1_555
Co3 S0 2.227269 1_555
Co3 S1 2.227269 1_555
Co3 S2 2.227269 1_555
Co3 S6 2.284803 1_555
Co3 S4 2.284803 1_555
Co3 S5 2.284803 1_555
Co4 S7 2.153782 1_555
Co4 S4 2.153782 1_554
Co4 S6 2.153782 1_455
Co4 S5 2.153782 1_545
Cu0 S2 2.239115 1_544
Cu0 S1 2.239115 1_454
Cu0 S0 2.239115 1_445
Cu0 S3 2.239121 1_444
