# generated using pymatgen
data_Ce(FeAs3)4
_symmetry_space_group_name_H-M   'P 1'
_cell_length_a   7.15880416
_cell_length_b   7.15880416
_cell_length_c   7.15880416
_cell_angle_alpha   109.47122063
_cell_angle_beta   109.47122063
_cell_angle_gamma   109.47122063
_symmetry_Int_Tables_number   1
_chemical_formula_structural   Ce(FeAs3)4
_chemical_formula_sum   'Ce1 Fe4 As12'
_cell_volume   282.42267032
_cell_formula_units_Z   1
loop_
 _symmetry_equiv_pos_site_id
 _symmetry_equiv_pos_as_xyz
  1  'x, y, z'
loop_
 _atom_site_type_symbol
 _atom_site_label
 _atom_site_symmetry_multiplicity
 _atom_site_fract_x
 _atom_site_fract_y
 _atom_site_fract_z
 _atom_site_occupancy
  Ce  Ce0  1  0.00000000  -0.00000000  -0.00000000  1
  Fe  Fe0  1  0.50000000  0.50000000  0.50000000  1
  Fe  Fe1  1  0.50000000  -0.00000000  -0.00000000  1
  Fe  Fe2  1  0.00000000  0.50000000  -0.00000000  1
  Fe  Fe3  1  0.00000000  -0.00000000  0.50000000  1
  As  As0  1  0.84463558  0.65672244  0.50135602  1
  As  As1  1  0.15536442  0.34327756  0.49864398  1
  As  As2  1  0.15536442  0.65672144  0.81208785  1
  As  As3  1  0.84463558  0.34327856  0.18791215  1
  As  As4  1  0.65672344  0.50135602  0.84463558  1
  As  As5  1  0.34327656  0.49864398  0.15536442  1
  As  As6  1  0.65672244  0.81208685  0.15536442  1
  As  As7  1  0.34327756  0.18791315  0.84463558  1
  As  As8  1  0.50135602  0.84463558  0.65672244  1
  As  As9  1  0.49864398  0.15536442  0.34327756  1
  As  As10  1  0.81208785  0.15536642  0.65672344  1
  As  As11  1  0.18791215  0.84463358  0.34327656  1
loop_
_geom_bond_atom_site_label_1
_geom_bond_atom_site_label_2
_geom_bond_distance
_geom_bond_site_symmetry_2
As0 Fe3 2.340336 1_665
As0 Fe0 2.340350 1_555
As0 As2 2.568587 1_655
As0 As3 2.591013 1_555
As0 Ce0 3.114736 1_666
As1 Fe3 2.340336 1_555
As1 Fe0 2.340350 1_555
As1 As3 2.568587 1_455
As1 As2 2.591013 1_555
As1 Ce0 3.114736 1_555
As2 Fe2 2.340333 1_556
As2 Fe1 2.340347 1_566
As2 Ce0 3.114729 1_566
As3 Fe2 2.340333 1_655
As3 Fe1 2.340347 1_555
As3 Ce0 3.114729 1_655
As4 Fe2 2.340329 1_656
As4 Fe0 2.340351 1_555
As4 As6 2.568582 1_556
As4 As7 2.591017 1_555
As4 Ce0 3.114734 1_666
As5 Fe2 2.340329 1_555
As5 Fe0 2.340351 1_555
As5 As7 2.568582 1_554
As5 As6 2.591017 1_555
As5 Ce0 3.114734 1_555
As6 Fe3 2.340343 1_665
As6 Fe1 2.340343 1_565
As6 Ce0 3.114725 1_665
As7 Fe3 2.340343 1_555
As7 Fe1 2.340343 1_556
As7 Ce0 3.114725 1_556
As8 Fe1 2.340336 1_566
As8 Fe0 2.340350 1_555
As8 Ce0 3.114736 1_666
As9 Fe1 2.340336 1_555
As9 Fe0 2.340350 1_555
As9 Ce0 3.114736 1_555
As10 Fe2 2.340333 1_656
As10 Fe3 2.340347 1_655
As10 As8 2.568587 1_545
As10 As9 2.591013 1_555
As10 Ce0 3.114729 1_656
As11 Fe2 2.340333 1_555
As11 Fe3 2.340347 1_565
As11 As9 2.568587 1_565
As11 As8 2.591013 1_555
As11 Ce0 3.114729 1_565
