# generated using pymatgen
data_MgSi
_symmetry_space_group_name_H-M   'P 1'
_cell_length_a   5.11192608
_cell_length_b   5.11192608
_cell_length_c   12.41023712
_cell_angle_alpha   71.65477623
_cell_angle_beta   71.65477623
_cell_angle_gamma   47.40716523
_symmetry_Int_Tables_number   1
_chemical_formula_structural   MgSi
_chemical_formula_sum   'Mg6 Si6'
_cell_volume   224.19696923
_cell_formula_units_Z   6
loop_
 _symmetry_equiv_pos_site_id
 _symmetry_equiv_pos_as_xyz
  1  'x, y, z'
loop_
 _atom_site_type_symbol
 _atom_site_label
 _atom_site_symmetry_multiplicity
 _atom_site_fract_x
 _atom_site_fract_y
 _atom_site_fract_z
 _atom_site_occupancy
  Mg  Mg0  1  0.57889000  0.57889000  0.92590100  1
  Mg  Mg1  1  0.07754000  0.07754000  0.18666500  1
  Mg  Mg2  1  0.38232500  0.38232500  0.40084700  1
  Mg  Mg3  1  0.59206300  0.59206300  0.56266200  1
  Mg  Mg4  1  0.82263000  0.82263000  0.04804600  1
  Mg  Mg5  1  0.94800100  0.94800100  0.78123800  1
  Si  Si0  1  0.25644500  0.25644500  0.71614900  1
  Si  Si1  1  0.73472700  0.73472700  0.29109700  1
  Si  Si2  1  0.28326100  0.28326100  0.91050600  1
  Si  Si3  1  0.39423200  0.39423200  0.16743100  1
  Si  Si4  1  0.85933000  0.85933000  0.59265900  1
  Si  Si5  1  0.08181000  0.08181000  0.41669900  1
loop_
_geom_bond_atom_site_label_1
_geom_bond_atom_site_label_2
_geom_bond_distance
_geom_bond_site_symmetry_2
Mg0 Si2 2.769224 1_565
Mg0 Si2 2.769224 1_655
Mg0 Si2 2.838833 1_555
Mg0 Si3 2.900120 1_556
Mg1 Si3 2.739775 1_545
Mg1 Si3 2.739775 1_455
Mg1 Si5 2.868762 1_555
Mg1 Si3 2.891314 1_555
Mg1 Si1 3.019804 1_445
Mg1 Si1 3.062536 1_545
Mg1 Si1 3.062536 1_455
Mg2 Si5 2.751809 1_555
Mg2 Si5 2.828734 1_565
Mg2 Si5 2.828734 1_655
Mg2 Si3 2.860349 1_555
Mg2 Si1 3.046497 1_545
Mg2 Si1 3.046497 1_455
Mg2 Si4 3.095743 1_455
Mg2 Si4 3.095743 1_545
Mg2 Si1 3.106314 1_555
Mg3 Si4 2.653075 1_555
Mg3 Si5 2.762815 1_655
Mg3 Si5 2.762815 1_565
Mg3 Si4 2.924176 1_545
Mg3 Si4 2.924176 1_455
Mg3 Si1 3.169771 1_555
Mg4 Si3 2.747774 1_565
Mg4 Si3 2.747774 1_655
Mg4 Si2 2.775776 1_654
Mg4 Si2 2.775776 1_564
Mg4 Si1 2.840588 1_555
Mg5 Si0 2.717790 1_665
Mg5 Si2 2.733897 1_655
Mg5 Si2 2.733897 1_565
Mg5 Si4 2.738907 1_555
Mg5 Si0 3.014476 1_655
Mg5 Si0 3.014476 1_565
Si0 Si2 2.509404 1_555
Si0 Si4 2.546501 1_455
Si0 Si4 2.546501 1_545
Si1 Si5 2.677313 1_565
Si1 Si5 2.677313 1_655
Si1 Si3 2.689355 1_565
Si1 Si3 2.689355 1_655
Si4 Si5 2.445316 1_665
