# generated using pymatgen
data_Nb14AgO36
_symmetry_space_group_name_H-M   'P 1'
_cell_length_a   3.78603900
_cell_length_b   14.81831100
_cell_length_c   15.32558470
_cell_angle_alpha   118.91097506
_cell_angle_beta   97.09530991
_cell_angle_gamma   90.00000000
_symmetry_Int_Tables_number   1
_chemical_formula_structural   Nb14AgO36
_chemical_formula_sum   'Nb14 Ag1 O36'
_cell_volume   745.12003199
_cell_formula_units_Z   1
loop_
 _symmetry_equiv_pos_site_id
 _symmetry_equiv_pos_as_xyz
  1  'x, y, z'
loop_
 _atom_site_type_symbol
 _atom_site_label
 _atom_site_symmetry_multiplicity
 _atom_site_fract_x
 _atom_site_fract_y
 _atom_site_fract_z
 _atom_site_occupancy
  Nb  Nb0  1  0.00000000  0.18191100  0.00000000  1
  Nb  Nb1  1  0.00000000  0.81808900  0.00000000  1
  Nb  Nb2  1  0.10267900  0.47768100  0.20535800  1
  Nb  Nb3  1  0.89732100  0.52231900  0.79464200  1
  Nb  Nb4  1  0.10267900  0.72767700  0.20535800  1
  Nb  Nb5  1  0.89732100  0.27232300  0.79464200  1
  Nb  Nb6  1  0.31059100  0.31059100  0.62118200  1
  Nb  Nb7  1  0.68940900  0.68940900  0.37881800  1
  Nb  Nb8  1  0.20643800  0.39705000  0.41287600  1
  Nb  Nb9  1  0.79356200  0.60295000  0.58712500  1
  Nb  Nb10  1  0.20643800  0.01582500  0.41287600  1
  Nb  Nb11  1  0.79356200  0.98417500  0.58712500  1
  Nb  Nb12  1  0.10359800  0.10359800  0.20719700  1
  Nb  Nb13  1  0.89640200  0.89640200  0.79280300  1
  Ag  Ag0  1  0.50000000  0.50000000  0.00000000  1
  O  O0  1  0.83586800  0.33586800  0.67173700  1
  O  O1  1  0.16413200  0.66413200  0.32826300  1
  O  O2  1  0.26829700  0.36518500  0.53659400  1
  O  O3  1  0.73170300  0.63481500  0.46340600  1
  O  O4  1  0.26829700  0.17140900  0.53659400  1
  O  O5  1  0.73170300  0.82859100  0.46340600  1
  O  O6  1  0.05184100  0.34779300  0.10368300  1
  O  O7  1  0.94815900  0.65220800  0.89631700  1
  O  O8  1  0.05184100  0.75589000  0.10368300  1
  O  O9  1  0.94815900  0.24411000  0.89631700  1
  O  O10  1  0.15946900  0.45199900  0.31893700  1
  O  O11  1  0.84053100  0.54800100  0.68106300  1
  O  O12  1  0.15946900  0.86693900  0.31893700  1
  O  O13  1  0.84053100  0.13306100  0.68106300  1
  O  O14  1  0.94683800  0.44683800  0.89367600  1
  O  O15  1  0.05316200  0.55316200  0.10632400  1
  O  O16  1  0.16114300  0.26072000  0.32228500  1
  O  O17  1  0.83885700  0.73928000  0.67771500  1
  O  O18  1  0.16114300  0.06156500  0.32228500  1
  O  O19  1  0.83885700  0.93843500  0.67771500  1
  O  O20  1  0.27342400  0.56690800  0.54684800  1
  O  O21  1  0.72657600  0.43309200  0.45315200  1
  O  O22  1  0.27342400  0.97994000  0.54684800  1
  O  O23  1  0.72657600  0.02006000  0.45315200  1
  O  O24  1  0.38492000  0.47654200  0.76984000  1
  O  O25  1  0.61508000  0.52345800  0.23016000  1
  O  O26  1  0.38492000  0.29329700  0.76984000  1
  O  O27  1  0.61508000  0.70670300  0.23016000  1
  O  O28  1  0.50000000  0.78793600  0.00000000  1
  O  O29  1  0.50000000  0.21206400  0.00000000  1
  O  O30  1  0.05453100  0.15176500  0.10906100  1
  O  O31  1  0.94546900  0.84823500  0.89093900  1
  O  O32  1  0.05453100  0.95729700  0.10906100  1
  O  O33  1  0.94546900  0.04270300  0.89093900  1
  O  O34  1  0.62029600  0.12029600  0.24059100  1
  O  O35  1  0.37970400  0.87970400  0.75940900  1
loop_
_geom_bond_atom_site_label_1
_geom_bond_atom_site_label_2
_geom_bond_distance
_geom_bond_site_symmetry_2
Nb0 O30 1.916382 1_555
Nb0 O33 1.916391 1_454
Nb0 O29 1.945037 1_455
Nb0 O29 1.945037 1_555
Nb0 O9 2.179906 1_454
Nb0 O6 2.179906 1_555
Nb1 O31 1.916382 1_454
Nb1 O32 1.916391 1_555
Nb1 O28 1.945037 1_555
Nb1 O28 1.945037 1_455
Nb1 O7 2.179894 1_454
Nb1 O8 2.179906 1_555
Nb2 O6 1.787651 1_555
Nb2 O10 1.941397 1_555
Nb2 O25 1.984096 1_555
Nb2 O25 1.984096 1_455
Nb2 O15 2.271760 1_555
Nb2 O1 2.468895 1_555
Nb3 O7 1.787661 1_555
Nb3 O11 1.941397 1_555
Nb3 O24 1.984096 1_555
Nb3 O24 1.984096 1_655
Nb3 O14 2.271760 1_555
Nb3 O0 2.468895 1_555
Nb4 O8 1.787651 1_555
Nb4 O12 1.941406 1_555
Nb4 O27 1.984092 1_555
Nb4 O27 1.984092 1_455
Nb4 O15 2.271760 1_555
Nb4 O1 2.468884 1_555
Nb5 O9 1.787651 1_555
Nb5 O13 1.941406 1_555
Nb5 O26 1.984092 1_555
Nb5 O26 1.984092 1_655
Nb5 O14 2.271760 1_555
Nb5 O0 2.468884 1_555
Nb6 O2 1.823021 1_555
Nb6 O4 1.823021 1_555
Nb6 O0 2.008568 1_555
Nb6 O0 2.008572 1_455
Nb6 O24 2.396139 1_555
Nb6 O26 2.396147 1_555
Nb7 O3 1.823021 1_555
Nb7 O5 1.823021 1_555
Nb7 O1 2.008568 1_555
Nb7 O1 2.008572 1_655
Nb7 O25 2.396139 1_555
Nb7 O27 2.396147 1_555
Nb8 O16 1.807585 1_555
Nb8 O10 1.958950 1_555
Nb8 O21 1.981212 1_555
Nb8 O21 1.981212 1_455
Nb8 O2 2.151458 1_555
Nb8 O20 2.343028 1_555
Nb9 O17 1.807581 1_555
Nb9 O11 1.958936 1_555
Nb9 O20 1.981213 1_555
Nb9 O20 1.981217 1_655
Nb9 O3 2.151473 1_555
Nb9 O21 2.343033 1_555
Nb10 O18 1.807596 1_555
Nb10 O12 1.958927 1_545
Nb10 O23 1.981211 1_555
Nb10 O23 1.981211 1_455
Nb10 O4 2.151468 1_555
Nb10 O22 2.343018 1_545
Nb11 O19 1.807581 1_555
Nb11 O13 1.958924 1_565
Nb11 O22 1.981213 1_555
Nb11 O22 1.981217 1_655
Nb11 O5 2.151473 1_555
Nb11 O23 2.343033 1_565
Nb12 O32 1.942881 1_545
Nb12 O30 1.942903 1_555
Nb12 O34 1.944278 1_455
Nb12 O34 1.944285 1_555
Nb12 O18 2.124541 1_555
Nb12 O16 2.124551 1_555
Nb13 O33 1.942881 1_565
Nb13 O31 1.942903 1_555
Nb13 O35 1.944278 1_655
Nb13 O35 1.944285 1_555
Nb13 O19 2.124541 1_555
Nb13 O17 2.124551 1_555
Ag0 O14 2.361700 1_454
Ag0 O15 2.361700 1_655
Ag0 O14 2.361700 1_554
Ag0 O15 2.361700 1_555
