# generated using pymatgen
data_NaAs2
_symmetry_space_group_name_H-M   'P 1'
_cell_length_a   5.76580809
_cell_length_b   5.76580809
_cell_length_c   5.76580809
_cell_angle_alpha   60.00000000
_cell_angle_beta   60.00000000
_cell_angle_gamma   60.00000000
_symmetry_Int_Tables_number   1
_chemical_formula_structural   NaAs2
_chemical_formula_sum   'Na2 As4'
_cell_volume   135.53939784
_cell_formula_units_Z   2
loop_
 _symmetry_equiv_pos_site_id
 _symmetry_equiv_pos_as_xyz
  1  'x, y, z'
loop_
 _atom_site_type_symbol
 _atom_site_label
 _atom_site_symmetry_multiplicity
 _atom_site_fract_x
 _atom_site_fract_y
 _atom_site_fract_z
 _atom_site_occupancy
  Na  Na0  1  0.50000000  0.50000000  0.50000000  1
  Na  Na1  1  0.75000000  0.75000000  0.75000000  1
  As  As0  1  0.62500000  0.12500000  0.12500000  1
  As  As1  1  0.12500000  0.62500000  0.12500000  1
  As  As2  1  0.12500000  0.12500000  0.62500000  1
  As  As3  1  0.12500000  0.12500000  0.12500000  1
loop_
_geom_bond_atom_site_label_1
_geom_bond_atom_site_label_2
_geom_bond_distance
_geom_bond_site_symmetry_2
As0 As3 2.882904 1_555
As0 As2 2.882904 1_555
As0 As1 2.882904 1_645
As0 As1 2.882904 1_555
As0 As2 2.882904 1_654
As0 As3 2.882904 1_655
As0 Na0 3.380505 1_555
As0 Na1 3.380505 1_554
As0 Na0 3.380505 1_545
As0 Na0 3.380505 1_554
As0 Na1 3.380505 1_545
As0 Na1 3.380505 1_544
As1 As3 2.882904 1_555
As1 As2 2.882904 1_555
As1 As2 2.882904 1_564
As1 As3 2.882904 1_565
As1 Na1 3.380505 1_554
As1 Na0 3.380505 1_455
As1 Na0 3.380505 1_555
As1 Na1 3.380505 1_454
As1 Na0 3.380505 1_554
As1 Na1 3.380505 1_455
As2 As3 2.882904 1_555
As2 As3 2.882904 1_556
As2 Na0 3.380505 1_545
As2 Na0 3.380505 1_455
As2 Na1 3.380505 1_545
As2 Na1 3.380505 1_455
As2 Na0 3.380505 1_555
As2 Na1 3.380505 1_445
As3 Na1 3.380505 1_454
As3 Na0 3.380505 1_545
As3 Na0 3.380505 1_554
As3 Na1 3.380505 1_445
As3 Na0 3.380505 1_455
As3 Na1 3.380505 1_544
