# generated using pymatgen
data_CaV4(PO5)4
_symmetry_space_group_name_H-M   'P 1'
_cell_length_a   5.40163619
_cell_length_b   10.35144988
_cell_length_c   7.35255462
_cell_angle_alpha   69.90680222
_cell_angle_beta   68.44278803
_cell_angle_gamma   75.06135658
_symmetry_Int_Tables_number   1
_chemical_formula_structural   CaV4(PO5)4
_chemical_formula_sum   'Ca1 V4 P4 O20'
_cell_volume   354.99063306
_cell_formula_units_Z   1
loop_
 _symmetry_equiv_pos_site_id
 _symmetry_equiv_pos_as_xyz
  1  'x, y, z'
loop_
 _atom_site_type_symbol
 _atom_site_label
 _atom_site_symmetry_multiplicity
 _atom_site_fract_x
 _atom_site_fract_y
 _atom_site_fract_z
 _atom_site_occupancy
  Ca  Ca0  1  0.50000000  0.75000000  0.25000000  1
  V  V0  1  0.03226500  0.49132500  0.99989900  1
  V  V1  1  0.00000000  0.75000000  0.25000000  1
  V  V2  1  0.50000000  0.24999900  0.75000000  1
  V  V3  1  0.96773600  0.00867500  0.50010100  1
  P  P0  1  0.60894500  0.06553200  0.18834000  1
  P  P1  1  0.39105600  0.43446900  0.31166000  1
  P  P2  1  0.36036900  0.94547400  0.79414800  1
  P  P3  1  0.63963200  0.55452700  0.70585200  1
  O  O0  1  0.30354600  0.06743000  0.30286600  1
  O  O1  1  0.23496500  0.39789200  0.20395400  1
  O  O2  1  0.06517100  0.84513200  0.39030500  1
  O  O3  1  0.30638300  0.83137500  0.00038100  1
  O  O4  1  0.26113400  0.58046200  0.34613700  1
  O  O5  1  0.30343400  0.09104500  0.82628000  1
  O  O6  1  0.37155100  0.32739800  0.52255600  1
  O  O7  1  0.17561000  0.35067800  0.90753500  1
  O  O8  1  0.76503600  0.10210800  0.29604600  1
  O  O9  1  0.17786300  0.92832200  0.68435300  1
  O  O10  1  0.69645500  0.43257000  0.19713500  1
  O  O11  1  0.33592000  0.58851000  0.82478700  1
  O  O12  1  0.82438900  0.14932200  0.59246600  1
  O  O13  1  0.62844800  0.17260200  0.97744500  1
  O  O14  1  0.82213700  0.57167900  0.81564700  1
  O  O15  1  0.73886700  0.91953700  0.15386300  1
  O  O16  1  0.69361700  0.66862600  0.49961900  1
  O  O17  1  0.93483100  0.65486700  0.10969500  1
  O  O18  1  0.66408100  0.91148900  0.67521200  1
  O  O19  1  0.69656700  0.40895500  0.67372000  1
loop_
_geom_bond_atom_site_label_1
_geom_bond_atom_site_label_2
_geom_bond_distance
_geom_bond_site_symmetry_2
Ca0 O15 2.211151 1_555
Ca0 O4 2.211156 1_555
Ca0 O3 2.250760 1_555
Ca0 O16 2.250760 1_555
Ca0 O2 2.296883 1_555
Ca0 O17 2.296895 1_555
O0 P0 1.550699 1_555
O0 V3 1.947552 1_455
O1 P1 1.530573 1_555
O1 V0 2.012313 1_554
O2 V1 1.816993 1_555
O2 V3 1.990494 1_465
O3 P2 1.549639 1_554
O3 V1 2.059452 1_555
O4 P1 1.557660 1_555
O4 V1 2.042858 1_555
O5 P2 1.540566 1_545
O5 V2 1.994575 1_555
O6 P1 1.550241 1_555
O6 V2 1.888212 1_555
O7 V0 1.700619 1_555
O7 V2 1.973458 1_555
O8 P0 1.530567 1_555
O8 V3 2.012313 1_555
O9 P2 1.558405 1_555
O9 V3 1.919477 1_465
O10 P1 1.550697 1_555
O10 V0 1.947554 1_654
O11 P3 1.561863 1_555
O11 V0 1.941388 1_555
O12 V3 1.700624 1_555
O12 V2 1.973442 1_555
O13 P0 1.550233 1_556
O13 V2 1.888215 1_555
O14 P3 1.558401 1_555
O14 V0 1.919482 1_655
O15 P0 1.557678 1_565
O15 V1 2.042849 1_655
O16 P3 1.549639 1_555
O16 V1 2.059449 1_655
O17 V1 1.816995 1_655
O17 V0 1.990485 1_654
O18 P2 1.561868 1_555
O18 V3 1.941392 1_565
O19 P3 1.540576 1_555
O19 V2 1.994596 1_555
