# generated using pymatgen
data_Li7Mn4CoO12
_symmetry_space_group_name_H-M   'P 1'
_cell_length_a   5.07880900
_cell_length_b   5.94072470
_cell_length_c   7.77047454
_cell_angle_alpha   102.56010392
_cell_angle_beta   96.21741337
_cell_angle_gamma   106.11551969
_symmetry_Int_Tables_number   1
_chemical_formula_structural   Li7Mn4CoO12
_chemical_formula_sum   'Li7 Mn4 Co1 O12'
_cell_volume   216.26057524
_cell_formula_units_Z   1
loop_
 _symmetry_equiv_pos_site_id
 _symmetry_equiv_pos_as_xyz
  1  'x, y, z'
loop_
 _atom_site_type_symbol
 _atom_site_label
 _atom_site_symmetry_multiplicity
 _atom_site_fract_x
 _atom_site_fract_y
 _atom_site_fract_z
 _atom_site_occupancy
  Li  Li0  1  0.49387300  0.08498400  0.83918400  1
  Li  Li1  1  0.51060700  0.58087700  0.84434900  1
  Li  Li2  1  0.50838600  0.25115300  0.49724300  1
  Li  Li3  1  0.49165700  0.74729200  0.49565700  1
  Li  Li4  1  0.49290300  0.42413300  0.15742800  1
  Li  Li5  1  0.50329600  0.91204900  0.16561900  1
  Li  Li6  1  0.00128300  0.50159700  0.00214200  1
  Mn  Mn0  1  0.99588700  0.99591100  0.00186600  1
  Mn  Mn1  1  0.00018000  0.16890500  0.66997200  1
  Mn  Mn2  1  0.99800200  0.66263300  0.67046400  1
  Mn  Mn3  1  0.00596300  0.34226400  0.32921400  1
  Co  Co0  1  0.99937400  0.82664100  0.32416700  1
  O  O0  1  0.22064300  0.79589100  0.90786400  1
  O  O1  1  0.21980000  0.26286900  0.90984300  1
  O  O2  1  0.21458500  0.94255800  0.59175400  1
  O  O3  1  0.23222600  0.47323400  0.57407600  1
  O  O4  1  0.23070000  0.13835900  0.23753500  1
  O  O5  1  0.23477900  0.60797500  0.25831900  1
  O  O6  1  0.77735000  0.38460200  0.73929700  1
  O  O7  1  0.76489200  0.85729800  0.76110100  1
  O  O8  1  0.77458300  0.53372300  0.42670200  1
  O  O9  1  0.78541800  0.06844000  0.42183900  1
  O  O10  1  0.76716000  0.73347800  0.07972200  1
  O  O11  1  0.77645500  0.20313500  0.09464200  1
loop_
_geom_bond_atom_site_label_1
_geom_bond_atom_site_label_2
_geom_bond_distance
_geom_bond_site_symmetry_2
Li0 O1 2.021282 1_555
Li0 O0 2.096664 1_545
Li0 O2 2.111863 1_545
Li0 O11 2.170360 1_556
Li0 O7 2.224834 1_545
Li0 O6 2.294283 1_555
Li1 O10 1.992894 1_556
Li1 O7 2.061207 1_555
Li1 O6 2.136295 1_555
Li1 O0 2.229681 1_555
Li1 O1 2.245310 1_555
Li1 O3 2.255954 1_555
Li2 O6 2.055710 1_555
Li2 O8 2.060823 1_555
Li2 O9 2.061777 1_555
Li2 O4 2.186619 1_555
Li2 O3 2.220429 1_555
Li2 O2 2.330466 1_545
Li3 O5 2.000949 1_555
Li3 O3 2.042693 1_555
Li3 O2 2.154186 1_555
Li3 O8 2.201088 1_555
Li3 O7 2.213037 1_555
Li3 O9 2.296950 1_565
Li4 O5 2.042329 1_555
Li4 O1 2.103710 1_554
Li4 O4 2.104073 1_555
Li4 O10 2.219403 1_555
Li4 O11 2.226843 1_555
Li4 O8 2.256247 1_555
Li5 O10 2.010425 1_555
Li5 O11 2.113740 1_565
Li5 O9 2.172250 1_565
Li5 O0 2.185097 1_554
Li5 O4 2.216007 1_565
Li5 O5 2.247870 1_555
Li6 O5 2.072135 1_555
Li6 O1 2.088346 1_554
Li6 O10 2.092444 1_455
Li6 O6 2.094922 1_454
Li6 O0 2.118258 1_554
Li6 O11 2.138313 1_455
Mn0 O10 1.924341 1_555
Mn0 O4 1.945395 1_665
Mn0 O0 1.950545 1_654
Mn0 O11 1.956248 1_565
Mn0 O7 1.967939 1_554
Mn0 O1 1.996960 1_664
Mn1 O1 1.944582 1_555
Mn1 O6 1.962097 1_455
Mn1 O9 1.986480 1_455
Mn1 O2 1.990994 1_545
Mn1 O3 2.192280 1_555
Mn1 O7 2.209434 1_445
Mn2 O0 1.929858 1_655
Mn2 O6 1.938184 1_555
Mn2 O3 1.952329 1_655
Mn2 O7 1.954873 1_555
Mn2 O8 1.970525 1_555
Mn2 O2 1.980417 1_655
Mn3 O5 1.908978 1_555
Mn3 O11 1.927153 1_455
Mn3 O8 1.951557 1_455
Mn3 O4 1.961123 1_555
Mn3 O3 1.983010 1_555
Mn3 O9 2.022663 1_455
Co0 O10 2.000085 1_555
Co0 O5 2.020970 1_655
Co0 O9 2.095530 1_565
Co0 O2 2.111733 1_655
Co0 O8 2.159503 1_555
Co0 O4 2.183670 1_665
