# generated using pymatgen
data_ErNiSn4
_symmetry_space_group_name_H-M   'P 1'
_cell_length_a   14.33099466
_cell_length_b   14.33099466
_cell_length_c   4.46915800
_cell_angle_alpha   90.00000000
_cell_angle_beta   90.00000000
_cell_angle_gamma   162.16614988
_symmetry_Int_Tables_number   1
_chemical_formula_structural   ErNiSn4
_chemical_formula_sum   'Er2 Ni2 Sn8'
_cell_volume   281.10300419
_cell_formula_units_Z   2
loop_
 _symmetry_equiv_pos_site_id
 _symmetry_equiv_pos_as_xyz
  1  'x, y, z'
loop_
 _atom_site_type_symbol
 _atom_site_label
 _atom_site_symmetry_multiplicity
 _atom_site_fract_x
 _atom_site_fract_y
 _atom_site_fract_z
 _atom_site_occupancy
  Er  Er0  1  0.80694100  0.19305900  0.50000000  1
  Er  Er1  1  0.19305900  0.80694100  0.50000000  1
  Ni  Ni0  1  0.55121300  0.44878700  0.00000000  1
  Ni  Ni1  1  0.44878700  0.55121300  0.00000000  1
  Sn  Sn0  1  0.60835100  0.39164900  0.50000000  1
  Sn  Sn1  1  0.39164900  0.60835100  0.50000000  1
  Sn  Sn2  1  0.71378000  0.28622000  0.00000000  1
  Sn  Sn3  1  0.28622000  0.71378000  0.00000000  1
  Sn  Sn4  1  0.89091600  0.10908400  0.00000000  1
  Sn  Sn5  1  0.10908400  0.89091600  0.00000000  1
  Sn  Sn6  1  0.00000000  0.00000000  0.00000000  1
  Sn  Sn7  1  0.50000000  0.50000000  0.50000000  1
loop_
_geom_bond_atom_site_label_1
_geom_bond_atom_site_label_2
_geom_bond_distance
_geom_bond_site_symmetry_2
Er0 Sn3 3.204985 1_545
Er0 Sn3 3.204985 1_546
Er0 Sn3 3.204985 1_656
Er0 Sn3 3.204985 1_655
Er0 Sn4 3.263017 1_556
Er0 Sn4 3.263017 1_555
Er0 Sn1 3.269160 1_545
Er0 Sn1 3.269160 1_655
Er0 Sn2 3.457152 1_555
Er0 Sn2 3.457152 1_556
Er1 Sn2 3.204985 1_455
Er1 Sn2 3.204985 1_456
Er1 Sn2 3.204985 1_565
Er1 Sn2 3.204985 1_566
Er1 Sn5 3.263017 1_555
Er1 Sn5 3.263017 1_556
Er1 Sn0 3.269160 1_455
Er1 Sn0 3.269160 1_565
Er1 Sn3 3.457152 1_555
Er1 Sn3 3.457152 1_556
Ni0 Sn6 2.652772 1_665
Ni0 Sn6 2.652772 1_555
Ni0 Sn7 2.663871 1_555
Ni0 Sn7 2.663871 1_554
Ni0 Sn0 2.758791 1_554
Ni0 Sn0 2.758791 1_555
Ni0 Sn5 2.760346 1_655
Ni0 Sn5 2.760346 1_545
Ni1 Sn6 2.652772 1_665
Ni1 Sn6 2.652772 1_555
Ni1 Sn7 2.663871 1_555
Ni1 Sn7 2.663871 1_554
Ni1 Sn1 2.758791 1_555
Ni1 Sn1 2.758791 1_554
Ni1 Sn4 2.760346 1_565
Ni1 Sn4 2.760346 1_455
Sn0 Sn7 3.068022 1_555
Sn0 Sn5 3.150890 1_655
Sn0 Sn5 3.150890 1_545
Sn0 Sn5 3.150890 1_656
Sn0 Sn5 3.150890 1_546
Sn1 Sn7 3.068022 1_555
Sn1 Sn4 3.150890 1_455
Sn1 Sn4 3.150890 1_565
Sn1 Sn4 3.150890 1_566
Sn1 Sn4 3.150890 1_456
Sn2 Sn3 3.023521 1_545
Sn2 Sn3 3.023521 1_655
Sn4 Sn6 3.088777 1_655
Sn5 Sn6 3.088777 1_565
