# generated using pymatgen
data_PbWO2
_symmetry_space_group_name_H-M   'P 1'
_cell_length_a   7.89100545
_cell_length_b   7.89100545
_cell_length_c   7.89100545
_cell_angle_alpha   131.08620426
_cell_angle_beta   131.08620426
_cell_angle_gamma   71.67615433
_symmetry_Int_Tables_number   1
_chemical_formula_structural   PbWO2
_chemical_formula_sum   'Pb4 W4 O8'
_cell_volume   273.10046393
_cell_formula_units_Z   4
loop_
 _symmetry_equiv_pos_site_id
 _symmetry_equiv_pos_as_xyz
  1  'x, y, z'
loop_
 _atom_site_type_symbol
 _atom_site_label
 _atom_site_symmetry_multiplicity
 _atom_site_fract_x
 _atom_site_fract_y
 _atom_site_fract_z
 _atom_site_occupancy
  Pb  Pb0  1  0.87500000  0.62500000  0.25000000  1
  Pb  Pb1  1  0.37500000  0.62500000  0.75000000  1
  Pb  Pb2  1  0.37500000  0.62500000  0.25000000  1
  Pb  Pb3  1  0.37500000  0.12500000  0.75000000  1
  W  W0  1  0.37500000  0.12500000  0.25000000  1
  W  W1  1  0.87500000  0.12500000  0.75000000  1
  W  W2  1  0.87500000  0.12500000  0.25000000  1
  W  W3  1  0.87500000  0.62500000  0.75000000  1
  O  O0  1  0.17556500  0.37517500  0.19961000  1
  O  O1  1  0.17556500  0.97595500  0.80039000  1
  O  O2  1  0.12517500  0.42556500  0.69961000  1
  O  O3  1  0.57443500  0.87482500  0.30039000  1
  O  O4  1  0.72595500  0.42556500  0.30039000  1
  O  O5  1  0.57443500  0.27404500  0.69961000  1
  O  O6  1  0.62482500  0.82443500  0.80039000  1
  O  O7  1  0.02404500  0.82443500  0.19961000  1
loop_
_geom_bond_atom_site_label_1
_geom_bond_atom_site_label_2
_geom_bond_distance
_geom_bond_site_symmetry_2
O0 W1 2.188097 1_454
O0 W0 2.188097 1_555
O0 Pb2 2.572741 1_555
O0 Pb1 2.634198 1_555
O0 Pb0 2.634198 1_455
O1 W1 2.188097 1_465
O1 W0 2.188097 1_566
O1 Pb3 2.572741 1_565
O1 Pb1 2.634198 1_555
O1 Pb0 2.634198 1_455
O2 W2 2.188097 1_455
O2 W3 2.188097 1_455
O2 Pb1 2.572741 1_555
O2 Pb3 2.634198 1_555
O2 Pb2 2.634198 1_556
O3 W1 2.188097 1_565
O3 W0 2.188097 1_565
O3 Pb2 2.572741 1_555
O3 Pb1 2.634198 1_554
O3 Pb0 2.634198 1_555
O4 W2 2.188097 1_555
O4 W3 2.188097 1_555
O4 Pb0 2.572741 1_555
O4 Pb3 2.634198 1_554
O4 Pb2 2.634198 1_555
O5 W1 2.188097 1_555
O5 W0 2.188097 1_555
O5 Pb3 2.572741 1_555
O5 Pb1 2.634198 1_555
O5 Pb0 2.634198 1_556
O6 W2 2.188097 1_566
O6 W3 2.188097 1_555
O6 Pb1 2.572741 1_555
O6 Pb3 2.634198 1_565
O6 Pb2 2.634198 1_555
O7 W3 2.188097 1_454
O7 W2 2.188097 1_465
O7 Pb0 2.572741 1_455
O7 Pb3 2.634198 1_565
O7 Pb2 2.634198 1_555
