# generated using pymatgen
data_SmSn3Ru
_symmetry_space_group_name_H-M   'P 1'
_cell_length_a   9.71524129
_cell_length_b   9.71521403
_cell_length_c   9.71522583
_cell_angle_alpha   89.99995400
_cell_angle_beta   90.00010415
_cell_angle_gamma   90.00009926
_symmetry_Int_Tables_number   1
_chemical_formula_structural   SmSn3Ru
_chemical_formula_sum   'Sm8 Sn24 Ru8'
_cell_volume   916.97789015
_cell_formula_units_Z   8
loop_
 _symmetry_equiv_pos_site_id
 _symmetry_equiv_pos_as_xyz
  1  'x, y, z'
loop_
 _atom_site_type_symbol
 _atom_site_label
 _atom_site_symmetry_multiplicity
 _atom_site_fract_x
 _atom_site_fract_y
 _atom_site_fract_z
 _atom_site_occupancy
  Sm  Sm0  1  0.99998855  0.49995402  0.74999836  1
  Sm  Sm1  1  0.50000960  0.25000172  0.99998307  1
  Sm  Sm2  1  0.74999876  0.00004182  0.50001602  1
  Sm  Sm3  1  0.99998942  0.49995752  0.25000160  1
  Sm  Sm4  1  0.50001382  0.74999843  0.99998600  1
  Sm  Sm5  1  0.25000183  0.00004626  0.50001547  1
  Sm  Sm6  1  0.50001464  0.49995184  0.50001840  1
  Sm  Sm7  1  0.99998594  0.00004838  0.99998140  1
  Sn  Sn0  1  0.81505484  0.34429628  0.50001892  1
  Sn  Sn1  1  0.65568096  0.49994368  0.81506184  1
  Sn  Sn2  1  0.50001044  0.18495640  0.65569301  1
  Sn  Sn3  1  0.18491378  0.65564028  0.50001558  1
  Sn  Sn4  1  0.34433938  0.49994632  0.18491525  1
  Sn  Sn5  1  0.50000954  0.81510242  0.34434738  1
  Sn  Sn6  1  0.81507221  0.65564358  0.50001691  1
  Sn  Sn7  1  0.65567614  0.49994889  0.18491850  1
  Sn  Sn8  1  0.18492182  0.34429729  0.50001529  1
  Sn  Sn9  1  0.34433431  0.49994193  0.81506312  1
  Sn  Sn10  1  0.50000985  0.81509910  0.65567481  1
  Sn  Sn11  1  0.50000915  0.18495048  0.34432824  1
  Sn  Sn12  1  0.31507917  0.00005687  0.84431690  1
  Sn  Sn13  1  0.15567307  0.31504846  0.99998071  1
  Sn  Sn14  1  0.99998876  0.15570462  0.68494254  1
  Sn  Sn15  1  0.68493443  0.00005214  0.15566442  1
  Sn  Sn16  1  0.84433070  0.68490063  0.99998555  1
  Sn  Sn17  1  0.99999136  0.84435987  0.31509101  1
  Sn  Sn18  1  0.31508309  0.00005486  0.15565883  1
  Sn  Sn19  1  0.15565360  0.68490176  0.99998453  1
  Sn  Sn20  1  0.68493731  0.00005586  0.84431763  1
  Sn  Sn21  1  0.84431125  0.31504098  0.99998013  1
  Sn  Sn22  1  0.99999278  0.15569966  0.31507689  1
  Sn  Sn23  1  0.99998780  0.84435720  0.68493218  1
  Ru  Ru0  1  0.75000176  0.25000059  0.75000167  1
  Ru  Ru1  1  0.24999949  0.75000096  0.24999898  1
  Ru  Ru2  1  0.75000001  0.74999683  0.24999531  1
  Ru  Ru3  1  0.24999969  0.24999530  0.74999686  1
  Ru  Ru4  1  0.25000319  0.75000475  0.75000048  1
  Ru  Ru5  1  0.75000541  0.25000358  0.24999969  1
  Ru  Ru6  1  0.24999621  0.24999803  0.25000413  1
  Ru  Ru7  1  0.74999694  0.75000146  0.75000440  1
loop_
_geom_bond_atom_site_label_1
_geom_bond_atom_site_label_2
_geom_bond_distance
_geom_bond_site_symmetry_2
Sm0 Sn13 3.378312 1_655
Sm0 Sn21 3.378317 1_555
Sm0 Sn0 3.378320 1_555
Sm0 Sn8 3.378347 1_655
Sm0 Sn6 3.378384 1_555
Sm0 Sn3 3.378427 1_655
Sm0 Sn16 3.378448 1_555
Sm0 Sn19 3.378472 1_655
Sm0 Sn14 3.403654 1_555
Sm0 Sn1 3.404233 1_555
Sm0 Sn9 3.404597 1_655
Sm0 Sn23 3.405139 1_555
Sm1 Sn9 3.378052 1_555
Sm1 Sn1 3.378053 1_555
Sm1 Sn20 3.378095 1_555
Sm1 Sn12 3.378097 1_555
Sm1 Sn4 3.378129 1_556
Sm1 Sn18 3.378134 1_556
Sm1 Sn7 3.378141 1_556
Sm1 Sn15 3.378170 1_556
Sm1 Sn2 3.404027 1_555
Sm1 Sn21 3.404130 1_555
Sm1 Sn13 3.404479 1_555
Sm1 Sn11 3.404562 1_556
Sm2 Sn2 3.378376 1_555
Sm2 Sn14 3.378380 1_555
Sm2 Sn11 3.378396 1_555
Sm2 Sn23 3.378417 1_545
Sm2 Sn10 3.378441 1_545
Sm2 Sn22 3.378455 1_555
Sm2 Sn5 3.378466 1_545
Sm2 Sn17 3.378482 1_545
Sm2 Sn0 3.403701 1_555
Sm2 Sn20 3.404167 1_555
Sm2 Sn15 3.404647 1_555
Sm2 Sn6 3.405107 1_545
Sm3 Sn8 3.378565 1_655
Sm3 Sn13 3.378602 1_654
Sm3 Sn0 3.378608 1_555
Sm3 Sn21 3.378614 1_554
Sm3 Sn6 3.378616 1_555
Sm3 Sn3 3.378622 1_655
Sm3 Sn16 3.378629 1_554
Sm3 Sn19 3.378667 1_654
Sm3 Sn22 3.403768 1_555
Sm3 Sn7 3.404320 1_555
Sm3 Sn4 3.404678 1_655
Sm3 Sn17 3.405174 1_555
Sm4 Sn7 3.378824 1_556
Sm4 Sn1 3.378844 1_555
Sm4 Sn20 3.378859 1_565
Sm4 Sn15 3.378860 1_566
Sm4 Sn4 3.378877 1_556
Sm4 Sn9 3.378896 1_555
Sm4 Sn18 3.378915 1_566
Sm4 Sn12 3.378928 1_565
Sm4 Sn10 3.404327 1_555
Sm4 Sn16 3.404383 1_555
Sm4 Sn19 3.404793 1_555
Sm4 Sn5 3.404813 1_556
Sm5 Sn2 3.378489 1_555
Sm5 Sn11 3.378494 1_555
Sm5 Sn14 3.378533 1_455
Sm5 Sn22 3.378537 1_455
Sm5 Sn10 3.378600 1_545
Sm5 Sn23 3.378614 1_445
Sm5 Sn17 3.378615 1_445
Sm5 Sn5 3.378624 1_545
Sm5 Sn8 3.403714 1_555
Sm5 Sn12 3.404192 1_555
Sm5 Sn18 3.404728 1_555
Sm5 Sn3 3.405205 1_545
Sm6 Sn2 3.413577 1_555
Sm6 Sn11 3.413698 1_555
Sm6 Sn0 3.413895 1_555
Sm6 Sn1 3.413962 1_555
Sm6 Sn9 3.414039 1_555
Sm6 Sn6 3.414197 1_555
Sm6 Sn8 3.414344 1_555
Sm6 Sn7 3.414438 1_555
Sm6 Sn4 3.414521 1_555
Sm6 Sn3 3.414565 1_555
Sm6 Sn10 3.414823 1_555
Sm6 Sn5 3.414913 1_555
Sm7 Sn21 3.413557 1_555
Sm7 Sn13 3.413671 1_655
Sm7 Sn14 3.413879 1_555
Sm7 Sn20 3.414000 1_555
Sm7 Sn15 3.414113 1_556
Sm7 Sn23 3.414121 1_545
Sm7 Sn22 3.414353 1_556
Sm7 Sn12 3.414396 1_655
Sm7 Sn18 3.414481 1_656
Sm7 Sn17 3.414634 1_546
Sm7 Sn16 3.414820 1_545
Sm7 Sn19 3.414868 1_645
Sn0 Sn6 3.024806 1_555
Sn0 Sn14 3.132525 1_555
Sn0 Sn22 3.132684 1_555
Sn1 Sn9 3.024808 1_555
Sn1 Sn21 3.132541 1_555
Sn1 Sn16 3.132982 1_555
Sn2 Sn20 3.132544 1_555
Sn3 Sn8 3.024764 1_555
Sn4 Sn7 3.024712 1_555
Sn10 Sn5 3.024616 1_555
Sn10 Sn20 3.132963 1_565
Sn10 Sn12 3.132989 1_565
Sn11 Sn2 3.024979 1_555
Sn11 Sn15 3.132752 1_555
Sn11 Sn18 3.132765 1_555
Sn12 Sn18 3.024757 1_556
Sn12 Sn2 3.132559 1_555
Sn13 Sn21 3.024955 1_455
Sn13 Sn9 3.132662 1_555
Sn13 Sn4 3.132807 1_556
Sn14 Sn23 3.024807 1_545
Sn14 Sn8 3.132546 1_655
Sn15 Sn20 3.024804 1_554
Sn15 Sn5 3.133139 1_545
Sn16 Sn19 3.024577 1_655
Sn16 Sn7 3.133034 1_556
Sn17 Sn22 3.024733 1_565
Sn17 Sn6 3.133164 1_555
Sn17 Sn3 3.133193 1_655
Sn18 Sn5 3.133195 1_545
Sn19 Sn9 3.133169 1_555
Sn19 Sn4 3.133220 1_556
Sn21 Sn7 3.132715 1_556
Sn22 Sn8 3.132612 1_655
Sn23 Sn6 3.133068 1_555
Sn23 Sn3 3.133159 1_655
Ru0 Sn1 2.671259 1_555
Ru0 Sn20 2.671264 1_555
Ru0 Sn21 2.671487 1_555
Ru0 Sn0 2.671510 1_555
Ru0 Sn14 2.671568 1_555
Ru0 Sn2 2.671609 1_555
Ru0 Sm0 3.434438 1_555
Ru0 Sm2 3.434469 1_555
Ru0 Sm1 3.434675 1_555
Ru1 Sn5 2.672039 1_555
Ru1 Sn17 2.672040 1_455
Ru1 Sn19 2.672062 1_554
Ru1 Sn3 2.672100 1_555
Ru1 Sn18 2.672353 1_565
Ru1 Sn4 2.672362 1_555
Ru1 Sm4 3.435044 1_554
Ru1 Sm3 3.435216 1_455
Ru1 Sm5 3.435275 1_565
Ru2 Sn5 2.671892 1_555
Ru2 Sn17 2.671909 1_555
Ru2 Sn16 2.671967 1_554
Ru2 Sn6 2.672087 1_555
Ru2 Sn7 2.672230 1_555
Ru2 Sn15 2.672294 1_565
Ru2 Sm4 3.434820 1_554
Ru2 Sm3 3.435052 1_555
Ru2 Sm2 3.435302 1_565
Ru3 Sn12 2.671258 1_555
Ru3 Sn9 2.671347 1_555
Ru3 Sn8 2.671576 1_555
Ru3 Sn13 2.671625 1_555
Ru3 Sn14 2.671746 1_455
Ru3 Sn2 2.671758 1_555
Ru3 Sm5 3.434372 1_555
Ru3 Sm0 3.434648 1_455
Ru3 Sm1 3.434824 1_555
Ru4 Sn19 2.671817 1_555
Ru4 Sn3 2.671840 1_555
Ru4 Sn10 2.671919 1_555
Ru4 Sn23 2.672025 1_455
Ru4 Sn12 2.672241 1_565
Ru4 Sn9 2.672355 1_555
Ru4 Sm4 3.434824 1_555
Ru4 Sm5 3.435030 1_565
Ru4 Sm0 3.435298 1_455
Ru5 Sn7 2.671354 1_555
Ru5 Sn15 2.671403 1_555
Ru5 Sn22 2.671637 1_555
Ru5 Sn11 2.671742 1_555
Ru5 Sn0 2.671813 1_555
Ru5 Sn21 2.671834 1_554
Ru5 Sm3 3.434422 1_555
Ru5 Sm2 3.434697 1_555
Ru5 Sm1 3.434936 1_554
Ru6 Sn18 2.671403 1_555
Ru6 Sn4 2.671442 1_555
Ru6 Sn22 2.671749 1_455
Ru6 Sn8 2.671823 1_555
Ru6 Sn11 2.671861 1_555
Ru6 Sn13 2.671953 1_554
Ru6 Sm5 3.434594 1_555
Ru6 Sm3 3.434623 1_455
Ru6 Sm1 3.435094 1_554
Ru7 Sn16 2.671731 1_555
Ru7 Sn10 2.671766 1_555
Ru7 Sn6 2.671812 1_555
Ru7 Sn23 2.671828 1_555
Ru7 Sn20 2.672216 1_565
Ru7 Sn1 2.672246 1_555
Ru7 Sm4 3.434615 1_555
Ru7 Sm2 3.435045 1_565
Ru7 Sm0 3.435123 1_555
