# generated using pymatgen
data_HfTaNO3
_symmetry_space_group_name_H-M   'P 1'
_cell_length_a   3.52345500
_cell_length_b   3.58958900
_cell_length_c   5.29425100
_cell_angle_alpha   90.00000000
_cell_angle_beta   90.00000000
_cell_angle_gamma   90.00000000
_symmetry_Int_Tables_number   1
_chemical_formula_structural   HfTaNO3
_chemical_formula_sum   'Hf1 Ta1 N1 O3'
_cell_volume   66.96039120
_cell_formula_units_Z   1
loop_
 _symmetry_equiv_pos_site_id
 _symmetry_equiv_pos_as_xyz
  1  'x, y, z'
loop_
 _atom_site_type_symbol
 _atom_site_label
 _atom_site_symmetry_multiplicity
 _atom_site_fract_x
 _atom_site_fract_y
 _atom_site_fract_z
 _atom_site_occupancy
  Hf  Hf0  1  0.00000000  0.00000000  0.23806700  1
  Ta  Ta0  1  0.50000000  0.50000000  0.76067200  1
  N  N0  1  0.50000000  0.00000000  0.92907800  1
  O  O0  1  0.00000000  0.50000000  0.57461000  1
  O  O1  1  0.50000000  0.00000000  0.43836200  1
  O  O2  1  0.00000000  0.50000000  0.05921100  1
loop_
_geom_bond_atom_site_label_1
_geom_bond_atom_site_label_2
_geom_bond_distance
_geom_bond_site_symmetry_2
Hf0 O2 2.029267 1_545
Hf0 O2 2.029267 1_555
Hf0 O1 2.056248 1_455
Hf0 O1 2.056248 1_555
Hf0 N0 2.404109 1_554
Hf0 N0 2.404109 1_454
Hf0 O0 2.529011 1_545
Hf0 O0 2.529011 1_555
N0 Ta0 2.004048 1_555
N0 Ta0 2.004048 1_545
O0 Ta0 2.018421 1_555
O0 Ta0 2.018421 1_455
O1 Ta0 2.476500 1_545
O1 Ta0 2.476500 1_555
O2 Ta0 2.366810 1_554
O2 Ta0 2.366810 1_454
