# generated using pymatgen
data_HoMgPd
_symmetry_space_group_name_H-M   'P 1'
_cell_length_a   7.36201575
_cell_length_b   7.36201575
_cell_length_c   4.07532494
_cell_angle_alpha   90.00000000
_cell_angle_beta   90.00000000
_cell_angle_gamma   120.00001121
_symmetry_Int_Tables_number   1
_chemical_formula_structural   HoMgPd
_chemical_formula_sum   'Ho3 Mg3 Pd3'
_cell_volume   191.28737569
_cell_formula_units_Z   3
loop_
 _symmetry_equiv_pos_site_id
 _symmetry_equiv_pos_as_xyz
  1  'x, y, z'
loop_
 _atom_site_type_symbol
 _atom_site_label
 _atom_site_symmetry_multiplicity
 _atom_site_fract_x
 _atom_site_fract_y
 _atom_site_fract_z
 _atom_site_occupancy
  Ho  Ho0  1  0.58850242  0.00000000  0.00000000  1
  Ho  Ho1  1  0.00000000  0.58850242  -0.00000000  1
  Ho  Ho2  1  0.41149758  0.41149758  -0.00000000  1
  Mg  Mg0  1  0.24351474  0.00000000  0.50000000  1
  Mg  Mg1  1  0.00000000  0.24351474  0.50000000  1
  Mg  Mg2  1  0.75648526  0.75648526  0.50000000  1
  Pd  Pd0  1  0.33333300  0.66666700  0.50000000  1
  Pd  Pd1  1  0.66666700  0.33333300  0.50000000  1
  Pd  Pd2  1  -0.00000000  0.00000000  0.00000000  1
loop_
_geom_bond_atom_site_label_1
_geom_bond_atom_site_label_2
_geom_bond_distance
_geom_bond_site_symmetry_2
Ho0 Pd1 3.015491 1_555
Ho0 Pd1 3.015491 1_554
Ho0 Pd0 3.015492 1_544
Ho0 Pd0 3.015492 1_545
Ho0 Pd2 3.029452 1_655
Ho0 Mg0 3.256175 1_555
Ho0 Mg0 3.256175 1_554
Ho0 Mg1 3.333549 1_654
Ho0 Mg1 3.333549 1_655
Ho0 Mg2 3.333550 1_545
Ho0 Mg2 3.333550 1_544
Ho1 Pd0 3.015491 1_555
Ho1 Pd0 3.015491 1_554
Ho1 Pd1 3.015492 1_454
Ho1 Pd1 3.015492 1_455
Ho1 Pd2 3.029452 1_565
Ho1 Mg1 3.256175 1_554
Ho1 Mg1 3.256175 1_555
Ho1 Mg0 3.333549 1_565
Ho1 Mg0 3.333549 1_564
Ho1 Mg2 3.333550 1_455
Ho1 Mg2 3.333550 1_454
Ho2 Pd0 3.015496 1_555
Ho2 Pd0 3.015496 1_554
Ho2 Pd1 3.015496 1_555
Ho2 Pd1 3.015496 1_554
Ho2 Pd2 3.029451 1_555
Ho2 Mg2 3.256175 1_554
Ho2 Mg2 3.256175 1_555
Ho2 Mg0 3.333550 1_555
Ho2 Mg0 3.333550 1_554
Ho2 Mg1 3.333550 1_554
Ho2 Mg1 3.333550 1_555
Mg0 Pd2 2.714048 1_555
Mg0 Pd2 2.714048 1_556
Mg0 Pd0 2.842898 1_545
Mg0 Pd1 2.842902 1_555
Mg0 Mg2 3.105150 1_445
Mg0 Mg1 3.105150 1_555
Mg1 Pd2 2.714048 1_555
Mg1 Pd2 2.714048 1_556
Mg1 Pd1 2.842898 1_455
Mg1 Pd0 2.842902 1_555
Mg1 Mg2 3.105150 1_445
Mg2 Pd2 2.714047 1_665
Mg2 Pd2 2.714047 1_666
Mg2 Pd1 2.842905 1_555
Mg2 Pd0 2.842905 1_555
