# generated using pymatgen
data_Sr3Zr3N5
_symmetry_space_group_name_H-M   'P 1'
_cell_length_a   6.08122570
_cell_length_b   8.40140762
_cell_length_c   9.12832095
_cell_angle_alpha   110.20769752
_cell_angle_beta   101.64015240
_cell_angle_gamma   103.01915358
_symmetry_Int_Tables_number   1
_chemical_formula_structural   Sr3Zr3N5
_chemical_formula_sum   'Sr6 Zr6 N10'
_cell_volume   405.99234916
_cell_formula_units_Z   2
loop_
 _symmetry_equiv_pos_site_id
 _symmetry_equiv_pos_as_xyz
  1  'x, y, z'
loop_
 _atom_site_type_symbol
 _atom_site_label
 _atom_site_symmetry_multiplicity
 _atom_site_fract_x
 _atom_site_fract_y
 _atom_site_fract_z
 _atom_site_occupancy
  Sr  Sr0  1  0.74562600  0.44023000  0.59702900  1
  Sr  Sr1  1  0.25437400  0.55977000  0.40297100  1
  Sr  Sr2  1  0.64740600  0.80556200  0.90222100  1
  Sr  Sr3  1  0.35259400  0.19443800  0.09777900  1
  Sr  Sr4  1  0.72775700  0.68379600  0.25013000  1
  Sr  Sr5  1  0.27224300  0.31620400  0.74987000  1
  Zr  Zr0  1  0.87717800  0.31388900  0.99159900  1
  Zr  Zr1  1  0.12282200  0.68611100  0.00840100  1
  Zr  Zr2  1  0.67149800  0.98591200  0.63786500  1
  Zr  Zr3  1  0.32850200  0.01408800  0.36213500  1
  Zr  Zr4  1  0.10806600  0.86541700  0.70056500  1
  Zr  Zr5  1  0.89193400  0.13458300  0.29943500  1
  N  N0  1  0.99806900  0.09180700  0.84151700  1
  N  N1  1  0.00193100  0.90819300  0.15848300  1
  N  N2  1  0.73280200  0.73568500  0.55894600  1
  N  N3  1  0.26719800  0.26431500  0.44105400  1
  N  N4  1  0.76451100  0.50376100  0.91566100  1
  N  N5  1  0.23548900  0.49623900  0.08433900  1
  N  N6  1  0.27628300  0.89556300  0.52498500  1
  N  N7  1  0.72371700  0.10443700  0.47501500  1
  N  N8  1  0.18207200  0.67083200  0.78246800  1
  N  N9  1  0.81792800  0.32916800  0.21753200  1
loop_
_geom_bond_atom_site_label_1
_geom_bond_atom_site_label_2
_geom_bond_distance
_geom_bond_site_symmetry_2
N0 Zr2 2.182423 1_545
N0 Zr4 2.224948 1_645
N0 Zr0 2.270926 1_555
N0 Sr3 2.568563 1_656
N0 Sr5 2.696330 1_655
N0 Sr2 3.118444 1_545
N1 Zr3 2.182423 1_565
N1 Zr5 2.224948 1_465
N1 Zr1 2.270926 1_555
N1 Sr2 2.568563 1_454
N1 Sr4 2.696330 1_455
N1 Sr3 3.118444 1_565
N2 Zr2 2.119592 1_555
N2 Zr4 2.186877 1_655
N2 Sr0 2.638343 1_555
N2 Sr4 2.692150 1_555
N2 Sr1 2.759270 1_555
N2 Sr2 3.155384 1_555
N3 Zr3 2.119592 1_555
N3 Zr5 2.186877 1_455
N3 Sr1 2.638343 1_555
N3 Sr5 2.692150 1_555
N3 Sr0 2.759270 1_555
N3 Sr3 3.155384 1_555
N4 Zr0 2.135247 1_555
N4 Zr1 2.160375 1_656
N4 Sr0 2.742803 1_555
N4 Sr2 2.818586 1_555
N4 Sr5 2.852007 1_555
N4 Sr4 2.982743 1_556
N5 Zr1 2.135247 1_555
N5 Zr0 2.160375 1_454
N5 Sr1 2.742803 1_555
N5 Sr3 2.818586 1_555
N5 Sr4 2.852007 1_555
N5 Sr5 2.982743 1_554
N6 Zr3 2.091147 1_565
N6 Zr4 2.122434 1_555
N6 Zr2 2.247794 1_555
N6 Sr1 2.610956 1_555
N7 Zr2 2.091147 1_545
N7 Zr5 2.122434 1_555
N7 Zr3 2.247794 1_555
N7 Sr0 2.610956 1_555
N8 Zr4 2.115211 1_555
N8 Zr1 2.130155 1_556
N8 Sr2 2.633955 1_555
N8 Sr0 2.695897 1_455
N8 Sr5 3.074957 1_555
N9 Zr5 2.115211 1_555
N9 Zr0 2.130155 1_554
N9 Sr3 2.633955 1_555
N9 Sr1 2.695897 1_655
N9 Sr4 3.074957 1_555
