# generated using pymatgen
data_Th7Rh3
_symmetry_space_group_name_H-M   'P 1'
_cell_length_a   10.00437234
_cell_length_b   10.00437314
_cell_length_c   6.31534222
_cell_angle_alpha   90.00000000
_cell_angle_beta   90.00000000
_cell_angle_gamma   120.00000080
_symmetry_Int_Tables_number   1
_chemical_formula_structural   Th7Rh3
_chemical_formula_sum   'Th14 Rh6'
_cell_volume   547.40309145
_cell_formula_units_Z   2
loop_
 _symmetry_equiv_pos_site_id
 _symmetry_equiv_pos_as_xyz
  1  'x, y, z'
loop_
 _atom_site_type_symbol
 _atom_site_label
 _atom_site_symmetry_multiplicity
 _atom_site_fract_x
 _atom_site_fract_y
 _atom_site_fract_z
 _atom_site_occupancy
  Th  Th0  1  0.74482741  0.87241371  0.99813887  1
  Th  Th1  1  0.87241371  0.12758629  0.49813887  1
  Th  Th2  1  0.54284981  0.45715019  0.79302732  1
  Th  Th3  1  0.08569962  0.54284981  0.29302732  1
  Th  Th4  1  0.45715019  0.91430038  0.29302732  1
  Th  Th5  1  0.54284981  0.08569962  0.79302732  1
  Th  Th6  1  0.91430038  0.45715019  0.79302732  1
  Th  Th7  1  0.45715019  0.54284981  0.29302732  1
  Th  Th8  1  0.12758629  0.25517259  0.99813887  1
  Th  Th9  1  0.87241371  0.74482741  0.49813887  1
  Th  Th10  1  0.25517259  0.12758629  0.49813887  1
  Th  Th11  1  0.12758629  0.87241371  0.99813887  1
  Th  Th12  1  0.66666700  0.33333300  0.31940852  1
  Th  Th13  1  0.33333300  0.66666700  0.81940852  1
  Rh  Rh0  1  0.18581286  0.81418714  0.54970130  1
  Rh  Rh1  1  0.37162772  0.18581286  0.04970130  1
  Rh  Rh2  1  0.81418714  0.62837228  0.04970130  1
  Rh  Rh3  1  0.18581286  0.37162772  0.54970130  1
  Rh  Rh4  1  0.62837228  0.81418714  0.54970130  1
  Rh  Rh5  1  0.81418714  0.18581286  0.04970130  1
loop_
_geom_bond_atom_site_label_1
_geom_bond_atom_site_label_2
_geom_bond_distance
_geom_bond_site_symmetry_2
Rh0 Th9 2.870958 1_455
Rh0 Th10 2.870958 1_565
Rh0 Th4 2.877628 1_555
Rh0 Th3 2.877628 1_555
Rh0 Th11 3.006397 1_555
Rh0 Th13 3.071738 1_555
Rh1 Th11 2.870964 1_544
Rh1 Th8 2.870978 1_554
Rh1 Th5 2.877613 1_554
Rh1 Th2 2.877626 1_554
Rh1 Th10 3.006403 1_555
Rh1 Th12 3.071731 1_555
Rh2 Th11 2.870964 1_654
Rh2 Th0 2.870978 1_554
Rh2 Th6 2.877613 1_554
Rh2 Th2 2.877626 1_554
Rh2 Th9 3.006403 1_555
Rh2 Th12 3.071731 1_555
Rh3 Th1 2.870964 1_455
Rh3 Th10 2.870978 1_555
Rh3 Th3 2.877613 1_555
Rh3 Th7 2.877626 1_555
Rh3 Th8 3.006403 1_555
Rh3 Th13 3.071731 1_555
Rh4 Th1 2.870964 1_565
Rh4 Th9 2.870978 1_555
Rh4 Th4 2.877613 1_555
Rh4 Th7 2.877626 1_555
Rh4 Th0 3.006403 1_555
Rh4 Th13 3.071731 1_555
Rh5 Th8 2.870958 1_654
Rh5 Th0 2.870958 1_544
Rh5 Th5 2.877628 1_554
Rh5 Th6 2.877628 1_554
Rh5 Th1 3.006397 1_555
Rh5 Th12 3.071738 1_555
