# generated using pymatgen
data_Li8Mn3Cr(PO4)6
_symmetry_space_group_name_H-M   'P 1'
_cell_length_a   9.22579827
_cell_length_b   8.50691152
_cell_length_c   8.38362429
_cell_angle_alpha   60.85958287
_cell_angle_beta   63.69801558
_cell_angle_gamma   91.41887083
_symmetry_Int_Tables_number   1
_chemical_formula_structural   Li8Mn3Cr(PO4)6
_chemical_formula_sum   'Li8 Mn3 Cr1 P6 O24'
_cell_volume   490.28431390
_cell_formula_units_Z   1
loop_
 _symmetry_equiv_pos_site_id
 _symmetry_equiv_pos_as_xyz
  1  'x, y, z'
loop_
 _atom_site_type_symbol
 _atom_site_label
 _atom_site_symmetry_multiplicity
 _atom_site_fract_x
 _atom_site_fract_y
 _atom_site_fract_z
 _atom_site_occupancy
  Li  Li0  1  0.86137000  0.26389500  0.81352700  1
  Li  Li1  1  0.89889400  0.93596700  0.37062400  1
  Li  Li2  1  0.85298000  0.66731100  0.06667300  1
  Li  Li3  1  0.58965400  0.78255300  0.67151100  1
  Li  Li4  1  0.41386400  0.19858500  0.32029100  1
  Li  Li5  1  0.15558200  0.34578200  0.92788000  1
  Li  Li6  1  0.10024700  0.06192800  0.62497200  1
  Li  Li7  1  0.13569500  0.72786800  0.19756000  1
  Mn  Mn0  1  0.96442700  0.64794100  0.69042200  1
  Mn  Mn1  1  0.56124100  0.84839600  0.29009000  1
  Mn  Mn2  1  0.03209200  0.35098100  0.31224300  1
  Cr  Cr0  1  0.44078500  0.14871500  0.70634000  1
  P  P0  1  0.74816400  0.95953800  0.78222000  1
  P  P1  1  0.74733600  0.53797900  0.50821200  1
  P  P2  1  0.75778700  0.25242600  0.20737400  1
  P  P3  1  0.24070800  0.75524200  0.80577200  1
  P  P4  1  0.24724400  0.44472800  0.50044200  1
  P  P5  1  0.25597100  0.05316900  0.19961900  1
  O  O0  1  0.89821100  0.15197100  0.63816300  1
  O  O1  1  0.80105400  0.48352000  0.67379300  1
  O  O2  1  0.79633000  0.84382500  0.67907400  1
  O  O3  1  0.89812800  0.56059700  0.30240800  1
  O  O4  1  0.90504000  0.21281200  0.25924500  1
  O  O5  1  0.72026300  0.73645800  0.43771600  1
  O  O6  1  0.58104500  0.99437600  0.79951400  1
  O  O7  1  0.58483800  0.39332600  0.59723500  1
  O  O8  1  0.80641400  0.46365500  0.03927700  1
  O  O9  1  0.74952500  0.12931000  0.12298600  1
  O  O10  1  0.58413000  0.18588500  0.41164100  1
  O  O11  1  0.73738000  0.85671100  0.99893700  1
  O  O12  1  0.28277000  0.15911500  0.97002100  1
  O  O13  1  0.40862100  0.79599000  0.61387900  1
  O  O14  1  0.26696000  0.88077100  0.88424000  1
  O  O15  1  0.18057000  0.54107500  0.98600900  1
  O  O16  1  0.40481400  0.60601300  0.37919400  1
  O  O17  1  0.41942000  0.03129700  0.19964500  1
  O  O18  1  0.28399100  0.24809600  0.57224000  1
  O  O19  1  0.09803800  0.80137700  0.75390400  1
  O  O20  1  0.10104000  0.42464400  0.70468900  1
  O  O21  1  0.19461100  0.17077600  0.30033400  1
  O  O22  1  0.18199900  0.48317300  0.34368300  1
  O  O23  1  0.11076900  0.86222200  0.33640300  1
loop_
_geom_bond_atom_site_label_1
_geom_bond_atom_site_label_2
_geom_bond_distance
_geom_bond_site_symmetry_2
Li0 O1 1.915795 1_555
Li0 O9 1.944908 1_556
Li0 O0 2.029774 1_555
Li0 O20 2.106849 1_655
Li1 O2 2.004383 1_555
Li1 O5 2.005770 1_555
Li1 O23 2.008933 1_655
Li1 O4 2.055811 1_565
Li2 O8 1.917532 1_555
Li2 O11 1.945928 1_554
Li2 O3 1.975948 1_555
Li2 O19 2.234716 1_654
Li3 O13 1.925306 1_555
Li3 O2 2.000379 1_555
Li3 O5 2.031354 1_555
Li3 O6 2.493952 1_555
Li4 O10 2.014862 1_555
Li4 O17 2.100093 1_555
Li4 O21 2.119053 1_555
Li4 O18 2.173290 1_555
Li5 O20 1.957819 1_555
Li5 O15 1.979843 1_555
Li5 O12 1.984089 1_555
Li5 O4 2.336527 1_456
Li6 O19 1.930422 1_545
Li6 O0 2.010916 1_455
Li6 O18 2.024423 1_555
Li6 O21 2.104420 1_555
Li7 O23 1.945654 1_555
Li7 O14 1.957986 1_554
Li7 O22 2.010121 1_555
Li7 O3 2.126333 1_455
Mn0 O1 2.125876 1_555
Mn0 O19 2.164414 1_655
Mn0 O8 2.186234 1_556
Mn0 O23 2.238853 1_655
Mn0 O20 2.289556 1_655
Mn0 O2 2.301139 1_555
Mn1 O16 2.071102 1_555
Mn1 O17 2.130451 1_565
Mn1 O11 2.216927 1_554
Mn1 O13 2.225552 1_555
Mn1 O9 2.251247 1_565
Mn1 O5 2.263063 1_555
Mn2 O22 1.944609 1_555
Mn2 O4 1.963374 1_455
Mn2 O15 2.057800 1_554
Mn2 O0 2.063526 1_455
Mn2 O21 2.176775 1_555
Mn2 O3 2.184105 1_455
Cr0 O7 1.965970 1_555
Cr0 O6 1.997387 1_545
Cr0 O10 2.067828 1_555
Cr0 O12 2.088240 1_555
Cr0 O14 2.092904 1_545
Cr0 O18 2.155758 1_555
O0 P0 1.592295 1_545
O1 P1 1.543364 1_555
O2 P0 1.557025 1_555
O3 P1 1.576579 1_555
O4 P2 1.597425 1_555
O5 P1 1.562810 1_555
O6 P0 1.533751 1_555
O7 P1 1.530175 1_555
O8 P2 1.532881 1_555
O9 P2 1.539063 1_555
O10 P2 1.549020 1_555
O11 P0 1.537459 1_555
O12 P5 1.567220 1_556
O13 P3 1.526366 1_555
O14 P3 1.563426 1_555
O15 P3 1.560850 1_555
O16 P4 1.504139 1_555
O17 P5 1.524031 1_555
O18 P4 1.582284 1_555
O19 P3 1.562760 1_555
O20 P4 1.561243 1_555
O21 P5 1.568920 1_555
O22 P4 1.577542 1_555
O23 P5 1.569993 1_565
