# generated using pymatgen
data_Eu3Nb
_symmetry_space_group_name_H-M   'P 1'
_cell_length_a   5.90146102
_cell_length_b   5.90146102
_cell_length_c   5.90146102
_cell_angle_alpha   124.08719354
_cell_angle_beta   124.08719354
_cell_angle_gamma   83.05550319
_symmetry_Int_Tables_number   1
_chemical_formula_structural   Eu3Nb
_chemical_formula_sum   'Eu3 Nb1'
_cell_volume   135.26424238
_cell_formula_units_Z   1
loop_
 _symmetry_equiv_pos_site_id
 _symmetry_equiv_pos_as_xyz
  1  'x, y, z'
loop_
 _atom_site_type_symbol
 _atom_site_label
 _atom_site_symmetry_multiplicity
 _atom_site_fract_x
 _atom_site_fract_y
 _atom_site_fract_z
 _atom_site_occupancy
  Eu  Eu0  1  0.75000100  0.25000000  0.50000100  1
  Eu  Eu1  1  0.25000000  0.75000100  0.50000100  1
  Eu  Eu2  1  0.50000000  0.50000000  0.00000000  1
  Nb  Nb0  1  0.00000000  -0.00000000  0.00000000  1
loop_
_geom_bond_atom_site_label_1
_geom_bond_atom_site_label_2
_geom_bond_distance
_geom_bond_site_symmetry_2
Eu0 Nb0 3.540314 1_656
Eu0 Eu2 3.540314 1_656
Eu0 Eu2 3.540319 1_556
Eu0 Eu2 3.540319 1_545
Eu0 Nb0 3.540319 1_666
Eu0 Nb0 3.540319 1_655
Eu0 Nb0 3.540323 1_555
Eu0 Eu2 3.540323 1_555
Eu0 Eu1 3.912559 1_645
Eu0 Eu1 3.912567 1_544
Eu0 Eu1 3.912567 1_656
Eu0 Eu1 3.912575 1_555
Eu1 Nb0 3.540314 1_566
Eu1 Eu2 3.540314 1_566
Eu1 Eu2 3.540319 1_556
Eu1 Eu2 3.540319 1_455
Eu1 Nb0 3.540319 1_666
Eu1 Nb0 3.540319 1_565
Eu1 Nb0 3.540323 1_555
Eu1 Eu2 3.540323 1_555
Eu2 Nb0 3.912567 1_565
Eu2 Nb0 3.912567 1_655
Eu2 Nb0 3.912567 1_554
Eu2 Nb0 3.912567 1_666
