# generated using pymatgen
data_Mg14BW
_symmetry_space_group_name_H-M   'P 1'
_cell_length_a   6.17993330
_cell_length_b   6.17993283
_cell_length_c   9.74992510
_cell_angle_alpha   90.00000000
_cell_angle_beta   90.00000000
_cell_angle_gamma   120.00000251
_symmetry_Int_Tables_number   1
_chemical_formula_structural   Mg14BW
_chemical_formula_sum   'Mg14 B1 W1'
_cell_volume   322.47751813
_cell_formula_units_Z   1
loop_
 _symmetry_equiv_pos_site_id
 _symmetry_equiv_pos_as_xyz
  1  'x, y, z'
loop_
 _atom_site_type_symbol
 _atom_site_label
 _atom_site_symmetry_multiplicity
 _atom_site_fract_x
 _atom_site_fract_y
 _atom_site_fract_z
 _atom_site_occupancy
  Mg  Mg0  1  0.17013893  0.83506897  0.12500000  1
  Mg  Mg1  1  0.16565762  0.83282831  0.62500000  1
  Mg  Mg2  1  0.66493103  0.32986107  0.12500000  1
  Mg  Mg3  1  0.66717169  0.33434238  0.62500000  1
  Mg  Mg4  1  0.66493103  0.83506897  0.12500000  1
  Mg  Mg5  1  0.66717169  0.83282831  0.62500000  1
  Mg  Mg6  1  0.32279557  0.17720443  0.37734795  1
  Mg  Mg7  1  0.32279557  0.17720443  0.87265205  1
  Mg  Mg8  1  0.32279557  0.64559214  0.37734795  1
  Mg  Mg9  1  0.32279557  0.64559214  0.87265205  1
  Mg  Mg10  1  0.85440786  0.17720443  0.37734795  1
  Mg  Mg11  1  0.85440786  0.17720443  0.87265205  1
  Mg  Mg12  1  0.83333300  0.66666700  0.37189792  1
  Mg  Mg13  1  0.83333300  0.66666700  0.87810208  1
  B  B0  1  0.16666700  0.33333300  0.62500000  1
  W  W0  1  0.16666700  0.33333300  0.12500000  1
loop_
_geom_bond_atom_site_label_1
_geom_bond_atom_site_label_2
_geom_bond_distance
_geom_bond_site_symmetry_2
Mg0 Mg12 3.007337 1_455
Mg0 Mg13 3.007337 1_454
Mg0 Mg9 3.069084 1_554
Mg0 Mg8 3.069084 1_555
Mg0 Mg7 3.069091 1_564
Mg0 Mg6 3.069091 1_565
Mg0 W0 3.090022 1_565
Mg0 W0 3.090022 1_555
Mg1 Mg9 3.039053 1_555
Mg1 Mg8 3.039053 1_555
Mg1 Mg6 3.039060 1_565
Mg1 Mg7 3.039060 1_565
Mg1 Mg12 3.041886 1_455
Mg1 Mg13 3.041886 1_455
Mg2 Mg6 3.069091 1_555
Mg2 Mg7 3.069091 1_554
Mg2 W0 3.090022 1_555
Mg2 W0 3.090023 1_655
Mg3 Mg6 3.039060 1_555
Mg3 Mg7 3.039060 1_555
Mg4 Mg8 3.069090 1_555
Mg4 Mg9 3.069090 1_554
Mg4 W0 3.090022 1_555
Mg4 W0 3.090022 1_665
Mg5 Mg9 3.039060 1_555
Mg5 Mg8 3.039060 1_555
Mg6 Mg8 2.894605 1_555
Mg6 W0 2.974277 1_555
Mg6 Mg8 3.285328 1_545
Mg7 Mg9 2.894605 1_555
Mg7 W0 2.974277 1_556
Mg7 Mg9 3.285328 1_545
Mg8 W0 2.974283 1_555
Mg9 W0 2.974283 1_556
Mg10 Mg8 2.894605 1_655
Mg10 Mg6 2.894605 1_655
Mg10 W0 2.974284 1_655
Mg10 Mg3 3.039053 1_555
Mg10 Mg5 3.039059 1_545
Mg10 Mg2 3.069084 1_555
Mg10 Mg4 3.069090 1_545
Mg10 Mg12 3.092481 1_545
Mg10 Mg12 3.092481 1_555
Mg10 Mg8 3.285328 1_545
Mg10 Mg6 3.285328 1_555
Mg11 Mg9 2.894605 1_655
Mg11 Mg7 2.894605 1_655
Mg11 W0 2.974284 1_656
Mg11 Mg3 3.039053 1_555
Mg11 Mg5 3.039059 1_545
Mg11 Mg2 3.069084 1_556
Mg11 Mg4 3.069090 1_546
Mg11 Mg13 3.092481 1_545
Mg11 Mg13 3.092481 1_555
Mg11 Mg9 3.285328 1_545
Mg11 Mg7 3.285328 1_555
Mg12 Mg4 3.007330 1_555
Mg12 Mg2 3.007337 1_555
Mg12 Mg5 3.041880 1_555
Mg12 Mg3 3.041886 1_555
Mg12 Mg6 3.092481 1_665
Mg12 Mg6 3.092481 1_555
Mg12 Mg8 3.092481 1_655
Mg12 Mg8 3.092481 1_555
Mg13 Mg4 3.007330 1_556
Mg13 Mg2 3.007337 1_556
Mg13 Mg5 3.041880 1_555
Mg13 Mg3 3.041886 1_555
Mg13 Mg7 3.092481 1_665
Mg13 Mg7 3.092481 1_555
Mg13 Mg9 3.092481 1_555
Mg13 Mg9 3.092481 1_655
B0 Mg6 2.936516 1_555
B0 Mg7 2.936516 1_555
B0 Mg8 2.936522 1_555
B0 Mg9 2.936522 1_555
B0 Mg10 2.936522 1_455
B0 Mg11 2.936522 1_455
