# generated using pymatgen
data_LiV3O4
_symmetry_space_group_name_H-M   'P 1'
_cell_length_a   5.27939931
_cell_length_b   6.09604431
_cell_length_c   5.28206643
_cell_angle_alpha   89.96596996
_cell_angle_beta   110.24500933
_cell_angle_gamma   90.03284500
_symmetry_Int_Tables_number   1
_chemical_formula_structural   LiV3O4
_chemical_formula_sum   'Li2 V6 O8'
_cell_volume   159.49304432
_cell_formula_units_Z   2
loop_
 _symmetry_equiv_pos_site_id
 _symmetry_equiv_pos_as_xyz
  1  'x, y, z'
loop_
 _atom_site_type_symbol
 _atom_site_label
 _atom_site_symmetry_multiplicity
 _atom_site_fract_x
 _atom_site_fract_y
 _atom_site_fract_z
 _atom_site_occupancy
  Li  Li0  1  0.00000100  0.99997800  0.99999800  1
  Li  Li1  1  0.50000100  0.50001700  0.49999900  1
  V  V0  1  0.49992100  0.75413500  0.00003600  1
  V  V1  1  0.00005700  0.24694500  0.49993600  1
  V  V2  1  0.99993500  0.75305100  0.50007000  1
  V  V3  1  0.50008200  0.24587100  0.99996500  1
  V  V4  1  0.49999500  0.00002000  0.50000300  1
  V  V5  1  0.00000600  0.49995700  0.00000500  1
  O  O0  1  0.75416600  0.25828000  0.75553000  1
  O  O1  1  0.24586200  0.74171600  0.24446300  1
  O  O2  1  0.24590100  0.25824300  0.24435600  1
  O  O3  1  0.75407100  0.74174900  0.75564600  1
  O  O4  1  0.25140300  0.99991800  0.75213000  1
  O  O5  1  0.76020100  0.49994100  0.23562900  1
  O  O6  1  0.23979800  0.50022000  0.76436700  1
  O  O7  1  0.74859900  0.99996000  0.24786700  1
loop_
_geom_bond_atom_site_label_1
_geom_bond_atom_site_label_2
_geom_bond_distance
_geom_bond_site_symmetry_2
Li0 O3 2.161007 1_455
Li0 O2 2.161117 1_566
Li0 O1 2.161210 1_556
Li0 O0 2.161340 1_465
Li0 O4 2.162953 1_555
Li0 O7 2.162957 1_456
Li1 O1 2.130616 1_555
Li1 O0 2.130821 1_555
Li1 O3 2.130894 1_555
Li1 O2 2.131128 1_555
Li1 O5 2.272579 1_555
Li1 O6 2.272584 1_555
O0 V5 2.088718 1_656
O0 V3 2.161130 1_555
O0 V1 2.173889 1_655
O0 V4 2.201732 1_555
O1 V5 2.089069 1_555
O1 V0 2.160989 1_555
O1 V2 2.174100 1_455
O1 V4 2.201872 1_565
O2 V5 2.088699 1_555
O2 V3 2.161465 1_554
O2 V1 2.173521 1_555
O2 V4 2.201618 1_555
O3 V5 2.089138 1_656
O3 V0 2.161328 1_556
O3 V2 2.173590 1_555
O3 V4 2.201781 1_565
O4 V0 2.119415 1_556
O4 V3 2.120377 1_565
O4 V2 2.139325 1_455
O4 V1 2.139997 1_565
O4 V4 2.169241 1_565
O5 V5 2.059680 1_655
O5 V3 2.156626 1_554
O5 V0 2.157476 1_555
O5 V1 2.169648 1_655
O5 V2 2.170370 1_555
O6 V5 2.059684 1_556
O6 V0 2.155966 1_556
O6 V3 2.158173 1_555
O6 V2 2.168923 1_455
O6 V1 2.171075 1_555
O7 V0 2.119814 1_555
O7 V3 2.119956 1_564
O7 V2 2.139489 1_555
O7 V1 2.139829 1_665
O7 V4 2.169333 1_565
