# generated using pymatgen
data_Sr3MoO6
_symmetry_space_group_name_H-M   'P 1'
_cell_length_a   6.07445454
_cell_length_b   6.07445454
_cell_length_c   6.07445454
_cell_angle_alpha   60.00000000
_cell_angle_beta   60.00000000
_cell_angle_gamma   60.00000000
_symmetry_Int_Tables_number   1
_chemical_formula_structural   Sr3MoO6
_chemical_formula_sum   'Sr3 Mo1 O6'
_cell_volume   158.49182335
_cell_formula_units_Z   1
loop_
 _symmetry_equiv_pos_site_id
 _symmetry_equiv_pos_as_xyz
  1  'x, y, z'
loop_
 _atom_site_type_symbol
 _atom_site_label
 _atom_site_symmetry_multiplicity
 _atom_site_fract_x
 _atom_site_fract_y
 _atom_site_fract_z
 _atom_site_occupancy
  Sr  Sr0  1  0.25000000  0.25000000  0.25000000  1
  Sr  Sr1  1  0.75000000  0.75000000  0.75000000  1
  Sr  Sr2  1  0.50000000  0.50000000  0.50000000  1
  Mo  Mo0  1  0.00000000  0.00000000  0.00000000  1
  O  O0  1  0.77439700  0.22560300  0.22560300  1
  O  O1  1  0.22560300  0.77439700  0.77439700  1
  O  O2  1  0.22560300  0.77439700  0.22560300  1
  O  O3  1  0.77439700  0.22560300  0.77439700  1
  O  O4  1  0.22560300  0.22560300  0.77439700  1
  O  O5  1  0.77439700  0.77439700  0.22560300  1
loop_
_geom_bond_atom_site_label_1
_geom_bond_atom_site_label_2
_geom_bond_distance
_geom_bond_site_symmetry_2
Mo0 O3 1.938060 1_454
Mo0 O1 1.938060 1_544
Mo0 O0 1.938060 1_455
Mo0 O5 1.938060 1_445
Mo0 O2 1.938060 1_545
Mo0 O4 1.938060 1_554
O0 Sr2 2.357228 1_555
O0 Sr1 3.044450 1_554
O0 Sr0 3.044450 1_655
O0 Sr1 3.044450 1_545
O0 Sr0 3.044450 1_555
O1 Sr2 2.357228 1_555
O1 Sr1 3.044450 1_455
O1 Sr1 3.044450 1_555
O1 Sr0 3.044450 1_565
O1 Sr0 3.044450 1_556
O2 Sr2 2.357228 1_555
O2 Sr1 3.044450 1_554
O2 Sr1 3.044450 1_455
O2 Sr0 3.044450 1_565
O2 Sr0 3.044450 1_555
O3 Sr2 2.357228 1_555
O3 Sr1 3.044450 1_555
O3 Sr0 3.044450 1_655
O3 Sr1 3.044450 1_545
O3 Sr0 3.044450 1_556
O4 Sr2 2.357228 1_555
O4 Sr1 3.044450 1_455
O4 Sr1 3.044450 1_545
O4 Sr0 3.044450 1_555
O4 Sr0 3.044450 1_556
O5 Sr2 2.357228 1_555
O5 Sr1 3.044450 1_554
O5 Sr1 3.044450 1_555
O5 Sr0 3.044450 1_565
O5 Sr0 3.044450 1_655
