# generated using pymatgen
data_SmB7ClO18
_symmetry_space_group_name_H-M   'P 1'
_cell_length_a   8.31945700
_cell_length_b   16.74330600
_cell_length_c   12.93679810
_cell_angle_alpha   90.00000000
_cell_angle_beta   129.91990628
_cell_angle_gamma   90.00000000
_symmetry_Int_Tables_number   1
_chemical_formula_structural   SmB7ClO18
_chemical_formula_sum   'Sm4 B28 Cl4 O72'
_cell_volume   1382.05605350
_cell_formula_units_Z   4
loop_
 _symmetry_equiv_pos_site_id
 _symmetry_equiv_pos_as_xyz
  1  'x, y, z'
loop_
 _atom_site_type_symbol
 _atom_site_label
 _atom_site_symmetry_multiplicity
 _atom_site_fract_x
 _atom_site_fract_y
 _atom_site_fract_z
 _atom_site_occupancy
  Sm  Sm0  1  0.02286500  0.70719800  0.28105700  1
  Sm  Sm1  1  0.02286500  0.79280200  0.78105700  1
  Sm  Sm2  1  0.97713500  0.29280200  0.71894300  1
  Sm  Sm3  1  0.97713500  0.20719800  0.21894300  1
  B  B0  1  0.49904400  0.69843400  0.66055600  1
  B  B1  1  0.49904400  0.80156600  0.16055600  1
  B  B2  1  0.50095600  0.30156600  0.33944400  1
  B  B3  1  0.50095600  0.19843400  0.83944400  1
  B  B4  1  0.39682000  0.71056800  0.27985100  1
  B  B5  1  0.39682000  0.78943200  0.77985100  1
  B  B6  1  0.60318000  0.28943200  0.72014900  1
  B  B7  1  0.60318000  0.21056800  0.22014900  1
  B  B8  1  0.76263600  0.71447300  0.92014500  1
  B  B9  1  0.76263600  0.78552700  0.42014500  1
  B  B10  1  0.23736400  0.28552700  0.07985500  1
  B  B11  1  0.23736400  0.21447300  0.57985500  1
  B  B12  1  0.59658100  0.75818000  0.02108000  1
  B  B13  1  0.59658100  0.74182000  0.52108000  1
  B  B14  1  0.40341900  0.24182000  0.97892000  1
  B  B15  1  0.40341900  0.25818000  0.47892000  1
  B  B16  1  0.12570500  0.73562600  0.55159000  1
  B  B17  1  0.12570500  0.76437400  0.05159000  1
  B  B18  1  0.87429500  0.26437400  0.44841000  1
  B  B19  1  0.87429500  0.23562600  0.94841000  1
  B  B20  1  0.28702800  0.56611300  0.23108200  1
  B  B21  1  0.28702800  0.93388700  0.73108200  1
  B  B22  1  0.71297200  0.43388700  0.76891800  1
  B  B23  1  0.71297200  0.06611300  0.26891800  1
  B  B24  1  0.69298300  0.58431700  0.81016100  1
  B  B25  1  0.69298300  0.91568300  0.31016100  1
  B  B26  1  0.30701700  0.41568300  0.18983900  1
  B  B27  1  0.30701700  0.08431700  0.68983900  1
  Cl  Cl0  1  0.16974800  0.91990900  0.31041800  1
  Cl  Cl1  1  0.16974800  0.58009100  0.81041800  1
  Cl  Cl2  1  0.83025200  0.08009100  0.68958200  1
  Cl  Cl3  1  0.83025200  0.41990900  0.18958200  1
  O  O0  1  0.76606400  0.73336200  0.03337000  1
  O  O1  1  0.76606400  0.76663800  0.53337000  1
  O  O2  1  0.23393600  0.26663800  0.96663000  1
  O  O3  1  0.23393600  0.23336200  0.46663000  1
  O  O4  1  0.27420900  0.71044600  0.54301600  1
  O  O5  1  0.27420900  0.78955400  0.04301600  1
  O  O6  1  0.72579100  0.28955400  0.45698400  1
  O  O7  1  0.72579100  0.21044600  0.95698400  1
  O  O8  1  0.41413100  0.71843500  0.39991900  1
  O  O9  1  0.41413100  0.78156500  0.89991900  1
  O  O10  1  0.58586900  0.28156500  0.60008100  1
  O  O11  1  0.58586900  0.21843500  0.10008100  1
  O  O12  1  0.18074800  0.73760700  0.17056900  1
  O  O13  1  0.18074800  0.76239300  0.67056900  1
  O  O14  1  0.81925200  0.26239300  0.82943100  1
  O  O15  1  0.81925200  0.23760700  0.32943100  1
  O  O16  1  0.54717700  0.61526000  0.68353100  1
  O  O17  1  0.54717700  0.88474000  0.18353100  1
  O  O18  1  0.45282300  0.38474000  0.31646900  1
  O  O19  1  0.45282300  0.11526000  0.81646900  1
  O  O20  1  0.92368600  0.73558900  0.43204200  1
  O  O21  1  0.92368600  0.76441100  0.93204200  1
  O  O22  1  0.07631400  0.26441100  0.56795800  1
  O  O23  1  0.07631400  0.23558900  0.06795800  1
  O  O24  1  0.54926200  0.73751400  0.78723500  1
  O  O25  1  0.54926200  0.76248600  0.28723500  1
  O  O26  1  0.45073800  0.26248600  0.21276500  1
  O  O27  1  0.45073800  0.23751400  0.71276500  1
  O  O28  1  0.63211700  0.75871300  0.13976800  1
  O  O29  1  0.63211700  0.74128700  0.63976800  1
  O  O30  1  0.36788300  0.24128700  0.86023200  1
  O  O31  1  0.36788300  0.25871300  0.36023200  1
  O  O32  1  0.16251900  0.58920600  0.26230300  1
  O  O33  1  0.16251900  0.91079400  0.76230300  1
  O  O34  1  0.83748100  0.41079400  0.73769700  1
  O  O35  1  0.83748100  0.08920600  0.23769700  1
  O  O36  1  0.42330700  0.62668500  0.26065900  1
  O  O37  1  0.42330700  0.87331500  0.76065900  1
  O  O38  1  0.57669300  0.37331500  0.73934100  1
  O  O39  1  0.57669300  0.12668500  0.23934100  1
  O  O40  1  0.08567500  0.55402200  0.40523800  1
  O  O41  1  0.08567500  0.94597800  0.90523800  1
  O  O42  1  0.91432500  0.44597800  0.59476200  1
  O  O43  1  0.91432500  0.05402200  0.09476200  1
  O  O44  1  0.05944700  0.85081700  0.31428800  1
  O  O45  1  0.05944700  0.64918300  0.81428800  1
  O  O46  1  0.94055300  0.14918300  0.68571200  1
  O  O47  1  0.94055300  0.35081700  0.18571200  1
  O  O48  1  0.79758000  0.59769600  0.22722100  1
  O  O49  1  0.79758000  0.90230400  0.72722100  1
  O  O50  1  0.20242000  0.40230400  0.77277900  1
  O  O51  1  0.20242000  0.09769600  0.27277900  1
  O  O52  1  0.14275100  0.98772900  0.36850300  1
  O  O53  1  0.14275100  0.51227100  0.86850300  1
  O  O54  1  0.85724900  0.01227100  0.63149700  1
  O  O55  1  0.85724900  0.48772900  0.13149700  1
  O  O56  1  0.38732700  0.90058100  0.38568200  1
  O  O57  1  0.38732700  0.59941900  0.88568200  1
  O  O58  1  0.61267300  0.09941900  0.61431800  1
  O  O59  1  0.61267300  0.40058100  0.11431800  1
  O  O60  1  0.06655900  0.93462400  0.16759700  1
  O  O61  1  0.06655900  0.56537600  0.66759700  1
  O  O62  1  0.93344100  0.06537600  0.83240300  1
  O  O63  1  0.93344100  0.43462400  0.33240300  1
  O  O64  1  0.80329800  0.63144500  0.92264700  1
  O  O65  1  0.80329800  0.86855500  0.42264700  1
  O  O66  1  0.19670200  0.36855500  0.07735300  1
  O  O67  1  0.19670200  0.13144500  0.57735300  1
  O  O68  1  0.27199800  0.49701800  0.17348400  1
  O  O69  1  0.27199800  0.00298200  0.67348400  1
  O  O70  1  0.72800200  0.50298200  0.82651600  1
  O  O71  1  0.72800200  0.99701800  0.32651600  1
loop_
_geom_bond_atom_site_label_1
_geom_bond_atom_site_label_2
_geom_bond_distance
_geom_bond_site_symmetry_2
B0 O16 1.426638 1_555
B0 O29 1.481522 1_555
B0 O4 1.483578 1_555
B0 O24 1.552317 1_555
B1 O17 1.426638 1_555
B1 O28 1.481522 1_555
B1 O5 1.483578 1_555
B1 O25 1.552317 1_555
B2 O18 1.426638 1_555
B2 O31 1.481522 1_555
B2 O6 1.483578 1_555
B2 O26 1.552317 1_555
B3 O19 1.426638 1_555
B3 O30 1.481522 1_555
B3 O7 1.483578 1_555
B3 O27 1.552317 1_555
B4 O36 1.467304 1_555
B4 O8 1.470956 1_555
B4 O12 1.474232 1_555
B4 O25 1.489196 1_555
B5 O37 1.467304 1_555
B5 O9 1.470956 1_555
B5 O13 1.474232 1_555
B5 O24 1.489196 1_555
B6 O38 1.467304 1_555
B6 O10 1.470956 1_555
B6 O14 1.474232 1_555
B6 O27 1.489196 1_555
B7 O39 1.467304 1_555
B7 O11 1.470956 1_555
B7 O15 1.474232 1_555
B7 O26 1.489196 1_555
B8 O64 1.426179 1_555
B8 O0 1.480801 1_556
B8 O21 1.501109 1_555
B8 O24 1.529406 1_555
B9 O65 1.426179 1_555
B9 O1 1.480801 1_555
B9 O20 1.501109 1_555
B9 O25 1.529406 1_555
B10 O66 1.426179 1_555
B10 O2 1.480801 1_554
B10 O23 1.501109 1_555
B10 O26 1.529406 1_555
B11 O67 1.426179 1_555
B11 O3 1.480801 1_555
B11 O22 1.501109 1_555
B11 O27 1.529406 1_555
B12 O9 1.364041 1_554
B12 O28 1.364723 1_555
B12 O0 1.377804 1_555
B13 O8 1.364041 1_555
B13 O29 1.364723 1_555
B13 O1 1.377804 1_555
B14 O11 1.364041 1_556
B14 O30 1.364723 1_555
B14 O2 1.377804 1_555
B15 O10 1.364041 1_555
B15 O31 1.364723 1_555
B15 O3 1.377804 1_555
B16 O13 1.369339 1_555
B16 O20 1.371336 1_455
B16 O4 1.375616 1_555
B17 O12 1.369339 1_555
B17 O21 1.371336 1_454
B17 O5 1.375616 1_555
B18 O15 1.369339 1_555
B18 O22 1.371336 1_655
B18 O6 1.375616 1_555
B19 O14 1.369339 1_555
B19 O23 1.371336 1_656
B19 O7 1.375616 1_555
B20 O68 1.337777 1_555
B20 O36 1.379715 1_555
B20 O32 1.386570 1_555
B21 O69 1.337777 1_565
B21 O37 1.379715 1_555
B21 O33 1.386570 1_555
B22 O70 1.337777 1_555
B22 O38 1.379715 1_555
B22 O34 1.386570 1_555
B23 O71 1.337777 1_545
B23 O39 1.379715 1_555
B23 O35 1.386570 1_555
B24 O64 1.366929 1_555
B24 O16 1.368618 1_555
B24 O70 1.380245 1_555
B25 O65 1.366929 1_555
B25 O17 1.368618 1_555
B25 O71 1.380245 1_555
B26 O66 1.366929 1_555
B26 O18 1.368618 1_555
B26 O68 1.380245 1_555
B27 O67 1.366929 1_555
B27 O19 1.368618 1_555
B27 O69 1.380245 1_555
Cl0 O56 1.437825 1_555
Cl0 O52 1.456412 1_555
Cl0 O60 1.475043 1_555
Cl0 O44 1.497262 1_555
Cl1 O57 1.437825 1_555
Cl1 O53 1.456412 1_555
Cl1 O61 1.475043 1_555
Cl1 O45 1.497262 1_555
Cl2 O58 1.437825 1_555
Cl2 O54 1.456412 1_555
Cl2 O62 1.475043 1_555
Cl2 O46 1.497262 1_555
Cl3 O59 1.437825 1_555
Cl3 O55 1.456412 1_555
Cl3 O63 1.475043 1_555
Cl3 O47 1.497262 1_555
O0 Sm0 2.497523 1_655
O1 Sm1 2.497523 1_655
O2 Sm2 2.497523 1_455
O3 Sm3 2.497523 1_455
O4 Sm0 2.601014 1_555
O5 Sm1 2.601014 1_554
O6 Sm2 2.601014 1_555
O7 Sm3 2.601014 1_556
O8 Sm0 2.563522 1_555
O9 Sm1 2.563522 1_555
O10 Sm2 2.563522 1_555
O11 Sm3 2.563522 1_555
O12 Sm0 2.537162 1_555
O13 Sm1 2.537162 1_555
O14 Sm2 2.537162 1_555
O15 Sm3 2.537162 1_555
O20 Sm0 2.605855 1_655
O21 Sm1 2.605855 1_655
O22 Sm2 2.605855 1_455
O23 Sm3 2.605855 1_455
O28 Sm0 2.650780 1_655
O29 Sm1 2.650780 1_655
O30 Sm2 2.650780 1_455
O31 Sm3 2.650780 1_455
O32 Sm0 2.381896 1_555
O33 Sm1 2.381896 1_555
O34 Sm2 2.381896 1_555
O35 Sm3 2.381896 1_555
O40 Sm0 2.890338 1_555
O41 Sm1 2.890338 1_555
O42 Sm2 2.890338 1_555
O43 Sm3 2.890338 1_555
O44 Sm0 2.427322 1_555
O45 Sm1 2.427322 1_555
O46 Sm2 2.427322 1_555
O47 Sm3 2.427322 1_555
O48 Sm0 2.384113 1_655
O49 Sm1 2.384113 1_655
O50 Sm2 2.384113 1_455
O51 Sm3 2.384113 1_455
