# generated using pymatgen
data_BaCr10O15
_symmetry_space_group_name_H-M   'P 1'
_cell_length_a   7.85596602
_cell_length_b   7.85596602
_cell_length_c   9.62839200
_cell_angle_alpha   90.00000000
_cell_angle_beta   90.00000000
_cell_angle_gamma   96.60183767
_symmetry_Int_Tables_number   1
_chemical_formula_structural   BaCr10O15
_chemical_formula_sum   'Ba2 Cr20 O30'
_cell_volume   590.28750964
_cell_formula_units_Z   2
loop_
 _symmetry_equiv_pos_site_id
 _symmetry_equiv_pos_as_xyz
  1  'x, y, z'
loop_
 _atom_site_type_symbol
 _atom_site_label
 _atom_site_symmetry_multiplicity
 _atom_site_fract_x
 _atom_site_fract_y
 _atom_site_fract_z
 _atom_site_occupancy
  Ba  Ba0  1  0.00000000  0.00000000  0.50000000  1
  Ba  Ba1  1  0.50000000  0.50000000  0.00000000  1
  Cr  Cr0  1  0.41820700  0.90661700  0.11474400  1
  Cr  Cr1  1  0.08179300  0.59338300  0.61474400  1
  Cr  Cr2  1  0.40661700  0.91820700  0.38525600  1
  Cr  Cr3  1  0.09338300  0.58179300  0.88525600  1
  Cr  Cr4  1  0.58179300  0.09338300  0.88525600  1
  Cr  Cr5  1  0.91820700  0.40661700  0.38525600  1
  Cr  Cr6  1  0.59338300  0.08179300  0.61474400  1
  Cr  Cr7  1  0.90661700  0.41820700  0.11474400  1
  Cr  Cr8  1  0.78850000  0.04288100  0.14329100  1
  Cr  Cr9  1  0.71150000  0.45711900  0.64329100  1
  Cr  Cr10  1  0.54288100  0.28850000  0.35670900  1
  Cr  Cr11  1  0.95711900  0.21150000  0.85670900  1
  Cr  Cr12  1  0.21150000  0.95711900  0.85670900  1
  Cr  Cr13  1  0.28850000  0.54288100  0.35670900  1
  Cr  Cr14  1  0.45711900  0.71150000  0.64329100  1
  Cr  Cr15  1  0.04288100  0.78850000  0.14329100  1
  Cr  Cr16  1  0.81669200  0.81669200  0.86526200  1
  Cr  Cr17  1  0.68330800  0.68330800  0.36526200  1
  Cr  Cr18  1  0.31669200  0.31669200  0.63473800  1
  Cr  Cr19  1  0.18330800  0.18330800  0.13473800  1
  O  O0  1  0.50000000  0.50000000  0.50000000  1
  O  O1  1  0.00000000  0.00000000  0.00000000  1
  O  O2  1  0.14490400  0.14490400  0.73979300  1
  O  O3  1  0.35509600  0.35509600  0.23979300  1
  O  O4  1  0.64490400  0.64490400  0.76020700  1
  O  O5  1  0.85509600  0.85509600  0.26020700  1
  O  O6  1  0.22250700  0.95874000  0.24032100  1
  O  O7  1  0.27749300  0.54126000  0.74032100  1
  O  O8  1  0.45874000  0.72250700  0.25967900  1
  O  O9  1  0.04126000  0.77749300  0.75967900  1
  O  O10  1  0.77749300  0.04126000  0.75967900  1
  O  O11  1  0.72250700  0.45874000  0.25967900  1
  O  O12  1  0.54126000  0.27749300  0.74032100  1
  O  O13  1  0.95874000  0.22250700  0.24032100  1
  O  O14  1  0.56469000  0.06469000  0.25000000  1
  O  O15  1  0.93531000  0.43531000  0.75000000  1
  O  O16  1  0.43531000  0.93531000  0.75000000  1
  O  O17  1  0.06469000  0.56469000  0.25000000  1
  O  O18  1  0.36474100  0.10364400  0.99456300  1
  O  O19  1  0.13525900  0.39635600  0.49456300  1
  O  O20  1  0.60364400  0.86474100  0.50543700  1
  O  O21  1  0.89635600  0.63525900  0.00543700  1
  O  O22  1  0.75619800  0.24380200  0.00000000  1
  O  O23  1  0.74380200  0.25619800  0.50000000  1
  O  O24  1  0.24380200  0.75619800  0.00000000  1
  O  O25  1  0.25619800  0.74380200  0.50000000  1
  O  O26  1  0.10364400  0.36474100  0.99456300  1
  O  O27  1  0.39635600  0.13525900  0.49456300  1
  O  O28  1  0.86474100  0.60364400  0.50543700  1
  O  O29  1  0.63525900  0.89635600  0.00543700  1
loop_
_geom_bond_atom_site_label_1
_geom_bond_atom_site_label_2
_geom_bond_distance
_geom_bond_site_symmetry_2
Ba0 O5 2.761235 1_445
Ba0 O2 2.761235 1_555
Ba0 O23 3.005535 1_455
Ba0 O25 3.005535 1_545
Ba0 O9 3.089067 1_545
Ba0 O13 3.089067 1_455
Ba0 O10 3.089067 1_455
Ba0 O6 3.089067 1_545
Ba0 O19 3.172783 1_555
Ba0 O27 3.172783 1_555
Ba0 O20 3.172783 1_445
Ba0 O28 3.172783 1_445
Ba1 O3 2.761235 1_555
Ba1 O4 2.761235 1_554
Ba1 O24 3.005535 1_555
Ba1 O22 3.005535 1_555
Ba1 O12 3.089067 1_554
Ba1 O8 3.089067 1_555
Ba1 O7 3.089067 1_554
Ba1 O11 3.089067 1_555
Ba1 O26 3.172783 1_554
Ba1 O18 3.172783 1_554
Ba1 O21 3.172783 1_555
Ba1 O29 3.172783 1_555
Cr0 O29 2.013282 1_555
Cr0 O18 2.015120 1_564
Cr0 O24 2.030250 1_555
Cr0 O6 2.034207 1_555
Cr0 O14 2.057610 1_565
Cr0 O8 2.060741 1_555
Cr1 O28 2.013282 1_455
Cr1 O19 2.015120 1_555
Cr1 O25 2.030250 1_555
Cr1 O7 2.034207 1_555
Cr1 O15 2.057610 1_455
Cr1 O9 2.060741 1_555
Cr2 O27 2.013282 1_565
Cr2 O20 2.015120 1_555
Cr2 O25 2.030250 1_555
Cr2 O8 2.034207 1_555
Cr2 O14 2.057610 1_565
Cr2 O6 2.060741 1_555
Cr3 O26 2.013282 1_555
Cr3 O21 2.015120 1_456
Cr3 O24 2.030250 1_556
Cr3 O9 2.034207 1_555
Cr3 O15 2.057610 1_455
Cr3 O7 2.060741 1_555
Cr4 O18 2.013282 1_555
Cr4 O29 2.015120 1_546
Cr4 O22 2.030250 1_556
Cr4 O10 2.034207 1_555
Cr4 O16 2.057610 1_545
Cr4 O12 2.060741 1_555
Cr5 O19 2.013282 1_655
Cr5 O28 2.015120 1_555
Cr5 O23 2.030250 1_555
Cr5 O11 2.034207 1_555
Cr5 O17 2.057610 1_655
Cr5 O13 2.060741 1_555
Cr6 O20 2.013282 1_545
Cr6 O27 2.015120 1_555
Cr6 O23 2.030250 1_555
Cr6 O12 2.034207 1_555
Cr6 O16 2.057610 1_545
Cr6 O10 2.060741 1_555
Cr7 O21 2.013282 1_555
Cr7 O26 2.015120 1_654
Cr7 O22 2.030250 1_555
Cr7 O13 2.034207 1_555
Cr7 O17 2.057610 1_655
Cr7 O11 2.060741 1_555
Cr8 O5 1.973505 1_545
Cr8 O29 2.053634 1_545
Cr8 O13 2.053972 1_555
Cr8 O14 2.060502 1_555
Cr8 O22 2.133401 1_555
Cr8 O1 2.215030 1_655
Cr9 O4 1.973505 1_555
Cr9 O28 2.053634 1_555
Cr9 O12 2.053972 1_555
Cr9 O15 2.060502 1_555
Cr9 O23 2.133401 1_555
Cr9 O0 2.215030 1_555
Cr10 O3 1.973505 1_555
Cr10 O27 2.053634 1_555
Cr10 O11 2.053972 1_555
Cr10 O14 2.060502 1_555
Cr10 O23 2.133401 1_555
Cr10 O0 2.215030 1_555
Cr11 O2 1.973505 1_655
Cr11 O26 2.053634 1_655
Cr11 O10 2.053972 1_555
Cr11 O15 2.060502 1_555
Cr11 O22 2.133401 1_556
Cr11 O1 2.215030 1_656
Cr12 O2 1.973505 1_565
Cr12 O18 2.053634 1_565
Cr12 O9 2.053972 1_555
Cr12 O16 2.060502 1_555
Cr12 O24 2.133401 1_556
Cr12 O1 2.215030 1_566
Cr13 O3 1.973505 1_555
Cr13 O19 2.053634 1_555
Cr13 O8 2.053972 1_555
Cr13 O17 2.060502 1_555
Cr13 O25 2.133401 1_555
Cr13 O0 2.215030 1_555
Cr14 O4 1.973505 1_555
Cr14 O20 2.053634 1_555
Cr14 O7 2.053972 1_555
Cr14 O16 2.060502 1_555
Cr14 O25 2.133401 1_555
Cr14 O0 2.215030 1_555
Cr15 O5 1.973505 1_455
Cr15 O21 2.053634 1_455
Cr15 O6 2.053972 1_555
Cr15 O17 2.060502 1_555
Cr15 O24 2.133401 1_555
Cr15 O1 2.215030 1_565
Cr16 O4 2.060823 1_555
Cr16 O9 2.089405 1_655
Cr16 O10 2.089405 1_565
Cr16 O29 2.109487 1_556
Cr16 O21 2.109487 1_556
Cr16 O1 2.313812 1_666
Cr17 O5 2.060823 1_555
Cr17 O8 2.089405 1_555
Cr17 O11 2.089405 1_555
Cr17 O28 2.109487 1_555
Cr17 O20 2.109487 1_555
Cr17 O0 2.313812 1_555
Cr18 O2 2.060823 1_555
Cr18 O7 2.089405 1_555
Cr18 O12 2.089405 1_555
Cr18 O27 2.109487 1_555
Cr18 O19 2.109487 1_555
Cr18 O0 2.313812 1_555
Cr19 O3 2.060823 1_555
Cr19 O13 2.089405 1_455
Cr19 O6 2.089405 1_545
Cr19 O18 2.109487 1_554
Cr19 O26 2.109487 1_554
Cr19 O1 2.313812 1_555
