# generated using pymatgen
data_Mg4Si3
_symmetry_space_group_name_H-M   'P 1'
_cell_length_a   5.46907700
_cell_length_b   6.98488345
_cell_length_c   7.98776337
_cell_angle_alpha   102.55368291
_cell_angle_beta   108.97634486
_cell_angle_gamma   88.48072432
_symmetry_Int_Tables_number   1
_chemical_formula_structural   Mg4Si3
_chemical_formula_sum   'Mg8 Si6'
_cell_volume   281.33486317
_cell_formula_units_Z   2
loop_
 _symmetry_equiv_pos_site_id
 _symmetry_equiv_pos_as_xyz
  1  'x, y, z'
loop_
 _atom_site_type_symbol
 _atom_site_label
 _atom_site_symmetry_multiplicity
 _atom_site_fract_x
 _atom_site_fract_y
 _atom_site_fract_z
 _atom_site_occupancy
  Mg  Mg0  1  0.16274700  0.55527300  0.09866300  1
  Mg  Mg1  1  0.71153000  0.56068100  0.38740800  1
  Mg  Mg2  1  0.57589900  0.27342200  0.00310500  1
  Mg  Mg3  1  0.13739900  0.25330400  0.32265900  1
  Mg  Mg4  1  0.64997600  0.94887100  0.64454600  1
  Mg  Mg5  1  0.24756000  0.73191100  0.74626000  1
  Mg  Mg6  1  0.06668800  0.27936700  0.68860200  1
  Mg  Mg7  1  0.78699900  0.86311300  0.06753700  1
  Si  Si0  1  0.33963700  0.93641900  0.12669200  1
  Si  Si1  1  0.78236700  0.61296900  0.76768600  1
  Si  Si2  1  0.51406400  0.32394600  0.63398700  1
  Si  Si3  1  0.68591100  0.13479500  0.37110400  1
  Si  Si4  1  0.04380100  0.14251800  0.96465900  1
  Si  Si5  1  0.04546300  0.88346900  0.42708300  1
loop_
_geom_bond_atom_site_label_1
_geom_bond_atom_site_label_2
_geom_bond_distance
_geom_bond_site_symmetry_2
Mg0 Si0 2.794685 1_555
Mg0 Si4 2.861113 1_554
Mg0 Si1 2.884697 1_454
Mg1 Si5 2.837346 1_655
Mg1 Si1 2.875799 1_555
Mg1 Si3 2.954257 1_555
Mg1 Si2 3.267083 1_555
Mg2 Si4 2.782757 1_654
Mg2 Si2 2.954598 1_554
Mg2 Si4 2.972669 1_554
Mg2 Si3 3.161707 1_555
Mg2 Si0 3.191572 1_545
Mg3 Si2 2.619191 1_555
Mg3 Si4 2.673073 1_554
Mg3 Si3 2.793038 1_455
Mg3 Si0 2.839513 1_545
Mg3 Si5 2.983299 1_545
Mg3 Si3 3.014413 1_555
Mg4 Si2 2.715748 1_565
Mg4 Si1 2.728834 1_555
Mg4 Si3 2.832240 1_565
Mg4 Si4 2.841842 1_665
Mg4 Si5 3.154438 1_655
Mg4 Si5 3.186959 1_555
Mg5 Si1 2.765758 1_455
Mg5 Si5 2.849715 1_555
Mg5 Si0 2.946921 1_556
Mg5 Si1 2.980261 1_555
Mg5 Si2 3.250809 1_555
Mg6 Si4 2.625614 1_555
Mg6 Si2 2.658461 1_555
Mg6 Si3 2.711412 1_455
Mg6 Si1 2.837870 1_455
Mg6 Si2 2.928051 1_455
Mg6 Si5 3.061417 1_545
Mg7 Si1 2.633217 1_554
Mg7 Si0 2.655531 1_555
Mg7 Si5 2.731202 1_655
Mg7 Si4 2.837206 1_664
Mg7 Si3 2.932995 1_565
Mg7 Si0 2.944242 1_655
Si0 Si4 2.385343 1_564
Si0 Si3 2.424168 1_565
Si1 Si2 2.360068 1_555
Si2 Si3 2.655158 1_555
Si3 Si5 2.595148 1_645
