# generated using pymatgen
data_Li5Co3O8
_symmetry_space_group_name_H-M   'P 1'
_cell_length_a   2.98141600
_cell_length_b   5.08325841
_cell_length_c   9.87922385
_cell_angle_alpha   101.48547830
_cell_angle_beta   91.33816441
_cell_angle_gamma   105.08116121
_symmetry_Int_Tables_number   1
_chemical_formula_structural   Li5Co3O8
_chemical_formula_sum   'Li5 Co3 O8'
_cell_volume   141.22340770
_cell_formula_units_Z   1
loop_
 _symmetry_equiv_pos_site_id
 _symmetry_equiv_pos_as_xyz
  1  'x, y, z'
loop_
 _atom_site_type_symbol
 _atom_site_label
 _atom_site_symmetry_multiplicity
 _atom_site_fract_x
 _atom_site_fract_y
 _atom_site_fract_z
 _atom_site_occupancy
  Li  Li0  1  0.75343500  0.49640500  0.87357800  1
  Li  Li1  1  0.24656500  0.50359500  0.12642200  1
  Li  Li2  1  0.75114400  0.50843600  0.37443500  1
  Li  Li3  1  0.24885600  0.49156400  0.62556500  1
  Li  Li4  1  0.50000000  0.00000000  0.50000000  1
  Co  Co0  1  0.00157100  0.99915000  0.74034600  1
  Co  Co1  1  0.99842900  0.00085000  0.25965400  1
  Co  Co2  1  0.50000000  0.00000000  0.00000000  1
  O  O0  1  0.35492000  0.77159600  0.81806300  1
  O  O1  1  0.89427900  0.77580000  0.07315000  1
  O  O2  1  0.35767300  0.77260300  0.30801100  1
  O  O3  1  0.88131600  0.76320000  0.58135100  1
  O  O4  1  0.10572100  0.22420000  0.92685000  1
  O  O5  1  0.64508000  0.22840400  0.18193700  1
  O  O6  1  0.11868400  0.23680000  0.41864900  1
  O  O7  1  0.64232700  0.22739700  0.69198900  1
loop_
_geom_bond_atom_site_label_1
_geom_bond_atom_site_label_2
_geom_bond_distance
_geom_bond_site_symmetry_2
Li0 O7 1.989347 1_555
Li0 O4 2.077299 1_655
Li0 O0 2.125921 1_655
Li0 O1 2.148611 1_556
Li0 O0 2.193006 1_555
Li0 O4 2.206297 1_555
Li1 O2 1.989347 1_555
Li1 O1 2.077299 1_455
Li1 O5 2.125921 1_455
Li1 O4 2.148611 1_554
Li1 O5 2.193006 1_555
Li1 O1 2.206297 1_555
Li2 O6 2.074449 1_655
Li2 O5 2.098207 1_555
Li2 O6 2.139336 1_555
Li2 O2 2.155588 1_655
Li2 O3 2.157201 1_555
Li2 O2 2.178228 1_555
Li3 O3 2.074449 1_455
Li3 O0 2.098207 1_555
Li3 O3 2.139336 1_555
Li3 O7 2.155588 1_455
Li3 O6 2.157201 1_555
Li3 O7 2.178228 1_555
Li4 O7 1.986892 1_555
Li4 O2 1.986892 1_545
Li4 O3 2.107603 1_545
Li4 O6 2.107603 1_555
Li4 O3 2.190051 1_445
Li4 O6 2.190051 1_655
Co0 O3 1.741839 1_455
Co0 O7 1.888130 1_465
Co0 O4 1.936234 1_565
Co0 O0 1.996828 1_555
Co0 O7 2.081783 1_565
Co0 O0 2.215121 1_455
Co1 O6 1.741839 1_655
Co1 O2 1.888130 1_645
Co1 O1 1.936234 1_545
Co1 O5 1.996828 1_555
Co1 O2 2.081783 1_545
Co1 O5 2.215121 1_655
Co2 O5 1.907099 1_555
Co2 O0 1.907099 1_544
Co2 O1 2.046548 1_545
Co2 O4 2.046548 1_554
Co2 O1 2.097696 1_445
Co2 O4 2.097696 1_654
