# generated using pymatgen
data_Ru2Au2N10Cl12O
_symmetry_space_group_name_H-M   'P 1'
_cell_length_a   8.18981100
_cell_length_b   7.74579577
_cell_length_c   13.20691149
_cell_angle_alpha   101.88133411
_cell_angle_beta   90.00000000
_cell_angle_gamma   58.08492907
_symmetry_Int_Tables_number   1
_chemical_formula_structural   Ru2Au2N10Cl12O
_chemical_formula_sum   'Ru2 Au2 N10 Cl12 O1'
_cell_volume   689.91733174
_cell_formula_units_Z   1
loop_
 _symmetry_equiv_pos_site_id
 _symmetry_equiv_pos_as_xyz
  1  'x, y, z'
loop_
 _atom_site_type_symbol
 _atom_site_label
 _atom_site_symmetry_multiplicity
 _atom_site_fract_x
 _atom_site_fract_y
 _atom_site_fract_z
 _atom_site_occupancy
  Ru  Ru0  1  0.72610500  0.55115400  0.78443300  1
  Ru  Ru1  1  0.27726000  0.44884600  0.21556700  1
  Au  Au0  1  0.00018700  0.00000000  0.00000000  1
  Au  Au1  1  0.51052500  0.00000000  0.50000000  1
  N  N0  1  0.67438900  0.67019400  0.91571900  1
  N  N1  1  0.34458300  0.32980600  0.08428100  1
  N  N2  1  0.70983900  0.25681500  0.76965400  1
  N  N3  1  0.02655300  0.25103000  0.76037500  1
  N  N4  1  0.27758300  0.74897000  0.23962500  1
  N  N5  1  0.96665300  0.74318500  0.23034600  1
  N  N6  1  0.49651500  0.65239400  0.73452100  1
  N  N7  1  0.82313700  0.67138300  0.72528300  1
  N  N8  1  0.49452100  0.32861700  0.27471700  1
  N  N9  1  0.14890900  0.34760600  0.26547900  1
  Cl  Cl0  1  0.05726100  0.87470300  0.24188400  1
  Cl  Cl1  1  0.93196500  0.12529700  0.75811600  1
  Cl  Cl2  1  0.28303100  0.00000000  0.00000000  1
  Cl  Cl3  1  0.71632300  0.00000000  0.00000000  1
  Cl  Cl4  1  0.50083700  0.01324600  0.32628200  1
  Cl  Cl5  1  0.51408300  0.98675400  0.67371800  1
  Cl  Cl6  1  0.82218400  0.35639800  0.07595400  1
  Cl  Cl7  1  0.17858200  0.64360200  0.92404600  1
  Cl  Cl8  1  0.68713000  0.63626700  0.44633200  1
  Cl  Cl9  1  0.32339700  0.36373300  0.55366800  1
  Cl  Cl10  1  0.88347700  0.22955700  0.50351400  1
  Cl  Cl11  1  0.11303400  0.77044300  0.49648600  1
  O  O0  1  0.89093600  0.00000000  0.50000000  1
loop_
_geom_bond_atom_site_label_1
_geom_bond_atom_site_label_2
_geom_bond_distance
_geom_bond_site_symmetry_2
Au0 Cl6 2.314501 1_455
Au0 Cl7 2.314501 1_544
Au0 Cl2 2.316439 1_555
Au0 Cl3 2.324793 1_455
Au1 Cl5 2.317079 1_545
Au1 Cl4 2.317079 1_555
Au1 Cl8 2.324057 1_545
Au1 Cl9 2.324057 1_555
N0 Ru0 1.721830 1_555
N1 Ru1 1.721829 1_555
N2 Ru0 2.321988 1_555
N3 Ru0 2.282009 1_455
N4 Ru1 2.282004 1_555
N5 Ru1 2.321998 1_655
N6 Ru0 1.799672 1_555
N7 Ru0 1.786355 1_555
N8 Ru1 1.786355 1_555
N9 Ru1 1.799679 1_555
Cl0 N4 1.528141 1_555
Cl0 N5 1.531996 1_455
Cl1 N3 1.528134 1_655
Cl1 N2 1.531996 1_555
Cl10 O0 1.737442 1_555
Cl11 O0 1.737442 1_465
