# generated using pymatgen
data_KBa2V2ClO7
_symmetry_space_group_name_H-M   'P 1'
_cell_length_a   5.89375067
_cell_length_b   5.89375067
_cell_length_c   15.27365700
_cell_angle_alpha   90.00000000
_cell_angle_beta   90.00000000
_cell_angle_gamma   120.00000755
_symmetry_Int_Tables_number   1
_chemical_formula_structural   KBa2V2ClO7
_chemical_formula_sum   'K2 Ba4 V4 Cl2 O14'
_cell_volume   459.46999041
_cell_formula_units_Z   2
loop_
 _symmetry_equiv_pos_site_id
 _symmetry_equiv_pos_as_xyz
  1  'x, y, z'
loop_
 _atom_site_type_symbol
 _atom_site_label
 _atom_site_symmetry_multiplicity
 _atom_site_fract_x
 _atom_site_fract_y
 _atom_site_fract_z
 _atom_site_occupancy
  K  K0  1  0.33333300  0.66666700  0.95156700  1
  K  K1  1  0.66666700  0.33333300  0.45156700  1
  Ba  Ba0  1  0.33333300  0.66666700  0.25169800  1
  Ba  Ba1  1  0.66666700  0.33333300  0.75169800  1
  Ba  Ba2  1  0.66666700  0.33333300  0.04326500  1
  Ba  Ba3  1  0.33333300  0.66666700  0.54326500  1
  V  V0  1  0.00000000  0.00000000  0.63197200  1
  V  V1  1  0.00000000  0.00000000  0.36987300  1
  V  V2  1  0.00000000  0.00000000  0.13197200  1
  V  V3  1  0.00000000  0.00000000  0.86987300  1
  Cl  Cl0  1  0.33333300  0.66666700  0.74893400  1
  Cl  Cl1  1  0.66666700  0.33333300  0.24893400  1
  O  O0  1  0.00000000  0.00000000  0.75089100  1
  O  O1  1  0.00000000  0.00000000  0.25089100  1
  O  O2  1  0.83989800  0.67979700  0.59650300  1
  O  O3  1  0.83989800  0.16010200  0.59650300  1
  O  O4  1  0.32020300  0.16010200  0.59650300  1
  O  O5  1  0.16052100  0.32104200  0.40409700  1
  O  O6  1  0.16052100  0.83947900  0.40409700  1
  O  O7  1  0.67895800  0.83947900  0.40409700  1
  O  O8  1  0.16010200  0.32020300  0.09650300  1
  O  O9  1  0.16010200  0.83989800  0.09650300  1
  O  O10  1  0.67979700  0.83989800  0.09650300  1
  O  O11  1  0.83947900  0.67895800  0.90409700  1
  O  O12  1  0.83947900  0.16052100  0.90409700  1
  O  O13  1  0.32104200  0.16052100  0.90409700  1
loop_
_geom_bond_atom_site_label_1
_geom_bond_atom_site_label_2
_geom_bond_distance
_geom_bond_site_symmetry_2
K0 O9 2.833317 1_556
K0 O10 2.833323 1_556
K0 O8 2.833323 1_556
K0 O13 3.035404 1_565
K0 O11 3.035404 1_455
K0 O12 3.035406 1_565
K0 O12 3.035406 1_455
K0 O11 3.035410 1_555
K0 O13 3.035410 1_555
K1 O3 2.833317 1_555
K1 O2 2.833323 1_555
K1 O4 2.833323 1_555
K1 O5 3.035404 1_655
K1 O7 3.035404 1_545
K1 O6 3.035406 1_655
K1 O6 3.035406 1_545
K1 O5 3.035410 1_555
K1 O7 3.035410 1_555
Ba0 O6 2.920656 1_555
Ba0 O7 2.920659 1_555
Ba0 O5 2.920659 1_555
Ba0 O9 2.957360 1_555
Ba0 O10 2.957366 1_555
Ba0 O8 2.957366 1_555
Ba0 O1 3.402778 1_565
Ba0 O1 3.402782 1_555
Ba0 O1 3.402782 1_665
Ba0 Cl1 3.403017 1_455
Ba0 Cl1 3.403017 1_565
Ba0 Cl1 3.403027 1_555
Ba1 O12 2.920656 1_555
Ba1 O11 2.920659 1_555
Ba1 O13 2.920659 1_555
Ba1 O3 2.957360 1_555
Ba1 O2 2.957366 1_555
Ba1 O4 2.957366 1_555
Ba1 O0 3.402778 1_655
Ba1 O0 3.402782 1_665
Ba1 O0 3.402782 1_555
Ba1 Cl0 3.403017 1_545
Ba1 Cl0 3.403017 1_655
Ba1 Cl0 3.403027 1_555
Ba2 O12 2.762297 1_554
Ba2 O13 2.762301 1_554
Ba2 O11 2.762301 1_554
Ba2 O9 3.057737 1_655
Ba2 O9 3.057737 1_545
Ba2 O10 3.057738 1_555
Ba2 O8 3.057738 1_555
Ba2 O8 3.057738 1_655
Ba2 O10 3.057738 1_545
Ba2 Cl1 3.141318 1_555
Ba3 O6 2.762297 1_555
Ba3 O7 2.762301 1_555
Ba3 O5 2.762301 1_555
Ba3 O3 3.057737 1_565
Ba3 O3 3.057737 1_455
Ba3 O2 3.057738 1_555
Ba3 O4 3.057738 1_555
Ba3 O4 3.057738 1_565
Ba3 O2 3.057738 1_455
Ba3 Cl0 3.141318 1_555
Cl0 K0 3.094947 1_555
Cl1 K1 3.094947 1_555
O0 V0 1.816328 1_555
O0 V3 1.817290 1_555
O1 V2 1.816328 1_555
O1 V1 1.817290 1_555
O2 V0 1.721806 1_665
O3 V0 1.721811 1_655
O4 V0 1.721806 1_555
O5 V1 1.719997 1_555
O6 V1 1.719998 1_565
O7 V1 1.719997 1_665
O8 V2 1.721806 1_555
O9 V2 1.721811 1_565
O10 V2 1.721806 1_665
O11 V3 1.719997 1_665
O12 V3 1.719998 1_655
O13 V3 1.719997 1_555
