# generated using pymatgen
data_H3CSO3
_symmetry_space_group_name_H-M   'P 1'
_cell_length_a   9.62741000
_cell_length_b   8.57129600
_cell_length_c   11.07950698
_cell_angle_alpha   69.52032751
_cell_angle_beta   90.00000000
_cell_angle_gamma   90.00000000
_symmetry_Int_Tables_number   1
_chemical_formula_structural   H3CSO3
_chemical_formula_sum   'H24 C8 S8 O24'
_cell_volume   856.48862326
_cell_formula_units_Z   8
loop_
 _symmetry_equiv_pos_site_id
 _symmetry_equiv_pos_as_xyz
  1  'x, y, z'
loop_
 _atom_site_type_symbol
 _atom_site_label
 _atom_site_symmetry_multiplicity
 _atom_site_fract_x
 _atom_site_fract_y
 _atom_site_fract_z
 _atom_site_occupancy
  H  H0  1  0.53368100  0.15560700  0.55157100  1
  H  H1  1  0.03368100  0.84439300  0.94842900  1
  H  H2  1  0.46631900  0.84439300  0.44842900  1
  H  H3  1  0.96631900  0.15560700  0.05157100  1
  H  H4  1  0.67303200  0.28929400  0.46232600  1
  H  H5  1  0.17303200  0.71070600  0.03767400  1
  H  H6  1  0.32696800  0.71070600  0.53767400  1
  H  H7  1  0.82696800  0.28929400  0.96232600  1
  H  H8  1  0.57101600  0.34718200  0.57683900  1
  H  H9  1  0.07101600  0.65281800  0.92316100  1
  H  H10  1  0.42898400  0.65281800  0.42316100  1
  H  H11  1  0.92898400  0.34718200  0.07683900  1
  H  H12  1  0.98551000  0.77435900  0.59093500  1
  H  H13  1  0.48551000  0.22564100  0.90906500  1
  H  H14  1  0.01449000  0.22564100  0.40906500  1
  H  H15  1  0.51449000  0.77435900  0.09093500  1
  H  H16  1  0.87099800  0.70888400  0.48715000  1
  H  H17  1  0.37099800  0.29111600  0.01285000  1
  H  H18  1  0.12900200  0.29111600  0.51285000  1
  H  H19  1  0.62900200  0.70888400  0.98715000  1
  H  H20  1  0.95413200  0.55564800  0.62470800  1
  H  H21  1  0.45413200  0.44435200  0.87529200  1
  H  H22  1  0.04586800  0.44435200  0.37529200  1
  H  H23  1  0.54586800  0.55564800  0.12470800  1
  C  C0  1  0.61547000  0.24365000  0.55307800  1
  C  C1  1  0.11547000  0.75635000  0.94692200  1
  C  C2  1  0.38453000  0.75635000  0.44692200  1
  C  C3  1  0.88453000  0.24365000  0.05307800  1
  C  C4  1  0.90986400  0.68150300  0.58527500  1
  C  C5  1  0.40986400  0.31849700  0.91472500  1
  C  C6  1  0.09013600  0.31849700  0.41472500  1
  C  C7  1  0.59013600  0.68150300  0.08527500  1
  S  S0  1  0.73378700  0.14180400  0.67779400  1
  S  S1  1  0.23378700  0.85819600  0.82220600  1
  S  S2  1  0.26621300  0.85819600  0.32220600  1
  S  S3  1  0.76621300  0.14180400  0.17779400  1
  S  S4  1  0.76714600  0.68423800  0.68505200  1
  S  S5  1  0.26714600  0.31576200  0.81494800  1
  S  S6  1  0.23285400  0.31576200  0.31494800  1
  S  S7  1  0.73285400  0.68423800  0.18505200  1
  O  O0  1  0.80785700  0.00170300  0.62537400  1
  O  O1  1  0.30785700  0.99829700  0.87462600  1
  O  O2  1  0.19214300  0.99829700  0.37462600  1
  O  O3  1  0.69214300  0.00170300  0.12537400  1
  O  O4  1  0.70406900  0.87606100  0.61695300  1
  O  O5  1  0.20406900  0.12393900  0.88304700  1
  O  O6  1  0.29593100  0.12393900  0.38304700  1
  O  O7  1  0.79593100  0.87606100  0.11695300  1
  O  O8  1  0.85481100  0.24254100  0.67201800  1
  O  O9  1  0.35481100  0.75745900  0.82798200  1
  O  O10  1  0.14518900  0.75745900  0.32798200  1
  O  O11  1  0.64518900  0.24254100  0.17201800  1
  O  O12  1  0.66012600  0.06181700  0.79621700  1
  O  O13  1  0.16012600  0.93818300  0.70378300  1
  O  O14  1  0.33987400  0.93818300  0.20378300  1
  O  O15  1  0.83987400  0.06181700  0.29621700  1
  O  O16  1  0.65001300  0.59444800  0.66092400  1
  O  O17  1  0.15001300  0.40555200  0.83907600  1
  O  O18  1  0.34998700  0.40555200  0.33907600  1
  O  O19  1  0.84998700  0.59444800  0.16092400  1
  O  O20  1  0.81395700  0.65814100  0.81368700  1
  O  O21  1  0.31395700  0.34185900  0.68631300  1
  O  O22  1  0.18604300  0.34185900  0.18631300  1
  O  O23  1  0.68604300  0.65814100  0.31368700  1
loop_
_geom_bond_atom_site_label_1
_geom_bond_atom_site_label_2
_geom_bond_distance
_geom_bond_site_symmetry_2
C0 H4 1.093576 1_555
C0 H0 1.094808 1_555
C0 H8 1.097009 1_555
C0 S0 1.767723 1_555
C1 H5 1.093576 1_556
C1 H1 1.094808 1_555
C1 H9 1.097009 1_555
C1 S1 1.767723 1_555
C2 H6 1.093576 1_555
C2 H2 1.094808 1_555
C2 H10 1.097009 1_555
C2 S2 1.767723 1_555
C3 H7 1.093576 1_554
C3 H3 1.094808 1_555
C3 H11 1.097009 1_555
C3 S3 1.767723 1_555
C4 H16 1.094761 1_555
C4 H12 1.096674 1_555
C4 H20 1.098364 1_555
C4 S4 1.768801 1_555
C5 H17 1.094761 1_556
C5 H13 1.096674 1_555
C5 H21 1.098364 1_555
C5 S5 1.768801 1_555
C6 H18 1.094761 1_555
C6 H14 1.096674 1_555
C6 H22 1.098364 1_555
C6 S6 1.768801 1_555
C7 H19 1.094761 1_554
C7 H15 1.096674 1_555
C7 H23 1.098364 1_555
C7 S7 1.768801 1_555
O0 O4 1.495720 1_545
O0 S0 1.666102 1_555
O1 O5 1.495720 1_565
O1 S1 1.666102 1_555
O2 O6 1.495720 1_565
O2 S2 1.666102 1_555
O3 O7 1.495720 1_545
O3 S3 1.666102 1_555
O4 S4 1.665319 1_555
O5 S5 1.665319 1_555
O6 S6 1.665319 1_555
O7 S7 1.665319 1_555
O8 S0 1.438242 1_555
O9 S1 1.438242 1_555
O10 S2 1.438242 1_555
O11 S3 1.438242 1_555
O12 S0 1.437017 1_555
O13 S1 1.437017 1_555
O14 S2 1.437017 1_555
O15 S3 1.437017 1_555
O16 S4 1.442019 1_555
O17 S5 1.442019 1_555
O18 S6 1.442019 1_555
O19 S7 1.442019 1_555
O20 S4 1.435719 1_555
O21 S5 1.435719 1_555
O22 S6 1.435719 1_555
O23 S7 1.435719 1_555
