# generated using pymatgen
data_Li2Ni3SnO8
_symmetry_space_group_name_H-M   'P 1'
_cell_length_a   5.88171684
_cell_length_b   5.88156916
_cell_length_c   10.42029499
_cell_angle_alpha   105.54492215
_cell_angle_beta   90.39259218
_cell_angle_gamma   120.86125849
_symmetry_Int_Tables_number   1
_chemical_formula_structural   Li2Ni3SnO8
_chemical_formula_sum   'Li4 Ni6 Sn2 O16'
_cell_volume   293.54402958
_cell_formula_units_Z   2
loop_
 _symmetry_equiv_pos_site_id
 _symmetry_equiv_pos_as_xyz
  1  'x, y, z'
loop_
 _atom_site_type_symbol
 _atom_site_label
 _atom_site_symmetry_multiplicity
 _atom_site_fract_x
 _atom_site_fract_y
 _atom_site_fract_z
 _atom_site_occupancy
  Li  Li0  1  0.05559000  0.10874000  0.17959400  1
  Li  Li1  1  0.57080100  0.12397800  0.67965000  1
  Li  Li2  1  0.42939200  0.87610200  0.32035600  1
  Li  Li3  1  0.94422000  0.89120200  0.82038300  1
  Ni  Ni0  1  0.49984000  0.50005600  0.99997700  1
  Ni  Ni1  1  0.00022200  0.00016300  0.50001500  1
  Ni  Ni2  1  0.49961100  0.00001000  0.00005900  1
  Ni  Ni3  1  0.50033500  0.49999100  0.50006500  1
  Ni  Ni4  1  0.99988800  0.49972400  0.99990500  1
  Ni  Ni5  1  0.00002600  0.50004500  0.50000800  1
  Sn  Sn0  1  0.25901200  0.50911100  0.74996300  1
  Sn  Sn1  1  0.74107300  0.49104200  0.24999800  1
  O  O0  1  0.14744000  0.24916900  0.39640300  1
  O  O1  1  0.64711200  0.24908500  0.89634400  1
  O  O2  1  0.35247700  0.75069600  0.10364200  1
  O  O3  1  0.85301600  0.75093200  0.60368800  1
  O  O4  1  0.36518600  0.71136500  0.60153200  1
  O  O5  1  0.84771000  0.70543100  0.10942100  1
  O  O6  1  0.38661900  0.28301000  0.61913300  1
  O  O7  1  0.83573400  0.23225100  0.11908000  1
  O  O8  1  0.90402200  0.26183600  0.60953900  1
  O  O9  1  0.39011500  0.23672200  0.10158700  1
  O  O10  1  0.60960400  0.76345600  0.89846600  1
  O  O11  1  0.09617100  0.73829500  0.39043500  1
  O  O12  1  0.16384500  0.76754500  0.88088300  1
  O  O13  1  0.61359600  0.71695000  0.38098800  1
  O  O14  1  0.15205900  0.29440000  0.89040000  1
  O  O15  1  0.63528200  0.28869200  0.39849000  1
loop_
_geom_bond_atom_site_label_1
_geom_bond_atom_site_label_2
_geom_bond_distance
_geom_bond_site_symmetry_2
Li0 O5 1.933654 1_445
Li0 O7 1.948230 1_455
Li0 O9 1.982204 1_555
Li0 O0 2.145564 1_555
Li1 O8 1.933706 1_555
Li1 O6 1.947419 1_555
Li1 O4 1.982752 1_545
Li1 O1 2.144357 1_555
Li2 O11 1.933540 1_555
Li2 O13 1.948662 1_555
Li2 O15 1.982624 1_565
Li2 O2 2.144570 1_555
Li3 O14 1.933058 1_665
Li3 O12 1.947698 1_655
Li3 O10 1.983071 1_555
Li3 O3 2.144286 1_555
Ni0 O5 1.907929 1_556
Ni0 O14 1.907997 1_555
Ni0 O10 1.948671 1_555
Ni0 O9 1.949170 1_556
Ni0 O2 2.135749 1_556
Ni0 O1 2.136718 1_555
Ni1 O0 1.902541 1_555
Ni1 O3 1.903942 1_445
Ni1 O8 1.987995 1_455
Ni1 O11 1.988077 1_545
Ni1 O6 2.109275 1_555
Ni1 O13 2.109995 1_445
Ni2 O12 1.896812 1_544
Ni2 O7 1.897466 1_555
Ni2 O9 1.900554 1_555
Ni2 O10 1.902197 1_544
Ni2 O2 1.903523 1_545
Ni2 O1 1.903762 1_554
Ni3 O13 1.897266 1_555
Ni3 O6 1.897304 1_555
Ni3 O15 1.900848 1_555
Ni3 O4 1.901632 1_555
Ni3 O3 1.903006 1_555
Ni3 O0 1.903971 1_555
Ni4 O1 1.903050 1_555
Ni4 O2 1.903064 1_656
Ni4 O14 1.986397 1_655
Ni4 O5 1.988020 1_556
Ni4 O7 2.110563 1_556
Ni4 O12 2.110580 1_655
Ni5 O8 1.907544 1_455
Ni5 O11 1.908009 1_555
Ni5 O15 1.948034 1_455
Ni5 O4 1.949956 1_555
Ni5 O3 2.135323 1_455
Ni5 O0 2.136835 1_555
O4 Sn0 2.105849 1_555
O5 Sn1 2.078558 1_555
O6 Sn0 2.063153 1_555
O7 Sn1 2.062694 1_555
O8 Sn0 2.077974 1_655
O9 Sn1 2.106839 1_555
O10 Sn0 2.106043 1_555
O11 Sn1 2.078451 1_455
O12 Sn0 2.063181 1_555
O13 Sn1 2.062696 1_555
O14 Sn0 2.078496 1_555
O15 Sn1 2.106733 1_555
