# generated using pymatgen
data_Ba3Fe8Sn3O20
_symmetry_space_group_name_H-M   'P 1'
_cell_length_a   10.19507115
_cell_length_b   10.19507115
_cell_length_c   5.36602458
_cell_angle_alpha   76.99826010
_cell_angle_beta   76.99826010
_cell_angle_gamma   72.73960477
_symmetry_Int_Tables_number   1
_chemical_formula_structural   Ba3Fe8Sn3O20
_chemical_formula_sum   'Ba3 Fe8 Sn3 O20'
_cell_volume   511.41148180
_cell_formula_units_Z   1
loop_
 _symmetry_equiv_pos_site_id
 _symmetry_equiv_pos_as_xyz
  1  'x, y, z'
loop_
 _atom_site_type_symbol
 _atom_site_label
 _atom_site_symmetry_multiplicity
 _atom_site_fract_x
 _atom_site_fract_y
 _atom_site_fract_z
 _atom_site_occupancy
  Ba  Ba0  1  0.22784000  0.22784000  0.26719700  1
  Ba  Ba1  1  0.77216000  0.77216000  0.73280300  1
  Ba  Ba2  1  0.50000000  0.50000000  0.00000000  1
  Fe  Fe0  1  0.36072700  0.92189500  0.84211000  1
  Fe  Fe1  1  0.63927300  0.07810500  0.15789000  1
  Fe  Fe2  1  0.07810500  0.63927300  0.15789000  1
  Fe  Fe3  1  0.92189500  0.36072700  0.84211000  1
  Fe  Fe4  1  0.48624200  0.21755300  0.65748400  1
  Fe  Fe5  1  0.51375800  0.78244700  0.34251600  1
  Fe  Fe6  1  0.78244700  0.51375800  0.34251600  1
  Fe  Fe7  1  0.21755300  0.48624200  0.65748400  1
  Sn  Sn0  1  0.00000000  0.00000000  0.00000000  1
  Sn  Sn1  1  0.14333400  0.85666600  0.50000000  1
  Sn  Sn2  1  0.85666600  0.14333400  0.50000000  1
  O  O0  1  0.66363000  0.17135200  0.41541200  1
  O  O1  1  0.33637000  0.82864800  0.58458800  1
  O  O2  1  0.82864800  0.33637000  0.58458800  1
  O  O3  1  0.17135200  0.66363000  0.41541200  1
  O  O4  1  0.06655800  0.06655800  0.60857200  1
  O  O5  1  0.93344200  0.93344200  0.39142800  1
  O  O6  1  0.39878800  0.39878800  0.51139800  1
  O  O7  1  0.60121200  0.60121200  0.48860200  1
  O  O8  1  0.37371000  0.09637500  0.69723500  1
  O  O9  1  0.62629000  0.90362500  0.30276500  1
  O  O10  1  0.90362500  0.62629000  0.30276500  1
  O  O11  1  0.09637500  0.37371000  0.69723500  1
  O  O12  1  0.50149100  0.78700100  0.98432000  1
  O  O13  1  0.49850900  0.21299900  0.01568000  1
  O  O14  1  0.21299900  0.49850900  0.01568000  1
  O  O15  1  0.78700100  0.50149100  0.98432000  1
  O  O16  1  0.19353200  0.95424500  0.11901800  1
  O  O17  1  0.80646800  0.04575500  0.88098200  1
  O  O18  1  0.04575500  0.80646800  0.88098200  1
  O  O19  1  0.95424500  0.19353200  0.11901800  1
loop_
_geom_bond_atom_site_label_1
_geom_bond_atom_site_label_2
_geom_bond_distance
_geom_bond_site_symmetry_2
Ba0 O13 2.761798 1_555
Ba0 O14 2.761798 1_555
Ba0 O4 2.767082 1_555
Ba0 O8 2.881434 1_555
Ba0 O11 2.881434 1_555
Ba0 O16 3.199524 1_545
Ba0 O19 3.199524 1_455
Ba0 O6 3.413173 1_555
Ba0 O11 3.460790 1_554
Ba0 O8 3.460790 1_554
Ba1 O15 2.761798 1_555
Ba1 O12 2.761798 1_555
Ba1 O5 2.767082 1_555
Ba1 O10 2.881434 1_555
Ba1 O9 2.881434 1_555
Ba1 O18 3.199524 1_655
Ba1 O17 3.199524 1_565
Ba1 O7 3.413173 1_555
Ba1 O9 3.460790 1_556
Ba1 O10 3.460790 1_556
Ba2 O6 2.782731 1_555
Ba2 O7 2.782731 1_554
Ba2 O15 2.912697 1_554
Ba2 O12 2.912697 1_554
Ba2 O14 2.912697 1_555
Ba2 O13 2.912697 1_555
Fe0 O8 1.804804 1_565
Fe0 O12 1.839157 1_555
Fe0 O1 1.939222 1_555
Fe0 O16 1.992343 1_556
Fe1 O9 1.804804 1_545
Fe1 O13 1.839157 1_555
Fe1 O0 1.939222 1_555
Fe1 O17 1.992343 1_554
Fe2 O10 1.804804 1_455
Fe2 O14 1.839157 1_555
Fe2 O3 1.939222 1_555
Fe2 O18 1.992343 1_554
Fe3 O11 1.804804 1_655
Fe3 O15 1.839157 1_555
Fe3 O2 1.939222 1_555
Fe3 O19 1.992343 1_556
Fe4 O8 1.870937 1_555
Fe4 O6 1.873124 1_555
Fe4 O13 1.943395 1_556
Fe4 O0 1.972955 1_555
Fe5 O9 1.870937 1_555
Fe5 O7 1.873124 1_555
Fe5 O12 1.943395 1_554
Fe5 O1 1.972955 1_555
Fe6 O10 1.870937 1_555
Fe6 O7 1.873124 1_555
Fe6 O15 1.943395 1_554
Fe6 O2 1.972955 1_555
Fe7 O11 1.870937 1_555
Fe7 O6 1.873124 1_555
Fe7 O14 1.943395 1_556
Fe7 O3 1.972955 1_555
O0 Sn2 2.042232 1_555
O1 Sn1 2.042232 1_555
O2 Sn2 2.042232 1_555
O3 Sn1 2.042232 1_555
O4 Sn0 2.079242 1_556
O4 Sn1 2.211994 1_545
O4 Sn2 2.211994 1_455
O5 Sn0 2.079242 1_665
O5 Sn2 2.211994 1_565
O5 Sn1 2.211994 1_655
O16 Sn1 2.085001 1_555
O16 Sn0 2.098870 1_565
O17 Sn2 2.085001 1_555
O17 Sn0 2.098870 1_656
O18 Sn1 2.085001 1_555
O18 Sn0 2.098870 1_566
O19 Sn2 2.085001 1_555
O19 Sn0 2.098870 1_655
