# generated using pymatgen
data_Sr2FeWO6
_symmetry_space_group_name_H-M   'P 1'
_cell_length_a   5.74668694
_cell_length_b   5.66322939
_cell_length_c   9.85443671
_cell_angle_alpha   73.29002316
_cell_angle_beta   105.36798498
_cell_angle_gamma   119.51406433
_symmetry_Int_Tables_number   1
_chemical_formula_structural   Sr2FeWO6
_chemical_formula_sum   'Sr4 Fe2 W2 O12'
_cell_volume   264.36372484
_cell_formula_units_Z   2
loop_
 _symmetry_equiv_pos_site_id
 _symmetry_equiv_pos_as_xyz
  1  'x, y, z'
loop_
 _atom_site_type_symbol
 _atom_site_label
 _atom_site_symmetry_multiplicity
 _atom_site_fract_x
 _atom_site_fract_y
 _atom_site_fract_z
 _atom_site_occupancy
  Sr  Sr0  1  0.62795900  0.37413500  0.87680900  1
  Sr  Sr1  1  0.12195400  0.87597200  0.37353700  1
  Sr  Sr2  1  0.37793600  0.62402900  0.12642500  1
  Sr  Sr3  1  0.87210000  0.12584500  0.62322500  1
  Fe  Fe0  1  0.75004300  0.25006900  0.24998700  1
  Fe  Fe1  1  0.25007200  0.74997400  0.75002100  1
  W  W0  1  0.49700200  0.50218400  0.50130300  1
  W  W1  1  0.00301900  0.99780800  0.99869800  1
  O  O0  1  0.35900500  0.11383900  0.11673300  1
  O  O1  1  0.85298800  0.62616500  0.61859800  1
  O  O2  1  0.64704900  0.87387700  0.88139200  1
  O  O3  1  0.14094700  0.38609300  0.38330000  1
  O  O4  1  0.85814100  0.65875700  0.14381700  1
  O  O5  1  0.35622700  0.17342600  0.64543800  1
  O  O6  1  0.14381000  0.32659500  0.85459600  1
  O  O7  1  0.64177600  0.84122700  0.35614500  1
  O  O8  1  0.40020500  0.69945900  0.59506900  1
  O  O9  1  0.90967700  0.18642200  0.09528300  1
  O  O10  1  0.59027900  0.31351200  0.40472700  1
  O  O11  1  0.09981100  0.80061500  0.90489600  1
loop_
_geom_bond_atom_site_label_1
_geom_bond_atom_site_label_2
_geom_bond_distance
_geom_bond_site_symmetry_2
Fe0 O4 2.091119 1_555
Fe0 O7 2.091689 1_545
Fe0 O3 2.162952 1_655
Fe0 O9 2.163034 1_555
Fe0 O10 2.163191 1_555
Fe0 O0 2.163262 1_555
Fe1 O8 2.085783 1_555
Fe1 O11 2.086005 1_555
Fe1 O6 2.157282 1_555
Fe1 O5 2.157731 1_565
Fe1 O2 2.180017 1_555
Fe1 O1 2.180688 1_455
O0 W1 1.955407 1_544
O0 Sr0 2.799947 1_554
O0 Sr2 2.802675 1_545
O0 Sr1 2.851919 1_545
O0 Sr2 2.865768 1_555
O1 W0 1.952494 1_555
O1 Sr3 2.790564 1_565
O1 Sr0 2.832157 1_555
O1 Sr1 2.842842 1_655
O1 Sr3 2.876129 1_555
O2 W1 1.952470 1_655
O2 Sr0 2.790844 1_555
O2 Sr3 2.831827 1_565
O2 Sr2 2.843047 1_556
O2 Sr0 2.875833 1_565
O3 W0 1.955561 1_555
O3 Sr3 2.799634 1_455
O3 Sr1 2.803067 1_555
O3 Sr2 2.852355 1_555
O3 Sr1 2.865430 1_545
O4 W1 1.975366 1_654
O4 Sr1 2.623182 1_655
O4 Sr2 2.630082 1_555
O4 Sr2 3.140125 1_655
O5 W0 1.934587 1_555
O5 Sr0 2.604490 1_555
O5 Sr3 2.614047 1_455
O5 Sr1 3.206034 1_545
O6 W1 1.934504 1_545
O6 Sr3 2.604562 1_455
O6 Sr0 2.614265 1_555
O6 Sr2 3.205401 1_556
O7 W0 1.975474 1_555
O7 Sr2 2.623159 1_555
O7 Sr1 2.629887 1_655
O7 Sr1 3.140332 1_555
O8 W0 1.972251 1_555
O8 Sr1 2.606085 1_555
O8 Sr3 2.607006 1_565
O9 W1 1.937626 1_644
O9 Sr2 2.627951 1_655
O9 Sr0 2.630278 1_554
O9 Sr1 3.109004 1_645
O9 Sr2 3.149859 1_545
O10 W0 1.937581 1_555
O10 Sr1 2.628027 1_545
O10 Sr3 2.630636 1_555
O10 Sr2 3.109653 1_555
O10 Sr1 3.149892 1_655
O11 W1 1.972092 1_555
O11 Sr2 2.605832 1_556
O11 Sr0 2.607039 1_455
