# generated using pymatgen
data_Li13Zn11Ge12
_symmetry_space_group_name_H-M   'P 1'
_cell_length_a   4.47128217
_cell_length_b   4.47128217
_cell_length_c   37.73431000
_cell_angle_alpha   90.00000000
_cell_angle_beta   90.00000000
_cell_angle_gamma   120.00000257
_symmetry_Int_Tables_number   1
_chemical_formula_structural   Li13Zn11Ge12
_chemical_formula_sum   'Li13 Zn11 Ge12'
_cell_volume   653.32787734
_cell_formula_units_Z   1
loop_
 _symmetry_equiv_pos_site_id
 _symmetry_equiv_pos_as_xyz
  1  'x, y, z'
loop_
 _atom_site_type_symbol
 _atom_site_label
 _atom_site_symmetry_multiplicity
 _atom_site_fract_x
 _atom_site_fract_y
 _atom_site_fract_z
 _atom_site_occupancy
  Li  Li0  1  0.00000000  0.00000000  0.74985700  1
  Li  Li1  1  0.00000000  0.00000000  0.50000000  1
  Li  Li2  1  0.00000000  0.00000000  0.25014300  1
  Li  Li3  1  0.00000000  0.00000000  0.00000000  1
  Li  Li4  1  0.66666700  0.33333300  0.00000000  1
  Li  Li5  1  0.00000000  0.00000000  0.66636100  1
  Li  Li6  1  0.00000000  0.00000000  0.41645900  1
  Li  Li7  1  0.00000000  0.00000000  0.16609400  1
  Li  Li8  1  0.00000000  0.00000000  0.91905700  1
  Li  Li9  1  0.00000000  0.00000000  0.83390600  1
  Li  Li10  1  0.00000000  0.00000000  0.58354100  1
  Li  Li11  1  0.00000000  0.00000000  0.33363900  1
  Li  Li12  1  0.00000000  0.00000000  0.08094300  1
  Zn  Zn0  1  0.33333300  0.66666700  0.82116600  1
  Zn  Zn1  1  0.33333300  0.66666700  0.57119700  1
  Zn  Zn2  1  0.33333300  0.66666700  0.32133600  1
  Zn  Zn3  1  0.33333300  0.66666700  0.06685000  1
  Zn  Zn4  1  0.33333300  0.66666700  0.67866400  1
  Zn  Zn5  1  0.33333300  0.66666700  0.42880300  1
  Zn  Zn6  1  0.33333300  0.66666700  0.17883400  1
  Zn  Zn7  1  0.33333300  0.66666700  0.93315000  1
  Zn  Zn8  1  0.66666700  0.33333300  0.74941200  1
  Zn  Zn9  1  0.66666700  0.33333300  0.50000000  1
  Zn  Zn10  1  0.66666700  0.33333300  0.25058800  1
  Ge  Ge0  1  0.66666700  0.33333300  0.84195400  1
  Ge  Ge1  1  0.66666700  0.33333300  0.59159000  1
  Ge  Ge2  1  0.66666700  0.33333300  0.34117000  1
  Ge  Ge3  1  0.66666700  0.33333300  0.09126600  1
  Ge  Ge4  1  0.66666700  0.33333300  0.65883000  1
  Ge  Ge5  1  0.66666700  0.33333300  0.40841000  1
  Ge  Ge6  1  0.66666700  0.33333300  0.15804600  1
  Ge  Ge7  1  0.66666700  0.33333300  0.90873400  1
  Ge  Ge8  1  0.33333300  0.66666700  0.75045500  1
  Ge  Ge9  1  0.33333300  0.66666700  0.50000000  1
  Ge  Ge10  1  0.33333300  0.66666700  0.24954500  1
  Ge  Ge11  1  0.33333300  0.66666700  0.00000000  1
loop_
_geom_bond_atom_site_label_1
_geom_bond_atom_site_label_2
_geom_bond_distance
_geom_bond_site_symmetry_2
Li0 Zn8 2.581548 1_455
Li0 Zn8 2.581552 1_445
Li0 Zn8 2.581552 1_555
Li1 Zn9 2.581493 1_455
Li1 Zn9 2.581497 1_445
Li1 Zn9 2.581497 1_555
Li2 Zn10 2.581548 1_455
Li2 Zn10 2.581552 1_445
Li2 Zn10 2.581552 1_555
Li5 Zn4 2.622905 1_545
Li5 Zn4 2.622909 1_555
Li5 Zn4 2.622909 1_445
Li6 Zn5 2.623180 1_545
Li6 Zn5 2.623183 1_555
Li6 Zn5 2.623183 1_445
Li7 Zn6 2.625874 1_545
Li7 Zn6 2.625878 1_445
Li7 Zn6 2.625878 1_555
Li8 Zn7 2.635699 1_545
Li8 Zn7 2.635703 1_555
Li8 Zn7 2.635703 1_445
Li9 Zn0 2.625874 1_545
Li9 Zn0 2.625878 1_555
Li9 Zn0 2.625878 1_445
Li10 Zn1 2.623180 1_545
Li10 Zn1 2.623183 1_555
Li10 Zn1 2.623183 1_445
Li11 Zn2 2.622905 1_545
Li11 Zn2 2.622909 1_555
Li11 Zn2 2.622909 1_445
Li12 Zn3 2.635699 1_545
Li12 Zn3 2.635703 1_555
Li12 Zn3 2.635703 1_445
Ge0 Ge7 2.519897 1_555
Ge0 Li9 2.599295 1_655
Ge0 Li9 2.599299 1_665
Ge0 Li9 2.599299 1_555
Ge0 Zn0 2.698041 1_545
Ge0 Zn0 2.698041 1_655
Ge0 Zn0 2.698048 1_555
Ge1 Ge4 2.537255 1_555
Ge1 Li10 2.599299 1_655
Ge1 Li10 2.599303 1_665
Ge1 Li10 2.599303 1_555
Ge1 Zn1 2.693745 1_545
Ge1 Zn1 2.693745 1_655
Ge1 Zn1 2.693753 1_555
Ge2 Ge5 2.537255 1_555
Ge2 Li11 2.597088 1_655
Ge2 Li11 2.597092 1_665
Ge2 Li11 2.597092 1_555
Ge2 Zn2 2.687795 1_545
Ge2 Zn2 2.687795 1_655
Ge2 Zn2 2.687803 1_555
Ge3 Ge6 2.519897 1_555
Ge3 Li12 2.610717 1_655
Ge3 Li12 2.610721 1_665
Ge3 Li12 2.610721 1_555
Ge3 Zn3 2.740974 1_545
Ge3 Zn3 2.740974 1_655
Ge3 Zn3 2.740982 1_555
Ge4 Li5 2.597088 1_655
Ge4 Li5 2.597092 1_555
Ge4 Li5 2.597092 1_665
Ge4 Zn4 2.687795 1_545
Ge4 Zn4 2.687795 1_655
Ge4 Zn4 2.687803 1_555
Ge5 Li6 2.599299 1_655
Ge5 Li6 2.599303 1_555
Ge5 Li6 2.599303 1_665
Ge5 Zn5 2.693745 1_545
Ge5 Zn5 2.693745 1_655
Ge5 Zn5 2.693753 1_555
Ge6 Li7 2.599295 1_655
Ge6 Li7 2.599299 1_555
Ge6 Li7 2.599299 1_665
Ge6 Zn6 2.698041 1_545
Ge6 Zn6 2.698041 1_655
Ge6 Zn6 2.698048 1_555
Ge7 Li8 2.610717 1_655
Ge7 Li8 2.610721 1_665
Ge7 Li8 2.610721 1_555
Ge7 Zn7 2.740974 1_545
Ge7 Zn7 2.740974 1_655
Ge7 Zn7 2.740982 1_555
Ge8 Li0 2.581592 1_565
Ge8 Li0 2.581596 1_555
Ge8 Li0 2.581596 1_665
Ge8 Zn8 2.581793 1_455
Ge8 Zn8 2.581793 1_565
Ge8 Zn8 2.581801 1_555
Ge8 Zn0 2.668231 1_555
Ge8 Zn4 2.708984 1_555
Ge9 Zn9 2.581493 1_455
Ge9 Zn9 2.581493 1_565
Ge9 Li1 2.581493 1_565
Ge9 Li1 2.581497 1_555
Ge9 Li1 2.581497 1_665
Ge9 Zn9 2.581501 1_555
Ge9 Zn1 2.686570 1_555
Ge9 Zn5 2.686570 1_555
Ge10 Li2 2.581592 1_565
Ge10 Li2 2.581596 1_555
Ge10 Li2 2.581596 1_665
Ge10 Zn10 2.581793 1_455
Ge10 Zn10 2.581793 1_565
Ge10 Zn10 2.581801 1_555
Ge10 Zn6 2.668231 1_555
Ge10 Zn2 2.708984 1_555
Ge11 Zn7 2.522539 1_554
Ge11 Zn3 2.522539 1_555
Ge11 Li4 2.581493 1_455
Ge11 Li4 2.581493 1_565
Ge11 Li3 2.581493 1_565
Ge11 Li3 2.581497 1_555
Ge11 Li3 2.581497 1_665
Ge11 Li4 2.581501 1_555
