# generated using pymatgen
data_Sc2B6Ir
_symmetry_space_group_name_H-M   'P 1'
_cell_length_a   3.46935686
_cell_length_b   8.91535228
_cell_length_c   11.21034991
_cell_angle_alpha   90.00000000
_cell_angle_beta   90.00000000
_cell_angle_gamma   90.00000000
_symmetry_Int_Tables_number   1
_chemical_formula_structural   Sc2B6Ir
_chemical_formula_sum   'Sc8 B24 Ir4'
_cell_volume   346.74216052
_cell_formula_units_Z   4
loop_
 _symmetry_equiv_pos_site_id
 _symmetry_equiv_pos_as_xyz
  1  'x, y, z'
loop_
 _atom_site_type_symbol
 _atom_site_label
 _atom_site_symmetry_multiplicity
 _atom_site_fract_x
 _atom_site_fract_y
 _atom_site_fract_z
 _atom_site_occupancy
  Sc  Sc0  1  0.50000000  0.31773627  0.41436733  1
  Sc  Sc1  1  0.50000000  0.68226373  0.58563267  1
  Sc  Sc2  1  0.50000000  0.18226373  0.91436733  1
  Sc  Sc3  1  0.50000000  0.81773627  0.08563267  1
  Sc  Sc4  1  0.50000000  0.44455667  0.12496533  1
  Sc  Sc5  1  0.50000000  0.55544333  0.87503467  1
  Sc  Sc6  1  0.50000000  0.05544333  0.62496533  1
  Sc  Sc7  1  0.50000000  0.94455667  0.37503467  1
  B  B0  1  0.00000000  0.10376595  0.47176861  1
  B  B1  1  0.00000000  0.89623405  0.52823139  1
  B  B2  1  -0.00000000  0.39623405  0.97176861  1
  B  B3  1  -0.00000000  0.60376595  0.02823139  1
  B  B4  1  -0.00000000  0.13130357  0.31872789  1
  B  B5  1  0.00000000  0.86869643  0.68127211  1
  B  B6  1  -0.00000000  0.36869643  0.81872789  1
  B  B7  1  -0.00000000  0.63130357  0.18127211  1
  B  B8  1  -0.00000000  0.05413051  0.06356672  1
  B  B9  1  -0.00000000  0.94586949  0.93643328  1
  B  B10  1  -0.00000000  0.44586949  0.56356672  1
  B  B11  1  0.00000000  0.55413051  0.43643328  1
  B  B12  1  -0.00000000  0.47980796  0.28665102  1
  B  B13  1  -0.00000000  0.52019204  0.71334898  1
  B  B14  1  0.00000000  0.02019204  0.78665102  1
  B  B15  1  0.00000000  0.97980796  0.21334898  1
  B  B16  1  -0.00000000  0.25243111  0.07774010  1
  B  B17  1  -0.00000000  0.74756889  0.92225990  1
  B  B18  1  0.00000000  0.24756889  0.57774010  1
  B  B19  1  0.00000000  0.75243111  0.42225990  1
  B  B20  1  -0.00000000  0.29586032  0.23706675  1
  B  B21  1  -0.00000000  0.70413968  0.76293325  1
  B  B22  1  -0.00000000  0.20413968  0.73706675  1
  B  B23  1  0.00000000  0.79586032  0.26293325  1
  Ir  Ir0  1  0.50000000  0.14017291  0.17996238  1
  Ir  Ir1  1  0.50000000  0.85982709  0.82003762  1
  Ir  Ir2  1  0.50000000  0.35982709  0.67996238  1
  Ir  Ir3  1  0.50000000  0.64017291  0.32003762  1
loop_
_geom_bond_atom_site_label_1
_geom_bond_atom_site_label_2
_geom_bond_distance
_geom_bond_site_symmetry_2
B0 B4 1.733117 1_555
B0 B18 1.747842 1_555
B0 B1 1.955495 1_545
B0 Sc6 2.478736 1_455
B0 Sc6 2.478736 1_555
B0 Sc7 2.489939 1_545
B0 Sc7 2.489939 1_445
B0 Sc0 2.657481 1_555
B0 Sc0 2.657481 1_455
B1 B5 1.733117 1_555
B1 B19 1.747842 1_555
B1 Sc7 2.478736 1_555
B1 Sc7 2.478736 1_455
B1 Sc6 2.489939 1_565
B1 Sc6 2.489939 1_465
B1 Sc1 2.657481 1_555
B1 Sc1 2.657481 1_455
B2 B6 1.733117 1_555
B2 B3 1.955495 1_556
B2 Sc4 2.478736 1_556
B2 Sc4 2.478736 1_456
B2 Sc5 2.489939 1_455
B2 Sc5 2.489939 1_555
B2 Sc2 2.657481 1_455
B2 Sc2 2.657481 1_555
B3 B7 1.733117 1_555
B3 Sc5 2.478736 1_454
B3 Sc5 2.478736 1_554
B3 Sc4 2.489939 1_555
B3 Sc4 2.489939 1_455
B3 Sc3 2.657481 1_555
B3 Sc3 2.657481 1_455
B4 Ir0 2.331370 1_555
B4 Ir0 2.331370 1_455
B4 Sc7 2.485857 1_445
B4 Sc7 2.485857 1_545
B4 Sc0 2.630825 1_455
B4 Sc0 2.630825 1_555
B5 Ir1 2.331370 1_455
B5 Ir1 2.331370 1_555
B5 Sc6 2.485857 1_565
B5 Sc6 2.485857 1_465
B5 Sc1 2.630825 1_455
B5 Sc1 2.630825 1_555
B6 Ir2 2.331370 1_555
B6 Ir2 2.331370 1_455
B6 Sc5 2.485857 1_455
B6 Sc5 2.485857 1_555
B6 Sc2 2.630825 1_455
B6 Sc2 2.630825 1_555
B7 Ir3 2.331370 1_455
B7 Ir3 2.331370 1_555
B7 Sc4 2.485857 1_555
B7 Sc4 2.485857 1_455
B7 Sc3 2.630825 1_555
B7 Sc3 2.630825 1_455
B8 B9 1.721281 1_544
B8 Ir0 2.302205 1_555
B8 Ir0 2.302205 1_455
B8 Sc2 2.666757 1_454
B8 Sc2 2.666757 1_554
B8 Sc3 2.740806 1_445
B8 Sc3 2.740806 1_545
B9 Ir1 2.302205 1_555
B9 Ir1 2.302205 1_455
B9 Sc3 2.666757 1_556
B9 Sc3 2.666757 1_456
B9 Sc2 2.740806 1_565
B9 Sc2 2.740806 1_465
B10 B11 1.721281 1_555
B10 B18 1.775045 1_555
B10 B13 1.805123 1_555
B10 Ir2 2.302205 1_455
B10 Ir2 2.302205 1_555
B10 Sc0 2.666757 1_555
B10 Sc0 2.666757 1_455
B10 Sc1 2.740806 1_455
B10 Sc1 2.740806 1_555
B11 B19 1.775045 1_555
B11 B12 1.805123 1_555
B11 Ir3 2.302205 1_455
B11 Ir3 2.302205 1_555
B11 Sc1 2.666757 1_455
B11 Sc1 2.666757 1_555
B11 Sc0 2.740806 1_455
B11 Sc0 2.740806 1_555
B12 B20 1.731600 1_555
B12 B7 1.794372 1_555
B12 Ir3 2.278873 1_555
B12 Ir3 2.278873 1_455
B12 Sc4 2.528483 1_555
B12 Sc4 2.528483 1_455
B12 Sc0 2.673352 1_555
B12 Sc0 2.673352 1_455
B13 B21 1.731600 1_555
B13 B6 1.794372 1_555
B13 Ir2 2.278873 1_455
B13 Ir2 2.278873 1_555
B13 Sc5 2.528483 1_455
B13 Sc5 2.528483 1_555
B13 Sc1 2.673352 1_455
B13 Sc1 2.673352 1_555
B14 B22 1.731600 1_555
B14 B5 1.794372 1_545
B14 B9 1.805123 1_545
B14 Ir1 2.278873 1_445
B14 Ir1 2.278873 1_545
B14 Sc6 2.528483 1_555
B14 Sc6 2.528483 1_455
B14 Sc2 2.673352 1_555
B14 Sc2 2.673352 1_455
B15 B23 1.731600 1_555
B15 B4 1.794372 1_565
B15 B8 1.805123 1_565
B15 Ir0 2.278873 1_465
B15 Ir0 2.278873 1_565
B15 Sc7 2.528483 1_555
B15 Sc7 2.528483 1_455
B15 Sc3 2.673352 1_555
B15 Sc3 2.673352 1_455
B16 B2 1.747842 1_554
B16 B8 1.775045 1_555
B16 B20 1.827592 1_555
B16 Ir0 2.307368 1_555
B16 Ir0 2.307368 1_455
B16 Sc4 2.494654 1_555
B16 Sc4 2.494654 1_455
B16 Sc2 2.598983 1_454
B16 Sc2 2.598983 1_554
B17 B3 1.747842 1_556
B17 B9 1.775045 1_555
B17 B21 1.827592 1_555
B17 Ir1 2.307368 1_555
B17 Ir1 2.307368 1_455
B17 Sc5 2.494654 1_455
B17 Sc5 2.494654 1_555
B17 Sc3 2.598983 1_556
B17 Sc3 2.598983 1_456
B18 B22 1.827592 1_555
B18 Ir2 2.307368 1_455
B18 Ir2 2.307368 1_555
B18 Sc6 2.494654 1_455
B18 Sc6 2.494654 1_555
B18 Sc0 2.598983 1_555
B18 Sc0 2.598983 1_455
B19 B23 1.827592 1_555
B19 Ir3 2.307368 1_555
B19 Ir3 2.307368 1_455
B19 Sc7 2.494654 1_455
B19 Sc7 2.494654 1_555
B19 Sc1 2.598983 1_455
B19 Sc1 2.598983 1_555
B20 B4 1.729270 1_555
B20 Ir0 2.312030 1_555
B20 Ir0 2.312030 1_455
B20 Sc4 2.519092 1_555
B20 Sc4 2.519092 1_455
B20 Sc0 2.645318 1_455
B20 Sc0 2.645318 1_555
B21 B5 1.729270 1_555
B21 Ir1 2.312030 1_455
B21 Ir1 2.312030 1_555
B21 Sc5 2.519092 1_555
B21 Sc5 2.519092 1_455
B21 Sc1 2.645318 1_455
B21 Sc1 2.645318 1_555
B22 B6 1.729270 1_555
B22 Ir2 2.312030 1_555
B22 Ir2 2.312030 1_455
B22 Sc6 2.519092 1_555
B22 Sc6 2.519092 1_455
B22 Sc2 2.645318 1_455
B22 Sc2 2.645318 1_555
B23 B7 1.729270 1_555
B23 Ir3 2.312030 1_555
B23 Ir3 2.312030 1_455
B23 Sc7 2.519092 1_555
B23 Sc7 2.519092 1_455
B23 Sc3 2.645318 1_455
B23 Sc3 2.645318 1_555
Ir0 Sc4 2.782844 1_555
Ir0 Sc7 2.797090 1_545
Ir0 Sc2 3.000968 1_554
Ir0 Sc3 3.062968 1_545
Ir0 Sc0 3.067759 1_555
Ir1 Sc5 2.782844 1_555
Ir1 Sc6 2.797090 1_565
Ir1 Sc3 3.000968 1_556
Ir1 Sc2 3.062968 1_565
Ir1 Sc1 3.067759 1_555
Ir2 Sc6 2.782844 1_555
Ir2 Sc5 2.797090 1_555
Ir2 Sc0 3.000968 1_555
Ir2 Sc1 3.062968 1_555
Ir2 Sc2 3.067759 1_555
Ir3 Sc7 2.782844 1_555
Ir3 Sc4 2.797090 1_555
Ir3 Sc1 3.000968 1_555
Ir3 Sc0 3.062968 1_555
Ir3 Sc3 3.067759 1_555
