# generated using pymatgen
data_Lu4CoSn8
_symmetry_space_group_name_H-M   'P 1'
_cell_length_a   4.35541000
_cell_length_b   4.39724500
_cell_length_c   16.66052300
_cell_angle_alpha   90.00000000
_cell_angle_beta   90.00000000
_cell_angle_gamma   90.00000000
_symmetry_Int_Tables_number   1
_chemical_formula_structural   Lu4CoSn8
_chemical_formula_sum   'Lu4 Co1 Sn8'
_cell_volume   319.07908512
_cell_formula_units_Z   1
loop_
 _symmetry_equiv_pos_site_id
 _symmetry_equiv_pos_as_xyz
  1  'x, y, z'
loop_
 _atom_site_type_symbol
 _atom_site_label
 _atom_site_symmetry_multiplicity
 _atom_site_fract_x
 _atom_site_fract_y
 _atom_site_fract_z
 _atom_site_occupancy
  Lu  Lu0  1  0.25000000  0.00000000  0.10088500  1
  Lu  Lu1  1  0.25000000  0.50000000  0.60225100  1
  Lu  Lu2  1  0.75000000  0.50000000  0.39736700  1
  Lu  Lu3  1  0.75000000  0.00000000  0.89973000  1
  Co  Co0  1  0.25000000  0.00000000  0.30992500  1
  Sn  Sn0  1  0.25000000  0.50000000  0.23687300  1
  Sn  Sn1  1  0.25000000  0.00000000  0.74576500  1
  Sn  Sn2  1  0.75000000  0.00000000  0.24074100  1
  Sn  Sn3  1  0.75000000  0.50000000  0.75475400  1
  Sn  Sn4  1  0.25000000  0.00000000  0.45513100  1
  Sn  Sn5  1  0.25000000  0.50000000  0.93739200  1
  Sn  Sn6  1  0.75000000  0.50000000  0.06366200  1
  Sn  Sn7  1  0.75000000  0.00000000  0.57252400  1
loop_
_geom_bond_atom_site_label_1
_geom_bond_atom_site_label_2
_geom_bond_distance
_geom_bond_site_symmetry_2
Lu0 Sn6 3.156094 1_545
Lu0 Sn6 3.156094 1_445
Lu0 Sn6 3.156094 1_455
Lu0 Sn6 3.156094 1_555
Lu0 Sn0 3.157060 1_555
Lu0 Sn0 3.157060 1_545
Lu0 Sn2 3.189302 1_555
Lu0 Sn2 3.189302 1_455
Lu0 Sn5 3.500494 1_544
Lu0 Sn5 3.500494 1_554
Lu1 Sn7 3.133948 1_465
Lu1 Sn7 3.133948 1_565
Lu1 Sn7 3.133948 1_455
Lu1 Sn7 3.133948 1_555
Lu1 Sn1 3.248216 1_565
Lu1 Sn1 3.248216 1_555
Lu1 Sn4 3.292691 1_565
Lu1 Sn4 3.292691 1_555
Lu1 Sn3 3.346335 1_555
Lu1 Sn3 3.346335 1_455
Lu2 Sn4 3.240758 1_655
Lu2 Sn4 3.240758 1_565
Lu2 Sn4 3.240758 1_665
Lu2 Sn4 3.240758 1_555
Lu2 Sn2 3.412225 1_565
Lu2 Sn2 3.412225 1_555
Lu2 Sn0 3.448509 1_655
Lu2 Sn0 3.448509 1_555
Lu2 Sn7 3.653748 1_565
Lu2 Sn7 3.653748 1_555
Lu3 Sn5 3.157540 1_645
Lu3 Sn5 3.157540 1_545
Lu3 Sn5 3.157540 1_555
Lu3 Sn5 3.157540 1_655
Lu3 Sn3 3.266188 1_555
Lu3 Sn3 3.266188 1_545
Lu3 Sn1 3.364867 1_555
Lu3 Sn1 3.364867 1_655
Lu3 Sn6 3.506188 1_556
Lu3 Sn6 3.506188 1_546
Co0 Sn4 2.419208 1_555
Co0 Sn2 2.463936 1_455
Co0 Sn2 2.463936 1_555
Co0 Sn0 2.513013 1_555
Co0 Sn0 2.513013 1_545
Co0 Lu2 3.420335 1_555
Co0 Lu2 3.420335 1_545
Co0 Lu2 3.420335 1_445
Co0 Lu2 3.420335 1_455
Sn1 Sn3 3.098188 1_455
Sn1 Sn3 3.098188 1_555
Sn1 Sn3 3.098188 1_445
Sn1 Sn3 3.098188 1_545
Sn4 Sn7 2.927057 1_455
Sn4 Sn7 2.927057 1_555
Sn5 Sn6 3.027880 1_556
Sn5 Sn6 3.027880 1_456
