# generated using pymatgen
data_YBi(WO4)2
_symmetry_space_group_name_H-M   'P 1'
_cell_length_a   5.36029300
_cell_length_b   5.59639606
_cell_length_c   6.36814200
_cell_angle_alpha   115.95492069
_cell_angle_beta   108.47310392
_cell_angle_gamma   90.07706128
_symmetry_Int_Tables_number   1
_chemical_formula_structural   YBi(WO4)2
_chemical_formula_sum   'Y1 Bi1 W2 O8'
_cell_volume   160.70404883
_cell_formula_units_Z   1
loop_
 _symmetry_equiv_pos_site_id
 _symmetry_equiv_pos_as_xyz
  1  'x, y, z'
loop_
 _atom_site_type_symbol
 _atom_site_label
 _atom_site_symmetry_multiplicity
 _atom_site_fract_x
 _atom_site_fract_y
 _atom_site_fract_z
 _atom_site_occupancy
  Y  Y0  1  0.53018700  0.26901800  0.89630400  1
  Bi  Bi0  1  0.02329100  0.73806700  0.87867200  1
  W  W0  1  0.28267600  0.59046800  0.39637400  1
  W  W1  1  0.78529200  0.96599300  0.39761300  1
  O  O0  1  0.28233700  0.25773400  0.14243700  1
  O  O1  1  0.27164400  0.49632200  0.65826900  1
  O  O2  1  0.40498000  0.74449600  0.18665300  1
  O  O3  1  0.14794600  0.95740200  0.61542100  1
  O  O4  1  0.76819300  0.06908200  0.15461400  1
  O  O5  1  0.76864100  0.31145100  0.66925000  1
  O  O6  1  0.63818400  0.82598200  0.61863100  1
  O  O7  1  0.89653300  0.59548700  0.18966600  1
loop_
_geom_bond_atom_site_label_1
_geom_bond_atom_site_label_2
_geom_bond_distance
_geom_bond_site_symmetry_2
Bi0 O1 2.258169 1_555
Bi0 O5 2.322180 1_455
Bi0 O2 2.330012 1_556
Bi0 O6 2.407324 1_455
Bi0 O4 2.658855 1_466
Bi0 O7 2.693532 1_456
Bi0 O3 2.696752 1_555
Bi0 O0 2.728109 1_566
O0 W0 1.856020 1_555
O0 Y0 2.373155 1_554
O1 W0 1.973369 1_555
O1 Y0 2.489563 1_555
O2 W1 2.072959 1_555
O2 W0 2.125448 1_555
O2 Y0 2.726616 1_554
O3 W1 2.013696 1_455
O3 W0 2.195291 1_555
O3 Y0 2.318668 1_565
O4 W1 1.851372 1_545
O4 Y0 2.422912 1_554
O5 W1 1.977101 1_545
O5 Y0 2.291669 1_555
O6 W0 2.005732 1_555
O6 W1 2.209923 1_555
O6 Y0 2.534607 1_565
O7 W0 2.079343 1_655
O7 W1 2.123393 1_555
O7 Y0 2.315638 1_554
