# generated using pymatgen
data_LiDyO2
_symmetry_space_group_name_H-M   'P 1'
_cell_length_a   6.07386622
_cell_length_b   6.19819722
_cell_length_c   6.31105419
_cell_angle_alpha   60.32821155
_cell_angle_beta   90.00000000
_cell_angle_gamma   90.00000000
_symmetry_Int_Tables_number   1
_chemical_formula_structural   LiDyO2
_chemical_formula_sum   'Li4 Dy4 O8'
_cell_volume   206.43817272
_cell_formula_units_Z   4
loop_
 _symmetry_equiv_pos_site_id
 _symmetry_equiv_pos_as_xyz
  1  'x, y, z'
loop_
 _atom_site_type_symbol
 _atom_site_label
 _atom_site_symmetry_multiplicity
 _atom_site_fract_x
 _atom_site_fract_y
 _atom_site_fract_z
 _atom_site_occupancy
  Li  Li0  1  0.34072297  0.29912821  0.92344125  1
  Li  Li1  1  0.84072297  0.70087179  0.57655875  1
  Li  Li2  1  0.65927703  0.70087179  0.07655875  1
  Li  Li3  1  0.15927703  0.29912821  0.42344125  1
  Dy  Dy0  1  0.86771510  0.22999547  0.02629791  1
  Dy  Dy1  1  0.63228490  0.22999547  0.52629791  1
  Dy  Dy2  1  0.13228490  0.77000453  0.97370209  1
  Dy  Dy3  1  0.36771510  0.77000453  0.47370209  1
  O  O0  1  0.60679816  0.45132795  0.73659705  1
  O  O1  1  0.82075100  0.98273623  0.85713790  1
  O  O2  1  0.10679816  0.54867205  0.76340295  1
  O  O3  1  0.39320184  0.54867205  0.26340295  1
  O  O4  1  0.17924900  0.01726377  0.14286210  1
  O  O5  1  0.32075100  0.01726377  0.64286210  1
  O  O6  1  0.67924900  0.98273623  0.35713790  1
  O  O7  1  0.89320184  0.45132795  0.23659705  1
loop_
_geom_bond_atom_site_label_1
_geom_bond_atom_site_label_2
_geom_bond_distance
_geom_bond_site_symmetry_2
Li0 O4 1.880552 1_556
Li0 O0 1.947014 1_555
Li0 O2 1.970924 1_555
Li1 O6 1.880552 1_555
Li1 O2 1.947014 1_655
Li1 O0 1.970924 1_555
Li2 O1 1.880552 1_554
Li2 O3 1.947014 1_555
Li2 O7 1.970924 1_555
Li3 O5 1.880552 1_555
Li3 O7 1.947014 1_455
Li3 O3 1.970924 1_555
Dy0 O6 2.202396 1_545
Dy0 O4 2.213569 1_655
Dy0 O1 2.278093 1_544
Dy0 O0 2.291940 1_554
Dy0 O7 2.338826 1_555
Dy0 O2 2.349130 1_654
Dy1 O1 2.202396 1_545
Dy1 O5 2.213569 1_555
Dy1 O6 2.278093 1_545
Dy1 O7 2.291940 1_555
Dy1 O0 2.338826 1_555
Dy1 O3 2.349130 1_555
Dy2 O5 2.202396 1_565
Dy2 O1 2.213569 1_455
Dy2 O4 2.278093 1_566
Dy2 O3 2.291940 1_556
Dy2 O2 2.338826 1_555
Dy2 O7 2.349130 1_456
Dy3 O4 2.202396 1_565
Dy3 O6 2.213569 1_555
Dy3 O5 2.278093 1_565
Dy3 O2 2.291940 1_555
Dy3 O3 2.338826 1_555
Dy3 O0 2.349130 1_555
