# generated using pymatgen
data_TiZnNi2
_symmetry_space_group_name_H-M   'P 1'
_cell_length_a   3.01250600
_cell_length_b   3.01250600
_cell_length_c   5.62994600
_cell_angle_alpha   90.00000000
_cell_angle_beta   90.00000000
_cell_angle_gamma   90.00000000
_symmetry_Int_Tables_number   1
_chemical_formula_structural   TiZnNi2
_chemical_formula_sum   'Ti1 Zn1 Ni2'
_cell_volume   51.09284315
_cell_formula_units_Z   1
loop_
 _symmetry_equiv_pos_site_id
 _symmetry_equiv_pos_as_xyz
  1  'x, y, z'
loop_
 _atom_site_type_symbol
 _atom_site_label
 _atom_site_symmetry_multiplicity
 _atom_site_fract_x
 _atom_site_fract_y
 _atom_site_fract_z
 _atom_site_occupancy
  Ti  Ti0  1  0.50000000  0.50000000  0.00000000  1
  Zn  Zn0  1  0.50000000  0.50000000  0.50000000  1
  Ni  Ni0  1  0.00000000  0.00000000  0.75108100  1
  Ni  Ni1  1  0.00000000  0.00000000  0.24891900  1
loop_
_geom_bond_atom_site_label_1
_geom_bond_atom_site_label_2
_geom_bond_distance
_geom_bond_site_symmetry_2
Ni0 Ti0 2.549808 1_556
Ni0 Ti0 2.549808 1_446
Ni0 Ti0 2.549808 1_546
Ni0 Ti0 2.549808 1_456
Ni0 Zn0 2.556518 1_445
Ni0 Zn0 2.556518 1_455
Ni0 Zn0 2.556518 1_555
Ni0 Zn0 2.556518 1_545
Ni1 Ti0 2.549808 1_555
Ni1 Ti0 2.549808 1_545
Ni1 Ti0 2.549808 1_445
Ni1 Ti0 2.549808 1_455
Ni1 Zn0 2.556518 1_445
Ni1 Zn0 2.556518 1_455
Ni1 Zn0 2.556518 1_555
Ni1 Zn0 2.556518 1_545
