# generated using pymatgen
data_Li9Mn2Co5O16
_symmetry_space_group_name_H-M   'P 1'
_cell_length_a   5.94107924
_cell_length_b   5.94107924
_cell_length_c   9.76159201
_cell_angle_alpha   81.95227984
_cell_angle_beta   81.95227984
_cell_angle_gamma   58.39368305
_symmetry_Int_Tables_number   1
_chemical_formula_structural   Li9Mn2Co5O16
_chemical_formula_sum   'Li9 Mn2 Co5 O16'
_cell_volume   289.64380029
_cell_formula_units_Z   1
loop_
 _symmetry_equiv_pos_site_id
 _symmetry_equiv_pos_as_xyz
  1  'x, y, z'
loop_
 _atom_site_type_symbol
 _atom_site_label
 _atom_site_symmetry_multiplicity
 _atom_site_fract_x
 _atom_site_fract_y
 _atom_site_fract_z
 _atom_site_occupancy
  Li  Li0  1  0.74848400  0.25151600  0.00000000  1
  Li  Li1  1  0.25151600  0.74848400  0.00000000  1
  Li  Li2  1  0.37642400  0.37642400  0.25759100  1
  Li  Li3  1  0.87308000  0.87308000  0.25673500  1
  Li  Li4  1  0.00000000  0.50000000  0.50000000  1
  Li  Li5  1  0.50000000  0.00000000  0.50000000  1
  Li  Li6  1  0.62357600  0.62357600  0.74240900  1
  Li  Li7  1  0.12692000  0.12692000  0.74326500  1
  Li  Li8  1  0.50000000  0.50000000  0.50000000  1
  Mn  Mn0  1  0.25303100  0.25303100  0.99880800  1
  Mn  Mn1  1  0.74696900  0.74696900  0.00119200  1
  Co  Co0  1  0.86490400  0.37346300  0.25857000  1
  Co  Co1  1  0.37346300  0.86490400  0.25857000  1
  Co  Co2  1  0.00000000  0.00000000  0.50000000  1
  Co  Co3  1  0.13509600  0.62653700  0.74143000  1
  Co  Co4  1  0.62653700  0.13509600  0.74143000  1
  O  O0  1  0.94471200  0.44427900  0.88555700  1
  O  O1  1  0.44427900  0.94471200  0.88555700  1
  O  O2  1  0.56722600  0.56722600  0.12714200  1
  O  O3  1  0.07526100  0.07526100  0.13288000  1
  O  O4  1  0.17978500  0.71657300  0.38020500  1
  O  O5  1  0.71657300  0.17978500  0.38020500  1
  O  O6  1  0.82712200  0.82712200  0.61624600  1
  O  O7  1  0.31440700  0.31440700  0.64169700  1
  O  O8  1  0.55572100  0.05528800  0.11444300  1
  O  O9  1  0.05528800  0.55572100  0.11444300  1
  O  O10  1  0.17287800  0.17287800  0.38375400  1
  O  O11  1  0.68559300  0.68559300  0.35830300  1
  O  O12  1  0.82021500  0.28342700  0.61979500  1
  O  O13  1  0.28342700  0.82021500  0.61979500  1
  O  O14  1  0.43277400  0.43277400  0.87285800  1
  O  O15  1  0.92473900  0.92473900  0.86712000  1
loop_
_geom_bond_atom_site_label_1
_geom_bond_atom_site_label_2
_geom_bond_distance
_geom_bond_site_symmetry_2
Li0 O2 2.092501 1_555
Li0 O14 2.092501 1_554
Li0 O0 2.143635 1_554
Li0 O8 2.143635 1_555
Li0 O3 2.177623 1_655
Li0 O15 2.177623 1_544
Li1 O2 2.092501 1_555
Li1 O14 2.092501 1_554
Li1 O9 2.143635 1_555
Li1 O1 2.143635 1_554
Li1 O3 2.177623 1_565
Li1 O15 2.177623 1_454
Li2 O4 2.166198 1_555
Li2 O5 2.166198 1_555
Li2 O2 2.174859 1_555
Li2 O8 2.219650 1_555
Li2 O9 2.219650 1_555
Li2 O10 2.267212 1_555
Li3 O11 2.036289 1_555
Li3 O5 2.040282 1_565
Li3 O4 2.040282 1_655
Li3 O9 2.197507 1_655
Li3 O8 2.197507 1_565
Li3 O3 2.246425 1_665
Li4 O6 2.078102 1_455
Li4 O10 2.078102 1_555
Li4 O7 2.180755 1_555
Li4 O11 2.180755 1_455
Li4 O4 2.198494 1_555
Li4 O12 2.198494 1_455
Li5 O6 2.078102 1_545
Li5 O10 2.078102 1_555
Li5 O7 2.180755 1_555
Li5 O11 2.180755 1_545
Li5 O5 2.198494 1_555
Li5 O13 2.198494 1_545
Li6 O12 2.166198 1_555
Li6 O13 2.166198 1_555
Li6 O14 2.174859 1_555
Li6 O1 2.219650 1_555
Li6 O0 2.219650 1_555
Li6 O6 2.267212 1_555
Li7 O7 2.036289 1_555
Li7 O12 2.040282 1_455
Li7 O13 2.040282 1_545
Li7 O1 2.197507 1_545
Li7 O0 2.197507 1_455
Li7 O15 2.246425 1_445
Li8 O4 2.068367 1_555
Li8 O5 2.068367 1_555
Li8 O12 2.068367 1_555
Li8 O13 2.068367 1_555
Li8 O7 2.182895 1_555
Li8 O11 2.182895 1_555
Mn0 O9 1.967454 1_556
Mn0 O8 1.967454 1_556
Mn0 O1 1.975408 1_545
Mn0 O0 1.975408 1_455
Mn0 O14 2.062116 1_555
Mn0 O3 2.082991 1_556
Mn1 O1 1.967454 1_554
Mn1 O0 1.967454 1_554
Mn1 O8 1.975408 1_565
Mn1 O9 1.975408 1_655
Mn1 O2 2.062116 1_555
Mn1 O15 2.082991 1_554
Co0 O11 1.914656 1_555
Co0 O5 1.974270 1_555
Co0 O3 2.016062 1_655
Co0 O2 2.046138 1_555
Co0 O10 2.047937 1_655
Co0 O9 2.200646 1_655
Co1 O11 1.914656 1_555
Co1 O4 1.974270 1_555
Co1 O3 2.016062 1_565
Co1 O2 2.046138 1_555
Co1 O10 2.047937 1_565
Co1 O8 2.200646 1_565
Co2 O13 1.913157 1_545
Co2 O4 1.913157 1_545
Co2 O12 1.913157 1_455
Co2 O5 1.913157 1_455
Co2 O6 1.962266 1_445
Co2 O10 1.962266 1_555
Co3 O7 1.914656 1_555
Co3 O13 1.974270 1_555
Co3 O15 2.016062 1_455
Co3 O14 2.046138 1_555
Co3 O6 2.047937 1_455
Co3 O0 2.200646 1_455
Co4 O7 1.914656 1_555
Co4 O12 1.974270 1_555
Co4 O15 2.016062 1_545
Co4 O14 2.046138 1_555
Co4 O6 2.047937 1_545
Co4 O1 2.200646 1_545
