# generated using pymatgen
data_NaIn(GeO3)2
_symmetry_space_group_name_H-M   'P 1'
_cell_length_a   6.87465586
_cell_length_b   6.87465586
_cell_length_c   5.61992046
_cell_angle_alpha   77.17461453
_cell_angle_beta   77.17461453
_cell_angle_gamma   83.38289669
_symmetry_Int_Tables_number   1
_chemical_formula_structural   NaIn(GeO3)2
_chemical_formula_sum   'Na2 In2 Ge4 O12'
_cell_volume   251.90637643
_cell_formula_units_Z   2
loop_
 _symmetry_equiv_pos_site_id
 _symmetry_equiv_pos_as_xyz
  1  'x, y, z'
loop_
 _atom_site_type_symbol
 _atom_site_label
 _atom_site_symmetry_multiplicity
 _atom_site_fract_x
 _atom_site_fract_y
 _atom_site_fract_z
 _atom_site_occupancy
  Na  Na0  1  0.30334186  0.69665814  0.75000000  1
  Na  Na1  1  0.69665814  0.30334186  0.25000000  1
  In  In0  1  0.89994079  0.10005921  0.75000000  1
  In  In1  1  0.10005921  0.89994079  0.25000000  1
  Ge  Ge0  1  0.79970794  0.61746998  0.74730383  1
  Ge  Ge1  1  0.38253002  0.20029206  0.75269617  1
  Ge  Ge2  1  0.20029206  0.38253002  0.25269617  1
  Ge  Ge3  1  0.61746998  0.79970794  0.24730383  1
  O  O0  1  0.90491099  0.38038094  0.83628094  1
  O  O1  1  0.61961906  0.09508901  0.66371906  1
  O  O2  1  0.09508901  0.61961906  0.16371906  1
  O  O3  1  0.38038094  0.90491099  0.33628094  1
  O  O4  1  0.97123570  0.80393347  0.64392525  1
  O  O5  1  0.19606653  0.02876430  0.85607475  1
  O  O6  1  0.02876430  0.19606653  0.35607475  1
  O  O7  1  0.80393347  0.97123570  0.14392525  1
  O  O8  1  0.65973023  0.61998766  0.51652663  1
  O  O9  1  0.38001234  0.34026977  0.98347337  1
  O  O10  1  0.34026977  0.38001234  0.48347337  1
  O  O11  1  0.61998766  0.65973023  0.01652663  1
loop_
_geom_bond_atom_site_label_1
_geom_bond_atom_site_label_2
_geom_bond_distance
_geom_bond_site_symmetry_2
Na0 O3 2.426178 1_555
Na0 O2 2.426178 1_556
Na0 O5 2.476466 1_565
Na0 O4 2.476466 1_455
Na0 O8 2.566003 1_555
Na0 O9 2.566003 1_555
Na0 O10 2.863217 1_555
Na0 O11 2.863217 1_556
Na1 O0 2.426178 1_554
Na1 O1 2.426178 1_555
Na1 O6 2.476466 1_655
Na1 O7 2.476466 1_545
Na1 O11 2.566003 1_555
Na1 O10 2.566003 1_555
Na1 O8 2.863217 1_555
Na1 O9 2.863217 1_554
In0 O0 2.094624 1_555
In0 O1 2.094624 1_555
In0 O6 2.176364 1_655
In0 O7 2.176364 1_546
In0 O4 2.217890 1_545
In0 O5 2.217890 1_655
In1 O2 2.094624 1_555
In1 O3 2.094624 1_555
In1 O5 2.176364 1_564
In1 O4 2.176364 1_455
In1 O7 2.217890 1_455
In1 O6 2.217890 1_565
Ge0 O0 1.719520 1_555
Ge0 O4 1.756364 1_555
Ge0 O8 1.774452 1_555
Ge0 O11 1.783987 1_556
Ge1 O1 1.719520 1_555
Ge1 O5 1.756364 1_555
Ge1 O9 1.774452 1_555
Ge1 O10 1.783987 1_555
Ge2 O2 1.719520 1_555
Ge2 O6 1.756364 1_555
Ge2 O10 1.774452 1_555
Ge2 O9 1.783987 1_554
Ge3 O3 1.719520 1_555
Ge3 O7 1.756364 1_555
Ge3 O11 1.774452 1_555
Ge3 O8 1.783987 1_555
