# generated using pymatgen
data_Mg14ZnSn
_symmetry_space_group_name_H-M   'P 1'
_cell_length_a   6.30405225
_cell_length_b   6.30405175
_cell_length_c   10.38436780
_cell_angle_alpha   90.00000000
_cell_angle_beta   90.00000000
_cell_angle_gamma   120.00000265
_symmetry_Int_Tables_number   1
_chemical_formula_structural   Mg14ZnSn
_chemical_formula_sum   'Mg14 Zn1 Sn1'
_cell_volume   357.39646773
_cell_formula_units_Z   1
loop_
 _symmetry_equiv_pos_site_id
 _symmetry_equiv_pos_as_xyz
  1  'x, y, z'
loop_
 _atom_site_type_symbol
 _atom_site_label
 _atom_site_symmetry_multiplicity
 _atom_site_fract_x
 _atom_site_fract_y
 _atom_site_fract_z
 _atom_site_occupancy
  Mg  Mg0  1  0.16649722  0.83324811  0.12500000  1
  Mg  Mg1  1  0.16648585  0.83324242  0.62500000  1
  Mg  Mg2  1  0.66675189  0.33350278  0.12500000  1
  Mg  Mg3  1  0.66675758  0.33351415  0.62500000  1
  Mg  Mg4  1  0.66675189  0.83324811  0.12500000  1
  Mg  Mg5  1  0.66675758  0.83324242  0.62500000  1
  Mg  Mg6  1  0.33254549  0.16745451  0.36999445  1
  Mg  Mg7  1  0.33254549  0.16745451  0.88000555  1
  Mg  Mg8  1  0.33254549  0.66509199  0.36999445  1
  Mg  Mg9  1  0.33254549  0.66509199  0.88000555  1
  Mg  Mg10  1  0.83490801  0.16745451  0.36999445  1
  Mg  Mg11  1  0.83490801  0.16745451  0.88000555  1
  Mg  Mg12  1  0.83333300  0.66666700  0.37331375  1
  Mg  Mg13  1  0.83333300  0.66666700  0.87668625  1
  Zn  Zn0  1  0.16666700  0.33333300  0.12500000  1
  Sn  Sn0  1  0.16666700  0.33333300  0.62500000  1
loop_
_geom_bond_atom_site_label_1
_geom_bond_atom_site_label_2
_geom_bond_distance
_geom_bond_site_symmetry_2
Mg0 Mg9 3.130757 1_554
Mg0 Mg8 3.130757 1_555
Mg0 Mg7 3.130763 1_564
Mg0 Mg6 3.130763 1_565
Mg0 Mg2 3.150420 1_455
Mg0 Mg4 3.150421 1_455
Mg0 Zn0 3.152026 1_565
Mg0 Zn0 3.152026 1_555
Mg0 Mg2 3.153631 1_565
Mg0 Mg4 3.153632 1_555
Mg0 Mg12 3.155547 1_455
Mg0 Mg13 3.155547 1_454
Mg1 Mg3 3.150313 1_455
Mg1 Mg5 3.150313 1_455
Mg1 Sn0 3.152026 1_555
Mg1 Sn0 3.152026 1_565
Mg1 Mg3 3.153739 1_565
Mg1 Mg5 3.153739 1_555
Mg1 Mg12 3.184194 1_455
Mg1 Mg13 3.184194 1_455
Mg1 Mg8 3.215824 1_555
Mg1 Mg9 3.215824 1_555
Mg1 Mg6 3.215830 1_565
Mg1 Mg7 3.215830 1_565
Mg2 Mg7 3.130763 1_554
Mg2 Mg6 3.130763 1_555
Mg2 Mg4 3.150420 1_555
Mg2 Zn0 3.152026 1_555
Mg2 Zn0 3.152026 1_655
Mg2 Mg4 3.153631 1_545
Mg3 Mg5 3.150313 1_555
Mg3 Sn0 3.152026 1_655
Mg3 Sn0 3.152026 1_555
Mg3 Mg5 3.153739 1_545
Mg3 Mg6 3.215831 1_555
Mg3 Mg7 3.215831 1_555
Mg4 Mg9 3.130763 1_554
Mg4 Mg8 3.130763 1_555
Mg4 Zn0 3.152026 1_665
Mg4 Zn0 3.152026 1_555
Mg5 Sn0 3.152026 1_665
Mg5 Sn0 3.152026 1_555
Mg5 Mg8 3.215831 1_555
Mg5 Mg9 3.215831 1_555
Mg6 Zn0 3.122982 1_555
Mg6 Mg8 3.137132 1_555
Mg6 Mg8 3.166919 1_545
Mg6 Sn0 3.208238 1_555
Mg7 Zn0 3.122982 1_556
Mg7 Mg9 3.137132 1_555
Mg7 Mg9 3.166919 1_545
Mg7 Sn0 3.208238 1_555
Mg8 Zn0 3.122988 1_555
Mg8 Sn0 3.208244 1_555
Mg9 Zn0 3.122988 1_556
Mg9 Sn0 3.208244 1_555
Mg10 Zn0 3.122988 1_655
Mg10 Mg2 3.130757 1_555
Mg10 Mg4 3.130763 1_545
Mg10 Mg8 3.137132 1_655
Mg10 Mg6 3.137133 1_655
Mg10 Mg12 3.152226 1_555
Mg10 Mg12 3.152226 1_545
Mg10 Mg8 3.166919 1_545
Mg10 Mg6 3.166920 1_555
Mg10 Sn0 3.208244 1_655
Mg10 Mg3 3.215824 1_555
Mg10 Mg5 3.215830 1_545
Mg11 Zn0 3.122988 1_656
Mg11 Mg2 3.130757 1_556
Mg11 Mg4 3.130763 1_546
Mg11 Mg9 3.137132 1_655
Mg11 Mg7 3.137133 1_655
Mg11 Mg13 3.152226 1_555
Mg11 Mg13 3.152226 1_545
Mg11 Mg9 3.166919 1_545
Mg11 Mg7 3.166920 1_555
Mg11 Sn0 3.208244 1_655
Mg11 Mg3 3.215824 1_555
Mg11 Mg5 3.215830 1_545
Mg12 Mg6 3.152226 1_665
Mg12 Mg6 3.152226 1_555
Mg12 Mg8 3.152226 1_655
Mg12 Mg8 3.152226 1_555
Mg12 Mg4 3.155541 1_555
Mg12 Mg2 3.155547 1_555
Mg12 Mg5 3.184187 1_555
Mg12 Mg3 3.184194 1_555
Mg13 Mg7 3.152226 1_665
Mg13 Mg7 3.152226 1_555
Mg13 Mg9 3.152226 1_655
Mg13 Mg9 3.152226 1_555
Mg13 Mg4 3.155541 1_556
Mg13 Mg2 3.155547 1_556
Mg13 Mg5 3.184187 1_555
Mg13 Mg3 3.184194 1_555
