# generated using pymatgen
data_LiFe8(OF)8
_symmetry_space_group_name_H-M   'P 1'
_cell_length_a   4.94890256
_cell_length_b   4.90358505
_cell_length_c   12.09719186
_cell_angle_alpha   89.59212803
_cell_angle_beta   90.92466128
_cell_angle_gamma   90.55461346
_symmetry_Int_Tables_number   1
_chemical_formula_structural   LiFe8(OF)8
_chemical_formula_sum   'Li1 Fe8 O8 F8'
_cell_volume   293.50786862
_cell_formula_units_Z   1
loop_
 _symmetry_equiv_pos_site_id
 _symmetry_equiv_pos_as_xyz
  1  'x, y, z'
loop_
 _atom_site_type_symbol
 _atom_site_label
 _atom_site_symmetry_multiplicity
 _atom_site_fract_x
 _atom_site_fract_y
 _atom_site_fract_z
 _atom_site_occupancy
  Li  Li0  1  0.50184600  0.98089000  0.07590800  1
  Fe  Fe0  1  0.96989100  0.95453700  0.99284100  1
  Fe  Fe1  1  0.03415700  0.05069300  0.25329900  1
  Fe  Fe2  1  0.96584800  0.93549400  0.49919300  1
  Fe  Fe3  1  0.06574600  0.02606500  0.74654900  1
  Fe  Fe4  1  0.55608900  0.46631000  0.13063300  1
  Fe  Fe5  1  0.46644200  0.53177200  0.62400400  1
  Fe  Fe6  1  0.46636900  0.53386800  0.87386600  1
  Fe  Fe7  1  0.45075100  0.54148000  0.37411400  1
  O  O0  1  0.17301800  0.81675300  0.37360400  1
  O  O1  1  0.18491600  0.80917100  0.62440300  1
  O  O2  1  0.18396800  0.80596000  0.87453400  1
  O  O3  1  0.32124700  0.31332900  0.25344800  1
  O  O4  1  0.32835000  0.31939400  0.74949400  1
  O  O5  1  0.67437300  0.69499000  0.99551600  1
  O  O6  1  0.66827400  0.67902200  0.50074700  1
  O  O7  1  0.83152500  0.15831900  0.11885200  1
  F  F0  1  0.20285400  0.79705400  0.12413300  1
  F  F1  1  0.32292600  0.26574200  0.99373100  1
  F  F2  1  0.28783700  0.31080500  0.50079000  1
  F  F3  1  0.69473400  0.71985200  0.26017200  1
  F  F4  1  0.68774900  0.70895500  0.74988900  1
  F  F5  1  0.80982600  0.19851700  0.37842800  1
  F  F6  1  0.81459900  0.18410400  0.62478400  1
  F  F7  1  0.82277500  0.19692600  0.86957000  1
loop_
_geom_bond_atom_site_label_1
_geom_bond_atom_site_label_2
_geom_bond_distance
_geom_bond_site_symmetry_2
Li0 O7 1.907983 1_565
Li0 O5 1.926033 1_554
Fe0 O5 1.929928 1_555
Fe0 O2 1.944283 1_655
Fe0 O7 1.964632 1_566
Fe1 O3 1.908331 1_555
Fe1 O0 1.966078 1_545
Fe1 O7 1.968453 1_455
Fe2 O6 1.927547 1_555
Fe2 O0 1.942372 1_655
Fe2 O1 1.949359 1_655
Fe3 O4 1.929293 1_555
Fe3 O1 1.930023 1_545
Fe3 O2 1.965580 1_545
Fe4 O3 2.035634 1_555
Fe4 O7 2.051449 1_555
Fe4 O5 2.064917 1_554
Fe5 O6 1.939357 1_555
Fe5 O1 1.956638 1_555
Fe5 O4 1.962992 1_555
Fe6 O2 1.941664 1_555
Fe6 O5 1.949733 1_555
Fe6 O4 1.952366 1_555
Fe7 O0 1.935657 1_555
Fe7 O3 1.942249 1_555
Fe7 O6 1.976839 1_555
F0 Li0 1.826738 1_555
F0 Fe0 2.094947 1_454
F0 Fe1 2.185249 1_565
F0 Fe4 2.396059 1_555
F1 Li0 1.923303 1_546
F1 Fe6 2.079225 1_555
F1 Fe4 2.231831 1_556
F1 Fe0 2.308538 1_445
F2 Fe5 2.034445 1_555
F2 Fe7 2.067695 1_555
F2 Fe2 2.422662 1_445
F3 Fe7 2.034453 1_555
F3 Fe4 2.109191 1_555
F3 Fe1 2.325996 1_665
F4 Fe6 2.050180 1_555
F4 Fe5 2.054279 1_555
F4 Fe3 2.421615 1_665
F5 Fe1 2.033400 1_655
F5 Fe2 2.085663 1_545
F5 Fe7 2.458137 1_555
F6 Fe3 2.063599 1_655
F6 Fe2 2.106049 1_545
F6 Fe5 2.435431 1_555
F7 Fe0 2.030527 1_545
F7 Fe3 2.111303 1_655
F7 Fe6 2.429856 1_555
