# generated using pymatgen
data_La(AlPd)2
_symmetry_space_group_name_H-M   'P 1'
_cell_length_a   4.43799425
_cell_length_b   4.43799425
_cell_length_c   10.00260048
_cell_angle_alpha   90.00000000
_cell_angle_beta   90.00000000
_cell_angle_gamma   90.00000000
_symmetry_Int_Tables_number   1
_chemical_formula_structural   La(AlPd)2
_chemical_formula_sum   'La2 Al4 Pd4'
_cell_volume   197.00914815
_cell_formula_units_Z   2
loop_
 _symmetry_equiv_pos_site_id
 _symmetry_equiv_pos_as_xyz
  1  'x, y, z'
loop_
 _atom_site_type_symbol
 _atom_site_label
 _atom_site_symmetry_multiplicity
 _atom_site_fract_x
 _atom_site_fract_y
 _atom_site_fract_z
 _atom_site_occupancy
  La  La0  1  -0.00000000  0.50000000  0.24678163  1
  La  La1  1  0.50000000  -0.00000000  0.75321837  1
  Al  Al0  1  0.00000000  -0.00000000  0.50000000  1
  Al  Al1  1  0.50000000  0.50000000  0.50000000  1
  Al  Al2  1  -0.00000000  0.50000000  0.87857710  1
  Al  Al3  1  0.50000000  0.00000000  0.12142290  1
  Pd  Pd0  1  -0.00000000  0.00000000  -0.00000000  1
  Pd  Pd1  1  0.50000000  0.50000000  -0.00000000  1
  Pd  Pd2  1  -0.00000000  0.50000000  0.62847130  1
  Pd  Pd3  1  0.50000000  0.00000000  0.37152870  1
loop_
_geom_bond_atom_site_label_1
_geom_bond_atom_site_label_2
_geom_bond_distance
_geom_bond_site_symmetry_2
La0 Pd1 3.319222 1_555
La0 Pd0 3.319222 1_555
La0 Pd1 3.319222 1_455
La0 Pd0 3.319222 1_565
La0 Pd3 3.377113 1_555
La0 Pd3 3.377113 1_455
La0 Pd3 3.377113 1_565
La0 Pd3 3.377113 1_465
La1 Pd0 3.319222 1_656
La1 Pd1 3.319222 1_556
La1 Pd0 3.319222 1_556
La1 Pd1 3.319222 1_546
La1 Pd2 3.377113 1_655
La1 Pd2 3.377113 1_545
La1 Pd2 3.377113 1_645
La1 Pd2 3.377113 1_555
Al0 Pd2 2.564234 1_545
Al0 Pd2 2.564234 1_555
Al0 Pd3 2.564234 1_555
Al0 Pd3 2.564234 1_455
Al0 La0 3.367378 1_545
Al0 La1 3.367378 1_455
Al0 La0 3.367378 1_555
Al0 La1 3.367378 1_555
Al1 Pd2 2.564234 1_555
Al1 Pd2 2.564234 1_655
Al1 Pd3 2.564234 1_555
Al1 Pd3 2.564234 1_565
Al1 La0 3.367378 1_555
Al1 La0 3.367378 1_655
Al1 La1 3.367378 1_565
Al1 La1 3.367378 1_555
Al2 Pd2 2.501708 1_555
Al2 Pd0 2.529638 1_556
Al2 Pd1 2.529638 1_456
Al2 Pd1 2.529638 1_556
Al2 Pd0 2.529638 1_566
Al2 La1 3.379378 1_455
Al2 La1 3.379378 1_555
Al2 La1 3.379378 1_465
Al2 La1 3.379378 1_565
Al3 Pd3 2.501708 1_555
Al3 Pd0 2.529638 1_655
Al3 Pd1 2.529638 1_555
Al3 Pd0 2.529638 1_555
Al3 Pd1 2.529638 1_545
Al3 La0 3.379378 1_645
Al3 La0 3.379378 1_545
Al3 La0 3.379378 1_555
Al3 La0 3.379378 1_655
