# generated using pymatgen
data_VCoO3
_symmetry_space_group_name_H-M   'P 1'
_cell_length_a   4.99518644
_cell_length_b   5.50418854
_cell_length_c   5.11581760
_cell_angle_alpha   62.29730154
_cell_angle_beta   118.65336599
_cell_angle_gamma   116.23610381
_symmetry_Int_Tables_number   1
_chemical_formula_structural   VCoO3
_chemical_formula_sum   'V2 Co2 O6'
_cell_volume   104.84497604
_cell_formula_units_Z   2
loop_
 _symmetry_equiv_pos_site_id
 _symmetry_equiv_pos_as_xyz
  1  'x, y, z'
loop_
 _atom_site_type_symbol
 _atom_site_label
 _atom_site_symmetry_multiplicity
 _atom_site_fract_x
 _atom_site_fract_y
 _atom_site_fract_z
 _atom_site_occupancy
  V  V0  1  0.64739000  0.95408400  0.33678100  1
  V  V1  1  0.35156900  0.04572000  0.66338800  1
  Co  Co0  1  0.14907200  0.42662800  0.85928500  1
  Co  Co1  1  0.85259700  0.57191000  0.14103000  1
  O  O0  1  0.46272300  0.23733500  0.27325500  1
  O  O1  1  0.53740200  0.76198200  0.72696900  1
  O  O2  1  0.92764700  0.76678800  0.44185700  1
  O  O3  1  0.07152600  0.23427800  0.55719700  1
  O  O4  1  0.73046500  0.23752700  0.93549700  1
  O  O5  1  0.26960800  0.76374700  0.06474200  1
loop_
_geom_bond_atom_site_label_1
_geom_bond_atom_site_label_2
_geom_bond_distance
_geom_bond_site_symmetry_2
Co0 O4 2.021881 1_455
Co0 O0 2.057899 1_556
Co0 O3 2.060070 1_555
Co0 O1 2.135399 1_555
Co0 O5 2.264747 1_556
Co0 O2 2.266604 1_455
Co1 O5 2.014488 1_655
Co1 O1 2.063470 1_554
Co1 O2 2.070159 1_555
Co1 O0 2.139135 1_555
Co1 O4 2.248694 1_554
Co1 O3 2.251140 1_655
O0 V0 1.974882 1_545
O0 V1 1.997976 1_555
O1 V1 1.981522 1_565
O1 V0 1.995028 1_555
O2 V0 1.830471 1_555
O2 V1 2.137158 1_665
O3 V1 1.832950 1_555
O3 V0 2.139056 1_445
O4 V1 1.925522 1_555
O4 V0 2.021713 1_546
O5 V0 1.919515 1_555
O5 V1 2.018351 1_564
