# generated using pymatgen
data_Zn(CrS2)4
_symmetry_space_group_name_H-M   'P 1'
_cell_length_a   7.22683619
_cell_length_b   7.22683619
_cell_length_c   7.22683687
_cell_angle_alpha   56.13726286
_cell_angle_beta   56.13726286
_cell_angle_gamma   56.13726300
_symmetry_Int_Tables_number   1
_chemical_formula_structural   Zn(CrS2)4
_chemical_formula_sum   'Zn1 Cr4 S8'
_cell_volume   243.01990167
_cell_formula_units_Z   1
loop_
 _symmetry_equiv_pos_site_id
 _symmetry_equiv_pos_as_xyz
  1  'x, y, z'
loop_
 _atom_site_type_symbol
 _atom_site_label
 _atom_site_symmetry_multiplicity
 _atom_site_fract_x
 _atom_site_fract_y
 _atom_site_fract_z
 _atom_site_occupancy
  Zn  Zn0  1  0.50000000  0.50000000  0.50000000  1
  Cr  Cr0  1  0.00000000  0.50000000  0.50000000  1
  Cr  Cr1  1  0.50000000  0.00000000  0.50000000  1
  Cr  Cr2  1  0.50000000  0.50000000  0.00000000  1
  Cr  Cr3  1  0.00000000  0.00000000  0.00000000  1
  S  S0  1  0.26390300  0.75662900  0.75662900  1
  S  S1  1  0.24337100  0.24337100  0.73609700  1
  S  S2  1  0.73609700  0.24337100  0.24337100  1
  S  S3  1  0.24337100  0.73609700  0.24337100  1
  S  S4  1  0.26112500  0.26112500  0.26112500  1
  S  S5  1  0.73887500  0.73887500  0.73887500  1
  S  S6  1  0.75662900  0.26390300  0.75662900  1
  S  S7  1  0.75662900  0.75662900  0.26390300  1
loop_
_geom_bond_atom_site_label_1
_geom_bond_atom_site_label_2
_geom_bond_distance
_geom_bond_site_symmetry_2
Cr0 S5 2.362557 1_455
Cr0 S4 2.362557 1_555
Cr0 S6 2.372117 1_455
Cr0 S3 2.372117 1_555
Cr0 S7 2.372117 1_455
Cr0 S1 2.372117 1_555
Cr1 S5 2.362557 1_545
Cr1 S4 2.362557 1_555
Cr1 S0 2.372117 1_545
Cr1 S2 2.372117 1_555
Cr1 S1 2.372117 1_555
Cr1 S7 2.372117 1_545
Cr2 S5 2.362557 1_554
Cr2 S4 2.362557 1_555
Cr2 S6 2.372117 1_554
Cr2 S3 2.372117 1_555
Cr2 S0 2.372117 1_554
Cr2 S2 2.372117 1_555
Cr3 S1 2.407313 1_554
Cr3 S7 2.407313 1_445
Cr3 S0 2.407313 1_544
Cr3 S2 2.407313 1_455
Cr3 S3 2.407313 1_545
Cr3 S6 2.407313 1_454
S0 Zn0 2.563330 1_555
S1 Zn0 2.563330 1_555
S2 Zn0 2.563330 1_555
S3 Zn0 2.563330 1_555
S6 Zn0 2.563330 1_555
S7 Zn0 2.563330 1_555
