# generated using pymatgen
data_CsMg6W
_symmetry_space_group_name_H-M   'P 1'
_cell_length_a   4.19786000
_cell_length_b   9.81696500
_cell_length_c   9.89527200
_cell_angle_alpha   90.00000000
_cell_angle_beta   90.00000000
_cell_angle_gamma   90.00000000
_symmetry_Int_Tables_number   1
_chemical_formula_structural   CsMg6W
_chemical_formula_sum   'Cs2 Mg12 W2'
_cell_volume   407.78658044
_cell_formula_units_Z   2
loop_
 _symmetry_equiv_pos_site_id
 _symmetry_equiv_pos_as_xyz
  1  'x, y, z'
loop_
 _atom_site_type_symbol
 _atom_site_label
 _atom_site_symmetry_multiplicity
 _atom_site_fract_x
 _atom_site_fract_y
 _atom_site_fract_z
 _atom_site_occupancy
  Cs  Cs0  1  0.50000000  0.37670400  0.50000000  1
  Cs  Cs1  1  0.50000000  0.87670400  0.00000000  1
  Mg  Mg0  1  0.50000000  0.11992900  0.25561400  1
  Mg  Mg1  1  0.50000000  0.11992900  0.74438600  1
  Mg  Mg2  1  0.00000000  0.87488800  0.29717900  1
  Mg  Mg3  1  0.00000000  0.87488800  0.70282100  1
  Mg  Mg4  1  0.00000000  0.07890700  0.50000000  1
  Mg  Mg5  1  0.00000000  0.67460500  0.50000000  1
  Mg  Mg6  1  0.50000000  0.61992900  0.75561400  1
  Mg  Mg7  1  0.50000000  0.61992900  0.24438600  1
  Mg  Mg8  1  0.00000000  0.37488800  0.79717900  1
  Mg  Mg9  1  0.00000000  0.37488800  0.20282100  1
  Mg  Mg10  1  0.00000000  0.57890700  0.00000000  1
  Mg  Mg11  1  0.00000000  0.17460500  0.00000000  1
  W  W0  1  0.50000000  0.88015200  0.50000000  1
  W  W1  1  0.50000000  0.38015200  0.00000000  1
loop_
_geom_bond_atom_site_label_1
_geom_bond_atom_site_label_2
_geom_bond_distance
_geom_bond_site_symmetry_2
Cs0 Mg7 3.478358 1_555
Cs0 Mg6 3.478358 1_555
Cs0 Mg1 3.493164 1_555
Cs0 Mg0 3.493164 1_555
Cs0 Mg4 3.598908 1_655
Cs0 Mg4 3.598908 1_555
Cs0 Mg5 3.599738 1_655
Cs0 Mg5 3.599738 1_555
Cs0 Mg8 3.612942 1_655
Cs0 Mg9 3.612942 1_555
Cs0 Mg8 3.612942 1_555
Cs0 Mg9 3.612942 1_655
Cs1 Mg1 3.478358 1_564
Cs1 Mg0 3.478358 1_565
Cs1 Mg7 3.493164 1_555
Cs1 Mg6 3.493164 1_554
Cs1 Mg10 3.598908 1_655
Cs1 Mg10 3.598908 1_555
Cs1 Mg11 3.599738 1_665
Cs1 Mg11 3.599738 1_565
Cs1 Mg2 3.612942 1_655
Cs1 Mg2 3.612942 1_555
Cs1 Mg3 3.612942 1_554
Cs1 Mg3 3.612942 1_654
Mg0 Mg2 3.218911 1_645
Mg0 Mg2 3.218911 1_545
Mg0 Mg4 3.227335 1_555
Mg0 Mg4 3.227335 1_655
Mg0 Mg9 3.308026 1_555
Mg0 Mg9 3.308026 1_655
Mg0 Mg11 3.330364 1_655
Mg0 Mg11 3.330364 1_555
Mg0 W0 3.374726 1_545
Mg0 W1 3.594954 1_555
Mg1 Mg3 3.218911 1_545
Mg1 Mg3 3.218911 1_645
Mg1 Mg4 3.227335 1_555
Mg1 Mg4 3.227335 1_655
Mg1 Mg8 3.308026 1_555
Mg1 Mg8 3.308026 1_655
Mg1 Mg11 3.330364 1_556
Mg1 Mg11 3.330364 1_656
Mg1 W0 3.374726 1_545
Mg1 W1 3.594954 1_556
Mg2 Mg5 2.809582 1_555
Mg2 Mg4 2.835370 1_565
Mg2 W0 2.904497 1_455
Mg2 W0 2.904497 1_555
Mg2 Mg7 3.308026 1_455
Mg2 Mg7 3.308026 1_555
Mg3 Mg5 2.809582 1_555
Mg3 Mg4 2.835370 1_565
Mg3 W0 2.904497 1_455
Mg3 W0 2.904497 1_555
Mg3 Mg6 3.308026 1_455
Mg3 Mg6 3.308026 1_555
Mg4 W0 2.865759 1_445
Mg4 W0 2.865759 1_545
Mg5 W0 2.911566 1_455
Mg5 W0 2.911566 1_555
Mg5 Mg6 3.330364 1_455
Mg5 Mg7 3.330364 1_455
Mg5 Mg6 3.330364 1_555
Mg5 Mg7 3.330364 1_555
Mg6 Mg8 3.218911 1_555
Mg6 Mg8 3.218911 1_655
Mg6 W1 3.374726 1_556
Mg6 W0 3.594954 1_555
Mg7 Mg9 3.218911 1_555
Mg7 Mg9 3.218911 1_655
Mg7 W1 3.374726 1_555
Mg7 W0 3.594954 1_555
Mg8 W1 2.904497 1_556
Mg8 W1 2.904497 1_456
Mg9 W1 2.904497 1_455
Mg9 W1 2.904497 1_555
Mg10 Mg9 2.835370 1_555
Mg10 Mg8 2.835370 1_554
Mg10 W1 2.865759 1_555
Mg10 W1 2.865759 1_455
Mg10 Mg6 3.227335 1_554
Mg10 Mg6 3.227335 1_454
Mg10 Mg7 3.227335 1_455
Mg10 Mg7 3.227335 1_555
Mg11 Mg9 2.809582 1_555
Mg11 Mg8 2.809582 1_554
Mg11 W1 2.911566 1_555
Mg11 W1 2.911566 1_455
