# generated using pymatgen
data_Rb3B2P3H2O13
_symmetry_space_group_name_H-M   'P 1'
_cell_length_a   7.96989000
_cell_length_b   6.80654800
_cell_length_c   24.81718761
_cell_angle_alpha   90.00000000
_cell_angle_beta   93.24985306
_cell_angle_gamma   90.00000000
_symmetry_Int_Tables_number   1
_chemical_formula_structural   Rb3B2P3H2O13
_chemical_formula_sum   'Rb12 B8 P12 H8 O52'
_cell_volume   1344.10381867
_cell_formula_units_Z   4
loop_
 _symmetry_equiv_pos_site_id
 _symmetry_equiv_pos_as_xyz
  1  'x, y, z'
loop_
 _atom_site_type_symbol
 _atom_site_label
 _atom_site_symmetry_multiplicity
 _atom_site_fract_x
 _atom_site_fract_y
 _atom_site_fract_z
 _atom_site_occupancy
  Rb  Rb0  1  0.52612400  0.79797900  0.35069800  1
  Rb  Rb1  1  0.47387600  0.29797900  0.14930200  1
  Rb  Rb2  1  0.47387600  0.20202100  0.64930200  1
  Rb  Rb3  1  0.52612400  0.70202100  0.85069800  1
  Rb  Rb4  1  0.75847800  0.78990800  0.19224600  1
  Rb  Rb5  1  0.24152200  0.28990800  0.30775400  1
  Rb  Rb6  1  0.24152200  0.21009200  0.80775400  1
  Rb  Rb7  1  0.75847800  0.71009200  0.69224600  1
  Rb  Rb8  1  0.80858100  0.76269100  0.01584800  1
  Rb  Rb9  1  0.19141900  0.26269100  0.48415200  1
  Rb  Rb10  1  0.19141900  0.23730900  0.98415200  1
  Rb  Rb11  1  0.80858100  0.73730900  0.51584800  1
  B  B0  1  0.10827600  0.61381300  0.11684300  1
  B  B1  1  0.89172400  0.11381300  0.38315700  1
  B  B2  1  0.89172400  0.38618700  0.88315700  1
  B  B3  1  0.10827600  0.88618700  0.61684300  1
  B  B4  1  0.17603300  0.95877200  0.11903300  1
  B  B5  1  0.82396700  0.45877200  0.38096700  1
  B  B6  1  0.82396700  0.04122800  0.88096700  1
  B  B7  1  0.17603300  0.54122800  0.61903300  1
  P  P0  1  0.06344100  0.75186200  0.39316100  1
  P  P1  1  0.93655900  0.25186200  0.10683900  1
  P  P2  1  0.93655900  0.24813800  0.60683900  1
  P  P3  1  0.06344100  0.74813800  0.89316100  1
  P  P4  1  0.25808400  0.74984400  0.21003900  1
  P  P5  1  0.74191600  0.24984400  0.28996100  1
  P  P6  1  0.74191600  0.25015600  0.78996100  1
  P  P7  1  0.25808400  0.75015600  0.71003900  1
  P  P8  1  0.38251400  0.73188800  0.06469000  1
  P  P9  1  0.61748600  0.23188800  0.43531000  1
  P  P10  1  0.61748600  0.26811200  0.93531000  1
  P  P11  1  0.38251400  0.76811200  0.56469000  1
  H  H0  1  0.13081600  0.76318100  0.28864100  1
  H  H1  1  0.86918400  0.26318100  0.21135900  1
  H  H2  1  0.86918400  0.23681900  0.71135900  1
  H  H3  1  0.13081600  0.73681900  0.78864100  1
  H  H4  1  0.29289800  0.75723800  0.97889100  1
  H  H5  1  0.70710200  0.25723800  0.52110900  1
  H  H6  1  0.70710200  0.24276200  0.02110900  1
  H  H7  1  0.29289800  0.74276200  0.47889100  1
  O  O0  1  0.11307500  0.80699200  0.24850000  1
  O  O1  1  0.88692500  0.30699200  0.25150000  1
  O  O2  1  0.88692500  0.19300800  0.75150000  1
  O  O3  1  0.11307500  0.69300800  0.74850000  1
  O  O4  1  0.40467700  0.72664200  0.00226300  1
  O  O5  1  0.59532300  0.22664200  0.49773700  1
  O  O6  1  0.59532300  0.27335800  0.99773700  1
  O  O7  1  0.40467700  0.77335800  0.50226300  1
  O  O8  1  0.03339900  0.98165800  0.39452500  1
  O  O9  1  0.96660100  0.48165800  0.10547500  1
  O  O10  1  0.96660100  0.01834200  0.60547500  1
  O  O11  1  0.03339900  0.51834200  0.89452500  1
  O  O12  1  0.11932700  0.16300400  0.11560500  1
  O  O13  1  0.88067300  0.66300400  0.38439500  1
  O  O14  1  0.88067300  0.83699600  0.88439500  1
  O  O15  1  0.11932700  0.33699600  0.61560500  1
  O  O16  1  0.13891300  0.68894800  0.44824700  1
  O  O17  1  0.86108700  0.18894800  0.05175300  1
  O  O18  1  0.86108700  0.31105200  0.55175300  1
  O  O19  1  0.13891300  0.81105200  0.94824700  1
  O  O20  1  0.17110200  0.70201300  0.34599400  1
  O  O21  1  0.82889800  0.20201300  0.15400600  1
  O  O22  1  0.82889800  0.29798700  0.65400600  1
  O  O23  1  0.17110200  0.79798700  0.84599400  1
  O  O24  1  0.18845500  0.57587600  0.17278000  1
  O  O25  1  0.81154500  0.07587600  0.32722000  1
  O  O26  1  0.81154500  0.42412400  0.82722000  1
  O  O27  1  0.18845500  0.92412400  0.67278000  1
  O  O28  1  0.24281300  0.57407200  0.07679200  1
  O  O29  1  0.75718700  0.07407200  0.42320800  1
  O  O30  1  0.75718700  0.42592800  0.92320800  1
  O  O31  1  0.24281300  0.92592800  0.57679200  1
  O  O32  1  0.27503800  0.93507000  0.17296800  1
  O  O33  1  0.72496200  0.43507000  0.32703200  1
  O  O34  1  0.72496200  0.06493000  0.82703200  1
  O  O35  1  0.27503800  0.56493000  0.67296800  1
  O  O36  1  0.30389400  0.93992200  0.07632400  1
  O  O37  1  0.69610600  0.43992200  0.42367600  1
  O  O38  1  0.69610600  0.06007800  0.92367600  1
  O  O39  1  0.30389400  0.56007800  0.57632400  1
  O  O40  1  0.04755400  0.81274000  0.11227300  1
  O  O41  1  0.95244600  0.31274000  0.38772700  1
  O  O42  1  0.95244600  0.18726000  0.88772700  1
  O  O43  1  0.04755400  0.68726000  0.61227300  1
  O  O44  1  0.41911200  0.69197500  0.23995800  1
  O  O45  1  0.58088800  0.19197500  0.26004200  1
  O  O46  1  0.58088800  0.30802500  0.76004200  1
  O  O47  1  0.41911200  0.80802500  0.73995800  1
  O  O48  1  0.54710000  0.69283200  0.09541600  1
  O  O49  1  0.45290000  0.19283200  0.40458400  1
  O  O50  1  0.45290000  0.30716800  0.90458400  1
  O  O51  1  0.54710000  0.80716800  0.59541600  1
loop_
_geom_bond_atom_site_label_1
_geom_bond_atom_site_label_2
_geom_bond_distance
_geom_bond_site_symmetry_2
B0 O40 1.440201 1_555
B0 O9 1.458614 1_455
B0 O24 1.517083 1_555
B0 O28 1.526977 1_555
B1 O41 1.440201 1_555
B1 O8 1.458614 1_645
B1 O25 1.517083 1_555
B1 O29 1.526977 1_555
B2 O42 1.440201 1_555
B2 O11 1.458614 1_655
B2 O26 1.517083 1_555
B2 O30 1.526977 1_555
B3 O43 1.440201 1_555
B3 O10 1.458614 1_465
B3 O27 1.517083 1_555
B3 O31 1.526977 1_555
B4 O40 1.430088 1_555
B4 O12 1.462719 1_565
B4 O36 1.516834 1_555
B4 O32 1.523324 1_555
B5 O41 1.430088 1_555
B5 O13 1.462719 1_555
B5 O37 1.516834 1_555
B5 O33 1.523324 1_555
B6 O42 1.430088 1_555
B6 O14 1.462719 1_545
B6 O38 1.516834 1_555
B6 O34 1.523324 1_555
B7 O43 1.430088 1_555
B7 O15 1.462719 1_555
B7 O39 1.516834 1_555
B7 O35 1.523324 1_555
H0 O0 1.041794 1_555
H0 O20 1.500171 1_555
H1 O1 1.041794 1_555
H1 O21 1.500171 1_555
H2 O2 1.041794 1_555
H2 O22 1.500171 1_555
H3 O3 1.041794 1_555
H3 O23 1.500171 1_555
H4 O4 1.055868 1_556
H4 O19 1.453558 1_555
H5 O5 1.055868 1_555
H5 O18 1.453558 1_555
H6 O6 1.055868 1_554
H6 O17 1.453558 1_555
H7 O7 1.055868 1_555
H7 O16 1.453558 1_555
O0 P4 1.588424 1_555
O0 Rb4 3.082535 1_455
O1 P5 1.588424 1_555
O1 Rb5 3.082535 1_655
O2 P6 1.588424 1_555
O2 Rb6 3.082535 1_655
O3 P7 1.588424 1_555
O3 Rb7 3.082535 1_455
O4 P8 1.569623 1_555
O4 Rb8 3.226954 1_555
O5 P9 1.569623 1_555
O5 Rb9 3.226954 1_555
O6 P10 1.569623 1_555
O6 Rb10 3.226954 1_555
O7 P11 1.569623 1_555
O7 Rb11 3.226954 1_555
O8 P0 1.582990 1_555
O8 Rb9 3.142451 1_565
O9 P1 1.582990 1_555
O9 Rb8 3.142451 1_555
O10 P2 1.582990 1_555
O10 Rb11 3.142451 1_545
O11 P3 1.582990 1_555
O11 Rb10 3.142451 1_555
O12 P1 1.580824 1_455
O12 Rb1 3.043045 1_555
O12 Rb10 3.382455 1_554
O13 P0 1.580824 1_655
O13 Rb0 3.043045 1_555
O13 Rb11 3.382455 1_555
O14 P3 1.580824 1_655
O14 Rb3 3.043045 1_555
O14 Rb8 3.382455 1_556
O15 P2 1.580824 1_455
O15 Rb2 3.043045 1_555
O15 Rb9 3.382455 1_555
O16 P0 1.523436 1_555
O16 Rb9 3.056893 1_555
O16 Rb11 3.217897 1_455
O17 P1 1.523436 1_555
O17 Rb8 3.056893 1_545
O17 Rb10 3.217897 1_654
O18 P2 1.523436 1_555
O18 Rb11 3.056893 1_555
O18 Rb9 3.217897 1_655
O19 P3 1.523436 1_555
O19 Rb10 3.056893 1_565
O19 Rb8 3.217897 1_456
O20 P0 1.528214 1_555
O20 Rb0 2.899799 1_555
O20 Rb5 3.023920 1_555
O21 P1 1.528214 1_555
O21 Rb1 2.899799 1_555
O21 Rb4 3.023920 1_545
O22 P2 1.528214 1_555
O22 Rb2 2.899799 1_555
O22 Rb7 3.023920 1_555
O23 P3 1.528214 1_555
O23 Rb3 2.899799 1_555
O23 Rb6 3.023920 1_565
O24 P4 1.583326 1_555
O24 Rb1 3.040100 1_555
O25 P5 1.583326 1_555
O25 Rb0 3.040100 1_545
O26 P6 1.583326 1_555
O26 Rb3 3.040100 1_555
O27 P7 1.583326 1_555
O27 Rb2 3.040100 1_565
O28 P8 1.587970 1_555
O28 Rb1 3.128145 1_555
O28 Rb10 3.255895 1_554
O29 P9 1.587970 1_555
O29 Rb0 3.128145 1_545
O29 Rb11 3.255895 1_545
O30 P10 1.587970 1_555
O30 Rb3 3.128145 1_555
O30 Rb8 3.255895 1_556
O31 P11 1.587970 1_555
O31 Rb2 3.128145 1_565
O31 Rb9 3.255895 1_565
O32 P4 1.571063 1_555
O32 Rb1 3.010562 1_565
O33 P5 1.571063 1_555
O33 Rb0 3.010562 1_555
O34 P6 1.571063 1_555
O34 Rb3 3.010562 1_545
O35 P7 1.571063 1_555
O35 Rb2 3.010562 1_555
O36 P8 1.581622 1_555
O36 Rb10 3.146553 1_564
O36 Rb1 3.282812 1_565
O37 P9 1.581622 1_555
O37 Rb11 3.146553 1_555
O37 Rb0 3.282812 1_555
O38 P10 1.581622 1_555
O38 Rb8 3.146553 1_546
O38 Rb3 3.282812 1_545
O39 P11 1.581622 1_555
O39 Rb9 3.146553 1_555
O39 Rb2 3.282812 1_555
O40 Rb8 2.992189 1_455
O40 Rb4 3.128837 1_455
O41 Rb9 2.992189 1_655
O41 Rb5 3.128837 1_655
O42 Rb10 2.992189 1_655
O42 Rb6 3.128837 1_655
O43 Rb11 2.992189 1_455
O43 Rb7 3.128837 1_455
O44 P4 1.498490 1_555
O44 Rb0 2.921496 1_555
O44 Rb4 3.086250 1_555
O44 Rb1 3.543354 1_555
O45 P5 1.498490 1_555
O45 Rb1 2.921496 1_555
O45 Rb5 3.086250 1_555
O45 Rb0 3.543354 1_545
O46 P6 1.498490 1_555
O46 Rb2 2.921496 1_555
O46 Rb6 3.086250 1_555
O46 Rb3 3.543354 1_555
O47 P7 1.498490 1_555
O47 Rb3 2.921496 1_555
O47 Rb7 3.086250 1_555
O47 Rb2 3.543354 1_565
O48 P8 1.503117 1_555
O48 Rb4 2.930923 1_555
O48 Rb8 2.989128 1_555
O48 Rb1 3.072547 1_555
O49 P9 1.503117 1_555
O49 Rb5 2.930923 1_555
O49 Rb9 2.989128 1_555
O49 Rb0 3.072547 1_545
O50 P10 1.503117 1_555
O50 Rb6 2.930923 1_555
O50 Rb10 2.989128 1_555
O50 Rb3 3.072547 1_555
O51 P11 1.503117 1_555
O51 Rb7 2.930923 1_555
O51 Rb11 2.989128 1_555
O51 Rb2 3.072547 1_565
