# generated using pymatgen
data_PrGa3Pd
_symmetry_space_group_name_H-M   'P 1'
_cell_length_a   6.12742425
_cell_length_b   6.12742425
_cell_length_c   6.12742425
_cell_angle_alpha   139.51517096
_cell_angle_beta   139.51517096
_cell_angle_gamma   58.59018750
_symmetry_Int_Tables_number   1
_chemical_formula_structural   PrGa3Pd
_chemical_formula_sum   'Pr1 Ga3 Pd1'
_cell_volume   96.07268576
_cell_formula_units_Z   1
loop_
 _symmetry_equiv_pos_site_id
 _symmetry_equiv_pos_as_xyz
  1  'x, y, z'
loop_
 _atom_site_type_symbol
 _atom_site_label
 _atom_site_symmetry_multiplicity
 _atom_site_fract_x
 _atom_site_fract_y
 _atom_site_fract_z
 _atom_site_occupancy
  Pr  Pr0  1  0.00000000  0.00000000  -0.00000000  1
  Ga  Ga0  1  0.61659884  0.61659884  -0.00000000  1
  Ga  Ga1  1  0.38340116  0.38340116  0.00000000  1
  Ga  Ga2  1  0.75000000  0.25000000  0.50000000  1
  Pd  Pd0  1  0.25000000  0.75000000  0.50000000  1
loop_
_geom_bond_atom_site_label_1
_geom_bond_atom_site_label_2
_geom_bond_distance
_geom_bond_site_symmetry_2
Ga0 Ga1 2.492321 1_555
Ga0 Ga2 2.554861 1_565
Ga0 Pd0 2.554861 1_554
Ga0 Pd0 2.554861 1_655
Ga0 Ga2 2.554861 1_554
Ga0 Pr0 3.246860 1_666
Ga0 Pr0 3.246860 1_655
Ga0 Pr0 3.246860 1_554
Ga0 Pr0 3.246860 1_565
Ga1 Pd0 2.554861 1_555
Ga1 Pd0 2.554861 1_544
Ga1 Ga2 2.554861 1_555
Ga1 Ga2 2.554861 1_454
Ga1 Pr0 3.246860 1_666
Ga1 Pr0 3.246860 1_554
Ga1 Pr0 3.246860 1_565
Ga1 Pr0 3.246860 1_655
Ga2 Pr0 3.410810 1_555
Ga2 Pr0 3.410810 1_656
Ga2 Pr0 3.410810 1_655
Ga2 Pr0 3.410810 1_666
Pd0 Pr0 3.410810 1_666
Pd0 Pr0 3.410810 1_555
Pd0 Pr0 3.410810 1_565
Pd0 Pr0 3.410810 1_566
