# generated using pymatgen
data_LaB5H5NO14
_symmetry_space_group_name_H-M   'P 1'
_cell_length_a   15.63704100
_cell_length_b   6.56294200
_cell_length_c   12.61368628
_cell_angle_alpha   59.08794147
_cell_angle_beta   90.00000000
_cell_angle_gamma   90.00000000
_symmetry_Int_Tables_number   1
_chemical_formula_structural   LaB5H5NO14
_chemical_formula_sum   'La4 B20 H20 N4 O56'
_cell_volume   1110.60747045
_cell_formula_units_Z   4
loop_
 _symmetry_equiv_pos_site_id
 _symmetry_equiv_pos_as_xyz
  1  'x, y, z'
loop_
 _atom_site_type_symbol
 _atom_site_label
 _atom_site_symmetry_multiplicity
 _atom_site_fract_x
 _atom_site_fract_y
 _atom_site_fract_z
 _atom_site_occupancy
  La  La0  1  0.69791500  0.79397900  0.34442400  1
  La  La1  1  0.80208500  0.79397900  0.84442400  1
  La  La2  1  0.30208500  0.20602100  0.65557600  1
  La  La3  1  0.19791500  0.20602100  0.15557600  1
  B  B0  1  0.96244400  0.16725400  0.08747800  1
  B  B1  1  0.53755600  0.16725400  0.58747800  1
  B  B2  1  0.03755600  0.83274600  0.91252200  1
  B  B3  1  0.46244400  0.83274600  0.41252200  1
  B  B4  1  0.83759600  0.35260100  0.12470300  1
  B  B5  1  0.66240400  0.35260100  0.62470300  1
  B  B6  1  0.16240400  0.64739900  0.87529700  1
  B  B7  1  0.33759600  0.64739900  0.37529700  1
  B  B8  1  0.81841200  0.11562700  0.02539700  1
  B  B9  1  0.68158800  0.11562700  0.52539700  1
  B  B10  1  0.18158800  0.88437300  0.97460300  1
  B  B11  1  0.31841200  0.88437300  0.47460300  1
  B  B12  1  0.79270300  0.67704200  0.16372700  1
  B  B13  1  0.70729700  0.67704200  0.66372700  1
  B  B14  1  0.20729700  0.32295800  0.83627300  1
  B  B15  1  0.29270300  0.32295800  0.33627300  1
  B  B16  1  0.75841700  0.26908200  0.31662900  1
  B  B17  1  0.74158300  0.26908200  0.81662900  1
  B  B18  1  0.24158300  0.73091800  0.68337100  1
  B  B19  1  0.25841700  0.73091800  0.18337100  1
  H  H0  1  0.06258800  0.03765600  0.04942200  1
  H  H1  1  0.43741200  0.03765600  0.54942200  1
  H  H2  1  0.93741200  0.96234400  0.95057800  1
  H  H3  1  0.56258800  0.96234400  0.45057800  1
  H  H4  1  0.67095900  0.27087100  0.09530000  1
  H  H5  1  0.82904100  0.27087100  0.59530000  1
  H  H6  1  0.32904100  0.72912900  0.90470000  1
  H  H7  1  0.17095900  0.72912900  0.40470000  1
  H  H8  1  0.57393500  0.18769400  0.13004500  1
  H  H9  1  0.92606500  0.18769400  0.63004500  1
  H  H10  1  0.42606500  0.81230600  0.86995500  1
  H  H11  1  0.07393500  0.81230600  0.36995500  1
  H  H12  1  0.51732100  0.64563000  0.29307300  1
  H  H13  1  0.98267900  0.64563000  0.79307300  1
  H  H14  1  0.48267900  0.35437000  0.70692700  1
  H  H15  1  0.01732100  0.35437000  0.20692700  1
  H  H16  1  0.57449300  0.55111700  0.22316600  1
  H  H17  1  0.92550700  0.55111700  0.72316600  1
  H  H18  1  0.42550700  0.44888300  0.77683400  1
  H  H19  1  0.07449300  0.44888300  0.27683400  1
  N  N0  1  0.92027500  0.72117400  0.39926600  1
  N  N1  1  0.57972500  0.72117400  0.89926600  1
  N  N2  1  0.07972500  0.27882600  0.60073400  1
  N  N3  1  0.42027500  0.27882600  0.10073400  1
  O  O0  1  0.04944500  0.12411900  0.09490600  1
  O  O1  1  0.45055500  0.12411900  0.59490600  1
  O  O2  1  0.95055500  0.87588100  0.90509400  1
  O  O3  1  0.54944500  0.87588100  0.40509400  1
  O  O4  1  0.92973900  0.29613000  0.13597500  1
  O  O5  1  0.57026100  0.29613000  0.63597500  1
  O  O6  1  0.07026100  0.70387000  0.86402500  1
  O  O7  1  0.42973900  0.70387000  0.36402500  1
  O  O8  1  0.91194000  0.08501200  0.02797600  1
  O  O9  1  0.58806000  0.08501200  0.52797600  1
  O  O10  1  0.08806000  0.91498800  0.97202400  1
  O  O11  1  0.41194000  0.91498800  0.47202400  1
  O  O12  1  0.79700400  0.33106100  0.02572400  1
  O  O13  1  0.70299600  0.33106100  0.52572400  1
  O  O14  1  0.20299600  0.66893900  0.97427600  1
  O  O15  1  0.29700400  0.66893900  0.47427600  1
  O  O16  1  0.79611400  0.19137300  0.24649100  1
  O  O17  1  0.70388600  0.19137300  0.74649100  1
  O  O18  1  0.20388600  0.80862700  0.75350900  1
  O  O19  1  0.29611400  0.80862700  0.25350900  1
  O  O20  1  0.78016400  0.90335200  0.13764100  1
  O  O21  1  0.71983600  0.90335200  0.63764100  1
  O  O22  1  0.21983600  0.09664800  0.86235900  1
  O  O23  1  0.28016400  0.09664800  0.36235900  1
  O  O24  1  0.82555300  0.60714600  0.08750700  1
  O  O25  1  0.67444700  0.60714600  0.58750700  1
  O  O26  1  0.17444700  0.39285400  0.91249300  1
  O  O27  1  0.32555300  0.39285400  0.41249300  1
  O  O28  1  0.76042700  0.50774100  0.28064100  1
  O  O29  1  0.73957300  0.50774100  0.78064100  1
  O  O30  1  0.23957300  0.49225900  0.71935900  1
  O  O31  1  0.26042700  0.49225900  0.21935900  1
  O  O32  1  0.71481800  0.10580200  0.41817200  1
  O  O33  1  0.78518200  0.10580200  0.91817200  1
  O  O34  1  0.28518200  0.89419800  0.58182800  1
  O  O35  1  0.21481800  0.89419800  0.08182800  1
  O  O36  1  0.84398000  0.69105900  0.44573600  1
  O  O37  1  0.65602000  0.69105900  0.94573600  1
  O  O38  1  0.15602000  0.30894100  0.55426400  1
  O  O39  1  0.34398000  0.30894100  0.05426400  1
  O  O40  1  0.93340400  0.69534900  0.30905000  1
  O  O41  1  0.56659600  0.69534900  0.80905000  1
  O  O42  1  0.06659600  0.30465100  0.69095000  1
  O  O43  1  0.43340400  0.30465100  0.19095000  1
  O  O44  1  0.97932900  0.77437900  0.44874200  1
  O  O45  1  0.52067100  0.77437900  0.94874200  1
  O  O46  1  0.02067100  0.22562100  0.55125800  1
  O  O47  1  0.47932900  0.22562100  0.05125800  1
  O  O48  1  0.57707800  0.62463900  0.27357100  1
  O  O49  1  0.92292200  0.62463900  0.77357100  1
  O  O50  1  0.42292200  0.37536100  0.72642900  1
  O  O51  1  0.07707800  0.37536100  0.22642900  1
  O  O52  1  0.63269500  0.17240300  0.16504100  1
  O  O53  1  0.86730500  0.17240300  0.66504100  1
  O  O54  1  0.36730500  0.82759700  0.83495900  1
  O  O55  1  0.13269500  0.82759700  0.33495900  1
loop_
_geom_bond_atom_site_label_1
_geom_bond_atom_site_label_2
_geom_bond_distance
_geom_bond_site_symmetry_2
La0 O36 2.533617 1_555
La0 O52 2.560117 1_565
La0 O48 2.573852 1_555
La0 O28 2.585469 1_555
La0 O3 2.585958 1_555
La0 O20 2.654986 1_555
La0 O32 2.660678 1_565
La0 O25 2.678945 1_555
La0 O13 2.706978 1_555
La0 O16 2.715830 1_565
La1 O37 2.533617 1_555
La1 O53 2.560117 1_565
La1 O49 2.573852 1_555
La1 O29 2.585469 1_555
La1 O2 2.585958 1_555
La1 O21 2.654986 1_555
La1 O33 2.660678 1_565
La1 O24 2.678945 1_556
La1 O12 2.706978 1_556
La1 O17 2.715830 1_565
La2 O38 2.533617 1_555
La2 O54 2.560117 1_545
La2 O50 2.573852 1_555
La2 O30 2.585469 1_555
La2 O1 2.585958 1_555
La2 O22 2.654986 1_555
La2 O34 2.660678 1_545
La2 O27 2.678945 1_555
La2 O15 2.706978 1_555
La2 O18 2.715830 1_545
La3 O39 2.533617 1_555
La3 O55 2.560117 1_545
La3 O51 2.573852 1_555
La3 O31 2.585469 1_555
La3 O0 2.585958 1_555
La3 O23 2.654986 1_555
La3 O35 2.660678 1_545
La3 O26 2.678945 1_554
La3 O14 2.706978 1_554
La3 O19 2.715830 1_545
B0 O4 1.372128 1_555
B0 O8 1.376422 1_555
B0 O0 1.382917 1_655
B1 O5 1.372128 1_555
B1 O9 1.376422 1_555
B1 O1 1.382917 1_555
B2 O6 1.372128 1_555
B2 O10 1.376422 1_555
B2 O2 1.382917 1_455
B3 O7 1.372128 1_555
B3 O11 1.376422 1_555
B3 O3 1.382917 1_555
B4 O12 1.470695 1_555
B4 O4 1.476300 1_555
B4 O16 1.493381 1_555
B4 O24 1.497021 1_555
B5 O13 1.470695 1_555
B5 O5 1.476300 1_555
B5 O17 1.493381 1_555
B5 O25 1.497021 1_555
B6 O14 1.470695 1_555
B6 O6 1.476300 1_555
B6 O18 1.493381 1_555
B6 O26 1.497021 1_555
B7 O15 1.470695 1_555
B7 O7 1.476300 1_555
B7 O19 1.493381 1_555
B7 O27 1.497021 1_555
B8 O12 1.455036 1_555
B8 O8 1.474321 1_555
B8 O33 1.480888 1_554
B8 O20 1.508815 1_545
B9 O13 1.455036 1_555
B9 O9 1.474321 1_555
B9 O32 1.480888 1_555
B9 O21 1.508815 1_545
B10 O14 1.455036 1_555
B10 O10 1.474321 1_555
B10 O35 1.480888 1_556
B10 O22 1.508815 1_565
B11 O15 1.455036 1_555
B11 O11 1.474321 1_555
B11 O34 1.480888 1_555
B11 O23 1.508815 1_565
B12 O20 1.360362 1_555
B12 O24 1.360785 1_555
B12 O28 1.407316 1_555
B13 O21 1.360362 1_555
B13 O25 1.360785 1_555
B13 O29 1.407316 1_555
B14 O22 1.360362 1_555
B14 O26 1.360785 1_555
B14 O30 1.407316 1_555
B15 O23 1.360362 1_555
B15 O27 1.360785 1_555
B15 O31 1.407316 1_555
B16 O32 1.357734 1_555
B16 O16 1.361560 1_555
B16 O28 1.389186 1_555
B17 O33 1.357734 1_555
B17 O17 1.361560 1_555
B17 O29 1.389186 1_555
B18 O34 1.357734 1_555
B18 O18 1.361560 1_555
B18 O30 1.389186 1_555
B19 O35 1.357734 1_555
B19 O19 1.361560 1_555
B19 O31 1.389186 1_555
H0 O0 1.013848 1_555
H0 O10 1.602316 1_544
H1 O1 1.013848 1_555
H1 O11 1.602316 1_545
H2 O2 1.013848 1_555
H2 O8 1.602316 1_566
H3 O3 1.013848 1_555
H3 O9 1.602316 1_565
H4 O52 0.982545 1_555
H5 O53 0.982545 1_555
H6 O54 0.982545 1_555
H7 O55 0.982545 1_555
H8 O52 1.001833 1_555
H9 O53 1.001833 1_555
H10 O54 1.001833 1_555
H11 O55 1.001833 1_555
H12 O48 0.993708 1_555
H13 O49 0.993708 1_555
H14 O50 0.993708 1_555
H15 O51 0.993708 1_555
H16 O48 0.976676 1_555
H17 O49 0.976676 1_555
H18 O50 0.976676 1_555
H19 O51 0.976676 1_555
N0 O40 1.250592 1_555
N0 O44 1.260165 1_555
N0 O36 1.298819 1_555
N1 O41 1.250592 1_555
N1 O45 1.260165 1_555
N1 O37 1.298819 1_555
N2 O42 1.250592 1_555
N2 O46 1.260165 1_555
N2 O38 1.298819 1_555
N3 O43 1.250592 1_555
N3 O47 1.260165 1_555
N3 O39 1.298819 1_555
