# generated using pymatgen
data_KEuH2S2O9
_symmetry_space_group_name_H-M   'P 1'
_cell_length_a   10.49499600
_cell_length_b   8.70309100
_cell_length_c   10.77467872
_cell_angle_alpha   90.00000000
_cell_angle_beta   119.11663712
_cell_angle_gamma   90.00000000
_symmetry_Int_Tables_number   1
_chemical_formula_structural   KEuH2S2O9
_chemical_formula_sum   'K4 Eu4 H8 S8 O36'
_cell_volume   859.78160947
_cell_formula_units_Z   4
loop_
 _symmetry_equiv_pos_site_id
 _symmetry_equiv_pos_as_xyz
  1  'x, y, z'
loop_
 _atom_site_type_symbol
 _atom_site_label
 _atom_site_symmetry_multiplicity
 _atom_site_fract_x
 _atom_site_fract_y
 _atom_site_fract_z
 _atom_site_occupancy
  K  K0  1  0.28794800  0.68194700  0.80847700  1
  K  K1  1  0.71205200  0.18194700  0.69152300  1
  K  K2  1  0.71205200  0.31805300  0.19152300  1
  K  K3  1  0.28794800  0.81805300  0.30847700  1
  Eu  Eu0  1  0.75729400  0.64721600  0.53383800  1
  Eu  Eu1  1  0.24270600  0.14721600  0.96616200  1
  Eu  Eu2  1  0.24270600  0.35278400  0.46616200  1
  Eu  Eu3  1  0.75729400  0.85278400  0.03383800  1
  H  H0  1  0.91006800  0.97298200  0.61145600  1
  H  H1  1  0.08993200  0.47298200  0.88854400  1
  H  H2  1  0.08993200  0.02701800  0.38854400  1
  H  H3  1  0.91006800  0.52701800  0.11145600  1
  H  H4  1  0.78561200  0.97300100  0.45450200  1
  H  H5  1  0.21438800  0.47300100  0.04549800  1
  H  H6  1  0.21438800  0.02699900  0.54549800  1
  H  H7  1  0.78561200  0.52699900  0.95450200  1
  S  S0  1  0.55137200  0.63325200  0.67926500  1
  S  S1  1  0.44862800  0.13325200  0.82073500  1
  S  S2  1  0.44862800  0.36674800  0.32073500  1
  S  S3  1  0.55137200  0.86674800  0.17926500  1
  S  S4  1  0.99138000  0.69170500  0.39383400  1
  S  S5  1  0.00862000  0.19170500  0.10616600  1
  S  S6  1  0.00862000  0.30829500  0.60616600  1
  S  S7  1  0.99138000  0.80829500  0.89383400  1
  O  O0  1  0.57410900  0.71099400  0.81105900  1
  O  O1  1  0.42589100  0.21099400  0.68894100  1
  O  O2  1  0.42589100  0.28900600  0.18894100  1
  O  O3  1  0.57410900  0.78900600  0.31105900  1
  O  O4  1  0.40533300  0.55734000  0.61395500  1
  O  O5  1  0.59466700  0.05734000  0.88604500  1
  O  O6  1  0.59466700  0.44266000  0.38604500  1
  O  O7  1  0.40533300  0.94266000  0.11395500  1
  O  O8  1  0.55531900  0.74589000  0.57567900  1
  O  O9  1  0.44468100  0.24589000  0.92432100  1
  O  O10  1  0.44468100  0.25411000  0.42432100  1
  O  O11  1  0.55531900  0.75411000  0.07567900  1
  O  O12  1  0.67000400  0.51898600  0.71022500  1
  O  O13  1  0.32999600  0.01898600  0.78977500  1
  O  O14  1  0.32999600  0.48101400  0.28977500  1
  O  O15  1  0.67000400  0.98101400  0.21022500  1
  O  O16  1  0.95523900  0.81344600  0.28251700  1
  O  O17  1  0.04476100  0.31344600  0.21748300  1
  O  O18  1  0.04476100  0.18655400  0.71748300  1
  O  O19  1  0.95523900  0.68655400  0.78251700  1
  O  O20  1  0.09332100  0.58250500  0.37963100  1
  O  O21  1  0.90667900  0.08250500  0.12036900  1
  O  O22  1  0.90667900  0.41749500  0.62036900  1
  O  O23  1  0.09332100  0.91749500  0.87963100  1
  O  O24  1  0.85315500  0.61041100  0.36478000  1
  O  O25  1  0.14684500  0.11041100  0.13522000  1
  O  O26  1  0.14684500  0.38958900  0.63522000  1
  O  O27  1  0.85315500  0.88958900  0.86478000  1
  O  O28  1  0.05766100  0.76127100  0.53630300  1
  O  O29  1  0.94233900  0.26127100  0.96369700  1
  O  O30  1  0.94233900  0.23872900  0.46369700  1
  O  O31  1  0.05766100  0.73872900  0.03630300  1
  O  O32  1  0.81077900  0.93509700  0.54944800  1
  O  O33  1  0.18922100  0.43509700  0.95055200  1
  O  O34  1  0.18922100  0.06490300  0.45055200  1
  O  O35  1  0.81077900  0.56490300  0.04944800  1
loop_
_geom_bond_atom_site_label_1
_geom_bond_atom_site_label_2
_geom_bond_distance
_geom_bond_site_symmetry_2
K0 O28 2.832020 1_555
K0 O11 2.948750 1_556
K0 O13 2.987645 1_565
K0 O0 3.000489 1_555
K0 O26 3.075975 1_555
K0 O33 3.094512 1_555
K0 O4 3.098296 1_555
K0 O23 3.238286 1_555
K1 O29 2.832020 1_555
K1 O10 2.948750 1_555
K1 O12 2.987645 1_555
K1 O1 3.000489 1_555
K1 O27 3.075975 1_545
K1 O32 3.094512 1_545
K1 O5 3.098296 1_555
K1 O22 3.238286 1_555
K2 O30 2.832020 1_555
K2 O9 2.948750 1_554
K2 O15 2.987645 1_545
K2 O2 3.000489 1_555
K2 O24 3.075975 1_555
K2 O35 3.094512 1_555
K2 O6 3.098296 1_555
K2 O21 3.238286 1_555
K3 O31 2.832020 1_555
K3 O8 2.948750 1_555
K3 O14 2.987645 1_555
K3 O3 3.000489 1_555
K3 O25 3.075975 1_565
K3 O34 3.094512 1_565
K3 O7 3.098296 1_555
K3 O20 3.238286 1_555
Eu0 O22 2.429374 1_555
Eu0 O6 2.444020 1_555
Eu0 O19 2.489029 1_555
Eu0 O24 2.493235 1_555
Eu0 O8 2.522689 1_555
Eu0 O3 2.547484 1_555
Eu0 O32 2.555151 1_555
Eu0 O12 2.718645 1_555
Eu1 O23 2.429374 1_545
Eu1 O7 2.444020 1_546
Eu1 O18 2.489029 1_555
Eu1 O25 2.493235 1_556
Eu1 O9 2.522689 1_555
Eu1 O2 2.547484 1_556
Eu1 O33 2.555151 1_555
Eu1 O13 2.718645 1_555
Eu2 O20 2.429374 1_555
Eu2 O4 2.444020 1_555
Eu2 O17 2.489029 1_555
Eu2 O26 2.493235 1_555
Eu2 O10 2.522689 1_555
Eu2 O1 2.547484 1_555
Eu2 O34 2.555151 1_555
Eu2 O14 2.718645 1_555
Eu3 O21 2.429374 1_565
Eu3 O5 2.444020 1_564
Eu3 O16 2.489029 1_555
Eu3 O27 2.493235 1_554
Eu3 O11 2.522689 1_555
Eu3 O0 2.547484 1_554
Eu3 O35 2.555151 1_555
Eu3 O15 2.718645 1_555
H0 O32 0.981532 1_555
H1 O33 0.981532 1_555
H2 O34 0.981532 1_555
H3 O35 0.981532 1_555
H4 O32 0.980909 1_555
H5 O33 0.980909 1_554
H6 O34 0.980909 1_555
H7 O35 0.980909 1_556
O0 S0 1.483733 1_555
O1 S1 1.483733 1_555
O2 S2 1.483733 1_555
O3 S3 1.483733 1_555
O4 S0 1.493708 1_555
O5 S1 1.493708 1_555
O6 S2 1.493708 1_555
O7 S3 1.493708 1_555
O8 S0 1.501129 1_555
O9 S1 1.501129 1_555
O10 S2 1.501129 1_555
O11 S3 1.501129 1_555
O12 S0 1.498729 1_555
O13 S1 1.498729 1_555
O14 S2 1.498729 1_555
O15 S3 1.498729 1_555
O16 S4 1.504094 1_555
O17 S5 1.504094 1_555
O18 S6 1.504094 1_555
O19 S7 1.504094 1_555
O20 S4 1.493517 1_455
O21 S5 1.493517 1_655
O22 S6 1.493517 1_655
O23 S7 1.493517 1_455
O24 S4 1.503684 1_555
O25 S5 1.503684 1_555
O26 S6 1.503684 1_555
O27 S7 1.503684 1_555
O28 S4 1.472301 1_455
O29 S5 1.472301 1_656
O30 S6 1.472301 1_655
O31 S7 1.472301 1_454
