# generated using pymatgen
data_Zr3TiZn8
_symmetry_space_group_name_H-M   'P 1'
_cell_length_a   8.99525959
_cell_length_b   8.99525959
_cell_length_c   8.99525881
_cell_angle_alpha   33.63331740
_cell_angle_beta   33.63331740
_cell_angle_gamma   33.63332178
_symmetry_Int_Tables_number   1
_chemical_formula_structural   Zr3TiZn8
_chemical_formula_sum   'Zr3 Ti1 Zn8'
_cell_volume   198.91299122
_cell_formula_units_Z   1
loop_
 _symmetry_equiv_pos_site_id
 _symmetry_equiv_pos_as_xyz
  1  'x, y, z'
loop_
 _atom_site_type_symbol
 _atom_site_label
 _atom_site_symmetry_multiplicity
 _atom_site_fract_x
 _atom_site_fract_y
 _atom_site_fract_z
 _atom_site_occupancy
  Zr  Zr0  1  0.62441000  0.62441000  0.62441000  1
  Zr  Zr1  1  0.00200400  0.00200400  0.00200400  1
  Zr  Zr2  1  0.49823500  0.49823500  0.49823500  1
  Ti  Ti0  1  0.12551000  0.12551000  0.12551000  1
  Zn  Zn0  1  0.56301300  0.06316900  0.56301300  1
  Zn  Zn1  1  0.06234200  0.56104900  0.06234200  1
  Zn  Zn2  1  0.06316900  0.56301300  0.56301300  1
  Zn  Zn3  1  0.56104900  0.06234200  0.06234200  1
  Zn  Zn4  1  0.81248300  0.81248300  0.81248300  1
  Zn  Zn5  1  0.31242900  0.31242900  0.31242900  1
  Zn  Zn6  1  0.56301300  0.56301300  0.06316900  1
  Zn  Zn7  1  0.06234200  0.06234200  0.56104900  1
loop_
_geom_bond_atom_site_label_1
_geom_bond_atom_site_label_2
_geom_bond_distance
_geom_bond_site_symmetry_2
Zr0 Zr1 3.208975 1_665
Zr0 Zr1 3.208975 1_656
Zr0 Zr1 3.208975 1_566
Zr0 Zr2 3.209316 1_555
Ti0 Zn7 3.019685 1_555
Ti0 Zn1 3.019686 1_555
Ti0 Zn3 3.019686 1_555
Ti0 Zn2 3.048825 1_554
Ti0 Zn0 3.048825 1_554
Ti0 Zn0 3.048825 1_455
Ti0 Zn2 3.048825 1_545
Ti0 Zn6 3.048825 1_545
Ti0 Zn6 3.048825 1_455
Ti0 Zn4 3.049080 1_445
Ti0 Zn4 3.049080 1_454
Ti0 Zn4 3.049080 1_544
Ti0 Zr1 3.141428 1_555
Ti0 Zr2 3.167650 1_554
Ti0 Zr2 3.167651 1_545
Ti0 Zr2 3.167651 1_455
Zn0 Zn4 2.586346 1_545
Zn0 Zn6 2.601608 1_555
Zn0 Zn2 2.601608 1_555
Zn0 Zn6 2.603232 1_546
Zn0 Zn2 2.603232 1_645
Zn0 Zn5 2.611081 1_555
Zn0 Zr2 2.994256 1_555
Zn0 Zr1 3.030635 1_655
Zn0 Zr1 3.030635 1_556
Zn0 Zr0 3.071719 1_545
Zn1 Zn4 2.588540 1_454
Zn1 Zn7 2.595690 1_555
Zn1 Zn3 2.595690 1_555
Zn1 Zn5 2.606661 1_555
Zn1 Zn7 2.609149 1_564
Zn1 Zn3 2.609150 1_465
Zn1 Zr0 3.049543 1_455
Zn1 Zr0 3.049543 1_554
Zn1 Zr2 3.065256 1_554
Zn1 Zr2 3.065256 1_455
Zn1 Zr1 3.105325 1_565
Zn2 Zn4 2.586346 1_455
Zn2 Zn6 2.601608 1_555
Zn2 Zn6 2.603232 1_456
Zn2 Zn5 2.611081 1_555
Zn2 Zr2 2.994256 1_555
Zn2 Zr1 3.030635 1_565
Zn2 Zr1 3.030635 1_556
Zn2 Zr0 3.071719 1_455
Zn3 Zn4 2.588540 1_544
Zn3 Zn7 2.595690 1_555
Zn3 Zn5 2.606661 1_555
Zn3 Zn7 2.609149 1_654
Zn3 Zr0 3.049543 1_545
Zn3 Zr0 3.049543 1_554
Zn3 Zr2 3.065256 1_554
Zn3 Zr2 3.065256 1_545
Zn3 Zr1 3.105325 1_655
Zn4 Zn6 2.586347 1_556
Zn4 Zn7 2.588540 1_665
Zn4 Zr2 3.043973 1_556
Zn4 Zr2 3.043973 1_565
Zn4 Zr2 3.043973 1_655
Zn5 Zn7 2.606661 1_555
Zn5 Zn6 2.611082 1_555
Zn5 Zr0 3.053699 1_554
Zn5 Zr0 3.053700 1_545
Zn5 Zr0 3.053700 1_455
Zn5 Zr1 3.060986 1_556
Zn5 Zr1 3.060987 1_565
Zn5 Zr1 3.060987 1_655
Zn6 Zr2 2.994255 1_555
Zn6 Zr1 3.030635 1_655
Zn6 Zr1 3.030635 1_565
Zn6 Zr0 3.071718 1_554
Zn7 Zr0 3.049544 1_455
Zn7 Zr0 3.049544 1_545
Zn7 Zr2 3.065256 1_455
Zn7 Zr2 3.065256 1_545
Zn7 Zr1 3.105325 1_556
