# generated using pymatgen
data_K4P4H6WO14
_symmetry_space_group_name_H-M   'P 1'
_cell_length_a   11.81315951
_cell_length_b   11.81315951
_cell_length_c   14.25402534
_cell_angle_alpha   62.43021957
_cell_angle_beta   62.43021957
_cell_angle_gamma   37.01368127
_symmetry_Int_Tables_number   1
_chemical_formula_structural   K4P4H6WO14
_chemical_formula_sum   'K8 P8 H12 W2 O28'
_cell_volume   1045.17163661
_cell_formula_units_Z   2
loop_
 _symmetry_equiv_pos_site_id
 _symmetry_equiv_pos_as_xyz
  1  'x, y, z'
loop_
 _atom_site_type_symbol
 _atom_site_label
 _atom_site_symmetry_multiplicity
 _atom_site_fract_x
 _atom_site_fract_y
 _atom_site_fract_z
 _atom_site_occupancy
  K  K0  1  0.77970000  0.24920100  0.94092900  1
  K  K1  1  0.22030000  0.75079900  0.05907100  1
  K  K2  1  0.75079900  0.22030000  0.55907100  1
  K  K3  1  0.24920100  0.77970000  0.44092900  1
  K  K4  1  0.58628700  0.98981800  0.84550000  1
  K  K5  1  0.41371300  0.01018200  0.15450000  1
  K  K6  1  0.01018200  0.41371300  0.65450000  1
  K  K7  1  0.98981800  0.58628700  0.34550000  1
  P  P0  1  0.80649500  0.87825900  0.54681000  1
  P  P1  1  0.19350500  0.12174100  0.45319000  1
  P  P2  1  0.12174100  0.19350500  0.95319000  1
  P  P3  1  0.87825900  0.80649500  0.04681000  1
  P  P4  1  0.47191800  0.73515000  0.75730300  1
  P  P5  1  0.52808200  0.26485000  0.24269700  1
  P  P6  1  0.26485000  0.52808200  0.74269700  1
  P  P7  1  0.73515000  0.47191800  0.25730300  1
  H  H0  1  0.31445400  0.90667500  0.88286000  1
  H  H1  1  0.68554600  0.09332500  0.11714000  1
  H  H2  1  0.09332500  0.68554600  0.61714000  1
  H  H3  1  0.90667500  0.31445400  0.38286000  1
  H  H4  1  0.60936100  0.86395000  0.66086000  1
  H  H5  1  0.39063900  0.13605000  0.33914000  1
  H  H6  1  0.13605000  0.39063900  0.83914000  1
  H  H7  1  0.86395000  0.60936100  0.16086000  1
  H  H8  1  0.40431000  0.90433700  0.56466100  1
  H  H9  1  0.59569000  0.09566300  0.43533900  1
  H  H10  1  0.09566300  0.59569000  0.93533900  1
  H  H11  1  0.90433700  0.40431000  0.06466100  1
  W  W0  1  0.44153900  0.55846100  0.75000000  1
  W  W1  1  0.55846100  0.44153900  0.25000000  1
  O  O0  1  0.91710400  0.88535100  0.56774100  1
  O  O1  1  0.08289600  0.11464900  0.43225900  1
  O  O2  1  0.11464900  0.08289600  0.93225900  1
  O  O3  1  0.88535100  0.91710400  0.06774100  1
  O  O4  1  0.72231500  0.92199500  0.98915900  1
  O  O5  1  0.27768500  0.07800500  0.01084100  1
  O  O6  1  0.07800500  0.27768500  0.51084100  1
  O  O7  1  0.92199500  0.72231500  0.48915900  1
  O  O8  1  0.70055300  0.85794600  0.66372200  1
  O  O9  1  0.29944700  0.14205400  0.33627800  1
  O  O10  1  0.14205400  0.29944700  0.83627800  1
  O  O11  1  0.85794600  0.70055300  0.16372200  1
  O  O12  1  0.64223300  0.08743100  0.48505400  1
  O  O13  1  0.35776700  0.91256900  0.51494600  1
  O  O14  1  0.91256900  0.35776700  0.01494600  1
  O  O15  1  0.08743100  0.64223300  0.98505400  1
  O  O16  1  0.48927000  0.33348700  0.74000000  1
  O  O17  1  0.51073000  0.66651300  0.26000000  1
  O  O18  1  0.66651300  0.51073000  0.76000000  1
  O  O19  1  0.33348700  0.48927000  0.24000000  1
  O  O20  1  0.48283500  0.86240000  0.66088400  1
  O  O21  1  0.51716500  0.13760000  0.33911600  1
  O  O22  1  0.13760000  0.51716500  0.83911600  1
  O  O23  1  0.86240000  0.48283500  0.16088400  1
  O  O24  1  0.44495200  0.77072900  0.86641300  1
  O  O25  1  0.55504800  0.22927100  0.13358700  1
  O  O26  1  0.22927100  0.55504800  0.63358700  1
  O  O27  1  0.77072900  0.44495200  0.36641300  1
loop_
_geom_bond_atom_site_label_1
_geom_bond_atom_site_label_2
_geom_bond_distance
_geom_bond_site_symmetry_2
K0 O2 2.624719 1_655
K0 O18 2.683915 1_555
K0 O3 2.814360 1_546
K1 O3 2.624719 1_455
K1 O19 2.683915 1_555
K1 O2 2.814360 1_564
K2 O0 2.624719 1_545
K2 O16 2.683915 1_555
K2 O1 2.814360 1_655
K3 O1 2.624719 1_565
K3 O17 2.683915 1_555
K3 O0 2.814360 1_455
K4 O4 2.624582 1_555
K4 O8 2.846611 1_555
K4 O5 2.860836 1_566
K4 O16 2.927548 1_565
K5 O5 2.624582 1_555
K5 O9 2.846611 1_555
K5 O4 2.860836 1_544
K5 O17 2.927548 1_545
K6 O6 2.624582 1_555
K6 O10 2.846611 1_555
K6 O7 2.860836 1_455
K6 O18 2.927548 1_455
K7 O7 2.624582 1_555
K7 O11 2.846611 1_555
K7 O6 2.860836 1_655
K7 O19 2.927548 1_655
H0 O24 1.034807 1_555
H0 O2 1.540156 1_565
H1 O25 1.034807 1_555
H1 O3 1.540156 1_545
H2 O26 1.034807 1_555
H2 O0 1.540156 1_455
H3 O27 1.034807 1_555
H3 O1 1.540156 1_655
H4 O8 1.040758 1_555
H4 O20 1.509174 1_555
H5 O9 1.040758 1_555
H5 O21 1.509174 1_555
H6 O10 1.040758 1_555
H6 O22 1.509174 1_555
H7 O11 1.040758 1_555
H7 O23 1.509174 1_555
H8 O13 1.012625 1_555
H8 O20 1.673905 1_555
H9 O12 1.012625 1_555
H9 O21 1.673905 1_555
H10 O15 1.012625 1_555
H10 O22 1.673905 1_555
H11 O14 1.012625 1_555
H11 O23 1.673905 1_555
O0 P0 1.536932 1_555
O1 P1 1.536932 1_555
O2 P2 1.536932 1_555
O3 P3 1.536932 1_555
O4 P3 1.509957 1_556
O5 P2 1.509957 1_554
O6 P1 1.509957 1_555
O7 P0 1.509957 1_555
O8 P0 1.606193 1_555
O9 P1 1.606193 1_555
O10 P2 1.606193 1_555
O11 P3 1.606193 1_555
O12 P0 1.598888 1_545
O13 P1 1.598888 1_565
O14 P2 1.598888 1_654
O15 P3 1.598888 1_456
O16 P6 1.602868 1_555
O16 W0 2.298806 1_555
O17 P7 1.602868 1_555
O17 W1 2.298806 1_555
O18 P4 1.602868 1_555
O18 W0 2.298806 1_555
O19 P5 1.602868 1_555
O19 W1 2.298806 1_555
O20 P4 1.548653 1_555
O21 P5 1.548653 1_555
O22 P6 1.548653 1_555
O23 P7 1.548653 1_555
O24 P4 1.621608 1_555
O25 P5 1.621608 1_555
O26 P6 1.621608 1_555
O27 P7 1.621608 1_555
