# generated using pymatgen
data_SrNdMgRuO6
_symmetry_space_group_name_H-M   'P 1'
_cell_length_a   5.67480200
_cell_length_b   5.58895800
_cell_length_c   9.66182727
_cell_angle_alpha   54.94471949
_cell_angle_beta   90.00000000
_cell_angle_gamma   90.00000000
_symmetry_Int_Tables_number   1
_chemical_formula_structural   SrNdMgRuO6
_chemical_formula_sum   'Sr2 Nd2 Mg2 Ru2 O12'
_cell_volume   250.84857937
_cell_formula_units_Z   2
loop_
 _symmetry_equiv_pos_site_id
 _symmetry_equiv_pos_as_xyz
  1  'x, y, z'
loop_
 _atom_site_type_symbol
 _atom_site_label
 _atom_site_symmetry_multiplicity
 _atom_site_fract_x
 _atom_site_fract_y
 _atom_site_fract_z
 _atom_site_occupancy
  Sr  Sr0  1  0.21865100  0.24503800  0.25040600  1
  Sr  Sr1  1  0.78134900  0.24503800  0.75040600  1
  Nd  Nd0  1  0.30241200  0.76294300  0.75094500  1
  Nd  Nd1  1  0.69758800  0.76294300  0.25094500  1
  Mg  Mg0  1  0.75702100  0.49936000  0.00142300  1
  Mg  Mg1  1  0.24297900  0.49936000  0.50142300  1
  Ru  Ru0  1  0.75239500  0.00011900  0.49974200  1
  Ru  Ru1  1  0.24760500  0.00011900  0.99974200  1
  O  O0  1  0.03868700  0.14937800  0.54556800  1
  O  O1  1  0.96131300  0.14937800  0.04556800  1
  O  O2  1  0.47831600  0.82388400  0.45942900  1
  O  O3  1  0.52168400  0.82388400  0.95942900  1
  O  O4  1  0.76474800  0.33554500  0.25666400  1
  O  O5  1  0.23525200  0.33554500  0.75666400  1
  O  O6  1  0.72463400  0.69164900  0.74352600  1
  O  O7  1  0.27536600  0.69164900  0.24352600  1
  O  O8  1  0.94887300  0.75754100  0.45475300  1
  O  O9  1  0.05112700  0.75754100  0.95475300  1
  O  O10  1  0.53332800  0.23454400  0.53754600  1
  O  O11  1  0.46667200  0.23454400  0.03754600  1
loop_
_geom_bond_atom_site_label_1
_geom_bond_atom_site_label_2
_geom_bond_distance
_geom_bond_site_symmetry_2
Nd0 O5 2.388015 1_555
Nd0 O9 2.417365 1_555
Nd0 O0 2.432859 1_565
Nd0 O6 2.436731 1_555
Nd0 O3 2.551474 1_555
Nd0 O10 2.583165 1_565
Nd0 O11 2.804313 1_556
Nd0 O2 2.818432 1_555
Nd1 O4 2.388015 1_555
Nd1 O8 2.417365 1_555
Nd1 O1 2.432859 1_565
Nd1 O7 2.436731 1_555
Nd1 O2 2.551474 1_555
Nd1 O11 2.583165 1_565
Nd1 O10 2.804313 1_555
Nd1 O3 2.818432 1_554
Mg0 O6 2.078805 1_554
Mg0 O9 2.079321 1_654
Mg0 O4 2.080414 1_555
Mg0 O3 2.095827 1_554
Mg0 O1 2.096099 1_555
Mg0 O11 2.105656 1_555
Mg1 O7 2.078805 1_555
Mg1 O8 2.079321 1_455
Mg1 O5 2.080414 1_555
Mg1 O2 2.095827 1_555
Mg1 O0 2.096099 1_555
Mg1 O10 2.105656 1_555
O0 Ru0 1.988897 1_455
O0 Sr1 2.747872 1_455
O0 Sr0 2.776714 1_555
O1 Ru1 1.988897 1_654
O1 Sr0 2.747872 1_655
O1 Sr1 2.776714 1_554
O2 Ru0 1.995413 1_565
O2 Sr0 2.515886 1_565
O3 Ru1 1.995413 1_565
O3 Sr1 2.515886 1_565
O4 Ru0 1.994362 1_555
O4 Sr0 2.632387 1_655
O5 Ru1 1.994362 1_555
O5 Sr1 2.632387 1_455
O6 Ru0 1.969835 1_565
O6 Sr1 2.479489 1_555
O7 Ru1 1.969835 1_564
O7 Sr0 2.479489 1_555
O8 Ru0 1.986745 1_565
O8 Sr0 2.736035 1_665
O8 Sr1 2.805181 1_555
O9 Ru1 1.986745 1_565
O9 Sr1 2.736035 1_465
O9 Sr0 2.805181 1_556
O10 Ru0 1.986252 1_555
O10 Sr1 2.520446 1_555
O11 Ru1 1.986252 1_554
O11 Sr0 2.520446 1_555
