# generated using pymatgen
data_Sm3Co4Sn13
_symmetry_space_group_name_H-M   'P 1'
_cell_length_a   9.54333213
_cell_length_b   9.54333213
_cell_length_c   9.54333213
_cell_angle_alpha   90.00000000
_cell_angle_beta   90.00000000
_cell_angle_gamma   90.00000000
_symmetry_Int_Tables_number   1
_chemical_formula_structural   Sm3Co4Sn13
_chemical_formula_sum   'Sm6 Co8 Sn26'
_cell_volume   869.16076926
_cell_formula_units_Z   2
loop_
 _symmetry_equiv_pos_site_id
 _symmetry_equiv_pos_as_xyz
  1  'x, y, z'
loop_
 _atom_site_type_symbol
 _atom_site_label
 _atom_site_symmetry_multiplicity
 _atom_site_fract_x
 _atom_site_fract_y
 _atom_site_fract_z
 _atom_site_occupancy
  Sm  Sm0  1  0.00000000  0.50000000  0.75000000  1
  Sm  Sm1  1  0.50000000  0.25000000  0.00000000  1
  Sm  Sm2  1  0.75000000  0.00000000  0.50000000  1
  Sm  Sm3  1  0.00000000  0.50000000  0.25000000  1
  Sm  Sm4  1  0.50000000  0.75000000  0.00000000  1
  Sm  Sm5  1  0.25000000  0.00000000  0.50000000  1
  Co  Co0  1  0.75000000  0.25000000  0.75000000  1
  Co  Co1  1  0.25000000  0.75000000  0.25000000  1
  Co  Co2  1  0.75000000  0.75000000  0.25000000  1
  Co  Co3  1  0.25000000  0.25000000  0.75000000  1
  Co  Co4  1  0.25000000  0.75000000  0.75000000  1
  Co  Co5  1  0.75000000  0.25000000  0.25000000  1
  Co  Co6  1  0.25000000  0.25000000  0.25000000  1
  Co  Co7  1  0.75000000  0.75000000  0.75000000  1
  Sn  Sn0  1  0.50000000  0.50000000  0.50000000  1
  Sn  Sn1  1  0.00000000  0.00000000  0.00000000  1
  Sn  Sn2  1  0.80312089  0.34199092  0.50000000  1
  Sn  Sn3  1  0.65800908  0.50000000  0.80312089  1
  Sn  Sn4  1  0.50000000  0.19687911  0.65800908  1
  Sn  Sn5  1  0.19687911  0.65800908  0.50000000  1
  Sn  Sn6  1  0.34199092  0.50000000  0.19687911  1
  Sn  Sn7  1  0.50000000  0.80312089  0.34199092  1
  Sn  Sn8  1  0.80312089  0.65800908  0.50000000  1
  Sn  Sn9  1  0.65800908  0.50000000  0.19687911  1
  Sn  Sn10  1  0.19687911  0.34199092  0.50000000  1
  Sn  Sn11  1  0.34199092  0.50000000  0.80312089  1
  Sn  Sn12  1  0.50000000  0.80312089  0.65800908  1
  Sn  Sn13  1  0.50000000  0.19687911  0.34199092  1
  Sn  Sn14  1  0.30312089  0.00000000  0.84199092  1
  Sn  Sn15  1  0.15800908  0.30312089  0.00000000  1
  Sn  Sn16  1  0.00000000  0.15800908  0.69687911  1
  Sn  Sn17  1  0.69687911  0.00000000  0.15800908  1
  Sn  Sn18  1  0.84199092  0.69687911  0.00000000  1
  Sn  Sn19  1  0.00000000  0.84199092  0.30312089  1
  Sn  Sn20  1  0.30312089  0.00000000  0.15800908  1
  Sn  Sn21  1  0.15800908  0.69687911  0.00000000  1
  Sn  Sn22  1  0.69687911  0.00000000  0.84199092  1
  Sn  Sn23  1  0.84199092  0.30312089  0.00000000  1
  Sn  Sn24  1  0.00000000  0.15800908  0.30312089  1
  Sn  Sn25  1  0.00000000  0.84199092  0.69687911  1
loop_
_geom_bond_atom_site_label_1
_geom_bond_atom_site_label_2
_geom_bond_distance
_geom_bond_site_symmetry_2
Sm0 Sn3 3.302870 1_455
Sm0 Sn16 3.302870 1_555
Sm0 Sn25 3.302870 1_555
Sm0 Sn11 3.302870 1_555
Sm0 Sn5 3.390614 1_555
Sm0 Sn10 3.390614 1_555
Sm0 Sn18 3.390614 1_456
Sm0 Sn15 3.390614 1_556
Sm0 Sn23 3.390614 1_456
Sm0 Sn21 3.390614 1_556
Sm0 Sn2 3.390614 1_455
Sm0 Sn8 3.390614 1_455
Sm1 Sn15 3.302870 1_555
Sm1 Sn13 3.302870 1_555
Sm1 Sn23 3.302870 1_555
Sm1 Sn4 3.302870 1_554
Sm1 Sn9 3.390614 1_555
Sm1 Sn6 3.390614 1_555
Sm1 Sn11 3.390614 1_554
Sm1 Sn20 3.390614 1_555
Sm1 Sn17 3.390614 1_555
Sm1 Sn3 3.390614 1_554
Sm1 Sn22 3.390614 1_554
Sm1 Sn14 3.390614 1_554
Sm2 Sn22 3.302870 1_555
Sm2 Sn17 3.302870 1_555
Sm2 Sn2 3.302870 1_555
Sm2 Sn8 3.302870 1_545
Sm2 Sn13 3.390614 1_555
Sm2 Sn4 3.390614 1_555
Sm2 Sn16 3.390614 1_655
Sm2 Sn19 3.390614 1_645
Sm2 Sn7 3.390614 1_545
Sm2 Sn25 3.390614 1_645
Sm2 Sn24 3.390614 1_655
Sm2 Sn12 3.390614 1_545
Sm3 Sn19 3.302870 1_555
Sm3 Sn6 3.302870 1_555
Sm3 Sn24 3.302870 1_555
Sm3 Sn9 3.302870 1_455
Sm3 Sn5 3.390614 1_555
Sm3 Sn10 3.390614 1_555
Sm3 Sn23 3.390614 1_455
Sm3 Sn2 3.390614 1_455
Sm3 Sn21 3.390614 1_555
Sm3 Sn8 3.390614 1_455
Sm3 Sn15 3.390614 1_555
Sm3 Sn18 3.390614 1_455
Sm4 Sn7 3.302870 1_555
Sm4 Sn12 3.302870 1_554
Sm4 Sn21 3.302870 1_555
Sm4 Sn18 3.302870 1_555
Sm4 Sn9 3.390614 1_555
Sm4 Sn6 3.390614 1_555
Sm4 Sn11 3.390614 1_554
Sm4 Sn14 3.390614 1_564
Sm4 Sn20 3.390614 1_565
Sm4 Sn22 3.390614 1_564
Sm4 Sn17 3.390614 1_565
Sm4 Sn3 3.390614 1_554
Sm5 Sn5 3.302870 1_545
Sm5 Sn20 3.302870 1_555
Sm5 Sn10 3.302870 1_555
Sm5 Sn14 3.302870 1_555
Sm5 Sn13 3.390614 1_555
Sm5 Sn4 3.390614 1_555
Sm5 Sn16 3.390614 1_555
Sm5 Sn25 3.390614 1_545
Sm5 Sn19 3.390614 1_545
Sm5 Sn7 3.390614 1_545
Sm5 Sn24 3.390614 1_555
Sm5 Sn12 3.390614 1_545
Co0 Sn2 2.592278 1_555
Co0 Sn16 2.592278 1_655
Co0 Sn3 2.592278 1_555
Co0 Sn22 2.592278 1_555
Co0 Sn4 2.592278 1_555
Co0 Sn23 2.592278 1_556
Co0 Sm1 3.374077 1_556
Co0 Sm0 3.374077 1_655
Co0 Sm2 3.374077 1_555
Co1 Sn21 2.592278 1_555
Co1 Sn19 2.592278 1_555
Co1 Sn6 2.592278 1_555
Co1 Sn20 2.592278 1_565
Co1 Sn7 2.592278 1_555
Co1 Sn5 2.592278 1_555
Co1 Sm3 3.374077 1_555
Co1 Sm4 3.374077 1_555
Co1 Sm5 3.374077 1_565
Co2 Sn17 2.592278 1_565
Co2 Sn8 2.592278 1_555
Co2 Sn9 2.592278 1_555
Co2 Sn18 2.592278 1_555
Co2 Sn7 2.592278 1_555
Co2 Sn19 2.592278 1_655
Co2 Sm4 3.374077 1_555
Co2 Sm3 3.374077 1_655
Co2 Sm2 3.374077 1_565
Co3 Sn15 2.592278 1_556
Co3 Sn4 2.592278 1_555
Co3 Sn16 2.592278 1_555
Co3 Sn10 2.592278 1_555
Co3 Sn14 2.592278 1_555
Co3 Sn11 2.592278 1_555
Co3 Sm0 3.374077 1_555
Co3 Sm1 3.374077 1_556
Co3 Sm5 3.374077 1_555
Co4 Sn21 2.592278 1_556
Co4 Sn12 2.592278 1_555
Co4 Sn25 2.592278 1_555
Co4 Sn14 2.592278 1_565
Co4 Sn11 2.592278 1_555
Co4 Sn5 2.592278 1_555
Co4 Sm0 3.374077 1_555
Co4 Sm4 3.374077 1_556
Co4 Sm5 3.374077 1_565
Co5 Sn2 2.592278 1_555
Co5 Sn9 2.592278 1_555
Co5 Sn24 2.592278 1_655
Co5 Sn13 2.592278 1_555
Co5 Sn17 2.592278 1_555
Co5 Sn23 2.592278 1_555
Co5 Sm3 3.374077 1_655
Co5 Sm2 3.374077 1_555
Co5 Sm1 3.374077 1_555
Co6 Sn15 2.592278 1_555
Co6 Sn13 2.592278 1_555
Co6 Sn20 2.592278 1_555
Co6 Sn6 2.592278 1_555
Co6 Sn10 2.592278 1_555
Co6 Sn24 2.592278 1_555
Co6 Sm3 3.374077 1_555
Co6 Sm5 3.374077 1_555
Co6 Sm1 3.374077 1_555
Co7 Sn8 2.592278 1_555
Co7 Sn22 2.592278 1_565
Co7 Sn25 2.592278 1_655
Co7 Sn3 2.592278 1_555
Co7 Sn12 2.592278 1_555
Co7 Sn18 2.592278 1_556
Co7 Sm4 3.374077 1_556
Co7 Sm0 3.374077 1_655
Co7 Sm2 3.374077 1_565
Sn0 Sn9 3.262217 1_555
Sn0 Sn2 3.262217 1_555
Sn0 Sn3 3.262217 1_555
Sn0 Sn12 3.262217 1_555
Sn0 Sn13 3.262217 1_555
Sn0 Sn6 3.262217 1_555
Sn0 Sn10 3.262217 1_555
Sn0 Sn7 3.262217 1_555
Sn0 Sn4 3.262217 1_555
Sn0 Sn11 3.262217 1_555
Sn0 Sn5 3.262217 1_555
Sn0 Sn8 3.262217 1_555
Sn1 Sn18 3.262217 1_445
Sn1 Sn16 3.262217 1_554
Sn1 Sn22 3.262217 1_454
Sn1 Sn17 3.262217 1_455
Sn1 Sn15 3.262217 1_555
Sn1 Sn21 3.262217 1_545
Sn1 Sn25 3.262217 1_544
Sn1 Sn20 3.262217 1_555
Sn1 Sn14 3.262217 1_554
Sn1 Sn23 3.262217 1_455
Sn1 Sn19 3.262217 1_545
Sn1 Sn24 3.262217 1_555
Sn2 Sn8 3.015866 1_555
Sn2 Sn24 3.184844 1_655
Sn6 Sn9 3.015866 1_555
Sn10 Sn5 3.015866 1_555
Sn10 Sn16 3.184844 1_555
Sn10 Sn24 3.184844 1_555
Sn11 Sn3 3.015866 1_555
Sn11 Sn15 3.184844 1_556
Sn11 Sn21 3.184844 1_556
Sn12 Sn7 3.015866 1_555
Sn12 Sn22 3.184844 1_565
Sn12 Sn14 3.184844 1_565
Sn13 Sn4 3.015866 1_555
Sn13 Sn20 3.184844 1_555
Sn13 Sn17 3.184844 1_555
Sn14 Sn20 3.015866 1_556
Sn14 Sn4 3.184844 1_555
Sn15 Sn23 3.015866 1_455
Sn15 Sn6 3.184844 1_555
Sn16 Sn25 3.015866 1_545
Sn16 Sn2 3.184844 1_455
Sn17 Sn22 3.015866 1_554
Sn17 Sn7 3.184844 1_545
Sn18 Sn21 3.015866 1_655
Sn18 Sn9 3.184844 1_555
Sn18 Sn3 3.184844 1_554
Sn19 Sn24 3.015866 1_565
Sn19 Sn5 3.184844 1_555
Sn19 Sn8 3.184844 1_455
Sn20 Sn7 3.184844 1_545
Sn21 Sn6 3.184844 1_555
Sn22 Sn4 3.184844 1_555
Sn23 Sn9 3.184844 1_555
Sn23 Sn3 3.184844 1_554
Sn25 Sn5 3.184844 1_555
Sn25 Sn8 3.184844 1_455
