# generated using pymatgen
data_Li3NdGa8
_symmetry_space_group_name_H-M   'P 1'
_cell_length_a   4.34562283
_cell_length_b   4.33966336
_cell_length_c   13.77142100
_cell_angle_alpha   90.00000000
_cell_angle_beta   90.00000000
_cell_angle_gamma   59.95457538
_symmetry_Int_Tables_number   1
_chemical_formula_structural   Li3NdGa8
_chemical_formula_sum   'Li3 Nd1 Ga8'
_cell_volume   224.81148116
_cell_formula_units_Z   1
loop_
 _symmetry_equiv_pos_site_id
 _symmetry_equiv_pos_as_xyz
  1  'x, y, z'
loop_
 _atom_site_type_symbol
 _atom_site_label
 _atom_site_symmetry_multiplicity
 _atom_site_fract_x
 _atom_site_fract_y
 _atom_site_fract_z
 _atom_site_occupancy
  Li  Li0  1  0.99997000  0.00000000  0.25521200  1
  Li  Li1  1  0.99997100  0.00000000  0.50000000  1
  Li  Li2  1  0.99997000  0.00000000  0.74478800  1
  Nd  Nd0  1  0.99997100  0.00000000  0.00000000  1
  Ga  Ga0  1  0.66665100  0.66661200  0.14543600  1
  Ga  Ga1  1  0.66710300  0.66573800  0.37113200  1
  Ga  Ga2  1  0.66710300  0.66573800  0.62886800  1
  Ga  Ga3  1  0.66665100  0.66661200  0.85456400  1
  Ga  Ga4  1  0.33326300  0.33338800  0.14543600  1
  Ga  Ga5  1  0.33284100  0.33426200  0.37113200  1
  Ga  Ga6  1  0.33284100  0.33426200  0.62886800  1
  Ga  Ga7  1  0.33326300  0.33338800  0.85456400  1
loop_
_geom_bond_atom_site_label_1
_geom_bond_atom_site_label_2
_geom_bond_distance
_geom_bond_site_symmetry_2
Ga0 Ga4 2.504769 1_565
Ga0 Ga4 2.507595 1_555
Ga0 Ga4 2.507595 1_655
Ga0 Li0 2.925104 1_555
Ga0 Li0 2.928273 1_465
Ga0 Li0 2.928357 1_565
Ga0 Nd0 3.206592 1_555
Ga0 Nd0 3.209480 1_465
Ga0 Nd0 3.209562 1_565
Ga1 Ga5 2.504323 1_555
Ga1 Ga5 2.504324 1_655
Ga1 Ga5 2.511335 1_565
Ga1 Li0 2.966949 1_555
Ga1 Li0 2.974258 1_565
Ga1 Li0 2.974271 1_465
Ga1 Li1 3.066577 1_555
Ga1 Li1 3.073652 1_565
Ga1 Li1 3.073658 1_465
Ga2 Ga6 2.504323 1_555
Ga2 Ga6 2.504324 1_655
Ga2 Ga6 2.511335 1_565
Ga2 Li2 2.966949 1_555
Ga2 Li2 2.974258 1_565
Ga2 Li2 2.974271 1_465
Ga2 Li1 3.066577 1_555
Ga2 Li1 3.073652 1_565
Ga2 Li1 3.073658 1_465
Ga3 Ga7 2.504769 1_565
Ga3 Ga7 2.507595 1_555
Ga3 Ga7 2.507595 1_655
Ga3 Li2 2.925104 1_555
Ga3 Li2 2.928273 1_465
Ga3 Li2 2.928357 1_565
Ga3 Nd0 3.206592 1_556
Ga3 Nd0 3.209480 1_466
Ga3 Nd0 3.209562 1_566
Ga4 Li0 2.925104 1_465
Ga4 Li0 2.928273 1_455
Ga4 Li0 2.928357 1_555
Ga4 Nd0 3.206592 1_465
Ga4 Nd0 3.209480 1_455
Ga4 Nd0 3.209563 1_555
Ga5 Li0 2.966949 1_465
Ga5 Li0 2.974258 1_555
Ga5 Li0 2.974271 1_455
Ga5 Li1 3.066577 1_465
Ga5 Li1 3.073652 1_555
Ga5 Li1 3.073658 1_455
Ga6 Li2 2.966949 1_465
Ga6 Li2 2.974258 1_555
Ga6 Li2 2.974271 1_455
Ga6 Li1 3.066577 1_465
Ga6 Li1 3.073652 1_555
Ga6 Li1 3.073658 1_455
Ga7 Li2 2.925104 1_465
Ga7 Li2 2.928273 1_455
Ga7 Li2 2.928357 1_555
Ga7 Nd0 3.206592 1_466
Ga7 Nd0 3.209480 1_456
Ga7 Nd0 3.209563 1_556
