# generated using pymatgen
data_Li6V3P8O29
_symmetry_space_group_name_H-M   'P 1'
_cell_length_a   9.78987100
_cell_length_b   9.80513131
_cell_length_c   14.01287395
_cell_angle_alpha   89.30575206
_cell_angle_beta   89.13959099
_cell_angle_gamma   60.22653441
_symmetry_Int_Tables_number   1
_chemical_formula_structural   Li6V3P8O29
_chemical_formula_sum   'Li12 V6 P16 O58'
_cell_volume   1167.40043054
_cell_formula_units_Z   2
loop_
 _symmetry_equiv_pos_site_id
 _symmetry_equiv_pos_as_xyz
  1  'x, y, z'
loop_
 _atom_site_type_symbol
 _atom_site_label
 _atom_site_symmetry_multiplicity
 _atom_site_fract_x
 _atom_site_fract_y
 _atom_site_fract_z
 _atom_site_occupancy
  Li  Li0  1  0.09747100  0.66514300  0.56220400  1
  Li  Li1  1  0.31996300  0.33419400  0.88943700  1
  Li  Li2  1  0.23138100  0.67592800  0.06251000  1
  Li  Li3  1  0.67557000  0.09096200  0.06292700  1
  Li  Li4  1  0.33949700  0.76201700  0.43947400  1
  Li  Li5  1  0.66919000  0.23487800  0.56058300  1
  Li  Li6  1  0.33307200  0.90219400  0.93827500  1
  Li  Li7  1  0.76348300  0.33863500  0.94294100  1
  Li  Li8  1  0.90552700  0.33648000  0.43632800  1
  Li  Li9  1  0.76803500  0.90112500  0.44167700  1
  Li  Li10  1  0.00200900  0.00291300  0.00143300  1
  Li  Li11  1  0.03797800  0.01799700  0.50625600  1
  V  V0  1  0.43503800  0.56512200  0.25124600  1
  V  V1  1  0.56567700  0.43556200  0.74789400  1
  V  V2  1  0.43463000  0.00265400  0.74645500  1
  V  V3  1  0.56286700  0.99768100  0.25226600  1
  V  V4  1  0.00456600  0.43588300  0.24378000  1
  V  V5  1  0.99509400  0.56337700  0.75366200  1
  P  P0  1  0.08397300  0.21613100  0.83847000  1
  P  P1  1  0.21796200  0.08241200  0.33719100  1
  P  P2  1  0.08474300  0.68550600  0.34568700  1
  P  P3  1  0.33702600  0.33521600  0.12924600  1
  P  P4  1  0.33420300  0.33562000  0.63092900  1
  P  P5  1  0.22267700  0.68113100  0.84286300  1
  P  P6  1  0.31228900  0.77488400  0.65909900  1
  P  P7  1  0.68333500  0.09316900  0.84445700  1
  P  P8  1  0.31425900  0.91164800  0.15303600  1
  P  P9  1  0.68409900  0.22588200  0.34208000  1
  P  P10  1  0.77542100  0.31414500  0.15832400  1
  P  P11  1  0.67058100  0.66219600  0.36832700  1
  P  P12  1  0.66162500  0.66893300  0.86999500  1
  P  P13  1  0.91673700  0.31092600  0.65235900  1
  P  P14  1  0.77671900  0.91492300  0.66012400  1
  P  P15  1  0.91588100  0.78172100  0.16144900  1
  O  O0  1  0.98740300  0.22548700  0.56046500  1
  O  O1  1  0.08312800  0.25222400  0.33946800  1
  O  O2  1  0.23022400  0.98000000  0.06110100  1
  O  O3  1  0.25317000  0.07628500  0.84184000  1
  O  O4  1  0.09553000  0.36929300  0.83193000  1
  O  O5  1  0.19065200  0.33091700  0.17440100  1
  O  O6  1  0.08487100  0.53135300  0.33135800  1
  O  O7  1  0.00516400  0.80143600  0.07955700  1
  O  O8  1  0.08214300  0.65461600  0.84283900  1
  O  O9  1  0.33258700  0.18896100  0.67853500  1
  O  O10  1  0.38050300  0.07572400  0.32822100  1
  O  O11  1  0.18806500  0.48506100  0.67456500  1
  O  O12  1  0.33490900  0.33915900  0.02208500  1
  O  O13  1  0.33487200  0.33748300  0.52501100  1
  O  O14  1  0.32506000  0.49006600  0.16751200  1
  O  O15  1  0.52079200  0.10473900  0.83337400  1
  O  O16  1  0.48750600  0.18909600  0.16792600  1
  O  O17  1  0.25434400  0.66050700  0.34219200  1
  O  O18  1  0.20461600  0.78981800  0.75066000  1
  O  O19  1  0.22548700  0.77576600  0.56996900  1
  O  O20  1  0.22733800  0.76940000  0.92968800  1
  O  O21  1  0.37346600  0.51920800  0.82998500  1
  O  O22  1  0.49034900  0.32465500  0.66906300  1
  O  O23  1  0.34012000  0.74168900  0.16399800  1
  O  O24  1  0.52672100  0.37976800  0.32865700  1
  O  O25  1  0.65912100  0.08181000  0.34382600  1
  O  O26  1  0.19804600  0.00905500  0.23968600  1
  O  O27  1  0.20925300  0.98615000  0.41878300  1
  O  O28  1  0.77879200  0.00376900  0.57129300  1
  O  O29  1  0.34430200  0.91070100  0.66095100  1
  O  O30  1  0.46651100  0.61570900  0.67194200  1
  O  O31  1  0.65842400  0.26343000  0.83803000  1
  O  O32  1  0.51420800  0.67480300  0.32939100  1
  O  O33  1  0.61840900  0.46760200  0.17142600  1
  O  O34  1  0.77702000  0.22455000  0.07021400  1
  O  O35  1  0.77141100  0.22758600  0.42982300  1
  O  O36  1  0.79246300  0.20292300  0.24979800  1
  O  O37  1  0.74698300  0.33620300  0.66140300  1
  O  O38  1  0.51563400  0.81964500  0.82757700  1
  O  O39  1  0.46815700  0.91249200  0.16784500  1
  O  O40  1  0.66620200  0.51866900  0.82988200  1
  O  O41  1  0.65679100  0.67107900  0.97587400  1
  O  O42  1  0.67070200  0.65797500  0.47492700  1
  O  O43  1  0.81565200  0.51177600  0.32513300  1
  O  O44  1  0.62278400  0.91018300  0.67026800  1
  O  O45  1  0.67949400  0.81005800  0.33035800  1
  O  O46  1  0.91394900  0.34271200  0.16035600  1
  O  O47  1  0.01393200  0.19648300  0.73911700  1
  O  O48  1  0.98398300  0.20987000  0.91849000  1
  O  O49  1  0.91900600  0.46469400  0.66502400  1
  O  O50  1  0.81174700  0.66501300  0.82297300  1
  O  O51  1  0.91620500  0.62528200  0.16713700  1
  O  O52  1  0.74294000  0.92101200  0.16422000  1
  O  O53  1  0.76869900  0.01798100  0.93467100  1
  O  O54  1  0.79149100  0.00343700  0.75306800  1
  O  O55  1  0.92135500  0.74898100  0.66146400  1
  O  O56  1  0.00234200  0.77007000  0.43677200  1
  O  O57  1  0.99132300  0.80255800  0.25883700  1
loop_
_geom_bond_atom_site_label_1
_geom_bond_atom_site_label_2
_geom_bond_distance
_geom_bond_site_symmetry_2
Li0 O56 2.017162 1_555
Li0 O19 2.028800 1_555
Li0 O55 2.032532 1_455
Li0 O11 2.191510 1_555
Li1 O12 1.869833 1_556
Li1 O4 2.211527 1_555
Li1 O15 2.268884 1_555
Li1 O21 2.270079 1_555
Li2 O7 1.939238 1_555
Li2 O20 2.056825 1_554
Li2 O23 2.078673 1_555
Li2 O14 2.154729 1_555
Li3 O53 1.976706 1_554
Li3 O34 2.002705 1_555
Li3 O52 2.026283 1_545
Li3 O16 2.161936 1_555
Li4 O27 1.937076 1_555
Li4 O19 2.098334 1_555
Li4 O17 2.105940 1_555
Li4 O32 2.129883 1_555
Li5 O28 1.972471 1_555
Li5 O35 2.059375 1_555
Li5 O37 2.093031 1_555
Li5 O22 2.138433 1_555
Li6 O2 1.942946 1_556
Li6 O3 2.000381 1_565
Li6 O20 2.031604 1_555
Li6 O38 2.183142 1_555
Li7 O48 1.911231 1_555
Li7 O34 2.064249 1_556
Li7 O31 2.141892 1_555
Li7 O40 2.200222 1_555
Li8 O0 1.995608 1_555
Li8 O1 2.019288 1_655
Li8 O35 2.066514 1_555
Li8 O43 2.151891 1_555
Li9 O56 1.996915 1_655
Li9 O25 2.065114 1_565
Li9 O28 2.116183 1_565
Li9 O45 2.196587 1_555
Li10 O7 2.233843 1_545
Li10 O48 2.256809 1_454
Li10 O2 2.300923 1_545
Li10 O34 2.395059 1_455
Li10 O53 2.416551 1_454
Li10 O20 2.468263 1_544
Li11 O27 1.959347 1_545
Li11 O0 1.996742 1_455
Li11 O19 2.340032 1_545
O0 P13 1.504122 1_555
O1 P1 1.527416 1_555
O1 V4 2.056518 1_555
O2 P8 1.499653 1_555
O3 P0 1.539876 1_555
O3 V2 2.035177 1_555
O4 P0 1.562570 1_555
O4 V5 1.978544 1_455
O5 P3 1.577245 1_555
O5 V4 1.852616 1_555
O6 P2 1.526561 1_555
O6 V4 1.946309 1_555
O7 P15 1.500175 1_455
O8 P5 1.521741 1_555
O8 V5 1.975947 1_455
O9 P4 1.584984 1_555
O9 V2 1.847945 1_555
O10 P1 1.562931 1_555
O10 V3 1.873936 1_545
O11 P4 1.575198 1_555
O11 V5 1.975879 1_455
O12 P3 1.501852 1_555
O13 P4 1.484063 1_555
O14 P3 1.564531 1_555
O14 V0 1.980750 1_555
O15 P7 1.548178 1_555
O15 V2 2.023821 1_555
O16 P3 1.557471 1_555
O16 V3 2.015160 1_545
O17 P2 1.553373 1_555
O17 V0 1.986498 1_555
O18 P6 1.609159 1_555
O18 P5 1.619461 1_555
O19 P6 1.518696 1_555
O20 P5 1.515863 1_555
O21 P5 1.550399 1_555
O21 V1 1.990457 1_555
O22 P4 1.579175 1_555
O22 V1 1.948505 1_555
O23 P8 1.562295 1_555
O23 V0 1.934061 1_555
O24 P9 1.542366 1_555
O24 V0 1.909639 1_555
O25 P9 1.548551 1_555
O25 V3 2.012085 1_545
O26 P8 1.608835 1_545
O26 P1 1.610376 1_555
O27 P1 1.502068 1_565
O28 P14 1.516345 1_545
O29 P6 1.512584 1_555
O29 V2 1.969847 1_565
O30 P6 1.552064 1_555
O30 V1 1.864857 1_555
O31 P7 1.564373 1_555
O31 V1 1.931106 1_555
O32 P11 1.578621 1_555
O32 V0 1.959142 1_555
O33 P10 1.536782 1_555
O33 V0 1.910203 1_555
O34 P10 1.519361 1_555
O35 P9 1.512914 1_555
O36 P9 1.605302 1_555
O36 P10 1.628503 1_555
O37 P13 1.557136 1_555
O37 V1 1.953246 1_555
O38 P12 1.576839 1_555
O38 V2 1.924951 1_565
O39 P8 1.528043 1_555
O39 V3 1.944969 1_555
O40 P12 1.562848 1_555
O40 V1 1.950783 1_555
O41 P12 1.483784 1_555
O42 P11 1.493846 1_555
O43 P11 1.572957 1_555
O43 V4 1.965754 1_655
O44 P14 1.535055 1_555
O44 V2 1.913257 1_565
O45 P11 1.580565 1_555
O45 V3 1.946318 1_555
O46 P10 1.515614 1_555
O46 V4 1.962160 1_655
O47 P13 1.607433 1_455
O47 P0 1.616147 1_555
O48 P0 1.498125 1_655
O49 P13 1.531359 1_555
O49 V5 1.951047 1_555
O50 P12 1.584619 1_555
O50 V5 1.831083 1_555
O51 P15 1.533441 1_555
O51 V4 1.932520 1_655
O52 P15 1.560813 1_555
O52 V3 1.958598 1_555
O53 P7 1.495748 1_555
O54 P7 1.611397 1_555
O54 P14 1.621150 1_545
O55 P14 1.537749 1_555
O55 V5 2.041692 1_555
O56 P2 1.515848 1_555
O57 P2 1.609945 1_655
O57 P15 1.623724 1_555
