# generated using pymatgen
data_Cu2Ag(SO5)2
_symmetry_space_group_name_H-M   'P 1'
_cell_length_a   5.41178351
_cell_length_b   5.41178351
_cell_length_c   8.30683076
_cell_angle_alpha   64.25399194
_cell_angle_beta   64.25399194
_cell_angle_gamma   67.98064276
_symmetry_Int_Tables_number   1
_chemical_formula_structural   Cu2Ag(SO5)2
_chemical_formula_sum   'Cu2 Ag1 S2 O10'
_cell_volume   192.11000278
_cell_formula_units_Z   1
loop_
 _symmetry_equiv_pos_site_id
 _symmetry_equiv_pos_as_xyz
  1  'x, y, z'
loop_
 _atom_site_type_symbol
 _atom_site_label
 _atom_site_symmetry_multiplicity
 _atom_site_fract_x
 _atom_site_fract_y
 _atom_site_fract_z
 _atom_site_occupancy
  Cu  Cu0  1  0.00000000  0.50000000  0.00000000  1
  Cu  Cu1  1  0.50000000  0.00000000  0.00000000  1
  Ag  Ag0  1  0.50000000  0.50000000  0.50000000  1
  S  S0  1  0.08057700  0.08057700  0.70750400  1
  S  S1  1  0.91942300  0.91942300  0.29249600  1
  O  O0  1  0.17553900  0.17553900  0.80847000  1
  O  O1  1  0.82446100  0.82446100  0.19153000  1
  O  O2  1  0.19714800  0.19714800  0.50294600  1
  O  O3  1  0.80285200  0.80285200  0.49705400  1
  O  O4  1  0.75854200  0.17169100  0.76042500  1
  O  O5  1  0.17169100  0.75854200  0.76042500  1
  O  O6  1  0.24145800  0.82830900  0.23957500  1
  O  O7  1  0.82830900  0.24145800  0.23957500  1
  O  O8  1  0.66643600  0.66643600  0.95814700  1
  O  O9  1  0.33356400  0.33356400  0.04185300  1
loop_
_geom_bond_atom_site_label_1
_geom_bond_atom_site_label_2
_geom_bond_distance
_geom_bond_site_symmetry_2
Cu0 O8 1.801333 1_454
Cu0 O9 1.801333 1_555
Cu0 O5 1.931539 1_554
Cu0 O7 1.931539 1_455
Cu0 O1 2.525900 1_455
Cu0 O0 2.525900 1_554
Cu1 O9 1.801333 1_555
Cu1 O8 1.801333 1_544
Cu1 O4 1.931539 1_554
Cu1 O6 1.931539 1_545
Cu1 O1 2.525900 1_545
Cu1 O0 2.525900 1_554
Ag0 O7 2.687137 1_555
Ag0 O6 2.687137 1_555
Ag0 O5 2.687137 1_555
Ag0 O4 2.687137 1_555
Ag0 O1 2.688222 1_555
Ag0 O0 2.688222 1_555
Ag0 O2 2.705104 1_555
Ag0 O3 2.705104 1_555
O0 S0 1.476008 1_555
O1 S1 1.476008 1_555
O2 S0 1.455740 1_555
O3 S1 1.455740 1_555
O4 S0 1.533635 1_655
O5 S0 1.533635 1_565
O6 S1 1.533635 1_455
O7 S1 1.533635 1_545
