# generated using pymatgen
data_Li4Co3O7
_symmetry_space_group_name_H-M   'P 1'
_cell_length_a   3.00973300
_cell_length_b   9.75839354
_cell_length_c   9.78340852
_cell_angle_alpha   117.08088107
_cell_angle_beta   91.27949467
_cell_angle_gamma   97.66900271
_symmetry_Int_Tables_number   1
_chemical_formula_structural   Li4Co3O7
_chemical_formula_sum   'Li8 Co6 O14'
_cell_volume   252.42293998
_cell_formula_units_Z   2
loop_
 _symmetry_equiv_pos_site_id
 _symmetry_equiv_pos_as_xyz
  1  'x, y, z'
loop_
 _atom_site_type_symbol
 _atom_site_label
 _atom_site_symmetry_multiplicity
 _atom_site_fract_x
 _atom_site_fract_y
 _atom_site_fract_z
 _atom_site_occupancy
  Li  Li0  1  0.85989300  0.71981800  0.92905300  1
  Li  Li1  1  0.14010700  0.28018200  0.07094700  1
  Li  Li2  1  0.43005700  0.86026600  0.21768700  1
  Li  Li3  1  0.71747000  0.42584800  0.35622500  1
  Li  Li4  1  0.00000000  0.00000000  0.50000000  1
  Li  Li5  1  0.28253000  0.57415200  0.64377500  1
  Li  Li6  1  0.56994300  0.13973400  0.78231300  1
  Li  Li7  1  0.50000000  0.00000000  0.00000000  1
  Co  Co0  1  0.93193000  0.86108300  0.72546900  1
  Co  Co1  1  0.06807000  0.13891700  0.27453100  1
  Co  Co2  1  0.21214100  0.42755300  0.85641600  1
  Co  Co3  1  0.78785900  0.57244700  0.14358400  1
  Co  Co4  1  0.36305300  0.71727100  0.43300300  1
  Co  Co5  1  0.63694700  0.28272900  0.56699700  1
  O  O0  1  0.36367100  0.79232300  0.81335400  1
  O  O1  1  0.68838800  0.36666400  0.96742700  1
  O  O2  1  0.97347000  0.94912900  0.12763400  1
  O  O3  1  0.26136900  0.51373500  0.25602600  1
  O  O4  1  0.50182500  0.08495800  0.39435600  1
  O  O5  1  0.84088000  0.66179800  0.54585600  1
  O  O6  1  0.11065700  0.22461300  0.68009200  1
  O  O7  1  0.31161200  0.63333600  0.03257300  1
  O  O8  1  0.63632900  0.20767700  0.18664600  1
  O  O9  1  0.88934300  0.77538700  0.31990800  1
  O  O10  1  0.15912000  0.33820200  0.45414400  1
  O  O11  1  0.49817500  0.91504200  0.60564400  1
  O  O12  1  0.73863100  0.48626500  0.74397400  1
  O  O13  1  0.02653000  0.05087100  0.87236600  1
loop_
_geom_bond_atom_site_label_1
_geom_bond_atom_site_label_2
_geom_bond_distance
_geom_bond_site_symmetry_2
Li0 O12 2.144113 1_555
Li0 O0 2.144845 1_655
Li0 O7 2.146920 1_656
Li0 O2 2.169454 1_556
Li0 O7 2.223101 1_556
Li0 O0 2.224439 1_555
Li1 O3 2.144113 1_555
Li1 O8 2.144845 1_455
Li1 O1 2.146920 1_454
Li1 O13 2.169454 1_554
Li1 O1 2.223101 1_554
Li1 O8 2.224439 1_555
Li2 O4 2.061085 1_565
Li2 O2 2.091938 1_455
Li2 O7 2.102326 1_555
Li2 O2 2.141156 1_555
Li2 O9 2.143613 1_555
Li2 O9 2.191290 1_455
Li3 O8 1.992962 1_555
Li3 O10 2.099695 1_655
Li3 O3 2.144885 1_555
Li3 O5 2.175539 1_555
Li3 O3 2.199699 1_655
Li3 O10 2.215302 1_555
Li4 O9 2.069362 1_445
Li4 O6 2.069362 1_555
Li4 O11 2.133647 1_445
Li4 O4 2.133647 1_555
Li4 O11 2.246429 1_545
Li4 O4 2.246429 1_455
Li5 O0 1.992962 1_555
Li5 O5 2.099695 1_455
Li5 O12 2.144885 1_555
Li5 O10 2.175539 1_555
Li5 O12 2.199699 1_455
Li5 O5 2.215302 1_555
Li6 O11 2.061085 1_545
Li6 O13 2.091938 1_655
Li6 O1 2.102326 1_555
Li6 O13 2.141156 1_555
Li6 O6 2.143613 1_555
Li6 O6 2.191290 1_655
Li7 O0 1.996255 1_544
Li7 O8 1.996255 1_555
Li7 O13 2.123696 1_554
Li7 O2 2.123696 1_545
Li7 O13 2.181695 1_654
Li7 O2 2.181695 1_445
Co0 O13 1.730331 1_665
Co0 O0 1.893703 1_655
Co0 O5 1.915632 1_555
Co0 O11 2.008229 1_555
Co0 O0 2.097457 1_555
Co0 O11 2.228842 1_655
Co1 O2 1.730331 1_445
Co1 O8 1.893703 1_455
Co1 O10 1.915632 1_555
Co1 O4 2.008229 1_555
Co1 O8 2.097457 1_555
Co1 O4 2.228842 1_455
Co2 O6 1.922371 1_555
Co2 O7 1.938492 1_556
Co2 O12 2.071518 1_455
Co2 O1 2.081467 1_555
Co2 O1 2.105117 1_455
Co2 O12 2.111571 1_555
Co3 O9 1.922371 1_555
Co3 O1 1.938492 1_554
Co3 O3 2.071518 1_655
Co3 O7 2.081467 1_555
Co3 O7 2.105117 1_655
Co3 O3 2.111571 1_555
Co4 O11 1.880082 1_555
Co4 O3 1.928578 1_555
Co4 O5 2.064295 1_555
Co4 O9 2.072507 1_455
Co4 O5 2.092027 1_455
Co4 O9 2.112992 1_555
Co5 O4 1.880082 1_555
Co5 O12 1.928578 1_555
Co5 O10 2.064295 1_555
Co5 O6 2.072507 1_655
Co5 O10 2.092027 1_655
Co5 O6 2.112992 1_555
