# generated using pymatgen
data_Ba10P6SO24
_symmetry_space_group_name_H-M   'P 1'
_cell_length_a   10.39360305
_cell_length_b   10.39360305
_cell_length_c   7.75835500
_cell_angle_alpha   90.00000000
_cell_angle_beta   90.00000000
_cell_angle_gamma   119.99999393
_symmetry_Int_Tables_number   1
_chemical_formula_structural   Ba10P6SO24
_chemical_formula_sum   'Ba10 P6 S1 O24'
_cell_volume   725.82606234
_cell_formula_units_Z   1
loop_
 _symmetry_equiv_pos_site_id
 _symmetry_equiv_pos_as_xyz
  1  'x, y, z'
loop_
 _atom_site_type_symbol
 _atom_site_label
 _atom_site_symmetry_multiplicity
 _atom_site_fract_x
 _atom_site_fract_y
 _atom_site_fract_z
 _atom_site_occupancy
  Ba  Ba0  1  0.98579800  0.74137500  0.73889600  1
  Ba  Ba1  1  0.25862500  0.24442300  0.73889600  1
  Ba  Ba2  1  0.75557700  0.01420200  0.73889600  1
  Ba  Ba3  1  0.74137500  0.75557700  0.26110400  1
  Ba  Ba4  1  0.01420200  0.25862500  0.26110400  1
  Ba  Ba5  1  0.24442300  0.98579800  0.26110400  1
  Ba  Ba6  1  0.66666700  0.33333300  0.48018900  1
  Ba  Ba7  1  0.33333300  0.66666700  0.51981100  1
  Ba  Ba8  1  0.66666700  0.33333300  0.98091200  1
  Ba  Ba9  1  0.33333300  0.66666700  0.01908800  1
  P  P0  1  0.36889900  0.97020100  0.75188600  1
  P  P1  1  0.60130200  0.63110100  0.75188600  1
  P  P2  1  0.97020100  0.60130200  0.24811400  1
  P  P3  1  0.02979900  0.39869800  0.75188600  1
  P  P4  1  0.39869800  0.36889900  0.24811400  1
  P  P5  1  0.63110100  0.02979900  0.24811400  1
  S  S0  1  0.00000000  0.00000000  0.50000000  1
  O  O0  1  0.47703700  0.14118100  0.73734400  1
  O  O1  1  0.09480400  0.37621400  0.58057500  1
  O  O2  1  0.28141000  0.90519600  0.58057500  1
  O  O3  1  0.62378600  0.71859000  0.58057500  1
  O  O4  1  0.90519600  0.62378600  0.41942500  1
  O  O5  1  0.71859000  0.09480400  0.41942500  1
  O  O6  1  0.37621400  0.28141000  0.41942500  1
  O  O7  1  0.06246000  0.31664100  0.89911400  1
  O  O8  1  0.25418100  0.93754000  0.89911400  1
  O  O9  1  0.68335900  0.74581900  0.89911400  1
  O  O10  1  0.31664100  0.25418100  0.10088600  1
  O  O11  1  0.11122400  0.56988000  0.78693700  1
  O  O12  1  0.45865600  0.88877600  0.78693700  1
  O  O13  1  0.43012000  0.54134400  0.78693700  1
  O  O14  1  0.88877600  0.43012000  0.21306300  1
  O  O15  1  0.54134400  0.11122400  0.21306300  1
  O  O16  1  0.33585600  0.47703700  0.26265600  1
  O  O17  1  0.52296300  0.85881900  0.26265600  1
  O  O18  1  0.14118100  0.66414400  0.26265600  1
  O  O19  1  0.66414400  0.52296300  0.73734400  1
  O  O20  1  0.74581900  0.06246000  0.10088600  1
  O  O21  1  0.85881900  0.33585600  0.73734400  1
  O  O22  1  0.56988000  0.45865600  0.21306300  1
  O  O23  1  0.93754000  0.68335900  0.10088600  1
loop_
_geom_bond_atom_site_label_1
_geom_bond_atom_site_label_2
_geom_bond_distance
_geom_bond_site_symmetry_2
Ba0 O4 2.704619 1_555
Ba0 O11 2.709087 1_655
Ba0 O8 2.792107 1_655
Ba0 O23 2.863583 1_556
Ba0 O2 2.935392 1_655
Ba0 O19 2.956489 1_555
Ba0 S0 3.207154 1_665
Ba0 O9 3.402000 1_555
Ba1 O6 2.704619 1_555
Ba1 O13 2.709087 1_555
Ba1 O7 2.792107 1_555
Ba1 O10 2.863583 1_556
Ba1 O1 2.935392 1_555
Ba1 O0 2.956489 1_555
Ba1 S0 3.207154 1_555
Ba1 O8 3.402000 1_545
Ba2 O5 2.704619 1_555
Ba2 O12 2.709087 1_545
Ba2 O9 2.792107 1_545
Ba2 O20 2.863583 1_556
Ba2 O3 2.935392 1_545
Ba2 O21 2.956489 1_555
Ba2 S0 3.207154 1_655
Ba2 O7 3.402000 1_655
Ba3 O3 2.704619 1_555
Ba3 O22 2.709087 1_555
Ba3 O23 2.792107 1_555
Ba3 O9 2.863583 1_554
Ba3 O4 2.935392 1_555
Ba3 O17 2.956489 1_555
Ba3 S0 3.207154 1_665
Ba3 O20 3.402000 1_565
Ba4 O1 2.704619 1_555
Ba4 O14 2.709087 1_455
Ba4 O20 2.792107 1_455
Ba4 O7 2.863583 1_554
Ba4 O5 2.935392 1_455
Ba4 O16 2.956489 1_555
Ba4 S0 3.207154 1_555
Ba4 O10 3.402000 1_555
Ba5 O2 2.704619 1_555
Ba5 O15 2.709087 1_565
Ba5 O10 2.792107 1_565
Ba5 O8 2.863583 1_554
Ba5 O6 2.935392 1_565
Ba5 O18 2.956489 1_555
Ba5 S0 3.207154 1_565
Ba5 O23 3.402000 1_455
Ba6 O21 2.813779 1_555
Ba6 O0 2.813783 1_555
Ba6 O19 2.813787 1_555
Ba6 O5 2.828025 1_555
Ba6 O4 2.828032 1_555
Ba6 O6 2.828035 1_555
Ba6 O14 2.883400 1_555
Ba6 O15 2.883401 1_555
Ba6 O22 2.883407 1_555
Ba7 O18 2.813779 1_555
Ba7 O17 2.813783 1_555
Ba7 O16 2.813787 1_555
Ba7 O2 2.828025 1_555
Ba7 O1 2.828032 1_555
Ba7 O3 2.828035 1_555
Ba7 O11 2.883400 1_555
Ba7 O12 2.883401 1_555
Ba7 O13 2.883407 1_555
Ba8 O14 2.694979 1_556
Ba8 O15 2.694979 1_556
Ba8 O22 2.694986 1_556
Ba8 O21 2.740045 1_555
Ba8 O0 2.740049 1_555
Ba8 O19 2.740053 1_555
Ba9 O11 2.694979 1_554
Ba9 O12 2.694979 1_554
Ba9 O13 2.694986 1_554
Ba9 O18 2.740045 1_555
Ba9 O17 2.740049 1_555
Ba9 O16 2.740053 1_555
O0 P0 1.560993 1_545
O1 P3 1.560599 1_555
O2 P0 1.560599 1_555
O3 P1 1.560599 1_555
O4 P2 1.560599 1_555
O5 P5 1.560599 1_555
O6 P4 1.560599 1_555
O7 P3 1.561047 1_555
O8 P0 1.561047 1_555
O9 P1 1.561047 1_555
O10 P4 1.561047 1_555
O11 P3 1.565242 1_555
O12 P0 1.565242 1_555
O13 P1 1.565242 1_555
O14 P2 1.565242 1_555
O15 P5 1.565242 1_555
O16 P4 1.560993 1_555
O17 P5 1.560993 1_565
O18 P2 1.560993 1_455
O19 P1 1.560993 1_555
O20 P5 1.561047 1_555
O21 P3 1.560993 1_655
O22 P4 1.565242 1_555
O23 P2 1.561047 1_555
