# generated using pymatgen
data_MgSn3P3O13
_symmetry_space_group_name_H-M   'P 1'
_cell_length_a   6.82133800
_cell_length_b   7.86694300
_cell_length_c   10.48996759
_cell_angle_alpha   82.41761764
_cell_angle_beta   90.00000000
_cell_angle_gamma   90.00000000
_symmetry_Int_Tables_number   1
_chemical_formula_structural   MgSn3P3O13
_chemical_formula_sum   'Mg2 Sn6 P6 O26'
_cell_volume   558.00182449
_cell_formula_units_Z   2
loop_
 _symmetry_equiv_pos_site_id
 _symmetry_equiv_pos_as_xyz
  1  'x, y, z'
loop_
 _atom_site_type_symbol
 _atom_site_label
 _atom_site_symmetry_multiplicity
 _atom_site_fract_x
 _atom_site_fract_y
 _atom_site_fract_z
 _atom_site_occupancy
  Mg  Mg0  1  0.75000000  0.43553900  0.22526400  1
  Mg  Mg1  1  0.25000000  0.56446100  0.77473600  1
  Sn  Sn0  1  0.25000000  0.68394800  0.25665700  1
  Sn  Sn1  1  0.75000000  0.31605200  0.74334300  1
  Sn  Sn2  1  0.25000000  0.19699900  0.39263400  1
  Sn  Sn3  1  0.50000000  0.00000000  0.00000000  1
  Sn  Sn4  1  0.75000000  0.80300100  0.60736600  1
  Sn  Sn5  1  0.00000000  0.00000000  0.00000000  1
  P  P0  1  0.25000000  0.69546500  0.52301300  1
  P  P1  1  0.75000000  0.30453500  0.47698700  1
  P  P2  1  0.25000000  0.21018500  0.73042800  1
  P  P3  1  0.75000000  0.78981500  0.26957200  1
  P  P4  1  0.75000000  0.64899100  0.92734000  1
  P  P5  1  0.25000000  0.35100900  0.07266000  1
  O  O0  1  0.75000000  0.55377500  0.80223200  1
  O  O1  1  0.57473200  0.31064800  0.38267100  1
  O  O2  1  0.25000000  0.12667600  0.60784200  1
  O  O3  1  0.56261400  0.76372700  0.91257700  1
  O  O4  1  0.75000000  0.46045200  0.55799100  1
  O  O5  1  0.75000000  0.12442400  0.89362600  1
  O  O6  1  0.25000000  0.53954800  0.44200900  1
  O  O7  1  0.06261400  0.23627300  0.08742300  1
  O  O8  1  0.25000000  0.84870300  0.41057900  1
  O  O9  1  0.75000000  0.15129700  0.58942100  1
  O  O10  1  0.07135600  0.33340200  0.74105200  1
  O  O11  1  0.25000000  0.87557600  0.10637400  1
  O  O12  1  0.57135600  0.66659800  0.25894800  1
  O  O13  1  0.75000000  0.51644000  0.04502900  1
  O  O14  1  0.75000000  0.87332400  0.39215800  1
  O  O15  1  0.43738600  0.23627300  0.08742300  1
  O  O16  1  0.92526800  0.31064800  0.38267100  1
  O  O17  1  0.42526800  0.68935200  0.61732900  1
  O  O18  1  0.42864400  0.33340200  0.74105200  1
  O  O19  1  0.25000000  0.44622500  0.19776800  1
  O  O20  1  0.75000000  0.93182400  0.14730900  1
  O  O21  1  0.25000000  0.06817600  0.85269100  1
  O  O22  1  0.92864400  0.66659800  0.25894800  1
  O  O23  1  0.93738600  0.76372700  0.91257700  1
  O  O24  1  0.07473200  0.68935200  0.61732900  1
  O  O25  1  0.25000000  0.48356000  0.95497100  1
loop_
_geom_bond_atom_site_label_1
_geom_bond_atom_site_label_2
_geom_bond_distance
_geom_bond_site_symmetry_2
Mg0 O13 1.913661 1_555
Mg0 O16 2.166334 1_555
Mg0 O1 2.166334 1_555
Mg0 O12 2.254651 1_555
Mg0 O22 2.254651 1_555
Mg1 O25 1.913661 1_555
Mg1 O17 2.166334 1_555
Mg1 O24 2.166334 1_555
Mg1 O18 2.254651 1_555
Mg1 O10 2.254651 1_555
O0 P4 1.594634 1_555
O0 Sn1 2.045473 1_555
O0 Sn4 2.639120 1_555
O1 P1 1.548542 1_555
O1 Sn2 2.385859 1_555
O2 P2 1.519257 1_555
O2 Sn2 2.252306 1_555
O3 P4 1.560665 1_555
O3 Sn3 2.219958 1_566
O4 P1 1.581652 1_555
O4 Sn1 2.118494 1_555
O5 Sn1 2.032410 1_555
O5 Sn3 2.196175 1_556
O5 Sn5 2.196175 1_656
O6 P0 1.581652 1_555
O6 Sn0 2.118494 1_555
O7 P5 1.560665 1_555
O7 Sn5 2.219958 1_555
O8 P0 1.571336 1_555
O8 Sn0 2.199832 1_555
O8 Sn2 2.721590 1_565
O9 P1 1.571336 1_555
O9 Sn1 2.199832 1_555
O9 Sn4 2.721590 1_545
O10 P2 1.570196 1_555
O10 Sn1 2.196258 1_455
O11 Sn0 2.032410 1_555
O11 Sn5 2.196175 1_565
O11 Sn3 2.196175 1_565
O12 P3 1.570196 1_555
O12 Sn0 2.196258 1_555
O13 P4 1.507235 1_554
O14 P3 1.519257 1_555
O14 Sn4 2.252306 1_555
O15 P5 1.560665 1_555
O15 Sn3 2.219958 1_555
O16 P1 1.548542 1_555
O16 Sn2 2.385859 1_655
O17 P0 1.548542 1_555
O17 Sn4 2.385859 1_555
O18 P2 1.570196 1_555
O18 Sn1 2.196258 1_555
O19 P5 1.594634 1_555
O19 Sn0 2.045473 1_555
O19 Sn2 2.639120 1_555
O20 P3 1.585829 1_555
O20 Sn3 2.316237 1_565
O20 Sn5 2.316237 1_665
O21 P2 1.585829 1_555
O21 Sn3 2.316237 1_556
O21 Sn5 2.316237 1_556
O22 P3 1.570196 1_555
O22 Sn0 2.196258 1_655
O23 P4 1.560665 1_555
O23 Sn5 2.219958 1_666
O24 P0 1.548542 1_555
O24 Sn4 2.385859 1_455
O25 P5 1.507235 1_556
