# generated using pymatgen
data_LiMg14Sn
_symmetry_space_group_name_H-M   'P 1'
_cell_length_a   6.31698160
_cell_length_b   6.31698110
_cell_length_c   10.49881925
_cell_angle_alpha   90.00000000
_cell_angle_beta   90.00000000
_cell_angle_gamma   120.00000263
_symmetry_Int_Tables_number   1
_chemical_formula_structural   LiMg14Sn
_chemical_formula_sum   'Li1 Mg14 Sn1'
_cell_volume   362.81920572
_cell_formula_units_Z   1
loop_
 _symmetry_equiv_pos_site_id
 _symmetry_equiv_pos_as_xyz
  1  'x, y, z'
loop_
 _atom_site_type_symbol
 _atom_site_label
 _atom_site_symmetry_multiplicity
 _atom_site_fract_x
 _atom_site_fract_y
 _atom_site_fract_z
 _atom_site_occupancy
  Li  Li0  1  0.16666700  0.33333300  0.62500000  1
  Mg  Mg0  1  0.16585978  0.83292939  0.12500000  1
  Mg  Mg1  1  0.16754562  0.83377231  0.62500000  1
  Mg  Mg2  1  0.66707061  0.33414022  0.12500000  1
  Mg  Mg3  1  0.66622769  0.33245438  0.62500000  1
  Mg  Mg4  1  0.66707061  0.83292939  0.12500000  1
  Mg  Mg5  1  0.66622769  0.83377231  0.62500000  1
  Mg  Mg6  1  0.33321659  0.16678341  0.37656074  1
  Mg  Mg7  1  0.33321659  0.16678341  0.87343926  1
  Mg  Mg8  1  0.33321659  0.66643417  0.37656074  1
  Mg  Mg9  1  0.33321659  0.66643417  0.87343926  1
  Mg  Mg10  1  0.83356583  0.16678341  0.37656074  1
  Mg  Mg11  1  0.83356583  0.16678341  0.87343926  1
  Mg  Mg12  1  0.83333300  0.66666700  0.37586866  1
  Mg  Mg13  1  0.83333300  0.66666700  0.87413134  1
  Sn  Sn0  1  0.16666700  0.33333300  0.12500000  1
loop_
_geom_bond_atom_site_label_1
_geom_bond_atom_site_label_2
_geom_bond_distance
_geom_bond_site_symmetry_2
Li0 Mg1 3.158494 1_555
Li0 Mg5 3.158494 1_555
Li0 Mg5 3.158494 1_445
Li0 Mg1 3.158494 1_545
Li0 Mg3 3.158494 1_455
Li0 Mg3 3.158494 1_555
Li0 Mg6 3.181825 1_555
Li0 Mg7 3.181825 1_555
Li0 Mg8 3.181831 1_555
Li0 Mg9 3.181831 1_555
Li0 Mg10 3.181831 1_455
Li0 Mg11 3.181831 1_455
Mg0 Mg2 3.150842 1_455
Mg0 Mg4 3.150842 1_455
Mg0 Sn0 3.158494 1_565
Mg0 Sn0 3.158494 1_555
Mg0 Mg2 3.166139 1_565
Mg0 Mg4 3.166140 1_555
Mg0 Mg13 3.200986 1_454
Mg0 Mg12 3.200986 1_455
Mg0 Mg9 3.211087 1_554
Mg0 Mg8 3.211087 1_555
Mg0 Mg7 3.211093 1_564
Mg0 Mg6 3.211093 1_565
Mg1 Mg3 3.150165 1_565
Mg1 Mg5 3.150165 1_555
Mg1 Mg3 3.166816 1_455
Mg1 Mg5 3.166816 1_455
Mg1 Mg8 3.181547 1_555
Mg1 Mg9 3.181547 1_555
Mg1 Mg6 3.181554 1_565
Mg1 Mg7 3.181554 1_565
Mg1 Mg12 3.191270 1_455
Mg1 Mg13 3.191270 1_455
Mg2 Mg4 3.150842 1_555
Mg2 Sn0 3.158494 1_555
Mg2 Sn0 3.158494 1_655
Mg2 Mg4 3.166139 1_545
Mg2 Mg7 3.211093 1_554
Mg2 Mg6 3.211093 1_555
Mg3 Mg5 3.150165 1_545
Mg3 Mg5 3.166816 1_555
Mg3 Mg6 3.181554 1_555
Mg3 Mg7 3.181554 1_555
Mg4 Sn0 3.158494 1_665
Mg4 Sn0 3.158494 1_555
Mg4 Mg9 3.211093 1_554
Mg4 Mg8 3.211093 1_555
Mg5 Mg8 3.181554 1_555
Mg5 Mg9 3.181554 1_555
Mg6 Mg8 3.156284 1_555
Mg6 Mg8 3.160697 1_545
Mg6 Sn0 3.208745 1_555
Mg7 Mg9 3.156284 1_555
Mg7 Mg9 3.160697 1_545
Mg7 Sn0 3.208745 1_556
Mg8 Sn0 3.208751 1_555
Mg9 Sn0 3.208751 1_556
Mg10 Mg8 3.156284 1_655
Mg10 Mg6 3.156285 1_655
Mg10 Mg12 3.158499 1_545
Mg10 Mg12 3.158499 1_555
Mg10 Mg8 3.160697 1_545
Mg10 Mg6 3.160697 1_555
Mg10 Mg3 3.181547 1_555
Mg10 Mg5 3.181554 1_545
Mg10 Sn0 3.208751 1_655
Mg10 Mg2 3.211087 1_555
Mg10 Mg4 3.211093 1_545
Mg11 Mg9 3.156284 1_655
Mg11 Mg7 3.156285 1_655
Mg11 Mg13 3.158499 1_545
Mg11 Mg13 3.158499 1_555
Mg11 Mg9 3.160697 1_545
Mg11 Mg7 3.160697 1_555
Mg11 Mg3 3.181547 1_555
Mg11 Mg5 3.181554 1_545
Mg11 Sn0 3.208751 1_656
Mg11 Mg2 3.211087 1_556
Mg11 Mg4 3.211093 1_546
Mg12 Mg6 3.158499 1_665
Mg12 Mg6 3.158499 1_555
Mg12 Mg8 3.158499 1_555
Mg12 Mg8 3.158499 1_655
Mg12 Mg5 3.191264 1_555
Mg12 Mg3 3.191270 1_555
Mg12 Mg4 3.200980 1_555
Mg12 Mg2 3.200986 1_555
Mg13 Mg7 3.158499 1_665
Mg13 Mg7 3.158499 1_555
Mg13 Mg9 3.158499 1_555
Mg13 Mg9 3.158499 1_655
Mg13 Mg5 3.191264 1_555
Mg13 Mg3 3.191270 1_555
Mg13 Mg4 3.200980 1_556
Mg13 Mg2 3.200986 1_556
