# generated using pymatgen
data_Y(CuO2)3
_symmetry_space_group_name_H-M   'P 1'
_cell_length_a   8.91836835
_cell_length_b   8.91836835
_cell_length_c   11.73784743
_cell_angle_alpha   89.30289135
_cell_angle_beta   89.30289135
_cell_angle_gamma   22.90445086
_symmetry_Int_Tables_number   1
_chemical_formula_structural   Y(CuO2)3
_chemical_formula_sum   'Y2 Cu6 O12'
_cell_volume   363.32361499
_cell_formula_units_Z   2
loop_
 _symmetry_equiv_pos_site_id
 _symmetry_equiv_pos_as_xyz
  1  'x, y, z'
loop_
 _atom_site_type_symbol
 _atom_site_label
 _atom_site_symmetry_multiplicity
 _atom_site_fract_x
 _atom_site_fract_y
 _atom_site_fract_z
 _atom_site_occupancy
  Y  Y0  1  0.99362900  0.99362900  0.00301500  1
  Y  Y1  1  0.67697900  0.67697900  0.50054200  1
  Cu  Cu0  1  0.88809500  0.88809500  0.74161200  1
  Cu  Cu1  1  0.22517600  0.22517600  0.75830700  1
  Cu  Cu2  1  0.55572300  0.55572300  0.75237100  1
  Cu  Cu3  1  0.44333900  0.44333900  0.25883600  1
  Cu  Cu4  1  0.78510200  0.78510200  0.24359000  1
  Cu  Cu5  1  0.11716900  0.11716900  0.25059400  1
  O  O0  1  0.44230800  0.44230800  0.40277700  1
  O  O1  1  0.77523200  0.77523200  0.38831400  1
  O  O2  1  0.12937700  0.12937700  0.39615100  1
  O  O3  1  0.90040900  0.90040900  0.88450600  1
  O  O4  1  0.22561200  0.22561200  0.90236400  1
  O  O5  1  0.54374300  0.54374300  0.89780600  1
  O  O6  1  0.45973700  0.45973700  0.11136000  1
  O  O7  1  0.78406900  0.78406900  0.10049500  1
  O  O8  1  0.10362600  0.10362600  0.10806400  1
  O  O9  1  0.89134400  0.89134400  0.59843400  1
  O  O10  1  0.20861000  0.20861000  0.61189400  1
  O  O11  1  0.56647500  0.56647500  0.60883100  1
loop_
_geom_bond_atom_site_label_1
_geom_bond_atom_site_label_2
_geom_bond_distance
_geom_bond_site_symmetry_2
Cu0 O9 1.680856 1_555
Cu0 O3 1.693674 1_555
Cu1 O4 1.691031 1_555
Cu1 O10 1.746345 1_555
Cu2 O11 1.692982 1_555
Cu2 O5 1.717310 1_555
Cu3 O0 1.689430 1_555
Cu3 O6 1.751112 1_555
Cu4 O7 1.679948 1_555
Cu4 O1 1.705356 1_555
Cu5 O8 1.692572 1_555
Cu5 O2 1.724430 1_555
O1 Y1 2.151596 1_555
O2 Y1 2.314040 1_455
O2 Y1 2.314040 1_545
O3 Y0 2.155688 1_556
O5 Y0 2.324057 1_456
O5 Y0 2.324057 1_546
O6 Y0 2.255039 1_545
O6 Y0 2.255039 1_455
O8 Y0 2.297155 1_445
O10 Y1 2.273235 1_545
O10 Y1 2.273235 1_455
O11 Y1 2.299237 1_555
