# generated using pymatgen
data_EuZnGe
_symmetry_space_group_name_H-M   'P 1'
_cell_length_a   6.14875243
_cell_length_b   6.14875243
_cell_length_c   6.14875243
_cell_angle_alpha   138.48365520
_cell_angle_beta   104.12092042
_cell_angle_gamma   90.41621227
_symmetry_Int_Tables_number   1
_chemical_formula_structural   EuZnGe
_chemical_formula_sum   'Eu2 Zn2 Ge2'
_cell_volume   142.75826376
_cell_formula_units_Z   2
loop_
 _symmetry_equiv_pos_site_id
 _symmetry_equiv_pos_as_xyz
  1  'x, y, z'
loop_
 _atom_site_type_symbol
 _atom_site_label
 _atom_site_symmetry_multiplicity
 _atom_site_fract_x
 _atom_site_fract_y
 _atom_site_fract_z
 _atom_site_occupancy
  Eu  Eu0  1  0.75041900  0.75041900  0.00000000  1
  Eu  Eu1  1  0.24958100  0.24958100  0.00000000  1
  Zn  Zn0  1  0.33257800  0.00000000  0.33257800  1
  Zn  Zn1  1  0.66742200  0.00000000  0.66742200  1
  Ge  Ge0  1  0.83209500  0.50000000  0.33209500  1
  Ge  Ge1  1  0.16790500  0.50000000  0.66790500  1
loop_
_geom_bond_atom_site_label_1
_geom_bond_atom_site_label_2
_geom_bond_distance
_geom_bond_site_symmetry_2
Eu0 Zn1 3.316468 1_564
Eu0 Zn0 3.316468 1_665
Eu0 Ge0 3.318442 1_555
Eu0 Ge1 3.318442 1_554
Eu0 Ge0 3.322155 1_554
Eu0 Ge1 3.322155 1_665
Eu0 Ge1 3.322155 1_654
Eu0 Ge0 3.322155 1_565
Eu0 Zn1 3.325493 1_565
Eu0 Zn1 3.325493 1_554
Eu0 Zn0 3.325493 1_554
Eu0 Zn0 3.325493 1_565
Eu1 Zn0 3.316468 1_555
Eu1 Zn1 3.316468 1_454
Eu1 Ge0 3.318442 1_555
Eu1 Ge1 3.318442 1_554
Eu1 Ge1 3.322155 1_544
Eu1 Ge1 3.322155 1_555
Eu1 Ge0 3.322155 1_444
Eu1 Ge0 3.322155 1_455
Eu1 Zn1 3.325493 1_554
Eu1 Zn1 3.325493 1_565
Eu1 Zn0 3.325493 1_554
Eu1 Zn0 3.325493 1_565
Zn0 Zn1 2.531712 1_555
Ge0 Zn1 2.509863 1_565
Ge0 Zn1 2.509863 1_554
Ge0 Ge1 2.539016 1_655
Ge1 Zn0 2.509863 1_555
Ge1 Zn0 2.509863 1_566
