# generated using pymatgen
data_Cs3EuF6
_symmetry_space_group_name_H-M   'P 1'
_cell_length_a   7.17662293
_cell_length_b   7.17662293
_cell_length_c   7.17662293
_cell_angle_alpha   121.01543722
_cell_angle_beta   121.01543722
_cell_angle_gamma   88.25002907
_symmetry_Int_Tables_number   1
_chemical_formula_structural   Cs3EuF6
_chemical_formula_sum   'Cs3 Eu1 F6'
_cell_volume   257.22204195
_cell_formula_units_Z   1
loop_
 _symmetry_equiv_pos_site_id
 _symmetry_equiv_pos_as_xyz
  1  'x, y, z'
loop_
 _atom_site_type_symbol
 _atom_site_label
 _atom_site_symmetry_multiplicity
 _atom_site_fract_x
 _atom_site_fract_y
 _atom_site_fract_z
 _atom_site_occupancy
  Cs  Cs0  1  0.75000000  0.25000000  0.50000000  1
  Cs  Cs1  1  0.25000000  0.75000000  0.50000000  1
  Cs  Cs2  1  0.50000000  0.50000000  0.00000000  1
  Eu  Eu0  1  0.00000000  -0.00000000  0.00000000  1
  F  F0  1  0.00000000  0.31125755  0.31125755  1
  F  F1  1  -0.00000000  0.68874245  0.68874245  1
  F  F2  1  0.31125755  0.00000000  0.31125755  1
  F  F3  1  0.68874245  -0.00000000  0.68874245  1
  F  F4  1  0.22349714  0.22349714  0.00000000  1
  F  F5  1  0.77650286  0.77650286  -0.00000000  1
loop_
_geom_bond_atom_site_label_1
_geom_bond_atom_site_label_2
_geom_bond_distance
_geom_bond_site_symmetry_2
Cs0 F1 2.900573 1_655
Cs0 F0 2.900573 1_655
Cs0 F2 2.900573 1_555
Cs0 F3 2.900573 1_555
Cs0 F4 3.543633 1_555
Cs0 F5 3.543633 1_545
Cs0 F5 3.543633 1_556
Cs0 F4 3.543633 1_656
Cs1 F3 2.900573 1_565
Cs1 F0 2.900573 1_555
Cs1 F2 2.900573 1_565
Cs1 F1 2.900573 1_555
Cs1 F4 3.543633 1_555
Cs1 F5 3.543633 1_455
Cs1 F5 3.543633 1_556
Cs1 F4 3.543633 1_566
Cs2 F4 2.848831 1_555
Cs2 F5 2.848831 1_555
Eu0 F3 2.199406 1_454
Eu0 F0 2.199406 1_555
Eu0 F2 2.199406 1_555
Eu0 F1 2.199406 1_544
Eu0 F4 2.302709 1_555
Eu0 F5 2.302709 1_445
