# generated using pymatgen
data_U2NiC3
_symmetry_space_group_name_H-M   'P 1'
_cell_length_a   3.57211056
_cell_length_b   6.37778575
_cell_length_c   13.16896301
_cell_angle_alpha   90.00000000
_cell_angle_beta   90.00000000
_cell_angle_gamma   90.00000000
_symmetry_Int_Tables_number   1
_chemical_formula_structural   U2NiC3
_chemical_formula_sum   'U8 Ni4 C12'
_cell_volume   300.01736737
_cell_formula_units_Z   4
loop_
 _symmetry_equiv_pos_site_id
 _symmetry_equiv_pos_as_xyz
  1  'x, y, z'
loop_
 _atom_site_type_symbol
 _atom_site_label
 _atom_site_symmetry_multiplicity
 _atom_site_fract_x
 _atom_site_fract_y
 _atom_site_fract_z
 _atom_site_occupancy
  U  U0  1  0.25000000  0.75081603  0.02190293  1
  U  U1  1  0.75000000  0.24918397  0.97809707  1
  U  U2  1  0.75000000  0.74918397  0.52190293  1
  U  U3  1  0.25000000  0.25081603  0.47809707  1
  U  U4  1  0.25000000  0.62280505  0.29244465  1
  U  U5  1  0.75000000  0.37719495  0.70755535  1
  U  U6  1  0.75000000  0.87719495  0.79244465  1
  U  U7  1  0.25000000  0.12280505  0.20755535  1
  Ni  Ni0  1  0.25000000  0.50921010  0.84957542  1
  Ni  Ni1  1  0.75000000  0.49078990  0.15042458  1
  Ni  Ni2  1  0.75000000  0.99078990  0.34957542  1
  Ni  Ni3  1  0.25000000  0.00921010  0.65042458  1
  C  C0  1  0.25000000  0.68234274  0.67874800  1
  C  C1  1  0.75000000  0.31765726  0.32125200  1
  C  C2  1  0.75000000  0.81765726  0.17874800  1
  C  C3  1  0.25000000  0.18234274  0.82125200  1
  C  C4  1  0.25000000  0.52508453  0.59843870  1
  C  C5  1  0.75000000  0.47491547  0.40156130  1
  C  C6  1  0.75000000  0.97491547  0.09843870  1
  C  C7  1  0.25000000  0.02508453  0.90156130  1
  C  C8  1  0.25000000  0.89666329  0.40903423  1
  C  C9  1  0.75000000  0.10333671  0.59096577  1
  C  C10  1  0.75000000  0.60333671  0.90903423  1
  C  C11  1  0.25000000  0.39666329  0.09096577  1
loop_
_geom_bond_atom_site_label_1
_geom_bond_atom_site_label_2
_geom_bond_distance
_geom_bond_site_symmetry_2
C0 C4 1.457540 1_555
C0 Ni3 2.117795 1_565
C0 Ni0 2.506004 1_555
C0 U6 2.641244 1_555
C0 U6 2.641244 1_455
C0 U5 2.668609 1_555
C0 U5 2.668609 1_455
C0 U2 2.763686 1_555
C0 U2 2.763686 1_455
C1 C5 1.457540 1_555
C1 Ni2 2.117795 1_545
C1 Ni1 2.506004 1_555
C1 U7 2.641244 1_655
C1 U7 2.641244 1_555
C1 U4 2.668609 1_555
C1 U4 2.668609 1_655
C1 U3 2.763686 1_655
C1 U3 2.763686 1_555
C2 C6 1.457540 1_555
C2 Ni1 2.117795 1_555
C2 Ni2 2.506004 1_555
C2 U4 2.641244 1_555
C2 U4 2.641244 1_655
C2 U7 2.668609 1_665
C2 U7 2.668609 1_565
C2 U0 2.763686 1_655
C2 U0 2.763686 1_555
C3 C7 1.457540 1_555
C3 Ni0 2.117795 1_555
C3 Ni3 2.506004 1_555
C3 U5 2.641244 1_555
C3 U5 2.641244 1_455
C3 U6 2.668609 1_445
C3 U6 2.668609 1_545
C3 U1 2.763686 1_455
C3 U1 2.763686 1_555
C4 U3 2.360360 1_555
C4 U5 2.478804 1_455
C4 U5 2.478804 1_555
C4 U2 2.499726 1_555
C4 U2 2.499726 1_455
C5 U2 2.360360 1_555
C5 U4 2.478804 1_555
C5 U4 2.478804 1_655
C5 U3 2.499726 1_655
C5 U3 2.499726 1_555
C6 U1 2.360360 1_564
C6 U7 2.478804 1_565
C6 U7 2.478804 1_665
C6 U0 2.499726 1_655
C6 U0 2.499726 1_555
C7 U0 2.360360 1_546
C7 U6 2.478804 1_545
C7 U6 2.478804 1_445
C7 U1 2.499726 1_455
C7 U1 2.499726 1_555
C8 Ni2 2.040461 1_455
C8 Ni2 2.040461 1_555
C8 U4 2.325508 1_555
C8 U3 2.434941 1_565
C8 U2 2.506787 1_555
C8 U2 2.506787 1_455
C9 Ni3 2.040461 1_555
C9 Ni3 2.040461 1_655
C9 U5 2.325508 1_555
C9 U2 2.434941 1_545
C9 U3 2.506787 1_555
C9 U3 2.506787 1_655
C10 Ni0 2.040461 1_655
C10 Ni0 2.040461 1_555
C10 U6 2.325508 1_555
C10 U1 2.434941 1_555
C10 U0 2.506787 1_556
C10 U0 2.506787 1_656
C11 Ni1 2.040461 1_555
C11 Ni1 2.040461 1_455
C11 U7 2.325508 1_555
C11 U0 2.434941 1_555
C11 U1 2.506787 1_454
C11 U1 2.506787 1_554
