# generated using pymatgen
data_BaAl2(SiO4)2
_symmetry_space_group_name_H-M   'P 1'
_cell_length_a   5.41872431
_cell_length_b   5.41872431
_cell_length_c   7.91866000
_cell_angle_alpha   90.00000000
_cell_angle_beta   90.00000000
_cell_angle_gamma   120.00000381
_symmetry_Int_Tables_number   1
_chemical_formula_structural   BaAl2(SiO4)2
_chemical_formula_sum   'Ba1 Al2 Si2 O8'
_cell_volume   201.36149329
_cell_formula_units_Z   1
loop_
 _symmetry_equiv_pos_site_id
 _symmetry_equiv_pos_as_xyz
  1  'x, y, z'
loop_
 _atom_site_type_symbol
 _atom_site_label
 _atom_site_symmetry_multiplicity
 _atom_site_fract_x
 _atom_site_fract_y
 _atom_site_fract_z
 _atom_site_occupancy
  Ba  Ba0  1  0.00000000  0.00000000  0.00000000  1
  Al  Al0  1  0.33333300  0.66666700  0.70298900  1
  Al  Al1  1  0.66666700  0.33333300  0.29701100  1
  Si  Si0  1  0.66666700  0.33333300  0.71660900  1
  Si  Si1  1  0.33333300  0.66666700  0.28339100  1
  O  O0  1  0.99068500  0.49534300  0.79515100  1
  O  O1  1  0.50465700  0.49534300  0.79515100  1
  O  O2  1  0.50465700  0.00931500  0.79515100  1
  O  O3  1  0.00931500  0.50465700  0.20484900  1
  O  O4  1  0.49534300  0.50465700  0.20484900  1
  O  O5  1  0.49534300  0.99068500  0.20484900  1
  O  O6  1  0.33333300  0.66666700  0.48607500  1
  O  O7  1  0.66666700  0.33333300  0.51392500  1
loop_
_geom_bond_atom_site_label_1
_geom_bond_atom_site_label_2
_geom_bond_distance
_geom_bond_site_symmetry_2
Ba0 O5 3.158139 1_445
Ba0 O3 3.158139 1_555
Ba0 O0 3.158139 1_444
Ba0 O2 3.158139 1_554
Ba0 O4 3.158141 1_555
Ba0 O4 3.158141 1_445
Ba0 O1 3.158141 1_444
Ba0 O1 3.158141 1_554
Ba0 O3 3.158144 1_545
Ba0 O5 3.158144 1_545
Ba0 O2 3.158144 1_454
Ba0 O0 3.158144 1_454
Al0 O6 1.717668 1_555
Al0 O2 1.765828 1_565
Al0 O0 1.765828 1_455
Al0 O1 1.765829 1_555
Al1 O7 1.717668 1_555
Al1 O3 1.765828 1_655
Al1 O5 1.765828 1_545
Al1 O4 1.765829 1_555
O0 Si0 1.642818 1_555
O1 Si0 1.642826 1_555
O2 Si0 1.642818 1_555
O3 Si1 1.642818 1_555
O4 Si1 1.642826 1_555
O5 Si1 1.642818 1_555
O6 Si1 1.604986 1_555
O7 Si0 1.604986 1_555
