# generated using pymatgen
data_Li6MnV3(PO4)6
_symmetry_space_group_name_H-M   'P 1'
_cell_length_a   9.82867631
_cell_length_b   9.82867609
_cell_length_c   9.89209259
_cell_angle_alpha   86.78463139
_cell_angle_beta   93.21536821
_cell_angle_gamma   95.15326502
_symmetry_Int_Tables_number   1
_chemical_formula_structural   Li6MnV3(PO4)6
_chemical_formula_sum   'Li12 Mn2 V6 P12 O48'
_cell_volume   948.99063821
_cell_formula_units_Z   2
loop_
 _symmetry_equiv_pos_site_id
 _symmetry_equiv_pos_as_xyz
  1  'x, y, z'
loop_
 _atom_site_type_symbol
 _atom_site_label
 _atom_site_symmetry_multiplicity
 _atom_site_fract_x
 _atom_site_fract_y
 _atom_site_fract_z
 _atom_site_occupancy
  Li  Li0  1  0.01201874  0.51066031  0.23989493  1
  Li  Li1  1  0.97668870  0.24944070  0.38473244  1
  Li  Li2  1  0.21389678  0.56645142  0.46219958  1
  Li  Li3  1  0.23026760  0.73572605  0.17704195  1
  Li  Li4  1  0.24944070  0.97668870  0.61526756  1
  Li  Li5  1  0.36983996  0.74865909  0.81324340  1
  Li  Li6  1  0.51066031  0.01201874  0.76010507  1
  Li  Li7  1  0.56645142  0.21389678  0.53780042  1
  Li  Li8  1  0.70265629  0.92468684  0.98286492  1
  Li  Li9  1  0.73572605  0.23026760  0.82295805  1
  Li  Li10  1  0.74865909  0.36983996  0.18675660  1
  Li  Li11  1  0.92468684  0.70265629  0.01713508  1
  Mn  Mn0  1  0.75048637  0.97672211  0.27856322  1
  Mn  Mn1  1  0.97672211  0.75048637  0.72143678  1
  V  V0  1  0.03000710  0.24987226  0.78273535  1
  V  V1  1  0.25248552  0.25248552  1.00000000  1
  V  V2  1  0.24987226  0.03000710  0.21726465  1
  V  V3  1  0.46524232  0.46524232  -0.00000000  1
  V  V4  1  0.53352200  0.53352200  0.50000000  1
  V  V5  1  0.74641027  0.74641027  0.50000000  1
  P  P0  1  0.05250478  0.81750513  0.40194732  1
  P  P1  1  0.17243065  0.94784871  0.90782084  1
  P  P2  1  0.16017830  0.55159167  0.92944452  1
  P  P3  1  0.31978287  0.34293810  0.30290787  1
  P  P4  1  0.34293810  0.31978287  0.69709213  1
  P  P5  1  0.44303892  0.83632599  0.43027046  1
  P  P6  1  0.55159167  0.16017830  0.07055548  1
  P  P7  1  0.64717139  0.68405528  0.80480150  1
  P  P8  1  0.68405528  0.64717139  0.19519850  1
  P  P9  1  0.83632599  0.44303892  0.56972954  1
  P  P10  1  0.81750513  0.05250478  0.59805268  1
  P  P11  1  0.94784871  0.17243065  0.09217916  1
  O  O0  1  0.02975187  0.87640442  0.88213243  1
  O  O1  1  0.09558735  0.82486945  0.55332083  1
  O  O2  1  0.11364592  0.61196414  0.79240500  1
  O  O3  1  0.10319940  0.95430450  0.32763663  1
  O  O4  1  0.10186821  0.69286898  0.33702918  1
  O  O5  1  0.12852799  0.39001673  0.92731381  1
  O  O6  1  0.09665117  0.60162855  0.05420660  1
  O  O7  1  0.10967818  0.16709727  0.12093188  1
  O  O8  1  0.16709727  0.10967818  0.87906812  1
  O  O9  1  0.18597696  0.31331072  0.67094614  1
  O  O10  1  0.21563339  0.91134092  0.05967403  1
  O  O11  1  0.19424944  0.40653652  0.34604410  1
  O  O12  1  0.28064219  0.91159433  0.81268921  1
  O  O13  1  0.32084211  0.58800269  0.94406598  1
  O  O14  1  0.31331072  0.18597696  0.32905386  1
  O  O15  1  0.33101197  0.37901768  0.14119071  1
  O  O16  1  0.37344417  0.88051146  0.29307329  1
  O  O17  1  0.40593096  0.90896353  0.55234222  1
  O  O18  1  0.37901768  0.33101197  0.85880929  1
  O  O19  1  0.40089655  0.45723698  0.63225465  1
  O  O20  1  0.40588589  0.67598964  0.44744218  1
  O  O21  1  0.40653652  0.19424944  0.65395590  1
  O  O22  1  0.39001673  0.12852799  0.07268619  1
  O  O23  1  0.45723698  0.40089655  0.36774535  1
  O  O24  1  0.57125590  0.80587092  0.84026988  1
  O  O25  1  0.54513405  0.58078575  0.13675449  1
  O  O26  1  0.58078575  0.54513405  0.86324551  1
  O  O27  1  0.60523852  0.86379946  0.42109294  1
  O  O28  1  0.62399035  0.67030730  0.64276889  1
  O  O29  1  0.60162855  0.09665117  0.94579340  1
  O  O30  1  0.58800269  0.32084211  0.05593402  1
  O  O31  1  0.61196414  0.11364592  0.20759500  1
  O  O32  1  0.67030730  0.62399035  0.35723111  1
  O  O33  1  0.69869261  0.79879864  0.15162353  1
  O  O34  1  0.67598964  0.40588589  0.55255782  1
  O  O35  1  0.69286898  0.10186821  0.66297082  1
  O  O36  1  0.79879864  0.69869261  0.84837647  1
  O  O37  1  0.81287477  0.88985527  0.61969183  1
  O  O38  1  0.80587092  0.57125590  0.15973012  1
  O  O39  1  0.82486945  0.09558735  0.44667917  1
  O  O40  1  0.86379946  0.60523852  0.57890706  1
  O  O41  1  0.88985527  0.81287477  0.38030817  1
  O  O42  1  0.88051146  0.37344417  0.70692671  1
  O  O43  1  0.91134092  0.21563339  0.94032597  1
  O  O44  1  0.90896353  0.40593096  0.44765778  1
  O  O45  1  0.87640442  0.02975187  0.11786757  1
  O  O46  1  0.91159433  0.28064219  0.18731079  1
  O  O47  1  0.95430450  0.10319940  0.67236337  1
loop_
_geom_bond_atom_site_label_1
_geom_bond_atom_site_label_2
_geom_bond_distance
_geom_bond_site_symmetry_2
Li0 O6 2.172305 1_555
Li0 O4 2.173495 1_555
Li0 O38 2.252207 1_455
Li0 O11 2.314233 1_555
Li0 O46 2.455479 1_455
Li0 O44 2.473523 1_455
Li1 O44 1.879914 1_555
Li1 O46 2.035964 1_555
Li1 O39 2.117088 1_555
Li1 O11 2.556445 1_655
Li2 O11 1.987742 1_555
Li2 O4 2.051739 1_555
Li2 O20 2.095112 1_555
Li3 O10 2.036908 1_555
Li3 O4 2.080502 1_555
Li3 O6 2.151274 1_555
Li3 O16 2.228251 1_555
Li4 O17 1.879914 1_555
Li4 O12 2.035964 1_555
Li4 O1 2.117088 1_555
Li4 O21 2.556444 1_565
Li5 O12 1.893123 1_555
Li5 O24 2.015990 1_555
Li5 O13 2.025854 1_555
Li6 O29 2.172305 1_555
Li6 O35 2.173495 1_555
Li6 O24 2.252206 1_545
Li6 O21 2.314233 1_555
Li6 O12 2.455479 1_545
Li6 O17 2.473523 1_545
Li7 O21 1.987742 1_555
Li7 O35 2.051739 1_555
Li7 O34 2.095112 1_555
Li8 O33 2.021437 1_556
Li8 O29 2.041640 1_565
Li8 O24 2.175063 1_555
Li8 O45 2.312614 1_566
Li9 O43 2.036908 1_555
Li9 O35 2.080502 1_555
Li9 O29 2.151274 1_555
Li9 O42 2.228251 1_555
Li10 O46 1.893123 1_555
Li10 O38 2.015990 1_555
Li10 O30 2.025854 1_555
Li11 O36 2.021437 1_554
Li11 O6 2.041640 1_655
Li11 O38 2.175063 1_555
Li11 O0 2.312614 1_654
Mn0 O31 2.067260 1_565
Mn0 O45 2.083767 1_565
Mn0 O39 2.143162 1_565
Mn0 O33 2.215573 1_555
Mn0 O27 2.241282 1_555
Mn0 O41 2.354264 1_555
Mn1 O2 2.067260 1_655
Mn1 O0 2.083767 1_655
Mn1 O1 2.143162 1_655
Mn1 O36 2.215573 1_555
Mn1 O40 2.241282 1_555
Mn1 O37 2.354264 1_555
O0 P1 1.525573 1_555
O1 P0 1.536970 1_555
O2 P2 1.512584 1_555
O3 P0 1.551231 1_555
O3 V2 1.927855 1_565
O4 P0 1.542206 1_555
O5 P2 1.591681 1_555
O5 V1 1.979169 1_555
O5 V0 2.169434 1_555
O6 P2 1.537714 1_554
O7 P11 1.605027 1_455
O7 V1 1.992396 1_554
O7 V2 2.159738 1_555
O8 P1 1.605027 1_545
O8 V1 1.992396 1_555
O8 V0 2.159738 1_555
O9 P4 1.546086 1_555
O9 V0 1.975541 1_555
O10 P1 1.568712 1_554
O10 V2 1.994581 1_565
O11 P3 1.524032 1_555
O12 P1 1.536789 1_555
O13 P2 1.587846 1_555
O13 V3 1.980129 1_556
O14 P3 1.546086 1_555
O14 V2 1.975541 1_555
O15 P3 1.626708 1_555
O15 V1 1.998632 1_554
O15 V3 2.069432 1_555
O16 P5 1.543212 1_555
O16 V2 2.071537 1_565
O17 P5 1.514522 1_555
O18 P4 1.626708 1_555
O18 V1 1.998632 1_555
O18 V3 2.069432 1_556
O19 P4 1.538371 1_555
O19 V4 1.969428 1_555
O20 P5 1.587197 1_555
O20 V4 1.991366 1_555
O21 P4 1.524032 1_555
O22 P6 1.591681 1_555
O22 V1 1.979169 1_554
O22 V2 2.169434 1_555
O23 P3 1.538371 1_555
O23 V4 1.969428 1_555
O24 P7 1.533071 1_555
O25 P8 1.555006 1_555
O25 V3 1.905067 1_555
O26 P7 1.555006 1_555
O26 V3 1.905067 1_556
O27 P5 1.599627 1_555
O27 V5 1.982621 1_555
O28 P7 1.617736 1_555
O28 V5 1.977936 1_555
O28 V4 2.109508 1_555
O29 P6 1.537714 1_556
O30 P6 1.587846 1_555
O30 V3 1.980129 1_555
O31 P6 1.512584 1_555
O32 P8 1.617736 1_555
O32 V5 1.977936 1_555
O32 V4 2.109508 1_555
O33 P8 1.524421 1_555
O34 P9 1.587197 1_555
O34 V4 1.991366 1_555
O35 P10 1.542206 1_555
O36 P7 1.524421 1_555
O37 P10 1.597856 1_565
O37 V5 1.936852 1_555
O38 P8 1.533071 1_555
O39 P10 1.536970 1_555
O40 P9 1.599627 1_555
O40 V5 1.982621 1_555
O41 P0 1.597856 1_655
O41 V5 1.936852 1_555
O42 P9 1.543212 1_555
O42 V0 2.071537 1_655
O43 P11 1.568712 1_556
O43 V0 1.994581 1_655
O44 P9 1.514522 1_555
O45 P11 1.525573 1_555
O46 P11 1.536789 1_555
O47 P10 1.551231 1_555
O47 V0 1.927855 1_655
