# generated using pymatgen
data_Cs10Tl6SiO4
_symmetry_space_group_name_H-M   'P 1'
_cell_length_a   11.75459200
_cell_length_b   15.27448400
_cell_length_c   19.63669169
_cell_angle_alpha   89.75150256
_cell_angle_beta   90.00000000
_cell_angle_gamma   90.00000000
_symmetry_Int_Tables_number   1
_chemical_formula_structural   Cs10Tl6SiO4
_chemical_formula_sum   'Cs40 Tl24 Si4 O16'
_cell_volume   3525.64307891
_cell_formula_units_Z   4
loop_
 _symmetry_equiv_pos_site_id
 _symmetry_equiv_pos_as_xyz
  1  'x, y, z'
loop_
 _atom_site_type_symbol
 _atom_site_label
 _atom_site_symmetry_multiplicity
 _atom_site_fract_x
 _atom_site_fract_y
 _atom_site_fract_z
 _atom_site_occupancy
  Cs  Cs0  1  0.03786500  0.18788900  0.24470800  1
  Cs  Cs1  1  0.53786500  0.31211100  0.75529200  1
  Cs  Cs2  1  0.96213500  0.81211100  0.75529200  1
  Cs  Cs3  1  0.46213500  0.68788900  0.24470800  1
  Cs  Cs4  1  0.32157900  0.54413900  0.74598300  1
  Cs  Cs5  1  0.82157900  0.95586100  0.25401700  1
  Cs  Cs6  1  0.67842100  0.45586100  0.25401700  1
  Cs  Cs7  1  0.17842100  0.04413900  0.74598300  1
  Cs  Cs8  1  0.71803000  0.58445500  0.75332200  1
  Cs  Cs9  1  0.21803000  0.91554500  0.24667800  1
  Cs  Cs10  1  0.28197000  0.41554500  0.24667800  1
  Cs  Cs11  1  0.78197000  0.08445500  0.75332200  1
  Cs  Cs12  1  0.67304600  0.18825800  0.25424300  1
  Cs  Cs13  1  0.17304600  0.31174200  0.74575700  1
  Cs  Cs14  1  0.32695400  0.81174200  0.74575700  1
  Cs  Cs15  1  0.82695400  0.68825800  0.25424300  1
  Cs  Cs16  1  0.18909700  0.29883800  0.42635200  1
  Cs  Cs17  1  0.68909700  0.20116200  0.57364800  1
  Cs  Cs18  1  0.81090300  0.70116200  0.57364800  1
  Cs  Cs19  1  0.31090300  0.79883800  0.42635200  1
  Cs  Cs20  1  0.82129800  0.69437700  0.93492200  1
  Cs  Cs21  1  0.32129800  0.80562300  0.06507800  1
  Cs  Cs22  1  0.17870200  0.30562300  0.06507800  1
  Cs  Cs23  1  0.67870200  0.19437700  0.93492200  1
  Cs  Cs24  1  0.85125800  0.32011400  0.40515700  1
  Cs  Cs25  1  0.35125800  0.17988600  0.59484300  1
  Cs  Cs26  1  0.14874200  0.67988600  0.59484300  1
  Cs  Cs27  1  0.64874200  0.82011400  0.40515700  1
  Cs  Cs28  1  0.15925800  0.67167300  0.90338900  1
  Cs  Cs29  1  0.65925800  0.82832700  0.09661100  1
  Cs  Cs30  1  0.84074200  0.32832700  0.09661100  1
  Cs  Cs31  1  0.34074200  0.17167300  0.90338900  1
  Cs  Cs32  1  0.96089000  0.44419800  0.62137000  1
  Cs  Cs33  1  0.46089000  0.05580200  0.37863000  1
  Cs  Cs34  1  0.03911000  0.55580200  0.37863000  1
  Cs  Cs35  1  0.53911000  0.94419800  0.62137000  1
  Cs  Cs36  1  0.03352700  0.56190000  0.12428900  1
  Cs  Cs37  1  0.53352700  0.93810000  0.87571100  1
  Cs  Cs38  1  0.96647300  0.43810000  0.87571100  1
  Cs  Cs39  1  0.46647300  0.06190000  0.12428900  1
  Tl  Tl0  1  0.51472100  0.35820800  0.43353700  1
  Tl  Tl1  1  0.01472100  0.14179200  0.56646300  1
  Tl  Tl2  1  0.48527900  0.64179200  0.56646300  1
  Tl  Tl3  1  0.98527900  0.85820800  0.43353700  1
  Tl  Tl4  1  0.49288300  0.63844700  0.92868300  1
  Tl  Tl5  1  0.99288300  0.86155300  0.07131700  1
  Tl  Tl6  1  0.50711700  0.36155300  0.07131700  1
  Tl  Tl7  1  0.00711700  0.13844700  0.92868300  1
  Tl  Tl8  1  0.33104100  0.44157300  0.56501800  1
  Tl  Tl9  1  0.83104100  0.05842700  0.43498200  1
  Tl  Tl10  1  0.66895900  0.55842700  0.43498200  1
  Tl  Tl11  1  0.16895900  0.94157300  0.56501800  1
  Tl  Tl12  1  0.64789600  0.56820000  0.07648000  1
  Tl  Tl13  1  0.14789600  0.93180000  0.92352000  1
  Tl  Tl14  1  0.35210400  0.43180000  0.92352000  1
  Tl  Tl15  1  0.85210400  0.06820000  0.07648000  1
  Tl  Tl16  1  0.59938000  0.45769700  0.56707100  1
  Tl  Tl17  1  0.09938000  0.04230300  0.43292900  1
  Tl  Tl18  1  0.40062000  0.54230300  0.43292900  1
  Tl  Tl19  1  0.90062000  0.95769700  0.56707100  1
  Tl  Tl20  1  0.38234300  0.54167400  0.05659300  1
  Tl  Tl21  1  0.88234300  0.95832600  0.94340700  1
  Tl  Tl22  1  0.61765700  0.45832600  0.94340700  1
  Tl  Tl23  1  0.11765700  0.04167400  0.05659300  1
  Si  Si0  1  0.97495500  0.40040200  0.24972300  1
  Si  Si1  1  0.47495500  0.09959800  0.75027700  1
  Si  Si2  1  0.02504500  0.59959800  0.75027700  1
  Si  Si3  1  0.52504500  0.90040200  0.24972300  1
  O  O0  1  0.86395500  0.33105700  0.25048700  1
  O  O1  1  0.36395500  0.16894300  0.74951300  1
  O  O2  1  0.13604500  0.66894300  0.74951300  1
  O  O3  1  0.63604500  0.83105700  0.25048700  1
  O  O4  1  0.05630900  0.37919800  0.31769900  1
  O  O5  1  0.55630900  0.12080200  0.68230100  1
  O  O6  1  0.94369100  0.62080200  0.68230100  1
  O  O7  1  0.44369100  0.87919800  0.31769900  1
  O  O8  1  0.94818000  0.61846100  0.82076000  1
  O  O9  1  0.44818000  0.88153900  0.17924000  1
  O  O10  1  0.05182000  0.38153900  0.17924000  1
  O  O11  1  0.55182000  0.11846100  0.82076000  1
  O  O12  1  0.93127400  0.50429500  0.25080000  1
  O  O13  1  0.43127400  0.99570500  0.74920000  1
  O  O14  1  0.06872600  0.49570500  0.74920000  1
  O  O15  1  0.56872600  0.00429500  0.25080000  1
loop_
_geom_bond_atom_site_label_1
_geom_bond_atom_site_label_2
_geom_bond_distance
_geom_bond_site_symmetry_2
Cs0 O0 2.996018 1_455
Cs0 O10 3.224255 1_555
Cs0 O4 3.267511 1_555
Cs0 Tl17 4.365469 1_555
Cs0 Tl15 4.367522 1_455
Cs0 Tl23 4.425434 1_555
Cs1 O1 2.996018 1_555
Cs1 O11 3.224255 1_555
Cs1 O5 3.267511 1_555
Cs1 Tl16 4.365469 1_555
Cs1 Tl14 4.367522 1_555
Cs1 Tl22 4.425434 1_555
Cs2 O2 2.996018 1_655
Cs2 O8 3.224255 1_555
Cs2 O6 3.267511 1_555
Cs2 Tl19 4.365469 1_555
Cs2 Tl13 4.367522 1_655
Cs2 Tl21 4.425434 1_555
Cs3 O3 2.996018 1_555
Cs3 O9 3.224255 1_555
Cs3 O7 3.267511 1_555
Cs3 Tl18 4.365469 1_555
Cs3 Tl12 4.367522 1_555
Cs3 Tl20 4.425434 1_555
Cs4 O2 2.897623 1_555
Cs4 O14 3.063458 1_555
Cs4 Tl8 3.891372 1_555
Cs4 Tl14 3.895523 1_555
Cs4 Tl2 4.278878 1_555
Cs4 Tl4 4.364121 1_555
Cs5 O3 2.897623 1_555
Cs5 O15 3.063458 1_565
Cs5 Tl9 3.891372 1_565
Cs5 Tl15 3.895523 1_565
Cs5 Tl3 4.278878 1_555
Cs5 Tl5 4.364121 1_555
Cs6 O0 2.897623 1_555
Cs6 O12 3.063458 1_555
Cs6 Tl10 3.891372 1_555
Cs6 Tl12 3.895523 1_555
Cs6 Tl0 4.278878 1_555
Cs6 Tl6 4.364121 1_555
Cs7 O1 2.897623 1_555
Cs7 O13 3.063458 1_545
Cs7 Tl11 3.891372 1_545
Cs7 Tl13 3.895523 1_545
Cs7 Tl1 4.278878 1_555
Cs7 Tl7 4.364121 1_555
Cs8 O6 3.046721 1_555
Cs8 O8 3.057480 1_555
Cs8 Tl22 4.355901 1_555
Cs8 Tl16 4.373960 1_555
Cs8 Tl4 4.423409 1_555
Cs9 O7 3.046721 1_555
Cs9 O9 3.057480 1_555
Cs9 Tl23 4.355901 1_565
Cs9 Tl17 4.373960 1_565
Cs9 Tl5 4.423409 1_455
Cs10 O4 3.046721 1_555
Cs10 O10 3.057480 1_555
Cs10 Tl20 4.355901 1_555
Cs10 Tl18 4.373960 1_555
Cs10 Tl6 4.423409 1_555
Cs11 O5 3.046721 1_555
Cs11 O11 3.057480 1_555
Cs11 Tl21 4.355901 1_545
Cs11 Tl19 4.373960 1_545
Cs11 Tl7 4.423409 1_655
Cs12 O15 3.066862 1_555
Cs12 O0 3.130078 1_555
Cs12 Tl9 4.462839 1_555
Cs12 Tl15 4.475852 1_555
Cs13 O14 3.066862 1_555
Cs13 O1 3.130078 1_555
Cs13 Tl8 4.462839 1_555
Cs13 Tl14 4.475852 1_555
Cs14 O13 3.066862 1_555
Cs14 O2 3.130078 1_555
Cs14 Tl11 4.462839 1_555
Cs14 Tl13 4.475852 1_555
Cs15 O12 3.066862 1_555
Cs15 O3 3.130078 1_555
Cs15 Tl10 4.462839 1_555
Cs15 Tl12 4.475852 1_555
Cs16 O4 2.910745 1_555
Cs16 Tl8 3.873379 1_555
Cs16 Tl0 3.936208 1_555
Cs16 Tl17 4.059386 1_555
Cs16 Tl1 4.179482 1_555
Cs17 O5 2.910745 1_555
Cs17 Tl9 3.873379 1_555
Cs17 Tl1 3.936208 1_655
Cs17 Tl16 4.059386 1_555
Cs17 Tl0 4.179482 1_555
Cs18 O6 2.910745 1_555
Cs18 Tl10 3.873379 1_555
Cs18 Tl2 3.936208 1_555
Cs18 Tl19 4.059386 1_555
Cs18 Tl3 4.179482 1_555
Cs19 O7 2.910745 1_555
Cs19 Tl11 3.873379 1_555
Cs19 Tl3 3.936208 1_455
Cs19 Tl18 4.059386 1_555
Cs19 Tl2 4.179482 1_555
Cs20 O8 2.935487 1_555
Cs20 Tl12 3.943275 1_556
Cs20 Tl4 3.955795 1_555
Cs20 Tl21 4.099142 1_555
Cs20 Tl5 4.221528 1_556
Cs20 Tl22 4.330413 1_555
Cs21 O9 2.935487 1_555
Cs21 Tl13 3.943275 1_554
Cs21 Tl5 3.955795 1_455
Cs21 Tl20 4.099142 1_555
Cs21 Tl4 4.221528 1_554
Cs21 Tl23 4.330413 1_565
Cs22 O10 2.935487 1_555
Cs22 Tl14 3.943275 1_554
Cs22 Tl6 3.955795 1_555
Cs22 Tl23 4.099142 1_555
Cs22 Tl7 4.221528 1_554
Cs22 Tl20 4.330413 1_555
Cs23 O11 2.935487 1_555
Cs23 Tl15 3.943275 1_556
Cs23 Tl7 3.955795 1_655
Cs23 Tl22 4.099142 1_555
Cs23 Tl6 4.221528 1_556
Cs23 Tl21 4.330413 1_545
Cs24 O0 3.044739 1_555
Cs24 O4 3.091915 1_655
Cs24 Tl0 4.037418 1_555
Cs24 Tl9 4.044286 1_555
Cs24 Tl10 4.266578 1_555
Cs25 O1 3.044739 1_555
Cs25 O5 3.091915 1_555
Cs25 Tl1 4.037418 1_555
Cs25 Tl8 4.044286 1_555
Cs25 Tl11 4.266578 1_545
Cs26 O2 3.044739 1_555
Cs26 O6 3.091915 1_455
Cs26 Tl2 4.037418 1_555
Cs26 Tl11 4.044286 1_555
Cs26 Tl8 4.266578 1_555
Cs27 O3 3.044739 1_555
Cs27 O7 3.091915 1_555
Cs27 Tl3 4.037418 1_555
Cs27 Tl10 4.044286 1_555
Cs27 Tl9 4.266578 1_565
Cs28 O2 3.034377 1_555
Cs28 O8 3.075841 1_455
Cs28 Tl4 3.985126 1_555
Cs28 Tl13 3.996860 1_555
Cs28 Tl14 4.325117 1_555
Cs28 Tl20 4.451737 1_556
Cs29 O3 3.034377 1_555
Cs29 O9 3.075841 1_555
Cs29 Tl5 3.985126 1_555
Cs29 Tl12 3.996860 1_555
Cs29 Tl15 4.325117 1_565
Cs29 Tl21 4.451737 1_554
Cs30 O0 3.034377 1_555
Cs30 O10 3.075841 1_655
Cs30 Tl6 3.985126 1_555
Cs30 Tl15 3.996860 1_555
Cs30 Tl12 4.325117 1_555
Cs30 Tl22 4.451737 1_554
Cs31 O1 3.034377 1_555
Cs31 O11 3.075841 1_555
Cs31 Tl7 3.985126 1_555
Cs31 Tl14 3.996860 1_555
Cs31 Tl13 4.325117 1_545
Cs31 Tl23 4.451737 1_556
Cs32 O14 2.922964 1_655
Cs32 O6 2.962623 1_555
Cs32 Tl16 4.385764 1_555
Cs32 Tl8 4.489706 1_655
Cs33 O15 2.922964 1_555
Cs33 O7 2.962623 1_545
Cs33 Tl17 4.385764 1_555
Cs33 Tl9 4.489706 1_555
Cs34 O12 2.922964 1_455
Cs34 O4 2.962623 1_555
Cs34 Tl18 4.385764 1_555
Cs34 Tl10 4.489706 1_455
Cs35 O13 2.922964 1_555
Cs35 O5 2.962623 1_565
Cs35 Tl19 4.385764 1_555
Cs35 Tl11 4.489706 1_555
Cs36 O12 2.893344 1_455
Cs36 O10 2.962162 1_555
Cs36 Tl20 4.321767 1_555
Cs36 Tl12 4.630048 1_455
Cs37 O13 2.893344 1_555
Cs37 O11 2.962162 1_565
Cs37 Tl21 4.321767 1_555
Cs37 Tl13 4.630048 1_555
Cs38 O14 2.893344 1_655
Cs38 O8 2.962162 1_555
Cs38 Tl22 4.321767 1_555
Cs38 Tl14 4.630048 1_655
Cs39 O15 2.893344 1_555
Cs39 O9 2.962162 1_545
Cs39 Tl23 4.321767 1_555
Cs39 Tl15 4.630048 1_555
Tl0 Tl18 3.115412 1_555
Tl0 Tl16 3.195297 1_555
Tl0 Tl10 3.555473 1_555
Tl0 Tl8 3.602438 1_555
Tl1 Tl19 3.115412 1_445
Tl1 Tl17 3.195297 1_555
Tl1 Tl11 3.555473 1_545
Tl1 Tl9 3.602438 1_455
Tl2 Tl8 3.555473 1_555
Tl3 Tl9 3.555473 1_565
Tl10 Tl16 3.119188 1_555
Tl10 Tl18 3.164086 1_555
Tl10 Tl2 3.602438 1_555
Tl11 Tl17 3.119188 1_565
Tl11 Tl19 3.164086 1_455
Tl11 Tl3 3.602438 1_455
Tl12 Tl22 3.131985 1_554
Tl12 Tl20 3.172002 1_555
Tl12 Tl6 3.565732 1_555
Tl12 Tl4 3.587117 1_554
Tl13 Tl23 3.131985 1_566
Tl13 Tl21 3.172002 1_455
Tl13 Tl7 3.565732 1_565
Tl13 Tl5 3.587117 1_456
Tl14 Tl20 3.131985 1_556
Tl14 Tl22 3.172002 1_555
Tl14 Tl4 3.565732 1_555
Tl14 Tl6 3.587117 1_556
Tl15 Tl21 3.131985 1_544
Tl15 Tl23 3.172002 1_655
Tl15 Tl5 3.565732 1_545
Tl15 Tl7 3.587117 1_654
Tl16 Tl2 3.115412 1_555
Tl16 Tl8 3.164086 1_555
Tl17 Tl3 3.115412 1_445
Tl17 Tl9 3.164086 1_455
Tl18 Tl8 3.119188 1_555
Tl18 Tl2 3.195297 1_555
Tl19 Tl9 3.119188 1_565
Tl19 Tl3 3.195297 1_555
Tl20 Tl6 3.130050 1_555
Tl20 Tl4 3.185882 1_554
Tl21 Tl7 3.130050 1_665
Tl21 Tl5 3.185882 1_556
Tl22 Tl4 3.130050 1_555
Tl22 Tl6 3.185882 1_556
Tl23 Tl5 3.130050 1_445
Tl23 Tl7 3.185882 1_554
O0 Si0 1.680598 1_555
O1 Si1 1.680598 1_555
O2 Si2 1.680598 1_555
O3 Si3 1.680598 1_555
O4 Si0 1.672537 1_455
O5 Si1 1.672537 1_555
O6 Si2 1.672537 1_655
O7 Si3 1.672537 1_555
O8 Si2 1.678815 1_655
O9 Si3 1.678815 1_555
O10 Si0 1.678815 1_455
O11 Si1 1.678815 1_555
O12 Si0 1.668131 1_555
O13 Si1 1.668131 1_565
O14 Si2 1.668131 1_555
O15 Si3 1.668131 1_545
