# generated using pymatgen
data_Te3Mo2Se
_symmetry_space_group_name_H-M   'P 1'
_cell_length_a   3.50007983
_cell_length_b   3.50007983
_cell_length_c   39.62501300
_cell_angle_alpha   90.00000000
_cell_angle_beta   90.00000000
_cell_angle_gamma   119.99999680
_symmetry_Int_Tables_number   1
_chemical_formula_structural   Te3Mo2Se
_chemical_formula_sum   'Te6 Mo4 Se2'
_cell_volume   420.39347182
_cell_formula_units_Z   2
loop_
 _symmetry_equiv_pos_site_id
 _symmetry_equiv_pos_as_xyz
  1  'x, y, z'
loop_
 _atom_site_type_symbol
 _atom_site_label
 _atom_site_symmetry_multiplicity
 _atom_site_fract_x
 _atom_site_fract_y
 _atom_site_fract_z
 _atom_site_occupancy
  Te  Te0  1  0.00000000  0.00000000  0.32805800  1
  Te  Te1  1  0.00000000  0.00000000  0.70379500  1
  Te  Te2  1  0.33333300  0.66666700  0.42339600  1
  Te  Te3  1  0.33333300  0.66666700  0.51592400  1
  Te  Te4  1  0.00000000  0.00000000  0.23551400  1
  Te  Te5  1  0.00000000  0.00000000  0.61126000  1
  Mo  Mo0  1  0.00000000  0.00000000  0.09392500  1
  Mo  Mo1  1  0.00000000  0.00000000  0.46965600  1
  Mo  Mo2  1  0.33333300  0.66666700  0.28177000  1
  Mo  Mo3  1  0.33333300  0.66666700  0.65754700  1
  Se  Se0  1  0.33333300  0.66666700  0.05307200  1
  Se  Se1  1  0.33333300  0.66666700  0.13483100  1
loop_
_geom_bond_atom_site_label_1
_geom_bond_atom_site_label_2
_geom_bond_distance
_geom_bond_site_symmetry_2
Mo0 Se0 2.589214 1_545
Mo0 Se0 2.589216 1_555
Mo0 Se0 2.589216 1_445
Mo0 Se1 2.590527 1_545
Mo0 Se1 2.590530 1_555
Mo0 Se1 2.590530 1_445
Mo1 Te2 2.728295 1_545
Mo1 Te2 2.728298 1_555
Mo1 Te2 2.728298 1_445
Mo1 Te3 2.728508 1_545
Mo1 Te3 2.728511 1_445
Mo1 Te3 2.728511 1_555
Mo2 Te4 2.728189 1_565
Mo2 Te4 2.728191 1_665
Mo2 Te4 2.728191 1_555
Mo2 Te0 2.729041 1_565
Mo2 Te0 2.729043 1_665
Mo2 Te0 2.729043 1_555
Mo3 Te1 2.727976 1_565
Mo3 Te1 2.727978 1_665
Mo3 Te1 2.727978 1_555
Mo3 Te5 2.729014 1_565
Mo3 Te5 2.729016 1_665
Mo3 Te5 2.729016 1_555
