# generated using pymatgen
data_Dy5Sn4
_symmetry_space_group_name_H-M   'P 1'
_cell_length_a   8.04552100
_cell_length_b   8.14944200
_cell_length_c   15.52918300
_cell_angle_alpha   90.00000000
_cell_angle_beta   90.00000000
_cell_angle_gamma   90.00000000
_symmetry_Int_Tables_number   1
_chemical_formula_structural   Dy5Sn4
_chemical_formula_sum   'Dy20 Sn16'
_cell_volume   1018.19428198
_cell_formula_units_Z   4
loop_
 _symmetry_equiv_pos_site_id
 _symmetry_equiv_pos_as_xyz
  1  'x, y, z'
loop_
 _atom_site_type_symbol
 _atom_site_label
 _atom_site_symmetry_multiplicity
 _atom_site_fract_x
 _atom_site_fract_y
 _atom_site_fract_z
 _atom_site_occupancy
  Dy  Dy0  1  0.36762000  0.83529200  0.87858500  1
  Dy  Dy1  1  0.86762000  0.66470800  0.62141500  1
  Dy  Dy2  1  0.63238000  0.16470800  0.37858500  1
  Dy  Dy3  1  0.13238000  0.33529200  0.12141500  1
  Dy  Dy4  1  0.63238000  0.16470800  0.12141500  1
  Dy  Dy5  1  0.13238000  0.33529200  0.37858500  1
  Dy  Dy6  1  0.36762000  0.83529200  0.62141500  1
  Dy  Dy7  1  0.86762000  0.66470800  0.87858500  1
  Dy  Dy8  1  0.52175800  0.31952000  0.90241500  1
  Dy  Dy9  1  0.02175800  0.18048000  0.59758500  1
  Dy  Dy10  1  0.47824200  0.68048000  0.40241500  1
  Dy  Dy11  1  0.97824200  0.81952000  0.09758500  1
  Dy  Dy12  1  0.47824200  0.68048000  0.09758500  1
  Dy  Dy13  1  0.97824200  0.81952000  0.40241500  1
  Dy  Dy14  1  0.52175800  0.31952000  0.59758500  1
  Dy  Dy15  1  0.02175800  0.18048000  0.90241500  1
  Dy  Dy16  1  0.19718200  0.50306800  0.75000000  1
  Dy  Dy17  1  0.69718200  0.99693200  0.75000000  1
  Dy  Dy18  1  0.80281800  0.49693200  0.25000000  1
  Dy  Dy19  1  0.30281800  0.00306800  0.25000000  1
  Sn  Sn0  1  0.29159200  0.03337800  0.04184400  1
  Sn  Sn1  1  0.79159200  0.46662200  0.45815600  1
  Sn  Sn2  1  0.70840800  0.96662200  0.54184400  1
  Sn  Sn3  1  0.20840800  0.53337800  0.95815600  1
  Sn  Sn4  1  0.70840800  0.96662200  0.95815600  1
  Sn  Sn5  1  0.20840800  0.53337800  0.54184400  1
  Sn  Sn6  1  0.29159200  0.03337800  0.45815600  1
  Sn  Sn7  1  0.79159200  0.46662200  0.04184400  1
  Sn  Sn8  1  0.56521600  0.61965800  0.75000000  1
  Sn  Sn9  1  0.06521600  0.88034200  0.75000000  1
  Sn  Sn10  1  0.43478400  0.38034200  0.25000000  1
  Sn  Sn11  1  0.93478400  0.11965800  0.25000000  1
  Sn  Sn12  1  0.32877800  0.14534100  0.75000000  1
  Sn  Sn13  1  0.82877800  0.35465900  0.75000000  1
  Sn  Sn14  1  0.67122200  0.85465900  0.25000000  1
  Sn  Sn15  1  0.17122200  0.64534100  0.25000000  1
loop_
_geom_bond_atom_site_label_1
_geom_bond_atom_site_label_2
_geom_bond_distance
_geom_bond_site_symmetry_2
Dy0 Sn3 3.036679 1_555
Dy0 Sn0 3.067202 1_566
Dy0 Sn8 3.098827 1_555
Dy0 Sn9 3.168841 1_555
Dy0 Sn4 3.192165 1_555
Dy0 Sn12 3.235629 1_565
Dy1 Sn2 3.036679 1_555
Dy1 Sn1 3.067202 1_555
Dy1 Sn9 3.098827 1_655
Dy1 Sn8 3.168841 1_555
Dy1 Sn5 3.192165 1_655
Dy1 Sn13 3.235629 1_555
Dy2 Sn1 3.036679 1_555
Dy2 Sn2 3.067202 1_545
Dy2 Sn10 3.098827 1_555
Dy2 Sn11 3.168841 1_555
Dy2 Sn6 3.192165 1_555
Dy2 Sn14 3.235629 1_545
Dy3 Sn0 3.036679 1_555
Dy3 Sn3 3.067202 1_554
Dy3 Sn11 3.098827 1_455
Dy3 Sn10 3.168841 1_555
Dy3 Sn7 3.192165 1_455
Dy3 Sn15 3.235629 1_555
Dy4 Sn7 3.036679 1_555
Dy4 Sn4 3.067202 1_544
Dy4 Sn10 3.098827 1_555
Dy4 Sn11 3.168841 1_555
Dy4 Sn0 3.192165 1_555
Dy4 Sn14 3.235629 1_545
Dy5 Sn6 3.036679 1_555
Dy5 Sn5 3.067202 1_555
Dy5 Sn11 3.098827 1_455
Dy5 Sn10 3.168841 1_555
Dy5 Sn1 3.192165 1_455
Dy5 Sn15 3.235629 1_555
Dy6 Sn5 3.036679 1_555
Dy6 Sn6 3.067202 1_565
Dy6 Sn8 3.098827 1_555
Dy6 Sn9 3.168841 1_555
Dy6 Sn2 3.192165 1_555
Dy6 Sn12 3.235629 1_565
Dy7 Sn4 3.036679 1_555
Dy7 Sn7 3.067202 1_556
Dy7 Sn9 3.098827 1_655
Dy7 Sn8 3.168841 1_555
Dy7 Sn3 3.192165 1_655
Dy7 Sn13 3.235629 1_555
Dy8 Sn12 3.166645 1_555
Dy8 Sn3 3.184726 1_555
Dy8 Sn7 3.292163 1_556
Dy8 Sn4 3.357872 1_545
Dy8 Sn8 3.421561 1_555
Dy8 Sn13 3.433030 1_555
Dy8 Sn0 3.681725 1_556
Dy9 Sn13 3.166645 1_455
Dy9 Sn2 3.184726 1_445
Dy9 Sn6 3.292163 1_555
Dy9 Sn5 3.357872 1_555
Dy9 Sn9 3.421561 1_545
Dy9 Sn12 3.433030 1_555
Dy9 Sn1 3.681725 1_455
Dy10 Sn14 3.166645 1_555
Dy10 Sn1 3.184726 1_555
Dy10 Sn5 3.292163 1_555
Dy10 Sn6 3.357872 1_565
Dy10 Sn10 3.421561 1_555
Dy10 Sn15 3.433030 1_555
Dy10 Sn2 3.681725 1_555
Dy11 Sn15 3.166645 1_655
Dy11 Sn0 3.184726 1_665
Dy11 Sn4 3.292163 1_554
Dy11 Sn7 3.357872 1_555
Dy11 Sn11 3.421561 1_565
Dy11 Sn14 3.433030 1_555
Dy11 Sn3 3.681725 1_654
Dy12 Sn14 3.166645 1_555
Dy12 Sn7 3.184726 1_555
Dy12 Sn3 3.292163 1_554
Dy12 Sn0 3.357872 1_565
Dy12 Sn10 3.421561 1_555
Dy12 Sn15 3.433030 1_555
Dy12 Sn4 3.681725 1_554
Dy13 Sn15 3.166645 1_655
Dy13 Sn6 3.184726 1_665
Dy13 Sn2 3.292163 1_555
Dy13 Sn1 3.357872 1_555
Dy13 Sn11 3.421561 1_565
Dy13 Sn14 3.433030 1_555
Dy13 Sn5 3.681725 1_655
Dy14 Sn12 3.166645 1_555
Dy14 Sn5 3.184726 1_555
Dy14 Sn1 3.292163 1_555
Dy14 Sn2 3.357872 1_545
Dy14 Sn8 3.421561 1_555
Dy14 Sn13 3.433030 1_555
Dy14 Sn6 3.681725 1_555
Dy15 Sn13 3.166645 1_455
Dy15 Sn4 3.184726 1_445
Dy15 Sn0 3.292163 1_556
Dy15 Sn3 3.357872 1_555
Dy15 Sn9 3.421561 1_545
Dy15 Sn12 3.433030 1_555
Dy15 Sn7 3.681725 1_456
Dy16 Sn12 3.101580 1_555
Dy16 Sn8 3.109734 1_555
Dy16 Sn13 3.201262 1_455
Dy16 Sn3 3.243174 1_555
Dy16 Sn5 3.243174 1_555
Dy16 Sn9 3.252734 1_555
Dy17 Sn13 3.101580 1_565
Dy17 Sn9 3.109734 1_655
Dy17 Sn12 3.201262 1_565
Dy17 Sn4 3.243174 1_555
Dy17 Sn2 3.243174 1_555
Dy17 Sn8 3.252734 1_555
Dy18 Sn14 3.101580 1_555
Dy18 Sn10 3.109734 1_555
Dy18 Sn15 3.201262 1_655
Dy18 Sn1 3.243174 1_555
Dy18 Sn7 3.243174 1_555
Dy18 Sn11 3.252734 1_555
Dy19 Sn15 3.101580 1_545
Dy19 Sn11 3.109734 1_455
Dy19 Sn14 3.201262 1_545
Dy19 Sn6 3.243174 1_555
Dy19 Sn0 3.243174 1_555
Dy19 Sn10 3.252734 1_555
Sn10 Sn15 3.026605 1_555
Sn11 Sn14 3.026605 1_545
Sn12 Sn9 3.026605 1_545
Sn13 Sn8 3.026605 1_555
