# generated using pymatgen
data_YbAgO2
_symmetry_space_group_name_H-M   'P 1'
_cell_length_a   3.50747787
_cell_length_b   3.50747787
_cell_length_c   6.52191947
_cell_angle_alpha   74.40122294
_cell_angle_beta   74.40122294
_cell_angle_gamma   60.00000239
_symmetry_Int_Tables_number   1
_chemical_formula_structural   YbAgO2
_chemical_formula_sum   'Yb1 Ag1 O2'
_cell_volume   66.05137783
_cell_formula_units_Z   1
loop_
 _symmetry_equiv_pos_site_id
 _symmetry_equiv_pos_as_xyz
  1  'x, y, z'
loop_
 _atom_site_type_symbol
 _atom_site_label
 _atom_site_symmetry_multiplicity
 _atom_site_fract_x
 _atom_site_fract_y
 _atom_site_fract_z
 _atom_site_occupancy
  Yb  Yb0  1  0.50000000  0.50000000  0.50000000  1
  Ag  Ag0  1  0.00000000  0.00000000  0.00000000  1
  O  O0  1  0.89278700  0.89278700  0.32163900  1
  O  O1  1  0.10721300  0.10721300  0.67836100  1
loop_
_geom_bond_atom_site_label_1
_geom_bond_atom_site_label_2
_geom_bond_distance
_geom_bond_site_symmetry_2
Ag0 O1 1.994023 1_554
Ag0 O0 1.994023 1_445
O0 Yb0 2.307273 1_555
O0 Yb0 2.307273 1_655
O0 Yb0 2.307273 1_565
O1 Yb0 2.307273 1_555
O1 Yb0 2.307273 1_545
O1 Yb0 2.307273 1_455
