# generated using pymatgen
data_KSi
_symmetry_space_group_name_H-M   'P 1'
_cell_length_a   10.58677164
_cell_length_b   10.58677164
_cell_length_c   11.40849226
_cell_angle_alpha   117.64465235
_cell_angle_beta   117.64465235
_cell_angle_gamma   90.00000000
_symmetry_Int_Tables_number   1
_chemical_formula_structural   KSi
_chemical_formula_sum   'K16 Si16'
_cell_volume   964.88743638
_cell_formula_units_Z   16
loop_
 _symmetry_equiv_pos_site_id
 _symmetry_equiv_pos_as_xyz
  1  'x, y, z'
loop_
 _atom_site_type_symbol
 _atom_site_label
 _atom_site_symmetry_multiplicity
 _atom_site_fract_x
 _atom_site_fract_y
 _atom_site_fract_z
 _atom_site_occupancy
  K  K0  1  0.25000000  0.39297332  0.00000000  1
  K  K1  1  0.25000000  0.89297332  0.00000000  1
  K  K2  1  0.10702668  0.75000000  0.50000000  1
  K  K3  1  0.89297332  0.25000000  0.50000000  1
  K  K4  1  0.75000000  0.60702668  -0.00000000  1
  K  K5  1  0.75000000  0.10702668  -0.00000000  1
  K  K6  1  0.60702668  0.75000000  0.50000000  1
  K  K7  1  0.39297332  0.25000000  0.50000000  1
  K  K8  1  0.75339771  0.24660229  0.75000000  1
  K  K9  1  0.49660229  0.74660229  0.75000000  1
  K  K10  1  0.00339771  0.99660229  0.25000000  1
  K  K11  1  0.74660229  0.49660229  0.25000000  1
  K  K12  1  0.24660229  0.75339771  0.25000000  1
  K  K13  1  0.50339771  0.25339771  0.25000000  1
  K  K14  1  0.99660229  0.00339771  0.75000000  1
  K  K15  1  0.25339771  0.50339771  0.75000000  1
  Si  Si0  1  0.27141732  0.48500271  0.34838874  1
  Si  Si1  1  0.57697143  0.98500271  0.34838874  1
  Si  Si2  1  0.36338703  0.07697143  0.84838874  1
  Si  Si3  1  0.98500271  0.57697143  0.84838874  1
  Si  Si4  1  0.72858268  0.51499729  0.65161126  1
  Si  Si5  1  0.42302857  0.01499729  0.65161126  1
  Si  Si6  1  0.63661297  0.92302857  0.15161126  1
  Si  Si7  1  0.01499729  0.42302857  0.15161126  1
  Si  Si8  1  0.77141732  0.86338703  0.34838874  1
  Si  Si9  1  0.07697143  0.36338703  0.34838874  1
  Si  Si10  1  0.86338703  0.77141732  0.84838874  1
  Si  Si11  1  0.48500271  0.27141732  0.84838874  1
  Si  Si12  1  0.22858268  0.13661297  0.65161126  1
  Si  Si13  1  0.92302857  0.63661297  0.65161126  1
  Si  Si14  1  0.13661297  0.22858268  0.15161126  1
  Si  Si15  1  0.51499729  0.72858268  0.15161126  1
loop_
_geom_bond_atom_site_label_1
_geom_bond_atom_site_label_2
_geom_bond_distance
_geom_bond_site_symmetry_2
K0 Si2 3.490229 1_554
K0 Si14 3.490230 1_555
K0 Si0 3.516850 1_555
K0 Si12 3.516853 1_554
K0 Si11 3.572853 1_554
K0 Si7 3.572853 1_555
K0 Si15 3.644236 1_555
K0 Si3 3.644236 1_454
K1 Si3 3.490223 1_454
K1 Si15 3.490223 1_555
K1 Si1 3.516850 1_555
K1 Si13 3.516853 1_454
K1 Si10 3.572843 1_454
K1 Si6 3.572843 1_555
K1 Si14 3.644242 1_565
K1 Si2 3.644242 1_564
K2 Si5 3.490223 1_565
K2 Si0 3.490223 1_555
K2 Si7 3.516850 1_555
K2 Si2 3.516853 1_565
K2 Si12 3.572843 1_565
K2 Si9 3.572843 1_555
K2 Si8 3.644242 1_455
K2 Si13 3.644242 1_455
K3 Si1 3.490223 1_545
K3 Si4 3.490223 1_555
K3 Si3 3.516850 1_555
K3 Si6 3.516853 1_545
K3 Si8 3.572843 1_545
K3 Si13 3.572843 1_555
K3 Si12 3.644242 1_655
K3 Si9 3.644242 1_655
K4 Si6 3.490229 1_555
K4 Si10 3.490230 1_554
K4 Si4 3.516850 1_554
K4 Si8 3.516853 1_555
K4 Si15 3.572853 1_555
K4 Si3 3.572853 1_554
K4 Si11 3.644236 1_554
K4 Si7 3.644236 1_655
K5 Si7 3.490223 1_655
K5 Si11 3.490223 1_554
K5 Si5 3.516850 1_554
K5 Si9 3.516853 1_655
K5 Si14 3.572843 1_655
K5 Si2 3.572843 1_554
K5 Si10 3.644242 1_544
K5 Si6 3.644242 1_545
K6 Si13 3.490229 1_555
K6 Si8 3.490230 1_555
K6 Si15 3.516850 1_555
K6 Si10 3.516853 1_555
K6 Si4 3.572853 1_555
K6 Si1 3.572853 1_555
K6 Si0 3.644236 1_555
K6 Si5 3.644236 1_565
K7 Si9 3.490229 1_555
K7 Si12 3.490230 1_555
K7 Si11 3.516850 1_555
K7 Si14 3.516853 1_555
K7 Si0 3.572853 1_555
K7 Si5 3.572853 1_555
K7 Si4 3.644236 1_555
K7 Si1 3.644236 1_545
K8 Si11 3.476890 1_555
K8 Si4 3.476890 1_555
K8 Si7 3.526299 1_656
K8 Si1 3.526299 1_545
K8 Si5 3.647970 1_555
K8 Si3 3.647970 1_555
K9 Si5 3.476890 1_565
K9 Si10 3.476900 1_555
K9 Si0 3.526299 1_555
K9 Si6 3.526301 1_556
K9 Si2 3.647965 1_565
K9 Si4 3.647970 1_555
K10 Si9 3.476900 1_565
K10 Si6 3.476900 1_455
K10 Si12 3.526301 1_565
K10 Si10 3.526301 1_454
K10 Si14 3.647965 1_565
K10 Si8 3.647965 1_455
K11 Si7 3.476890 1_655
K11 Si8 3.476900 1_555
K11 Si11 3.526299 1_554
K11 Si13 3.526301 1_555
K11 Si9 3.647965 1_655
K11 Si15 3.647970 1_555
K12 Si0 3.476890 1_555
K12 Si15 3.476890 1_555
K12 Si3 3.526299 1_454
K12 Si5 3.526299 1_565
K12 Si7 3.647970 1_555
K12 Si1 3.647970 1_555
K13 Si1 3.476890 1_545
K13 Si14 3.476900 1_555
K13 Si4 3.526299 1_555
K13 Si2 3.526301 1_554
K13 Si6 3.647965 1_545
K13 Si0 3.647970 1_555
K14 Si13 3.476900 1_545
K14 Si2 3.476900 1_655
K14 Si14 3.526301 1_656
K14 Si8 3.526301 1_545
K14 Si12 3.647965 1_655
K14 Si10 3.647965 1_545
K15 Si3 3.476890 1_455
K15 Si12 3.476900 1_555
K15 Si15 3.526299 1_556
K15 Si9 3.526301 1_555
K15 Si13 3.647965 1_455
K15 Si11 3.647970 1_555
Si0 Si7 2.411944 1_555
Si0 Si14 2.411946 1_555
Si0 Si9 2.428033 1_555
Si1 Si6 2.411937 1_555
Si1 Si15 2.411944 1_555
Si1 Si8 2.428033 1_555
Si2 Si5 2.411937 1_555
Si3 Si4 2.411944 1_555
Si6 Si8 2.411939 1_555
Si7 Si9 2.411937 1_555
Si10 Si13 2.411939 1_555
Si10 Si4 2.411946 1_555
Si10 Si3 2.428033 1_555
Si11 Si5 2.411944 1_555
Si11 Si12 2.411946 1_555
Si11 Si2 2.428033 1_555
Si12 Si2 2.411939 1_555
Si12 Si5 2.428033 1_555
Si13 Si3 2.411937 1_555
Si13 Si4 2.428033 1_555
Si14 Si9 2.411939 1_555
Si14 Si7 2.428033 1_555
Si15 Si8 2.411946 1_555
Si15 Si6 2.428033 1_555
