# generated using pymatgen
data_Hf6Al2Ni
_symmetry_space_group_name_H-M   'P 1'
_cell_length_a   6.61566168
_cell_length_b   15.59602566
_cell_length_c   15.59596628
_cell_angle_alpha   119.99970335
_cell_angle_beta   89.99999710
_cell_angle_gamma   89.99999852
_symmetry_Int_Tables_number   1
_chemical_formula_structural   Hf6Al2Ni
_chemical_formula_sum   'Hf48 Al16 Ni8'
_cell_volume   1393.57852769
_cell_formula_units_Z   8
loop_
 _symmetry_equiv_pos_site_id
 _symmetry_equiv_pos_as_xyz
  1  'x, y, z'
loop_
 _atom_site_type_symbol
 _atom_site_label
 _atom_site_symmetry_multiplicity
 _atom_site_fract_x
 _atom_site_fract_y
 _atom_site_fract_z
 _atom_site_occupancy
  Hf  Hf0_0  1  0.25000051  0.37341463  0.37341025  1
  Hf  Hf0_1  1  0.25000051  0.37341463  0.87341025  1
  Hf  Hf0_2  1  0.25000051  0.87341463  0.37341025  1
  Hf  Hf0_3  1  0.25000051  0.87341463  0.87341025  1
  Hf  Hf0_4  1  0.75000051  0.37341463  0.37341025  1
  Hf  Hf0_5  1  0.75000051  0.37341463  0.87341026  1
  Hf  Hf0_6  1  0.75000051  0.87341463  0.37341025  1
  Hf  Hf0_7  1  0.75000051  0.87341463  0.87341025  1
  Hf  Hf1_0  1  0.25000064  0.00000129  0.12658019  1
  Hf  Hf1_1  1  0.25000064  0.00000129  0.62658018  1
  Hf  Hf1_2  1  0.25000064  0.50000129  0.12658018  1
  Hf  Hf1_3  1  0.25000064  0.50000129  0.62658018  1
  Hf  Hf1_4  1  0.75000063  0.00000129  0.12658019  1
  Hf  Hf1_5  1  0.75000063  0.00000129  0.62658018  1
  Hf  Hf1_6  1  0.75000064  0.50000129  0.12658018  1
  Hf  Hf1_7  1  0.75000063  0.50000129  0.62658018  1
  Hf  Hf2_0  1  0.25000065  0.12659001  0.99999704  1
  Hf  Hf2_1  1  0.25000065  0.12659001  0.49999704  1
  Hf  Hf2_2  1  0.25000065  0.62659001  0.99999704  1
  Hf  Hf2_3  1  0.25000065  0.62659001  0.49999704  1
  Hf  Hf2_4  1  0.75000064  0.12659001  0.99999704  1
  Hf  Hf2_5  1  0.75000064  0.12659001  0.49999704  1
  Hf  Hf2_6  1  0.75000064  0.62659001  0.99999704  1
  Hf  Hf2_7  1  0.75000065  0.62659001  0.49999704  1
  Hf  Hf3_0  1  0.00000060  0.19983017  0.19982434  1
  Hf  Hf3_1  1  0.00000060  0.19983017  0.69982434  1
  Hf  Hf3_2  1  0.00000060  0.69983017  0.19982434  1
  Hf  Hf3_3  1  0.00000060  0.69983017  0.69982434  1
  Hf  Hf3_4  1  0.50000060  0.19983017  0.19982434  1
  Hf  Hf3_5  1  0.50000060  0.19983017  0.69982435  1
  Hf  Hf3_6  1  0.50000060  0.69983017  0.19982434  1
  Hf  Hf3_7  1  0.50000060  0.69983017  0.69982434  1
  Hf  Hf4_0  1  0.00000053  0.00000189  0.30016373  1
  Hf  Hf4_1  1  0.00000053  0.00000189  0.80016373  1
  Hf  Hf4_2  1  0.00000053  0.50000189  0.30016373  1
  Hf  Hf4_3  1  0.00000053  0.50000189  0.80016373  1
  Hf  Hf4_4  1  0.50000053  0.00000189  0.30016373  1
  Hf  Hf4_5  1  0.50000053  0.00000189  0.80016373  1
  Hf  Hf4_6  1  0.50000054  0.50000189  0.30016373  1
  Hf  Hf4_7  1  0.50000053  0.50000189  0.80016373  1
  Hf  Hf5_0  1  0.00000042  0.30017464  0.99999616  1
  Hf  Hf5_1  1  0.00000042  0.30017464  0.49999616  1
  Hf  Hf5_2  1  0.00000042  0.80017464  0.99999616  1
  Hf  Hf5_3  1  0.00000042  0.80017464  0.49999616  1
  Hf  Hf5_4  1  0.50000042  0.30017464  0.99999616  1
  Hf  Hf5_5  1  0.50000042  0.30017464  0.49999616  1
  Hf  Hf5_6  1  0.50000042  0.80017464  0.99999616  1
  Hf  Hf5_7  1  0.50000042  0.80017464  0.49999616  1
  Al  Al0_0  1  0.25000046  0.33333581  0.16666207  1
  Al  Al0_1  1  0.25000046  0.33333581  0.66666207  1
  Al  Al0_2  1  0.25000046  0.83333581  0.16666207  1
  Al  Al0_3  1  0.25000046  0.83333581  0.66666207  1
  Al  Al0_4  1  0.75000046  0.33333581  0.16666207  1
  Al  Al0_5  1  0.75000046  0.33333581  0.66666207  1
  Al  Al0_6  1  0.75000046  0.83333581  0.16666208  1
  Al  Al0_7  1  0.75000046  0.83333581  0.66666207  1
  Al  Al1_0  1  0.25000047  0.16666828  0.33332857  1
  Al  Al1_1  1  0.25000047  0.16666828  0.83332857  1
  Al  Al1_2  1  0.25000047  0.66666828  0.33332857  1
  Al  Al1_3  1  0.25000047  0.66666828  0.83332857  1
  Al  Al1_4  1  0.75000047  0.16666828  0.33332857  1
  Al  Al1_5  1  0.75000047  0.16666828  0.83332857  1
  Al  Al1_6  1  0.75000047  0.66666828  0.33332857  1
  Al  Al1_7  1  0.75000047  0.66666828  0.83332857  1
  Ni  Ni0_0  1  0.99999571  0.99998380  0.00003764  1
  Ni  Ni0_1  1  0.99999571  0.99998380  0.50003763  1
  Ni  Ni0_2  1  0.99999571  0.49998379  0.00003764  1
  Ni  Ni0_3  1  0.99999571  0.49998380  0.50003763  1
  Ni  Ni0_4  1  0.49999571  0.99998380  0.00003763  1
  Ni  Ni0_5  1  0.49999571  0.99998380  0.50003763  1
  Ni  Ni0_6  1  0.49999571  0.49998379  0.00003763  1
  Ni  Ni0_7  1  0.49999571  0.49998380  0.50003763  1
loop_
_geom_bond_atom_site_label_1
_geom_bond_atom_site_label_2
_geom_bond_distance
_geom_bond_site_symmetry_2
Hf0_0 Ni0_7 2.575602 1_555
Hf0_0 Ni0_3 2.575643 1_455
Hf0_0 Hf3_0 3.172478 1_555
Hf0_0 Hf3_4 3.172478 1_555
Hf0_0 Hf5_5 3.192618 1_555
Hf0_0 Hf5_1 3.192618 1_555
Hf0_0 Hf4_2 3.192706 1_555
Hf0_0 Hf4_6 3.192706 1_555
Hf0_1 Ni0_6 2.575602 1_556
Hf0_1 Ni0_2 2.575643 1_456
Hf0_1 Hf3_1 3.172478 1_555
Hf0_1 Hf3_5 3.172478 1_555
Hf0_1 Hf5_4 3.192618 1_555
Hf0_1 Hf5_0 3.192618 1_555
Hf0_1 Hf4_3 3.192706 1_555
Hf0_1 Hf4_7 3.192706 1_555
Hf0_2 Ni0_5 2.575602 1_555
Hf0_2 Ni0_1 2.575643 1_455
Hf0_2 Hf3_2 3.172478 1_555
Hf0_2 Hf3_6 3.172478 1_555
Hf0_2 Hf5_7 3.192618 1_555
Hf0_2 Hf5_3 3.192618 1_555
Hf0_2 Hf4_0 3.192706 1_565
Hf0_2 Hf4_4 3.192706 1_565
Hf0_3 Ni0_4 2.575602 1_556
Hf0_3 Ni0_0 2.575643 1_456
Hf0_3 Hf3_3 3.172478 1_555
Hf0_3 Hf3_7 3.172478 1_555
Hf0_3 Hf5_6 3.192618 1_555
Hf0_3 Hf5_2 3.192618 1_555
Hf0_3 Hf4_1 3.192706 1_565
Hf0_3 Hf4_5 3.192706 1_565
Hf0_4 Ni0_3 2.575602 1_555
Hf0_4 Ni0_7 2.575643 1_555
Hf0_4 Hf3_4 3.172478 1_555
Hf0_4 Hf3_0 3.172478 1_655
Hf0_4 Hf5_1 3.192618 1_655
Hf0_4 Hf5_5 3.192618 1_555
Hf0_4 Hf4_6 3.192706 1_555
Hf0_4 Hf4_2 3.192706 1_655
Hf0_5 Ni0_2 2.575602 1_556
Hf0_5 Ni0_6 2.575643 1_556
Hf0_5 Hf3_5 3.172478 1_555
Hf0_5 Hf3_1 3.172478 1_655
Hf0_5 Hf5_0 3.192618 1_655
Hf0_5 Hf5_4 3.192618 1_555
Hf0_5 Hf4_7 3.192706 1_555
Hf0_5 Hf4_3 3.192706 1_655
Hf0_6 Ni0_1 2.575602 1_555
Hf0_6 Ni0_5 2.575643 1_555
Hf0_6 Hf3_6 3.172478 1_555
Hf0_6 Hf3_2 3.172478 1_655
Hf0_6 Hf5_3 3.192618 1_655
Hf0_6 Hf5_7 3.192618 1_555
Hf0_6 Hf4_4 3.192706 1_565
Hf0_6 Hf4_0 3.192706 1_665
Hf0_7 Ni0_0 2.575602 1_556
Hf0_7 Ni0_4 2.575643 1_556
Hf0_7 Hf3_7 3.172478 1_555
Hf0_7 Hf3_3 3.172478 1_655
Hf0_7 Hf5_2 3.192618 1_655
Hf0_7 Hf5_6 3.192618 1_555
Hf0_7 Hf4_5 3.192706 1_565
Hf0_7 Hf4_1 3.192706 1_665
Hf1_0 Ni0_4 2.574821 1_545
Hf1_0 Ni0_0 2.574863 1_445
Hf1_0 Hf4_4 3.172437 1_555
Hf1_0 Hf4_0 3.172438 1_555
Hf1_0 Hf5_6 3.192638 1_544
Hf1_0 Hf5_2 3.192640 1_544
Hf1_0 Hf3_4 3.192661 1_555
Hf1_0 Hf3_0 3.192661 1_555
Hf1_1 Ni0_5 2.574821 1_545
Hf1_1 Ni0_1 2.574863 1_445
Hf1_1 Hf4_5 3.172437 1_555
Hf1_1 Hf4_1 3.172438 1_555
Hf1_1 Hf5_7 3.192638 1_545
Hf1_1 Hf5_3 3.192640 1_545
Hf1_1 Hf3_5 3.192661 1_555
Hf1_1 Hf3_1 3.192661 1_555
Hf1_2 Ni0_6 2.574821 1_555
Hf1_2 Ni0_2 2.574863 1_455
Hf1_2 Hf4_6 3.172437 1_555
Hf1_2 Hf4_2 3.172438 1_555
Hf1_2 Hf5_4 3.192638 1_554
Hf1_2 Hf5_0 3.192640 1_554
Hf1_2 Hf3_6 3.192661 1_555
Hf1_2 Hf3_2 3.192661 1_555
Hf1_3 Ni0_7 2.574821 1_555
Hf1_3 Ni0_3 2.574863 1_455
Hf1_3 Hf4_7 3.172437 1_555
Hf1_3 Hf4_3 3.172438 1_555
Hf1_3 Hf5_5 3.192638 1_555
Hf1_3 Hf5_1 3.192640 1_555
Hf1_3 Hf3_7 3.192661 1_555
Hf1_3 Hf3_3 3.192661 1_555
Hf1_4 Ni0_0 2.574821 1_545
Hf1_4 Ni0_4 2.574863 1_545
Hf1_4 Hf4_0 3.172437 1_655
Hf1_4 Hf4_4 3.172438 1_555
Hf1_4 Hf5_2 3.192638 1_644
Hf1_4 Hf5_6 3.192640 1_544
Hf1_4 Hf3_0 3.192661 1_655
Hf1_4 Hf3_4 3.192661 1_555
Hf1_5 Ni0_1 2.574821 1_545
Hf1_5 Ni0_5 2.574863 1_545
Hf1_5 Hf4_1 3.172437 1_655
Hf1_5 Hf4_5 3.172438 1_555
Hf1_5 Hf5_3 3.192638 1_645
Hf1_5 Hf5_7 3.192640 1_545
Hf1_5 Hf3_1 3.192661 1_655
Hf1_5 Hf3_5 3.192661 1_555
Hf1_6 Ni0_2 2.574821 1_555
Hf1_6 Ni0_6 2.574863 1_555
Hf1_6 Hf4_2 3.172437 1_655
Hf1_6 Hf4_6 3.172438 1_555
Hf1_6 Hf5_0 3.192638 1_654
Hf1_6 Hf5_4 3.192640 1_554
Hf1_6 Hf3_2 3.192661 1_655
Hf1_6 Hf3_6 3.192661 1_555
Hf1_7 Ni0_3 2.574821 1_555
Hf1_7 Ni0_7 2.574863 1_555
Hf1_7 Hf4_3 3.172437 1_655
Hf1_7 Hf4_7 3.172438 1_555
Hf1_7 Hf5_1 3.192638 1_655
Hf1_7 Hf5_5 3.192640 1_555
Hf1_7 Hf3_3 3.192661 1_655
Hf1_7 Hf3_7 3.192661 1_555
Hf2_0 Ni0_4 2.575935 1_546
Hf2_0 Ni0_0 2.575977 1_446
Hf2_0 Hf5_4 3.172470 1_555
Hf2_0 Hf5_0 3.172471 1_555
Hf2_0 Hf3_4 3.192640 1_556
Hf2_0 Hf3_0 3.192640 1_556
Hf2_0 Hf4_5 3.192709 1_555
Hf2_0 Hf4_1 3.192710 1_555
Hf2_1 Ni0_5 2.575935 1_545
Hf2_1 Ni0_1 2.575977 1_445
Hf2_1 Hf5_5 3.172470 1_555
Hf2_1 Hf5_1 3.172471 1_555
Hf2_1 Hf3_5 3.192640 1_555
Hf2_1 Hf3_1 3.192640 1_555
Hf2_1 Hf4_4 3.192709 1_555
Hf2_1 Hf4_0 3.192710 1_555
Hf2_2 Ni0_6 2.575935 1_556
Hf2_2 Ni0_2 2.575977 1_456
Hf2_2 Hf5_6 3.172470 1_555
Hf2_2 Hf5_2 3.172471 1_555
Hf2_2 Hf3_6 3.192640 1_556
Hf2_2 Hf3_2 3.192640 1_556
Hf2_2 Hf4_7 3.192709 1_555
Hf2_2 Hf4_3 3.192710 1_555
Hf2_3 Ni0_7 2.575935 1_555
Hf2_3 Ni0_3 2.575977 1_455
Hf2_3 Hf5_7 3.172470 1_555
Hf2_3 Hf5_3 3.172471 1_555
Hf2_3 Hf3_7 3.192640 1_555
Hf2_3 Hf3_3 3.192640 1_555
Hf2_3 Hf4_6 3.192709 1_555
Hf2_3 Hf4_2 3.192710 1_555
Hf2_4 Ni0_0 2.575935 1_546
Hf2_4 Ni0_4 2.575977 1_546
Hf2_4 Hf5_0 3.172470 1_655
Hf2_4 Hf5_4 3.172471 1_555
Hf2_4 Hf3_0 3.192640 1_656
Hf2_4 Hf3_4 3.192640 1_556
Hf2_4 Hf4_1 3.192709 1_655
Hf2_4 Hf4_5 3.192710 1_555
Hf2_5 Ni0_1 2.575935 1_545
Hf2_5 Ni0_5 2.575977 1_545
Hf2_5 Hf5_1 3.172470 1_655
Hf2_5 Hf5_5 3.172471 1_555
Hf2_5 Hf3_1 3.192640 1_655
Hf2_5 Hf3_5 3.192640 1_555
Hf2_5 Hf4_0 3.192709 1_655
Hf2_5 Hf4_4 3.192710 1_555
Hf2_6 Ni0_2 2.575935 1_556
Hf2_6 Ni0_6 2.575977 1_556
Hf2_6 Hf5_2 3.172470 1_655
Hf2_6 Hf5_6 3.172471 1_555
Hf2_6 Hf3_2 3.192640 1_656
Hf2_6 Hf3_6 3.192640 1_556
Hf2_6 Hf4_3 3.192709 1_655
Hf2_6 Hf4_7 3.192710 1_555
Hf2_7 Ni0_3 2.575935 1_555
Hf2_7 Ni0_7 2.575977 1_555
Hf2_7 Hf5_3 3.172470 1_655
Hf2_7 Hf5_7 3.172471 1_555
Hf2_7 Hf3_3 3.192640 1_655
Hf2_7 Hf3_7 3.192640 1_555
Hf2_7 Hf4_2 3.192709 1_655
Hf2_7 Hf4_6 3.192710 1_555
Hf3_0 Ni0_0 3.116352 1_445
Hf3_0 Hf3_4 3.307831 1_455
Hf3_0 Hf3_4 3.307831 1_555
Hf3_1 Ni0_1 3.116352 1_445
Hf3_1 Hf3_5 3.307831 1_555
Hf3_1 Hf3_5 3.307831 1_455
Hf3_2 Ni0_2 3.116352 1_455
Hf3_2 Hf3_6 3.307831 1_455
Hf3_2 Hf3_6 3.307831 1_555
Hf3_3 Ni0_3 3.116352 1_455
Hf3_3 Hf3_7 3.307831 1_455
Hf3_3 Hf3_7 3.307831 1_555
Hf3_4 Ni0_4 3.116352 1_545
Hf3_5 Ni0_5 3.116352 1_545
Hf3_6 Ni0_6 3.116352 1_555
Hf3_7 Ni0_7 3.116352 1_555
Hf4_0 Ni0_1 3.117368 1_445
Hf4_0 Hf4_4 3.307831 1_555
Hf4_0 Hf4_4 3.307831 1_455
Hf4_1 Ni0_0 3.117368 1_446
Hf4_1 Hf4_5 3.307831 1_555
Hf4_1 Hf4_5 3.307831 1_455
Hf4_2 Ni0_3 3.117368 1_455
Hf4_2 Hf4_6 3.307831 1_455
Hf4_2 Hf4_6 3.307831 1_555
Hf4_3 Ni0_2 3.117368 1_456
Hf4_3 Hf4_7 3.307831 1_555
Hf4_3 Hf4_7 3.307831 1_455
Hf4_4 Ni0_5 3.117368 1_545
Hf4_5 Ni0_4 3.117368 1_546
Hf4_6 Ni0_7 3.117368 1_555
Hf4_7 Ni0_6 3.117368 1_556
Hf5_0 Ni0_2 3.115905 1_456
Hf5_0 Hf5_4 3.307831 1_555
Hf5_0 Hf5_4 3.307831 1_455
Hf5_1 Ni0_3 3.115905 1_455
Hf5_1 Hf5_5 3.307831 1_555
Hf5_1 Hf5_5 3.307831 1_455
Hf5_2 Ni0_0 3.115905 1_456
Hf5_2 Hf5_6 3.307831 1_555
Hf5_2 Hf5_6 3.307831 1_455
Hf5_3 Ni0_1 3.115905 1_455
Hf5_3 Hf5_7 3.307831 1_555
Hf5_3 Hf5_7 3.307831 1_455
Hf5_4 Ni0_6 3.115905 1_556
Hf5_5 Ni0_7 3.115905 1_555
Hf5_6 Ni0_4 3.115905 1_556
Hf5_7 Ni0_5 3.115905 1_555
Al0_0 Hf5_4 2.900870 1_554
Al0_0 Hf4_2 2.900871 1_555
Al0_0 Hf5_0 2.900871 1_554
Al0_0 Hf4_6 2.900871 1_555
Al0_0 Hf3_0 2.900894 1_555
Al0_0 Hf3_4 2.900895 1_555
Al0_0 Hf2_0 2.961767 1_554
Al0_0 Hf1_2 2.961772 1_555
Al0_0 Hf0_0 2.961795 1_555
Al0_1 Hf5_5 2.900870 1_555
Al0_1 Hf4_3 2.900871 1_555
Al0_1 Hf5_1 2.900871 1_555
Al0_1 Hf4_7 2.900871 1_555
Al0_1 Hf3_1 2.900894 1_555
Al0_1 Hf3_5 2.900895 1_555
Al0_1 Hf2_1 2.961767 1_555
Al0_1 Hf1_3 2.961772 1_555
Al0_1 Hf0_1 2.961795 1_555
Al0_2 Hf5_6 2.900870 1_554
Al0_2 Hf4_0 2.900871 1_565
Al0_2 Hf5_2 2.900871 1_554
Al0_2 Hf4_4 2.900871 1_565
Al0_2 Hf3_2 2.900894 1_555
Al0_2 Hf3_6 2.900895 1_555
Al0_2 Hf2_2 2.961767 1_554
Al0_2 Hf1_0 2.961772 1_565
Al0_2 Hf0_2 2.961795 1_555
Al0_3 Hf5_7 2.900870 1_555
Al0_3 Hf4_1 2.900871 1_565
Al0_3 Hf5_3 2.900871 1_555
Al0_3 Hf4_5 2.900871 1_565
Al0_3 Hf3_3 2.900894 1_555
Al0_3 Hf3_7 2.900895 1_555
Al0_3 Hf2_3 2.961767 1_555
Al0_3 Hf1_1 2.961772 1_565
Al0_3 Hf0_3 2.961795 1_555
Al0_4 Hf5_0 2.900870 1_654
Al0_4 Hf4_6 2.900871 1_555
Al0_4 Hf5_4 2.900871 1_554
Al0_4 Hf4_2 2.900871 1_655
Al0_4 Hf3_4 2.900894 1_555
Al0_4 Hf3_0 2.900895 1_655
Al0_4 Hf2_4 2.961767 1_554
Al0_4 Hf1_6 2.961772 1_555
Al0_4 Hf0_4 2.961795 1_555
Al0_5 Hf5_1 2.900870 1_655
Al0_5 Hf4_7 2.900871 1_555
Al0_5 Hf5_5 2.900871 1_555
Al0_5 Hf4_3 2.900871 1_655
Al0_5 Hf3_5 2.900894 1_555
Al0_5 Hf3_1 2.900895 1_655
Al0_5 Hf2_5 2.961767 1_555
Al0_5 Hf1_7 2.961772 1_555
Al0_5 Hf0_5 2.961795 1_555
Al0_6 Hf5_2 2.900870 1_654
Al0_6 Hf4_4 2.900871 1_565
Al0_6 Hf5_6 2.900871 1_554
Al0_6 Hf4_0 2.900871 1_665
Al0_6 Hf3_6 2.900894 1_555
Al0_6 Hf3_2 2.900895 1_655
Al0_6 Hf2_6 2.961767 1_554
Al0_6 Hf1_4 2.961772 1_565
Al0_6 Hf0_6 2.961795 1_555
Al0_7 Hf5_3 2.900870 1_655
Al0_7 Hf4_5 2.900871 1_565
Al0_7 Hf5_7 2.900871 1_555
Al0_7 Hf4_1 2.900871 1_665
Al0_7 Hf3_7 2.900894 1_555
Al0_7 Hf3_3 2.900895 1_655
Al0_7 Hf2_7 2.961767 1_555
Al0_7 Hf1_5 2.961772 1_565
Al0_7 Hf0_7 2.961795 1_555
Al1_0 Hf3_0 2.900867 1_555
Al1_0 Hf3_4 2.900868 1_555
Al1_0 Hf4_0 2.900869 1_555
Al1_0 Hf4_4 2.900870 1_555
Al1_0 Hf5_5 2.900900 1_555
Al1_0 Hf5_1 2.900900 1_555
Al1_0 Hf0_0 2.961765 1_555
Al1_0 Hf2_1 2.961773 1_555
Al1_0 Hf1_0 2.961798 1_555
Al1_1 Hf3_1 2.900867 1_555
Al1_1 Hf3_5 2.900868 1_555
Al1_1 Hf4_1 2.900869 1_555
Al1_1 Hf4_5 2.900870 1_555
Al1_1 Hf5_4 2.900900 1_555
Al1_1 Hf5_0 2.900900 1_555
Al1_1 Hf0_1 2.961765 1_555
Al1_1 Hf2_0 2.961773 1_555
Al1_1 Hf1_1 2.961798 1_555
Al1_2 Hf3_2 2.900867 1_555
Al1_2 Hf3_6 2.900868 1_555
Al1_2 Hf4_2 2.900869 1_555
Al1_2 Hf4_6 2.900870 1_555
Al1_2 Hf5_7 2.900900 1_555
Al1_2 Hf5_3 2.900900 1_555
Al1_2 Hf0_2 2.961765 1_555
Al1_2 Hf2_3 2.961773 1_555
Al1_2 Hf1_2 2.961798 1_555
Al1_3 Hf3_3 2.900867 1_555
Al1_3 Hf3_7 2.900868 1_555
Al1_3 Hf4_3 2.900869 1_555
Al1_3 Hf4_7 2.900870 1_555
Al1_3 Hf5_6 2.900900 1_555
Al1_3 Hf5_2 2.900900 1_555
Al1_3 Hf0_3 2.961765 1_555
Al1_3 Hf2_2 2.961773 1_555
Al1_3 Hf1_3 2.961798 1_555
Al1_4 Hf3_4 2.900867 1_555
Al1_4 Hf3_0 2.900868 1_655
Al1_4 Hf4_4 2.900869 1_555
Al1_4 Hf4_0 2.900870 1_655
Al1_4 Hf5_1 2.900900 1_655
Al1_4 Hf5_5 2.900900 1_555
Al1_4 Hf0_4 2.961765 1_555
Al1_4 Hf2_5 2.961773 1_555
Al1_4 Hf1_4 2.961798 1_555
Al1_5 Hf3_5 2.900867 1_555
Al1_5 Hf3_1 2.900868 1_655
Al1_5 Hf4_5 2.900869 1_555
Al1_5 Hf4_1 2.900870 1_655
Al1_5 Hf5_0 2.900900 1_655
Al1_5 Hf5_4 2.900900 1_555
Al1_5 Hf0_5 2.961765 1_555
Al1_5 Hf2_4 2.961773 1_555
Al1_5 Hf1_5 2.961798 1_555
Al1_6 Hf3_6 2.900867 1_555
Al1_6 Hf3_2 2.900868 1_655
Al1_6 Hf4_6 2.900869 1_555
Al1_6 Hf4_2 2.900870 1_655
Al1_6 Hf5_3 2.900900 1_655
Al1_6 Hf5_7 2.900900 1_555
Al1_6 Hf0_6 2.961765 1_555
Al1_6 Hf2_7 2.961773 1_555
Al1_6 Hf1_6 2.961798 1_555
Al1_7 Hf3_7 2.900867 1_555
Al1_7 Hf3_3 2.900868 1_655
Al1_7 Hf4_7 2.900869 1_555
Al1_7 Hf4_3 2.900870 1_655
Al1_7 Hf5_2 2.900900 1_655
Al1_7 Hf5_6 2.900900 1_555
Al1_7 Hf0_7 2.961765 1_555
Al1_7 Hf2_6 2.961773 1_555
Al1_7 Hf1_7 2.961798 1_555
