# generated using pymatgen
data_Nd9Ga4
_symmetry_space_group_name_H-M   'P 1'
_cell_length_a   5.17085616
_cell_length_b   8.93040709
_cell_length_c   8.93040709
_cell_angle_alpha   85.19210255
_cell_angle_beta   73.17146458
_cell_angle_gamma   73.17146458
_symmetry_Int_Tables_number   1
_chemical_formula_structural   Nd9Ga4
_chemical_formula_sum   'Nd9 Ga4'
_cell_volume   377.82270638
_cell_formula_units_Z   1
loop_
 _symmetry_equiv_pos_site_id
 _symmetry_equiv_pos_as_xyz
  1  'x, y, z'
loop_
 _atom_site_type_symbol
 _atom_site_label
 _atom_site_symmetry_multiplicity
 _atom_site_fract_x
 _atom_site_fract_y
 _atom_site_fract_z
 _atom_site_occupancy
  Nd  Nd0  1  0.09327708  0.27737434  0.53607050  1
  Nd  Nd1  1  0.90672292  0.72262566  0.46392950  1
  Nd  Nd2  1  0.62934758  0.46392950  0.27737434  1
  Nd  Nd3  1  0.37065242  0.53607050  0.72262566  1
  Nd  Nd4  1  -0.00000000  0.00000000  -0.00000000  1
  Nd  Nd5  1  0.38655120  0.92816614  0.29873145  1
  Nd  Nd6  1  0.61344880  0.07183386  0.70126855  1
  Nd  Nd7  1  0.68528265  0.70126855  0.92816614  1
  Nd  Nd8  1  0.31471735  0.29873145  0.07183386  1
  Ga  Ga0  1  0.23054707  0.88262170  0.65628616  1
  Ga  Ga1  1  0.76945293  0.11737830  0.34371384  1
  Ga  Ga2  1  0.88683223  0.34371384  0.88262170  1
  Ga  Ga3  1  0.11316777  0.65628616  0.11737830  1
loop_
_geom_bond_atom_site_label_1
_geom_bond_atom_site_label_2
_geom_bond_distance
_geom_bond_site_symmetry_2
Nd0 Nd6 3.430067 1_455
Nd0 Nd6 3.430070 1_555
Nd0 Nd5 3.609188 1_545
Nd0 Nd3 3.757304 1_455
Nd0 Nd2 3.757308 1_555
Nd0 Nd2 3.757308 1_455
Nd0 Nd3 3.757312 1_555
Nd0 Nd1 3.855626 1_455
Nd0 Nd8 3.972476 1_555
Nd1 Nd5 3.430067 1_655
Nd1 Nd5 3.430070 1_555
Nd1 Nd6 3.609188 1_565
Nd1 Nd2 3.757304 1_655
Nd1 Nd3 3.757308 1_555
Nd1 Nd3 3.757308 1_655
Nd1 Nd2 3.757312 1_555
Nd1 Nd7 3.972476 1_555
Nd2 Nd8 3.430067 1_555
Nd2 Nd8 3.430070 1_655
Nd2 Nd7 3.609188 1_554
Nd2 Nd3 3.855626 1_555
Nd2 Nd5 3.972476 1_555
Nd3 Nd7 3.430067 1_555
Nd3 Nd7 3.430070 1_455
Nd3 Nd8 3.609188 1_556
Nd3 Nd6 3.972476 1_555
Nd4 Nd7 3.685386 1_544
Nd4 Nd8 3.685386 1_455
Nd4 Nd6 3.685386 1_554
Nd4 Nd5 3.685386 1_445
Nd4 Nd5 3.685387 1_545
Nd4 Nd6 3.685387 1_454
Nd4 Nd7 3.685387 1_444
Nd4 Nd8 3.685387 1_555
Nd5 Nd8 3.714199 1_565
Nd5 Nd7 3.714199 1_554
Nd6 Nd7 3.714199 1_545
Nd6 Nd8 3.714199 1_556
Ga0 Nd3 3.016096 1_555
Ga0 Nd6 3.073788 1_565
Ga0 Nd6 3.073797 1_465
Ga0 Nd5 3.081061 1_555
Ga0 Nd4 3.104652 1_566
Ga0 Nd1 3.355361 1_555
Ga0 Nd1 3.355366 1_455
Ga0 Nd0 3.527333 1_565
Ga0 Nd7 3.806390 1_555
Ga0 Nd7 3.806397 1_455
Ga1 Nd2 3.016096 1_555
Ga1 Nd5 3.073788 1_545
Ga1 Nd5 3.073797 1_645
Ga1 Nd6 3.081061 1_555
Ga1 Nd4 3.104652 1_655
Ga1 Nd0 3.355361 1_555
Ga1 Nd0 3.355366 1_655
Ga1 Nd1 3.527333 1_545
Ga1 Nd8 3.806390 1_555
Ga1 Nd8 3.806397 1_655
Ga2 Nd0 3.016096 1_655
Ga2 Nd8 3.073792 1_556
Ga2 Nd8 3.073793 1_656
Ga2 Nd7 3.081061 1_555
Ga2 Nd4 3.104652 1_656
Ga2 Nd3 3.355362 1_555
Ga2 Nd3 3.355366 1_655
Ga2 Nd2 3.527333 1_556
Ga2 Nd6 3.806393 1_655
Ga2 Nd6 3.806394 1_555
Ga3 Nd1 3.016096 1_455
Ga3 Nd7 3.073792 1_554
Ga3 Nd7 3.073793 1_454
Ga3 Nd8 3.081061 1_555
Ga3 Nd4 3.104652 1_565
Ga3 Nd2 3.355362 1_555
Ga3 Nd2 3.355366 1_455
Ga3 Nd3 3.527333 1_554
Ga3 Nd5 3.806393 1_455
Ga3 Nd5 3.806394 1_555
