# generated using pymatgen
data_Zn
_symmetry_space_group_name_H-M   'P 1'
_cell_length_a   11.71499034
_cell_length_b   11.82686821
_cell_length_c   11.71820401
_cell_angle_alpha   94.83704608
_cell_angle_beta   93.07304338
_cell_angle_gamma   86.61702080
_symmetry_Int_Tables_number   1
_chemical_formula_structural   Zn
_chemical_formula_sum   Zn100
_cell_volume   1613.04359491
_cell_formula_units_Z   100
loop_
 _symmetry_equiv_pos_site_id
 _symmetry_equiv_pos_as_xyz
  1  'x, y, z'
loop_
 _atom_site_type_symbol
 _atom_site_label
 _atom_site_symmetry_multiplicity
 _atom_site_fract_x
 _atom_site_fract_y
 _atom_site_fract_z
 _atom_site_occupancy
  Zn  Zn0  1  0.94828505  0.64691382  0.59430312  1
  Zn  Zn1  1  0.29127390  0.10875728  0.10026425  1
  Zn  Zn2  1  0.96441145  0.21773521  0.40793514  1
  Zn  Zn3  1  0.26946624  0.62516613  0.24073374  1
  Zn  Zn4  1  0.22515427  0.12973642  0.45322361  1
  Zn  Zn5  1  0.43361617  0.87898816  0.64580411  1
  Zn  Zn6  1  0.62423240  0.90121675  0.13737925  1
  Zn  Zn7  1  0.17105049  0.19099301  0.81274440  1
  Zn  Zn8  1  0.27093690  0.30537844  0.99850840  1
  Zn  Zn9  1  0.54120520  0.75588208  0.46692930  1
  Zn  Zn10  1  0.67231985  0.32108430  0.52119081  1
  Zn  Zn11  1  0.53290318  0.30486669  0.20149770  1
  Zn  Zn12  1  0.21298177  0.73014148  0.93081224  1
  Zn  Zn13  1  0.10538581  0.10077827  0.23630872  1
  Zn  Zn14  1  0.62998740  0.22264384  0.86704282  1
  Zn  Zn15  1  0.74551975  0.72905158  0.55501388  1
  Zn  Zn16  1  0.04673688  0.34678675  0.92026470  1
  Zn  Zn17  1  0.44173794  0.95300875  0.00791504  1
  Zn  Zn18  1  0.29916135  0.99384385  0.28581582  1
  Zn  Zn19  1  0.68870326  0.62986399  0.32902142  1
  Zn  Zn20  1  0.87724519  0.30949368  0.60871552  1
  Zn  Zn21  1  0.56300427  0.59059496  0.94282108  1
  Zn  Zn22  1  0.32764550  0.40573296  0.21764449  1
  Zn  Zn23  1  0.04897480  0.89093097  0.96606233  1
  Zn  Zn24  1  0.08074918  0.79499931  0.52203077  1
  Zn  Zn25  1  0.91802340  0.48849143  0.76516779  1
  Zn  Zn26  1  0.90613127  0.20689405  0.18424895  1
  Zn  Zn27  1  0.52283695  0.68175450  0.70957401  1
  Zn  Zn28  1  0.08002115  0.56202523  0.90018181  1
  Zn  Zn29  1  0.14264134  0.41215110  0.73070817  1
  Zn  Zn30  1  0.59785238  0.54073339  0.54647122  1
  Zn  Zn31  1  0.70141439  0.20054932  0.08249650  1
  Zn  Zn32  1  0.93666942  0.07821645  0.82076216  1
  Zn  Zn33  1  0.19146599  0.82028290  0.72737593  1
  Zn  Zn34  1  0.89594925  0.40980431  0.29835230  1
  Zn  Zn35  1  0.07537014  0.53662968  0.28897273  1
  Zn  Zn36  1  0.74499682  0.63925174  0.76906338  1
  Zn  Zn37  1  0.48294389  0.36349691  0.98737815  1
  Zn  Zn38  1  0.69121324  0.68612123  0.11277369  1
  Zn  Zn39  1  0.72720070  0.20646461  0.32392272  1
  Zn  Zn40  1  0.89031363  0.38085993  0.06877429  1
  Zn  Zn41  1  0.30914411  0.71832271  0.48917679  1
  Zn  Zn42  1  0.51430791  0.26580642  0.65837866  1
  Zn  Zn43  1  0.86801508  0.67795227  0.97290753  1
  Zn  Zn44  1  0.15096367  0.80423583  0.30985295  1
  Zn  Zn45  1  0.86891273  0.02958047  0.04871311  1
  Zn  Zn46  1  0.89055107  0.58925266  0.16459355  1
  Zn  Zn47  1  0.15315973  0.32150594  0.35951803  1
  Zn  Zn48  1  0.42861382  0.14669333  0.91932721  1
  Zn  Zn49  1  0.24528662  0.50890134  0.43186316  1
  Zn  Zn50  1  0.16733915  0.61037630  0.63575008  1
  Zn  Zn51  1  0.99224732  0.72970745  0.80027098  1
  Zn  Zn52  1  0.39372552  0.80099703  0.84411941  1
  Zn  Zn53  1  0.45929219  0.96009519  0.43402326  1
  Zn  Zn54  1  0.67118534  0.42033348  0.33182494  1
  Zn  Zn55  1  0.46303736  0.57759207  0.34343151  1
  Zn  Zn56  1  0.36304780  0.20814523  0.30933496  1
  Zn  Zn57  1  0.23335913  0.87477861  0.10839545  1
  Zn  Zn58  1  0.08090335  0.10990291  0.00027407  1
  Zn  Zn59  1  0.94200580  0.85006854  0.16541152  1
  Zn  Zn60  1  0.93020722  0.69101008  0.37261370  1
  Zn  Zn61  1  0.83489359  0.87867501  0.88315969  1
  Zn  Zn62  1  0.29546824  0.31447917  0.56083684  1
  Zn  Zn63  1  0.08639742  0.69443896  0.10579079  1
  Zn  Zn64  1  0.38372837  0.53356310  0.59946364  1
  Zn  Zn65  1  0.45880725  0.37728263  0.43305586  1
  Zn  Zn66  1  0.40884105  0.79596332  0.27575461  1
  Zn  Zn67  1  0.51706594  0.09304788  0.17756898  1
  Zn  Zn68  1  0.86632127  0.02586863  0.28641848  1
  Zn  Zn69  1  0.76057680  0.81785635  0.28678709  1
  Zn  Zn70  1  0.63335801  0.79110547  0.92895283  1
  Zn  Zn71  1  0.71529290  0.41448196  0.72969439  1
  Zn  Zn72  1  0.54433883  0.05508602  0.73587813  1
  Zn  Zn73  1  0.35683647  0.55307600  0.03585577  1
  Zn  Zn74  1  0.08947688  0.23015931  0.60372697  1
  Zn  Zn75  1  0.66290133  0.86314884  0.73387085  1
  Zn  Zn76  1  0.25332075  0.92892998  0.51854246  1
  Zn  Zn77  1  0.69679103  0.41287823  0.97049734  1
  Zn  Zn78  1  0.81289046  0.50041426  0.49366057  1
  Zn  Zn79  1  0.33824119  0.10416999  0.66229043  1
  Zn  Zn80  1  0.50933907  0.46207422  0.77083688  1
  Zn  Zn81  1  0.05541124  0.98960153  0.41166882  1
  Zn  Zn82  1  0.03411737  0.44392887  0.51930877  1
  Zn  Zn83  1  0.25424581  0.99118463  0.87226594  1
  Zn  Zn84  1  0.86579081  0.89718735  0.46448867  1
  Zn  Zn85  1  0.84728947  0.27964266  0.85383703  1
  Zn  Zn86  1  0.72943162  0.15253855  0.67660768  1
  Zn  Zn87  1  0.34749105  0.32165793  0.79101897  1
  Zn  Zn88  1  0.57652188  0.51139567  0.14948244  1
  Zn  Zn89  1  0.90385811  0.89134441  0.67985463  1
  Zn  Zn90  1  0.53832038  0.16079930  0.45987796  1
  Zn  Zn91  1  0.44877519  0.74783445  0.06582295  1
  Zn  Zn92  1  0.66074214  0.95596889  0.54861969  1
  Zn  Zn93  1  0.91359842  0.08660290  0.57892893  1
  Zn  Zn94  1  0.65617240  0.01591528  0.94328708  1
  Zn  Zn95  1  0.65215377  0.00798572  0.33947529  1
  Zn  Zn96  1  0.30766535  0.56057047  0.81151382  1
  Zn  Zn97  1  0.10179734  0.29639034  0.14313975  1
  Zn  Zn98  1  0.11213416  0.01859799  0.67660793  1
  Zn  Zn99  1  0.15673558  0.48599443  0.08263275  1
loop_
_geom_bond_atom_site_label_1
_geom_bond_atom_site_label_2
_geom_bond_distance
_geom_bond_site_symmetry_2
Zn0 Zn15 2.546366 1_555
Zn0 Zn51 2.564580 1_555
Zn0 Zn78 2.586099 1_555
Zn0 Zn50 2.603646 1_655
Zn0 Zn24 2.627650 1_655
Zn0 Zn82 2.645879 1_655
Zn0 Zn60 2.687353 1_555
Zn0 Zn25 2.903839 1_555
Zn0 Zn89 3.003754 1_555
Zn1 Zn18 2.654300 1_545
Zn1 Zn58 2.671313 1_555
Zn1 Zn17 2.675130 1_545
Zn1 Zn8 2.694047 1_554
Zn1 Zn56 2.738790 1_555
Zn1 Zn67 2.750531 1_555
Zn1 Zn13 2.777498 1_555
Zn1 Zn48 2.810133 1_554
Zn1 Zn57 2.898270 1_545
Zn1 Zn83 2.929206 1_544
Zn1 Zn97 3.074773 1_555
Zn2 Zn74 2.653358 1_655
Zn2 Zn26 2.667406 1_555
Zn2 Zn47 2.699939 1_655
Zn2 Zn20 2.729882 1_555
Zn2 Zn93 2.745084 1_555
Zn2 Zn34 2.760209 1_555
Zn2 Zn68 2.843361 1_555
Zn2 Zn81 2.844930 1_645
Zn2 Zn39 2.904759 1_555
Zn2 Zn82 3.013532 1_655
Zn3 Zn44 2.559841 1_555
Zn3 Zn55 2.564806 1_555
Zn3 Zn66 2.663148 1_555
Zn3 Zn35 2.665506 1_555
Zn3 Zn73 2.711769 1_555
Zn3 Zn99 2.713961 1_555
Zn3 Zn63 2.723733 1_555
Zn3 Zn49 2.760541 1_555
Zn3 Zn41 3.046315 1_555
Zn4 Zn76 2.553810 1_545
Zn4 Zn62 2.584380 1_555
Zn4 Zn74 2.602284 1_555
Zn4 Zn56 2.654250 1_555
Zn4 Zn81 2.662192 1_545
Zn4 Zn47 2.675071 1_555
Zn4 Zn79 2.752847 1_555
Zn5 Zn76 2.587971 1_555
Zn5 Zn72 2.633531 1_565
Zn5 Zn52 2.645469 1_555
Zn5 Zn9 2.766595 1_555
Zn5 Zn53 2.772177 1_555
Zn5 Zn79 2.821972 1_565
Zn5 Zn75 2.826851 1_555
Zn6 Zn69 2.528626 1_555
Zn6 Zn67 2.547996 1_565
Zn6 Zn95 2.602166 1_565
Zn6 Zn70 2.673526 1_554
Zn6 Zn94 2.797246 1_564
Zn6 Zn91 2.866628 1_555
Zn7 Zn98 2.584157 1_555
Zn7 Zn83 2.637031 1_545
Zn7 Zn74 2.648594 1_555
Zn7 Zn87 2.687970 1_555
Zn7 Zn8 2.712020 1_555
Zn7 Zn79 2.797604 1_555
Zn8 Zn99 2.602629 1_556
Zn8 Zn87 2.661996 1_555
Zn8 Zn97 2.687980 1_556
Zn9 Zn92 2.888356 1_555
Zn10 Zn20 2.560262 1_555
Zn10 Zn90 2.564106 1_555
Zn10 Zn54 2.595448 1_555
Zn10 Zn71 2.630939 1_555
Zn10 Zn42 2.660358 1_555
Zn10 Zn39 2.668826 1_555
Zn10 Zn30 2.688427 1_555
Zn10 Zn65 2.721668 1_555
Zn10 Zn78 2.810479 1_555
Zn10 Zn86 2.839392 1_555
Zn11 Zn67 2.513892 1_555
Zn11 Zn54 2.542767 1_555
Zn11 Zn22 2.629282 1_555
Zn11 Zn88 2.651541 1_555
Zn11 Zn31 2.661086 1_555
Zn11 Zn37 2.684585 1_554
Zn11 Zn56 2.765304 1_555
Zn11 Zn39 2.865721 1_555
Zn11 Zn65 2.936437 1_555
Zn12 Zn96 2.576350 1_555
Zn12 Zn28 2.587190 1_555
Zn12 Zn57 2.590008 1_556
Zn12 Zn52 2.607931 1_555
Zn12 Zn23 2.645715 1_555
Zn12 Zn63 2.669756 1_556
Zn12 Zn33 2.686180 1_555
Zn12 Zn73 2.921717 1_556
Zn12 Zn51 2.933095 1_455
Zn12 Zn91 3.117851 1_556
Zn13 Zn18 2.594798 1_545
Zn13 Zn97 2.637324 1_555
Zn13 Zn81 2.640035 1_545
Zn13 Zn26 2.650795 1_455
Zn13 Zn58 2.775923 1_555
Zn13 Zn4 2.841562 1_555
Zn13 Zn2 2.881481 1_455
Zn13 Zn47 2.943252 1_555
Zn13 Zn68 3.087097 1_455
Zn14 Zn77 2.605799 1_555
Zn14 Zn72 2.617611 1_555
Zn14 Zn86 2.622443 1_555
Zn14 Zn31 2.646067 1_556
Zn14 Zn94 2.668450 1_555
Zn14 Zn85 2.687246 1_555
Zn14 Zn48 2.691731 1_555
Zn14 Zn37 2.693788 1_555
Zn14 Zn42 2.801703 1_555
Zn15 Zn9 2.568242 1_555
Zn15 Zn75 2.705644 1_555
Zn15 Zn36 2.805549 1_555
Zn15 Zn92 2.811712 1_555
Zn15 Zn84 2.812713 1_555
Zn15 Zn78 2.816534 1_555
Zn15 Zn19 2.865571 1_555
Zn15 Zn30 2.891658 1_555
Zn15 Zn89 2.986761 1_555
Zn15 Zn60 3.109807 1_555
Zn16 Zn7 2.567469 1_555
Zn16 Zn85 2.572081 1_455
Zn16 Zn40 2.585626 1_456
Zn16 Zn28 2.629734 1_555
Zn16 Zn99 2.729566 1_556
Zn16 Zn29 2.730126 1_555
Zn16 Zn97 2.762028 1_556
Zn16 Zn8 2.764909 1_555
Zn16 Zn25 2.882214 1_455
Zn16 Zn58 3.026312 1_556
Zn17 Zn91 2.569744 1_555
Zn17 Zn52 2.579581 1_554
Zn17 Zn48 2.586666 1_564
Zn17 Zn6 2.627142 1_555
Zn17 Zn67 2.627401 1_565
Zn17 Zn83 2.680427 1_554
Zn17 Zn94 2.820863 1_564
Zn17 Zn57 2.993346 1_555
Zn17 Zn70 2.996418 1_554
Zn18 Zn57 2.522334 1_555
Zn18 Zn53 2.524652 1_555
Zn18 Zn4 2.582489 1_565
Zn18 Zn66 2.599368 1_555
Zn18 Zn56 2.672793 1_565
Zn18 Zn44 2.956451 1_555
Zn18 Zn76 2.978902 1_555
Zn19 Zn54 2.501719 1_555
Zn19 Zn69 2.519607 1_555
Zn19 Zn38 2.675728 1_555
Zn19 Zn9 2.721745 1_555
Zn19 Zn88 2.745955 1_555
Zn19 Zn55 2.767321 1_555
Zn19 Zn78 2.849021 1_555
Zn19 Zn60 2.968601 1_555
Zn19 Zn30 3.100495 1_555
Zn19 Zn46 3.119806 1_555
Zn20 Zn74 2.606999 1_655
Zn20 Zn71 2.620046 1_555
Zn20 Zn93 2.642063 1_555
Zn20 Zn25 2.727981 1_555
Zn20 Zn78 2.772756 1_555
Zn20 Zn82 2.799130 1_655
Zn20 Zn86 2.802397 1_555
Zn20 Zn85 2.965147 1_555
Zn21 Zn80 2.495512 1_555
Zn21 Zn70 2.576688 1_555
Zn21 Zn77 2.578957 1_555
Zn21 Zn91 2.605311 1_556
Zn21 Zn38 2.645493 1_556
Zn21 Zn88 2.662893 1_556
Zn21 Zn73 2.776557 1_556
Zn21 Zn37 2.992061 1_555
Zn21 Zn27 3.025486 1_555
Zn21 Zn36 3.135349 1_555
Zn22 Zn3 2.639212 1_555
Zn22 Zn56 2.654912 1_555
Zn22 Zn99 2.665005 1_555
Zn22 Zn8 2.800037 1_554
Zn22 Zn49 2.885357 1_555
Zn22 Zn55 2.905902 1_555
Zn22 Zn73 2.909640 1_555
Zn22 Zn65 2.917593 1_555
Zn22 Zn47 2.969599 1_555
Zn22 Zn97 3.066038 1_555
Zn23 Zn58 2.632603 1_566
Zn23 Zn61 2.648123 1_455
Zn23 Zn57 2.665138 1_556
Zn23 Zn51 2.690388 1_455
Zn23 Zn45 2.760361 1_466
Zn23 Zn59 2.799394 1_456
Zn23 Zn63 2.952644 1_556
Zn23 Zn83 3.039148 1_555
Zn23 Zn32 3.096471 1_465
Zn24 Zn76 2.644909 1_555
Zn24 Zn44 2.673225 1_555
Zn24 Zn33 2.674268 1_555
Zn24 Zn60 2.692629 1_455
Zn24 Zn81 2.727238 1_555
Zn24 Zn50 2.767107 1_555
Zn24 Zn84 2.802319 1_455
Zn24 Zn41 2.809780 1_555
Zn24 Zn89 2.964772 1_455
Zn24 Zn98 3.105638 1_565
Zn25 Zn28 2.549885 1_655
Zn25 Zn71 2.580239 1_555
Zn25 Zn36 2.619093 1_555
Zn25 Zn29 2.770294 1_655
Zn25 Zn85 2.938366 1_555
Zn25 Zn51 3.020007 1_555
Zn26 Zn40 2.548764 1_555
Zn26 Zn45 2.565590 1_555
Zn26 Zn68 2.616220 1_555
Zn26 Zn31 2.622695 1_555
Zn26 Zn34 2.646359 1_555
Zn26 Zn97 2.664099 1_655
Zn26 Zn39 2.728247 1_555
Zn27 Zn52 2.528112 1_555
Zn27 Zn30 2.583885 1_555
Zn27 Zn5 2.648520 1_555
Zn27 Zn64 2.668829 1_555
Zn27 Zn36 2.687442 1_555
Zn27 Zn75 2.763736 1_555
Zn27 Zn80 2.768729 1_555
Zn27 Zn70 3.039351 1_555
Zn27 Zn9 3.067223 1_555
Zn28 Zn99 2.492010 1_556
Zn28 Zn51 2.526416 1_455
Zn28 Zn29 2.651991 1_555
Zn28 Zn63 2.760670 1_556
Zn28 Zn43 2.898720 1_455
Zn28 Zn96 2.912152 1_555
Zn29 Zn74 2.598758 1_555
Zn29 Zn87 2.654544 1_555
Zn29 Zn50 2.715243 1_555
Zn29 Zn96 2.763913 1_555
Zn29 Zn82 2.767159 1_555
Zn29 Zn7 2.857149 1_555
Zn29 Zn62 2.872711 1_555
Zn30 Zn64 2.624153 1_555
Zn30 Zn78 2.632903 1_555
Zn30 Zn65 2.804072 1_555
Zn30 Zn9 2.813932 1_555
Zn30 Zn55 2.834792 1_555
Zn30 Zn54 2.928405 1_555
Zn30 Zn71 2.951896 1_555
Zn31 Zn94 2.674593 1_554
Zn31 Zn45 2.752404 1_555
Zn31 Zn39 2.824418 1_555
Zn31 Zn67 2.888354 1_555
Zn31 Zn77 2.926362 1_554
Zn32 Zn85 2.552467 1_555
Zn32 Zn58 2.642190 1_656
Zn32 Zn89 2.678717 1_545
Zn32 Zn98 2.752524 1_655
Zn32 Zn93 2.841781 1_555
Zn32 Zn61 2.870914 1_545
Zn32 Zn45 2.938785 1_556
Zn32 Zn86 3.013161 1_555
Zn32 Zn7 3.131791 1_655
Zn33 Zn98 2.576343 1_565
Zn33 Zn83 2.640416 1_555
Zn33 Zn50 2.645080 1_555
Zn33 Zn52 2.679401 1_555
Zn33 Zn51 2.826151 1_455
Zn33 Zn76 2.999178 1_555
Zn34 Zn78 2.652405 1_555
Zn34 Zn35 2.665450 1_655
Zn34 Zn54 2.677015 1_555
Zn34 Zn40 2.680906 1_555
Zn34 Zn46 2.738526 1_555
Zn34 Zn82 2.989718 1_655
Zn35 Zn49 2.555737 1_555
Zn35 Zn60 2.587810 1_455
Zn35 Zn46 2.618230 1_455
Zn35 Zn99 2.655026 1_555
Zn35 Zn47 2.826180 1_555
Zn35 Zn63 2.973494 1_555
Zn35 Zn82 3.069573 1_555
Zn36 Zn71 2.699211 1_555
Zn36 Zn43 2.741647 1_555
Zn36 Zn70 2.804354 1_555
Zn36 Zn75 2.819222 1_555
Zn36 Zn51 3.139158 1_555
Zn37 Zn77 2.627094 1_555
Zn37 Zn8 2.628568 1_555
Zn37 Zn73 2.648895 1_556
Zn37 Zn88 2.704160 1_556
Zn37 Zn48 2.721950 1_555
Zn37 Zn87 2.750735 1_555
Zn37 Zn80 2.918768 1_555
Zn38 Zn69 2.584903 1_555
Zn38 Zn46 2.604638 1_555
Zn38 Zn88 2.607704 1_555
Zn38 Zn6 2.614439 1_555
Zn38 Zn70 2.614605 1_554
Zn38 Zn43 2.701711 1_554
Zn38 Zn91 2.925312 1_555
Zn39 Zn54 2.570638 1_555
Zn39 Zn95 2.578616 1_555
Zn39 Zn68 2.630408 1_555
Zn39 Zn90 2.896568 1_555
Zn40 Zn77 2.510329 1_554
Zn40 Zn46 2.620867 1_555
Zn40 Zn85 2.730827 1_554
Zn40 Zn97 2.742041 1_655
Zn41 Zn76 2.537249 1_555
Zn41 Zn49 2.651322 1_555
Zn41 Zn64 2.708926 1_555
Zn41 Zn9 2.809641 1_555
Zn41 Zn50 2.875014 1_555
Zn41 Zn55 2.904129 1_555
Zn41 Zn5 2.925324 1_555
Zn41 Zn44 2.932982 1_555
Zn41 Zn66 3.047776 1_555
Zn42 Zn90 2.563947 1_555
Zn42 Zn80 2.569929 1_555
Zn42 Zn87 2.582924 1_555
Zn42 Zn72 2.720909 1_555
Zn42 Zn86 2.789899 1_555
Zn42 Zn62 2.798756 1_555
Zn42 Zn79 2.898480 1_555
Zn42 Zn71 3.060051 1_555
Zn42 Zn65 3.071546 1_555
Zn43 Zn46 2.552800 1_556
Zn43 Zn61 2.675944 1_555
Zn43 Zn51 2.686061 1_555
Zn43 Zn63 2.930601 1_656
Zn43 Zn70 3.023820 1_555
Zn43 Zn59 3.034441 1_556
Zn44 Zn81 2.625862 1_555
Zn44 Zn63 2.715647 1_555
Zn44 Zn57 2.805762 1_555
Zn44 Zn59 2.950422 1_455
Zn44 Zn76 2.979787 1_555
Zn44 Zn66 3.063300 1_555
Zn44 Zn60 3.130661 1_455
Zn45 Zn61 2.554372 1_544
Zn45 Zn59 2.694474 1_545
Zn45 Zn94 2.728993 1_554
Zn45 Zn68 2.791343 1_555
Zn45 Zn58 2.812960 1_655
Zn46 Zn60 2.656314 1_555
Zn46 Zn63 2.817324 1_655
Zn47 Zn97 2.570967 1_555
Zn47 Zn49 2.581246 1_555
Zn47 Zn82 2.670540 1_555
Zn47 Zn56 2.796816 1_555
Zn47 Zn62 2.818977 1_555
Zn48 Zn8 2.697434 1_555
Zn48 Zn72 2.716489 1_555
Zn48 Zn87 2.754114 1_555
Zn48 Zn83 2.830366 1_545
Zn48 Zn94 3.013999 1_555
Zn49 Zn64 2.488043 1_555
Zn49 Zn50 2.757427 1_555
Zn49 Zn65 2.867169 1_555
Zn49 Zn62 2.871983 1_555
Zn49 Zn82 2.896436 1_555
Zn49 Zn55 2.985153 1_555
Zn50 Zn96 2.649309 1_555
Zn50 Zn64 2.685321 1_555
Zn50 Zn82 2.802508 1_555
Zn50 Zn51 3.088602 1_455
Zn51 Zn89 2.604303 1_555
Zn51 Zn61 2.639250 1_555
Zn52 Zn83 2.708710 1_555
Zn52 Zn91 2.758377 1_556
Zn52 Zn70 2.926506 1_555
Zn52 Zn96 3.059691 1_555
Zn53 Zn90 2.586771 1_565
Zn53 Zn9 2.597421 1_555
Zn53 Zn66 2.639662 1_555
Zn53 Zn92 2.651954 1_555
Zn53 Zn95 2.679240 1_565
Zn53 Zn76 2.713278 1_555
Zn54 Zn78 2.606604 1_555
Zn54 Zn88 2.635981 1_555
Zn54 Zn65 2.902482 1_555
Zn54 Zn55 2.980158 1_555
Zn55 Zn9 2.636343 1_555
Zn55 Zn65 2.675220 1_555
Zn55 Zn88 2.728881 1_555
Zn55 Zn66 2.792851 1_555
Zn56 Zn65 2.638788 1_555
Zn56 Zn67 2.673397 1_555
Zn56 Zn90 2.698927 1_555
Zn57 Zn63 2.816177 1_555
Zn57 Zn91 2.903961 1_555
Zn57 Zn66 2.931048 1_555
Zn58 Zn97 2.669120 1_555
Zn58 Zn7 2.754611 1_554
Zn58 Zn83 2.824915 1_544
Zn59 Zn63 2.505928 1_655
Zn59 Zn68 2.557298 1_565
Zn59 Zn69 2.682656 1_555
Zn60 Zn69 2.626679 1_555
Zn60 Zn84 2.664905 1_555
Zn61 Zn89 2.575215 1_555
Zn61 Zn75 2.601047 1_555
Zn61 Zn94 2.660610 1_565
Zn61 Zn70 2.730015 1_555
Zn62 Zn65 2.667930 1_555
Zn62 Zn87 2.728627 1_555
Zn62 Zn74 2.751208 1_555
Zn62 Zn64 2.838285 1_555
Zn62 Zn79 2.852865 1_555
Zn63 Zn99 2.549801 1_555
Zn64 Zn80 2.595328 1_555
Zn64 Zn96 2.672165 1_555
Zn64 Zn65 2.715981 1_555
Zn65 Zn90 2.710086 1_555
Zn66 Zn91 2.539762 1_555
Zn66 Zn9 2.714351 1_555
Zn67 Zn95 2.632143 1_555
Zn68 Zn81 2.625003 1_645
Zn68 Zn95 2.641640 1_555
Zn68 Zn84 2.684853 1_545
Zn68 Zn69 2.819385 1_545
Zn69 Zn84 2.503499 1_555
Zn69 Zn95 2.561985 1_565
Zn70 Zn75 2.553376 1_555
Zn70 Zn94 2.678167 1_565
Zn70 Zn91 2.855012 1_556
Zn71 Zn80 2.507844 1_555
Zn71 Zn85 2.628605 1_555
Zn71 Zn77 2.843389 1_555
Zn72 Zn79 2.570182 1_555
Zn72 Zn75 2.589424 1_545
Zn72 Zn86 2.665331 1_555
Zn72 Zn94 2.759537 1_555
Zn72 Zn92 2.783380 1_545
Zn73 Zn91 2.589359 1_555
Zn73 Zn99 2.618333 1_555
Zn73 Zn96 2.668636 1_554
Zn73 Zn88 2.869308 1_555
Zn74 Zn98 2.705191 1_555
Zn74 Zn93 2.734559 1_455
Zn74 Zn82 2.819676 1_555
Zn75 Zn92 2.512147 1_555
Zn75 Zn94 2.923832 1_565
Zn75 Zn89 2.969571 1_555
Zn76 Zn98 2.661082 1_565
Zn76 Zn81 2.665084 1_555
Zn76 Zn79 2.756352 1_565
Zn77 Zn85 2.650957 1_555
Zn77 Zn88 2.729966 1_556
Zn78 Zn82 2.645635 1_655
Zn79 Zn87 2.874796 1_555
Zn79 Zn98 2.908852 1_555
Zn79 Zn83 3.126878 1_545
Zn80 Zn96 2.620763 1_555
Zn80 Zn87 2.625782 1_555
Zn81 Zn84 2.657134 1_455
Zn81 Zn93 2.768157 1_465
Zn83 Zn98 2.790331 1_565
Zn84 Zn89 2.545158 1_555
Zn84 Zn93 2.586778 1_565
Zn84 Zn92 2.677081 1_555
Zn85 Zn86 2.808956 1_555
Zn86 Zn93 2.547313 1_555
Zn86 Zn92 2.793741 1_545
Zn87 Zn96 2.828654 1_555
Zn89 Zn93 2.692718 1_565
Zn89 Zn98 2.944973 1_665
Zn90 Zn95 2.553945 1_555
Zn90 Zn92 2.976851 1_545
Zn92 Zn95 2.572065 1_565
Zn93 Zn98 2.648704 1_655
Zn97 Zn99 2.536297 1_555
