# generated using pymatgen
data_YMnNi4
_symmetry_space_group_name_H-M   'P 1'
_cell_length_a   4.91080568
_cell_length_b   4.91080568
_cell_length_c   4.91080568
_cell_angle_alpha   60.00000000
_cell_angle_beta   60.00000000
_cell_angle_gamma   60.00000000
_symmetry_Int_Tables_number   1
_chemical_formula_structural   YMnNi4
_chemical_formula_sum   'Y1 Mn1 Ni4'
_cell_volume   83.74198510
_cell_formula_units_Z   1
loop_
 _symmetry_equiv_pos_site_id
 _symmetry_equiv_pos_as_xyz
  1  'x, y, z'
loop_
 _atom_site_type_symbol
 _atom_site_label
 _atom_site_symmetry_multiplicity
 _atom_site_fract_x
 _atom_site_fract_y
 _atom_site_fract_z
 _atom_site_occupancy
  Y  Y0  1  0.00000000  0.00000000  0.00000000  1
  Mn  Mn0  1  0.75000000  0.75000000  0.75000000  1
  Ni  Ni0  1  0.87267300  0.37577600  0.37577600  1
  Ni  Ni1  1  0.37577600  0.87267300  0.37577600  1
  Ni  Ni2  1  0.37577600  0.37577600  0.87267300  1
  Ni  Ni3  1  0.37577600  0.37577600  0.37577600  1
loop_
_geom_bond_atom_site_label_1
_geom_bond_atom_site_label_2
_geom_bond_distance
_geom_bond_site_symmetry_2
Mn0 Ni0 2.877603 1_555
Mn0 Ni1 2.877603 1_555
Mn0 Ni2 2.877603 1_555
Mn0 Ni3 2.877605 1_565
Mn0 Ni3 2.877605 1_556
Mn0 Ni3 2.877605 1_655
Mn0 Ni0 2.877607 1_565
Mn0 Ni2 2.877607 1_655
Mn0 Ni0 2.877607 1_556
Mn0 Ni2 2.877607 1_565
Mn0 Ni1 2.877607 1_655
Mn0 Ni1 2.877607 1_556
Mn0 Y0 3.007242 1_656
Mn0 Y0 3.007242 1_566
Mn0 Y0 3.007242 1_666
Mn0 Y0 3.007242 1_665
Ni0 Ni3 2.440165 1_555
Ni0 Ni1 2.440165 1_555
Ni0 Ni2 2.440165 1_555
Ni0 Ni1 2.470641 1_645
Ni0 Ni3 2.470641 1_655
Ni0 Ni2 2.470641 1_654
Ni0 Y0 2.880853 1_656
Ni0 Y0 2.880853 1_665
Ni0 Y0 2.880857 1_655
Ni1 Ni3 2.440165 1_555
Ni1 Ni2 2.440165 1_555
Ni1 Ni3 2.470641 1_565
Ni1 Ni2 2.470641 1_564
Ni1 Y0 2.880853 1_665
Ni1 Y0 2.880853 1_566
Ni1 Y0 2.880857 1_565
Ni2 Ni3 2.440165 1_555
Ni2 Ni3 2.470641 1_556
Ni2 Y0 2.880853 1_566
Ni2 Y0 2.880853 1_656
Ni2 Y0 2.880857 1_556
Ni3 Y0 2.880855 1_655
Ni3 Y0 2.880855 1_556
Ni3 Y0 2.880855 1_565
