# generated using pymatgen
data_Pr2CoSi3
_symmetry_space_group_name_H-M   'P 1'
_cell_length_a   4.04075297
_cell_length_b   4.04075297
_cell_length_c   8.65522800
_cell_angle_alpha   90.00000000
_cell_angle_beta   90.00000000
_cell_angle_gamma   120.00001585
_symmetry_Int_Tables_number   1
_chemical_formula_structural   Pr2CoSi3
_chemical_formula_sum   'Pr2 Co1 Si3'
_cell_volume   122.38654543
_cell_formula_units_Z   1
loop_
 _symmetry_equiv_pos_site_id
 _symmetry_equiv_pos_as_xyz
  1  'x, y, z'
loop_
 _atom_site_type_symbol
 _atom_site_label
 _atom_site_symmetry_multiplicity
 _atom_site_fract_x
 _atom_site_fract_y
 _atom_site_fract_z
 _atom_site_occupancy
  Pr  Pr0  1  0.33333300  0.66666700  0.74488700  1
  Pr  Pr1  1  0.33333300  0.66666700  0.25511300  1
  Co  Co0  1  0.66666700  0.33333300  0.50000000  1
  Si  Si0  1  0.66666700  0.33333300  0.00000000  1
  Si  Si1  1  0.00000000  0.00000000  0.50000000  1
  Si  Si2  1  0.00000000  0.00000000  0.00000000  1
loop_
_geom_bond_atom_site_label_1
_geom_bond_atom_site_label_2
_geom_bond_distance
_geom_bond_site_symmetry_2
Pr0 Si1 3.151992 1_565
Pr0 Si1 3.151995 1_555
Pr0 Si1 3.151995 1_665
Pr0 Si0 3.212177 1_566
Pr0 Si0 3.212177 1_456
Pr0 Si2 3.212178 1_566
Pr0 Si2 3.212180 1_666
Pr0 Si2 3.212180 1_556
Pr0 Si0 3.212183 1_556
Pr1 Si1 3.151992 1_565
Pr1 Si1 3.151995 1_665
Pr1 Si1 3.151995 1_555
Pr1 Si0 3.212177 1_455
Pr1 Si0 3.212177 1_565
Pr1 Si2 3.212178 1_565
Pr1 Si2 3.212180 1_665
Pr1 Si2 3.212180 1_555
Pr1 Si0 3.212183 1_555
Co0 Si1 2.332928 1_655
Co0 Si1 2.332931 1_665
Co0 Si1 2.332931 1_555
Co0 Pr0 3.151992 1_545
Co0 Pr1 3.151992 1_545
Co0 Pr1 3.151992 1_655
Co0 Pr0 3.151992 1_655
Co0 Pr0 3.151998 1_555
Co0 Pr1 3.151998 1_555
Si0 Si2 2.332928 1_655
Si0 Si2 2.332931 1_665
Si0 Si2 2.332931 1_555
