# generated using pymatgen
data_Li9Mn2Co5O16
_symmetry_space_group_name_H-M   'P 1'
_cell_length_a   2.90242700
_cell_length_b   5.13568700
_cell_length_c   19.26227865
_cell_angle_alpha   84.75009760
_cell_angle_beta   90.00000000
_cell_angle_gamma   90.00000000
_symmetry_Int_Tables_number   1
_chemical_formula_structural   Li9Mn2Co5O16
_chemical_formula_sum   'Li9 Mn2 Co5 O16'
_cell_volume   285.91823411
_cell_formula_units_Z   1
loop_
 _symmetry_equiv_pos_site_id
 _symmetry_equiv_pos_as_xyz
  1  'x, y, z'
loop_
 _atom_site_type_symbol
 _atom_site_label
 _atom_site_symmetry_multiplicity
 _atom_site_fract_x
 _atom_site_fract_y
 _atom_site_fract_z
 _atom_site_occupancy
  Li  Li0  1  0.50000000  0.89158200  0.38230300  1
  Li  Li1  1  0.50000000  0.10841800  0.61769700  1
  Li  Li2  1  0.50000000  0.38029100  0.87300500  1
  Li  Li3  1  0.50000000  0.61970900  0.12699500  1
  Li  Li4  1  0.00000000  0.38828000  0.38412300  1
  Li  Li5  1  0.00000000  0.61172000  0.61587700  1
  Li  Li6  1  0.00000000  0.86317500  0.87653100  1
  Li  Li7  1  0.00000000  0.13682500  0.12346900  1
  Li  Li8  1  0.00000000  0.00000000  0.50000000  1
  Mn  Mn0  1  0.00000000  0.75742800  0.25128500  1
  Mn  Mn1  1  0.00000000  0.24257200  0.74871500  1
  Co  Co0  1  0.00000000  0.50000000  0.00000000  1
  Co  Co1  1  0.50000000  0.25563300  0.25273200  1
  Co  Co2  1  0.50000000  0.50000000  0.50000000  1
  Co  Co3  1  0.50000000  0.74436700  0.74726800  1
  Co  Co4  1  0.50000000  0.00000000  0.00000000  1
  O  O0  1  0.50000000  0.59794000  0.30736400  1
  O  O1  1  0.50000000  0.76479000  0.55606600  1
  O  O2  1  0.50000000  0.08138800  0.80628800  1
  O  O3  1  0.50000000  0.33168500  0.05999700  1
  O  O4  1  0.00000000  0.04985600  0.30808600  1
  O  O5  1  0.00000000  0.32387900  0.55497100  1
  O  O6  1  0.00000000  0.54040300  0.80478900  1
  O  O7  1  0.00000000  0.83194900  0.05442700  1
  O  O8  1  0.50000000  0.23521000  0.44393400  1
  O  O9  1  0.50000000  0.40206000  0.69263600  1
  O  O10  1  0.50000000  0.66831500  0.94000300  1
  O  O11  1  0.50000000  0.91861200  0.19371200  1
  O  O12  1  0.00000000  0.67612100  0.44502900  1
  O  O13  1  0.00000000  0.95014400  0.69191400  1
  O  O14  1  0.00000000  0.16805100  0.94557300  1
  O  O15  1  0.00000000  0.45959700  0.19521100  1
loop_
_geom_bond_atom_site_label_1
_geom_bond_atom_site_label_2
_geom_bond_distance
_geom_bond_site_symmetry_2
Li0 O12 2.132052 1_555
Li0 O12 2.132052 1_655
Li0 O4 2.144250 1_565
Li0 O4 2.144250 1_665
Li0 O0 2.180888 1_555
Li0 O8 2.215203 1_565
Li1 O5 2.132052 1_555
Li1 O5 2.132052 1_655
Li1 O13 2.144250 1_545
Li1 O13 2.144250 1_645
Li1 O9 2.180888 1_555
Li1 O1 2.215203 1_545
Li2 O10 2.050086 1_555
Li2 O6 2.076302 1_655
Li2 O6 2.076302 1_555
Li2 O2 2.090215 1_555
Li2 O14 2.229172 1_555
Li2 O14 2.229172 1_655
Li3 O3 2.050086 1_555
Li3 O15 2.076302 1_555
Li3 O15 2.076302 1_655
Li3 O11 2.090215 1_555
Li3 O7 2.229172 1_655
Li3 O7 2.229172 1_555
Li4 O12 1.969518 1_555
Li4 O8 1.971190 1_555
Li4 O8 1.971190 1_455
Li4 O0 2.271604 1_555
Li4 O0 2.271604 1_455
Li4 O4 2.373145 1_555
Li5 O5 1.969518 1_555
Li5 O1 1.971190 1_455
Li5 O1 1.971190 1_555
Li5 O9 2.271604 1_555
Li5 O9 2.271604 1_455
Li5 O13 2.373145 1_555
Li6 O10 2.092459 1_555
Li6 O10 2.092459 1_455
Li6 O14 2.145059 1_565
Li6 O2 2.217017 1_565
Li6 O2 2.217017 1_465
Li6 O6 2.253157 1_555
Li7 O3 2.092459 1_455
Li7 O3 2.092459 1_555
Li7 O7 2.145059 1_545
Li7 O11 2.217017 1_445
Li7 O11 2.217017 1_545
Li7 O15 2.253157 1_555
Li8 O5 2.051880 1_555
Li8 O12 2.051880 1_545
Li8 O1 2.119617 1_445
Li8 O1 2.119617 1_545
Li8 O8 2.119617 1_555
Li8 O8 2.119617 1_455
Mn0 O4 1.937331 1_565
Mn0 O0 1.944698 1_455
Mn0 O0 1.944698 1_555
Mn0 O15 1.951552 1_555
Mn0 O11 1.962935 1_455
Mn0 O11 1.962935 1_555
Mn1 O13 1.937331 1_545
Mn1 O9 1.944698 1_455
Mn1 O9 1.944698 1_555
Mn1 O6 1.951552 1_555
Mn1 O2 1.962935 1_455
Mn1 O2 1.962935 1_555
Co0 O3 2.001502 1_455
Co0 O3 2.001502 1_555
Co0 O10 2.001502 1_554
Co0 O10 2.001502 1_454
Co0 O7 2.081462 1_555
Co0 O14 2.081462 1_554
Co1 O4 2.038021 1_655
Co1 O4 2.038021 1_555
Co1 O15 2.053901 1_655
Co1 O15 2.053901 1_555
Co1 O0 2.129897 1_555
Co1 O11 2.155998 1_545
Co2 O1 1.812274 1_555
Co2 O8 1.812274 1_555
Co2 O5 1.967251 1_555
Co2 O5 1.967251 1_655
Co2 O12 1.967251 1_655
Co2 O12 1.967251 1_555
Co3 O13 2.038021 1_655
Co3 O13 2.038021 1_555
Co3 O6 2.053901 1_555
Co3 O6 2.053901 1_655
Co3 O9 2.129897 1_555
Co3 O2 2.155998 1_565
Co4 O7 1.945360 1_645
Co4 O7 1.945360 1_545
Co4 O14 1.945360 1_654
Co4 O14 1.945360 1_554
Co4 O3 2.144184 1_555
Co4 O10 2.144184 1_544
