# generated using pymatgen
data_Sb3N5
_symmetry_space_group_name_H-M   'P 1'
_cell_length_a   3.99174078
_cell_length_b   10.53318861
_cell_length_c   10.35799238
_cell_angle_alpha   90.00000000
_cell_angle_beta   90.00000000
_cell_angle_gamma   90.00000000
_symmetry_Int_Tables_number   1
_chemical_formula_structural   Sb3N5
_chemical_formula_sum   'Sb12 N20'
_cell_volume   435.50964634
_cell_formula_units_Z   4
loop_
 _symmetry_equiv_pos_site_id
 _symmetry_equiv_pos_as_xyz
  1  'x, y, z'
loop_
 _atom_site_type_symbol
 _atom_site_label
 _atom_site_symmetry_multiplicity
 _atom_site_fract_x
 _atom_site_fract_y
 _atom_site_fract_z
 _atom_site_occupancy
  Sb  Sb0  1  0.00000000  0.81655984  0.25000000  1
  Sb  Sb1  1  -0.00000000  0.18344016  0.75000000  1
  Sb  Sb2  1  0.50000000  0.31655984  0.25000000  1
  Sb  Sb3  1  0.50000000  0.68344016  0.75000000  1
  Sb  Sb4  1  -0.00000000  0.13598527  0.43594908  1
  Sb  Sb5  1  0.00000000  0.86401473  0.56405092  1
  Sb  Sb6  1  0.00000000  0.13598527  0.06405092  1
  Sb  Sb7  1  0.00000000  0.86401473  0.93594908  1
  Sb  Sb8  1  0.50000000  0.63598527  0.43594908  1
  Sb  Sb9  1  0.50000000  0.36401473  0.56405092  1
  Sb  Sb10  1  0.50000000  0.63598527  0.06405092  1
  Sb  Sb11  1  0.50000000  0.36401473  0.93594908  1
  N  N0  1  -0.00000000  0.24047092  0.25000000  1
  N  N1  1  0.00000000  0.75952808  0.75000000  1
  N  N2  1  0.50000000  0.74047192  0.25000000  1
  N  N3  1  0.50000000  0.25952808  0.75000000  1
  N  N4  1  0.00000000  0.95023965  0.38706573  1
  N  N5  1  -0.00000000  0.04976035  0.61293427  1
  N  N6  1  -0.00000000  0.95023965  0.11293427  1
  N  N7  1  -0.00000000  0.04976035  0.88706573  1
  N  N8  1  0.50000000  0.45023965  0.38706573  1
  N  N9  1  0.50000000  0.54976035  0.61293427  1
  N  N10  1  0.50000000  0.45023965  0.11293427  1
  N  N11  1  0.50000000  0.54976035  0.88706573  1
  N  N12  1  0.00000000  0.69675373  0.42564097  1
  N  N13  1  0.00000000  0.30324627  0.57435903  1
  N  N14  1  -0.00000000  0.69675373  0.07435903  1
  N  N15  1  -0.00000000  0.30324627  0.92564097  1
  N  N16  1  0.50000000  0.19675373  0.42564097  1
  N  N17  1  0.50000000  0.80324627  0.57435903  1
  N  N18  1  0.50000000  0.19675373  0.07435903  1
  N  N19  1  0.50000000  0.80324627  0.92564097  1
loop_
_geom_bond_atom_site_label_1
_geom_bond_atom_site_label_2
_geom_bond_distance
_geom_bond_site_symmetry_2
N0 Sb2 2.150775 1_455
N0 Sb2 2.150775 1_555
N0 Sb4 2.218322 1_555
N0 Sb6 2.218322 1_555
N1 Sb3 2.150772 1_455
N1 Sb3 2.150772 1_555
N1 Sb5 2.218327 1_555
N1 Sb7 2.218327 1_555
N2 Sb0 2.150772 1_555
N2 Sb0 2.150772 1_655
N2 Sb10 2.218327 1_555
N2 Sb8 2.218327 1_555
N3 Sb1 2.150772 1_555
N3 Sb1 2.150772 1_655
N3 Sb11 2.218327 1_555
N3 Sb9 2.218327 1_555
N4 Sb0 1.999574 1_555
N4 Sb4 2.020950 1_565
N4 Sb5 2.045858 1_555
N5 Sb1 1.999574 1_555
N5 Sb5 2.020950 1_545
N5 Sb4 2.045858 1_555
N6 Sb0 1.999574 1_555
N6 Sb6 2.020950 1_565
N6 Sb7 2.045858 1_554
N7 Sb1 1.999574 1_555
N7 Sb7 2.020950 1_545
N7 Sb6 2.045858 1_556
N8 Sb2 1.999574 1_555
N8 Sb8 2.020950 1_555
N8 Sb9 2.045858 1_555
N9 Sb3 1.999574 1_555
N9 Sb9 2.020950 1_555
N9 Sb8 2.045858 1_555
N10 Sb2 1.999574 1_555
N10 Sb10 2.020950 1_555
N10 Sb11 2.045858 1_554
N11 Sb3 1.999574 1_555
N11 Sb11 2.020950 1_555
N11 Sb10 2.045858 1_556
N12 Sb8 2.098716 1_555
N12 Sb8 2.098716 1_455
N12 Sb0 2.214114 1_555
N12 Sb5 2.271400 1_555
N13 Sb9 2.098716 1_555
N13 Sb9 2.098716 1_455
N13 Sb1 2.214114 1_555
N13 Sb4 2.271400 1_555
N14 Sb10 2.098716 1_455
N14 Sb10 2.098716 1_555
N14 Sb0 2.214114 1_555
N14 Sb7 2.271400 1_554
N15 Sb11 2.098716 1_455
N15 Sb11 2.098716 1_555
N15 Sb1 2.214114 1_555
N15 Sb6 2.271400 1_556
N16 Sb4 2.098716 1_555
N16 Sb4 2.098716 1_655
N16 Sb2 2.214114 1_555
N16 Sb9 2.271400 1_555
N17 Sb5 2.098716 1_655
N17 Sb5 2.098716 1_555
N17 Sb3 2.214114 1_555
N17 Sb8 2.271400 1_555
N18 Sb6 2.098716 1_555
N18 Sb6 2.098716 1_655
N18 Sb2 2.214114 1_555
N18 Sb11 2.271400 1_554
N19 Sb7 2.098716 1_555
N19 Sb7 2.098716 1_655
N19 Sb3 2.214114 1_555
N19 Sb10 2.271400 1_556
