# generated using pymatgen
data_Y6Mn(SiS7)2
_symmetry_space_group_name_H-M   'P 1'
_cell_length_a   9.87776370
_cell_length_b   9.87776370
_cell_length_c   5.65663959
_cell_angle_alpha   90.00000000
_cell_angle_beta   90.00000000
_cell_angle_gamma   120.00000334
_symmetry_Int_Tables_number   1
_chemical_formula_structural   Y6Mn(SiS7)2
_chemical_formula_sum   'Y6 Mn1 Si2 S14'
_cell_volume   477.97633068
_cell_formula_units_Z   1
loop_
 _symmetry_equiv_pos_site_id
 _symmetry_equiv_pos_as_xyz
  1  'x, y, z'
loop_
 _atom_site_type_symbol
 _atom_site_label
 _atom_site_symmetry_multiplicity
 _atom_site_fract_x
 _atom_site_fract_y
 _atom_site_fract_z
 _atom_site_occupancy
  Y  Y0  1  0.87291132  0.23076770  0.25085442  1
  Y  Y1  1  0.76923230  0.64214462  0.25085442  1
  Y  Y2  1  0.35785538  0.12708868  0.25085442  1
  Y  Y3  1  0.12681012  0.76999565  0.75581890  1
  Y  Y4  1  0.23000435  0.35681447  0.75581890  1
  Y  Y5  1  0.64318553  0.87318988  0.75581890  1
  Mn  Mn0  1  0.00000000  0.00000000  0.47893452  1
  Si  Si0  1  0.66666700  0.33333300  0.83752032  1
  Si  Si1  1  0.33333300  0.66666700  0.34504372  1
  S  S0  1  0.66666700  0.33333300  0.46810543  1
  S  S1  1  0.33333300  0.66666700  0.97499432  1
  S  S2  1  0.90922062  0.15878060  0.71704279  1
  S  S3  1  0.84121940  0.75044002  0.71704279  1
  S  S4  1  0.24955998  0.09077938  0.71704279  1
  S  S5  1  0.08877060  0.83900456  0.23280881  1
  S  S6  1  0.16099544  0.24976605  0.23280881  1
  S  S7  1  0.75023395  0.91122940  0.23280881  1
  S  S8  1  0.58623804  0.10763474  0.98718621  1
  S  S9  1  0.89236526  0.47860430  0.98718621  1
  S  S10  1  0.52139570  0.41376196  0.98718621  1
  S  S11  1  0.41393575  0.89256425  0.49330844  1
  S  S12  1  0.10743575  0.52137150  0.49330844  1
  S  S13  1  0.47862850  0.58606425  0.49330844  1
loop_
_geom_bond_atom_site_label_1
_geom_bond_atom_site_label_2
_geom_bond_distance
_geom_bond_site_symmetry_2
Mn0 S3 2.546455 1_445
Mn0 S4 2.546455 1_555
Mn0 S2 2.546455 1_455
Mn0 S6 2.575002 1_555
Mn0 S5 2.575002 1_545
Mn0 S7 2.575002 1_445
S0 Si0 2.089647 1_555
S0 Y0 2.958191 1_555
S0 Y2 2.958205 1_555
S0 Y1 2.958208 1_555
S1 Si1 2.093236 1_556
S1 Y3 2.970268 1_555
S1 Y5 2.970275 1_555
S1 Y4 2.970276 1_555
S2 Y5 2.738345 1_545
S2 Y4 2.777859 1_655
S2 Y0 2.800601 1_555
S2 Y0 3.163408 1_556
S3 Y3 2.738345 1_655
S3 Y5 2.777859 1_555
S3 Y1 2.800599 1_555
S3 Y1 3.163405 1_556
S4 Y4 2.738345 1_555
S4 Y3 2.777859 1_545
S4 Y2 2.800598 1_555
S4 Y2 3.163405 1_556
S5 Y2 2.758476 1_565
S5 Y1 2.759789 1_455
S5 Y3 2.853425 1_554
S5 Y3 3.100736 1_555
S6 Y0 2.758481 1_455
S6 Y2 2.759781 1_555
S6 Y4 2.853425 1_554
S6 Y4 3.100736 1_555
S7 Y1 2.758471 1_555
S7 Y0 2.759790 1_565
S7 Y5 2.853425 1_554
S7 Y5 3.100736 1_555
S8 Si0 2.132356 1_555
S8 Y2 2.789992 1_556
S8 Y0 2.877183 1_556
S8 Y5 2.948700 1_545
S9 Si0 2.132359 1_555
S9 Y0 2.789992 1_556
S9 Y1 2.877183 1_556
S9 Y3 2.948694 1_655
S10 Si0 2.132373 1_555
S10 Y1 2.789992 1_556
S10 Y2 2.877183 1_556
S10 Y4 2.948691 1_555
S11 Si1 2.130655 1_555
S11 Y5 2.793357 1_555
S11 Y3 2.877649 1_555
S11 Y2 2.972809 1_565
S12 Si1 2.130657 1_555
S12 Y3 2.793357 1_555
S12 Y4 2.877649 1_555
S12 Y0 2.972804 1_455
S13 Si1 2.130664 1_555
S13 Y4 2.793357 1_555
S13 Y5 2.877649 1_555
S13 Y1 2.972801 1_555
