# generated using pymatgen
data_TmAg(WO4)2
_symmetry_space_group_name_H-M   'P 1'
_cell_length_a   7.32965593
_cell_length_b   7.32965593
_cell_length_c   7.28485331
_cell_angle_alpha   65.97202242
_cell_angle_beta   65.97202242
_cell_angle_gamma   94.30640301
_symmetry_Int_Tables_number   1
_chemical_formula_structural   TmAg(WO4)2
_chemical_formula_sum   'Tm2 Ag2 W4 O16'
_cell_volume   312.57401003
_cell_formula_units_Z   2
loop_
 _symmetry_equiv_pos_site_id
 _symmetry_equiv_pos_as_xyz
  1  'x, y, z'
loop_
 _atom_site_type_symbol
 _atom_site_label
 _atom_site_symmetry_multiplicity
 _atom_site_fract_x
 _atom_site_fract_y
 _atom_site_fract_z
 _atom_site_occupancy
  Tm  Tm0  1  0.69842200  0.30157800  0.00000000  1
  Tm  Tm1  1  0.30157800  0.69842200  0.00000000  1
  Ag  Ag0  1  0.68147400  0.68147400  0.48176400  1
  Ag  Ag1  1  0.31852600  0.31852600  0.51823600  1
  W  W0  1  0.21133400  0.21133400  0.03177700  1
  W  W1  1  0.78866600  0.78866600  0.96822300  1
  W  W2  1  0.83428200  0.16571800  0.50000000  1
  W  W3  1  0.16571800  0.83428200  0.50000000  1
  O  O0  1  0.35574100  0.10207800  0.24399100  1
  O  O1  1  0.64425900  0.89792200  0.75600900  1
  O  O2  1  0.89792200  0.64425900  0.75600900  1
  O  O3  1  0.10207800  0.35574100  0.24399100  1
  O  O4  1  0.68545600  0.22161700  0.34742800  1
  O  O5  1  0.31454400  0.77838300  0.65257200  1
  O  O6  1  0.77838300  0.31454400  0.65257200  1
  O  O7  1  0.22161700  0.68545600  0.34742800  1
  O  O8  1  0.69891700  0.96318500  0.08502400  1
  O  O9  1  0.30108300  0.03681500  0.91497600  1
  O  O10  1  0.03681500  0.30108300  0.91497600  1
  O  O11  1  0.96318500  0.69891700  0.08502400  1
  O  O12  1  0.97754700  0.97754700  0.34147200  1
  O  O13  1  0.02245300  0.02245300  0.65852800  1
  O  O14  1  0.55391100  0.55391100  0.13614900  1
  O  O15  1  0.44608900  0.44608900  0.86385100  1
loop_
_geom_bond_atom_site_label_1
_geom_bond_atom_site_label_2
_geom_bond_distance
_geom_bond_site_symmetry_2
Ag0 O15 2.330713 1_555
Ag0 O12 2.478651 1_555
Ag0 O8 2.726281 1_555
Ag0 O11 2.726281 1_555
Ag0 O6 2.750903 1_555
Ag0 O5 2.750903 1_555
Ag1 O14 2.330713 1_555
Ag1 O13 2.478651 1_555
Ag1 O9 2.726281 1_555
Ag1 O10 2.726281 1_555
Ag1 O4 2.750903 1_555
Ag1 O7 2.750903 1_555
O0 W3 1.940049 1_545
O0 W0 2.145515 1_555
O0 Tm0 2.302700 1_555
O1 W2 1.940049 1_565
O1 W1 2.145515 1_555
O1 Tm1 2.302700 1_556
O2 W3 1.940049 1_655
O2 W1 2.145515 1_555
O2 Tm0 2.302700 1_556
O3 W2 1.940049 1_455
O3 W0 2.145515 1_555
O3 Tm1 2.302700 1_555
O4 W2 1.810192 1_555
O4 Tm0 2.312153 1_555
O5 W3 1.810192 1_555
O5 Tm1 2.312153 1_556
O6 W2 1.810192 1_555
O6 Tm0 2.312153 1_556
O7 W3 1.810192 1_555
O7 Tm1 2.312153 1_555
O8 W1 1.830275 1_554
O8 Tm0 2.299491 1_565
O9 W0 1.830275 1_556
O9 Tm1 2.299491 1_546
O10 W0 1.830275 1_556
O10 Tm0 2.299491 1_456
O11 W1 1.830275 1_554
O11 Tm1 2.299491 1_655
O12 W0 2.055480 1_665
O12 W3 2.205831 1_655
O12 W2 2.205831 1_565
O13 W1 2.055480 1_445
O13 W3 2.205831 1_545
O13 W2 2.205831 1_455
O14 W1 1.882800 1_554
O14 Tm0 2.541436 1_555
O14 Tm1 2.541436 1_555
O15 W0 1.882800 1_556
O15 Tm1 2.541436 1_556
O15 Tm0 2.541436 1_556
