# generated using pymatgen
data_Eu3Lu
_symmetry_space_group_name_H-M   'P 1'
_cell_length_a   7.59442031
_cell_length_b   7.59442031
_cell_length_c   6.07515500
_cell_angle_alpha   90.00000000
_cell_angle_beta   90.00000000
_cell_angle_gamma   120.00000266
_symmetry_Int_Tables_number   1
_chemical_formula_structural   Eu3Lu
_chemical_formula_sum   'Eu6 Lu2'
_cell_volume   303.44308223
_cell_formula_units_Z   2
loop_
 _symmetry_equiv_pos_site_id
 _symmetry_equiv_pos_as_xyz
  1  'x, y, z'
loop_
 _atom_site_type_symbol
 _atom_site_label
 _atom_site_symmetry_multiplicity
 _atom_site_fract_x
 _atom_site_fract_y
 _atom_site_fract_z
 _atom_site_occupancy
  Eu  Eu0  1  0.83001600  0.66003300  0.75000000  1
  Eu  Eu1  1  0.16998400  0.83001600  0.25000000  1
  Eu  Eu2  1  0.66003300  0.83001600  0.25000000  1
  Eu  Eu3  1  0.16998400  0.33996700  0.25000000  1
  Eu  Eu4  1  0.33996700  0.16998400  0.75000000  1
  Eu  Eu5  1  0.83001600  0.16998400  0.75000000  1
  Lu  Lu0  1  0.33333300  0.66666700  0.75000000  1
  Lu  Lu1  1  0.66666700  0.33333300  0.25000000  1
loop_
_geom_bond_atom_site_label_1
_geom_bond_atom_site_label_2
_geom_bond_distance
_geom_bond_site_symmetry_2
Eu0 Lu1 3.720720 1_555
Eu0 Lu1 3.720720 1_556
Eu0 Eu4 3.721638 1_555
Eu0 Eu5 3.721638 1_555
Eu0 Eu2 3.771779 1_556
Eu0 Eu2 3.771779 1_555
Eu0 Eu1 3.771787 1_656
Eu0 Eu1 3.771787 1_655
Eu0 Lu0 3.797461 1_655
Eu0 Lu0 3.797461 1_555
Eu0 Eu4 3.872782 1_665
Eu0 Eu5 3.872782 1_565
Eu1 Lu0 3.720713 1_554
Eu1 Lu0 3.720713 1_555
Eu1 Eu2 3.721638 1_555
Eu1 Eu3 3.721638 1_555
Eu1 Eu4 3.771787 1_564
Eu1 Eu4 3.771787 1_565
Eu1 Lu1 3.797461 1_455
Eu1 Lu1 3.797461 1_565
Eu1 Eu2 3.872782 1_455
Eu1 Eu3 3.872782 1_565
Eu2 Lu0 3.720720 1_555
Eu2 Lu0 3.720720 1_554
Eu2 Eu3 3.721638 1_555
Eu2 Eu5 3.771787 1_564
Eu2 Eu5 3.771787 1_565
Eu2 Lu1 3.797461 1_565
Eu2 Lu1 3.797461 1_555
Eu2 Eu3 3.872782 1_665
Eu3 Lu0 3.720720 1_555
Eu3 Lu0 3.720720 1_554
Eu3 Eu4 3.771779 1_554
Eu3 Eu4 3.771779 1_555
Eu3 Eu5 3.771787 1_455
Eu3 Eu5 3.771787 1_454
Eu3 Lu1 3.797461 1_455
Eu3 Lu1 3.797461 1_555
Eu4 Lu1 3.720720 1_555
Eu4 Lu1 3.720720 1_556
Eu4 Eu5 3.721638 1_555
Eu4 Lu0 3.797461 1_545
Eu4 Lu0 3.797461 1_555
Eu4 Eu5 3.872782 1_455
Eu5 Lu1 3.720713 1_555
Eu5 Lu1 3.720713 1_556
Eu5 Lu0 3.797461 1_545
Eu5 Lu0 3.797461 1_655
