# generated using pymatgen
data_K2SrCu(NO2)6
_symmetry_space_group_name_H-M   'P 1'
_cell_length_a   7.64446258
_cell_length_b   7.63690900
_cell_length_c   7.47921595
_cell_angle_alpha   60.74711621
_cell_angle_beta   60.64619416
_cell_angle_gamma   58.60668963
_symmetry_Int_Tables_number   1
_chemical_formula_structural   K2SrCu(NO2)6
_chemical_formula_sum   'K2 Sr1 Cu1 N6 O12'
_cell_volume   308.47845974
_cell_formula_units_Z   1
loop_
 _symmetry_equiv_pos_site_id
 _symmetry_equiv_pos_as_xyz
  1  'x, y, z'
loop_
 _atom_site_type_symbol
 _atom_site_label
 _atom_site_symmetry_multiplicity
 _atom_site_fract_x
 _atom_site_fract_y
 _atom_site_fract_z
 _atom_site_occupancy
  K  K0  1  0.25000000  0.25000000  0.25000000  1
  K  K1  1  0.75000000  0.75000000  0.75000000  1
  Sr  Sr0  1  0.50000000  0.50000000  0.50000000  1
  Cu  Cu0  1  0.00000000  0.00000000  0.00000000  1
  N  N0  1  0.19779900  0.80220100  0.80220100  1
  N  N1  1  0.78827500  0.78827500  0.21172500  1
  N  N2  1  0.80221000  0.19779000  0.80221000  1
  N  N3  1  0.19779000  0.80221000  0.19779000  1
  N  N4  1  0.21172500  0.21172500  0.78827500  1
  N  N5  1  0.80220100  0.19779900  0.19779900  1
  O  O0  1  0.83849100  0.35746000  0.16150900  1
  O  O1  1  0.64254000  0.16150900  0.35746000  1
  O  O2  1  0.84289400  0.15710600  0.63857200  1
  O  O3  1  0.16150900  0.64254000  0.83849100  1
  O  O4  1  0.82911000  0.62571800  0.37428200  1
  O  O5  1  0.17089000  0.37428200  0.62571800  1
  O  O6  1  0.36142800  0.63857200  0.15710600  1
  O  O7  1  0.35746000  0.83849100  0.64254000  1
  O  O8  1  0.62571800  0.82911000  0.17089000  1
  O  O9  1  0.63857200  0.36142800  0.84289400  1
  O  O10  1  0.37428200  0.17089000  0.82911000  1
  O  O11  1  0.15710600  0.84289400  0.36142800  1
loop_
_geom_bond_atom_site_label_1
_geom_bond_atom_site_label_2
_geom_bond_distance
_geom_bond_site_symmetry_2
K0 O8 3.083127 1_545
K0 O5 3.083127 1_555
K0 O10 3.083127 1_554
K0 O4 3.083127 1_455
K0 O1 3.134988 1_555
K0 O7 3.134988 1_545
K0 O3 3.134988 1_554
K0 O0 3.134988 1_455
K0 O6 3.170568 1_555
K0 O9 3.170568 1_554
K0 O2 3.170568 1_455
K0 O11 3.170568 1_545
K1 O10 3.083127 1_565
K1 O8 3.083127 1_556
K1 O5 3.083127 1_655
K1 O4 3.083127 1_555
K1 O3 3.134988 1_655
K1 O0 3.134988 1_556
K1 O1 3.134988 1_565
K1 O7 3.134988 1_555
K1 O2 3.170568 1_565
K1 O11 3.170568 1_655
K1 O6 3.170568 1_556
K1 O9 3.170568 1_555
Cu0 N5 2.090002 1_455
Cu0 N0 2.090002 1_544
Cu0 N2 2.094223 1_454
Cu0 N3 2.094223 1_545
Cu0 N4 2.335155 1_554
Cu0 N1 2.335155 1_445
N0 O3 1.261944 1_555
N0 O7 1.261944 1_555
N1 O8 1.268860 1_555
N1 O4 1.268860 1_555
N2 O9 1.260533 1_555
N2 O2 1.260533 1_555
N3 O11 1.260533 1_555
N3 O6 1.260533 1_555
N4 O5 1.268860 1_555
N4 O10 1.268860 1_555
N5 O1 1.261944 1_555
N5 O0 1.261944 1_555
O0 Sr0 2.761552 1_555
O1 Sr0 2.761552 1_555
O2 Sr0 2.768064 1_555
O3 Sr0 2.761552 1_555
O4 Sr0 2.729553 1_555
O5 Sr0 2.729553 1_555
O6 Sr0 2.768064 1_555
O7 Sr0 2.761552 1_555
O8 Sr0 2.729553 1_555
O9 Sr0 2.768064 1_555
O10 Sr0 2.729553 1_555
O11 Sr0 2.768064 1_555
