# generated using pymatgen
data_Pr2FeAs2O
_symmetry_space_group_name_H-M   'P 1'
_cell_length_a   3.32027800
_cell_length_b   3.32027800
_cell_length_c   15.43949100
_cell_angle_alpha   90.00000000
_cell_angle_beta   90.00000000
_cell_angle_gamma   90.00000000
_symmetry_Int_Tables_number   1
_chemical_formula_structural   Pr2FeAs2O
_chemical_formula_sum   'Pr2 Fe1 As2 O1'
_cell_volume   170.20874686
_cell_formula_units_Z   1
loop_
 _symmetry_equiv_pos_site_id
 _symmetry_equiv_pos_as_xyz
  1  'x, y, z'
loop_
 _atom_site_type_symbol
 _atom_site_label
 _atom_site_symmetry_multiplicity
 _atom_site_fract_x
 _atom_site_fract_y
 _atom_site_fract_z
 _atom_site_occupancy
  Pr  Pr0  1  0.50000000  0.50000000  0.63765600  1
  Pr  Pr1  1  0.50000000  0.50000000  0.36234400  1
  Fe  Fe0  1  0.50000000  0.50000000  0.00000000  1
  As  As0  1  0.50000000  0.50000000  0.15996500  1
  As  As1  1  0.50000000  0.50000000  0.84003500  1
  O  O0  1  0.50000000  0.50000000  0.50000000  1
loop_
_geom_bond_atom_site_label_1
_geom_bond_atom_site_label_2
_geom_bond_distance
_geom_bond_site_symmetry_2
As0 Fe0 2.469778 1_555
As0 Pr1 3.124629 1_555
As1 Fe0 2.469778 1_556
As1 Pr0 3.124629 1_555
O0 Pr1 2.125339 1_555
O0 Pr0 2.125339 1_555
