# generated using pymatgen
data_GaN
_symmetry_space_group_name_H-M   'P 1'
_cell_length_a   12.01964055
_cell_length_b   10.94569353
_cell_length_c   11.38020511
_cell_angle_alpha   90.56691036
_cell_angle_beta   89.40560421
_cell_angle_gamma   88.13305643
_symmetry_Int_Tables_number   1
_chemical_formula_structural   GaN
_chemical_formula_sum   'Ga50 N50'
_cell_volume   1496.26365203
_cell_formula_units_Z   50
loop_
 _symmetry_equiv_pos_site_id
 _symmetry_equiv_pos_as_xyz
  1  'x, y, z'
loop_
 _atom_site_type_symbol
 _atom_site_label
 _atom_site_symmetry_multiplicity
 _atom_site_fract_x
 _atom_site_fract_y
 _atom_site_fract_z
 _atom_site_occupancy
  Ga  Ga0  1  0.73937668  0.75484866  0.54600141  1
  Ga  Ga1  1  0.34728815  0.33510417  0.27541103  1
  Ga  Ga2  1  0.92615761  0.33274418  0.77623383  1
  Ga  Ga3  1  0.67129972  0.62671355  0.32692055  1
  Ga  Ga4  1  0.51713667  0.28805508  0.09738307  1
  Ga  Ga5  1  0.57060837  0.75197038  0.72511163  1
  Ga  Ga6  1  0.62212064  0.99258365  0.92350948  1
  Ga  Ga7  1  0.07528877  0.58459777  0.55982481  1
  Ga  Ga8  1  0.75265457  0.23173472  0.18152353  1
  Ga  Ga9  1  0.98882116  0.53659835  0.98076070  1
  Ga  Ga10  1  0.82832007  0.75981056  0.93645352  1
  Ga  Ga11  1  0.08364653  0.84199731  0.03998034  1
  Ga  Ga12  1  0.62161425  0.52418864  0.58147675  1
  Ga  Ga13  1  0.72268892  0.27840064  0.91027016  1
  Ga  Ga14  1  0.08118769  0.41207411  0.41317730  1
  Ga  Ga15  1  0.40778008  0.65401350  0.87691690  1
  Ga  Ga16  1  0.74391972  0.08378089  0.34710765  1
  Ga  Ga17  1  0.72364826  0.50845846  0.05125653  1
  Ga  Ga18  1  0.91702568  0.59524015  0.19906724  1
  Ga  Ga19  1  0.90025816  0.05804520  0.87410094  1
  Ga  Ga20  1  0.97579075  0.02537022  0.32276148  1
  Ga  Ga21  1  0.44842691  0.55785164  0.09481342  1
  Ga  Ga22  1  0.89636077  0.36206338  0.26381061  1
  Ga  Ga23  1  0.36735906  0.74357208  0.22394754  1
  Ga  Ga24  1  0.42419640  0.57264842  0.64652017  1
  Ga  Ga25  1  0.45871248  0.15680511  0.36279386  1
  Ga  Ga26  1  0.21751977  0.06856344  0.25355863  1
  Ga  Ga27  1  0.26905311  0.54563015  0.39417889  1
  Ga  Ga28  1  0.95010951  0.78565122  0.60242281  1
  Ga  Ga29  1  0.69963021  0.13065134  0.67505610  1
  Ga  Ga30  1  0.12858467  0.37732941  0.19143692  1
  Ga  Ga31  1  0.48501865  0.72631871  0.43916820  1
  Ga  Ga32  1  0.27293753  0.86380284  0.79907877  1
  Ga  Ga33  1  0.18900615  0.63859162  0.84499506  1
  Ga  Ga34  1  0.51518869  0.93511403  0.26054040  1
  Ga  Ga35  1  0.13378328  0.09158888  0.93157227  1
  Ga  Ga36  1  0.56333050  0.00064726  0.55168490  1
  Ga  Ga37  1  0.62339105  0.77740017  0.13416700  1
  Ga  Ga38  1  0.24683410  0.78821316  0.58052084  1
  Ga  Ga39  1  0.10327814  0.78110351  0.33499114  1
  Ga  Ga40  1  0.82747057  0.93304380  0.10795075  1
  Ga  Ga41  1  0.82628657  0.79493392  0.34319792  1
  Ga  Ga42  1  0.17020812  0.14729410  0.47202685  1
  Ga  Ga43  1  0.14277108  0.33119487  0.69533564  1
  Ga  Ga44  1  0.35546230  0.89277035  0.04083531  1
  Ga  Ga45  1  0.20665777  0.57710393  0.13077228  1
  Ga  Ga46  1  0.92578411  0.22978728  0.55229578  1
  Ga  Ga47  1  0.33030460  0.93601860  0.45381311  1
  Ga  Ga48  1  0.87297843  0.54013550  0.46272867  1
  Ga  Ga49  1  0.81589657  0.58407908  0.79027034  1
  N  N0  1  0.61563980  0.34899990  0.34067499  1
  N  N1  1  0.08263589  0.55513528  0.74077575  1
  N  N2  1  0.72063412  0.36743535  0.58118823  1
  N  N3  1  0.08221854  0.28350625  0.53100619  1
  N  N4  1  0.09803660  0.76175041  0.51696631  1
  N  N5  1  0.11247654  0.65842868  0.00423388  1
  N  N6  1  0.99110172  0.43904822  0.12646217  1
  N  N7  1  0.70232498  0.64276078  0.68117092  1
  N  N8  1  0.40326355  0.09601613  0.52753985  1
  N  N9  1  0.53304661  0.40758531  0.86821864  1
  N  N10  1  0.80750106  0.51873369  0.30400561  1
  N  N11  1  0.60102261  0.60700412  0.10593989  1
  N  N12  1  0.35108764  0.09317480  0.79437766  1
  N  N13  1  0.70686809  0.86974287  0.01953908  1
  N  N14  1  0.42181118  0.85076696  0.88286204  1
  N  N15  1  0.44286838  0.11101322  0.78977213  1
  N  N16  1  0.52648503  0.08959649  0.03911532  1
  N  N17  1  0.80796593  0.97444392  0.65217798  1
  N  N18  1  0.22418261  0.23917914  0.21533783  1
  N  N19  1  0.84914842  0.61612490  0.04455076  1
  N  N20  1  0.26334893  0.37187248  0.93601464  1
  N  N21  1  0.30129538  0.28274698  0.96645768  1
  N  N22  1  0.37363115  0.35014208  0.57076814  1
  N  N23  1  0.96442540  0.71997959  0.29474438  1
  N  N24  1  0.08738866  0.98935212  0.70897112  1
  N  N25  1  0.22692765  0.67814602  0.27832586  1
  N  N26  1  0.57627067  0.81963959  0.56289006  1
  N  N27  1  0.59102183  0.04065576  0.38053720  1
  N  N28  1  0.07780652  0.04548760  0.62639007  1
  N  N29  1  0.00583663  0.16182902  0.10282280  1
  N  N30  1  0.87342096  0.94267977  0.72509806  1
  N  N31  1  0.93438028  0.89476271  0.98728235  1
  N  N32  1  0.30688578  0.12132537  0.56903360  1
  N  N33  1  0.88376075  0.11870045  0.43161016  1
  N  N34  1  0.36313746  0.01071542  0.30676346  1
  N  N35  1  0.10160739  0.94300472  0.24013809  1
  N  N36  1  0.48936021  0.37810608  0.78564757  1
  N  N37  1  0.91578093  0.16245015  0.06651597  1
  N  N38  1  0.98807643  0.51288376  0.79906850  1
  N  N39  1  0.72194841  0.11406949  0.85398675  1
  N  N40  1  0.83576487  0.95408670  0.26933115  1
  N  N41  1  0.56673115  0.43728578  0.32450174  1
  N  N42  1  0.81348873  0.37853584  0.53777341  1
  N  N43  1  0.20797593  0.92342922  0.95972634  1
  N  N44  1  0.68098058  0.33519144  0.06494869  1
  N  N45  1  0.34527736  0.64658856  0.51872504  1
  N  N46  1  0.52701291  0.87842094  0.83926210  1
  N  N47  1  0.47278857  0.01502222  0.10067620  1
  N  N48  1  0.45934919  0.31563436  0.54180297  1
  N  N49  1  0.79224744  0.41145136  0.84427867  1
loop_
_geom_bond_atom_site_label_1
_geom_bond_atom_site_label_2
_geom_bond_distance
_geom_bond_site_symmetry_2
Ga0 N7 2.031880 1_555
Ga0 N26 2.069357 1_555
Ga1 N18 1.966540 1_555
Ga2 N49 1.950148 1_555
Ga2 N38 2.144463 1_555
Ga3 N10 2.000991 1_555
Ga3 N41 2.459461 1_555
Ga4 N44 2.082221 1_555
Ga4 N16 2.263872 1_555
Ga5 N46 1.944445 1_555
Ga5 N26 1.997279 1_555
Ga5 N7 2.008455 1_555
Ga6 N46 1.969672 1_555
Ga6 N39 1.984698 1_565
Ga6 N13 2.000682 1_556
Ga6 N16 2.010282 1_566
Ga7 N4 2.030539 1_555
Ga7 N1 2.089833 1_555
Ga8 N44 1.942777 1_555
Ga8 N37 2.441876 1_555
Ga9 N6 1.980974 1_556
Ga9 N19 1.992519 1_556
Ga9 N5 2.046711 1_656
Ga9 N38 2.081522 1_555
Ga10 N19 2.017057 1_556
Ga10 N31 2.064647 1_555
Ga10 N13 2.075418 1_556
Ga11 N31 1.968192 1_454
Ga11 N43 1.984034 1_554
Ga11 N5 2.063573 1_555
Ga11 N35 2.536416 1_555
Ga12 N7 1.997114 1_555
Ga12 N2 2.056010 1_555
Ga13 N49 1.863293 1_555
Ga13 N39 1.903705 1_555
Ga13 N44 1.917295 1_556
Ga14 N3 1.953242 1_555
Ga15 N14 2.166113 1_555
Ga16 N27 1.946932 1_555
Ga16 N40 1.967261 1_545
Ga16 N33 1.991034 1_555
Ga17 N11 1.894012 1_555
Ga17 N19 1.945595 1_555
Ga17 N44 1.987882 1_555
Ga18 N23 1.846205 1_555
Ga18 N19 1.958450 1_555
Ga18 N10 1.979763 1_555
Ga18 N6 2.062982 1_555
Ga19 N30 2.137630 1_545
Ga19 N39 2.224669 1_555
Ga19 N31 2.242812 1_545
Ga19 N37 2.471539 1_556
Ga20 N33 1.916906 1_555
Ga20 N35 1.961823 1_645
Ga20 N40 1.977021 1_545
Ga21 N11 1.933221 1_555
Ga22 N10 2.036114 1_555
Ga22 N6 2.121700 1_555
Ga23 N25 1.952124 1_555
Ga24 N45 1.916192 1_555
Ga25 N27 2.016472 1_555
Ga25 N34 2.097130 1_555
Ga25 N8 2.104664 1_555
Ga26 N18 1.925690 1_555
Ga26 N34 1.946369 1_555
Ga26 N35 1.994542 1_545
Ga27 N25 2.025429 1_555
Ga27 N45 2.032581 1_555
Ga28 N4 2.025930 1_655
Ga28 N30 2.361246 1_555
Ga29 N39 2.065615 1_555
Ga29 N17 2.127416 1_545
Ga30 N18 1.892700 1_555
Ga30 N6 1.922594 1_455
Ga31 N26 2.074941 1_555
Ga31 N45 2.117095 1_555
Ga32 N14 2.037867 1_555
Ga32 N43 2.071598 1_555
Ga33 N1 1.990455 1_555
Ga33 N5 2.030237 1_556
Ga34 N27 2.023217 1_565
Ga34 N34 2.043160 1_565
Ga34 N47 2.087158 1_565
Ga35 N43 2.048525 1_545
Ga35 N29 2.566194 1_556
Ga36 N26 1.987751 1_545
Ga36 N27 2.027067 1_555
Ga36 N8 2.180033 1_555
Ga37 N11 1.917471 1_555
Ga37 N13 1.948094 1_555
Ga38 N4 1.965238 1_555
Ga38 N45 2.034539 1_555
Ga39 N23 1.877599 1_455
Ga39 N25 1.936829 1_555
Ga39 N35 2.083748 1_555
Ga39 N4 2.084316 1_555
Ga40 N40 1.852782 1_555
Ga40 N31 1.905130 1_554
Ga40 N13 1.917196 1_555
Ga41 N23 1.901922 1_555
Ga41 N40 1.947880 1_555
Ga42 N3 1.911714 1_555
Ga42 N32 2.002941 1_555
Ga42 N28 2.374891 1_555
Ga43 N3 2.081622 1_555
Ga43 N1 2.578735 1_555
Ga44 N14 2.002335 1_554
Ga44 N43 2.026947 1_554
Ga44 N47 2.089958 1_565
Ga45 N25 2.022749 1_555
Ga45 N5 2.034965 1_555
Ga46 N33 1.908210 1_555
Ga46 N3 2.001328 1_655
Ga46 N42 2.089688 1_555
Ga47 N34 1.912870 1_565
Ga47 N8 2.150869 1_565
Ga47 N32 2.411457 1_565
Ga48 N10 1.992517 1_555
Ga48 N42 2.114002 1_555
Ga49 N7 1.952269 1_555
Ga49 N49 2.020703 1_555
Ga49 N38 2.191133 1_555
N0 N41 1.132274 1_555
N1 N38 1.403719 1_455
N2 N42 1.226003 1_555
N12 N15 1.127340 1_555
N14 N46 1.397009 1_555
N16 N47 1.268825 1_555
N17 N30 1.195796 1_555
N20 N21 1.122813 1_555
N22 N48 1.130475 1_555
N24 N28 1.132726 1_565
N29 N37 1.162449 1_455
N32 N8 1.267607 1_555
N36 N9 1.130535 1_555
