# generated using pymatgen
data_TbMgSe3
_symmetry_space_group_name_H-M   'P 1'
_cell_length_a   6.92989300
_cell_length_b   6.92989242
_cell_length_c   19.29184000
_cell_angle_alpha   90.00000000
_cell_angle_beta   90.00000000
_cell_angle_gamma   119.99999801
_symmetry_Int_Tables_number   1
_chemical_formula_structural   TbMgSe3
_chemical_formula_sum   'Tb6 Mg6 Se18'
_cell_volume   802.33791087
_cell_formula_units_Z   6
loop_
 _symmetry_equiv_pos_site_id
 _symmetry_equiv_pos_as_xyz
  1  'x, y, z'
loop_
 _atom_site_type_symbol
 _atom_site_label
 _atom_site_symmetry_multiplicity
 _atom_site_fract_x
 _atom_site_fract_y
 _atom_site_fract_z
 _atom_site_occupancy
  Tb  Tb0  1  0.00000000  0.00000000  0.34760600  1
  Tb  Tb1  1  0.00000000  0.00000000  0.65239400  1
  Tb  Tb2  1  0.66666700  0.33333300  0.68093900  1
  Tb  Tb3  1  0.66666700  0.33333300  0.98572700  1
  Tb  Tb4  1  0.33333300  0.66666700  0.01427300  1
  Tb  Tb5  1  0.33333300  0.66666700  0.31906100  1
  Mg  Mg0  1  0.00000000  0.00000000  0.16112400  1
  Mg  Mg1  1  0.00000000  0.00000000  0.83887600  1
  Mg  Mg2  1  0.66666700  0.33333300  0.49445700  1
  Mg  Mg3  1  0.66666700  0.33333300  0.17220900  1
  Mg  Mg4  1  0.33333300  0.66666700  0.82779100  1
  Mg  Mg5  1  0.33333300  0.66666700  0.50554300  1
  Se  Se0  1  0.99373000  0.36016900  0.58341800  1
  Se  Se1  1  0.00627000  0.63983100  0.41658200  1
  Se  Se2  1  0.63983100  0.63356100  0.58341800  1
  Se  Se3  1  0.36016900  0.36643900  0.41658200  1
  Se  Se4  1  0.36643900  0.00627000  0.58341800  1
  Se  Se5  1  0.63356100  0.99373000  0.41658200  1
  Se  Se6  1  0.66039700  0.69350200  0.91675100  1
  Se  Se7  1  0.67293700  0.97316400  0.74991500  1
  Se  Se8  1  0.30649800  0.96689400  0.91675100  1
  Se  Se9  1  0.02683600  0.69977200  0.74991500  1
  Se  Se10  1  0.03310600  0.33960300  0.91675100  1
  Se  Se11  1  0.30022800  0.32706300  0.74991500  1
  Se  Se12  1  0.32706300  0.02683600  0.25008500  1
  Se  Se13  1  0.33960300  0.30649800  0.08324900  1
  Se  Se14  1  0.97316400  0.30022800  0.25008500  1
  Se  Se15  1  0.69350200  0.03310600  0.08324900  1
  Se  Se16  1  0.69977200  0.67293700  0.25008500  1
  Se  Se17  1  0.96689400  0.66039700  0.08324900  1
loop_
_geom_bond_atom_site_label_1
_geom_bond_atom_site_label_2
_geom_bond_distance
_geom_bond_site_symmetry_2
Mg0 Se17 2.703391 1_445
Mg0 Se13 2.703394 1_555
Mg0 Se15 2.703397 1_455
Mg0 Se12 2.774089 1_555
Mg0 Se16 2.774092 1_445
Mg0 Se14 2.774095 1_455
Mg1 Se10 2.703391 1_555
Mg1 Se6 2.703394 1_445
Mg1 Se8 2.703397 1_545
Mg1 Se7 2.774089 1_445
Mg1 Se11 2.774092 1_555
Mg1 Se9 2.774095 1_545
Mg2 Se5 2.703391 1_545
Mg2 Se1 2.703394 1_655
Mg2 Se3 2.703397 1_555
Mg2 Se0 2.774089 1_555
Mg2 Se4 2.774092 1_555
Mg2 Se2 2.774095 1_555
Mg3 Se14 2.703399 1_555
Mg3 Se12 2.703405 1_555
Mg3 Se16 2.703410 1_555
Mg3 Se15 2.774074 1_555
Mg3 Se17 2.774080 1_555
Mg3 Se13 2.774085 1_555
Mg4 Se9 2.703399 1_555
Mg4 Se7 2.703405 1_555
Mg4 Se11 2.703410 1_555
Mg4 Se8 2.774074 1_555
Mg4 Se10 2.774080 1_555
Mg4 Se6 2.774085 1_555
Mg5 Se4 2.703391 1_565
Mg5 Se0 2.703394 1_455
Mg5 Se2 2.703397 1_555
Mg5 Se1 2.774089 1_555
Mg5 Se5 2.774092 1_555
Mg5 Se3 2.774095 1_555
Se0 Tb1 2.847931 1_655
Se0 Tb2 2.879179 1_555
Se1 Tb0 2.847931 1_565
Se1 Tb5 2.879179 1_555
Se2 Tb1 2.847931 1_665
Se2 Tb2 2.879184 1_555
Se3 Tb0 2.847931 1_555
Se3 Tb5 2.879184 1_555
Se4 Tb1 2.847931 1_555
Se4 Tb2 2.879181 1_555
Se5 Tb0 2.847931 1_665
Se5 Tb5 2.879181 1_555
Se6 Tb3 2.847931 1_555
Se6 Tb4 2.879199 1_556
Se7 Tb2 2.847931 1_565
Se7 Tb1 2.879179 1_665
Se8 Tb3 2.847931 1_565
Se8 Tb4 2.879188 1_556
Se9 Tb2 2.847931 1_455
Se9 Tb1 2.879184 1_565
Se10 Tb3 2.847931 1_455
Se10 Tb4 2.879194 1_556
Se11 Tb2 2.847931 1_555
Se11 Tb1 2.879181 1_555
Se12 Tb5 2.847931 1_545
Se12 Tb0 2.879179 1_555
Se13 Tb4 2.847931 1_555
Se13 Tb3 2.879199 1_554
Se14 Tb5 2.847931 1_655
Se14 Tb0 2.879184 1_655
Se15 Tb4 2.847931 1_545
Se15 Tb3 2.879188 1_554
Se16 Tb5 2.847931 1_555
Se16 Tb0 2.879181 1_665
Se17 Tb4 2.847931 1_655
Se17 Tb3 2.879194 1_554
