# generated using pymatgen
data_PrNdFe14B
_symmetry_space_group_name_H-M   'P 1'
_cell_length_a   8.77054200
_cell_length_b   8.77054200
_cell_length_c   12.09891500
_cell_angle_alpha   90.00000000
_cell_angle_beta   90.00000000
_cell_angle_gamma   90.00000000
_symmetry_Int_Tables_number   1
_chemical_formula_structural   PrNdFe14B
_chemical_formula_sum   'Pr4 Nd4 Fe56 B4'
_cell_volume   930.67766357
_cell_formula_units_Z   4
loop_
 _symmetry_equiv_pos_site_id
 _symmetry_equiv_pos_as_xyz
  1  'x, y, z'
loop_
 _atom_site_type_symbol
 _atom_site_label
 _atom_site_symmetry_multiplicity
 _atom_site_fract_x
 _atom_site_fract_y
 _atom_site_fract_z
 _atom_site_occupancy
  Pr  Pr0  1  0.64246700  0.64246700  0.50000000  1
  Pr  Pr1  1  0.35753300  0.35753300  0.50000000  1
  Pr  Pr2  1  0.85753300  0.14246700  0.00000000  1
  Pr  Pr3  1  0.14246700  0.85753300  0.00000000  1
  Nd  Nd0  1  0.23134800  0.76865200  0.50000000  1
  Nd  Nd1  1  0.76865200  0.23134800  0.50000000  1
  Nd  Nd2  1  0.26865200  0.26865200  0.00000000  1
  Nd  Nd3  1  0.73134800  0.73134800  0.00000000  1
  Fe  Fe0  1  0.18270800  0.81729200  0.25429200  1
  Fe  Fe1  1  0.81729200  0.18270800  0.25429200  1
  Fe  Fe2  1  0.31729200  0.31729200  0.75429200  1
  Fe  Fe3  1  0.68270800  0.68270800  0.75429200  1
  Fe  Fe4  1  0.81729200  0.18270800  0.74570800  1
  Fe  Fe5  1  0.18270800  0.81729200  0.74570800  1
  Fe  Fe6  1  0.68270800  0.68270800  0.24570800  1
  Fe  Fe7  1  0.31729200  0.31729200  0.24570800  1
  Fe  Fe8  1  0.40202300  0.59797700  0.29442200  1
  Fe  Fe9  1  0.59797700  0.40202300  0.29442200  1
  Fe  Fe10  1  0.09797700  0.09797700  0.79442200  1
  Fe  Fe11  1  0.90202300  0.90202300  0.79442200  1
  Fe  Fe12  1  0.59797700  0.40202300  0.70557800  1
  Fe  Fe13  1  0.40202300  0.59797700  0.70557800  1
  Fe  Fe14  1  0.90202300  0.90202300  0.20557800  1
  Fe  Fe15  1  0.09797700  0.09797700  0.20557800  1
  Fe  Fe16  1  0.13944700  0.53652700  0.32364000  1
  Fe  Fe17  1  0.86055300  0.46347300  0.32364000  1
  Fe  Fe18  1  0.36055300  0.03652700  0.82364000  1
  Fe  Fe19  1  0.63944700  0.96347300  0.82364000  1
  Fe  Fe20  1  0.86055300  0.46347300  0.67636000  1
  Fe  Fe21  1  0.13944700  0.53652700  0.67636000  1
  Fe  Fe22  1  0.63944700  0.96347300  0.17636000  1
  Fe  Fe23  1  0.36055300  0.03652700  0.17636000  1
  Fe  Fe24  1  0.53652700  0.13944700  0.32364000  1
  Fe  Fe25  1  0.46347300  0.86055300  0.32364000  1
  Fe  Fe26  1  0.03652700  0.36055300  0.82364000  1
  Fe  Fe27  1  0.96347300  0.63944700  0.82364000  1
  Fe  Fe28  1  0.46347300  0.86055300  0.67636000  1
  Fe  Fe29  1  0.53652700  0.13944700  0.67636000  1
  Fe  Fe30  1  0.96347300  0.63944700  0.17636000  1
  Fe  Fe31  1  0.03652700  0.36055300  0.17636000  1
  Fe  Fe32  1  0.50000000  0.50000000  0.11390000  1
  Fe  Fe33  1  0.00000000  0.00000000  0.61390000  1
  Fe  Fe34  1  0.50000000  0.50000000  0.88610000  1
  Fe  Fe35  1  0.00000000  0.00000000  0.38610000  1
  Fe  Fe36  1  0.93310500  0.72458400  0.37259600  1
  Fe  Fe37  1  0.06689500  0.27541600  0.37259600  1
  Fe  Fe38  1  0.56689500  0.22458400  0.87259600  1
  Fe  Fe39  1  0.43310500  0.77541600  0.87259600  1
  Fe  Fe40  1  0.06689500  0.27541600  0.62740400  1
  Fe  Fe41  1  0.93310500  0.72458400  0.62740400  1
  Fe  Fe42  1  0.43310500  0.77541600  0.12740400  1
  Fe  Fe43  1  0.56689500  0.22458400  0.12740400  1
  Fe  Fe44  1  0.72458400  0.93310500  0.37259600  1
  Fe  Fe45  1  0.27541600  0.06689500  0.37259600  1
  Fe  Fe46  1  0.22458400  0.56689500  0.87259600  1
  Fe  Fe47  1  0.77541600  0.43310500  0.87259600  1
  Fe  Fe48  1  0.27541600  0.06689500  0.62740400  1
  Fe  Fe49  1  0.72458400  0.93310500  0.62740400  1
  Fe  Fe50  1  0.77541600  0.43310500  0.12740400  1
  Fe  Fe51  1  0.22458400  0.56689500  0.12740400  1
  Fe  Fe52  1  0.00000000  0.50000000  0.50000000  1
  Fe  Fe53  1  0.50000000  0.00000000  0.00000000  1
  Fe  Fe54  1  0.50000000  0.00000000  0.50000000  1
  Fe  Fe55  1  0.00000000  0.50000000  0.00000000  1
  B  B0  1  0.87607900  0.87607900  0.50000000  1
  B  B1  1  0.12392100  0.12392100  0.50000000  1
  B  B2  1  0.62392100  0.37607900  0.00000000  1
  B  B3  1  0.37607900  0.62392100  0.00000000  1
loop_
_geom_bond_atom_site_label_1
_geom_bond_atom_site_label_2
_geom_bond_distance
_geom_bond_site_symmetry_2
Pr0 Pr1 3.534156 1_555
Pr2 Pr3 3.534156 1_645
Nd0 Pr1 3.771756 1_555
Nd0 Pr0 3.771756 1_555
Nd1 Pr1 3.771756 1_555
Nd1 Pr0 3.771756 1_555
Nd2 Pr2 3.771756 1_455
Nd2 Pr3 3.771756 1_545
Nd3 Pr2 3.771756 1_565
Nd3 Pr3 3.771756 1_655
Fe0 Fe16 2.629003 1_555
Fe0 Fe25 2.629003 1_555
Fe0 Fe14 2.638160 1_455
Fe0 Fe15 2.638160 1_565
Fe0 Fe23 2.649379 1_565
Fe0 Fe30 2.649379 1_455
Fe0 Fe51 2.704567 1_555
Fe0 Fe42 2.704567 1_555
Fe0 Fe45 2.739030 1_565
Fe0 Fe36 2.739030 1_455
Fe0 Fe8 2.763246 1_555
Fe0 Fe35 2.771075 1_565
Fe0 Nd0 3.033400 1_555
Fe0 Pr3 3.116881 1_555
Fe1 Fe17 2.629003 1_555
Fe1 Fe24 2.629003 1_555
Fe1 Fe14 2.638160 1_545
Fe1 Fe15 2.638160 1_655
Fe1 Fe31 2.649379 1_655
Fe1 Fe22 2.649379 1_545
Fe1 Fe50 2.704567 1_555
Fe1 Fe43 2.704567 1_555
Fe1 Fe37 2.739030 1_655
Fe1 Fe44 2.739030 1_545
Fe1 Fe9 2.763246 1_555
Fe1 Fe35 2.771075 1_655
Fe1 Nd1 3.033400 1_555
Fe1 Pr2 3.116881 1_555
Fe2 Fe26 2.629003 1_555
Fe2 Fe21 2.649379 1_555
Fe2 Fe29 2.649379 1_555
Fe2 Fe40 2.704567 1_555
Fe2 Fe48 2.704567 1_555
Fe2 Fe38 2.739030 1_555
Fe2 Fe46 2.739030 1_555
Fe2 Fe34 2.771075 1_555
Fe2 Nd2 3.033400 1_556
Fe2 Pr1 3.116881 1_555
Fe3 Fe49 2.704567 1_555
Fe3 Fe41 2.704567 1_555
Fe3 Fe47 2.739030 1_555
Fe3 Fe39 2.739030 1_555
Fe3 Fe34 2.771075 1_555
Fe3 Nd3 3.033400 1_556
Fe3 Pr0 3.116881 1_555
Fe4 Fe47 2.704567 1_555
Fe4 Fe40 2.739030 1_655
Fe4 Fe49 2.739030 1_545
Fe4 Nd1 3.033400 1_555
Fe4 Pr2 3.116881 1_556
Fe5 Nd0 3.033400 1_555
Fe5 Pr3 3.116881 1_556
Fe6 Fe8 2.638160 1_555
Fe6 Fe9 2.638160 1_555
Fe6 Nd3 3.033400 1_555
Fe6 Pr0 3.116881 1_555
Fe7 Fe8 2.638160 1_555
Fe7 Fe9 2.638160 1_555
Fe7 Nd2 3.033400 1_555
Fe7 Pr1 3.116881 1_555
Fe8 Fe9 2.430500 1_555
Fe8 Nd0 3.266192 1_555
Fe8 Pr1 3.284191 1_555
Fe8 Pr0 3.284191 1_555
Fe9 Nd1 3.266192 1_555
Fe9 Pr1 3.284191 1_555
Fe9 Pr0 3.284191 1_555
Fe10 Fe18 2.391430 1_555
Fe10 Fe26 2.391430 1_555
Fe10 Fe11 2.430500 1_445
Fe10 Fe33 2.499443 1_555
Fe10 Fe40 2.565066 1_555
Fe10 Fe48 2.565066 1_555
Fe10 Fe5 2.638160 1_545
Fe10 Fe4 2.638160 1_455
Fe10 Fe2 2.763246 1_555
Fe10 Nd2 3.266192 1_556
Fe10 Pr2 3.284191 1_456
Fe10 Pr3 3.284191 1_546
Fe11 Fe27 2.391430 1_555
Fe11 Fe19 2.391430 1_555
Fe11 Fe33 2.499443 1_665
Fe11 Fe49 2.565066 1_555
Fe11 Fe41 2.565066 1_555
Fe11 Fe5 2.638160 1_655
Fe11 Fe4 2.638160 1_565
Fe11 Fe3 2.763246 1_555
Fe11 Nd3 3.266192 1_556
Fe11 Pr2 3.284191 1_566
Fe11 Pr3 3.284191 1_656
Fe12 Fe20 2.391430 1_555
Fe12 Fe29 2.391430 1_555
Fe12 Fe13 2.430500 1_555
Fe12 Fe34 2.499443 1_555
Fe12 Fe47 2.565066 1_555
Fe12 Fe38 2.565066 1_555
Fe12 Fe3 2.638160 1_555
Fe12 Fe2 2.638160 1_555
Fe12 Fe4 2.763246 1_555
Fe12 Nd1 3.266192 1_555
Fe12 Pr1 3.284191 1_555
Fe12 Pr0 3.284191 1_555
Fe13 Fe21 2.391430 1_555
Fe13 Fe28 2.391430 1_555
Fe13 Fe34 2.499443 1_555
Fe13 Fe46 2.565066 1_555
Fe13 Fe39 2.565066 1_555
Fe13 Fe3 2.638160 1_555
Fe13 Fe2 2.638160 1_555
Fe13 Fe5 2.763246 1_555
Fe13 Nd0 3.266192 1_555
Fe13 Pr1 3.284191 1_555
Fe13 Pr0 3.284191 1_555
Fe14 Fe30 2.391430 1_555
Fe14 Fe22 2.391430 1_555
Fe14 Fe15 2.430500 1_665
Fe14 Fe35 2.499443 1_665
Fe14 Fe44 2.565066 1_555
Fe14 Fe36 2.565066 1_555
Fe14 Fe6 2.763246 1_555
Fe14 Nd3 3.266192 1_555
Fe14 Pr2 3.284191 1_565
Fe14 Pr3 3.284191 1_655
Fe15 Fe31 2.391430 1_555
Fe15 Fe23 2.391430 1_555
Fe15 Fe35 2.499443 1_555
Fe15 Fe45 2.565066 1_555
Fe15 Fe37 2.565066 1_555
Fe15 Fe7 2.763246 1_555
Fe15 Nd2 3.266192 1_555
Fe15 Pr3 3.284191 1_545
Fe15 Pr2 3.284191 1_455
Fe16 Fe8 2.391430 1_555
Fe16 Fe37 2.449537 1_555
Fe16 Fe52 2.480197 1_555
Fe16 Fe51 2.503103 1_555
Fe16 Fe36 2.519198 1_455
Fe16 Fe30 2.524305 1_455
Fe16 Fe31 2.524305 1_555
Fe16 Fe17 2.528576 1_455
Fe16 Fe7 2.649379 1_555
Fe16 Nd0 3.057345 1_555
Fe16 Pr1 3.267415 1_555
Fe17 Fe9 2.391430 1_555
Fe17 Fe36 2.449537 1_555
Fe17 Fe52 2.480197 1_655
Fe17 Fe50 2.503103 1_555
Fe17 Fe37 2.519198 1_655
Fe17 Fe30 2.524305 1_555
Fe17 Fe31 2.524305 1_655
Fe17 Fe6 2.649379 1_555
Fe17 Nd1 3.057345 1_555
Fe17 Pr0 3.267415 1_555
Fe18 Fe39 2.449537 1_545
Fe18 Fe53 2.480197 1_556
Fe18 Fe48 2.503103 1_555
Fe18 Fe38 2.519198 1_555
Fe18 Fe28 2.524305 1_545
Fe18 Fe29 2.524305 1_555
Fe18 Fe19 2.528576 1_545
Fe18 Fe2 2.629003 1_555
Fe18 Fe5 2.649379 1_545
Fe18 Nd2 3.057345 1_556
Fe18 Pr3 3.267415 1_546
Fe19 Fe38 2.449537 1_565
Fe19 Fe53 2.480197 1_566
Fe19 Fe49 2.503103 1_555
Fe19 Fe39 2.519198 1_555
Fe19 Fe28 2.524305 1_555
Fe19 Fe29 2.524305 1_565
Fe19 Fe3 2.629003 1_555
Fe19 Fe4 2.649379 1_565
Fe19 Nd3 3.057345 1_556
Fe19 Pr2 3.267415 1_566
Fe20 Fe41 2.449537 1_555
Fe20 Fe52 2.480197 1_655
Fe20 Fe47 2.503103 1_555
Fe20 Fe40 2.519198 1_655
Fe20 Fe26 2.524305 1_655
Fe20 Fe27 2.524305 1_555
Fe20 Fe21 2.528576 1_655
Fe20 Fe4 2.629003 1_555
Fe20 Fe3 2.649379 1_555
Fe20 Nd1 3.057345 1_555
Fe20 Pr0 3.267415 1_555
Fe21 Fe40 2.449537 1_555
Fe21 Fe52 2.480197 1_555
Fe21 Fe46 2.503103 1_555
Fe21 Fe41 2.519198 1_455
Fe21 Fe26 2.524305 1_555
Fe21 Fe27 2.524305 1_455
Fe21 Fe5 2.629003 1_555
Fe21 Nd0 3.057345 1_555
Fe21 Pr1 3.267415 1_555
Fe22 Fe43 2.449537 1_565
Fe22 Fe53 2.480197 1_565
Fe22 Fe44 2.503103 1_555
Fe22 Fe42 2.519198 1_555
Fe22 Fe25 2.524305 1_555
Fe22 Fe24 2.524305 1_565
Fe22 Fe23 2.528576 1_565
Fe22 Fe6 2.629003 1_555
Fe22 Nd3 3.057345 1_555
Fe22 Pr2 3.267415 1_565
Fe23 Fe42 2.449537 1_545
Fe23 Fe53 2.480197 1_555
Fe23 Fe45 2.503103 1_555
Fe23 Fe43 2.519198 1_555
Fe23 Fe24 2.524305 1_555
Fe23 Fe25 2.524305 1_545
Fe23 Fe7 2.629003 1_555
Fe23 Nd2 3.057345 1_555
Fe23 Pr3 3.267415 1_545
Fe24 Fe9 2.391430 1_555
Fe24 Fe45 2.449537 1_555
Fe24 Fe54 2.480197 1_555
Fe24 Fe43 2.503103 1_555
Fe24 Fe44 2.519198 1_545
Fe24 Fe25 2.528576 1_545
Fe24 Fe7 2.649379 1_555
Fe24 Nd1 3.057345 1_555
Fe24 Pr1 3.267415 1_555
Fe25 Fe8 2.391430 1_555
Fe25 Fe44 2.449537 1_555
Fe25 Fe54 2.480197 1_565
Fe25 Fe42 2.503103 1_555
Fe25 Fe45 2.519198 1_565
Fe25 Fe6 2.649379 1_555
Fe25 Nd0 3.057345 1_555
Fe25 Pr0 3.267415 1_555
Fe26 Fe47 2.449537 1_455
Fe26 Fe55 2.480197 1_556
Fe26 Fe40 2.503103 1_555
Fe26 Fe46 2.519198 1_555
Fe26 Fe27 2.528576 1_455
Fe26 Fe4 2.649379 1_455
Fe26 Nd2 3.057345 1_556
Fe26 Pr2 3.267415 1_456
Fe27 Fe46 2.449537 1_655
Fe27 Fe55 2.480197 1_656
Fe27 Fe41 2.503103 1_555
Fe27 Fe47 2.519198 1_555
Fe27 Fe3 2.629003 1_555
Fe27 Fe5 2.649379 1_655
Fe27 Nd3 3.057345 1_556
Fe27 Pr3 3.267415 1_656
Fe28 Fe49 2.449537 1_555
Fe28 Fe54 2.480197 1_565
Fe28 Fe39 2.503103 1_555
Fe28 Fe48 2.519198 1_565
Fe28 Fe29 2.528576 1_565
Fe28 Fe5 2.629003 1_555
Fe28 Fe3 2.649379 1_555
Fe28 Nd0 3.057345 1_555
Fe28 Pr0 3.267415 1_555
Fe29 Fe48 2.449537 1_555
Fe29 Fe54 2.480197 1_555
Fe29 Fe38 2.503103 1_555
Fe29 Fe49 2.519198 1_545
Fe29 Fe4 2.629003 1_555
Fe29 Nd1 3.057345 1_555
Fe29 Pr1 3.267415 1_555
Fe30 Fe51 2.449537 1_655
Fe30 Fe55 2.480197 1_655
Fe30 Fe36 2.503103 1_555
Fe30 Fe50 2.519198 1_555
Fe30 Fe31 2.528576 1_655
Fe30 Fe6 2.629003 1_555
Fe30 Nd3 3.057345 1_555
Fe30 Pr3 3.267415 1_655
Fe31 Fe50 2.449537 1_455
Fe31 Fe55 2.480197 1_555
Fe31 Fe37 2.503103 1_555
Fe31 Fe51 2.519198 1_555
Fe31 Fe7 2.629003 1_555
Fe31 Nd2 3.057345 1_555
Fe31 Pr2 3.267415 1_455
Fe32 Fe8 2.499443 1_555
Fe32 Fe9 2.499443 1_555
Fe32 Fe6 2.771075 1_555
Fe32 Fe7 2.771075 1_555
Fe32 Nd2 3.183258 1_555
Fe32 Nd3 3.183258 1_555
Fe33 Fe5 2.771075 1_545
Fe33 Fe4 2.771075 1_455
Fe33 Nd0 3.183258 1_545
Fe33 Nd1 3.183258 1_455
Fe34 Nd2 3.183258 1_556
Fe34 Nd3 3.183258 1_556
Fe35 Nd0 3.183258 1_545
Fe35 Nd1 3.183258 1_455
Fe36 Fe52 2.569066 1_655
Fe36 Fe6 2.704567 1_555
Fe36 Nd0 3.060656 1_655
Fe36 Pr0 3.064709 1_555
Fe37 Fe52 2.569066 1_555
Fe37 Fe7 2.704567 1_555
Fe37 Nd1 3.060656 1_455
Fe37 Pr1 3.064709 1_555
Fe38 Fe53 2.569066 1_556
Fe38 Fe4 2.704567 1_555
Fe38 Nd2 3.060656 1_556
Fe38 Pr2 3.064709 1_556
Fe39 Fe53 2.569066 1_566
Fe39 Fe5 2.704567 1_555
Fe39 Nd3 3.060656 1_556
Fe39 Pr3 3.064709 1_556
Fe40 Fe52 2.569066 1_555
Fe40 Nd1 3.060656 1_455
Fe40 Pr1 3.064709 1_555
Fe41 Fe52 2.569066 1_655
Fe41 Fe5 2.739030 1_655
Fe41 Nd0 3.060656 1_655
Fe41 Pr0 3.064709 1_555
Fe42 Fe8 2.565066 1_555
Fe42 Fe53 2.569066 1_565
Fe42 Fe6 2.739030 1_555
Fe42 Nd3 3.060656 1_555
Fe42 Pr3 3.064709 1_555
Fe43 Fe9 2.565066 1_555
Fe43 Fe53 2.569066 1_555
Fe43 Fe7 2.739030 1_555
Fe43 Nd2 3.060656 1_555
Fe43 Pr2 3.064709 1_555
Fe44 Fe54 2.569066 1_565
Fe44 Fe6 2.704567 1_555
Fe44 Nd1 3.060656 1_565
Fe44 Pr0 3.064709 1_555
Fe45 Fe54 2.569066 1_555
Fe45 Fe7 2.704567 1_555
Fe45 Nd0 3.060656 1_545
Fe45 Pr1 3.064709 1_555
Fe46 Fe55 2.569066 1_556
Fe46 Fe5 2.704567 1_555
Fe46 Nd2 3.060656 1_556
Fe46 Pr3 3.064709 1_556
Fe47 Fe55 2.569066 1_656
Fe47 Nd3 3.060656 1_556
Fe47 Pr2 3.064709 1_556
Fe48 Fe54 2.569066 1_555
Fe48 Fe5 2.739030 1_545
Fe48 Nd0 3.060656 1_545
Fe48 Pr1 3.064709 1_555
Fe49 Fe54 2.569066 1_565
Fe49 Nd1 3.060656 1_565
Fe49 Pr0 3.064709 1_555
Fe50 Fe9 2.565066 1_555
Fe50 Fe55 2.569066 1_655
Fe50 Fe6 2.739030 1_555
Fe50 Nd3 3.060656 1_555
Fe50 Pr2 3.064709 1_555
Fe51 Fe8 2.565066 1_555
Fe51 Fe55 2.569066 1_555
Fe51 Fe7 2.739030 1_555
Fe51 Nd2 3.060656 1_555
Fe51 Pr3 3.064709 1_555
Fe52 Nd1 3.109473 1_455
Fe52 Nd0 3.109473 1_555
Fe52 Pr1 3.375539 1_555
Fe52 Pr0 3.375539 1_455
Fe53 Nd2 3.109473 1_555
Fe53 Nd3 3.109473 1_545
Fe53 Pr3 3.375539 1_545
Fe53 Pr2 3.375539 1_555
Fe54 Nd0 3.109473 1_545
Fe54 Nd1 3.109473 1_555
Fe54 Pr1 3.375539 1_555
Fe54 Pr0 3.375539 1_545
Fe55 Nd2 3.109473 1_555
Fe55 Nd3 3.109473 1_455
Fe55 Pr3 3.375539 1_555
Fe55 Pr2 3.375539 1_455
B0 Fe35 2.064357 1_665
B0 Fe33 2.064357 1_665
B0 Fe41 2.095625 1_555
B0 Fe49 2.095625 1_555
B0 Fe44 2.095625 1_555
B0 Fe36 2.095625 1_555
B0 Pr0 2.897588 1_555
B0 Nd1 3.255237 1_565
B0 Nd0 3.255237 1_655
B1 Fe35 2.064357 1_555
B1 Fe33 2.064357 1_555
B1 Fe40 2.095625 1_555
B1 Fe48 2.095625 1_555
B1 Fe45 2.095625 1_555
B1 Fe37 2.095625 1_555
B1 Pr1 2.897588 1_555
B1 Nd0 3.255237 1_545
B1 Nd1 3.255237 1_455
B2 Fe32 2.064357 1_555
B2 Fe34 2.064357 1_554
B2 Fe43 2.095625 1_555
B2 Fe38 2.095625 1_554
B2 Fe47 2.095625 1_554
B2 Fe50 2.095625 1_555
B2 Pr2 2.897588 1_555
B2 Nd2 3.255237 1_555
B2 Nd3 3.255237 1_555
B3 Fe32 2.064357 1_555
B3 Fe34 2.064357 1_554
B3 Fe46 2.095625 1_554
B3 Fe51 2.095625 1_555
B3 Fe39 2.095625 1_554
B3 Fe42 2.095625 1_555
B3 Pr3 2.897588 1_555
B3 Nd2 3.255237 1_555
B3 Nd3 3.255237 1_555
