# generated using pymatgen
data_BaSr2(PO4)2
_symmetry_space_group_name_H-M   'P 1'
_cell_length_a   7.52072877
_cell_length_b   7.52072877
_cell_length_c   7.52072918
_cell_angle_alpha   43.18446836
_cell_angle_beta   43.18446836
_cell_angle_gamma   43.18446641
_symmetry_Int_Tables_number   1
_chemical_formula_structural   BaSr2(PO4)2
_chemical_formula_sum   'Ba1 Sr2 P2 O8'
_cell_volume   180.64258018
_cell_formula_units_Z   1
loop_
 _symmetry_equiv_pos_site_id
 _symmetry_equiv_pos_as_xyz
  1  'x, y, z'
loop_
 _atom_site_type_symbol
 _atom_site_label
 _atom_site_symmetry_multiplicity
 _atom_site_fract_x
 _atom_site_fract_y
 _atom_site_fract_z
 _atom_site_occupancy
  Ba  Ba0  1  0.00000000  0.00000000  0.00000000  1
  Sr  Sr0  1  0.20926400  0.20926400  0.20926400  1
  Sr  Sr1  1  0.79073600  0.79073600  0.79073600  1
  P  P0  1  0.40995700  0.40995700  0.40995700  1
  P  P1  1  0.59004300  0.59004300  0.59004300  1
  O  O0  1  0.33385200  0.33385200  0.33385200  1
  O  O1  1  0.66614800  0.66614800  0.66614800  1
  O  O2  1  0.28284300  0.74265000  0.28284300  1
  O  O3  1  0.28284300  0.28284300  0.74265000  1
  O  O4  1  0.74265000  0.28284300  0.28284300  1
  O  O5  1  0.71715700  0.25735000  0.71715700  1
  O  O6  1  0.71715700  0.71715700  0.25735000  1
  O  O7  1  0.25735000  0.71715700  0.71715700  1
loop_
_geom_bond_atom_site_label_1
_geom_bond_atom_site_label_2
_geom_bond_distance
_geom_bond_site_symmetry_2
Ba0 O6 2.717833 1_445
Ba0 O3 2.717833 1_554
Ba0 O7 2.717833 1_544
Ba0 O5 2.717833 1_454
Ba0 O2 2.717833 1_545
Ba0 O4 2.717833 1_455
Ba0 O0 3.195786 1_545
Ba0 O0 3.195786 1_455
Ba0 O1 3.195786 1_454
Ba0 O1 3.195786 1_544
Ba0 O1 3.195787 1_445
Ba0 O0 3.195787 1_554
O0 P0 1.554361 1_555
O0 Sr0 2.544573 1_555
O1 P1 1.554361 1_555
O1 Sr1 2.544573 1_555
O2 P0 1.563522 1_555
O2 Sr0 2.776721 1_565
O2 Sr1 2.804512 1_554
O2 Sr1 2.804512 1_455
O3 P0 1.563522 1_555
O3 Sr0 2.776721 1_556
O3 Sr1 2.804512 1_545
O3 Sr1 2.804512 1_455
O4 P0 1.563522 1_555
O4 Sr0 2.776721 1_655
O4 Sr1 2.804512 1_554
O4 Sr1 2.804512 1_545
O5 P1 1.563522 1_555
O5 Sr1 2.776721 1_545
O5 Sr0 2.804512 1_556
O5 Sr0 2.804512 1_655
O6 P1 1.563522 1_555
O6 Sr1 2.776721 1_554
O6 Sr0 2.804512 1_655
O6 Sr0 2.804512 1_565
O7 P1 1.563522 1_555
O7 Sr1 2.776721 1_455
O7 Sr0 2.804512 1_556
O7 Sr0 2.804512 1_565
