# generated using pymatgen
data_LiMg14Sb
_symmetry_space_group_name_H-M   'P 1'
_cell_length_a   6.36988231
_cell_length_b   6.33193987
_cell_length_c   10.43410114
_cell_angle_alpha   90.00000000
_cell_angle_beta   90.00000000
_cell_angle_gamma   119.80315951
_symmetry_Int_Tables_number   1
_chemical_formula_structural   LiMg14Sb
_chemical_formula_sum   'Li1 Mg14 Sb1'
_cell_volume   365.18411020
_cell_formula_units_Z   1
loop_
 _symmetry_equiv_pos_site_id
 _symmetry_equiv_pos_as_xyz
  1  'x, y, z'
loop_
 _atom_site_type_symbol
 _atom_site_label
 _atom_site_symmetry_multiplicity
 _atom_site_fract_x
 _atom_site_fract_y
 _atom_site_fract_z
 _atom_site_occupancy
  Li  Li0  1  0.16636156  0.33318028  0.12500000  1
  Mg  Mg0  1  0.16742336  0.33371118  0.62500000  1
  Mg  Mg1  1  0.16663863  0.83331882  0.62500000  1
  Mg  Mg2  1  0.66743289  0.33270506  0.12500000  1
  Mg  Mg3  1  0.66638143  0.33394345  0.62500000  1
  Mg  Mg4  1  0.66743289  0.83472683  0.12500000  1
  Mg  Mg5  1  0.66638143  0.83243698  0.62500000  1
  Mg  Mg6  1  0.33376237  0.16793419  0.37562365  1
  Mg  Mg7  1  0.33376237  0.16793419  0.87437635  1
  Mg  Mg8  1  0.33376237  0.66582918  0.37562365  1
  Mg  Mg9  1  0.33376237  0.66582918  0.87437635  1
  Mg  Mg10  1  0.83317294  0.16658697  0.37580210  1
  Mg  Mg11  1  0.83317294  0.16658697  0.87419790  1
  Mg  Mg12  1  0.83163297  0.66581698  0.37560349  1
  Mg  Mg13  1  0.83163297  0.66581698  0.87439651  1
  Sb  Sb0  1  0.16728649  0.83364274  0.12500000  1
loop_
_geom_bond_atom_site_label_1
_geom_bond_atom_site_label_2
_geom_bond_distance
_geom_bond_site_symmetry_2
Li0 Sb0 3.165974 1_555
Li0 Sb0 3.165974 1_545
Li0 Mg4 3.176622 1_445
Li0 Mg2 3.176622 1_455
Li0 Mg6 3.190505 1_555
Li0 Mg7 3.190505 1_554
Li0 Mg9 3.190511 1_554
Li0 Mg8 3.190511 1_555
Li0 Mg4 3.193262 1_555
Li0 Mg2 3.193262 1_555
Li0 Mg10 3.199978 1_455
Li0 Mg11 3.199978 1_454
Mg0 Mg1 3.165973 1_545
Mg0 Mg1 3.165973 1_555
Mg0 Mg5 3.177573 1_555
Mg0 Mg3 3.177573 1_555
Mg0 Mg6 3.178144 1_555
Mg0 Mg7 3.178144 1_555
Mg0 Mg8 3.178150 1_555
Mg0 Mg9 3.178150 1_555
Mg0 Mg11 3.189700 1_455
Mg0 Mg10 3.189700 1_455
Mg0 Mg5 3.192309 1_445
Mg0 Mg3 3.192309 1_455
Mg1 Mg3 3.183808 1_455
Mg1 Mg5 3.183808 1_455
Mg1 Mg8 3.186031 1_555
Mg1 Mg9 3.186031 1_555
Mg1 Mg6 3.186037 1_565
Mg1 Mg7 3.186037 1_565
Mg1 Mg3 3.186081 1_565
Mg1 Mg5 3.186082 1_555
Mg1 Mg13 3.193808 1_455
Mg1 Mg12 3.193808 1_455
Mg2 Mg4 3.153168 1_545
Mg2 Mg4 3.178772 1_555
Mg2 Sb0 3.182467 1_545
Mg2 Sb0 3.187426 1_655
Mg2 Mg6 3.200017 1_555
Mg2 Mg7 3.200017 1_554
Mg3 Mg5 3.156431 1_555
Mg3 Mg5 3.175509 1_545
Mg3 Mg6 3.186007 1_555
Mg3 Mg7 3.186007 1_555
Mg4 Sb0 3.182468 1_555
Mg4 Sb0 3.187426 1_655
Mg4 Mg8 3.200017 1_555
Mg4 Mg9 3.200017 1_554
Mg5 Mg8 3.186007 1_555
Mg5 Mg9 3.186007 1_555
Mg6 Mg8 3.152641 1_555
Mg6 Mg8 3.179299 1_545
Mg6 Sb0 3.195642 1_545
Mg7 Mg9 3.152641 1_555
Mg7 Mg9 3.179299 1_545
Mg7 Sb0 3.195642 1_546
Mg8 Sb0 3.195635 1_555
Mg9 Sb0 3.195635 1_556
Mg10 Mg12 3.165982 1_555
Mg10 Mg12 3.165982 1_545
Mg10 Mg3 3.183032 1_555
Mg10 Mg5 3.183039 1_545
Mg10 Mg8 3.184465 1_655
Mg10 Mg6 3.184465 1_655
Mg10 Mg8 3.185435 1_545
Mg10 Mg6 3.185436 1_555
Mg10 Mg2 3.189513 1_555
Mg10 Mg4 3.189519 1_545
Mg11 Mg13 3.165982 1_555
Mg11 Mg13 3.165982 1_545
Mg11 Mg3 3.183032 1_555
Mg11 Mg5 3.183039 1_545
Mg11 Mg9 3.184465 1_655
Mg11 Mg7 3.184465 1_655
Mg11 Mg9 3.185435 1_545
Mg11 Mg7 3.185436 1_555
Mg11 Mg2 3.189513 1_556
Mg11 Mg4 3.189519 1_546
Mg12 Mg6 3.171415 1_555
Mg12 Mg8 3.171416 1_555
Mg12 Mg5 3.177523 1_555
Mg12 Mg3 3.177529 1_555
Mg12 Mg4 3.191732 1_555
Mg12 Mg2 3.191739 1_555
Mg12 Mg6 3.198467 1_665
Mg12 Mg8 3.198467 1_655
Mg12 Sb0 3.206148 1_655
Mg13 Mg7 3.171415 1_555
Mg13 Mg9 3.171416 1_555
Mg13 Mg5 3.177523 1_555
Mg13 Mg3 3.177529 1_555
Mg13 Mg4 3.191732 1_556
Mg13 Mg2 3.191739 1_556
Mg13 Mg7 3.198467 1_665
Mg13 Mg9 3.198467 1_655
Mg13 Sb0 3.206148 1_656
