# generated using pymatgen
data_YRh3
_symmetry_space_group_name_H-M   'P 1'
_cell_length_a   5.22936643
_cell_length_b   5.22936643
_cell_length_c   17.38107637
_cell_angle_alpha   90.00000000
_cell_angle_beta   90.00000000
_cell_angle_gamma   120.00000271
_symmetry_Int_Tables_number   1
_chemical_formula_structural   YRh3
_chemical_formula_sum   'Y6 Rh18'
_cell_volume   411.62850106
_cell_formula_units_Z   6
loop_
 _symmetry_equiv_pos_site_id
 _symmetry_equiv_pos_as_xyz
  1  'x, y, z'
loop_
 _atom_site_type_symbol
 _atom_site_label
 _atom_site_symmetry_multiplicity
 _atom_site_fract_x
 _atom_site_fract_y
 _atom_site_fract_z
 _atom_site_occupancy
  Y  Y0  1  0.66666654  0.33333346  0.04219392  1
  Y  Y1  1  0.33333346  0.66666654  0.95780608  1
  Y  Y2  1  0.33333346  0.66666654  0.54219392  1
  Y  Y3  1  0.66666654  0.33333346  0.45780608  1
  Y  Y4  1  0.66667450  0.33332550  0.25000000  1
  Y  Y5  1  0.33332550  0.66667450  0.75000000  1
  Rh  Rh0  1  0.83279003  0.66557909  0.62646921  1
  Rh  Rh1  1  0.83279268  0.16720732  0.62647564  1
  Rh  Rh2  1  0.33442091  0.16720997  0.62646921  1
  Rh  Rh3  1  0.16720997  0.33442091  0.37353079  1
  Rh  Rh4  1  0.16720732  0.83279268  0.37352436  1
  Rh  Rh5  1  0.66557909  0.83279003  0.37353079  1
  Rh  Rh6  1  0.16720997  0.33442091  0.12646921  1
  Rh  Rh7  1  0.16720732  0.83279268  0.12647564  1
  Rh  Rh8  1  0.66557909  0.83279003  0.12646921  1
  Rh  Rh9  1  0.83279003  0.66557909  0.87353079  1
  Rh  Rh10  1  0.83279268  0.16720732  0.87352436  1
  Rh  Rh11  1  0.33442091  0.16720997  0.87353079  1
  Rh  Rh12  1  0.66664394  0.33335606  0.75000000  1
  Rh  Rh13  1  0.33335606  0.66664394  0.25000000  1
  Rh  Rh14  1  0.00001902  0.99998098  0.75000000  1
  Rh  Rh15  1  0.99998098  0.00001902  0.25000000  1
  Rh  Rh16  1  -0.00000000  -0.00000000  0.50000000  1
  Rh  Rh17  1  -0.00000000  -0.00000000  -0.00000000  1
loop_
_geom_bond_atom_site_label_1
_geom_bond_atom_site_label_2
_geom_bond_distance
_geom_bond_site_symmetry_2
Rh0 Rh2 2.606155 1_555
Rh0 Rh1 2.606176 1_555
Rh0 Rh12 2.621780 1_555
Rh0 Rh1 2.623191 1_565
Rh0 Rh2 2.623212 1_665
Rh0 Rh14 2.627455 1_655
Rh0 Rh16 2.669402 1_665
Rh0 Y2 2.997033 1_655
Rh0 Y2 2.997036 1_555
Rh0 Y3 3.295144 1_555
Rh0 Y5 3.383236 1_655
Rh0 Y5 3.383335 1_555
Rh1 Rh2 2.606176 1_555
Rh1 Rh12 2.621882 1_555
Rh1 Rh2 2.623191 1_655
Rh1 Rh14 2.627496 1_645
Rh1 Rh16 2.669478 1_655
Rh1 Y2 2.997089 1_655
Rh1 Y2 2.997089 1_545
Rh1 Y3 3.295257 1_555
Rh1 Y5 3.383215 1_655
Rh1 Y5 3.383215 1_545
Rh2 Y2 2.997033 1_545
Rh2 Y2 2.997036 1_555
Rh2 Y3 3.295144 1_555
Rh2 Y5 3.383236 1_545
Rh2 Y5 3.383335 1_555
Rh3 Rh5 2.606155 1_555
Rh3 Rh4 2.606176 1_555
Rh3 Rh4 2.623191 1_545
Rh3 Rh5 2.623212 1_445
Rh3 Y3 2.997033 1_455
Rh3 Y3 2.997036 1_555
Rh3 Y2 3.295144 1_555
Rh3 Y4 3.383236 1_455
Rh3 Y4 3.383335 1_555
Rh4 Rh5 2.606176 1_555
Rh4 Rh5 2.623191 1_455
Rh4 Y3 2.997089 1_565
Rh4 Y3 2.997089 1_455
Rh4 Y2 3.295257 1_555
Rh4 Y4 3.383215 1_565
Rh4 Y4 3.383215 1_455
Rh5 Y3 2.997033 1_565
Rh5 Y3 2.997036 1_555
Rh5 Y2 3.295144 1_555
Rh5 Y4 3.383236 1_565
Rh5 Y4 3.383335 1_555
Rh6 Rh8 2.606155 1_555
Rh6 Rh7 2.606176 1_555
Rh6 Rh7 2.623191 1_545
Rh6 Rh8 2.623212 1_445
Rh6 Y0 2.997033 1_455
Rh6 Y0 2.997036 1_555
Rh6 Y1 3.295144 1_554
Rh6 Y4 3.383236 1_455
Rh6 Y4 3.383335 1_555
Rh7 Rh8 2.606176 1_555
Rh7 Rh8 2.623191 1_455
Rh7 Y0 2.997089 1_455
Rh7 Y0 2.997089 1_565
Rh7 Y1 3.295257 1_554
Rh7 Y4 3.383215 1_565
Rh7 Y4 3.383215 1_455
Rh8 Y0 2.997033 1_565
Rh8 Y0 2.997036 1_555
Rh8 Y1 3.295144 1_554
Rh8 Y4 3.383236 1_565
Rh8 Y4 3.383335 1_555
Rh9 Y1 2.997033 1_655
Rh9 Y1 2.997036 1_555
Rh9 Y0 3.295144 1_556
Rh9 Y5 3.383236 1_655
Rh9 Y5 3.383335 1_555
Rh10 Rh9 2.606176 1_555
Rh10 Rh11 2.606176 1_555
Rh10 Rh12 2.621882 1_555
Rh10 Rh9 2.623191 1_545
Rh10 Rh11 2.623191 1_655
Rh10 Rh14 2.627496 1_645
Rh10 Rh17 2.669478 1_656
Rh10 Y1 2.997089 1_655
Rh10 Y1 2.997089 1_545
Rh10 Y0 3.295257 1_556
Rh10 Y5 3.383215 1_655
Rh10 Y5 3.383215 1_545
Rh11 Rh9 2.606155 1_555
Rh11 Rh12 2.621780 1_555
Rh11 Rh9 2.623212 1_445
Rh11 Rh14 2.627455 1_545
Rh11 Rh17 2.669402 1_556
Rh11 Y1 2.997033 1_545
Rh11 Y1 2.997036 1_555
Rh11 Y0 3.295144 1_556
Rh11 Y5 3.383236 1_545
Rh11 Y5 3.383335 1_555
Rh12 Rh2 2.621780 1_555
Rh12 Rh9 2.621780 1_555
Rh12 Rh14 3.018987 1_545
Rh12 Rh14 3.018987 1_655
Rh12 Y5 3.019041 1_555
Rh12 Y5 3.019243 1_655
Rh12 Y5 3.019243 1_545
Rh12 Rh14 3.019554 1_645
Rh13 Rh3 2.621780 1_555
Rh13 Rh8 2.621780 1_555
Rh13 Rh6 2.621780 1_555
Rh13 Rh5 2.621780 1_555
Rh13 Rh4 2.621882 1_555
Rh13 Rh7 2.621882 1_555
Rh13 Rh15 3.018987 1_565
Rh13 Rh15 3.018987 1_455
Rh13 Y4 3.019041 1_555
Rh13 Y4 3.019243 1_565
Rh13 Y4 3.019243 1_455
Rh13 Rh15 3.019554 1_465
Rh14 Rh9 2.627455 1_455
Rh14 Rh2 2.627455 1_565
Rh14 Y5 3.018933 1_555
Rh14 Y5 3.019298 1_565
Rh14 Y5 3.019298 1_455
Rh15 Rh5 2.627455 1_545
Rh15 Rh8 2.627455 1_545
Rh15 Rh3 2.627455 1_655
Rh15 Rh6 2.627455 1_655
Rh15 Rh7 2.627496 1_645
Rh15 Rh4 2.627496 1_645
Rh15 Y4 3.018933 1_555
Rh15 Y4 3.019298 1_655
Rh15 Y4 3.019298 1_545
Rh16 Rh2 2.669402 1_555
Rh16 Rh5 2.669402 1_445
Rh16 Rh3 2.669402 1_555
Rh16 Rh4 2.669478 1_545
Rh16 Y3 3.106970 1_555
Rh16 Y3 3.106970 1_445
Rh16 Y2 3.106970 1_555
Rh16 Y2 3.106970 1_445
Rh16 Y3 3.106971 1_455
Rh16 Y2 3.106971 1_545
Rh17 Rh9 2.669402 1_444
Rh17 Rh8 2.669402 1_445
Rh17 Rh6 2.669402 1_555
Rh17 Rh7 2.669478 1_545
Rh17 Y0 3.106970 1_555
Rh17 Y1 3.106970 1_554
Rh17 Y1 3.106970 1_444
Rh17 Y0 3.106970 1_445
Rh17 Y1 3.106971 1_544
Rh17 Y0 3.106971 1_455
