# generated using pymatgen
data_MnNF3
_symmetry_space_group_name_H-M   'P 1'
_cell_length_a   3.93874000
_cell_length_b   5.67174100
_cell_length_c   5.71789700
_cell_angle_alpha   90.00000000
_cell_angle_beta   90.00000000
_cell_angle_gamma   90.00000000
_symmetry_Int_Tables_number   1
_chemical_formula_structural   MnNF3
_chemical_formula_sum   'Mn2 N2 F6'
_cell_volume   127.73503520
_cell_formula_units_Z   2
loop_
 _symmetry_equiv_pos_site_id
 _symmetry_equiv_pos_as_xyz
  1  'x, y, z'
loop_
 _atom_site_type_symbol
 _atom_site_label
 _atom_site_symmetry_multiplicity
 _atom_site_fract_x
 _atom_site_fract_y
 _atom_site_fract_z
 _atom_site_occupancy
  Mn  Mn0  1  0.00000000  0.50000000  0.50000000  1
  Mn  Mn1  1  0.00000000  0.00000000  0.00000000  1
  N  N0  1  0.50000000  0.00000000  0.50000000  1
  N  N1  1  0.50000000  0.50000000  0.00000000  1
  F  F0  1  0.00000000  0.25492200  0.27917300  1
  F  F1  1  0.00000000  0.75492200  0.22082700  1
  F  F2  1  0.00000000  0.74507800  0.72082700  1
  F  F3  1  0.00000000  0.24507800  0.77917300  1
  F  F4  1  0.50000000  0.50000000  0.50000000  1
  F  F5  1  0.50000000  0.00000000  0.00000000  1
loop_
_geom_bond_atom_site_label_1
_geom_bond_atom_site_label_2
_geom_bond_distance
_geom_bond_site_symmetry_2
F0 Mn0 1.877892 1_555
F0 Mn1 2.153742 1_555
F1 Mn1 1.877892 1_565
F1 Mn0 2.153742 1_555
F2 Mn0 1.877892 1_555
F2 Mn1 2.153742 1_566
F3 Mn1 1.877892 1_556
F3 Mn0 2.153742 1_555
F4 Mn0 1.969370 1_555
F4 Mn0 1.969370 1_655
F5 Mn1 1.969370 1_555
F5 Mn1 1.969370 1_655
