# generated using pymatgen
data_Ce4SiRh12
_symmetry_space_group_name_H-M   'P 1'
_cell_length_a   7.14632626
_cell_length_b   7.14632626
_cell_length_c   7.14632626
_cell_angle_alpha   109.47133709
_cell_angle_beta   109.47133709
_cell_angle_gamma   109.47133709
_symmetry_Int_Tables_number   1
_chemical_formula_structural   Ce4SiRh12
_chemical_formula_sum   'Ce4 Si1 Rh12'
_cell_volume   280.94723082
_cell_formula_units_Z   1
loop_
 _symmetry_equiv_pos_site_id
 _symmetry_equiv_pos_as_xyz
  1  'x, y, z'
loop_
 _atom_site_type_symbol
 _atom_site_label
 _atom_site_symmetry_multiplicity
 _atom_site_fract_x
 _atom_site_fract_y
 _atom_site_fract_z
 _atom_site_occupancy
  Ce  Ce0  1  0.00000000  0.00000000  0.50000000  1
  Ce  Ce1  1  0.00000000  0.50000000  -0.00000000  1
  Ce  Ce2  1  0.50000000  0.00000000  -0.00000000  1
  Ce  Ce3  1  0.50000000  0.50000000  0.50000000  1
  Si  Si0  1  0.00000000  0.00000000  -0.00000000  1
  Rh  Rh0  1  0.74999645  0.25000355  0.50000000  1
  Rh  Rh1  1  0.74999645  0.50000000  0.25000355  1
  Rh  Rh2  1  0.50000000  0.25000355  0.74999645  1
  Rh  Rh3  1  0.25000355  0.50000000  0.74999645  1
  Rh  Rh4  1  0.25000355  0.74999645  0.50000000  1
  Rh  Rh5  1  0.50000000  0.74999645  0.25000355  1
  Rh  Rh6  1  0.72041792  0.72041792  -0.00000674  1
  Rh  Rh7  1  0.27958208  0.00000674  0.27958208  1
  Rh  Rh8  1  0.00000674  0.27958208  0.27958208  1
  Rh  Rh9  1  0.27958208  0.27958208  0.00000674  1
  Rh  Rh10  1  0.72041792  -0.00000674  0.72041792  1
  Rh  Rh11  1  -0.00000674  0.72041792  0.72041792  1
loop_
_geom_bond_atom_site_label_1
_geom_bond_atom_site_label_2
_geom_bond_distance
_geom_bond_site_symmetry_2
Ce0 Rh1 2.917465 1_445
Ce0 Rh2 2.917465 1_555
Ce0 Rh5 2.917465 1_445
Ce0 Rh3 2.917465 1_555
Ce0 Rh0 2.917519 1_455
Ce0 Rh4 2.917519 1_545
Ce0 Rh7 2.927670 1_555
Ce0 Rh11 2.927670 1_545
Ce0 Rh10 2.927670 1_455
Ce0 Rh8 2.927670 1_555
Ce0 Rh9 2.927695 1_556
Ce0 Rh6 2.927695 1_445
Ce1 Rh0 2.917465 1_454
Ce1 Rh5 2.917465 1_555
Ce1 Rh4 2.917465 1_555
Ce1 Rh2 2.917465 1_454
Ce1 Rh1 2.917519 1_455
Ce1 Rh3 2.917519 1_554
Ce1 Rh8 2.927670 1_555
Ce1 Rh11 2.927670 1_554
Ce1 Rh9 2.927670 1_555
Ce1 Rh6 2.927670 1_455
Ce1 Rh7 2.927695 1_565
Ce1 Rh10 2.927695 1_454
Ce2 Rh3 2.917465 1_544
Ce2 Rh4 2.917465 1_544
Ce2 Rh0 2.917465 1_555
Ce2 Rh1 2.917465 1_555
Ce2 Rh2 2.917519 1_554
Ce2 Rh5 2.917519 1_545
Ce2 Rh10 2.927670 1_554
Ce2 Rh7 2.927670 1_555
Ce2 Rh9 2.927670 1_555
Ce2 Rh6 2.927670 1_545
Ce2 Rh8 2.927695 1_655
Ce2 Rh11 2.927695 1_544
Ce3 Rh3 2.917436 1_555
Ce3 Rh5 2.917436 1_555
Ce3 Rh2 2.917436 1_555
Ce3 Rh0 2.917436 1_555
Ce3 Rh1 2.917436 1_555
Ce3 Rh4 2.917436 1_555
Ce3 Rh11 2.927619 1_655
Ce3 Rh9 2.927619 1_555
Ce3 Rh6 2.927619 1_556
Ce3 Rh8 2.927619 1_555
Ce3 Rh7 2.927619 1_555
Ce3 Rh10 2.927619 1_565
Rh6 Si0 2.307043 1_665
Rh7 Si0 2.307043 1_555
Rh8 Si0 2.307043 1_555
Rh9 Si0 2.307043 1_555
Rh10 Si0 2.307043 1_656
Rh11 Si0 2.307043 1_566
