# generated using pymatgen
data_YbCdIn
_symmetry_space_group_name_H-M   'P 1'
_cell_length_a   4.78864005
_cell_length_b   4.78864005
_cell_length_c   7.31382437
_cell_angle_alpha   90.00000000
_cell_angle_beta   90.00000000
_cell_angle_gamma   120.00001143
_symmetry_Int_Tables_number   1
_chemical_formula_structural   YbCdIn
_chemical_formula_sum   'Yb2 Cd2 In2'
_cell_volume   145.24443315
_cell_formula_units_Z   2
loop_
 _symmetry_equiv_pos_site_id
 _symmetry_equiv_pos_as_xyz
  1  'x, y, z'
loop_
 _atom_site_type_symbol
 _atom_site_label
 _atom_site_symmetry_multiplicity
 _atom_site_fract_x
 _atom_site_fract_y
 _atom_site_fract_z
 _atom_site_occupancy
  Yb  Yb0  1  0.00000000  0.00000000  0.26421771  1
  Yb  Yb1  1  0.00000000  0.00000000  0.73578229  1
  Cd  Cd0  1  0.33333300  0.66666700  0.47161720  1
  Cd  Cd1  1  0.66666700  0.33333300  0.52838280  1
  In  In0  1  0.66666700  0.33333300  0.94306148  1
  In  In1  1  0.33333300  0.66666700  0.05693852  1
loop_
_geom_bond_atom_site_label_1
_geom_bond_atom_site_label_2
_geom_bond_distance
_geom_bond_site_symmetry_2
Cd0 Cd1 2.795719 1_565
Cd0 Cd1 2.795719 1_455
Cd0 Cd1 2.795727 1_555
Cd0 In1 3.032887 1_555
Cd0 Yb0 3.153508 1_565
Cd0 Yb0 3.153511 1_555
Cd0 Yb0 3.153511 1_665
Cd0 Yb1 3.372910 1_565
Cd0 Yb1 3.372913 1_555
Cd0 Yb1 3.372913 1_665
Cd1 In0 3.032887 1_555
Cd1 Yb1 3.153508 1_655
Cd1 Yb1 3.153511 1_555
Cd1 Yb1 3.153511 1_665
Cd1 Yb0 3.372910 1_655
Cd1 Yb0 3.372913 1_555
Cd1 Yb0 3.372913 1_665
In0 In1 2.887448 1_656
In0 In1 2.887448 1_546
In0 In1 2.887457 1_556
In0 Yb1 3.153085 1_655
In0 Yb1 3.153088 1_555
In0 Yb1 3.153088 1_665
In0 Yb0 3.627798 1_656
In0 Yb0 3.627800 1_556
In0 Yb0 3.627800 1_666
In1 Yb0 3.153085 1_565
In1 Yb0 3.153088 1_555
In1 Yb0 3.153088 1_665
In1 Yb1 3.627798 1_564
In1 Yb1 3.627800 1_554
In1 Yb1 3.627800 1_664
