# generated using pymatgen
data_Sm2CoGe2
_symmetry_space_group_name_H-M   'P 1'
_cell_length_a   5.79027080
_cell_length_b   5.79027080
_cell_length_c   10.42290063
_cell_angle_alpha   63.61423549
_cell_angle_beta   63.61423549
_cell_angle_gamma   43.43730158
_symmetry_Int_Tables_number   1
_chemical_formula_structural   Sm2CoGe2
_chemical_formula_sum   'Sm4 Co2 Ge4'
_cell_volume   210.99382129
_cell_formula_units_Z   2
loop_
 _symmetry_equiv_pos_site_id
 _symmetry_equiv_pos_as_xyz
  1  'x, y, z'
loop_
 _atom_site_type_symbol
 _atom_site_label
 _atom_site_symmetry_multiplicity
 _atom_site_fract_x
 _atom_site_fract_y
 _atom_site_fract_z
 _atom_site_occupancy
  Sm  Sm0  1  0.18798700  0.18798700  0.88922400  1
  Sm  Sm1  1  0.81201300  0.81201300  0.11077600  1
  Sm  Sm2  1  0.00552800  0.00552800  0.66765100  1
  Sm  Sm3  1  0.99447200  0.99447200  0.33234900  1
  Co  Co0  1  0.27482600  0.27482600  0.36403200  1
  Co  Co1  1  0.72517400  0.72517400  0.63596800  1
  Ge  Ge0  1  0.49133800  0.49133800  0.87493400  1
  Ge  Ge1  1  0.50866200  0.50866200  0.12506600  1
  Ge  Ge2  1  0.34422500  0.34422500  0.56634800  1
  Ge  Ge3  1  0.65577500  0.65577500  0.43365200  1
loop_
_geom_bond_atom_site_label_1
_geom_bond_atom_site_label_2
_geom_bond_distance
_geom_bond_site_symmetry_2
Co0 Ge3 2.422585 1_455
Co0 Ge3 2.422585 1_545
Co0 Ge2 2.551562 1_555
Co0 Ge1 2.556876 1_555
Co0 Sm3 3.088297 1_545
Co0 Sm3 3.088297 1_455
Co0 Sm2 3.104295 1_555
Co0 Sm3 3.187370 1_445
Co0 Sm1 3.272399 1_545
Co0 Sm1 3.272399 1_455
Co1 Ge2 2.422585 1_565
Co1 Ge2 2.422585 1_655
Co1 Ge3 2.551562 1_555
Co1 Ge0 2.556876 1_555
Co1 Sm2 3.088297 1_565
Co1 Sm2 3.088297 1_655
Co1 Sm3 3.104295 1_555
Co1 Sm2 3.187370 1_665
Co1 Sm0 3.272399 1_655
Co1 Sm0 3.272399 1_565
Ge0 Ge1 2.701223 1_556
Ge0 Sm2 2.994422 1_565
Ge0 Sm2 2.994422 1_655
Ge0 Sm0 3.064425 1_655
Ge0 Sm0 3.064425 1_565
Ge0 Sm1 3.133434 1_546
Ge0 Sm1 3.133434 1_456
Ge0 Sm0 3.195019 1_555
Ge1 Sm3 2.994422 1_455
Ge1 Sm3 2.994422 1_545
Ge1 Sm1 3.064425 1_545
Ge1 Sm1 3.064425 1_455
Ge1 Sm0 3.133434 1_654
Ge1 Sm0 3.133434 1_564
Ge1 Sm1 3.195019 1_555
Ge2 Ge3 2.951643 1_555
Ge2 Sm0 2.956121 1_555
Ge2 Sm3 3.062770 1_455
Ge2 Sm3 3.062770 1_545
Ge2 Sm2 3.235823 1_565
Ge2 Sm2 3.235823 1_655
Ge2 Sm2 3.272852 1_555
Ge3 Sm1 2.956121 1_555
Ge3 Sm2 3.062770 1_565
Ge3 Sm2 3.062770 1_655
Ge3 Sm3 3.235823 1_455
Ge3 Sm3 3.235823 1_545
Ge3 Sm3 3.272852 1_555
