# generated using pymatgen
data_MgTiMo(PO4)3
_symmetry_space_group_name_H-M   'P 1'
_cell_length_a   8.65866966
_cell_length_b   8.65866986
_cell_length_c   8.65867057
_cell_angle_alpha   60.60776076
_cell_angle_beta   60.60776102
_cell_angle_gamma   60.60775620
_symmetry_Int_Tables_number   1
_chemical_formula_structural   MgTiMo(PO4)3
_chemical_formula_sum   'Mg2 Ti2 Mo2 P6 O24'
_cell_volume   465.32778126
_cell_formula_units_Z   2
loop_
 _symmetry_equiv_pos_site_id
 _symmetry_equiv_pos_as_xyz
  1  'x, y, z'
loop_
 _atom_site_type_symbol
 _atom_site_label
 _atom_site_symmetry_multiplicity
 _atom_site_fract_x
 _atom_site_fract_y
 _atom_site_fract_z
 _atom_site_occupancy
  Mg  Mg0  1  0.00097700  0.00097700  0.00097700  1
  Mg  Mg1  1  0.50097700  0.50097700  0.50097700  1
  Ti  Ti0  1  0.14591900  0.14591900  0.14591900  1
  Ti  Ti1  1  0.64591900  0.64591900  0.64591900  1
  Mo  Mo0  1  0.35779500  0.35779500  0.35779500  1
  Mo  Mo1  1  0.85779500  0.85779500  0.85779500  1
  P  P0  1  0.04362300  0.44869300  0.75727800  1
  P  P1  1  0.44869300  0.75727800  0.04362300  1
  P  P2  1  0.75727800  0.04362300  0.44869300  1
  P  P3  1  0.25727800  0.94869300  0.54362300  1
  P  P4  1  0.54362300  0.25727800  0.94869300  1
  P  P5  1  0.94869300  0.54362300  0.25727800  1
  O  O0  1  0.09603900  0.50487300  0.32773900  1
  O  O1  1  0.32773900  0.09603900  0.50487300  1
  O  O2  1  0.05276200  0.25327300  0.91492100  1
  O  O3  1  0.50487300  0.32773900  0.09603900  1
  O  O4  1  0.00487300  0.59603900  0.82773900  1
  O  O5  1  0.23919600  0.43478800  0.60116000  1
  O  O6  1  0.25327300  0.91492100  0.05276200  1
  O  O7  1  0.43478800  0.60116000  0.23919600  1
  O  O8  1  0.19005300  0.00173600  0.37917100  1
  O  O9  1  0.60116000  0.23919600  0.43478800  1
  O  O10  1  0.10116000  0.93478800  0.73919600  1
  O  O11  1  0.37917100  0.19005300  0.00173600  1
  O  O12  1  0.59603900  0.82773900  0.00487300  1
  O  O13  1  0.91492100  0.05276200  0.25327300  1
  O  O14  1  0.41492100  0.75327300  0.55276200  1
  O  O15  1  0.82773900  0.00487300  0.59603900  1
  O  O16  1  0.55276200  0.41492100  0.75327300  1
  O  O17  1  0.73919600  0.10116000  0.93478800  1
  O  O18  1  0.75327300  0.55276200  0.41492100  1
  O  O19  1  0.00173600  0.37917100  0.19005300  1
  O  O20  1  0.50173600  0.69005300  0.87917100  1
  O  O21  1  0.93478800  0.73919600  0.10116000  1
  O  O22  1  0.69005300  0.87917100  0.50173600  1
  O  O23  1  0.87917100  0.50173600  0.69005300  1
loop_
_geom_bond_atom_site_label_1
_geom_bond_atom_site_label_2
_geom_bond_distance
_geom_bond_site_symmetry_2
Mg0 O6 2.136415 1_545
Mg0 O2 2.136415 1_554
Mg0 O13 2.136416 1_455
Mg0 O17 2.252970 1_454
Mg0 O21 2.252970 1_445
Mg0 O10 2.252971 1_544
Mg1 O14 2.136415 1_555
Mg1 O18 2.136415 1_555
Mg1 O16 2.136416 1_555
Mg1 O9 2.252970 1_555
Mg1 O5 2.252970 1_555
Mg1 O7 2.252971 1_555
Mo0 O0 2.060794 1_555
Mo0 O1 2.060794 1_555
Mo0 O3 2.060794 1_555
Mo0 O9 2.126551 1_555
Mo0 O7 2.126551 1_555
Mo0 O5 2.126551 1_555
Mo1 O4 2.060794 1_655
Mo1 O12 2.060794 1_556
Mo1 O15 2.060794 1_565
Mo1 O17 2.126551 1_565
Mo1 O10 2.126551 1_655
Mo1 O21 2.126551 1_556
O0 P5 1.501811 1_455
O1 P3 1.501811 1_545
O2 P0 1.562070 1_555
O2 Ti0 2.130238 1_556
O3 P4 1.501811 1_554
O4 P0 1.501811 1_555
O5 P0 1.556314 1_555
O6 P1 1.562069 1_555
O6 Ti0 2.130238 1_565
O7 P1 1.556314 1_555
O8 P3 1.576886 1_545
O8 Ti0 1.896829 1_555
O9 P2 1.556314 1_555
O10 P3 1.556314 1_555
O11 P4 1.576886 1_554
O11 Ti0 1.896829 1_555
O12 P1 1.501811 1_555
O13 P2 1.562070 1_555
O13 Ti0 2.130238 1_655
O14 P3 1.562069 1_555
O14 Ti1 2.130238 1_555
O15 P2 1.501811 1_555
O16 P4 1.562070 1_555
O16 Ti1 2.130238 1_555
O17 P4 1.556314 1_555
O18 P5 1.562070 1_555
O18 Ti1 2.130238 1_555
O19 P5 1.576886 1_455
O19 Ti0 1.896829 1_555
O20 P1 1.576886 1_556
O20 Ti1 1.896829 1_555
O21 P5 1.556314 1_555
O22 P2 1.576886 1_565
O22 Ti1 1.896829 1_555
O23 P0 1.576886 1_655
O23 Ti1 1.896829 1_555
