# generated using pymatgen
data_Zr2Al3Cr
_symmetry_space_group_name_H-M   'P 1'
_cell_length_a   5.24153282
_cell_length_b   5.24153282
_cell_length_c   5.24153307
_cell_angle_alpha   60.66610988
_cell_angle_beta   60.66610988
_cell_angle_gamma   60.66609703
_symmetry_Int_Tables_number   1
_chemical_formula_structural   Zr2Al3Cr
_chemical_formula_sum   'Zr2 Al3 Cr1'
_cell_volume   103.35750926
_cell_formula_units_Z   1
loop_
 _symmetry_equiv_pos_site_id
 _symmetry_equiv_pos_as_xyz
  1  'x, y, z'
loop_
 _atom_site_type_symbol
 _atom_site_label
 _atom_site_symmetry_multiplicity
 _atom_site_fract_x
 _atom_site_fract_y
 _atom_site_fract_z
 _atom_site_occupancy
  Zr  Zr0  1  0.62892400  0.62892400  0.62892400  1
  Zr  Zr1  1  0.37107600  0.37107600  0.37107600  1
  Al  Al0  1  0.00000000  0.50000000  0.00000000  1
  Al  Al1  1  0.50000000  0.00000000  0.00000000  1
  Al  Al2  1  0.00000000  0.00000000  0.50000000  1
  Cr  Cr0  1  0.00000000  0.00000000  0.00000000  1
loop_
_geom_bond_atom_site_label_1
_geom_bond_atom_site_label_2
_geom_bond_distance
_geom_bond_site_symmetry_2
Zr0 Zr1 3.205105 1_565
Zr0 Zr1 3.205105 1_655
Zr0 Zr1 3.205105 1_556
Zr0 Zr1 3.293768 1_555
Al0 Cr0 2.620766 1_555
Al0 Cr0 2.620766 1_565
Al0 Al1 2.647108 1_555
Al0 Al1 2.647108 1_465
Al0 Al2 2.647109 1_555
Al0 Al2 2.647109 1_564
Al0 Zr1 3.025520 1_555
Al0 Zr0 3.025520 1_454
Al0 Zr0 3.117597 1_455
Al0 Zr1 3.117597 1_554
Al0 Zr0 3.117597 1_554
Al0 Zr1 3.117597 1_455
Al1 Cr0 2.620766 1_555
Al1 Cr0 2.620766 1_655
Al1 Al2 2.647109 1_555
Al1 Al2 2.647109 1_654
Al1 Zr1 3.025520 1_555
Al1 Zr0 3.025520 1_544
Al1 Zr0 3.117597 1_545
Al1 Zr1 3.117597 1_554
Al1 Zr0 3.117597 1_554
Al1 Zr1 3.117597 1_545
Al2 Cr0 2.620767 1_555
Al2 Cr0 2.620767 1_556
Al2 Zr1 3.025520 1_555
Al2 Zr0 3.025520 1_445
Al2 Zr0 3.117596 1_545
Al2 Zr0 3.117596 1_455
Al2 Zr1 3.117596 1_455
Al2 Zr1 3.117596 1_545
Cr0 Zr1 3.094407 1_545
Cr0 Zr1 3.094407 1_455
Cr0 Zr0 3.094407 1_454
Cr0 Zr0 3.094407 1_544
Cr0 Zr1 3.094408 1_554
Cr0 Zr0 3.094408 1_445
