# generated using pymatgen
data_Ho3GaNi
_symmetry_space_group_name_H-M   'P 1'
_cell_length_a   14.69425440
_cell_length_b   14.69425440
_cell_length_c   14.69425440
_cell_angle_alpha   134.07564826
_cell_angle_beta   134.07564826
_cell_angle_gamma   66.96987647
_symmetry_Int_Tables_number   1
_chemical_formula_structural   Ho3GaNi
_chemical_formula_sum   'Ho42 Ga14 Ni14'
_cell_volume   1610.97468234
_cell_formula_units_Z   14
loop_
 _symmetry_equiv_pos_site_id
 _symmetry_equiv_pos_as_xyz
  1  'x, y, z'
loop_
 _atom_site_type_symbol
 _atom_site_label
 _atom_site_symmetry_multiplicity
 _atom_site_fract_x
 _atom_site_fract_y
 _atom_site_fract_z
 _atom_site_occupancy
  Ho  Ho0  1  0.62203800  0.50591500  0.28184400  1
  Ho  Ho1  1  0.22407100  0.34019400  0.71815600  1
  Ho  Ho2  1  0.12203800  0.84019400  0.11612200  1
  Ho  Ho3  1  0.72407100  0.00591500  0.88387800  1
  Ho  Ho4  1  0.34019400  0.62203800  0.11612200  1
  Ho  Ho5  1  0.50591500  0.22407100  0.88387800  1
  Ho  Ho6  1  0.00591500  0.12203800  0.28184400  1
  Ho  Ho7  1  0.84019400  0.72407100  0.71815600  1
  Ho  Ho8  1  0.37796200  0.49408500  0.71815600  1
  Ho  Ho9  1  0.77592900  0.65980600  0.28184400  1
  Ho  Ho10  1  0.87796200  0.15980600  0.88387800  1
  Ho  Ho11  1  0.27592900  0.99408500  0.11612200  1
  Ho  Ho12  1  0.65980600  0.37796200  0.88387800  1
  Ho  Ho13  1  0.49408500  0.77592900  0.11612200  1
  Ho  Ho14  1  0.99408500  0.87796200  0.71815600  1
  Ho  Ho15  1  0.15980600  0.27592900  0.28184400  1
  Ho  Ho16  1  0.38463900  0.51530300  0.28750400  1
  Ho  Ho17  1  0.22779900  0.09713500  0.71249600  1
  Ho  Ho18  1  0.88463900  0.59713500  0.86933600  1
  Ho  Ho19  1  0.72779900  0.01530300  0.13066400  1
  Ho  Ho20  1  0.09713500  0.38463900  0.86933600  1
  Ho  Ho21  1  0.51530300  0.22779900  0.13066400  1
  Ho  Ho22  1  0.01530300  0.88463900  0.28750400  1
  Ho  Ho23  1  0.59713500  0.72779900  0.71249600  1
  Ho  Ho24  1  0.61536100  0.48469700  0.71249600  1
  Ho  Ho25  1  0.77220100  0.90286500  0.28750400  1
  Ho  Ho26  1  0.11536100  0.40286500  0.13066400  1
  Ho  Ho27  1  0.27220100  0.98469700  0.86933600  1
  Ho  Ho28  1  0.90286500  0.61536100  0.13066400  1
  Ho  Ho29  1  0.48469700  0.77220100  0.86933600  1
  Ho  Ho30  1  0.98469700  0.11536100  0.71249600  1
  Ho  Ho31  1  0.40286500  0.27220100  0.28750400  1
  Ho  Ho32  1  0.15090000  0.65090000  0.80179900  1
  Ho  Ho33  1  0.84910000  0.34910000  0.19820100  1
  Ho  Ho34  1  0.65090000  0.84910000  0.50000000  1
  Ho  Ho35  1  0.34910000  0.15090000  0.50000000  1
  Ho  Ho36  1  0.39147900  0.89147900  0.50000000  1
  Ho  Ho37  1  0.89147900  0.39147900  0.50000000  1
  Ho  Ho38  1  0.60852100  0.10852100  0.50000000  1
  Ho  Ho39  1  0.10852100  0.60852100  0.50000000  1
  Ho  Ho40  1  0.25000000  0.75000000  0.50000000  1
  Ho  Ho41  1  0.75000000  0.25000000  0.50000000  1
  Ga  Ga0  1  0.47072400  0.97072400  0.81757300  1
  Ga  Ga1  1  0.15315200  0.65315200  0.18242700  1
  Ga  Ga2  1  0.97072400  0.15315200  0.50000000  1
  Ga  Ga3  1  0.65315200  0.47072400  0.50000000  1
  Ga  Ga4  1  0.52927600  0.02927600  0.18242700  1
  Ga  Ga5  1  0.84684800  0.34684800  0.81757300  1
  Ga  Ga6  1  0.02927600  0.84684800  0.50000000  1
  Ga  Ga7  1  0.34684800  0.52927600  0.50000000  1
  Ga  Ga8  1  0.60503500  0.10503500  0.71006900  1
  Ga  Ga9  1  0.39496500  0.89496500  0.28993100  1
  Ga  Ga10  1  0.10503500  0.39496500  0.50000000  1
  Ga  Ga11  1  0.89496500  0.60503500  0.50000000  1
  Ga  Ga12  1  0.50000000  0.50000000  0.00000000  1
  Ga  Ga13  1  0.00000000  0.00000000  0.00000000  1
  Ni  Ni0  1  0.07033000  0.57033000  0.85777500  1
  Ni  Ni1  1  0.71255500  0.21255500  0.14222500  1
  Ni  Ni2  1  0.57033000  0.71255500  0.50000000  1
  Ni  Ni3  1  0.21255500  0.07033000  0.50000000  1
  Ni  Ni4  1  0.92967000  0.42967000  0.14222500  1
  Ni  Ni5  1  0.28744500  0.78744500  0.85777500  1
  Ni  Ni6  1  0.42967000  0.28744500  0.50000000  1
  Ni  Ni7  1  0.78744500  0.92967000  0.50000000  1
  Ni  Ni8  1  0.36031200  0.36031200  0.00000000  1
  Ni  Ni9  1  0.86031200  0.86031200  0.00000000  1
  Ni  Ni10  1  0.63968800  0.63968800  0.00000000  1
  Ni  Ni11  1  0.13968800  0.13968800  0.00000000  1
  Ni  Ni12  1  0.25000000  0.25000000  0.00000000  1
  Ni  Ni13  1  0.75000000  0.75000000  0.00000000  1
loop_
_geom_bond_atom_site_label_1
_geom_bond_atom_site_label_2
_geom_bond_distance
_geom_bond_site_symmetry_2
Ho0 Ni2 2.848695 1_555
Ho0 Ni8 2.910713 1_555
Ho0 Ni1 3.401012 1_555
Ho1 Ni3 2.848695 1_555
Ho1 Ni8 2.910713 1_556
Ho1 Ni0 3.401012 1_555
Ho2 Ni0 2.848693 1_554
Ho2 Ni9 2.910717 1_455
Ho2 Ni3 3.401022 1_565
Ho3 Ni1 2.848686 1_556
Ho3 Ni9 2.910704 1_546
Ho3 Ni2 3.401017 1_545
Ho4 Ni0 2.848693 1_554
Ho4 Ni8 2.910717 1_555
Ho4 Ni2 3.401022 1_555
Ho5 Ni1 2.848686 1_556
Ho5 Ni8 2.910704 1_556
Ho5 Ni3 3.401017 1_555
Ho6 Ni3 2.848695 1_555
Ho6 Ni9 2.910713 1_445
Ho6 Ni1 3.401012 1_455
Ho7 Ni2 2.848695 1_555
Ho7 Ni9 2.910713 1_556
Ho7 Ni0 3.401012 1_655
Ho8 Ni6 2.848695 1_555
Ho8 Ni10 2.910713 1_556
Ho8 Ni5 3.401012 1_555
Ho9 Ni7 2.848695 1_555
Ho9 Ni10 2.910713 1_555
Ho9 Ni4 3.401012 1_555
Ho10 Ni4 2.848693 1_556
Ho10 Ni11 2.910717 1_656
Ho10 Ni7 3.401022 1_545
Ho11 Ni5 2.848686 1_554
Ho11 Ni11 2.910704 1_565
Ho11 Ni6 3.401017 1_565
Ho12 Ni4 2.848693 1_556
Ho12 Ni10 2.910717 1_556
Ho12 Ni6 3.401022 1_555
Ho13 Ni5 2.848686 1_554
Ho13 Ni10 2.910704 1_555
Ho13 Ni7 3.401017 1_555
Ho14 Ni7 2.848695 1_555
Ho14 Ni11 2.910713 1_666
Ho14 Ni5 3.401012 1_655
Ho15 Ni6 2.848695 1_555
Ho15 Ni11 2.910713 1_555
Ho15 Ni4 3.401012 1_455
Ho16 Ni2 2.709260 1_555
Ho16 Ni8 2.883187 1_555
Ho16 Ni12 2.907519 1_555
Ho17 Ni3 2.709260 1_555
Ho17 Ni8 2.883187 1_556
Ho17 Ni12 2.907519 1_556
Ho18 Ni0 2.709260 1_655
Ho18 Ni9 2.883187 1_556
Ho18 Ni13 2.907519 1_556
Ho19 Ni1 2.709260 1_555
Ho19 Ni9 2.883187 1_545
Ho19 Ni13 2.907519 1_545
Ho20 Ni0 2.709260 1_555
Ho20 Ni8 2.883187 1_556
Ho20 Ni12 2.907519 1_556
Ho21 Ni1 2.709260 1_555
Ho21 Ni8 2.883187 1_555
Ho21 Ni12 2.907519 1_555
Ho22 Ni3 2.709260 1_565
Ho22 Ni9 2.883187 1_455
Ho22 Ni13 2.907519 1_455
Ho23 Ni2 2.709260 1_555
Ho23 Ni9 2.883187 1_556
Ho23 Ni13 2.907519 1_556
Ho24 Ni6 2.709260 1_555
Ho24 Ni10 2.883187 1_556
Ho24 Ni13 2.907519 1_556
Ho25 Ni7 2.709260 1_555
Ho25 Ni10 2.883187 1_555
Ho25 Ni13 2.907519 1_555
Ho26 Ni4 2.709260 1_455
Ho26 Ni11 2.883187 1_555
Ho26 Ni12 2.907519 1_555
Ho27 Ni5 2.709260 1_555
Ho27 Ni11 2.883187 1_566
Ho27 Ni12 2.907519 1_566
Ho28 Ni4 2.709260 1_555
Ho28 Ni10 2.883187 1_555
Ho28 Ni13 2.907519 1_555
Ho29 Ni5 2.709260 1_555
Ho29 Ni10 2.883187 1_556
Ho29 Ni13 2.907519 1_556
Ho30 Ni7 2.709260 1_545
Ho30 Ni11 2.883187 1_656
Ho30 Ni12 2.907519 1_656
Ho31 Ni6 2.709260 1_555
Ho31 Ni11 2.883187 1_555
Ho31 Ni12 2.907519 1_555
Ho32 Ni5 2.699253 1_555
Ho32 Ni0 2.699277 1_555
Ho33 Ni1 2.699253 1_555
Ho33 Ni4 2.699277 1_555
Ho34 Ni7 2.699263 1_555
Ho34 Ni2 2.699263 1_555
Ho35 Ni6 2.699263 1_555
Ho35 Ni3 2.699263 1_555
Ho36 Ni3 2.900511 1_565
Ho36 Ni2 2.900511 1_555
Ho37 Ni0 2.900511 1_655
Ho37 Ni1 2.900511 1_555
Ho38 Ni7 2.900511 1_545
Ho38 Ni6 2.900511 1_555
Ho39 Ni5 2.900511 1_555
Ho39 Ni4 2.900511 1_455
Ga0 Ho40 2.988859 1_555
Ga0 Ho19 3.070855 1_566
Ga0 Ho21 3.070855 1_566
Ga0 Ho23 3.116212 1_555
Ga0 Ho17 3.116212 1_565
Ga0 Ho36 3.229488 1_555
Ga0 Ho3 3.291618 1_565
Ga0 Ho5 3.291618 1_565
Ga0 Ho29 3.395794 1_555
Ga0 Ho27 3.395794 1_555
Ga1 Ho40 2.988872 1_555
Ga1 Ho18 3.070856 1_454
Ga1 Ho20 3.070856 1_554
Ga1 Ho22 3.116213 1_555
Ga1 Ho16 3.116213 1_555
Ga1 Ho36 3.229473 1_555
Ga1 Ho2 3.291618 1_555
Ga1 Ho4 3.291618 1_555
Ga1 Ho26 3.395815 1_555
Ga1 Ho28 3.395815 1_455
Ga2 Ho41 2.988858 1_555
Ga2 Ho22 3.070863 1_645
Ga2 Ho17 3.070863 1_655
Ga2 Ho19 3.116211 1_555
Ga2 Ho20 3.116211 1_655
Ga2 Ho37 3.229474 1_555
Ga2 Ho6 3.291618 1_655
Ga2 Ho1 3.291618 1_655
Ga2 Ho25 3.395805 1_545
Ga2 Ho30 3.395805 1_555
Ga3 Ho41 2.988858 1_555
Ga3 Ho23 3.070863 1_555
Ga3 Ho16 3.070863 1_555
Ga3 Ho21 3.116211 1_555
Ga3 Ho18 3.116211 1_555
Ga3 Ho37 3.229474 1_555
Ga3 Ho0 3.291618 1_555
Ga3 Ho7 3.291618 1_555
Ga3 Ho31 3.395805 1_555
Ga3 Ho24 3.395805 1_555
Ga4 Ho41 2.988859 1_555
Ga4 Ho27 3.070855 1_544
Ga4 Ho29 3.070855 1_544
Ga4 Ho31 3.116212 1_555
Ga4 Ho25 3.116212 1_545
Ga4 Ho38 3.229488 1_555
Ga4 Ho11 3.291618 1_545
Ga4 Ho13 3.291618 1_545
Ga4 Ho19 3.395794 1_555
Ga4 Ho21 3.395794 1_555
Ga5 Ho41 2.988872 1_555
Ga5 Ho28 3.070856 1_556
Ga5 Ho26 3.070856 1_656
Ga5 Ho24 3.116213 1_555
Ga5 Ho30 3.116213 1_555
Ga5 Ho38 3.229473 1_555
Ga5 Ho12 3.291618 1_555
Ga5 Ho10 3.291618 1_555
Ga5 Ho18 3.395815 1_555
Ga5 Ho20 3.395815 1_655
Ga6 Ho40 2.988858 1_555
Ga6 Ho30 3.070863 1_465
Ga6 Ho25 3.070863 1_455
Ga6 Ho27 3.116211 1_555
Ga6 Ho28 3.116211 1_455
Ga6 Ho39 3.229474 1_555
Ga6 Ho9 3.291618 1_455
Ga6 Ho14 3.291618 1_455
Ga6 Ho22 3.395805 1_555
Ga6 Ho17 3.395805 1_565
Ga7 Ho40 2.988858 1_555
Ga7 Ho24 3.070863 1_555
Ga7 Ho31 3.070863 1_555
Ga7 Ho29 3.116211 1_555
Ga7 Ho26 3.116211 1_555
Ga7 Ho39 3.229474 1_555
Ga7 Ho15 3.291618 1_555
Ga7 Ho8 3.291618 1_555
Ga7 Ho23 3.395805 1_555
Ga7 Ho16 3.395805 1_555
Ga8 Ho10 2.944557 1_555
Ga8 Ho12 2.944557 1_555
Ga8 Ho3 2.944588 1_555
Ga8 Ho5 2.944588 1_555
Ga8 Ho34 2.981072 1_545
Ga8 Ho35 2.981072 1_555
Ga8 Ho38 3.158423 1_555
Ga8 Ho36 3.158444 1_545
Ga9 Ho2 2.944557 1_555
Ga9 Ho4 2.944557 1_555
Ga9 Ho11 2.944588 1_555
Ga9 Ho13 2.944588 1_555
Ga9 Ho35 2.981072 1_565
Ga9 Ho34 2.981072 1_555
Ga9 Ho36 3.158423 1_555
Ga9 Ho38 3.158444 1_565
Ga10 Ho1 2.944565 1_555
Ga10 Ho6 2.944565 1_555
Ga10 Ho8 2.944565 1_555
Ga10 Ho15 2.944565 1_555
Ga10 Ho32 2.981070 1_555
Ga10 Ho33 2.981070 1_455
Ga10 Ho37 3.158438 1_455
Ga10 Ho39 3.158438 1_555
Ga11 Ho14 2.944565 1_555
Ga11 Ho0 2.944565 1_555
Ga11 Ho9 2.944565 1_555
Ga11 Ho7 2.944565 1_555
Ga11 Ho32 2.981070 1_655
Ga11 Ho33 2.981070 1_555
Ga11 Ho39 3.158438 1_655
Ga11 Ho37 3.158438 1_555
Ga12 Ho4 3.108720 1_555
Ga12 Ho12 3.108720 1_554
Ga12 Ho8 3.108730 1_554
Ga12 Ho1 3.108730 1_554
Ga12 Ho9 3.108730 1_555
Ga12 Ho0 3.108730 1_555
Ga12 Ho5 3.108735 1_554
Ga12 Ho13 3.108735 1_555
Ga13 Ho2 3.108720 1_545
Ga13 Ho10 3.108720 1_454
Ga13 Ho14 3.108730 1_444
Ga13 Ho6 3.108730 1_555
Ga13 Ho7 3.108730 1_444
Ga13 Ho15 3.108730 1_555
Ga13 Ho3 3.108735 1_454
Ga13 Ho11 3.108735 1_545
Ni10 Ni13 2.703849 1_555
Ni11 Ni12 2.703849 1_555
Ni12 Ni8 2.703849 1_555
Ni13 Ni9 2.703849 1_555
