# generated using pymatgen
data_MnNb8(FeO8)3
_symmetry_space_group_name_H-M   'P 1'
_cell_length_a   5.88021300
_cell_length_b   5.13262200
_cell_length_c   14.53049183
_cell_angle_alpha   89.88197776
_cell_angle_beta   90.00000000
_cell_angle_gamma   90.00000000
_symmetry_Int_Tables_number   1
_chemical_formula_structural   MnNb8(FeO8)3
_chemical_formula_sum   'Mn1 Nb8 Fe3 O24'
_cell_volume   438.54254454
_cell_formula_units_Z   1
loop_
 _symmetry_equiv_pos_site_id
 _symmetry_equiv_pos_as_xyz
  1  'x, y, z'
loop_
 _atom_site_type_symbol
 _atom_site_label
 _atom_site_symmetry_multiplicity
 _atom_site_fract_x
 _atom_site_fract_y
 _atom_site_fract_z
 _atom_site_occupancy
  Mn  Mn0  1  0.82745500  0.50000000  0.50000000  1
  Nb  Nb0  1  0.31851300  0.50250200  0.66177100  1
  Nb  Nb1  1  0.18106000  0.00161000  0.83969300  1
  Nb  Nb2  1  0.18106000  0.99839000  0.16030700  1
  Nb  Nb3  1  0.31851300  0.49749800  0.33822900  1
  Nb  Nb4  1  0.68147900  0.99579100  0.33771400  1
  Nb  Nb5  1  0.81942900  0.49726900  0.16071300  1
  Nb  Nb6  1  0.81942900  0.50273100  0.83928700  1
  Nb  Nb7  1  0.68147900  0.00420900  0.66228600  1
  Fe  Fe0  1  0.33653700  0.50000000  0.00000000  1
  Fe  Fe1  1  0.17000900  0.00000000  0.50000000  1
  Fe  Fe2  1  0.66575100  0.00000000  0.00000000  1
  O  O0  1  0.10288100  0.67887700  0.90256400  1
  O  O1  1  0.39807100  0.18311800  0.59716500  1
  O  O2  1  0.39807100  0.81688200  0.40283500  1
  O  O3  1  0.10288100  0.32112300  0.09743600  1
  O  O4  1  0.89378800  0.82122400  0.09711500  1
  O  O5  1  0.60138900  0.31622900  0.40103900  1
  O  O6  1  0.60138900  0.68377100  0.59896100  1
  O  O7  1  0.89378800  0.17877600  0.90288500  1
  O  O8  1  0.12677800  0.66915600  0.24405200  1
  O  O9  1  0.37196700  0.16681500  0.25412300  1
  O  O10  1  0.37196700  0.83318500  0.74587700  1
  O  O11  1  0.12677800  0.33084400  0.75594800  1
  O  O12  1  0.87342100  0.83244300  0.75592200  1
  O  O13  1  0.62705400  0.33267000  0.74471300  1
  O  O14  1  0.62705400  0.66733000  0.25528700  1
  O  O15  1  0.87342100  0.16755700  0.24407800  1
  O  O16  1  0.12053000  0.65526100  0.58068200  1
  O  O17  1  0.38105300  0.15866100  0.92000100  1
  O  O18  1  0.38105300  0.84133900  0.07999900  1
  O  O19  1  0.12053000  0.34473900  0.41931800  1
  O  O20  1  0.88379500  0.84983100  0.41919100  1
  O  O21  1  0.61891700  0.34609300  0.08061700  1
  O  O22  1  0.61891700  0.65390700  0.91938300  1
  O  O23  1  0.88379500  0.15016900  0.58080900  1
loop_
_geom_bond_atom_site_label_1
_geom_bond_atom_site_label_2
_geom_bond_distance
_geom_bond_site_symmetry_2
Mn0 O23 2.168825 1_555
Mn0 O20 2.168825 1_555
Mn0 O6 2.174868 1_555
Mn0 O5 2.174868 1_555
Mn0 O19 2.232310 1_655
Mn0 O16 2.232310 1_655
Nb0 O16 1.831546 1_555
Nb0 O1 1.947739 1_555
Nb0 O11 1.978646 1_555
Nb0 O6 2.112314 1_555
Nb0 O10 2.116980 1_555
Nb0 O13 2.345127 1_555
Nb1 O17 1.843452 1_555
Nb1 O0 1.945134 1_545
Nb1 O10 1.967388 1_545
Nb1 O11 2.104682 1_555
Nb1 O7 2.127649 1_455
Nb1 O12 2.347834 1_445
Nb2 O18 1.843452 1_555
Nb2 O3 1.945134 1_565
Nb2 O9 1.967388 1_565
Nb2 O8 2.104682 1_555
Nb2 O4 2.127649 1_455
Nb2 O15 2.347834 1_465
Nb3 O19 1.831546 1_555
Nb3 O2 1.947739 1_555
Nb3 O8 1.978646 1_555
Nb3 O5 2.112314 1_555
Nb3 O9 2.116980 1_555
Nb3 O14 2.345127 1_555
Nb4 O20 1.836981 1_555
Nb4 O5 1.944141 1_565
Nb4 O15 1.974168 1_565
Nb4 O14 2.094607 1_555
Nb4 O2 2.124202 1_555
Nb4 O9 2.356656 1_565
Nb5 O21 1.830427 1_555
Nb5 O4 1.950265 1_555
Nb5 O14 1.983657 1_555
Nb5 O15 2.103216 1_555
Nb5 O3 2.108143 1_655
Nb5 O8 2.348489 1_655
Nb6 O22 1.830427 1_555
Nb6 O7 1.950265 1_555
Nb6 O13 1.983657 1_555
Nb6 O12 2.103216 1_555
Nb6 O0 2.108143 1_655
Nb6 O11 2.348489 1_655
Nb7 O23 1.836981 1_555
Nb7 O6 1.944141 1_545
Nb7 O12 1.974168 1_545
Nb7 O13 2.094607 1_555
Nb7 O1 2.124202 1_555
Nb7 O10 2.356656 1_545
Fe0 O18 2.120736 1_555
Fe0 O17 2.120736 1_554
Fe0 O0 2.174803 1_554
Fe0 O3 2.174803 1_555
Fe0 O21 2.179335 1_555
Fe0 O22 2.179335 1_554
Fe1 O19 2.140406 1_555
Fe1 O16 2.140406 1_545
Fe1 O2 2.163467 1_545
Fe1 O1 2.163467 1_555
Fe1 O20 2.192948 1_445
Fe1 O23 2.192948 1_455
Fe2 O22 2.147574 1_544
Fe2 O21 2.147574 1_555
Fe2 O7 2.150802 1_554
Fe2 O4 2.150802 1_545
Fe2 O18 2.193867 1_545
Fe2 O17 2.193867 1_554
