# generated using pymatgen
data_Cs6Na4Tl13
_symmetry_space_group_name_H-M   'P 1'
_cell_length_a   10.34673296
_cell_length_b   10.34673537
_cell_length_c   10.34673614
_cell_angle_alpha   109.47114730
_cell_angle_beta   109.47112035
_cell_angle_gamma   109.47112516
_symmetry_Int_Tables_number   1
_chemical_formula_structural   Cs6Na4Tl13
_chemical_formula_sum   'Cs6 Na4 Tl13'
_cell_volume   852.68673648
_cell_formula_units_Z   1
loop_
 _symmetry_equiv_pos_site_id
 _symmetry_equiv_pos_as_xyz
  1  'x, y, z'
loop_
 _atom_site_type_symbol
 _atom_site_label
 _atom_site_symmetry_multiplicity
 _atom_site_fract_x
 _atom_site_fract_y
 _atom_site_fract_z
 _atom_site_occupancy
  Cs  Cs0  1  0.82961747  0.32961803  0.49999979  1
  Cs  Cs1  1  0.17038231  0.67038203  0.50000026  1
  Cs  Cs2  1  0.32961730  0.49999997  0.82961774  1
  Cs  Cs3  1  0.67038282  0.50000022  0.17038237  1
  Cs  Cs4  1  0.50000001  0.82961782  0.32961739  1
  Cs  Cs5  1  0.50000021  0.17038215  0.67038263  1
  Na  Na0  1  0.50000012  0.50000000  0.50000000  1
  Na  Na1  1  0.50000004  -0.00000003  0.00000002  1
  Na  Na2  1  -0.00000003  0.50000001  0.00000001  1
  Na  Na3  1  -0.00000001  -0.00000002  0.50000002  1
  Tl  Tl0  1  0.00000045  0.00000036  0.00000041  1
  Tl  Tl1  1  0.86054807  0.76710262  0.62765219  1
  Tl  Tl2  1  0.13945180  0.23289721  0.37234745  1
  Tl  Tl3  1  0.13945153  0.76710312  0.90655356  1
  Tl  Tl4  1  0.86054850  0.23289692  0.09344648  1
  Tl  Tl5  1  0.76710233  0.62765221  0.86054813  1
  Tl  Tl6  1  0.23289754  0.37234744  0.13945179  1
  Tl  Tl7  1  0.76710313  0.90655346  0.13945153  1
  Tl  Tl8  1  0.23289681  0.09344653  0.86054861  1
  Tl  Tl9  1  0.62765223  0.86054810  0.76710223  1
  Tl  Tl10  1  0.37234734  0.13945177  0.23289748  1
  Tl  Tl11  1  0.09344669  0.86054895  0.23289701  1
  Tl  Tl12  1  0.90655332  0.13945113  0.76710292  1
loop_
_geom_bond_atom_site_label_1
_geom_bond_atom_site_label_2
_geom_bond_distance
_geom_bond_site_symmetry_2
Cs0 Tl12 3.917346 1_555
Cs0 Tl10 3.917359 1_555
Cs0 Cs1 4.071244 1_655
Cs0 Tl4 4.135594 1_555
Cs0 Tl1 4.135599 1_555
Cs0 Tl2 4.135611 1_655
Cs0 Tl3 4.135616 1_655
Cs0 Na0 4.329809 1_555
Cs0 Na3 4.329820 1_655
Cs0 Na2 4.329827 1_656
Cs0 Na1 4.329831 1_555
Cs0 Tl5 4.371887 1_555
Cs0 Tl7 4.371898 1_545
Cs0 Cs3 4.433068 1_555
Cs0 Cs5 4.433074 1_555
Cs0 Cs2 4.433084 1_655
Cs0 Cs4 4.433085 1_545
Cs1 Tl11 3.917347 1_555
Cs1 Tl9 3.917357 1_555
Cs1 Tl3 4.135592 1_555
Cs1 Tl2 4.135602 1_555
Cs1 Tl1 4.135607 1_455
Cs1 Tl4 4.135616 1_455
Cs1 Na0 4.329813 1_555
Cs1 Na3 4.329817 1_565
Cs1 Na2 4.329827 1_555
Cs1 Na1 4.329832 1_566
Cs1 Tl6 4.371890 1_555
Cs1 Tl8 4.371897 1_565
Cs1 Cs2 4.433068 1_555
Cs1 Cs4 4.433077 1_555
Cs1 Cs3 4.433082 1_455
Cs1 Cs5 4.433085 1_565
Cs2 Tl3 3.917336 1_555
Cs2 Tl2 3.917362 1_555
Cs2 Cs3 4.071253 1_556
Cs2 Tl8 4.135595 1_555
Cs2 Tl5 4.135604 1_555
Cs2 Tl6 4.135606 1_556
Cs2 Tl7 4.135619 1_556
Cs2 Na2 4.329810 1_556
Cs2 Na0 4.329819 1_555
Cs2 Na1 4.329823 1_566
Cs2 Na3 4.329832 1_555
Cs2 Tl9 4.371892 1_555
Cs2 Tl12 4.371895 1_455
Cs2 Cs5 4.433076 1_555
Cs2 Cs4 4.433081 1_556
Cs3 Tl4 3.917336 1_555
Cs3 Tl1 3.917358 1_555
Cs3 Tl7 4.135593 1_555
Cs3 Tl5 4.135604 1_554
Cs3 Tl6 4.135606 1_555
Cs3 Tl8 4.135621 1_554
Cs3 Na2 4.329809 1_655
Cs3 Na0 4.329817 1_555
Cs3 Na1 4.329826 1_555
Cs3 Na3 4.329830 1_665
Cs3 Tl11 4.371894 1_655
Cs3 Tl10 4.371894 1_555
Cs3 Cs4 4.433074 1_555
Cs3 Cs5 4.433082 1_554
Cs4 Tl7 3.917336 1_555
Cs4 Tl6 3.917362 1_555
Cs4 Cs5 4.071249 1_565
Cs4 Tl11 4.135594 1_555
Cs4 Tl9 4.135604 1_555
Cs4 Tl10 4.135606 1_565
Cs4 Tl12 4.135617 1_565
Cs4 Na1 4.329811 1_565
Cs4 Na0 4.329819 1_555
Cs4 Na3 4.329823 1_665
Cs4 Na2 4.329832 1_555
Cs4 Tl1 4.371889 1_555
Cs4 Tl3 4.371893 1_554
Cs5 Tl8 3.917339 1_555
Cs5 Tl5 3.917359 1_555
Cs5 Tl12 4.135592 1_555
Cs5 Tl9 4.135602 1_545
Cs5 Tl10 4.135606 1_555
Cs5 Tl11 4.135618 1_545
Cs5 Na1 4.329812 1_556
Cs5 Na0 4.329819 1_555
Cs5 Na3 4.329825 1_555
Cs5 Na2 4.329831 1_656
Cs5 Tl4 4.371892 1_556
Cs5 Tl2 4.371892 1_555
Na0 Tl1 3.272220 1_555
Na0 Tl9 3.272220 1_555
Na0 Tl10 3.272220 1_555
Na0 Tl5 3.272221 1_555
Na0 Tl6 3.272221 1_555
Na0 Tl2 3.272222 1_555
Na1 Tl4 3.272222 1_555
Na1 Tl3 3.272222 1_544
Na1 Tl7 3.272227 1_545
Na1 Tl8 3.272228 1_554
Na1 Tl9 3.272231 1_544
Na1 Tl10 3.272232 1_555
Na2 Tl12 3.272225 1_454
Na2 Tl11 3.272225 1_555
Na2 Tl4 3.272227 1_455
Na2 Tl3 3.272227 1_554
Na2 Tl5 3.272230 1_454
Na2 Tl6 3.272232 1_555
Na3 Tl7 3.272222 1_445
Na3 Tl8 3.272223 1_555
Na3 Tl12 3.272226 1_455
Na3 Tl11 3.272226 1_545
Na3 Tl1 3.272228 1_445
Na3 Tl2 3.272230 1_555
Tl0 Tl10 3.243170 1_555
Tl0 Tl2 3.243171 1_555
Tl0 Tl11 3.243171 1_545
Tl0 Tl6 3.243171 1_555
Tl0 Tl8 3.243172 1_554
Tl0 Tl4 3.243174 1_455
Tl0 Tl3 3.243174 1_544
Tl0 Tl12 3.243175 1_454
Tl0 Tl7 3.243175 1_445
Tl0 Tl1 3.243180 1_444
Tl0 Tl5 3.243180 1_444
Tl0 Tl9 3.243181 1_444
Tl1 Tl3 3.332154 1_655
Tl1 Tl9 3.429933 1_555
Tl1 Tl5 3.429938 1_555
Tl1 Tl12 3.429962 1_565
Tl1 Tl8 3.429975 1_665
Tl2 Tl4 3.332152 1_455
Tl2 Tl6 3.429934 1_555
Tl2 Tl7 3.429974 1_445
Tl3 Tl8 3.429959 1_565
Tl3 Tl5 3.429967 1_455
Tl4 Tl7 3.429960 1_545
Tl4 Tl6 3.429966 1_655
Tl4 Tl9 3.429977 1_544
Tl5 Tl7 3.332151 1_556
Tl5 Tl9 3.429936 1_555
Tl6 Tl8 3.332148 1_554
Tl7 Tl9 3.429970 1_554
Tl10 Tl11 3.332146 1_545
Tl10 Tl2 3.429929 1_555
Tl10 Tl6 3.429931 1_555
Tl10 Tl8 3.429966 1_554
Tl10 Tl3 3.429975 1_544
Tl11 Tl7 3.429957 1_455
Tl11 Tl3 3.429958 1_554
Tl11 Tl2 3.429960 1_565
Tl11 Tl5 3.429978 1_454
Tl12 Tl9 3.332149 1_545
Tl12 Tl8 3.429957 1_655
Tl12 Tl4 3.429959 1_556
Tl12 Tl6 3.429977 1_656
