# generated using pymatgen
data_TeWSe
_symmetry_space_group_name_H-M   'P 1'
_cell_length_a   3.43786661
_cell_length_b   3.43786661
_cell_length_c   39.19287500
_cell_angle_alpha   90.00000000
_cell_angle_beta   90.00000000
_cell_angle_gamma   120.00001182
_symmetry_Int_Tables_number   1
_chemical_formula_structural   TeWSe
_chemical_formula_sum   'Te4 W4 Se4'
_cell_volume   401.15826777
_cell_formula_units_Z   4
loop_
 _symmetry_equiv_pos_site_id
 _symmetry_equiv_pos_as_xyz
  1  'x, y, z'
loop_
 _atom_site_type_symbol
 _atom_site_label
 _atom_site_symmetry_multiplicity
 _atom_site_fract_x
 _atom_site_fract_y
 _atom_site_fract_z
 _atom_site_occupancy
  Te  Te0  1  0.33333300  0.66666700  0.32944600  1
  Te  Te1  1  0.33333300  0.66666700  0.70517300  1
  Te  Te2  1  0.33333300  0.66666700  0.23415000  1
  Te  Te3  1  0.33333300  0.66666700  0.60987700  1
  W  W0  1  0.33333300  0.66666700  0.09391500  1
  W  W1  1  0.33333300  0.66666700  0.46966400  1
  W  W2  1  0.66666700  0.33333300  0.28179900  1
  W  W3  1  0.66666700  0.33333300  0.65753500  1
  Se  Se0  1  0.66666700  0.33333300  0.05198600  1
  Se  Se1  1  0.66666700  0.33333300  0.42771900  1
  Se  Se2  1  0.66666700  0.33333300  0.13587200  1
  Se  Se3  1  0.66666700  0.33333300  0.51161000  1
loop_
_geom_bond_atom_site_label_1
_geom_bond_atom_site_label_2
_geom_bond_distance
_geom_bond_site_symmetry_2
Te0 W2 2.725234 1_455
Te0 W2 2.725234 1_565
Te0 W2 2.725239 1_555
Te1 W3 2.724993 1_455
Te1 W3 2.724993 1_565
Te1 W3 2.724997 1_555
Te2 W2 2.725288 1_565
Te2 W2 2.725288 1_455
Te2 W2 2.725293 1_555
Te3 W3 2.725530 1_455
Te3 W3 2.725530 1_565
Te3 W3 2.725534 1_555
Se0 W0 2.576845 1_545
Se0 W0 2.576845 1_655
Se0 W0 2.576849 1_555
Se1 W1 2.577244 1_545
Se1 W1 2.577244 1_655
Se1 W1 2.577249 1_555
Se2 W0 2.577545 1_545
Se2 W0 2.577545 1_655
Se2 W0 2.577549 1_555
Se3 W1 2.577269 1_545
Se3 W1 2.577269 1_655
Se3 W1 2.577274 1_555
