# generated using pymatgen
data_Ba2YCu3O6F
_symmetry_space_group_name_H-M   'P 1'
_cell_length_a   3.82592800
_cell_length_b   3.99600600
_cell_length_c   11.97934800
_cell_angle_alpha   90.00000000
_cell_angle_beta   90.00000000
_cell_angle_gamma   90.00000000
_symmetry_Int_Tables_number   1
_chemical_formula_structural   Ba2YCu3O6F
_chemical_formula_sum   'Ba2 Y1 Cu3 O6 F1'
_cell_volume   183.14543824
_cell_formula_units_Z   1
loop_
 _symmetry_equiv_pos_site_id
 _symmetry_equiv_pos_as_xyz
  1  'x, y, z'
loop_
 _atom_site_type_symbol
 _atom_site_label
 _atom_site_symmetry_multiplicity
 _atom_site_fract_x
 _atom_site_fract_y
 _atom_site_fract_z
 _atom_site_occupancy
  Ba  Ba0  1  0.50000000  0.50000000  0.19334100  1
  Ba  Ba1  1  0.50000000  0.50000000  0.80665900  1
  Y  Y0  1  0.50000000  0.50000000  0.50000000  1
  Cu  Cu0  1  0.00000000  0.00000000  0.35765200  1
  Cu  Cu1  1  0.00000000  0.00000000  0.64234800  1
  Cu  Cu2  1  0.00000000  0.00000000  0.00000000  1
  O  O0  1  0.50000000  0.00000000  0.38181800  1
  O  O1  1  0.50000000  0.00000000  0.61818200  1
  O  O2  1  0.00000000  0.50000000  0.37724100  1
  O  O3  1  0.00000000  0.50000000  0.62275900  1
  O  O4  1  0.00000000  0.00000000  0.15685300  1
  O  O5  1  0.00000000  0.00000000  0.84314700  1
  F  F0  1  0.00000000  0.50000000  0.00000000  1
loop_
_geom_bond_atom_site_label_1
_geom_bond_atom_site_label_2
_geom_bond_distance
_geom_bond_site_symmetry_2
Ba0 O4 2.800447 1_655
Ba0 O4 2.800447 1_665
Ba0 O4 2.800447 1_565
Ba0 O4 2.800447 1_555
Ba0 O2 2.917645 1_655
Ba0 O2 2.917645 1_555
Ba0 F0 3.003955 1_555
Ba0 F0 3.003955 1_655
Ba0 O0 3.014933 1_565
Ba0 O0 3.014933 1_555
Ba1 O5 2.800447 1_555
Ba1 O5 2.800447 1_655
Ba1 O5 2.800447 1_565
Ba1 O5 2.800447 1_665
Ba1 O3 2.917645 1_655
Ba1 O3 2.917645 1_555
Ba1 F0 3.003955 1_656
Ba1 F0 3.003955 1_556
Ba1 O1 3.014933 1_565
Ba1 O1 3.014933 1_555
Cu0 O0 1.934745 1_555
Cu0 O0 1.934745 1_455
Cu0 O2 2.011736 1_545
Cu0 O2 2.011736 1_555
Cu0 O4 2.405441 1_555
Cu1 O1 1.934745 1_455
Cu1 O1 1.934745 1_555
Cu1 O3 2.011736 1_555
Cu1 O3 2.011736 1_545
Cu1 O5 2.405441 1_555
Cu2 O4 1.878997 1_555
Cu2 O5 1.878997 1_554
Cu2 F0 1.998003 1_555
Cu2 F0 1.998003 1_545
O0 Y0 2.448744 1_555
O0 Y0 2.448744 1_545
O1 Y0 2.448744 1_555
O1 Y0 2.448744 1_545
O2 Y0 2.412885 1_455
O2 Y0 2.412885 1_555
O3 Y0 2.412885 1_455
O3 Y0 2.412885 1_555
