# generated using pymatgen
data_TlPb
_symmetry_space_group_name_H-M   'P 1'
_cell_length_a   6.97270360
_cell_length_b   6.97270360
_cell_length_c   12.30366841
_cell_angle_alpha   73.53922626
_cell_angle_beta   90.00000000
_cell_angle_gamma   120.00000000
_symmetry_Int_Tables_number   1
_chemical_formula_structural   TlPb
_chemical_formula_sum   'Tl8 Pb8'
_cell_volume   489.53043128
_cell_formula_units_Z   8
loop_
 _symmetry_equiv_pos_site_id
 _symmetry_equiv_pos_as_xyz
  1  'x, y, z'
loop_
 _atom_site_type_symbol
 _atom_site_label
 _atom_site_symmetry_multiplicity
 _atom_site_fract_x
 _atom_site_fract_y
 _atom_site_fract_z
 _atom_site_occupancy
  Tl  Tl0_0  1  0.25000000  0.00000000  0.25000000  1
  Tl  Tl0_1  1  0.25000000  0.00000000  0.75000000  1
  Tl  Tl0_2  1  0.25000000  0.50000000  0.25000000  1
  Tl  Tl0_3  1  0.25000000  0.50000000  0.75000000  1
  Tl  Tl0_4  1  0.75000000  0.00000000  0.25000000  1
  Tl  Tl0_5  1  0.75000000  0.00000000  0.75000000  1
  Tl  Tl0_6  1  0.75000000  0.50000000  0.25000000  1
  Tl  Tl0_7  1  0.75000000  0.50000000  0.75000000  1
  Pb  Pb0_0  1  0.00000000  0.00000000  0.00000000  1
  Pb  Pb0_1  1  0.00000000  0.00000000  0.50000000  1
  Pb  Pb0_2  1  0.00000000  0.50000000  0.00000000  1
  Pb  Pb0_3  1  0.00000000  0.50000000  0.50000000  1
  Pb  Pb0_4  1  0.50000000  0.00000000  0.00000000  1
  Pb  Pb0_5  1  0.50000000  0.00000000  0.50000000  1
  Pb  Pb0_6  1  0.50000000  0.50000000  0.00000000  1
  Pb  Pb0_7  1  0.50000000  0.50000000  0.50000000  1
loop_
_geom_bond_atom_site_label_1
_geom_bond_atom_site_label_2
_geom_bond_distance
_geom_bond_site_symmetry_2
Tl0_0 Tl0_4 3.486352 1_455
Tl0_0 Tl0_2 3.486352 1_555
Tl0_0 Tl0_6 3.486352 1_555
Tl0_0 Tl0_6 3.486352 1_445
Tl0_0 Tl0_4 3.486352 1_555
Tl0_0 Tl0_2 3.486352 1_545
Tl0_1 Tl0_3 3.486352 1_555
Tl0_1 Tl0_7 3.486352 1_555
Tl0_1 Tl0_5 3.486352 1_455
Tl0_1 Tl0_5 3.486352 1_555
Tl0_1 Tl0_7 3.486352 1_445
Tl0_1 Tl0_3 3.486352 1_545
Tl0_2 Tl0_4 3.486352 1_455
Tl0_2 Tl0_6 3.486352 1_455
Tl0_2 Tl0_6 3.486352 1_555
Tl0_2 Tl0_4 3.486352 1_565
Tl0_3 Tl0_5 3.486352 1_455
Tl0_3 Tl0_7 3.486352 1_555
Tl0_3 Tl0_7 3.486352 1_455
Tl0_3 Tl0_5 3.486352 1_565
Tl0_4 Tl0_6 3.486352 1_545
Tl0_4 Tl0_6 3.486352 1_555
Tl0_5 Tl0_7 3.486352 1_555
Tl0_5 Tl0_7 3.486352 1_545
Pb0_0 Pb0_2 3.486352 1_545
Pb0_0 Pb0_6 3.486352 1_445
Pb0_0 Pb0_4 3.486352 1_455
Pb0_0 Pb0_2 3.486352 1_555
Pb0_0 Pb0_6 3.486352 1_555
Pb0_0 Pb0_4 3.486352 1_555
Pb0_0 Tl0_3 3.535523 1_554
Pb0_0 Tl0_6 3.535523 1_445
Pb0_0 Tl0_5 3.535524 1_454
Pb0_0 Tl0_4 3.535524 1_455
Pb0_0 Tl0_0 3.535524 1_555
Pb0_0 Tl0_1 3.535524 1_554
Pb0_1 Pb0_5 3.486352 1_555
Pb0_1 Pb0_3 3.486352 1_545
Pb0_1 Pb0_3 3.486352 1_555
Pb0_1 Pb0_5 3.486352 1_455
Pb0_1 Pb0_7 3.486352 1_445
Pb0_1 Pb0_7 3.486352 1_555
Pb0_1 Tl0_2 3.535523 1_555
Pb0_1 Tl0_7 3.535523 1_445
Pb0_1 Tl0_4 3.535524 1_455
Pb0_1 Tl0_0 3.535524 1_555
Pb0_1 Tl0_1 3.535524 1_555
Pb0_1 Tl0_5 3.535524 1_455
Pb0_2 Pb0_4 3.486352 1_455
Pb0_2 Pb0_6 3.486352 1_555
Pb0_2 Pb0_6 3.486352 1_455
Pb0_2 Pb0_4 3.486352 1_565
Pb0_2 Tl0_1 3.535523 1_564
Pb0_2 Tl0_4 3.535523 1_455
Pb0_2 Tl0_2 3.535524 1_555
Pb0_2 Tl0_6 3.535524 1_455
Pb0_2 Tl0_7 3.535524 1_454
Pb0_2 Tl0_3 3.535524 1_554
Pb0_3 Pb0_5 3.486352 1_455
Pb0_3 Pb0_5 3.486352 1_565
Pb0_3 Pb0_7 3.486352 1_555
Pb0_3 Pb0_7 3.486352 1_455
Pb0_3 Tl0_5 3.535523 1_455
Pb0_3 Tl0_0 3.535523 1_565
Pb0_3 Tl0_3 3.535524 1_555
Pb0_3 Tl0_2 3.535524 1_555
Pb0_3 Tl0_6 3.535524 1_455
Pb0_3 Tl0_7 3.535524 1_455
Pb0_4 Pb0_6 3.486352 1_555
Pb0_4 Pb0_6 3.486352 1_545
Pb0_4 Tl0_7 3.535523 1_554
Pb0_4 Tl0_2 3.535523 1_545
Pb0_4 Tl0_0 3.535524 1_555
Pb0_4 Tl0_1 3.535524 1_554
Pb0_4 Tl0_5 3.535524 1_554
Pb0_4 Tl0_4 3.535524 1_555
Pb0_5 Pb0_7 3.486352 1_545
Pb0_5 Pb0_7 3.486352 1_555
Pb0_5 Tl0_6 3.535523 1_555
Pb0_5 Tl0_3 3.535523 1_545
Pb0_5 Tl0_5 3.535524 1_555
Pb0_5 Tl0_0 3.535524 1_555
Pb0_5 Tl0_1 3.535524 1_555
Pb0_5 Tl0_4 3.535524 1_555
Pb0_6 Tl0_5 3.535523 1_564
Pb0_6 Tl0_0 3.535523 1_555
Pb0_6 Tl0_2 3.535524 1_555
Pb0_6 Tl0_6 3.535524 1_555
Pb0_6 Tl0_3 3.535524 1_554
Pb0_6 Tl0_7 3.535524 1_554
Pb0_7 Tl0_1 3.535523 1_555
Pb0_7 Tl0_4 3.535523 1_565
Pb0_7 Tl0_7 3.535524 1_555
Pb0_7 Tl0_3 3.535524 1_555
Pb0_7 Tl0_2 3.535524 1_555
Pb0_7 Tl0_6 3.535524 1_555
