# generated using pymatgen
data_MgGe2
_symmetry_space_group_name_H-M   'P 1'
_cell_length_a   5.82312003
_cell_length_b   5.82312003
_cell_length_c   6.81516391
_cell_angle_alpha   63.40562354
_cell_angle_beta   63.40562354
_cell_angle_gamma   37.04447036
_symmetry_Int_Tables_number   1
_chemical_formula_structural   MgGe2
_chemical_formula_sum   'Mg2 Ge4'
_cell_volume   122.72556897
_cell_formula_units_Z   2
loop_
 _symmetry_equiv_pos_site_id
 _symmetry_equiv_pos_as_xyz
  1  'x, y, z'
loop_
 _atom_site_type_symbol
 _atom_site_label
 _atom_site_symmetry_multiplicity
 _atom_site_fract_x
 _atom_site_fract_y
 _atom_site_fract_z
 _atom_site_occupancy
  Mg  Mg0  1  0.18471400  0.18471400  0.34925300  1
  Mg  Mg1  1  0.81528600  0.81528600  0.65074700  1
  Ge  Ge0  1  0.11961000  0.11961000  0.98544000  1
  Ge  Ge1  1  0.88039000  0.88039000  0.01456000  1
  Ge  Ge2  1  0.47076600  0.47076600  0.29362100  1
  Ge  Ge3  1  0.52923400  0.52923400  0.70637900  1
loop_
_geom_bond_atom_site_label_1
_geom_bond_atom_site_label_2
_geom_bond_distance
_geom_bond_site_symmetry_2
Ge0 Ge1 2.554001 1_446
Ge0 Ge2 2.697241 1_456
Ge0 Ge2 2.697241 1_546
Ge0 Mg0 2.889244 1_556
Ge0 Mg1 2.939385 1_545
Ge0 Mg1 2.939385 1_455
Ge1 Ge3 2.697241 1_564
Ge1 Ge3 2.697241 1_654
Ge1 Mg1 2.889244 1_554
Ge1 Mg0 2.939385 1_655
Ge1 Mg0 2.939385 1_565
Ge2 Mg1 2.889240 1_545
Ge2 Mg1 2.889240 1_455
Ge2 Mg0 2.998546 1_555
Ge2 Mg0 3.161248 1_655
Ge2 Mg0 3.161248 1_565
Ge3 Mg0 2.889240 1_655
Ge3 Mg0 2.889240 1_565
Ge3 Mg1 2.998546 1_555
Ge3 Mg1 3.161248 1_545
Ge3 Mg1 3.161248 1_455
