# generated using pymatgen
data_TiCuNi2
_symmetry_space_group_name_H-M   'P 1'
_cell_length_a   5.99490200
_cell_length_b   5.99490200
_cell_length_c   10.92939600
_cell_angle_alpha   90.00000000
_cell_angle_beta   90.00000000
_cell_angle_gamma   90.00000000
_symmetry_Int_Tables_number   1
_chemical_formula_structural   TiCuNi2
_chemical_formula_sum   'Ti8 Cu8 Ni16'
_cell_volume   392.78992332
_cell_formula_units_Z   8
loop_
 _symmetry_equiv_pos_site_id
 _symmetry_equiv_pos_as_xyz
  1  'x, y, z'
loop_
 _atom_site_type_symbol
 _atom_site_label
 _atom_site_symmetry_multiplicity
 _atom_site_fract_x
 _atom_site_fract_y
 _atom_site_fract_z
 _atom_site_occupancy
  Ti  Ti0_0  1  0.00000000  0.00000000  0.25000000  1
  Ti  Ti0_1  1  0.00000000  0.00000000  0.75000000  1
  Ti  Ti0_2  1  0.00000000  0.50000000  0.25000000  1
  Ti  Ti0_3  1  0.00000000  0.50000000  0.75000000  1
  Ti  Ti0_4  1  0.50000000  0.00000000  0.25000000  1
  Ti  Ti0_5  1  0.50000000  0.00000000  0.75000000  1
  Ti  Ti0_6  1  0.50000000  0.50000000  0.25000000  1
  Ti  Ti0_7  1  0.50000000  0.50000000  0.75000000  1
  Cu  Cu0_0  1  0.00000000  0.00000000  0.00000000  1
  Cu  Cu0_1  1  0.00000000  0.00000000  0.50000000  1
  Cu  Cu0_2  1  0.00000000  0.50000000  0.00000000  1
  Cu  Cu0_3  1  0.00000000  0.50000000  0.50000000  1
  Cu  Cu0_4  1  0.50000000  0.00000000  0.00000000  1
  Cu  Cu0_5  1  0.50000000  0.00000000  0.50000000  1
  Cu  Cu0_6  1  0.50000000  0.50000000  0.00000000  1
  Cu  Cu0_7  1  0.50000000  0.50000000  0.50000000  1
  Ni  Ni0_0  1  0.25000000  0.25000000  0.37782250  1
  Ni  Ni0_1  1  0.25000000  0.25000000  0.87782250  1
  Ni  Ni0_2  1  0.25000000  0.75000000  0.37782250  1
  Ni  Ni0_3  1  0.25000000  0.75000000  0.87782250  1
  Ni  Ni0_4  1  0.75000000  0.25000000  0.37782250  1
  Ni  Ni0_5  1  0.75000000  0.25000000  0.87782250  1
  Ni  Ni0_6  1  0.75000000  0.75000000  0.37782250  1
  Ni  Ni0_7  1  0.75000000  0.75000000  0.87782250  1
  Ni  Ni1_0  1  0.25000000  0.25000000  0.12217750  1
  Ni  Ni1_1  1  0.25000000  0.25000000  0.62217750  1
  Ni  Ni1_2  1  0.25000000  0.75000000  0.12217750  1
  Ni  Ni1_3  1  0.25000000  0.75000000  0.62217750  1
  Ni  Ni1_4  1  0.75000000  0.25000000  0.12217750  1
  Ni  Ni1_5  1  0.75000000  0.25000000  0.62217750  1
  Ni  Ni1_6  1  0.75000000  0.75000000  0.12217750  1
  Ni  Ni1_7  1  0.75000000  0.75000000  0.62217750  1
loop_
_geom_bond_atom_site_label_1
_geom_bond_atom_site_label_2
_geom_bond_distance
_geom_bond_site_symmetry_2
Ti0_0 Ti0_2 2.997451 1_555
Ti0_0 Ti0_4 2.997451 1_455
Ti0_0 Ti0_2 2.997451 1_545
Ti0_0 Ti0_4 2.997451 1_555
Ti0_1 Ti0_5 2.997451 1_455
Ti0_1 Ti0_3 2.997451 1_545
Ti0_1 Ti0_5 2.997451 1_555
Ti0_1 Ti0_3 2.997451 1_555
Ti0_2 Ti0_6 2.997451 1_455
Ti0_2 Ti0_6 2.997451 1_555
Ti0_3 Ti0_7 2.997451 1_455
Ti0_3 Ti0_7 2.997451 1_555
Ti0_4 Ti0_6 2.997451 1_545
Ti0_4 Ti0_6 2.997451 1_555
Ti0_5 Ti0_7 2.997451 1_545
Ti0_5 Ti0_7 2.997451 1_555
Cu0_0 Ni1_6 2.505085 1_445
Cu0_0 Ni0_7 2.505085 1_444
Cu0_0 Ni0_1 2.505085 1_554
Cu0_0 Ni0_3 2.505085 1_544
Cu0_0 Ni0_5 2.505085 1_454
Cu0_0 Ni1_2 2.505085 1_545
Cu0_0 Ni1_4 2.505085 1_455
Cu0_0 Ni1_0 2.505085 1_555
Cu0_0 Ti0_1 2.732349 1_554
Cu0_0 Ti0_0 2.732349 1_555
Cu0_1 Ni1_5 2.505085 1_455
Cu0_1 Ni1_7 2.505085 1_445
Cu0_1 Ni0_4 2.505085 1_455
Cu0_1 Ni0_2 2.505085 1_545
Cu0_1 Ni1_3 2.505085 1_545
Cu0_1 Ni0_6 2.505085 1_445
Cu0_1 Ni0_0 2.505085 1_555
Cu0_1 Ni1_1 2.505085 1_555
Cu0_1 Ti0_0 2.732349 1_555
Cu0_1 Ti0_1 2.732349 1_555
Cu0_2 Ni0_1 2.505085 1_554
Cu0_2 Ni1_2 2.505085 1_555
Cu0_2 Ni0_5 2.505085 1_454
Cu0_2 Ni1_6 2.505085 1_455
Cu0_2 Ni0_7 2.505085 1_454
Cu0_2 Ni0_3 2.505085 1_554
Cu0_2 Ni1_4 2.505085 1_455
Cu0_2 Ni1_0 2.505085 1_555
Cu0_2 Ti0_3 2.732349 1_554
Cu0_2 Ti0_2 2.732349 1_555
Cu0_3 Ni1_5 2.505085 1_455
Cu0_3 Ni0_4 2.505085 1_455
Cu0_3 Ni1_3 2.505085 1_555
Cu0_3 Ni0_2 2.505085 1_555
Cu0_3 Ni0_6 2.505085 1_455
Cu0_3 Ni0_0 2.505085 1_555
Cu0_3 Ni1_7 2.505085 1_455
Cu0_3 Ni1_1 2.505085 1_555
Cu0_3 Ti0_2 2.732349 1_555
Cu0_3 Ti0_3 2.732349 1_555
Cu0_4 Ni0_1 2.505085 1_554
Cu0_4 Ni0_5 2.505085 1_554
Cu0_4 Ni1_4 2.505085 1_555
Cu0_4 Ni0_3 2.505085 1_544
Cu0_4 Ni0_7 2.505085 1_544
Cu0_4 Ni1_2 2.505085 1_545
Cu0_4 Ni1_6 2.505085 1_545
Cu0_4 Ni1_0 2.505085 1_555
Cu0_4 Ti0_5 2.732349 1_554
Cu0_4 Ti0_4 2.732349 1_555
Cu0_5 Ni0_4 2.505085 1_555
Cu0_5 Ni0_6 2.505085 1_545
Cu0_5 Ni0_2 2.505085 1_545
Cu0_5 Ni1_3 2.505085 1_545
Cu0_5 Ni1_5 2.505085 1_555
Cu0_5 Ni1_7 2.505085 1_545
Cu0_5 Ni0_0 2.505085 1_555
Cu0_5 Ni1_1 2.505085 1_555
Cu0_5 Ti0_4 2.732349 1_555
Cu0_5 Ti0_5 2.732349 1_555
Cu0_6 Ni1_6 2.505085 1_555
Cu0_6 Ni0_7 2.505085 1_554
Cu0_6 Ni0_1 2.505085 1_554
Cu0_6 Ni0_5 2.505085 1_554
Cu0_6 Ni1_4 2.505085 1_555
Cu0_6 Ni1_2 2.505085 1_555
Cu0_6 Ni0_3 2.505085 1_554
Cu0_6 Ni1_0 2.505085 1_555
Cu0_6 Ti0_7 2.732349 1_554
Cu0_6 Ti0_6 2.732349 1_555
Cu0_7 Ni0_4 2.505085 1_555
Cu0_7 Ni1_3 2.505085 1_555
Cu0_7 Ni1_7 2.505085 1_555
Cu0_7 Ni0_2 2.505085 1_555
Cu0_7 Ni0_6 2.505085 1_555
Cu0_7 Ni1_5 2.505085 1_555
Cu0_7 Ni0_0 2.505085 1_555
Cu0_7 Ni1_1 2.505085 1_555
Cu0_7 Ti0_6 2.732349 1_555
Cu0_7 Ti0_7 2.732349 1_555
Ni0_0 Ti0_0 2.538509 1_555
Ni0_0 Ti0_6 2.538509 1_555
Ni0_0 Ti0_4 2.538509 1_555
Ni0_0 Ti0_2 2.538509 1_555
Ni0_0 Ni1_1 2.670653 1_555
Ni0_0 Ni1_0 2.794045 1_555
Ni0_0 Ni0_4 2.997451 1_555
Ni0_0 Ni0_4 2.997451 1_455
Ni0_0 Ni0_2 2.997451 1_555
Ni0_0 Ni0_2 2.997451 1_545
Ni0_1 Ti0_5 2.538509 1_555
Ni0_1 Ti0_3 2.538509 1_555
Ni0_1 Ti0_7 2.538509 1_555
Ni0_1 Ti0_1 2.538509 1_555
Ni0_1 Ni1_0 2.670653 1_556
Ni0_1 Ni1_1 2.794045 1_555
Ni0_1 Ni0_5 2.997451 1_455
Ni0_1 Ni0_5 2.997451 1_555
Ni0_1 Ni0_3 2.997451 1_545
Ni0_1 Ni0_3 2.997451 1_555
Ni0_2 Ti0_4 2.538509 1_565
Ni0_2 Ti0_2 2.538509 1_555
Ni0_2 Ti0_6 2.538509 1_555
Ni0_2 Ti0_0 2.538509 1_565
Ni0_2 Ni1_3 2.670653 1_555
Ni0_2 Ni1_2 2.794045 1_555
Ni0_2 Ni0_6 2.997451 1_555
Ni0_2 Ni0_6 2.997451 1_455
Ni0_3 Ti0_1 2.538509 1_565
Ni0_3 Ti0_5 2.538509 1_565
Ni0_3 Ti0_3 2.538509 1_555
Ni0_3 Ti0_7 2.538509 1_555
Ni0_3 Ni1_2 2.670653 1_556
Ni0_3 Ni1_3 2.794045 1_555
Ni0_3 Ni0_7 2.997451 1_555
Ni0_3 Ni0_7 2.997451 1_455
Ni0_4 Ti0_0 2.538509 1_655
Ni0_4 Ti0_2 2.538509 1_655
Ni0_4 Ti0_6 2.538509 1_555
Ni0_4 Ti0_4 2.538509 1_555
Ni0_4 Ni1_5 2.670653 1_555
Ni0_4 Ni1_4 2.794045 1_555
Ni0_4 Ni0_6 2.997451 1_555
Ni0_4 Ni0_6 2.997451 1_545
Ni0_5 Ti0_1 2.538509 1_655
Ni0_5 Ti0_5 2.538509 1_555
Ni0_5 Ti0_7 2.538509 1_555
Ni0_5 Ti0_3 2.538509 1_655
Ni0_5 Ni1_4 2.670653 1_556
Ni0_5 Ni1_5 2.794045 1_555
Ni0_5 Ni0_7 2.997451 1_555
Ni0_5 Ni0_7 2.997451 1_545
Ni0_6 Ti0_4 2.538509 1_565
Ni0_6 Ti0_6 2.538509 1_555
Ni0_6 Ti0_2 2.538509 1_655
Ni0_6 Ti0_0 2.538509 1_665
Ni0_6 Ni1_7 2.670653 1_555
Ni0_6 Ni1_6 2.794045 1_555
Ni0_7 Ti0_3 2.538509 1_655
Ni0_7 Ti0_1 2.538509 1_665
Ni0_7 Ti0_5 2.538509 1_565
Ni0_7 Ti0_7 2.538509 1_555
Ni0_7 Ni1_6 2.670653 1_556
Ni0_7 Ni1_7 2.794045 1_555
Ni1_0 Ti0_0 2.538509 1_555
Ni1_0 Ti0_6 2.538509 1_555
Ni1_0 Ti0_4 2.538509 1_555
Ni1_0 Ti0_2 2.538509 1_555
Ni1_0 Ni1_2 2.997451 1_545
Ni1_0 Ni1_4 2.997451 1_455
Ni1_0 Ni1_4 2.997451 1_555
Ni1_0 Ni1_2 2.997451 1_555
Ni1_1 Ti0_3 2.538509 1_555
Ni1_1 Ti0_7 2.538509 1_555
Ni1_1 Ti0_1 2.538509 1_555
Ni1_1 Ti0_5 2.538509 1_555
Ni1_1 Ni1_5 2.997451 1_455
Ni1_1 Ni1_3 2.997451 1_545
Ni1_1 Ni1_3 2.997451 1_555
Ni1_1 Ni1_5 2.997451 1_555
Ni1_2 Ti0_4 2.538509 1_565
Ni1_2 Ti0_6 2.538509 1_555
Ni1_2 Ti0_0 2.538509 1_565
Ni1_2 Ti0_2 2.538509 1_555
Ni1_2 Ni1_6 2.997451 1_455
Ni1_2 Ni1_6 2.997451 1_555
Ni1_3 Ti0_3 2.538509 1_555
Ni1_3 Ti0_7 2.538509 1_555
Ni1_3 Ti0_1 2.538509 1_565
Ni1_3 Ti0_5 2.538509 1_565
Ni1_3 Ni1_7 2.997451 1_455
Ni1_3 Ni1_7 2.997451 1_555
Ni1_4 Ti0_6 2.538509 1_555
Ni1_4 Ti0_2 2.538509 1_655
Ni1_4 Ti0_4 2.538509 1_555
Ni1_4 Ti0_0 2.538509 1_655
Ni1_4 Ni1_6 2.997451 1_545
Ni1_4 Ni1_6 2.997451 1_555
Ni1_5 Ti0_7 2.538509 1_555
Ni1_5 Ti0_3 2.538509 1_655
Ni1_5 Ti0_1 2.538509 1_655
Ni1_5 Ti0_5 2.538509 1_555
Ni1_5 Ni1_7 2.997451 1_555
Ni1_5 Ni1_7 2.997451 1_545
Ni1_6 Ti0_4 2.538509 1_565
Ni1_6 Ti0_6 2.538509 1_555
Ni1_6 Ti0_2 2.538509 1_655
Ni1_6 Ti0_0 2.538509 1_665
Ni1_7 Ti0_7 2.538509 1_555
Ni1_7 Ti0_3 2.538509 1_655
Ni1_7 Ti0_1 2.538509 1_665
Ni1_7 Ti0_5 2.538509 1_565
