# generated using pymatgen
data_Na3Sc2(PO4)3
_symmetry_space_group_name_H-M   'P 1'
_cell_length_a   9.03328813
_cell_length_b   9.03328813
_cell_length_c   9.09909906
_cell_angle_alpha   60.37348937
_cell_angle_beta   60.37348937
_cell_angle_gamma   60.17503111
_symmetry_Int_Tables_number   1
_chemical_formula_structural   Na3Sc2(PO4)3
_chemical_formula_sum   'Na6 Sc4 P6 O24'
_cell_volume   528.66616205
_cell_formula_units_Z   2
loop_
 _symmetry_equiv_pos_site_id
 _symmetry_equiv_pos_as_xyz
  1  'x, y, z'
loop_
 _atom_site_type_symbol
 _atom_site_label
 _atom_site_symmetry_multiplicity
 _atom_site_fract_x
 _atom_site_fract_y
 _atom_site_fract_z
 _atom_site_occupancy
  Na  Na0  1  0.74857600  0.88826100  0.75090200  1
  Na  Na1  1  0.11173900  0.25142400  0.74909800  1
  Na  Na2  1  0.25142400  0.11173900  0.24909800  1
  Na  Na3  1  0.88826100  0.74857600  0.25090200  1
  Na  Na4  1  0.50000000  0.00000000  0.50000000  1
  Na  Na5  1  0.00000000  0.50000000  0.00000000  1
  Sc  Sc0  1  0.64679100  0.15758100  0.05456200  1
  Sc  Sc1  1  0.15758100  0.64679100  0.55456200  1
  Sc  Sc2  1  0.35320900  0.84241900  0.94543800  1
  Sc  Sc3  1  0.84241900  0.35320900  0.44543800  1
  P  P0  1  0.04566400  0.95433600  0.75000000  1
  P  P1  1  0.75095800  0.54923000  0.74523800  1
  P  P2  1  0.45077000  0.24904200  0.75476200  1
  P  P3  1  0.24904200  0.45077000  0.25476200  1
  P  P4  1  0.54923000  0.75095800  0.24523800  1
  P  P5  1  0.95433600  0.04566400  0.25000000  1
  O  O0  1  0.88108800  0.98609200  0.91961600  1
  O  O1  1  0.71782000  0.38154300  0.90907300  1
  O  O2  1  0.48056900  0.20792700  0.92635400  1
  O  O3  1  0.20792700  0.48056900  0.42635400  1
  O  O4  1  0.38154300  0.71782000  0.40907300  1
  O  O5  1  0.98609200  0.88108800  0.41961600  1
  O  O6  1  0.11891200  0.01390800  0.08038400  1
  O  O7  1  0.28218000  0.61845700  0.09092700  1
  O  O8  1  0.51943100  0.79207300  0.07364600  1
  O  O9  1  0.79207300  0.51943100  0.57364600  1
  O  O10  1  0.61845700  0.28218000  0.59092700  1
  O  O11  1  0.01390800  0.11891200  0.58038400  1
  O  O12  1  0.78072400  0.06076700  0.24009000  1
  O  O13  1  0.40894500  0.27241400  0.24240900  1
  O  O14  1  0.56788500  0.91670300  0.23982800  1
  O  O15  1  0.91670300  0.56788500  0.73982800  1
  O  O16  1  0.27241400  0.40894500  0.74240900  1
  O  O17  1  0.06076700  0.78072400  0.74009000  1
  O  O18  1  0.21927600  0.93923300  0.75991000  1
  O  O19  1  0.59105500  0.72758600  0.75759100  1
  O  O20  1  0.43211500  0.08329700  0.76017200  1
  O  O21  1  0.08329700  0.43211500  0.26017200  1
  O  O22  1  0.72758600  0.59105500  0.25759100  1
  O  O23  1  0.93923300  0.21927600  0.25991000  1
loop_
_geom_bond_atom_site_label_1
_geom_bond_atom_site_label_2
_geom_bond_distance
_geom_bond_site_symmetry_2
Na0 O17 2.449806 1_655
Na0 O19 2.452845 1_555
Na0 O20 2.486344 1_565
Na0 O15 2.541107 1_555
Na0 O8 2.630579 1_556
Na0 O5 2.711945 1_555
Na0 O10 2.927907 1_565
Na0 O0 2.963257 1_555
Na1 O18 2.449806 1_545
Na1 O16 2.452845 1_555
Na1 O15 2.486344 1_455
Na1 O20 2.541107 1_555
Na1 O3 2.630579 1_555
Na1 O6 2.711945 1_556
Na1 O1 2.927907 1_455
Na1 O11 2.963257 1_555
Na2 O23 2.449806 1_455
Na2 O13 2.452845 1_555
Na2 O14 2.486344 1_545
Na2 O21 2.541107 1_555
Na2 O2 2.630579 1_554
Na2 O11 2.711945 1_555
Na2 O4 2.927907 1_545
Na2 O6 2.963257 1_555
Na3 O12 2.449806 1_565
Na3 O22 2.452845 1_555
Na3 O21 2.486344 1_655
Na3 O14 2.541107 1_555
Na3 O9 2.630579 1_555
Na3 O0 2.711945 1_554
Na3 O7 2.927907 1_655
Na3 O5 2.963257 1_555
Na4 O14 2.532460 1_545
Na4 O20 2.532460 1_555
Na4 O13 2.532965 1_555
Na4 O19 2.532965 1_545
Na4 O12 2.548858 1_555
Na4 O18 2.548858 1_545
Na5 O15 2.532460 1_454
Na5 O21 2.532460 1_555
Na5 O16 2.532965 1_554
Na5 O22 2.532965 1_455
Na5 O23 2.548858 1_455
Na5 O17 2.548858 1_554
O0 P0 1.555447 1_655
O0 Sc0 2.106381 1_566
O1 P1 1.543924 1_555
O1 Sc0 2.015104 1_556
O2 P2 1.546259 1_555
O2 Sc0 2.085752 1_556
O3 P3 1.546259 1_555
O3 Sc1 2.085752 1_555
O4 P4 1.543924 1_555
O4 Sc1 2.015104 1_555
O5 P5 1.555447 1_565
O5 Sc1 2.106381 1_655
O6 P5 1.555447 1_455
O6 Sc2 2.106381 1_544
O7 P3 1.543924 1_555
O7 Sc2 2.015104 1_554
O8 P4 1.546259 1_555
O8 Sc2 2.085752 1_554
O9 P1 1.546259 1_555
O9 Sc3 2.085752 1_555
O10 P2 1.543924 1_555
O10 Sc3 2.015104 1_555
O11 P0 1.555447 1_545
O11 Sc3 2.106381 1_455
O12 P5 1.549546 1_555
O12 Sc0 2.141392 1_555
O13 P3 1.548703 1_555
O13 Sc0 2.125785 1_555
O14 P4 1.562816 1_555
O14 Sc0 2.193772 1_565
O15 P1 1.562816 1_555
O15 Sc1 2.193772 1_655
O16 P2 1.548703 1_555
O16 Sc1 2.125785 1_555
O17 P0 1.549546 1_555
O17 Sc1 2.141392 1_555
O18 P0 1.549546 1_555
O18 Sc2 2.141392 1_555
O19 P1 1.548703 1_555
O19 Sc2 2.125785 1_555
O20 P2 1.562816 1_555
O20 Sc2 2.193772 1_545
O21 P3 1.562816 1_555
O21 Sc3 2.193772 1_455
O22 P4 1.548703 1_555
O22 Sc3 2.125785 1_555
O23 P5 1.549546 1_555
O23 Sc3 2.141392 1_555
