# generated using pymatgen
data_Li3Tb3(TeO6)2
_symmetry_space_group_name_H-M   'P 1'
_cell_length_a   10.78494171
_cell_length_b   10.78494171
_cell_length_c   10.78494171
_cell_angle_alpha   109.47122063
_cell_angle_beta   109.47122063
_cell_angle_gamma   109.47122063
_symmetry_Int_Tables_number   1
_chemical_formula_structural   Li3Tb3(TeO6)2
_chemical_formula_sum   'Li12 Tb12 Te8 O48'
_cell_volume   965.67617329
_cell_formula_units_Z   4
loop_
 _symmetry_equiv_pos_site_id
 _symmetry_equiv_pos_as_xyz
  1  'x, y, z'
loop_
 _atom_site_type_symbol
 _atom_site_label
 _atom_site_symmetry_multiplicity
 _atom_site_fract_x
 _atom_site_fract_y
 _atom_site_fract_z
 _atom_site_occupancy
  Li  Li0  1  0.25000000  0.62500000  0.37500000  1
  Li  Li1  1  0.75000000  0.37500000  0.62500000  1
  Li  Li2  1  0.75000000  0.87500000  0.12500000  1
  Li  Li3  1  0.37500000  0.25000000  0.62500000  1
  Li  Li4  1  0.62500000  0.75000000  0.37500000  1
  Li  Li5  1  0.25000000  0.12500000  0.87500000  1
  Li  Li6  1  0.12500000  0.75000000  0.87500000  1
  Li  Li7  1  0.87500000  0.25000000  0.12500000  1
  Li  Li8  1  0.62500000  0.37500000  0.25000000  1
  Li  Li9  1  0.37500000  0.62500000  0.75000000  1
  Li  Li10  1  0.87500000  0.12500000  0.75000000  1
  Li  Li11  1  0.12500000  0.87500000  0.25000000  1
  Tb  Tb0  1  0.25000000  0.37500000  0.12500000  1
  Tb  Tb1  1  0.75000000  0.62500000  0.87500000  1
  Tb  Tb2  1  0.75000000  0.12500000  0.37500000  1
  Tb  Tb3  1  0.12500000  0.25000000  0.37500000  1
  Tb  Tb4  1  0.37500000  0.75000000  0.12500000  1
  Tb  Tb5  1  0.25000000  0.87500000  0.62500000  1
  Tb  Tb6  1  0.87500000  0.75000000  0.62500000  1
  Tb  Tb7  1  0.62500000  0.25000000  0.87500000  1
  Tb  Tb8  1  0.37500000  0.12500000  0.25000000  1
  Tb  Tb9  1  0.62500000  0.87500000  0.75000000  1
  Tb  Tb10  1  0.12500000  0.37500000  0.75000000  1
  Tb  Tb11  1  0.87500000  0.62500000  0.25000000  1
  Te  Te0  1  0.00000000  0.00000000  0.00000000  1
  Te  Te1  1  0.50000000  0.00000000  0.50000000  1
  Te  Te2  1  0.00000000  0.50000000  0.50000000  1
  Te  Te3  1  0.50000000  0.00000000  0.00000000  1
  Te  Te4  1  0.50000000  0.50000000  0.00000000  1
  Te  Te5  1  0.50000000  0.50000000  0.50000000  1
  Te  Te6  1  0.00000000  0.00000000  0.50000000  1
  Te  Te7  1  0.00000000  0.50000000  0.00000000  1
  O  O0  1  0.47294400  0.37978300  0.30126900  1
  O  O1  1  0.52705600  0.62021700  0.69873100  1
  O  O2  1  0.57851500  0.17167600  0.19873100  1
  O  O3  1  0.92148500  0.12021700  0.59316100  1
  O  O4  1  0.30126900  0.47294400  0.37978300  1
  O  O5  1  0.32832400  0.92148500  0.30126900  1
  O  O6  1  0.42148500  0.82832400  0.80126900  1
  O  O7  1  0.07851500  0.87978300  0.40683900  1
  O  O8  1  0.69873100  0.52705600  0.62021700  1
  O  O9  1  0.67167600  0.07851500  0.69873100  1
  O  O10  1  0.02705600  0.32832400  0.90683900  1
  O  O11  1  0.19873100  0.57851500  0.17167600  1
  O  O12  1  0.12021700  0.02705600  0.19873100  1
  O  O13  1  0.97294400  0.67167600  0.09316100  1
  O  O14  1  0.80126900  0.42148500  0.82832400  1
  O  O15  1  0.87978300  0.97294400  0.80126900  1
  O  O16  1  0.59316100  0.92148500  0.12021700  1
  O  O17  1  0.17167600  0.47294400  0.59316100  1
  O  O18  1  0.40683900  0.07851500  0.87978300  1
  O  O19  1  0.82832400  0.52705600  0.40683900  1
  O  O20  1  0.90683900  0.02705600  0.32832400  1
  O  O21  1  0.37978300  0.57851500  0.90683900  1
  O  O22  1  0.09316100  0.97294400  0.67167600  1
  O  O23  1  0.62021700  0.42148500  0.09316100  1
  O  O24  1  0.37978300  0.30126900  0.47294400  1
  O  O25  1  0.57851500  0.90683900  0.37978300  1
  O  O26  1  0.62021700  0.69873100  0.52705600  1
  O  O27  1  0.42148500  0.09316100  0.62021700  1
  O  O28  1  0.12021700  0.59316100  0.92148500  1
  O  O29  1  0.02705600  0.19873100  0.12021700  1
  O  O30  1  0.87978300  0.40683900  0.07851500  1
  O  O31  1  0.97294400  0.80126900  0.87978300  1
  O  O32  1  0.32832400  0.90683900  0.02705600  1
  O  O33  1  0.92148500  0.30126900  0.32832400  1
  O  O34  1  0.67167600  0.09316100  0.97294400  1
  O  O35  1  0.07851500  0.69873100  0.67167600  1
  O  O36  1  0.17167600  0.19873100  0.57851500  1
  O  O37  1  0.47294400  0.59316100  0.17167600  1
  O  O38  1  0.82832400  0.80126900  0.42148500  1
  O  O39  1  0.52705600  0.40683900  0.82832400  1
  O  O40  1  0.30126900  0.32832400  0.92148500  1
  O  O41  1  0.69873100  0.67167600  0.07851500  1
  O  O42  1  0.19873100  0.12021700  0.02705600  1
  O  O43  1  0.80126900  0.87978300  0.97294400  1
  O  O44  1  0.90683900  0.37978300  0.57851500  1
  O  O45  1  0.09316100  0.62021700  0.42148500  1
  O  O46  1  0.59316100  0.17167600  0.47294400  1
  O  O47  1  0.40683900  0.82832400  0.52705600  1
loop_
_geom_bond_atom_site_label_1
_geom_bond_atom_site_label_2
_geom_bond_distance
_geom_bond_site_symmetry_2
Li0 O11 1.907767 1_555
Li0 O47 1.907769 1_555
Li0 O45 1.907769 1_555
Li0 O4 1.907776 1_555
Li1 O14 1.907767 1_555
Li1 O44 1.907769 1_555
Li1 O46 1.907769 1_555
Li1 O8 1.907776 1_555
Li2 O41 1.907767 1_555
Li2 O16 1.907769 1_555
Li2 O20 1.907769 1_565
Li2 O43 1.907776 1_554
Li3 O36 1.907767 1_555
Li3 O39 1.907769 1_555
Li3 O27 1.907769 1_555
Li3 O24 1.907776 1_555
Li4 O38 1.907767 1_555
Li4 O25 1.907769 1_555
Li4 O37 1.907769 1_555
Li4 O26 1.907776 1_555
Li5 O40 1.907767 1_555
Li5 O22 1.907769 1_545
Li5 O18 1.907769 1_555
Li5 O42 1.907776 1_556
Li6 O35 1.907767 1_555
Li6 O28 1.907769 1_555
Li6 O32 1.907769 1_556
Li6 O31 1.907776 1_455
Li7 O33 1.907767 1_555
Li7 O34 1.907769 1_554
Li7 O30 1.907769 1_555
Li7 O29 1.907776 1_655
Li8 O2 1.907767 1_555
Li8 O19 1.907769 1_555
Li8 O23 1.907769 1_555
Li8 O0 1.907776 1_555
Li9 O6 1.907767 1_555
Li9 O21 1.907769 1_555
Li9 O17 1.907769 1_555
Li9 O1 1.907776 1_555
Li10 O9 1.907767 1_555
Li10 O3 1.907769 1_555
Li10 O10 1.907769 1_655
Li10 O15 1.907776 1_545
Li11 O5 1.907767 1_555
Li11 O13 1.907769 1_455
Li11 O7 1.907769 1_555
Li11 O12 1.907776 1_565
O0 Te5 1.959122 1_555
O0 Tb8 2.373756 1_555
O0 Tb0 2.490504 1_555
O1 Te5 1.959122 1_555
O1 Tb9 2.373756 1_555
O1 Tb1 2.490504 1_555
O2 Te3 1.959124 1_555
O2 Tb8 2.373766 1_555
O2 Tb2 2.490505 1_555
O3 Te6 1.959130 1_655
O3 Tb10 2.373760 1_655
O3 Tb2 2.490499 1_555
O4 Te5 1.959122 1_555
O4 Tb0 2.373756 1_555
O4 Tb3 2.490504 1_555
O5 Te1 1.959124 1_565
O5 Tb8 2.373766 1_565
O5 Tb4 2.490505 1_555
O6 Te3 1.959124 1_566
O6 Tb9 2.373766 1_555
O6 Tb5 2.490505 1_555
O7 Te6 1.959130 1_565
O7 Tb11 2.373760 1_455
O7 Tb5 2.490499 1_555
O8 Te5 1.959122 1_555
O8 Tb1 2.373756 1_555
O8 Tb6 2.490504 1_555
O9 Te1 1.959124 1_555
O9 Tb9 2.373766 1_545
O9 Tb7 2.490505 1_555
O10 Te7 1.959130 1_556
O10 Tb10 2.373760 1_555
O10 Tb0 2.490499 1_556
O11 Te7 1.959124 1_555
O11 Tb0 2.373766 1_555
O11 Tb4 2.490505 1_555
O12 Te0 1.959122 1_555
O12 Tb8 2.373756 1_555
O12 Tb3 2.490504 1_555
O13 Te7 1.959130 1_655
O13 Tb11 2.373760 1_555
O13 Tb1 2.490499 1_554
O14 Te7 1.959124 1_656
O14 Tb1 2.373766 1_555
O14 Tb7 2.490505 1_555
O15 Te0 1.959122 1_666
O15 Tb9 2.373756 1_555
O15 Tb6 2.490504 1_555
O16 Te3 1.959130 1_565
O16 Tb2 2.373760 1_565
O16 Tb4 2.490499 1_555
O17 Te2 1.959130 1_555
O17 Tb10 2.373760 1_555
O17 Tb3 2.490499 1_555
O18 Te3 1.959130 1_556
O18 Tb5 2.373760 1_545
O18 Tb7 2.490499 1_555
O19 Te2 1.959130 1_655
O19 Tb11 2.373760 1_555
O19 Tb6 2.490499 1_555
O20 Te6 1.959130 1_655
O20 Tb2 2.373760 1_555
O20 Tb3 2.490499 1_655
O21 Te4 1.959130 1_556
O21 Tb10 2.373760 1_555
O21 Tb4 2.490499 1_556
O22 Te6 1.959130 1_565
O22 Tb5 2.373760 1_555
O22 Tb6 2.490499 1_455
O23 Te4 1.959130 1_555
O23 Tb11 2.373760 1_555
O23 Tb7 2.490499 1_554
O24 Te5 1.959122 1_555
O24 Tb3 2.373756 1_555
O24 Tb8 2.490504 1_555
O25 Te1 1.959130 1_565
O25 Tb4 2.373760 1_555
O25 Tb2 2.490499 1_565
O26 Te5 1.959122 1_555
O26 Tb6 2.373756 1_555
O26 Tb9 2.490504 1_555
O27 Te1 1.959130 1_555
O27 Tb7 2.373760 1_555
O27 Tb5 2.490499 1_545
O28 Te7 1.959130 1_556
O28 Tb4 2.373760 1_556
O28 Tb10 2.490499 1_555
O29 Te0 1.959122 1_555
O29 Tb3 2.373756 1_555
O29 Tb0 2.490504 1_555
O30 Te7 1.959130 1_655
O30 Tb7 2.373760 1_554
O30 Tb11 2.490499 1_555
O31 Te0 1.959122 1_666
O31 Tb6 2.373756 1_555
O31 Tb1 2.490504 1_555
O32 Te3 1.959130 1_565
O32 Tb4 2.373760 1_555
O32 Tb8 2.490499 1_565
O33 Te2 1.959124 1_655
O33 Tb3 2.373766 1_655
O33 Tb2 2.490505 1_555
O34 Te3 1.959130 1_556
O34 Tb7 2.373760 1_555
O34 Tb9 2.490499 1_545
O35 Te2 1.959124 1_555
O35 Tb6 2.373766 1_455
O35 Tb5 2.490505 1_555
O36 Te6 1.959124 1_555
O36 Tb3 2.373766 1_555
O36 Tb10 2.490505 1_555
O37 Te4 1.959130 1_555
O37 Tb4 2.373760 1_555
O37 Tb0 2.490499 1_555
O38 Te6 1.959124 1_665
O38 Tb6 2.373766 1_555
O38 Tb11 2.490505 1_555
O39 Te4 1.959130 1_556
O39 Tb7 2.373760 1_555
O39 Tb1 2.490499 1_555
O40 Te4 1.959124 1_556
O40 Tb0 2.373766 1_556
O40 Tb10 2.490505 1_555
O41 Te4 1.959124 1_555
O41 Tb1 2.373766 1_554
O41 Tb11 2.490505 1_555
O42 Te0 1.959122 1_555
O42 Tb0 2.373756 1_555
O42 Tb8 2.490504 1_555
O43 Te0 1.959122 1_666
O43 Tb1 2.373756 1_555
O43 Tb9 2.490504 1_555
O44 Te2 1.959130 1_655
O44 Tb2 2.373760 1_555
O44 Tb10 2.490499 1_655
O45 Te2 1.959130 1_555
O45 Tb5 2.373760 1_555
O45 Tb11 2.490499 1_455
O46 Te1 1.959130 1_555
O46 Tb2 2.373760 1_555
O46 Tb8 2.490499 1_555
O47 Te1 1.959130 1_565
O47 Tb5 2.373760 1_555
O47 Tb9 2.490499 1_555
