# generated using pymatgen
data_ZnCr2O7
_symmetry_space_group_name_H-M   'P 1'
_cell_length_a   7.09177900
_cell_length_b   6.19673300
_cell_length_c   7.62052649
_cell_angle_alpha   71.53807975
_cell_angle_beta   90.00000000
_cell_angle_gamma   90.00000000
_symmetry_Int_Tables_number   1
_chemical_formula_structural   ZnCr2O7
_chemical_formula_sum   'Zn2 Cr4 O14'
_cell_volume   317.65522908
_cell_formula_units_Z   2
loop_
 _symmetry_equiv_pos_site_id
 _symmetry_equiv_pos_as_xyz
  1  'x, y, z'
loop_
 _atom_site_type_symbol
 _atom_site_label
 _atom_site_symmetry_multiplicity
 _atom_site_fract_x
 _atom_site_fract_y
 _atom_site_fract_z
 _atom_site_occupancy
  Zn  Zn0  1  0.15616300  0.11722400  0.33664800  1
  Zn  Zn1  1  0.65616300  0.88277600  0.66335200  1
  Cr  Cr0  1  0.13479800  0.90087100  0.78885800  1
  Cr  Cr1  1  0.63479800  0.09912900  0.21114200  1
  Cr  Cr2  1  0.67860100  0.34829600  0.78274800  1
  Cr  Cr3  1  0.17860100  0.65170400  0.21725200  1
  O  O0  1  0.35591800  0.59909300  0.35080000  1
  O  O1  1  0.85591800  0.40090700  0.64920000  1
  O  O2  1  0.74731900  0.05584700  0.41321100  1
  O  O3  1  0.24731900  0.94415300  0.58678900  1
  O  O4  1  0.04134100  0.41989100  0.26895200  1
  O  O5  1  0.54134100  0.58010900  0.73104800  1
  O  O6  1  0.41905100  0.19262900  0.22622900  1
  O  O7  1  0.91905100  0.80737100  0.77377100  1
  O  O8  1  0.06410900  0.87851700  0.23643300  1
  O  O9  1  0.56410900  0.12148300  0.76356700  1
  O  O10  1  0.25585800  0.71377600  0.98322300  1
  O  O11  1  0.75585800  0.28622400  0.01677700  1
  O  O12  1  0.12178600  0.13768200  0.82929200  1
  O  O13  1  0.62178600  0.86231800  0.17070800  1
loop_
_geom_bond_atom_site_label_1
_geom_bond_atom_site_label_2
_geom_bond_distance
_geom_bond_site_symmetry_2
Cr0 O12 1.594760 1_565
Cr0 O7 1.652906 1_455
Cr0 O3 1.678788 1_555
Cr0 O10 1.785350 1_555
Cr1 O13 1.594760 1_545
Cr1 O6 1.652906 1_555
Cr1 O2 1.678788 1_555
Cr1 O11 1.785350 1_555
Cr2 O1 1.585296 1_555
Cr2 O9 1.669184 1_555
Cr2 O5 1.675651 1_555
Cr2 O11 1.787252 1_556
Cr3 O0 1.585296 1_555
Cr3 O8 1.669184 1_555
Cr3 O4 1.675651 1_555
Cr3 O10 1.787252 1_554
O2 Zn1 1.976598 1_545
O3 Zn0 1.976598 1_565
O4 Zn0 1.958080 1_555
O5 Zn1 1.958080 1_555
O6 Zn0 2.037924 1_555
O7 Zn1 2.037924 1_555
O8 Zn0 1.978109 1_565
O9 Zn1 1.978109 1_545
