# generated using pymatgen
data_Ba2MgCuNi2F14
_symmetry_space_group_name_H-M   'P 1'
_cell_length_a   5.25705742
_cell_length_b   7.34289619
_cell_length_c   14.55119337
_cell_angle_alpha   91.58988940
_cell_angle_beta   90.18025491
_cell_angle_gamma   110.23229037
_symmetry_Int_Tables_number   1
_chemical_formula_structural   Ba2MgCuNi2F14
_chemical_formula_sum   'Ba4 Mg2 Cu2 Ni4 F28'
_cell_volume   526.79584416
_cell_formula_units_Z   2
loop_
 _symmetry_equiv_pos_site_id
 _symmetry_equiv_pos_as_xyz
  1  'x, y, z'
loop_
 _atom_site_type_symbol
 _atom_site_label
 _atom_site_symmetry_multiplicity
 _atom_site_fract_x
 _atom_site_fract_y
 _atom_site_fract_z
 _atom_site_occupancy
  Ba  Ba0  1  0.11962300  0.37640700  0.62856600  1
  Ba  Ba1  1  0.25259400  0.37706400  0.12005100  1
  Ba  Ba2  1  0.87789500  0.62241400  0.37686100  1
  Ba  Ba3  1  0.74558500  0.61843700  0.87387900  1
  Mg  Mg0  1  0.43255900  0.01773500  0.75385200  1
  Mg  Mg1  1  0.57091200  0.00034300  0.25073400  1
  Cu  Cu0  1  0.49876900  0.00499200  0.99973600  1
  Cu  Cu1  1  0.49917800  0.00008900  0.50014000  1
  Ni  Ni0  1  0.09997500  0.23137600  0.87266000  1
  Ni  Ni1  1  0.89834900  0.76825100  0.12667500  1
  Ni  Ni2  1  0.13456000  0.23490100  0.37265600  1
  Ni  Ni3  1  0.86463500  0.76598200  0.62751900  1
  F  F0  1  0.89983600  0.98693900  0.33888100  1
  F  F1  1  0.86306200  0.26648700  0.45441700  1
  F  F2  1  0.13772000  0.73516700  0.54397900  1
  F  F3  1  0.66449800  0.50767600  0.59370400  1
  F  F4  1  0.60259200  0.10103800  0.62206500  1
  F  F5  1  0.50526000  0.90062500  0.87758500  1
  F  F6  1  0.40544400  0.24587100  0.95968500  1
  F  F7  1  0.91651100  0.01625000  0.16182800  1
  F  F8  1  0.38003100  0.31658800  0.77158800  1
  F  F9  1  0.33623300  0.49523000  0.40175800  1
  F  F10  1  0.80586600  0.22300300  0.78697100  1
  F  F11  1  0.17065900  0.49854800  0.90845600  1
  F  F12  1  0.40994900  0.22215300  0.29033400  1
  F  F13  1  0.18426900  0.77708400  0.20930400  1
  F  F14  1  0.49880800  0.10022800  0.12571700  1
  F  F15  1  0.63037800  0.68534500  0.22374400  1
  F  F16  1  0.13015300  0.84027300  0.01902200  1
  F  F17  1  0.10173800  0.01257400  0.65856100  1
  F  F18  1  0.86891400  0.15969800  0.98711200  1
  F  F19  1  0.71301600  0.83907900  0.51498100  1
  F  F20  1  0.59901900  0.74381700  0.04409500  1
  F  F21  1  0.59031300  0.77772600  0.70861600  1
  F  F22  1  0.94874000  0.31871700  0.27465700  1
  F  F23  1  0.28795100  0.16382400  0.48332600  1
  F  F24  1  0.39739500  0.90013400  0.37602300  1
  F  F25  1  0.08727700  0.97641300  0.83616300  1
  F  F26  1  0.04757000  0.67666500  0.72333500  1
  F  F27  1  0.83504800  0.50782900  0.09560900  1
loop_
_geom_bond_atom_site_label_1
_geom_bond_atom_site_label_2
_geom_bond_distance
_geom_bond_site_symmetry_2
Ba0 F8 2.616656 1_555
Ba0 F17 2.688485 1_555
Ba0 F26 2.705237 1_555
Ba0 F3 2.741906 1_555
Ba0 F4 2.769801 1_455
Ba0 F1 2.829168 1_455
Ba0 F10 2.861006 1_455
Ba0 F23 2.910384 1_555
Ba0 F2 2.910511 1_555
Ba0 F3 2.919874 1_455
Ba1 F27 2.708985 1_455
Ba1 F7 2.714603 1_455
Ba1 F22 2.720125 1_455
Ba1 F6 2.727902 1_554
Ba1 F14 2.764567 1_555
Ba1 F18 2.816973 1_454
Ba1 F15 2.833253 1_555
Ba1 F27 2.901127 1_555
Ba1 F20 2.928531 1_555
Ba1 F12 2.985317 1_555
Ba2 F9 2.701459 1_555
Ba2 F15 2.706583 1_555
Ba2 F0 2.711500 1_555
Ba2 F2 2.747705 1_655
Ba2 F22 2.778005 1_555
Ba2 F24 2.786915 1_655
Ba2 F19 2.847645 1_555
Ba2 F1 2.851928 1_555
Ba2 F9 2.894619 1_655
Ba2 F13 2.956646 1_655
Ba3 F26 2.665748 1_655
Ba3 F25 2.694025 1_655
Ba3 F11 2.720273 1_655
Ba3 F8 2.770216 1_555
Ba3 F5 2.774434 1_555
Ba3 F20 2.819957 1_556
Ba3 F11 2.890845 1_555
Ba3 F21 2.936220 1_555
Ba3 F16 2.950539 1_656
Ba3 F6 3.010092 1_555
Cu0 F18 1.896200 1_555
Cu0 F5 1.921107 1_545
Cu0 F16 1.923023 1_546
Cu0 F14 1.943790 1_556
Cu0 F6 2.089120 1_555
Cu0 F20 2.266690 1_546
Cu1 F4 1.906534 1_555
Cu1 F19 1.907892 1_545
Cu1 F23 1.917403 1_555
Cu1 F24 1.932759 1_545
Cu1 F2 2.306880 1_545
Cu1 F1 2.328214 1_555
F0 Ni2 1.863308 1_665
F0 Mg1 2.180749 1_565
F1 Ni2 1.931499 1_655
F2 Ni3 1.952001 1_455
F3 Ni3 1.873850 1_555
F4 Mg0 2.132670 1_555
F5 Mg0 2.106208 1_565
F6 Ni0 2.013755 1_555
F7 Ni1 1.847882 1_545
F7 Mg1 2.205573 1_555
F8 Ni0 2.037064 1_555
F8 Mg0 2.312273 1_555
F9 Ni2 1.872957 1_555
F10 Ni0 1.966449 1_655
F10 Mg0 2.064778 1_555
F11 Ni0 1.922494 1_555
F12 Ni2 1.907367 1_555
F12 Mg1 2.145943 1_555
F13 Ni1 1.904213 1_455
F13 Mg1 2.194350 1_565
F14 Mg1 2.062258 1_555
F15 Ni1 1.953789 1_555
F15 Mg1 2.460166 1_565
F16 Ni1 1.957238 1_455
F17 Ni3 1.851044 1_445
F17 Mg0 2.210213 1_555
F18 Ni0 2.035999 1_655
F19 Ni3 1.985319 1_555
F20 Ni1 1.932146 1_555
F21 Ni3 1.889650 1_555
F21 Mg0 2.275286 1_565
F22 Ni2 1.955070 1_655
F22 Mg1 2.504095 1_555
F23 Ni2 1.961003 1_555
F24 Mg1 2.077954 1_565
F25 Ni0 1.910411 1_565
F25 Mg0 2.115265 1_565
F26 Ni3 1.943565 1_455
F27 Ni1 1.866211 1_555
