# generated using pymatgen
data_Ca3Mn3N5
_symmetry_space_group_name_H-M   'P 1'
_cell_length_a   5.69102954
_cell_length_b   6.78268078
_cell_length_c   8.35315987
_cell_angle_alpha   107.38994895
_cell_angle_beta   106.14371150
_cell_angle_gamma   93.83551783
_symmetry_Int_Tables_number   1
_chemical_formula_structural   Ca3Mn3N5
_chemical_formula_sum   'Ca6 Mn6 N10'
_cell_volume   291.58093802
_cell_formula_units_Z   2
loop_
 _symmetry_equiv_pos_site_id
 _symmetry_equiv_pos_as_xyz
  1  'x, y, z'
loop_
 _atom_site_type_symbol
 _atom_site_label
 _atom_site_symmetry_multiplicity
 _atom_site_fract_x
 _atom_site_fract_y
 _atom_site_fract_z
 _atom_site_occupancy
  Ca  Ca0  1  0.80770562  0.40881465  0.60080967  1
  Ca  Ca1  1  0.19229438  0.59118535  0.39919033  1
  Ca  Ca2  1  0.65970018  0.87069179  0.87680126  1
  Ca  Ca3  1  0.34029982  0.12930821  0.12319874  1
  Ca  Ca4  1  0.64551707  0.67172778  0.19828319  1
  Ca  Ca5  1  0.35448293  0.32827222  0.80171681  1
  Mn  Mn0  1  0.90374491  0.32183777  0.96658001  1
  Mn  Mn1  1  0.09625509  0.67816223  0.03341999  1
  Mn  Mn2  1  0.69138735  0.95375866  0.56644902  1
  Mn  Mn3  1  0.30861265  0.04624134  0.43355098  1
  Mn  Mn4  1  0.10805442  0.86886728  0.71486346  1
  Mn  Mn5  1  0.89194558  0.13113272  0.28513654  1
  N  N0  1  0.94006190  0.11660335  0.78388829  1
  N  N1  1  0.05993810  0.88339665  0.21611171  1
  N  N2  1  0.81574633  0.70234518  0.50554038  1
  N  N3  1  0.18425367  0.29765482  0.49445962  1
  N  N4  1  0.76818261  0.53447741  0.89741136  1
  N  N5  1  0.23181739  0.46552259  0.10258864  1
  N  N6  1  0.38972551  0.94374396  0.62474362  1
  N  N7  1  0.61027449  0.05625604  0.37525638  1
  N  N8  1  0.27020812  0.76973870  0.91566865  1
  N  N9  1  0.72979188  0.23026130  0.08433135  1
loop_
_geom_bond_atom_site_label_1
_geom_bond_atom_site_label_2
_geom_bond_distance
_geom_bond_site_symmetry_2
Ca0 N2 2.356753 1_555
Ca0 N4 2.447172 1_555
Ca0 N7 2.510127 1_555
Ca0 N3 2.612334 1_655
Ca0 N0 2.864479 1_555
Ca1 N3 2.356753 1_555
Ca1 N5 2.447172 1_555
Ca1 N6 2.510127 1_555
Ca1 N2 2.612334 1_455
Ca1 N1 2.864479 1_555
Ca2 N8 2.411982 1_555
Ca2 N6 2.442477 1_555
Ca2 N4 2.444401 1_555
Ca2 N9 2.463811 1_566
Ca2 N0 2.652647 1_565
Ca3 N9 2.411982 1_555
Ca3 N7 2.442477 1_555
Ca3 N5 2.444401 1_555
Ca3 N8 2.463811 1_544
Ca3 N1 2.652647 1_545
Ca4 N2 2.416759 1_555
Ca4 N5 2.445983 1_555
Ca4 N1 2.621007 1_655
Ca4 N7 2.637825 1_565
Ca4 N4 2.708205 1_554
Ca4 N9 2.973948 1_555
Ca4 N8 2.983464 1_554
Ca5 N3 2.416759 1_555
Ca5 N4 2.445983 1_555
Ca5 N0 2.621007 1_455
Ca5 N6 2.637825 1_545
Ca5 N5 2.708205 1_556
Ca5 N8 2.973948 1_555
Ca5 N9 2.983464 1_556
Mn0 N9 1.776999 1_556
Mn0 N0 1.803720 1_555
Mn0 N4 1.846143 1_555
Mn0 N5 1.908303 1_656
Mn1 N8 1.776999 1_554
Mn1 N1 1.803720 1_555
Mn1 N5 1.846143 1_555
Mn1 N4 1.908303 1_454
Mn2 N2 1.873696 1_555
Mn2 N7 1.882458 1_565
Mn2 N6 1.912607 1_555
Mn2 N0 1.919388 1_565
Mn3 N3 1.873696 1_555
Mn3 N6 1.882458 1_545
Mn3 N7 1.912607 1_555
Mn3 N1 1.919388 1_545
Mn4 N0 2.003066 1_465
Mn4 N8 2.003385 1_555
Mn4 N2 2.012699 1_455
Mn4 N6 2.045697 1_555
Mn5 N1 2.003066 1_645
Mn5 N9 2.003385 1_555
Mn5 N3 2.012699 1_655
Mn5 N7 2.045697 1_555
