# generated using pymatgen
data_Er3(GeRh)2
_symmetry_space_group_name_H-M   'P 1'
_cell_length_a   5.54178000
_cell_length_b   7.83021300
_cell_length_c   13.16464900
_cell_angle_alpha   90.00000000
_cell_angle_beta   90.00000000
_cell_angle_gamma   90.00000000
_symmetry_Int_Tables_number   1
_chemical_formula_structural   Er3(GeRh)2
_chemical_formula_sum   'Er12 Ge8 Rh8'
_cell_volume   571.25779777
_cell_formula_units_Z   4
loop_
 _symmetry_equiv_pos_site_id
 _symmetry_equiv_pos_as_xyz
  1  'x, y, z'
loop_
 _atom_site_type_symbol
 _atom_site_label
 _atom_site_symmetry_multiplicity
 _atom_site_fract_x
 _atom_site_fract_y
 _atom_site_fract_z
 _atom_site_occupancy
  Er  Er0  1  0.63530300  0.25119100  0.25000000  1
  Er  Er1  1  0.36469700  0.74880900  0.75000000  1
  Er  Er2  1  0.36469700  0.75119100  0.25000000  1
  Er  Er3  1  0.63530300  0.24880900  0.75000000  1
  Er  Er4  1  0.14772300  0.39324600  0.10075800  1
  Er  Er5  1  0.85227700  0.60675400  0.89924200  1
  Er  Er6  1  0.85227700  0.60675400  0.60075800  1
  Er  Er7  1  0.85227700  0.89324600  0.39924200  1
  Er  Er8  1  0.14772300  0.39324600  0.39924200  1
  Er  Er9  1  0.14772300  0.10675400  0.60075800  1
  Er  Er10  1  0.14772300  0.10675400  0.89924200  1
  Er  Er11  1  0.85227700  0.89324600  0.10075800  1
  Ge  Ge0  1  0.13033800  0.10907100  0.25000000  1
  Ge  Ge1  1  0.86966200  0.89092900  0.75000000  1
  Ge  Ge2  1  0.86966200  0.60907100  0.25000000  1
  Ge  Ge3  1  0.13033800  0.39092900  0.75000000  1
  Ge  Ge4  1  0.65837800  0.25000000  0.00000000  1
  Ge  Ge5  1  0.34162200  0.75000000  0.00000000  1
  Ge  Ge6  1  0.34162200  0.75000000  0.50000000  1
  Ge  Ge7  1  0.65837800  0.25000000  0.50000000  1
  Rh  Rh0  1  0.37442000  0.03607300  0.09342800  1
  Rh  Rh1  1  0.62558000  0.96392700  0.90657200  1
  Rh  Rh2  1  0.62558000  0.96392700  0.59342800  1
  Rh  Rh3  1  0.62558000  0.53607300  0.40657200  1
  Rh  Rh4  1  0.37442000  0.03607300  0.40657200  1
  Rh  Rh5  1  0.37442000  0.46392700  0.59342800  1
  Rh  Rh6  1  0.37442000  0.46392700  0.90657200  1
  Rh  Rh7  1  0.62558000  0.53607300  0.09342800  1
loop_
_geom_bond_atom_site_label_1
_geom_bond_atom_site_label_2
_geom_bond_distance
_geom_bond_site_symmetry_2
Er0 Ge0 2.960489 1_655
Er0 Ge0 3.011555 1_555
Er0 Rh4 3.029206 1_555
Er0 Rh0 3.029206 1_555
Er0 Rh3 3.037676 1_555
Er0 Rh7 3.037676 1_555
Er0 Ge2 3.088616 1_555
Er0 Ge7 3.293659 1_555
Er0 Ge4 3.293659 1_555
Er1 Ge1 2.960489 1_455
Er1 Ge1 3.011555 1_555
Er1 Rh1 3.029206 1_555
Er1 Rh2 3.029206 1_555
Er1 Rh6 3.037676 1_555
Er1 Rh5 3.037676 1_555
Er1 Ge3 3.088616 1_555
Er1 Ge6 3.293659 1_555
Er1 Ge5 3.293659 1_556
Er2 Ge2 2.960489 1_455
Er2 Ge2 3.011555 1_555
Er2 Rh7 3.029206 1_555
Er2 Rh3 3.029206 1_555
Er2 Rh4 3.037676 1_565
Er2 Rh0 3.037676 1_565
Er2 Ge0 3.088616 1_565
Er2 Ge6 3.293659 1_555
Er2 Ge5 3.293659 1_555
Er3 Ge3 2.960489 1_655
Er3 Ge3 3.011555 1_555
Er3 Rh5 3.029206 1_555
Er3 Rh6 3.029206 1_555
Er3 Rh1 3.037676 1_545
Er3 Rh2 3.037676 1_545
Er3 Ge1 3.088616 1_545
Er3 Ge7 3.293659 1_555
Er3 Ge4 3.293659 1_556
Er4 Rh7 2.876265 1_555
Er4 Rh6 2.901679 1_554
Er4 Ge0 2.969966 1_555
Er4 Ge2 3.015063 1_455
Er4 Rh0 3.067470 1_555
Er4 Rh7 3.103705 1_455
Er4 Ge4 3.220502 1_455
Er4 Ge5 3.273762 1_555
Er4 Ge4 3.320556 1_555
Er5 Rh6 2.876265 1_555
Er5 Rh7 2.901679 1_556
Er5 Ge1 2.969966 1_555
Er5 Ge3 3.015063 1_655
Er5 Rh1 3.067470 1_555
Er5 Rh6 3.103705 1_655
Er5 Ge5 3.220502 1_656
Er5 Ge4 3.273762 1_556
Er5 Ge5 3.320556 1_556
Er6 Rh5 2.876265 1_555
Er6 Rh3 2.901679 1_555
Er6 Ge1 2.969966 1_555
Er6 Ge3 3.015063 1_655
Er6 Rh2 3.067470 1_555
Er6 Rh5 3.103705 1_655
Er6 Ge6 3.220502 1_655
Er6 Ge7 3.273762 1_555
Er6 Ge6 3.320556 1_555
Er7 Rh4 2.876265 1_565
Er7 Rh2 2.901679 1_555
Er7 Ge2 2.969966 1_555
Er7 Ge0 3.015063 1_665
Er7 Rh3 3.067470 1_555
Er7 Rh4 3.103705 1_665
Er7 Ge6 3.220502 1_655
Er7 Ge7 3.273762 1_565
Er7 Ge6 3.320556 1_555
Er8 Rh3 2.876265 1_555
Er8 Rh5 2.901679 1_555
Er8 Ge0 2.969966 1_555
Er8 Ge2 3.015063 1_455
Er8 Rh4 3.067470 1_555
Er8 Rh3 3.103705 1_455
Er8 Ge7 3.220502 1_455
Er8 Ge6 3.273762 1_555
Er8 Ge7 3.320556 1_555
Er9 Rh2 2.876265 1_545
Er9 Rh4 2.901679 1_555
Er9 Ge3 2.969966 1_555
Er9 Ge1 3.015063 1_445
Er9 Rh5 3.067470 1_555
Er9 Rh2 3.103705 1_445
Er9 Ge7 3.220502 1_455
Er9 Ge6 3.273762 1_545
Er9 Ge7 3.320556 1_555
Er10 Rh1 2.876265 1_545
Er10 Rh0 2.901679 1_556
Er10 Ge3 2.969966 1_555
Er10 Ge1 3.015063 1_445
Er10 Rh6 3.067470 1_555
Er10 Rh1 3.103705 1_445
Er10 Ge4 3.220502 1_456
Er10 Ge5 3.273762 1_546
Er10 Ge4 3.320556 1_556
Er11 Rh0 2.876265 1_565
Er11 Rh1 2.901679 1_554
Er11 Ge2 2.969966 1_555
Er11 Ge0 3.015063 1_665
Er11 Rh7 3.067470 1_555
Er11 Rh0 3.103705 1_665
Er11 Ge5 3.220502 1_655
Er11 Ge4 3.273762 1_565
Er11 Ge5 3.320556 1_555
Ge0 Rh0 2.530807 1_555
Ge0 Rh4 2.530807 1_555
Ge1 Rh1 2.530807 1_555
Ge1 Rh2 2.530807 1_555
Ge2 Rh3 2.530807 1_555
Ge2 Rh7 2.530807 1_555
Ge3 Rh5 2.530807 1_555
Ge3 Rh6 2.530807 1_555
Ge4 Rh7 2.561925 1_555
Ge4 Rh1 2.561925 1_544
Ge4 Rh6 2.606728 1_554
Ge4 Rh0 2.606728 1_555
Ge5 Rh6 2.561925 1_554
Ge5 Rh0 2.561925 1_565
Ge5 Rh1 2.606728 1_554
Ge5 Rh7 2.606728 1_555
Ge6 Rh5 2.561925 1_555
Ge6 Rh4 2.561925 1_565
Ge6 Rh2 2.606728 1_555
Ge6 Rh3 2.606728 1_555
Ge7 Rh2 2.561925 1_545
Ge7 Rh3 2.561925 1_555
Ge7 Rh5 2.606728 1_555
Ge7 Rh4 2.606728 1_555
