# generated using pymatgen
data_Li3Ti2V5O12
_symmetry_space_group_name_H-M   'P 1'
_cell_length_a   5.11506300
_cell_length_b   5.21652775
_cell_length_c   29.54325534
_cell_angle_alpha   89.22257517
_cell_angle_beta   88.67758004
_cell_angle_gamma   61.17262760
_symmetry_Int_Tables_number   1
_chemical_formula_structural   Li3Ti2V5O12
_chemical_formula_sum   'Li9 Ti6 V15 O36'
_cell_volume   690.42336366
_cell_formula_units_Z   3
loop_
 _symmetry_equiv_pos_site_id
 _symmetry_equiv_pos_as_xyz
  1  'x, y, z'
loop_
 _atom_site_type_symbol
 _atom_site_label
 _atom_site_symmetry_multiplicity
 _atom_site_fract_x
 _atom_site_fract_y
 _atom_site_fract_z
 _atom_site_occupancy
  Li  Li0  1  0.33471200  0.84365600  0.49737100  1
  Li  Li1  1  0.00319500  0.83241900  0.16273100  1
  Li  Li2  1  0.00208000  0.16356700  0.08360400  1
  Li  Li3  1  0.00610100  0.17639600  0.33734500  1
  Li  Li4  1  0.97346400  0.17747800  0.82868600  1
  Li  Li5  1  0.34155500  0.15755200  0.41495500  1
  Li  Li6  1  0.34584800  0.16363100  0.66959300  1
  Li  Li7  1  0.68141800  0.15275700  0.00290300  1
  Li  Li8  1  0.66787500  0.16344300  0.75086300  1
  Ti  Ti0  1  0.65237700  0.50073700  0.41990100  1
  Ti  Ti1  1  0.66270200  0.50155800  0.91761200  1
  Ti  Ti2  1  0.00259000  0.49593100  0.24982400  1
  Ti  Ti3  1  0.00557400  0.52227200  0.74651100  1
  Ti  Ti4  1  0.34115500  0.50976100  0.08008600  1
  Ti  Ti5  1  0.33710500  0.49631800  0.58308700  1
  V  V0  1  0.34596300  0.83978400  0.25015000  1
  V  V1  1  0.32129700  0.85510000  0.75178900  1
  V  V2  1  0.64903800  0.85299500  0.08576800  1
  V  V3  1  0.67802000  0.83909200  0.58293700  1
  V  V4  1  0.98626600  0.85332000  0.41478300  1
  V  V5  1  0.67991500  0.48128300  0.16368500  1
  V  V6  1  0.00815800  0.83616300  0.91592700  1
  V  V7  1  0.67329700  0.49011500  0.66886300  1
  V  V8  1  0.00459300  0.48540500  0.00238900  1
  V  V9  1  0.00934800  0.48779800  0.49778200  1
  V  V10  1  0.32931400  0.49660200  0.33635900  1
  V  V11  1  0.99730300  0.14901100  0.58385600  1
  V  V12  1  0.33981200  0.49276600  0.82981400  1
  V  V13  1  0.33793900  0.14291600  0.91523400  1
  V  V14  1  0.66133200  0.14712000  0.24993200  1
  O  O0  1  0.35045000  0.79033900  0.12367900  1
  O  O1  1  0.33211100  0.80676400  0.37632700  1
  O  O2  1  0.35395700  0.80294700  0.62012600  1
  O  O3  1  0.34930400  0.79544500  0.87656200  1
  O  O4  1  0.70037700  0.79617000  0.21012700  1
  O  O5  1  0.68329400  0.80304800  0.45256700  1
  O  O6  1  0.66200000  0.81804600  0.71360400  1
  O  O7  1  0.69167200  0.80407200  0.95327600  1
  O  O8  1  0.65314400  0.50901800  0.04586400  1
  O  O9  1  0.99543600  0.80817000  0.04734000  1
  O  O10  1  0.02134200  0.79892500  0.28708600  1
  O  O11  1  0.66787600  0.47766300  0.28735600  1
  O  O12  1  0.66716000  0.50714700  0.54628600  1
  O  O13  1  0.03462200  0.80251500  0.54412700  1
  O  O14  1  0.63576500  0.51381300  0.78915000  1
  O  O15  1  0.01796100  0.81537500  0.78936400  1
  O  O16  1  0.96477000  0.53482600  0.12374400  1
  O  O17  1  0.01374200  0.50862200  0.37653900  1
  O  O18  1  0.00845300  0.48148700  0.62014500  1
  O  O19  1  0.01482800  0.49683100  0.87930200  1
  O  O20  1  0.34122000  0.50764400  0.21228000  1
  O  O21  1  0.98444900  0.18560700  0.21282800  1
  O  O22  1  0.98175900  0.18467500  0.45137600  1
  O  O23  1  0.32409200  0.53345000  0.45425400  1
  O  O24  1  0.32281300  0.51162600  0.71243400  1
  O  O25  1  0.97035000  0.18209700  0.95464000  1
  O  O26  1  0.01339500  0.19555300  0.71441600  1
  O  O27  1  0.34279100  0.48290300  0.95349700  1
  O  O28  1  0.30553300  0.19208500  0.28967000  1
  O  O29  1  0.34137400  0.18811400  0.04826300  1
  O  O30  1  0.32324300  0.18184400  0.54609200  1
  O  O31  1  0.28007500  0.21946200  0.79047100  1
  O  O32  1  0.65300300  0.19499800  0.12294600  1
  O  O33  1  0.63836600  0.18567700  0.62237900  1
  O  O34  1  0.66327800  0.21018700  0.37656600  1
  O  O35  1  0.67182800  0.19438700  0.87802100  1
loop_
_geom_bond_atom_site_label_1
_geom_bond_atom_site_label_2
_geom_bond_distance
_geom_bond_site_symmetry_2
Li0 O23 2.094761 1_555
Li0 O5 2.123802 1_555
Li0 O13 2.126510 1_555
Li0 O30 2.269965 1_565
Li0 O22 2.284940 1_465
Li0 O12 2.286358 1_555
Li1 O0 2.017559 1_555
Li1 O16 2.031857 1_455
Li1 O4 2.137933 1_455
Li1 O32 2.221977 1_465
Li1 O20 2.286330 1_555
Li1 O21 2.343342 1_465
Li2 O32 2.047695 1_455
Li2 O29 2.060475 1_555
Li2 O8 2.147512 1_455
Li2 O9 2.168498 1_445
Li2 O16 2.211084 1_455
Li2 O0 2.248740 1_545
Li3 O34 2.015526 1_455
Li3 O28 2.086749 1_555
Li3 O17 2.113690 1_555
Li3 O1 2.180058 1_545
Li3 O11 2.253205 1_455
Li3 O10 2.452350 1_545
Li4 O31 2.006257 1_655
Li4 O35 2.069079 1_555
Li4 O14 2.131015 1_555
Li4 O15 2.145254 1_645
Li4 O19 2.340566 1_655
Li4 O3 2.454050 1_645
Li5 O22 2.055821 1_455
Li5 O34 2.100215 1_555
Li5 O17 2.126900 1_555
Li5 O5 2.150976 1_545
Li5 O1 2.190351 1_545
Li5 O23 2.255901 1_555
Li6 O33 2.064669 1_555
Li6 O26 2.074129 1_555
Li6 O24 2.181832 1_555
Li6 O6 2.185804 1_545
Li6 O18 2.270000 1_555
Li6 O2 2.382043 1_545
Li7 O25 2.087010 1_554
Li7 O29 2.108297 1_555
Li7 O9 2.187141 1_545
Li7 O8 2.209518 1_555
Li7 O27 2.295313 1_554
Li7 O7 2.331873 1_544
Li8 O14 2.098808 1_555
Li8 O26 2.122210 1_655
Li8 O6 2.136938 1_545
Li8 O24 2.155974 1_555
Li8 O15 2.167882 1_645
Li8 O31 2.175442 1_555
O0 Ti4 1.980967 1_555
O0 V2 2.021484 1_555
O0 V5 2.063074 1_555
O1 V4 1.994889 1_455
O1 V10 2.021689 1_555
O1 Ti0 2.099747 1_555
O2 Ti5 1.986997 1_555
O2 V3 2.049884 1_555
O2 V11 2.144072 1_465
O2 V7 2.208760 1_555
O3 V6 1.999547 1_555
O3 Ti1 2.014983 1_555
O3 V12 2.130490 1_555
O3 V13 2.132061 1_565
O4 Ti2 1.979163 1_655
O4 V0 2.060801 1_555
O4 V14 2.114093 1_565
O4 V5 2.196643 1_555
O5 Ti0 1.931882 1_555
O5 V4 2.005137 1_555
O5 V9 2.160695 1_655
O6 Ti3 1.958953 1_655
O6 V1 1.984285 1_555
O6 V7 2.153915 1_555
O7 Ti1 1.974903 1_555
O7 V6 2.009995 1_655
O7 V13 2.148736 1_565
O7 V8 2.215052 1_656
O8 Ti4 1.867774 1_555
O8 V8 2.140254 1_655
O8 V2 2.151720 1_555
O9 Ti4 1.967164 1_655
O9 V2 1.999454 1_555
O9 V8 2.140658 1_655
O10 Ti2 1.979283 1_555
O10 V0 2.060251 1_555
O10 V14 2.169958 1_465
O10 V10 2.176123 1_555
O11 Ti2 2.058308 1_655
O11 V14 2.075041 1_555
O11 V0 2.124979 1_555
O11 V10 2.197226 1_555
O12 Ti5 2.010228 1_555
O12 V3 2.078551 1_555
O12 V11 2.135839 1_555
O12 V9 2.201128 1_655
O13 Ti5 1.979671 1_555
O13 V3 2.062024 1_455
O13 V11 2.096579 1_465
O13 V9 2.204652 1_555
O14 V12 1.954403 1_555
O14 V1 2.059674 1_555
O14 Ti3 2.266256 1_655
O15 V1 1.976605 1_555
O15 Ti3 2.023425 1_555
O15 V12 2.082061 1_555
O16 V5 1.974218 1_555
O16 V2 2.017392 1_555
O16 Ti4 2.243749 1_655
O17 V10 1.958197 1_555
O17 V4 2.081749 1_455
O17 Ti0 2.240979 1_455
O18 Ti5 2.017124 1_555
O18 V11 2.075898 1_455
O18 V3 2.129450 1_455
O18 V7 2.196819 1_455
O19 V6 2.073004 1_555
O19 V13 2.086192 1_555
O19 Ti1 2.095125 1_455
O19 V12 2.180816 1_555
O20 Ti2 2.060524 1_555
O20 V0 2.085345 1_555
O20 V14 2.124396 1_555
O20 V5 2.177659 1_555
O21 Ti2 2.005326 1_655
O21 V14 2.050348 1_555
O21 V5 2.154063 1_555
O21 V0 2.170889 1_645
O22 Ti0 1.942561 1_555
O22 V4 2.041612 1_545
O22 V9 2.163980 1_655
O23 Ti0 1.878444 1_555
O23 V4 2.095160 1_455
O23 V9 2.137324 1_555
O24 Ti3 1.867880 1_555
O24 V7 2.141706 1_555
O24 V1 2.145909 1_555
O25 Ti1 1.987768 1_555
O25 V6 2.076345 1_645
O25 V13 2.113581 1_655
O25 V8 2.205282 1_656
O26 Ti3 1.944682 1_555
O26 V1 2.045323 1_545
O26 V7 2.161643 1_455
O27 Ti1 1.970226 1_555
O27 V13 2.126519 1_555
O27 V6 2.132618 1_555
O27 V8 2.223177 1_556
O28 Ti2 1.991043 1_555
O28 V14 2.059762 1_555
O28 V0 2.112813 1_545
O28 V10 2.166641 1_555
O29 Ti4 1.933939 1_555
O29 V2 2.033534 1_545
O29 V8 2.164208 1_555
O30 Ti5 2.013726 1_555
O30 V11 2.058629 1_455
O30 V3 2.141097 1_545
O30 V9 2.175999 1_555
O31 V12 1.989581 1_555
O31 Ti3 2.010719 1_555
O31 V1 2.150454 1_545
O32 V5 1.988081 1_555
O32 Ti4 2.086829 1_555
O32 V2 2.116317 1_545
O33 Ti5 1.992850 1_555
O33 V11 2.067245 1_555
O33 V3 2.088136 1_545
O33 V7 2.187255 1_555
O34 Ti0 1.976679 1_555
O34 V10 2.036079 1_555
O34 V4 2.129071 1_545
O35 Ti1 1.978393 1_555
O35 V13 2.131922 1_555
O35 V6 2.153522 1_645
O35 V12 2.199441 1_555
