# generated using pymatgen
data_CsNdTe2
_symmetry_space_group_name_H-M   'P 1'
_cell_length_a   9.33450414
_cell_length_b   9.33450414
_cell_length_c   9.33450429
_cell_angle_alpha   29.00428722
_cell_angle_beta   29.00428722
_cell_angle_gamma   29.00428440
_symmetry_Int_Tables_number   1
_chemical_formula_structural   CsNdTe2
_chemical_formula_sum   'Cs1 Nd1 Te2'
_cell_volume   169.13333555
_cell_formula_units_Z   1
loop_
 _symmetry_equiv_pos_site_id
 _symmetry_equiv_pos_as_xyz
  1  'x, y, z'
loop_
 _atom_site_type_symbol
 _atom_site_label
 _atom_site_symmetry_multiplicity
 _atom_site_fract_x
 _atom_site_fract_y
 _atom_site_fract_z
 _atom_site_occupancy
  Cs  Cs0  1  0.50000000  0.50000000  0.50000000  1
  Nd  Nd0  1  0.00000000  0.00000000  -0.00000000  1
  Te  Te0  1  0.73170413  0.73170413  0.73170413  1
  Te  Te1  1  0.26829587  0.26829587  0.26829587  1
loop_
_geom_bond_atom_site_label_1
_geom_bond_atom_site_label_2
_geom_bond_distance
_geom_bond_site_symmetry_2
Cs0 Te1 3.835054 1_655
Cs0 Te0 3.835054 1_455
Cs0 Te1 3.835054 1_565
Cs0 Te0 3.835054 1_545
Cs0 Te1 3.835054 1_556
Cs0 Te0 3.835054 1_554
Nd0 Te0 3.213252 1_454
Nd0 Te1 3.213252 1_545
Nd0 Te0 3.213252 1_544
Nd0 Te1 3.213252 1_455
Nd0 Te1 3.213252 1_554
Nd0 Te0 3.213252 1_445
