# generated using pymatgen
data_Ca2MnAs2(HO4)2
_symmetry_space_group_name_H-M   'P 1'
_cell_length_a   6.08486554
_cell_length_b   5.63862722
_cell_length_c   12.55917700
_cell_angle_alpha   90.00000000
_cell_angle_beta   90.00000000
_cell_angle_gamma   111.41926232
_symmetry_Int_Tables_number   1
_chemical_formula_structural   Ca2MnAs2(HO4)2
_chemical_formula_sum   'Ca4 Mn2 As4 H4 O16'
_cell_volume   401.14743530
_cell_formula_units_Z   2
loop_
 _symmetry_equiv_pos_site_id
 _symmetry_equiv_pos_as_xyz
  1  'x, y, z'
loop_
 _atom_site_type_symbol
 _atom_site_label
 _atom_site_symmetry_multiplicity
 _atom_site_fract_x
 _atom_site_fract_y
 _atom_site_fract_z
 _atom_site_occupancy
  Ca  Ca0  1  0.43765600  0.74376600  0.87438800  1
  Ca  Ca1  1  0.56234400  0.25623400  0.12561200  1
  Ca  Ca2  1  0.56234400  0.75623400  0.37438800  1
  Ca  Ca3  1  0.43765600  0.24376600  0.62561200  1
  Mn  Mn0  1  0.00000000  0.00000000  0.00000000  1
  Mn  Mn1  1  0.00000000  0.50000000  0.50000000  1
  As  As0  1  0.78992900  0.93342800  0.62696100  1
  As  As1  1  0.21007100  0.06657200  0.37303900  1
  As  As2  1  0.21007100  0.56657200  0.12696100  1
  As  As3  1  0.78992900  0.43342800  0.87303900  1
  H  H0  1  0.86701400  0.45573700  0.37282900  1
  H  H1  1  0.13298600  0.54426300  0.62717100  1
  H  H2  1  0.13298600  0.04426300  0.87282900  1
  H  H3  1  0.86701400  0.95573700  0.12717100  1
  O  O0  1  0.76475100  0.66614400  0.96269100  1
  O  O1  1  0.23524900  0.33385600  0.03730900  1
  O  O2  1  0.23524900  0.83385600  0.46269100  1
  O  O3  1  0.76475100  0.16614400  0.53730900  1
  O  O4  1  0.71522100  0.65891600  0.54982000  1
  O  O5  1  0.28477900  0.34108400  0.45018000  1
  O  O6  1  0.28477900  0.84108400  0.04982000  1
  O  O7  1  0.71522100  0.15891600  0.95018000  1
  O  O8  1  0.06263300  0.51452800  0.81969200  1
  O  O9  1  0.93736700  0.48547200  0.18030800  1
  O  O10  1  0.93736700  0.98547200  0.31969200  1
  O  O11  1  0.06263300  0.01452800  0.68030800  1
  O  O12  1  0.56486100  0.92216800  0.71072300  1
  O  O13  1  0.43513900  0.07783200  0.28927700  1
  O  O14  1  0.43513900  0.57783200  0.21072300  1
  O  O15  1  0.56486100  0.42216800  0.78927700  1
loop_
_geom_bond_atom_site_label_1
_geom_bond_atom_site_label_2
_geom_bond_distance
_geom_bond_site_symmetry_2
Ca0 O8 2.279401 1_555
Ca0 O12 2.295085 1_555
Ca0 O0 2.453394 1_555
Ca0 O15 2.460729 1_555
Ca0 O7 2.520057 1_565
Ca0 O6 2.528583 1_556
Ca1 O9 2.279401 1_555
Ca1 O13 2.295085 1_555
Ca1 O1 2.453394 1_555
Ca1 O14 2.460729 1_555
Ca1 O6 2.520057 1_545
Ca1 O7 2.528583 1_554
Ca2 O10 2.279401 1_555
Ca2 O14 2.295085 1_555
Ca2 O2 2.453394 1_555
Ca2 O13 2.460729 1_565
Ca2 O5 2.520057 1_555
Ca2 O4 2.528583 1_555
Ca3 O11 2.279401 1_555
Ca3 O15 2.295085 1_555
Ca3 O3 2.453394 1_555
Ca3 O12 2.460729 1_545
Ca3 O4 2.520057 1_555
Ca3 O5 2.528583 1_555
Mn0 O1 1.960673 1_555
Mn0 O0 1.960673 1_444
Mn0 O7 2.308954 1_454
Mn0 O6 2.308954 1_545
Mn1 O2 1.960673 1_555
Mn1 O3 1.960673 1_455
Mn1 O5 2.308954 1_555
Mn1 O4 2.308954 1_455
As0 O11 1.690350 1_665
As0 O12 1.709603 1_555
As0 O4 1.739901 1_555
As0 O3 1.777623 1_565
As1 O10 1.690350 1_445
As1 O13 1.709603 1_555
As1 O5 1.739901 1_555
As1 O2 1.777623 1_545
As2 O9 1.690350 1_455
As2 O14 1.709603 1_555
As2 O6 1.739901 1_555
As2 O1 1.777623 1_555
As3 O8 1.690350 1_655
As3 O15 1.709603 1_555
As3 O7 1.739901 1_555
As3 O0 1.777623 1_555
H0 Mn1 1.766499 1_655
H1 Mn1 1.766499 1_555
H2 Mn0 1.766499 1_556
H3 Mn0 1.766499 1_665
