# generated using pymatgen
data_U2Be25Ga
_symmetry_space_group_name_H-M   'P 1'
_cell_length_a   7.26368653
_cell_length_b   7.26368653
_cell_length_c   7.26368653
_cell_angle_alpha   60.00000000
_cell_angle_beta   60.00000000
_cell_angle_gamma   60.00000000
_symmetry_Int_Tables_number   1
_chemical_formula_structural   U2Be25Ga
_chemical_formula_sum   'U2 Be25 Ga1'
_cell_volume   270.99188291
_cell_formula_units_Z   1
loop_
 _symmetry_equiv_pos_site_id
 _symmetry_equiv_pos_as_xyz
  1  'x, y, z'
loop_
 _atom_site_type_symbol
 _atom_site_label
 _atom_site_symmetry_multiplicity
 _atom_site_fract_x
 _atom_site_fract_y
 _atom_site_fract_z
 _atom_site_occupancy
  U  U0  1  0.25000000  0.25000000  0.25000000  1
  U  U1  1  0.75000000  0.75000000  0.75000000  1
  Be  Be0  1  0.78700600  0.56210700  0.21299400  1
  Be  Be1  1  0.21299400  0.43789300  0.78700600  1
  Be  Be2  1  0.56210700  0.78700600  0.43789300  1
  Be  Be3  1  0.43789300  0.21299400  0.56210700  1
  Be  Be4  1  0.30585000  0.94177500  0.69415000  1
  Be  Be5  1  0.69415000  0.05822500  0.30585000  1
  Be  Be6  1  0.94177500  0.30585000  0.05822500  1
  Be  Be7  1  0.05822500  0.69415000  0.94177500  1
  Be  Be8  1  0.21299400  0.78700600  0.56210700  1
  Be  Be9  1  0.78700600  0.21299400  0.43789300  1
  Be  Be10  1  0.43789300  0.56210700  0.78700600  1
  Be  Be11  1  0.56210700  0.43789300  0.21299400  1
  Be  Be12  1  0.69415000  0.30585000  0.94177500  1
  Be  Be13  1  0.30585000  0.69415000  0.05822500  1
  Be  Be14  1  0.05822500  0.94177500  0.30585000  1
  Be  Be15  1  0.94177500  0.05822500  0.69415000  1
  Be  Be16  1  0.56210700  0.21299400  0.78700600  1
  Be  Be17  1  0.43789300  0.78700600  0.21299400  1
  Be  Be18  1  0.78700600  0.43789300  0.56210700  1
  Be  Be19  1  0.21299400  0.56210700  0.43789300  1
  Be  Be20  1  0.94177500  0.69415000  0.30585000  1
  Be  Be21  1  0.05822500  0.30585000  0.69415000  1
  Be  Be22  1  0.30585000  0.05822500  0.94177500  1
  Be  Be23  1  0.69415000  0.94177500  0.05822500  1
  Be  Be24  1  0.50000000  0.50000000  0.50000000  1
  Ga  Ga0  1  0.00000000  0.00000000  0.00000000  1
loop_
_geom_bond_atom_site_label_1
_geom_bond_atom_site_label_2
_geom_bond_distance
_geom_bond_site_symmetry_2
Be0 Be24 2.132974 1_555
Be0 Be6 2.174514 1_555
Be0 Be7 2.191120 1_654
Be0 Be11 2.226344 1_555
Be0 Be18 2.226344 1_555
Be0 Be9 2.226344 1_555
Be0 Be17 2.226344 1_555
Be0 Be23 2.263188 1_555
Be0 Be20 2.263188 1_555
Be0 Be2 2.310253 1_555
Be0 U1 3.031871 1_554
Be0 U0 3.031871 1_655
Be1 Be24 2.132974 1_555
Be1 Be7 2.174514 1_555
Be1 Be6 2.191120 1_456
Be1 Be16 2.226344 1_555
Be1 Be10 2.226344 1_555
Be1 Be19 2.226344 1_555
Be1 Be8 2.226344 1_555
Be1 Be21 2.263188 1_555
Be1 Be22 2.263188 1_555
Be1 Be3 2.310253 1_555
Be1 U1 3.031871 1_455
Be1 U0 3.031871 1_556
Be2 Be24 2.132974 1_555
Be2 Be4 2.174514 1_555
Be2 Be5 2.191120 1_565
Be2 Be8 2.226344 1_555
Be2 Be23 2.263188 1_555
Be2 Be20 2.263188 1_555
Be2 U0 3.031871 1_565
Be2 U1 3.031871 1_555
Be3 Be5 2.174514 1_555
Be3 Be4 2.191120 1_545
Be3 Be9 2.226344 1_555
Be3 U0 3.031871 1_555
Be3 U1 3.031871 1_545
Be4 Ga0 2.261497 1_566
Be4 Be8 2.263188 1_555
Be4 Be7 2.543704 1_555
Be4 U1 2.960203 1_555
Be4 U0 2.960203 1_565
Be5 Ga0 2.261497 1_655
Be5 Be9 2.263188 1_555
Be5 Be6 2.543704 1_555
Be5 U1 2.960203 1_545
Be5 U0 2.960203 1_555
Be6 Ga0 2.261497 1_655
Be6 Be9 2.263188 1_555
Be6 U1 2.960203 1_554
Be6 U0 2.960203 1_655
Be7 Ga0 2.261497 1_566
Be7 Be8 2.263188 1_555
Be7 U1 2.960203 1_455
Be7 U0 2.960203 1_556
Be8 U0 3.031871 1_565
Be8 U1 3.031871 1_455
Be9 U1 3.031871 1_545
Be9 U0 3.031871 1_655
Be10 Be24 2.132974 1_555
Be10 Be12 2.174514 1_555
Be10 Be13 2.191120 1_556
Be10 Be2 2.226344 1_555
Be10 Be18 2.226344 1_555
Be10 Be16 2.226344 1_555
Be10 Be7 2.263188 1_555
Be10 Be4 2.263188 1_555
Be10 Be8 2.310253 1_555
Be10 U0 3.031871 1_556
Be10 U1 3.031871 1_555
Be11 Be24 2.132974 1_555
Be11 Be13 2.174514 1_555
Be11 Be12 2.191120 1_554
Be11 Be3 2.226344 1_555
Be11 Be19 2.226344 1_555
Be11 Be17 2.226344 1_555
Be11 Be5 2.263188 1_555
Be11 Be6 2.263188 1_555
Be11 Be9 2.310253 1_555
Be11 U1 3.031871 1_554
Be11 U0 3.031871 1_555
Be12 Ga0 2.261497 1_656
Be12 Be18 2.263188 1_555
Be12 Be16 2.263188 1_555
Be12 Be21 2.339253 1_655
Be12 Be5 2.339253 1_556
Be12 Be6 2.339253 1_556
Be12 Be23 2.339253 1_546
Be12 Be15 2.543704 1_555
Be12 U1 2.960203 1_555
Be12 U0 2.960203 1_556
Be13 Ga0 2.261497 1_565
Be13 Be17 2.263188 1_555
Be13 Be19 2.263188 1_555
Be13 Be4 2.339253 1_554
Be13 Be22 2.339253 1_564
Be13 Be7 2.339253 1_554
Be13 Be20 2.339253 1_455
Be13 Be14 2.543704 1_555
Be13 U1 2.960203 1_554
Be13 U0 2.960203 1_555
Be14 Be8 2.174514 1_555
Be14 Be9 2.191120 1_465
Be14 Ga0 2.261497 1_565
Be14 Be19 2.263188 1_555
Be14 Be17 2.263188 1_555
Be14 Be5 2.339253 1_465
Be14 Be6 2.339253 1_465
Be14 Be20 2.339253 1_455
Be14 Be22 2.339253 1_564
Be14 U1 2.960203 1_455
Be14 U0 2.960203 1_565
Be15 Be9 2.174514 1_555
Be15 Be8 2.191120 1_645
Be15 Ga0 2.261497 1_656
Be15 Be18 2.263188 1_555
Be15 Be16 2.263188 1_555
Be15 Be23 2.339253 1_546
Be15 Be21 2.339253 1_655
Be15 Be4 2.339253 1_645
Be15 Be7 2.339253 1_645
Be15 U0 2.960203 1_655
Be15 U1 2.960203 1_545
Be16 Be24 2.132974 1_555
Be16 Be22 2.174514 1_555
Be16 Be23 2.191120 1_546
Be16 Be9 2.226344 1_555
Be16 Be3 2.226344 1_555
Be16 Be18 2.310253 1_555
Be16 U0 3.031871 1_556
Be16 U1 3.031871 1_545
Be17 Be24 2.132974 1_555
Be17 Be23 2.174514 1_555
Be17 Be22 2.191120 1_564
Be17 Be8 2.226344 1_555
Be17 Be2 2.226344 1_555
Be17 Be19 2.310253 1_555
Be17 U1 3.031871 1_554
Be17 U0 3.031871 1_565
Be18 Be24 2.132974 1_555
Be18 Be20 2.174514 1_555
Be18 Be21 2.191120 1_655
Be18 Be2 2.226344 1_555
Be18 Be9 2.226344 1_555
Be18 U0 3.031871 1_655
Be18 U1 3.031871 1_555
Be19 Be24 2.132974 1_555
Be19 Be21 2.174514 1_555
Be19 Be20 2.191120 1_455
Be19 Be3 2.226344 1_555
Be19 Be8 2.226344 1_555
Be19 U1 3.031871 1_455
Be19 U0 3.031871 1_555
Be20 Ga0 2.261497 1_665
Be20 Be5 2.339253 1_565
Be20 Be7 2.339253 1_654
Be20 Be23 2.543704 1_555
Be20 U1 2.960203 1_555
Be20 U0 2.960203 1_655
Be21 Ga0 2.261497 1_556
Be21 Be3 2.263188 1_555
Be21 Be6 2.339253 1_456
Be21 Be4 2.339253 1_545
Be21 Be22 2.543704 1_555
Be21 U1 2.960203 1_455
Be21 U0 2.960203 1_555
Be22 Ga0 2.261497 1_556
Be22 Be3 2.263188 1_555
Be22 Be4 2.339253 1_545
Be22 Be6 2.339253 1_456
Be22 U0 2.960203 1_556
Be22 U1 2.960203 1_545
Be23 Ga0 2.261497 1_665
Be23 Be5 2.339253 1_565
Be23 Be7 2.339253 1_654
Be23 U1 2.960203 1_554
Be23 U0 2.960203 1_565
Be24 Be8 2.132974 1_555
Be24 Be9 2.132974 1_555
Be24 Be3 2.132974 1_555
