# generated using pymatgen
data_K2LiMn2O4
_symmetry_space_group_name_H-M   'P 1'
_cell_length_a   3.05201800
_cell_length_b   6.65744058
_cell_length_c   6.98296152
_cell_angle_alpha   73.05264613
_cell_angle_beta   90.00114588
_cell_angle_gamma   90.00194802
_symmetry_Int_Tables_number   1
_chemical_formula_structural   K2LiMn2O4
_chemical_formula_sum   'K2 Li1 Mn2 O4'
_cell_volume   135.72259525
_cell_formula_units_Z   1
loop_
 _symmetry_equiv_pos_site_id
 _symmetry_equiv_pos_as_xyz
  1  'x, y, z'
loop_
 _atom_site_type_symbol
 _atom_site_label
 _atom_site_symmetry_multiplicity
 _atom_site_fract_x
 _atom_site_fract_y
 _atom_site_fract_z
 _atom_site_occupancy
  K  K0  1  0.49990600  0.00529000  0.51229500  1
  K  K1  1  0.00000800  0.50145800  0.01336000  1
  Li  Li0  1  0.99999300  0.31733900  0.71292300  1
  Mn  Mn0  1  0.50002300  0.54971700  0.43980800  1
  Mn  Mn1  1  0.00003300  0.97840900  0.02995200  1
  O  O0  1  0.99999000  0.35658400  0.41230900  1
  O  O1  1  0.50000200  0.18714300  0.87642700  1
  O  O2  1  0.00001500  0.64893000  0.58040800  1
  O  O3  1  0.50003400  0.77513000  0.15256600  1
loop_
_geom_bond_atom_site_label_1
_geom_bond_atom_site_label_2
_geom_bond_distance
_geom_bond_site_symmetry_2
K0 O0 2.707999 1_455
K0 O0 2.708214 1_555
K0 O2 2.743054 1_545
K0 O2 2.743504 1_645
K1 O0 2.669221 1_455
K1 O3 2.761457 1_555
K1 O3 2.761459 1_455
K1 O2 2.893741 1_554
K1 O1 2.964452 1_454
K1 O1 2.964526 1_554
Li0 O1 1.951033 1_555
Li0 O1 1.951086 1_655
Li0 O0 2.038397 1_555
Li0 O2 2.130408 1_655
Mn0 O2 2.026515 1_655
Mn0 O2 2.026616 1_555
Mn0 O0 2.040236 1_555
Mn0 O0 2.040315 1_455
Mn0 O3 2.126132 1_555
Mn1 O3 2.053692 1_455
Mn1 O3 2.053739 1_555
Mn1 O1 2.130778 1_564
Mn1 O1 2.130951 1_464
