# generated using pymatgen
data_YMgSe3
_symmetry_space_group_name_H-M   'P 1'
_cell_length_a   6.91394800
_cell_length_b   6.91394834
_cell_length_c   19.30444600
_cell_angle_alpha   90.00000000
_cell_angle_beta   90.00000000
_cell_angle_gamma   119.99999838
_symmetry_Int_Tables_number   1
_chemical_formula_structural   YMgSe3
_chemical_formula_sum   'Y6 Mg6 Se18'
_cell_volume   799.17192852
_cell_formula_units_Z   6
loop_
 _symmetry_equiv_pos_site_id
 _symmetry_equiv_pos_as_xyz
  1  'x, y, z'
loop_
 _atom_site_type_symbol
 _atom_site_label
 _atom_site_symmetry_multiplicity
 _atom_site_fract_x
 _atom_site_fract_y
 _atom_site_fract_z
 _atom_site_occupancy
  Y  Y0  1  0.00000000  0.00000000  0.34737400  1
  Y  Y1  1  0.00000000  0.00000000  0.65262600  1
  Y  Y2  1  0.66666700  0.33333300  0.68070700  1
  Y  Y3  1  0.66666700  0.33333300  0.98595900  1
  Y  Y4  1  0.33333300  0.66666700  0.01404100  1
  Y  Y5  1  0.33333300  0.66666700  0.31929300  1
  Mg  Mg0  1  0.00000000  0.00000000  0.16128700  1
  Mg  Mg1  1  0.00000000  0.00000000  0.83871300  1
  Mg  Mg2  1  0.66666700  0.33333300  0.49462000  1
  Mg  Mg3  1  0.66666700  0.33333300  0.17204600  1
  Mg  Mg4  1  0.33333300  0.66666700  0.82795400  1
  Mg  Mg5  1  0.33333300  0.66666700  0.50538000  1
  Se  Se0  1  0.99383000  0.36000200  0.58355300  1
  Se  Se1  1  0.00617000  0.63999800  0.41644700  1
  Se  Se2  1  0.63999800  0.63382800  0.58355300  1
  Se  Se3  1  0.36000200  0.36617200  0.41644700  1
  Se  Se4  1  0.36617200  0.00617000  0.58355300  1
  Se  Se5  1  0.63382800  0.99383000  0.41644700  1
  Se  Se6  1  0.66049700  0.69333500  0.91688600  1
  Se  Se7  1  0.67283700  0.97333100  0.74978000  1
  Se  Se8  1  0.30666500  0.96716100  0.91688600  1
  Se  Se9  1  0.02666900  0.69950500  0.74978000  1
  Se  Se10  1  0.03283900  0.33950300  0.91688600  1
  Se  Se11  1  0.30049500  0.32716300  0.74978000  1
  Se  Se12  1  0.32716300  0.02666900  0.25022000  1
  Se  Se13  1  0.33950300  0.30666500  0.08311400  1
  Se  Se14  1  0.97333100  0.30049500  0.25022000  1
  Se  Se15  1  0.69333500  0.03283900  0.08311400  1
  Se  Se16  1  0.69950500  0.67283700  0.25022000  1
  Se  Se17  1  0.96716100  0.66049700  0.08311400  1
loop_
_geom_bond_atom_site_label_1
_geom_bond_atom_site_label_2
_geom_bond_distance
_geom_bond_site_symmetry_2
Mg0 Se17 2.702922 1_445
Mg0 Se13 2.702925 1_555
Mg0 Se15 2.702928 1_455
Mg0 Se12 2.771446 1_555
Mg0 Se16 2.771449 1_445
Mg0 Se14 2.771452 1_455
Mg1 Se10 2.702922 1_555
Mg1 Se6 2.702925 1_445
Mg1 Se8 2.702928 1_545
Mg1 Se7 2.771446 1_445
Mg1 Se11 2.771449 1_555
Mg1 Se9 2.771452 1_545
Mg2 Se5 2.702922 1_545
Mg2 Se1 2.702925 1_655
Mg2 Se3 2.702928 1_555
Mg2 Se0 2.771446 1_555
Mg2 Se4 2.771449 1_555
Mg2 Se2 2.771452 1_555
Mg3 Se14 2.702930 1_555
Mg3 Se12 2.702936 1_555
Mg3 Se16 2.702941 1_555
Mg3 Se15 2.771431 1_555
Mg3 Se17 2.771438 1_555
Mg3 Se13 2.771442 1_555
Mg4 Se9 2.702930 1_555
Mg4 Se7 2.702936 1_555
Mg4 Se11 2.702941 1_555
Mg4 Se8 2.771431 1_555
Mg4 Se10 2.771438 1_555
Mg4 Se6 2.771442 1_555
Mg5 Se4 2.702922 1_565
Mg5 Se0 2.702925 1_455
Mg5 Se2 2.702928 1_555
Mg5 Se1 2.771446 1_555
Mg5 Se5 2.771449 1_555
Mg5 Se3 2.771452 1_555
Se0 Y1 2.842762 1_655
Se0 Y2 2.872459 1_555
Se1 Y0 2.842762 1_565
Se1 Y5 2.872459 1_555
Se2 Y1 2.842762 1_665
Se2 Y2 2.872464 1_555
Se3 Y0 2.842762 1_555
Se3 Y5 2.872464 1_555
Se4 Y1 2.842762 1_555
Se4 Y2 2.872461 1_555
Se5 Y0 2.842762 1_665
Se5 Y5 2.872461 1_555
Se6 Y3 2.842762 1_555
Se6 Y4 2.872479 1_556
Se7 Y2 2.842762 1_565
Se7 Y1 2.872459 1_665
Se8 Y3 2.842762 1_565
Se8 Y4 2.872469 1_556
Se9 Y2 2.842762 1_455
Se9 Y1 2.872464 1_565
Se10 Y3 2.842762 1_455
Se10 Y4 2.872475 1_556
Se11 Y2 2.842762 1_555
Se11 Y1 2.872461 1_555
Se12 Y5 2.842762 1_545
Se12 Y0 2.872459 1_555
Se13 Y4 2.842762 1_555
Se13 Y3 2.872479 1_554
Se14 Y5 2.842762 1_655
Se14 Y0 2.872464 1_655
Se15 Y4 2.842762 1_545
Se15 Y3 2.872469 1_554
Se16 Y5 2.842762 1_555
Se16 Y0 2.872461 1_665
Se17 Y4 2.842762 1_655
Se17 Y3 2.872475 1_554
