# generated using pymatgen
data_Eu2NbGaO7
_symmetry_space_group_name_H-M   'P 1'
_cell_length_a   7.39735020
_cell_length_b   7.30231011
_cell_length_c   7.48351047
_cell_angle_alpha   90.00000000
_cell_angle_beta   59.61395165
_cell_angle_gamma   119.57589869
_symmetry_Int_Tables_number   1
_chemical_formula_structural   Eu2NbGaO7
_chemical_formula_sum   'Eu4 Nb2 Ga2 O14'
_cell_volume   285.99254883
_cell_formula_units_Z   2
loop_
 _symmetry_equiv_pos_site_id
 _symmetry_equiv_pos_as_xyz
  1  'x, y, z'
loop_
 _atom_site_type_symbol
 _atom_site_label
 _atom_site_symmetry_multiplicity
 _atom_site_fract_x
 _atom_site_fract_y
 _atom_site_fract_z
 _atom_site_occupancy
  Eu  Eu0  1  0.50000000  0.00000000  0.50000000  1
  Eu  Eu1  1  0.50000000  0.50000000  0.50000000  1
  Eu  Eu2  1  0.00000000  0.50000000  0.00000000  1
  Eu  Eu3  1  0.00000000  0.50000000  0.50000000  1
  Nb  Nb0  1  0.00000000  0.00000000  0.50000000  1
  Nb  Nb1  1  0.00000000  0.00000000  0.00000000  1
  Ga  Ga0  1  0.50000000  0.50000000  0.00000000  1
  Ga  Ga1  1  0.50000000  0.00000000  0.00000000  1
  O  O0  1  0.74971100  0.37485600  0.37514400  1
  O  O1  1  0.25028900  0.62514400  0.62485600  1
  O  O2  1  0.84734100  0.92367100  0.32632900  1
  O  O3  1  0.66188700  0.33094300  0.91905700  1
  O  O4  1  0.24961200  0.92326100  0.92320700  1
  O  O5  1  0.24961200  0.32635100  0.32718100  1
  O  O6  1  0.24961200  0.32635100  0.92320700  1
  O  O7  1  0.24961200  0.92326100  0.32718100  1
  O  O8  1  0.15265900  0.07632900  0.67367100  1
  O  O9  1  0.33811300  0.66905700  0.08094300  1
  O  O10  1  0.75038800  0.07673900  0.07679300  1
  O  O11  1  0.75038800  0.67364900  0.67281900  1
  O  O12  1  0.75038800  0.67364900  0.07679300  1
  O  O13  1  0.75038800  0.07673900  0.67281900  1
loop_
_geom_bond_atom_site_label_1
_geom_bond_atom_site_label_2
_geom_bond_distance
_geom_bond_site_symmetry_2
Eu0 O1 2.245131 1_545
Eu0 O0 2.245131 1_555
Eu0 O8 2.576257 1_555
Eu0 O2 2.576257 1_545
Eu0 O7 2.610757 1_545
Eu0 O10 2.610757 1_555
Eu0 O4 2.610757 1_545
Eu0 O13 2.610757 1_555
Eu1 O0 2.245125 1_555
Eu1 O1 2.245125 1_555
Eu1 O8 2.576263 1_555
Eu1 O2 2.576263 1_555
Eu1 O5 2.610757 1_555
Eu1 O11 2.610757 1_555
Eu1 O12 2.610757 1_555
Eu1 O6 2.610757 1_555
Eu2 O0 2.283845 1_455
Eu2 O1 2.283845 1_554
Eu2 O6 2.566212 1_554
Eu2 O4 2.566212 1_554
Eu2 O12 2.566212 1_455
Eu2 O10 2.566212 1_455
Eu2 O3 2.575132 1_454
Eu2 O9 2.575132 1_555
Eu3 O1 2.283851 1_555
Eu3 O0 2.283851 1_455
Eu3 O13 2.566212 1_455
Eu3 O11 2.566212 1_455
Eu3 O7 2.566212 1_555
Eu3 O5 2.566212 1_555
Eu3 O3 2.575137 1_455
Eu3 O9 2.575137 1_555
Nb0 O11 2.000411 1_445
Nb0 O13 2.000411 1_455
Nb0 O7 2.000411 1_545
Nb0 O5 2.000411 1_555
Nb0 O2 2.034329 1_445
Nb0 O8 2.034329 1_555
Nb1 O10 2.000411 1_455
Nb1 O12 2.000411 1_445
Nb1 O6 2.000411 1_554
Nb1 O4 2.000411 1_544
Nb1 O8 2.034322 1_554
Nb1 O2 2.034322 1_445
Ga0 O3 2.012596 1_554
Ga0 O9 2.012596 1_555
Ga0 O6 2.031548 1_554
Ga0 O5 2.031548 1_555
Ga0 O12 2.031548 1_555
Ga0 O11 2.031548 1_554
Ga1 O9 2.012590 1_545
Ga1 O3 2.012590 1_554
Ga1 O4 2.031548 1_544
Ga1 O7 2.031548 1_545
Ga1 O10 2.031548 1_555
Ga1 O13 2.031548 1_554
