# generated using pymatgen
data_CsMg14Ni
_symmetry_space_group_name_H-M   'P 1'
_cell_length_a   6.58304406
_cell_length_b   6.30375398
_cell_length_c   10.71349272
_cell_angle_alpha   90.00000000
_cell_angle_beta   90.00000000
_cell_angle_gamma   118.60622518
_symmetry_Int_Tables_number   1
_chemical_formula_structural   CsMg14Ni
_chemical_formula_sum   'Cs1 Mg14 Ni1'
_cell_volume   390.31699398
_cell_formula_units_Z   1
loop_
 _symmetry_equiv_pos_site_id
 _symmetry_equiv_pos_as_xyz
  1  'x, y, z'
loop_
 _atom_site_type_symbol
 _atom_site_label
 _atom_site_symmetry_multiplicity
 _atom_site_fract_x
 _atom_site_fract_y
 _atom_site_fract_z
 _atom_site_occupancy
  Cs  Cs0  1  0.09729935  0.79864917  0.12500000  1
  Mg  Mg0  1  0.16026625  0.33013262  0.62500000  1
  Mg  Mg1  1  0.17829854  0.83914877  0.62500000  1
  Mg  Mg2  1  0.59772578  0.30306639  0.12500000  1
  Mg  Mg3  1  0.66646444  0.32559238  0.62500000  1
  Mg  Mg4  1  0.59772578  0.79465839  0.12500000  1
  Mg  Mg5  1  0.66646443  0.84087105  0.62500000  1
  Mg  Mg6  1  0.35198749  0.18309092  0.38412265  1
  Mg  Mg7  1  0.35198749  0.18309092  0.86587735  1
  Mg  Mg8  1  0.35198749  0.66889757  0.38412265  1
  Mg  Mg9  1  0.35198749  0.66889757  0.86587735  1
  Mg  Mg10  1  0.87014919  0.18507510  0.33768946  1
  Mg  Mg11  1  0.87014919  0.18507510  0.91231054  1
  Mg  Mg12  1  0.83217412  0.66608756  0.40522441  1
  Mg  Mg13  1  0.83217412  0.66608756  0.84477559  1
  Ni  Ni0  1  0.22315884  0.36157892  0.12500000  1
loop_
_geom_bond_atom_site_label_1
_geom_bond_atom_site_label_2
_geom_bond_distance
_geom_bond_site_symmetry_2
Cs0 Ni0 3.234724 1_565
Cs0 Ni0 3.234724 1_555
Cs0 Mg2 3.276744 1_455
Cs0 Mg4 3.276744 1_455
Cs0 Mg2 3.306448 1_565
Cs0 Mg4 3.306448 1_555
Cs0 Mg12 3.370605 1_455
Cs0 Mg13 3.370605 1_454
Cs0 Mg9 3.535535 1_554
Cs0 Mg8 3.535535 1_555
Cs0 Mg6 3.535541 1_565
Cs0 Mg7 3.535541 1_564
Mg0 Mg1 3.153599 1_545
Mg0 Mg1 3.153600 1_555
Mg0 Mg6 3.198752 1_555
Mg0 Mg7 3.198752 1_555
Mg0 Mg9 3.198758 1_555
Mg0 Mg8 3.198758 1_555
Mg0 Mg5 3.237113 1_445
Mg0 Mg3 3.237113 1_455
Mg0 Mg5 3.346122 1_555
Mg0 Mg3 3.346122 1_555
Mg0 Mg11 3.505151 1_455
Mg0 Mg10 3.505151 1_455
Mg1 Mg13 3.089599 1_455
Mg1 Mg12 3.089599 1_455
Mg1 Mg8 3.208415 1_555
Mg1 Mg9 3.208415 1_555
Mg1 Mg6 3.208421 1_565
Mg1 Mg7 3.208421 1_565
Mg1 Mg3 3.208433 1_565
Mg1 Mg5 3.208434 1_555
Mg1 Mg3 3.374638 1_455
Mg1 Mg5 3.374638 1_455
Mg2 Ni0 2.662159 1_555
Mg2 Mg7 3.118361 1_554
Mg2 Mg6 3.118361 1_555
Mg3 Mg5 3.055564 1_545
Mg3 Mg6 3.157792 1_555
Mg3 Mg7 3.157792 1_555
Mg3 Mg5 3.248190 1_555
Mg4 Ni0 2.662159 1_555
Mg4 Mg8 3.118361 1_555
Mg4 Mg9 3.118361 1_554
Mg5 Mg8 3.157792 1_555
Mg5 Mg9 3.157792 1_555
Mg6 Mg8 3.062406 1_555
Mg6 Mg8 3.241348 1_545
Mg6 Ni0 3.256641 1_555
Mg7 Mg9 3.062406 1_555
Mg7 Mg9 3.241348 1_545
Mg7 Ni0 3.256641 1_556
Mg8 Ni0 3.256647 1_555
Mg9 Ni0 3.256647 1_556
Mg10 Ni0 3.058540 1_655
Mg10 Mg8 3.216669 1_655
Mg10 Mg6 3.216670 1_655
Mg10 Mg12 3.241296 1_555
Mg10 Mg12 3.241296 1_545
Mg10 Mg8 3.441256 1_545
Mg10 Mg6 3.441256 1_555
Mg11 Ni0 3.058540 1_656
Mg11 Mg9 3.216669 1_655
Mg11 Mg7 3.216670 1_655
Mg11 Mg13 3.241296 1_555
Mg11 Mg13 3.241296 1_545
Mg11 Mg9 3.441256 1_545
Mg11 Mg7 3.441256 1_555
Mg12 Mg5 3.016430 1_555
Mg12 Mg3 3.016437 1_555
Mg12 Mg6 3.177661 1_555
Mg12 Mg8 3.177661 1_555
Mg12 Mg6 3.420987 1_665
Mg12 Mg8 3.420987 1_655
Mg13 Mg5 3.016430 1_555
Mg13 Mg3 3.016437 1_555
Mg13 Mg7 3.177661 1_555
Mg13 Mg9 3.177661 1_555
Mg13 Mg7 3.420987 1_665
Mg13 Mg9 3.420987 1_655
