# generated using pymatgen
data_Re4Ge7
_symmetry_space_group_name_H-M   'P 1'
_cell_length_a   6.02333300
_cell_length_b   6.02333300
_cell_length_c   19.18122600
_cell_angle_alpha   90.00000000
_cell_angle_beta   90.00000000
_cell_angle_gamma   90.00000000
_symmetry_Int_Tables_number   1
_chemical_formula_structural   Re4Ge7
_chemical_formula_sum   'Re16 Ge28'
_cell_volume   695.90524537
_cell_formula_units_Z   4
loop_
 _symmetry_equiv_pos_site_id
 _symmetry_equiv_pos_as_xyz
  1  'x, y, z'
loop_
 _atom_site_type_symbol
 _atom_site_label
 _atom_site_symmetry_multiplicity
 _atom_site_fract_x
 _atom_site_fract_y
 _atom_site_fract_z
 _atom_site_occupancy
  Re  Re0  1  0.00000000  0.00000000  0.25000000  1
  Re  Re1  1  0.00000000  0.00000000  0.75000000  1
  Re  Re2  1  0.00000000  0.00000000  0.50000000  1
  Re  Re3  1  0.00000000  0.00000000  0.00000000  1
  Re  Re4  1  0.50000000  0.50000000  0.37003200  1
  Re  Re5  1  0.50000000  0.50000000  0.87003200  1
  Re  Re6  1  0.50000000  0.50000000  0.62996800  1
  Re  Re7  1  0.50000000  0.50000000  0.12996800  1
  Re  Re8  1  0.50000000  0.00000000  0.43556200  1
  Re  Re9  1  0.50000000  0.00000000  0.93556200  1
  Re  Re10  1  0.00000000  0.50000000  0.56443800  1
  Re  Re11  1  0.00000000  0.50000000  0.06443800  1
  Re  Re12  1  0.50000000  0.00000000  0.19257700  1
  Re  Re13  1  0.50000000  0.00000000  0.69257700  1
  Re  Re14  1  0.00000000  0.50000000  0.80742300  1
  Re  Re15  1  0.00000000  0.50000000  0.30742300  1
  Ge  Ge0  1  0.76826900  0.34904000  0.46158300  1
  Ge  Ge1  1  0.23173100  0.65096000  0.46158300  1
  Ge  Ge2  1  0.76826900  0.65096000  0.96158300  1
  Ge  Ge3  1  0.23173100  0.34904000  0.96158300  1
  Ge  Ge4  1  0.34904000  0.23173100  0.53841700  1
  Ge  Ge5  1  0.65096000  0.76826900  0.53841700  1
  Ge  Ge6  1  0.65096000  0.23173100  0.03841700  1
  Ge  Ge7  1  0.34904000  0.76826900  0.03841700  1
  Ge  Ge8  1  0.15151700  0.19997700  0.38769300  1
  Ge  Ge9  1  0.84848300  0.80002300  0.38769300  1
  Ge  Ge10  1  0.15151700  0.80002300  0.88769300  1
  Ge  Ge11  1  0.84848300  0.19997700  0.88769300  1
  Ge  Ge12  1  0.19997700  0.84848300  0.61230700  1
  Ge  Ge13  1  0.80002300  0.15151700  0.61230700  1
  Ge  Ge14  1  0.80002300  0.84848300  0.11230700  1
  Ge  Ge15  1  0.19997700  0.15151700  0.11230700  1
  Ge  Ge16  1  0.67800200  0.15540100  0.31770800  1
  Ge  Ge17  1  0.32199800  0.84459900  0.31770800  1
  Ge  Ge18  1  0.67800200  0.84459900  0.81770800  1
  Ge  Ge19  1  0.32199800  0.15540100  0.81770800  1
  Ge  Ge20  1  0.15540100  0.32199800  0.68229200  1
  Ge  Ge21  1  0.84459900  0.67800200  0.68229200  1
  Ge  Ge22  1  0.84459900  0.32199800  0.18229200  1
  Ge  Ge23  1  0.15540100  0.67800200  0.18229200  1
  Ge  Ge24  1  0.33593300  0.33593300  0.25000000  1
  Ge  Ge25  1  0.66406700  0.66406700  0.25000000  1
  Ge  Ge26  1  0.33593300  0.66406700  0.75000000  1
  Ge  Ge27  1  0.66406700  0.33593300  0.75000000  1
loop_
_geom_bond_atom_site_label_1
_geom_bond_atom_site_label_2
_geom_bond_distance
_geom_bond_site_symmetry_2
Ge0 Re4 2.553740 1_555
Ge0 Re10 2.582113 1_655
Ge0 Re2 2.628927 1_655
Ge0 Re8 2.698181 1_555
Ge1 Re4 2.553740 1_555
Ge1 Re10 2.582113 1_555
Ge1 Re2 2.628927 1_565
Ge1 Re8 2.698181 1_565
Ge2 Re5 2.553740 1_555
Ge2 Re11 2.582113 1_656
Ge2 Re3 2.628927 1_666
Ge2 Re9 2.698181 1_565
Ge3 Re5 2.553740 1_555
Ge3 Re11 2.582113 1_556
Ge3 Re3 2.628927 1_556
Ge3 Re9 2.698181 1_555
Ge4 Re6 2.553740 1_555
Ge4 Re8 2.582113 1_555
Ge4 Re2 2.628927 1_555
Ge4 Re10 2.698181 1_555
Ge5 Re6 2.553740 1_555
Ge5 Re8 2.582113 1_565
Ge5 Re2 2.628927 1_665
Ge5 Re10 2.698181 1_655
Ge6 Re7 2.553740 1_555
Ge6 Re9 2.582113 1_554
Ge6 Re3 2.628927 1_655
Ge6 Re11 2.698181 1_655
Ge7 Re7 2.553740 1_555
Ge7 Re9 2.582113 1_564
Ge7 Re3 2.628927 1_565
Ge7 Re11 2.698181 1_555
Ge8 Re15 2.543474 1_555
Ge8 Re8 2.588412 1_555
Ge8 Re2 2.631409 1_555
Ge8 Re4 2.790418 1_555
Ge8 Re0 3.042912 1_555
Ge9 Re15 2.543474 1_655
Ge9 Re8 2.588412 1_565
Ge9 Re2 2.631409 1_665
Ge9 Re4 2.790418 1_555
Ge9 Re0 3.042912 1_665
Ge10 Re14 2.543474 1_555
Ge10 Re9 2.588412 1_565
Ge10 Re3 2.631409 1_566
Ge10 Ge19 2.727358 1_565
Ge10 Re5 2.790418 1_555
Ge10 Ge26 2.979933 1_555
Ge10 Re1 3.042912 1_565
Ge11 Re14 2.543474 1_655
Ge11 Re9 2.588412 1_555
Ge11 Re3 2.631409 1_656
Ge11 Ge18 2.727358 1_545
Ge11 Re5 2.790418 1_555
Ge11 Ge27 2.979933 1_555
Ge11 Re1 3.042912 1_655
Ge12 Re13 2.543474 1_565
Ge12 Re10 2.588412 1_555
Ge12 Re2 2.631409 1_565
Ge12 Ge21 2.727358 1_455
Ge12 Re6 2.790418 1_555
Ge12 Ge26 2.979933 1_555
Ge12 Re1 3.042912 1_565
Ge13 Re13 2.543474 1_555
Ge13 Re10 2.588412 1_655
Ge13 Re2 2.631409 1_655
Ge13 Ge20 2.727358 1_655
Ge13 Re6 2.790418 1_555
Ge13 Ge27 2.979933 1_555
Ge13 Re1 3.042912 1_655
Ge14 Re12 2.543474 1_565
Ge14 Re11 2.588412 1_655
Ge14 Re3 2.631409 1_665
Ge14 Ge23 2.727358 1_655
Ge14 Re7 2.790418 1_555
Ge14 Ge25 2.979933 1_555
Ge14 Re0 3.042912 1_665
Ge15 Re12 2.543474 1_555
Ge15 Re11 2.588412 1_555
Ge15 Re3 2.631409 1_555
Ge15 Ge22 2.727358 1_455
Ge15 Re7 2.790418 1_555
Ge15 Ge24 2.979933 1_555
Ge15 Re0 3.042912 1_555
Ge16 Re0 2.514856 1_655
Ge16 Re4 2.542654 1_555
Ge16 Ge24 2.667275 1_555
Ge16 Re8 2.671317 1_555
Ge16 Ge9 2.727358 1_545
Ge16 Re12 2.790428 1_555
Ge16 Ge17 2.846538 1_545
Ge16 Re15 2.847603 1_655
Ge17 Re0 2.514856 1_565
Ge17 Re4 2.542654 1_555
Ge17 Ge25 2.667275 1_555
Ge17 Re8 2.671317 1_565
Ge17 Ge8 2.727358 1_565
Ge17 Re12 2.790428 1_565
Ge17 Re15 2.847603 1_555
Ge18 Re1 2.514856 1_665
Ge18 Re5 2.542654 1_555
Ge18 Ge26 2.667275 1_555
Ge18 Re9 2.671317 1_565
Ge18 Re13 2.790428 1_565
Ge18 Ge19 2.846538 1_565
Ge18 Re14 2.847603 1_655
Ge19 Re1 2.514856 1_555
Ge19 Re5 2.542654 1_555
Ge19 Ge27 2.667275 1_555
Ge19 Re9 2.671317 1_555
Ge19 Re13 2.790428 1_555
Ge19 Re14 2.847603 1_555
Ge20 Re1 2.514856 1_555
Ge20 Re6 2.542654 1_555
Ge20 Ge26 2.667275 1_555
Ge20 Re10 2.671317 1_555
Ge20 Re14 2.790428 1_555
Ge20 Ge21 2.846538 1_455
Ge20 Re13 2.847603 1_555
Ge21 Re1 2.514856 1_665
Ge21 Re6 2.542654 1_555
Ge21 Ge27 2.667275 1_555
Ge21 Re10 2.671317 1_655
Ge21 Re14 2.790428 1_655
Ge21 Re13 2.847603 1_565
Ge22 Re0 2.514856 1_655
Ge22 Re7 2.542654 1_555
Ge22 Ge25 2.667275 1_555
Ge22 Re11 2.671317 1_655
Ge22 Re15 2.790428 1_655
Ge22 Ge23 2.846538 1_655
Ge22 Re12 2.847603 1_555
Ge23 Re0 2.514856 1_565
Ge23 Re7 2.542654 1_555
Ge23 Ge24 2.667275 1_555
Ge23 Re11 2.671317 1_555
Ge23 Re15 2.790428 1_555
Ge23 Re12 2.847603 1_565
Ge24 Re12 2.506805 1_555
Ge24 Re15 2.506805 1_555
Ge24 Re7 2.693337 1_555
Ge24 Re4 2.693337 1_555
Ge24 Ge25 2.795137 1_555
Ge24 Re0 2.861571 1_555
Ge24 Ge8 2.979933 1_555
Ge25 Re12 2.506805 1_565
Ge25 Re15 2.506805 1_655
Ge25 Re7 2.693337 1_555
Ge25 Re4 2.693337 1_555
Ge25 Re0 2.861571 1_665
Ge25 Ge9 2.979933 1_555
Ge26 Re14 2.506805 1_555
Ge26 Re13 2.506805 1_565
Ge26 Re6 2.693337 1_555
Ge26 Re5 2.693337 1_555
Ge26 Ge27 2.795137 1_555
Ge26 Re1 2.861571 1_565
Ge27 Re13 2.506805 1_555
Ge27 Re14 2.506805 1_655
Ge27 Re6 2.693337 1_555
Ge27 Re5 2.693337 1_555
Ge27 Re1 2.861571 1_655
