# generated using pymatgen
data_Tm5S7
_symmetry_space_group_name_H-M   'P 1'
_cell_length_a   6.59503821
_cell_length_b   6.59503821
_cell_length_c   11.47847452
_cell_angle_alpha   76.17016024
_cell_angle_beta   76.17016024
_cell_angle_gamma   33.11053898
_symmetry_Int_Tables_number   1
_chemical_formula_structural   Tm5S7
_chemical_formula_sum   'Tm5 S7'
_cell_volume   264.10264038
_cell_formula_units_Z   1
loop_
 _symmetry_equiv_pos_site_id
 _symmetry_equiv_pos_as_xyz
  1  'x, y, z'
loop_
 _atom_site_type_symbol
 _atom_site_label
 _atom_site_symmetry_multiplicity
 _atom_site_fract_x
 _atom_site_fract_y
 _atom_site_fract_z
 _atom_site_occupancy
  Tm  Tm0  1  0.11378000  0.11378000  0.57725900  1
  Tm  Tm1  1  0.88933800  0.88933800  0.41985000  1
  Tm  Tm2  1  0.99962700  0.99962700  0.99797400  1
  Tm  Tm3  1  0.29890100  0.29890100  0.81505400  1
  Tm  Tm4  1  0.69941000  0.69941000  0.18821600  1
  S  S0  1  0.65837500  0.65837500  0.94896800  1
  S  S1  1  0.34061000  0.34061000  0.05060900  1
  S  S2  1  0.04113700  0.04113700  0.21278900  1
  S  S3  1  0.95881300  0.95881300  0.78295200  1
  S  S4  1  0.74281100  0.74281100  0.64592500  1
  S  S5  1  0.26104100  0.26104100  0.35081600  1
  S  S6  1  0.50515700  0.50515700  0.49338800  1
loop_
_geom_bond_atom_site_label_1
_geom_bond_atom_site_label_2
_geom_bond_distance
_geom_bond_site_symmetry_2
S0 Tm2 2.704277 1_455
S0 Tm2 2.704277 1_545
S0 Tm3 2.772852 1_655
S0 Tm3 2.772852 1_565
S0 Tm4 2.919146 1_556
S1 Tm2 2.707887 1_544
S1 Tm2 2.707887 1_454
S1 Tm4 2.794083 1_455
S1 Tm4 2.794083 1_545
S1 Tm3 2.880941 1_554
S2 Tm2 2.645899 1_444
S2 Tm1 2.656559 1_445
S2 Tm4 2.708093 1_455
S2 Tm4 2.708093 1_545
S3 Tm2 2.644454 1_555
S3 Tm0 2.665731 1_665
S3 Tm3 2.717222 1_655
S3 Tm3 2.717222 1_565
S4 Tm0 2.730436 1_565
S4 Tm0 2.730436 1_655
S4 Tm1 2.787173 1_555
S4 Tm3 2.913714 1_565
S4 Tm3 2.913714 1_655
S5 Tm1 2.726084 1_545
S5 Tm1 2.726084 1_455
S5 Tm0 2.794425 1_555
S5 Tm4 2.889177 1_455
S5 Tm4 2.889177 1_545
S6 Tm0 2.646448 1_565
S6 Tm0 2.646448 1_655
S6 Tm1 2.646625 1_455
S6 Tm1 2.646625 1_545
