# generated using pymatgen
data_Th3Ni3Sn4
_symmetry_space_group_name_H-M   'P 1'
_cell_length_a   8.36534641
_cell_length_b   8.36534641
_cell_length_c   8.36534641
_cell_angle_alpha   109.47122063
_cell_angle_beta   109.47122063
_cell_angle_gamma   109.47122063
_symmetry_Int_Tables_number   1
_chemical_formula_structural   Th3Ni3Sn4
_chemical_formula_sum   'Th6 Ni6 Sn8'
_cell_volume   450.64016617
_cell_formula_units_Z   2
loop_
 _symmetry_equiv_pos_site_id
 _symmetry_equiv_pos_as_xyz
  1  'x, y, z'
loop_
 _atom_site_type_symbol
 _atom_site_label
 _atom_site_symmetry_multiplicity
 _atom_site_fract_x
 _atom_site_fract_y
 _atom_site_fract_z
 _atom_site_occupancy
  Th  Th0  1  0.87500000  0.25000000  0.12500000  1
  Th  Th1  1  0.62500000  0.75000000  0.37500000  1
  Th  Th2  1  0.25000000  0.12500000  0.87500000  1
  Th  Th3  1  0.75000000  0.37500000  0.62500000  1
  Th  Th4  1  0.12500000  0.87500000  0.25000000  1
  Th  Th5  1  0.37500000  0.62500000  0.75000000  1
  Ni  Ni0  1  0.37500000  0.25000000  0.62500000  1
  Ni  Ni1  1  0.12500000  0.75000000  0.87500000  1
  Ni  Ni2  1  0.25000000  0.62500000  0.37500000  1
  Ni  Ni3  1  0.75000000  0.87500000  0.12500000  1
  Ni  Ni4  1  0.62500000  0.37500000  0.25000000  1
  Ni  Ni5  1  0.87500000  0.12500000  0.75000000  1
  Sn  Sn0  1  0.65789000  0.50000000  0.00000000  1
  Sn  Sn1  1  0.50000000  0.00000000  0.65789000  1
  Sn  Sn2  1  0.00000000  0.65789000  0.50000000  1
  Sn  Sn3  1  0.84211000  0.84211000  0.84211000  1
  Sn  Sn4  1  0.50000000  0.00000000  0.15789000  1
  Sn  Sn5  1  0.15789000  0.50000000  0.00000000  1
  Sn  Sn6  1  0.00000000  0.15789000  0.50000000  1
  Sn  Sn7  1  0.34211000  0.34211000  0.34211000  1
loop_
_geom_bond_atom_site_label_1
_geom_bond_atom_site_label_2
_geom_bond_distance
_geom_bond_site_symmetry_2
Ni0 Sn0 2.681885 1_556
Ni0 Sn1 2.681885 1_555
Ni0 Sn7 2.681885 1_555
Ni0 Sn6 2.681885 1_555
Ni0 Th4 2.957597 1_545
Ni0 Th2 2.957597 1_555
Ni0 Th3 2.957597 1_555
Ni0 Th5 2.957597 1_555
Ni1 Sn5 2.681885 1_556
Ni1 Sn3 2.681885 1_455
Ni1 Sn2 2.681885 1_555
Ni1 Sn4 2.681885 1_566
Ni1 Th4 2.957597 1_556
Ni1 Th2 2.957597 1_565
Ni1 Th5 2.957597 1_555
Ni1 Th3 2.957597 1_455
Ni2 Sn1 2.681885 1_565
Ni2 Sn2 2.681885 1_555
Ni2 Sn5 2.681885 1_555
Ni2 Sn7 2.681885 1_555
Ni2 Th4 2.957597 1_555
Ni2 Th1 2.957597 1_555
Ni2 Th5 2.957597 1_555
Ni2 Th0 2.957597 1_455
Ni3 Sn3 2.681885 1_554
Ni3 Sn0 2.681885 1_555
Ni3 Sn6 2.681885 1_665
Ni3 Sn4 2.681885 1_565
Ni3 Th0 2.957597 1_565
Ni3 Th5 2.957597 1_554
Ni3 Th1 2.957597 1_555
Ni3 Th4 2.957597 1_655
Ni4 Sn4 2.681885 1_555
Ni4 Sn2 2.681885 1_655
Ni4 Sn0 2.681885 1_555
Ni4 Sn7 2.681885 1_555
Ni4 Th2 2.957597 1_554
Ni4 Th0 2.957597 1_555
Ni4 Th3 2.957597 1_555
Ni4 Th1 2.957597 1_555
Ni5 Sn6 2.681885 1_655
Ni5 Sn1 2.681885 1_555
Ni5 Sn3 2.681885 1_545
Ni5 Sn5 2.681885 1_656
Ni5 Th1 2.957597 1_545
Ni5 Th0 2.957597 1_556
Ni5 Th3 2.957597 1_555
Ni5 Th2 2.957597 1_655
Sn0 Th1 3.297803 1_555
Sn0 Th5 3.297803 1_554
Sn0 Th2 3.297803 1_554
Sn0 Th0 3.389644 1_555
Sn0 Th3 3.389644 1_554
Sn0 Th4 3.389644 1_655
Sn1 Th3 3.297803 1_555
Sn1 Th4 3.297803 1_545
Sn1 Th1 3.297803 1_545
Sn1 Th2 3.389644 1_555
Sn1 Th5 3.389644 1_545
Sn1 Th0 3.389644 1_556
Sn2 Th3 3.297803 1_455
Sn2 Th0 3.297803 1_455
Sn2 Th5 3.297803 1_555
Sn2 Th2 3.389644 1_565
Sn2 Th1 3.389644 1_455
Sn2 Th4 3.389644 1_555
Sn3 Th0 3.297803 1_566
Sn3 Th4 3.297803 1_656
Sn3 Th2 3.297803 1_665
Sn3 Th5 3.389644 1_555
Sn3 Th3 3.389644 1_555
Sn3 Th1 3.389644 1_555
Sn4 Th5 3.297803 1_544
Sn4 Th2 3.297803 1_554
Sn4 Th0 3.297803 1_555
Sn4 Th3 3.389644 1_555
Sn4 Th4 3.389644 1_545
Sn4 Th1 3.389644 1_545
Sn5 Th0 3.297803 1_455
Sn5 Th3 3.297803 1_454
Sn5 Th4 3.297803 1_555
Sn5 Th5 3.389644 1_554
Sn5 Th2 3.389644 1_554
Sn5 Th1 3.389644 1_555
Sn6 Th1 3.297803 1_445
Sn6 Th4 3.297803 1_545
Sn6 Th2 3.297803 1_555
Sn6 Th3 3.389644 1_455
Sn6 Th5 3.389644 1_555
Sn6 Th0 3.389644 1_455
Sn7 Th3 3.297803 1_555
Sn7 Th1 3.297803 1_555
Sn7 Th5 3.297803 1_555
Sn7 Th2 3.389644 1_554
Sn7 Th4 3.389644 1_545
Sn7 Th0 3.389644 1_455
