# generated using pymatgen
data_CaIn2Ni
_symmetry_space_group_name_H-M   'P 1'
_cell_length_a   5.67757511
_cell_length_b   5.67757511
_cell_length_c   7.54785788
_cell_angle_alpha   90.00000000
_cell_angle_beta   90.00000000
_cell_angle_gamma   135.31277650
_symmetry_Int_Tables_number   1
_chemical_formula_structural   CaIn2Ni
_chemical_formula_sum   'Ca2 In4 Ni2'
_cell_volume   171.10027132
_cell_formula_units_Z   2
loop_
 _symmetry_equiv_pos_site_id
 _symmetry_equiv_pos_as_xyz
  1  'x, y, z'
loop_
 _atom_site_type_symbol
 _atom_site_label
 _atom_site_symmetry_multiplicity
 _atom_site_fract_x
 _atom_site_fract_y
 _atom_site_fract_z
 _atom_site_occupancy
  Ca  Ca0  1  0.55987167  0.44012833  0.25000000  1
  Ca  Ca1  1  0.44012833  0.55987167  0.75000000  1
  In  In0  1  0.84866422  0.15133578  0.44709191  1
  In  In1  1  0.15133578  0.84866422  0.55290809  1
  In  In2  1  0.84866422  0.15133578  0.05290809  1
  In  In3  1  0.15133578  0.84866422  0.94709191  1
  Ni  Ni0  1  0.28155796  0.71844204  0.25000000  1
  Ni  Ni1  1  0.71844204  0.28155796  0.75000000  1
loop_
_geom_bond_atom_site_label_1
_geom_bond_atom_site_label_2
_geom_bond_distance
_geom_bond_site_symmetry_2
Ca0 Ni0 2.923021 1_555
Ca0 Ni0 3.174831 1_655
Ca0 Ni0 3.174831 1_545
Ca0 In1 3.287646 1_655
Ca0 In3 3.287646 1_544
Ca0 In1 3.287646 1_545
Ca0 In3 3.287646 1_654
Ca0 In0 3.378250 1_555
Ca0 In2 3.378250 1_555
Ca0 In2 3.433978 1_565
Ca0 In0 3.433978 1_565
Ca0 In2 3.433978 1_455
Ca0 In0 3.433978 1_455
Ca1 Ni1 2.923021 1_555
Ca1 Ni1 3.174831 1_565
Ca1 Ni1 3.174831 1_455
Ca1 In0 3.287646 1_565
Ca1 In2 3.287646 1_566
Ca1 In2 3.287646 1_456
Ca1 In0 3.287646 1_455
Ca1 In3 3.378250 1_555
Ca1 In1 3.378250 1_555
Ca1 In1 3.433978 1_655
Ca1 In3 3.433978 1_655
Ca1 In1 3.433978 1_545
Ca1 In3 3.433978 1_545
In0 Ni1 2.664157 1_555
In0 Ni0 2.714478 1_655
In0 Ni0 2.714478 1_545
In0 In2 2.975243 1_555
In0 In1 3.097039 1_655
In0 In1 3.097039 1_545
In0 In1 3.277642 1_645
In1 Ni0 2.664157 1_555
In1 Ni1 2.714478 1_455
In1 Ni1 2.714478 1_565
In1 In3 2.975243 1_555
In2 Ni1 2.664157 1_554
In2 Ni0 2.714478 1_545
In2 Ni0 2.714478 1_655
In2 In3 3.097039 1_654
In2 In3 3.097039 1_544
In2 In3 3.277642 1_644
In3 Ni0 2.664157 1_556
In3 Ni1 2.714478 1_455
In3 Ni1 2.714478 1_565
