# generated using pymatgen
data_Na3W2N5
_symmetry_space_group_name_H-M   'P 1'
_cell_length_a   9.67463671
_cell_length_b   9.67463671
_cell_length_c   9.67463671
_cell_angle_alpha   101.74109399
_cell_angle_beta   101.74109399
_cell_angle_gamma   126.37167240
_symmetry_Int_Tables_number   1
_chemical_formula_structural   Na3W2N5
_chemical_formula_sum   'Na12 W8 N20'
_cell_volume   650.72356809
_cell_formula_units_Z   4
loop_
 _symmetry_equiv_pos_site_id
 _symmetry_equiv_pos_as_xyz
  1  'x, y, z'
loop_
 _atom_site_type_symbol
 _atom_site_label
 _atom_site_symmetry_multiplicity
 _atom_site_fract_x
 _atom_site_fract_y
 _atom_site_fract_z
 _atom_site_occupancy
  Na  Na0  1  0.88102700  0.54414000  0.88003400  1
  Na  Na1  1  0.66410700  0.00099300  0.11996600  1
  Na  Na2  1  0.79414000  0.41410700  0.16311300  1
  Na  Na3  1  0.25099300  0.63102700  0.83688700  1
  Na  Na4  1  0.58979900  0.82162200  0.37388500  1
  Na  Na5  1  0.44773700  0.21591400  0.62611500  1
  Na  Na6  1  0.07162200  0.19773700  0.73182300  1
  Na  Na7  1  0.46591400  0.33979900  0.26817700  1
  Na  Na8  1  0.93194900  0.93194900  0.00000000  1
  Na  Na9  1  0.18194900  0.68194900  0.50000000  1
  Na  Na10  1  0.77530400  0.27530400  0.50000000  1
  Na  Na11  1  0.52530400  0.52530400  0.00000000  1
  W  W0  1  0.63746100  0.03719000  0.77771800  1
  W  W1  1  0.25947200  0.85974300  0.22228200  1
  W  W2  1  0.28719000  0.00947200  0.89972900  1
  W  W3  1  0.10974300  0.38746100  0.10027100  1
  W  W4  1  0.88560700  0.69932600  0.61821200  1
  W  W5  1  0.08111400  0.26739500  0.38178800  1
  W  W6  1  0.94932600  0.83111400  0.31371900  1
  W  W7  1  0.51739500  0.63560700  0.68628100  1
  N  N0  1  0.69068400  0.20940500  0.70550900  1
  N  N1  1  0.50389600  0.98517500  0.29449100  1
  N  N2  1  0.45940500  0.25389600  0.01872100  1
  N  N3  1  0.23517500  0.44068400  0.98127900  1
  N  N4  1  0.85766700  0.69461800  0.11284000  1
  N  N5  1  0.58177900  0.74482700  0.88716000  1
  N  N6  1  0.94461800  0.33177900  0.33695100  1
  N  N7  1  0.99482700  0.60766700  0.66304900  1
  N  N8  1  0.85487000  0.16853000  0.96514200  1
  N  N9  1  0.20338700  0.88972800  0.03485800  1
  N  N10  1  0.41853000  0.95338700  0.81365900  1
  N  N11  1  0.13972800  0.60487000  0.18634100  1
  N  N12  1  0.81806400  0.65358100  0.40095200  1
  N  N13  1  0.25262900  0.41711200  0.59904800  1
  N  N14  1  0.90358100  0.00262900  0.33551700  1
  N  N15  1  0.66711200  0.56806400  0.66448300  1
  N  N16  1  0.07298000  0.96115800  0.75359000  1
  N  N17  1  0.20756800  0.31939000  0.24641000  1
  N  N18  1  0.21115800  0.95756800  0.38817800  1
  N  N19  1  0.56939000  0.82298000  0.61182200  1
loop_
_geom_bond_atom_site_label_1
_geom_bond_atom_site_label_2
_geom_bond_distance
_geom_bond_site_symmetry_2
N0 W0 1.769662 1_555
N0 Na5 2.361976 1_555
N0 Na10 2.364107 1_555
N0 Na0 2.483080 1_555
N1 W1 1.769662 1_555
N1 Na4 2.361976 1_555
N1 Na10 2.364107 1_565
N1 Na1 2.483087 1_565
N2 W2 1.769662 1_554
N2 Na7 2.361976 1_555
N2 Na11 2.364107 1_555
N2 Na2 2.483077 1_555
N3 W3 1.769662 1_556
N3 Na6 2.361976 1_555
N3 Na11 2.364107 1_556
N3 Na3 2.483080 1_555
N4 W6 1.781125 1_555
N4 Na11 2.410587 1_555
N4 Na8 2.522425 1_555
N4 Na0 2.550749 1_554
N4 Na2 2.580667 1_555
N5 W7 1.781123 1_555
N5 Na11 2.410585 1_556
N5 Na8 2.522417 1_556
N5 Na1 2.550749 1_566
N5 Na3 2.580685 1_555
N6 W5 1.781133 1_655
N6 Na10 2.410587 1_555
N6 Na9 2.522419 1_655
N6 Na2 2.550749 1_555
N6 Na1 2.580679 1_555
N7 W4 1.781125 1_555
N7 Na10 2.410587 1_555
N7 Na9 2.522425 1_655
N7 Na3 2.550749 1_655
N7 Na0 2.580676 1_555
N8 W3 1.908468 1_656
N8 W0 1.914895 1_555
N8 Na1 2.615741 1_556
N8 Na8 2.853896 1_546
N9 W2 1.908470 1_564
N9 W1 1.914897 1_555
N9 Na0 2.615742 1_454
N9 Na8 2.853887 1_455
N10 W0 1.908461 1_565
N10 W2 1.914906 1_565
N10 Na3 2.615741 1_555
N10 Na9 2.853887 1_555
N11 W1 1.908470 1_555
N11 W3 1.914897 1_555
N11 Na2 2.615743 1_455
N11 Na9 2.853887 1_555
N12 W6 1.927206 1_555
N12 W4 1.939156 1_555
N12 Na7 2.614974 1_555
N12 Na2 2.773716 1_555
N13 W7 1.927206 1_555
N13 W5 1.939156 1_555
N13 Na6 2.614974 1_555
N13 Na3 2.773722 1_555
N14 W5 1.927206 1_655
N14 W6 1.939156 1_545
N14 Na4 2.614974 1_545
N14 Na1 2.773716 1_555
N15 W4 1.927206 1_555
N15 W7 1.939156 1_555
N15 Na5 2.614974 1_555
N15 Na0 2.773722 1_555
N16 W4 1.911933 1_455
N16 W2 1.975339 1_565
N16 Na6 2.348169 1_565
N16 Na8 2.960618 1_456
N17 W5 1.911933 1_555
N17 W3 1.975339 1_555
N17 Na7 2.348169 1_555
N17 Na8 2.960618 1_445
N18 W6 1.911933 1_455
N18 W1 1.975339 1_555
N18 Na5 2.348169 1_565
N18 Na9 2.960618 1_555
N19 W7 1.911933 1_555
N19 W0 1.975339 1_565
N19 Na4 2.348169 1_555
N19 Na9 2.960618 1_555
