# generated using pymatgen
data_Cu2C4NCl5
_symmetry_space_group_name_H-M   'P 1'
_cell_length_a   18.51855400
_cell_length_b   6.84996500
_cell_length_c   10.64034785
_cell_angle_alpha   82.86280453
_cell_angle_beta   90.00000000
_cell_angle_gamma   90.00000000
_symmetry_Int_Tables_number   1
_chemical_formula_structural   Cu2C4NCl5
_chemical_formula_sum   'Cu8 C16 N4 Cl20'
_cell_volume   1339.28501650
_cell_formula_units_Z   4
loop_
 _symmetry_equiv_pos_site_id
 _symmetry_equiv_pos_as_xyz
  1  'x, y, z'
loop_
 _atom_site_type_symbol
 _atom_site_label
 _atom_site_symmetry_multiplicity
 _atom_site_fract_x
 _atom_site_fract_y
 _atom_site_fract_z
 _atom_site_occupancy
  Cu  Cu0  1  0.90979400  0.62423300  0.58267200  1
  Cu  Cu1  1  0.40979400  0.37576700  0.91732800  1
  Cu  Cu2  1  0.09020600  0.37576700  0.41732800  1
  Cu  Cu3  1  0.59020600  0.62423300  0.08267200  1
  Cu  Cu4  1  0.98609200  0.21890500  0.58229600  1
  Cu  Cu5  1  0.48609200  0.78109500  0.91770400  1
  Cu  Cu6  1  0.01390800  0.78109500  0.41770400  1
  Cu  Cu7  1  0.51390800  0.21890500  0.08229600  1
  C  C0  1  0.64109500  0.05514300  0.49795500  1
  C  C1  1  0.14109500  0.94485700  0.00204500  1
  C  C2  1  0.35890500  0.94485700  0.50204500  1
  C  C3  1  0.85890500  0.05514300  0.99795500  1
  C  C4  1  0.66686100  0.46448600  0.69246400  1
  C  C5  1  0.16686100  0.53551400  0.80753600  1
  C  C6  1  0.33313900  0.53551400  0.30753600  1
  C  C7  1  0.83313900  0.46448600  0.19246400  1
  C  C8  1  0.62221900  0.88816300  0.46322000  1
  C  C9  1  0.12221900  0.11183700  0.03678000  1
  C  C10  1  0.37778100  0.11183700  0.53678000  1
  C  C11  1  0.87778100  0.88816300  0.96322000  1
  C  C12  1  0.65965900  0.19181700  0.56446600  1
  C  C13  1  0.15965900  0.80818300  0.93553400  1
  C  C14  1  0.34034100  0.80818300  0.43553400  1
  C  C15  1  0.84034100  0.19181700  0.06446600  1
  N  N0  1  0.67633600  0.33342700  0.61880200  1
  N  N1  1  0.17633600  0.66657300  0.88119800  1
  N  N2  1  0.32366400  0.66657300  0.38119800  1
  N  N3  1  0.82366400  0.33342700  0.11880200  1
  Cl  Cl0  1  0.08688300  0.09264000  0.52495200  1
  Cl  Cl1  1  0.58688300  0.90736000  0.97504800  1
  Cl  Cl2  1  0.91311700  0.90736000  0.47504800  1
  Cl  Cl3  1  0.41311700  0.09264000  0.02495200  1
  Cl  Cl4  1  0.08537600  0.51684700  0.73069600  1
  Cl  Cl5  1  0.58537600  0.48315300  0.76930400  1
  Cl  Cl6  1  0.91462400  0.48315300  0.26930400  1
  Cl  Cl7  1  0.41462400  0.51684700  0.23069600  1
  Cl  Cl8  1  0.89475100  0.33355000  0.67468000  1
  Cl  Cl9  1  0.39475100  0.66645000  0.82532000  1
  Cl  Cl10  1  0.10524900  0.66645000  0.32532000  1
  Cl  Cl11  1  0.60524900  0.33355000  0.17468000  1
  Cl  Cl12  1  0.42396100  0.16868100  0.66277900  1
  Cl  Cl13  1  0.92396100  0.83131900  0.83722100  1
  Cl  Cl14  1  0.57603900  0.83131900  0.33722100  1
  Cl  Cl15  1  0.07603900  0.16868100  0.16277900  1
  Cl  Cl16  1  0.73215200  0.62858900  0.72240200  1
  Cl  Cl17  1  0.23215200  0.37141100  0.77759800  1
  Cl  Cl18  1  0.26784800  0.37141100  0.27759800  1
  Cl  Cl19  1  0.76784800  0.62858900  0.22240200  1
loop_
_geom_bond_atom_site_label_1
_geom_bond_atom_site_label_2
_geom_bond_distance
_geom_bond_site_symmetry_2
C0 C12 1.288470 1_555
C0 C8 1.293109 1_545
C1 C13 1.288470 1_554
C1 C9 1.293109 1_565
C4 N0 1.275115 1_555
C4 Cl16 1.707620 1_555
C4 Cl5 1.728537 1_555
C5 N1 1.275115 1_555
C5 Cl17 1.707620 1_555
C5 Cl4 1.728537 1_555
C6 N2 1.275115 1_555
C6 Cl18 1.707620 1_555
C6 Cl7 1.728537 1_555
C7 N3 1.275115 1_555
C7 Cl19 1.707620 1_555
C7 Cl6 1.728537 1_555
C8 Cl14 1.676331 1_555
C9 Cl15 1.676331 1_555
C10 C2 1.293109 1_545
C10 Cl12 1.676331 1_555
C11 C3 1.293109 1_565
C11 Cl13 1.676331 1_555
C12 N0 1.228798 1_555
C13 N1 1.228798 1_555
C14 N2 1.228798 1_555
C14 C2 1.288470 1_555
C15 N3 1.228798 1_555
C15 C3 1.288470 1_554
Cl0 Cu2 2.127111 1_555
Cl0 Cu4 2.176083 1_455
Cl0 Cu6 2.878874 1_545
Cl1 Cu3 2.127111 1_556
Cl1 Cu5 2.176083 1_555
Cl1 Cu7 2.878874 1_566
Cl2 Cu0 2.127111 1_555
Cl2 Cu6 2.176083 1_655
Cl2 Cu4 2.878874 1_565
Cl3 Cu1 2.127111 1_554
Cl3 Cu7 2.176083 1_555
Cl3 Cu5 2.878874 1_544
Cl8 Cu0 2.125181 1_555
Cl8 Cu4 2.153140 1_555
Cl9 Cu1 2.125181 1_555
Cl9 Cu5 2.153140 1_555
Cl10 Cu2 2.125181 1_555
Cl10 Cu6 2.153140 1_555
Cl11 Cu3 2.125181 1_555
Cl11 Cu7 2.153140 1_555
