# generated using pymatgen
data_Cs3CdBr5
_symmetry_space_group_name_H-M   'P 1'
_cell_length_a   10.50758296
_cell_length_b   10.50758296
_cell_length_c   10.50758296
_cell_angle_alpha   125.28004103
_cell_angle_beta   125.28004103
_cell_angle_gamma   81.07470272
_symmetry_Int_Tables_number   1
_chemical_formula_structural   Cs3CdBr5
_chemical_formula_sum   'Cs6 Cd2 Br10'
_cell_volume   744.89215553
_cell_formula_units_Z   2
loop_
 _symmetry_equiv_pos_site_id
 _symmetry_equiv_pos_as_xyz
  1  'x, y, z'
loop_
 _atom_site_type_symbol
 _atom_site_label
 _atom_site_symmetry_multiplicity
 _atom_site_fract_x
 _atom_site_fract_y
 _atom_site_fract_z
 _atom_site_occupancy
  Cs  Cs0  1  0.15711694  0.65711694  0.81423388  1
  Cs  Cs1  1  0.84288306  0.34288306  0.18576612  1
  Cs  Cs2  1  0.65711694  0.84288306  0.50000000  1
  Cs  Cs3  1  0.34288306  0.15711694  0.50000000  1
  Cs  Cs4  1  0.75000000  0.75000000  -0.00000000  1
  Cs  Cs5  1  0.25000000  0.25000000  -0.00000000  1
  Cd  Cd0  1  0.25000000  0.75000000  0.50000000  1
  Cd  Cd1  1  0.75000000  0.25000000  0.50000000  1
  Br  Br0  1  0.80145712  0.30145712  0.80181680  1
  Br  Br1  1  0.49963932  0.99963932  0.19818320  1
  Br  Br2  1  0.30145712  0.49963932  0.50000000  1
  Br  Br3  1  0.99963932  0.80145712  0.50000000  1
  Br  Br4  1  0.19854288  0.69854288  0.19818320  1
  Br  Br5  1  0.50036068  0.00036068  0.80181680  1
  Br  Br6  1  0.69854288  0.50036068  0.50000000  1
  Br  Br7  1  0.00036068  0.19854288  0.50000000  1
  Br  Br8  1  -0.00000000  -0.00000000  -0.00000000  1
  Br  Br9  1  0.50000000  0.50000000  -0.00000000  1
loop_
_geom_bond_atom_site_label_1
_geom_bond_atom_site_label_2
_geom_bond_distance
_geom_bond_site_symmetry_2
Br0 Cd1 2.602200 1_555
Br0 Cs1 3.557643 1_556
Br0 Cs2 3.825605 1_545
Br0 Cs3 3.825605 1_555
Br0 Cs5 4.001834 1_656
Br0 Cs4 4.001834 1_556
Br1 Cd1 2.602209 1_565
Br1 Cs0 3.557633 1_554
Br1 Cs3 3.825595 1_565
Br1 Cs2 3.825595 1_555
Br1 Cs4 4.001840 1_555
Br1 Cs5 4.001840 1_565
Br2 Cd0 2.602210 1_555
Br2 Cs3 3.557633 1_555
Br2 Cs0 3.825604 1_555
Br2 Cs1 3.825604 1_455
Br2 Cs5 4.001835 1_555
Br2 Cs4 4.001835 1_556
Br3 Cd0 2.602210 1_655
Br3 Cs2 3.557633 1_555
Br3 Cs0 3.825604 1_655
Br3 Cs1 3.825604 1_555
Br3 Cs4 4.001835 1_555
Br3 Cs5 4.001835 1_666
Br4 Cd0 2.602200 1_555
Br4 Cs0 3.557643 1_554
Br4 Cs2 3.825605 1_555
Br4 Cs3 3.825605 1_565
Br4 Cs5 4.001834 1_555
Br4 Cs4 4.001834 1_455
Br5 Cd0 2.602209 1_545
Br5 Cs1 3.557633 1_556
Br5 Cs2 3.825595 1_545
Br5 Cs3 3.825595 1_555
Br5 Cs5 4.001840 1_556
Br5 Cs4 4.001840 1_546
Br6 Cd1 2.602210 1_555
Br6 Cs2 3.557633 1_555
Br6 Cs1 3.825604 1_555
Br6 Cs0 3.825604 1_655
Br6 Cs5 4.001835 1_555
Br6 Cs4 4.001835 1_556
Br7 Cd1 2.602210 1_455
Br7 Cs3 3.557633 1_555
Br7 Cs0 3.825604 1_555
Br7 Cs1 3.825604 1_455
Br7 Cs4 4.001835 1_445
Br7 Cs5 4.001835 1_556
Br8 Cs2 3.642726 1_444
Br8 Cs1 3.642726 1_455
Br8 Cs3 3.642726 1_555
Br8 Cs0 3.642726 1_544
Br8 Cs4 3.992789 1_445
Br8 Cs5 3.992789 1_555
Br9 Cs3 3.642726 1_554
Br9 Cs2 3.642726 1_555
Br9 Cs1 3.642726 1_555
Br9 Cs0 3.642726 1_554
Br9 Cs4 3.992789 1_555
Br9 Cs5 3.992789 1_555
