# generated using pymatgen
data_Mg14MnV
_symmetry_space_group_name_H-M   'P 1'
_cell_length_a   6.28545232
_cell_length_b   6.31624271
_cell_length_c   10.03282580
_cell_angle_alpha   90.00000000
_cell_angle_beta   90.00000000
_cell_angle_gamma   120.16218493
_symmetry_Int_Tables_number   1
_chemical_formula_structural   Mg14MnV
_chemical_formula_sum   'Mg14 Mn1 V1'
_cell_volume   344.37940190
_cell_formula_units_Z   1
loop_
 _symmetry_equiv_pos_site_id
 _symmetry_equiv_pos_as_xyz
  1  'x, y, z'
loop_
 _atom_site_type_symbol
 _atom_site_label
 _atom_site_symmetry_multiplicity
 _atom_site_fract_x
 _atom_site_fract_y
 _atom_site_fract_z
 _atom_site_occupancy
  Mg  Mg0  1  0.16835364  0.33417632  0.62500000  1
  Mg  Mg1  1  0.16877333  0.83438617  0.62500000  1
  Mg  Mg2  1  0.66446861  0.33323249  0.12500000  1
  Mg  Mg3  1  0.66555361  0.33291503  0.62500000  1
  Mg  Mg4  1  0.66446861  0.83123512  0.12500000  1
  Mg  Mg5  1  0.66555361  0.83263758  0.62500000  1
  Mg  Mg6  1  0.32703421  0.16355789  0.36379087  1
  Mg  Mg7  1  0.32703421  0.16355789  0.88620913  1
  Mg  Mg8  1  0.32703421  0.66347732  0.36379087  1
  Mg  Mg9  1  0.32703421  0.66347732  0.88620913  1
  Mg  Mg10  1  0.83951762  0.16975931  0.36934325  1
  Mg  Mg11  1  0.83951762  0.16975931  0.88065675  1
  Mg  Mg12  1  0.83921722  0.66960911  0.37097087  1
  Mg  Mg13  1  0.83921722  0.66960911  0.87902913  1
  Mn  Mn0  1  0.16996375  0.33498137  0.12500000  1
  V  V0  1  0.16725831  0.83362866  0.12500000  1
loop_
_geom_bond_atom_site_label_1
_geom_bond_atom_site_label_2
_geom_bond_distance
_geom_bond_site_symmetry_2
Mg0 Mg11 3.126105 1_455
Mg0 Mg10 3.126105 1_455
Mg0 Mg5 3.129137 1_555
Mg0 Mg3 3.129137 1_555
Mg0 Mg5 3.156330 1_445
Mg0 Mg3 3.156330 1_455
Mg0 Mg1 3.158122 1_545
Mg0 Mg1 3.158122 1_555
Mg0 Mg6 3.178699 1_555
Mg0 Mg7 3.178699 1_555
Mg0 Mg9 3.178706 1_555
Mg0 Mg8 3.178706 1_555
Mg1 Mg12 3.114969 1_455
Mg1 Mg13 3.114969 1_455
Mg1 Mg3 3.128052 1_565
Mg1 Mg5 3.128053 1_555
Mg1 Mg3 3.157428 1_455
Mg1 Mg5 3.157429 1_455
Mg1 Mg8 3.178334 1_555
Mg1 Mg9 3.178334 1_555
Mg1 Mg7 3.178340 1_565
Mg1 Mg6 3.178340 1_565
Mg2 Mg7 3.017010 1_554
Mg2 Mg6 3.017010 1_555
Mg2 Mn0 3.113752 1_555
Mg2 V0 3.132815 1_545
Mg2 Mg4 3.145505 1_555
Mg2 V0 3.152691 1_655
Mg2 Mg4 3.170737 1_545
Mg2 Mn0 3.171730 1_655
Mg3 Mg5 3.156369 1_555
Mg3 Mg5 3.159874 1_545
Mg3 Mg6 3.201914 1_555
Mg3 Mg7 3.201914 1_555
Mg4 Mg9 3.017010 1_554
Mg4 Mg8 3.017010 1_555
Mg4 Mn0 3.113751 1_555
Mg4 V0 3.132815 1_555
Mg4 V0 3.152692 1_655
Mg4 Mn0 3.171729 1_665
Mg5 Mg9 3.201914 1_555
Mg5 Mg8 3.201914 1_555
Mg6 Mn0 2.993465 1_555
Mg6 V0 2.997965 1_545
Mg6 Mg8 3.157612 1_555
Mg6 Mg8 3.158630 1_545
Mg7 Mn0 2.993465 1_556
Mg7 V0 2.997965 1_546
Mg7 Mg9 3.157612 1_555
Mg7 Mg9 3.158630 1_545
Mg8 Mn0 2.993471 1_555
Mg8 V0 2.997958 1_555
Mg9 Mn0 2.993471 1_556
Mg9 V0 2.997958 1_556
Mg10 Mn0 3.038830 1_655
Mg10 Mg2 3.070498 1_555
Mg10 Mg4 3.070504 1_545
Mg10 Mg8 3.084632 1_655
Mg10 Mg6 3.084632 1_655
Mg10 Mg3 3.157368 1_555
Mg10 Mg5 3.157375 1_545
Mg10 Mg12 3.158164 1_545
Mg10 Mg12 3.158164 1_555
Mg10 Mg8 3.202173 1_545
Mg10 Mg6 3.202173 1_555
Mg11 Mn0 3.038830 1_656
Mg11 Mg2 3.070498 1_556
Mg11 Mg4 3.070504 1_546
Mg11 Mg9 3.084632 1_655
Mg11 Mg7 3.084632 1_655
Mg11 Mg3 3.157368 1_555
Mg11 Mg5 3.157375 1_545
Mg11 Mg13 3.158164 1_545
Mg11 Mg13 3.158164 1_555
Mg11 Mg9 3.202173 1_545
Mg11 Mg7 3.202173 1_555
Mg12 V0 3.044347 1_655
Mg12 Mg4 3.076579 1_555
Mg12 Mg2 3.076586 1_555
Mg12 Mg6 3.086632 1_665
Mg12 Mg8 3.086633 1_655
Mg12 Mg5 3.142746 1_555
Mg12 Mg3 3.142753 1_555
Mg12 Mg6 3.200828 1_555
Mg12 Mg8 3.200828 1_555
Mg13 V0 3.044347 1_656
Mg13 Mg4 3.076579 1_556
Mg13 Mg2 3.076586 1_556
Mg13 Mg7 3.086632 1_665
Mg13 Mg9 3.086633 1_655
Mg13 Mg5 3.142746 1_555
Mg13 Mg3 3.142753 1_555
Mg13 Mg7 3.200828 1_555
Mg13 Mg9 3.200828 1_555
Mn0 V0 3.158156 1_545
Mn0 V0 3.158156 1_555
