# generated using pymatgen
data_SrEuBiSbO6
_symmetry_space_group_name_H-M   'P 1'
_cell_length_a   8.52789241
_cell_length_b   8.52839639
_cell_length_c   8.52842324
_cell_angle_alpha   90.00000000
_cell_angle_beta   90.00000000
_cell_angle_gamma   90.00000000
_symmetry_Int_Tables_number   1
_chemical_formula_structural   SrEuBiSbO6
_chemical_formula_sum   'Sr4 Eu4 Bi4 Sb4 O24'
_cell_volume   620.26579901
_cell_formula_units_Z   4
loop_
 _symmetry_equiv_pos_site_id
 _symmetry_equiv_pos_as_xyz
  1  'x, y, z'
loop_
 _atom_site_type_symbol
 _atom_site_label
 _atom_site_symmetry_multiplicity
 _atom_site_fract_x
 _atom_site_fract_y
 _atom_site_fract_z
 _atom_site_occupancy
  Sr  Sr0  1  0.00000000  0.50000000  0.50000000  1
  Sr  Sr1  1  0.50000000  -0.00000000  0.50000000  1
  Sr  Sr2  1  0.50000000  0.50000000  -0.00000000  1
  Sr  Sr3  1  0.00000000  0.50000000  -0.00000000  1
  Eu  Eu0  1  0.50000000  -0.00000000  -0.00000000  1
  Eu  Eu1  1  0.00000000  -0.00000000  0.50000000  1
  Eu  Eu2  1  0.00000000  -0.00000000  -0.00000000  1
  Eu  Eu3  1  0.50000000  0.50000000  0.50000000  1
  Bi  Bi0  1  0.75004971  0.75034817  0.75009089  1
  Bi  Bi1  1  0.24995029  0.24965183  0.75009089  1
  Bi  Bi2  1  0.24995029  0.75034817  0.24990911  1
  Bi  Bi3  1  0.75004971  0.24965183  0.24990911  1
  Sb  Sb0  1  0.24964947  0.24908811  0.24994195  1
  Sb  Sb1  1  0.75035053  0.75091189  0.24994195  1
  Sb  Sb2  1  0.75035053  0.24908811  0.75005805  1
  Sb  Sb3  1  0.24964947  0.75091189  0.75005805  1
  O  O0  1  0.02053403  0.19947790  0.28966405  1
  O  O1  1  0.97946597  0.80052210  0.28966405  1
  O  O2  1  0.97946597  0.19947790  0.71033595  1
  O  O3  1  0.02053403  0.80052210  0.71033595  1
  O  O4  1  0.28974165  0.02014570  0.20023367  1
  O  O5  1  0.28974165  0.97985430  0.79976633  1
  O  O6  1  0.71025835  0.97985430  0.20023367  1
  O  O7  1  0.71025835  0.02014570  0.79976633  1
  O  O8  1  0.20243749  0.28652408  0.02058311  1
  O  O9  1  0.79756251  0.28652408  0.97941689  1
  O  O10  1  0.20243749  0.71347592  0.97941689  1
  O  O11  1  0.79756251  0.71347592  0.02058311  1
  O  O12  1  0.47995083  0.29593522  0.21275868  1
  O  O13  1  0.52004917  0.70406478  0.21275868  1
  O  O14  1  0.52004917  0.29593522  0.78724132  1
  O  O15  1  0.47995083  0.70406478  0.78724132  1
  O  O16  1  0.21339948  0.47945211  0.29664589  1
  O  O17  1  0.21339948  0.52054789  0.70335411  1
  O  O18  1  0.78660052  0.52054789  0.29664589  1
  O  O19  1  0.78660052  0.47945211  0.70335411  1
  O  O20  1  0.29580888  0.21188010  0.47970158  1
  O  O21  1  0.70419112  0.21188010  0.52029842  1
  O  O22  1  0.29580888  0.78811990  0.52029842  1
  O  O23  1  0.70419112  0.78811990  0.47970158  1
loop_
_geom_bond_atom_site_label_1
_geom_bond_atom_site_label_2
_geom_bond_distance
_geom_bond_site_symmetry_2
Eu0 O4 2.482085 1_555
Eu0 O5 2.482085 1_544
Eu0 O6 2.482085 1_545
Eu0 O7 2.482085 1_554
Eu1 O3 2.478442 1_545
Eu1 O1 2.478442 1_445
Eu1 O0 2.478442 1_555
Eu1 O2 2.478442 1_455
Eu2 O8 2.997047 1_555
Eu2 O11 2.997047 1_445
Eu2 O10 2.997047 1_544
Eu2 O9 2.997047 1_454
Eu2 O3 3.004597 1_544
Eu2 O1 3.004597 1_445
Eu2 O0 3.004597 1_555
Eu2 O2 3.004597 1_454
Eu2 O6 3.008481 1_445
Eu2 O7 3.008481 1_454
Eu2 O5 3.008481 1_544
Eu2 O4 3.008481 1_555
Eu3 O18 3.002014 1_555
Eu3 O16 3.002014 1_555
Eu3 O19 3.002014 1_555
Eu3 O17 3.002014 1_555
Eu3 O15 3.009841 1_555
Eu3 O14 3.009841 1_555
Eu3 O12 3.009841 1_555
Eu3 O13 3.009841 1_555
Eu3 O22 3.016620 1_555
Eu3 O20 3.016620 1_555
Eu3 O23 3.016620 1_555
Eu3 O21 3.016620 1_555
Bi0 O15 2.358331 1_555
Bi0 O23 2.361000 1_555
Bi0 O11 2.363201 1_556
Bi0 O7 2.364098 1_565
Bi0 O19 2.365071 1_555
Bi0 O3 2.370388 1_655
Bi1 O14 2.358331 1_555
Bi1 O20 2.361000 1_555
Bi1 O8 2.363201 1_556
Bi1 O5 2.364098 1_545
Bi1 O17 2.365071 1_555
Bi1 O2 2.370388 1_455
Bi2 O13 2.358331 1_555
Bi2 O22 2.361000 1_555
Bi2 O10 2.363201 1_554
Bi2 O4 2.364098 1_565
Bi2 O16 2.365071 1_555
Bi2 O1 2.370388 1_455
Bi3 O12 2.358331 1_555
Bi3 O21 2.361000 1_555
Bi3 O9 2.363201 1_554
Bi3 O6 2.364098 1_545
Bi3 O18 2.365071 1_555
Bi3 O0 2.370388 1_655
O0 Sb0 2.027656 1_555
O0 Sr0 3.133262 1_555
O1 Sb1 2.027656 1_555
O1 Sr0 3.133262 1_655
O2 Sb2 2.027656 1_555
O2 Sr0 3.133262 1_655
O3 Sb3 2.027656 1_555
O3 Sr0 3.133262 1_555
O4 Sb0 2.027047 1_555
O4 Sr1 3.127371 1_555
O5 Sb3 2.027047 1_555
O5 Sr1 3.127371 1_565
O6 Sb1 2.027047 1_555
O6 Sr1 3.127371 1_565
O7 Sb2 2.027047 1_555
O7 Sr1 3.127371 1_555
O8 Sb0 2.022435 1_555
O8 Sr3 2.515107 1_555
O8 Sr2 3.128057 1_555
O9 Sb2 2.022435 1_555
O9 Sr3 2.515107 1_656
O9 Sr2 3.128057 1_556
O10 Sb3 2.022435 1_555
O10 Sr3 2.515107 1_556
O10 Sr2 3.128057 1_556
O11 Sb1 2.022435 1_555
O11 Sr3 2.515107 1_655
O11 Sr2 3.128057 1_555
O12 Sb0 2.029144 1_555
O12 Sr2 2.520006 1_555
O13 Sb1 2.029144 1_555
O13 Sr2 2.520006 1_555
O14 Sb2 2.029144 1_555
O14 Sr2 2.520006 1_556
O15 Sb3 2.029144 1_555
O15 Sr2 2.520006 1_556
O16 Sb0 2.028302 1_555
O16 Sr0 2.519983 1_555
O16 Sr3 3.121387 1_555
O17 Sb3 2.028302 1_555
O17 Sr0 2.519983 1_555
O17 Sr3 3.121387 1_556
O18 Sb1 2.028302 1_555
O18 Sr0 2.519983 1_655
O18 Sr3 3.121387 1_655
O19 Sb2 2.028302 1_555
O19 Sr0 2.519983 1_655
O19 Sr3 3.121387 1_656
O20 Sb0 2.023670 1_555
O20 Sr1 2.515433 1_555
O21 Sb2 2.023670 1_555
O21 Sr1 2.515433 1_555
O22 Sb3 2.023670 1_555
O22 Sr1 2.515433 1_565
O23 Sb1 2.023670 1_555
O23 Sr1 2.515433 1_565
