# generated using pymatgen
data_Sr2NdMn3O9
_symmetry_space_group_name_H-M   'P 1'
_cell_length_a   5.54158763
_cell_length_b   5.54158763
_cell_length_c   13.46096564
_cell_angle_alpha   88.46625840
_cell_angle_beta   88.46625840
_cell_angle_gamma   58.82453971
_symmetry_Int_Tables_number   1
_chemical_formula_structural   Sr2NdMn3O9
_chemical_formula_sum   'Sr4 Nd2 Mn6 O18'
_cell_volume   353.51123455
_cell_formula_units_Z   2
loop_
 _symmetry_equiv_pos_site_id
 _symmetry_equiv_pos_as_xyz
  1  'x, y, z'
loop_
 _atom_site_type_symbol
 _atom_site_label
 _atom_site_symmetry_multiplicity
 _atom_site_fract_x
 _atom_site_fract_y
 _atom_site_fract_z
 _atom_site_occupancy
  Sr  Sr0  1  0.83462100  0.83106000  0.91688600  1
  Sr  Sr1  1  0.16894000  0.16537900  0.58311400  1
  Sr  Sr2  1  0.83106000  0.83462100  0.41688600  1
  Sr  Sr3  1  0.16537900  0.16894000  0.08311400  1
  Nd  Nd0  1  0.49498400  0.50501600  0.25000000  1
  Nd  Nd1  1  0.50501600  0.49498400  0.75000000  1
  Mn  Mn0  1  0.50000000  0.50000000  0.00000000  1
  Mn  Mn1  1  0.83303600  0.83260100  0.66655600  1
  Mn  Mn2  1  0.16696400  0.16739900  0.33344400  1
  Mn  Mn3  1  0.16739900  0.16696400  0.83344400  1
  Mn  Mn4  1  0.50000000  0.50000000  0.50000000  1
  Mn  Mn5  1  0.83260100  0.83303600  0.16655600  1
  O  O0  1  0.47694000  0.06879900  0.73828400  1
  O  O1  1  0.79885800  0.39041600  0.39844900  1
  O  O2  1  0.14182300  0.71775400  0.07167000  1
  O  O3  1  0.85817700  0.28224600  0.92833000  1
  O  O4  1  0.20114200  0.60958400  0.60155100  1
  O  O5  1  0.52306000  0.93120100  0.26171600  1
  O  O6  1  0.39041600  0.79885800  0.89844900  1
  O  O7  1  0.71775400  0.14182300  0.57167000  1
  O  O8  1  0.06879900  0.47694000  0.23828400  1
  O  O9  1  0.93120100  0.52306000  0.76171600  1
  O  O10  1  0.28224600  0.85817700  0.42833000  1
  O  O11  1  0.60958400  0.20114200  0.10155100  1
  O  O12  1  0.33679900  0.33800400  0.91129400  1
  O  O13  1  0.66199600  0.66320100  0.58870600  1
  O  O14  1  0.99090600  0.00909400  0.25000000  1
  O  O15  1  0.00909400  0.99090600  0.75000000  1
  O  O16  1  0.33800400  0.33679900  0.41129400  1
  O  O17  1  0.66320100  0.66199600  0.08870600  1
loop_
_geom_bond_atom_site_label_1
_geom_bond_atom_site_label_2
_geom_bond_distance
_geom_bond_site_symmetry_2
Nd0 O5 2.455318 1_555
Nd0 O8 2.455318 1_555
Nd0 O1 2.497410 1_555
Nd0 O11 2.497410 1_555
Nd0 O16 2.640047 1_555
Nd0 O17 2.640047 1_555
Nd0 O14 2.699224 1_555
Nd0 O14 2.743616 1_465
Nd0 O2 2.948495 1_555
Nd0 O10 2.948495 1_555
Nd0 O8 3.102057 1_655
Nd0 O5 3.102057 1_545
Nd1 O9 2.455318 1_555
Nd1 O0 2.455318 1_555
Nd1 O6 2.497410 1_555
Nd1 O4 2.497410 1_555
Nd1 O12 2.640047 1_555
Nd1 O13 2.640047 1_555
Nd1 O15 2.699224 1_555
Nd1 O15 2.743616 1_645
Nd1 O7 2.948495 1_555
Nd1 O3 2.948495 1_555
Nd1 O0 3.102057 1_565
Nd1 O9 3.102057 1_455
Mn0 O3 1.951061 1_554
Mn0 O2 1.951061 1_555
Mn0 O6 1.965252 1_554
Mn0 O11 1.965252 1_555
Mn0 O12 2.001343 1_554
Mn0 O17 2.001343 1_555
Mn1 O7 1.941393 1_565
Mn1 O4 1.951015 1_655
Mn1 O0 1.957309 1_565
Mn1 O9 1.957742 1_555
Mn1 O13 1.976065 1_555
Mn1 O15 1.995159 1_655
Mn2 O10 1.941393 1_545
Mn2 O1 1.951015 1_455
Mn2 O5 1.957309 1_545
Mn2 O8 1.957742 1_555
Mn2 O16 1.976065 1_555
Mn2 O14 1.995159 1_455
Mn3 O3 1.941393 1_455
Mn3 O6 1.951015 1_545
Mn3 O9 1.957309 1_455
Mn3 O0 1.957742 1_555
Mn3 O12 1.976065 1_555
Mn3 O15 1.995159 1_545
Mn4 O7 1.951061 1_555
Mn4 O10 1.951061 1_555
Mn4 O4 1.965252 1_555
Mn4 O1 1.965252 1_555
Mn4 O16 2.001343 1_555
Mn4 O13 2.001343 1_555
Mn5 O2 1.941393 1_655
Mn5 O11 1.951015 1_565
Mn5 O8 1.957309 1_655
Mn5 O5 1.957742 1_555
Mn5 O17 1.976065 1_555
Mn5 O14 1.995159 1_565
O0 Sr1 2.597635 1_555
O0 Sr0 2.970926 1_545
O1 Sr2 2.577359 1_555
O1 Sr2 2.995358 1_545
O1 Sr1 3.065821 1_655
O2 Sr0 2.578117 1_454
O2 Sr3 2.579110 1_565
O2 Sr3 2.975777 1_555
O3 Sr3 2.578117 1_656
O3 Sr0 2.579110 1_545
O3 Sr0 2.975777 1_555
O4 Sr1 2.577359 1_555
O4 Sr1 2.995358 1_565
O4 Sr2 3.065821 1_455
O5 Sr2 2.597635 1_555
O5 Sr3 2.970926 1_565
O6 Sr0 2.577359 1_555
O6 Sr0 2.995358 1_455
O6 Sr3 3.065821 1_566
O7 Sr2 2.578117 1_545
O7 Sr1 2.579110 1_655
O7 Sr1 2.975777 1_555
O8 Sr3 2.597635 1_555
O8 Sr2 2.970926 1_455
O9 Sr0 2.597635 1_555
O9 Sr1 2.970926 1_655
O10 Sr1 2.578117 1_565
O10 Sr2 2.579110 1_455
O10 Sr2 2.975777 1_555
O11 Sr3 2.577359 1_555
O11 Sr3 2.995358 1_655
O11 Sr0 3.065821 1_544
O12 Sr0 2.709816 1_455
O12 Sr0 2.735743 1_545
O12 Sr3 2.795940 1_556
O13 Sr1 2.709816 1_565
O13 Sr1 2.735743 1_655
O13 Sr2 2.795940 1_555
O14 Sr3 2.725781 1_655
O14 Sr2 2.725781 1_545
O15 Sr1 2.725781 1_565
O15 Sr0 2.725781 1_455
O16 Sr2 2.709816 1_545
O16 Sr2 2.735743 1_455
O16 Sr1 2.795940 1_555
O17 Sr3 2.709816 1_655
O17 Sr3 2.735743 1_565
O17 Sr0 2.795940 1_554
