# generated using pymatgen
data_K6Bi6O19
_symmetry_space_group_name_H-M   'P 1'
_cell_length_a   8.78633831
_cell_length_b   8.78633831
_cell_length_c   10.23883672
_cell_angle_alpha   55.48838275
_cell_angle_beta   55.48838275
_cell_angle_gamma   71.28626389
_symmetry_Int_Tables_number   1
_chemical_formula_structural   K6Bi6O19
_chemical_formula_sum   'K6 Bi6 O19'
_cell_volume   536.70150214
_cell_formula_units_Z   1
loop_
 _symmetry_equiv_pos_site_id
 _symmetry_equiv_pos_as_xyz
  1  'x, y, z'
loop_
 _atom_site_type_symbol
 _atom_site_label
 _atom_site_symmetry_multiplicity
 _atom_site_fract_x
 _atom_site_fract_y
 _atom_site_fract_z
 _atom_site_occupancy
  K  K0  1  0.70870800  0.02846800  0.26398800  1
  K  K1  1  0.97153200  0.29129200  0.73601200  1
  K  K2  1  0.36961600  0.01386600  0.99511400  1
  K  K3  1  0.98613400  0.63038400  0.00488600  1
  K  K4  1  0.33046400  0.00029800  0.66510000  1
  K  K5  1  0.99970200  0.66953600  0.33490000  1
  Bi  Bi0  1  0.33772800  0.66227200  0.50000000  1
  Bi  Bi1  1  0.65661400  0.34338600  0.50000000  1
  Bi  Bi2  1  0.49874500  0.50639100  0.15764400  1
  Bi  Bi3  1  0.49360900  0.50125500  0.84235600  1
  Bi  Bi4  1  0.15642200  0.16229900  0.33916100  1
  Bi  Bi5  1  0.83770100  0.84357800  0.66083900  1
  O  O0  1  0.04044700  0.95955300  0.00000000  1
  O  O1  1  0.35532200  0.64467800  0.00000000  1
  O  O2  1  0.63416900  0.36583100  0.00000000  1
  O  O3  1  0.00616900  0.00270900  0.63461500  1
  O  O4  1  0.99729100  0.99383100  0.36538500  1
  O  O5  1  0.63735300  0.64080200  0.36695200  1
  O  O6  1  0.35919800  0.36264700  0.63304800  1
  O  O7  1  0.28429400  0.29498000  0.37600100  1
  O  O8  1  0.70502000  0.71570600  0.62399900  1
  O  O9  1  0.69968200  0.72852600  0.94877400  1
  O  O10  1  0.27147400  0.30031800  0.05122600  1
  O  O11  1  0.37618600  0.95596600  0.33650800  1
  O  O12  1  0.62255400  0.05226500  0.65430900  1
  O  O13  1  0.94773500  0.37744600  0.34569100  1
  O  O14  1  0.04403400  0.62381400  0.66349200  1
  O  O15  1  0.33094700  0.66660100  0.28930700  1
  O  O16  1  0.65616700  0.33341300  0.71850400  1
  O  O17  1  0.33339900  0.66905300  0.71069300  1
  O  O18  1  0.66658700  0.34383300  0.28149600  1
loop_
_geom_bond_atom_site_label_1
_geom_bond_atom_site_label_2
_geom_bond_distance
_geom_bond_site_symmetry_2
K0 O18 2.770677 1_555
K0 O11 2.773670 1_545
K0 O0 2.821880 1_645
K0 O2 2.864019 1_555
K0 O8 3.095739 1_545
K0 O5 3.107857 1_545
K0 O4 3.119197 1_545
K1 O16 2.770677 1_555
K1 O14 2.773670 1_655
K1 O0 2.821880 1_646
K1 O2 2.864019 1_556
K1 O7 3.095739 1_655
K1 O6 3.107857 1_655
K1 O3 3.119197 1_655
K2 O10 2.663222 1_556
K2 O12 2.754765 1_555
K2 O15 2.754910 1_546
K2 O0 3.047890 1_546
K2 O16 3.112633 1_555
K2 O9 3.169271 1_545
K2 O6 3.236324 1_555
K2 O1 3.257453 1_546
K2 O4 3.265789 1_446
K2 O11 3.267305 1_546
K3 O9 2.663222 1_554
K3 O13 2.754765 1_555
K3 O17 2.754910 1_654
K3 O0 3.047890 1_655
K3 O18 3.112633 1_555
K3 O10 3.169271 1_655
K3 O5 3.236324 1_555
K3 O1 3.257453 1_655
K3 O3 3.265789 1_664
K3 O14 3.267305 1_654
K4 O17 2.667420 1_545
K4 O12 2.679658 1_555
K4 O7 2.762680 1_555
K4 O0 2.769950 1_546
K4 O3 3.029575 1_555
K4 O6 3.089575 1_555
K4 O1 3.136675 1_546
K5 O15 2.667420 1_655
K5 O13 2.679658 1_555
K5 O8 2.762680 1_555
K5 O0 2.769950 1_655
K5 O4 3.029575 1_555
K5 O5 3.089575 1_555
K5 O1 3.136675 1_655
Bi0 O14 2.144540 1_555
Bi0 O11 2.144540 1_555
Bi0 O15 2.170239 1_555
Bi0 O17 2.170239 1_555
Bi0 O6 2.175013 1_555
Bi0 O5 2.175013 1_555
Bi1 O13 2.122401 1_555
Bi1 O12 2.122401 1_555
Bi1 O5 2.157966 1_555
Bi1 O6 2.157966 1_555
Bi1 O18 2.186550 1_555
Bi1 O16 2.186550 1_555
Bi2 O18 2.130260 1_555
Bi2 O15 2.130471 1_555
Bi2 O2 2.164701 1_555
Bi2 O9 2.168608 1_554
Bi2 O7 2.183054 1_555
Bi2 O1 2.183952 1_555
Bi3 O16 2.130260 1_555
Bi3 O17 2.130471 1_555
Bi3 O2 2.164701 1_556
Bi3 O10 2.168608 1_556
Bi3 O8 2.183054 1_555
Bi3 O1 2.183952 1_556
Bi4 O10 2.131280 1_555
Bi4 O7 2.140700 1_555
Bi4 O4 2.161089 1_445
Bi4 O3 2.171668 1_555
Bi4 O13 2.172585 1_455
Bi4 O11 2.183106 1_545
Bi5 O9 2.131280 1_555
Bi5 O8 2.140700 1_555
Bi5 O3 2.161089 1_665
Bi5 O4 2.171668 1_555
Bi5 O12 2.172585 1_565
Bi5 O14 2.183106 1_655
