# generated using pymatgen
data_BaLaMn2O6
_symmetry_space_group_name_H-M   'P 1'
_cell_length_a   5.49801844
_cell_length_b   5.49802839
_cell_length_c   8.16192717
_cell_angle_alpha   90.00875788
_cell_angle_beta   90.00908362
_cell_angle_gamma   89.97497389
_symmetry_Int_Tables_number   1
_chemical_formula_structural   BaLaMn2O6
_chemical_formula_sum   'Ba2 La2 Mn4 O12'
_cell_volume   246.72083931
_cell_formula_units_Z   2
loop_
 _symmetry_equiv_pos_site_id
 _symmetry_equiv_pos_as_xyz
  1  'x, y, z'
loop_
 _atom_site_type_symbol
 _atom_site_label
 _atom_site_symmetry_multiplicity
 _atom_site_fract_x
 _atom_site_fract_y
 _atom_site_fract_z
 _atom_site_occupancy
  Ba  Ba0  1  0.50000100  0.00000000  0.74999600  1
  Ba  Ba1  1  0.99999900  0.50000000  0.25000400  1
  La  La0  1  0.49999900  0.99999900  0.24999900  1
  La  La1  1  0.00000100  0.50000000  0.75000200  1
  Mn  Mn0  1  0.50000800  0.49999000  0.49999900  1
  Mn  Mn1  1  0.49999000  0.50001000  0.00000000  1
  Mn  Mn2  1  0.00001100  0.99999000  0.99999900  1
  Mn  Mn3  1  0.99999000  0.00001000  0.50000000  1
  O  O0  1  0.74999900  0.74999900  0.00000000  1
  O  O1  1  0.24999700  0.24999600  0.50000000  1
  O  O2  1  0.25000100  0.25000100  0.00000100  1
  O  O3  1  0.75000300  0.75000400  0.50000000  1
  O  O4  1  0.50000000  0.50000000  0.75002000  1
  O  O5  1  0.00000000  0.00000000  0.25000700  1
  O  O6  1  0.50000000  0.49999900  0.24998000  1
  O  O7  1  0.00000000  0.00000000  0.74999300  1
  O  O8  1  0.74999500  0.25000400  0.00000000  1
  O  O9  1  0.24999400  0.75000600  0.50000000  1
  O  O10  1  0.25000500  0.74999500  0.00000000  1
  O  O11  1  0.75000600  0.24999400  0.50000000  1
loop_
_geom_bond_atom_site_label_1
_geom_bond_atom_site_label_2
_geom_bond_distance
_geom_bond_site_symmetry_2
Ba0 O7 2.749004 1_655
Ba0 O4 2.749014 1_555
Ba0 O4 2.749014 1_545
Ba0 O7 2.749015 1_555
Ba0 O1 2.817851 1_555
Ba0 O3 2.817857 1_545
Ba0 O0 2.817895 1_546
Ba0 O2 2.817918 1_556
Ba0 O9 2.818135 1_545
Ba0 O8 2.818174 1_556
Ba0 O11 2.818749 1_555
Ba0 O10 2.818802 1_546
Ba1 O6 2.749004 1_555
Ba1 O5 2.749014 1_665
Ba1 O5 2.749014 1_655
Ba1 O6 2.749015 1_655
Ba1 O1 2.817856 1_655
Ba1 O3 2.817862 1_555
Ba1 O0 2.817895 1_555
Ba1 O2 2.817906 1_655
Ba1 O9 2.818135 1_655
Ba1 O8 2.818179 1_555
Ba1 O11 2.818749 1_555
Ba1 O10 2.818802 1_655
La0 O5 2.749004 1_565
La0 O6 2.749014 1_555
La0 O6 2.749014 1_565
La0 O5 2.749015 1_665
La0 O2 2.817863 1_565
La0 O3 2.817878 1_555
La0 O0 2.817880 1_555
La0 O1 2.817889 1_565
La0 O10 2.818145 1_555
La0 O11 2.818167 1_565
La0 O8 2.818772 1_565
La0 O9 2.818776 1_555
La1 O4 2.749004 1_555
La1 O7 2.749014 1_555
La1 O7 2.749014 1_565
La1 O4 2.749015 1_455
La1 O2 2.817866 1_556
La1 O0 2.817877 1_456
La1 O3 2.817892 1_455
La1 O1 2.817898 1_555
La1 O10 2.818141 1_556
La1 O11 2.818170 1_455
La1 O8 2.818769 1_456
La1 O9 2.818785 1_555
Mn0 O11 1.943397 1_555
Mn0 O9 1.943537 1_555
Mn0 O1 1.944289 1_555
Mn0 O3 1.944304 1_555
Mn0 O6 2.040637 1_555
Mn0 O4 2.040653 1_555
Mn1 O10 1.943304 1_555
Mn1 O8 1.943463 1_555
Mn1 O0 1.944262 1_555
Mn1 O2 1.944262 1_555
Mn1 O4 2.040319 1_554
Mn1 O6 2.040319 1_555
Mn2 O10 1.943377 1_556
Mn2 O8 1.943537 1_466
Mn2 O2 1.944273 1_566
Mn2 O0 1.944281 1_456
Mn2 O7 2.040531 1_565
Mn2 O5 2.040547 1_566
Mn3 O11 1.943296 1_555
Mn3 O9 1.943451 1_645
Mn3 O3 1.944242 1_545
Mn3 O1 1.944242 1_655
Mn3 O7 2.040425 1_655
Mn3 O5 2.040425 1_655
