# generated using pymatgen
data_As2O5
_symmetry_space_group_name_H-M   'P 1'
_cell_length_a   4.64018029
_cell_length_b   8.54050011
_cell_length_c   8.67466276
_cell_angle_alpha   90.00000000
_cell_angle_beta   90.00000000
_cell_angle_gamma   90.00000000
_symmetry_Int_Tables_number   1
_chemical_formula_structural   As2O5
_chemical_formula_sum   'As8 O20'
_cell_volume   343.77220327
_cell_formula_units_Z   4
loop_
 _symmetry_equiv_pos_site_id
 _symmetry_equiv_pos_as_xyz
  1  'x, y, z'
loop_
 _atom_site_type_symbol
 _atom_site_label
 _atom_site_symmetry_multiplicity
 _atom_site_fract_x
 _atom_site_fract_y
 _atom_site_fract_z
 _atom_site_occupancy
  As  As0  1  0.88164347  0.03298468  0.71563474  1
  As  As1  1  0.38164347  0.46701532  0.28436526  1
  As  As2  1  0.11835653  0.53298468  0.78436526  1
  As  As3  1  0.61835653  0.96701532  0.21563474  1
  As  As4  1  0.87678469  0.65264858  0.09830706  1
  As  As5  1  0.37678469  0.84735142  0.90169294  1
  As  As6  1  0.12321531  0.15264858  0.40169294  1
  As  As7  1  0.62321531  0.34735142  0.59830706  1
  O  O0  1  0.05174837  0.50549421  0.97635866  1
  O  O1  1  0.55174837  0.99450579  0.02364134  1
  O  O2  1  0.94825163  0.00549421  0.52364134  1
  O  O3  1  0.44825163  0.49450579  0.47635866  1
  O  O4  1  0.20548840  0.72487309  0.75330884  1
  O  O5  1  0.70548840  0.77512691  0.24669116  1
  O  O6  1  0.79451160  0.22487309  0.74669116  1
  O  O7  1  0.29451160  0.27512691  0.25330884  1
  O  O8  1  0.89630739  0.31401138  0.45460758  1
  O  O9  1  0.39630739  0.18598862  0.54539242  1
  O  O10  1  0.10369261  0.81401138  0.04539242  1
  O  O11  1  0.60369261  0.68598862  0.95460758  1
  O  O12  1  0.12893961  0.60582491  0.25770626  1
  O  O13  1  0.62893961  0.89417509  0.74229374  1
  O  O14  1  0.87106039  0.10582491  0.24229374  1
  O  O15  1  0.37106039  0.39417509  0.75770626  1
  O  O16  1  0.66835388  0.48121395  0.16553569  1
  O  O17  1  0.16835388  0.01878605  0.83446431  1
  O  O18  1  0.33164612  0.98121395  0.33446431  1
  O  O19  1  0.83164612  0.51878605  0.66553569  1
loop_
_geom_bond_atom_site_label_1
_geom_bond_atom_site_label_2
_geom_bond_distance
_geom_bond_site_symmetry_2
As0 O13 1.683410 1_545
As0 O17 1.687364 1_655
As0 O6 1.709323 1_555
As0 O2 1.710107 1_555
As1 O12 1.683410 1_555
As1 O16 1.687364 1_555
As1 O7 1.709323 1_555
As1 O3 1.710107 1_555
As2 O15 1.683410 1_555
As2 O19 1.687364 1_455
As2 O4 1.709323 1_555
As2 O0 1.710107 1_555
As3 O14 1.683410 1_565
As3 O18 1.687364 1_555
As3 O5 1.709323 1_555
As3 O1 1.710107 1_555
As4 O10 1.794016 1_655
As4 O11 1.800205 1_554
As4 O0 1.832394 1_654
As4 O5 1.839236 1_555
As4 O16 1.849107 1_555
As4 O12 1.854960 1_655
As5 O11 1.794016 1_555
As5 O10 1.800205 1_556
As5 O1 1.832394 1_556
As5 O4 1.839236 1_555
As5 O17 1.849107 1_565
As5 O13 1.854960 1_555
As6 O8 1.794016 1_455
As6 O9 1.800205 1_555
As6 O2 1.832394 1_455
As6 O7 1.839236 1_555
As6 O18 1.849107 1_545
As6 O14 1.854960 1_455
As7 O9 1.794016 1_555
As7 O8 1.800205 1_555
As7 O3 1.832394 1_555
As7 O6 1.839236 1_555
As7 O19 1.849107 1_555
As7 O15 1.854960 1_555
