# generated using pymatgen
data_Ni4Te3N2
_symmetry_space_group_name_H-M   'P 1'
_cell_length_a   6.41904400
_cell_length_b   13.49691100
_cell_length_c   3.55343000
_cell_angle_alpha   90.00000000
_cell_angle_beta   90.00000000
_cell_angle_gamma   90.00000000
_symmetry_Int_Tables_number   1
_chemical_formula_structural   Ni4Te3N2
_chemical_formula_sum   'Ni8 Te6 N4'
_cell_volume   307.85945861
_cell_formula_units_Z   2
loop_
 _symmetry_equiv_pos_site_id
 _symmetry_equiv_pos_as_xyz
  1  'x, y, z'
loop_
 _atom_site_type_symbol
 _atom_site_label
 _atom_site_symmetry_multiplicity
 _atom_site_fract_x
 _atom_site_fract_y
 _atom_site_fract_z
 _atom_site_occupancy
  Ni  Ni0  1  0.67466000  0.93955400  0.50000000  1
  Ni  Ni1  1  0.32534000  0.06044600  0.50000000  1
  Ni  Ni2  1  0.17466000  0.56044600  0.00000000  1
  Ni  Ni3  1  0.82534000  0.43955400  0.00000000  1
  Ni  Ni4  1  0.85670800  0.59936400  0.50000000  1
  Ni  Ni5  1  0.14329200  0.40063600  0.50000000  1
  Ni  Ni6  1  0.35670800  0.90063600  0.00000000  1
  Ni  Ni7  1  0.64329200  0.09936400  0.00000000  1
  Te  Te0  1  0.50000000  0.50000000  0.50000000  1
  Te  Te1  1  0.00000000  0.00000000  0.00000000  1
  Te  Te2  1  0.80603600  0.29428000  0.50000000  1
  Te  Te3  1  0.19396400  0.70572000  0.50000000  1
  Te  Te4  1  0.30603600  0.20572000  0.00000000  1
  Te  Te5  1  0.69396400  0.79428000  0.00000000  1
  N  N0  1  0.62193700  0.07974700  0.50000000  1
  N  N1  1  0.37806300  0.92025300  0.50000000  1
  N  N2  1  0.12193700  0.42025300  0.00000000  1
  N  N3  1  0.87806300  0.57974700  0.00000000  1
loop_
_geom_bond_atom_site_label_1
_geom_bond_atom_site_label_2
_geom_bond_distance
_geom_bond_site_symmetry_2
Ni0 Te5 2.648889 1_556
Ni0 Te5 2.648889 1_555
Ni0 Te1 2.860699 1_665
Ni0 Te1 2.860699 1_666
Ni1 Te4 2.648889 1_556
Ni1 Te4 2.648889 1_555
Ni1 Te1 2.860699 1_556
Ni1 Te1 2.860699 1_555
Ni2 Te3 2.648889 1_555
Ni2 Te3 2.648889 1_554
Ni2 Te0 2.860699 1_554
Ni2 Te0 2.860699 1_555
Ni3 Te2 2.648889 1_554
Ni3 Te2 2.648889 1_555
Ni3 Te0 2.860699 1_555
Ni3 Te0 2.860699 1_554
Ni4 Te3 2.597541 1_655
Ni4 Te0 2.653565 1_555
Ni5 Te2 2.597541 1_455
Ni5 Te0 2.653565 1_555
Ni6 Te5 2.597541 1_555
Ni6 Te1 2.653565 1_565
Ni7 Te4 2.597541 1_555
Ni7 Te1 2.653565 1_655
N0 Ni7 1.801557 1_555
N0 Ni7 1.801557 1_556
N0 Ni1 1.921609 1_555
N0 Ni0 1.922200 1_545
N1 Ni6 1.801557 1_555
N1 Ni6 1.801557 1_556
N1 Ni0 1.921609 1_555
N1 Ni1 1.922200 1_565
N2 Ni5 1.801557 1_554
N2 Ni5 1.801557 1_555
N2 Ni3 1.921609 1_455
N2 Ni2 1.922200 1_555
N3 Ni4 1.801557 1_555
N3 Ni4 1.801557 1_554
N3 Ni2 1.921609 1_655
N3 Ni3 1.922200 1_555
