# generated using pymatgen
data_YV3O6
_symmetry_space_group_name_H-M   'P 1'
_cell_length_a   6.29544139
_cell_length_b   6.29544139
_cell_length_c   15.14286700
_cell_angle_alpha   90.00000000
_cell_angle_beta   90.00000000
_cell_angle_gamma   119.99999363
_symmetry_Int_Tables_number   1
_chemical_formula_structural   YV3O6
_chemical_formula_sum   'Y4 V12 O24'
_cell_volume   519.74597903
_cell_formula_units_Z   4
loop_
 _symmetry_equiv_pos_site_id
 _symmetry_equiv_pos_as_xyz
  1  'x, y, z'
loop_
 _atom_site_type_symbol
 _atom_site_label
 _atom_site_symmetry_multiplicity
 _atom_site_fract_x
 _atom_site_fract_y
 _atom_site_fract_z
 _atom_site_occupancy
  Y  Y0  1  0.33333300  0.66666700  0.05531500  1
  Y  Y1  1  0.00000000  0.00000000  0.37045500  1
  Y  Y2  1  0.66666700  0.33333300  0.94468500  1
  Y  Y3  1  0.00000000  0.00000000  0.62954500  1
  V  V0  1  0.17000600  0.34001100  0.83213300  1
  V  V1  1  0.82999400  0.65998900  0.16786700  1
  V  V2  1  0.50000000  0.00000000  0.50000000  1
  V  V3  1  0.17000600  0.82999400  0.83213300  1
  V  V4  1  0.82999400  0.17000600  0.16786700  1
  V  V5  1  0.50000000  0.50000000  0.50000000  1
  V  V6  1  0.00000000  0.00000000  0.00000000  1
  V  V7  1  0.66666700  0.33333300  0.32714800  1
  V  V8  1  0.33333300  0.66666700  0.67285200  1
  V  V9  1  0.65998900  0.82999400  0.83213300  1
  V  V10  1  0.34001100  0.17000600  0.16786700  1
  V  V11  1  0.00000000  0.50000000  0.50000000  1
  O  O0  1  0.33333300  0.66666700  0.91325700  1
  O  O1  1  0.00000000  0.00000000  0.23217800  1
  O  O2  1  0.66666700  0.33333300  0.55853300  1
  O  O3  1  0.28417400  0.14208700  0.91326700  1
  O  O4  1  0.95157900  0.47578900  0.23680900  1
  O  O5  1  0.62581400  0.81290700  0.58200000  1
  O  O6  1  0.85791300  0.71582600  0.91326700  1
  O  O7  1  0.52421100  0.04842100  0.23680900  1
  O  O8  1  0.18709300  0.37418600  0.58200000  1
  O  O9  1  0.85791300  0.14208700  0.91326700  1
  O  O10  1  0.52421100  0.47578900  0.23680900  1
  O  O11  1  0.18709300  0.81290700  0.58200000  1
  O  O12  1  0.71582600  0.85791300  0.08673300  1
  O  O13  1  0.37418600  0.18709300  0.41800000  1
  O  O14  1  0.04842100  0.52421100  0.76319100  1
  O  O15  1  0.66666700  0.33333300  0.08674300  1
  O  O16  1  0.33333300  0.66666700  0.44146700  1
  O  O17  1  0.00000000  0.00000000  0.76782200  1
  O  O18  1  0.14208700  0.28417400  0.08673300  1
  O  O19  1  0.81290700  0.62581400  0.41800000  1
  O  O20  1  0.47578900  0.95157900  0.76319100  1
  O  O21  1  0.14208700  0.85791300  0.08673300  1
  O  O22  1  0.81290700  0.18709300  0.41800000  1
  O  O23  1  0.47578900  0.52421100  0.76319100  1
loop_
_geom_bond_atom_site_label_1
_geom_bond_atom_site_label_2
_geom_bond_distance
_geom_bond_site_symmetry_2
O0 Y0 2.151165 1_556
O0 V3 2.163509 1_555
O0 V9 2.163518 1_555
O0 V0 2.163518 1_555
O1 Y1 2.093910 1_555
O1 V10 2.093981 1_555
O1 V1 2.093981 1_445
O1 V4 2.093986 1_455
O2 V2 2.021964 1_555
O2 V11 2.021964 1_655
O2 V5 2.021969 1_555
O3 V6 2.031102 1_556
O3 V0 2.115223 1_555
O3 V3 2.115228 1_545
O3 Y2 2.138939 1_555
O4 V4 1.976884 1_555
O4 V1 1.976893 1_555
O4 V7 2.069850 1_555
O5 V8 2.106062 1_555
O5 V2 2.118822 1_565
O5 V5 2.118822 1_555
O5 Y3 2.163383 1_665
O6 V6 2.031102 1_666
O6 V9 2.115223 1_555
O6 V3 2.115228 1_655
O6 Y2 2.138939 1_555
O7 V4 1.976884 1_555
O7 V10 1.976893 1_555
O7 V7 2.069850 1_555
O8 V8 2.106062 1_555
O8 V11 2.118822 1_555
O8 V5 2.118822 1_555
O8 Y3 2.163383 1_555
O9 V6 2.031102 1_656
O9 V9 2.115227 1_545
O9 V0 2.115227 1_655
O9 Y2 2.138933 1_555
O10 V10 1.976885 1_555
O10 V1 1.976885 1_555
O10 V7 2.069850 1_555
O11 V8 2.106058 1_555
O11 V11 2.118822 1_555
O11 V2 2.118822 1_565
O11 Y3 2.163383 1_565
O12 V6 2.031102 1_665
O12 V1 2.115223 1_555
O12 V4 2.115228 1_565
O12 Y0 2.138939 1_555
O13 V7 2.106062 1_555
O13 V2 2.118822 1_555
O13 V5 2.118822 1_555
O13 Y1 2.163383 1_555
O14 V3 1.976884 1_555
O14 V0 1.976893 1_555
O14 V8 2.069850 1_555
O15 Y2 2.151165 1_554
O15 V4 2.163509 1_555
O15 V1 2.163518 1_555
O15 V10 2.163518 1_555
O16 V2 2.021964 1_565
O16 V11 2.021964 1_555
O16 V5 2.021969 1_555
O17 Y3 2.093910 1_555
O17 V0 2.093981 1_555
O17 V9 2.093981 1_445
O17 V3 2.093986 1_545
O18 V6 2.031102 1_555
O18 V10 2.115223 1_555
O18 V4 2.115228 1_455
O18 Y0 2.138939 1_555
O19 V7 2.106062 1_555
O19 V11 2.118822 1_655
O19 V5 2.118822 1_555
O19 Y1 2.163383 1_665
O20 V3 1.976884 1_555
O20 V9 1.976893 1_555
O20 V8 2.069850 1_555
O21 V6 2.031102 1_565
O21 V1 2.115227 1_455
O21 V10 2.115227 1_565
O21 Y0 2.138933 1_555
O22 V7 2.106058 1_555
O22 V2 2.118822 1_555
O22 V11 2.118822 1_655
O22 Y1 2.163383 1_655
O23 V0 1.976885 1_555
O23 V9 1.976885 1_555
O23 V8 2.069850 1_555
