# generated using pymatgen
data_Ba3P3BrO10
_symmetry_space_group_name_H-M   'P 1'
_cell_length_a   7.34917600
_cell_length_b   11.46183100
_cell_length_c   14.22663100
_cell_angle_alpha   90.00000000
_cell_angle_beta   90.00000000
_cell_angle_gamma   90.00000000
_symmetry_Int_Tables_number   1
_chemical_formula_structural   Ba3P3BrO10
_chemical_formula_sum   'Ba12 P12 Br4 O40'
_cell_volume   1198.38045152
_cell_formula_units_Z   4
loop_
 _symmetry_equiv_pos_site_id
 _symmetry_equiv_pos_as_xyz
  1  'x, y, z'
loop_
 _atom_site_type_symbol
 _atom_site_label
 _atom_site_symmetry_multiplicity
 _atom_site_fract_x
 _atom_site_fract_y
 _atom_site_fract_z
 _atom_site_occupancy
  Ba  Ba0  1  0.88005000  0.74258800  0.09387500  1
  Ba  Ba1  1  0.61995000  0.25741200  0.59387500  1
  Ba  Ba2  1  0.38005000  0.75741200  0.90612500  1
  Ba  Ba3  1  0.11995000  0.24258800  0.40612500  1
  Ba  Ba4  1  0.85997000  0.25371700  0.11135900  1
  Ba  Ba5  1  0.64003000  0.74628300  0.61135900  1
  Ba  Ba6  1  0.35997000  0.24628300  0.88864100  1
  Ba  Ba7  1  0.14003000  0.75371700  0.38864100  1
  Ba  Ba8  1  0.62201700  0.99370100  0.32038600  1
  Ba  Ba9  1  0.87798300  0.00629900  0.82038600  1
  Ba  Ba10  1  0.12201700  0.50629900  0.67961400  1
  Ba  Ba11  1  0.37798300  0.49370100  0.17961400  1
  P  P0  1  0.91652100  0.50322100  0.24941700  1
  P  P1  1  0.58347900  0.49677900  0.74941700  1
  P  P2  1  0.41652100  0.99677900  0.75058300  1
  P  P3  1  0.08347900  0.00322100  0.25058300  1
  P  P4  1  0.81450100  0.51066700  0.45907300  1
  P  P5  1  0.68549900  0.48933300  0.95907300  1
  P  P6  1  0.31450100  0.98933300  0.54092700  1
  P  P7  1  0.18549900  0.01066700  0.04092700  1
  P  P8  1  0.38542700  0.51942500  0.47446100  1
  P  P9  1  0.11457300  0.48057500  0.97446100  1
  P  P10  1  0.88542700  0.98057500  0.52553900  1
  P  P11  1  0.61457300  0.01942500  0.02553900  1
  Br  Br0  1  0.47530100  0.76433600  0.20945200  1
  Br  Br1  1  0.02469900  0.23566400  0.70945200  1
  Br  Br2  1  0.97530100  0.73566400  0.79054800  1
  Br  Br3  1  0.52469900  0.26433600  0.29054800  1
  O  O0  1  0.97295500  0.89015300  0.24143700  1
  O  O1  1  0.52704500  0.10984700  0.74143700  1
  O  O2  1  0.47295500  0.60984700  0.75856300  1
  O  O3  1  0.02704500  0.39015300  0.25856300  1
  O  O4  1  0.96157400  0.11065700  0.26546900  1
  O  O5  1  0.53842600  0.88934300  0.76546900  1
  O  O6  1  0.46157400  0.38934300  0.73453100  1
  O  O7  1  0.03842600  0.61065700  0.23453100  1
  O  O8  1  0.84016200  0.10100600  0.48446200  1
  O  O9  1  0.65983800  0.89899400  0.98446200  1
  O  O10  1  0.34016200  0.39899400  0.51553800  1
  O  O11  1  0.15983800  0.60100600  0.01553800  1
  O  O12  1  0.82268700  0.87938300  0.46216500  1
  O  O13  1  0.67731300  0.12061700  0.96216500  1
  O  O14  1  0.32268700  0.62061700  0.53783500  1
  O  O15  1  0.17731300  0.37938300  0.03783500  1
  O  O16  1  0.81031800  0.52966200  0.34862200  1
  O  O17  1  0.68968200  0.47033800  0.84862200  1
  O  O18  1  0.31031800  0.97033800  0.65137800  1
  O  O19  1  0.18968200  0.02966200  0.15137800  1
  O  O20  1  0.73718000  0.50500900  0.67773500  1
  O  O21  1  0.76282000  0.49499100  0.17773500  1
  O  O22  1  0.23718000  0.99499100  0.32226500  1
  O  O23  1  0.26282000  0.00500900  0.82226500  1
  O  O24  1  0.63105000  0.61257500  0.98483500  1
  O  O25  1  0.86895000  0.38742500  0.48483500  1
  O  O26  1  0.13105000  0.88742500  0.01516500  1
  O  O27  1  0.36895000  0.11257500  0.51516500  1
  O  O28  1  0.60835600  0.53459100  0.48535900  1
  O  O29  1  0.89164400  0.46540900  0.98535900  1
  O  O30  1  0.10835600  0.96540900  0.51464100  1
  O  O31  1  0.39164400  0.03459100  0.01464100  1
  O  O32  1  0.42159700  0.89117500  0.49546100  1
  O  O33  1  0.07840300  0.10882500  0.99546100  1
  O  O34  1  0.92159700  0.60882500  0.50453900  1
  O  O35  1  0.57840300  0.39117500  0.00453900  1
  O  O36  1  0.33314700  0.53734100  0.37230200  1
  O  O37  1  0.16685300  0.46265900  0.87230200  1
  O  O38  1  0.83314700  0.96265900  0.62769800  1
  O  O39  1  0.66685300  0.03734100  0.12769800  1
loop_
_geom_bond_atom_site_label_1
_geom_bond_atom_site_label_2
_geom_bond_distance
_geom_bond_site_symmetry_2
Ba0 O26 2.722597 1_655
Ba0 O7 2.765076 1_655
Ba0 O0 2.781007 1_555
Ba0 O24 2.824146 1_554
Ba0 O11 2.846664 1_655
Ba0 O9 2.873299 1_554
Ba0 O21 3.196776 1_555
Ba0 Br0 3.407909 1_555
Ba1 O27 2.722597 1_555
Ba1 O6 2.765076 1_555
Ba1 O1 2.781007 1_555
Ba1 O25 2.824146 1_555
Ba1 O10 2.846664 1_555
Ba1 O8 2.873299 1_555
Ba1 O20 3.196776 1_555
Ba1 Br1 3.407909 1_655
Ba2 O24 2.722597 1_555
Ba2 O5 2.765076 1_555
Ba2 O2 2.781007 1_555
Ba2 O26 2.824146 1_556
Ba2 O9 2.846664 1_555
Ba2 O11 2.873299 1_556
Ba2 O23 3.196776 1_565
Ba2 Br2 3.407909 1_455
Ba3 O25 2.722597 1_455
Ba3 O4 2.765076 1_455
Ba3 O3 2.781007 1_555
Ba3 O27 2.824146 1_555
Ba3 O8 2.846664 1_455
Ba3 O10 2.873299 1_555
Ba3 O22 3.196776 1_545
Ba3 Br3 3.407909 1_555
Ba4 O4 2.837814 1_555
Ba4 O33 2.837901 1_654
Ba4 O39 2.866885 1_555
Ba4 O3 2.887713 1_655
Ba4 O15 2.933932 1_655
Ba4 O13 2.938447 1_554
Ba4 O21 3.008179 1_555
Ba4 O35 3.012252 1_555
Ba4 O29 3.025682 1_554
Ba4 Br3 3.547484 1_555
Ba5 O5 2.837814 1_555
Ba5 O32 2.837901 1_555
Ba5 O38 2.866885 1_555
Ba5 O2 2.887713 1_555
Ba5 O14 2.933932 1_555
Ba5 O12 2.938447 1_555
Ba5 O20 3.008179 1_555
Ba5 O34 3.012252 1_555
Ba5 O28 3.025682 1_555
Ba5 Br2 3.547484 1_555
Ba6 O6 2.837814 1_555
Ba6 O35 2.837901 1_556
Ba6 O37 2.866885 1_555
Ba6 O1 2.887713 1_555
Ba6 O13 2.933932 1_555
Ba6 O15 2.938447 1_556
Ba6 O23 3.008179 1_555
Ba6 O33 3.012252 1_555
Ba6 O31 3.025682 1_556
Ba6 Br1 3.547484 1_555
Ba7 O7 2.837814 1_555
Ba7 O34 2.837901 1_455
Ba7 O36 2.866885 1_555
Ba7 O0 2.887713 1_455
Ba7 O12 2.933932 1_455
Ba7 O14 2.938447 1_555
Ba7 O22 3.008179 1_555
Ba7 O32 3.012252 1_555
Ba7 O30 3.025682 1_555
Ba7 Br0 3.547484 1_555
Ba8 O39 2.805976 1_565
Ba8 O12 2.821387 1_555
Ba8 O22 2.828400 1_555
Ba8 O4 2.938497 1_565
Ba8 O0 3.053183 1_555
Ba8 O8 3.087330 1_565
Ba8 O32 3.123166 1_555
Ba8 Br3 3.211534 1_565
Ba8 Br0 3.250341 1_555
Ba9 O38 2.805976 1_545
Ba9 O13 2.821387 1_555
Ba9 O23 2.828400 1_655
Ba9 O5 2.938497 1_545
Ba9 O1 3.053183 1_555
Ba9 O9 3.087330 1_545
Ba9 O33 3.123166 1_655
Ba9 Br2 3.211534 1_545
Ba9 Br1 3.250341 1_655
Ba10 O37 2.805976 1_555
Ba10 O14 2.821387 1_555
Ba10 O20 2.828400 1_455
Ba10 O6 2.938497 1_555
Ba10 O2 3.053183 1_555
Ba10 O10 3.087330 1_555
Ba10 O34 3.123166 1_455
Ba10 Br1 3.211534 1_555
Ba10 Br2 3.250341 1_455
Ba11 O36 2.805976 1_555
Ba11 O15 2.821387 1_555
Ba11 O21 2.828400 1_555
Ba11 O7 2.938497 1_555
Ba11 O3 3.053183 1_555
Ba11 O11 3.087330 1_555
Ba11 O35 3.123166 1_555
Ba11 Br0 3.211534 1_555
Ba11 Br3 3.250341 1_555
O0 P3 1.535000 1_665
O1 P2 1.535000 1_545
O2 P1 1.535000 1_555
O3 P0 1.535000 1_455
O4 P3 1.537487 1_655
O5 P2 1.537487 1_555
O6 P1 1.537487 1_555
O7 P0 1.537487 1_455
O8 P10 1.535436 1_545
O9 P11 1.535436 1_566
O10 P8 1.535436 1_555
O11 P9 1.535436 1_554
O12 P10 1.539715 1_555
O13 P11 1.539715 1_556
O14 P8 1.539715 1_555
O15 P9 1.539715 1_554
O16 P4 1.586655 1_555
O16 P0 1.641021 1_555
O17 P5 1.586655 1_555
O17 P1 1.641021 1_555
O18 P6 1.586655 1_555
O18 P2 1.641021 1_555
O19 P7 1.586655 1_555
O19 P3 1.641021 1_555
O20 P1 1.524735 1_555
O21 P0 1.524735 1_555
O22 P3 1.524735 1_565
O23 P2 1.524735 1_545
O24 P5 1.513219 1_555
O25 P4 1.513219 1_555
O26 P7 1.513219 1_565
O27 P6 1.513219 1_545
O28 P4 1.584378 1_555
O28 P8 1.654819 1_555
O29 P5 1.584378 1_555
O29 P9 1.654819 1_655
O30 P6 1.584378 1_555
O30 P10 1.654819 1_455
O31 P7 1.584378 1_555
O31 P11 1.654819 1_555
O32 P6 1.517776 1_555
O33 P7 1.517776 1_556
O34 P4 1.517776 1_555
O35 P5 1.517776 1_554
O36 P8 1.517267 1_555
O37 P9 1.517267 1_555
O38 P10 1.517267 1_555
O39 P11 1.517267 1_555
