# generated using pymatgen
data_Ba4Mn2Ag2As4O17
_symmetry_space_group_name_H-M   'P 1'
_cell_length_a   5.99322900
_cell_length_b   8.88732296
_cell_length_c   9.62910461
_cell_angle_alpha   64.76600426
_cell_angle_beta   89.66569999
_cell_angle_gamma   89.74077527
_symmetry_Int_Tables_number   1
_chemical_formula_structural   Ba4Mn2Ag2As4O17
_chemical_formula_sum   'Ba4 Mn2 Ag2 As4 O17'
_cell_volume   463.93108502
_cell_formula_units_Z   1
loop_
 _symmetry_equiv_pos_site_id
 _symmetry_equiv_pos_as_xyz
  1  'x, y, z'
loop_
 _atom_site_type_symbol
 _atom_site_label
 _atom_site_symmetry_multiplicity
 _atom_site_fract_x
 _atom_site_fract_y
 _atom_site_fract_z
 _atom_site_occupancy
  Ba  Ba0  1  0.23955100  0.22048800  0.89386400  1
  Ba  Ba1  1  0.76751200  0.78332100  0.09635000  1
  Ba  Ba2  1  0.24806600  0.76390800  0.76633400  1
  Ba  Ba3  1  0.76422700  0.24461400  0.23100400  1
  Mn  Mn0  1  0.49502100  0.50135900  0.49929600  1
  Mn  Mn1  1  0.99880000  0.50311100  0.49855000  1
  Ag  Ag0  1  0.25344200  0.16592900  0.49857400  1
  Ag  Ag1  1  0.74887700  0.83408400  0.49652300  1
  As  As0  1  0.25282000  0.50774200  0.17932400  1
  As  As1  1  0.74663800  0.48951800  0.82253000  1
  As  As2  1  0.27941000  0.90503800  0.29476700  1
  As  As3  1  0.75939800  0.09697600  0.69312200  1
  O  O0  1  0.49238700  0.46277200  0.29194800  1
  O  O1  1  0.98959300  0.53316700  0.71247800  1
  O  O2  1  0.50732900  0.53545800  0.70951700  1
  O  O3  1  0.00835500  0.46355100  0.28886000  1
  O  O4  1  0.25333900  0.38406900  0.08297500  1
  O  O5  1  0.74849800  0.61289800  0.91929400  1
  O  O6  1  0.24652800  0.35645500  0.58144500  1
  O  O7  1  0.74471200  0.64339800  0.41460700  1
  O  O8  1  0.24991800  0.71646600  0.06014000  1
  O  O9  1  0.74414900  0.28101100  0.94367100  1
  O  O10  1  0.24232400  0.68035800  0.40525900  1
  O  O11  1  0.75244400  0.31539800  0.60315200  1
  O  O12  1  0.79973100  0.04903800  0.53798900  1
  O  O13  1  0.30212700  0.95237100  0.45757800  1
  O  O14  1  0.98150600  0.01748400  0.81542100  1
  O  O15  1  0.52228200  0.01558200  0.79816100  1
  O  O16  1  0.01711700  0.98143400  0.21066800  1
loop_
_geom_bond_atom_site_label_1
_geom_bond_atom_site_label_2
_geom_bond_distance
_geom_bond_site_symmetry_2
Ba0 O6 2.722389 1_555
Ba0 O14 2.723613 1_455
Ba0 O4 2.774224 1_556
Ba0 O15 2.901976 1_555
Ba0 O1 2.978501 1_455
Ba0 O2 3.054999 1_555
Ba0 O9 3.086021 1_455
Ba0 O9 3.149055 1_555
Ba0 O16 3.169999 1_546
Ba1 O5 2.723819 1_554
Ba1 O7 2.775571 1_555
Ba1 O16 2.871439 1_655
Ba1 O14 2.911535 1_564
Ba1 O8 2.997130 1_655
Ba1 O3 3.016370 1_655
Ba1 O15 3.103803 1_564
Ba1 O0 3.132627 1_555
Ba1 O8 3.209877 1_555
Ba2 O8 2.676736 1_556
Ba2 O13 2.738106 1_555
Ba2 O2 2.782885 1_555
Ba2 O1 2.796193 1_455
Ba2 O15 2.901943 1_565
Ba2 O14 2.953167 1_465
Ba3 O9 2.648495 1_554
Ba3 O3 2.682644 1_655
Ba3 O12 2.725349 1_555
Ba3 O0 2.772750 1_555
Ba3 O16 2.856782 1_645
Mn0 O7 1.903429 1_555
Mn0 O6 1.907132 1_555
Mn0 O10 2.100061 1_555
Mn0 O0 2.165266 1_555
Mn0 O11 2.167356 1_555
Mn0 O2 2.172513 1_555
Mn1 O6 1.910368 1_655
Mn1 O7 1.914332 1_555
Mn1 O10 2.053650 1_655
Mn1 O11 2.133029 1_555
Mn1 O1 2.187562 1_555
Mn1 O3 2.192603 1_655
Ag0 O13 2.115579 1_545
Ag0 O6 2.157932 1_555
Ag1 O12 2.135150 1_565
Ag1 O7 2.152932 1_555
As0 O4 1.714113 1_555
As0 O8 1.715573 1_555
As0 O0 1.743759 1_555
As0 O3 1.745655 1_555
As1 O5 1.715222 1_555
As1 O9 1.718077 1_555
As1 O1 1.740758 1_555
As1 O2 1.744139 1_555
As2 O16 1.767565 1_555
As2 O13 1.794035 1_555
As2 O10 1.832608 1_555
As3 O15 1.713029 1_555
As3 O14 1.719966 1_555
As3 O12 1.734600 1_555
As3 O11 1.756782 1_555
