# generated using pymatgen
data_LiZnBP2O11
_symmetry_space_group_name_H-M   'P 1'
_cell_length_a   9.64888789
_cell_length_b   9.64888789
_cell_length_c   15.40194900
_cell_angle_alpha   90.00000000
_cell_angle_beta   90.00000000
_cell_angle_gamma   119.99999925
_symmetry_Int_Tables_number   1
_chemical_formula_structural   LiZnBP2O11
_chemical_formula_sum   'Li6 Zn6 B6 P12 O66'
_cell_volume   1241.82625278
_cell_formula_units_Z   6
loop_
 _symmetry_equiv_pos_site_id
 _symmetry_equiv_pos_as_xyz
  1  'x, y, z'
loop_
 _atom_site_type_symbol
 _atom_site_label
 _atom_site_symmetry_multiplicity
 _atom_site_fract_x
 _atom_site_fract_y
 _atom_site_fract_z
 _atom_site_occupancy
  Li  Li0  1  0.69785700  0.88838200  0.54222300  1
  Li  Li1  1  0.19052500  0.30214300  0.20889000  1
  Li  Li2  1  0.30214300  0.11161800  0.04222300  1
  Li  Li3  1  0.11161800  0.80947500  0.87555600  1
  Li  Li4  1  0.80947500  0.69785700  0.70889000  1
  Li  Li5  1  0.88838200  0.19052500  0.37555600  1
  Zn  Zn0  1  0.93662800  0.47093600  0.45821500  1
  Zn  Zn1  1  0.53430700  0.06337200  0.12488200  1
  Zn  Zn2  1  0.06337200  0.52906400  0.95821500  1
  Zn  Zn3  1  0.52906400  0.46569300  0.79154900  1
  Zn  Zn4  1  0.46569300  0.93662800  0.62488200  1
  Zn  Zn5  1  0.47093600  0.53430700  0.29154900  1
  B  B0  1  0.68239300  0.84582200  0.96015200  1
  B  B1  1  0.16342900  0.31760700  0.62681900  1
  B  B2  1  0.31760700  0.15417800  0.46015200  1
  B  B3  1  0.15417800  0.83657100  0.29348600  1
  B  B4  1  0.83657100  0.68239300  0.12681900  1
  B  B5  1  0.84582200  0.16342900  0.79348600  1
  P  P0  1  0.77206300  0.16623400  0.96485300  1
  P  P1  1  0.39417200  0.22793700  0.63152000  1
  P  P2  1  0.22793700  0.83376600  0.46485300  1
  P  P3  1  0.83376600  0.60582800  0.29818600  1
  P  P4  1  0.60582800  0.77206300  0.13152000  1
  P  P5  1  0.16623400  0.39417200  0.79818600  1
  P  P6  1  0.61527600  0.84620300  0.78637700  1
  P  P7  1  0.23092800  0.38472400  0.45304300  1
  P  P8  1  0.38472400  0.15379700  0.28637700  1
  P  P9  1  0.15379700  0.76907200  0.11971000  1
  P  P10  1  0.76907200  0.61527600  0.95304300  1
  P  P11  1  0.84620300  0.23092800  0.61971000  1
  O  O0  1  0.92474800  0.31019100  0.99870700  1
  O  O1  1  0.38544300  0.07525200  0.66537400  1
  O  O2  1  0.07525200  0.68980900  0.49870700  1
  O  O3  1  0.68980900  0.61455700  0.33204100  1
  O  O4  1  0.61455700  0.92474800  0.16537400  1
  O  O5  1  0.31019100  0.38544300  0.83204100  1
  O  O6  1  0.50817600  0.74153400  0.61135700  1
  O  O7  1  0.23335900  0.49182400  0.27802400  1
  O  O8  1  0.49182400  0.25846600  0.11135700  1
  O  O9  1  0.25846600  0.76664100  0.94469000  1
  O  O10  1  0.76664100  0.50817600  0.77802400  1
  O  O11  1  0.74153400  0.23335900  0.44469000  1
  O  O12  1  0.48369400  0.87023800  0.74520300  1
  O  O13  1  0.38654500  0.51630600  0.41187000  1
  O  O14  1  0.51630600  0.12976200  0.24520300  1
  O  O15  1  0.12976200  0.61345500  0.07853700  1
  O  O16  1  0.61345500  0.48369400  0.91187000  1
  O  O17  1  0.87023800  0.38654500  0.57853700  1
  O  O18  1  0.75289500  0.17948400  0.86464300  1
  O  O19  1  0.42659000  0.24710500  0.53131000  1
  O  O20  1  0.24710500  0.82051600  0.36464300  1
  O  O21  1  0.82051600  0.57341000  0.19797700  1
  O  O22  1  0.57341000  0.75289500  0.03131000  1
  O  O23  1  0.17948400  0.42659000  0.69797700  1
  O  O24  1  0.26342300  0.39584800  0.01784700  1
  O  O25  1  0.13242500  0.73657700  0.68451400  1
  O  O26  1  0.73657700  0.60415200  0.51784700  1
  O  O27  1  0.60415200  0.86757500  0.35118000  1
  O  O28  1  0.86757500  0.26342300  0.18451400  1
  O  O29  1  0.39584800  0.13242500  0.85118000  1
  O  O30  1  0.78679800  0.99245600  0.77091200  1
  O  O31  1  0.20565800  0.21320200  0.43757900  1
  O  O32  1  0.21320200  0.00754400  0.27091200  1
  O  O33  1  0.00754400  0.79434200  0.10424600  1
  O  O34  1  0.79434200  0.78679800  0.93757900  1
  O  O35  1  0.99245600  0.20565800  0.60424600  1
  O  O36  1  0.61804200  0.14362700  0.00767800  1
  O  O37  1  0.52558400  0.38195800  0.67434500  1
  O  O38  1  0.38195800  0.85637300  0.50767800  1
  O  O39  1  0.85637300  0.47441600  0.34101100  1
  O  O40  1  0.47441600  0.61804200  0.17434500  1
  O  O41  1  0.14362700  0.52558400  0.84101100  1
  O  O42  1  0.72589600  0.92598000  0.39693600  1
  O  O43  1  0.20008400  0.27410400  0.06360300  1
  O  O44  1  0.27410400  0.07402000  0.89693600  1
  O  O45  1  0.07402000  0.79991600  0.73026900  1
  O  O46  1  0.79991600  0.72589600  0.56360300  1
  O  O47  1  0.92598000  0.20008400  0.23026900  1
  O  O48  1  0.57663900  0.82154900  0.88477500  1
  O  O49  1  0.24491000  0.42336100  0.55144100  1
  O  O50  1  0.42336100  0.17845100  0.38477500  1
  O  O51  1  0.17845100  0.75509000  0.21810800  1
  O  O52  1  0.75509000  0.57663900  0.05144100  1
  O  O53  1  0.82154900  0.24491000  0.71810800  1
  O  O54  1  0.78864200  0.01470100  0.98246700  1
  O  O55  1  0.22606000  0.21135800  0.64913400  1
  O  O56  1  0.21135800  0.98529900  0.48246700  1
  O  O57  1  0.98529900  0.77394000  0.31580100  1
  O  O58  1  0.77394000  0.78864200  0.14913400  1
  O  O59  1  0.01470100  0.22606000  0.81580100  1
  O  O60  1  0.62507900  0.70306100  0.74784400  1
  O  O61  1  0.07798200  0.37492100  0.41451000  1
  O  O62  1  0.37492100  0.29693900  0.24784400  1
  O  O63  1  0.29693900  0.92201800  0.08117700  1
  O  O64  1  0.92201800  0.62507900  0.91451000  1
  O  O65  1  0.70306100  0.07798200  0.58117700  1
loop_
_geom_bond_atom_site_label_1
_geom_bond_atom_site_label_2
_geom_bond_distance
_geom_bond_site_symmetry_2
Li0 O65 1.901955 1_565
Li0 O6 1.974302 1_555
Li0 O46 2.253911 1_555
Li0 O42 2.261409 1_555
Li1 O62 1.901955 1_555
Li1 O7 1.974299 1_555
Li1 O47 2.253908 1_455
Li1 O43 2.261409 1_555
Li2 O63 1.901955 1_545
Li2 O8 1.974302 1_555
Li2 O43 2.253911 1_555
Li2 O44 2.261409 1_554
Li3 O64 1.901955 1_455
Li3 O9 1.974307 1_555
Li3 O44 2.253911 1_565
Li3 O45 2.261409 1_555
Li4 O60 1.901955 1_555
Li4 O10 1.974299 1_555
Li4 O45 2.253908 1_655
Li4 O46 2.261409 1_555
Li5 O61 1.901955 1_655
Li5 O11 1.974307 1_555
Li5 O42 2.253911 1_545
Li5 O47 2.261409 1_555
B0 O54 1.467600 1_565
B0 O22 1.472424 1_556
B0 O48 1.484894 1_555
B0 O34 1.492380 1_555
B1 O55 1.467607 1_555
B1 O23 1.472427 1_555
B1 O49 1.484906 1_555
B1 O35 1.492380 1_455
B2 O56 1.467600 1_545
B2 O19 1.472424 1_555
B2 O50 1.484894 1_555
B2 O31 1.492380 1_555
B3 O57 1.467598 1_455
B3 O20 1.472409 1_555
B3 O51 1.484906 1_555
B3 O32 1.492384 1_565
B4 O58 1.467607 1_555
B4 O21 1.472427 1_555
B4 O52 1.484906 1_555
B4 O33 1.492380 1_655
B5 O59 1.467598 1_655
B5 O18 1.472409 1_555
B5 O53 1.484906 1_555
B5 O30 1.492384 1_545
O0 P0 1.524905 1_555
O0 Zn2 1.952765 1_655
O1 P1 1.524901 1_555
O1 Zn4 1.952772 1_545
O2 P2 1.524905 1_555
O2 Zn0 1.952765 1_455
O3 P3 1.524916 1_555
O3 Zn5 1.952764 1_555
O4 P4 1.524901 1_555
O4 Zn1 1.952772 1_565
O5 P5 1.524916 1_555
O5 Zn3 1.952764 1_555
O6 Zn4 2.127591 1_555
O7 Zn5 2.127591 1_555
O8 Zn1 2.127591 1_555
O9 Zn2 2.127591 1_555
O10 Zn3 2.127591 1_555
O11 Zn0 2.127591 1_555
O12 P6 1.536982 1_555
O12 Zn4 1.996511 1_555
O13 P7 1.536976 1_555
O13 Zn5 1.996511 1_555
O14 P8 1.536982 1_555
O14 Zn1 1.996511 1_555
O15 P9 1.536976 1_555
O15 Zn2 1.996525 1_554
O16 P10 1.536976 1_555
O16 Zn3 1.996511 1_555
O17 P11 1.536976 1_555
O17 Zn0 1.996525 1_555
O18 P0 1.567281 1_555
O19 P1 1.567281 1_555
O20 P2 1.567281 1_555
O21 P3 1.567266 1_555
O22 P4 1.567281 1_555
O23 P5 1.567266 1_555
O24 O43 1.237798 1_555
O25 O45 1.237789 1_555
O26 O46 1.237798 1_555
O27 O42 1.237798 1_555
O28 O47 1.237789 1_555
O29 O44 1.237798 1_555
O30 P6 1.565784 1_555
O31 P7 1.565778 1_555
O32 P8 1.565784 1_555
O33 P9 1.565787 1_555
O34 P10 1.565778 1_555
O35 P11 1.565787 1_555
O36 P0 1.538523 1_554
O36 Zn1 1.971147 1_555
O37 P1 1.538516 1_555
O37 Zn3 1.971147 1_555
O38 P2 1.538523 1_555
O38 Zn4 1.971147 1_555
O39 P3 1.538505 1_555
O39 Zn0 1.971147 1_555
O40 P4 1.538516 1_555
O40 Zn5 1.971147 1_555
O41 P5 1.538505 1_555
O41 Zn2 1.971147 1_555
O48 P6 1.550384 1_555
O49 P7 1.550385 1_555
O50 P8 1.550384 1_555
O51 P9 1.550383 1_555
O52 P10 1.550385 1_554
O53 P11 1.550383 1_555
O54 P0 1.571907 1_555
O55 P1 1.571907 1_555
O56 P2 1.571907 1_555
O57 P3 1.571910 1_555
O58 P4 1.571907 1_555
O59 P5 1.571910 1_555
O60 P6 1.549005 1_555
O60 Zn3 2.105991 1_555
O61 P7 1.549014 1_555
O61 Zn0 2.105999 1_455
O62 P8 1.549005 1_555
O62 Zn5 2.105991 1_555
O63 P9 1.549010 1_555
O63 Zn1 2.105992 1_565
O64 P10 1.549014 1_555
O64 Zn2 2.105999 1_655
O65 P11 1.549010 1_555
O65 Zn4 2.105992 1_545
