# generated using pymatgen
data_CaTb4Al2(FeO6)2
_symmetry_space_group_name_H-M   'P 1'
_cell_length_a   5.76147529
_cell_length_b   6.03614572
_cell_length_c   7.37457459
_cell_angle_alpha   89.32043260
_cell_angle_beta   91.31105023
_cell_angle_gamma   96.87469669
_symmetry_Int_Tables_number   1
_chemical_formula_structural   CaTb4Al2(FeO6)2
_chemical_formula_sum   'Ca1 Tb4 Al2 Fe2 O12'
_cell_volume   254.54502849
_cell_formula_units_Z   1
loop_
 _symmetry_equiv_pos_site_id
 _symmetry_equiv_pos_as_xyz
  1  'x, y, z'
loop_
 _atom_site_type_symbol
 _atom_site_label
 _atom_site_symmetry_multiplicity
 _atom_site_fract_x
 _atom_site_fract_y
 _atom_site_fract_z
 _atom_site_occupancy
  Ca  Ca0  1  0.89042000  0.20590800  0.84531600  1
  Tb  Tb0  1  0.48565100  0.56754200  0.25145400  1
  Tb  Tb1  1  0.04911800  0.06131700  0.25370500  1
  Tb  Tb2  1  0.46093600  0.42124500  0.75026200  1
  Tb  Tb3  1  0.15529400  0.87189700  0.69907900  1
  Al  Al0  1  0.97147300  0.48690300  0.48906600  1
  Al  Al1  1  0.48656500  0.99429100  0.01420900  1
  Fe  Fe0  1  0.96244300  0.60356000  0.03535700  1
  Fe  Fe1  1  0.61112600  0.00994700  0.47898500  1
  O  O0  1  0.40457800  0.94707300  0.25875600  1
  O  O1  1  0.08765500  0.44170900  0.25229600  1
  O  O2  1  0.54171400  0.04095000  0.74738200  1
  O  O3  1  0.88824400  0.56021600  0.74862200  1
  O  O4  1  0.77397800  0.87958600  0.05673300  1
  O  O5  1  0.66430500  0.34775600  0.46008900  1
  O  O6  1  0.09553800  0.20991700  0.57217800  1
  O  O7  1  0.32095900  0.69067600  0.95192400  1
  O  O8  1  0.21640600  0.12404800  0.96033400  1
  O  O9  1  0.30303600  0.63230600  0.53864300  1
  O  O10  1  0.86686300  0.78328200  0.43341300  1
  O  O11  1  0.63870100  0.33415700  0.04148200  1
loop_
_geom_bond_atom_site_label_1
_geom_bond_atom_site_label_2
_geom_bond_distance
_geom_bond_site_symmetry_2
Ca0 O8 2.151842 1_655
Ca0 O2 2.240788 1_555
Ca0 O3 2.247736 1_555
Ca0 O11 2.277428 1_556
Ca0 O6 2.356996 1_655
Ca0 O4 2.533652 1_546
Al0 O5 1.874621 1_555
Al0 O1 1.918274 1_655
Al0 O6 1.980830 1_655
Al0 O10 1.990368 1_555
Al0 O9 2.031618 1_655
Al0 O3 2.050001 1_555
Al1 O8 1.857475 1_564
Al1 O0 1.884485 1_555
Al1 O4 1.888218 1_555
Al1 O2 2.011543 1_564
Al1 O7 2.015270 1_554
Al1 O11 2.142094 1_565
Fe0 O1 2.028095 1_655
Fe0 O4 2.104057 1_555
Fe0 O3 2.160440 1_554
Fe0 O7 2.170753 1_654
Fe0 O11 2.324112 1_555
Fe1 O0 2.003978 1_545
Fe1 O5 2.028972 1_555
Fe1 O2 2.043419 1_555
Fe1 O10 2.161484 1_545
O0 Tb1 2.237212 1_565
O0 Tb0 2.393653 1_555
O1 Tb1 2.280128 1_555
O1 Tb0 2.327786 1_555
O2 Tb3 2.356535 1_545
O2 Tb2 2.396624 1_555
O3 Tb3 2.314458 1_655
O3 Tb2 2.504318 1_555
O4 Tb1 2.311352 1_665
O4 Tb0 2.768624 1_555
O5 Tb0 2.322240 1_555
O5 Tb2 2.531902 1_555
O6 Tb3 2.294654 1_545
O6 Tb1 2.521075 1_555
O6 Tb2 2.655983 1_555
O7 Tb3 2.388417 1_555
O7 Tb2 2.435828 1_555
O7 Tb0 2.523098 1_556
O8 Tb1 2.396170 1_556
O8 Tb3 2.462255 1_545
O8 Tb2 2.651779 1_555
O9 Tb3 2.144129 1_555
O9 Tb2 2.247552 1_555
O9 Tb0 2.442409 1_555
O10 Tb1 2.294462 1_665
O10 Tb3 2.559119 1_655
O10 Tb0 2.746313 1_555
O11 Tb0 2.360391 1_555
O11 Tb2 2.437015 1_554
