# generated using pymatgen
data_SrCa2Yb10O18
_symmetry_space_group_name_H-M   'P 1'
_cell_length_a   3.43086600
_cell_length_b   17.31181216
_cell_length_c   17.34575402
_cell_angle_alpha   60.40515203
_cell_angle_beta   88.30390067
_cell_angle_gamma   88.40135803
_symmetry_Int_Tables_number   1
_chemical_formula_structural   SrCa2Yb10O18
_chemical_formula_sum   'Sr2 Ca4 Yb20 O36'
_cell_volume   895.33938214
_cell_formula_units_Z   2
loop_
 _symmetry_equiv_pos_site_id
 _symmetry_equiv_pos_as_xyz
  1  'x, y, z'
loop_
 _atom_site_type_symbol
 _atom_site_label
 _atom_site_symmetry_multiplicity
 _atom_site_fract_x
 _atom_site_fract_y
 _atom_site_fract_z
 _atom_site_occupancy
  Sr  Sr0  1  0.26209400  0.33287600  0.33325200  1
  Sr  Sr1  1  0.76083200  0.66587000  0.66615900  1
  Ca  Ca0  1  0.24535500  0.31957300  0.65551800  1
  Ca  Ca1  1  0.76279000  0.34669400  0.97393500  1
  Ca  Ca2  1  0.74305000  0.97386100  0.68195200  1
  Ca  Ca3  1  0.76749100  0.68129400  0.34520700  1
  Yb  Yb0  1  0.75107700  0.44499100  0.75248200  1
  Yb  Yb1  1  0.75937000  0.75294800  0.80017800  1
  Yb  Yb2  1  0.76258300  0.80094800  0.44733400  1
  Yb  Yb3  1  0.26696900  0.55319100  0.24859900  1
  Yb  Yb4  1  0.26663100  0.24820800  0.19960300  1
  Yb  Yb5  1  0.24406400  0.19970800  0.55111500  1
  Yb  Yb6  1  0.75209100  0.09870100  0.44446100  1
  Yb  Yb7  1  0.76943000  0.44532800  0.45508800  1
  Yb  Yb8  1  0.74896800  0.45761400  0.09880300  1
  Yb  Yb9  1  0.24771200  0.89858500  0.55489400  1
  Yb  Yb10  1  0.25373900  0.55491900  0.54519400  1
  Yb  Yb11  1  0.27188900  0.54763500  0.89819700  1
  Yb  Yb12  1  0.76060000  0.75793300  0.12997800  1
  Yb  Yb13  1  0.80952900  0.12911100  0.11404200  1
  Yb  Yb14  1  0.71449900  0.11164200  0.75616700  1
  Yb  Yb15  1  0.24677600  0.24045500  0.87193200  1
  Yb  Yb16  1  0.23079300  0.86914500  0.88978600  1
  Yb  Yb17  1  0.28953600  0.88846100  0.24355500  1
  Yb  Yb18  1  0.25438800  0.65644300  0.02448300  1
  Yb  Yb19  1  0.26662400  0.02415300  0.31996100  1
  O  O0  1  0.72699500  0.96277700  0.82987500  1
  O  O1  1  0.80389000  0.82909300  0.20745800  1
  O  O2  1  0.73428400  0.20808000  0.96754800  1
  O  O3  1  0.31104700  0.03638000  0.17742700  1
  O  O4  1  0.19845600  0.17288300  0.79091000  1
  O  O5  1  0.27076500  0.78704000  0.03676600  1
  O  O6  1  0.75403500  0.32392900  0.22241900  1
  O  O7  1  0.75757200  0.22494500  0.45052200  1
  O  O8  1  0.76759500  0.45301000  0.32191700  1
  O  O9  1  0.26900400  0.67855100  0.77328400  1
  O  O10  1  0.25323100  0.77271800  0.54851600  1
  O  O11  1  0.25423400  0.54599000  0.67864000  1
  O  O12  1  0.74112900  0.75643200  0.93007600  1
  O  O13  1  0.76917800  0.92972100  0.31437600  1
  O  O14  1  0.75808900  0.30735800  0.76341000  1
  O  O15  1  0.30674300  0.23870600  0.07329700  1
  O  O16  1  0.23325200  0.07299500  0.68454000  1
  O  O17  1  0.25372300  0.68945300  0.23913800  1
  O  O18  1  0.74803400  0.65250400  0.49842800  1
  O  O19  1  0.78781800  0.49951800  0.84711800  1
  O  O20  1  0.73790100  0.84933100  0.65217300  1
  O  O21  1  0.27576800  0.34725400  0.50281400  1
  O  O22  1  0.23393200  0.50827100  0.14693400  1
  O  O23  1  0.26105600  0.14801600  0.34639900  1
  O  O24  1  0.76965700  0.13538700  0.24454500  1
  O  O25  1  0.73425100  0.24055700  0.61978600  1
  O  O26  1  0.76773300  0.62052900  0.13705300  1
  O  O27  1  0.25302000  0.86129700  0.76123900  1
  O  O28  1  0.27148800  0.76160400  0.37814900  1
  O  O29  1  0.24652700  0.37820400  0.86104000  1
  O  O30  1  0.75615600  0.44537100  0.59163400  1
  O  O31  1  0.76005000  0.59627100  0.96184300  1
  O  O32  1  0.75710100  0.96136800  0.44305800  1
  O  O33  1  0.26538600  0.55487200  0.40970800  1
  O  O34  1  0.25964600  0.41412000  0.03212000  1
  O  O35  1  0.24238000  0.03517900  0.55396200  1
loop_
_geom_bond_atom_site_label_1
_geom_bond_atom_site_label_2
_geom_bond_distance
_geom_bond_site_symmetry_2
Ca0 O25 2.390951 1_555
Ca0 O14 2.405300 1_455
Ca0 O21 2.447281 1_555
Ca0 O4 2.469793 1_555
Ca0 O30 2.512005 1_455
Ca0 O25 2.523052 1_455
Ca0 O14 2.534730 1_555
Ca0 O30 2.599284 1_555
Ca1 O29 2.385313 1_655
Ca1 O15 2.394692 1_556
Ca1 O2 2.461002 1_555
Ca1 O19 2.469594 1_555
Ca1 O34 2.511776 1_556
Ca1 O29 2.523066 1_555
Ca1 O34 2.581361 1_656
Ca1 O15 2.600278 1_656
Ca2 O16 2.431143 1_565
Ca2 O27 2.431900 1_555
Ca2 O20 2.453028 1_555
Ca2 O16 2.453047 1_665
Ca2 O27 2.460717 1_655
Ca2 O0 2.475740 1_555
Ca2 O35 2.557148 1_665
Ca2 O35 2.608153 1_565
Ca3 O28 2.398005 1_555
Ca3 O17 2.400551 1_655
Ca3 O18 2.449366 1_555
Ca3 O28 2.495340 1_655
Ca3 O1 2.496605 1_555
Ca3 O17 2.536413 1_555
Ca3 O33 2.538825 1_655
Ca3 O33 2.585908 1_555
O0 Yb16 2.231852 1_655
O0 Yb16 2.234053 1_555
O0 Yb14 2.240676 1_565
O1 Yb12 2.236780 1_555
O1 Yb17 2.239965 1_655
O1 Yb17 2.243090 1_555
O2 Yb13 2.231690 1_556
O2 Yb15 2.248581 1_555
O2 Yb15 2.262886 1_655
O3 Yb13 2.227343 1_455
O3 Yb17 2.232234 1_545
O3 Yb13 2.238154 1_555
O3 Yb19 2.375539 1_555
O4 Yb15 2.240416 1_555
O4 Yb14 2.243350 1_455
O4 Yb14 2.254984 1_555
O5 Yb16 2.229235 1_554
O5 Yb12 2.236340 1_555
O5 Yb12 2.237992 1_455
O5 Yb18 2.375641 1_555
O6 Yb8 2.247781 1_555
O6 Yb4 2.304439 1_655
O6 Yb4 2.311973 1_555
O6 Sr0 2.579921 1_555
O6 Sr0 2.695517 1_655
O7 Yb6 2.239917 1_555
O7 Yb5 2.323794 1_655
O7 Yb5 2.333942 1_555
O7 Sr0 2.606152 1_555
O7 Sr0 2.615920 1_655
O8 Yb7 2.247440 1_555
O8 Yb3 2.315132 1_555
O8 Yb3 2.327834 1_655
O8 Sr0 2.580943 1_655
O8 Sr0 2.673754 1_555
O9 Yb11 2.231801 1_555
O9 Yb1 2.313686 1_455
O9 Yb1 2.338298 1_555
O9 Sr1 2.558303 1_555
O9 Sr1 2.675202 1_455
O10 Yb9 2.235231 1_555
O10 Yb2 2.322036 1_555
O10 Yb2 2.331220 1_455
O10 Sr1 2.584867 1_455
O10 Sr1 2.630746 1_555
O11 Yb10 2.242463 1_555
O11 Yb0 2.313937 1_555
O11 Yb0 2.345890 1_455
O11 Sr1 2.569311 1_455
O11 Sr1 2.666458 1_555
O12 Yb1 2.282552 1_555
O12 Yb18 2.380386 1_556
O12 Yb16 2.425825 1_655
O12 Yb16 2.428242 1_555
O12 Yb18 2.445321 1_656
O13 Yb2 2.282670 1_555
O13 Yb19 2.375719 1_565
O13 Yb17 2.403992 1_555
O13 Yb17 2.423265 1_655
O13 Yb19 2.432392 1_665
O14 Yb0 2.294477 1_555
O14 Yb15 2.370853 1_655
O14 Yb15 2.393049 1_555
O15 Yb4 2.276572 1_555
O15 Yb13 2.374847 1_555
O15 Yb13 2.407066 1_455
O16 Yb5 2.270366 1_555
O16 Yb14 2.391959 1_555
O16 Yb14 2.404691 1_455
O17 Yb3 2.281599 1_555
O17 Yb12 2.390294 1_455
O17 Yb12 2.391190 1_555
O18 Yb10 2.255758 1_655
O18 Yb10 2.261147 1_555
O18 Yb2 2.268688 1_555
O18 Sr1 3.032041 1_555
O19 Yb11 2.265027 1_655
O19 Yb0 2.269581 1_555
O19 Yb11 2.272871 1_555
O19 Sr1 3.037831 1_555
O20 Yb9 2.251556 1_555
O20 Yb9 2.262963 1_655
O20 Yb1 2.270159 1_555
O20 Sr1 3.062423 1_555
O21 Yb7 2.262308 1_455
O21 Yb7 2.264004 1_555
O21 Yb5 2.265944 1_555
O21 Sr0 3.073536 1_555
O22 Yb3 2.258013 1_555
O22 Yb8 2.263021 1_455
O22 Yb8 2.266673 1_555
O22 Yb18 2.390803 1_555
O22 Sr0 3.159621 1_555
O23 Yb6 2.261701 1_555
O23 Yb4 2.264746 1_555
O23 Yb6 2.268108 1_455
O23 Yb19 2.403567 1_555
O23 Sr0 3.094097 1_555
O24 Yb13 2.319159 1_555
O24 Yb19 2.405669 1_655
O24 Yb4 2.405943 1_555
O24 Yb4 2.435751 1_655
O24 Yb19 2.441638 1_555
O25 Yb14 2.316411 1_555
O25 Yb5 2.370220 1_655
O25 Yb5 2.400878 1_555
O26 Yb12 2.320027 1_555
O26 Yb18 2.377560 1_655
O26 Yb3 2.396127 1_555
O26 Yb3 2.427599 1_655
O26 Yb18 2.498900 1_555
O27 Yb16 2.298829 1_555
O27 Yb1 2.372495 1_555
O27 Yb1 2.387704 1_455
O28 Yb17 2.283007 1_555
O28 Yb2 2.359980 1_455
O28 Yb2 2.394573 1_555
O29 Yb15 2.297238 1_555
O29 Yb0 2.376418 1_555
O29 Yb0 2.387750 1_455
O30 Yb7 2.367951 1_555
O30 Yb10 2.368037 1_555
O30 Yb10 2.397945 1_655
O30 Yb0 2.786326 1_555
O31 Yb11 2.394221 1_655
O31 Yb8 2.402991 1_556
O31 Yb11 2.416398 1_555
O31 Yb18 2.486148 1_556
O31 Yb18 2.543171 1_656
O31 Yb1 2.776298 1_555
O32 Yb6 2.389175 1_565
O32 Yb9 2.405483 1_655
O32 Yb9 2.412771 1_555
O32 Yb19 2.527673 1_665
O32 Yb19 2.527949 1_565
O32 Yb2 2.740838 1_555
O33 Yb10 2.349665 1_555
O33 Yb7 2.372683 1_555
O33 Yb7 2.395325 1_455
O33 Yb3 2.808887 1_555
O34 Yb11 2.331690 1_554
O34 Yb8 2.375128 1_455
O34 Yb8 2.401854 1_555
O34 Yb4 2.906636 1_555
O35 Yb9 2.356310 1_545
O35 Yb6 2.381027 1_455
O35 Yb6 2.392208 1_555
O35 Yb5 2.824398 1_555
