# generated using pymatgen
data_Pr3(GaNi3)2
_symmetry_space_group_name_H-M   'P 1'
_cell_length_a   7.82762878
_cell_length_b   7.82762878
_cell_length_c   7.82763069
_cell_angle_alpha   109.47115752
_cell_angle_beta   109.47115752
_cell_angle_gamma   109.47138045
_symmetry_Int_Tables_number   1
_chemical_formula_structural   Pr3(GaNi3)2
_chemical_formula_sum   'Pr6 Ga4 Ni12'
_cell_volume   369.20595678
_cell_formula_units_Z   2
loop_
 _symmetry_equiv_pos_site_id
 _symmetry_equiv_pos_as_xyz
  1  'x, y, z'
loop_
 _atom_site_type_symbol
 _atom_site_label
 _atom_site_symmetry_multiplicity
 _atom_site_fract_x
 _atom_site_fract_y
 _atom_site_fract_z
 _atom_site_occupancy
  Pr  Pr0  1  0.70854437  0.70854437  0.99999984  1
  Pr  Pr1  1  0.29140679  0.00000036  0.29140696  1
  Pr  Pr2  1  0.00000036  0.29140679  0.29140696  1
  Pr  Pr3  1  0.29145563  0.29145563  0.00000016  1
  Pr  Pr4  1  0.70859321  0.99999964  0.70859304  1
  Pr  Pr5  1  0.99999964  0.70859321  0.70859304  1
  Ga  Ga0  1  0.00000000  -0.00000000  0.50000000  1
  Ga  Ga1  1  0.00000000  0.50000000  0.00000000  1
  Ga  Ga2  1  0.50000000  -0.00000000  0.00000000  1
  Ga  Ga3  1  0.50000000  0.50000000  0.50000000  1
  Ni  Ni0  1  0.33412551  0.33412551  0.66824922  1
  Ni  Ni1  1  0.66587544  -0.00002660  0.33409795  1
  Ni  Ni2  1  -0.00002660  0.66587544  0.33409795  1
  Ni  Ni3  1  0.66587470  0.33412530  -0.00000000  1
  Ni  Ni4  1  0.33412465  0.66822103  0.33409791  1
  Ni  Ni5  1  0.00002660  0.33412456  0.66590205  1
  Ni  Ni6  1  0.33412530  0.66587470  0.00000000  1
  Ni  Ni7  1  0.33412456  0.00002660  0.66590205  1
  Ni  Ni8  1  0.66822103  0.33412465  0.33409791  1
  Ni  Ni9  1  0.66587449  0.66587449  0.33175078  1
  Ni  Ni10  1  0.66587535  0.33177897  0.66590209  1
  Ni  Ni11  1  0.33177897  0.66587535  0.66590209  1
loop_
_geom_bond_atom_site_label_1
_geom_bond_atom_site_label_2
_geom_bond_distance
_geom_bond_site_symmetry_2
Ga0 Ni5 2.502386 1_555
Ga0 Ni2 2.502386 1_545
Ga0 Ni1 2.502386 1_455
Ga0 Ni7 2.502386 1_555
Ga0 Ni9 2.502461 1_445
Ga0 Ni0 2.502461 1_555
Ga0 Pr4 3.217455 1_445
Ga0 Pr1 3.217455 1_555
Ga0 Pr5 3.217455 1_445
Ga0 Pr2 3.217455 1_555
Ga0 Pr3 3.217512 1_556
Ga0 Pr0 3.217512 1_444
Ga1 Ni5 2.502386 1_554
Ga1 Ni2 2.502386 1_555
Ga1 Ni10 2.502387 1_454
Ga1 Ni4 2.502387 1_555
Ga1 Ni6 2.502458 1_555
Ga1 Ni3 2.502458 1_455
Ga1 Pr4 3.217457 1_444
Ga1 Pr1 3.217457 1_565
Ga1 Pr2 3.217458 1_555
Ga1 Pr5 3.217458 1_454
Ga1 Pr3 3.217512 1_555
Ga1 Pr0 3.217512 1_454
Ga2 Ni7 2.502386 1_554
Ga2 Ni1 2.502386 1_555
Ga2 Ni8 2.502387 1_555
Ga2 Ni11 2.502387 1_544
Ga2 Ni3 2.502458 1_555
Ga2 Ni6 2.502458 1_545
Ga2 Pr2 3.217457 1_655
Ga2 Pr5 3.217457 1_444
Ga2 Pr4 3.217458 1_544
Ga2 Pr1 3.217458 1_555
Ga2 Pr3 3.217512 1_555
Ga2 Pr0 3.217512 1_544
Ga3 Ni4 2.502376 1_555
Ga3 Ni8 2.502376 1_555
Ga3 Ni11 2.502376 1_555
Ga3 Ni10 2.502376 1_555
Ga3 Ni9 2.502447 1_555
Ga3 Ni0 2.502447 1_555
Ga3 Pr4 3.217453 1_555
Ga3 Pr5 3.217453 1_555
Ga3 Pr1 3.217453 1_555
Ga3 Pr2 3.217453 1_555
Ga3 Pr3 3.217510 1_555
Ga3 Pr0 3.217510 1_555
Ni0 Ni10 2.609119 1_555
Ni0 Ni11 2.609119 1_555
Ni0 Ni7 2.609133 1_555
Ni0 Ni5 2.609133 1_555
Ni0 Pr0 2.837009 1_555
Ni0 Pr3 2.837023 1_556
Ni0 Pr2 3.044590 1_555
Ni0 Pr1 3.044590 1_555
Ni1 Ni6 2.609127 1_545
Ni1 Ni9 2.609133 1_545
Ni1 Ni5 2.609543 1_655
Ni1 Ni8 2.609549 1_555
Ni1 Pr4 2.837438 1_545
Ni1 Pr1 2.837439 1_555
Ni1 Pr0 3.044298 1_544
Ni1 Pr2 3.044554 1_655
Ni2 Ni3 2.609127 1_455
Ni2 Ni9 2.609133 1_455
Ni2 Ni7 2.609543 1_565
Ni2 Ni4 2.609549 1_555
Ni2 Pr5 2.837438 1_455
Ni2 Pr2 2.837439 1_555
Ni2 Pr0 3.044298 1_454
Ni2 Pr1 3.044554 1_565
Ni3 Ni7 2.609127 1_554
Ni3 Ni8 2.609132 1_555
Ni3 Pr3 2.837010 1_555
Ni3 Pr0 2.837010 1_554
Ni3 Pr4 3.044602 1_544
Ni3 Pr2 3.044602 1_655
Ni4 Ni9 2.609119 1_555
Ni4 Ni6 2.609132 1_555
Ni4 Pr4 2.837438 1_555
Ni4 Pr1 2.837452 1_565
Ni4 Pr3 3.044288 1_555
Ni4 Pr2 3.044545 1_555
Ni5 Ni6 2.609127 1_556
Ni5 Pr2 2.837438 1_555
Ni5 Pr5 2.837439 1_455
Ni5 Pr3 3.044298 1_556
Ni5 Pr4 3.044554 1_445
Ni6 Pr3 2.837010 1_555
Ni6 Pr0 2.837010 1_554
Ni6 Pr1 3.044602 1_565
Ni6 Pr5 3.044602 1_454
Ni7 Pr1 2.837438 1_555
Ni7 Pr4 2.837439 1_545
Ni7 Pr3 3.044298 1_556
Ni7 Pr5 3.044554 1_445
Ni8 Ni9 2.609119 1_555
Ni8 Pr5 2.837438 1_555
Ni8 Pr2 2.837452 1_655
Ni8 Pr3 3.044288 1_555
Ni8 Pr1 3.044545 1_555
Ni9 Pr3 2.837009 1_555
Ni9 Pr0 2.837023 1_554
Ni9 Pr4 3.044590 1_555
Ni9 Pr5 3.044590 1_555
Ni10 Ni3 2.609132 1_556
Ni10 Ni8 2.609539 1_555
Ni10 Ni5 2.609549 1_655
Ni10 Pr1 2.837438 1_555
Ni10 Pr4 2.837452 1_545
Ni10 Pr0 3.044288 1_555
Ni10 Pr5 3.044545 1_555
Ni11 Ni6 2.609132 1_556
Ni11 Ni4 2.609539 1_555
Ni11 Ni7 2.609549 1_565
Ni11 Pr2 2.837438 1_555
Ni11 Pr5 2.837452 1_455
Ni11 Pr0 3.044288 1_555
Ni11 Pr4 3.044545 1_555
