# generated using pymatgen
data_Al17(SiPd2)4
_symmetry_space_group_name_H-M   'P 1'
_cell_length_a   10.64769290
_cell_length_b   10.64769290
_cell_length_c   10.64769290
_cell_angle_alpha   104.90753373
_cell_angle_beta   104.90753373
_cell_angle_gamma   119.04394409
_symmetry_Int_Tables_number   1
_chemical_formula_structural   Al17(SiPd2)4
_chemical_formula_sum   'Al34 Si8 Pd16'
_cell_volume   909.53508189
_cell_formula_units_Z   2
loop_
 _symmetry_equiv_pos_site_id
 _symmetry_equiv_pos_as_xyz
  1  'x, y, z'
loop_
 _atom_site_type_symbol
 _atom_site_label
 _atom_site_symmetry_multiplicity
 _atom_site_fract_x
 _atom_site_fract_y
 _atom_site_fract_z
 _atom_site_occupancy
  Al  Al0  1  0.75000000  0.25000000  0.50000000  1
  Al  Al1  1  0.50000000  0.50000000  0.00000000  1
  Al  Al2  1  0.28596500  0.44797900  0.33454200  1
  Al  Al3  1  0.20142200  0.03596500  0.33798500  1
  Al  Al4  1  0.69797900  0.86343700  0.66201500  1
  Al  Al5  1  0.11343700  0.95142200  0.66545800  1
  Al  Al6  1  0.96403500  0.30202100  0.16545800  1
  Al  Al7  1  0.04857800  0.71403500  0.16201500  1
  Al  Al8  1  0.55202100  0.88656300  0.83798500  1
  Al  Al9  1  0.13656300  0.79857800  0.83454200  1
  Al  Al10  1  0.56720400  0.49839600  0.51100300  1
  Al  Al11  1  0.30620100  0.31720400  0.56880800  1
  Al  Al12  1  0.74839600  0.73739300  0.43119200  1
  Al  Al13  1  0.98739300  0.05620100  0.48899700  1
  Al  Al14  1  0.68279600  0.25160400  0.98899700  1
  Al  Al15  1  0.94379900  0.43279600  0.93119200  1
  Al  Al16  1  0.50160400  0.01260700  0.06880800  1
  Al  Al17  1  0.26260700  0.69379900  0.01100300  1
  Al  Al18  1  0.78011000  0.48816300  0.72876600  1
  Al  Al19  1  0.30134300  0.53011000  0.79194600  1
  Al  Al20  1  0.73816300  0.50939700  0.20805400  1
  Al  Al21  1  0.75939700  0.05134300  0.27123400  1
  Al  Al22  1  0.46989000  0.26183700  0.77123400  1
  Al  Al23  1  0.94865700  0.21989000  0.70805400  1
  Al  Al24  1  0.51183700  0.24060300  0.29194600  1
  Al  Al25  1  0.49060300  0.69865700  0.22876600  1
  Al  Al26  1  0.90027900  0.57013800  0.52380500  1
  Al  Al27  1  0.62647400  0.65027900  0.83014200  1
  Al  Al28  1  0.82013800  0.79633300  0.16985800  1
  Al  Al29  1  0.04633300  0.37647400  0.47619500  1
  Al  Al30  1  0.34972100  0.17986200  0.97619500  1
  Al  Al31  1  0.62352600  0.09972100  0.66985800  1
  Al  Al32  1  0.42986200  0.95366700  0.33014200  1
  Al  Al33  1  0.20366700  0.37352600  0.02380500  1
  Si  Si0  1  0.19649500  0.16110700  0.13398300  1
  Si  Si1  1  0.31251300  0.94649500  0.53538900  1
  Si  Si2  1  0.41110700  0.77712400  0.46461100  1
  Si  Si3  1  0.02712400  0.06251300  0.86601700  1
  Si  Si4  1  0.05350500  0.58889300  0.36601700  1
  Si  Si5  1  0.93748700  0.80350500  0.96461100  1
  Si  Si6  1  0.83889300  0.97287600  0.03538900  1
  Si  Si7  1  0.22287600  0.68748700  0.63398300  1
  Pd  Pd0  1  0.83299200  0.13809800  0.88717500  1
  Pd  Pd1  1  0.19581700  0.58299200  0.19489400  1
  Pd  Pd2  1  0.38809800  0.00092400  0.80510600  1
  Pd  Pd3  1  0.25092400  0.94581700  0.11282500  1
  Pd  Pd4  1  0.41700800  0.61190200  0.61282500  1
  Pd  Pd5  1  0.05418300  0.16700800  0.30510600  1
  Pd  Pd6  1  0.86190200  0.74907600  0.69489400  1
  Pd  Pd7  1  0.99907600  0.80418300  0.38717500  1
  Pd  Pd8  1  0.03510800  0.49799700  0.72752500  1
  Pd  Pd9  1  0.55758300  0.78510800  0.03711100  1
  Pd  Pd10  1  0.74799700  0.52047100  0.96288900  1
  Pd  Pd11  1  0.77047100  0.30758300  0.27247500  1
  Pd  Pd12  1  0.21489200  0.25200300  0.77247500  1
  Pd  Pd13  1  0.69241700  0.96489200  0.46288900  1
  Pd  Pd14  1  0.50200300  0.22952900  0.53711100  1
  Pd  Pd15  1  0.47952900  0.44241700  0.22752500  1
loop_
_geom_bond_atom_site_label_1
_geom_bond_atom_site_label_2
_geom_bond_distance
_geom_bond_site_symmetry_2
Al0 Pd11 2.683037 1_555
Al0 Pd8 2.683039 1_655
Al0 Pd13 2.683039 1_545
Al0 Pd14 2.683043 1_555
Al1 Pd15 2.683037 1_555
Al1 Pd9 2.683039 1_555
Al1 Pd12 2.683039 1_554
Al1 Pd10 2.683043 1_554
Al2 Pd4 2.572987 1_555
Al2 Pd15 2.615689 1_555
Al2 Pd1 2.627588 1_555
Al2 Pd5 2.662676 1_555
Al2 Si0 2.751309 1_555
Al2 Si2 2.827537 1_555
Al3 Pd5 2.572976 1_555
Al3 Pd14 2.615689 1_555
Al3 Pd3 2.627592 1_545
Al3 Pd7 2.662683 1_445
Al3 Si1 2.751334 1_545
Al3 Si0 2.827527 1_555
Al4 Pd6 2.572995 1_555
Al4 Pd13 2.615689 1_555
Al4 Pd0 2.627583 1_565
Al4 Pd4 2.662673 1_555
Al4 Si2 2.751318 1_555
Al4 Si3 2.827534 1_665
Al5 Pd7 2.572984 1_455
Al5 Pd12 2.615689 1_565
Al5 Pd2 2.627578 1_565
Al5 Pd6 2.662676 1_455
Al5 Si3 2.751318 1_565
Al5 Si1 2.827537 1_555
Al6 Pd0 2.572987 1_554
Al6 Pd11 2.615689 1_555
Al6 Pd5 2.627588 1_655
Al6 Pd1 2.662676 1_655
Al6 Si4 2.751309 1_655
Al6 Si6 2.827537 1_545
Al7 Pd1 2.572976 1_555
Al7 Pd10 2.615689 1_454
Al7 Pd7 2.627592 1_455
Al7 Pd3 2.662683 1_555
Al7 Si5 2.751334 1_454
Al7 Si4 2.827527 1_555
Al8 Pd2 2.572995 1_565
Al8 Pd9 2.615689 1_556
Al8 Pd4 2.627583 1_555
Al8 Pd0 2.662673 1_565
Al8 Si6 2.751318 1_556
Al8 Si7 2.827534 1_555
Al9 Pd3 2.572984 1_556
Al9 Pd8 2.615689 1_555
Al9 Pd6 2.627578 1_455
Al9 Pd2 2.662676 1_565
Al9 Si7 2.751318 1_555
Al9 Si5 2.827537 1_455
Al10 Pd6 2.611886 1_555
Al10 Pd4 2.699677 1_555
Al10 Pd14 2.708127 1_555
Al10 Pd15 2.724275 1_555
Al11 Pd4 2.611889 1_555
Al11 Pd5 2.699677 1_555
Al11 Pd12 2.708137 1_555
Al11 Pd14 2.724267 1_555
Al12 Pd7 2.611879 1_555
Al12 Pd6 2.699681 1_555
Al12 Pd15 2.708134 1_555
Al12 Pd13 2.724274 1_555
Al13 Pd5 2.611889 1_655
Al13 Pd7 2.699670 1_545
Al13 Pd13 2.708137 1_545
Al13 Pd12 2.724274 1_655
Al14 Pd2 2.611886 1_555
Al14 Pd0 2.699677 1_555
Al14 Pd10 2.708127 1_555
Al14 Pd11 2.724275 1_556
Al15 Pd0 2.611889 1_555
Al15 Pd1 2.699677 1_656
Al15 Pd8 2.708137 1_655
Al15 Pd10 2.724267 1_555
Al16 Pd3 2.611879 1_545
Al16 Pd2 2.699681 1_554
Al16 Pd11 2.708134 1_555
Al16 Pd9 2.724274 1_545
Al17 Pd1 2.611889 1_555
Al17 Pd3 2.699670 1_555
Al17 Pd9 2.708137 1_555
Al17 Pd8 2.724274 1_554
Al18 Pd10 2.561484 1_555
Al18 Pd14 2.568707 1_555
Al18 Pd6 2.633331 1_555
Al18 Pd8 2.669504 1_655
Al18 Si5 2.901991 1_555
Al19 Pd8 2.561474 1_555
Al19 Pd12 2.568716 1_555
Al19 Pd4 2.633336 1_555
Al19 Pd9 2.669512 1_556
Al19 Si7 2.901972 1_555
Al20 Pd11 2.561474 1_555
Al20 Pd15 2.568695 1_555
Al20 Pd7 2.633336 1_555
Al20 Pd10 2.669512 1_554
Al20 Si4 2.901991 1_655
Al21 Pd9 2.561479 1_545
Al21 Pd13 2.568705 1_545
Al21 Pd5 2.633339 1_655
Al21 Pd11 2.669520 1_555
Al21 Si6 2.901981 1_545
Al22 Pd14 2.561484 1_555
Al22 Pd10 2.568707 1_555
Al22 Pd2 2.633331 1_555
Al22 Pd12 2.669504 1_555
Al22 Si1 2.901991 1_545
Al23 Pd12 2.561474 1_655
Al23 Pd8 2.568716 1_655
Al23 Pd0 2.633336 1_555
Al23 Pd13 2.669512 1_545
Al23 Si3 2.901972 1_655
Al24 Pd15 2.561474 1_555
Al24 Pd11 2.568695 1_555
Al24 Pd3 2.633336 1_545
Al24 Pd14 2.669512 1_555
Al24 Si0 2.901991 1_555
Al25 Pd13 2.561479 1_555
Al25 Pd9 2.568705 1_555
Al25 Pd1 2.633339 1_555
Al25 Pd15 2.669520 1_555
Al25 Si2 2.901981 1_555
Al26 Pd6 2.543380 1_555
Al26 Si4 2.605945 1_655
Al26 Pd11 2.717183 1_555
Al26 Pd8 2.771642 1_655
Al26 Si7 2.782324 1_655
Al26 Pd7 3.088796 1_555
Al27 Pd4 2.543394 1_555
Al27 Si5 2.605935 1_555
Al27 Pd10 2.717190 1_555
Al27 Pd9 2.771635 1_556
Al27 Si6 2.782321 1_556
Al27 Pd6 3.088805 1_555
Al28 Pd7 2.543389 1_555
Al28 Si6 2.605929 1_555
Al28 Pd9 2.717183 1_555
Al28 Pd10 2.771645 1_554
Al28 Si5 2.782314 1_554
Al28 Pd5 3.088796 1_665
Al29 Pd5 2.543387 1_555
Al29 Si7 2.605937 1_555
Al29 Pd8 2.717186 1_555
Al29 Pd11 2.771650 1_455
Al29 Si4 2.782321 1_555
Al29 Pd4 3.088797 1_555
Al30 Pd2 2.543380 1_555
Al30 Si0 2.605945 1_556
Al30 Pd15 2.717183 1_556
Al30 Pd12 2.771642 1_555
Al30 Si3 2.782324 1_555
Al30 Pd3 3.088796 1_546
Al31 Pd0 2.543394 1_555
Al31 Si1 2.605935 1_545
Al31 Pd14 2.717190 1_555
Al31 Pd13 2.771635 1_545
Al31 Si2 2.782321 1_545
Al31 Pd2 3.088805 1_555
Al32 Pd3 2.543389 1_555
Al32 Si2 2.605929 1_555
Al32 Pd13 2.717183 1_555
Al32 Pd14 2.771645 1_565
Al32 Si1 2.782314 1_555
Al32 Pd1 3.088796 1_555
Al33 Pd1 2.543387 1_555
Al33 Si3 2.605937 1_554
Al33 Pd12 2.717186 1_554
Al33 Pd15 2.771650 1_555
Al33 Si0 2.782321 1_555
Al33 Pd0 3.088797 1_454
Si0 Si3 2.543299 1_554
Si1 Si2 2.543293 1_555
Si4 Si7 2.543299 1_555
Si5 Si6 2.543293 1_556
Pd0 Si3 2.594759 1_655
Pd0 Si6 2.659726 1_546
Pd1 Si2 2.594759 1_555
Pd1 Si4 2.659718 1_555
Pd2 Si1 2.594755 1_545
Pd2 Si7 2.659734 1_545
Pd3 Si0 2.594774 1_565
Pd3 Si5 2.659736 1_454
Pd4 Si7 2.594759 1_555
Pd4 Si2 2.659726 1_555
Pd5 Si6 2.594759 1_445
Pd5 Si0 2.659718 1_555
Pd6 Si5 2.594755 1_555
Pd6 Si3 2.659734 1_665
Pd7 Si4 2.594774 1_655
Pd7 Si1 2.659736 1_655
Pd8 Si7 2.683632 1_555
Pd9 Si6 2.683632 1_555
Pd10 Si5 2.683648 1_555
Pd11 Si4 2.683643 1_655
Pd12 Si3 2.683632 1_555
Pd13 Si2 2.683632 1_555
Pd14 Si1 2.683648 1_545
Pd15 Si0 2.683643 1_555
