# generated using pymatgen
data_HfSiPd
_symmetry_space_group_name_H-M   'P 1'
_cell_length_a   3.86860222
_cell_length_b   6.56573455
_cell_length_c   7.55331702
_cell_angle_alpha   90.00000000
_cell_angle_beta   90.00000000
_cell_angle_gamma   90.00000000
_symmetry_Int_Tables_number   1
_chemical_formula_structural   HfSiPd
_chemical_formula_sum   'Hf4 Si4 Pd4'
_cell_volume   191.85587821
_cell_formula_units_Z   4
loop_
 _symmetry_equiv_pos_site_id
 _symmetry_equiv_pos_as_xyz
  1  'x, y, z'
loop_
 _atom_site_type_symbol
 _atom_site_label
 _atom_site_symmetry_multiplicity
 _atom_site_fract_x
 _atom_site_fract_y
 _atom_site_fract_z
 _atom_site_occupancy
  Hf  Hf0  1  0.25000000  0.52698190  0.32081333  1
  Hf  Hf1  1  0.75000000  0.47301810  0.67918667  1
  Hf  Hf2  1  0.25000000  0.02698190  0.17918667  1
  Hf  Hf3  1  0.75000000  0.97301810  0.82081333  1
  Si  Si0  1  0.25000000  0.25886650  0.87592924  1
  Si  Si1  1  0.75000000  0.74113350  0.12407076  1
  Si  Si2  1  0.25000000  0.75886650  0.62407076  1
  Si  Si3  1  0.75000000  0.24113350  0.37592924  1
  Pd  Pd0  1  0.75000000  0.85715771  0.43764632  1
  Pd  Pd1  1  0.25000000  0.14284229  0.56235368  1
  Pd  Pd2  1  0.75000000  0.35715771  0.06235368  1
  Pd  Pd3  1  0.25000000  0.64284229  0.93764632  1
loop_
_geom_bond_atom_site_label_1
_geom_bond_atom_site_label_2
_geom_bond_distance
_geom_bond_site_symmetry_2
Hf0 Si3 2.727128 1_455
Hf0 Si3 2.727128 1_555
Hf0 Si2 2.750424 1_555
Hf0 Si1 2.815476 1_455
Hf0 Si1 2.815476 1_555
Hf0 Pd2 2.965803 1_455
Hf0 Pd2 2.965803 1_555
Hf0 Pd3 2.992485 1_554
Hf0 Pd0 3.036420 1_455
Hf0 Pd0 3.036420 1_555
Hf0 Pd1 3.112850 1_555
Hf1 Si2 2.727128 1_555
Hf1 Si2 2.727128 1_655
Hf1 Si3 2.750424 1_555
Hf1 Si0 2.815476 1_655
Hf1 Si0 2.815476 1_555
Hf1 Pd3 2.965803 1_655
Hf1 Pd3 2.965803 1_555
Hf1 Pd2 2.992485 1_556
Hf1 Pd1 3.036420 1_655
Hf1 Pd1 3.036420 1_555
Hf1 Pd0 3.112850 1_555
Hf2 Si1 2.727128 1_445
Hf2 Si1 2.727128 1_545
Hf2 Si0 2.750424 1_554
Hf2 Si3 2.815476 1_555
Hf2 Si3 2.815476 1_455
Hf2 Pd0 2.965803 1_545
Hf2 Pd0 2.965803 1_445
Hf2 Pd1 2.992485 1_555
Hf2 Pd2 3.036420 1_455
Hf2 Pd2 3.036420 1_555
Hf2 Pd3 3.112850 1_544
Hf3 Si0 2.727128 1_565
Hf3 Si0 2.727128 1_665
Hf3 Si1 2.750424 1_556
Hf3 Si2 2.815476 1_555
Hf3 Si2 2.815476 1_655
Hf3 Pd1 2.965803 1_665
Hf3 Pd1 2.965803 1_565
Hf3 Pd0 2.992485 1_555
Hf3 Pd3 3.036420 1_655
Hf3 Pd3 3.036420 1_555
Hf3 Pd2 3.112850 1_566
Pd0 Si2 2.478066 1_555
Pd0 Si2 2.478066 1_655
Pd0 Si1 2.488027 1_555
Pd0 Si3 2.563820 1_565
Pd0 Pd1 2.854323 1_565
Pd0 Pd1 2.854323 1_665
Pd1 Si3 2.478066 1_455
Pd1 Si3 2.478066 1_555
Pd1 Si0 2.488027 1_555
Pd1 Si2 2.563820 1_545
Pd2 Si0 2.478066 1_654
Pd2 Si0 2.478066 1_554
Pd2 Si3 2.488027 1_555
Pd2 Si1 2.563820 1_555
Pd2 Pd3 2.854323 1_654
Pd2 Pd3 2.854323 1_554
Pd3 Si1 2.478066 1_556
Pd3 Si1 2.478066 1_456
Pd3 Si2 2.488027 1_555
Pd3 Si0 2.563820 1_555
