# generated using pymatgen
data_NaMn2O4
_symmetry_space_group_name_H-M   'P 1'
_cell_length_a   10.37708300
_cell_length_b   10.37708300
_cell_length_c   5.90861900
_cell_angle_alpha   90.00000000
_cell_angle_beta   90.00000000
_cell_angle_gamma   90.00000000
_symmetry_Int_Tables_number   1
_chemical_formula_structural   NaMn2O4
_chemical_formula_sum   'Na8 Mn16 O32'
_cell_volume   636.26285149
_cell_formula_units_Z   8
loop_
 _symmetry_equiv_pos_site_id
 _symmetry_equiv_pos_as_xyz
  1  'x, y, z'
loop_
 _atom_site_type_symbol
 _atom_site_label
 _atom_site_symmetry_multiplicity
 _atom_site_fract_x
 _atom_site_fract_y
 _atom_site_fract_z
 _atom_site_occupancy
  Na  Na0  1  0.47276700  0.86974300  0.36881600  1
  Na  Na1  1  0.63025700  0.97276700  0.86881600  1
  Na  Na2  1  0.97276700  0.36974300  0.13118400  1
  Na  Na3  1  0.13025700  0.47276700  0.63118400  1
  Na  Na4  1  0.52723300  0.13025700  0.36881600  1
  Na  Na5  1  0.36974300  0.02723300  0.86881600  1
  Na  Na6  1  0.86974300  0.52723300  0.63118400  1
  Na  Na7  1  0.02723300  0.63025700  0.13118400  1
  Mn  Mn0  1  0.65060200  0.66347900  0.37318600  1
  Mn  Mn1  1  0.64544400  0.66739600  0.87628400  1
  Mn  Mn2  1  0.16739600  0.85455600  0.37628400  1
  Mn  Mn3  1  0.16347900  0.84939800  0.87318600  1
  Mn  Mn4  1  0.83652100  0.15060200  0.87318600  1
  Mn  Mn5  1  0.83260400  0.14544400  0.37628400  1
  Mn  Mn6  1  0.35455600  0.33260400  0.87628400  1
  Mn  Mn7  1  0.34939800  0.33652100  0.37318600  1
  Mn  Mn8  1  0.14544400  0.16739600  0.62371600  1
  Mn  Mn9  1  0.15060200  0.16347900  0.12681400  1
  Mn  Mn10  1  0.66347900  0.34939800  0.62681400  1
  Mn  Mn11  1  0.66739600  0.35455600  0.12371600  1
  Mn  Mn12  1  0.33652100  0.65060200  0.62681400  1
  Mn  Mn13  1  0.33260400  0.64544400  0.12371600  1
  Mn  Mn14  1  0.85455600  0.83260400  0.62371600  1
  Mn  Mn15  1  0.84939800  0.83652100  0.12681400  1
  O  O0  1  0.34070400  0.45589000  0.62729200  1
  O  O1  1  0.33300300  0.45445400  0.12268000  1
  O  O2  1  0.95445400  0.16699700  0.62268000  1
  O  O3  1  0.95589000  0.15929600  0.12729200  1
  O  O4  1  0.04554600  0.83300300  0.62268000  1
  O  O5  1  0.04411000  0.84070400  0.12729200  1
  O  O6  1  0.65929600  0.54411000  0.62729200  1
  O  O7  1  0.66699700  0.54554600  0.12268000  1
  O  O8  1  0.84070400  0.95589000  0.87270800  1
  O  O9  1  0.83300300  0.95445400  0.37732000  1
  O  O10  1  0.45445400  0.66699700  0.87732000  1
  O  O11  1  0.45589000  0.65929600  0.37270800  1
  O  O12  1  0.54411000  0.34070400  0.37270800  1
  O  O13  1  0.54554600  0.33300300  0.87732000  1
  O  O14  1  0.16699700  0.04554600  0.37732000  1
  O  O15  1  0.15929600  0.04411000  0.87270800  1
  O  O16  1  0.14968200  0.29855200  0.37433400  1
  O  O17  1  0.15171900  0.29587900  0.87697000  1
  O  O18  1  0.79855200  0.35031800  0.87433400  1
  O  O19  1  0.79587900  0.34828100  0.37697000  1
  O  O20  1  0.84828100  0.70412100  0.87697000  1
  O  O21  1  0.85031800  0.70144800  0.37433400  1
  O  O22  1  0.20412100  0.65171900  0.37697000  1
  O  O23  1  0.20144800  0.64968200  0.87433400  1
  O  O24  1  0.65171900  0.79587900  0.62303000  1
  O  O25  1  0.64968200  0.79855200  0.12566600  1
  O  O26  1  0.29855200  0.85031800  0.62566600  1
  O  O27  1  0.29587900  0.84828100  0.12303000  1
  O  O28  1  0.34828100  0.20412100  0.62303000  1
  O  O29  1  0.35031800  0.20144800  0.12566600  1
  O  O30  1  0.70144800  0.14968200  0.62566600  1
  O  O31  1  0.70412100  0.15171900  0.12303000  1
loop_
_geom_bond_atom_site_label_1
_geom_bond_atom_site_label_2
_geom_bond_distance
_geom_bond_site_symmetry_2
Na0 O11 2.190958 1_555
Na0 O27 2.351171 1_555
Na0 O26 2.368993 1_555
Na0 O25 2.445444 1_555
Na0 O24 2.508411 1_555
Na1 O8 2.190958 1_555
Na1 O24 2.351171 1_555
Na1 O25 2.368993 1_556
Na1 O30 2.445444 1_565
Na1 O31 2.508411 1_566
Na2 O3 2.190958 1_555
Na2 O19 2.351171 1_555
Na2 O18 2.368993 1_554
Na2 O16 2.445444 1_655
Na2 O17 2.508411 1_654
Na3 O0 2.190958 1_555
Na3 O17 2.351171 1_555
Na3 O16 2.368993 1_555
Na3 O23 2.445444 1_555
Na3 O22 2.508411 1_555
Na4 O12 2.190958 1_555
Na4 O31 2.351171 1_555
Na4 O30 2.368993 1_555
Na4 O29 2.445444 1_555
Na4 O28 2.508411 1_555
Na5 O15 2.190958 1_555
Na5 O28 2.351171 1_555
Na5 O29 2.368993 1_556
Na5 O26 2.445444 1_545
Na5 O27 2.508411 1_546
Na6 O6 2.190958 1_555
Na6 O20 2.351171 1_555
Na6 O21 2.368993 1_555
Na6 O18 2.445444 1_555
Na6 O19 2.508411 1_555
Na7 O5 2.190958 1_555
Na7 O22 2.351171 1_555
Na7 O23 2.368993 1_554
Na7 O21 2.445444 1_455
Na7 O20 2.508411 1_454
Mn0 O7 1.928072 1_555
Mn0 O6 1.948530 1_555
Mn0 O24 2.016698 1_555
Mn0 O11 2.021011 1_555
Mn0 O25 2.025750 1_555
Mn0 O21 2.109601 1_555
Mn1 O7 1.941231 1_556
Mn1 O6 1.954948 1_555
Mn1 O10 1.981933 1_555
Mn1 O24 2.005251 1_555
Mn1 O25 2.006368 1_556
Mn1 O20 2.139082 1_555
Mn2 O4 1.941231 1_555
Mn2 O5 1.954948 1_555
Mn2 O14 1.981933 1_565
Mn2 O27 2.005251 1_555
Mn2 O26 2.006368 1_555
Mn2 O22 2.139082 1_555
Mn3 O4 1.928072 1_555
Mn3 O5 1.948530 1_556
Mn3 O27 2.016698 1_556
Mn3 O15 2.021011 1_565
Mn3 O26 2.025750 1_555
Mn3 O23 2.109601 1_555
Mn4 O2 1.928072 1_555
Mn4 O3 1.948530 1_556
Mn4 O31 2.016698 1_556
Mn4 O8 2.021011 1_545
Mn4 O30 2.025750 1_555
Mn4 O18 2.109601 1_555
Mn5 O2 1.941231 1_555
Mn5 O3 1.954948 1_555
Mn5 O9 1.981933 1_545
Mn5 O31 2.005251 1_555
Mn5 O30 2.006368 1_555
Mn5 O19 2.139082 1_555
Mn6 O1 1.941231 1_556
Mn6 O0 1.954948 1_555
Mn6 O13 1.981933 1_555
Mn6 O28 2.005251 1_555
Mn6 O29 2.006368 1_556
Mn6 O17 2.139082 1_555
Mn7 O1 1.928072 1_555
Mn7 O0 1.948530 1_555
Mn7 O28 2.016698 1_555
Mn7 O12 2.021011 1_555
Mn7 O29 2.025750 1_555
Mn7 O16 2.109601 1_555
Mn8 O14 1.941231 1_555
Mn8 O15 1.954948 1_555
Mn8 O2 1.981933 1_455
Mn8 O17 2.005251 1_555
Mn8 O16 2.006368 1_555
Mn8 O28 2.139082 1_555
Mn9 O14 1.928072 1_555
Mn9 O15 1.948530 1_554
Mn9 O17 2.016698 1_554
Mn9 O3 2.021011 1_455
Mn9 O16 2.025750 1_555
Mn9 O29 2.109601 1_555
Mn10 O13 1.928072 1_555
Mn10 O12 1.948530 1_555
Mn10 O19 2.016698 1_555
Mn10 O6 2.021011 1_555
Mn10 O18 2.025750 1_555
Mn10 O30 2.109601 1_555
Mn11 O13 1.941231 1_554
Mn11 O12 1.954948 1_555
Mn11 O7 1.981933 1_555
Mn11 O19 2.005251 1_555
Mn11 O18 2.006368 1_554
Mn11 O31 2.139082 1_555
Mn12 O10 1.928072 1_555
Mn12 O11 1.948530 1_555
Mn12 O22 2.016698 1_555
Mn12 O0 2.021011 1_555
Mn12 O23 2.025750 1_555
Mn12 O26 2.109601 1_555
Mn13 O10 1.941231 1_554
Mn13 O11 1.954948 1_555
Mn13 O1 1.981933 1_555
Mn13 O22 2.005251 1_555
Mn13 O23 2.006368 1_554
Mn13 O27 2.139082 1_555
Mn14 O9 1.941231 1_555
Mn14 O8 1.954948 1_555
Mn14 O4 1.981933 1_655
Mn14 O20 2.005251 1_555
Mn14 O21 2.006368 1_555
Mn14 O24 2.139082 1_555
Mn15 O9 1.928072 1_555
Mn15 O8 1.948530 1_554
Mn15 O20 2.016698 1_554
Mn15 O5 2.021011 1_655
Mn15 O21 2.025750 1_555
Mn15 O25 2.109601 1_555
