# generated using pymatgen
data_MgP3W3O13
_symmetry_space_group_name_H-M   'P 1'
_cell_length_a   6.69232100
_cell_length_b   7.91990600
_cell_length_c   10.46359631
_cell_angle_alpha   81.18448519
_cell_angle_beta   90.00000000
_cell_angle_gamma   90.00000000
_symmetry_Int_Tables_number   1
_chemical_formula_structural   MgP3W3O13
_chemical_formula_sum   'Mg2 P6 W6 O26'
_cell_volume   548.04581749
_cell_formula_units_Z   2
loop_
 _symmetry_equiv_pos_site_id
 _symmetry_equiv_pos_as_xyz
  1  'x, y, z'
loop_
 _atom_site_type_symbol
 _atom_site_label
 _atom_site_symmetry_multiplicity
 _atom_site_fract_x
 _atom_site_fract_y
 _atom_site_fract_z
 _atom_site_occupancy
  Mg  Mg0  1  0.75000000  0.39609900  0.18159500  1
  Mg  Mg1  1  0.25000000  0.60390100  0.81840500  1
  P  P0  1  0.25000000  0.78379800  0.50821700  1
  P  P1  1  0.75000000  0.21620200  0.49178300  1
  P  P2  1  0.25000000  0.26649000  0.76510700  1
  P  P3  1  0.75000000  0.73351000  0.23489300  1
  P  P4  1  0.75000000  0.67611700  0.89684300  1
  P  P5  1  0.25000000  0.32388300  0.10315700  1
  W  W0  1  0.25000000  0.64265500  0.20641000  1
  W  W1  1  0.75000000  0.35734500  0.79359000  1
  W  W2  1  0.25000000  0.23228600  0.43411900  1
  W  W3  1  0.50000000  0.00000000  0.00000000  1
  W  W4  1  0.75000000  0.76771400  0.56588100  1
  W  W5  1  0.00000000  0.00000000  0.00000000  1
  O  O0  1  0.75000000  0.63454400  0.75459100  1
  O  O1  1  0.56865300  0.25684700  0.39783900  1
  O  O2  1  0.25000000  0.19606500  0.63980600  1
  O  O3  1  0.55174400  0.77149400  0.91055300  1
  O  O4  1  0.75000000  0.34027100  0.59269100  1
  O  O5  1  0.75000000  0.11361400  0.89726900  1
  O  O6  1  0.25000000  0.65972900  0.40730900  1
  O  O7  1  0.05174400  0.22850600  0.08944700  1
  O  O8  1  0.25000000  0.96822800  0.43689200  1
  O  O9  1  0.75000000  0.03177200  0.56310800  1
  O  O10  1  0.07277900  0.38828500  0.78488000  1
  O  O11  1  0.25000000  0.88638600  0.10273100  1
  O  O12  1  0.57277900  0.61171500  0.21512000  1
  O  O13  1  0.75000000  0.49203600  0.97759700  1
  O  O14  1  0.75000000  0.80393500  0.36019400  1
  O  O15  1  0.44825600  0.22850600  0.08944700  1
  O  O16  1  0.93134700  0.25684700  0.39783900  1
  O  O17  1  0.43134700  0.74315300  0.60216100  1
  O  O18  1  0.42722100  0.38828500  0.78488000  1
  O  O19  1  0.25000000  0.36545600  0.24540900  1
  O  O20  1  0.75000000  0.89111700  0.12314700  1
  O  O21  1  0.25000000  0.10888300  0.87685300  1
  O  O22  1  0.92722100  0.61171500  0.21512000  1
  O  O23  1  0.94825600  0.77149400  0.91055300  1
  O  O24  1  0.06865300  0.74315300  0.60216100  1
  O  O25  1  0.25000000  0.50796400  0.02240300  1
loop_
_geom_bond_atom_site_label_1
_geom_bond_atom_site_label_2
_geom_bond_distance
_geom_bond_site_symmetry_2
Mg0 O22 2.151605 1_555
Mg0 O12 2.151605 1_555
Mg0 O13 2.153258 1_554
Mg0 O16 2.654074 1_555
Mg0 O1 2.654074 1_555
Mg0 O7 2.676112 1_655
Mg0 O15 2.676112 1_555
Mg1 O10 2.151605 1_555
Mg1 O18 2.151605 1_555
Mg1 O25 2.153258 1_556
Mg1 O17 2.654074 1_555
Mg1 O24 2.654074 1_555
Mg1 O23 2.676112 1_455
Mg1 O3 2.676112 1_555
O0 P4 1.572946 1_555
O0 W4 2.091182 1_555
O0 W1 2.170638 1_555
O1 P1 1.563909 1_555
O1 W2 2.169560 1_555
O2 P2 1.501405 1_555
O2 W2 2.127235 1_555
O3 P4 1.544269 1_555
O3 W3 2.188661 1_566
O4 P1 1.548669 1_555
O4 W1 2.127051 1_555
O5 W1 2.064269 1_555
O5 W3 2.113736 1_556
O5 W5 2.113736 1_656
O6 P0 1.548669 1_555
O6 W0 2.127051 1_555
O7 P5 1.544269 1_555
O7 W5 2.188661 1_555
O8 P0 1.535060 1_555
O8 W2 2.087065 1_565
O9 P1 1.535060 1_555
O9 W4 2.087065 1_545
O10 P2 1.562396 1_555
O10 W1 2.174331 1_455
O11 W0 2.064269 1_555
O11 W5 2.113736 1_565
O11 W3 2.113736 1_565
O12 P3 1.562396 1_555
O12 W0 2.174331 1_555
O13 P4 1.569040 1_555
O13 W1 2.339771 1_555
O14 P3 1.501405 1_555
O14 W4 2.127235 1_555
O15 P5 1.544269 1_555
O15 W3 2.188661 1_555
O16 P1 1.563909 1_555
O16 W2 2.169560 1_655
O17 P0 1.563909 1_555
O17 W4 2.169560 1_555
O18 P2 1.562396 1_555
O18 W1 2.174331 1_555
O19 P5 1.572946 1_555
O19 W2 2.091182 1_555
O19 W0 2.170638 1_555
O20 P3 1.574139 1_555
O20 W5 2.205139 1_665
O20 W3 2.205139 1_565
O21 P2 1.574139 1_555
O21 W3 2.205139 1_556
O21 W5 2.205139 1_556
O22 P3 1.562396 1_555
O22 W0 2.174331 1_655
O23 P4 1.544269 1_555
O23 W5 2.188661 1_666
O24 P0 1.563909 1_555
O24 W4 2.169560 1_455
O25 P5 1.569040 1_555
O25 W0 2.339771 1_555
