# generated using pymatgen
data_Pr3Sn13Ru4
_symmetry_space_group_name_H-M   'P 1'
_cell_length_a   9.80192639
_cell_length_b   9.80191560
_cell_length_c   9.80208785
_cell_angle_alpha   89.99982382
_cell_angle_beta   90.00205802
_cell_angle_gamma   90.00066637
_symmetry_Int_Tables_number   1
_chemical_formula_structural   Pr3Sn13Ru4
_chemical_formula_sum   'Pr6 Sn26 Ru8'
_cell_volume   941.76161628
_cell_formula_units_Z   2
loop_
 _symmetry_equiv_pos_site_id
 _symmetry_equiv_pos_as_xyz
  1  'x, y, z'
loop_
 _atom_site_type_symbol
 _atom_site_label
 _atom_site_symmetry_multiplicity
 _atom_site_fract_x
 _atom_site_fract_y
 _atom_site_fract_z
 _atom_site_occupancy
  Pr  Pr0  1  0.25000106  0.00001376  0.49990458  1
  Pr  Pr1  1  0.75002207  -0.00001695  0.49991306  1
  Pr  Pr2  1  0.49995704  0.25002251  0.00007977  1
  Pr  Pr3  1  0.49997245  0.74998536  0.00009489  1
  Pr  Pr4  1  0.99999185  0.50000038  0.24999893  1
  Pr  Pr5  1  -0.00000251  0.49999855  0.75000089  1
  Sn  Sn0  1  0.00000552  -0.00000032  -0.00001529  1
  Sn  Sn1  1  0.49999856  0.50000050  0.50001600  1
  Sn  Sn2  1  0.00000342  0.15445675  0.29987408  1
  Sn  Sn3  1  0.00001678  0.84554436  0.70013610  1
  Sn  Sn4  1  0.00000881  0.84553929  0.29987183  1
  Sn  Sn5  1  0.00000936  0.15445782  0.70013765  1
  Sn  Sn6  1  0.29987070  -0.00000383  0.15444046  1
  Sn  Sn7  1  0.65445531  0.50000041  0.20012315  1
  Sn  Sn8  1  0.70012951  0.00000433  0.84553089  1
  Sn  Sn9  1  0.34553854  0.50000215  0.79986466  1
  Sn  Sn10  1  0.29986645  -0.00000153  0.84552111  1
  Sn  Sn11  1  0.34554071  0.50000508  0.20012476  1
  Sn  Sn12  1  0.70012967  0.00000080  0.15444090  1
  Sn  Sn13  1  0.65445033  0.49999649  0.79987036  1
  Sn  Sn14  1  0.15445923  0.29987193  -0.00002656  1
  Sn  Sn15  1  0.50000065  0.79986756  0.34555391  1
  Sn  Sn16  1  0.84554741  0.70013077  -0.00001200  1
  Sn  Sn17  1  0.49999639  0.20013253  0.65447703  1
  Sn  Sn18  1  0.15446212  0.70013032  -0.00002292  1
  Sn  Sn19  1  0.50000534  0.20012846  0.34555817  1
  Sn  Sn20  1  0.84554247  0.29986858  -0.00001827  1
  Sn  Sn21  1  0.49998811  0.79986620  0.65447653  1
  Sn  Sn22  1  0.20013488  0.65445971  0.50002176  1
  Sn  Sn23  1  0.79987146  0.34553963  0.50002090  1
  Sn  Sn24  1  0.20013249  0.34554726  0.50002485  1
  Sn  Sn25  1  0.79987539  0.65445235  0.50001596  1
  Ru  Ru0  1  0.24999881  0.25000319  0.24999986  1
  Ru  Ru1  1  0.75000183  0.75000017  0.74999950  1
  Ru  Ru2  1  0.75000235  0.74999657  0.24999693  1
  Ru  Ru3  1  0.75000345  0.25000166  0.74999904  1
  Ru  Ru4  1  0.25000566  0.24999915  0.75000448  1
  Ru  Ru5  1  0.24999807  0.74999600  0.25000047  1
  Ru  Ru6  1  0.25000532  0.74999962  0.75000420  1
  Ru  Ru7  1  0.75000293  0.25000443  0.24999838  1
loop_
_geom_bond_atom_site_label_1
_geom_bond_atom_site_label_2
_geom_bond_distance
_geom_bond_site_symmetry_2
Pr0 Sn6 3.421386 1_555
Pr0 Sn24 3.421988 1_555
Pr0 Sn22 3.422172 1_545
Pr0 Sn10 3.422824 1_555
Pr0 Ru0 3.464792 1_555
Pr0 Ru5 3.464995 1_545
Pr0 Ru4 3.466128 1_555
Pr0 Ru6 3.466314 1_545
Pr0 Sn2 3.484334 1_555
Pr0 Sn4 3.484424 1_545
Pr0 Sn19 3.484484 1_555
Pr0 Sn15 3.484681 1_545
Pr0 Sn17 3.485336 1_555
Pr0 Sn21 3.485463 1_545
Pr0 Sn5 3.485519 1_555
Pr0 Sn3 3.485538 1_545
Pr1 Sn12 3.421461 1_555
Pr1 Sn25 3.421939 1_545
Pr1 Sn23 3.422173 1_555
Pr1 Sn8 3.422910 1_555
Pr1 Ru2 3.464861 1_545
Pr1 Ru7 3.465083 1_555
Pr1 Ru1 3.466006 1_545
Pr1 Ru3 3.466261 1_555
Pr1 Sn4 3.484425 1_645
Pr1 Sn2 3.484473 1_655
Pr1 Sn15 3.484590 1_545
Pr1 Sn19 3.484731 1_555
Pr1 Sn3 3.485358 1_645
Pr1 Sn5 3.485449 1_655
Pr1 Sn21 3.485625 1_545
Pr1 Sn17 3.485788 1_555
Pr2 Sn19 3.421540 1_555
Pr2 Sn14 3.421618 1_555
Pr2 Sn20 3.422452 1_555
Pr2 Sn17 3.422744 1_554
Pr2 Ru0 3.464752 1_555
Pr2 Ru7 3.465225 1_555
Pr2 Ru4 3.465656 1_554
Pr2 Ru3 3.466476 1_554
Pr2 Sn11 3.484282 1_555
Pr2 Sn7 3.484504 1_555
Pr2 Sn6 3.484532 1_555
Pr2 Sn12 3.484949 1_555
Pr2 Sn9 3.485140 1_554
Pr2 Sn10 3.485328 1_554
Pr2 Sn13 3.485425 1_554
Pr2 Sn8 3.485791 1_554
Pr3 Sn15 3.421339 1_555
Pr3 Sn18 3.421736 1_555
Pr3 Sn16 3.422374 1_555
Pr3 Sn21 3.422879 1_554
Pr3 Ru5 3.464763 1_555
Pr3 Ru2 3.464999 1_555
Pr3 Ru6 3.465871 1_554
Pr3 Ru1 3.466460 1_554
Pr3 Sn11 3.484215 1_555
Pr3 Sn7 3.484420 1_555
Pr3 Sn6 3.484484 1_565
Pr3 Sn12 3.484731 1_565
Pr3 Sn9 3.485298 1_554
Pr3 Sn10 3.485427 1_564
Pr3 Sn13 3.485578 1_554
Pr3 Sn8 3.485737 1_564
Pr4 Sn7 3.422009 1_555
Pr4 Sn4 3.422043 1_655
Pr4 Sn2 3.422089 1_655
Pr4 Sn11 3.422161 1_655
Pr4 Ru7 3.465377 1_555
Pr4 Ru2 3.465423 1_555
Pr4 Ru5 3.465495 1_655
Pr4 Ru0 3.465551 1_655
Pr4 Sn16 3.485000 1_555
Pr4 Sn20 3.485060 1_555
Pr4 Sn25 3.485093 1_555
Pr4 Sn23 3.485159 1_555
Pr4 Sn24 3.485186 1_655
Pr4 Sn22 3.485192 1_655
Pr4 Sn18 3.485239 1_655
Pr4 Sn14 3.485272 1_655
Pr5 Sn9 3.422036 1_555
Pr5 Sn5 3.422047 1_555
Pr5 Sn3 3.422095 1_555
Pr5 Sn13 3.422138 1_455
Pr5 Ru3 3.465419 1_455
Pr5 Ru1 3.465504 1_455
Pr5 Ru6 3.465544 1_555
Pr5 Ru4 3.465575 1_555
Pr5 Sn14 3.484788 1_556
Pr5 Sn23 3.484801 1_455
Pr5 Sn25 3.484805 1_455
Pr5 Sn18 3.484842 1_556
Pr5 Sn20 3.484892 1_456
Pr5 Sn24 3.484909 1_555
Pr5 Sn16 3.484954 1_456
Pr5 Sn22 3.484960 1_555
Sn0 Sn5 3.306145 1_554
Sn0 Sn3 3.306154 1_544
Sn0 Sn6 3.306217 1_555
Sn0 Sn16 3.306278 1_445
Sn0 Sn14 3.306288 1_555
Sn0 Sn8 3.306303 1_454
Sn0 Sn18 3.306307 1_545
Sn0 Sn10 3.306312 1_554
Sn0 Sn20 3.306332 1_455
Sn0 Sn12 3.306409 1_455
Sn0 Sn4 3.306504 1_545
Sn0 Sn2 3.306517 1_555
Sn1 Sn13 3.306136 1_555
Sn1 Sn9 3.306221 1_555
Sn1 Sn24 3.306234 1_555
Sn1 Sn22 3.306271 1_555
Sn1 Sn21 3.306293 1_555
Sn1 Sn15 3.306303 1_555
Sn1 Sn17 3.306306 1_555
Sn1 Sn25 3.306322 1_555
Sn1 Sn19 3.306336 1_555
Sn1 Sn23 3.306359 1_555
Sn1 Sn11 3.306485 1_555
Sn1 Sn7 3.306591 1_555
Sn2 Sn4 3.027983 1_545
Sn2 Sn24 3.347401 1_555
Sn2 Sn23 3.347461 1_455
Sn3 Sn5 3.027944 1_565
Sn10 Sn6 3.028055 1_556
Sn10 Sn21 3.347105 1_545
Sn10 Sn17 3.347127 1_555
Sn11 Sn7 3.027958 1_555
Sn11 Sn18 3.347316 1_555
Sn11 Sn14 3.347380 1_555
Sn12 Sn8 3.027963 1_554
Sn12 Sn19 3.347493 1_555
Sn12 Sn15 3.347495 1_545
Sn13 Sn9 3.027931 1_555
Sn13 Sn20 3.347197 1_556
Sn13 Sn16 3.347279 1_556
Sn14 Sn20 3.027979 1_455
Sn14 Sn9 3.347179 1_554
Sn15 Sn21 3.028087 1_555
Sn15 Sn6 3.347424 1_565
Sn16 Sn18 3.027959 1_655
Sn16 Sn7 3.347401 1_555
Sn17 Sn19 3.028050 1_555
Sn17 Sn8 3.347113 1_555
Sn18 Sn9 3.347205 1_554
Sn19 Sn6 3.347476 1_555
Sn20 Sn7 3.347451 1_555
Sn21 Sn8 3.347201 1_565
Sn22 Sn24 3.027934 1_555
Sn22 Sn3 3.347205 1_555
Sn22 Sn4 3.347338 1_555
Sn23 Sn25 3.027936 1_555
Sn23 Sn5 3.347228 1_655
Sn24 Sn5 3.347219 1_555
Sn25 Sn3 3.347304 1_655
Sn25 Sn4 3.347444 1_655
Ru0 Sn2 2.668477 1_555
Ru0 Sn11 2.668508 1_555
Ru0 Sn19 2.668591 1_555
Ru0 Sn6 2.668632 1_555
Ru0 Sn14 2.668722 1_555
Ru0 Sn24 2.668771 1_555
Ru1 Sn16 2.668403 1_556
Ru1 Sn25 2.668424 1_555
Ru1 Sn8 2.668511 1_565
Ru1 Sn21 2.668519 1_555
Ru1 Sn13 2.668550 1_555
Ru1 Sn3 2.668626 1_655
Ru2 Sn7 2.668462 1_555
Ru2 Sn4 2.668533 1_655
Ru2 Sn12 2.668579 1_565
Ru2 Sn15 2.668599 1_555
Ru2 Sn16 2.668643 1_555
Ru2 Sn25 2.668693 1_555
Ru3 Sn20 2.668322 1_556
Ru3 Sn23 2.668323 1_555
Ru3 Sn8 2.668438 1_555
Ru3 Sn17 2.668452 1_555
Ru3 Sn13 2.668499 1_555
Ru3 Sn5 2.668560 1_655
Ru4 Sn14 2.668301 1_556
Ru4 Sn24 2.668352 1_555
Ru4 Sn10 2.668390 1_555
Ru4 Sn17 2.668391 1_555
Ru4 Sn5 2.668423 1_555
Ru4 Sn9 2.668451 1_555
Ru5 Sn4 2.668427 1_555
Ru5 Sn11 2.668436 1_555
Ru5 Sn15 2.668524 1_555
Ru5 Sn6 2.668558 1_565
Ru5 Sn18 2.668676 1_555
Ru5 Sn22 2.668697 1_555
Ru6 Sn21 2.668309 1_555
Ru6 Sn18 2.668312 1_556
Ru6 Sn22 2.668345 1_555
Ru6 Sn10 2.668370 1_565
Ru6 Sn3 2.668386 1_555
Ru6 Sn9 2.668420 1_555
Ru7 Sn7 2.668483 1_555
Ru7 Sn2 2.668517 1_655
Ru7 Sn19 2.668569 1_555
Ru7 Sn12 2.668575 1_555
Ru7 Sn20 2.668684 1_555
Ru7 Sn23 2.668686 1_555
