# generated using pymatgen
data_Ba2MnP4(H3O8)2
_symmetry_space_group_name_H-M   'P 1'
_cell_length_a   5.48143587
_cell_length_b   10.41704000
_cell_length_c   12.20275028
_cell_angle_alpha   90.00000000
_cell_angle_beta   99.81037858
_cell_angle_gamma   90.00000000
_symmetry_Int_Tables_number   1
_chemical_formula_structural   Ba2MnP4(H3O8)2
_chemical_formula_sum   'Ba4 Mn2 P8 H12 O32'
_cell_volume   686.59215398
_cell_formula_units_Z   2
loop_
 _symmetry_equiv_pos_site_id
 _symmetry_equiv_pos_as_xyz
  1  'x, y, z'
loop_
 _atom_site_type_symbol
 _atom_site_label
 _atom_site_symmetry_multiplicity
 _atom_site_fract_x
 _atom_site_fract_y
 _atom_site_fract_z
 _atom_site_occupancy
  Ba  Ba0  1  0.63635600  0.14900300  0.81947200  1
  Ba  Ba1  1  0.36364400  0.64900300  0.68052800  1
  Ba  Ba2  1  0.36364400  0.85099700  0.18052800  1
  Ba  Ba3  1  0.63635600  0.35099700  0.31947200  1
  Mn  Mn0  1  0.50000000  0.50000000  0.00000000  1
  Mn  Mn1  1  0.50000000  0.00000000  0.50000000  1
  P  P0  1  0.91678300  0.49136100  0.80776100  1
  P  P1  1  0.08321700  0.99136100  0.69223900  1
  P  P2  1  0.08321700  0.50863900  0.19223900  1
  P  P3  1  0.91678300  0.00863900  0.30776100  1
  P  P4  1  0.26486900  0.19858900  0.05333900  1
  P  P5  1  0.73513100  0.69858900  0.44666100  1
  P  P6  1  0.73513100  0.80141100  0.94666100  1
  P  P7  1  0.26486900  0.30141100  0.55333900  1
  H  H0  1  0.11229100  0.32443200  0.74769200  1
  H  H1  1  0.88770900  0.82443200  0.75230800  1
  H  H2  1  0.88770900  0.67556800  0.25230800  1
  H  H3  1  0.11229100  0.17556800  0.24769200  1
  H  H4  1  0.20752400  0.03743400  0.93209400  1
  H  H5  1  0.79247600  0.53743400  0.56790600  1
  H  H6  1  0.79247600  0.96256600  0.06790600  1
  H  H7  1  0.20752400  0.46256600  0.43209400  1
  H  H8  1  0.92643700  0.31598100  0.05471500  1
  H  H9  1  0.07356300  0.81598100  0.44528500  1
  H  H10  1  0.07356300  0.68401900  0.94528500  1
  H  H11  1  0.92643700  0.18401900  0.55471500  1
  O  O0  1  0.68142000  0.49447200  0.85906100  1
  O  O1  1  0.31858000  0.99447200  0.64093900  1
  O  O2  1  0.31858000  0.50552800  0.14093900  1
  O  O3  1  0.68142000  0.00552800  0.35906100  1
  O  O4  1  0.85327700  0.44762300  0.11879300  1
  O  O5  1  0.14672300  0.94762300  0.38120700  1
  O  O6  1  0.14672300  0.55237700  0.88120700  1
  O  O7  1  0.85327700  0.05237700  0.61879300  1
  O  O8  1  0.42609500  0.27900500  0.98957300  1
  O  O9  1  0.57390500  0.77900500  0.51042700  1
  O  O10  1  0.57390500  0.72099500  0.01042700  1
  O  O11  1  0.42609500  0.22099500  0.48957300  1
  O  O12  1  0.33664600  0.19696100  0.17938000  1
  O  O13  1  0.66335400  0.69696100  0.32062000  1
  O  O14  1  0.66335400  0.80303900  0.82062000  1
  O  O15  1  0.33664600  0.30303900  0.67938000  1
  O  O16  1  0.87448300  0.55771300  0.69293200  1
  O  O17  1  0.12551700  0.05771300  0.80706800  1
  O  O18  1  0.12551700  0.44228700  0.30706800  1
  O  O19  1  0.87448300  0.94228700  0.19293200  1
  O  O20  1  0.96985700  0.34232000  0.78922300  1
  O  O21  1  0.03014300  0.84232000  0.71077700  1
  O  O22  1  0.03014300  0.65768000  0.21077700  1
  O  O23  1  0.96985700  0.15768000  0.28922300  1
  O  O24  1  0.26741100  0.05204700  0.01565300  1
  O  O25  1  0.73258900  0.55204700  0.48434700  1
  O  O26  1  0.73258900  0.94795300  0.98434700  1
  O  O27  1  0.26741100  0.44795300  0.51565300  1
  O  O28  1  0.97755000  0.23383800  0.01990800  1
  O  O29  1  0.02245000  0.73383800  0.48009200  1
  O  O30  1  0.02245000  0.76616200  0.98009200  1
  O  O31  1  0.97755000  0.26616200  0.51990800  1
loop_
_geom_bond_atom_site_label_1
_geom_bond_atom_site_label_2
_geom_bond_distance
_geom_bond_site_symmetry_2
Ba0 O15 2.690545 1_555
Ba0 O20 2.786283 1_555
Ba0 O17 2.873144 1_655
Ba0 O8 2.878551 1_555
Ba0 O26 2.889763 1_545
Ba0 O17 2.936590 1_555
Ba0 O28 2.949950 1_556
Ba0 O1 3.013056 1_545
Ba0 O7 3.068554 1_555
Ba1 O14 2.690545 1_555
Ba1 O21 2.786283 1_555
Ba1 O16 2.873144 1_455
Ba1 O9 2.878551 1_555
Ba1 O27 2.889763 1_555
Ba1 O16 2.936590 1_555
Ba1 O29 2.949950 1_555
Ba1 O0 3.013056 1_555
Ba1 O6 3.068554 1_555
Ba2 O13 2.690545 1_555
Ba2 O22 2.786283 1_555
Ba2 O19 2.873144 1_455
Ba2 O10 2.878551 1_555
Ba2 O24 2.889763 1_565
Ba2 O19 2.936590 1_555
Ba2 O30 2.949950 1_554
Ba2 O3 3.013056 1_565
Ba2 O5 3.068554 1_555
Ba3 O12 2.690545 1_555
Ba3 O23 2.786283 1_555
Ba3 O18 2.873144 1_655
Ba3 O11 2.878551 1_555
Ba3 O25 2.889763 1_555
Ba3 O18 2.936590 1_555
Ba3 O31 2.949950 1_555
Ba3 O2 3.013056 1_555
Ba3 O4 3.068554 1_555
Mn0 O2 2.129065 1_555
Mn0 O0 2.129065 1_554
Mn0 O4 2.278671 1_555
Mn0 O6 2.278671 1_554
Mn0 O8 2.337191 1_554
Mn0 O10 2.337191 1_555
Mn1 O3 2.129065 1_555
Mn1 O1 2.129065 1_545
Mn1 O5 2.278671 1_545
Mn1 O7 2.278671 1_555
Mn1 O11 2.337191 1_555
Mn1 O9 2.337191 1_545
H0 O20 1.017820 1_455
H0 O15 1.614393 1_555
H1 O21 1.017820 1_655
H1 O14 1.614393 1_555
H2 O22 1.017820 1_655
H2 O13 1.614393 1_555
H3 O23 1.017820 1_455
H3 O12 1.614393 1_555
H4 O24 1.027888 1_556
H4 O17 1.529910 1_555
H5 O25 1.027888 1_555
H5 O16 1.529910 1_555
H6 O26 1.027888 1_554
H6 O19 1.529910 1_555
H7 O27 1.027888 1_555
H7 O18 1.529910 1_555
H8 O28 1.015704 1_555
H8 O4 1.661206 1_555
H9 O29 1.015704 1_555
H9 O5 1.661206 1_555
H10 O30 1.015704 1_555
H10 O6 1.661206 1_555
H11 O31 1.015704 1_555
H11 O7 1.661206 1_555
O0 P0 1.527277 1_555
O1 P1 1.527277 1_555
O2 P2 1.527277 1_555
O3 P3 1.527277 1_555
O4 P2 1.552710 1_655
O5 P3 1.552710 1_465
O6 P0 1.552710 1_455
O7 P1 1.552710 1_645
O8 P4 1.523995 1_556
O9 P5 1.523995 1_555
O10 P6 1.523995 1_554
O11 P7 1.523995 1_555
O12 P4 1.521334 1_555
O13 P5 1.521334 1_555
O14 P6 1.521334 1_555
O15 P7 1.521334 1_555
O16 P0 1.544097 1_555
O17 P1 1.544097 1_545
O18 P2 1.544097 1_555
O19 P3 1.544097 1_565
O20 P0 1.602715 1_555
O21 P1 1.602715 1_555
O22 P2 1.602715 1_555
O23 P3 1.602715 1_555
O24 P4 1.595044 1_555
O25 P5 1.595044 1_555
O26 P6 1.595044 1_555
O27 P7 1.595044 1_555
O28 P4 1.600838 1_655
O29 P5 1.600838 1_455
O30 P6 1.600838 1_455
O31 P7 1.600838 1_655
