# generated using pymatgen
data_Fe3Ni
_symmetry_space_group_name_H-M   'P 1'
_cell_length_a   16.83316058
_cell_length_b   16.83316058
_cell_length_c   16.83316024
_cell_angle_alpha   17.10517836
_cell_angle_beta   17.10517836
_cell_angle_gamma   17.10518398
_symmetry_Int_Tables_number   1
_chemical_formula_structural   Fe3Ni
_chemical_formula_sum   'Fe24 Ni8'
_cell_volume   360.00610726
_cell_formula_units_Z   8
loop_
 _symmetry_equiv_pos_site_id
 _symmetry_equiv_pos_as_xyz
  1  'x, y, z'
loop_
 _atom_site_type_symbol
 _atom_site_label
 _atom_site_symmetry_multiplicity
 _atom_site_fract_x
 _atom_site_fract_y
 _atom_site_fract_z
 _atom_site_occupancy
  Fe  Fe0_0  1  0.12506600  0.12506600  0.12506600  1
  Fe  Fe0_1  1  0.12506600  0.12506600  0.62506600  1
  Fe  Fe0_2  1  0.12506600  0.62506600  0.12506600  1
  Fe  Fe0_3  1  0.12506600  0.62506600  0.62506600  1
  Fe  Fe0_4  1  0.62506600  0.12506600  0.12506600  1
  Fe  Fe0_5  1  0.62506600  0.12506600  0.62506600  1
  Fe  Fe0_6  1  0.62506600  0.62506600  0.12506600  1
  Fe  Fe0_7  1  0.62506600  0.62506600  0.62506600  1
  Fe  Fe1_0  1  0.25000000  0.25000000  0.25000000  1
  Fe  Fe1_1  1  0.25000000  0.25000000  0.75000000  1
  Fe  Fe1_2  1  0.25000000  0.75000000  0.25000000  1
  Fe  Fe1_3  1  0.25000000  0.75000000  0.75000000  1
  Fe  Fe1_4  1  0.75000000  0.25000000  0.25000000  1
  Fe  Fe1_5  1  0.75000000  0.25000000  0.75000000  1
  Fe  Fe1_6  1  0.75000000  0.75000000  0.25000000  1
  Fe  Fe1_7  1  0.75000000  0.75000000  0.75000000  1
  Fe  Fe2_0  1  0.37493400  0.37493400  0.37493400  1
  Fe  Fe2_1  1  0.37493400  0.37493400  0.87493400  1
  Fe  Fe2_2  1  0.37493400  0.87493400  0.37493400  1
  Fe  Fe2_3  1  0.37493400  0.87493400  0.87493400  1
  Fe  Fe2_4  1  0.87493400  0.37493400  0.37493400  1
  Fe  Fe2_5  1  0.87493400  0.37493400  0.87493400  1
  Fe  Fe2_6  1  0.87493400  0.87493400  0.37493400  1
  Fe  Fe2_7  1  0.87493400  0.87493400  0.87493400  1
  Ni  Ni0_0  1  0.00000000  0.00000000  0.00000000  1
  Ni  Ni0_1  1  0.00000000  0.00000000  0.50000000  1
  Ni  Ni0_2  1  0.00000000  0.50000000  0.00000000  1
  Ni  Ni0_3  1  0.00000000  0.50000000  0.50000000  1
  Ni  Ni0_4  1  0.50000000  0.00000000  0.00000000  1
  Ni  Ni0_5  1  0.50000000  0.00000000  0.50000000  1
  Ni  Ni0_6  1  0.50000000  0.50000000  0.00000000  1
  Ni  Ni0_7  1  0.50000000  0.50000000  0.50000000  1
loop_
_geom_bond_atom_site_label_1
_geom_bond_atom_site_label_2
_geom_bond_distance
_geom_bond_site_symmetry_2
Fe0_0 Fe0_5 2.503379 1_455
Fe0_0 Fe0_3 2.503379 1_545
Fe0_0 Fe0_5 2.503379 1_554
Fe0_0 Fe0_3 2.503379 1_554
Fe0_0 Fe0_6 2.503380 1_545
Fe0_0 Fe0_6 2.503380 1_455
Fe0_0 Ni0_1 2.524328 1_555
Fe0_0 Ni0_2 2.524328 1_555
Fe0_0 Ni0_4 2.524328 1_555
Fe0_0 Fe1_1 2.529715 1_554
Fe0_0 Fe1_2 2.529715 1_545
Fe0_0 Fe1_4 2.529715 1_455
Fe0_1 Fe0_4 2.503379 1_456
Fe0_1 Fe0_2 2.503379 1_546
Fe0_1 Fe0_2 2.503379 1_555
Fe0_1 Fe0_4 2.503379 1_555
Fe0_1 Fe0_7 2.503380 1_455
Fe0_1 Fe0_7 2.503380 1_545
Fe0_1 Ni0_0 2.524328 1_556
Fe0_1 Ni0_5 2.524328 1_555
Fe0_1 Ni0_3 2.524328 1_555
Fe0_1 Fe1_0 2.529715 1_555
Fe0_1 Fe1_3 2.529715 1_545
Fe0_1 Fe1_5 2.529715 1_455
Fe0_2 Fe0_7 2.503379 1_455
Fe0_2 Fe0_7 2.503379 1_554
Fe0_2 Fe0_4 2.503380 1_465
Fe0_2 Fe0_4 2.503380 1_555
Fe0_2 Ni0_3 2.524328 1_555
Fe0_2 Ni0_0 2.524328 1_565
Fe0_2 Ni0_6 2.524328 1_555
Fe0_2 Fe1_3 2.529715 1_554
Fe0_2 Fe1_6 2.529715 1_455
Fe0_2 Fe1_0 2.529715 1_555
Fe0_3 Fe0_6 2.503379 1_456
Fe0_3 Fe0_6 2.503379 1_555
Fe0_3 Fe0_5 2.503380 1_465
Fe0_3 Fe0_5 2.503380 1_555
Fe0_3 Ni0_2 2.524328 1_556
Fe0_3 Ni0_1 2.524328 1_565
Fe0_3 Ni0_7 2.524328 1_555
Fe0_3 Fe1_2 2.529715 1_555
Fe0_3 Fe1_1 2.529715 1_555
Fe0_3 Fe1_7 2.529715 1_455
Fe0_4 Fe0_7 2.503379 1_545
Fe0_4 Fe0_7 2.503379 1_554
Fe0_4 Ni0_5 2.524328 1_555
Fe0_4 Ni0_6 2.524328 1_555
Fe0_4 Ni0_0 2.524328 1_655
Fe0_4 Fe1_5 2.529715 1_554
Fe0_4 Fe1_6 2.529715 1_545
Fe0_4 Fe1_0 2.529715 1_555
Fe0_5 Fe0_6 2.503379 1_546
Fe0_5 Fe0_6 2.503379 1_555
Fe0_5 Ni0_4 2.524328 1_556
Fe0_5 Ni0_1 2.524328 1_655
Fe0_5 Ni0_7 2.524328 1_555
Fe0_5 Fe1_4 2.529715 1_555
Fe0_5 Fe1_1 2.529715 1_555
Fe0_5 Fe1_7 2.529715 1_545
Fe0_6 Ni0_7 2.524328 1_555
Fe0_6 Ni0_2 2.524328 1_655
Fe0_6 Ni0_4 2.524328 1_565
Fe0_6 Fe1_7 2.529715 1_554
Fe0_6 Fe1_4 2.529715 1_555
Fe0_6 Fe1_2 2.529715 1_555
Fe0_7 Ni0_6 2.524328 1_556
Fe0_7 Ni0_3 2.524328 1_655
Fe0_7 Ni0_5 2.524328 1_565
Fe0_7 Fe1_6 2.529715 1_555
Fe0_7 Fe1_5 2.529715 1_555
Fe0_7 Fe1_3 2.529715 1_555
Fe1_0 Fe1_5 2.503379 1_455
Fe1_0 Fe1_3 2.503379 1_545
Fe1_0 Fe1_5 2.503379 1_554
Fe1_0 Fe1_3 2.503379 1_554
Fe1_0 Fe1_6 2.503380 1_545
Fe1_0 Fe1_6 2.503380 1_455
Fe1_0 Fe2_1 2.529715 1_554
Fe1_0 Fe2_2 2.529715 1_545
Fe1_0 Fe2_4 2.529715 1_455
Fe1_1 Fe1_4 2.503379 1_456
Fe1_1 Fe1_2 2.503379 1_546
Fe1_1 Fe1_2 2.503379 1_555
Fe1_1 Fe1_4 2.503379 1_555
Fe1_1 Fe1_7 2.503380 1_545
Fe1_1 Fe1_7 2.503380 1_455
Fe1_1 Fe2_0 2.529715 1_555
Fe1_1 Fe2_5 2.529715 1_455
Fe1_1 Fe2_3 2.529715 1_545
Fe1_2 Fe1_7 2.503379 1_554
Fe1_2 Fe1_7 2.503379 1_455
Fe1_2 Fe1_4 2.503380 1_465
Fe1_2 Fe1_4 2.503380 1_555
Fe1_2 Fe2_3 2.529715 1_554
Fe1_2 Fe2_0 2.529715 1_555
Fe1_2 Fe2_6 2.529715 1_455
Fe1_3 Fe1_6 2.503379 1_456
Fe1_3 Fe1_6 2.503379 1_555
Fe1_3 Fe1_5 2.503380 1_465
Fe1_3 Fe1_5 2.503380 1_555
Fe1_3 Fe2_2 2.529715 1_555
Fe1_3 Fe2_7 2.529715 1_455
Fe1_3 Fe2_1 2.529715 1_555
Fe1_4 Fe1_7 2.503379 1_554
Fe1_4 Fe1_7 2.503379 1_545
Fe1_4 Fe2_5 2.529715 1_554
Fe1_4 Fe2_0 2.529715 1_555
Fe1_4 Fe2_6 2.529715 1_545
Fe1_5 Fe1_6 2.503379 1_555
Fe1_5 Fe1_6 2.503379 1_546
Fe1_5 Fe2_4 2.529715 1_555
Fe1_5 Fe2_7 2.529715 1_545
Fe1_5 Fe2_1 2.529715 1_555
Fe1_6 Fe2_7 2.529715 1_554
Fe1_6 Fe2_2 2.529715 1_555
Fe1_6 Fe2_4 2.529715 1_555
Fe1_7 Fe2_6 2.529715 1_555
Fe1_7 Fe2_5 2.529715 1_555
Fe1_7 Fe2_3 2.529715 1_555
Fe2_0 Fe2_5 2.503379 1_455
Fe2_0 Fe2_3 2.503379 1_545
Fe2_0 Fe2_3 2.503379 1_554
Fe2_0 Fe2_5 2.503379 1_554
Fe2_0 Fe2_6 2.503380 1_455
Fe2_0 Fe2_6 2.503380 1_545
Fe2_0 Ni0_6 2.524328 1_555
Fe2_0 Ni0_5 2.524328 1_555
Fe2_0 Ni0_3 2.524328 1_555
Fe2_1 Fe2_4 2.503379 1_456
Fe2_1 Fe2_2 2.503379 1_546
Fe2_1 Fe2_2 2.503379 1_555
Fe2_1 Fe2_4 2.503379 1_555
Fe2_1 Fe2_7 2.503380 1_545
Fe2_1 Fe2_7 2.503380 1_455
Fe2_1 Ni0_7 2.524328 1_555
Fe2_1 Ni0_4 2.524328 1_556
Fe2_1 Ni0_2 2.524328 1_556
Fe2_2 Fe2_7 2.503379 1_455
Fe2_2 Fe2_7 2.503379 1_554
Fe2_2 Fe2_4 2.503380 1_465
Fe2_2 Fe2_4 2.503380 1_555
Fe2_2 Ni0_4 2.524328 1_565
Fe2_2 Ni0_7 2.524328 1_555
Fe2_2 Ni0_1 2.524328 1_565
Fe2_3 Fe2_6 2.503379 1_555
Fe2_3 Fe2_6 2.503379 1_456
Fe2_3 Fe2_5 2.503380 1_465
Fe2_3 Fe2_5 2.503380 1_555
Fe2_3 Ni0_5 2.524328 1_565
Fe2_3 Ni0_0 2.524328 1_566
Fe2_3 Ni0_6 2.524328 1_556
Fe2_4 Fe2_7 2.503379 1_545
Fe2_4 Fe2_7 2.503379 1_554
Fe2_4 Ni0_2 2.524328 1_655
Fe2_4 Ni0_7 2.524328 1_555
Fe2_4 Ni0_1 2.524328 1_655
Fe2_5 Fe2_6 2.503379 1_555
Fe2_5 Fe2_6 2.503379 1_546
Fe2_5 Ni0_3 2.524328 1_655
Fe2_5 Ni0_0 2.524328 1_656
Fe2_5 Ni0_6 2.524328 1_556
Fe2_6 Ni0_0 2.524328 1_665
Fe2_6 Ni0_3 2.524328 1_655
Fe2_6 Ni0_5 2.524328 1_565
Fe2_7 Ni0_1 2.524328 1_665
Fe2_7 Ni0_2 2.524328 1_656
Fe2_7 Ni0_4 2.524328 1_566
Ni0_0 Ni0_5 2.503379 1_455
Ni0_0 Ni0_3 2.503379 1_545
Ni0_0 Ni0_3 2.503379 1_554
Ni0_0 Ni0_5 2.503379 1_554
Ni0_0 Ni0_6 2.503380 1_455
Ni0_0 Ni0_6 2.503380 1_545
Ni0_1 Ni0_4 2.503379 1_555
Ni0_1 Ni0_4 2.503379 1_456
Ni0_1 Ni0_2 2.503379 1_546
Ni0_1 Ni0_2 2.503379 1_555
Ni0_1 Ni0_7 2.503380 1_455
Ni0_1 Ni0_7 2.503380 1_545
Ni0_2 Ni0_7 2.503379 1_455
Ni0_2 Ni0_7 2.503379 1_554
Ni0_2 Ni0_4 2.503380 1_555
Ni0_2 Ni0_4 2.503380 1_465
Ni0_3 Ni0_6 2.503379 1_555
Ni0_3 Ni0_6 2.503379 1_456
Ni0_3 Ni0_5 2.503380 1_465
Ni0_3 Ni0_5 2.503380 1_555
Ni0_4 Ni0_7 2.503379 1_545
Ni0_4 Ni0_7 2.503379 1_554
Ni0_5 Ni0_6 2.503379 1_555
Ni0_5 Ni0_6 2.503379 1_546
