# generated using pymatgen
data_Cs3In3(PO4)4
_symmetry_space_group_name_H-M   'P 1'
_cell_length_a   9.78639739
_cell_length_b   9.78639739
_cell_length_c   10.10470024
_cell_angle_alpha   88.72480134
_cell_angle_beta   88.72480134
_cell_angle_gamma   62.85679826
_symmetry_Int_Tables_number   1
_chemical_formula_structural   Cs3In3(PO4)4
_chemical_formula_sum   'Cs6 In6 P8 O32'
_cell_volume   860.88964026
_cell_formula_units_Z   2
loop_
 _symmetry_equiv_pos_site_id
 _symmetry_equiv_pos_as_xyz
  1  'x, y, z'
loop_
 _atom_site_type_symbol
 _atom_site_label
 _atom_site_symmetry_multiplicity
 _atom_site_fract_x
 _atom_site_fract_y
 _atom_site_fract_z
 _atom_site_occupancy
  Cs  Cs0  1  0.33156100  0.44379500  0.18551300  1
  Cs  Cs1  1  0.55620500  0.66843900  0.31448700  1
  Cs  Cs2  1  0.66843900  0.55620500  0.81448700  1
  Cs  Cs3  1  0.44379500  0.33156100  0.68551300  1
  Cs  Cs4  1  0.00000000  0.50000000  0.50000000  1
  Cs  Cs5  1  0.50000000  0.00000000  0.00000000  1
  In  In0  1  0.08358800  0.91641200  0.25000000  1
  In  In1  1  0.91641200  0.08358800  0.75000000  1
  In  In2  1  0.03486400  0.67201800  0.83085800  1
  In  In3  1  0.32798200  0.96513600  0.66914200  1
  In  In4  1  0.96513600  0.32798200  0.16914200  1
  In  In5  1  0.67201800  0.03486400  0.33085800  1
  P  P0  1  0.20511100  0.77391300  0.56125100  1
  P  P1  1  0.22608700  0.79488900  0.93874900  1
  P  P2  1  0.79488900  0.22608700  0.43874900  1
  P  P3  1  0.77391300  0.20511100  0.06125100  1
  P  P4  1  0.88442200  0.71673800  0.14490100  1
  P  P5  1  0.28326200  0.11557800  0.35509900  1
  P  P6  1  0.11557800  0.28326200  0.85509900  1
  P  P7  1  0.71673800  0.88442200  0.64490100  1
  O  O0  1  0.16594100  0.66352800  0.64635800  1
  O  O1  1  0.33647200  0.83405900  0.85364200  1
  O  O2  1  0.83405900  0.33647200  0.35364200  1
  O  O3  1  0.66352800  0.16594100  0.14635800  1
  O  O4  1  0.11304400  0.94631400  0.61356500  1
  O  O5  1  0.05368600  0.88695600  0.88643500  1
  O  O6  1  0.88695600  0.05368600  0.38643500  1
  O  O7  1  0.94631400  0.11304400  0.11356500  1
  O  O8  1  0.17312700  0.75381400  0.41557800  1
  O  O9  1  0.24618600  0.82687300  0.08442200  1
  O  O10  1  0.82687300  0.24618600  0.58442200  1
  O  O11  1  0.75381400  0.17312700  0.91557800  1
  O  O12  1  0.37631800  0.74278200  0.57523500  1
  O  O13  1  0.25721800  0.62368200  0.92476500  1
  O  O14  1  0.62368200  0.25721800  0.42476500  1
  O  O15  1  0.74278200  0.37631800  0.07523500  1
  O  O16  1  0.73015400  0.84160400  0.20236500  1
  O  O17  1  0.15839600  0.26984600  0.29763500  1
  O  O18  1  0.26984600  0.15839600  0.79763500  1
  O  O19  1  0.84160400  0.73015400  0.70236500  1
  O  O20  1  0.87265700  0.71264400  0.99184000  1
  O  O21  1  0.28735600  0.12734300  0.50816000  1
  O  O22  1  0.12734300  0.28735600  0.00816000  1
  O  O23  1  0.71264400  0.87265700  0.49184000  1
  O  O24  1  0.90680800  0.56086700  0.20585300  1
  O  O25  1  0.43913300  0.09319200  0.29414700  1
  O  O26  1  0.09319200  0.43913300  0.79414700  1
  O  O27  1  0.56086700  0.90680800  0.70585300  1
  O  O28  1  0.01832400  0.74732900  0.18654900  1
  O  O29  1  0.25267100  0.98167600  0.31345100  1
  O  O30  1  0.98167600  0.25267100  0.81345100  1
  O  O31  1  0.74732900  0.01832400  0.68654900  1
loop_
_geom_bond_atom_site_label_1
_geom_bond_atom_site_label_2
_geom_bond_distance
_geom_bond_site_symmetry_2
Cs0 O13 3.046438 1_554
Cs0 O17 3.084538 1_555
Cs0 O28 3.148403 1_555
Cs0 O3 3.167843 1_555
Cs0 O25 3.267103 1_555
Cs0 O22 3.552897 1_555
Cs0 O14 3.563666 1_555
Cs0 O9 3.578507 1_555
Cs0 O8 3.588132 1_555
Cs1 O12 3.046438 1_555
Cs1 O16 3.084538 1_555
Cs1 O29 3.148403 1_555
Cs1 O2 3.167843 1_555
Cs1 O24 3.267103 1_555
Cs1 O23 3.552897 1_555
Cs1 O15 3.563666 1_555
Cs1 O8 3.578507 1_555
Cs1 O9 3.588132 1_555
Cs2 O15 3.046438 1_556
Cs2 O19 3.084538 1_555
Cs2 O30 3.148403 1_555
Cs2 O1 3.167843 1_555
Cs2 O27 3.267103 1_555
Cs2 O20 3.552897 1_555
Cs2 O12 3.563666 1_555
Cs2 O11 3.578507 1_555
Cs2 O10 3.588132 1_555
Cs3 O14 3.046438 1_555
Cs3 O18 3.084538 1_555
Cs3 O31 3.148403 1_555
Cs3 O0 3.167843 1_555
Cs3 O26 3.267103 1_555
Cs3 O21 3.552897 1_555
Cs3 O13 3.563666 1_555
Cs3 O10 3.578507 1_555
Cs3 O11 3.588132 1_555
Cs4 O19 2.921583 1_455
Cs4 O17 2.921583 1_555
Cs4 O24 3.093077 1_455
Cs4 O26 3.093077 1_555
Cs4 O0 3.157389 1_555
Cs4 O2 3.157389 1_455
Cs4 O23 3.443056 1_455
Cs4 O21 3.443056 1_555
Cs4 O8 3.667359 1_555
Cs4 O10 3.667359 1_455
Cs5 O16 2.921583 1_545
Cs5 O18 2.921583 1_554
Cs5 O25 3.093077 1_555
Cs5 O27 3.093077 1_544
Cs5 O1 3.157389 1_544
Cs5 O3 3.157389 1_555
Cs5 O22 3.443056 1_555
Cs5 O20 3.443056 1_544
Cs5 O11 3.667359 1_554
Cs5 O9 3.667359 1_545
In0 O29 2.141695 1_555
In0 O28 2.141695 1_555
In0 O8 2.184887 1_555
In0 O9 2.184887 1_555
In0 O7 2.239191 1_465
In0 O6 2.239191 1_465
In1 O31 2.141695 1_555
In1 O30 2.141695 1_555
In1 O10 2.184887 1_555
In1 O11 2.184887 1_555
In1 O4 2.239191 1_645
In1 O5 2.239191 1_645
In2 O26 2.121068 1_555
In2 O20 2.159176 1_455
In2 O19 2.163603 1_455
In2 O0 2.220650 1_555
In2 O13 2.234293 1_555
In2 O5 2.276972 1_555
In3 O27 2.121068 1_555
In3 O21 2.159176 1_565
In3 O18 2.163603 1_565
In3 O1 2.220650 1_555
In3 O12 2.234293 1_555
In3 O4 2.276972 1_555
In4 O24 2.121068 1_555
In4 O22 2.159176 1_655
In4 O17 2.163603 1_655
In4 O2 2.220650 1_555
In4 O15 2.234293 1_555
In4 O7 2.276972 1_555
In5 O25 2.121068 1_555
In5 O23 2.159176 1_545
In5 O16 2.163603 1_545
In5 O3 2.220650 1_555
In5 O14 2.234293 1_555
In5 O6 2.276972 1_555
O0 P0 1.541206 1_555
O1 P1 1.541206 1_555
O2 P2 1.541206 1_555
O3 P3 1.541206 1_555
O4 P0 1.602901 1_555
O5 P1 1.602901 1_555
O6 P2 1.602901 1_555
O7 P3 1.602901 1_555
O8 P0 1.546921 1_555
O9 P1 1.546921 1_554
O10 P2 1.546921 1_555
O11 P3 1.546921 1_556
O12 P0 1.569378 1_555
O13 P1 1.569378 1_555
O14 P2 1.569378 1_555
O15 P3 1.569378 1_555
O16 P4 1.555295 1_555
O17 P5 1.555295 1_555
O18 P6 1.555295 1_555
O19 P7 1.555295 1_555
O20 P4 1.556225 1_556
O21 P5 1.556225 1_555
O22 P6 1.556225 1_554
O23 P7 1.556225 1_555
O24 P4 1.553541 1_555
O25 P5 1.553541 1_555
O26 P6 1.553541 1_555
O27 P7 1.553541 1_555
O28 P4 1.540141 1_455
O29 P5 1.540141 1_565
O30 P6 1.540141 1_655
O31 P7 1.540141 1_545
