# generated using pymatgen
data_BaV13O18
_symmetry_space_group_name_H-M   'P 1'
_cell_length_a   7.38293300
_cell_length_b   7.90597049
_cell_length_c   8.01072427
_cell_angle_alpha   110.92714322
_cell_angle_beta   106.26145790
_cell_angle_gamma   108.41277842
_symmetry_Int_Tables_number   1
_chemical_formula_structural   BaV13O18
_chemical_formula_sum   'Ba1 V13 O18'
_cell_volume   371.44184089
_cell_formula_units_Z   1
loop_
 _symmetry_equiv_pos_site_id
 _symmetry_equiv_pos_as_xyz
  1  'x, y, z'
loop_
 _atom_site_type_symbol
 _atom_site_label
 _atom_site_symmetry_multiplicity
 _atom_site_fract_x
 _atom_site_fract_y
 _atom_site_fract_z
 _atom_site_occupancy
  Ba  Ba0  1  0.99576600  0.99590800  0.00076000  1
  V  V0  1  0.76806400  0.41396000  0.63015600  1
  V  V1  1  0.39405800  0.63601700  0.94733300  1
  V  V2  1  0.34400300  0.94138300  0.42170200  1
  V  V3  1  0.23102100  0.58356000  0.37250800  1
  V  V4  1  0.60035000  0.36787300  0.05345900  1
  V  V5  1  0.65776700  0.05958200  0.57808700  1
  V  V6  1  0.43147900  0.31599000  0.48869200  1
  V  V7  1  0.92694300  0.49250900  0.19623500  1
  V  V8  1  0.12703600  0.19944400  0.30389400  1
  V  V9  1  0.57059100  0.68489600  0.51056200  1
  V  V10  1  0.07586700  0.50868400  0.80153600  1
  V  V11  1  0.87885200  0.80113700  0.69308700  1
  V  V12  1  0.49848400  0.99924200  0.00065900  1
  O  O0  1  0.60751300  0.54835000  0.77871600  1
  O  O1  1  0.38521400  0.78202500  0.67424600  1
  O  O2  1  0.05110900  0.66803400  0.55857500  1
  O  O3  1  0.39029900  0.45702200  0.22324400  1
  O  O4  1  0.62115600  0.22569200  0.32483100  1
  O  O5  1  0.94956000  0.32726100  0.44216600  1
  O  O6  1  0.73605100  0.56111300  0.37829000  1
  O  O7  1  0.09950600  0.37660100  0.05491300  1
  O  O8  1  0.16200300  0.06094500  0.55826000  1
  O  O9  1  0.26340500  0.43369600  0.62260100  1
  O  O10  1  0.90314200  0.62729100  0.93850000  1
  O  O11  1  0.84144200  0.94347200  0.44557400  1
  O  O12  1  0.68185200  0.90405600  0.82952200  1
  O  O13  1  0.51564300  0.83224700  0.26390500  1
  O  O14  1  0.21190200  0.73211700  0.11512800  1
  O  O15  1  0.48037300  0.15773600  0.73215000  1
  O  O16  1  0.31523200  0.09527100  0.16928000  1
  O  O17  1  0.78432000  0.26688700  0.89143000  1
loop_
_geom_bond_atom_site_label_1
_geom_bond_atom_site_label_2
_geom_bond_distance
_geom_bond_site_symmetry_2
Ba0 O12 2.055496 1_554
Ba0 O16 2.071538 1_665
Ba0 V8 2.081055 1_665
Ba0 V11 2.109167 1_554
Ba0 O10 2.592510 1_554
Ba0 O7 2.694136 1_665
V0 V10 2.013217 1_655
V1 V10 2.006417 1_555
V3 V7 2.007410 1_455
V4 V7 2.059744 1_555
O0 O10 1.948301 1_555
O0 V6 2.052647 1_555
O0 V0 2.152328 1_555
O0 V1 2.449856 1_555
O1 O12 1.885916 1_555
O1 V3 2.054681 1_555
O1 V9 2.265347 1_555
O1 V12 2.268491 1_556
O2 V11 2.165339 1_455
O2 V3 2.321660 1_555
O2 V7 2.453563 1_455
O2 V10 2.665789 1_555
O3 O7 1.932792 1_555
O3 V9 2.030300 1_555
O3 V3 2.118841 1_555
O3 V4 2.436910 1_555
O4 V0 2.065902 1_555
O4 O5 2.088417 1_555
O4 V12 2.259744 1_545
O4 V6 2.277128 1_555
O5 O9 2.046946 1_655
O5 V8 2.194220 1_655
O5 V0 2.346518 1_555
O5 V10 2.432352 1_655
O5 V7 2.721787 1_555
O5 V3 2.744543 1_655
O6 V9 2.076550 1_555
O6 V4 2.200462 1_555
O6 V11 2.213700 1_555
O6 V7 2.340140 1_555
O7 V7 2.132761 1_455
O7 V3 2.175297 1_555
O7 V10 2.582940 1_554
O7 V8 2.815931 1_555
O8 V2 2.186915 1_545
O9 V6 2.078053 1_555
O9 V1 2.214396 1_555
O9 V8 2.228578 1_555
O9 V10 2.312174 1_555
O10 O14 2.011898 1_656
O10 V10 2.124451 1_655
O10 V0 2.126547 1_555
O10 V7 2.629797 1_556
O10 V11 2.770303 1_555
O11 V5 2.169064 1_565
O11 V11 2.599505 1_555
O12 V9 2.228970 1_555
O12 V11 2.230371 1_555
O12 V12 2.285724 1_556
O12 V5 2.703170 1_565
O13 V1 2.163009 1_554
O13 V2 2.181014 1_555
O13 V5 2.182646 1_565
O14 V2 2.111034 1_555
O14 V10 2.176231 1_554
O14 V1 2.262947 1_554
O14 V7 2.750252 1_455
O15 V2 2.143646 1_545
O15 V5 2.168805 1_555
O15 V4 2.215515 1_556
O16 O4 1.937011 1_555
O16 V8 2.167778 1_555
O16 V6 2.227805 1_555
O16 V12 2.274027 1_545
O16 V2 2.700791 1_545
O17 O7 2.022154 1_656
O17 V7 2.124787 1_556
O17 V5 2.154089 1_555
O17 V4 2.258108 1_556
