# generated using pymatgen
data_HoGaNi
_symmetry_space_group_name_H-M   'P 1'
_cell_length_a   4.26091878
_cell_length_b   6.79736221
_cell_length_c   7.21039417
_cell_angle_alpha   90.00000000
_cell_angle_beta   90.00000000
_cell_angle_gamma   90.00000000
_symmetry_Int_Tables_number   1
_chemical_formula_structural   HoGaNi
_chemical_formula_sum   'Ho4 Ga4 Ni4'
_cell_volume   208.83470616
_cell_formula_units_Z   4
loop_
 _symmetry_equiv_pos_site_id
 _symmetry_equiv_pos_as_xyz
  1  'x, y, z'
loop_
 _atom_site_type_symbol
 _atom_site_label
 _atom_site_symmetry_multiplicity
 _atom_site_fract_x
 _atom_site_fract_y
 _atom_site_fract_z
 _atom_site_occupancy
  Ho  Ho0  1  0.25000000  0.51926659  0.30357351  1
  Ho  Ho1  1  0.25000000  0.01926659  0.19642649  1
  Ho  Ho2  1  0.75000000  0.98073341  0.80357351  1
  Ho  Ho3  1  0.75000000  0.48073341  0.69642649  1
  Ga  Ga0  1  0.75000000  0.32338562  0.07879388  1
  Ga  Ga1  1  0.25000000  0.17661438  0.57879388  1
  Ga  Ga2  1  0.75000000  0.82338562  0.42120612  1
  Ga  Ga3  1  0.25000000  0.67661438  0.92120612  1
  Ni  Ni0  1  0.25000000  0.29073061  0.90627470  1
  Ni  Ni1  1  0.25000000  0.79073061  0.59372530  1
  Ni  Ni2  1  0.75000000  0.70926939  0.09372530  1
  Ni  Ni3  1  0.75000000  0.20926939  0.40627470  1
loop_
_geom_bond_atom_site_label_1
_geom_bond_atom_site_label_2
_geom_bond_distance
_geom_bond_site_symmetry_2
Ho0 Ni1 2.789593 1_555
Ho0 Ni2 2.914843 1_555
Ho0 Ni2 2.914843 1_455
Ho0 Ni3 3.086642 1_455
Ho0 Ni3 3.086642 1_555
Ho0 Ni0 3.258770 1_554
Ho1 Ni0 2.789593 1_554
Ho1 Ni3 2.914843 1_455
Ho1 Ni3 2.914843 1_555
Ho1 Ni2 3.086642 1_445
Ho1 Ni2 3.086642 1_545
Ho1 Ni1 3.258770 1_545
Ho2 Ni2 2.789593 1_556
Ho2 Ni1 2.914843 1_555
Ho2 Ni1 2.914843 1_655
Ho2 Ni0 3.086642 1_565
Ho2 Ni0 3.086642 1_665
Ho2 Ni3 3.258770 1_565
Ho3 Ni3 2.789593 1_555
Ho3 Ni0 2.914843 1_555
Ho3 Ni0 2.914843 1_655
Ho3 Ni1 3.086642 1_555
Ho3 Ni1 3.086642 1_655
Ho3 Ni2 3.258770 1_556
Ga0 Ni0 2.476993 1_654
Ga0 Ni0 2.476993 1_554
Ga0 Ni3 2.485411 1_555
Ga0 Ni2 2.625200 1_555
Ga0 Ho3 2.957211 1_554
Ga0 Ho0 2.989734 1_655
Ga0 Ho0 2.989734 1_555
Ga0 Ho2 3.059883 1_544
Ga0 Ho1 3.087330 1_655
Ga0 Ho1 3.087330 1_555
Ga1 Ni3 2.476993 1_555
Ga1 Ni3 2.476993 1_455
Ga1 Ni0 2.485411 1_555
Ga1 Ni1 2.625200 1_545
Ga1 Ho1 2.957211 1_555
Ga1 Ho2 2.989734 1_445
Ga1 Ho2 2.989734 1_545
Ga1 Ho0 3.059883 1_555
Ga1 Ho3 3.087330 1_455
Ga1 Ho3 3.087330 1_555
Ga2 Ni1 2.476993 1_555
Ga2 Ni1 2.476993 1_655
Ga2 Ni2 2.485411 1_555
Ga2 Ni3 2.625200 1_565
Ga2 Ho2 2.957211 1_555
Ga2 Ho1 2.989734 1_565
Ga2 Ho1 2.989734 1_665
Ga2 Ho3 3.059883 1_555
Ga2 Ho0 3.087330 1_555
Ga2 Ho0 3.087330 1_655
Ga3 Ni2 2.476993 1_556
Ga3 Ni2 2.476993 1_456
Ga3 Ni1 2.485411 1_555
Ga3 Ni0 2.625200 1_555
Ga3 Ho0 2.957211 1_556
Ga3 Ho3 2.989734 1_455
Ga3 Ho3 2.989734 1_555
Ga3 Ho1 3.059883 1_566
Ga3 Ho2 3.087330 1_555
Ga3 Ho2 3.087330 1_455
