# generated using pymatgen
data_NdZnGe
_symmetry_space_group_name_H-M   'P 1'
_cell_length_a   4.25775606
_cell_length_b   4.25775606
_cell_length_c   16.61768741
_cell_angle_alpha   90.00000000
_cell_angle_beta   90.00000000
_cell_angle_gamma   120.00001157
_symmetry_Int_Tables_number   1
_chemical_formula_structural   NdZnGe
_chemical_formula_sum   'Nd4 Zn4 Ge4'
_cell_volume   260.89317546
_cell_formula_units_Z   4
loop_
 _symmetry_equiv_pos_site_id
 _symmetry_equiv_pos_as_xyz
  1  'x, y, z'
loop_
 _atom_site_type_symbol
 _atom_site_label
 _atom_site_symmetry_multiplicity
 _atom_site_fract_x
 _atom_site_fract_y
 _atom_site_fract_z
 _atom_site_occupancy
  Nd  Nd0  1  0.00000000  0.00000000  0.25000000  1
  Nd  Nd1  1  0.00000000  0.00000000  0.75000000  1
  Nd  Nd2  1  0.00000000  0.00000000  -0.00000000  1
  Nd  Nd3  1  0.00000000  0.00000000  0.50000000  1
  Zn  Zn0  1  0.33333300  0.66666700  0.14192610  1
  Zn  Zn1  1  0.66666700  0.33333300  0.85807390  1
  Zn  Zn2  1  0.66666700  0.33333300  0.64192610  1
  Zn  Zn3  1  0.33333300  0.66666700  0.35807390  1
  Ge  Ge0  1  0.33333300  0.66666700  0.61663285  1
  Ge  Ge1  1  0.66666700  0.33333300  0.38336715  1
  Ge  Ge2  1  0.66666700  0.33333300  0.11663285  1
  Ge  Ge3  1  0.33333300  0.66666700  0.88336715  1
loop_
_geom_bond_atom_site_label_1
_geom_bond_atom_site_label_2
_geom_bond_distance
_geom_bond_site_symmetry_2
Nd0 Zn0 3.044374 1_545
Nd0 Zn3 3.044374 1_545
Nd0 Zn3 3.044376 1_445
Nd0 Zn0 3.044376 1_445
Nd0 Zn0 3.044376 1_555
Nd0 Zn3 3.044376 1_555
Nd1 Zn1 3.044374 1_455
Nd1 Zn2 3.044374 1_455
Nd1 Zn1 3.044376 1_445
Nd1 Zn1 3.044376 1_555
Nd1 Zn2 3.044376 1_445
Nd1 Zn2 3.044376 1_555
Nd2 Zn0 3.406650 1_545
Nd2 Zn1 3.406650 1_454
Nd2 Zn0 3.406652 1_445
Nd2 Zn0 3.406652 1_555
Nd2 Zn1 3.406652 1_444
Nd2 Zn1 3.406652 1_554
Nd3 Zn3 3.406650 1_545
Nd3 Zn2 3.406650 1_455
Nd3 Zn3 3.406652 1_445
Nd3 Zn3 3.406652 1_555
Nd3 Zn2 3.406652 1_445
Nd3 Zn2 3.406652 1_555
Ge0 Zn2 2.493889 1_455
Ge0 Zn2 2.493889 1_565
Ge0 Zn2 2.493896 1_555
Ge0 Nd3 3.130386 1_565
Ge0 Nd3 3.130388 1_665
Ge0 Nd3 3.130388 1_555
Ge0 Nd1 3.309773 1_565
Ge0 Nd1 3.309775 1_555
Ge0 Nd1 3.309775 1_665
Ge1 Zn3 2.493889 1_545
Ge1 Zn3 2.493889 1_655
Ge1 Zn3 2.493896 1_555
Ge1 Nd3 3.130386 1_655
Ge1 Nd3 3.130388 1_665
Ge1 Nd3 3.130388 1_555
Ge1 Nd0 3.309773 1_655
Ge1 Nd0 3.309775 1_555
Ge1 Nd0 3.309775 1_665
Ge2 Zn0 2.493889 1_545
Ge2 Zn0 2.493889 1_655
Ge2 Zn0 2.493896 1_555
Ge2 Nd2 3.130386 1_655
Ge2 Nd2 3.130388 1_665
Ge2 Nd2 3.130388 1_555
Ge2 Nd0 3.309773 1_655
Ge2 Nd0 3.309775 1_555
Ge2 Nd0 3.309775 1_665
Ge3 Zn1 2.493889 1_565
Ge3 Zn1 2.493889 1_455
Ge3 Zn1 2.493896 1_555
Ge3 Nd2 3.130386 1_566
Ge3 Nd2 3.130388 1_666
Ge3 Nd2 3.130388 1_556
Ge3 Nd1 3.309773 1_565
Ge3 Nd1 3.309775 1_555
Ge3 Nd1 3.309775 1_665
