# generated using pymatgen
data_Yb(AsO)2
_symmetry_space_group_name_H-M   'P 1'
_cell_length_a   7.75620544
_cell_length_b   7.75620544
_cell_length_c   7.75620544
_cell_angle_alpha   119.12764713
_cell_angle_beta   119.12764713
_cell_angle_gamma   91.51771945
_symmetry_Int_Tables_number   1
_chemical_formula_structural   Yb(AsO)2
_chemical_formula_sum   'Yb4 As8 O8'
_cell_volume   334.16200354
_cell_formula_units_Z   4
loop_
 _symmetry_equiv_pos_site_id
 _symmetry_equiv_pos_as_xyz
  1  'x, y, z'
loop_
 _atom_site_type_symbol
 _atom_site_label
 _atom_site_symmetry_multiplicity
 _atom_site_fract_x
 _atom_site_fract_y
 _atom_site_fract_z
 _atom_site_occupancy
  Yb  Yb0  1  0.87500000  0.12500000  0.75000000  1
  Yb  Yb1  1  0.37500000  0.12500000  0.25000000  1
  Yb  Yb2  1  0.87500000  0.62500000  0.75000000  1
  Yb  Yb3  1  0.87500000  0.12500000  0.25000000  1
  As  As0  1  0.72942100  0.49834200  0.23107900  1
  As  As1  1  0.26726300  0.49834200  0.76892100  1
  As  As2  1  0.24834200  0.51726300  0.26892100  1
  As  As3  1  0.48273700  0.75165800  0.73107900  1
  As  As4  1  0.02057900  0.75165800  0.26892100  1
  As  As5  1  0.24834200  0.97942100  0.73107900  1
  As  As6  1  0.50165800  0.73273700  0.23107900  1
  As  As7  1  0.50165800  0.27057900  0.76892100  1
  O  O0  1  0.65129000  0.34051000  0.31078000  1
  O  O1  1  0.02972900  0.34051000  0.68922000  1
  O  O2  1  0.09051000  0.27972900  0.18922000  1
  O  O3  1  0.72027100  0.90949000  0.81078000  1
  O  O4  1  0.09871000  0.90949000  0.18922000  1
  O  O5  1  0.09051000  0.90129000  0.81078000  1
  O  O6  1  0.65949000  0.97027100  0.31078000  1
  O  O7  1  0.65949000  0.34871000  0.68922000  1
loop_
_geom_bond_atom_site_label_1
_geom_bond_atom_site_label_2
_geom_bond_distance
_geom_bond_site_symmetry_2
As0 O0 1.819368 1_555
As1 O1 1.819375 1_555
As2 O2 1.819375 1_555
As3 O3 1.819375 1_555
As4 O4 1.819368 1_555
As5 O5 1.819368 1_555
As6 O6 1.819375 1_555
As7 O7 1.819368 1_555
O0 Yb1 2.380800 1_555
O0 Yb3 2.491952 1_555
O0 Yb2 2.491952 1_555
O1 Yb0 2.380796 1_455
O1 Yb2 2.491947 1_455
O1 Yb3 2.491954 1_455
O2 Yb3 2.380796 1_455
O2 Yb1 2.491947 1_555
O2 Yb0 2.491954 1_454
O3 Yb0 2.380796 1_565
O3 Yb2 2.491947 1_555
O3 Yb3 2.491954 1_566
O4 Yb1 2.380800 1_565
O4 Yb2 2.491952 1_454
O4 Yb3 2.491952 1_465
O5 Yb2 2.380800 1_455
O5 Yb0 2.491952 1_465
O5 Yb1 2.491952 1_566
O6 Yb3 2.380796 1_565
O6 Yb1 2.491947 1_565
O6 Yb0 2.491954 1_565
O7 Yb2 2.380800 1_555
O7 Yb0 2.491952 1_555
O7 Yb1 2.491952 1_555
