# generated using pymatgen
data_BaSm(CoO3)4
_symmetry_space_group_name_H-M   'P 1'
_cell_length_a   5.39208691
_cell_length_b   5.39208691
_cell_length_c   7.55614158
_cell_angle_alpha   90.00000000
_cell_angle_beta   90.00000000
_cell_angle_gamma   90.00000000
_symmetry_Int_Tables_number   1
_chemical_formula_structural   BaSm(CoO3)4
_chemical_formula_sum   'Ba1 Sm1 Co4 O12'
_cell_volume   219.69180339
_cell_formula_units_Z   1
loop_
 _symmetry_equiv_pos_site_id
 _symmetry_equiv_pos_as_xyz
  1  'x, y, z'
loop_
 _atom_site_type_symbol
 _atom_site_label
 _atom_site_symmetry_multiplicity
 _atom_site_fract_x
 _atom_site_fract_y
 _atom_site_fract_z
 _atom_site_occupancy
  Ba  Ba0  1  0.50000000  0.50000000  -0.00000000  1
  Sm  Sm0  1  -0.00000000  0.00000000  0.50000000  1
  Co  Co0  1  -0.00000000  0.50000000  0.75178272  1
  Co  Co1  1  -0.00000000  0.50000000  0.24821728  1
  Co  Co2  1  0.50000000  -0.00000000  0.24821728  1
  Co  Co3  1  0.50000000  0.00000000  0.75178272  1
  O  O0  1  0.23921785  0.23921785  0.26606308  1
  O  O1  1  0.23921785  0.23921785  0.73393692  1
  O  O2  1  0.76078215  0.76078215  0.26606308  1
  O  O3  1  0.76078215  0.76078215  0.73393692  1
  O  O4  1  0.76078215  0.23921785  0.73393692  1
  O  O5  1  0.76078215  0.23921785  0.26606308  1
  O  O6  1  0.23921785  0.76078215  0.73393692  1
  O  O7  1  0.23921785  0.76078215  0.26606308  1
  O  O8  1  -0.00000000  0.50000000  0.50000000  1
  O  O9  1  -0.00000000  0.50000000  -0.00000000  1
  O  O10  1  0.50000000  -0.00000000  0.50000000  1
  O  O11  1  0.50000000  -0.00000000  0.00000000  1
loop_
_geom_bond_atom_site_label_1
_geom_bond_atom_site_label_2
_geom_bond_distance
_geom_bond_site_symmetry_2
Ba0 O9 2.696043 1_655
Ba0 O11 2.696043 1_555
Ba0 O11 2.696043 1_565
Ba0 O9 2.696043 1_555
Ba0 O4 2.827777 1_554
Ba0 O6 2.827777 1_554
Ba0 O7 2.827777 1_555
Ba0 O0 2.827777 1_555
Ba0 O1 2.827777 1_554
Ba0 O5 2.827777 1_555
Ba0 O2 2.827777 1_555
Ba0 O3 2.827777 1_554
Co0 O9 1.875565 1_556
Co0 O8 1.902506 1_555
Co0 O3 1.912921 1_455
Co0 O4 1.912921 1_455
Co0 O1 1.912921 1_555
Co0 O6 1.912921 1_555
Co1 O9 1.875565 1_555
Co1 O8 1.902506 1_555
Co1 O0 1.912921 1_555
Co1 O5 1.912921 1_455
Co1 O2 1.912921 1_455
Co1 O7 1.912921 1_555
Co2 O11 1.875565 1_555
Co2 O10 1.902506 1_555
Co2 O2 1.912921 1_545
Co2 O0 1.912921 1_555
Co2 O7 1.912921 1_545
Co2 O5 1.912921 1_555
Co3 O11 1.875565 1_556
Co3 O10 1.902506 1_555
Co3 O1 1.912921 1_555
Co3 O6 1.912921 1_545
Co3 O3 1.912921 1_545
Co3 O4 1.912921 1_555
O0 Sm0 2.540122 1_555
O1 Sm0 2.540122 1_555
O2 Sm0 2.540122 1_665
O3 Sm0 2.540122 1_665
O4 Sm0 2.540122 1_655
O5 Sm0 2.540122 1_655
O6 Sm0 2.540122 1_565
O7 Sm0 2.540122 1_565
O8 Sm0 2.696043 1_565
O8 Sm0 2.696043 1_555
O10 Sm0 2.696043 1_555
O10 Sm0 2.696043 1_655
