# generated using pymatgen
data_BaSrSmSeO6
_symmetry_space_group_name_H-M   'P 1'
_cell_length_a   8.43095316
_cell_length_b   8.42383960
_cell_length_c   8.41352716
_cell_angle_alpha   90.00000000
_cell_angle_beta   90.00000000
_cell_angle_gamma   90.00000000
_symmetry_Int_Tables_number   1
_chemical_formula_structural   BaSrSmSeO6
_chemical_formula_sum   'Ba4 Sr4 Sm4 Se4 O24'
_cell_volume   597.53708799
_cell_formula_units_Z   4
loop_
 _symmetry_equiv_pos_site_id
 _symmetry_equiv_pos_as_xyz
  1  'x, y, z'
loop_
 _atom_site_type_symbol
 _atom_site_label
 _atom_site_symmetry_multiplicity
 _atom_site_fract_x
 _atom_site_fract_y
 _atom_site_fract_z
 _atom_site_occupancy
  Ba  Ba0  1  -0.00000000  -0.00000000  -0.00000000  1
  Ba  Ba1  1  0.50000000  0.50000000  0.50000000  1
  Ba  Ba2  1  0.50000000  -0.00000000  0.50000000  1
  Ba  Ba3  1  0.50000000  0.50000000  0.00000000  1
  Sr  Sr0  1  -0.00000000  0.50000000  0.50000000  1
  Sr  Sr1  1  0.50000000  -0.00000000  -0.00000000  1
  Sr  Sr2  1  -0.00000000  0.50000000  -0.00000000  1
  Sr  Sr3  1  -0.00000000  -0.00000000  0.50000000  1
  Sm  Sm0  1  0.24835033  0.25029625  0.24929576  1
  Sm  Sm1  1  0.75164967  0.74970375  0.24929576  1
  Sm  Sm2  1  0.75164967  0.25029625  0.75070424  1
  Sm  Sm3  1  0.24835033  0.74970375  0.75070424  1
  Se  Se0  1  0.75582486  0.75153266  0.74744892  1
  Se  Se1  1  0.24417514  0.24846734  0.74744892  1
  Se  Se2  1  0.24417514  0.75153266  0.25255108  1
  Se  Se3  1  0.75582486  0.24846734  0.25255108  1
  O  O0  1  0.98030789  0.22128003  0.27536556  1
  O  O1  1  0.01969211  0.77871997  0.27536556  1
  O  O2  1  0.01969211  0.22128003  0.72463444  1
  O  O3  1  0.98030789  0.77871997  0.72463444  1
  O  O4  1  0.27175892  0.98098825  0.22263975  1
  O  O5  1  0.27175892  0.01901175  0.77736025  1
  O  O6  1  0.72824108  0.01901175  0.22263975  1
  O  O7  1  0.72824108  0.98098825  0.77736025  1
  O  O8  1  0.22097654  0.27653938  0.98228801  1
  O  O9  1  0.77902346  0.27653938  0.01771199  1
  O  O10  1  0.22097654  0.72346062  0.01771199  1
  O  O11  1  0.77902346  0.72346062  0.98228801  1
  O  O12  1  0.51728224  0.26885457  0.23437303  1
  O  O13  1  0.48271776  0.73114543  0.23437303  1
  O  O14  1  0.48271776  0.26885457  0.76562697  1
  O  O15  1  0.51728224  0.73114543  0.76562697  1
  O  O16  1  0.22047233  0.51890431  0.27567292  1
  O  O17  1  0.22047233  0.48109569  0.72432708  1
  O  O18  1  0.77952767  0.48109569  0.27567292  1
  O  O19  1  0.77952767  0.51890431  0.72432708  1
  O  O20  1  0.26219513  0.22783050  0.51984719  1
  O  O21  1  0.73780487  0.22783050  0.48015281  1
  O  O22  1  0.26219513  0.77216950  0.48015281  1
  O  O23  1  0.73780487  0.77216950  0.51984719  1
loop_
_geom_bond_atom_site_label_1
_geom_bond_atom_site_label_2
_geom_bond_distance
_geom_bond_site_symmetry_2
Ba0 O4 2.963783 1_545
Ba0 O6 2.963783 1_455
Ba0 O5 2.963783 1_554
Ba0 O7 2.963783 1_444
Ba0 O1 2.978205 1_545
Ba0 O0 2.978205 1_455
Ba0 O3 2.978205 1_444
Ba0 O2 2.978205 1_554
Ba0 O8 2.986606 1_554
Ba0 O9 2.986606 1_455
Ba0 O11 2.986606 1_444
Ba0 O10 2.986606 1_545
Ba1 O14 2.967685 1_555
Ba1 O15 2.967685 1_555
Ba1 O12 2.967685 1_555
Ba1 O13 2.967685 1_555
Ba1 O18 3.023497 1_555
Ba1 O19 3.023497 1_555
Ba1 O16 3.023497 1_555
Ba1 O17 3.023497 1_555
Ba1 O22 3.050266 1_555
Ba1 O23 3.050266 1_555
Ba1 O21 3.050266 1_555
Ba1 O20 3.050266 1_555
Ba2 O21 2.780459 1_555
Ba2 O23 2.780459 1_545
Ba2 O20 2.780459 1_555
Ba2 O22 2.780459 1_545
Ba2 O4 3.028882 1_545
Ba2 O5 3.028882 1_555
Ba2 O6 3.028882 1_555
Ba2 O7 3.028882 1_545
Ba2 O13 3.185136 1_545
Ba2 O12 3.185136 1_555
Ba2 O15 3.185136 1_545
Ba2 O14 3.185136 1_555
Ba3 O15 2.775060 1_554
Ba3 O12 2.775060 1_555
Ba3 O13 2.775060 1_555
Ba3 O14 2.775060 1_554
Ba3 O9 3.016549 1_555
Ba3 O10 3.016549 1_555
Ba3 O11 3.016549 1_554
Ba3 O8 3.016549 1_554
Ba3 O17 3.310416 1_554
Ba3 O18 3.310416 1_555
Ba3 O19 3.310416 1_554
Ba3 O16 3.310416 1_555
O0 Se3 1.916051 1_555
O0 Sm0 2.283592 1_655
O0 Sr3 2.659726 1_655
O0 Sr0 3.018632 1_655
O1 Se2 1.916051 1_555
O1 Sm1 2.283592 1_455
O1 Sr3 2.659726 1_565
O1 Sr0 3.018632 1_555
O2 Se1 1.916051 1_555
O2 Sm2 2.283592 1_455
O2 Sr3 2.659726 1_555
O2 Sr0 3.018632 1_555
O3 Se0 1.916051 1_555
O3 Sm3 2.283592 1_655
O3 Sr3 2.659726 1_665
O3 Sr0 3.018632 1_655
O4 Se2 1.963035 1_555
O4 Sm0 2.288193 1_565
O4 Sr1 2.690235 1_565
O5 Se1 1.963035 1_555
O5 Sm3 2.288193 1_545
O5 Sr1 2.690235 1_556
O6 Se3 1.963035 1_555
O6 Sm1 2.288193 1_545
O6 Sr1 2.690235 1_555
O7 Se0 1.963035 1_555
O7 Sm2 2.288193 1_565
O7 Sr1 2.690235 1_566
O8 Se1 1.999515 1_555
O8 Sm0 2.269095 1_556
O8 Sr2 2.652650 1_556
O9 Se3 1.999515 1_555
O9 Sm2 2.269095 1_554
O9 Sr2 2.652650 1_655
O10 Se2 1.999515 1_555
O10 Sm3 2.269095 1_554
O10 Sr2 2.652650 1_555
O11 Se0 1.999515 1_555
O11 Sm1 2.269095 1_556
O11 Sr2 2.652650 1_656
O12 Se3 2.024247 1_555
O12 Sm0 2.276201 1_555
O12 Sr1 3.006476 1_555
O13 Se2 2.024247 1_555
O13 Sm1 2.276201 1_555
O13 Sr1 3.006476 1_565
O14 Se1 2.024247 1_555
O14 Sm2 2.276201 1_555
O14 Sr1 3.006476 1_556
O15 Se0 2.024247 1_555
O15 Sm3 2.276201 1_555
O15 Sr1 3.006476 1_566
O16 Se2 1.979370 1_555
O16 Sm0 2.285685 1_555
O16 Sr0 2.653804 1_555
O16 Sr2 2.976575 1_555
O17 Se1 1.979370 1_555
O17 Sm3 2.285685 1_555
O17 Sr0 2.653804 1_555
O17 Sr2 2.976575 1_556
O18 Se3 1.979370 1_555
O18 Sm1 2.285685 1_555
O18 Sr0 2.653804 1_655
O18 Sr2 2.976575 1_655
O19 Se0 1.979370 1_555
O19 Sm2 2.285685 1_555
O19 Sr0 2.653804 1_655
O19 Sr2 2.976575 1_656
O20 Se1 1.928801 1_555
O20 Sm0 2.287126 1_555
O20 Sr3 2.932200 1_555
O20 Sr0 3.189195 1_555
O21 Se3 1.928801 1_555
O21 Sm2 2.287126 1_555
O21 Sr3 2.932200 1_655
O21 Sr0 3.189195 1_655
O22 Se2 1.928801 1_555
O22 Sm3 2.287126 1_555
O22 Sr3 2.932200 1_565
O22 Sr0 3.189195 1_555
O23 Se0 1.928801 1_555
O23 Sm1 2.287126 1_555
O23 Sr3 2.932200 1_665
O23 Sr0 3.189195 1_655
