# generated using pymatgen
data_Y2Mn3Sb3O14
_symmetry_space_group_name_H-M   'P 1'
_cell_length_a   7.18186185
_cell_length_b   12.79331786
_cell_length_c   7.18406673
_cell_angle_alpha   106.27970595
_cell_angle_beta   118.42610832
_cell_angle_gamma   90.81573743
_symmetry_Int_Tables_number   1
_chemical_formula_structural   Y2Mn3Sb3O14
_chemical_formula_sum   'Y4 Mn6 Sb6 O28'
_cell_volume   548.61973516
_cell_formula_units_Z   2
loop_
 _symmetry_equiv_pos_site_id
 _symmetry_equiv_pos_as_xyz
  1  'x, y, z'
loop_
 _atom_site_type_symbol
 _atom_site_label
 _atom_site_symmetry_multiplicity
 _atom_site_fract_x
 _atom_site_fract_y
 _atom_site_fract_z
 _atom_site_occupancy
  Y  Y0  1  0.49989100  0.00002800  0.50017200  1
  Y  Y1  1  0.00000600  0.49999500  0.49991600  1
  Y  Y2  1  0.99994200  0.00000200  0.00007000  1
  Y  Y3  1  0.50004600  0.49996100  0.99990700  1
  Mn  Mn0  1  0.50017300  0.00021700  0.00073700  1
  Mn  Mn1  1  0.00014400  0.49974700  0.99951400  1
  Mn  Mn2  1  0.74993900  0.25003400  0.99990500  1
  Mn  Mn3  1  0.75001000  0.75005700  0.49993800  1
  Mn  Mn4  1  0.25004000  0.25003200  0.49994000  1
  Mn  Mn5  1  0.25024300  0.75004400  0.00035300  1
  Sb  Sb0  1  0.00001200  0.99995600  0.50003300  1
  Sb  Sb1  1  0.49997200  0.50005300  0.49997000  1
  Sb  Sb2  1  0.24999900  0.24998100  0.99996300  1
  Sb  Sb3  1  0.74998000  0.74998200  0.99993700  1
  Sb  Sb4  1  0.75001000  0.24999300  0.49997100  1
  Sb  Sb5  1  0.24996400  0.74999900  0.49999500  1
  O  O0  1  0.31786600  0.93566100  0.11717000  1
  O  O1  1  0.81782100  0.43563900  0.11714500  1
  O  O2  1  0.68218100  0.06435800  0.88285300  1
  O  O3  1  0.18214700  0.56433900  0.88285200  1
  O  O4  1  0.16504700  0.07370900  0.40784000  1
  O  O5  1  0.66511100  0.57368200  0.40776200  1
  O  O6  1  0.83489400  0.92635500  0.59226700  1
  O  O7  1  0.33495600  0.42630300  0.59216400  1
  O  O8  1  0.45489600  0.78332800  0.82826500  1
  O  O9  1  0.95481100  0.28368400  0.82869600  1
  O  O10  1  0.54516500  0.21625900  0.17123800  1
  O  O11  1  0.04508500  0.71666800  0.17171200  1
  O  O12  1  0.36505000  0.29387900  0.82679100  1
  O  O13  1  0.86514500  0.79389100  0.82680100  1
  O  O14  1  0.96806300  0.29414000  0.42965800  1
  O  O15  1  0.46755700  0.79401200  0.42920400  1
  O  O16  1  0.63484600  0.70612600  0.17311400  1
  O  O17  1  0.13495300  0.20611900  0.17318000  1
  O  O18  1  0.03238100  0.70598200  0.57074800  1
  O  O19  1  0.53194500  0.20586400  0.57032300  1
  O  O20  1  0.75687800  0.08711800  0.41889100  1
  O  O21  1  0.25680000  0.58710100  0.41877000  1
  O  O22  1  0.16884100  0.08707300  0.82999000  1
  O  O23  1  0.66889500  0.58704700  0.82997900  1
  O  O24  1  0.24307700  0.91287300  0.58121800  1
  O  O25  1  0.74305500  0.41285300  0.58107500  1
  O  O26  1  0.83103100  0.91293600  0.16998600  1
  O  O27  1  0.33113500  0.41291700  0.16999000  1
loop_
_geom_bond_atom_site_label_1
_geom_bond_atom_site_label_2
_geom_bond_distance
_geom_bond_site_symmetry_2
Mn0 O0 2.120194 1_545
Mn0 O2 2.124200 1_554
Mn0 O20 2.540799 1_555
Mn0 O26 2.541168 1_545
Mn0 O22 2.542108 1_554
Mn0 O24 2.548788 1_544
Mn0 O10 2.635063 1_555
Mn0 O8 2.646373 1_544
Mn1 O3 2.119988 1_555
Mn1 O1 2.124350 1_456
Mn1 O27 2.539858 1_556
Mn1 O25 2.542685 1_455
Mn1 O23 2.543636 1_455
Mn1 O21 2.546960 1_556
Mn1 O9 2.635288 1_455
Mn1 O11 2.646798 1_556
Mn2 O1 2.245034 1_556
Mn2 O2 2.245909 1_555
Mn2 O9 2.421750 1_555
Mn2 O10 2.422407 1_556
Mn2 O12 2.581586 1_555
Mn2 O17 2.582712 1_656
Mn2 O19 2.586851 1_555
Mn2 O14 2.588022 1_556
Mn3 O18 1.974974 1_655
Mn3 O15 1.975021 1_555
Mn3 O16 1.977575 1_555
Mn3 O13 1.977929 1_555
Mn3 O6 2.153073 1_555
Mn3 O5 2.154162 1_555
Mn4 O19 1.972842 1_555
Mn4 O14 1.973136 1_455
Mn4 O17 1.977254 1_555
Mn4 O12 1.977978 1_555
Mn4 O7 2.152861 1_555
Mn4 O4 2.153673 1_555
Mn5 O0 2.245212 1_555
Mn5 O3 2.246238 1_554
Mn5 O11 2.423313 1_555
Mn5 O8 2.424314 1_554
Mn5 O16 2.580111 1_555
Mn5 O15 2.582577 1_555
Mn5 O13 2.582968 1_454
Mn5 O18 2.587131 1_554
O0 Y2 2.282911 1_465
O0 Y0 2.287446 1_565
O1 Y3 2.281901 1_554
O1 Y1 2.286060 1_655
O2 Y2 2.282026 1_556
O2 Y0 2.285515 1_555
O3 Y3 2.282991 1_555
O3 Y1 2.287043 1_555
O4 Sb0 1.949279 1_545
O4 Y2 2.447292 1_455
O4 Y0 2.451132 1_555
O5 Sb1 1.949027 1_555
O5 Y3 2.447850 1_554
O5 Y1 2.451596 1_655
O6 Sb0 1.948851 1_655
O6 Y2 2.447500 1_566
O6 Y0 2.452215 1_565
O7 Sb1 1.949159 1_555
O7 Y3 2.447109 1_555
O7 Y1 2.451905 1_555
O8 Sb5 2.005859 1_555
O8 Sb3 2.006646 1_555
O9 Sb4 2.007620 1_555
O9 Sb2 2.008551 1_655
O10 Sb4 2.007649 1_555
O10 Sb2 2.008537 1_554
O11 Sb5 2.005862 1_555
O11 Sb3 2.006725 1_454
O12 Sb2 1.975611 1_555
O12 Y3 2.525593 1_555
O13 Sb3 1.976024 1_555
O13 Y2 2.525754 1_566
O14 Sb4 1.978502 1_555
O14 Y1 2.523960 1_655
O15 Sb5 1.977354 1_555
O15 Y0 2.525248 1_565
O16 Sb3 1.975825 1_554
O16 Y3 2.526371 1_554
O17 Sb2 1.975669 1_554
O17 Y2 2.526010 1_455
O18 Sb5 1.977112 1_555
O18 Y1 2.525008 1_555
O19 Sb4 1.978700 1_555
O19 Y0 2.523810 1_555
O20 Sb4 2.008326 1_555
O20 Sb0 2.020666 1_645
O20 Y0 2.514161 1_555
O21 Sb5 2.008578 1_555
O21 Sb1 2.019940 1_555
O21 Y1 2.512417 1_555
O22 Sb2 2.008832 1_555
O22 Sb0 2.018728 1_545
O22 Y2 2.518107 1_456
O23 Sb3 2.009118 1_555
O23 Sb1 2.018688 1_555
O23 Y3 2.517047 1_555
O24 Sb5 2.008349 1_555
O24 Sb0 2.019660 1_555
O24 Y0 2.512342 1_565
O25 Sb4 2.008255 1_555
O25 Sb1 2.020702 1_555
O25 Y1 2.513657 1_655
O26 Sb3 2.009448 1_554
O26 Sb0 2.018973 1_655
O26 Y2 2.517143 1_565
O27 Sb2 2.009212 1_554
O27 Sb1 2.018903 1_555
O27 Y3 2.517989 1_554
