# generated using pymatgen
data_Mg(MoO2)2
_symmetry_space_group_name_H-M   'P 1'
_cell_length_a   6.42934788
_cell_length_b   6.42934788
_cell_length_c   6.42934788
_cell_angle_alpha   123.72493082
_cell_angle_beta   123.10540722
_cell_angle_gamma   84.18093149
_symmetry_Int_Tables_number   1
_chemical_formula_structural   Mg(MoO2)2
_chemical_formula_sum   'Mg2 Mo4 O8'
_cell_volume   177.21742747
_cell_formula_units_Z   2
loop_
 _symmetry_equiv_pos_site_id
 _symmetry_equiv_pos_as_xyz
  1  'x, y, z'
loop_
 _atom_site_type_symbol
 _atom_site_label
 _atom_site_symmetry_multiplicity
 _atom_site_fract_x
 _atom_site_fract_y
 _atom_site_fract_z
 _atom_site_occupancy
  Mg  Mg0  1  0.00000000  0.50000000  0.00000000  1
  Mg  Mg1  1  0.00000000  0.00000000  0.50000000  1
  Mo  Mo0  1  0.62148900  0.87148900  0.75000000  1
  Mo  Mo1  1  0.37851100  0.12851100  0.25000000  1
  Mo  Mo2  1  0.00000000  0.50000000  0.50000000  1
  Mo  Mo3  1  0.50000000  0.50000000  0.00000000  1
  O  O0  1  0.77825000  0.27379500  0.50445500  1
  O  O1  1  0.22232700  0.72430800  0.00198100  1
  O  O2  1  0.26934000  0.27379500  0.99554500  1
  O  O3  1  0.22232700  0.22034700  0.49801900  1
  O  O4  1  0.77767300  0.77965300  0.50198100  1
  O  O5  1  0.77767300  0.27569200  0.99801900  1
  O  O6  1  0.73066000  0.72620500  0.00445500  1
  O  O7  1  0.22175000  0.72620500  0.49554500  1
loop_
_geom_bond_atom_site_label_1
_geom_bond_atom_site_label_2
_geom_bond_distance
_geom_bond_site_symmetry_2
Mg0 O1 2.121540 1_555
Mg0 O5 2.121540 1_454
Mg0 O7 2.147537 1_555
Mg0 O6 2.147537 1_455
Mg0 O2 2.147537 1_554
Mg0 O0 2.147537 1_454
Mg1 O3 2.121544 1_555
Mg1 O4 2.121544 1_445
Mg1 O2 2.147537 1_555
Mg1 O0 2.147537 1_455
Mg1 O7 2.147537 1_545
Mg1 O6 2.147537 1_445
Mo0 O7 2.085945 1_555
Mo0 O6 2.085945 1_556
Mo0 O4 2.117342 1_555
Mo0 O5 2.117344 1_565
Mo1 O0 2.085945 1_555
Mo1 O2 2.085945 1_554
Mo1 O3 2.117342 1_555
Mo1 O1 2.117344 1_545
Mo2 O0 2.158683 1_455
Mo2 O7 2.158683 1_555
Mo2 O4 2.179327 1_455
Mo2 O3 2.179327 1_555
Mo2 O5 2.179332 1_454
Mo2 O1 2.179332 1_556
Mo3 O2 2.158683 1_554
Mo3 O6 2.158683 1_555
Mo3 O4 2.179331 1_555
Mo3 O3 2.179331 1_554
Mo3 O5 2.179332 1_554
Mo3 O1 2.179332 1_555
