# generated using pymatgen
data_Li4MnCo2O7
_symmetry_space_group_name_H-M   'P 1'
_cell_length_a   2.91364700
_cell_length_b   10.67374555
_cell_length_c   8.44569777
_cell_angle_alpha   78.51718750
_cell_angle_beta   90.00000000
_cell_angle_gamma   82.15540433
_symmetry_Int_Tables_number   1
_chemical_formula_structural   Li4MnCo2O7
_chemical_formula_sum   'Li8 Mn2 Co4 O14'
_cell_volume   254.89131751
_cell_formula_units_Z   2
loop_
 _symmetry_equiv_pos_site_id
 _symmetry_equiv_pos_as_xyz
  1  'x, y, z'
loop_
 _atom_site_type_symbol
 _atom_site_label
 _atom_site_symmetry_multiplicity
 _atom_site_fract_x
 _atom_site_fract_y
 _atom_site_fract_z
 _atom_site_occupancy
  Li  Li0  1  0.42372600  0.15254800  0.22543400  1
  Li  Li1  1  0.28999300  0.42001200  0.63744800  1
  Li  Li2  1  0.14678900  0.70642300  0.07184300  1
  Li  Li3  1  0.99814900  0.00370300  0.50468700  1
  Li  Li4  1  0.85502400  0.28995200  0.92647900  1
  Li  Li5  1  0.71629700  0.56740800  0.35246900  1
  Li  Li6  1  0.57136000  0.85728200  0.78424500  1
  Li  Li7  1  0.85724400  0.28551300  0.42286400  1
  Mn  Mn0  1  0.99784100  0.00431800  0.99167200  1
  Mn  Mn1  1  0.57286500  0.85427100  0.28626300  1
  Co  Co0  1  0.71445800  0.57108500  0.86729500  1
  Co  Co1  1  0.42308400  0.15383100  0.68351200  1
  Co  Co2  1  0.28817800  0.42364300  0.15621900  1
  Co  Co3  1  0.14446100  0.71107900  0.57917000  1
  O  O0  1  0.43629800  0.12740400  0.97216300  1
  O  O1  1  0.28453500  0.43093100  0.36089400  1
  O  O2  1  0.14951000  0.70098100  0.82760100  1
  O  O3  1  0.00717800  0.98564600  0.23786700  1
  O  O4  1  0.85898900  0.28202200  0.68232800  1
  O  O5  1  0.71800600  0.56398700  0.10539300  1
  O  O6  1  0.58083400  0.83833100  0.54498500  1
  O  O7  1  0.43183100  0.13633700  0.47577800  1
  O  O8  1  0.28127400  0.43745300  0.91696600  1
  O  O9  1  0.13648600  0.72702900  0.31589300  1
  O  O10  1  0.99378300  0.01243400  0.76502100  1
  O  O11  1  0.85168000  0.29664000  0.17228500  1
  O  O12  1  0.70884700  0.58230600  0.61238900  1
  O  O13  1  0.56128300  0.87743400  0.02083700  1
loop_
_geom_bond_atom_site_label_1
_geom_bond_atom_site_label_2
_geom_bond_distance
_geom_bond_site_symmetry_2
Li0 O7 2.086651 1_555
Li0 O11 2.090535 1_455
Li0 O11 2.090536 1_555
Li0 O0 2.207893 1_554
Li0 O3 2.274508 1_545
Li0 O3 2.274512 1_645
Li1 O4 2.042708 1_455
Li1 O4 2.042712 1_555
Li1 O12 2.228465 1_455
Li1 O12 2.228469 1_555
Li1 O1 2.315254 1_555
Li1 O8 2.404580 1_555
Li2 O5 2.073507 1_555
Li2 O5 2.073511 1_455
Li2 O2 2.075123 1_554
Li2 O9 2.115751 1_555
Li2 O13 2.294469 1_555
Li2 O13 2.294471 1_455
Li3 O7 2.002796 1_655
Li3 O7 2.002800 1_555
Li3 O10 2.219098 1_555
Li3 O6 2.248698 1_645
Li3 O6 2.248702 1_545
Li3 O3 2.299469 1_645
Li4 O4 2.080498 1_555
Li4 O11 2.091362 1_556
Li4 O8 2.123899 1_555
Li4 O8 2.123901 1_655
Li4 O0 2.226838 1_655
Li4 O0 2.226838 1_555
Li5 O1 2.041722 1_655
Li5 O1 2.041724 1_555
Li5 O5 2.094298 1_555
Li5 O9 2.203840 1_655
Li5 O9 2.203842 1_555
Li5 O12 2.232202 1_555
Li6 O13 2.051651 1_556
Li6 O6 2.070313 1_555
Li6 O10 2.175559 1_565
Li6 O10 2.175563 1_465
Li6 O2 2.178215 1_655
Li6 O2 2.178217 1_555
Li7 O11 2.095843 1_555
Li7 O1 2.106448 1_555
Li7 O1 2.106448 1_655
Li7 O7 2.127631 1_655
Li7 O7 2.127635 1_555
Li7 O4 2.184236 1_555
Mn0 O10 1.898842 1_555
Mn0 O0 1.938345 1_555
Mn0 O0 1.938345 1_655
Mn0 O13 1.962198 1_646
Mn0 O13 1.962198 1_546
Mn0 O3 2.048763 1_646
Mn1 O9 1.964649 1_655
Mn1 O9 1.964649 1_555
Mn1 O3 1.997726 1_555
Mn1 O3 1.997728 1_655
Mn1 O6 2.157544 1_555
Mn1 O13 2.205578 1_555
Co0 O2 1.983978 1_555
Co0 O2 1.983978 1_655
Co0 O5 1.997175 1_556
Co0 O8 2.014117 1_655
Co0 O8 2.014117 1_555
Co0 O12 2.132186 1_555
Co1 O7 1.800771 1_555
Co1 O4 1.988540 1_455
Co1 O4 1.988542 1_555
Co1 O10 2.101886 1_455
Co1 O10 2.101888 1_555
Co1 O0 2.397384 1_555
Co2 O1 1.745742 1_555
Co2 O11 1.967465 1_455
Co2 O11 1.967467 1_555
Co2 O8 1.996445 1_554
Co2 O5 2.062224 1_455
Co2 O5 2.062224 1_555
Co3 O6 1.964699 1_555
Co3 O6 1.964703 1_455
Co3 O12 1.975231 1_555
Co3 O12 1.975233 1_455
Co3 O2 2.079349 1_555
Co3 O9 2.195890 1_555
