# generated using pymatgen
data_Nd2Fe3CoSi4
_symmetry_space_group_name_H-M   'P 1'
_cell_length_a   3.99548300
_cell_length_b   3.99548300
_cell_length_c   9.77032000
_cell_angle_alpha   90.00000000
_cell_angle_beta   90.00000000
_cell_angle_gamma   90.00000000
_symmetry_Int_Tables_number   1
_chemical_formula_structural   Nd2Fe3CoSi4
_chemical_formula_sum   'Nd2 Fe3 Co1 Si4'
_cell_volume   155.97225906
_cell_formula_units_Z   1
loop_
 _symmetry_equiv_pos_site_id
 _symmetry_equiv_pos_as_xyz
  1  'x, y, z'
loop_
 _atom_site_type_symbol
 _atom_site_label
 _atom_site_symmetry_multiplicity
 _atom_site_fract_x
 _atom_site_fract_y
 _atom_site_fract_z
 _atom_site_occupancy
  Nd  Nd0  1  0.50000000  0.00000000  0.74948400  1
  Nd  Nd1  1  0.00000000  0.50000000  0.25051600  1
  Fe  Fe0  1  0.00000000  0.00000000  0.50000000  1
  Fe  Fe1  1  0.00000000  0.00000000  0.00000000  1
  Fe  Fe2  1  0.50000000  0.50000000  0.50000000  1
  Co  Co0  1  0.50000000  0.50000000  0.00000000  1
  Si  Si0  1  0.00000000  0.50000000  0.88660700  1
  Si  Si1  1  0.50000000  0.00000000  0.38819300  1
  Si  Si2  1  0.50000000  0.00000000  0.11339300  1
  Si  Si3  1  0.00000000  0.50000000  0.61180700  1
loop_
_geom_bond_atom_site_label_1
_geom_bond_atom_site_label_2
_geom_bond_distance
_geom_bond_site_symmetry_2
Nd0 Si0 3.126793 1_645
Nd0 Si0 3.126793 1_555
Nd0 Si0 3.126793 1_655
Nd0 Si0 3.126793 1_545
Nd0 Si3 3.129116 1_545
Nd0 Si3 3.129116 1_655
Nd0 Si3 3.129116 1_555
Nd0 Si3 3.129116 1_645
Nd1 Si2 3.126793 1_455
Nd1 Si2 3.126793 1_555
Nd1 Si2 3.126793 1_465
Nd1 Si2 3.126793 1_565
Nd1 Si1 3.129116 1_565
Nd1 Si1 3.129116 1_455
Nd1 Si1 3.129116 1_555
Nd1 Si1 3.129116 1_465
Fe0 Si1 2.276903 1_455
Fe0 Si1 2.276903 1_555
Fe0 Si3 2.276903 1_545
Fe0 Si3 2.276903 1_555
Fe0 Nd0 3.151597 1_455
Fe0 Nd0 3.151597 1_555
Fe0 Nd1 3.151597 1_545
Fe0 Nd1 3.151597 1_555
Fe1 Si0 2.284378 1_554
Fe1 Si2 2.284378 1_555
Fe1 Si0 2.284378 1_544
Fe1 Si2 2.284378 1_455
Fe1 Nd0 3.159402 1_554
Fe1 Nd0 3.159402 1_454
Fe1 Nd1 3.159402 1_555
Fe1 Nd1 3.159402 1_545
Fe2 Si1 2.276903 1_555
Fe2 Si3 2.276903 1_655
Fe2 Si3 2.276903 1_555
Fe2 Si1 2.276903 1_565
Fe2 Nd0 3.151597 1_555
Fe2 Nd1 3.151597 1_655
Fe2 Nd1 3.151597 1_555
Fe2 Nd0 3.151597 1_565
Co0 Si0 2.284378 1_554
Co0 Si2 2.284378 1_565
Co0 Si2 2.284378 1_555
Co0 Si0 2.284378 1_654
Co0 Fe1 2.825233 1_665
Co0 Fe1 2.825233 1_555
Co0 Fe1 2.825233 1_565
Co0 Fe1 2.825233 1_655
Co0 Nd0 3.159402 1_554
Co0 Nd0 3.159402 1_564
Co0 Nd1 3.159402 1_555
Co0 Nd1 3.159402 1_655
Si0 Si3 2.684884 1_555
Si1 Si2 2.684884 1_555
