# generated using pymatgen
data_Li9Mn2Co5O16
_symmetry_space_group_name_H-M   'P 1'
_cell_length_a   10.18255355
_cell_length_b   10.18255355
_cell_length_c   5.18460592
_cell_angle_alpha   81.58029252
_cell_angle_beta   81.58029252
_cell_angle_gamma   32.99775289
_symmetry_Int_Tables_number   1
_chemical_formula_structural   Li9Mn2Co5O16
_chemical_formula_sum   'Li9 Mn2 Co5 O16'
_cell_volume   289.32614854
_cell_formula_units_Z   1
loop_
 _symmetry_equiv_pos_site_id
 _symmetry_equiv_pos_as_xyz
  1  'x, y, z'
loop_
 _atom_site_type_symbol
 _atom_site_label
 _atom_site_symmetry_multiplicity
 _atom_site_fract_x
 _atom_site_fract_y
 _atom_site_fract_z
 _atom_site_occupancy
  Li  Li0  1  0.50000000  0.00000000  0.50000000  1
  Li  Li1  1  0.62289200  0.62289200  0.74985500  1
  Li  Li2  1  0.75360700  0.24639300  0.00000000  1
  Li  Li3  1  0.87927400  0.87927400  0.25095200  1
  Li  Li4  1  0.00000000  0.50000000  0.50000000  1
  Li  Li5  1  0.12072600  0.12072600  0.74904800  1
  Li  Li6  1  0.24639300  0.75360700  0.00000000  1
  Li  Li7  1  0.37710800  0.37710800  0.25014500  1
  Li  Li8  1  0.00000000  0.00000000  0.50000000  1
  Mn  Mn0  1  0.24924200  0.24924200  0.00401000  1
  Mn  Mn1  1  0.75075800  0.75075800  0.99599000  1
  Co  Co0  1  0.36674900  0.87389100  0.26521300  1
  Co  Co1  1  0.50000000  0.50000000  0.50000000  1
  Co  Co2  1  0.63325100  0.12610900  0.73478700  1
  Co  Co3  1  0.87389100  0.36674900  0.26521300  1
  Co  Co4  1  0.12610900  0.63325100  0.73478700  1
  O  O0  1  0.55496200  0.05810600  0.11459300  1
  O  O1  1  0.68328400  0.68328400  0.34912600  1
  O  O2  1  0.79067300  0.32878300  0.60479200  1
  O  O3  1  0.92977800  0.92977800  0.87756600  1
  O  O4  1  0.05810600  0.55496200  0.11459300  1
  O  O5  1  0.18670800  0.18670800  0.36434500  1
  O  O6  1  0.32878300  0.79067300  0.60479200  1
  O  O7  1  0.44245800  0.44245800  0.83785400  1
  O  O8  1  0.44503800  0.94189400  0.88540700  1
  O  O9  1  0.55754200  0.55754200  0.16214600  1
  O  O10  1  0.67121700  0.20932700  0.39520800  1
  O  O11  1  0.81329200  0.81329200  0.63565500  1
  O  O12  1  0.94189400  0.44503800  0.88540700  1
  O  O13  1  0.07022200  0.07022200  0.12243400  1
  O  O14  1  0.20932700  0.67121700  0.39520800  1
  O  O15  1  0.31671600  0.31671600  0.65087400  1
loop_
_geom_bond_atom_site_label_1
_geom_bond_atom_site_label_2
_geom_bond_distance
_geom_bond_site_symmetry_2
Li0 O11 2.092406 1_545
Li0 O5 2.092406 1_555
Li0 O0 2.130197 1_555
Li0 O8 2.130197 1_545
Li0 O15 2.170453 1_555
Li0 O1 2.170453 1_545
Li1 O2 2.038202 1_555
Li1 O6 2.038202 1_555
Li1 O8 2.180185 1_555
Li1 O12 2.180185 1_555
Li1 O1 2.226847 1_555
Li1 O9 2.316125 1_556
Li2 O7 2.099782 1_554
Li2 O9 2.099782 1_555
Li2 O13 2.140023 1_655
Li2 O3 2.140023 1_544
Li2 O2 2.201344 1_554
Li2 O10 2.201344 1_555
Li3 O3 2.033963 1_554
Li3 O10 2.161390 1_565
Li3 O14 2.161390 1_655
Li3 O11 2.203017 1_555
Li3 O0 2.222823 1_565
Li3 O4 2.222823 1_655
Li4 O11 2.092406 1_455
Li4 O5 2.092406 1_555
Li4 O4 2.130197 1_555
Li4 O12 2.130197 1_455
Li4 O15 2.170453 1_555
Li4 O1 2.170453 1_455
Li5 O13 2.033963 1_556
Li5 O2 2.161390 1_455
Li5 O6 2.161390 1_545
Li5 O5 2.203017 1_555
Li5 O8 2.222823 1_545
Li5 O12 2.222823 1_455
Li6 O7 2.099782 1_554
Li6 O9 2.099782 1_555
Li6 O13 2.140023 1_565
Li6 O3 2.140023 1_454
Li6 O6 2.201344 1_554
Li6 O14 2.201344 1_555
Li7 O10 2.038202 1_555
Li7 O14 2.038202 1_555
Li7 O4 2.180185 1_555
Li7 O0 2.180185 1_555
Li7 O15 2.226847 1_555
Li7 O7 2.316125 1_554
Li8 O6 2.066498 1_545
Li8 O2 2.066498 1_455
Li8 O10 2.066498 1_455
Li8 O14 2.066498 1_545
Li8 O3 2.211855 1_445
Li8 O13 2.211855 1_555
Mn0 O4 1.959735 1_555
Mn0 O0 1.959735 1_555
Mn0 O12 1.971254 1_454
Mn0 O8 1.971254 1_544
Mn0 O5 2.069890 1_555
Mn0 O15 2.085962 1_554
Mn1 O8 1.959735 1_555
Mn1 O12 1.959735 1_555
Mn1 O0 1.971254 1_566
Mn1 O4 1.971254 1_656
Mn1 O11 2.069890 1_555
Mn1 O1 2.085962 1_556
Co0 O13 1.938413 1_565
Co0 O6 1.969879 1_555
Co0 O1 2.003755 1_555
Co0 O9 2.034474 1_555
Co0 O5 2.044373 1_565
Co0 O8 2.249317 1_554
Co1 O6 1.906048 1_555
Co1 O2 1.906048 1_555
Co1 O14 1.906048 1_555
Co1 O10 1.906048 1_555
Co1 O9 1.931218 1_555
Co1 O7 1.931218 1_555
Co2 O3 1.938413 1_545
Co2 O10 1.969879 1_555
Co2 O15 2.003755 1_555
Co2 O7 2.034474 1_555
Co2 O11 2.044373 1_545
Co2 O0 2.249317 1_556
Co3 O13 1.938413 1_655
Co3 O2 1.969879 1_555
Co3 O1 2.003755 1_555
Co3 O9 2.034474 1_555
Co3 O5 2.044373 1_655
Co3 O12 2.249317 1_554
Co4 O3 1.938413 1_455
Co4 O14 1.969879 1_555
Co4 O15 2.003755 1_555
Co4 O7 2.034474 1_555
Co4 O11 2.044373 1_455
Co4 O4 2.249317 1_556
