# generated using pymatgen
data_MgVCrO4
_symmetry_space_group_name_H-M   'P 1'
_cell_length_a   6.03654406
_cell_length_b   6.03479345
_cell_length_c   6.02934212
_cell_angle_alpha   90.24104102
_cell_angle_beta   120.04347594
_cell_angle_gamma   59.74369078
_symmetry_Int_Tables_number   1
_chemical_formula_structural   MgVCrO4
_chemical_formula_sum   'Mg2 V2 Cr2 O8'
_cell_volume   154.93334662
_cell_formula_units_Z   2
loop_
 _symmetry_equiv_pos_site_id
 _symmetry_equiv_pos_as_xyz
  1  'x, y, z'
loop_
 _atom_site_type_symbol
 _atom_site_label
 _atom_site_symmetry_multiplicity
 _atom_site_fract_x
 _atom_site_fract_y
 _atom_site_fract_z
 _atom_site_occupancy
  Mg  Mg0  1  0.25018200  0.12610900  0.12430500  1
  Mg  Mg1  1  0.74982600  0.87389400  0.87569600  1
  V  V0  1  0.99993400  0.99998900  0.50002000  1
  V  V1  1  0.49999900  0.49999500  0.49997300  1
  Cr  Cr0  1  0.49993800  0.50006900  0.99997900  1
  Cr  Cr1  1  0.00003300  0.49997700  0.50004000  1
  O  O0  1  0.52258700  0.71940300  0.25906700  1
  O  O1  1  0.97775700  0.26489300  0.25790200  1
  O  O2  1  0.47747600  0.28056200  0.74098200  1
  O  O3  1  0.02230400  0.73505300  0.74206700  1
  O  O4  1  0.98046100  0.26064400  0.71865400  1
  O  O5  1  0.51867900  0.26154500  0.25655800  1
  O  O6  1  0.01951400  0.73934900  0.28132600  1
  O  O7  1  0.48130900  0.73851800  0.74343100  1
loop_
_geom_bond_atom_site_label_1
_geom_bond_atom_site_label_2
_geom_bond_distance
_geom_bond_site_symmetry_2
Mg0 O5 1.991536 1_555
Mg0 O1 1.996854 1_455
Mg0 O4 1.997309 1_454
Mg0 O0 1.999986 1_545
Mg1 O7 1.991338 1_555
Mg1 O6 1.997206 1_656
Mg1 O3 1.997272 1_655
Mg1 O2 1.999799 1_565
Cr0 O3 2.037408 1_555
Cr0 O1 2.038158 1_556
Cr0 O5 2.038970 1_556
Cr0 O7 2.038984 1_555
Cr0 O0 2.040115 1_556
Cr0 O2 2.040412 1_555
Cr1 O3 2.034303 1_555
Cr1 O1 2.034796 1_455
Cr1 O2 2.036720 1_555
Cr1 O0 2.036730 1_455
Cr1 O4 2.044831 1_455
Cr1 O6 2.045008 1_555
O0 V1 2.068331 1_555
O1 V0 2.076754 1_545
O2 V1 2.068601 1_555
O3 V0 2.075822 1_455
O4 V0 2.043825 1_545
O4 V1 2.049855 1_555
O5 V0 2.052886 1_545
O5 V1 2.054700 1_555
O6 V0 2.043997 1_455
O6 V1 2.049970 1_555
O7 V0 2.053338 1_455
O7 V1 2.055190 1_555
