# generated using pymatgen
data_MgZn2
_symmetry_space_group_name_H-M   'P 1'
_cell_length_a   11.79154417
_cell_length_b   11.79154417
_cell_length_c   13.14576183
_cell_angle_alpha   72.11560537
_cell_angle_beta   72.11560537
_cell_angle_gamma   28.90598674
_symmetry_Int_Tables_number   1
_chemical_formula_structural   MgZn2
_chemical_formula_sum   'Mg16 Zn32'
_cell_volume   837.90162013
_cell_formula_units_Z   16
loop_
 _symmetry_equiv_pos_site_id
 _symmetry_equiv_pos_as_xyz
  1  'x, y, z'
loop_
 _atom_site_type_symbol
 _atom_site_label
 _atom_site_symmetry_multiplicity
 _atom_site_fract_x
 _atom_site_fract_y
 _atom_site_fract_z
 _atom_site_occupancy
  Mg  Mg0_0  1  0.31870000  0.31870000  0.23045750  1
  Mg  Mg0_1  1  0.31870000  0.31870000  0.73045750  1
  Mg  Mg0_2  1  0.31870000  0.81870000  0.23045750  1
  Mg  Mg0_3  1  0.31870000  0.81870000  0.73045750  1
  Mg  Mg0_4  1  0.81870000  0.31870000  0.23045750  1
  Mg  Mg0_5  1  0.81870000  0.31870000  0.73045750  1
  Mg  Mg0_6  1  0.81870000  0.81870000  0.23045750  1
  Mg  Mg0_7  1  0.81870000  0.81870000  0.73045750  1
  Mg  Mg1_0  1  0.18130000  0.18130000  0.26954250  1
  Mg  Mg1_1  1  0.18130000  0.18130000  0.76954250  1
  Mg  Mg1_2  1  0.18130000  0.68130000  0.26954250  1
  Mg  Mg1_3  1  0.18130000  0.68130000  0.76954250  1
  Mg  Mg1_4  1  0.68130000  0.18130000  0.26954250  1
  Mg  Mg1_5  1  0.68130000  0.18130000  0.76954250  1
  Mg  Mg1_6  1  0.68130000  0.68130000  0.26954250  1
  Mg  Mg1_7  1  0.68130000  0.68130000  0.76954250  1
  Zn  Zn0_0  1  0.15525750  0.15525750  0.06313950  1
  Zn  Zn0_1  1  0.15525750  0.15525750  0.56313950  1
  Zn  Zn0_2  1  0.15525750  0.65525750  0.06313950  1
  Zn  Zn0_3  1  0.15525750  0.65525750  0.56313950  1
  Zn  Zn0_4  1  0.65525750  0.15525750  0.06313950  1
  Zn  Zn0_5  1  0.65525750  0.15525750  0.56313950  1
  Zn  Zn0_6  1  0.65525750  0.65525750  0.06313950  1
  Zn  Zn0_7  1  0.65525750  0.65525750  0.56313950  1
  Zn  Zn1_0  1  0.01413250  0.01413250  0.08969050  1
  Zn  Zn1_1  1  0.01413250  0.01413250  0.58969050  1
  Zn  Zn1_2  1  0.01413250  0.51413250  0.08969050  1
  Zn  Zn1_3  1  0.01413250  0.51413250  0.58969050  1
  Zn  Zn1_4  1  0.51413250  0.01413250  0.08969050  1
  Zn  Zn1_5  1  0.51413250  0.01413250  0.58969050  1
  Zn  Zn1_6  1  0.51413250  0.51413250  0.08969050  1
  Zn  Zn1_7  1  0.51413250  0.51413250  0.58969050  1
  Zn  Zn2_0  1  0.48586750  0.48586750  0.41030950  1
  Zn  Zn2_1  1  0.48586750  0.48586750  0.91030950  1
  Zn  Zn2_2  1  0.48586750  0.98586750  0.41030950  1
  Zn  Zn2_3  1  0.48586750  0.98586750  0.91030950  1
  Zn  Zn2_4  1  0.98586750  0.48586750  0.41030950  1
  Zn  Zn2_5  1  0.98586750  0.48586750  0.91030950  1
  Zn  Zn2_6  1  0.98586750  0.98586750  0.41030950  1
  Zn  Zn2_7  1  0.98586750  0.98586750  0.91030950  1
  Zn  Zn3_0  1  0.34474250  0.34474250  0.43686050  1
  Zn  Zn3_1  1  0.34474250  0.34474250  0.93686050  1
  Zn  Zn3_2  1  0.34474250  0.84474250  0.43686050  1
  Zn  Zn3_3  1  0.34474250  0.84474250  0.93686050  1
  Zn  Zn3_4  1  0.84474250  0.34474250  0.43686050  1
  Zn  Zn3_5  1  0.84474250  0.34474250  0.93686050  1
  Zn  Zn3_6  1  0.84474250  0.84474250  0.43686050  1
  Zn  Zn3_7  1  0.84474250  0.84474250  0.93686050  1
loop_
_geom_bond_atom_site_label_1
_geom_bond_atom_site_label_2
_geom_bond_distance
_geom_bond_site_symmetry_2
Mg0_0 Zn0_4 2.855323 1_555
Mg0_0 Zn0_2 2.855323 1_555
Mg0_0 Zn2_4 2.914921 1_455
Mg0_0 Zn2_2 2.914921 1_545
Mg0_0 Zn1_2 2.933446 1_555
Mg0_0 Zn1_4 2.933446 1_555
Mg0_0 Zn3_0 2.956237 1_555
Mg0_1 Zn0_3 2.855323 1_555
Mg0_1 Zn0_5 2.855323 1_555
Mg0_1 Zn2_3 2.914921 1_545
Mg0_1 Zn2_5 2.914921 1_455
Mg0_1 Zn1_5 2.933446 1_555
Mg0_1 Zn1_3 2.933446 1_555
Mg0_1 Zn3_1 2.956237 1_555
Mg0_2 Zn0_6 2.855323 1_555
Mg0_2 Zn0_0 2.855323 1_565
Mg0_2 Zn2_6 2.914921 1_455
Mg0_2 Zn2_0 2.914921 1_555
Mg0_2 Zn1_0 2.933446 1_565
Mg0_2 Zn1_6 2.933446 1_555
Mg0_2 Zn3_2 2.956237 1_555
Mg0_3 Zn0_7 2.855323 1_555
Mg0_3 Zn0_1 2.855323 1_565
Mg0_3 Zn2_7 2.914921 1_455
Mg0_3 Zn2_1 2.914921 1_555
Mg0_3 Zn1_7 2.933446 1_555
Mg0_3 Zn1_1 2.933446 1_565
Mg0_3 Zn3_3 2.956237 1_555
Mg0_4 Zn0_0 2.855323 1_655
Mg0_4 Zn0_6 2.855323 1_555
Mg0_4 Zn2_6 2.914921 1_545
Mg0_4 Zn2_0 2.914921 1_555
Mg0_4 Zn1_0 2.933446 1_655
Mg0_4 Zn1_6 2.933446 1_555
Mg0_4 Zn3_4 2.956237 1_555
Mg0_5 Zn0_7 2.855323 1_555
Mg0_5 Zn0_1 2.855323 1_655
Mg0_5 Zn2_1 2.914921 1_555
Mg0_5 Zn2_7 2.914921 1_545
Mg0_5 Zn1_7 2.933446 1_555
Mg0_5 Zn1_1 2.933446 1_655
Mg0_5 Zn3_5 2.956237 1_555
Mg0_6 Zn0_4 2.855323 1_565
Mg0_6 Zn0_2 2.855323 1_655
Mg0_6 Zn2_4 2.914921 1_555
Mg0_6 Zn2_2 2.914921 1_555
Mg0_6 Zn1_4 2.933446 1_565
Mg0_6 Zn1_2 2.933446 1_655
Mg0_6 Zn3_6 2.956237 1_555
Mg0_7 Zn0_3 2.855323 1_655
Mg0_7 Zn0_5 2.855323 1_565
Mg0_7 Zn2_3 2.914921 1_555
Mg0_7 Zn2_5 2.914921 1_555
Mg0_7 Zn1_5 2.933446 1_565
Mg0_7 Zn1_3 2.933446 1_655
Mg0_7 Zn3_7 2.956237 1_555
Mg1_0 Zn3_2 2.855323 1_545
Mg1_0 Zn3_4 2.855323 1_455
Mg1_0 Zn1_4 2.914921 1_555
Mg1_0 Zn1_2 2.914921 1_555
Mg1_0 Zn2_4 2.933446 1_455
Mg1_0 Zn2_2 2.933446 1_545
Mg1_0 Zn0_0 2.956237 1_555
Mg1_1 Zn3_3 2.855323 1_545
Mg1_1 Zn3_5 2.855323 1_455
Mg1_1 Zn1_3 2.914921 1_555
Mg1_1 Zn1_5 2.914921 1_555
Mg1_1 Zn2_5 2.933446 1_455
Mg1_1 Zn2_3 2.933446 1_545
Mg1_1 Zn0_1 2.956237 1_555
Mg1_2 Zn3_6 2.855323 1_455
Mg1_2 Zn3_0 2.855323 1_555
Mg1_2 Zn1_6 2.914921 1_555
Mg1_2 Zn1_0 2.914921 1_565
Mg1_2 Zn2_0 2.933446 1_555
Mg1_2 Zn2_6 2.933446 1_455
Mg1_2 Zn0_2 2.956237 1_555
Mg1_3 Zn3_7 2.855323 1_455
Mg1_3 Zn3_1 2.855323 1_555
Mg1_3 Zn1_1 2.914921 1_565
Mg1_3 Zn1_7 2.914921 1_555
Mg1_3 Zn2_7 2.933446 1_455
Mg1_3 Zn2_1 2.933446 1_555
Mg1_3 Zn0_3 2.956237 1_555
Mg1_4 Zn3_6 2.855323 1_545
Mg1_4 Zn3_0 2.855323 1_555
Mg1_4 Zn1_6 2.914921 1_555
Mg1_4 Zn1_0 2.914921 1_655
Mg1_4 Zn2_0 2.933446 1_555
Mg1_4 Zn2_6 2.933446 1_545
Mg1_4 Zn0_4 2.956237 1_555
Mg1_5 Zn3_7 2.855323 1_545
Mg1_5 Zn3_1 2.855323 1_555
Mg1_5 Zn1_1 2.914921 1_655
Mg1_5 Zn1_7 2.914921 1_555
Mg1_5 Zn2_7 2.933446 1_545
Mg1_5 Zn2_1 2.933446 1_555
Mg1_5 Zn0_5 2.956237 1_555
Mg1_6 Zn3_4 2.855323 1_555
Mg1_6 Zn3_2 2.855323 1_555
Mg1_6 Zn1_4 2.914921 1_565
Mg1_6 Zn1_2 2.914921 1_655
Mg1_6 Zn2_2 2.933446 1_555
Mg1_6 Zn2_4 2.933446 1_555
Mg1_6 Zn0_6 2.956237 1_555
Mg1_7 Zn3_3 2.855323 1_555
Mg1_7 Zn3_5 2.855323 1_555
Mg1_7 Zn1_3 2.914921 1_655
Mg1_7 Zn1_5 2.914921 1_565
Mg1_7 Zn2_5 2.933446 1_555
Mg1_7 Zn2_3 2.933446 1_555
Mg1_7 Zn0_7 2.956237 1_555
Zn0_0 Zn2_5 2.691592 1_454
Zn0_0 Zn2_3 2.691592 1_544
Zn0_0 Zn3_5 2.878530 1_454
Zn0_0 Zn3_3 2.878530 1_544
Zn0_0 Zn0_6 2.943000 1_455
Zn0_0 Zn0_6 2.943000 1_545
Zn0_0 Zn1_2 3.003249 1_555
Zn0_0 Zn1_4 3.003249 1_555
Zn0_0 Zn1_0 3.129700 1_555
Zn0_1 Zn2_4 2.691592 1_455
Zn0_1 Zn2_2 2.691592 1_545
Zn0_1 Zn3_4 2.878530 1_455
Zn0_1 Zn3_2 2.878530 1_545
Zn0_1 Zn0_7 2.943000 1_455
Zn0_1 Zn0_7 2.943000 1_545
Zn0_1 Zn1_3 3.003249 1_555
Zn0_1 Zn1_5 3.003249 1_555
Zn0_1 Zn1_1 3.129700 1_555
Zn0_2 Zn2_7 2.691592 1_454
Zn0_2 Zn2_1 2.691592 1_554
Zn0_2 Zn3_7 2.878530 1_454
Zn0_2 Zn3_1 2.878530 1_554
Zn0_2 Zn0_4 2.943000 1_465
Zn0_2 Zn0_4 2.943000 1_555
Zn0_2 Zn1_6 3.003249 1_555
Zn0_2 Zn1_0 3.003249 1_565
Zn0_2 Zn1_2 3.129700 1_555
Zn0_3 Zn2_0 2.691592 1_555
Zn0_3 Zn2_6 2.691592 1_455
Zn0_3 Zn3_6 2.878530 1_455
Zn0_3 Zn3_0 2.878530 1_555
Zn0_3 Zn0_5 2.943000 1_555
Zn0_3 Zn0_5 2.943000 1_465
Zn0_3 Zn1_1 3.003249 1_565
Zn0_3 Zn1_7 3.003249 1_555
Zn0_3 Zn1_3 3.129700 1_555
Zn0_4 Zn2_7 2.691592 1_544
Zn0_4 Zn2_1 2.691592 1_554
Zn0_4 Zn3_7 2.878530 1_544
Zn0_4 Zn3_1 2.878530 1_554
Zn0_4 Zn1_6 3.003249 1_555
Zn0_4 Zn1_0 3.003249 1_655
Zn0_4 Zn1_4 3.129700 1_555
Zn0_5 Zn2_0 2.691592 1_555
Zn0_5 Zn2_6 2.691592 1_545
Zn0_5 Zn3_6 2.878530 1_545
Zn0_5 Zn3_0 2.878530 1_555
Zn0_5 Zn1_1 3.003249 1_655
Zn0_5 Zn1_7 3.003249 1_555
Zn0_5 Zn1_5 3.129700 1_555
Zn0_6 Zn2_3 2.691592 1_554
Zn0_6 Zn2_5 2.691592 1_554
Zn0_6 Zn3_3 2.878530 1_554
Zn0_6 Zn3_5 2.878530 1_554
Zn0_6 Zn1_2 3.003249 1_655
Zn0_6 Zn1_4 3.003249 1_565
Zn0_6 Zn1_6 3.129700 1_555
Zn0_7 Zn2_2 2.691592 1_555
Zn0_7 Zn2_4 2.691592 1_555
Zn0_7 Zn3_2 2.878530 1_555
Zn0_7 Zn3_4 2.878530 1_555
Zn0_7 Zn1_3 3.003249 1_655
Zn0_7 Zn1_5 3.003249 1_565
Zn0_7 Zn1_7 3.129700 1_555
Zn1_0 Zn2_7 2.634901 1_444
Zn1_0 Zn3_3 2.691592 1_544
Zn1_0 Zn3_5 2.691592 1_454
Zn1_0 Zn1_6 2.943000 1_455
Zn1_0 Zn1_6 2.943000 1_545
Zn1_1 Zn2_6 2.634901 1_445
Zn1_1 Zn3_2 2.691592 1_545
Zn1_1 Zn3_4 2.691592 1_455
Zn1_1 Zn1_7 2.943000 1_545
Zn1_1 Zn1_7 2.943000 1_455
Zn1_2 Zn2_5 2.634901 1_454
Zn1_2 Zn3_1 2.691592 1_554
Zn1_2 Zn3_7 2.691592 1_454
Zn1_2 Zn1_4 2.943000 1_555
Zn1_2 Zn1_4 2.943000 1_465
Zn1_3 Zn2_4 2.634901 1_455
Zn1_3 Zn3_0 2.691592 1_555
Zn1_3 Zn3_6 2.691592 1_455
Zn1_3 Zn1_5 2.943000 1_465
Zn1_3 Zn1_5 2.943000 1_555
Zn1_4 Zn2_3 2.634901 1_544
Zn1_4 Zn3_1 2.691592 1_554
Zn1_4 Zn3_7 2.691592 1_544
Zn1_5 Zn2_2 2.634901 1_545
Zn1_5 Zn3_0 2.691592 1_555
Zn1_5 Zn3_6 2.691592 1_545
Zn1_6 Zn2_1 2.634901 1_554
Zn1_6 Zn3_3 2.691592 1_554
Zn1_6 Zn3_5 2.691592 1_554
Zn1_7 Zn2_0 2.634901 1_555
Zn1_7 Zn3_4 2.691592 1_555
Zn1_7 Zn3_2 2.691592 1_555
Zn2_0 Zn2_6 2.943000 1_455
Zn2_0 Zn2_6 2.943000 1_545
Zn2_0 Zn3_2 3.003249 1_555
Zn2_0 Zn3_4 3.003249 1_555
Zn2_0 Zn3_0 3.129700 1_555
Zn2_1 Zn2_7 2.943000 1_545
Zn2_1 Zn2_7 2.943000 1_455
Zn2_1 Zn3_5 3.003249 1_555
Zn2_1 Zn3_3 3.003249 1_555
Zn2_1 Zn3_1 3.129700 1_555
Zn2_2 Zn2_4 2.943000 1_465
Zn2_2 Zn2_4 2.943000 1_555
Zn2_2 Zn3_0 3.003249 1_565
Zn2_2 Zn3_6 3.003249 1_555
Zn2_2 Zn3_2 3.129700 1_555
Zn2_3 Zn2_5 2.943000 1_555
Zn2_3 Zn2_5 2.943000 1_465
Zn2_3 Zn3_1 3.003249 1_565
Zn2_3 Zn3_7 3.003249 1_555
Zn2_3 Zn3_3 3.129700 1_555
Zn2_4 Zn3_0 3.003249 1_655
Zn2_4 Zn3_6 3.003249 1_555
Zn2_4 Zn3_4 3.129700 1_555
Zn2_5 Zn3_1 3.003249 1_655
Zn2_5 Zn3_7 3.003249 1_555
Zn2_5 Zn3_5 3.129700 1_555
Zn2_6 Zn3_2 3.003249 1_655
Zn2_6 Zn3_4 3.003249 1_565
Zn2_6 Zn3_6 3.129700 1_555
Zn2_7 Zn3_5 3.003249 1_565
Zn2_7 Zn3_3 3.003249 1_655
Zn2_7 Zn3_7 3.129700 1_555
Zn3_0 Zn3_6 2.943000 1_455
Zn3_0 Zn3_6 2.943000 1_545
Zn3_1 Zn3_7 2.943000 1_455
Zn3_1 Zn3_7 2.943000 1_545
Zn3_2 Zn3_4 2.943000 1_555
Zn3_2 Zn3_4 2.943000 1_465
Zn3_3 Zn3_5 2.943000 1_465
Zn3_3 Zn3_5 2.943000 1_555
