# generated using pymatgen
data_Sm(Ge3Pt)4
_symmetry_space_group_name_H-M   'P 1'
_cell_length_a   7.55865760
_cell_length_b   7.55865760
_cell_length_c   7.55865760
_cell_angle_alpha   109.47122063
_cell_angle_beta   109.47122063
_cell_angle_gamma   109.47122063
_symmetry_Int_Tables_number   1
_chemical_formula_structural   Sm(Ge3Pt)4
_chemical_formula_sum   'Sm1 Ge12 Pt4'
_cell_volume   332.43912244
_cell_formula_units_Z   1
loop_
 _symmetry_equiv_pos_site_id
 _symmetry_equiv_pos_as_xyz
  1  'x, y, z'
loop_
 _atom_site_type_symbol
 _atom_site_label
 _atom_site_symmetry_multiplicity
 _atom_site_fract_x
 _atom_site_fract_y
 _atom_site_fract_z
 _atom_site_occupancy
  Sm  Sm0  1  0.00000000  0.00000000  0.00000000  1
  Ge  Ge0  1  0.84872300  0.64665800  0.49538100  1
  Ge  Ge1  1  0.15127700  0.35334200  0.50461900  1
  Ge  Ge2  1  0.15127700  0.64665800  0.79793400  1
  Ge  Ge3  1  0.84872300  0.35334200  0.20206600  1
  Ge  Ge4  1  0.64665800  0.49538100  0.84872300  1
  Ge  Ge5  1  0.35334200  0.50461900  0.15127700  1
  Ge  Ge6  1  0.64665800  0.79793400  0.15127700  1
  Ge  Ge7  1  0.35334200  0.20206600  0.84872300  1
  Ge  Ge8  1  0.49538100  0.84872300  0.64665800  1
  Ge  Ge9  1  0.50461900  0.15127700  0.35334200  1
  Ge  Ge10  1  0.20206600  0.84872300  0.35334200  1
  Ge  Ge11  1  0.79793400  0.15127700  0.64665800  1
  Pt  Pt0  1  0.50000000  0.50000000  0.50000000  1
  Pt  Pt1  1  0.50000000  0.00000000  0.00000000  1
  Pt  Pt2  1  0.00000000  0.50000000  0.00000000  1
  Pt  Pt3  1  0.00000000  0.00000000  0.50000000  1
loop_
_geom_bond_atom_site_label_1
_geom_bond_atom_site_label_2
_geom_bond_distance
_geom_bond_site_symmetry_2
Ge0 Pt0 2.513384 1_555
Ge0 Pt3 2.513384 1_665
Ge0 Ge3 2.560054 1_555
Ge0 Ge2 2.640683 1_655
Ge0 Sm0 3.354719 1_666
Ge1 Pt3 2.513384 1_555
Ge1 Pt0 2.513384 1_555
Ge1 Ge2 2.560054 1_555
Ge1 Ge3 2.640683 1_455
Ge1 Sm0 3.354719 1_555
Ge2 Pt1 2.513383 1_566
Ge2 Pt2 2.513391 1_556
Ge2 Sm0 3.354722 1_566
Ge3 Pt1 2.513383 1_555
Ge3 Pt2 2.513391 1_655
Ge3 Sm0 3.354722 1_655
Ge4 Pt0 2.513384 1_555
Ge4 Pt2 2.513384 1_656
Ge4 Ge7 2.560054 1_555
Ge4 Ge6 2.640683 1_556
Ge4 Sm0 3.354719 1_666
Ge5 Pt2 2.513384 1_555
Ge5 Pt0 2.513384 1_555
Ge5 Ge6 2.560054 1_555
Ge5 Ge7 2.640683 1_554
Ge5 Sm0 3.354719 1_555
Ge6 Pt3 2.513383 1_665
Ge6 Pt1 2.513391 1_565
Ge6 Sm0 3.354722 1_665
Ge7 Pt3 2.513383 1_555
Ge7 Pt1 2.513391 1_556
Ge7 Sm0 3.354722 1_556
Ge8 Pt1 2.513384 1_566
Ge8 Pt0 2.513384 1_555
Ge8 Sm0 3.354719 1_666
Ge9 Pt1 2.513384 1_555
Ge9 Pt0 2.513384 1_555
Ge9 Sm0 3.354719 1_555
Ge10 Pt2 2.513383 1_555
Ge10 Pt3 2.513391 1_565
Ge10 Ge8 2.560054 1_555
Ge10 Ge9 2.640683 1_565
Ge10 Sm0 3.354722 1_565
Ge11 Pt2 2.513383 1_656
Ge11 Pt3 2.513391 1_655
Ge11 Ge9 2.560054 1_555
Ge11 Ge8 2.640683 1_545
Ge11 Sm0 3.354722 1_656
