# generated using pymatgen
data_Ba8CuSi16
_symmetry_space_group_name_H-M   'P 1'
_cell_length_a   6.76869900
_cell_length_b   9.15792600
_cell_length_c   11.58425074
_cell_angle_alpha   89.51927715
_cell_angle_beta   90.00000000
_cell_angle_gamma   90.00000000
_symmetry_Int_Tables_number   1
_chemical_formula_structural   Ba8CuSi16
_chemical_formula_sum   'Ba8 Cu1 Si16'
_cell_volume   718.05050897
_cell_formula_units_Z   1
loop_
 _symmetry_equiv_pos_site_id
 _symmetry_equiv_pos_as_xyz
  1  'x, y, z'
loop_
 _atom_site_type_symbol
 _atom_site_label
 _atom_site_symmetry_multiplicity
 _atom_site_fract_x
 _atom_site_fract_y
 _atom_site_fract_z
 _atom_site_occupancy
  Ba  Ba0  1  0.50000000  0.01650900  0.69614400  1
  Ba  Ba1  1  0.00000000  0.48725500  0.19381400  1
  Ba  Ba2  1  0.00000000  0.99102900  0.30309000  1
  Ba  Ba3  1  0.50000000  0.51274800  0.80846000  1
  Ba  Ba4  1  0.50000000  0.83081900  0.08572200  1
  Ba  Ba5  1  0.00000000  0.65835700  0.59326300  1
  Ba  Ba6  1  0.00000000  0.15796100  0.90591700  1
  Ba  Ba7  1  0.50000000  0.36156000  0.41622800  1
  Cu  Cu0  1  0.50000000  0.07690900  0.27266900  1
  Si  Si0  1  0.50000000  0.41448700  0.09423300  1
  Si  Si1  1  0.00000000  0.08536500  0.59297600  1
  Si  Si2  1  0.00000000  0.58486500  0.90811600  1
  Si  Si3  1  0.50000000  0.90640700  0.41274100  1
  Si  Si4  1  0.50000000  0.19863100  0.96741800  1
  Si  Si5  1  0.00000000  0.29892800  0.46658800  1
  Si  Si6  1  0.00000000  0.79839200  0.03278200  1
  Si  Si7  1  0.50000000  0.69738400  0.53594800  1
  Si  Si8  1  0.30283700  0.20159000  0.13954500  1
  Si  Si9  1  0.17754600  0.30543300  0.64661700  1
  Si  Si10  1  0.82267100  0.80475900  0.85262400  1
  Si  Si11  1  0.68034600  0.69146500  0.35560900  1
  Si  Si12  1  0.17732900  0.80475900  0.85262400  1
  Si  Si13  1  0.31965400  0.69146500  0.35560900  1
  Si  Si14  1  0.69716300  0.20159000  0.13954500  1
  Si  Si15  1  0.82245400  0.30543300  0.64661700  1
loop_
_geom_bond_atom_site_label_1
_geom_bond_atom_site_label_2
_geom_bond_distance
_geom_bond_site_symmetry_2
Ba0 Si12 3.428921 1_545
Ba0 Si10 3.428921 1_545
Ba0 Si3 3.442440 1_545
Ba0 Si15 3.473965 1_555
Ba0 Si9 3.473965 1_555
Ba0 Si7 3.475048 1_545
Ba0 Si4 3.570021 1_555
Ba0 Si1 3.642407 1_655
Ba0 Si1 3.642407 1_555
Ba1 Si14 3.386521 1_455
Ba1 Si8 3.386521 1_555
Ba1 Si6 3.392575 1_555
Ba1 Si2 3.420944 1_554
Ba1 Si13 3.427899 1_555
Ba1 Si11 3.427899 1_455
Ba1 Si5 3.587192 1_555
Ba1 Si0 3.638893 1_555
Ba1 Si0 3.638893 1_455
Ba2 Si8 3.383502 1_565
Ba2 Si14 3.383502 1_465
Ba2 Si5 3.409935 1_565
Ba2 Si1 3.474473 1_565
Ba2 Cu0 3.491692 1_465
Ba2 Cu0 3.491692 1_565
Ba2 Si13 3.542547 1_555
Ba2 Si11 3.542547 1_455
Ba2 Si6 3.606949 1_555
Ba2 Si3 3.694772 1_555
Ba2 Si3 3.694772 1_455
Ba3 Si4 3.402510 1_555
Ba3 Si0 3.423296 1_556
Ba3 Si9 3.455868 1_555
Ba3 Si15 3.455868 1_555
Ba3 Si10 3.493745 1_555
Ba3 Si12 3.493745 1_555
Ba3 Si7 3.568641 1_555
Ba3 Si2 3.638067 1_655
Ba3 Si2 3.638067 1_555
Ba4 Cu0 3.138622 1_565
Ba4 Si6 3.452704 1_655
Ba4 Si6 3.452704 1_555
Ba4 Si12 3.482720 1_554
Ba4 Si10 3.482720 1_554
Ba4 Si13 3.581405 1_555
Ba4 Si11 3.581405 1_555
Ba4 Si4 3.625851 1_564
Ba4 Si8 3.706028 1_565
Ba4 Si14 3.706028 1_565
Ba4 Si0 3.813185 1_555
Ba5 Si7 3.466758 1_455
Ba5 Si7 3.466758 1_555
Ba5 Si15 3.498408 1_455
Ba5 Si9 3.498408 1_555
Ba5 Si12 3.511823 1_555
Ba5 Si10 3.511823 1_455
Ba5 Si13 3.512623 1_555
Ba5 Si11 3.512623 1_455
Ba5 Si5 3.615136 1_555
Ba5 Si2 3.703356 1_555
Ba5 Si1 3.910481 1_565
Ba6 Si14 3.421132 1_456
Ba6 Si8 3.421132 1_556
Ba6 Si4 3.479162 1_555
Ba6 Si4 3.479162 1_455
Ba6 Si15 3.496125 1_455
Ba6 Si9 3.496125 1_555
Ba6 Si12 3.509694 1_545
Ba6 Si10 3.509694 1_445
Ba6 Si6 3.594698 1_546
Ba6 Si1 3.691127 1_555
Ba6 Si2 3.909852 1_555
Ba7 Cu0 3.103847 1_555
Ba7 Si13 3.327998 1_555
Ba7 Si11 3.327998 1_555
Ba7 Si7 3.384283 1_555
Ba7 Si5 3.481025 1_555
Ba7 Si5 3.481025 1_655
Ba7 Si9 3.482505 1_555
Ba7 Si15 3.482505 1_555
Ba7 Si0 3.757396 1_555
Ba7 Si14 3.778766 1_555
Ba7 Si8 3.778766 1_555
Cu0 Si3 2.242436 1_545
Cu0 Si14 2.330964 1_555
Cu0 Si8 2.330964 1_555
Si0 Si14 2.416744 1_555
Si0 Si8 2.416744 1_555
Si0 Si4 2.472766 1_554
Si1 Si15 2.431678 1_455
Si1 Si9 2.431678 1_555
Si1 Si5 2.433249 1_555
Si2 Si6 2.440662 1_556
Si3 Si7 2.378120 1_555
Si4 Si8 2.399691 1_556
Si5 Si9 2.408145 1_555
Si10 Si12 2.400573 1_655
Si10 Si6 2.407820 1_656
Si10 Si2 2.426413 1_655
Si11 Si3 2.413441 1_555
Si11 Si7 2.420593 1_555
Si11 Si13 2.441416 1_555
Si12 Si6 2.407820 1_556
Si12 Si2 2.426413 1_555
Si13 Si3 2.413441 1_555
Si13 Si7 2.420593 1_555
Si14 Si4 2.399691 1_554
Si14 Si8 2.669074 1_555
Si15 Si9 2.403511 1_655
Si15 Si5 2.408145 1_655
