# generated using pymatgen
data_Mg3Fe
_symmetry_space_group_name_H-M   'P 1'
_cell_length_a   5.86678200
_cell_length_b   9.33913600
_cell_length_c   10.29764400
_cell_angle_alpha   90.00000000
_cell_angle_beta   90.00000000
_cell_angle_gamma   90.00000000
_symmetry_Int_Tables_number   1
_chemical_formula_structural   Mg3Fe
_chemical_formula_sum   'Mg24 Fe8'
_cell_volume   564.21486547
_cell_formula_units_Z   8
loop_
 _symmetry_equiv_pos_site_id
 _symmetry_equiv_pos_as_xyz
  1  'x, y, z'
loop_
 _atom_site_type_symbol
 _atom_site_label
 _atom_site_symmetry_multiplicity
 _atom_site_fract_x
 _atom_site_fract_y
 _atom_site_fract_z
 _atom_site_occupancy
  Mg  Mg0_0  1  0.25000000  0.00000000  0.33158650  1
  Mg  Mg0_1  1  0.25000000  0.00000000  0.83158650  1
  Mg  Mg0_2  1  0.25000000  0.50000000  0.33158650  1
  Mg  Mg0_3  1  0.25000000  0.50000000  0.83158650  1
  Mg  Mg0_4  1  0.75000000  0.00000000  0.33158650  1
  Mg  Mg0_5  1  0.75000000  0.00000000  0.83158650  1
  Mg  Mg0_6  1  0.75000000  0.50000000  0.33158650  1
  Mg  Mg0_7  1  0.75000000  0.50000000  0.83158650  1
  Mg  Mg1_0  1  0.25000000  0.25000000  0.16008700  1
  Mg  Mg1_1  1  0.25000000  0.25000000  0.66008700  1
  Mg  Mg1_2  1  0.25000000  0.75000000  0.16008700  1
  Mg  Mg1_3  1  0.25000000  0.75000000  0.66008700  1
  Mg  Mg1_4  1  0.75000000  0.25000000  0.16008700  1
  Mg  Mg1_5  1  0.75000000  0.25000000  0.66008700  1
  Mg  Mg1_6  1  0.75000000  0.75000000  0.16008700  1
  Mg  Mg1_7  1  0.75000000  0.75000000  0.66008700  1
  Mg  Mg2_0  1  0.00000000  0.25000000  0.42892050  1
  Mg  Mg2_1  1  0.00000000  0.25000000  0.92892050  1
  Mg  Mg2_2  1  0.00000000  0.75000000  0.42892050  1
  Mg  Mg2_3  1  0.00000000  0.75000000  0.92892050  1
  Mg  Mg2_4  1  0.50000000  0.25000000  0.42892050  1
  Mg  Mg2_5  1  0.50000000  0.25000000  0.92892050  1
  Mg  Mg2_6  1  0.50000000  0.75000000  0.42892050  1
  Mg  Mg2_7  1  0.50000000  0.75000000  0.92892050  1
  Fe  Fe0_0  1  0.00000000  0.00000000  0.07940650  1
  Fe  Fe0_1  1  0.00000000  0.00000000  0.57940650  1
  Fe  Fe0_2  1  0.00000000  0.50000000  0.07940650  1
  Fe  Fe0_3  1  0.00000000  0.50000000  0.57940650  1
  Fe  Fe0_4  1  0.50000000  0.00000000  0.07940650  1
  Fe  Fe0_5  1  0.50000000  0.00000000  0.57940650  1
  Fe  Fe0_6  1  0.50000000  0.50000000  0.07940650  1
  Fe  Fe0_7  1  0.50000000  0.50000000  0.57940650  1
loop_
_geom_bond_atom_site_label_1
_geom_bond_atom_site_label_2
_geom_bond_distance
_geom_bond_site_symmetry_2
Mg0_0 Mg1_2 2.927476 1_545
Mg0_0 Mg1_0 2.927476 1_555
Mg0_0 Mg0_4 2.933391 1_455
Mg0_0 Mg0_4 2.933391 1_555
Mg0_0 Mg2_4 2.933776 1_555
Mg0_0 Mg2_2 2.933776 1_545
Mg0_0 Mg2_0 2.933776 1_555
Mg0_0 Mg2_6 2.933776 1_545
Mg0_1 Mg1_3 2.927476 1_545
Mg0_1 Mg1_1 2.927476 1_555
Mg0_1 Mg0_5 2.933391 1_455
Mg0_1 Mg0_5 2.933391 1_555
Mg0_1 Mg2_5 2.933776 1_555
Mg0_1 Mg2_3 2.933776 1_545
Mg0_1 Mg2_7 2.933776 1_545
Mg0_1 Mg2_1 2.933776 1_555
Mg0_2 Mg1_2 2.927476 1_555
Mg0_2 Mg1_0 2.927476 1_555
Mg0_2 Mg0_6 2.933391 1_555
Mg0_2 Mg0_6 2.933391 1_455
Mg0_2 Mg2_2 2.933776 1_555
Mg0_2 Mg2_0 2.933776 1_555
Mg0_2 Mg2_6 2.933776 1_555
Mg0_2 Mg2_4 2.933776 1_555
Mg0_3 Mg1_3 2.927476 1_555
Mg0_3 Mg1_1 2.927476 1_555
Mg0_3 Mg0_7 2.933391 1_455
Mg0_3 Mg0_7 2.933391 1_555
Mg0_3 Mg2_5 2.933776 1_555
Mg0_3 Mg2_3 2.933776 1_555
Mg0_3 Mg2_1 2.933776 1_555
Mg0_3 Mg2_7 2.933776 1_555
Mg0_4 Mg1_6 2.927476 1_545
Mg0_4 Mg1_4 2.927476 1_555
Mg0_4 Mg2_6 2.933776 1_545
Mg0_4 Mg2_0 2.933776 1_655
Mg0_4 Mg2_2 2.933776 1_645
Mg0_4 Mg2_4 2.933776 1_555
Mg0_5 Mg1_7 2.927476 1_545
Mg0_5 Mg1_5 2.927476 1_555
Mg0_5 Mg2_1 2.933776 1_655
Mg0_5 Mg2_5 2.933776 1_555
Mg0_5 Mg2_3 2.933776 1_645
Mg0_5 Mg2_7 2.933776 1_545
Mg0_6 Mg1_4 2.927476 1_555
Mg0_6 Mg1_6 2.927476 1_555
Mg0_6 Mg2_2 2.933776 1_655
Mg0_6 Mg2_6 2.933776 1_555
Mg0_6 Mg2_0 2.933776 1_655
Mg0_6 Mg2_4 2.933776 1_555
Mg0_7 Mg1_7 2.927476 1_555
Mg0_7 Mg1_5 2.927476 1_555
Mg0_7 Mg2_1 2.933776 1_655
Mg0_7 Mg2_5 2.933776 1_555
Mg0_7 Mg2_7 2.933776 1_555
Mg0_7 Mg2_3 2.933776 1_655
Mg1_0 Mg2_1 2.796039 1_554
Mg1_0 Mg2_5 2.796039 1_554
Mg1_0 Mg1_4 2.933391 1_555
Mg1_0 Mg1_4 2.933391 1_455
Mg1_0 Mg2_0 3.132885 1_555
Mg1_0 Mg2_4 3.132885 1_555
Mg1_1 Mg2_4 2.796039 1_555
Mg1_1 Mg2_0 2.796039 1_555
Mg1_1 Mg1_5 2.933391 1_455
Mg1_1 Mg1_5 2.933391 1_555
Mg1_1 Mg2_5 3.132885 1_555
Mg1_1 Mg2_1 3.132885 1_555
Mg1_2 Mg2_3 2.796039 1_554
Mg1_2 Mg2_7 2.796039 1_554
Mg1_2 Mg1_6 2.933391 1_455
Mg1_2 Mg1_6 2.933391 1_555
Mg1_2 Mg2_2 3.132885 1_555
Mg1_2 Mg2_6 3.132885 1_555
Mg1_3 Mg2_2 2.796039 1_555
Mg1_3 Mg2_6 2.796039 1_555
Mg1_3 Mg1_7 2.933391 1_455
Mg1_3 Mg1_7 2.933391 1_555
Mg1_3 Mg2_3 3.132885 1_555
Mg1_3 Mg2_7 3.132885 1_555
Mg1_4 Mg2_1 2.796039 1_654
Mg1_4 Mg2_5 2.796039 1_554
Mg1_4 Mg2_0 3.132885 1_655
Mg1_4 Mg2_4 3.132885 1_555
Mg1_5 Mg2_4 2.796039 1_555
Mg1_5 Mg2_0 2.796039 1_655
Mg1_5 Mg2_1 3.132885 1_655
Mg1_5 Mg2_5 3.132885 1_555
Mg1_6 Mg2_7 2.796039 1_554
Mg1_6 Mg2_3 2.796039 1_654
Mg1_6 Mg2_2 3.132885 1_655
Mg1_6 Mg2_6 3.132885 1_555
Mg1_7 Mg2_2 2.796039 1_655
Mg1_7 Mg2_6 2.796039 1_555
Mg1_7 Mg2_3 3.132885 1_655
Mg1_7 Mg2_7 3.132885 1_555
Fe0_0 Mg2_3 2.802255 1_544
Fe0_0 Mg2_1 2.802255 1_554
Fe0_0 Mg1_0 2.879700 1_555
Fe0_0 Mg1_4 2.879700 1_455
Fe0_0 Mg1_6 2.879700 1_445
Fe0_0 Mg1_2 2.879700 1_545
Fe0_0 Fe0_4 2.933391 1_555
Fe0_0 Fe0_4 2.933391 1_455
Fe0_0 Mg0_1 2.943417 1_554
Fe0_0 Mg0_5 2.943417 1_454
Fe0_0 Mg0_4 2.982428 1_455
Fe0_0 Mg0_0 2.982428 1_555
Fe0_1 Mg2_0 2.802255 1_555
Fe0_1 Mg2_2 2.802255 1_545
Fe0_1 Mg1_3 2.879700 1_545
Fe0_1 Mg1_7 2.879700 1_445
Fe0_1 Mg1_1 2.879700 1_555
Fe0_1 Mg1_5 2.879700 1_455
Fe0_1 Fe0_5 2.933391 1_455
Fe0_1 Fe0_5 2.933391 1_555
Fe0_1 Mg0_0 2.943417 1_555
Fe0_1 Mg0_4 2.943417 1_455
Fe0_1 Mg0_5 2.982428 1_455
Fe0_1 Mg0_1 2.982428 1_555
Fe0_2 Mg2_3 2.802255 1_554
Fe0_2 Mg2_1 2.802255 1_554
Fe0_2 Mg1_0 2.879700 1_555
Fe0_2 Mg1_6 2.879700 1_455
Fe0_2 Mg1_4 2.879700 1_455
Fe0_2 Mg1_2 2.879700 1_555
Fe0_2 Fe0_6 2.933391 1_455
Fe0_2 Fe0_6 2.933391 1_555
Fe0_2 Mg0_7 2.943417 1_454
Fe0_2 Mg0_3 2.943417 1_554
Fe0_2 Mg0_2 2.982428 1_555
Fe0_2 Mg0_6 2.982428 1_455
Fe0_3 Mg2_0 2.802255 1_555
Fe0_3 Mg2_2 2.802255 1_555
Fe0_3 Mg1_3 2.879700 1_555
Fe0_3 Mg1_7 2.879700 1_455
Fe0_3 Mg1_1 2.879700 1_555
Fe0_3 Mg1_5 2.879700 1_455
Fe0_3 Fe0_7 2.933391 1_455
Fe0_3 Fe0_7 2.933391 1_555
Fe0_3 Mg0_2 2.943417 1_555
Fe0_3 Mg0_6 2.943417 1_455
Fe0_3 Mg0_3 2.982428 1_555
Fe0_3 Mg0_7 2.982428 1_455
Fe0_4 Mg2_5 2.802255 1_554
Fe0_4 Mg2_7 2.802255 1_544
Fe0_4 Mg1_0 2.879700 1_555
Fe0_4 Mg1_6 2.879700 1_545
Fe0_4 Mg1_4 2.879700 1_555
Fe0_4 Mg1_2 2.879700 1_545
Fe0_4 Mg0_1 2.943417 1_554
Fe0_4 Mg0_5 2.943417 1_554
Fe0_4 Mg0_4 2.982428 1_555
Fe0_4 Mg0_0 2.982428 1_555
Fe0_5 Mg2_4 2.802255 1_555
Fe0_5 Mg2_6 2.802255 1_545
Fe0_5 Mg1_3 2.879700 1_545
Fe0_5 Mg1_1 2.879700 1_555
Fe0_5 Mg1_7 2.879700 1_545
Fe0_5 Mg1_5 2.879700 1_555
Fe0_5 Mg0_0 2.943417 1_555
Fe0_5 Mg0_4 2.943417 1_555
Fe0_5 Mg0_1 2.982428 1_555
Fe0_5 Mg0_5 2.982428 1_555
Fe0_6 Mg2_7 2.802255 1_554
Fe0_6 Mg2_5 2.802255 1_554
Fe0_6 Mg1_0 2.879700 1_555
Fe0_6 Mg1_6 2.879700 1_555
Fe0_6 Mg1_4 2.879700 1_555
Fe0_6 Mg1_2 2.879700 1_555
Fe0_6 Mg0_7 2.943417 1_554
Fe0_6 Mg0_3 2.943417 1_554
Fe0_6 Mg0_2 2.982428 1_555
Fe0_6 Mg0_6 2.982428 1_555
Fe0_7 Mg2_4 2.802255 1_555
Fe0_7 Mg2_6 2.802255 1_555
Fe0_7 Mg1_3 2.879700 1_555
Fe0_7 Mg1_7 2.879700 1_555
Fe0_7 Mg1_1 2.879700 1_555
Fe0_7 Mg1_5 2.879700 1_555
Fe0_7 Mg0_2 2.943417 1_555
Fe0_7 Mg0_6 2.943417 1_555
Fe0_7 Mg0_7 2.982428 1_555
Fe0_7 Mg0_3 2.982428 1_555
