# generated using pymatgen
data_K3Fe5F15
_symmetry_space_group_name_H-M   'P 1'
_cell_length_a   4.02262100
_cell_length_b   12.97654400
_cell_length_c   13.02774100
_cell_angle_alpha   90.00000000
_cell_angle_beta   90.00000000
_cell_angle_gamma   90.00000000
_symmetry_Int_Tables_number   1
_chemical_formula_structural   K3Fe5F15
_chemical_formula_sum   'K6 Fe10 F30'
_cell_volume   680.04441161
_cell_formula_units_Z   2
loop_
 _symmetry_equiv_pos_site_id
 _symmetry_equiv_pos_as_xyz
  1  'x, y, z'
loop_
 _atom_site_type_symbol
 _atom_site_label
 _atom_site_symmetry_multiplicity
 _atom_site_fract_x
 _atom_site_fract_y
 _atom_site_fract_z
 _atom_site_occupancy
  K  K0  1  0.97238100  0.50000000  0.50000000  1
  K  K1  1  0.97238100  0.00000000  0.00000000  1
  K  K2  1  0.97176000  0.17627300  0.32334500  1
  K  K3  1  0.97176000  0.82372700  0.67665500  1
  K  K4  1  0.97176000  0.67627300  0.17665500  1
  K  K5  1  0.97176000  0.32372700  0.82334500  1
  Fe  Fe0  1  0.44339600  0.00000000  0.50000000  1
  Fe  Fe1  1  0.44339600  0.50000000  0.00000000  1
  Fe  Fe2  1  0.46167500  0.71282200  0.42408600  1
  Fe  Fe3  1  0.46167500  0.28717800  0.57591400  1
  Fe  Fe4  1  0.46167500  0.21282200  0.07591400  1
  Fe  Fe5  1  0.46167500  0.78717800  0.92408600  1
  Fe  Fe6  1  0.46130000  0.57646500  0.71369700  1
  Fe  Fe7  1  0.46130000  0.42353500  0.28630300  1
  Fe  Fe8  1  0.46130000  0.07646500  0.78630300  1
  Fe  Fe9  1  0.46130000  0.92353500  0.21369700  1
  F  F0  1  0.94633100  0.00000000  0.50000000  1
  F  F1  1  0.94633100  0.50000000  0.00000000  1
  F  F2  1  0.96199400  0.71101600  0.42567300  1
  F  F3  1  0.96199400  0.28898400  0.57432700  1
  F  F4  1  0.96199400  0.21101600  0.07432700  1
  F  F5  1  0.96199400  0.78898400  0.92567300  1
  F  F6  1  0.46176300  0.27412000  0.21810200  1
  F  F7  1  0.46176300  0.72588000  0.78189800  1
  F  F8  1  0.46176300  0.77412000  0.28189800  1
  F  F9  1  0.46176300  0.22588000  0.71810200  1
  F  F10  1  0.96119400  0.57471600  0.70841500  1
  F  F11  1  0.96119400  0.42528400  0.29158500  1
  F  F12  1  0.96119400  0.07471600  0.79158500  1
  F  F13  1  0.96119400  0.92528400  0.20841500  1
  F  F14  1  0.44857000  0.50870000  0.14770200  1
  F  F15  1  0.44857000  0.49130000  0.85229800  1
  F  F16  1  0.44857000  0.00870000  0.35229800  1
  F  F17  1  0.44857000  0.99130000  0.64770200  1
  F  F18  1  0.45070800  0.84917200  0.50468400  1
  F  F19  1  0.45070800  0.15082800  0.49531600  1
  F  F20  1  0.45070800  0.34917200  0.99531600  1
  F  F21  1  0.45070800  0.65082800  0.00468400  1
  F  F22  1  0.46703300  0.57220300  0.35848900  1
  F  F23  1  0.46703300  0.42779700  0.64151100  1
  F  F24  1  0.46703300  0.07220300  0.14151100  1
  F  F25  1  0.46703300  0.92779700  0.85848900  1
  F  F26  1  0.46844800  0.64602600  0.56422900  1
  F  F27  1  0.46844800  0.35397400  0.43577100  1
  F  F28  1  0.46844800  0.14602600  0.93577100  1
  F  F29  1  0.46844800  0.85397400  0.06422900  1
loop_
_geom_bond_atom_site_label_1
_geom_bond_atom_site_label_2
_geom_bond_distance
_geom_bond_site_symmetry_2
F0 Fe0 1.999504 1_655
F0 Fe0 2.023117 1_555
F1 Fe1 1.999504 1_655
F1 Fe1 2.023117 1_555
F2 Fe2 2.010270 1_655
F2 Fe2 2.012836 1_555
F2 K0 2.904726 1_555
F3 Fe3 2.010270 1_655
F3 Fe3 2.012836 1_555
F3 K0 2.904726 1_555
F4 Fe4 2.010270 1_655
F4 Fe4 2.012836 1_555
F4 K1 2.904726 1_555
F5 Fe5 2.010270 1_655
F5 Fe5 2.012836 1_555
F5 K1 2.904726 1_566
F6 Fe4 2.015952 1_555
F6 Fe7 2.132778 1_555
F6 K2 2.716110 1_455
F6 K2 2.775029 1_555
F7 Fe5 2.015952 1_555
F7 Fe6 2.132778 1_555
F7 K3 2.716110 1_455
F7 K3 2.775029 1_555
F8 Fe2 2.015952 1_555
F8 Fe9 2.132778 1_555
F8 K4 2.716110 1_455
F8 K4 2.775029 1_555
F9 Fe3 2.015952 1_555
F9 Fe8 2.132778 1_555
F9 K5 2.716110 1_455
F9 K5 2.775029 1_555
F10 Fe6 2.012189 1_555
F10 Fe6 2.013041 1_655
F10 K0 2.883444 1_555
F11 Fe7 2.012189 1_555
F11 Fe7 2.013041 1_655
F11 K0 2.883444 1_555
F12 Fe8 2.012189 1_555
F12 Fe8 2.013041 1_655
F12 K1 2.883444 1_556
F13 Fe9 2.012189 1_555
F13 Fe9 2.013041 1_655
F13 K1 2.883444 1_565
F14 Fe1 1.927645 1_555
F14 Fe7 2.117634 1_555
F14 K4 2.923975 1_455
F14 K4 3.049611 1_555
F15 Fe1 1.927645 1_556
F15 Fe6 2.117634 1_555
F15 K5 2.923975 1_455
F15 K5 3.049611 1_555
F16 Fe0 1.927645 1_555
F16 Fe9 2.117634 1_545
F16 K2 2.923975 1_455
F16 K2 3.049611 1_555
F17 Fe0 1.927645 1_565
F17 Fe8 2.117634 1_565
F17 K3 2.923975 1_455
F17 K3 3.049611 1_555
F18 Fe0 1.958398 1_565
F18 Fe2 2.057929 1_555
F18 K3 2.973260 1_455
F18 K3 3.085706 1_555
F19 Fe0 1.958398 1_555
F19 Fe3 2.057929 1_555
F19 K2 2.973260 1_455
F19 K2 3.085706 1_555
F20 Fe1 1.958398 1_556
F20 Fe4 2.057929 1_556
F20 K5 2.973260 1_455
F20 K5 3.085706 1_555
F21 Fe1 1.958398 1_555
F21 Fe5 2.057929 1_554
F21 K4 2.973260 1_455
F21 K4 3.085706 1_555
F22 Fe2 2.015063 1_555
F22 Fe7 2.146328 1_555
F22 K0 2.869827 1_455
F22 K0 2.899825 1_555
F23 Fe3 2.015063 1_555
F23 Fe6 2.146328 1_555
F23 K0 2.869827 1_455
F23 K0 2.899825 1_555
F24 Fe4 2.015063 1_555
F24 Fe9 2.146328 1_545
F24 K1 2.869827 1_455
F24 K1 2.899825 1_555
F25 Fe5 2.015063 1_555
F25 Fe8 2.146328 1_565
F25 K1 2.869827 1_466
F25 K1 2.899825 1_566
F26 Fe2 2.021238 1_555
F26 Fe6 2.146469 1_555
F26 K0 2.876254 1_455
F26 K0 2.898296 1_555
F27 Fe3 2.021238 1_555
F27 Fe7 2.146469 1_555
F27 K0 2.876254 1_455
F27 K0 2.898296 1_555
F28 Fe4 2.021238 1_556
F28 Fe8 2.146469 1_555
F28 K1 2.876254 1_456
F28 K1 2.898296 1_556
F29 Fe5 2.021238 1_554
F29 Fe9 2.146469 1_555
F29 K1 2.876254 1_465
F29 K1 2.898296 1_565
