# generated using pymatgen
data_RbMg14Cd
_symmetry_space_group_name_H-M   'P 1'
_cell_length_a   6.58883077
_cell_length_b   6.59039407
_cell_length_c   10.66974787
_cell_angle_alpha   90.00000000
_cell_angle_beta   90.00000000
_cell_angle_gamma   120.00785474
_symmetry_Int_Tables_number   1
_chemical_formula_structural   RbMg14Cd
_chemical_formula_sum   'Rb1 Mg14 Cd1'
_cell_volume   401.20851909
_cell_formula_units_Z   1
loop_
 _symmetry_equiv_pos_site_id
 _symmetry_equiv_pos_as_xyz
  1  'x, y, z'
loop_
 _atom_site_type_symbol
 _atom_site_label
 _atom_site_symmetry_multiplicity
 _atom_site_fract_x
 _atom_site_fract_y
 _atom_site_fract_z
 _atom_site_occupancy
  Rb  Rb0  1  0.16670192  0.33335046  0.12500000  1
  Mg  Mg0  1  0.16710201  0.33355051  0.62500000  1
  Mg  Mg1  1  0.16561220  0.83280560  0.62500000  1
  Mg  Mg2  1  0.66272703  0.32434829  0.12500000  1
  Mg  Mg3  1  0.66673479  0.33437302  0.62500000  1
  Mg  Mg4  1  0.66272703  0.83837774  0.12500000  1
  Mg  Mg5  1  0.66673479  0.83236077  0.62500000  1
  Mg  Mg6  1  0.33942050  0.15995097  0.38973468  1
  Mg  Mg7  1  0.33942050  0.15995097  0.86026532  1
  Mg  Mg8  1  0.33942050  0.67947053  0.38973468  1
  Mg  Mg9  1  0.33942050  0.67947053  0.86026532  1
  Mg  Mg10  1  0.82020132  0.16010116  0.39129937  1
  Mg  Mg11  1  0.82020132  0.16010116  0.85870063  1
  Mg  Mg12  1  0.83384196  0.66692148  0.37030641  1
  Mg  Mg13  1  0.83384196  0.66692148  0.87969359  1
  Cd  Cd0  1  0.17589165  0.83794533  0.12500000  1
loop_
_geom_bond_atom_site_label_1
_geom_bond_atom_site_label_2
_geom_bond_distance
_geom_bond_site_symmetry_2
Mg0 Mg11 3.183594 1_455
Mg0 Mg10 3.183594 1_455
Mg0 Mg6 3.193512 1_555
Mg0 Mg7 3.193512 1_555
Mg0 Mg8 3.193519 1_555
Mg0 Mg9 3.193519 1_555
Mg0 Mg5 3.289288 1_555
Mg0 Mg3 3.289288 1_555
Mg0 Mg1 3.295208 1_555
Mg0 Mg1 3.295208 1_545
Mg0 Mg5 3.299549 1_445
Mg0 Mg3 3.299549 1_455
Mg1 Mg9 3.129122 1_555
Mg1 Mg8 3.129122 1_555
Mg1 Mg6 3.129129 1_565
Mg1 Mg7 3.129129 1_565
Mg1 Mg3 3.285553 1_455
Mg1 Mg5 3.285554 1_455
Mg1 Mg3 3.303279 1_565
Mg1 Mg5 3.303279 1_555
Mg1 Mg12 3.311828 1_455
Mg1 Mg13 3.311828 1_455
Mg2 Mg4 3.202737 1_545
Mg2 Rb0 3.291335 1_655
Mg2 Rb0 3.298297 1_555
Mg2 Mg7 3.373693 1_554
Mg2 Mg6 3.373693 1_555
Mg2 Mg4 3.387657 1_555
Mg3 Mg6 3.129528 1_555
Mg3 Mg7 3.129528 1_555
Mg3 Mg5 3.281936 1_555
Mg3 Mg5 3.308459 1_545
Mg4 Rb0 3.291335 1_665
Mg4 Rb0 3.298296 1_555
Mg4 Mg9 3.373693 1_554
Mg4 Mg8 3.373693 1_555
Mg5 Mg9 3.129528 1_555
Mg5 Mg8 3.129528 1_555
Mg6 Mg8 3.166555 1_545
Mg6 Mg8 3.423839 1_555
Mg6 Rb0 3.446804 1_555
Mg7 Mg9 3.166555 1_545
Mg7 Mg9 3.423839 1_555
Mg7 Rb0 3.446804 1_556
Mg8 Rb0 3.446811 1_555
Mg9 Rb0 3.446811 1_556
Mg10 Mg3 3.117828 1_555
Mg10 Mg5 3.117834 1_545
Mg10 Mg8 3.167332 1_545
Mg10 Mg6 3.167333 1_555
Mg10 Mg12 3.303718 1_555
Mg10 Mg12 3.303718 1_545
Mg10 Mg2 3.383032 1_555
Mg10 Mg4 3.383038 1_545
Mg10 Mg8 3.421583 1_655
Mg10 Mg6 3.421583 1_655
Mg10 Rb0 3.461476 1_655
Mg11 Mg3 3.117828 1_555
Mg11 Mg5 3.117834 1_545
Mg11 Mg9 3.167332 1_545
Mg11 Mg7 3.167333 1_555
Mg11 Mg13 3.303718 1_555
Mg11 Mg13 3.303718 1_545
Mg11 Mg2 3.383032 1_556
Mg11 Mg4 3.383038 1_546
Mg11 Mg9 3.421583 1_655
Mg11 Mg7 3.421583 1_655
Mg11 Rb0 3.461476 1_656
Mg12 Mg4 3.266924 1_555
Mg12 Mg2 3.266931 1_555
Mg12 Mg6 3.297112 1_665
Mg12 Mg8 3.297112 1_655
Mg12 Mg6 3.306302 1_555
Mg12 Mg8 3.306303 1_555
Mg12 Mg5 3.314623 1_555
Mg12 Mg3 3.314629 1_555
Mg13 Mg4 3.266924 1_556
Mg13 Mg2 3.266931 1_556
Mg13 Mg7 3.297112 1_665
Mg13 Mg9 3.297112 1_655
Mg13 Mg7 3.306302 1_555
Mg13 Mg9 3.306303 1_555
Mg13 Mg5 3.314623 1_555
Mg13 Mg3 3.314629 1_555
Cd0 Mg2 3.206251 1_565
Cd0 Mg4 3.206252 1_555
Cd0 Mg13 3.264867 1_454
Cd0 Mg12 3.264867 1_455
Cd0 Rb0 3.295614 1_565
Cd0 Rb0 3.295614 1_555
Cd0 Mg8 3.369862 1_555
Cd0 Mg9 3.369862 1_554
Cd0 Mg7 3.369868 1_564
Cd0 Mg6 3.369868 1_565
Cd0 Mg2 3.382581 1_455
Cd0 Mg4 3.382581 1_455
