# generated using pymatgen
data_RbSn
_symmetry_space_group_name_H-M   'P 1'
_cell_length_a   11.83675535
_cell_length_b   11.83675583
_cell_length_c   12.79805737
_cell_angle_alpha   117.54488720
_cell_angle_beta   117.54488613
_cell_angle_gamma   89.99999880
_symmetry_Int_Tables_number   1
_chemical_formula_structural   RbSn
_chemical_formula_sum   'Rb16 Sn16'
_cell_volume   1356.49547571
_cell_formula_units_Z   16
loop_
 _symmetry_equiv_pos_site_id
 _symmetry_equiv_pos_as_xyz
  1  'x, y, z'
loop_
 _atom_site_type_symbol
 _atom_site_label
 _atom_site_symmetry_multiplicity
 _atom_site_fract_x
 _atom_site_fract_y
 _atom_site_fract_z
 _atom_site_occupancy
  Rb  Rb0  1  0.11156312  0.25000000  0.50000000  1
  Rb  Rb1  1  0.75000000  0.11156312  0.00000000  1
  Rb  Rb2  1  0.25000000  0.38843688  -0.00000000  1
  Rb  Rb3  1  0.38843688  0.75000000  0.50000000  1
  Rb  Rb4  1  0.88843688  0.75000000  0.50000000  1
  Rb  Rb5  1  0.25000000  0.88843688  -0.00000000  1
  Rb  Rb6  1  0.75000000  0.61156312  0.00000000  1
  Rb  Rb7  1  0.61156312  0.25000000  0.50000000  1
  Rb  Rb8  1  0.50311130  0.75311130  0.25000000  1
  Rb  Rb9  1  0.99688870  0.50311130  0.75000000  1
  Rb  Rb10  1  0.75311130  0.74688870  0.75000000  1
  Rb  Rb11  1  0.74688870  0.99688870  0.25000000  1
  Rb  Rb12  1  0.49688870  0.24688870  0.75000000  1
  Rb  Rb13  1  0.00311130  0.49688870  0.25000000  1
  Rb  Rb14  1  0.24688870  0.25311130  0.25000000  1
  Rb  Rb15  1  0.25311130  0.00311130  0.75000000  1
  Sn  Sn0  1  0.99174968  0.07064765  0.85811024  1
  Sn  Sn1  1  0.28746458  0.99174968  0.35811024  1
  Sn  Sn2  1  0.07064765  0.86635956  0.35811024  1
  Sn  Sn3  1  0.63364044  0.42935235  0.14188976  1
  Sn  Sn4  1  0.50825032  0.21253542  0.14188976  1
  Sn  Sn5  1  0.21253542  0.63364044  0.64188976  1
  Sn  Sn6  1  0.42935235  0.50825032  0.64188976  1
  Sn  Sn7  1  0.86635956  0.28746458  0.85811024  1
  Sn  Sn8  1  0.00825032  0.92935235  0.14188976  1
  Sn  Sn9  1  0.71253542  0.00825032  0.64188976  1
  Sn  Sn10  1  0.92935235  0.13364044  0.64188976  1
  Sn  Sn11  1  0.36635956  0.57064765  0.85811024  1
  Sn  Sn12  1  0.49174968  0.78746458  0.85811024  1
  Sn  Sn13  1  0.78746458  0.36635956  0.35811024  1
  Sn  Sn14  1  0.57064765  0.49174968  0.35811024  1
  Sn  Sn15  1  0.13364044  0.71253542  0.14188976  1
loop_
_geom_bond_atom_site_label_1
_geom_bond_atom_site_label_2
_geom_bond_distance
_geom_bond_site_symmetry_2
Rb0 Sn6 3.916602 1_555
Rb0 Sn1 3.916619 1_545
Rb0 Sn11 3.953948 1_555
Rb0 Sn8 3.953950 1_545
Rb0 Sn5 3.963977 1_555
Rb0 Sn2 3.963979 1_545
Rb0 Sn13 3.972620 1_455
Rb0 Sn10 3.972637 1_455
Rb0 Rb9 4.025719 1_455
Rb0 Rb11 4.025719 1_445
Rb0 Rb14 4.201561 1_555
Rb0 Rb12 4.201562 1_555
Rb1 Sn3 3.916595 1_555
Rb1 Sn7 3.916612 1_554
Rb1 Sn13 3.953937 1_555
Rb1 Sn9 3.953940 1_554
Rb1 Sn4 3.963966 1_555
Rb1 Sn0 3.963968 1_554
Rb1 Sn12 3.972627 1_544
Rb1 Sn8 3.972644 1_645
Rb1 Rb11 4.025719 1_545
Rb1 Rb10 4.025719 1_544
Rb1 Rb12 4.201561 1_554
Rb1 Rb13 4.201562 1_655
Rb2 Sn0 3.916602 1_454
Rb2 Sn4 3.916619 1_555
Rb2 Sn10 3.953948 1_454
Rb2 Sn14 3.953950 1_555
Rb2 Sn7 3.963977 1_454
Rb2 Sn3 3.963979 1_555
Rb2 Sn15 3.972620 1_555
Rb2 Sn11 3.972637 1_554
Rb2 Rb9 4.025719 1_454
Rb2 Rb8 4.025720 1_555
Rb3 Sn2 3.916595 1_555
Rb3 Sn5 3.916612 1_555
Rb3 Sn15 3.953937 1_555
Rb3 Sn12 3.953940 1_555
Rb3 Sn1 3.963966 1_555
Rb3 Sn6 3.963968 1_555
Rb3 Sn9 3.972627 1_565
Rb3 Sn14 3.972644 1_555
Rb3 Rb8 4.025719 1_555
Rb4 Sn14 3.916602 1_555
Rb4 Sn9 3.916619 1_565
Rb4 Sn3 3.953948 1_555
Rb4 Sn0 3.953950 1_565
Rb4 Sn13 3.963977 1_555
Rb4 Sn10 3.963979 1_565
Rb4 Sn5 3.972620 1_655
Rb4 Sn2 3.972637 1_655
Rb4 Rb8 4.201562 1_555
Rb5 Sn11 3.916595 1_554
Rb5 Sn15 3.916612 1_555
Rb5 Sn5 3.953937 1_554
Rb5 Sn1 3.953940 1_555
Rb5 Sn12 3.963966 1_554
Rb5 Sn8 3.963968 1_555
Rb5 Sn4 3.972627 1_565
Rb5 Sn0 3.972644 1_464
Rb5 Rb8 4.201561 1_555
Rb5 Rb9 4.201562 1_454
Rb6 Sn8 3.916602 1_655
Rb6 Sn12 3.916619 1_554
Rb6 Sn2 3.953948 1_655
Rb6 Sn6 3.953950 1_554
Rb6 Sn15 3.963977 1_655
Rb6 Sn11 3.963979 1_554
Rb6 Sn7 3.972620 1_554
Rb6 Sn3 3.972637 1_555
Rb7 Sn10 3.916595 1_555
Rb7 Sn13 3.916612 1_555
Rb7 Sn7 3.953937 1_555
Rb7 Sn4 3.953940 1_555
Rb7 Sn9 3.963966 1_555
Rb7 Sn14 3.963968 1_555
Rb7 Sn1 3.972627 1_545
Rb7 Sn6 3.972644 1_555
Rb7 Rb9 4.201562 1_555
Rb8 Sn11 3.861621 1_554
Rb8 Sn9 3.861622 1_565
Rb8 Sn15 3.880727 1_555
Rb8 Sn14 3.880739 1_555
Rb8 Sn1 4.007567 1_555
Rb8 Sn3 4.007593 1_555
Rb9 Sn15 3.861620 1_656
Rb9 Sn13 3.861620 1_555
Rb9 Sn11 3.880728 1_655
Rb9 Sn10 3.880728 1_555
Rb9 Sn5 4.007574 1_655
Rb9 Sn7 4.007574 1_555
Rb10 Sn8 3.861623 1_656
Rb10 Sn14 3.861623 1_555
Rb10 Sn12 3.880738 1_555
Rb10 Sn9 3.880738 1_565
Rb10 Sn6 4.007586 1_555
Rb10 Sn0 4.007586 1_565
Rb10 Rb3 4.025719 1_555
Rb10 Rb9 4.080761 1_555
Rb10 Rb4 4.201561 1_555
Rb10 Rb6 4.201561 1_556
Rb11 Sn10 3.861621 1_565
Rb11 Sn12 3.861622 1_554
Rb11 Sn13 3.880727 1_565
Rb11 Sn8 3.880739 1_655
Rb11 Sn4 4.007567 1_565
Rb11 Sn2 4.007593 1_655
Rb11 Rb8 4.080761 1_555
Rb11 Rb7 4.201561 1_565
Rb11 Rb6 4.201562 1_555
Rb12 Sn3 3.861621 1_556
Rb12 Sn1 3.861622 1_545
Rb12 Sn7 3.880727 1_555
Rb12 Sn6 3.880739 1_555
Rb12 Sn9 4.007567 1_555
Rb12 Sn11 4.007593 1_555
Rb12 Rb7 4.025719 1_555
Rb12 Rb6 4.025720 1_556
Rb12 Rb15 4.080761 1_555
Rb13 Sn7 3.861620 1_454
Rb13 Sn5 3.861620 1_555
Rb13 Sn3 3.880728 1_455
Rb13 Sn2 3.880728 1_555
Rb13 Sn13 4.007574 1_455
Rb13 Sn15 4.007574 1_555
Rb13 Rb4 4.025719 1_455
Rb13 Rb6 4.025719 1_455
Rb13 Rb14 4.080761 1_555
Rb13 Rb3 4.201562 1_555
Rb14 Sn0 3.861623 1_454
Rb14 Sn6 3.861623 1_555
Rb14 Sn4 3.880738 1_555
Rb14 Sn1 3.880738 1_545
Rb14 Sn14 4.007586 1_555
Rb14 Sn8 4.007586 1_545
Rb14 Rb7 4.025719 1_555
Rb14 Rb5 4.025719 1_545
Rb14 Rb2 4.201561 1_555
Rb15 Sn2 3.861621 1_545
Rb15 Sn4 3.861622 1_556
Rb15 Sn5 3.880727 1_545
Rb15 Sn0 3.880739 1_455
Rb15 Sn12 4.007567 1_545
Rb15 Sn10 4.007593 1_455
Rb15 Rb5 4.025719 1_546
Rb15 Rb4 4.025719 1_445
Rb15 Rb3 4.201561 1_545
Rb15 Rb2 4.201562 1_556
Sn0 Sn10 2.962586 1_555
Sn0 Sn9 2.962594 1_555
Sn0 Sn7 2.964682 1_555
Sn1 Sn8 2.962594 1_555
Sn1 Sn15 2.962596 1_555
Sn1 Sn2 2.964682 1_555
Sn2 Sn8 2.962586 1_555
Sn3 Sn4 2.964682 1_555
Sn5 Sn6 2.964682 1_555
Sn7 Sn9 2.962596 1_555
Sn10 Sn7 2.962588 1_555
Sn10 Sn9 2.964682 1_555
Sn11 Sn6 2.962586 1_555
Sn11 Sn5 2.962588 1_555
Sn11 Sn12 2.964682 1_555
Sn12 Sn6 2.962594 1_555
Sn12 Sn5 2.962596 1_555
Sn13 Sn3 2.962588 1_555
Sn13 Sn4 2.962596 1_555
Sn13 Sn14 2.964682 1_555
Sn14 Sn3 2.962586 1_555
Sn14 Sn4 2.962594 1_555
Sn15 Sn2 2.962588 1_555
Sn15 Sn8 2.964682 1_555
