# generated using pymatgen
data_FeAsO6
_symmetry_space_group_name_H-M   'P 1'
_cell_length_a   9.71615100
_cell_length_b   9.76265200
_cell_length_c   11.10062900
_cell_angle_alpha   90.00000000
_cell_angle_beta   90.00000000
_cell_angle_gamma   90.00000000
_symmetry_Int_Tables_number   1
_chemical_formula_structural   FeAsO6
_chemical_formula_sum   'Fe8 As8 O48'
_cell_volume   1052.95461506
_cell_formula_units_Z   8
loop_
 _symmetry_equiv_pos_site_id
 _symmetry_equiv_pos_as_xyz
  1  'x, y, z'
loop_
 _atom_site_type_symbol
 _atom_site_label
 _atom_site_symmetry_multiplicity
 _atom_site_fract_x
 _atom_site_fract_y
 _atom_site_fract_z
 _atom_site_occupancy
  Fe  Fe0  1  0.09509700  0.28216400  0.89461000  1
  Fe  Fe1  1  0.40490300  0.71783600  0.39461000  1
  Fe  Fe2  1  0.59509700  0.21783600  0.10539000  1
  Fe  Fe3  1  0.90490300  0.78216400  0.60539000  1
  Fe  Fe4  1  0.90490300  0.71783600  0.10539000  1
  Fe  Fe5  1  0.59509700  0.28216400  0.60539000  1
  Fe  Fe6  1  0.40490300  0.78216400  0.89461000  1
  Fe  Fe7  1  0.09509700  0.21783600  0.39461000  1
  As  As0  1  0.06830900  0.64394800  0.85145100  1
  As  As1  1  0.43169100  0.35605200  0.35145100  1
  As  As2  1  0.56830900  0.85605200  0.14854900  1
  As  As3  1  0.93169100  0.14394800  0.64854900  1
  As  As4  1  0.93169100  0.35605200  0.14854900  1
  As  As5  1  0.56830900  0.64394800  0.64854900  1
  As  As6  1  0.43169100  0.14394800  0.85145100  1
  As  As7  1  0.06830900  0.85605200  0.35145100  1
  O  O0  1  0.03169800  0.68449300  0.70447700  1
  O  O1  1  0.46830200  0.31550700  0.20447700  1
  O  O2  1  0.53169800  0.81550700  0.29552300  1
  O  O3  1  0.96830200  0.18449300  0.79552300  1
  O  O4  1  0.96830200  0.31550700  0.29552300  1
  O  O5  1  0.53169800  0.68449300  0.79552300  1
  O  O6  1  0.46830200  0.18449300  0.70447700  1
  O  O7  1  0.03169800  0.81550700  0.20447700  1
  O  O8  1  0.05705600  0.47042100  0.86935600  1
  O  O9  1  0.44294400  0.52957900  0.36935600  1
  O  O10  1  0.55705600  0.02957900  0.13064400  1
  O  O11  1  0.94294400  0.97042100  0.63064400  1
  O  O12  1  0.94294400  0.52957900  0.13064400  1
  O  O13  1  0.55705600  0.47042100  0.63064400  1
  O  O14  1  0.44294400  0.97042100  0.86935600  1
  O  O15  1  0.05705600  0.02957900  0.36935600  1
  O  O16  1  0.23161700  0.69319800  0.89107100  1
  O  O17  1  0.26838300  0.30680200  0.39107100  1
  O  O18  1  0.73161700  0.80680200  0.10892900  1
  O  O19  1  0.76838300  0.19319800  0.60892900  1
  O  O20  1  0.76838300  0.30680200  0.10892900  1
  O  O21  1  0.73161700  0.69319800  0.60892900  1
  O  O22  1  0.26838300  0.19319800  0.89107100  1
  O  O23  1  0.23161700  0.80680200  0.39107100  1
  O  O24  1  0.94951600  0.72935300  0.93817800  1
  O  O25  1  0.55048400  0.27064700  0.43817800  1
  O  O26  1  0.44951600  0.77064700  0.06182200  1
  O  O27  1  0.05048400  0.22935300  0.56182200  1
  O  O28  1  0.05048400  0.27064700  0.06182200  1
  O  O29  1  0.44951600  0.72935300  0.56182200  1
  O  O30  1  0.55048400  0.22935300  0.93817800  1
  O  O31  1  0.94951600  0.77064700  0.43817800  1
  O  O32  1  0.29259400  0.43327100  0.73112800  1
  O  O33  1  0.20740600  0.56672900  0.23112800  1
  O  O34  1  0.79259400  0.06672900  0.26887200  1
  O  O35  1  0.70740600  0.93327100  0.76887200  1
  O  O36  1  0.70740600  0.56672900  0.26887200  1
  O  O37  1  0.79259400  0.43327100  0.76887200  1
  O  O38  1  0.20740600  0.93327100  0.73112800  1
  O  O39  1  0.29259400  0.06672900  0.23112800  1
  O  O40  1  0.36582900  0.44754600  0.82139100  1
  O  O41  1  0.13417100  0.55245400  0.32139100  1
  O  O42  1  0.86582900  0.05245400  0.17860900  1
  O  O43  1  0.63417100  0.94754600  0.67860900  1
  O  O44  1  0.63417100  0.55245400  0.17860900  1
  O  O45  1  0.86582900  0.44754600  0.67860900  1
  O  O46  1  0.13417100  0.94754600  0.82139100  1
  O  O47  1  0.36582900  0.05245400  0.32139100  1
loop_
_geom_bond_atom_site_label_1
_geom_bond_atom_site_label_2
_geom_bond_distance
_geom_bond_site_symmetry_2
Fe0 O22 1.894905 1_555
Fe0 O8 1.895529 1_555
Fe0 O3 1.907035 1_455
Fe0 O28 1.909413 1_556
Fe1 O23 1.894905 1_555
Fe1 O9 1.895529 1_555
Fe1 O2 1.907035 1_555
Fe1 O29 1.909413 1_555
Fe2 O20 1.894905 1_555
Fe2 O10 1.895529 1_555
Fe2 O1 1.907035 1_555
Fe2 O30 1.909413 1_554
Fe3 O21 1.894905 1_555
Fe3 O11 1.895529 1_555
Fe3 O0 1.907035 1_655
Fe3 O31 1.909413 1_555
Fe4 O18 1.894905 1_555
Fe4 O12 1.895529 1_555
Fe4 O7 1.907035 1_655
Fe4 O24 1.909413 1_554
Fe5 O19 1.894905 1_555
Fe5 O13 1.895529 1_555
Fe5 O6 1.907035 1_555
Fe5 O25 1.909413 1_555
Fe6 O16 1.894905 1_555
Fe6 O14 1.895529 1_555
Fe6 O5 1.907035 1_555
Fe6 O26 1.909413 1_556
Fe7 O17 1.894905 1_555
Fe7 O15 1.895529 1_555
Fe7 O4 1.907035 1_455
Fe7 O27 1.909413 1_555
As0 O8 1.709204 1_555
As0 O16 1.715315 1_555
As0 O0 1.716106 1_555
As0 O24 1.718787 1_455
As1 O9 1.709204 1_555
As1 O17 1.715315 1_555
As1 O1 1.716106 1_555
As1 O25 1.718787 1_555
As2 O10 1.709204 1_565
As2 O18 1.715315 1_555
As2 O2 1.716106 1_555
As2 O26 1.718787 1_555
As3 O11 1.709204 1_545
As3 O19 1.715315 1_555
As3 O3 1.716106 1_555
As3 O27 1.718787 1_655
As4 O12 1.709204 1_555
As4 O20 1.715315 1_555
As4 O4 1.716106 1_555
As4 O28 1.718787 1_655
As5 O13 1.709204 1_555
As5 O21 1.715315 1_555
As5 O5 1.716106 1_555
As5 O29 1.718787 1_555
As6 O14 1.709204 1_545
As6 O22 1.715315 1_555
As6 O6 1.716106 1_555
As6 O30 1.718787 1_555
As7 O15 1.709204 1_565
As7 O23 1.715315 1_555
As7 O7 1.716106 1_555
As7 O31 1.718787 1_455
O32 O40 1.236810 1_555
O33 O41 1.236810 1_555
O34 O42 1.236810 1_555
O35 O43 1.236810 1_555
O36 O44 1.236810 1_555
O37 O45 1.236810 1_555
O38 O46 1.236810 1_555
O39 O47 1.236810 1_555
