# generated using pymatgen
data_Li3MnCoO5
_symmetry_space_group_name_H-M   'P 1'
_cell_length_a   5.03679600
_cell_length_b   5.09947484
_cell_length_c   7.70364452
_cell_angle_alpha   83.62530844
_cell_angle_beta   71.48260602
_cell_angle_gamma   70.98115972
_symmetry_Int_Tables_number   1
_chemical_formula_structural   Li3MnCoO5
_chemical_formula_sum   'Li6 Mn2 Co2 O10'
_cell_volume   177.37566173
_cell_formula_units_Z   2
loop_
 _symmetry_equiv_pos_site_id
 _symmetry_equiv_pos_as_xyz
  1  'x, y, z'
loop_
 _atom_site_type_symbol
 _atom_site_label
 _atom_site_symmetry_multiplicity
 _atom_site_fract_x
 _atom_site_fract_y
 _atom_site_fract_z
 _atom_site_occupancy
  Li  Li0  1  0.09161900  0.50520100  0.80709900  1
  Li  Li1  1  0.69710900  0.49749500  0.60667000  1
  Li  Li2  1  0.29459300  0.50205400  0.40172200  1
  Li  Li3  1  0.90333500  0.49846800  0.19693100  1
  Li  Li4  1  0.51143200  0.50024900  0.98901600  1
  Li  Li5  1  0.60024000  0.99793600  0.80241400  1
  Mn  Mn0  1  0.00248400  0.99507300  0.99612700  1
  Mn  Mn1  1  0.79826500  0.00255300  0.40147600  1
  Co  Co0  1  0.19490700  0.00316100  0.60710700  1
  Co  Co1  1  0.40375300  0.00034600  0.19069100  1
  O  O0  1  0.75975300  0.77005700  0.00569700  1
  O  O1  1  0.31897700  0.76594100  0.81217400  1
  O  O2  1  0.95566800  0.77804400  0.58217900  1
  O  O3  1  0.55148900  0.78038900  0.39565800  1
  O  O4  1  0.12854100  0.77525700  0.20228400  1
  O  O5  1  0.46093900  0.22287200  0.58055300  1
  O  O6  1  0.03479900  0.23034400  0.40279000  1
  O  O7  1  0.67439500  0.22185000  0.19584700  1
  O  O8  1  0.24489400  0.21998100  0.01252000  1
  O  O9  1  0.87280800  0.23273100  0.81104500  1
loop_
_geom_bond_atom_site_label_1
_geom_bond_atom_site_label_2
_geom_bond_distance
_geom_bond_site_symmetry_2
Li0 O1 2.028108 1_555
Li0 O9 2.028186 1_455
Li0 O0 2.078935 1_456
Li0 O8 2.179180 1_556
Li0 O2 2.237043 1_455
Li0 O5 2.308526 1_555
Li1 O6 2.117506 1_655
Li1 O5 2.171873 1_555
Li1 O9 2.172359 1_555
Li1 O2 2.185564 1_555
Li1 O3 2.192827 1_555
Li1 O1 2.207813 1_555
Li2 O5 2.036414 1_555
Li2 O2 2.046638 1_455
Li2 O4 2.140671 1_555
Li2 O6 2.191907 1_555
Li2 O3 2.198842 1_555
Li2 O7 2.238561 1_555
Li3 O0 2.045067 1_555
Li3 O8 2.073140 1_655
Li3 O4 2.089687 1_655
Li3 O7 2.094865 1_555
Li3 O6 2.101982 1_655
Li3 O3 2.157795 1_555
Li4 O1 2.050427 1_555
Li4 O9 2.065345 1_555
Li4 O0 2.176432 1_556
Li4 O7 2.190191 1_556
Li4 O8 2.217302 1_556
Li4 O4 2.263091 1_556
Li5 O0 2.057884 1_556
Li5 O8 2.085991 1_566
Li5 O1 2.101698 1_555
Li5 O9 2.114190 1_565
Li5 O2 2.127349 1_555
Li5 O5 2.128613 1_565
Mn0 O9 1.902683 1_465
Mn0 O1 1.906165 1_555
Mn0 O0 1.911837 1_456
Mn0 O8 1.965938 1_566
Mn0 O4 1.990781 1_556
Mn0 O7 1.992480 1_466
Mn1 O2 1.905960 1_545
Mn1 O5 1.914000 1_555
Mn1 O6 1.918612 1_655
Mn1 O3 1.948055 1_545
Mn1 O7 1.982134 1_555
Mn1 O4 1.995583 1_645
Co0 O5 1.961150 1_555
Co0 O2 1.975924 1_445
Co0 O9 2.005581 1_455
Co0 O1 2.014830 1_545
Co0 O6 2.064541 1_555
Co0 O3 2.095828 1_545
Co1 O8 1.884341 1_555
Co1 O0 2.000341 1_545
Co1 O3 2.028323 1_545
Co1 O4 2.045150 1_545
Co1 O7 2.045388 1_555
Co1 O6 2.138952 1_555
