# generated using pymatgen
data_Na3Fe2P2O10F
_symmetry_space_group_name_H-M   'P 1'
_cell_length_a   9.17999300
_cell_length_b   9.18521900
_cell_length_c   10.53311100
_cell_angle_alpha   90.00000000
_cell_angle_beta   90.00000000
_cell_angle_gamma   90.00000000
_symmetry_Int_Tables_number   1
_chemical_formula_structural   Na3Fe2P2O10F
_chemical_formula_sum   'Na12 Fe8 P8 O40 F4'
_cell_volume   888.15451197
_cell_formula_units_Z   4
loop_
 _symmetry_equiv_pos_site_id
 _symmetry_equiv_pos_as_xyz
  1  'x, y, z'
loop_
 _atom_site_type_symbol
 _atom_site_label
 _atom_site_symmetry_multiplicity
 _atom_site_fract_x
 _atom_site_fract_y
 _atom_site_fract_z
 _atom_site_occupancy
  Na  Na0  1  0.52228900  0.23076200  0.00000000  1
  Na  Na1  1  0.47771100  0.76923800  0.00000000  1
  Na  Na2  1  0.02228900  0.26923800  0.50000000  1
  Na  Na3  1  0.97771100  0.73076200  0.50000000  1
  Na  Na4  1  0.24034900  0.51446100  0.00000000  1
  Na  Na5  1  0.75965100  0.48553900  0.00000000  1
  Na  Na6  1  0.25965100  0.01446100  0.50000000  1
  Na  Na7  1  0.74034900  0.98553900  0.50000000  1
  Na  Na8  1  0.94172100  0.18467900  0.00000000  1
  Na  Na9  1  0.05827900  0.81532100  0.00000000  1
  Na  Na10  1  0.44172100  0.31532100  0.50000000  1
  Na  Na11  1  0.55827900  0.68467900  0.50000000  1
  Fe  Fe0  1  0.74761800  0.25647800  0.69313900  1
  Fe  Fe1  1  0.25238200  0.74352200  0.69313900  1
  Fe  Fe2  1  0.24761800  0.24352200  0.19313900  1
  Fe  Fe3  1  0.75238200  0.75647800  0.19313900  1
  Fe  Fe4  1  0.25238200  0.74352200  0.30686100  1
  Fe  Fe5  1  0.74761800  0.25647800  0.30686100  1
  Fe  Fe6  1  0.75238200  0.75647800  0.80686100  1
  Fe  Fe7  1  0.24761800  0.24352200  0.80686100  1
  P  P0  1  0.50000000  0.50000000  0.75774600  1
  P  P1  1  0.00000000  0.00000000  0.25774600  1
  P  P2  1  0.50000000  0.50000000  0.24225400  1
  P  P3  1  0.00000000  0.00000000  0.74225400  1
  P  P4  1  0.50000000  0.00000000  0.74807400  1
  P  P5  1  0.00000000  0.50000000  0.24807400  1
  P  P6  1  0.50000000  0.00000000  0.25192600  1
  P  P7  1  0.00000000  0.50000000  0.75192600  1
  O  O0  1  0.74635600  0.26095300  0.85747500  1
  O  O1  1  0.25364400  0.73904700  0.85747500  1
  O  O2  1  0.24635600  0.23904700  0.35747500  1
  O  O3  1  0.75364400  0.76095300  0.35747500  1
  O  O4  1  0.25364400  0.73904700  0.14252500  1
  O  O5  1  0.74635600  0.26095300  0.14252500  1
  O  O6  1  0.75364400  0.76095300  0.64252500  1
  O  O7  1  0.24635600  0.23904700  0.64252500  1
  O  O8  1  0.59658300  0.09437400  0.65986300  1
  O  O9  1  0.40341700  0.90562600  0.65986300  1
  O  O10  1  0.09658300  0.40562600  0.15986300  1
  O  O11  1  0.90341700  0.59437400  0.15986300  1
  O  O12  1  0.40341700  0.90562600  0.34013700  1
  O  O13  1  0.59658300  0.09437400  0.34013700  1
  O  O14  1  0.90341700  0.59437400  0.84013700  1
  O  O15  1  0.09658300  0.40562600  0.84013700  1
  O  O16  1  0.09224700  0.59756000  0.66275900  1
  O  O17  1  0.90775300  0.40244000  0.66275900  1
  O  O18  1  0.40775300  0.09756000  0.16275900  1
  O  O19  1  0.59224700  0.90244000  0.16275900  1
  O  O20  1  0.90775300  0.40244000  0.33724100  1
  O  O21  1  0.09224700  0.59756000  0.33724100  1
  O  O22  1  0.59224700  0.90244000  0.83724100  1
  O  O23  1  0.40775300  0.09756000  0.83724100  1
  O  O24  1  0.59222500  0.40587600  0.66505800  1
  O  O25  1  0.40777500  0.59412400  0.66505800  1
  O  O26  1  0.09222500  0.09412400  0.16505800  1
  O  O27  1  0.90777500  0.90587600  0.16505800  1
  O  O28  1  0.40777500  0.59412400  0.33494200  1
  O  O29  1  0.59222500  0.40587600  0.33494200  1
  O  O30  1  0.90777500  0.90587600  0.83494200  1
  O  O31  1  0.09222500  0.09412400  0.83494200  1
  O  O32  1  0.90399500  0.09550700  0.65525400  1
  O  O33  1  0.09600500  0.90449300  0.65525400  1
  O  O34  1  0.40399500  0.40449300  0.15525400  1
  O  O35  1  0.59600500  0.59550700  0.15525400  1
  O  O36  1  0.09600500  0.90449300  0.34474600  1
  O  O37  1  0.90399500  0.09550700  0.34474600  1
  O  O38  1  0.59600500  0.59550700  0.84474600  1
  O  O39  1  0.40399500  0.40449300  0.84474600  1
  F  F0  1  0.74690600  0.25120000  0.50000000  1
  F  F1  1  0.25309400  0.74880000  0.50000000  1
  F  F2  1  0.24690600  0.24880000  0.00000000  1
  F  F3  1  0.75309400  0.75120000  0.00000000  1
loop_
_geom_bond_atom_site_label_1
_geom_bond_atom_site_label_2
_geom_bond_distance
_geom_bond_site_symmetry_2
Na0 O23 2.354034 1_554
Na0 O18 2.354034 1_555
Na0 O39 2.529809 1_554
Na0 O34 2.529809 1_555
Na0 O0 2.561557 1_554
Na0 O5 2.561557 1_555
Na1 O19 2.354034 1_555
Na1 O22 2.354034 1_554
Na1 O38 2.529809 1_554
Na1 O35 2.529809 1_555
Na1 O4 2.561557 1_555
Na1 O1 2.561557 1_554
Na2 O20 2.354034 1_455
Na2 O17 2.354034 1_455
Na2 O37 2.529809 1_455
Na2 O32 2.529809 1_455
Na2 O7 2.561557 1_555
Na2 O2 2.561557 1_555
Na3 O21 2.354034 1_655
Na3 O16 2.354034 1_655
Na3 O33 2.529809 1_655
Na3 O36 2.529809 1_655
Na3 O6 2.561557 1_555
Na3 O3 2.561557 1_555
Na4 O15 2.361463 1_554
Na4 O10 2.361463 1_555
Na4 O34 2.439530 1_555
Na4 O39 2.439530 1_554
Na4 O4 2.554218 1_555
Na4 O1 2.554218 1_554
Na5 O14 2.361463 1_554
Na5 O11 2.361463 1_555
Na5 O35 2.439530 1_555
Na5 O38 2.439530 1_554
Na5 O5 2.554218 1_555
Na5 O0 2.554218 1_554
Na6 O12 2.361463 1_545
Na6 O9 2.361463 1_545
Na6 O33 2.439530 1_545
Na6 O36 2.439530 1_545
Na6 O7 2.554218 1_555
Na6 O2 2.554218 1_555
Na7 O8 2.361463 1_565
Na7 O13 2.361463 1_565
Na7 O37 2.439530 1_565
Na7 O32 2.439530 1_565
Na7 O6 2.554218 1_555
Na7 O3 2.554218 1_555
Na8 O26 2.371364 1_655
Na8 O31 2.371364 1_654
Na8 O5 2.441513 1_555
Na8 O0 2.441513 1_554
Na9 O30 2.371364 1_454
Na9 O27 2.371364 1_455
Na9 O4 2.441513 1_555
Na9 O1 2.441513 1_554
Na10 O24 2.371364 1_555
Na10 O29 2.371364 1_555
Na10 O2 2.441513 1_555
Na10 O7 2.441513 1_555
Na11 O28 2.371364 1_555
Na11 O25 2.371364 1_555
Na11 O6 2.441513 1_555
Na11 O3 2.441513 1_555
Fe0 O0 1.731496 1_555
Fe0 O24 2.001371 1_555
Fe0 O17 2.015159 1_555
Fe0 O8 2.064519 1_555
Fe0 O32 2.099079 1_555
Fe1 O1 1.731496 1_555
Fe1 O25 2.001371 1_555
Fe1 O16 2.015159 1_555
Fe1 O9 2.064519 1_555
Fe1 O33 2.099079 1_555
Fe2 O2 1.731496 1_555
Fe2 O26 2.001371 1_555
Fe2 O18 2.015159 1_555
Fe2 O10 2.064519 1_555
Fe2 O34 2.099079 1_555
Fe3 O3 1.731496 1_555
Fe3 O27 2.001371 1_555
Fe3 O19 2.015159 1_555
Fe3 O11 2.064519 1_555
Fe3 O35 2.099079 1_555
Fe4 O4 1.731496 1_555
Fe4 O28 2.001371 1_555
Fe4 O21 2.015159 1_555
Fe4 O12 2.064519 1_555
Fe4 O36 2.099079 1_555
Fe5 O5 1.731496 1_555
Fe5 O29 2.001371 1_555
Fe5 O20 2.015159 1_555
Fe5 O13 2.064519 1_555
Fe5 O37 2.099079 1_555
Fe6 O6 1.731496 1_555
Fe6 O30 2.001371 1_555
Fe6 O22 2.015159 1_555
Fe6 O14 2.064519 1_555
Fe6 O38 2.099079 1_555
Fe7 O7 1.731496 1_555
Fe7 O31 2.001371 1_555
Fe7 O23 2.015159 1_555
Fe7 O15 2.064519 1_555
Fe7 O39 2.099079 1_555
O8 P4 1.549461 1_555
O9 P4 1.549461 1_565
O10 P5 1.549461 1_555
O11 P5 1.549461 1_655
O12 P6 1.549461 1_565
O13 P6 1.549461 1_555
O14 P7 1.549461 1_655
O15 P7 1.549461 1_555
O16 P7 1.549915 1_555
O17 P7 1.549915 1_655
O18 P6 1.549915 1_555
O19 P6 1.549915 1_565
O20 P5 1.549915 1_655
O21 P5 1.549915 1_555
O22 P4 1.549915 1_565
O23 P4 1.549915 1_555
O24 P0 1.554789 1_555
O25 P0 1.554789 1_555
O26 P1 1.554789 1_555
O27 P1 1.554789 1_665
O28 P2 1.554789 1_555
O29 P2 1.554789 1_555
O30 P3 1.554789 1_665
O31 P3 1.554789 1_555
O32 P3 1.544688 1_655
O33 P3 1.544688 1_565
O34 P2 1.544688 1_555
O35 P2 1.544688 1_555
O36 P1 1.544688 1_565
O37 P1 1.544688 1_655
O38 P0 1.544688 1_555
O39 P0 1.544688 1_555
F0 Fe0 2.034943 1_555
F0 Fe5 2.034943 1_555
F0 Na7 2.440897 1_545
F0 Na2 2.533438 1_655
F0 Na10 2.862834 1_555
F1 Fe1 2.034943 1_555
F1 Fe4 2.034943 1_555
F1 Na6 2.440897 1_565
F1 Na3 2.533438 1_455
F1 Na11 2.862834 1_555
F2 Fe7 2.034943 1_554
F2 Fe2 2.034943 1_555
F2 Na4 2.440897 1_555
F2 Na0 2.533438 1_555
F2 Na8 2.862834 1_455
F3 Fe6 2.034943 1_554
F3 Fe3 2.034943 1_555
F3 Na5 2.440897 1_555
F3 Na1 2.533438 1_555
F3 Na9 2.862834 1_655
