# generated using pymatgen
data_Cs2Ti(PO4)2
_symmetry_space_group_name_H-M   'P 1'
_cell_length_a   7.36267800
_cell_length_b   9.48403200
_cell_length_c   14.03609600
_cell_angle_alpha   90.00000000
_cell_angle_beta   90.00000000
_cell_angle_gamma   90.00000000
_symmetry_Int_Tables_number   1
_chemical_formula_structural   Cs2Ti(PO4)2
_chemical_formula_sum   'Cs8 Ti4 P8 O32'
_cell_volume   980.11073954
_cell_formula_units_Z   4
loop_
 _symmetry_equiv_pos_site_id
 _symmetry_equiv_pos_as_xyz
  1  'x, y, z'
loop_
 _atom_site_type_symbol
 _atom_site_label
 _atom_site_symmetry_multiplicity
 _atom_site_fract_x
 _atom_site_fract_y
 _atom_site_fract_z
 _atom_site_occupancy
  Cs  Cs0  1  0.77474900  0.61545700  0.07946500  1
  Cs  Cs1  1  0.27474900  0.88454300  0.92053500  1
  Cs  Cs2  1  0.22525100  0.11545700  0.42053500  1
  Cs  Cs3  1  0.72525100  0.38454300  0.57946500  1
  Cs  Cs4  1  0.26502600  0.34269900  0.09503000  1
  Cs  Cs5  1  0.76502600  0.15730100  0.90497000  1
  Cs  Cs6  1  0.73497400  0.84269900  0.40497000  1
  Cs  Cs7  1  0.23497400  0.65730100  0.59503000  1
  Ti  Ti0  1  0.74539200  0.74368600  0.79893400  1
  Ti  Ti1  1  0.24539200  0.75631400  0.20106600  1
  Ti  Ti2  1  0.25460800  0.24368600  0.70106600  1
  Ti  Ti3  1  0.75460800  0.25631400  0.29893400  1
  P  P0  1  0.02550500  0.52773400  0.34288100  1
  P  P1  1  0.52550500  0.97226600  0.65711900  1
  P  P2  1  0.97449500  0.02773400  0.15711900  1
  P  P3  1  0.47449500  0.47226600  0.84288100  1
  P  P4  1  0.92398600  0.99246500  0.66412300  1
  P  P5  1  0.42398600  0.50753500  0.33587700  1
  P  P6  1  0.07601400  0.49246500  0.83587700  1
  P  P7  1  0.57601400  0.00753500  0.16412300  1
  O  O0  1  0.06361400  0.66596200  0.28721800  1
  O  O1  1  0.56361400  0.83403800  0.71278200  1
  O  O2  1  0.93638600  0.16596200  0.21278200  1
  O  O3  1  0.43638600  0.33403800  0.78721800  1
  O  O4  1  0.90068600  0.43280200  0.28135000  1
  O  O5  1  0.40068600  0.06719800  0.71865000  1
  O  O6  1  0.09931400  0.93280200  0.21865000  1
  O  O7  1  0.59931400  0.56719800  0.78135000  1
  O  O8  1  0.30978700  0.30081000  0.59208500  1
  O  O9  1  0.80978700  0.19919000  0.40791500  1
  O  O10  1  0.69021300  0.80081000  0.90791500  1
  O  O11  1  0.19021300  0.69919000  0.09208500  1
  O  O12  1  0.96224800  0.55394600  0.44289700  1
  O  O13  1  0.46224800  0.94605400  0.55710300  1
  O  O14  1  0.03775200  0.05394600  0.05710300  1
  O  O15  1  0.53775200  0.44605400  0.94289700  1
  O  O16  1  0.21797300  0.44102300  0.34437600  1
  O  O17  1  0.71797300  0.05897700  0.65562400  1
  O  O18  1  0.78202700  0.94102300  0.15562400  1
  O  O19  1  0.28202700  0.55897700  0.84437600  1
  O  O20  1  0.53332200  0.37377500  0.31159700  1
  O  O21  1  0.03332200  0.12622500  0.68840300  1
  O  O22  1  0.46667800  0.87377500  0.18840300  1
  O  O23  1  0.96667800  0.62622500  0.81159700  1
  O  O24  1  0.47575200  0.58104200  0.42657600  1
  O  O25  1  0.97575200  0.91895800  0.57342400  1
  O  O26  1  0.52424800  0.08104200  0.07342400  1
  O  O27  1  0.02424800  0.41895800  0.92657600  1
  O  O28  1  0.58334600  0.10371900  0.25350400  1
  O  O29  1  0.08334600  0.39628100  0.74649600  1
  O  O30  1  0.41665400  0.60371900  0.24649600  1
  O  O31  1  0.91665400  0.89628100  0.75350400  1
loop_
_geom_bond_atom_site_label_1
_geom_bond_atom_site_label_2
_geom_bond_distance
_geom_bond_site_symmetry_2
Cs0 O10 3.045576 1_554
Cs0 O15 3.049666 1_554
Cs0 O11 3.165289 1_655
Cs0 O18 3.267925 1_555
Cs0 O27 3.384181 1_654
Cs0 O4 3.448242 1_555
Cs0 O30 3.529906 1_555
Cs0 O0 3.640892 1_655
Cs0 O22 3.672177 1_555
Cs1 O11 3.045576 1_556
Cs1 O14 3.049666 1_566
Cs1 O10 3.165289 1_555
Cs1 O19 3.267925 1_555
Cs1 O26 3.384181 1_566
Cs1 O5 3.448242 1_565
Cs1 O31 3.529906 1_455
Cs1 O1 3.640892 1_555
Cs1 O23 3.672177 1_455
Cs2 O8 3.045576 1_555
Cs2 O13 3.049666 1_545
Cs2 O9 3.165289 1_455
Cs2 O16 3.267925 1_555
Cs2 O25 3.384181 1_445
Cs2 O6 3.448242 1_545
Cs2 O28 3.529906 1_555
Cs2 O2 3.640892 1_455
Cs2 O20 3.672177 1_555
Cs3 O9 3.045576 1_555
Cs3 O12 3.049666 1_555
Cs3 O8 3.165289 1_555
Cs3 O17 3.267925 1_555
Cs3 O24 3.384181 1_555
Cs3 O7 3.448242 1_555
Cs3 O29 3.529906 1_655
Cs3 O3 3.640892 1_555
Cs3 O21 3.672177 1_655
Cs4 O27 3.042426 1_554
Cs4 O15 3.090729 1_554
Cs4 O26 3.145275 1_555
Cs4 O14 3.253167 1_555
Cs4 O2 3.375805 1_455
Cs4 O11 3.425797 1_555
Cs4 O30 3.448822 1_555
Cs4 O20 3.637182 1_555
Cs4 O16 3.638475 1_555
Cs5 O26 3.042426 1_556
Cs5 O14 3.090729 1_656
Cs5 O27 3.145275 1_655
Cs5 O15 3.253167 1_555
Cs5 O3 3.375805 1_555
Cs5 O10 3.425797 1_545
Cs5 O31 3.448822 1_545
Cs5 O21 3.637182 1_655
Cs5 O17 3.638475 1_555
Cs6 O25 3.042426 1_555
Cs6 O13 3.090729 1_555
Cs6 O24 3.145275 1_555
Cs6 O12 3.253167 1_555
Cs6 O0 3.375805 1_655
Cs6 O9 3.425797 1_565
Cs6 O28 3.448822 1_565
Cs6 O22 3.637182 1_555
Cs6 O18 3.638475 1_555
Cs7 O24 3.042426 1_555
Cs7 O12 3.090729 1_455
Cs7 O25 3.145275 1_455
Cs7 O13 3.253167 1_555
Cs7 O1 3.375805 1_555
Cs7 O8 3.425797 1_555
Cs7 O29 3.448822 1_555
Cs7 O23 3.637182 1_455
Cs7 O19 3.638475 1_555
O0 P0 1.551695 1_555
O0 Ti1 1.996942 1_555
O1 P1 1.551695 1_555
O1 Ti0 1.996942 1_555
O2 P2 1.551695 1_555
O2 Ti3 1.996942 1_555
O3 P3 1.551695 1_555
O3 Ti2 1.996942 1_555
O4 P0 1.549540 1_655
O4 Ti3 2.004828 1_555
O5 P1 1.549540 1_545
O5 Ti2 2.004828 1_555
O6 P2 1.549540 1_465
O6 Ti1 2.004828 1_555
O7 P3 1.549540 1_555
O7 Ti0 2.004828 1_555
O8 Ti2 1.672855 1_555
O9 Ti3 1.672855 1_555
O10 Ti0 1.672855 1_555
O11 Ti1 1.672855 1_555
O12 P0 1.499822 1_655
O13 P1 1.499822 1_555
O14 P2 1.499822 1_455
O15 P3 1.499822 1_555
O16 P0 1.638551 1_555
O16 P5 1.647072 1_555
O17 P1 1.638551 1_545
O17 P4 1.647072 1_545
O18 P2 1.638551 1_565
O18 P7 1.647072 1_565
O19 P3 1.638551 1_555
O19 P6 1.647072 1_555
O20 P5 1.540611 1_555
O20 Ti3 1.981685 1_555
O21 P4 1.540611 1_445
O21 Ti2 1.981685 1_555
O22 P7 1.540611 1_565
O22 Ti1 1.981685 1_555
O23 P6 1.540611 1_655
O23 Ti0 1.981685 1_555
O24 P5 1.500651 1_555
O25 P4 1.500651 1_555
O26 P7 1.500651 1_555
O27 P6 1.500651 1_555
O28 P7 1.552085 1_555
O28 Ti3 2.022630 1_555
O29 P6 1.552085 1_555
O29 Ti2 2.022630 1_555
O30 P5 1.552085 1_555
O30 Ti1 2.022630 1_555
O31 P4 1.552085 1_555
O31 Ti0 2.022630 1_555
