# generated using pymatgen
data_Cs3IO5
_symmetry_space_group_name_H-M   'P 1'
_cell_length_a   9.11595000
_cell_length_b   9.52132400
_cell_length_c   9.70440700
_cell_angle_alpha   90.00000000
_cell_angle_beta   90.00000000
_cell_angle_gamma   90.00000000
_symmetry_Int_Tables_number   1
_chemical_formula_structural   Cs3IO5
_chemical_formula_sum   'Cs12 I4 O20'
_cell_volume   842.30287071
_cell_formula_units_Z   4
loop_
 _symmetry_equiv_pos_site_id
 _symmetry_equiv_pos_as_xyz
  1  'x, y, z'
loop_
 _atom_site_type_symbol
 _atom_site_label
 _atom_site_symmetry_multiplicity
 _atom_site_fract_x
 _atom_site_fract_y
 _atom_site_fract_z
 _atom_site_occupancy
  Cs  Cs0  1  0.25000000  0.00000000  0.47928900  1
  Cs  Cs1  1  0.75000000  0.00000000  0.52071100  1
  Cs  Cs2  1  0.25000000  0.50000000  0.02071100  1
  Cs  Cs3  1  0.75000000  0.50000000  0.97928900  1
  Cs  Cs4  1  0.25000000  0.00000000  0.01718500  1
  Cs  Cs5  1  0.75000000  0.00000000  0.98281500  1
  Cs  Cs6  1  0.25000000  0.50000000  0.48281500  1
  Cs  Cs7  1  0.75000000  0.50000000  0.51718500  1
  Cs  Cs8  1  0.53620600  0.25000000  0.25000000  1
  Cs  Cs9  1  0.46379400  0.75000000  0.75000000  1
  Cs  Cs10  1  0.96379400  0.75000000  0.25000000  1
  Cs  Cs11  1  0.03620600  0.25000000  0.75000000  1
  I  I0  1  0.01241100  0.25000000  0.25000000  1
  I  I1  1  0.98758900  0.75000000  0.75000000  1
  I  I2  1  0.48758900  0.75000000  0.25000000  1
  I  I3  1  0.51241100  0.25000000  0.75000000  1
  O  O0  1  0.21441400  0.25000000  0.25000000  1
  O  O1  1  0.78558600  0.75000000  0.75000000  1
  O  O2  1  0.28558600  0.75000000  0.25000000  1
  O  O3  1  0.71441400  0.25000000  0.75000000  1
  O  O4  1  0.53770500  0.55888400  0.23500300  1
  O  O5  1  0.46229500  0.44111600  0.76499700  1
  O  O6  1  0.96229500  0.44111600  0.23500300  1
  O  O7  1  0.96229500  0.05888400  0.26499700  1
  O  O8  1  0.03770500  0.55888400  0.76499700  1
  O  O9  1  0.03770500  0.94111600  0.73500300  1
  O  O10  1  0.53770500  0.94111600  0.26499700  1
  O  O11  1  0.46229500  0.05888400  0.73500300  1
  O  O12  1  0.48175700  0.26563600  0.55854500  1
  O  O13  1  0.51824300  0.73436400  0.44145500  1
  O  O14  1  0.01824300  0.73436400  0.55854500  1
  O  O15  1  0.01824300  0.76563600  0.94145500  1
  O  O16  1  0.98175700  0.26563600  0.44145500  1
  O  O17  1  0.98175700  0.23436400  0.05854500  1
  O  O18  1  0.48175700  0.23436400  0.94145500  1
  O  O19  1  0.51824300  0.76563600  0.05854500  1
loop_
_geom_bond_atom_site_label_1
_geom_bond_atom_site_label_2
_geom_bond_distance
_geom_bond_site_symmetry_2
Cs0 O11 3.196515 1_555
Cs0 O9 3.196515 1_545
Cs0 O0 3.274499 1_555
Cs0 O2 3.274499 1_545
Cs0 O14 3.384064 1_545
Cs0 O12 3.384064 1_555
Cs0 O10 3.393752 1_545
Cs0 O7 3.393752 1_455
Cs0 O13 3.537108 1_545
Cs0 O16 3.537108 1_455
Cs1 O7 3.196515 1_555
Cs1 O10 3.196515 1_545
Cs1 O1 3.274499 1_545
Cs1 O3 3.274499 1_555
Cs1 O13 3.384064 1_545
Cs1 O16 3.384064 1_555
Cs1 O11 3.393752 1_555
Cs1 O9 3.393752 1_645
Cs1 O12 3.537108 1_555
Cs1 O14 3.537108 1_645
Cs2 O8 3.196515 1_554
Cs2 O5 3.196515 1_554
Cs2 O0 3.274499 1_555
Cs2 O2 3.274499 1_555
Cs2 O15 3.384064 1_554
Cs2 O18 3.384064 1_554
Cs2 O6 3.393752 1_455
Cs2 O4 3.393752 1_555
Cs2 O19 3.537108 1_555
Cs2 O17 3.537108 1_455
Cs3 O6 3.196515 1_556
Cs3 O4 3.196515 1_556
Cs3 O3 3.274499 1_555
Cs3 O1 3.274499 1_555
Cs3 O17 3.384064 1_556
Cs3 O19 3.384064 1_556
Cs3 O5 3.393752 1_555
Cs3 O8 3.393752 1_655
Cs3 O18 3.537108 1_555
Cs3 O15 3.537108 1_655
Cs4 O15 3.159578 1_544
Cs4 O18 3.159578 1_554
Cs4 O0 3.297846 1_555
Cs4 O2 3.297846 1_545
Cs4 O17 3.334657 1_455
Cs4 O19 3.334657 1_545
Cs4 O9 3.399778 1_544
Cs4 O11 3.399778 1_554
Cs4 O7 3.602264 1_455
Cs4 O10 3.602264 1_545
Cs5 O17 3.159578 1_556
Cs5 O19 3.159578 1_546
Cs5 O1 3.297846 1_545
Cs5 O3 3.297846 1_555
Cs5 O18 3.334657 1_555
Cs5 O15 3.334657 1_645
Cs5 O10 3.399778 1_546
Cs5 O7 3.399778 1_556
Cs5 O11 3.602264 1_555
Cs5 O9 3.602264 1_645
Cs6 O14 3.159578 1_555
Cs6 O12 3.159578 1_555
Cs6 O0 3.297846 1_555
Cs6 O2 3.297846 1_555
Cs6 O16 3.334657 1_455
Cs6 O13 3.334657 1_555
Cs6 O8 3.399778 1_555
Cs6 O5 3.399778 1_555
Cs6 O4 3.602264 1_555
Cs6 O6 3.602264 1_455
Cs7 O13 3.159578 1_555
Cs7 O16 3.159578 1_555
Cs7 O1 3.297846 1_555
Cs7 O3 3.297846 1_555
Cs7 O14 3.334657 1_655
Cs7 O12 3.334657 1_555
Cs7 O4 3.399778 1_555
Cs7 O6 3.399778 1_555
Cs7 O5 3.602264 1_555
Cs7 O8 3.602264 1_655
Cs8 O0 2.933440 1_555
Cs8 O4 2.944615 1_555
Cs8 O10 2.944615 1_545
Cs8 O12 3.038757 1_555
Cs8 O18 3.038757 1_554
Cs9 O1 2.933440 1_555
Cs9 O11 2.944615 1_565
Cs9 O5 2.944615 1_555
Cs9 O13 3.038757 1_555
Cs9 O19 3.038757 1_556
Cs10 O2 2.933440 1_655
Cs10 O7 2.944615 1_565
Cs10 O6 2.944615 1_555
Cs10 O14 3.038757 1_655
Cs10 O15 3.038757 1_654
Cs11 O3 2.933440 1_455
Cs11 O9 2.944615 1_545
Cs11 O8 2.944615 1_555
Cs11 O16 3.038757 1_455
Cs11 O17 3.038757 1_456
I0 O0 1.841449 1_555
I0 O7 1.881787 1_455
I0 O6 1.881787 1_455
I0 O16 1.884743 1_455
I0 O17 1.884743 1_455
I1 O1 1.841449 1_555
I1 O9 1.881787 1_655
I1 O8 1.881787 1_655
I1 O15 1.884743 1_655
I1 O14 1.884743 1_655
I2 O2 1.841449 1_555
I2 O4 1.881787 1_555
I2 O10 1.881787 1_555
I2 O13 1.884743 1_555
I2 O19 1.884743 1_555
I3 O3 1.841449 1_555
I3 O5 1.881787 1_555
I3 O11 1.881787 1_555
I3 O18 1.884743 1_555
I3 O12 1.884743 1_555
