# generated using pymatgen
data_LiLaMg30O32
_symmetry_space_group_name_H-M   'P 1'
_cell_length_a   8.61096200
_cell_length_b   8.61096200
_cell_length_c   8.60980700
_cell_angle_alpha   90.00000000
_cell_angle_beta   90.00000000
_cell_angle_gamma   90.00000000
_symmetry_Int_Tables_number   1
_chemical_formula_structural   LiLaMg30O32
_chemical_formula_sum   'Li1 La1 Mg30 O32'
_cell_volume   638.40570844
_cell_formula_units_Z   1
loop_
 _symmetry_equiv_pos_site_id
 _symmetry_equiv_pos_as_xyz
  1  'x, y, z'
loop_
 _atom_site_type_symbol
 _atom_site_label
 _atom_site_symmetry_multiplicity
 _atom_site_fract_x
 _atom_site_fract_y
 _atom_site_fract_z
 _atom_site_occupancy
  Li  Li0  1  0.00000000  0.00000000  0.00000000  1
  La  La0  1  0.50000000  0.50000000  0.00000000  1
  Mg  Mg0  1  0.50000000  0.00000000  0.00000000  1
  Mg  Mg1  1  0.00000000  0.50000000  0.00000000  1
  Mg  Mg2  1  0.00000000  0.00000000  0.50000000  1
  Mg  Mg3  1  0.50000000  0.00000000  0.50000000  1
  Mg  Mg4  1  0.00000000  0.50000000  0.50000000  1
  Mg  Mg5  1  0.50000000  0.50000000  0.50000000  1
  Mg  Mg6  1  0.23791300  0.23791300  0.00000000  1
  Mg  Mg7  1  0.76208700  0.23791300  0.00000000  1
  Mg  Mg8  1  0.23791300  0.76208700  0.00000000  1
  Mg  Mg9  1  0.76208700  0.76208700  0.00000000  1
  Mg  Mg10  1  0.24798700  0.24798700  0.50000000  1
  Mg  Mg11  1  0.75201300  0.24798700  0.50000000  1
  Mg  Mg12  1  0.24798700  0.75201300  0.50000000  1
  Mg  Mg13  1  0.75201300  0.75201300  0.50000000  1
  Mg  Mg14  1  0.24544700  0.00000000  0.24759700  1
  Mg  Mg15  1  0.75455300  0.00000000  0.24759700  1
  Mg  Mg16  1  0.24040700  0.50000000  0.25787500  1
  Mg  Mg17  1  0.75959300  0.50000000  0.25787500  1
  Mg  Mg18  1  0.24544700  0.00000000  0.75240300  1
  Mg  Mg19  1  0.75455300  0.00000000  0.75240300  1
  Mg  Mg20  1  0.24040700  0.50000000  0.74212500  1
  Mg  Mg21  1  0.75959300  0.50000000  0.74212500  1
  Mg  Mg22  1  0.00000000  0.24544700  0.24759700  1
  Mg  Mg23  1  0.50000000  0.24040700  0.25787500  1
  Mg  Mg24  1  0.00000000  0.75455300  0.24759700  1
  Mg  Mg25  1  0.50000000  0.75959300  0.25787500  1
  Mg  Mg26  1  0.00000000  0.24544700  0.75240300  1
  Mg  Mg27  1  0.50000000  0.24040700  0.74212500  1
  Mg  Mg28  1  0.00000000  0.75455300  0.75240300  1
  Mg  Mg29  1  0.50000000  0.75959300  0.74212500  1
  O  O0  1  0.00000000  0.00000000  0.25749500  1
  O  O1  1  0.50000000  0.00000000  0.25431000  1
  O  O2  1  0.00000000  0.50000000  0.25431000  1
  O  O3  1  0.50000000  0.50000000  0.26849500  1
  O  O4  1  0.00000000  0.00000000  0.74250500  1
  O  O5  1  0.50000000  0.00000000  0.74569000  1
  O  O6  1  0.00000000  0.50000000  0.74569000  1
  O  O7  1  0.50000000  0.50000000  0.73150500  1
  O  O8  1  0.25113400  0.25113400  0.24913000  1
  O  O9  1  0.74886600  0.25113400  0.24913000  1
  O  O10  1  0.25113400  0.74886600  0.24913000  1
  O  O11  1  0.74886600  0.74886600  0.24913000  1
  O  O12  1  0.25113400  0.25113400  0.75087000  1
  O  O13  1  0.74886600  0.25113400  0.75087000  1
  O  O14  1  0.25113400  0.74886600  0.75087000  1
  O  O15  1  0.74886600  0.74886600  0.75087000  1
  O  O16  1  0.25378400  0.00000000  0.00000000  1
  O  O17  1  0.74621600  0.00000000  0.00000000  1
  O  O18  1  0.23264600  0.50000000  0.00000000  1
  O  O19  1  0.76735400  0.50000000  0.00000000  1
  O  O20  1  0.25090500  0.00000000  0.50000000  1
  O  O21  1  0.74909500  0.00000000  0.50000000  1
  O  O22  1  0.24751400  0.50000000  0.50000000  1
  O  O23  1  0.75248600  0.50000000  0.50000000  1
  O  O24  1  0.00000000  0.25378400  0.00000000  1
  O  O25  1  0.50000000  0.23264600  0.00000000  1
  O  O26  1  0.00000000  0.74621600  0.00000000  1
  O  O27  1  0.50000000  0.76735400  0.00000000  1
  O  O28  1  0.00000000  0.25090500  0.50000000  1
  O  O29  1  0.50000000  0.24751400  0.50000000  1
  O  O30  1  0.00000000  0.74909500  0.50000000  1
  O  O31  1  0.50000000  0.75248600  0.50000000  1
loop_
_geom_bond_atom_site_label_1
_geom_bond_atom_site_label_2
_geom_bond_distance
_geom_bond_site_symmetry_2
Li0 O26 2.185324 1_545
Li0 O24 2.185324 1_555
Li0 O16 2.185324 1_555
Li0 O17 2.185324 1_455
Li0 O0 2.216982 1_555
Li0 O4 2.216982 1_554
La0 O27 2.302175 1_555
La0 O25 2.302175 1_555
La0 O18 2.302175 1_555
La0 O19 2.302175 1_555
La0 O3 2.311690 1_555
La0 O7 2.311690 1_554
Mg0 O25 2.003306 1_555
Mg0 O27 2.003306 1_545
Mg0 O17 2.120157 1_555
Mg0 O16 2.120157 1_555
Mg0 O1 2.189560 1_555
Mg0 O5 2.189560 1_554
Mg1 O18 2.003306 1_555
Mg1 O19 2.003306 1_455
Mg1 O24 2.120157 1_555
Mg1 O26 2.120157 1_555
Mg1 O2 2.189560 1_555
Mg1 O6 2.189560 1_554
Mg2 O4 2.087921 1_555
Mg2 O0 2.087921 1_555
Mg2 O20 2.160533 1_555
Mg2 O28 2.160533 1_555
Mg2 O30 2.160533 1_545
Mg2 O21 2.160533 1_455
Mg3 O5 2.115343 1_555
Mg3 O1 2.115343 1_555
Mg3 O31 2.131334 1_545
Mg3 O29 2.131334 1_555
Mg3 O21 2.144948 1_555
Mg3 O20 2.144948 1_555
Mg4 O6 2.115343 1_555
Mg4 O2 2.115343 1_555
Mg4 O23 2.131334 1_455
Mg4 O22 2.131334 1_555
Mg4 O30 2.144948 1_555
Mg4 O28 2.144948 1_555
Mg5 O7 1.993213 1_555
Mg5 O3 1.993213 1_555
Mg5 O29 2.174147 1_555
Mg5 O31 2.174147 1_555
Mg5 O23 2.174147 1_555
Mg5 O22 2.174147 1_555
Mg6 O24 2.053213 1_555
Mg6 O16 2.053213 1_555
Mg6 O8 2.150995 1_555
Mg6 O12 2.150995 1_554
Mg6 O18 2.257277 1_555
Mg6 O25 2.257277 1_555
Mg7 O17 2.053213 1_555
Mg7 O24 2.053213 1_655
Mg7 O9 2.150995 1_555
Mg7 O13 2.150995 1_554
Mg7 O19 2.257277 1_555
Mg7 O25 2.257277 1_555
Mg8 O26 2.053213 1_555
Mg8 O16 2.053213 1_565
Mg8 O10 2.150995 1_555
Mg8 O14 2.150995 1_554
Mg8 O18 2.257277 1_555
Mg8 O27 2.257277 1_555
Mg9 O17 2.053213 1_565
Mg9 O26 2.053213 1_655
Mg9 O15 2.150995 1_554
Mg9 O11 2.150995 1_555
Mg9 O19 2.257277 1_555
Mg9 O27 2.257277 1_555
Mg10 O20 2.135554 1_555
Mg10 O28 2.135554 1_555
Mg10 O12 2.160282 1_555
Mg10 O8 2.160282 1_555
Mg10 O22 2.170078 1_555
Mg10 O29 2.170078 1_555
Mg11 O28 2.135554 1_655
Mg11 O21 2.135554 1_555
Mg11 O13 2.160282 1_555
Mg11 O9 2.160282 1_555
Mg11 O23 2.170078 1_555
Mg11 O29 2.170078 1_555
Mg12 O20 2.135554 1_565
Mg12 O30 2.135554 1_555
Mg12 O10 2.160282 1_555
Mg12 O14 2.160282 1_555
Mg12 O31 2.170078 1_555
Mg12 O22 2.170078 1_555
Mg13 O21 2.135554 1_565
Mg13 O30 2.135554 1_655
Mg13 O11 2.160282 1_555
Mg13 O15 2.160282 1_555
Mg13 O23 2.170078 1_555
Mg13 O31 2.170078 1_555
Mg14 O0 2.115252 1_555
Mg14 O16 2.132971 1_555
Mg14 O10 2.163100 1_545
Mg14 O8 2.163100 1_555
Mg14 O20 2.173649 1_555
Mg14 O1 2.192708 1_555
Mg15 O0 2.115252 1_655
Mg15 O17 2.132971 1_555
Mg15 O11 2.163100 1_545
Mg15 O9 2.163100 1_555
Mg15 O21 2.173649 1_555
Mg15 O1 2.192708 1_555
Mg16 O2 2.070363 1_555
Mg16 O22 2.085548 1_555
Mg16 O8 2.146287 1_555
Mg16 O10 2.146287 1_555
Mg16 O18 2.221260 1_555
Mg16 O3 2.237215 1_555
Mg17 O2 2.070363 1_655
Mg17 O23 2.085548 1_555
Mg17 O9 2.146287 1_555
Mg17 O11 2.146287 1_555
Mg17 O19 2.221260 1_555
Mg17 O3 2.237215 1_555
Mg18 O4 2.115252 1_555
Mg18 O16 2.132971 1_556
Mg18 O14 2.163100 1_545
Mg18 O12 2.163100 1_555
Mg18 O20 2.173649 1_555
Mg18 O5 2.192708 1_555
Mg19 O4 2.115252 1_655
Mg19 O17 2.132971 1_556
Mg19 O15 2.163100 1_545
Mg19 O13 2.163100 1_555
Mg19 O21 2.173649 1_555
Mg19 O5 2.192708 1_555
Mg20 O6 2.070363 1_555
Mg20 O22 2.085548 1_555
Mg20 O12 2.146287 1_555
Mg20 O14 2.146287 1_555
Mg20 O18 2.221260 1_556
Mg20 O7 2.237215 1_555
Mg21 O6 2.070363 1_655
Mg21 O23 2.085548 1_555
Mg21 O13 2.146287 1_555
Mg21 O15 2.146287 1_555
Mg21 O19 2.221260 1_556
Mg21 O7 2.237215 1_555
Mg22 O0 2.115252 1_555
Mg22 O24 2.132971 1_555
Mg22 O9 2.163100 1_455
Mg22 O8 2.163100 1_555
Mg22 O28 2.173649 1_555
Mg22 O2 2.192708 1_555
Mg23 O1 2.070363 1_555
Mg23 O29 2.085548 1_555
Mg23 O8 2.146287 1_555
Mg23 O9 2.146287 1_555
Mg23 O25 2.221260 1_555
Mg23 O3 2.237215 1_555
Mg24 O0 2.115252 1_565
Mg24 O26 2.132971 1_555
Mg24 O11 2.163100 1_455
Mg24 O10 2.163100 1_555
Mg24 O30 2.173649 1_555
Mg24 O2 2.192708 1_555
Mg25 O1 2.070363 1_565
Mg25 O31 2.085548 1_555
Mg25 O10 2.146287 1_555
Mg25 O11 2.146287 1_555
Mg25 O27 2.221260 1_555
Mg25 O3 2.237215 1_555
Mg26 O4 2.115252 1_555
Mg26 O24 2.132971 1_556
Mg26 O13 2.163100 1_455
Mg26 O12 2.163100 1_555
Mg26 O28 2.173649 1_555
Mg26 O6 2.192708 1_555
Mg27 O5 2.070363 1_555
Mg27 O29 2.085548 1_555
Mg27 O12 2.146287 1_555
Mg27 O13 2.146287 1_555
Mg27 O25 2.221260 1_556
Mg27 O7 2.237215 1_555
Mg28 O4 2.115252 1_565
Mg28 O26 2.132971 1_556
Mg28 O15 2.163100 1_455
Mg28 O14 2.163100 1_555
Mg28 O30 2.173649 1_555
Mg28 O6 2.192708 1_555
Mg29 O5 2.070363 1_565
Mg29 O31 2.085548 1_555
Mg29 O14 2.146287 1_555
Mg29 O15 2.146287 1_555
Mg29 O27 2.221260 1_556
Mg29 O7 2.237215 1_555
