# generated using pymatgen
data_CaCo2(CuO4)2
_symmetry_space_group_name_H-M   'P 1'
_cell_length_a   8.73329500
_cell_length_b   6.62276300
_cell_length_c   11.96545862
_cell_angle_alpha   86.53170426
_cell_angle_beta   90.00000000
_cell_angle_gamma   90.00000000
_symmetry_Int_Tables_number   1
_chemical_formula_structural   CaCo2(CuO4)2
_chemical_formula_sum   'Ca4 Co8 Cu8 O32'
_cell_volume   690.79712531
_cell_formula_units_Z   4
loop_
 _symmetry_equiv_pos_site_id
 _symmetry_equiv_pos_as_xyz
  1  'x, y, z'
loop_
 _atom_site_type_symbol
 _atom_site_label
 _atom_site_symmetry_multiplicity
 _atom_site_fract_x
 _atom_site_fract_y
 _atom_site_fract_z
 _atom_site_occupancy
  Ca  Ca0  1  0.16707100  0.13629400  0.03643700  1
  Ca  Ca1  1  0.83292900  0.86370600  0.96356300  1
  Ca  Ca2  1  0.66707100  0.86370600  0.46356300  1
  Ca  Ca3  1  0.33292900  0.13629400  0.53643700  1
  Co  Co0  1  0.46618000  0.09551900  0.84180100  1
  Co  Co1  1  0.03382000  0.09551900  0.34180100  1
  Co  Co2  1  0.09788100  0.60272400  0.13317900  1
  Co  Co3  1  0.96618000  0.90448100  0.65819900  1
  Co  Co4  1  0.90211900  0.39727600  0.86682100  1
  Co  Co5  1  0.59788100  0.39727600  0.36682100  1
  Co  Co6  1  0.40211900  0.60272400  0.63317900  1
  Co  Co7  1  0.53382000  0.90448100  0.15819900  1
  Cu  Cu0  1  0.19342000  0.74122300  0.87417000  1
  Cu  Cu1  1  0.04428600  0.39260900  0.63675600  1
  Cu  Cu2  1  0.95571400  0.60739100  0.36324400  1
  Cu  Cu3  1  0.80658000  0.25877700  0.12583000  1
  Cu  Cu4  1  0.30658000  0.74122300  0.37417000  1
  Cu  Cu5  1  0.45571400  0.39260900  0.13675600  1
  Cu  Cu6  1  0.69342000  0.25877700  0.62583000  1
  Cu  Cu7  1  0.54428600  0.60739100  0.86324400  1
  O  O0  1  0.22261100  0.00796000  0.37812800  1
  O  O1  1  0.99600200  0.66761900  0.60219700  1
  O  O2  1  0.59366000  0.20163100  0.48208700  1
  O  O3  1  0.09366000  0.79836900  0.01791300  1
  O  O4  1  0.27738900  0.00796000  0.87812800  1
  O  O5  1  0.77738900  0.99204000  0.62187200  1
  O  O6  1  0.08389100  0.11442500  0.61740900  1
  O  O7  1  0.90363200  0.51885700  0.13384000  1
  O  O8  1  0.59636800  0.51885700  0.63384000  1
  O  O9  1  0.86223800  0.33330700  0.72064900  1
  O  O10  1  0.36223800  0.66669300  0.77935100  1
  O  O11  1  0.09636800  0.48114300  0.86616000  1
  O  O12  1  0.91610900  0.88557500  0.38259100  1
  O  O13  1  0.50432800  0.86422700  0.29713000  1
  O  O14  1  0.25106400  0.43878300  0.59802000  1
  O  O15  1  0.24893600  0.43878300  0.09802000  1
  O  O16  1  0.00432800  0.13577300  0.20287000  1
  O  O17  1  0.40363200  0.48114300  0.36616000  1
  O  O18  1  0.49567200  0.13577300  0.70287000  1
  O  O19  1  0.40634000  0.79836900  0.51791300  1
  O  O20  1  0.50399800  0.66761900  0.10219700  1
  O  O21  1  0.13776200  0.66669300  0.27935100  1
  O  O22  1  0.72261100  0.99204000  0.12187200  1
  O  O23  1  0.41610900  0.11442500  0.11740900  1
  O  O24  1  0.90634000  0.20163100  0.98208700  1
  O  O25  1  0.75106400  0.56121700  0.90198000  1
  O  O26  1  0.00399800  0.33238100  0.39780300  1
  O  O27  1  0.49600200  0.33238100  0.89780300  1
  O  O28  1  0.58389100  0.88557500  0.88259100  1
  O  O29  1  0.74893600  0.56121700  0.40198000  1
  O  O30  1  0.63776200  0.33330700  0.22064900  1
  O  O31  1  0.99567200  0.86422700  0.79713000  1
loop_
_geom_bond_atom_site_label_1
_geom_bond_atom_site_label_2
_geom_bond_distance
_geom_bond_site_symmetry_2
Ca0 O15 2.290415 1_555
Ca0 O4 2.330993 1_554
Ca0 O3 2.351343 1_545
Ca0 O23 2.381804 1_555
Ca0 O24 2.400214 1_454
Ca0 O16 2.446444 1_555
Ca1 O25 2.290415 1_555
Ca1 O22 2.330993 1_556
Ca1 O24 2.351343 1_565
Ca1 O28 2.381804 1_555
Ca1 O3 2.400214 1_656
Ca1 O31 2.446444 1_555
Ca2 O29 2.290415 1_555
Ca2 O5 2.330993 1_555
Ca2 O2 2.351343 1_565
Ca2 O12 2.381804 1_555
Ca2 O19 2.400214 1_555
Ca2 O13 2.446444 1_555
Ca3 O14 2.290415 1_555
Ca3 O0 2.330993 1_555
Ca3 O19 2.351343 1_545
Ca3 O6 2.381804 1_555
Ca3 O2 2.400214 1_555
Ca3 O18 2.446444 1_555
Co0 O18 1.687387 1_555
Co0 O27 1.762042 1_555
Co0 O28 1.773736 1_545
Co0 O4 1.792523 1_555
Co1 O16 1.687387 1_555
Co1 O26 1.762042 1_555
Co1 O12 1.773736 1_445
Co1 O0 1.792523 1_555
Co2 O15 1.775217 1_555
Co2 O7 1.784915 1_455
Co2 O3 1.834728 1_555
Co2 O21 1.857281 1_555
Co3 O31 1.687387 1_555
Co3 O1 1.762042 1_555
Co3 O6 1.773736 1_665
Co3 O5 1.792523 1_555
Co4 O25 1.775217 1_555
Co4 O11 1.784915 1_655
Co4 O24 1.834728 1_555
Co4 O9 1.857281 1_555
Co5 O29 1.775217 1_555
Co5 O17 1.784915 1_555
Co5 O2 1.834728 1_555
Co5 O30 1.857281 1_555
Co6 O14 1.775217 1_555
Co6 O8 1.784915 1_555
Co6 O19 1.834728 1_555
Co6 O10 1.857281 1_555
Co7 O13 1.687387 1_555
Co7 O20 1.762042 1_555
Co7 O23 1.773736 1_565
Co7 O22 1.792523 1_555
Cu0 O4 1.915928 1_565
Cu0 O11 1.927274 1_555
Cu0 O10 1.942234 1_555
Cu0 O3 1.984760 1_556
Cu0 O31 2.098811 1_455
Cu1 O14 1.884754 1_555
Cu1 O1 1.890743 1_455
Cu1 O6 1.902385 1_555
Cu1 O9 1.908380 1_455
Cu2 O29 1.884754 1_555
Cu2 O26 1.890743 1_655
Cu2 O12 1.902385 1_555
Cu2 O21 1.908380 1_655
Cu3 O22 1.915928 1_545
Cu3 O7 1.927274 1_555
Cu3 O30 1.942234 1_555
Cu3 O24 1.984760 1_554
Cu3 O16 2.098811 1_655
Cu4 O0 1.915928 1_565
Cu4 O17 1.927274 1_555
Cu4 O21 1.942234 1_555
Cu4 O19 1.984760 1_555
Cu4 O13 2.098811 1_555
Cu5 O15 1.884754 1_555
Cu5 O20 1.890743 1_555
Cu5 O23 1.902385 1_555
Cu5 O30 1.908380 1_555
Cu6 O5 1.915928 1_545
Cu6 O8 1.927274 1_555
Cu6 O9 1.942234 1_555
Cu6 O2 1.984760 1_555
Cu6 O18 2.098811 1_555
Cu7 O25 1.884754 1_555
Cu7 O27 1.890743 1_555
Cu7 O28 1.902385 1_555
Cu7 O10 1.908380 1_555
