# generated using pymatgen
data_CaHf8(N2O)4
_symmetry_space_group_name_H-M   'P 1'
_cell_length_a   5.56415334
_cell_length_b   5.54162876
_cell_length_c   10.69124088
_cell_angle_alpha   90.83741575
_cell_angle_beta   76.44230512
_cell_angle_gamma   58.94671581
_symmetry_Int_Tables_number   1
_chemical_formula_structural   CaHf8(N2O)4
_chemical_formula_sum   'Ca1 Hf8 N8 O4'
_cell_volume   270.88468469
_cell_formula_units_Z   1
loop_
 _symmetry_equiv_pos_site_id
 _symmetry_equiv_pos_as_xyz
  1  'x, y, z'
loop_
 _atom_site_type_symbol
 _atom_site_label
 _atom_site_symmetry_multiplicity
 _atom_site_fract_x
 _atom_site_fract_y
 _atom_site_fract_z
 _atom_site_occupancy
  Ca  Ca0  1  0.01719100  0.50131100  0.49968000  1
  Hf  Hf0  1  0.16316100  0.40521200  0.23927100  1
  Hf  Hf1  1  0.12392900  0.91793700  0.77843200  1
  Hf  Hf2  1  0.35933300  0.34980000  0.95772000  1
  Hf  Hf3  1  0.64551700  0.20050800  0.54001200  1
  Hf  Hf4  1  0.36839900  0.82601200  0.46134500  1
  Hf  Hf5  1  0.81911200  0.08476300  0.22643600  1
  Hf  Hf6  1  0.63152600  0.68048200  0.04291400  1
  Hf  Hf7  1  0.82066700  0.58797800  0.76009600  1
  N  N0  1  0.46084000  0.11054400  0.37091300  1
  N  N1  1  0.55394800  0.36429000  0.11912700  1
  N  N2  1  0.25952500  0.56713100  0.63511100  1
  N  N3  1  0.75808900  0.41659800  0.38046300  1
  N  N4  1  0.43915700  0.64344100  0.88055000  1
  N  N5  1  0.94788900  0.68032000  0.11840600  1
  N  N6  1  0.96437400  0.17875600  0.62515600  1
  N  N7  1  0.74706400  0.93908200  0.88051000  1
  O  O0  1  0.23517500  0.05135600  0.13018500  1
  O  O1  1  0.08384500  0.79876300  0.37034100  1
  O  O2  1  0.04687400  0.31573500  0.88296500  1
  O  O3  1  0.57577000  0.87512600  0.61938700  1
loop_
_geom_bond_atom_site_label_1
_geom_bond_atom_site_label_2
_geom_bond_distance
_geom_bond_site_symmetry_2
Ca0 O3 2.271875 1_455
Ca0 O1 2.285534 1_555
Ca0 N2 2.335592 1_555
Ca0 N3 2.337872 1_455
Ca0 N0 2.341557 1_555
Ca0 N6 2.346967 1_455
Hf0 O0 2.066261 1_555
Hf0 N5 2.080404 1_455
Hf0 N1 2.145374 1_555
Hf0 O1 2.354260 1_555
Hf0 N3 2.370223 1_455
Hf0 N0 2.400112 1_555
Hf1 N7 2.066811 1_455
Hf1 N2 2.134038 1_555
Hf1 N4 2.185428 1_555
Hf1 N6 2.233859 1_465
Hf1 O2 2.240685 1_565
Hf1 O3 2.576222 1_555
Hf2 N4 2.034449 1_555
Hf2 N7 2.135515 1_545
Hf2 O2 2.163948 1_555
Hf2 N1 2.262444 1_556
Hf2 N5 2.298972 1_456
Hf2 O0 2.698705 1_556
Hf3 N2 2.046539 1_555
Hf3 N6 2.128524 1_555
Hf3 O3 2.175856 1_545
Hf3 N3 2.251352 1_555
Hf3 N0 2.438450 1_555
Hf3 O1 2.530082 1_645
Hf4 N0 2.081740 1_565
Hf4 O1 2.107339 1_555
Hf4 N3 2.141285 1_555
Hf4 N6 2.337201 1_465
Hf4 O3 2.342012 1_555
Hf4 N2 2.514619 1_555
Hf5 N1 2.092914 1_555
Hf5 N0 2.153213 1_555
Hf5 N5 2.179497 1_545
Hf5 O0 2.210872 1_655
Hf5 N3 2.283373 1_555
Hf5 O1 2.402923 1_645
Hf6 O0 2.064292 1_565
Hf6 N5 2.101082 1_555
Hf6 N1 2.139545 1_555
Hf6 N4 2.299668 1_554
Hf6 O2 2.361714 1_654
Hf6 N7 2.445720 1_554
Hf7 N4 2.071887 1_555
Hf7 O2 2.111867 1_655
Hf7 N7 2.113831 1_555
Hf7 N6 2.314342 1_555
Hf7 O3 2.333683 1_555
Hf7 N2 2.436446 1_655
