# generated using pymatgen
data_Ba2CuP2O9
_symmetry_space_group_name_H-M   'P 1'
_cell_length_a   8.48819908
_cell_length_b   8.48819908
_cell_length_c   12.68471861
_cell_angle_alpha   59.06893634
_cell_angle_beta   59.06893634
_cell_angle_gamma   34.95176647
_symmetry_Int_Tables_number   1
_chemical_formula_structural   Ba2CuP2O9
_chemical_formula_sum   'Ba4 Cu2 P4 O18'
_cell_volume   441.05248162
_cell_formula_units_Z   2
loop_
 _symmetry_equiv_pos_site_id
 _symmetry_equiv_pos_as_xyz
  1  'x, y, z'
loop_
 _atom_site_type_symbol
 _atom_site_label
 _atom_site_symmetry_multiplicity
 _atom_site_fract_x
 _atom_site_fract_y
 _atom_site_fract_z
 _atom_site_occupancy
  Ba  Ba0  1  0.83957000  0.36668900  0.31232500  1
  Ba  Ba1  1  0.63331100  0.16043000  0.18767500  1
  Ba  Ba2  1  0.16043000  0.63331100  0.68767500  1
  Ba  Ba3  1  0.36668900  0.83957000  0.81232500  1
  Cu  Cu0  1  0.00000000  0.50000000  0.50000000  1
  Cu  Cu1  1  0.50000000  0.00000000  0.00000000  1
  P  P0  1  0.61547100  0.08615300  0.52923600  1
  P  P1  1  0.91384700  0.38452900  0.97076400  1
  P  P2  1  0.38452900  0.91384700  0.47076400  1
  P  P3  1  0.08615300  0.61547100  0.02923600  1
  O  O0  1  0.78127900  0.77432800  0.59331300  1
  O  O1  1  0.22567200  0.21872100  0.90668700  1
  O  O2  1  0.21872100  0.22567200  0.40668700  1
  O  O3  1  0.77432800  0.78127900  0.09331300  1
  O  O4  1  0.29558700  0.27566500  0.58021300  1
  O  O5  1  0.72433500  0.70441300  0.91978700  1
  O  O6  1  0.70441300  0.72433500  0.41978700  1
  O  O7  1  0.27566500  0.29558700  0.08021300  1
  O  O8  1  0.67981300  0.15797000  0.57958600  1
  O  O9  1  0.84203000  0.32018700  0.92041400  1
  O  O10  1  0.32018700  0.84203000  0.42041400  1
  O  O11  1  0.15797000  0.67981300  0.07958600  1
  O  O12  1  0.69750900  0.12225400  0.38651500  1
  O  O13  1  0.87774600  0.30249100  0.11348500  1
  O  O14  1  0.30249100  0.87774600  0.61348500  1
  O  O15  1  0.12225400  0.69750900  0.88651500  1
  O  O16  1  0.67712200  0.32287800  0.75000000  1
  O  O17  1  0.32287800  0.67712200  0.25000000  1
loop_
_geom_bond_atom_site_label_1
_geom_bond_atom_site_label_2
_geom_bond_distance
_geom_bond_site_symmetry_2
Ba0 O13 2.654589 1_555
Ba0 O12 2.751722 1_555
Ba0 O10 2.812353 1_555
Ba0 O10 2.836627 1_645
Ba0 O3 2.957247 1_555
Ba0 O17 3.046623 1_555
Ba0 O6 3.054082 1_555
Ba0 O2 3.065178 1_655
Ba0 O8 3.083587 1_555
Ba0 O7 3.113807 1_655
Ba1 O12 2.654589 1_555
Ba1 O13 2.751722 1_555
Ba1 O11 2.812353 1_555
Ba1 O11 2.836627 1_645
Ba1 O2 2.957247 1_555
Ba1 O17 3.046623 1_555
Ba1 O7 3.054082 1_555
Ba1 O3 3.065178 1_545
Ba1 O9 3.083587 1_554
Ba1 O6 3.113807 1_545
Ba2 O15 2.654589 1_555
Ba2 O14 2.751722 1_555
Ba2 O8 2.812353 1_555
Ba2 O8 2.836627 1_465
Ba2 O1 2.957247 1_555
Ba2 O16 3.046623 1_555
Ba2 O4 3.054082 1_555
Ba2 O0 3.065178 1_455
Ba2 O10 3.083587 1_555
Ba2 O5 3.113807 1_455
Ba3 O14 2.654589 1_555
Ba3 O15 2.751722 1_555
Ba3 O9 2.812353 1_555
Ba3 O9 2.836627 1_465
Ba3 O0 2.957247 1_555
Ba3 O16 3.046623 1_555
Ba3 O5 3.054082 1_555
Ba3 O1 3.065178 1_565
Ba3 O11 3.083587 1_556
Ba3 O4 3.113807 1_565
Cu0 O4 1.938324 1_555
Cu0 O6 1.938324 1_455
Cu0 O0 1.938456 1_455
Cu0 O2 1.938456 1_555
Cu1 O7 1.938324 1_555
Cu1 O5 1.938324 1_544
Cu1 O3 1.938456 1_545
Cu1 O1 1.938456 1_554
O0 P0 1.582711 1_565
O1 P1 1.582711 1_455
O2 P2 1.582711 1_545
O3 P3 1.582711 1_655
O4 P0 1.575664 1_555
O5 P1 1.575664 1_555
O6 P2 1.575664 1_555
O7 P3 1.575664 1_555
O8 P0 1.543495 1_555
O9 P1 1.543495 1_555
O10 P2 1.543495 1_555
O11 P3 1.543495 1_555
O12 P0 1.529638 1_555
O13 P1 1.529638 1_554
O14 P2 1.529638 1_555
O15 P3 1.529638 1_556
