# generated using pymatgen
data_ZnCo5O7
_symmetry_space_group_name_H-M   'P 1'
_cell_length_a   5.07509376
_cell_length_b   5.07509376
_cell_length_c   17.30292800
_cell_angle_alpha   90.00000000
_cell_angle_beta   90.00000000
_cell_angle_gamma   146.69182137
_symmetry_Int_Tables_number   1
_chemical_formula_structural   ZnCo5O7
_chemical_formula_sum   'Zn2 Co10 O14'
_cell_volume   244.73297894
_cell_formula_units_Z   2
loop_
 _symmetry_equiv_pos_site_id
 _symmetry_equiv_pos_as_xyz
  1  'x, y, z'
loop_
 _atom_site_type_symbol
 _atom_site_label
 _atom_site_symmetry_multiplicity
 _atom_site_fract_x
 _atom_site_fract_y
 _atom_site_fract_z
 _atom_site_occupancy
  Zn  Zn0  1  0.19125200  0.80874800  0.75000000  1
  Zn  Zn1  1  0.80874800  0.19125200  0.25000000  1
  Co  Co0  1  0.71716900  0.28283100  0.57717700  1
  Co  Co1  1  0.55165600  0.44834400  0.15179800  1
  Co  Co2  1  0.00000000  0.00000000  0.50000000  1
  Co  Co3  1  0.00000000  0.00000000  0.00000000  1
  Co  Co4  1  0.44834400  0.55165600  0.84820200  1
  Co  Co5  1  0.28283100  0.71716900  0.42282300  1
  Co  Co6  1  0.28283100  0.71716900  0.07717700  1
  Co  Co7  1  0.71716900  0.28283100  0.92282300  1
  Co  Co8  1  0.44834400  0.55165600  0.65179800  1
  Co  Co9  1  0.55165600  0.44834400  0.34820200  1
  O  O0  1  0.36179900  0.63820100  0.95888300  1
  O  O1  1  0.63820100  0.36179900  0.04111700  1
  O  O2  1  0.63820100  0.36179900  0.45888300  1
  O  O3  1  0.36179900  0.63820100  0.54111700  1
  O  O4  1  0.82202900  0.17797100  0.82554900  1
  O  O5  1  0.17797100  0.82202900  0.17445100  1
  O  O6  1  0.17797100  0.82202900  0.32554900  1
  O  O7  1  0.82202900  0.17797100  0.67445100  1
  O  O8  1  0.07023200  0.92976800  0.88605700  1
  O  O9  1  0.92976800  0.07023200  0.11394300  1
  O  O10  1  0.92976800  0.07023200  0.38605700  1
  O  O11  1  0.07023200  0.92976800  0.61394300  1
  O  O12  1  0.54211200  0.45788800  0.75000000  1
  O  O13  1  0.45788800  0.54211200  0.25000000  1
loop_
_geom_bond_atom_site_label_1
_geom_bond_atom_site_label_2
_geom_bond_distance
_geom_bond_site_symmetry_2
Co0 O7 1.967918 1_555
Co0 O3 2.117289 1_655
Co0 O3 2.117289 1_545
Co0 O11 2.135864 1_545
Co0 O11 2.135864 1_655
Co0 O2 2.186143 1_555
Co1 O13 1.928385 1_555
Co1 O5 1.943703 1_655
Co1 O5 1.943703 1_545
Co1 O9 1.987327 1_565
Co1 O9 1.987327 1_455
Co1 O1 2.091869 1_555
Co2 O10 2.086490 1_455
Co2 O11 2.086490 1_545
Co2 O3 2.104237 1_555
Co2 O2 2.104237 1_445
Co2 O3 2.104237 1_445
Co2 O2 2.104237 1_555
Co3 O9 2.086490 1_455
Co3 O8 2.086490 1_544
Co3 O0 2.104237 1_554
Co3 O0 2.104237 1_444
Co3 O1 2.104237 1_555
Co3 O1 2.104237 1_445
Co4 O12 1.928385 1_555
Co4 O4 1.943703 1_565
Co4 O4 1.943703 1_455
Co4 O8 1.987327 1_655
Co4 O8 1.987327 1_545
Co4 O0 2.091869 1_555
Co5 O6 1.967918 1_555
Co5 O2 2.117289 1_565
Co5 O2 2.117289 1_455
Co5 O10 2.135864 1_565
Co5 O10 2.135864 1_455
Co5 O3 2.186143 1_555
Co6 O5 1.967918 1_555
Co6 O1 2.117289 1_455
Co6 O1 2.117289 1_565
Co6 O9 2.135864 1_565
Co6 O9 2.135864 1_455
Co6 O0 2.186143 1_554
Co7 O4 1.967918 1_555
Co7 O0 2.117289 1_655
Co7 O0 2.117289 1_545
Co7 O8 2.135864 1_545
Co7 O8 2.135864 1_655
Co7 O1 2.186143 1_556
Co8 O12 1.928385 1_555
Co8 O7 1.943703 1_565
Co8 O7 1.943703 1_455
Co8 O11 1.987327 1_655
Co8 O11 1.987327 1_545
Co8 O3 2.091869 1_555
Co9 O13 1.928385 1_555
Co9 O6 1.943703 1_655
Co9 O6 1.943703 1_545
Co9 O10 1.987327 1_565
Co9 O10 1.987327 1_455
Co9 O2 2.091869 1_555
O4 Zn0 2.332734 1_545
O4 Zn0 2.332734 1_655
O5 Zn1 2.332734 1_565
O5 Zn1 2.332734 1_455
O6 Zn1 2.332734 1_565
O6 Zn1 2.332734 1_455
O7 Zn0 2.332734 1_545
O7 Zn0 2.332734 1_655
O12 Zn0 2.053995 1_655
O12 Zn0 2.053995 1_545
O13 Zn1 2.053995 1_565
O13 Zn1 2.053995 1_455
