# generated using pymatgen
data_BaYbCo4O7
_symmetry_space_group_name_H-M   'P 1'
_cell_length_a   6.37903550
_cell_length_b   6.37903550
_cell_length_c   10.42322765
_cell_angle_alpha   89.95772689
_cell_angle_beta   89.95772689
_cell_angle_gamma   120.85322766
_symmetry_Int_Tables_number   1
_chemical_formula_structural   BaYbCo4O7
_chemical_formula_sum   'Ba2 Yb2 Co8 O14'
_cell_volume   364.11946835
_cell_formula_units_Z   2
loop_
 _symmetry_equiv_pos_site_id
 _symmetry_equiv_pos_as_xyz
  1  'x, y, z'
loop_
 _atom_site_type_symbol
 _atom_site_label
 _atom_site_symmetry_multiplicity
 _atom_site_fract_x
 _atom_site_fract_y
 _atom_site_fract_z
 _atom_site_occupancy
  Ba  Ba0  1  0.33207200  0.66082500  0.51402100  1
  Ba  Ba1  1  0.66082500  0.33207200  0.01402100  1
  Yb  Yb0  1  0.33423600  0.66413500  0.12973700  1
  Yb  Yb1  1  0.66413500  0.33423600  0.62973700  1
  Co  Co0  1  0.83289400  0.65147500  0.32314300  1
  Co  Co1  1  0.65147500  0.83289400  0.82314300  1
  Co  Co2  1  0.15915200  0.34516400  0.82454400  1
  Co  Co3  1  0.00623800  0.99189400  0.07034500  1
  Co  Co4  1  0.83580100  0.16861100  0.32154200  1
  Co  Co5  1  0.34516400  0.15915200  0.32454400  1
  Co  Co6  1  0.16861100  0.83580100  0.82154200  1
  Co  Co7  1  0.99189400  0.00623800  0.57034500  1
  O  O0  1  0.84926100  0.18045000  0.50419100  1
  O  O1  1  0.50481600  0.01476700  0.24985800  1
  O  O2  1  0.67854100  0.81562700  0.99736800  1
  O  O3  1  0.50246200  0.97971200  0.75049200  1
  O  O4  1  0.81562700  0.67854100  0.49736800  1
  O  O5  1  0.50603600  0.48574200  0.25423300  1
  O  O6  1  0.00467000  0.99320300  0.26016500  1
  O  O7  1  0.97971200  0.50246200  0.25049200  1
  O  O8  1  0.01476700  0.50481600  0.74985800  1
  O  O9  1  0.18045000  0.84926100  0.00419100  1
  O  O10  1  0.48574200  0.50603600  0.75423300  1
  O  O11  1  0.32431900  0.15103000  0.49736900  1
  O  O12  1  0.99320300  0.00467000  0.76016500  1
  O  O13  1  0.15103000  0.32431900  0.99736900  1
loop_
_geom_bond_atom_site_label_1
_geom_bond_atom_site_label_2
_geom_bond_distance
_geom_bond_site_symmetry_2
Ba0 O8 3.008820 1_555
Ba0 O3 3.022928 1_555
Ba0 O10 3.032751 1_555
Ba0 O4 3.033048 1_555
Ba0 O0 3.034308 1_455
Ba0 O11 3.157334 1_565
Ba0 O11 3.231712 1_555
Ba0 O0 3.265680 1_565
Ba0 O5 3.329034 1_555
Ba0 O4 3.358391 1_455
Ba0 O7 3.361847 1_455
Ba0 O1 3.365686 1_565
Ba1 O1 3.008820 1_555
Ba1 O7 3.022928 1_555
Ba1 O5 3.032751 1_555
Ba1 O2 3.033048 1_554
Ba1 O9 3.034308 1_545
Ba1 O13 3.157334 1_654
Ba1 O13 3.231712 1_554
Ba1 O9 3.265680 1_655
Ba1 O10 3.329034 1_554
Ba1 O2 3.358391 1_544
Ba1 O3 3.361847 1_544
Ba1 O8 3.365686 1_654
Co0 O7 1.807560 1_555
Co0 O4 1.832873 1_555
Co0 O5 1.929606 1_555
Co0 O6 1.982519 1_655
Co1 O3 1.807560 1_555
Co1 O2 1.832873 1_555
Co1 O10 1.929606 1_555
Co1 O12 1.982519 1_565
Co2 O13 1.804946 1_555
Co2 O8 1.858359 1_555
Co2 O10 1.932424 1_555
Co2 O12 1.983294 1_455
Co3 O9 1.890821 1_555
Co3 O2 1.950748 1_454
Co3 O6 1.978600 1_555
Co3 O13 1.978911 1_564
Co4 O0 1.905598 1_555
Co4 O1 1.964024 1_555
Co4 O7 1.979396 1_555
Co4 O6 2.014455 1_645
Co5 O11 1.804946 1_555
Co5 O1 1.858359 1_555
Co5 O5 1.932424 1_555
Co5 O6 1.983294 1_545
Co6 O9 1.905598 1_556
Co6 O8 1.964024 1_555
Co6 O3 1.979396 1_555
Co6 O12 2.014455 1_465
Co7 O0 1.890821 1_555
Co7 O4 1.950748 1_545
Co7 O12 1.978600 1_555
Co7 O11 1.978911 1_655
O0 Yb1 2.292867 1_555
O1 Yb0 2.294401 1_545
O2 Yb0 2.340500 1_556
O3 Yb1 2.316021 1_565
O4 Yb1 2.340500 1_555
O5 Yb0 2.336449 1_555
O7 Yb0 2.316021 1_655
O8 Yb1 2.294401 1_455
O9 Yb0 2.292867 1_555
O10 Yb1 2.336449 1_555
O11 Yb1 2.318770 1_555
O13 Yb0 2.318770 1_556
