# generated using pymatgen
data_Ho(Ni2As)2
_symmetry_space_group_name_H-M   'P 1'
_cell_length_a   7.17561206
_cell_length_b   7.17561206
_cell_length_c   3.73933495
_cell_angle_alpha   90.00000000
_cell_angle_beta   90.00000000
_cell_angle_gamma   90.00000000
_symmetry_Int_Tables_number   1
_chemical_formula_structural   Ho(Ni2As)2
_chemical_formula_sum   'Ho2 Ni8 As4'
_cell_volume   192.53614452
_cell_formula_units_Z   2
loop_
 _symmetry_equiv_pos_site_id
 _symmetry_equiv_pos_as_xyz
  1  'x, y, z'
loop_
 _atom_site_type_symbol
 _atom_site_label
 _atom_site_symmetry_multiplicity
 _atom_site_fract_x
 _atom_site_fract_y
 _atom_site_fract_z
 _atom_site_occupancy
  Ho  Ho0  1  0.50000000  0.50000000  -0.00000000  1
  Ho  Ho1  1  0.00000000  -0.00000000  0.50000000  1
  Ni  Ni0  1  0.58888064  0.15319282  0.50000000  1
  Ni  Ni1  1  0.41111936  0.84680718  0.50000000  1
  Ni  Ni2  1  0.08888064  0.34680718  -0.00000000  1
  Ni  Ni3  1  0.91111936  0.65319282  -0.00000000  1
  Ni  Ni4  1  0.15319282  0.58888064  0.50000000  1
  Ni  Ni5  1  0.84680718  0.41111936  0.50000000  1
  Ni  Ni6  1  0.34680718  0.08888064  0.00000000  1
  Ni  Ni7  1  0.65319282  0.91111936  0.00000000  1
  As  As0  1  0.71785254  0.71785254  0.50000000  1
  As  As1  1  0.28214746  0.28214746  0.50000000  1
  As  As2  1  0.21785254  0.78214746  -0.00000000  1
  As  As3  1  0.78214746  0.21785254  -0.00000000  1
loop_
_geom_bond_atom_site_label_1
_geom_bond_atom_site_label_2
_geom_bond_distance
_geom_bond_site_symmetry_2
As0 Ni3 2.373639 1_556
As0 Ni7 2.373639 1_556
As0 Ni3 2.373639 1_555
As0 Ni7 2.373639 1_555
As0 Ni1 2.387598 1_555
As0 Ni5 2.387598 1_555
As0 Ho1 2.863190 1_665
As0 Ho0 2.895342 1_556
As0 Ho0 2.895342 1_555
As1 Ni2 2.373639 1_556
As1 Ni6 2.373639 1_556
As1 Ni6 2.373639 1_555
As1 Ni2 2.373639 1_555
As1 Ni4 2.387598 1_555
As1 Ni0 2.387598 1_555
As1 Ho1 2.863190 1_555
As1 Ho0 2.895342 1_556
As1 Ho0 2.895342 1_555
As2 Ni1 2.373639 1_555
As2 Ni1 2.373639 1_554
As2 Ni4 2.373639 1_554
As2 Ni4 2.373639 1_555
As2 Ni3 2.387598 1_455
As2 Ni6 2.387598 1_565
As2 Ho0 2.863190 1_555
As2 Ho1 2.895342 1_565
As2 Ho1 2.895342 1_564
As3 Ni5 2.373639 1_554
As3 Ni5 2.373639 1_555
As3 Ni0 2.373639 1_554
As3 Ni0 2.373639 1_555
As3 Ni2 2.387598 1_655
As3 Ni7 2.387598 1_545
As3 Ho0 2.863190 1_555
As3 Ho1 2.895342 1_654
As3 Ho1 2.895342 1_655
