# generated using pymatgen
data_Er7CoI12
_symmetry_space_group_name_H-M   'P 1'
_cell_length_a   9.58453673
_cell_length_b   9.58453673
_cell_length_c   9.58453621
_cell_angle_alpha   106.86151103
_cell_angle_beta   106.86151106
_cell_angle_gamma   106.86151842
_symmetry_Int_Tables_number   1
_chemical_formula_structural   Er7CoI12
_chemical_formula_sum   'Er7 Co1 I12'
_cell_volume   736.01431637
_cell_formula_units_Z   1
loop_
 _symmetry_equiv_pos_site_id
 _symmetry_equiv_pos_as_xyz
  1  'x, y, z'
loop_
 _atom_site_type_symbol
 _atom_site_label
 _atom_site_symmetry_multiplicity
 _atom_site_fract_x
 _atom_site_fract_y
 _atom_site_fract_z
 _atom_site_occupancy
  Er  Er0  1  0.50000000  0.50000000  0.50000000  1
  Er  Er1  1  0.28621019  0.09145539  0.02166628  1
  Er  Er2  1  0.02166628  0.28621019  0.09145539  1
  Er  Er3  1  0.09145539  0.02166628  0.28621019  1
  Er  Er4  1  0.71378981  0.90854461  0.97833372  1
  Er  Er5  1  0.97833372  0.71378981  0.90854461  1
  Er  Er6  1  0.90854461  0.97833372  0.71378981  1
  Co  Co0  1  0.00000000  0.00000000  0.00000000  1
  I  I0  1  0.46584833  0.16020502  0.38766416  1
  I  I1  1  0.38766416  0.46584833  0.16020502  1
  I  I2  1  0.16020502  0.38766416  0.46584833  1
  I  I3  1  0.53415167  0.83979498  0.61233584  1
  I  I4  1  0.61233584  0.53415167  0.83979498  1
  I  I5  1  0.83979498  0.61233584  0.53415167  1
  I  I6  1  0.32414755  0.77368807  0.92909439  1
  I  I7  1  0.92909439  0.32414755  0.77368807  1
  I  I8  1  0.77368807  0.92909439  0.32414755  1
  I  I9  1  0.67585245  0.22631193  0.07090561  1
  I  I10  1  0.07090561  0.67585245  0.22631193  1
  I  I11  1  0.22631193  0.07090561  0.67585245  1
loop_
_geom_bond_atom_site_label_1
_geom_bond_atom_site_label_2
_geom_bond_distance
_geom_bond_site_symmetry_2
Er0 I1 3.002651 1_555
Er0 I4 3.002651 1_555
Er0 I2 3.002651 1_555
Er0 I5 3.002651 1_555
Er0 I3 3.002652 1_555
Er0 I0 3.002652 1_555
Er1 I6 3.075288 1_544
Er1 I11 3.131435 1_554
Er1 I1 3.169826 1_555
Er1 I0 3.193939 1_555
Er1 I9 3.415202 1_555
Er2 I7 3.075288 1_454
Er2 I9 3.131436 1_455
Er2 I2 3.169825 1_555
Er2 I1 3.193939 1_555
Er2 I10 3.415203 1_555
Er3 I8 3.075288 1_445
Er3 I10 3.131436 1_545
Er3 I0 3.169826 1_555
Er3 I2 3.193939 1_555
Er3 I11 3.415202 1_555
Er4 I9 3.075288 1_566
Er4 I8 3.131435 1_556
Er4 I4 3.169826 1_555
Er4 I3 3.193939 1_555
Er4 I6 3.415202 1_555
Er5 I10 3.075288 1_656
Er5 I6 3.131436 1_655
Er5 I5 3.169825 1_555
Er5 I4 3.193939 1_555
Er5 I7 3.415203 1_555
Er6 I11 3.075288 1_665
Er6 I7 3.131436 1_565
Er6 I3 3.169826 1_555
Er6 I5 3.193939 1_555
Er6 I8 3.415202 1_555
Co0 Er6 2.550604 1_444
Co0 Er3 2.550604 1_555
Co0 Er1 2.550604 1_555
Co0 Er4 2.550604 1_444
Co0 Er2 2.550604 1_555
Co0 Er5 2.550604 1_444
