# generated using pymatgen
data_LiSi4H27(C3O)3
_symmetry_space_group_name_H-M   'P 1'
_cell_length_a   9.95583319
_cell_length_b   13.11144480
_cell_length_c   16.53734895
_cell_angle_alpha   90.00000000
_cell_angle_beta   90.00000000
_cell_angle_gamma   104.18073866
_symmetry_Int_Tables_number   1
_chemical_formula_structural   LiSi4H27(C3O)3
_chemical_formula_sum   'Li4 Si16 H108 C36 O12'
_cell_volume   2092.92806581
_cell_formula_units_Z   4
loop_
 _symmetry_equiv_pos_site_id
 _symmetry_equiv_pos_as_xyz
  1  'x, y, z'
loop_
 _atom_site_type_symbol
 _atom_site_label
 _atom_site_symmetry_multiplicity
 _atom_site_fract_x
 _atom_site_fract_y
 _atom_site_fract_z
 _atom_site_occupancy
  Li  Li0  1  0.29356047  0.57615282  0.74907855  1
  Li  Li1  1  0.70643953  0.92384718  0.24907855  1
  Li  Li2  1  0.70643953  0.42384718  0.25092145  1
  Li  Li3  1  0.29356047  0.07615282  0.75092145  1
  Si  Si0  1  0.23574111  0.38930074  0.62837281  1
  Si  Si1  1  0.76425889  0.11069926  0.12837281  1
  Si  Si2  1  0.76425889  0.61069926  0.37162719  1
  Si  Si3  1  0.23574111  0.88930074  0.87162719  1
  Si  Si4  1  0.49594432  0.43516711  0.78324752  1
  Si  Si5  1  0.50405568  0.06483289  0.28324752  1
  Si  Si6  1  0.50405568  0.56483289  0.21675248  1
  Si  Si7  1  0.49594432  0.93516711  0.71675248  1
  Si  Si8  1  0.13932132  0.37010131  0.83538035  1
  Si  Si9  1  0.86067868  0.12989869  0.33538035  1
  Si  Si10  1  0.86067868  0.62989869  0.16461965  1
  Si  Si11  1  0.13932132  0.87010131  0.66461965  1
  Si  Si12  1  0.29068231  0.31140388  0.74799123  1
  Si  Si13  1  0.70931769  0.18859612  0.24799123  1
  Si  Si14  1  0.70931769  0.68859612  0.25200877  1
  Si  Si15  1  0.29068231  0.81140388  0.75200877  1
  H  H0  1  0.43789329  0.36874711  0.54401594  1
  H  H1  1  0.56210671  0.13125289  0.04401594  1
  H  H2  1  0.56210671  0.63125289  0.45598406  1
  H  H3  1  0.43789329  0.86874711  0.95598406  1
  H  H4  1  0.28897449  0.26353422  0.52911528  1
  H  H5  1  0.71102551  0.23646578  0.02911528  1
  H  H6  1  0.71102551  0.73646578  0.47088472  1
  H  H7  1  0.28897449  0.76353422  0.97088472  1
  H  H8  1  0.29910809  0.38576949  0.48099435  1
  H  H9  1  0.70089191  0.11423051  0.98099435  1
  H  H10  1  0.70089191  0.61423051  0.51900565  1
  H  H11  1  0.29910809  0.88576949  0.01900565  1
  H  H12  1  0.03113639  0.38754876  0.54030973  1
  H  H13  1  0.96886361  0.11245124  0.04030973  1
  H  H14  1  0.96886361  0.61245124  0.45969027  1
  H  H15  1  0.03113639  0.88754876  0.95969027  1
  H  H16  1  0.99955963  0.27341187  0.60203727  1
  H  H17  1  0.00044037  0.22658813  0.10203727  1
  H  H18  1  0.00044037  0.72658813  0.39796273  1
  H  H19  1  0.99955963  0.77341187  0.89796273  1
  H  H20  1  0.98837504  0.39597208  0.64468478  1
  H  H21  1  0.01162496  0.10402792  0.14468478  1
  H  H22  1  0.01162496  0.60402792  0.35531522  1
  H  H23  1  0.98837504  0.89597208  0.85531522  1
  H  H24  1  0.72480819  0.52550088  0.72334640  1
  H  H25  1  0.27519181  0.97449912  0.22334640  1
  H  H26  1  0.27519181  0.47449912  0.27665360  1
  H  H27  1  0.72480819  0.02550088  0.77665360  1
  H  H28  1  0.67496225  0.39198398  0.69241560  1
  H  H29  1  0.32503775  0.10801602  0.19241560  1
  H  H30  1  0.32503775  0.60801602  0.30758440  1
  H  H31  1  0.67496225  0.89198398  0.80758440  1
  H  H32  1  0.59691840  0.48646869  0.64633102  1
  H  H33  1  0.40308160  0.01353131  0.14633102  1
  H  H34  1  0.40308160  0.51353131  0.35366898  1
  H  H35  1  0.59691840  0.98646869  0.85366898  1
  H  H36  1  0.50766234  0.37914434  0.92825218  1
  H  H37  1  0.49233766  0.12085566  0.42825218  1
  H  H38  1  0.49233766  0.62085566  0.07174782  1
  H  H39  1  0.50766234  0.87914434  0.57174782  1
  H  H40  1  0.60839884  0.31972334  0.86302372  1
  H  H41  1  0.39160116  0.18027666  0.36302372  1
  H  H42  1  0.39160116  0.68027666  0.13697628  1
  H  H43  1  0.60839884  0.81972334  0.63697628  1
  H  H44  1  0.67366706  0.45211012  0.89415502  1
  H  H45  1  0.32633294  0.04788988  0.39415502  1
  H  H46  1  0.32633294  0.54788988  0.10584498  1
  H  H47  1  0.67366706  0.95211012  0.60584498  1
  H  H48  1  0.11015571  0.40395807  0.98225701  1
  H  H49  1  0.88984429  0.09604193  0.48225701  1
  H  H50  1  0.88984429  0.59604193  0.01774299  1
  H  H51  1  0.11015571  0.90395807  0.51774299  1
  H  H52  1  0.20878221  0.30933520  0.96892677  1
  H  H53  1  0.79121779  0.19066480  0.46892677  1
  H  H54  1  0.79121779  0.69066480  0.03107323  1
  H  H55  1  0.20878221  0.80933520  0.53107323  1
  H  H56  1  0.28813174  0.44546262  0.95309411  1
  H  H57  1  0.71186826  0.05453738  0.45309411  1
  H  H58  1  0.71186826  0.55453738  0.04690589  1
  H  H59  1  0.28813174  0.94546262  0.54690589  1
  H  H60  1  0.90961311  0.27709032  0.77512121  1
  H  H61  1  0.09038689  0.22290968  0.27512121  1
  H  H62  1  0.09038689  0.72290968  0.22487879  1
  H  H63  1  0.90961311  0.77709032  0.72487879  1
  H  H64  1  0.96483371  0.20074588  0.85142909  1
  H  H65  1  0.03516629  0.29925412  0.35142909  1
  H  H66  1  0.03516629  0.79925412  0.14857091  1
  H  H67  1  0.96483371  0.70074588  0.64857091  1
  H  H68  1  0.89046599  0.30497323  0.87974803  1
  H  H69  1  0.10953401  0.19502677  0.37974803  1
  H  H70  1  0.10953401  0.69502677  0.12025197  1
  H  H71  1  0.89046599  0.80497323  0.62025197  1
  H  H72  1  0.28218104  0.55346130  0.50992083  1
  H  H73  1  0.71781896  0.94653870  0.00992083  1
  H  H74  1  0.71781896  0.44653870  0.49007917  1
  H  H75  1  0.28218104  0.05346130  0.99007917  1
  H  H76  1  0.16882546  0.60868559  0.56998512  1
  H  H77  1  0.83117454  0.89131441  0.06998512  1
  H  H78  1  0.83117454  0.39131441  0.43001488  1
  H  H79  1  0.16882546  0.10868559  0.93001488  1
  H  H80  1  0.35215820  0.66461501  0.57273121  1
  H  H81  1  0.64784180  0.83538499  0.07273121  1
  H  H82  1  0.64784180  0.33538499  0.42726879  1
  H  H83  1  0.35215820  0.16461501  0.92726879  1
  H  H84  1  0.65481266  0.66750762  0.79837447  1
  H  H85  1  0.34518734  0.83249238  0.29837447  1
  H  H86  1  0.34518734  0.33249238  0.20162553  1
  H  H87  1  0.65481266  0.16750762  0.70162553  1
  H  H88  1  0.51816056  0.70558608  0.85143890  1
  H  H89  1  0.48183944  0.79441392  0.35143890  1
  H  H90  1  0.48183944  0.29441392  0.14856110  1
  H  H91  1  0.51816056  0.20558608  0.64856110  1
  H  H92  1  0.60500607  0.61556943  0.89693453  1
  H  H93  1  0.39499393  0.88443057  0.39693453  1
  H  H94  1  0.39499393  0.38443057  0.10306547  1
  H  H95  1  0.60500607  0.11556943  0.60306547  1
  H  H96  1  0.07322798  0.58407173  0.90093541  1
  H  H97  1  0.92677202  0.91592827  0.40093541  1
  H  H98  1  0.92677202  0.41592827  0.09906459  1
  H  H99  1  0.07322798  0.08407173  0.59906459  1
  H  H100  1  0.00473889  0.60143899  0.80324893  1
  H  H101  1  0.99526111  0.89856101  0.30324893  1
  H  H102  1  0.99526111  0.39856101  0.19675107  1
  H  H103  1  0.00473889  0.10143899  0.69675107  1
  H  H104  1  0.93140142  0.48588490  0.86088086  1
  H  H105  1  0.06859858  0.01411510  0.36088086  1
  H  H106  1  0.06859858  0.51411510  0.13911914  1
  H  H107  1  0.93140142  0.98588490  0.63911914  1
  C  C0  1  0.27123843  0.59046399  0.56829442  1
  C  C1  1  0.72876157  0.90953601  0.06829442  1
  C  C2  1  0.72876157  0.40953601  0.43170558  1
  C  C3  1  0.27123843  0.09046399  0.93170558  1
  C  C4  1  0.56605478  0.63990659  0.83956820  1
  C  C5  1  0.43394522  0.86009341  0.33956820  1
  C  C6  1  0.43394522  0.36009341  0.16043180  1
  C  C7  1  0.56605478  0.13990659  0.66043180  1
  C  C8  1  0.02849053  0.54316498  0.84525980  1
  C  C9  1  0.97150947  0.95683502  0.34525980  1
  C  C10  1  0.97150947  0.45683502  0.15474020  1
  C  C11  1  0.02849053  0.04316498  0.65474020  1
  C  C12  1  0.32462734  0.34929717  0.53708578  1
  C  C13  1  0.67537266  0.15070283  0.03708578  1
  C  C14  1  0.67537266  0.65070283  0.46291422  1
  C  C15  1  0.32462734  0.84929717  0.96291422  1
  C  C16  1  0.04556828  0.35867194  0.60153062  1
  C  C17  1  0.95443172  0.14132806  0.10153062  1
  C  C18  1  0.95443172  0.64132806  0.39846938  1
  C  C19  1  0.04556828  0.85867194  0.89846938  1
  C  C20  1  0.63601975  0.46233344  0.70352520  1
  C  C21  1  0.36398025  0.03766656  0.20352520  1
  C  C22  1  0.36398025  0.53766656  0.29647480  1
  C  C23  1  0.63601975  0.96233344  0.79647480  1
  C  C24  1  0.57873898  0.39351670  0.87634836  1
  C  C25  1  0.42126102  0.10648330  0.37634836  1
  C  C26  1  0.42126102  0.60648330  0.12365164  1
  C  C27  1  0.57873898  0.89351670  0.62365164  1
  C  C28  1  0.19209477  0.38364094  0.94531798  1
  C  C29  1  0.80790523  0.11635906  0.44531798  1
  C  C30  1  0.80790523  0.61635906  0.05468202  1
  C  C31  1  0.19209477  0.88364094  0.55468202  1
  C  C32  1  0.95857146  0.28082644  0.83500243  1
  C  C33  1  0.04142854  0.21917356  0.33500243  1
  C  C34  1  0.04142854  0.71917356  0.16499757  1
  C  C35  1  0.95857146  0.78082644  0.66499757  1
  O  O0  1  0.28754237  0.52472432  0.63516547  1
  O  O1  1  0.71245763  0.97527568  0.13516547  1
  O  O2  1  0.71245763  0.47527568  0.36483453  1
  O  O3  1  0.28754237  0.02472432  0.86483453  1
  O  O4  1  0.46266659  0.55571468  0.80437503  1
  O  O5  1  0.53733341  0.94428532  0.30437503  1
  O  O6  1  0.53733341  0.44428532  0.19562497  1
  O  O7  1  0.46266659  0.05571468  0.69562497  1
  O  O8  1  0.12458675  0.49346624  0.80637516  1
  O  O9  1  0.87541325  0.00653376  0.30637516  1
  O  O10  1  0.87541325  0.50653376  0.19362484  1
  O  O11  1  0.12458675  0.99346624  0.69362484  1
loop_
_geom_bond_atom_site_label_1
_geom_bond_atom_site_label_2
_geom_bond_distance
_geom_bond_site_symmetry_2
Li0 O4 1.990873 1_555
Li0 O0 1.996812 1_555
Li0 O8 2.002404 1_555
Li0 Si15 3.092006 1_555
Li1 O5 1.990873 1_555
Li1 O1 1.996812 1_555
Li1 O9 2.002404 1_565
Li1 Si14 3.092006 1_555
Li2 O6 1.990873 1_555
Li2 O2 1.996812 1_555
Li2 O10 2.002404 1_555
Li2 Si13 3.092006 1_555
Li3 O7 1.990873 1_555
Li3 O3 1.996812 1_555
Li3 O11 2.002404 1_545
Li3 Si12 3.092006 1_555
Si0 Si12 2.351428 1_555
Si1 Si13 2.351428 1_555
Si10 Si14 2.349448 1_555
Si11 Si15 2.349448 1_555
Si12 Si8 2.349448 1_555
Si12 Si4 2.350424 1_555
Si13 Si9 2.349448 1_555
Si13 Si5 2.350424 1_555
Si14 Si6 2.350424 1_555
Si14 Si2 2.351428 1_555
Si15 Si7 2.350424 1_555
Si15 Si3 2.351428 1_555
C0 H72 1.097740 1_555
C0 H80 1.102667 1_555
C0 H76 1.103091 1_555
C0 O0 1.435545 1_555
C1 H73 1.097740 1_555
C1 H81 1.102667 1_555
C1 H77 1.103091 1_555
C1 O1 1.435545 1_555
C2 H74 1.097740 1_555
C2 H82 1.102667 1_555
C2 H78 1.103091 1_555
C2 O2 1.435545 1_555
C3 H75 1.097740 1_555
C3 H83 1.102667 1_555
C3 H79 1.103091 1_555
C3 O3 1.435545 1_555
C4 H88 1.099398 1_555
C4 H92 1.101291 1_555
C4 H84 1.104180 1_555
C4 O4 1.435287 1_555
C5 H89 1.099398 1_555
C5 H93 1.101291 1_555
C5 H85 1.104180 1_555
C5 O5 1.435287 1_555
C6 H90 1.099398 1_555
C6 H94 1.101291 1_555
C6 H86 1.104180 1_555
C6 O6 1.435287 1_555
C7 H91 1.099398 1_555
C7 H95 1.101291 1_555
C7 H87 1.104180 1_555
C7 O7 1.435287 1_555
C8 H104 1.099731 1_455
C8 H100 1.100408 1_555
C8 H96 1.103059 1_555
C8 O8 1.434881 1_555
C9 H105 1.099731 1_665
C9 H101 1.100408 1_555
C9 H97 1.103059 1_555
C9 O9 1.434881 1_565
C10 H106 1.099731 1_655
C10 H102 1.100408 1_555
C10 H98 1.103059 1_555
C10 O10 1.434881 1_555
C11 H107 1.099731 1_445
C11 H103 1.100408 1_555
C11 H99 1.103059 1_555
C11 O11 1.434881 1_545
C12 H0 1.099490 1_555
C12 H4 1.101023 1_555
C12 H8 1.101456 1_555
C12 Si0 1.888032 1_555
C13 H1 1.099490 1_555
C13 H5 1.101023 1_555
C13 H9 1.101456 1_554
C13 Si1 1.888032 1_555
C14 H2 1.099490 1_555
C14 H6 1.101023 1_555
C14 H10 1.101456 1_555
C14 Si2 1.888032 1_555
C15 H3 1.099490 1_555
C15 H7 1.101023 1_555
C15 H11 1.101456 1_556
C15 Si3 1.888032 1_555
C16 H16 1.099391 1_455
C16 H20 1.099612 1_455
C16 H12 1.102573 1_555
C16 Si0 1.889570 1_555
C17 H17 1.099391 1_655
C17 H21 1.099612 1_655
C17 H13 1.102573 1_555
C17 Si1 1.889570 1_555
C18 H18 1.099391 1_655
C18 H22 1.099612 1_655
C18 H14 1.102573 1_555
C18 Si2 1.889570 1_555
C19 H19 1.099391 1_455
C19 H23 1.099612 1_455
C19 H15 1.102573 1_555
C19 Si3 1.889570 1_555
C20 H32 1.098478 1_555
C20 H28 1.100035 1_555
C20 H24 1.102756 1_555
C20 Si4 1.888512 1_555
C21 H33 1.098478 1_555
C21 H29 1.100035 1_555
C21 H25 1.102756 1_545
C21 Si5 1.888512 1_555
C22 H34 1.098478 1_555
C22 H30 1.100035 1_555
C22 H26 1.102756 1_555
C22 Si6 1.888512 1_555
C23 H35 1.098478 1_555
C23 H31 1.100035 1_555
C23 H27 1.102756 1_565
C23 Si7 1.888512 1_555
C24 H36 1.098945 1_555
C24 H40 1.100847 1_555
C24 H44 1.101982 1_555
C24 Si4 1.889107 1_555
C25 H37 1.098945 1_555
C25 H41 1.100847 1_555
C25 H45 1.101982 1_555
C25 Si5 1.889107 1_555
C26 H38 1.098945 1_555
C26 H42 1.100847 1_555
C26 H46 1.101982 1_555
C26 Si6 1.889107 1_555
C27 H39 1.098945 1_555
C27 H43 1.100847 1_555
C27 H47 1.101982 1_555
C27 Si7 1.889107 1_555
C28 H56 1.099099 1_555
C28 H52 1.099324 1_555
C28 H48 1.102763 1_555
C28 Si8 1.888721 1_555
C29 H57 1.099099 1_555
C29 H53 1.099324 1_555
C29 H49 1.102763 1_555
C29 Si9 1.888721 1_555
C30 H58 1.099099 1_555
C30 H54 1.099324 1_555
C30 H50 1.102763 1_555
C30 Si10 1.888721 1_555
C31 H59 1.099099 1_555
C31 H55 1.099324 1_555
C31 H51 1.102763 1_555
C31 Si11 1.888721 1_555
C32 H60 1.099513 1_555
C32 H64 1.100998 1_555
C32 H68 1.101237 1_555
C32 Si8 1.891130 1_655
C33 H61 1.099513 1_555
C33 H65 1.100998 1_555
C33 H69 1.101237 1_555
C33 Si9 1.891130 1_455
C34 H62 1.099513 1_555
C34 H66 1.100998 1_555
C34 H70 1.101237 1_555
C34 Si10 1.891130 1_455
C35 H63 1.099513 1_555
C35 H67 1.100998 1_555
C35 H71 1.101237 1_555
C35 Si11 1.891130 1_655
O0 Si0 1.727042 1_555
O1 Si1 1.727042 1_565
O2 Si2 1.727042 1_555
O3 Si3 1.727042 1_545
O4 Si4 1.728165 1_555
O5 Si5 1.728165 1_565
O6 Si6 1.728165 1_555
O7 Si7 1.728165 1_545
O8 Si8 1.727467 1_555
O9 Si9 1.727467 1_555
O10 Si10 1.727467 1_555
O11 Si11 1.727467 1_555
