# generated using pymatgen
data_Na6Co3B9P6H3O38
_symmetry_space_group_name_H-M   'P 1'
_cell_length_a   11.82048754
_cell_length_b   11.82409883
_cell_length_c   12.23172013
_cell_angle_alpha   90.00000000
_cell_angle_beta   90.00000000
_cell_angle_gamma   120.02938222
_symmetry_Int_Tables_number   1
_chemical_formula_structural   Na6Co3B9P6H3O38
_chemical_formula_sum   'Na12 Co6 B18 P12 H6 O76'
_cell_volume   1480.10643829
_cell_formula_units_Z   2
loop_
 _symmetry_equiv_pos_site_id
 _symmetry_equiv_pos_as_xyz
  1  'x, y, z'
loop_
 _atom_site_type_symbol
 _atom_site_label
 _atom_site_symmetry_multiplicity
 _atom_site_fract_x
 _atom_site_fract_y
 _atom_site_fract_z
 _atom_site_occupancy
  Na  Na0  1  0.26843421  0.28780093  0.61877740  1
  Na  Na1  1  0.71197950  0.98088100  0.61877031  1
  Na  Na2  1  0.01945046  0.73107455  0.61865838  1
  Na  Na3  1  0.73156579  0.71219907  0.11877740  1
  Na  Na4  1  0.28802050  0.01911900  0.11877031  1
  Na  Na5  1  0.98054954  0.26892545  0.11865838  1
  Na  Na6  1  0.33294910  0.66671764  0.26410914  1
  Na  Na7  1  0.66705090  0.33328236  0.76410914  1
  Na  Na8  1  0.33296824  0.66648451  0.77210951  1
  Na  Na9  1  0.66703176  0.33351549  0.27210951  1
  Na  Na10  1  0.99996659  0.00007792  0.86003255  1
  Na  Na11  1  0.00003341  0.99992208  0.36003255  1
  Co  Co0  1  0.49513656  0.99631591  0.36472981  1
  Co  Co1  1  0.00363740  0.49894216  0.36458104  1
  Co  Co2  1  0.50076084  0.50473867  0.36435621  1
  Co  Co3  1  0.50486344  0.00368409  0.86472981  1
  Co  Co4  1  0.99636260  0.50105784  0.86458104  1
  Co  Co5  1  0.49923916  0.49526133  0.86435621  1
  B  B0  1  0.70243973  0.95445293  0.21450966  1
  B  B1  1  0.04552839  0.74820320  0.21461752  1
  B  B2  1  0.25176884  0.29688138  0.21460889  1
  B  B3  1  0.29756027  0.04554707  0.71450966  1
  B  B4  1  0.95447161  0.25179680  0.71461752  1
  B  B5  1  0.74823116  0.70311862  0.71460889  1
  B  B6  1  0.50402094  0.90878934  0.10965635  1
  B  B7  1  0.09103454  0.59539533  0.10964753  1
  B  B8  1  0.40495432  0.49577229  0.10959582  1
  B  B9  1  0.49597906  0.09121066  0.60965635  1
  B  B10  1  0.90896546  0.40460467  0.60964753  1
  B  B11  1  0.59504568  0.50422771  0.60959582  1
  B  B12  1  0.29016913  0.04007046  0.51342323  1
  B  B13  1  0.95984384  0.24988142  0.51341774  1
  B  B14  1  0.75031318  0.71047694  0.51343054  1
  B  B15  1  0.70983087  0.95992954  0.01342323  1
  B  B16  1  0.04015616  0.75011858  0.01341774  1
  B  B17  1  0.24968682  0.28952306  0.01343054  1
  P  P0  1  0.18562158  0.80407906  0.40381642  1
  P  P1  1  0.19580142  0.38146049  0.40376362  1
  P  P2  1  0.61868829  0.81447180  0.40384399  1
  P  P3  1  0.81437842  0.19592094  0.90381642  1
  P  P4  1  0.80419858  0.61853951  0.90376362  1
  P  P5  1  0.38131171  0.18552820  0.90384399  1
  P  P6  1  0.37923348  0.18786195  0.32862030  1
  P  P7  1  0.81208346  0.19137756  0.32862637  1
  P  P8  1  0.80858228  0.62093859  0.32874705  1
  P  P9  1  0.62076652  0.81213805  0.82862030  1
  P  P10  1  0.18791654  0.80862244  0.82862637  1
  P  P11  1  0.19141772  0.37906141  0.82874705  1
  H  H0  1  0.33800677  0.83427734  0.02966093  1
  H  H1  1  0.16557264  0.50394763  0.02969815  1
  H  H2  1  0.49618496  0.66205123  0.02985302  1
  H  H3  1  0.66199323  0.16572266  0.52966093  1
  H  H4  1  0.83442736  0.49605237  0.52969815  1
  H  H5  1  0.50381504  0.33794877  0.52985302  1
  O  O0  1  0.27407578  0.11248074  0.42020621  1
  O  O1  1  0.88777894  0.16169567  0.42012257  1
  O  O2  1  0.83835422  0.72628389  0.42020061  1
  O  O3  1  0.72592422  0.88751926  0.92020621  1
  O  O4  1  0.11222106  0.83830433  0.92012257  1
  O  O5  1  0.16164578  0.27371611  0.92020061  1
  O  O6  1  0.56395437  0.93035158  0.21047462  1
  O  O7  1  0.06931353  0.63362750  0.21046086  1
  O  O8  1  0.36690644  0.43577651  0.21056627  1
  O  O9  1  0.43604563  0.06964842  0.71047462  1
  O  O10  1  0.93068647  0.36637250  0.71046086  1
  O  O11  1  0.63309356  0.56422349  0.71056627  1
  O  O12  1  0.43276557  0.10473091  0.27916708  1
  O  O13  1  0.89531864  0.32810515  0.27917222  1
  O  O14  1  0.67163831  0.56696922  0.27974755  1
  O  O15  1  0.56723443  0.89526909  0.77916708  1
  O  O16  1  0.10468136  0.67189485  0.77917222  1
  O  O17  1  0.32836169  0.43303078  0.77974755  1
  O  O18  1  0.19540238  0.89943454  0.49761510  1
  O  O19  1  0.10089901  0.29597530  0.49768166  1
  O  O20  1  0.70444680  0.80504252  0.49768652  1
  O  O21  1  0.80459762  0.10056546  0.99761510  1
  O  O22  1  0.89910099  0.70402470  0.99768166  1
  O  O23  1  0.29555320  0.19495748  0.99768652  1
  O  O24  1  0.30192825  0.20469373  0.23216713  1
  O  O25  1  0.79492097  0.09707074  0.23235045  1
  O  O26  1  0.90252970  0.69780289  0.23225447  1
  O  O27  1  0.69807175  0.79530627  0.73216713  1
  O  O28  1  0.20507903  0.90292926  0.73235045  1
  O  O29  1  0.09747030  0.30219711  0.73225447  1
  O  O30  1  0.09409507  0.66847565  0.45060807  1
  O  O31  1  0.33202245  0.42645523  0.45020581  1
  O  O32  1  0.57437675  0.90575341  0.45065947  1
  O  O33  1  0.90590493  0.33152435  0.95060807  1
  O  O34  1  0.66797755  0.57354477  0.95020581  1
  O  O35  1  0.42562325  0.09424659  0.95065947  1
  O  O36  1  0.42705270  0.06298268  0.51306752  1
  O  O37  1  0.93731768  0.36401604  0.51306796  1
  O  O38  1  0.63552484  0.57332269  0.51296724  1
  O  O39  1  0.57294730  0.93701732  0.01306752  1
  O  O40  1  0.06268232  0.63598396  0.01306796  1
  O  O41  1  0.36447516  0.42667731  0.01296724  1
  O  O42  1  0.26398470  0.08508315  0.61423424  1
  O  O43  1  0.91510775  0.17881361  0.61425513  1
  O  O44  1  0.82110823  0.73609750  0.61430853  1
  O  O45  1  0.73601530  0.91491685  0.11423424  1
  O  O46  1  0.08489225  0.82118639  0.11425513  1
  O  O47  1  0.17889177  0.26390250  0.11430853  1
  O  O48  1  0.68078734  0.16849617  0.37318973  1
  O  O49  1  0.83149072  0.51252944  0.37340638  1
  O  O50  1  0.48743025  0.31945168  0.37280549  1
  O  O51  1  0.31921266  0.83150383  0.87318973  1
  O  O52  1  0.16850928  0.48747056  0.87340638  1
  O  O53  1  0.51256975  0.68054832  0.87280549  1
  O  O54  1  0.11717025  0.83574731  0.30633312  1
  O  O55  1  0.16451200  0.28142034  0.30646291  1
  O  O56  1  0.71828908  0.88234528  0.30616305  1
  O  O57  1  0.88282975  0.16425269  0.80633312  1
  O  O58  1  0.83548800  0.71857966  0.80646291  1
  O  O59  1  0.28171092  0.11765472  0.80616305  1
  O  O60  1  0.31848099  0.82833416  0.36575948  1
  O  O61  1  0.17158068  0.49005229  0.36565943  1
  O  O62  1  0.51008458  0.68120701  0.36621422  1
  O  O63  1  0.68151901  0.17166584  0.86575948  1
  O  O64  1  0.82841932  0.50994771  0.86565943  1
  O  O65  1  0.48991542  0.31879299  0.86621422  1
  O  O66  1  0.36947809  0.85403085  0.10617857  1
  O  O67  1  0.14588488  0.51574757  0.10620890  1
  O  O68  1  0.48448896  0.63011065  0.10622235  1
  O  O69  1  0.63052191  0.14596915  0.60617857  1
  O  O70  1  0.85411512  0.48425243  0.60620890  1
  O  O71  1  0.51551104  0.36988935  0.60622235  1
  O  O72  1  0.33297078  0.66543890  0.57439970  1
  O  O73  1  0.66702922  0.33456110  0.07439970  1
  O  O74  1  0.00003259  0.00013580  0.65095792  1
  O  O75  1  0.99996741  0.99986420  0.15095792  1
loop_
_geom_bond_atom_site_label_1
_geom_bond_atom_site_label_2
_geom_bond_distance
_geom_bond_site_symmetry_2
Na0 O42 2.371722 1_555
Na0 O17 2.471808 1_555
Na0 O31 2.504183 1_555
Na0 O19 2.513301 1_555
Na0 O29 2.526622 1_555
Na0 O71 2.580335 1_555
Na1 O43 2.370898 1_565
Na1 O15 2.463279 1_555
Na1 O32 2.493363 1_555
Na1 O20 2.517732 1_555
Na1 O27 2.530732 1_555
Na1 O69 2.577289 1_565
Na2 O44 2.375377 1_455
Na2 O16 2.462728 1_555
Na2 O30 2.491044 1_555
Na2 O18 2.517278 1_555
Na2 O28 2.532779 1_555
Na2 O70 2.579007 1_455
Na3 O45 2.371722 1_555
Na3 O14 2.471808 1_555
Na3 O34 2.504183 1_554
Na3 O22 2.513301 1_554
Na3 O26 2.526622 1_555
Na3 O68 2.580335 1_555
Na4 O46 2.370898 1_545
Na4 O12 2.463279 1_555
Na4 O35 2.493363 1_554
Na4 O23 2.517732 1_554
Na4 O24 2.530732 1_555
Na4 O66 2.577289 1_545
Na5 O47 2.375377 1_655
Na5 O13 2.462728 1_555
Na5 O33 2.491044 1_554
Na5 O21 2.517278 1_554
Na5 O25 2.532779 1_555
Na5 O67 2.579007 1_655
Na6 O60 2.356713 1_555
Na6 O61 2.357283 1_555
Na6 O62 2.369436 1_555
Na6 O67 2.802766 1_555
Na6 O66 2.804701 1_555
Na6 O68 2.810995 1_555
Na7 O63 2.356713 1_555
Na7 O64 2.357283 1_555
Na7 O65 2.369436 1_555
Na7 O70 2.802766 1_555
Na7 O69 2.804701 1_555
Na7 O71 2.810995 1_555
Na8 O52 2.382471 1_555
Na8 O51 2.383239 1_555
Na8 O53 2.387129 1_555
Na8 O72 2.418363 1_555
Na8 O16 2.732404 1_555
Na8 O17 2.735133 1_555
Na8 O15 2.737863 1_555
Na9 O49 2.382471 1_555
Na9 O48 2.383239 1_555
Na9 O50 2.387129 1_555
Na9 O73 2.418363 1_555
Na9 O13 2.732404 1_555
Na9 O14 2.735133 1_555
Na9 O12 2.737863 1_555
Na10 O74 2.557342 1_655
Na10 O5 2.910957 1_655
Na10 O3 2.913958 1_545
Na10 O4 2.915510 1_645
Na10 O57 2.967684 1_555
Na10 O58 2.968332 1_545
Na10 O59 2.970539 1_655
Na11 O75 2.557342 1_455
Na11 O2 2.910957 1_455
Na11 O0 2.913958 1_565
Na11 O1 2.915510 1_465
Na11 O54 2.967684 1_555
Na11 O55 2.968332 1_565
Na11 O56 2.970539 1_455
Co0 O32 2.032882 1_555
Co0 O60 2.038241 1_555
Co0 O12 2.056235 1_565
Co0 O48 2.121224 1_565
Co0 O36 2.279506 1_565
Co0 O6 2.337765 1_555
Co1 O30 2.030662 1_555
Co1 O61 2.039849 1_555
Co1 O13 2.054868 1_455
Co1 O49 2.122573 1_455
Co1 O37 2.281835 1_455
Co1 O7 2.335643 1_555
Co2 O31 2.022353 1_555
Co2 O62 2.033791 1_555
Co2 O14 2.050540 1_555
Co2 O50 2.118918 1_555
Co2 O38 2.281781 1_555
Co2 O8 2.327148 1_555
Co3 O35 2.032882 1_555
Co3 O63 2.038241 1_555
Co3 O15 2.056235 1_545
Co3 O51 2.121224 1_545
Co3 O39 2.279506 1_546
Co3 O9 2.337765 1_555
Co4 O33 2.030662 1_555
Co4 O64 2.039849 1_555
Co4 O16 2.054868 1_655
Co4 O52 2.122573 1_655
Co4 O40 2.281835 1_656
Co4 O10 2.335643 1_555
Co5 O34 2.022353 1_555
Co5 O65 2.033791 1_555
Co5 O17 2.050540 1_555
Co5 O53 2.118918 1_555
Co5 O41 2.281781 1_556
Co5 O11 2.327148 1_555
B0 O45 1.437411 1_555
B0 O56 1.476053 1_555
B0 O25 1.497085 1_565
B0 O6 1.515384 1_555
B1 O46 1.437472 1_555
B1 O54 1.473021 1_555
B1 O26 1.500209 1_455
B1 O7 1.515988 1_555
B2 O47 1.436342 1_555
B2 O55 1.473379 1_555
B2 O24 1.494225 1_555
B2 O8 1.521434 1_555
B3 O42 1.437411 1_555
B3 O59 1.476053 1_555
B3 O28 1.497085 1_545
B3 O9 1.515384 1_555
B4 O43 1.437472 1_555
B4 O57 1.473021 1_555
B4 O29 1.500209 1_655
B4 O10 1.515988 1_555
B5 O44 1.436342 1_555
B5 O58 1.473379 1_555
B5 O27 1.494225 1_555
B5 O11 1.521434 1_555
B6 O39 1.377987 1_555
B6 O6 1.380886 1_555
B6 O66 1.385515 1_555
B7 O40 1.378107 1_555
B7 O7 1.380956 1_555
B7 O67 1.385711 1_555
B8 O41 1.379173 1_555
B8 O8 1.382574 1_555
B8 O68 1.383475 1_555
B9 O36 1.377987 1_555
B9 O9 1.380886 1_555
B9 O69 1.385515 1_555
B10 O37 1.378107 1_555
B10 O10 1.380956 1_555
B10 O70 1.385711 1_555
B11 O38 1.379173 1_555
B11 O11 1.382574 1_555
B11 O71 1.383475 1_555
B12 O42 1.436825 1_555
B12 O18 1.480884 1_545
B12 O0 1.494097 1_555
B12 O36 1.500899 1_555
B13 O43 1.436076 1_555
B13 O19 1.484783 1_655
B13 O1 1.492019 1_555
B13 O37 1.500611 1_555
B14 O44 1.435570 1_555
B14 O20 1.479206 1_555
B14 O2 1.491211 1_555
B14 O38 1.506214 1_555
B15 O45 1.436825 1_555
B15 O21 1.480884 1_564
B15 O3 1.494097 1_554
B15 O39 1.500899 1_555
B16 O46 1.436076 1_555
B16 O22 1.484783 1_454
B16 O4 1.492019 1_554
B16 O40 1.500611 1_555
B17 O47 1.435570 1_555
B17 O23 1.479206 1_554
B17 O5 1.491211 1_554
B17 O41 1.506214 1_555
H0 O66 0.990941 1_555
H1 O67 0.990936 1_555
H2 O68 0.991001 1_555
H3 O69 0.990941 1_555
H4 O70 0.990936 1_555
H5 O71 0.991001 1_555
O0 P6 1.576577 1_555
O1 P7 1.578157 1_555
O2 P8 1.577339 1_555
O3 P9 1.576577 1_555
O4 P10 1.578157 1_555
O5 P11 1.577339 1_555
O12 P6 1.534612 1_555
O13 P7 1.534783 1_555
O14 P8 1.533907 1_555
O15 P9 1.534612 1_555
O16 P10 1.534783 1_555
O17 P11 1.533907 1_555
O18 P0 1.571775 1_555
O19 P1 1.570000 1_555
O20 P2 1.571855 1_555
O21 P3 1.571775 1_555
O22 P4 1.570000 1_555
O23 P5 1.571855 1_555
O24 P6 1.564780 1_555
O25 P7 1.563636 1_555
O26 P8 1.562718 1_555
O27 P9 1.564780 1_555
O28 P10 1.563636 1_555
O29 P11 1.562718 1_555
O30 P0 1.527313 1_555
O31 P1 1.530055 1_555
O32 P2 1.527426 1_555
O33 P3 1.527313 1_555
O34 P4 1.530055 1_555
O35 P5 1.527426 1_555
O48 P7 1.535808 1_555
O49 P8 1.536964 1_555
O50 P6 1.535250 1_555
O51 P10 1.535808 1_555
O52 P11 1.536964 1_555
O53 P9 1.535250 1_555
O54 P0 1.587431 1_555
O55 P1 1.585747 1_555
O56 P2 1.584943 1_555
O57 P3 1.587431 1_555
O58 P4 1.585747 1_555
O59 P5 1.584943 1_555
O60 P0 1.521347 1_555
O61 P1 1.521773 1_555
O62 P2 1.522552 1_555
O63 P3 1.521347 1_555
O64 P4 1.521773 1_555
O65 P5 1.522552 1_555
