# generated using pymatgen
data_Mg(SnO2)2
_symmetry_space_group_name_H-M   'P 1'
_cell_length_a   3.06565182
_cell_length_b   7.99156187
_cell_length_c   15.19258587
_cell_angle_alpha   90.00000000
_cell_angle_beta   90.00000000
_cell_angle_gamma   90.00000000
_symmetry_Int_Tables_number   1
_chemical_formula_structural   Mg(SnO2)2
_chemical_formula_sum   'Mg4 Sn8 O16'
_cell_volume   372.20842077
_cell_formula_units_Z   4
loop_
 _symmetry_equiv_pos_site_id
 _symmetry_equiv_pos_as_xyz
  1  'x, y, z'
loop_
 _atom_site_type_symbol
 _atom_site_label
 _atom_site_symmetry_multiplicity
 _atom_site_fract_x
 _atom_site_fract_y
 _atom_site_fract_z
 _atom_site_occupancy
  Mg  Mg0  1  0.25000000  0.27686333  0.76361814  1
  Mg  Mg1  1  0.75000000  0.72313667  0.23638186  1
  Mg  Mg2  1  0.25000000  0.77686333  0.73638186  1
  Mg  Mg3  1  0.75000000  0.22313667  0.26361814  1
  Sn  Sn0  1  0.75000000  0.46045956  0.59349074  1
  Sn  Sn1  1  0.25000000  0.03954044  0.09349074  1
  Sn  Sn2  1  0.75000000  0.96045956  0.90650926  1
  Sn  Sn3  1  0.25000000  0.53954044  0.40650926  1
  Sn  Sn4  1  0.25000000  0.53635689  0.90292076  1
  Sn  Sn5  1  0.75000000  0.46364311  0.09707924  1
  Sn  Sn6  1  0.25000000  0.03635689  0.59707924  1
  Sn  Sn7  1  0.75000000  0.96364311  0.40292076  1
  O  O0  1  0.75000000  0.89116684  0.66698202  1
  O  O1  1  0.25000000  0.10883316  0.33301798  1
  O  O2  1  0.75000000  0.39116684  0.83301798  1
  O  O3  1  0.25000000  0.60883316  0.16698202  1
  O  O4  1  0.75000000  0.94658976  0.16885760  1
  O  O5  1  0.25000000  0.05341024  0.83114240  1
  O  O6  1  0.75000000  0.44658976  0.33114240  1
  O  O7  1  0.25000000  0.55341024  0.66885760  1
  O  O8  1  0.75000000  0.63442529  0.48672299  1
  O  O9  1  0.25000000  0.36557471  0.51327701  1
  O  O10  1  0.75000000  0.13442529  0.01327701  1
  O  O11  1  0.25000000  0.86557471  0.98672299  1
  O  O12  1  0.25000000  0.75991032  0.33221575  1
  O  O13  1  0.75000000  0.24008968  0.66778425  1
  O  O14  1  0.75000000  0.74008968  0.83221575  1
  O  O15  1  0.25000000  0.25991032  0.16778425  1
loop_
_geom_bond_atom_site_label_1
_geom_bond_atom_site_label_2
_geom_bond_distance
_geom_bond_site_symmetry_2
Mg0 O5 2.059434 1_555
Mg0 O2 2.072596 1_455
Mg0 O2 2.072596 1_555
Mg0 O13 2.134421 1_555
Mg0 O13 2.134421 1_455
Mg0 O7 2.637593 1_555
Mg1 O4 2.059434 1_555
Mg1 O3 2.072596 1_555
Mg1 O3 2.072596 1_655
Mg1 O12 2.134421 1_555
Mg1 O12 2.134421 1_655
Mg1 O6 2.637593 1_555
Mg2 O7 2.059434 1_555
Mg2 O0 2.072596 1_555
Mg2 O0 2.072596 1_455
Mg2 O14 2.134421 1_555
Mg2 O14 2.134421 1_455
Mg2 O5 2.637593 1_565
Mg3 O6 2.059434 1_555
Mg3 O1 2.072596 1_555
Mg3 O1 2.072596 1_655
Mg3 O15 2.134421 1_555
Mg3 O15 2.134421 1_655
Mg3 O4 2.637593 1_545
O0 Sn6 2.196291 1_565
O0 Sn6 2.196291 1_665
O1 Sn7 2.196291 1_545
O1 Sn7 2.196291 1_445
O2 Sn4 2.196291 1_655
O2 Sn4 2.196291 1_555
O3 Sn5 2.196291 1_455
O3 Sn5 2.196291 1_555
O4 Sn1 2.052414 1_665
O4 Sn1 2.052414 1_565
O5 Sn2 2.052414 1_545
O5 Sn2 2.052414 1_445
O6 Sn3 2.052414 1_655
O6 Sn3 2.052414 1_555
O7 Sn0 2.052414 1_555
O7 Sn0 2.052414 1_455
O8 Sn3 2.099919 1_555
O8 Sn3 2.099919 1_655
O8 Sn0 2.136341 1_555
O9 Sn0 2.099919 1_455
O9 Sn0 2.099919 1_555
O9 Sn3 2.136341 1_555
O10 Sn1 2.099919 1_655
O10 Sn1 2.099919 1_555
O10 Sn2 2.136341 1_544
O11 Sn2 2.099919 1_455
O11 Sn2 2.099919 1_555
O11 Sn1 2.136341 1_566
O12 Sn3 2.091760 1_555
O12 Sn7 2.480785 1_555
O12 Sn7 2.480785 1_455
O13 Sn0 2.091760 1_555
O13 Sn6 2.480785 1_655
O13 Sn6 2.480785 1_555
O14 Sn2 2.091760 1_555
O14 Sn4 2.480785 1_555
O14 Sn4 2.480785 1_655
O15 Sn1 2.091760 1_555
O15 Sn5 2.480785 1_555
O15 Sn5 2.480785 1_455
