# generated using pymatgen
data_CsRuN2
_symmetry_space_group_name_H-M   'P 1'
_cell_length_a   13.74553619
_cell_length_b   13.74553619
_cell_length_c   8.52993329
_cell_angle_alpha   90.00000000
_cell_angle_beta   90.00000000
_cell_angle_gamma   90.00000000
_symmetry_Int_Tables_number   1
_chemical_formula_structural   CsRuN2
_chemical_formula_sum   'Cs20 Ru20 N40'
_cell_volume   1611.64359256
_cell_formula_units_Z   20
loop_
 _symmetry_equiv_pos_site_id
 _symmetry_equiv_pos_as_xyz
  1  'x, y, z'
loop_
 _atom_site_type_symbol
 _atom_site_label
 _atom_site_symmetry_multiplicity
 _atom_site_fract_x
 _atom_site_fract_y
 _atom_site_fract_z
 _atom_site_occupancy
  Cs  Cs0  1  0.10084768  0.30195767  0.73208559  1
  Cs  Cs1  1  0.89915232  0.69804233  0.73208559  1
  Cs  Cs2  1  0.80195767  0.89915232  0.98208559  1
  Cs  Cs3  1  0.19804233  0.10084768  0.98208559  1
  Cs  Cs4  1  0.10074179  0.80132463  0.48741419  1
  Cs  Cs5  1  0.89925821  0.19867537  0.48741419  1
  Cs  Cs6  1  0.30132463  0.89925821  0.73741419  1
  Cs  Cs7  1  0.69867537  0.10074179  0.73741419  1
  Cs  Cs8  1  0.00000000  0.50000000  0.98544086  1
  Cs  Cs9  1  0.00000000  -0.00000000  0.23544086  1
  Cs  Cs10  1  0.60084768  0.80195767  0.23208559  1
  Cs  Cs11  1  0.39915232  0.19804233  0.23208559  1
  Cs  Cs12  1  0.30195767  0.39915232  0.48208559  1
  Cs  Cs13  1  0.69804233  0.60084768  0.48208559  1
  Cs  Cs14  1  0.60074179  0.30132463  0.98741419  1
  Cs  Cs15  1  0.39925821  0.69867537  0.98741419  1
  Cs  Cs16  1  0.80132463  0.39925821  0.23741419  1
  Cs  Cs17  1  0.19867537  0.60074179  0.23741419  1
  Cs  Cs18  1  0.50000000  -0.00000000  0.48544086  1
  Cs  Cs19  1  0.50000000  0.50000000  0.73544086  1
  Ru  Ru0  1  0.00000000  -0.00000000  0.73469521  1
  Ru  Ru1  1  0.00000000  0.50000000  0.48469521  1
  Ru  Ru2  1  0.20026414  0.09968101  0.48563324  1
  Ru  Ru3  1  0.79973586  0.90031899  0.48563324  1
  Ru  Ru4  1  0.09968101  0.29973586  0.23563324  1
  Ru  Ru5  1  0.90031899  0.70026414  0.23563324  1
  Ru  Ru6  1  0.90020880  0.20008959  0.98415439  1
  Ru  Ru7  1  0.09979120  0.79991041  0.98415439  1
  Ru  Ru8  1  0.70008959  0.09979120  0.23415439  1
  Ru  Ru9  1  0.29991041  0.90020880  0.23415439  1
  Ru  Ru10  1  0.50000000  0.50000000  0.23469521  1
  Ru  Ru11  1  0.50000000  -0.00000000  0.98469521  1
  Ru  Ru12  1  0.70026414  0.59968101  0.98563324  1
  Ru  Ru13  1  0.29973586  0.40031899  0.98563324  1
  Ru  Ru14  1  0.59968101  0.79973586  0.73563324  1
  Ru  Ru15  1  0.40031899  0.20026414  0.73563324  1
  Ru  Ru16  1  0.40020880  0.70008959  0.48415439  1
  Ru  Ru17  1  0.59979120  0.29991041  0.48415439  1
  Ru  Ru18  1  0.20008959  0.59979120  0.73415439  1
  Ru  Ru19  1  0.79991041  0.40020880  0.73415439  1
  N  N0  1  0.10074253  0.04877778  0.60993774  1
  N  N1  1  0.89925747  0.95122222  0.60993774  1
  N  N2  1  0.04877778  0.39925747  0.35993774  1
  N  N3  1  0.95122222  0.60074253  0.35993774  1
  N  N4  1  0.60066343  0.04913947  0.10959335  1
  N  N5  1  0.39933657  0.95086053  0.10959335  1
  N  N6  1  0.04913947  0.89933657  0.85959335  1
  N  N7  1  0.95086053  0.10066343  0.85959335  1
  N  N8  1  0.29987448  0.15027382  0.61127568  1
  N  N9  1  0.70012552  0.84972618  0.61127568  1
  N  N10  1  0.15027382  0.20012552  0.36127568  1
  N  N11  1  0.84972618  0.79987448  0.36127568  1
  N  N12  1  0.79977015  0.15032856  0.10868629  1
  N  N13  1  0.20022985  0.84967144  0.10868629  1
  N  N14  1  0.15032856  0.70022985  0.85868629  1
  N  N15  1  0.84967144  0.29977015  0.85868629  1
  N  N16  1  0.00004429  0.24974461  0.10970151  1
  N  N17  1  0.99995571  0.75025539  0.10970151  1
  N  N18  1  0.74974461  0.99995571  0.35970151  1
  N  N19  1  0.25025539  0.00004429  0.35970151  1
  N  N20  1  0.60074253  0.54877778  0.10993774  1
  N  N21  1  0.39925747  0.45122222  0.10993774  1
  N  N22  1  0.54877778  0.89925747  0.85993774  1
  N  N23  1  0.45122222  0.10074253  0.85993774  1
  N  N24  1  0.10066343  0.54913947  0.60959335  1
  N  N25  1  0.89933657  0.45086053  0.60959335  1
  N  N26  1  0.54913947  0.39933657  0.35959335  1
  N  N27  1  0.45086053  0.60066343  0.35959335  1
  N  N28  1  0.79987448  0.65027382  0.11127568  1
  N  N29  1  0.20012552  0.34972618  0.11127568  1
  N  N30  1  0.65027382  0.70012552  0.86127568  1
  N  N31  1  0.34972618  0.29987448  0.86127568  1
  N  N32  1  0.29977015  0.65032856  0.60868629  1
  N  N33  1  0.70022985  0.34967144  0.60868629  1
  N  N34  1  0.65032856  0.20022985  0.35868629  1
  N  N35  1  0.34967144  0.79977015  0.35868629  1
  N  N36  1  0.50004429  0.74974461  0.60970151  1
  N  N37  1  0.49995571  0.25025539  0.60970151  1
  N  N38  1  0.24974461  0.49995571  0.85970151  1
  N  N39  1  0.75025539  0.50004429  0.85970151  1
loop_
_geom_bond_atom_site_label_1
_geom_bond_atom_site_label_2
_geom_bond_distance
_geom_bond_site_symmetry_2
Cs0 N2 3.518210 1_555
Cs0 N10 3.524954 1_555
Cs0 N24 3.554676 1_555
Cs0 N29 3.571429 1_556
Cs0 N38 3.575032 1_555
Cs0 N16 3.579114 1_556
Cs0 N8 3.590721 1_555
Cs0 N31 3.594191 1_555
Cs0 N25 3.599045 1_455
Cs0 N15 3.617623 1_455
Cs0 N7 3.617884 1_455
Cs0 N0 3.632717 1_555
Cs1 N3 3.518210 1_555
Cs1 N11 3.524954 1_555
Cs1 N25 3.554676 1_555
Cs1 N28 3.571429 1_556
Cs1 N39 3.575032 1_555
Cs1 N17 3.579114 1_556
Cs1 N9 3.590721 1_555
Cs1 N30 3.594191 1_555
Cs1 N24 3.599045 1_655
Cs1 N14 3.617623 1_655
Cs1 N6 3.617884 1_655
Cs1 N1 3.632717 1_555
Cs2 N1 3.518210 1_555
Cs2 N9 3.524954 1_555
Cs2 N6 3.554676 1_655
Cs2 N11 3.571429 1_556
Cs2 N17 3.575032 1_556
Cs2 N18 3.579114 1_556
Cs2 N30 3.590721 1_555
Cs2 N28 3.594191 1_556
Cs2 N7 3.599045 1_565
Cs2 N12 3.617623 1_566
Cs2 N4 3.617884 1_566
Cs2 N22 3.632717 1_555
Cs3 N0 3.518210 1_555
Cs3 N8 3.524954 1_555
Cs3 N7 3.554676 1_455
Cs3 N10 3.571429 1_556
Cs3 N16 3.575032 1_556
Cs3 N19 3.579114 1_556
Cs3 N31 3.590721 1_555
Cs3 N29 3.594191 1_556
Cs3 N6 3.599045 1_545
Cs3 N13 3.617623 1_546
Cs3 N5 3.617884 1_546
Cs3 N23 3.632717 1_555
Cs4 N6 3.520883 1_555
Cs4 N14 3.524910 1_555
Cs4 N0 3.558319 1_565
Cs4 N13 3.570436 1_555
Cs4 N17 3.576646 1_455
Cs4 N32 3.586391 1_555
Cs4 N19 3.587688 1_565
Cs4 N35 3.593603 1_555
Cs4 N1 3.606633 1_455
Cs4 N3 3.606656 1_455
Cs4 N11 3.614270 1_455
Cs4 N24 3.619697 1_555
Cs5 N7 3.520883 1_555
Cs5 N15 3.524910 1_555
Cs5 N1 3.558319 1_545
Cs5 N12 3.570436 1_555
Cs5 N16 3.576646 1_655
Cs5 N33 3.586391 1_555
Cs5 N18 3.587688 1_545
Cs5 N34 3.593603 1_555
Cs5 N0 3.606633 1_655
Cs5 N2 3.606656 1_655
Cs5 N10 3.614270 1_655
Cs5 N25 3.619697 1_555
Cs6 N5 3.520883 1_556
Cs6 N13 3.524910 1_556
Cs6 N22 3.558319 1_555
Cs6 N35 3.570436 1_555
Cs6 N19 3.576646 1_565
Cs6 N14 3.586391 1_555
Cs6 N36 3.587688 1_555
Cs6 N32 3.593603 1_555
Cs6 N23 3.606633 1_565
Cs6 N0 3.606656 1_565
Cs6 N8 3.614270 1_565
Cs6 N6 3.619697 1_555
Cs7 N4 3.520883 1_556
Cs7 N12 3.524910 1_556
Cs7 N23 3.558319 1_555
Cs7 N34 3.570436 1_555
Cs7 N18 3.576646 1_545
Cs7 N15 3.586391 1_555
Cs7 N37 3.587688 1_555
Cs7 N33 3.593603 1_555
Cs7 N22 3.606633 1_545
Cs7 N1 3.606656 1_545
Cs7 N9 3.614270 1_545
Cs7 N7 3.619697 1_555
Cs8 N2 3.545632 1_556
Cs8 N3 3.545632 1_456
Cs8 N24 3.556532 1_555
Cs8 N25 3.556532 1_455
Cs8 N38 3.596523 1_555
Cs8 N39 3.596523 1_455
Cs8 N16 3.599491 1_556
Cs8 N17 3.599491 1_456
Cs8 N28 3.603591 1_456
Cs8 N29 3.603591 1_556
Cs8 N15 3.607460 1_455
Cs8 N14 3.607460 1_555
Cs9 N0 3.545632 1_555
Cs9 N1 3.545632 1_445
Cs9 N7 3.556532 1_454
Cs9 N6 3.556532 1_544
Cs9 N16 3.596523 1_555
Cs9 N17 3.596523 1_445
Cs9 N18 3.599491 1_445
Cs9 N19 3.599491 1_555
Cs9 N11 3.603591 1_445
Cs9 N10 3.603591 1_555
Cs9 N12 3.607460 1_455
Cs9 N13 3.607460 1_545
Cs10 N22 3.518210 1_554
Cs10 N30 3.524954 1_554
Cs10 N4 3.554676 1_565
Cs10 N9 3.571429 1_555
Cs10 N18 3.575032 1_555
Cs10 N36 3.579114 1_555
Cs10 N28 3.590721 1_555
Cs10 N11 3.594191 1_555
Cs10 N5 3.599045 1_555
Cs10 N35 3.617623 1_555
Cs10 N27 3.617884 1_555
Cs10 N20 3.632717 1_555
Cs11 N23 3.518210 1_554
Cs11 N31 3.524954 1_554
Cs11 N5 3.554676 1_545
Cs11 N8 3.571429 1_555
Cs11 N19 3.575032 1_555
Cs11 N37 3.579114 1_555
Cs11 N29 3.590721 1_555
Cs11 N10 3.594191 1_555
Cs11 N4 3.599045 1_555
Cs11 N34 3.617623 1_555
Cs11 N26 3.617884 1_555
Cs11 N21 3.632717 1_555
Cs12 N21 3.518210 1_555
Cs12 N29 3.524954 1_555
Cs12 N26 3.554676 1_555
Cs12 N31 3.571429 1_555
Cs12 N37 3.575032 1_555
Cs12 N38 3.579114 1_555
Cs12 N10 3.590721 1_555
Cs12 N8 3.594191 1_555
Cs12 N27 3.599045 1_555
Cs12 N32 3.617623 1_555
Cs12 N24 3.617884 1_555
Cs12 N2 3.632717 1_555
Cs13 N20 3.518210 1_555
Cs13 N28 3.524954 1_555
Cs13 N27 3.554676 1_555
Cs13 N30 3.571429 1_555
Cs13 N36 3.575032 1_555
Cs13 N39 3.579114 1_555
Cs13 N11 3.590721 1_555
Cs13 N9 3.594191 1_555
Cs13 N26 3.599045 1_555
Cs13 N33 3.617623 1_555
Cs13 N25 3.617884 1_555
Cs13 N3 3.632717 1_555
Cs14 N26 3.520883 1_556
Cs14 N34 3.524910 1_556
Cs14 N20 3.558319 1_556
Cs14 N33 3.570436 1_555
Cs14 N37 3.576646 1_555
Cs14 N12 3.586391 1_556
Cs14 N39 3.587688 1_555
Cs14 N15 3.593603 1_555
Cs14 N21 3.606633 1_556
Cs14 N23 3.606656 1_555
Cs14 N31 3.614270 1_555
Cs14 N4 3.619697 1_556
Cs15 N27 3.520883 1_556
Cs15 N35 3.524910 1_556
Cs15 N21 3.558319 1_556
Cs15 N32 3.570436 1_555
Cs15 N36 3.576646 1_555
Cs15 N13 3.586391 1_556
Cs15 N38 3.587688 1_555
Cs15 N14 3.593603 1_555
Cs15 N20 3.606633 1_556
Cs15 N22 3.606656 1_555
Cs15 N30 3.614270 1_555
Cs15 N5 3.619697 1_556
Cs16 N25 3.520883 1_555
Cs16 N33 3.524910 1_555
Cs16 N2 3.558319 1_655
Cs16 N15 3.570436 1_554
Cs16 N39 3.576646 1_554
Cs16 N34 3.586391 1_555
Cs16 N16 3.587688 1_655
Cs16 N12 3.593603 1_555
Cs16 N3 3.606633 1_555
Cs16 N20 3.606656 1_555
Cs16 N28 3.614270 1_555
Cs16 N26 3.619697 1_555
Cs17 N24 3.520883 1_555
Cs17 N32 3.524910 1_555
Cs17 N3 3.558319 1_455
Cs17 N14 3.570436 1_554
Cs17 N38 3.576646 1_554
Cs17 N35 3.586391 1_555
Cs17 N17 3.587688 1_455
Cs17 N13 3.593603 1_555
Cs17 N2 3.606633 1_555
Cs17 N21 3.606656 1_555
Cs17 N29 3.614270 1_555
Cs17 N27 3.619697 1_555
Cs18 N22 3.545632 1_545
Cs18 N23 3.545632 1_555
Cs18 N5 3.556532 1_545
Cs18 N4 3.556532 1_555
Cs18 N19 3.596523 1_555
Cs18 N18 3.596523 1_545
Cs18 N36 3.599491 1_545
Cs18 N37 3.599491 1_555
Cs18 N8 3.603591 1_555
Cs18 N9 3.603591 1_545
Cs18 N35 3.607460 1_545
Cs18 N34 3.607460 1_555
Cs19 N21 3.545632 1_556
Cs19 N20 3.545632 1_556
Cs19 N27 3.556532 1_555
Cs19 N26 3.556532 1_555
Cs19 N37 3.596523 1_555
Cs19 N36 3.596523 1_555
Cs19 N38 3.599491 1_555
Cs19 N39 3.599491 1_555
Cs19 N31 3.603591 1_555
Cs19 N30 3.603591 1_555
Cs19 N32 3.607460 1_555
Cs19 N33 3.607460 1_555
N0 Ru2 1.866866 1_555
N0 Ru0 1.870712 1_555
N1 Ru3 1.866866 1_555
N1 Ru0 1.870712 1_665
N2 Ru4 1.866866 1_555
N2 Ru1 1.870712 1_555
N3 Ru5 1.866866 1_555
N3 Ru1 1.870712 1_655
N4 Ru8 1.865856 1_555
N4 Ru11 1.872378 1_554
N5 Ru9 1.865856 1_555
N5 Ru11 1.872378 1_564
N6 Ru7 1.865856 1_555
N6 Ru0 1.872378 1_565
N7 Ru6 1.865856 1_555
N7 Ru0 1.872378 1_655
N8 Ru15 1.871794 1_555
N8 Ru2 1.872673 1_555
N9 Ru14 1.871794 1_555
N9 Ru3 1.872673 1_555
N10 Ru2 1.871794 1_555
N10 Ru4 1.872673 1_555
N11 Ru3 1.871794 1_555
N11 Ru5 1.872673 1_555
N12 Ru6 1.871424 1_554
N12 Ru8 1.872246 1_555
N13 Ru7 1.871424 1_554
N13 Ru9 1.872246 1_555
N14 Ru18 1.871424 1_555
N14 Ru7 1.872246 1_555
N15 Ru19 1.871424 1_555
N15 Ru6 1.872246 1_555
N16 Ru6 1.869729 1_454
N16 Ru4 1.871299 1_555
N17 Ru7 1.869729 1_654
N17 Ru5 1.871299 1_555
N18 Ru8 1.869729 1_565
N18 Ru3 1.871299 1_555
N19 Ru9 1.869729 1_545
N19 Ru2 1.871299 1_555
N20 Ru12 1.866866 1_554
N20 Ru10 1.870712 1_555
N21 Ru13 1.866866 1_554
N21 Ru10 1.870712 1_555
N22 Ru14 1.866866 1_555
N22 Ru11 1.870712 1_565
N23 Ru15 1.866866 1_555
N23 Ru11 1.870712 1_555
N24 Ru18 1.865856 1_555
N24 Ru1 1.872378 1_555
N25 Ru19 1.865856 1_555
N25 Ru1 1.872378 1_655
N26 Ru17 1.865856 1_555
N26 Ru10 1.872378 1_555
N27 Ru16 1.865856 1_555
N27 Ru10 1.872378 1_555
N28 Ru5 1.871794 1_555
N28 Ru12 1.872673 1_554
N29 Ru4 1.871794 1_555
N29 Ru13 1.872673 1_554
N30 Ru12 1.871794 1_555
N30 Ru14 1.872673 1_555
N31 Ru13 1.871794 1_555
N31 Ru15 1.872673 1_555
N32 Ru16 1.871424 1_555
N32 Ru18 1.872246 1_555
N33 Ru17 1.871424 1_555
N33 Ru19 1.872246 1_555
N34 Ru8 1.871424 1_555
N34 Ru17 1.872246 1_555
N35 Ru9 1.871424 1_555
N35 Ru16 1.872246 1_555
N36 Ru16 1.869729 1_555
N36 Ru14 1.871299 1_555
N37 Ru17 1.869729 1_555
N37 Ru15 1.871299 1_555
N38 Ru18 1.869729 1_555
N38 Ru13 1.871299 1_555
N39 Ru19 1.869729 1_555
N39 Ru12 1.871299 1_555
