# generated using pymatgen
data_Li4Sm3Ge4
_symmetry_space_group_name_H-M   'P 1'
_cell_length_a   4.40098000
_cell_length_b   6.78736600
_cell_length_c   8.34960278
_cell_angle_alpha   113.98192556
_cell_angle_beta   105.28047124
_cell_angle_gamma   90.00000000
_symmetry_Int_Tables_number   1
_chemical_formula_structural   Li4Sm3Ge4
_chemical_formula_sum   'Li4 Sm3 Ge4'
_cell_volume   218.19502452
_cell_formula_units_Z   1
loop_
 _symmetry_equiv_pos_site_id
 _symmetry_equiv_pos_as_xyz
  1  'x, y, z'
loop_
 _atom_site_type_symbol
 _atom_site_label
 _atom_site_symmetry_multiplicity
 _atom_site_fract_x
 _atom_site_fract_y
 _atom_site_fract_z
 _atom_site_occupancy
  Li  Li0  1  0.67115800  0.98119900  0.34231500  1
  Li  Li1  1  0.32884200  0.01880100  0.65768500  1
  Li  Li2  1  0.32884200  0.63888400  0.65768500  1
  Li  Li3  1  0.67115800  0.36111600  0.34231500  1
  Sm  Sm0  1  0.00000000  0.00000000  0.00000000  1
  Sm  Sm1  1  0.13027300  0.63027300  0.26054500  1
  Sm  Sm2  1  0.86972700  0.36972700  0.73945500  1
  Ge  Ge0  1  0.50000000  0.68741200  0.00000000  1
  Ge  Ge1  1  0.50000000  0.31258800  0.00000000  1
  Ge  Ge2  1  0.78667000  0.78667000  0.57334000  1
  Ge  Ge3  1  0.21333000  0.21333000  0.42666000  1
loop_
_geom_bond_atom_site_label_1
_geom_bond_atom_site_label_2
_geom_bond_distance
_geom_bond_site_symmetry_2
Li0 Sm1 3.102782 1_555
Li0 Sm1 3.102782 1_655
Li0 Sm2 3.174547 1_565
Li1 Sm2 3.102782 1_555
Li1 Sm2 3.102782 1_455
Li1 Sm1 3.174547 1_545
Li2 Sm2 3.102786 1_455
Li2 Sm2 3.102786 1_555
Li2 Sm1 3.174550 1_555
Li3 Sm1 3.102786 1_555
Li3 Sm1 3.102786 1_655
Li3 Sm2 3.174550 1_555
Ge0 Ge1 2.544068 1_555
Ge0 Li0 2.635352 1_555
Ge0 Li2 2.635352 1_554
Ge0 Sm0 3.056722 1_565
Ge0 Sm0 3.056722 1_665
Ge0 Sm1 3.175256 1_555
Ge0 Sm2 3.175259 1_554
Ge0 Sm1 3.175259 1_655
Ge0 Sm2 3.175262 1_454
Ge1 Li1 2.635352 1_554
Ge1 Li3 2.635352 1_555
Ge1 Sm0 3.056722 1_555
Ge1 Sm0 3.056722 1_655
Ge1 Sm2 3.175256 1_554
Ge1 Sm1 3.175259 1_555
Ge1 Sm2 3.175259 1_454
Ge1 Sm1 3.175262 1_655
Ge2 Li1 2.623751 1_665
Ge2 Li2 2.623751 1_655
Ge2 Li2 2.623755 1_555
Ge2 Li1 2.623755 1_565
Ge2 Li0 2.697431 1_555
Ge2 Li3 2.697431 1_555
Ge2 Sm0 3.116564 1_666
Ge2 Sm1 3.172160 1_555
Ge2 Sm1 3.172163 1_655
Ge3 Li3 2.623751 1_455
Ge3 Li0 2.623751 1_445
Ge3 Li3 2.623755 1_555
Ge3 Li0 2.623755 1_545
Ge3 Li2 2.697431 1_555
Ge3 Li1 2.697431 1_555
Ge3 Sm0 3.116564 1_555
Ge3 Sm2 3.172160 1_555
Ge3 Sm2 3.172163 1_455
