# generated using pymatgen
data_Mg6NbBi
_symmetry_space_group_name_H-M   'P 1'
_cell_length_a   5.12596100
_cell_length_b   6.41431900
_cell_length_c   10.82023200
_cell_angle_alpha   90.00000000
_cell_angle_beta   90.00000000
_cell_angle_gamma   90.00000000
_symmetry_Int_Tables_number   1
_chemical_formula_structural   Mg6NbBi
_chemical_formula_sum   'Mg12 Nb2 Bi2'
_cell_volume   355.76434862
_cell_formula_units_Z   2
loop_
 _symmetry_equiv_pos_site_id
 _symmetry_equiv_pos_as_xyz
  1  'x, y, z'
loop_
 _atom_site_type_symbol
 _atom_site_label
 _atom_site_symmetry_multiplicity
 _atom_site_fract_x
 _atom_site_fract_y
 _atom_site_fract_z
 _atom_site_occupancy
  Mg  Mg0  1  0.00000000  0.24163100  0.08052200  1
  Mg  Mg1  1  0.00000000  0.75836900  0.08052200  1
  Mg  Mg2  1  0.00000000  0.50000000  0.83479500  1
  Mg  Mg3  1  0.50000000  0.24371400  0.91515300  1
  Mg  Mg4  1  0.50000000  0.75628600  0.91515300  1
  Mg  Mg5  1  0.50000000  0.50000000  0.66638600  1
  Mg  Mg6  1  0.00000000  0.74163100  0.58052200  1
  Mg  Mg7  1  0.00000000  0.25836900  0.58052200  1
  Mg  Mg8  1  0.00000000  0.00000000  0.33479500  1
  Mg  Mg9  1  0.50000000  0.74371400  0.41515300  1
  Mg  Mg10  1  0.50000000  0.25628600  0.41515300  1
  Mg  Mg11  1  0.50000000  0.00000000  0.16638600  1
  Nb  Nb0  1  0.00000000  0.50000000  0.33648000  1
  Nb  Nb1  1  0.00000000  0.00000000  0.83648000  1
  Bi  Bi0  1  0.50000000  0.50000000  0.17099000  1
  Bi  Bi1  1  0.50000000  0.00000000  0.67099000  1
loop_
_geom_bond_atom_site_label_1
_geom_bond_atom_site_label_2
_geom_bond_distance
_geom_bond_site_symmetry_2
Mg0 Nb1 3.061847 1_554
Mg0 Mg1 3.099797 1_545
Mg0 Mg3 3.125820 1_454
Mg0 Mg3 3.125820 1_554
Mg0 Mg2 3.133027 1_554
Mg0 Mg11 3.135956 1_555
Mg0 Mg11 3.135956 1_455
Mg0 Mg8 3.157815 1_555
Mg0 Nb0 3.227504 1_555
Mg0 Mg1 3.314522 1_555
Mg1 Nb1 3.061847 1_564
Mg1 Mg4 3.125820 1_454
Mg1 Mg4 3.125820 1_554
Mg1 Mg2 3.133027 1_554
Mg1 Mg11 3.135956 1_565
Mg1 Mg11 3.135956 1_465
Mg1 Mg8 3.157815 1_565
Mg1 Nb0 3.227504 1_555
Mg2 Mg5 3.144737 1_555
Mg2 Mg5 3.144737 1_455
Mg2 Mg6 3.157815 1_555
Mg2 Mg7 3.157815 1_555
Mg2 Mg3 3.166590 1_455
Mg2 Mg4 3.166590 1_555
Mg2 Mg4 3.166590 1_455
Mg2 Mg3 3.166590 1_555
Mg2 Nb1 3.207211 1_555
Mg2 Nb1 3.207211 1_565
Mg3 Nb1 3.120464 1_655
Mg3 Nb1 3.120464 1_555
Mg3 Mg4 3.126519 1_545
Mg3 Mg5 3.154005 1_555
Mg3 Mg4 3.287800 1_555
Mg4 Nb1 3.120464 1_665
Mg4 Nb1 3.120464 1_565
Mg4 Mg5 3.154005 1_555
Mg5 Mg9 3.135837 1_555
Mg5 Mg6 3.135956 1_555
Mg5 Mg6 3.135956 1_655
Mg5 Mg7 3.135956 1_655
Mg5 Mg7 3.135956 1_555
Mg6 Nb0 3.061847 1_555
Mg6 Mg7 3.099797 1_555
Mg6 Mg9 3.125820 1_455
Mg6 Mg9 3.125820 1_555
Mg6 Mg8 3.133027 1_565
Mg6 Nb1 3.227504 1_565
Mg6 Mg7 3.314522 1_565
Mg7 Nb0 3.061847 1_555
Mg7 Mg8 3.133027 1_555
Mg7 Nb1 3.227504 1_555
Mg8 Mg9 3.166590 1_545
Mg8 Mg9 3.166590 1_445
Mg8 Nb0 3.207211 1_545
Mg8 Nb0 3.207211 1_555
Mg9 Nb0 3.120464 1_655
Mg9 Nb0 3.120464 1_555
Mg10 Nb0 3.120464 1_655
Mg10 Nb0 3.120464 1_555
Mg10 Mg7 3.125820 1_655
Mg10 Mg7 3.125820 1_555
Mg10 Mg9 3.126519 1_555
Mg10 Mg5 3.135837 1_555
Mg10 Mg11 3.154005 1_555
Mg10 Mg8 3.166590 1_655
Mg10 Mg8 3.166590 1_555
Mg10 Mg9 3.287800 1_545
Mg11 Mg3 3.135837 1_554
Mg11 Mg4 3.135837 1_544
Mg11 Mg8 3.144737 1_555
Mg11 Mg8 3.144737 1_655
Mg11 Mg9 3.154005 1_545
Bi0 Mg9 3.069758 1_555
Bi0 Mg10 3.069758 1_555
Bi0 Nb0 3.126541 1_655
Bi0 Nb0 3.126541 1_555
Bi0 Mg1 3.205246 1_555
Bi0 Mg1 3.205246 1_655
Bi0 Mg0 3.205246 1_555
Bi0 Mg0 3.205246 1_655
Bi0 Mg11 3.207546 1_565
Bi0 Mg11 3.207546 1_555
Bi0 Mg3 3.219538 1_554
Bi0 Mg4 3.219538 1_554
Bi1 Mg4 3.069758 1_545
Bi1 Mg3 3.069758 1_555
Bi1 Nb1 3.126541 1_655
Bi1 Nb1 3.126541 1_555
Bi1 Mg7 3.205246 1_655
Bi1 Mg7 3.205246 1_555
Bi1 Mg6 3.205246 1_645
Bi1 Mg6 3.205246 1_545
Bi1 Mg5 3.207546 1_545
Bi1 Mg5 3.207546 1_555
Bi1 Mg9 3.219538 1_545
Bi1 Mg10 3.219538 1_555
