# generated using pymatgen
data_Ca2CuSbO6
_symmetry_space_group_name_H-M   'P 1'
_cell_length_a   7.53133700
_cell_length_b   5.78078500
_cell_length_c   5.91547794
_cell_angle_alpha   77.18468600
_cell_angle_beta   90.00000000
_cell_angle_gamma   90.00000000
_symmetry_Int_Tables_number   1
_chemical_formula_structural   Ca2CuSbO6
_chemical_formula_sum   'Ca4 Cu2 Sb2 O12'
_cell_volume   251.12704508
_cell_formula_units_Z   2
loop_
 _symmetry_equiv_pos_site_id
 _symmetry_equiv_pos_as_xyz
  1  'x, y, z'
loop_
 _atom_site_type_symbol
 _atom_site_label
 _atom_site_symmetry_multiplicity
 _atom_site_fract_x
 _atom_site_fract_y
 _atom_site_fract_z
 _atom_site_occupancy
  Ca  Ca0  1  0.75000000  0.47115700  0.57394600  1
  Ca  Ca1  1  0.25000000  0.52884300  0.42605400  1
  Ca  Ca2  1  0.75000000  0.94798400  0.03909800  1
  Ca  Ca3  1  0.25000000  0.05201600  0.96090200  1
  Cu  Cu0  1  0.50000000  0.50000000  0.00000000  1
  Cu  Cu1  1  0.00000000  0.50000000  0.00000000  1
  Sb  Sb0  1  0.50000000  0.00000000  0.50000000  1
  Sb  Sb1  1  0.00000000  0.00000000  0.50000000  1
  O  O0  1  0.46096000  0.66106100  0.69005200  1
  O  O1  1  0.05328700  0.85990200  0.23448600  1
  O  O2  1  0.96096000  0.33893900  0.30994800  1
  O  O3  1  0.55328700  0.14009800  0.76551400  1
  O  O4  1  0.44671300  0.85990200  0.23448600  1
  O  O5  1  0.94671300  0.14009800  0.76551400  1
  O  O6  1  0.25000000  0.09758900  0.55566500  1
  O  O7  1  0.03904000  0.66106100  0.69005200  1
  O  O8  1  0.75000000  0.57589600  0.94409800  1
  O  O9  1  0.53904000  0.33893900  0.30994800  1
  O  O10  1  0.75000000  0.90241100  0.44433500  1
  O  O11  1  0.25000000  0.42410400  0.05590200  1
loop_
_geom_bond_atom_site_label_1
_geom_bond_atom_site_label_2
_geom_bond_distance
_geom_bond_site_symmetry_2
Ca0 O8 2.397747 1_555
Ca0 O10 2.440266 1_555
Ca0 O2 2.465127 1_555
Ca0 O9 2.465127 1_555
Ca0 O5 2.485865 1_555
Ca0 O3 2.485865 1_555
Ca0 O7 2.598090 1_655
Ca0 O0 2.598090 1_555
Ca1 O11 2.397747 1_555
Ca1 O6 2.440266 1_555
Ca1 O0 2.465127 1_555
Ca1 O7 2.465127 1_555
Ca1 O4 2.485865 1_555
Ca1 O1 2.485865 1_555
Ca1 O9 2.598090 1_555
Ca1 O2 2.598090 1_455
Ca2 O5 2.291303 1_564
Ca2 O3 2.291303 1_564
Ca2 O8 2.340658 1_554
Ca2 O10 2.352801 1_555
Ca2 O4 2.559583 1_555
Ca2 O1 2.559583 1_655
Ca3 O4 2.291303 1_546
Ca3 O1 2.291303 1_546
Ca3 O11 2.340658 1_556
Ca3 O6 2.352801 1_555
Ca3 O3 2.559583 1_555
Ca3 O5 2.559583 1_455
Cu0 O9 1.886190 1_555
Cu0 O0 1.886190 1_554
Cu0 O8 1.944877 1_554
Cu0 O11 1.944877 1_555
Cu1 O2 1.886190 1_455
Cu1 O7 1.886190 1_554
Cu1 O8 1.944877 1_454
Cu1 O11 1.944877 1_555
O0 Sb0 2.052360 1_565
O1 Sb1 1.961675 1_565
O2 Sb1 2.052360 1_655
O3 Sb0 1.961675 1_555
O4 Sb0 1.961675 1_565
O5 Sb1 1.961675 1_655
O6 Sb0 2.013494 1_555
O6 Sb1 2.013494 1_555
O7 Sb1 2.052360 1_565
O9 Sb0 2.052360 1_555
O10 Sb0 2.013494 1_565
O10 Sb1 2.013494 1_665
