# generated using pymatgen
data_Dy6Cu23
_symmetry_space_group_name_H-M   'P 1'
_cell_length_a   8.50133737
_cell_length_b   8.50133592
_cell_length_c   8.50135758
_cell_angle_alpha   59.99991572
_cell_angle_beta   59.99991572
_cell_angle_gamma   59.99985390
_symmetry_Int_Tables_number   1
_chemical_formula_structural   Dy6Cu23
_chemical_formula_sum   'Dy6 Cu23'
_cell_volume   434.45688231
_cell_formula_units_Z   1
loop_
 _symmetry_equiv_pos_site_id
 _symmetry_equiv_pos_as_xyz
  1  'x, y, z'
loop_
 _atom_site_type_symbol
 _atom_site_label
 _atom_site_symmetry_multiplicity
 _atom_site_fract_x
 _atom_site_fract_y
 _atom_site_fract_z
 _atom_site_occupancy
  Dy  Dy0  1  0.71459684  0.71459684  0.28540316  1
  Dy  Dy1  1  0.28540316  0.71459684  0.28540316  1
  Dy  Dy2  1  0.71459684  0.28540316  0.28540316  1
  Dy  Dy3  1  0.28540316  0.28540316  0.71459684  1
  Dy  Dy4  1  0.71459684  0.28540316  0.71459684  1
  Dy  Dy5  1  0.28540316  0.71459684  0.71459684  1
  Cu  Cu0  1  0.00000000  -0.00000000  0.00000000  1
  Cu  Cu1  1  0.00000000  -0.00000000  0.50000000  1
  Cu  Cu2  1  0.50000000  -0.00000000  0.50000000  1
  Cu  Cu3  1  0.00000000  0.50000000  0.50000000  1
  Cu  Cu4  1  0.50000000  0.50000000  0.00000000  1
  Cu  Cu5  1  0.00000000  0.50000000  0.00000000  1
  Cu  Cu6  1  0.50000000  -0.00000000  0.00000000  1
  Cu  Cu7  1  0.87720802  0.87720802  0.36837495  1
  Cu  Cu8  1  0.87720702  0.36837495  0.87720802  1
  Cu  Cu9  1  0.36837495  0.87720802  0.87720802  1
  Cu  Cu10  1  0.87720802  0.87720802  0.87720902  1
  Cu  Cu11  1  0.12279198  0.12279198  0.63162505  1
  Cu  Cu12  1  0.12279298  0.63162505  0.12279198  1
  Cu  Cu13  1  0.63162505  0.12279198  0.12279198  1
  Cu  Cu14  1  0.12279198  0.12279198  0.12279098  1
  Cu  Cu15  1  0.67450014  0.67450014  0.97649858  1
  Cu  Cu16  1  0.67450014  0.97649758  0.67450114  1
  Cu  Cu17  1  0.97649758  0.67450014  0.67450114  1
  Cu  Cu18  1  0.67450014  0.67450014  0.67450114  1
  Cu  Cu19  1  0.32549986  0.32549986  0.02350142  1
  Cu  Cu20  1  0.32549986  0.02350242  0.32549886  1
  Cu  Cu21  1  0.02350242  0.32549986  0.32549886  1
  Cu  Cu22  1  0.32549986  0.32549986  0.32549886  1
loop_
_geom_bond_atom_site_label_1
_geom_bond_atom_site_label_2
_geom_bond_distance
_geom_bond_site_symmetry_2
Cu0 Cu12 2.557001 1_545
Cu0 Cu8 2.557001 1_454
Cu0 Cu13 2.557002 1_455
Cu0 Cu9 2.557002 1_544
Cu0 Cu7 2.557010 1_445
Cu0 Cu11 2.557010 1_554
Cu0 Cu14 2.557010 1_555
Cu0 Cu10 2.557010 1_444
Cu1 Cu17 2.459544 1_445
Cu1 Cu21 2.459544 1_555
Cu1 Cu16 2.459544 1_445
Cu1 Cu20 2.459544 1_555
Cu1 Cu10 2.618689 1_445
Cu1 Cu14 2.618689 1_555
Cu1 Cu11 2.618689 1_555
Cu1 Cu7 2.618689 1_445
Cu1 Dy4 3.035663 1_455
Cu1 Dy1 3.035663 1_545
Cu1 Dy5 3.035663 1_545
Cu1 Dy2 3.035663 1_455
Cu2 Cu22 2.459539 1_555
Cu2 Cu20 2.459542 1_555
Cu2 Cu7 2.618674 1_545
Cu2 Cu9 2.618682 1_545
Cu2 Dy2 3.035664 1_555
Cu2 Dy5 3.035664 1_545
Cu2 Dy0 3.035665 1_545
Cu2 Dy3 3.035665 1_555
Cu3 Cu7 2.618673 1_455
Cu3 Cu8 2.618682 1_455
Cu3 Dy4 3.035664 1_455
Cu3 Dy1 3.035664 1_555
Cu3 Dy0 3.035665 1_455
Cu3 Dy3 3.035665 1_555
Cu4 Cu8 2.618667 1_554
Cu4 Cu9 2.618673 1_554
Cu4 Dy4 3.035667 1_554
Cu4 Dy1 3.035667 1_555
Cu4 Dy2 3.035667 1_555
Cu4 Dy5 3.035667 1_554
Cu5 Cu8 2.618696 1_454
Cu5 Dy5 3.035664 1_554
Cu5 Dy2 3.035664 1_455
Cu5 Dy3 3.035665 1_554
Cu5 Dy0 3.035665 1_455
Cu6 Cu9 2.618689 1_544
Cu6 Dy4 3.035664 1_554
Cu6 Dy1 3.035664 1_545
Cu6 Dy0 3.035665 1_545
Cu6 Dy3 3.035665 1_554
Cu7 Dy2 2.860241 1_565
Cu7 Dy1 2.860242 1_655
Cu7 Dy0 2.860243 1_555
Cu8 Dy4 2.860237 1_555
Cu8 Dy3 2.860250 1_655
Cu8 Dy2 2.860251 1_556
Cu9 Dy3 2.860242 1_565
Cu9 Dy5 2.860244 1_555
Cu9 Dy1 2.860251 1_556
Cu10 Cu15 2.590835 1_555
Cu10 Cu17 2.590838 1_555
Cu10 Cu16 2.590838 1_555
Cu10 Cu5 2.618673 1_656
Cu10 Cu6 2.618674 1_566
Cu10 Dy4 2.860242 1_565
Cu10 Dy5 2.860242 1_655
Cu10 Dy0 2.860243 1_556
Cu10 Cu13 2.952578 1_566
Cu10 Cu11 2.952583 1_665
Cu10 Cu12 2.952584 1_656
Cu11 Cu22 2.590835 1_555
Cu11 Cu20 2.590838 1_555
Cu11 Cu21 2.590838 1_555
Cu11 Cu3 2.618673 1_555
Cu11 Cu2 2.618674 1_555
Cu11 Dy5 2.860241 1_545
Cu11 Dy4 2.860242 1_455
Cu11 Dy3 2.860243 1_555
Cu11 Cu8 2.952572 1_455
Cu11 Cu9 2.952572 1_545
Cu12 Cu22 2.590821 1_555
Cu12 Cu19 2.590829 1_555
Cu12 Cu21 2.590831 1_555
Cu12 Cu4 2.618667 1_555
Cu12 Cu3 2.618682 1_555
Cu12 Cu5 2.618696 1_555
Cu12 Dy1 2.860237 1_555
Cu12 Dy0 2.860250 1_455
Cu12 Dy5 2.860251 1_554
Cu12 Cu9 2.952565 1_554
Cu12 Cu7 2.952572 1_455
Cu13 Cu22 2.590825 1_555
Cu13 Cu20 2.590827 1_555
Cu13 Cu19 2.590830 1_555
Cu13 Cu4 2.618673 1_555
Cu13 Cu2 2.618682 1_555
Cu13 Cu6 2.618689 1_555
Cu13 Dy0 2.860242 1_545
Cu13 Dy2 2.860244 1_555
Cu13 Dy4 2.860251 1_554
Cu13 Cu8 2.952565 1_554
Cu13 Cu7 2.952572 1_545
Cu14 Cu19 2.590835 1_555
Cu14 Cu21 2.590838 1_555
Cu14 Cu20 2.590838 1_555
Cu14 Cu5 2.618673 1_555
Cu14 Cu6 2.618674 1_555
Cu14 Dy1 2.860242 1_545
Cu14 Dy2 2.860242 1_455
Cu14 Dy3 2.860243 1_554
Cu14 Cu9 2.952578 1_544
Cu14 Cu7 2.952583 1_445
Cu14 Cu8 2.952584 1_454
Cu15 Cu4 2.459537 1_556
Cu15 Cu6 2.459539 1_566
Cu15 Cu5 2.459540 1_656
Cu15 Cu16 2.567382 1_555
Cu15 Cu17 2.567382 1_555
Cu15 Cu18 2.567388 1_555
Cu15 Cu8 2.590829 1_555
Cu15 Cu9 2.590830 1_555
Cu15 Dy2 3.005878 1_556
Cu15 Dy1 3.005879 1_556
Cu15 Dy0 3.005893 1_556
Cu16 Cu6 2.459542 1_566
Cu16 Cu2 2.459542 1_565
Cu16 Cu17 2.567376 1_555
Cu16 Cu18 2.567382 1_555
Cu16 Cu9 2.590827 1_555
Cu16 Cu7 2.590838 1_555
Cu16 Dy3 3.005877 1_565
Cu16 Dy2 3.005890 1_565
Cu16 Dy4 3.005890 1_565
Cu17 Cu3 2.459542 1_655
Cu17 Cu5 2.459542 1_656
Cu17 Cu18 2.567382 1_555
Cu17 Cu8 2.590831 1_555
Cu17 Cu7 2.590838 1_555
Cu17 Dy3 3.005877 1_655
Cu17 Dy1 3.005890 1_655
Cu17 Dy5 3.005890 1_655
Cu18 Cu4 2.459537 1_556
Cu18 Cu2 2.459539 1_565
Cu18 Cu3 2.459539 1_655
Cu18 Cu8 2.590821 1_555
Cu18 Cu9 2.590825 1_555
Cu18 Cu7 2.590835 1_555
Cu18 Dy4 3.005878 1_555
Cu18 Dy5 3.005879 1_555
Cu18 Dy0 3.005893 1_555
Cu19 Cu4 2.459537 1_555
Cu19 Cu6 2.459539 1_555
Cu19 Cu5 2.459540 1_555
Cu19 Cu20 2.567382 1_555
Cu19 Cu21 2.567382 1_555
Cu19 Cu22 2.567388 1_555
Cu19 Dy5 3.005878 1_554
Cu19 Dy4 3.005879 1_554
Cu19 Dy3 3.005893 1_554
Cu20 Cu6 2.459542 1_555
Cu20 Cu21 2.567376 1_555
Cu20 Cu22 2.567382 1_555
Cu20 Dy0 3.005877 1_545
Cu20 Dy5 3.005890 1_545
Cu20 Dy1 3.005890 1_545
Cu21 Cu3 2.459542 1_555
Cu21 Cu5 2.459542 1_555
Cu21 Cu22 2.567382 1_555
Cu21 Dy0 3.005877 1_455
Cu21 Dy4 3.005890 1_455
Cu21 Dy2 3.005890 1_455
Cu22 Cu4 2.459537 1_555
Cu22 Cu3 2.459539 1_555
Cu22 Dy1 3.005878 1_555
Cu22 Dy2 3.005879 1_555
Cu22 Dy3 3.005893 1_555
