# generated using pymatgen
data_BaMoO2
_symmetry_space_group_name_H-M   'P 1'
_cell_length_a   8.02062116
_cell_length_b   8.02062116
_cell_length_c   8.02062116
_cell_angle_alpha   129.36798950
_cell_angle_beta   129.36798950
_cell_angle_gamma   74.41917937
_symmetry_Int_Tables_number   1
_chemical_formula_structural   BaMoO2
_chemical_formula_sum   'Ba4 Mo4 O8'
_cell_volume   300.55739980
_cell_formula_units_Z   4
loop_
 _symmetry_equiv_pos_site_id
 _symmetry_equiv_pos_as_xyz
  1  'x, y, z'
loop_
 _atom_site_type_symbol
 _atom_site_label
 _atom_site_symmetry_multiplicity
 _atom_site_fract_x
 _atom_site_fract_y
 _atom_site_fract_z
 _atom_site_occupancy
  Ba  Ba0  1  0.87500000  0.62500000  0.25000000  1
  Ba  Ba1  1  0.37500000  0.62500000  0.75000000  1
  Ba  Ba2  1  0.37500000  0.62500000  0.25000000  1
  Ba  Ba3  1  0.37500000  0.12500000  0.75000000  1
  Mo  Mo0  1  0.37500000  0.12500000  0.25000000  1
  Mo  Mo1  1  0.87500000  0.12500000  0.75000000  1
  Mo  Mo2  1  0.87500000  0.12500000  0.25000000  1
  Mo  Mo3  1  0.87500000  0.62500000  0.75000000  1
  O  O0  1  0.15855700  0.36203400  0.20347700  1
  O  O1  1  0.15855700  0.95508000  0.79652300  1
  O  O2  1  0.11203400  0.40855700  0.70347700  1
  O  O3  1  0.59144300  0.88796600  0.29652300  1
  O  O4  1  0.70508000  0.40855700  0.29652300  1
  O  O5  1  0.59144300  0.29492000  0.70347700  1
  O  O6  1  0.63796600  0.84144300  0.79652300  1
  O  O7  1  0.04492000  0.84144300  0.20347700  1
loop_
_geom_bond_atom_site_label_1
_geom_bond_atom_site_label_2
_geom_bond_distance
_geom_bond_site_symmetry_2
Ba0 O5 2.694725 1_554
Ba0 O1 2.694725 1_655
Ba0 O3 2.694725 1_555
Ba0 O0 2.694725 1_655
Ba0 O7 2.783565 1_655
Ba0 O4 2.783565 1_555
Ba1 O5 2.694725 1_555
Ba1 O0 2.694725 1_555
Ba1 O1 2.694725 1_555
Ba1 O3 2.694725 1_556
Ba1 O6 2.783565 1_555
Ba1 O2 2.783565 1_555
Ba2 O7 2.694725 1_555
Ba2 O2 2.694725 1_554
Ba2 O4 2.694725 1_555
Ba2 O6 2.694725 1_555
Ba2 O3 2.783565 1_555
Ba2 O0 2.783565 1_555
Ba3 O2 2.694725 1_555
Ba3 O4 2.694725 1_556
Ba3 O7 2.694725 1_545
Ba3 O6 2.694725 1_545
Ba3 O5 2.783565 1_555
Ba3 O1 2.783565 1_545
Mo0 O0 2.252237 1_555
Mo0 O1 2.252237 1_544
Mo0 O5 2.252237 1_555
Mo0 O3 2.252237 1_545
Mo1 O0 2.252237 1_656
Mo1 O1 2.252237 1_645
Mo1 O3 2.252237 1_545
Mo1 O5 2.252237 1_555
Mo2 O4 2.252237 1_555
Mo2 O2 2.252237 1_655
Mo2 O6 2.252237 1_544
Mo2 O7 2.252237 1_645
Mo3 O2 2.252237 1_655
Mo3 O7 2.252237 1_656
Mo3 O4 2.252237 1_555
Mo3 O6 2.252237 1_555
