# generated using pymatgen
data_Ba3SrCo(CuO4)3
_symmetry_space_group_name_H-M   'P 1'
_cell_length_a   7.97109929
_cell_length_b   7.97109929
_cell_length_c   3.98441200
_cell_angle_alpha   90.00000000
_cell_angle_beta   90.00000000
_cell_angle_gamma   90.15802952
_symmetry_Int_Tables_number   1
_chemical_formula_structural   Ba3SrCo(CuO4)3
_chemical_formula_sum   'Ba3 Sr1 Co1 Cu3 O12'
_cell_volume   253.16229551
_cell_formula_units_Z   1
loop_
 _symmetry_equiv_pos_site_id
 _symmetry_equiv_pos_as_xyz
  1  'x, y, z'
loop_
 _atom_site_type_symbol
 _atom_site_label
 _atom_site_symmetry_multiplicity
 _atom_site_fract_x
 _atom_site_fract_y
 _atom_site_fract_z
 _atom_site_occupancy
  Ba  Ba0  1  0.75059400  0.24865700  0.50000000  1
  Ba  Ba1  1  0.24832600  0.24832600  0.50000000  1
  Ba  Ba2  1  0.24865700  0.75059400  0.50000000  1
  Sr  Sr0  1  0.75315700  0.75315700  0.50000000  1
  Co  Co0  1  0.50276100  0.50276100  0.00000000  1
  Cu  Cu0  1  0.99961200  0.99961200  0.00000000  1
  Cu  Cu1  1  0.00028800  0.50070800  0.00000000  1
  Cu  Cu2  1  0.50070800  0.00028800  0.00000000  1
  O  O0  1  0.99219400  0.99219400  0.50000000  1
  O  O1  1  0.99212900  0.50794900  0.50000000  1
  O  O2  1  0.50794900  0.99212900  0.50000000  1
  O  O3  1  0.50448600  0.50448600  0.50000000  1
  O  O4  1  0.74853600  0.98817800  0.00000000  1
  O  O5  1  0.74301000  0.50891700  0.00000000  1
  O  O6  1  0.25164000  0.99733700  0.00000000  1
  O  O7  1  0.25965200  0.50186700  0.00000000  1
  O  O8  1  0.99733700  0.25164000  0.00000000  1
  O  O9  1  0.98817800  0.74853600  0.00000000  1
  O  O10  1  0.50186700  0.25965200  0.00000000  1
  O  O11  1  0.50891700  0.74301000  0.00000000  1
loop_
_geom_bond_atom_site_label_1
_geom_bond_atom_site_label_2
_geom_bond_distance
_geom_bond_site_symmetry_2
Ba0 O8 2.799562 1_555
Ba0 O8 2.799562 1_556
Ba0 O2 2.810758 1_545
Ba0 O10 2.812177 1_555
Ba0 O10 2.812177 1_556
Ba0 O0 2.812405 1_545
Ba0 O1 2.820756 1_555
Ba0 O3 2.833554 1_555
Ba0 O5 2.876982 1_556
Ba0 O5 2.876982 1_555
Ba0 O4 2.877500 1_546
Ba0 O4 2.877500 1_545
Ba1 O6 2.823563 1_546
Ba1 O6 2.823563 1_545
Ba1 O8 2.823563 1_455
Ba1 O8 2.823563 1_456
Ba1 O10 2.839097 1_555
Ba1 O10 2.839097 1_556
Ba1 O7 2.839097 1_555
Ba1 O7 2.839097 1_556
Ba1 O0 2.883350 1_445
Ba1 O3 2.883665 1_555
Ba1 O2 2.911448 1_545
Ba1 O1 2.911448 1_455
Ba2 O6 2.799562 1_556
Ba2 O6 2.799562 1_555
Ba2 O1 2.810758 1_455
Ba2 O7 2.812177 1_555
Ba2 O7 2.812177 1_556
Ba2 O0 2.812405 1_455
Ba2 O2 2.820756 1_555
Ba2 O3 2.833554 1_555
Ba2 O11 2.876982 1_556
Ba2 O11 2.876982 1_555
Ba2 O9 2.877500 1_456
Ba2 O9 2.877500 1_455
Co0 O11 1.915542 1_555
Co0 O5 1.915542 1_555
Co0 O10 1.937839 1_555
Co0 O7 1.937839 1_555
Co0 O3 1.992301 1_555
Co0 O3 1.992301 1_554
Cu0 O0 1.993955 1_554
Cu0 O0 1.993955 1_555
Cu0 O9 2.003175 1_555
Cu0 O4 2.003175 1_555
Cu0 O6 2.009072 1_655
Cu0 O8 2.009072 1_565
Cu1 O9 1.978085 1_455
Cu1 O8 1.985420 1_455
Cu1 O1 1.994108 1_455
Cu1 O1 1.994108 1_454
Cu1 O5 2.052013 1_455
Cu1 O7 2.067411 1_555
Cu2 O4 1.978085 1_545
Cu2 O6 1.985420 1_545
Cu2 O2 1.994108 1_544
Cu2 O2 1.994108 1_545
Cu2 O11 2.052013 1_545
Cu2 O10 2.067411 1_555
O0 Sr0 2.690906 1_555
O1 Sr0 2.733027 1_555
O2 Sr0 2.733027 1_555
O3 Sr0 2.799359 1_555
O4 Sr0 2.734988 1_554
O4 Sr0 2.734988 1_555
O5 Sr0 2.786544 1_554
O5 Sr0 2.786544 1_555
O9 Sr0 2.734988 1_554
O9 Sr0 2.734988 1_555
O11 Sr0 2.786544 1_554
O11 Sr0 2.786544 1_555
