# generated using pymatgen
data_Pr3Co29(Si2B5)2
_symmetry_space_group_name_H-M   'P 1'
_cell_length_a   11.18675800
_cell_length_b   11.18675800
_cell_length_c   7.86063200
_cell_angle_alpha   90.00000000
_cell_angle_beta   90.00000000
_cell_angle_gamma   90.00000000
_symmetry_Int_Tables_number   1
_chemical_formula_structural   Pr3Co29(Si2B5)2
_chemical_formula_sum   'Pr6 Co58 Si8 B20'
_cell_volume   983.70742949
_cell_formula_units_Z   2
loop_
 _symmetry_equiv_pos_site_id
 _symmetry_equiv_pos_as_xyz
  1  'x, y, z'
loop_
 _atom_site_type_symbol
 _atom_site_label
 _atom_site_symmetry_multiplicity
 _atom_site_fract_x
 _atom_site_fract_y
 _atom_site_fract_z
 _atom_site_occupancy
  Pr  Pr0  1  0.25000000  0.75000000  0.00000000  1
  Pr  Pr1  1  0.25000000  0.25000000  0.00000000  1
  Pr  Pr2  1  0.75000000  0.75000000  0.00000000  1
  Pr  Pr3  1  0.75000000  0.25000000  0.00000000  1
  Pr  Pr4  1  0.00000000  0.00000000  0.50000000  1
  Pr  Pr5  1  0.50000000  0.50000000  0.50000000  1
  Co  Co0  1  0.33824500  0.67491400  0.33735600  1
  Co  Co1  1  0.27468700  0.00000000  0.52516300  1
  Co  Co2  1  0.50000000  0.77468700  0.52516300  1
  Co  Co3  1  0.50000000  0.22531300  0.52516300  1
  Co  Co4  1  0.83625700  0.50000000  0.97175400  1
  Co  Co5  1  0.00000000  0.66374300  0.97175400  1
  Co  Co6  1  0.00000000  0.33625700  0.97175400  1
  Co  Co7  1  0.16374300  0.50000000  0.97175400  1
  Co  Co8  1  0.66374300  0.00000000  0.02824600  1
  Co  Co9  1  0.33625700  0.00000000  0.02824600  1
  Co  Co10  1  0.50000000  0.83625700  0.02824600  1
  Co  Co11  1  0.50000000  0.16374300  0.02824600  1
  Co  Co12  1  0.88640300  0.38640300  0.25305900  1
  Co  Co13  1  0.88640300  0.61359700  0.25305900  1
  Co  Co14  1  0.11359700  0.38640300  0.25305900  1
  Co  Co15  1  0.11359700  0.61359700  0.25305900  1
  Co  Co16  1  0.61359700  0.88640300  0.74694100  1
  Co  Co17  1  0.38640300  0.11359700  0.74694100  1
  Co  Co18  1  0.38640300  0.88640300  0.74694100  1
  Co  Co19  1  0.61359700  0.11359700  0.74694100  1
  Co  Co20  1  0.89052500  0.39052500  0.69824400  1
  Co  Co21  1  0.89052500  0.60947500  0.69824400  1
  Co  Co22  1  0.10947500  0.39052500  0.69824400  1
  Co  Co23  1  0.10947500  0.60947500  0.69824400  1
  Co  Co24  1  0.60947500  0.89052500  0.30175600  1
  Co  Co25  1  0.39052500  0.10947500  0.30175600  1
  Co  Co26  1  0.39052500  0.89052500  0.30175600  1
  Co  Co27  1  0.60947500  0.10947500  0.30175600  1
  Co  Co28  1  0.33824500  0.32508600  0.33735600  1
  Co  Co29  1  0.82508600  0.16175500  0.33735600  1
  Co  Co30  1  0.17491400  0.83824500  0.33735600  1
  Co  Co31  1  0.66175500  0.67491400  0.33735600  1
  Co  Co32  1  0.16175500  0.82508600  0.66264400  1
  Co  Co33  1  0.83824500  0.17491400  0.66264400  1
  Co  Co34  1  0.32508600  0.33824500  0.66264400  1
  Co  Co35  1  0.61021400  0.50000000  0.88903700  1
  Co  Co36  1  0.16175500  0.17491400  0.66264400  1
  Co  Co37  1  0.67491400  0.33824500  0.66264400  1
  Co  Co38  1  0.32508600  0.66175500  0.66264400  1
  Co  Co39  1  0.83824500  0.82508600  0.66264400  1
  Co  Co40  1  0.72531300  0.00000000  0.52516300  1
  Co  Co41  1  0.00000000  0.88978600  0.88903700  1
  Co  Co42  1  0.17491400  0.16175500  0.33735600  1
  Co  Co43  1  0.82508600  0.83824500  0.33735600  1
  Co  Co44  1  0.00000000  0.11021400  0.88903700  1
  Co  Co45  1  0.38978600  0.50000000  0.88903700  1
  Co  Co46  1  0.50000000  0.00000000  0.53089300  1
  Co  Co47  1  0.00000000  0.50000000  0.46910700  1
  Co  Co48  1  0.11021400  0.00000000  0.11096300  1
  Co  Co49  1  0.22531300  0.50000000  0.47483700  1
  Co  Co50  1  0.00000000  0.27468700  0.47483700  1
  Co  Co51  1  0.00000000  0.72531300  0.47483700  1
  Co  Co52  1  0.77468700  0.50000000  0.47483700  1
  Co  Co53  1  0.50000000  0.61021400  0.11096300  1
  Co  Co54  1  0.50000000  0.38978600  0.11096300  1
  Co  Co55  1  0.88978600  0.00000000  0.11096300  1
  Co  Co56  1  0.67491400  0.66175500  0.66264400  1
  Co  Co57  1  0.66175500  0.32508600  0.33735600  1
  Si  Si0  1  0.50000000  0.68133400  0.82395300  1
  Si  Si1  1  0.31866600  0.50000000  0.17604700  1
  Si  Si2  1  0.00000000  0.18133400  0.17604700  1
  Si  Si3  1  0.00000000  0.81866600  0.17604700  1
  Si  Si4  1  0.68133400  0.50000000  0.17604700  1
  Si  Si5  1  0.18133400  0.00000000  0.82395300  1
  Si  Si6  1  0.81866600  0.00000000  0.82395300  1
  Si  Si7  1  0.50000000  0.31866600  0.82395300  1
  B  B0  1  0.68629800  0.18629800  0.51753100  1
  B  B1  1  0.31370200  0.81370200  0.51753100  1
  B  B2  1  0.31370200  0.18629800  0.51753100  1
  B  B3  1  0.68629800  0.81370200  0.51753100  1
  B  B4  1  0.18629800  0.68629800  0.48246900  1
  B  B5  1  0.18629800  0.31370200  0.48246900  1
  B  B6  1  0.50000000  0.25593300  0.26179300  1
  B  B7  1  0.50000000  0.74406700  0.26179300  1
  B  B8  1  0.24406700  0.00000000  0.26179300  1
  B  B9  1  0.75593300  0.00000000  0.26179300  1
  B  B10  1  0.25593300  0.50000000  0.73820700  1
  B  B11  1  0.00000000  0.24406700  0.73820700  1
  B  B12  1  0.00000000  0.75593300  0.73820700  1
  B  B13  1  0.74406700  0.50000000  0.73820700  1
  B  B14  1  0.50000000  0.00000000  0.14828300  1
  B  B15  1  0.00000000  0.50000000  0.85171700  1
  B  B16  1  0.50000000  0.00000000  0.89333500  1
  B  B17  1  0.00000000  0.50000000  0.10666500  1
  B  B18  1  0.81370200  0.68629800  0.48246900  1
  B  B19  1  0.81370200  0.31370200  0.48246900  1
loop_
_geom_bond_atom_site_label_1
_geom_bond_atom_site_label_2
_geom_bond_distance
_geom_bond_site_symmetry_2
Pr0 Si3 3.213494 1_555
Pr0 Si1 3.213494 1_555
Pr0 Si5 3.213494 1_564
Pr0 Si0 3.213494 1_554
Pr1 Si1 3.213494 1_555
Pr1 Si2 3.213494 1_555
Pr1 Si5 3.213494 1_554
Pr1 Si7 3.213494 1_554
Pr2 Si3 3.213494 1_655
Pr2 Si4 3.213494 1_555
Pr2 Si6 3.213494 1_564
Pr2 Si0 3.213494 1_554
Pr3 Si2 3.213494 1_655
Pr3 Si4 3.213494 1_555
Pr3 Si6 3.213494 1_554
Pr3 Si7 3.213494 1_554
Pr4 Si6 3.255689 1_455
Pr4 Si5 3.255689 1_555
Pr4 Si2 3.255689 1_555
Pr4 Si3 3.255689 1_545
Pr5 Si0 3.255689 1_555
Pr5 Si7 3.255689 1_555
Pr5 Si1 3.255689 1_555
Pr5 Si4 3.255689 1_555
Co0 Si1 2.341907 1_555
Co0 Pr0 2.951656 1_555
Co0 Pr5 2.955946 1_555
Co1 Co46 2.520924 1_555
Co1 Si5 2.570387 1_555
Co1 Pr4 3.079216 1_555
Co2 Co46 2.520924 1_565
Co2 Si0 2.570387 1_555
Co2 Pr5 3.079216 1_555
Co3 Co46 2.520924 1_555
Co3 Si7 2.570387 1_555
Co3 Pr5 3.079216 1_555
Co4 Si4 2.362713 1_556
Co4 Pr3 2.966795 1_556
Co4 Pr2 2.966795 1_556
Co5 Si3 2.362713 1_556
Co5 Pr0 2.966795 1_556
Co5 Pr2 2.966795 1_456
Co6 Si2 2.362713 1_556
Co6 Pr1 2.966795 1_556
Co6 Pr3 2.966795 1_456
Co7 Si1 2.362713 1_556
Co7 Pr0 2.966795 1_556
Co7 Pr1 2.966795 1_556
Co8 Si6 2.362713 1_554
Co8 Pr2 2.966795 1_545
Co8 Pr3 2.966795 1_555
Co9 Si5 2.362713 1_554
Co9 Pr0 2.966795 1_545
Co9 Pr1 2.966795 1_555
Co10 Si0 2.362713 1_554
Co10 Pr2 2.966795 1_555
Co10 Pr0 2.966795 1_555
Co11 Si7 2.362713 1_554
Co11 Pr1 2.966795 1_555
Co11 Pr3 2.966795 1_555
Co12 Co47 2.472632 1_655
Co12 Si4 2.691477 1_555
Co12 Si2 2.691477 1_655
Co12 Pr3 2.934914 1_555
Co13 Co47 2.472632 1_655
Co13 Si4 2.691477 1_555
Co13 Si3 2.691477 1_655
Co13 Pr2 2.934914 1_555
Co14 Co47 2.472632 1_555
Co14 Si2 2.691477 1_555
Co14 Si1 2.691477 1_555
Co14 Pr1 2.934914 1_555
Co15 Co47 2.472632 1_555
Co15 Si3 2.691477 1_555
Co15 Si1 2.691477 1_555
Co15 Pr0 2.934914 1_555
Co16 Co46 2.472632 1_565
Co16 Si0 2.691477 1_555
Co16 Si6 2.691477 1_565
Co16 Pr2 2.934914 1_556
Co17 Co46 2.472632 1_555
Co17 Si5 2.691477 1_555
Co17 Si7 2.691477 1_555
Co17 Pr1 2.934914 1_556
Co18 Co46 2.472632 1_565
Co18 Si0 2.691477 1_555
Co18 Si5 2.691477 1_565
Co18 Pr0 2.934914 1_556
Co19 Co46 2.472632 1_555
Co19 Si6 2.691477 1_555
Co19 Si7 2.691477 1_555
Co19 Pr3 2.934914 1_556
Co20 Co47 2.498763 1_655
Co20 Pr3 3.250975 1_556
Co21 Co47 2.498763 1_655
Co21 Pr2 3.250975 1_556
Co22 Co47 2.498763 1_555
Co22 Pr1 3.250975 1_556
Co23 Co47 2.498763 1_555
Co23 Pr0 3.250975 1_556
Co24 Co46 2.498763 1_565
Co24 Pr2 3.250975 1_555
Co25 Co46 2.498763 1_555
Co25 Pr1 3.250975 1_555
Co26 Co46 2.498763 1_565
Co26 Pr0 3.250975 1_555
Co27 Co46 2.498763 1_555
Co27 Pr3 3.250975 1_555
Co28 Si1 2.341907 1_555
Co28 Pr1 2.951656 1_555
Co28 Pr5 2.955946 1_555
Co29 Si2 2.341907 1_655
Co29 Pr3 2.951656 1_555
Co29 Pr4 2.955946 1_655
Co30 Si3 2.341907 1_555
Co30 Pr0 2.951656 1_555
Co30 Pr4 2.955946 1_565
Co31 Si4 2.341907 1_555
Co31 Pr2 2.951656 1_555
Co31 Pr5 2.955946 1_555
Co32 Si5 2.341907 1_565
Co32 Pr0 2.951656 1_556
Co32 Pr4 2.955946 1_565
Co33 Si6 2.341907 1_555
Co33 Pr3 2.951656 1_556
Co33 Pr4 2.955946 1_655
Co34 Si7 2.341907 1_555
Co34 Pr1 2.951656 1_556
Co34 Pr5 2.955946 1_555
Co35 Si4 2.392254 1_556
Co35 Si7 2.428342 1_555
Co35 Si0 2.428342 1_555
Co35 Pr5 3.297267 1_555
Co35 Pr2 3.320782 1_556
Co35 Pr3 3.320782 1_556
Co36 Si5 2.341907 1_555
Co36 Pr1 2.951656 1_556
Co36 Pr4 2.955946 1_555
Co37 Si7 2.341907 1_555
Co37 Pr3 2.951656 1_556
Co37 Pr5 2.955946 1_555
Co38 Si0 2.341907 1_555
Co38 Pr0 2.951656 1_556
Co38 Pr5 2.955946 1_555
Co39 Si6 2.341907 1_565
Co39 Pr2 2.951656 1_556
Co39 Pr4 2.955946 1_665
Co40 Co46 2.520924 1_555
Co40 Si6 2.570387 1_555
Co40 Pr4 3.079216 1_655
Co41 Si3 2.392254 1_556
Co41 Si6 2.428342 1_465
Co41 Si5 2.428342 1_565
Co41 Pr4 3.297267 1_565
Co41 Pr0 3.320782 1_556
Co41 Pr2 3.320782 1_456
Co42 Si2 2.341907 1_555
Co42 Pr1 2.951656 1_555
Co42 Pr4 2.955946 1_555
Co43 Si3 2.341907 1_655
Co43 Pr2 2.951656 1_555
Co43 Pr4 2.955946 1_665
Co44 Si2 2.392254 1_556
Co44 Si5 2.428342 1_555
Co44 Si6 2.428342 1_455
Co44 Pr4 3.297267 1_555
Co44 Pr1 3.320782 1_556
Co44 Pr3 3.320782 1_456
Co45 Si1 2.392254 1_556
Co45 Si0 2.428342 1_555
Co45 Si7 2.428342 1_555
Co45 Pr5 3.297267 1_555
Co45 Pr0 3.320782 1_556
Co45 Pr1 3.320782 1_556
Co47 Co49 2.520924 1_555
Co47 Co50 2.520924 1_555
Co47 Co52 2.520924 1_455
Co47 Co51 2.520924 1_555
Co48 Si5 2.392254 1_554
Co48 Si2 2.428342 1_555
Co48 Si3 2.428342 1_545
Co48 Pr4 3.297267 1_555
Co48 Pr0 3.320782 1_545
Co48 Pr1 3.320782 1_555
Co49 Si1 2.570387 1_555
Co49 Pr5 3.079216 1_555
Co50 Si2 2.570387 1_555
Co50 Pr4 3.079216 1_555
Co51 Si3 2.570387 1_555
Co51 Pr4 3.079216 1_565
Co52 Si4 2.570387 1_555
Co52 Pr5 3.079216 1_555
Co53 Si0 2.392254 1_554
Co53 Si4 2.428342 1_555
Co53 Si1 2.428342 1_555
Co53 Pr5 3.297267 1_555
Co53 Pr2 3.320782 1_555
Co53 Pr0 3.320782 1_555
Co54 Si7 2.392254 1_554
Co54 Si4 2.428342 1_555
Co54 Si1 2.428342 1_555
Co54 Pr5 3.297267 1_555
Co54 Pr1 3.320782 1_555
Co54 Pr3 3.320782 1_555
Co55 Si6 2.392254 1_554
Co55 Si3 2.428342 1_645
Co55 Si2 2.428342 1_655
Co55 Pr4 3.297267 1_655
Co55 Pr3 3.320782 1_555
Co55 Pr2 3.320782 1_545
Co56 Si0 2.341907 1_555
Co56 Pr2 2.951656 1_556
Co56 Pr5 2.955946 1_555
Co57 Si4 2.341907 1_555
Co57 Pr3 2.951656 1_555
Co57 Pr5 2.955946 1_555
B0 B19 2.034346 1_555
B0 Co37 2.051017 1_555
B0 Co33 2.051017 1_555
B0 Co27 2.086621 1_555
B0 Co57 2.119383 1_555
B0 Co29 2.119383 1_555
B0 Co3 2.130127 1_555
B0 Co40 2.130127 1_555
B0 Co19 2.138877 1_555
B1 B4 2.034346 1_555
B1 Co38 2.051017 1_555
B1 Co32 2.051017 1_555
B1 Co26 2.086621 1_555
B1 Co0 2.119383 1_555
B1 Co30 2.119383 1_555
B1 Co2 2.130127 1_555
B1 Co1 2.130127 1_565
B1 Co18 2.138877 1_555
B2 B5 2.034346 1_555
B2 Co34 2.051017 1_555
B2 Co36 2.051017 1_555
B2 Co25 2.086621 1_555
B2 Co28 2.119383 1_555
B2 Co42 2.119383 1_555
B2 Co3 2.130127 1_555
B2 Co1 2.130127 1_555
B2 Co17 2.138877 1_555
B3 Co56 2.051017 1_555
B3 Co39 2.051017 1_555
B3 Co24 2.086621 1_555
B3 Co31 2.119383 1_555
B3 Co43 2.119383 1_555
B3 Co2 2.130127 1_555
B3 Co40 2.130127 1_565
B3 Co16 2.138877 1_555
B4 Co0 2.051017 1_555
B4 Co30 2.051017 1_555
B4 Co23 2.086621 1_555
B4 Co38 2.119383 1_555
B4 Co32 2.119383 1_555
B4 Co49 2.130127 1_555
B4 Co51 2.130127 1_555
B4 Co15 2.138877 1_555
B5 Co28 2.051017 1_555
B5 Co42 2.051017 1_555
B5 Co22 2.086621 1_555
B5 Co34 2.119383 1_555
B5 Co36 2.119383 1_555
B5 Co49 2.130127 1_555
B5 Co50 2.130127 1_555
B5 Co14 2.138877 1_555
B6 Co54 1.909933 1_555
B6 Co57 2.055626 1_555
B6 Co28 2.055626 1_555
B6 Co27 2.069498 1_555
B6 Co25 2.069498 1_555
B6 Co3 2.098401 1_555
B6 Co11 2.105672 1_555
B7 Co53 1.909933 1_555
B7 Co31 2.055626 1_555
B7 Co0 2.055626 1_555
B7 Co24 2.069498 1_555
B7 Co26 2.069498 1_555
B7 Co2 2.098401 1_555
B7 Co10 2.105672 1_555
B8 Co48 1.909933 1_555
B8 Co42 2.055626 1_555
B8 Co30 2.055626 1_545
B8 Co25 2.069498 1_555
B8 Co26 2.069498 1_545
B8 Co1 2.098401 1_555
B8 Co9 2.105672 1_555
B9 Co55 1.909933 1_555
B9 Co29 2.055626 1_555
B9 Co43 2.055626 1_545
B9 Co27 2.069498 1_555
B9 Co24 2.069498 1_545
B9 Co40 2.098401 1_555
B9 Co8 2.105672 1_555
B10 Co45 1.909933 1_555
B10 Co38 2.055626 1_555
B10 Co34 2.055626 1_555
B10 Co23 2.069498 1_555
B10 Co22 2.069498 1_555
B10 Co49 2.098401 1_555
B10 Co7 2.105672 1_555
B11 Co44 1.909933 1_555
B11 Co36 2.055626 1_555
B11 Co33 2.055626 1_455
B11 Co22 2.069498 1_555
B11 Co20 2.069498 1_455
B11 Co50 2.098401 1_555
B11 Co6 2.105672 1_555
B12 Co41 1.909933 1_555
B12 Co32 2.055626 1_555
B12 Co39 2.055626 1_455
B12 Co23 2.069498 1_555
B12 Co21 2.069498 1_455
B12 Co51 2.098401 1_555
B12 Co5 2.105672 1_555
B13 Co35 1.909933 1_555
B13 Co56 2.055626 1_555
B13 Co37 2.055626 1_555
B13 Co21 2.069498 1_555
B13 Co20 2.069498 1_555
B13 Co52 2.098401 1_555
B13 Co4 2.105672 1_555
B14 B16 2.004052 1_554
B14 Co8 2.060495 1_555
B14 Co11 2.060495 1_555
B14 Co9 2.060495 1_555
B14 Co10 2.060495 1_545
B14 Co27 2.110693 1_555
B14 Co25 2.110693 1_555
B14 Co24 2.110693 1_545
B14 Co26 2.110693 1_545
B15 B17 2.004052 1_556
B15 Co5 2.060495 1_555
B15 Co6 2.060495 1_555
B15 Co7 2.060495 1_555
B15 Co4 2.060495 1_455
B15 Co23 2.110693 1_555
B15 Co21 2.110693 1_455
B15 Co22 2.110693 1_555
B15 Co20 2.110693 1_455
B16 Co8 2.116589 1_556
B16 Co11 2.116589 1_556
B16 Co9 2.116589 1_556
B16 Co10 2.116589 1_546
B16 Co19 2.134010 1_555
B16 Co17 2.134010 1_555
B16 Co16 2.134010 1_545
B16 Co18 2.134010 1_545
B17 Co5 2.116589 1_554
B17 Co7 2.116589 1_554
B17 Co6 2.116589 1_554
B17 Co4 2.116589 1_454
B17 Co15 2.134010 1_555
B17 Co14 2.134010 1_555
B17 Co13 2.134010 1_455
B17 Co12 2.134010 1_455
B18 B3 2.034346 1_555
B18 Co31 2.051017 1_555
B18 Co43 2.051017 1_555
B18 Co21 2.086621 1_555
B18 Co56 2.119383 1_555
B18 Co39 2.119383 1_555
B18 Co52 2.130127 1_555
B18 Co51 2.130127 1_655
B18 Co13 2.138877 1_555
B19 Co57 2.051017 1_555
B19 Co29 2.051017 1_555
B19 Co20 2.086621 1_555
B19 Co37 2.119383 1_555
B19 Co33 2.119383 1_555
B19 Co52 2.130127 1_555
B19 Co50 2.130127 1_655
B19 Co12 2.138877 1_555
