# generated using pymatgen
data_Ag2Au3N6Cl17
_symmetry_space_group_name_H-M   'P 1'
_cell_length_a   12.69189302
_cell_length_b   12.69189302
_cell_length_c   12.69189302
_cell_angle_alpha   150.34448098
_cell_angle_beta   109.65079906
_cell_angle_gamma   78.15278804
_symmetry_Int_Tables_number   1
_chemical_formula_structural   Ag2Au3N6Cl17
_chemical_formula_sum   'Ag2 Au3 N6 Cl17'
_cell_volume   935.92664537
_cell_formula_units_Z   1
loop_
 _symmetry_equiv_pos_site_id
 _symmetry_equiv_pos_as_xyz
  1  'x, y, z'
loop_
 _atom_site_type_symbol
 _atom_site_label
 _atom_site_symmetry_multiplicity
 _atom_site_fract_x
 _atom_site_fract_y
 _atom_site_fract_z
 _atom_site_occupancy
  Ag  Ag0  1  0.13197900  0.63197900  0.50000000  1
  Ag  Ag1  1  0.86802100  0.36802100  0.50000000  1
  Au  Au0  1  0.00000000  0.00000000  0.00000000  1
  Au  Au1  1  0.66687900  0.66687900  0.00000000  1
  Au  Au2  1  0.33312100  0.33312100  0.00000000  1
  N  N0  1  0.55473800  0.81617000  0.73856900  1
  N  N1  1  0.07760100  0.81617000  0.26143100  1
  N  N2  1  0.92239900  0.18383100  0.73856900  1
  N  N3  1  0.44526200  0.18383100  0.26143100  1
  N  N4  1  0.29450200  0.50000000  0.79450200  1
  N  N5  1  0.70549800  0.50000000  0.20549800  1
  Cl  Cl0  1  0.84078700  0.00000000  0.84078700  1
  Cl  Cl1  1  0.15921300  0.00000000  0.15921300  1
  Cl  Cl2  1  0.88239700  0.88239700  0.00000000  1
  Cl  Cl3  1  0.11760300  0.11760300  0.00000000  1
  Cl  Cl4  1  0.30291600  0.57127700  0.73163900  1
  Cl  Cl5  1  0.83963800  0.57127700  0.26836100  1
  Cl  Cl6  1  0.16036200  0.42872300  0.73163900  1
  Cl  Cl7  1  0.69708400  0.42872300  0.26836100  1
  Cl  Cl8  1  0.74649000  0.01214900  0.26565900  1
  Cl  Cl9  1  0.74649000  0.48083100  0.73434100  1
  Cl  Cl10  1  0.25351000  0.98785100  0.73434100  1
  Cl  Cl11  1  0.25351000  0.51916900  0.26565900  1
  Cl  Cl12  1  0.58201200  0.82610600  0.24409400  1
  Cl  Cl13  1  0.58201200  0.33791800  0.75590600  1
  Cl  Cl14  1  0.41798800  0.17389400  0.75590600  1
  Cl  Cl15  1  0.41798800  0.66208200  0.24409400  1
  Cl  Cl16  1  0.00000000  0.50000000  0.50000000  1
loop_
_geom_bond_atom_site_label_1
_geom_bond_atom_site_label_2
_geom_bond_distance
_geom_bond_site_symmetry_2
Ag0 Cl16 2.600724 1_555
Ag0 Cl11 2.837718 1_555
Ag0 Cl10 2.837718 1_555
Ag1 Cl16 2.600724 1_655
Ag1 Cl8 2.837718 1_555
Ag1 Cl9 2.837718 1_555
Au0 Cl3 2.317437 1_555
Au0 Cl2 2.317437 1_445
Au0 Cl1 2.328146 1_555
Au0 Cl0 2.328146 1_454
Au1 Cl13 2.304574 1_554
Au1 Cl12 2.304574 1_555
Au1 Cl8 2.332221 1_565
Au1 Cl9 2.332221 1_554
Au2 Cl15 2.304574 1_555
Au2 Cl14 2.304574 1_554
Au2 Cl10 2.332221 1_544
Au2 Cl11 2.332221 1_555
Cl4 N4 1.678621 1_555
Cl5 N5 1.678621 1_555
Cl6 N4 1.678621 1_555
Cl7 N5 1.678621 1_555
