# generated using pymatgen
data_Li7Mn5O12
_symmetry_space_group_name_H-M   'P 1'
_cell_length_a   5.06931815
_cell_length_b   6.45281846
_cell_length_c   6.99957900
_cell_angle_alpha   84.08152830
_cell_angle_beta   101.12284241
_cell_angle_gamma   97.00834278
_symmetry_Int_Tables_number   1
_chemical_formula_structural   Li7Mn5O12
_chemical_formula_sum   'Li7 Mn5 O12'
_cell_volume   222.24079822
_cell_formula_units_Z   1
loop_
 _symmetry_equiv_pos_site_id
 _symmetry_equiv_pos_as_xyz
  1  'x, y, z'
loop_
 _atom_site_type_symbol
 _atom_site_label
 _atom_site_symmetry_multiplicity
 _atom_site_fract_x
 _atom_site_fract_y
 _atom_site_fract_z
 _atom_site_occupancy
  Li  Li0  1  0.50000200  0.83330800  0.16665300  1
  Li  Li1  1  0.74702600  0.24660100  0.24897700  1
  Li  Li2  1  0.25298100  0.42001300  0.08436300  1
  Li  Li3  1  0.72354400  0.58515200  0.94557300  1
  Li  Li4  1  0.27641300  0.08148600  0.38775700  1
  Li  Li5  1  0.73862800  0.91531500  0.59532800  1
  Li  Li6  1  0.26140200  0.75138000  0.73800100  1
  Mn  Mn0  1  0.49426100  0.16116600  0.84827300  1
  Mn  Mn1  1  0.50571400  0.50547600  0.48502800  1
  Mn  Mn2  1  0.99999500  0.33343800  0.66675100  1
  Mn  Mn3  1  0.99883200  0.99774400  0.01151200  1
  Mn  Mn4  1  0.00116200  0.66889200  0.32178400  1
  O  O0  1  0.86010100  0.27178800  0.95832500  1
  O  O1  1  0.13988100  0.39484400  0.37501400  1
  O  O2  1  0.88389900  0.62136700  0.58658800  1
  O  O3  1  0.11609300  0.04542800  0.74674200  1
  O  O4  1  0.34691500  0.11762600  0.11929400  1
  O  O5  1  0.65307500  0.54899100  0.21402500  1
  O  O6  1  0.35968100  0.44120500  0.79195300  1
  O  O7  1  0.64041800  0.22555500  0.54144600  1
  O  O8  1  0.89716100  0.94961400  0.26667000  1
  O  O9  1  0.10283300  0.71698900  0.06663400  1
  O  O10  1  0.36361800  0.77486300  0.45662500  1
  O  O11  1  0.63636600  0.89175700  0.87668600  1
loop_
_geom_bond_atom_site_label_1
_geom_bond_atom_site_label_2
_geom_bond_distance
_geom_bond_site_symmetry_2
Li0 O5 2.049559 1_555
Li0 O4 2.049597 1_565
Li0 O8 2.074283 1_555
Li0 O9 2.074353 1_555
Li0 O11 2.249314 1_554
Li0 O10 2.249393 1_555
Li1 O5 2.043895 1_555
Li1 O8 2.130211 1_545
Li1 O4 2.159648 1_555
Li1 O1 2.165809 1_655
Li1 O0 2.202943 1_554
Li1 O7 2.202949 1_555
Li2 O4 2.043852 1_555
Li2 O9 2.130148 1_555
Li2 O5 2.159543 1_555
Li2 O0 2.165867 1_454
Li2 O6 2.202683 1_554
Li2 O1 2.202996 1_555
Li3 O5 1.964973 1_556
Li3 O9 2.063873 1_656
Li3 O11 2.067981 1_555
Li3 O6 2.108070 1_555
Li3 O0 2.203750 1_555
Li4 O4 1.965107 1_555
Li4 O8 2.063850 1_445
Li4 O10 2.068119 1_545
Li4 O7 2.109081 1_555
Li4 O1 2.203668 1_555
Li5 O7 2.100681 1_565
Li5 O10 2.104010 1_555
Li5 O11 2.117372 1_555
Li5 O3 2.120997 1_665
Li5 O2 2.127456 1_555
Li5 O8 2.559668 1_555
Li6 O6 2.100406 1_555
Li6 O11 2.103613 1_555
Li6 O10 2.117423 1_555
Li6 O2 2.120923 1_455
Li6 O3 2.128151 1_565
Li6 O9 2.559562 1_556
Mn0 O11 1.939000 1_545
Mn0 O0 1.944603 1_555
Mn0 O6 1.984038 1_555
Mn0 O3 1.993074 1_555
Mn0 O4 2.149692 1_556
Mn0 O7 2.385126 1_555
Mn1 O10 1.938851 1_555
Mn1 O1 1.944525 1_555
Mn1 O7 1.983616 1_555
Mn1 O2 1.993480 1_555
Mn1 O5 2.149613 1_555
Mn1 O6 2.385449 1_555
Mn2 O7 1.943181 1_555
Mn2 O6 1.943189 1_655
Mn2 O2 2.009385 1_555
Mn2 O3 2.009722 1_655
Mn2 O0 2.269046 1_555
Mn2 O1 2.270032 1_655
Mn3 O4 1.885426 1_665
Mn3 O9 1.928570 1_655
Mn3 O8 1.937419 1_555
Mn3 O0 1.956264 1_564
Mn3 O11 1.972815 1_554
Mn3 O3 2.036045 1_664
Mn4 O5 1.885442 1_455
Mn4 O8 1.928364 1_455
Mn4 O9 1.937358 1_555
Mn4 O1 1.956270 1_555
Mn4 O10 1.972781 1_555
Mn4 O2 2.036254 1_455
