# generated using pymatgen
data_LiV4O5F7
_symmetry_space_group_name_H-M   'P 1'
_cell_length_a   5.18441500
_cell_length_b   5.36637822
_cell_length_c   8.98954654
_cell_angle_alpha   105.96045673
_cell_angle_beta   89.48326607
_cell_angle_gamma   118.66667880
_symmetry_Int_Tables_number   1
_chemical_formula_structural   LiV4O5F7
_chemical_formula_sum   'Li1 V4 O5 F7'
_cell_volume   208.73671796
_cell_formula_units_Z   1
loop_
 _symmetry_equiv_pos_site_id
 _symmetry_equiv_pos_as_xyz
  1  'x, y, z'
loop_
 _atom_site_type_symbol
 _atom_site_label
 _atom_site_symmetry_multiplicity
 _atom_site_fract_x
 _atom_site_fract_y
 _atom_site_fract_z
 _atom_site_occupancy
  Li  Li0  1  0.81443300  0.02543100  0.59308500  1
  V  V0  1  0.98103400  0.01001800  0.00653500  1
  V  V1  1  0.74889100  0.28113000  0.23763900  1
  V  V2  1  0.50397900  0.45636200  0.50317700  1
  V  V3  1  0.21185100  0.75183600  0.74069100  1
  O  O0  1  0.84194600  0.57836600  0.67251600  1
  O  O1  1  0.82923400  0.14908900  0.08251300  1
  O  O2  1  0.78540900  0.60972000  0.12200400  1
  O  O3  1  0.67571600  0.32429700  0.42666100  1
  O  O4  1  0.26549600  0.13264800  0.62787600  1
  F  F0  1  0.72594500  0.89150900  0.38508200  1
  F  F1  1  0.68334200  0.92939700  0.81519300  1
  F  F2  1  0.36164000  0.69708200  0.58010600  1
  F  F3  1  0.32340000  0.06307300  0.17509800  1
  F  F4  1  0.22836400  0.38047000  0.87639200  1
  F  F5  1  0.17407600  0.42307100  0.32831300  1
  F  F6  1  0.17819800  0.83864500  0.92408400  1
loop_
_geom_bond_atom_site_label_1
_geom_bond_atom_site_label_2
_geom_bond_distance
_geom_bond_site_symmetry_2
Li0 O4 2.126208 1_655
O0 V3 1.707208 1_655
O0 V2 2.053152 1_555
O1 V0 1.384313 1_555
O1 V1 1.532817 1_555
O2 V1 2.215849 1_555
O2 V0 2.416124 1_565
O3 V2 1.447204 1_555
O3 V1 1.714979 1_555
O4 V2 2.188220 1_555
O4 V3 2.423112 1_545
F0 Li0 1.784215 1_565
F1 V0 2.127392 1_566
F1 V3 2.185293 1_555
F1 Li0 2.217988 1_565
F2 V3 1.654922 1_555
F2 V2 1.762283 1_555
F2 Li0 2.133630 1_565
F3 V1 1.932736 1_555
F3 V0 2.203206 1_455
F4 V0 2.402359 1_456
F4 V3 2.640006 1_555
F5 V1 2.045417 1_455
F5 V2 2.242574 1_555
F6 V3 1.617353 1_555
F6 V0 1.718534 1_466
