# generated using pymatgen
data_Ca(VS2)2
_symmetry_space_group_name_H-M   'P 1'
_cell_length_a   7.64087063
_cell_length_b   7.64087063
_cell_length_c   7.64087063
_cell_angle_alpha   123.51832402
_cell_angle_beta   123.51832402
_cell_angle_gamma   84.00698081
_symmetry_Int_Tables_number   1
_chemical_formula_structural   Ca(VS2)2
_chemical_formula_sum   'Ca2 V4 S8'
_cell_volume   296.88532038
_cell_formula_units_Z   2
loop_
 _symmetry_equiv_pos_site_id
 _symmetry_equiv_pos_as_xyz
  1  'x, y, z'
loop_
 _atom_site_type_symbol
 _atom_site_label
 _atom_site_symmetry_multiplicity
 _atom_site_fract_x
 _atom_site_fract_y
 _atom_site_fract_z
 _atom_site_occupancy
  Ca  Ca0  1  0.50000000  0.50000000  0.00000000  1
  Ca  Ca1  1  0.25000000  0.75000000  0.50000000  1
  V  V0  1  0.87500000  0.12500000  0.25000000  1
  V  V1  1  0.37500000  0.12500000  0.25000000  1
  V  V2  1  0.87500000  0.62500000  0.75000000  1
  V  V3  1  0.87500000  0.12500000  0.75000000  1
  S  S0  1  0.67687700  0.90502600  0.77185100  1
  S  S1  1  0.09497400  0.86682500  0.77185100  1
  S  S2  1  0.09497400  0.32312300  0.22814900  1
  S  S3  1  0.07312300  0.34497400  0.72814900  1
  S  S4  1  0.61682500  0.34497400  0.27185100  1
  S  S5  1  0.65502600  0.38317500  0.72814900  1
  S  S6  1  0.13317500  0.90502600  0.22814900  1
  S  S7  1  0.65502600  0.92687700  0.27185100  1
loop_
_geom_bond_atom_site_label_1
_geom_bond_atom_site_label_2
_geom_bond_distance
_geom_bond_site_symmetry_2
Ca0 S3 2.638829 1_554
Ca0 S7 2.638829 1_555
Ca0 S4 2.638829 1_555
Ca0 S5 2.638829 1_554
Ca1 S0 2.638829 1_555
Ca1 S6 2.638829 1_555
Ca1 S2 2.638829 1_555
Ca1 S1 2.638829 1_555
S0 V2 2.471007 1_555
S0 V0 2.471007 1_566
S0 V3 2.503000 1_565
S1 V3 2.471007 1_465
S1 V1 2.471007 1_566
S1 V2 2.503000 1_455
S2 V3 2.471007 1_454
S2 V1 2.471007 1_555
S2 V0 2.503000 1_455
S3 V0 2.471007 1_455
S3 V2 2.471007 1_455
S3 V3 2.503000 1_455
S4 V2 2.471007 1_555
S4 V0 2.471007 1_555
S4 V1 2.503000 1_555
S5 V1 2.471007 1_555
S5 V3 2.471007 1_555
S5 V2 2.503000 1_555
S6 V2 2.471007 1_454
S6 V0 2.471007 1_465
S6 V1 2.503000 1_565
S7 V3 2.471007 1_565
S7 V1 2.471007 1_565
S7 V0 2.503000 1_565
