# generated using pymatgen
data_Ca4SiN4
_symmetry_space_group_name_H-M   'P 1'
_cell_length_a   5.97133320
_cell_length_b   9.16306784
_cell_length_c   10.97700527
_cell_angle_alpha   63.68272506
_cell_angle_beta   90.00000000
_cell_angle_gamma   90.00000000
_symmetry_Int_Tables_number   1
_chemical_formula_structural   Ca4SiN4
_chemical_formula_sum   'Ca16 Si4 N16'
_cell_volume   538.36282125
_cell_formula_units_Z   4
loop_
 _symmetry_equiv_pos_site_id
 _symmetry_equiv_pos_as_xyz
  1  'x, y, z'
loop_
 _atom_site_type_symbol
 _atom_site_label
 _atom_site_symmetry_multiplicity
 _atom_site_fract_x
 _atom_site_fract_y
 _atom_site_fract_z
 _atom_site_occupancy
  Ca  Ca0  1  0.92209092  0.35091494  0.65427262  1
  Ca  Ca1  1  0.42209092  0.64908506  0.84572738  1
  Ca  Ca2  1  0.07790908  0.64908506  0.34572738  1
  Ca  Ca3  1  0.57790908  0.35091494  0.15427262  1
  Ca  Ca4  1  0.91911638  0.45403522  0.87872604  1
  Ca  Ca5  1  0.41911638  0.54596478  0.62127396  1
  Ca  Ca6  1  0.08088362  0.54596478  0.12127396  1
  Ca  Ca7  1  0.58088362  0.45403522  0.37872604  1
  Ca  Ca8  1  0.84902371  0.85491982  0.76861656  1
  Ca  Ca9  1  0.34902371  0.14508018  0.73138344  1
  Ca  Ca10  1  0.15097629  0.14508018  0.23138344  1
  Ca  Ca11  1  0.65097629  0.85491982  0.26861656  1
  Ca  Ca12  1  0.25613950  0.91934323  0.54351317  1
  Ca  Ca13  1  0.75613950  0.08065677  0.95648683  1
  Ca  Ca14  1  0.74386050  0.08065677  0.45648683  1
  Ca  Ca15  1  0.24386050  0.91934323  0.04351317  1
  Si  Si0  1  0.85348712  0.73299340  0.54830917  1
  Si  Si1  1  0.35348712  0.26700660  0.95169083  1
  Si  Si2  1  0.14651288  0.26700660  0.45169083  1
  Si  Si3  1  0.64651288  0.73299340  0.04830917  1
  N  N0  1  0.74588372  0.59457660  0.98849872  1
  N  N1  1  0.24588372  0.40542340  0.51150128  1
  N  N2  1  0.25411628  0.40542340  0.01150128  1
  N  N3  1  0.75411628  0.59457660  0.48849872  1
  N  N4  1  0.06804287  0.66244542  0.67402810  1
  N  N5  1  0.56804287  0.33755458  0.82597190  1
  N  N6  1  0.93195713  0.33755458  0.32597190  1
  N  N7  1  0.43195713  0.66244542  0.17402810  1
  N  N8  1  0.62126001  0.79980736  0.61154418  1
  N  N9  1  0.12126001  0.20019264  0.88845582  1
  N  N10  1  0.37873999  0.20019264  0.38845582  1
  N  N11  1  0.87873999  0.79980736  0.11154418  1
  N  N12  1  0.53113294  0.89829772  0.89549636  1
  N  N13  1  0.03113294  0.10170228  0.60450364  1
  N  N14  1  0.46886706  0.10170228  0.10450364  1
  N  N15  1  0.96886706  0.89829772  0.39549636  1
loop_
_geom_bond_atom_site_label_1
_geom_bond_atom_site_label_2
_geom_bond_distance
_geom_bond_site_symmetry_2
Ca0 N3 2.387435 1_555
Ca0 N1 2.397884 1_655
Ca0 N9 2.604232 1_655
Ca0 N13 2.653904 1_655
Ca0 N5 2.798614 1_555
Ca1 N2 2.387435 1_556
Ca1 N0 2.397884 1_555
Ca1 N8 2.604232 1_555
Ca1 N12 2.653904 1_555
Ca1 N4 2.798614 1_555
Ca2 N1 2.387435 1_555
Ca2 N3 2.397884 1_455
Ca2 N11 2.604232 1_455
Ca2 N15 2.653904 1_455
Ca2 N7 2.798614 1_555
Ca3 N0 2.387435 1_554
Ca3 N2 2.397884 1_555
Ca3 N10 2.604232 1_555
Ca3 N14 2.653904 1_555
Ca3 N6 2.798614 1_555
Ca4 N0 2.357187 1_555
Ca4 N4 2.383659 1_655
Ca4 N2 2.397621 1_656
Ca4 N5 2.533246 1_555
Ca4 N9 2.580371 1_655
Ca5 N1 2.357187 1_555
Ca5 N5 2.383659 1_555
Ca5 N3 2.397621 1_555
Ca5 N4 2.533246 1_555
Ca5 N8 2.580371 1_555
Ca6 N2 2.357187 1_555
Ca6 N6 2.383659 1_455
Ca6 N0 2.397621 1_454
Ca6 N7 2.533246 1_555
Ca6 N11 2.580371 1_455
Ca7 N3 2.357187 1_555
Ca7 N7 2.383659 1_555
Ca7 N1 2.397621 1_555
Ca7 N6 2.533246 1_555
Ca7 N10 2.580371 1_555
Ca8 N8 2.418600 1_555
Ca8 N13 2.434993 1_665
Ca8 N12 2.488354 1_555
Ca8 N0 2.605844 1_555
Ca8 N4 2.742750 1_655
Ca9 N9 2.418600 1_555
Ca9 N12 2.434993 1_545
Ca9 N13 2.488354 1_555
Ca9 N1 2.605844 1_555
Ca9 N5 2.742750 1_555
Ca10 N10 2.418600 1_555
Ca10 N15 2.434993 1_445
Ca10 N14 2.488354 1_555
Ca10 N2 2.605844 1_555
Ca10 N6 2.742750 1_455
Ca11 N11 2.418600 1_555
Ca11 N14 2.434993 1_565
Ca11 N15 2.488354 1_555
Ca11 N3 2.605844 1_555
Ca11 N7 2.742750 1_555
Ca12 N8 2.405336 1_555
Ca12 N4 2.421769 1_555
Ca12 N15 2.428480 1_455
Ca12 N13 2.457137 1_565
Ca12 N10 2.484304 1_565
Ca13 N9 2.405336 1_655
Ca13 N5 2.421769 1_555
Ca13 N14 2.428480 1_556
Ca13 N12 2.457137 1_545
Ca13 N11 2.484304 1_546
Ca14 N10 2.405336 1_555
Ca14 N6 2.421769 1_555
Ca14 N13 2.428480 1_655
Ca14 N15 2.457137 1_545
Ca14 N8 2.484304 1_545
Ca15 N11 2.405336 1_455
Ca15 N7 2.421769 1_555
Ca15 N12 2.428480 1_554
Ca15 N14 2.457137 1_565
Ca15 N9 2.484304 1_564
N0 Si3 1.769216 1_556
N1 Si2 1.769216 1_555
N2 Si1 1.769216 1_554
N3 Si0 1.769216 1_555
N4 Si0 1.781223 1_455
N5 Si1 1.781223 1_555
N6 Si2 1.781223 1_655
N7 Si3 1.781223 1_555
N8 Si0 1.776623 1_555
N9 Si1 1.776623 1_555
N10 Si2 1.776623 1_555
N11 Si3 1.776623 1_555
N12 Si3 1.824793 1_556
N13 Si2 1.824793 1_555
N14 Si1 1.824793 1_554
N15 Si0 1.824793 1_555
