# generated using pymatgen
data_Sr3CaCo2S2O5
_symmetry_space_group_name_H-M   'P 1'
_cell_length_a   14.74360919
_cell_length_b   14.74360919
_cell_length_c   14.74360919
_cell_angle_alpha   164.73593159
_cell_angle_beta   164.73593159
_cell_angle_gamma   21.65146949
_symmetry_Int_Tables_number   1
_chemical_formula_structural   Sr3CaCo2S2O5
_chemical_formula_sum   'Sr3 Ca1 Co2 S2 O5'
_cell_volume   222.09454552
_cell_formula_units_Z   1
loop_
 _symmetry_equiv_pos_site_id
 _symmetry_equiv_pos_as_xyz
  1  'x, y, z'
loop_
 _atom_site_type_symbol
 _atom_site_label
 _atom_site_symmetry_multiplicity
 _atom_site_fract_x
 _atom_site_fract_y
 _atom_site_fract_z
 _atom_site_occupancy
  Sr  Sr0  1  0.50000000  0.50000000  0.00000000  1
  Sr  Sr1  1  0.63078200  0.63078200  0.00000000  1
  Sr  Sr2  1  0.36921800  0.36921800  0.00000000  1
  Ca  Ca0  1  0.75000000  0.25000000  0.50000000  1
  Co  Co0  1  0.06544200  0.06544200  0.00000000  1
  Co  Co1  1  0.93455800  0.93455800  0.00000000  1
  S  S0  1  0.18492900  0.18492900  0.00000000  1
  S  S1  1  0.81507100  0.81507100  0.00000000  1
  O  O0  1  0.07483400  0.57483400  0.50000000  1
  O  O1  1  0.57533600  0.07533600  0.50000000  1
  O  O2  1  0.92466400  0.42466400  0.50000000  1
  O  O3  1  0.42516600  0.92516600  0.50000000  1
  O  O4  1  0.00000000  0.00000000  0.00000000  1
loop_
_geom_bond_atom_site_label_1
_geom_bond_atom_site_label_2
_geom_bond_distance
_geom_bond_site_symmetry_2
Ca0 S1 2.717711 1_556
Ca0 S0 2.717711 1_555
Ca0 S1 2.717711 1_545
Ca0 S0 2.717711 1_656
Co0 O4 1.895360 1_555
Co0 O0 1.976911 1_544
Co0 O0 1.976911 1_555
Co0 O1 1.978963 1_454
Co0 O1 1.978963 1_555
Co1 O4 1.895360 1_665
Co1 O3 1.976911 1_655
Co1 O3 1.976911 1_554
Co1 O2 1.978963 1_565
Co1 O2 1.978963 1_554
S0 Sr1 3.182406 1_444
S0 Sr1 3.182406 1_455
S0 Sr1 3.182406 1_545
S0 Sr1 3.182406 1_556
S1 Sr2 3.182406 1_554
S1 Sr2 3.182406 1_666
S1 Sr2 3.182406 1_655
S1 Sr2 3.182406 1_565
O0 Sr1 2.541623 1_455
O0 Sr1 2.541623 1_556
O0 Sr0 2.920907 1_455
O0 Sr0 2.920907 1_556
O1 Sr1 2.532378 1_545
O1 Sr1 2.532378 1_556
O1 Sr0 2.931711 1_545
O1 Sr0 2.931711 1_556
O2 Sr2 2.532378 1_656
O2 Sr2 2.532378 1_555
O2 Sr0 2.931711 1_656
O2 Sr0 2.931711 1_555
O3 Sr2 2.541623 1_566
O3 Sr2 2.541623 1_555
O3 Sr0 2.920907 1_566
O3 Sr0 2.920907 1_555
O4 Sr0 2.769181 1_556
O4 Sr0 2.769181 1_444
O4 Sr0 2.769181 1_545
O4 Sr0 2.769181 1_455
