# generated using pymatgen
data_TbAgGe
_symmetry_space_group_name_H-M   'P 1'
_cell_length_a   7.38217244
_cell_length_b   7.38217244
_cell_length_c   4.14472100
_cell_angle_alpha   90.00000000
_cell_angle_beta   90.00000000
_cell_angle_gamma   120.00000398
_symmetry_Int_Tables_number   1
_chemical_formula_structural   TbAgGe
_chemical_formula_sum   'Tb3 Ag3 Ge3'
_cell_volume   195.61145687
_cell_formula_units_Z   3
loop_
 _symmetry_equiv_pos_site_id
 _symmetry_equiv_pos_as_xyz
  1  'x, y, z'
loop_
 _atom_site_type_symbol
 _atom_site_label
 _atom_site_symmetry_multiplicity
 _atom_site_fract_x
 _atom_site_fract_y
 _atom_site_fract_z
 _atom_site_occupancy
  Tb  Tb0  1  0.00000000  0.60375500  0.00000000  1
  Tb  Tb1  1  0.39624500  0.39624500  0.00000000  1
  Tb  Tb2  1  0.60375500  0.00000000  0.00000000  1
  Ag  Ag0  1  0.66666700  0.33333300  0.50000000  1
  Ag  Ag1  1  0.00000000  0.00000000  0.00000000  1
  Ag  Ag2  1  0.33333300  0.66666700  0.50000000  1
  Ge  Ge0  1  0.73253300  0.73253300  0.50000000  1
  Ge  Ge1  1  0.26746700  0.00000000  0.50000000  1
  Ge  Ge2  1  0.00000000  0.26746700  0.50000000  1
loop_
_geom_bond_atom_site_label_1
_geom_bond_atom_site_label_2
_geom_bond_distance
_geom_bond_site_symmetry_2
Ag0 Ge2 2.736432 1_655
Ag0 Ge1 2.736437 1_555
Ag0 Ge0 2.736440 1_555
Ag0 Tb2 3.069641 1_555
Ag0 Tb2 3.069641 1_556
Ag0 Tb0 3.069643 1_656
Ag0 Tb0 3.069643 1_655
Ag0 Tb1 3.069646 1_555
Ag0 Tb1 3.069646 1_556
Ag1 Ge0 2.862390 1_445
Ag1 Ge0 2.862390 1_444
Ag1 Ge2 2.862390 1_555
Ag1 Ge1 2.862390 1_555
Ag1 Ge1 2.862390 1_554
Ag1 Ge2 2.862390 1_554
Ag1 Tb1 2.925149 1_555
Ag1 Tb0 2.925149 1_545
Ag1 Tb2 2.925149 1_455
Ag2 Ge1 2.736432 1_565
Ag2 Ge2 2.736437 1_555
Ag2 Ge0 2.736440 1_555
Ag2 Tb0 3.069641 1_555
Ag2 Tb0 3.069641 1_556
Ag2 Tb2 3.069643 1_566
Ag2 Tb2 3.069643 1_565
Ag2 Tb1 3.069646 1_555
Ag2 Tb1 3.069646 1_556
Ge0 Tb1 3.233831 1_555
Ge0 Tb1 3.233831 1_556
Ge0 Tb2 3.312719 1_566
Ge0 Tb2 3.312719 1_565
Ge0 Tb0 3.312719 1_656
Ge0 Tb0 3.312719 1_655
Ge1 Tb2 3.233831 1_555
Ge1 Tb2 3.233831 1_556
Ge1 Tb0 3.312719 1_546
Ge1 Tb0 3.312719 1_545
Ge1 Tb1 3.312719 1_555
Ge1 Tb1 3.312719 1_556
Ge2 Tb0 3.233831 1_556
Ge2 Tb0 3.233831 1_555
Ge2 Tb2 3.312719 1_456
Ge2 Tb2 3.312719 1_455
Ge2 Tb1 3.312719 1_555
Ge2 Tb1 3.312719 1_556
