# generated using pymatgen
data_Fe3W5N8
_symmetry_space_group_name_H-M   'P 1'
_cell_length_a   2.87620780
_cell_length_b   2.87550800
_cell_length_c   22.53726300
_cell_angle_alpha   90.00000000
_cell_angle_beta   90.00000000
_cell_angle_gamma   60.00804815
_symmetry_Int_Tables_number   1
_chemical_formula_structural   Fe3W5N8
_chemical_formula_sum   'Fe3 W5 N8'
_cell_volume   161.43654665
_cell_formula_units_Z   1
loop_
 _symmetry_equiv_pos_site_id
 _symmetry_equiv_pos_as_xyz
  1  'x, y, z'
loop_
 _atom_site_type_symbol
 _atom_site_label
 _atom_site_symmetry_multiplicity
 _atom_site_fract_x
 _atom_site_fract_y
 _atom_site_fract_z
 _atom_site_occupancy
  Fe  Fe0  1  0.99999400  0.00000300  0.87500000  1
  Fe  Fe1  1  0.00001800  0.99999100  0.12171200  1
  Fe  Fe2  1  0.00001800  0.99999100  0.62828800  1
  W  W0  1  0.99988500  0.00005700  0.24565200  1
  W  W1  1  0.00000100  0.00000000  0.75113300  1
  W  W2  1  0.00000100  0.00000000  0.99886700  1
  W  W3  1  0.99988500  0.00005700  0.50434800  1
  W  W4  1  0.00005900  0.99997100  0.37500000  1
  N  N0  1  0.33358100  0.33320900  0.31457500  1
  N  N1  1  0.33344700  0.33327700  0.81108800  1
  N  N2  1  0.66649800  0.66675100  0.18656500  1
  N  N3  1  0.66654400  0.66672800  0.69112400  1
  N  N4  1  0.66654400  0.66672800  0.05887600  1
  N  N5  1  0.66649800  0.66675100  0.56343500  1
  N  N6  1  0.33358100  0.33320900  0.43542500  1
  N  N7  1  0.33344700  0.33327700  0.93891200  1
loop_
_geom_bond_atom_site_label_1
_geom_bond_atom_site_label_2
_geom_bond_distance
_geom_bond_site_symmetry_2
Fe0 N7 2.198121 1_555
Fe0 N1 2.198121 1_555
Fe0 N1 2.198153 1_645
Fe0 N7 2.198153 1_645
Fe0 N1 2.198155 1_655
Fe0 N7 2.198155 1_655
Fe1 N4 2.182268 1_555
Fe1 N4 2.182360 1_455
Fe1 N4 2.182360 1_465
Fe1 N2 2.211951 1_555
Fe1 N2 2.212172 1_455
Fe1 N2 2.212172 1_465
Fe2 N3 2.182268 1_555
Fe2 N3 2.182360 1_465
Fe2 N3 2.182360 1_455
Fe2 N5 2.211951 1_555
Fe2 N5 2.212172 1_455
Fe2 N5 2.212172 1_465
N0 W4 2.147312 1_645
N0 W4 2.147543 1_545
N0 W4 2.147547 1_555
N0 W0 2.273285 1_555
N0 W0 2.273979 1_455
N0 W0 2.273979 1_465
N1 W1 2.140757 1_655
N1 W1 2.140770 1_565
N1 W1 2.140770 1_555
N2 W0 2.128418 1_565
N2 W0 2.128420 1_555
N2 W0 2.128578 1_465
N3 W1 2.141504 1_565
N3 W1 2.141548 1_655
N3 W1 2.141550 1_665
N4 W2 2.141504 1_564
N4 W2 2.141548 1_654
N4 W2 2.141550 1_664
N5 W3 2.128418 1_565
N5 W3 2.128420 1_555
N5 W3 2.128578 1_465
N6 W4 2.147312 1_645
N6 W4 2.147543 1_545
N6 W4 2.147547 1_555
N6 W3 2.273285 1_555
N6 W3 2.273979 1_465
N6 W3 2.273979 1_455
N7 W2 2.140757 1_655
N7 W2 2.140770 1_555
N7 W2 2.140770 1_565
