# generated using pymatgen
data_LiSm3Bi(Ru2O7)2
_symmetry_space_group_name_H-M   'P 1'
_cell_length_a   7.46795576
_cell_length_b   7.46695437
_cell_length_c   7.33891613
_cell_angle_alpha   89.98696141
_cell_angle_beta   59.41113777
_cell_angle_gamma   119.97691469
_symmetry_Int_Tables_number   1
_chemical_formula_structural   LiSm3Bi(Ru2O7)2
_chemical_formula_sum   'Li1 Sm3 Bi1 Ru4 O14'
_cell_volume   286.84138353
_cell_formula_units_Z   1
loop_
 _symmetry_equiv_pos_site_id
 _symmetry_equiv_pos_as_xyz
  1  'x, y, z'
loop_
 _atom_site_type_symbol
 _atom_site_label
 _atom_site_symmetry_multiplicity
 _atom_site_fract_x
 _atom_site_fract_y
 _atom_site_fract_z
 _atom_site_occupancy
  Li  Li0  1  0.27606600  0.63854200  0.08566400  1
  Sm  Sm0  1  0.23969700  0.36157900  0.39896400  1
  Sm  Sm1  1  0.23911100  0.87812400  0.39987700  1
  Sm  Sm2  1  0.72260000  0.36142400  0.39935400  1
  Bi  Bi0  1  0.74689800  0.37297500  0.87966600  1
  Ru  Ru0  1  0.75467400  0.87755500  0.36796000  1
  Ru  Ru1  1  0.24451100  0.87755300  0.87816900  1
  Ru  Ru2  1  0.24460100  0.36751900  0.87812000  1
  Ru  Ru3  1  0.75457100  0.87748400  0.87815000  1
  O  O0  1  0.50158200  0.25078100  0.24775900  1
  O  O1  1  0.03700500  0.51857600  0.44451600  1
  O  O2  1  0.92207800  0.96130400  0.54095100  1
  O  O3  1  0.49807300  0.53724600  0.54082600  1
  O  O4  1  0.49816300  0.96129300  0.54079000  1
  O  O5  1  0.08248800  0.54142400  0.96406200  1
  O  O6  1  0.49476500  0.95377300  0.96412700  1
  O  O7  1  0.49462900  0.54151400  0.96409300  1
  O  O8  1  0.59434700  0.79746200  0.20519100  1
  O  O9  1  0.99756400  0.20067100  0.20527600  1
  O  O10  1  0.99757500  0.79733800  0.20543400  1
  O  O11  1  0.40899300  0.20471700  0.79989100  1
  O  O12  1  0.99547500  0.79140300  0.80020400  1
  O  O13  1  0.99560500  0.20474000  0.79984400  1
loop_
_geom_bond_atom_site_label_1
_geom_bond_atom_site_label_2
_geom_bond_distance
_geom_bond_site_symmetry_2
Li0 O5 1.917776 1_554
Li0 O6 1.917877 1_554
Li0 O7 1.919628 1_554
Li0 O1 2.130987 1_555
Bi0 O0 2.185864 1_556
Bi0 O13 2.568160 1_555
Bi0 O11 2.573876 1_555
Bi0 O6 2.578577 1_545
Bi0 O12 2.578640 1_555
Bi0 O5 2.583928 1_655
Bi0 O1 2.584071 1_655
Bi0 O7 2.588135 1_555
O0 Sm0 2.269218 1_555
O0 Sm2 2.269640 1_555
O0 Sm1 2.269883 1_545
O1 Sm0 2.244038 1_555
O1 Sm2 2.244698 1_455
O1 Sm1 2.245043 1_555
O2 Ru3 2.036391 1_555
O2 Ru0 2.097672 1_555
O2 Sm1 2.457272 1_655
O2 Sm0 2.458408 1_665
O3 Ru2 2.036958 1_555
O3 Ru0 2.096888 1_555
O3 Sm2 2.457987 1_555
O3 Sm0 2.458360 1_555
O4 Ru1 2.037648 1_555
O4 Ru0 2.096132 1_555
O4 Sm1 2.456346 1_555
O4 Sm2 2.457051 1_565
O5 Ru2 2.084207 1_555
O5 Ru1 2.085440 1_555
O5 Sm2 2.623959 1_456
O6 Ru3 2.084646 1_555
O6 Ru1 2.086086 1_555
O6 Sm1 2.626504 1_556
O7 Ru3 2.084774 1_555
O7 Ru2 2.085107 1_555
O7 Sm0 2.621705 1_556
O8 Ru3 1.977729 1_554
O8 Ru0 1.989617 1_555
O8 Sm0 2.679669 1_555
O8 Sm1 2.679819 1_555
O9 Ru2 1.978399 1_654
O9 Ru0 1.989482 1_545
O9 Sm2 2.678290 1_555
O9 Sm0 2.679464 1_655
O10 Ru1 1.978844 1_654
O10 Ru0 1.988973 1_555
O10 Sm2 2.679764 1_555
O10 Sm1 2.680780 1_655
O11 Ru2 2.022103 1_555
O11 Ru1 2.022186 1_545
O11 Sm2 2.397554 1_555
O12 Ru3 2.021218 1_555
O12 Ru1 2.021799 1_655
O12 Sm1 2.396411 1_655
O13 Ru3 2.023027 1_545
O13 Ru2 2.023358 1_655
O13 Sm0 2.399353 1_655
