# generated using pymatgen
data_La23Mg4Pt7
_symmetry_space_group_name_H-M   'P 1'
_cell_length_a   10.34027515
_cell_length_b   10.34027515
_cell_length_c   23.36536165
_cell_angle_alpha   90.00000000
_cell_angle_beta   90.00000000
_cell_angle_gamma   119.99999920
_symmetry_Int_Tables_number   1
_chemical_formula_structural   La23Mg4Pt7
_chemical_formula_sum   'La46 Mg8 Pt14'
_cell_volume   2163.55197952
_cell_formula_units_Z   2
loop_
 _symmetry_equiv_pos_site_id
 _symmetry_equiv_pos_as_xyz
  1  'x, y, z'
loop_
 _atom_site_type_symbol
 _atom_site_label
 _atom_site_symmetry_multiplicity
 _atom_site_fract_x
 _atom_site_fract_y
 _atom_site_fract_z
 _atom_site_occupancy
  La  La0  1  0.20654461  0.41308921  0.71925424  1
  La  La1  1  0.20654461  0.79345539  0.71925424  1
  La  La2  1  0.79345539  0.58691079  0.21925424  1
  La  La3  1  0.58691079  0.79345539  0.71925424  1
  La  La4  1  0.79345539  0.20654461  0.21925424  1
  La  La5  1  0.41308921  0.20654461  0.21925424  1
  La  La6  1  0.79302701  0.58605401  0.94713432  1
  La  La7  1  0.79302701  0.20697299  0.94713432  1
  La  La8  1  0.20697299  0.41394599  0.44713432  1
  La  La9  1  0.41394599  0.20697299  0.94713432  1
  La  La10  1  0.20697299  0.79302701  0.44713432  1
  La  La11  1  0.58605401  0.79302701  0.44713432  1
  La  La12  1  0.21118998  0.42237996  0.99105760  1
  La  La13  1  0.21118998  0.78881002  0.99105760  1
  La  La14  1  0.78881002  0.57762004  0.49105760  1
  La  La15  1  0.57762004  0.78881002  0.99105760  1
  La  La16  1  0.78881002  0.21118998  0.49105760  1
  La  La17  1  0.42237996  0.21118998  0.49105760  1
  La  La18  1  0.87114722  0.74229445  0.63480718  1
  La  La19  1  0.87114722  0.12885278  0.63480718  1
  La  La20  1  0.12885278  0.25770555  0.13480718  1
  La  La21  1  0.25770555  0.12885278  0.63480718  1
  La  La22  1  0.12885278  0.87114722  0.13480718  1
  La  La23  1  0.74229445  0.87114722  0.13480718  1
  La  La24  1  0.45752259  0.91504517  0.85621974  1
  La  La25  1  0.45752259  0.54247741  0.85621974  1
  La  La26  1  0.54247741  0.08495483  0.35621974  1
  La  La27  1  0.08495483  0.54247741  0.85621974  1
  La  La28  1  0.54247741  0.45752259  0.35621974  1
  La  La29  1  0.91504517  0.45752259  0.35621974  1
  La  La30  1  0.00000000  -0.00000000  0.99936456  1
  La  La31  1  0.00000000  -0.00000000  0.49936456  1
  La  La32  1  0.46070384  0.92140767  0.58524743  1
  La  La33  1  0.46070384  0.53929616  0.58524743  1
  La  La34  1  0.53929616  0.07859233  0.08524743  1
  La  La35  1  0.07859233  0.53929616  0.58524743  1
  La  La36  1  0.53929616  0.46070384  0.08524743  1
  La  La37  1  0.92140767  0.46070384  0.08524743  1
  La  La38  1  0.79562389  0.59124778  0.78223775  1
  La  La39  1  0.79562389  0.20437611  0.78223775  1
  La  La40  1  0.20437611  0.40875222  0.28223775  1
  La  La41  1  0.40875222  0.20437611  0.78223775  1
  La  La42  1  0.20437611  0.79562389  0.28223775  1
  La  La43  1  0.59124778  0.79562389  0.28223775  1
  La  La44  1  0.66666700  0.33333300  0.64432279  1
  La  La45  1  0.33333300  0.66666700  0.14432279  1
  Mg  Mg0  1  0.00000000  -0.00000000  0.75021286  1
  Mg  Mg1  1  0.00000000  -0.00000000  0.25021286  1
  Mg  Mg2  1  0.10573639  0.21147277  0.86265817  1
  Mg  Mg3  1  0.10573639  0.89426361  0.86265817  1
  Mg  Mg4  1  0.89426361  0.78852723  0.36265817  1
  Mg  Mg5  1  0.78852723  0.89426361  0.86265817  1
  Mg  Mg6  1  0.89426361  0.10573639  0.36265817  1
  Mg  Mg7  1  0.21147277  0.10573639  0.36265817  1
  Pt  Pt0  1  0.52130243  0.04260485  0.71004429  1
  Pt  Pt1  1  0.52130243  0.47869757  0.71004429  1
  Pt  Pt2  1  0.47869757  0.95739515  0.21004429  1
  Pt  Pt3  1  0.95739515  0.47869757  0.71004429  1
  Pt  Pt4  1  0.47869757  0.52130243  0.21004429  1
  Pt  Pt5  1  0.04260485  0.52130243  0.21004429  1
  Pt  Pt6  1  0.66666700  0.33333300  0.86337668  1
  Pt  Pt7  1  0.33333300  0.66666700  0.36337668  1
  Pt  Pt8  1  0.14319746  0.28639492  0.56448698  1
  Pt  Pt9  1  0.14319746  0.85680254  0.56448698  1
  Pt  Pt10  1  0.85680254  0.71360508  0.06448698  1
  Pt  Pt11  1  0.71360508  0.85680254  0.56448698  1
  Pt  Pt12  1  0.85680254  0.14319746  0.06448698  1
  Pt  Pt13  1  0.28639492  0.14319746  0.06448698  1
loop_
_geom_bond_atom_site_label_1
_geom_bond_atom_site_label_2
_geom_bond_distance
_geom_bond_site_symmetry_2
La0 Pt3 2.981862 1_455
La0 Pt1 2.981862 1_555
La0 Mg0 3.769251 1_555
La0 Mg2 3.806151 1_555
La0 La27 3.910811 1_555
La0 La25 3.910811 1_555
La1 Pt0 2.981862 1_565
La1 Pt3 2.981862 1_455
La1 Mg0 3.769251 1_565
La1 Mg3 3.806151 1_555
La1 La27 3.910811 1_555
La1 La24 3.910811 1_555
La2 Pt5 2.981862 1_655
La2 Pt4 2.981862 1_555
La2 Mg1 3.769251 1_665
La2 Mg4 3.806151 1_555
La2 La29 3.910811 1_555
La2 La28 3.910811 1_555
La3 Pt0 2.981862 1_565
La3 Pt1 2.981862 1_555
La3 Mg0 3.769251 1_665
La3 Mg5 3.806151 1_555
La4 Pt2 2.981862 1_545
La4 Pt5 2.981862 1_655
La4 Mg1 3.769251 1_655
La4 Mg6 3.806151 1_555
La5 Pt2 2.981862 1_545
La5 Pt4 2.981862 1_555
La5 Mg1 3.769251 1_555
La5 Mg7 3.806151 1_555
La6 Pt10 2.970378 1_556
La6 Pt6 2.991920 1_555
La6 Mg5 3.768712 1_555
La6 Mg3 3.768712 1_655
La7 Pt12 2.970378 1_556
La7 Pt6 2.991913 1_555
La7 Mg2 3.768712 1_655
La7 Mg5 3.768712 1_545
La8 Pt8 2.970378 1_555
La8 Pt7 2.991920 1_555
La8 Mg7 3.768712 1_555
La8 Mg6 3.768712 1_455
La9 Pt13 2.970378 1_556
La9 Pt6 2.991920 1_555
La9 Mg2 3.768712 1_555
La9 Mg3 3.768712 1_545
La10 Pt9 2.970378 1_555
La10 Pt7 2.991913 1_555
La10 Mg7 3.768712 1_565
La10 Mg4 3.768712 1_455
La10 La17 3.883265 1_565
La10 La14 3.883265 1_455
La10 La29 3.897138 1_455
La10 La26 3.897138 1_565
La11 Pt11 2.970378 1_555
La11 Pt7 2.991920 1_555
La11 Mg4 3.768712 1_555
La11 Mg6 3.768712 1_565
La11 La16 3.883265 1_565
La11 La14 3.883265 1_555
La11 La26 3.897138 1_565
La11 La28 3.897138 1_555
La12 Mg2 3.545086 1_555
La12 La20 3.668224 1_556
La12 Pt13 3.758593 1_556
La12 Pt12 3.758594 1_456
La12 La30 3.787364 1_555
La12 La13 3.788988 1_555
La12 La15 3.788988 1_555
La12 La27 3.846147 1_555
La12 La25 3.846147 1_555
La12 La7 3.883265 1_455
La12 La9 3.883265 1_555
La12 La36 3.894416 1_556
La12 La37 3.894416 1_456
La12 La45 4.196396 1_556
La13 Mg3 3.545086 1_555
La13 La22 3.668224 1_556
La13 Pt10 3.758593 1_456
La13 Pt13 3.758593 1_566
La13 La30 3.787364 1_565
La13 La15 3.788988 1_555
La13 La24 3.846147 1_555
La13 La27 3.846147 1_555
La13 La9 3.883265 1_565
La13 La6 3.883265 1_455
La13 La37 3.894416 1_456
La13 La34 3.894416 1_566
La13 La45 4.196392 1_556
La14 Mg4 3.545086 1_555
La14 La18 3.668224 1_555
La14 Pt11 3.758593 1_555
La14 Pt9 3.758594 1_655
La14 La31 3.787364 1_665
La14 La16 3.788988 1_555
La14 La17 3.788988 1_555
La14 La29 3.846147 1_555
La14 La28 3.846147 1_555
La14 La33 3.894416 1_555
La14 La35 3.894416 1_655
La14 La44 4.196396 1_555
La15 Mg5 3.545086 1_555
La15 La23 3.668224 1_556
La15 Pt10 3.758593 1_556
La15 Pt12 3.758594 1_566
La15 La30 3.787364 1_665
La15 La24 3.846147 1_555
La15 La25 3.846147 1_555
La15 La7 3.883265 1_565
La15 La6 3.883265 1_555
La15 La36 3.894416 1_556
La15 La34 3.894416 1_566
La15 La45 4.196396 1_556
La16 Mg6 3.545086 1_555
La16 La19 3.668224 1_555
La16 Pt11 3.758593 1_545
La16 Pt8 3.758593 1_655
La16 La31 3.787364 1_655
La16 La17 3.788988 1_555
La16 La29 3.846147 1_555
La16 La26 3.846147 1_555
La16 La8 3.883265 1_655
La16 La32 3.894416 1_545
La16 La35 3.894416 1_655
La16 La44 4.196392 1_555
La17 Mg7 3.545086 1_555
La17 La21 3.668224 1_555
La17 Pt8 3.758593 1_555
La17 Pt9 3.758594 1_545
La17 La31 3.787364 1_555
La17 La26 3.846147 1_555
La17 La28 3.846147 1_555
La17 La8 3.883265 1_555
La17 La33 3.894416 1_555
La17 La32 3.894416 1_545
La17 La44 4.196396 1_555
La18 Pt11 2.946893 1_555
La18 Pt9 2.946893 1_655
La18 Mg0 3.549189 1_665
La18 Pt1 3.707531 1_555
La18 Pt3 3.707531 1_555
La19 Pt11 2.946893 1_545
La19 Pt8 2.946893 1_655
La19 Mg0 3.549189 1_655
La19 Pt3 3.707531 1_555
La19 Pt0 3.707531 1_555
La20 Pt13 2.946893 1_555
La20 Pt12 2.946893 1_455
La20 Mg1 3.549189 1_555
La20 Pt4 3.707531 1_555
La20 Pt5 3.707531 1_555
La21 Pt8 2.946893 1_555
La21 Pt9 2.946893 1_545
La21 Mg0 3.549189 1_555
La21 Pt1 3.707531 1_555
La21 Pt0 3.707531 1_555
La22 Pt10 2.946893 1_455
La22 Pt13 2.946893 1_565
La22 Mg1 3.549189 1_565
La22 Pt2 3.707531 1_555
La22 Pt5 3.707531 1_555
La23 Pt10 2.946893 1_555
La23 Pt12 2.946893 1_565
La23 Mg1 3.549189 1_665
La23 Pt4 3.707531 1_555
La23 Pt2 3.707531 1_555
La24 Mg5 3.538224 1_555
La24 Mg3 3.538224 1_555
La24 Pt0 3.601398 1_565
La24 La39 3.701596 1_565
La24 La41 3.701596 1_565
La24 Pt6 3.749474 1_565
La24 La25 3.852453 1_555
La24 La27 3.852453 1_555
La24 La9 3.897138 1_565
La24 La7 3.897138 1_565
La24 La3 3.910811 1_555
La25 Mg5 3.538224 1_555
La25 Mg2 3.538224 1_555
La25 Pt1 3.601398 1_555
La25 La41 3.701596 1_555
La25 La38 3.701596 1_555
La25 Pt6 3.749483 1_555
La25 La27 3.852453 1_555
La25 La6 3.897138 1_555
La25 La9 3.897138 1_555
La25 La3 3.910811 1_555
La26 Mg7 3.538224 1_555
La26 Mg6 3.538224 1_555
La26 Pt2 3.601398 1_545
La26 La42 3.701596 1_545
La26 La43 3.701596 1_545
La26 Pt7 3.749474 1_545
La26 La28 3.852453 1_555
La26 La29 3.852453 1_555
La26 La5 3.910811 1_555
La26 La4 3.910811 1_555
La27 Mg2 3.538224 1_555
La27 Mg3 3.538224 1_555
La27 Pt3 3.601398 1_455
La27 La39 3.701596 1_455
La27 La38 3.701596 1_455
La27 Pt6 3.749474 1_455
La27 La6 3.897138 1_455
La27 La7 3.897138 1_455
La28 Mg4 3.538224 1_555
La28 Mg7 3.538224 1_555
La28 Pt4 3.601398 1_555
La28 La43 3.701596 1_555
La28 La40 3.701596 1_555
La28 Pt7 3.749483 1_555
La28 La29 3.852453 1_555
La28 La8 3.897138 1_555
La28 La5 3.910811 1_555
La29 Mg4 3.538224 1_555
La29 Mg6 3.538224 1_555
La29 Pt5 3.601398 1_655
La29 La42 3.701596 1_655
La29 La40 3.701596 1_655
La29 Pt7 3.749474 1_655
La29 La8 3.897138 1_655
La29 La4 3.910811 1_555
La30 Pt12 2.982067 1_456
La30 Pt13 2.982067 1_556
La30 Pt10 2.982067 1_446
La30 Mg5 3.713364 1_445
La30 Mg2 3.713364 1_555
La30 Mg3 3.713365 1_545
La31 Pt9 2.982067 1_545
La31 Pt8 2.982067 1_555
La31 Pt11 2.982067 1_445
La31 Mg4 3.713364 1_445
La31 Mg7 3.713364 1_555
La31 Mg6 3.713365 1_455
La32 Pt11 3.044193 1_555
La32 Pt9 3.044193 1_555
La32 Pt0 3.111353 1_565
La33 Pt11 3.044193 1_555
La33 Pt8 3.044193 1_555
La33 Pt1 3.111353 1_555
La34 Pt13 3.044193 1_555
La34 Pt12 3.044193 1_555
La34 Pt2 3.111353 1_545
La35 Pt8 3.044193 1_555
La35 Pt9 3.044193 1_555
La35 Pt3 3.111353 1_455
La36 Pt10 3.044193 1_555
La36 Pt13 3.044193 1_555
La36 Pt4 3.111353 1_555
La37 Pt10 3.044193 1_555
La37 Pt12 3.044193 1_555
La37 Pt5 3.111353 1_655
La38 Pt6 2.988062 1_555
La38 Pt1 2.990768 1_555
La38 Pt3 2.990768 1_555
La38 Mg5 3.685581 1_555
La38 Mg3 3.685581 1_655
La38 Mg0 3.736053 1_665
La39 Pt6 2.988055 1_555
La39 Pt0 2.990768 1_555
La39 Pt3 2.990768 1_555
La39 Mg2 3.685581 1_655
La39 Mg5 3.685581 1_545
La39 Mg0 3.736053 1_655
La40 Pt7 2.988062 1_555
La40 Pt4 2.990768 1_555
La40 Pt5 2.990768 1_555
La40 Mg7 3.685581 1_555
La40 Mg6 3.685581 1_455
La40 Mg1 3.736053 1_555
La41 Pt6 2.988062 1_555
La41 Pt1 2.990768 1_555
La41 Pt0 2.990768 1_555
La41 Mg2 3.685581 1_555
La41 Mg3 3.685581 1_545
La41 Mg0 3.736053 1_555
La42 Pt7 2.988055 1_555
La42 Pt5 2.990768 1_555
La42 Pt2 2.990768 1_555
La42 Mg7 3.685581 1_565
La42 Mg4 3.685581 1_455
La42 Mg1 3.736053 1_565
La43 Pt7 2.988062 1_555
La43 Pt4 2.990768 1_555
La43 Pt2 2.990768 1_555
La43 Mg4 3.685581 1_555
La43 Mg6 3.685581 1_565
La43 Mg1 3.736053 1_665
La44 Pt0 3.022591 1_555
La44 Pt3 3.022591 1_555
La44 Pt1 3.022599 1_555
La45 Pt5 3.022591 1_555
La45 Pt2 3.022591 1_555
La45 Pt4 3.022599 1_555
Mg0 Mg5 3.238678 1_445
Mg0 Mg2 3.238678 1_555
Mg0 Mg3 3.238678 1_545
Mg1 Mg7 3.238678 1_555
Mg1 Mg4 3.238678 1_445
Mg1 Mg6 3.238678 1_455
Mg2 Mg3 3.280030 1_545
Mg2 Mg5 3.280030 1_445
Mg3 Mg5 3.280030 1_455
Mg4 Mg6 3.280030 1_565
Mg4 Mg7 3.280030 1_665
Mg6 Mg7 3.280030 1_655
