# generated using pymatgen
data_Li7Mn2(CoO4)3
_symmetry_space_group_name_H-M   'P 1'
_cell_length_a   3.01595700
_cell_length_b   7.64596127
_cell_length_c   9.77185008
_cell_angle_alpha   91.98913938
_cell_angle_beta   95.94974503
_cell_angle_gamma   98.15848048
_symmetry_Int_Tables_number   1
_chemical_formula_structural   Li7Mn2(CoO4)3
_chemical_formula_sum   'Li7 Mn2 Co3 O12'
_cell_volume   221.57598518
_cell_formula_units_Z   1
loop_
 _symmetry_equiv_pos_site_id
 _symmetry_equiv_pos_as_xyz
  1  'x, y, z'
loop_
 _atom_site_type_symbol
 _atom_site_label
 _atom_site_symmetry_multiplicity
 _atom_site_fract_x
 _atom_site_fract_y
 _atom_site_fract_z
 _atom_site_occupancy
  Li  Li0  1  0.57850200  0.41614600  0.74170400  1
  Li  Li1  1  0.75974400  0.24883400  0.25483700  1
  Li  Li2  1  0.91455100  0.08347400  0.74762900  1
  Li  Li3  1  0.08544900  0.91652600  0.25237100  1
  Li  Li4  1  0.24025600  0.75116600  0.74516300  1
  Li  Li5  1  0.42149800  0.58385400  0.25829600  1
  Li  Li6  1  0.00000000  0.50000000  0.50000000  1
  Mn  Mn0  1  0.83988200  0.66837300  0.00254400  1
  Mn  Mn1  1  0.16011800  0.33162700  0.99745600  1
  Co  Co0  1  0.34399200  0.17653200  0.50208300  1
  Co  Co1  1  0.50000000  0.00000000  0.00000000  1
  Co  Co2  1  0.65600800  0.82346800  0.49791700  1
  O  O0  1  0.18215700  0.54014800  0.88211500  1
  O  O1  1  0.36371900  0.34609900  0.38516700  1
  O  O2  1  0.51800500  0.21072300  0.88171000  1
  O  O3  1  0.68921000  0.03183500  0.39264600  1
  O  O4  1  0.86758400  0.87616400  0.88541200  1
  O  O5  1  0.02898900  0.71972300  0.38543200  1
  O  O6  1  0.97101100  0.28027700  0.61456800  1
  O  O7  1  0.13241600  0.12383600  0.11458800  1
  O  O8  1  0.31079000  0.96816500  0.60735400  1
  O  O9  1  0.48199500  0.78927700  0.11829000  1
  O  O10  1  0.63628100  0.65390100  0.61483300  1
  O  O11  1  0.81784300  0.45985200  0.11788500  1
loop_
_geom_bond_atom_site_label_1
_geom_bond_atom_site_label_2
_geom_bond_distance
_geom_bond_site_symmetry_2
Li0 O2 2.119335 1_555
Li0 O6 2.142043 1_555
Li0 O0 2.186727 1_555
Li0 O6 2.208573 1_455
Li0 O10 2.232342 1_555
Li0 O0 2.235620 1_655
Li1 O1 2.025665 1_555
Li1 O11 2.131460 1_555
Li1 O1 2.135872 1_655
Li1 O7 2.142022 1_655
Li1 O3 2.173906 1_555
Li1 O7 2.286834 1_555
Li2 O6 2.023096 1_555
Li2 O4 2.114072 1_545
Li2 O8 2.153859 1_645
Li2 O2 2.158759 1_555
Li2 O2 2.211387 1_655
Li2 O8 2.216977 1_545
Li3 O5 2.023096 1_555
Li3 O7 2.114072 1_565
Li3 O3 2.153859 1_465
Li3 O9 2.158759 1_555
Li3 O9 2.211387 1_455
Li3 O3 2.216977 1_565
Li4 O10 2.025665 1_555
Li4 O0 2.131460 1_555
Li4 O10 2.135872 1_455
Li4 O4 2.142022 1_455
Li4 O8 2.173906 1_555
Li4 O4 2.286834 1_555
Li5 O9 2.119335 1_555
Li5 O5 2.142043 1_555
Li5 O11 2.186727 1_555
Li5 O5 2.208573 1_655
Li5 O1 2.232342 1_555
Li5 O11 2.235620 1_455
Li6 O6 2.047576 1_455
Li6 O5 2.047576 1_555
Li6 O10 2.092142 1_455
Li6 O1 2.092142 1_555
Li6 O10 2.268789 1_555
Li6 O1 2.268789 1_455
Mn0 O9 1.939741 1_555
Mn0 O0 1.967408 1_654
Mn0 O11 1.981639 1_555
Mn0 O4 1.987369 1_554
Mn0 O9 2.202140 1_655
Mn0 O0 2.272665 1_554
Mn1 O2 1.939741 1_555
Mn1 O11 1.967408 1_456
Mn1 O0 1.981639 1_555
Mn1 O7 1.987369 1_556
Mn1 O2 2.202140 1_455
Mn1 O11 2.272665 1_556
Co0 O1 1.756348 1_555
Co0 O6 1.884642 1_455
Co0 O8 1.922566 1_545
Co0 O3 1.981734 1_555
Co0 O6 2.120458 1_555
Co0 O3 2.264375 1_455
Co1 O4 1.964951 1_544
Co1 O7 1.964951 1_555
Co1 O2 2.013070 1_554
Co1 O9 2.013070 1_545
Co1 O4 2.181590 1_444
Co1 O7 2.181590 1_655
Co2 O10 1.756348 1_555
Co2 O5 1.884642 1_655
Co2 O3 1.922566 1_565
Co2 O8 1.981734 1_555
Co2 O5 2.120458 1_555
Co2 O8 2.264375 1_655
