# generated using pymatgen
data_I(NO3)2
_symmetry_space_group_name_H-M   'P 1'
_cell_length_a   4.89971754
_cell_length_b   4.89971754
_cell_length_c   6.79205341
_cell_angle_alpha   68.85711669
_cell_angle_beta   68.85711669
_cell_angle_gamma   60.00000626
_symmetry_Int_Tables_number   1
_chemical_formula_structural   I(NO3)2
_chemical_formula_sum   'I1 N2 O6'
_cell_volume   128.38187634
_cell_formula_units_Z   1
loop_
 _symmetry_equiv_pos_site_id
 _symmetry_equiv_pos_as_xyz
  1  'x, y, z'
loop_
 _atom_site_type_symbol
 _atom_site_label
 _atom_site_symmetry_multiplicity
 _atom_site_fract_x
 _atom_site_fract_y
 _atom_site_fract_z
 _atom_site_occupancy
  I  I0  1  0.00000000  0.00000000  0.00000000  1
  N  N0  1  0.42666100  0.42666100  0.72001700  1
  N  N1  1  0.57333900  0.57333900  0.27998300  1
  O  O0  1  0.43406400  0.68300100  0.71984100  1
  O  O1  1  0.16309400  0.43406400  0.71984100  1
  O  O2  1  0.68300100  0.16309400  0.71984100  1
  O  O3  1  0.56593600  0.31699900  0.28015900  1
  O  O4  1  0.83690600  0.56593600  0.28015900  1
  O  O5  1  0.31699900  0.83690600  0.28015900  1
loop_
_geom_bond_atom_site_label_1
_geom_bond_atom_site_label_2
_geom_bond_distance
_geom_bond_site_symmetry_2
I0 O4 2.542801 1_445
I0 O1 2.542801 1_554
I0 O3 2.542802 1_455
I0 O0 2.542802 1_544
I0 O5 2.542802 1_545
I0 O2 2.542802 1_454
N0 O0 1.274080 1_555
N0 O1 1.274080 1_555
N0 O2 1.274081 1_555
N1 O3 1.274080 1_555
N1 O4 1.274080 1_555
N1 O5 1.274081 1_555
