# generated using pymatgen
data_Mg3Si4
_symmetry_space_group_name_H-M   'P 1'
_cell_length_a   3.94472100
_cell_length_b   8.25268100
_cell_length_c   9.00229735
_cell_angle_alpha   110.62254698
_cell_angle_beta   99.93878710
_cell_angle_gamma   95.38095607
_symmetry_Int_Tables_number   1
_chemical_formula_structural   Mg3Si4
_chemical_formula_sum   'Mg6 Si8'
_cell_volume   266.34529527
_cell_formula_units_Z   2
loop_
 _symmetry_equiv_pos_site_id
 _symmetry_equiv_pos_as_xyz
  1  'x, y, z'
loop_
 _atom_site_type_symbol
 _atom_site_label
 _atom_site_symmetry_multiplicity
 _atom_site_fract_x
 _atom_site_fract_y
 _atom_site_fract_z
 _atom_site_occupancy
  Mg  Mg0  1  0.71345200  0.58752900  0.51596000  1
  Mg  Mg1  1  0.33449900  0.87237200  0.75480700  1
  Mg  Mg2  1  0.44776300  0.34711600  0.93482300  1
  Mg  Mg3  1  0.00132000  0.66451000  0.97108900  1
  Mg  Mg4  1  0.11790700  0.08488100  0.49619000  1
  Mg  Mg5  1  0.04175200  0.37629300  0.22312500  1
  Si  Si0  1  0.76065900  0.33242200  0.66260800  1
  Si  Si1  1  0.31897800  0.52321100  0.72251600  1
  Si  Si2  1  0.19382600  0.74752800  0.39507400  1
  Si  Si3  1  0.60294200  0.66636500  0.21229700  1
  Si  Si4  1  0.87447600  0.11535500  0.80817200  1
  Si  Si5  1  0.65770800  0.93763400  0.15783300  1
  Si  Si6  1  0.55088300  0.21458700  0.33768500  1
  Si  Si7  1  0.13061300  0.03030800  0.05448800  1
loop_
_geom_bond_atom_site_label_1
_geom_bond_atom_site_label_2
_geom_bond_distance
_geom_bond_site_symmetry_2
Mg0 Si1 2.774886 1_555
Mg0 Si2 2.788079 1_655
Mg0 Si2 2.806997 1_555
Mg0 Si0 2.855941 1_555
Mg0 Si6 2.873094 1_555
Mg0 Si1 2.974024 1_655
Mg0 Si3 2.996819 1_555
Mg1 Si4 2.637437 1_565
Mg1 Si1 2.786054 1_555
Mg1 Si4 2.801729 1_465
Mg1 Si7 2.844741 1_566
Mg1 Si2 2.962929 1_555
Mg2 Si4 2.614371 1_455
Mg2 Si4 2.742577 1_555
Mg2 Si1 2.789762 1_555
Mg2 Si3 2.844203 1_556
Mg2 Si0 2.899355 1_555
Mg3 Si1 2.709477 1_555
Mg3 Si7 2.814167 1_566
Mg3 Si3 2.888586 1_456
Mg3 Si5 2.904194 1_456
Mg3 Si3 2.922062 1_556
Mg3 Si1 3.017653 1_455
Mg3 Si5 3.056894 1_556
Mg3 Si0 3.060220 1_455
Mg4 Si2 2.671069 1_545
Mg4 Si0 2.741641 1_455
Mg4 Si6 2.770079 1_555
Mg4 Si0 2.899629 1_555
Mg4 Si6 2.933971 1_455
Mg4 Si5 3.019996 1_445
Mg4 Si4 3.058113 1_455
Mg5 Si6 2.763200 1_555
Mg5 Si6 2.787127 1_455
Mg5 Si7 2.810389 1_555
Mg5 Si2 2.852413 1_555
Mg5 Si3 3.101570 1_455
Mg5 Si3 3.144152 1_555
Si0 Si1 2.441726 1_655
Si0 Si1 2.458927 1_555
Si0 Si4 2.594063 1_555
Si0 Si6 2.682573 1_555
Si2 Si3 2.470540 1_555
Si2 Si3 2.489162 1_455
Si3 Si5 2.453137 1_555
Si4 Si7 2.624183 1_656
Si5 Si7 2.400666 1_665
Si5 Si6 2.415032 1_565
Si5 Si7 2.430113 1_565
Si6 Si7 2.626376 1_555
