# generated using pymatgen
data_Zn(SbO2)2
_symmetry_space_group_name_H-M   'P 1'
_cell_length_a   7.21224640
_cell_length_b   7.21224640
_cell_length_c   21.86765146
_cell_angle_alpha   78.04189300
_cell_angle_beta   78.04189300
_cell_angle_gamma   53.99582112
_symmetry_Int_Tables_number   1
_chemical_formula_structural   Zn(SbO2)2
_chemical_formula_sum   'Zn8 Sb16 O32'
_cell_volume   894.96596015
_cell_formula_units_Z   8
loop_
 _symmetry_equiv_pos_site_id
 _symmetry_equiv_pos_as_xyz
  1  'x, y, z'
loop_
 _atom_site_type_symbol
 _atom_site_label
 _atom_site_symmetry_multiplicity
 _atom_site_fract_x
 _atom_site_fract_y
 _atom_site_fract_z
 _atom_site_occupancy
  Zn  Zn0  1  0.58811200  0.58811200  0.03098400  1
  Zn  Zn1  1  0.13564200  0.13564200  0.09601500  1
  Zn  Zn2  1  0.87955000  0.87955000  0.29353400  1
  Zn  Zn3  1  0.34402400  0.34402400  0.37928300  1
  Zn  Zn4  1  0.58416500  0.58416500  0.64961400  1
  Zn  Zn5  1  0.52681300  0.52681300  0.51287200  1
  Zn  Zn6  1  0.90898000  0.90898000  0.85231400  1
  Zn  Zn7  1  0.72535600  0.72535600  0.73974200  1
  Sb  Sb0  1  0.62242900  0.11313900  0.11948000  1
  Sb  Sb1  1  0.32372200  0.32372200  0.24592500  1
  Sb  Sb2  1  0.11313900  0.62242900  0.11948000  1
  Sb  Sb3  1  0.16777800  0.16777800  0.53120900  1
  Sb  Sb4  1  0.83321400  0.34674500  0.37818400  1
  Sb  Sb5  1  0.62925800  0.62925800  0.20395900  1
  Sb  Sb6  1  0.41967300  0.41967300  0.80180500  1
  Sb  Sb7  1  0.34674500  0.83321400  0.37818400  1
  Sb  Sb8  1  0.12461000  0.62412700  0.62449100  1
  Sb  Sb9  1  0.87792000  0.87792000  0.46210500  1
  Sb  Sb10  1  0.62412700  0.12461000  0.62449100  1
  Sb  Sb11  1  0.92642800  0.42618900  0.88082300  1
  Sb  Sb12  1  0.42618900  0.92642800  0.88082300  1
  Sb  Sb13  1  0.08510500  0.08510500  0.70425400  1
  Sb  Sb14  1  0.98391200  0.98391200  0.97908300  1
  Sb  Sb15  1  0.39054200  0.39054200  0.96379200  1
  O  O0  1  0.26303700  0.80282600  0.06137600  1
  O  O1  1  0.88599100  0.88599100  0.17837000  1
  O  O2  1  0.80282600  0.26303700  0.06137600  1
  O  O3  1  0.85353700  0.85353700  0.05867900  1
  O  O4  1  0.47723400  0.47723400  0.19707600  1
  O  O5  1  0.55225400  0.11751200  0.30809600  1
  O  O6  1  0.45404200  0.91250800  0.14509900  1
  O  O7  1  0.20485900  0.20485900  0.43542600  1
  O  O8  1  0.11751200  0.55225400  0.30809600  1
  O  O9  1  0.29178800  0.29178800  0.05064600  1
  O  O10  1  0.96569100  0.96569100  0.36246900  1
  O  O11  1  0.91250800  0.45404200  0.14509900  1
  O  O12  1  0.74440900  0.32888500  0.58424200  1
  O  O13  1  0.64114500  0.64114500  0.42822700  1
  O  O14  1  0.75719700  0.21224200  0.46176300  1
  O  O15  1  0.43490000  0.43490000  0.71048600  1
  O  O16  1  0.32888500  0.74440900  0.58424200  1
  O  O17  1  0.49895500  0.49895500  0.35690800  1
  O  O18  1  0.31615300  0.31615300  0.53939600  1
  O  O19  1  0.21224200  0.75719700  0.46176300  1
  O  O20  1  0.87736800  0.87736800  0.68408900  1
  O  O21  1  0.06246800  0.57816200  0.81655500  1
  O  O22  1  0.89547000  0.44658300  0.68955600  1
  O  O23  1  0.68597800  0.68597800  0.94024100  1
  O  O24  1  0.57816200  0.06246800  0.81655500  1
  O  O25  1  0.86278600  0.86278600  0.56591300  1
  O  O26  1  0.64707800  0.64707800  0.82745800  1
  O  O27  1  0.44658300  0.89547000  0.68955600  1
  O  O28  1  0.26827700  0.26827700  0.92236400  1
  O  O29  1  0.10380900  0.71557700  0.92963000  1
  O  O30  1  0.05379400  0.05379400  0.79717300  1
  O  O31  1  0.71557700  0.10380900  0.92963000  1
loop_
_geom_bond_atom_site_label_1
_geom_bond_atom_site_label_2
_geom_bond_distance
_geom_bond_site_symmetry_2
O0 Zn0 1.961839 1_555
O0 Sb2 2.208032 1_555
O0 Zn1 2.247615 1_565
O0 Sb14 2.536323 1_454
O1 Sb2 2.105827 1_655
O1 Sb0 2.105827 1_565
O1 Zn2 2.500413 1_555
O2 Zn0 1.961839 1_555
O2 Sb0 2.208032 1_555
O2 Zn1 2.247615 1_655
O2 Sb14 2.536323 1_544
O3 Sb14 2.116833 1_554
O3 Sb2 2.120314 1_655
O3 Sb0 2.120314 1_565
O4 Sb5 1.994277 1_555
O4 Sb1 2.013379 1_555
O5 Zn2 1.941906 1_545
O5 Sb1 1.996395 1_555
O5 Zn3 2.132635 1_555
O6 Sb5 1.994051 1_555
O6 Zn1 2.230709 1_565
O6 Sb0 2.308837 1_565
O7 Zn3 1.919687 1_555
O7 Sb3 2.037159 1_555
O7 Sb7 2.726414 1_545
O7 Sb4 2.726414 1_455
O8 Zn2 1.941906 1_455
O8 Sb1 1.996395 1_555
O8 Zn3 2.132635 1_555
O9 Zn1 2.021349 1_555
O9 Sb15 2.024141 1_554
O9 Sb0 2.585325 1_555
O9 Sb2 2.585325 1_555
O10 Zn2 2.067443 1_555
O10 Sb9 2.208317 1_555
O10 Sb7 2.398340 1_655
O10 Sb4 2.398340 1_565
O11 Sb5 1.994051 1_555
O11 Zn1 2.230709 1_655
O11 Sb2 2.308837 1_655
O12 Sb10 2.084864 1_555
O12 Zn5 2.096260 1_555
O12 Zn4 2.161807 1_555
O12 Sb3 2.634061 1_655
O13 Zn5 2.078577 1_555
O13 Sb7 2.121663 1_555
O13 Sb4 2.121663 1_555
O14 Sb4 2.014288 1_555
O14 Sb9 2.024617 1_545
O14 Zn5 2.237504 1_555
O15 Sb6 1.960684 1_555
O15 Zn4 2.065102 1_555
O16 Sb8 2.084864 1_555
O16 Zn5 2.096260 1_555
O16 Zn4 2.161807 1_555
O16 Sb3 2.634061 1_565
O17 Zn3 1.936852 1_555
O17 Sb7 2.091661 1_555
O17 Sb4 2.091661 1_555
O18 Sb3 1.956393 1_555
O19 Sb7 2.014288 1_555
O19 Sb9 2.024617 1_455
O19 Zn5 2.237504 1_555
O20 Zn7 2.047532 1_555
O20 Sb8 2.099620 1_655
O20 Sb10 2.099620 1_565
O21 Sb11 2.047866 1_455
O21 Sb6 2.096175 1_555
O21 Zn6 2.199727 1_455
O22 Zn7 2.051424 1_555
O22 Sb13 2.100834 1_655
O22 Zn4 2.150043 1_555
O22 Sb8 2.674653 1_655
O23 Zn0 2.087802 1_556
O23 Sb11 2.112163 1_555
O23 Sb12 2.112163 1_555
O24 Sb12 2.047866 1_545
O24 Sb6 2.096175 1_555
O24 Zn6 2.199727 1_545
O25 Sb10 2.106361 1_565
O25 Sb8 2.106361 1_655
O25 Sb9 2.232835 1_555
O26 Zn7 1.947808 1_555
O26 Sb12 2.095059 1_555
O26 Sb11 2.095059 1_555
O27 Zn7 2.051424 1_555
O27 Sb13 2.100834 1_565
O27 Zn4 2.150043 1_555
O27 Sb10 2.674653 1_565
O28 Sb15 1.988001 1_555
O28 Sb12 2.323591 1_545
O28 Sb11 2.323591 1_455
O29 Sb14 2.043243 1_455
O29 Zn6 2.116956 1_455
O29 Sb15 2.131901 1_555
O30 Zn6 1.968345 1_445
O30 Sb13 1.977462 1_555
O31 Sb14 2.043243 1_545
O31 Zn6 2.116956 1_545
O31 Sb15 2.131901 1_555
