# generated using pymatgen
data_Si3NiMo12
_symmetry_space_group_name_H-M   'P 1'
_cell_length_a   4.92456200
_cell_length_b   4.92344000
_cell_length_c   9.85498000
_cell_angle_alpha   90.00000000
_cell_angle_beta   90.00000000
_cell_angle_gamma   90.00000000
_symmetry_Int_Tables_number   1
_chemical_formula_structural   Si3NiMo12
_chemical_formula_sum   'Si3 Ni1 Mo12'
_cell_volume   238.94173151
_cell_formula_units_Z   1
loop_
 _symmetry_equiv_pos_site_id
 _symmetry_equiv_pos_as_xyz
  1  'x, y, z'
loop_
 _atom_site_type_symbol
 _atom_site_label
 _atom_site_symmetry_multiplicity
 _atom_site_fract_x
 _atom_site_fract_y
 _atom_site_fract_z
 _atom_site_occupancy
  Si  Si0  1  0.50000000  0.50000000  0.75000000  1
  Si  Si1  1  0.00000000  0.00000000  0.00001300  1
  Si  Si2  1  0.00000000  0.00000000  0.49998700  1
  Ni  Ni0  1  0.50000000  0.50000000  0.25000000  1
  Mo  Mo0  1  0.00000000  0.50000000  0.37537800  1
  Mo  Mo1  1  0.00000000  0.50000000  0.87444100  1
  Mo  Mo2  1  0.50000000  0.24972000  0.00051400  1
  Mo  Mo3  1  0.50000000  0.24972000  0.49948600  1
  Mo  Mo4  1  0.75016300  0.00000000  0.25000000  1
  Mo  Mo5  1  0.74925100  0.00000000  0.75000000  1
  Mo  Mo6  1  0.00000000  0.50000000  0.12462200  1
  Mo  Mo7  1  0.00000000  0.50000000  0.62555900  1
  Mo  Mo8  1  0.50000000  0.75028000  0.00051400  1
  Mo  Mo9  1  0.50000000  0.75028000  0.49948600  1
  Mo  Mo10  1  0.24983700  0.00000000  0.25000000  1
  Mo  Mo11  1  0.25074900  0.00000000  0.75000000  1
loop_
_geom_bond_atom_site_label_1
_geom_bond_atom_site_label_2
_geom_bond_distance
_geom_bond_site_symmetry_2
Mo0 Mo7 2.465529 1_555
Mo0 Mo6 2.471195 1_555
Mo0 Si2 2.751017 1_565
Mo0 Si2 2.751017 1_555
Mo0 Ni0 2.754910 1_455
Mo0 Ni0 2.754910 1_555
Mo1 Mo7 2.452727 1_555
Mo1 Mo6 2.465529 1_556
Mo1 Si0 2.750781 1_555
Mo1 Si0 2.750781 1_455
Mo1 Si1 2.755267 1_556
Mo1 Si1 2.755267 1_566
Mo2 Mo8 2.458963 1_545
Mo2 Mo8 2.464477 1_555
Mo2 Ni0 2.750185 1_555
Mo2 Si1 2.752177 1_555
Mo2 Si1 2.752177 1_655
Mo2 Si0 2.759246 1_554
Mo3 Mo9 2.458963 1_545
Mo3 Mo9 2.464477 1_555
Mo3 Ni0 2.750185 1_555
Mo3 Si2 2.752177 1_555
Mo3 Si2 2.752177 1_655
Mo3 Si0 2.759246 1_555
Mo4 Ni0 2.752771 1_555
Mo4 Ni0 2.752771 1_545
Mo4 Si2 2.753750 1_655
Mo4 Si1 2.753750 1_655
Mo5 Si0 2.750764 1_555
Mo5 Si0 2.750764 1_545
Mo5 Si1 2.755989 1_656
Mo5 Si2 2.755989 1_655
Mo6 Si1 2.751017 1_565
Mo6 Si1 2.751017 1_555
Mo6 Ni0 2.754910 1_455
Mo6 Ni0 2.754910 1_555
Mo7 Si0 2.750781 1_455
Mo7 Si0 2.750781 1_555
Mo7 Si2 2.755267 1_565
Mo7 Si2 2.755267 1_555
Mo8 Ni0 2.750185 1_555
Mo8 Si1 2.752177 1_665
Mo8 Si1 2.752177 1_565
Mo8 Si0 2.759246 1_554
Mo9 Ni0 2.750185 1_555
Mo9 Si2 2.752177 1_665
Mo9 Si2 2.752177 1_565
Mo9 Si0 2.759246 1_555
Mo10 Mo4 2.460676 1_455
Mo10 Mo4 2.463886 1_555
Mo10 Ni0 2.752771 1_545
Mo10 Ni0 2.752771 1_555
Mo10 Si2 2.753750 1_555
Mo10 Si1 2.753750 1_555
Mo11 Mo5 2.454904 1_555
Mo11 Mo5 2.469658 1_455
Mo11 Si0 2.750764 1_555
Mo11 Si0 2.750764 1_545
Mo11 Si1 2.755989 1_556
Mo11 Si2 2.755989 1_555
