# generated using pymatgen
data_BaYMnCoO5
_symmetry_space_group_name_H-M   'P 1'
_cell_length_a   5.61522524
_cell_length_b   5.60661001
_cell_length_c   8.62769792
_cell_angle_alpha   70.91045461
_cell_angle_beta   70.94011008
_cell_angle_gamma   89.80298295
_symmetry_Int_Tables_number   1
_chemical_formula_structural   BaYMnCoO5
_chemical_formula_sum   'Ba2 Y2 Mn2 Co2 O10'
_cell_volume   240.98182205
_cell_formula_units_Z   2
loop_
 _symmetry_equiv_pos_site_id
 _symmetry_equiv_pos_as_xyz
  1  'x, y, z'
loop_
 _atom_site_type_symbol
 _atom_site_label
 _atom_site_symmetry_multiplicity
 _atom_site_fract_x
 _atom_site_fract_y
 _atom_site_fract_z
 _atom_site_occupancy
  Ba  Ba0  1  0.99988000  0.00406000  0.99375000  1
  Ba  Ba1  1  0.50308100  0.50009700  0.99353300  1
  Y  Y0  1  0.24622500  0.24856400  0.50580800  1
  Y  Y1  1  0.74773600  0.74461300  0.50707000  1
  Mn  Mn0  1  0.36959900  0.86965900  0.26059700  1
  Mn  Mn1  1  0.86255300  0.36288600  0.27425300  1
  Co  Co0  1  0.12568300  0.62595100  0.74990700  1
  Co  Co1  1  0.62809600  0.12885900  0.73529600  1
  O  O0  1  0.50417700  0.00307500  0.99564900  1
  O  O1  1  0.00395900  0.50625800  0.99255000  1
  O  O2  1  0.40409600  0.90377600  0.68189000  1
  O  O3  1  0.91550000  0.41410400  0.68495700  1
  O  O4  1  0.91423700  0.90510100  0.68235500  1
  O  O5  1  0.40456100  0.41130600  0.68488700  1
  O  O6  1  0.60106500  0.10162600  0.31209500  1
  O  O7  1  0.08506300  0.58538900  0.31458800  1
  O  O8  1  0.08558500  0.09986400  0.31416700  1
  O  O9  1  0.59890100  0.58480800  0.31664500  1
loop_
_geom_bond_atom_site_label_1
_geom_bond_atom_site_label_2
_geom_bond_distance
_geom_bond_site_symmetry_2
Ba0 O0 2.778191 1_555
Ba0 O1 2.794372 1_645
Ba0 O1 2.812404 1_655
Ba0 O0 2.837110 1_655
Ba0 O3 3.068921 1_555
Ba0 O4 3.094784 1_545
Ba0 O5 3.095017 1_655
Ba0 O2 3.114416 1_645
Ba0 O6 3.132915 1_556
Ba0 O8 3.162957 1_656
Ba0 O7 3.163552 1_646
Ba0 O9 3.164219 1_546
Ba1 O0 2.780690 1_555
Ba1 O1 2.805523 1_555
Ba1 O1 2.810082 1_655
Ba1 O0 2.826066 1_565
Ba1 O5 3.078318 1_555
Ba1 O3 3.080344 1_555
Ba1 O2 3.106088 1_555
Ba1 O4 3.113602 1_555
Ba1 O6 3.132207 1_556
Ba1 O8 3.150261 1_556
Ba1 O7 3.165958 1_556
Ba1 O9 3.183364 1_556
Mn0 O0 2.028093 1_564
Mn0 O8 2.077850 1_565
Mn0 O9 2.080777 1_555
Mn0 O6 2.084441 1_565
Mn0 O7 2.087039 1_555
Mn1 O6 1.948594 1_555
Mn1 O8 1.948965 1_655
Mn1 O9 1.950642 1_555
Mn1 O7 1.953737 1_655
Mn1 O1 2.156342 1_654
Co0 O1 1.857357 1_555
Co0 O3 1.998652 1_455
Co0 O2 2.008584 1_555
Co0 O4 2.010329 1_455
Co0 O5 2.017437 1_555
Co1 O0 1.993377 1_555
Co1 O2 2.038797 1_545
Co1 O5 2.040773 1_555
Co1 O4 2.060514 1_545
Co1 O3 2.111016 1_555
O2 Y1 2.400495 1_555
O2 Y0 2.403644 1_565
O3 Y1 2.397643 1_555
O3 Y0 2.398122 1_655
O4 Y0 2.398980 1_665
O4 Y1 2.406264 1_555
O5 Y1 2.403712 1_555
O5 Y0 2.415577 1_555
O6 Y0 2.481208 1_555
O6 Y1 2.491122 1_545
O7 Y0 2.456111 1_555
O7 Y1 2.458916 1_455
O8 Y0 2.474551 1_555
O8 Y1 2.476211 1_445
O9 Y0 2.457978 1_555
O9 Y1 2.462758 1_555
