# generated using pymatgen
data_K2Nb4Fe2O13
_symmetry_space_group_name_H-M   'P 1'
_cell_length_a   8.43258061
_cell_length_b   8.43258061
_cell_length_c   9.63593106
_cell_angle_alpha   80.02825173
_cell_angle_beta   80.02825173
_cell_angle_gamma   27.17030742
_symmetry_Int_Tables_number   1
_chemical_formula_structural   K2Nb4Fe2O13
_chemical_formula_sum   'K2 Nb4 Fe2 O13'
_cell_volume   307.88076707
_cell_formula_units_Z   1
loop_
 _symmetry_equiv_pos_site_id
 _symmetry_equiv_pos_as_xyz
  1  'x, y, z'
loop_
 _atom_site_type_symbol
 _atom_site_label
 _atom_site_symmetry_multiplicity
 _atom_site_fract_x
 _atom_site_fract_y
 _atom_site_fract_z
 _atom_site_occupancy
  K  K0  1  0.55123000  0.55123000  0.74932700  1
  K  K1  1  0.44877000  0.44877000  0.25067300  1
  Nb  Nb0  1  0.83610800  0.83610800  0.93606800  1
  Nb  Nb1  1  0.88092600  0.88092600  0.58474800  1
  Nb  Nb2  1  0.16389200  0.16389200  0.06393200  1
  Nb  Nb3  1  0.11907400  0.11907400  0.41525200  1
  Fe  Fe0  1  0.76314200  0.76314200  0.27499900  1
  Fe  Fe1  1  0.23685800  0.23685800  0.72500100  1
  O  O0  1  0.62448600  0.62448600  0.38649600  1
  O  O1  1  0.37551400  0.37551400  0.61350400  1
  O  O2  1  0.00000000  0.00000000  0.50000000  1
  O  O3  1  0.69992800  0.69992800  0.06167000  1
  O  O4  1  0.30007200  0.30007200  0.93833000  1
  O  O5  1  0.16372000  0.16372000  0.57746900  1
  O  O6  1  0.83628000  0.83628000  0.42253100  1
  O  O7  1  0.06794800  0.06794800  0.19688300  1
  O  O8  1  0.77713200  0.77713200  0.74305200  1
  O  O9  1  0.22286800  0.22286800  0.25694800  1
  O  O10  1  0.93205200  0.93205200  0.80311700  1
  O  O11  1  0.13071900  0.13071900  0.89020300  1
  O  O12  1  0.86928100  0.86928100  0.10979700  1
loop_
_geom_bond_atom_site_label_1
_geom_bond_atom_site_label_2
_geom_bond_distance
_geom_bond_site_symmetry_2
K0 O10 2.765533 1_455
K0 O10 2.765533 1_545
K0 O11 2.845050 1_655
K0 O11 2.845050 1_565
K0 O5 2.996374 1_655
K0 O5 2.996374 1_565
K1 O7 2.765533 1_655
K1 O7 2.765533 1_565
K1 O12 2.845050 1_455
K1 O12 2.845050 1_545
K1 O6 2.996374 1_545
K1 O6 2.996374 1_455
Nb0 O10 1.843132 1_555
Nb0 O12 1.850001 1_556
Nb0 O4 2.065954 1_655
Nb0 O4 2.065954 1_565
Nb0 O8 2.243788 1_555
Nb0 O3 2.342205 1_556
Nb1 O6 1.840272 1_555
Nb1 O2 1.977193 1_665
Nb1 O1 1.999797 1_565
Nb1 O1 1.999797 1_655
Nb1 O8 2.072991 1_555
Nb1 O10 2.399669 1_555
Nb2 O7 1.843132 1_555
Nb2 O11 1.850001 1_554
Nb2 O3 2.065954 1_545
Nb2 O3 2.065954 1_455
Nb2 O9 2.243788 1_555
Nb2 O4 2.342205 1_554
Nb3 O5 1.840272 1_555
Nb3 O2 1.977193 1_555
Nb3 O0 1.999797 1_455
Nb3 O0 1.999797 1_545
Nb3 O9 2.072991 1_555
Nb3 O7 2.399669 1_555
Fe0 O6 2.016383 1_555
Fe0 O9 2.104842 1_655
Fe0 O9 2.104842 1_565
Fe0 O12 2.138853 1_555
Fe0 O0 2.334706 1_555
Fe0 O3 2.461394 1_555
Fe1 O5 2.016383 1_555
Fe1 O8 2.104842 1_545
Fe1 O8 2.104842 1_455
Fe1 O11 2.138853 1_555
Fe1 O1 2.334706 1_555
Fe1 O4 2.461394 1_555
