# generated using pymatgen
data_YMnFe
_symmetry_space_group_name_H-M   'P 1'
_cell_length_a   5.15177133
_cell_length_b   5.15177133
_cell_length_c   5.15177133
_cell_angle_alpha   120.71437395
_cell_angle_beta   119.23757672
_cell_angle_gamma   90.04637151
_symmetry_Int_Tables_number   1
_chemical_formula_structural   YMnFe
_chemical_formula_sum   'Y2 Mn2 Fe2'
_cell_volume   96.69904236
_cell_formula_units_Z   2
loop_
 _symmetry_equiv_pos_site_id
 _symmetry_equiv_pos_as_xyz
  1  'x, y, z'
loop_
 _atom_site_type_symbol
 _atom_site_label
 _atom_site_symmetry_multiplicity
 _atom_site_fract_x
 _atom_site_fract_y
 _atom_site_fract_z
 _atom_site_occupancy
  Y  Y0  1  0.37272700  0.12272700  0.25000000  1
  Y  Y1  1  0.62727300  0.87727300  0.75000000  1
  Mn  Mn0  1  0.50000000  0.50000000  0.00000000  1
  Mn  Mn1  1  0.00000000  0.50000000  0.50000000  1
  Fe  Fe0  1  0.00000000  0.50000000  0.00000000  1
  Fe  Fe1  1  0.00000000  0.00000000  0.50000000  1
loop_
_geom_bond_atom_site_label_1
_geom_bond_atom_site_label_2
_geom_bond_distance
_geom_bond_site_symmetry_2
Y0 Y1 3.151028 1_544
Y0 Y1 3.151028 1_555
Y0 Y1 3.159770 1_545
Y0 Y1 3.159770 1_444
Mn0 Mn1 2.605513 1_655
Mn0 Mn1 2.605513 1_554
Mn0 Y0 2.998075 1_565
Mn0 Y0 2.998075 1_554
Mn0 Y1 2.998075 1_544
Mn0 Y1 2.998075 1_555
Mn0 Y1 3.040791 1_554
Mn0 Y0 3.040791 1_555
Mn1 Y0 2.998075 1_566
Mn1 Y1 2.998075 1_455
Mn1 Y1 2.998075 1_444
Mn1 Y0 2.998075 1_555
Mn1 Y1 3.040791 1_555
Mn1 Y0 3.040791 1_455
Fe0 Fe1 2.548022 1_565
Fe0 Fe1 2.548022 1_554
Fe0 Mn0 2.575886 1_455
Fe0 Mn1 2.575886 1_554
Fe0 Mn0 2.575886 1_555
Fe0 Mn1 2.575886 1_555
Fe0 Y0 2.998584 1_565
Fe0 Y1 2.998584 1_444
Fe0 Y1 3.044822 1_555
Fe0 Y0 3.044822 1_454
Fe0 Y1 3.044822 1_454
Fe0 Y0 3.044822 1_555
Fe1 Mn1 2.575886 1_545
Fe1 Mn0 2.575886 1_445
Fe1 Mn0 2.575886 1_556
Fe1 Mn1 2.575886 1_555
Fe1 Y0 2.998584 1_555
Fe1 Y1 2.998584 1_445
Fe1 Y0 3.044822 1_455
Fe1 Y1 3.044822 1_444
Fe1 Y1 3.044822 1_545
Fe1 Y0 3.044822 1_556
