# generated using pymatgen
data_Gd2CoTe2(SO7)2
_symmetry_space_group_name_H-M   'P 1'
_cell_length_a   5.33887200
_cell_length_b   7.97825502
_cell_length_c   8.24400750
_cell_angle_alpha   115.76767933
_cell_angle_beta   106.96344396
_cell_angle_gamma   85.79889837
_symmetry_Int_Tables_number   1
_chemical_formula_structural   Gd2CoTe2(SO7)2
_chemical_formula_sum   'Gd2 Co1 Te2 S2 O14'
_cell_volume   301.89063682
_cell_formula_units_Z   1
loop_
 _symmetry_equiv_pos_site_id
 _symmetry_equiv_pos_as_xyz
  1  'x, y, z'
loop_
 _atom_site_type_symbol
 _atom_site_label
 _atom_site_symmetry_multiplicity
 _atom_site_fract_x
 _atom_site_fract_y
 _atom_site_fract_z
 _atom_site_occupancy
  Gd  Gd0  1  0.08571300  0.25176500  0.98341600  1
  Gd  Gd1  1  0.91428700  0.74823500  0.01658400  1
  Co  Co0  1  0.00000000  0.00000000  0.50000000  1
  Te  Te0  1  0.51812800  0.27089200  0.66049900  1
  Te  Te1  1  0.48187200  0.72910800  0.33950100  1
  S  S0  1  0.76892500  0.24593600  0.25120000  1
  S  S1  1  0.23107500  0.75406400  0.74880000  1
  O  O0  1  0.90356900  0.40541200  0.25672900  1
  O  O1  1  0.09643100  0.59458800  0.74327100  1
  O  O2  1  0.87319500  0.22512100  0.42782400  1
  O  O3  1  0.12680500  0.77487900  0.57217600  1
  O  O4  1  0.48293700  0.27037000  0.21745800  1
  O  O5  1  0.51706300  0.72963000  0.78254200  1
  O  O6  1  0.82278900  0.07760600  0.08885500  1
  O  O7  1  0.17721100  0.92239400  0.91114500  1
  O  O8  1  0.75028400  0.43729900  0.89386500  1
  O  O9  1  0.24971600  0.56270100  0.10613500  1
  O  O10  1  0.27706200  0.19152900  0.74727000  1
  O  O11  1  0.72293800  0.80847100  0.25273000  1
  O  O12  1  0.75207700  0.07795100  0.66627700  1
  O  O13  1  0.24792300  0.92204900  0.33372300  1
loop_
_geom_bond_atom_site_label_1
_geom_bond_atom_site_label_2
_geom_bond_distance
_geom_bond_site_symmetry_2
Gd0 O10 2.310786 1_555
Gd0 O9 2.358697 1_556
Gd0 O4 2.377333 1_556
Gd0 O8 2.394456 1_455
Gd0 O7 2.473758 1_545
Gd0 O0 2.495528 1_456
Gd0 O12 2.534478 1_455
Gd0 O6 2.589314 1_456
Gd1 O11 2.310786 1_555
Gd1 O8 2.358697 1_554
Gd1 O5 2.377333 1_554
Gd1 O9 2.394456 1_655
Gd1 O6 2.473758 1_565
Gd1 O1 2.495528 1_654
Gd1 O13 2.534478 1_655
Gd1 O7 2.589314 1_654
Co0 O13 2.052989 1_545
Co0 O12 2.052989 1_455
Co0 O10 2.131160 1_555
Co0 O11 2.131160 1_445
Co0 O3 2.134061 1_545
Co0 O2 2.134061 1_455
O0 S0 1.483958 1_555
O1 S1 1.483958 1_555
O2 S0 1.476948 1_555
O3 S1 1.476948 1_555
O4 S0 1.484036 1_555
O5 S1 1.484036 1_555
O6 S0 1.510890 1_555
O7 S1 1.510890 1_555
O8 Te0 1.905009 1_555
O9 Te1 1.905009 1_555
O10 Te0 1.902492 1_555
O11 Te1 1.902492 1_555
O12 Te0 1.918127 1_555
O13 Te1 1.918127 1_555
