# generated using pymatgen
data_Nd2P2AuO
_symmetry_space_group_name_H-M   'P 1'
_cell_length_a   4.24544800
_cell_length_b   7.91434477
_cell_length_c   7.91898378
_cell_angle_alpha   78.13302298
_cell_angle_beta   74.45143322
_cell_angle_gamma   74.44208867
_symmetry_Int_Tables_number   1
_chemical_formula_structural   Nd2P2AuO
_chemical_formula_sum   'Nd4 P4 Au2 O2'
_cell_volume   244.37002157
_cell_formula_units_Z   2
loop_
 _symmetry_equiv_pos_site_id
 _symmetry_equiv_pos_as_xyz
  1  'x, y, z'
loop_
 _atom_site_type_symbol
 _atom_site_label
 _atom_site_symmetry_multiplicity
 _atom_site_fract_x
 _atom_site_fract_y
 _atom_site_fract_z
 _atom_site_occupancy
  Nd  Nd0  1  0.13269300  0.68704300  0.04757200  1
  Nd  Nd1  1  0.86730700  0.31295700  0.95242800  1
  Nd  Nd2  1  0.17360400  0.26977900  0.38301300  1
  Nd  Nd3  1  0.82639600  0.73022100  0.61698700  1
  P  P0  1  0.54947200  0.54597800  0.35507800  1
  P  P1  1  0.45052800  0.45402200  0.64492200  1
  P  P2  1  0.14804300  0.97069900  0.73321400  1
  P  P3  1  0.85195700  0.02930100  0.26678600  1
  Au  Au0  1  0.41150000  0.87383100  0.30316800  1
  Au  Au1  1  0.58850000  0.12616900  0.69683200  1
  O  O0  1  0.27922400  0.36960900  0.07194400  1
  O  O1  1  0.72077600  0.63039100  0.92805600  1
loop_
_geom_bond_atom_site_label_1
_geom_bond_atom_site_label_2
_geom_bond_distance
_geom_bond_site_symmetry_2
Nd0 O1 2.374323 1_554
Nd0 O1 2.374331 1_454
Nd0 O0 2.400499 1_555
Nd0 P2 2.989010 1_554
Nd0 P0 3.230990 1_555
Nd0 P0 3.230993 1_455
Nd0 P3 3.296101 1_465
Nd1 O0 2.374323 1_556
Nd1 O0 2.374331 1_656
Nd1 O1 2.400499 1_555
Nd1 P3 2.989010 1_556
Nd1 P1 3.230990 1_555
Nd1 P1 3.230993 1_655
Nd1 P2 3.296101 1_645
Nd2 O0 2.385542 1_555
Nd2 P0 2.976003 1_455
Nd2 P0 2.976003 1_555
Nd2 P3 3.020343 1_455
Nd2 P3 3.020346 1_555
Nd2 P2 3.253012 1_545
Nd2 P1 3.358692 1_555
Nd2 P1 3.358692 1_455
Nd3 O1 2.385542 1_555
Nd3 P1 2.976003 1_555
Nd3 P1 2.976003 1_655
Nd3 P2 3.020343 1_655
Nd3 P2 3.020346 1_555
Nd3 P3 3.253012 1_565
Nd3 P0 3.358692 1_555
Nd3 P0 3.358692 1_655
P0 P1 2.221362 1_555
Au0 P3 2.427598 1_465
Au0 P3 2.427606 1_565
Au0 P0 2.473839 1_555
Au0 Nd2 3.164574 1_565
Au0 Nd3 3.268241 1_455
Au0 Nd3 3.268243 1_555
Au0 Nd0 3.337205 1_555
Au0 Nd0 3.337210 1_655
Au1 P2 2.427598 1_645
Au1 P2 2.427606 1_545
Au1 P1 2.473839 1_555
Au1 Nd3 3.164574 1_545
Au1 Nd2 3.268241 1_655
Au1 Nd2 3.268243 1_555
Au1 Nd1 3.337205 1_555
Au1 Nd1 3.337210 1_455
