# generated using pymatgen
data_HfRu3
_symmetry_space_group_name_H-M   'P 1'
_cell_length_a   3.95577300
_cell_length_b   3.95577300
_cell_length_c   3.95577300
_cell_angle_alpha   90.00000000
_cell_angle_beta   90.00000000
_cell_angle_gamma   90.00000000
_symmetry_Int_Tables_number   1
_chemical_formula_structural   HfRu3
_chemical_formula_sum   'Hf1 Ru3'
_cell_volume   61.90048982
_cell_formula_units_Z   1
loop_
 _symmetry_equiv_pos_site_id
 _symmetry_equiv_pos_as_xyz
  1  'x, y, z'
loop_
 _atom_site_type_symbol
 _atom_site_label
 _atom_site_symmetry_multiplicity
 _atom_site_fract_x
 _atom_site_fract_y
 _atom_site_fract_z
 _atom_site_occupancy
  Hf  Hf0  1  0.00000000  0.00000000  0.00000000  1
  Ru  Ru0  1  0.50000000  0.50000000  0.00000000  1
  Ru  Ru1  1  0.50000000  0.00000000  0.50000000  1
  Ru  Ru2  1  0.00000000  0.50000000  0.50000000  1
loop_
_geom_bond_atom_site_label_1
_geom_bond_atom_site_label_2
_geom_bond_distance
_geom_bond_site_symmetry_2
Hf0 Ru0 2.797154 1_545
Hf0 Ru0 2.797154 1_555
Hf0 Ru1 2.797154 1_555
Hf0 Ru1 2.797154 1_455
Hf0 Ru1 2.797154 1_554
Hf0 Ru0 2.797154 1_455
Hf0 Ru2 2.797154 1_544
Hf0 Ru2 2.797154 1_555
Hf0 Ru2 2.797154 1_545
Hf0 Ru1 2.797154 1_454
Hf0 Ru2 2.797154 1_554
Hf0 Ru0 2.797154 1_445
Ru0 Ru1 2.797154 1_565
Ru0 Ru1 2.797154 1_555
Ru0 Ru1 2.797154 1_564
Ru0 Ru1 2.797154 1_554
Ru0 Ru2 2.797154 1_555
Ru0 Ru2 2.797154 1_655
Ru0 Ru2 2.797154 1_654
Ru0 Ru2 2.797154 1_554
Ru1 Ru2 2.797154 1_545
Ru1 Ru2 2.797154 1_645
Ru1 Ru2 2.797154 1_555
Ru1 Ru2 2.797154 1_655
