# generated using pymatgen
data_Y15(Ni4P3)7
_symmetry_space_group_name_H-M   'P 1'
_cell_length_a   3.83817125
_cell_length_b   23.98541941
_cell_length_c   23.98541941
_cell_angle_alpha   120.00000003
_cell_angle_beta   90.00000000
_cell_angle_gamma   90.00000000
_symmetry_Int_Tables_number   1
_chemical_formula_structural   Y15(Ni4P3)7
_chemical_formula_sum   'Y30 Ni56 P42'
_cell_volume   1912.27176898
_cell_formula_units_Z   2
loop_
 _symmetry_equiv_pos_site_id
 _symmetry_equiv_pos_as_xyz
  1  'x, y, z'
loop_
 _atom_site_type_symbol
 _atom_site_label
 _atom_site_symmetry_multiplicity
 _atom_site_fract_x
 _atom_site_fract_y
 _atom_site_fract_z
 _atom_site_occupancy
  Y  Y0  1  0.75000000  0.61295527  0.75752598  1
  Y  Y1  1  0.25000000  0.38704473  0.24247402  1
  Y  Y2  1  0.75000000  0.14457070  0.38704473  1
  Y  Y3  1  0.25000000  0.85542930  0.61295527  1
  Y  Y4  1  0.75000000  0.24247402  0.85542930  1
  Y  Y5  1  0.25000000  0.75752598  0.14457070  1
  Y  Y6  1  0.75000000  0.46713114  0.58482864  1
  Y  Y7  1  0.25000000  0.53286886  0.41517136  1
  Y  Y8  1  0.75000000  0.11769750  0.53286886  1
  Y  Y9  1  0.25000000  0.88230250  0.46713114  1
  Y  Y10  1  0.75000000  0.41517136  0.88230250  1
  Y  Y11  1  0.25000000  0.58482864  0.11769750  1
  Y  Y12  1  0.75000000  0.58688129  0.90708829  1
  Y  Y13  1  0.25000000  0.41311871  0.09291171  1
  Y  Y14  1  0.75000000  0.32020700  0.41311871  1
  Y  Y15  1  0.25000000  0.67979300  0.58688129  1
  Y  Y16  1  0.75000000  0.09291171  0.67979300  1
  Y  Y17  1  0.25000000  0.90708829  0.32020700  1
  Y  Y18  1  0.75000000  0.43919831  0.73246941  1
  Y  Y19  1  0.25000000  0.56080169  0.26753059  1
  Y  Y20  1  0.75000000  0.29327110  0.56080169  1
  Y  Y21  1  0.25000000  0.70672890  0.43919831  1
  Y  Y22  1  0.75000000  0.26753059  0.70672890  1
  Y  Y23  1  0.25000000  0.73246941  0.29327110  1
  Y  Y24  1  0.75000000  0.75752303  0.92955260  1
  Y  Y25  1  0.25000000  0.24247697  0.07044740  1
  Y  Y26  1  0.75000000  0.17202957  0.24247697  1
  Y  Y27  1  0.25000000  0.82797043  0.75752303  1
  Y  Y28  1  0.75000000  0.07044740  0.82797043  1
  Y  Y29  1  0.25000000  0.92955260  0.17202957  1
  Ni  Ni0  1  0.75000000  0.61087624  0.62971231  1
  Ni  Ni1  1  0.25000000  0.38912376  0.37028769  1
  Ni  Ni2  1  0.75000000  0.01883607  0.38912376  1
  Ni  Ni3  1  0.25000000  0.98116393  0.61087624  1
  Ni  Ni4  1  0.75000000  0.37028769  0.98116393  1
  Ni  Ni5  1  0.25000000  0.62971231  0.01883607  1
  Ni  Ni6  1  0.75000000  0.69186565  0.18556261  1
  Ni  Ni7  1  0.25000000  0.30813435  0.81443739  1
  Ni  Ni8  1  0.75000000  0.49369696  0.30813435  1
  Ni  Ni9  1  0.25000000  0.50630304  0.69186565  1
  Ni  Ni10  1  0.75000000  0.81443739  0.50630304  1
  Ni  Ni11  1  0.25000000  0.18556261  0.49369696  1
  Ni  Ni12  1  0.75000000  0.99259519  0.53635230  1
  Ni  Ni13  1  0.25000000  0.00740481  0.46364770  1
  Ni  Ni14  1  0.75000000  0.54375711  0.00740481  1
  Ni  Ni15  1  0.25000000  0.45624289  0.99259519  1
  Ni  Ni16  1  0.75000000  0.46364770  0.45624289  1
  Ni  Ni17  1  0.25000000  0.53635230  0.54375711  1
  Ni  Ni18  1  0.75000000  0.66666700  0.33333300  1
  Ni  Ni19  1  0.25000000  0.33333300  0.66666700  1
  Ni  Ni20  1  0.75000000  0.89825764  0.96416353  1
  Ni  Ni21  1  0.25000000  0.10174236  0.03583647  1
  Ni  Ni22  1  0.75000000  0.06590589  0.10174236  1
  Ni  Ni23  1  0.25000000  0.93409411  0.89825764  1
  Ni  Ni24  1  0.75000000  0.03583647  0.93409411  1
  Ni  Ni25  1  0.25000000  0.96416353  0.06590589  1
  Ni  Ni26  1  0.75000000  0.71484848  0.03131576  1
  Ni  Ni27  1  0.25000000  0.28515152  0.96868424  1
  Ni  Ni28  1  0.75000000  0.31646728  0.28515152  1
  Ni  Ni29  1  0.25000000  0.68353272  0.71484848  1
  Ni  Ni30  1  0.75000000  0.96868424  0.68353272  1
  Ni  Ni31  1  0.25000000  0.03131576  0.31646728  1
  Ni  Ni32  1  0.75000000  0.88605364  0.06101612  1
  Ni  Ni33  1  0.25000000  0.11394636  0.93898388  1
  Ni  Ni34  1  0.75000000  0.17496248  0.11394636  1
  Ni  Ni35  1  0.25000000  0.82503752  0.88605364  1
  Ni  Ni36  1  0.75000000  0.93898388  0.82503752  1
  Ni  Ni37  1  0.25000000  0.06101612  0.17496248  1
  Ni  Ni38  1  0.75000000  0.84042677  0.35968595  1
  Ni  Ni39  1  0.25000000  0.15957323  0.64031405  1
  Ni  Ni40  1  0.75000000  0.51925918  0.15957323  1
  Ni  Ni41  1  0.25000000  0.48074082  0.84042677  1
  Ni  Ni42  1  0.75000000  0.64031405  0.48074082  1
  Ni  Ni43  1  0.25000000  0.35968595  0.51925918  1
  Ni  Ni44  1  0.75000000  0.75789900  0.80054846  1
  Ni  Ni45  1  0.25000000  0.24210100  0.19945154  1
  Ni  Ni46  1  0.75000000  0.04264946  0.24210100  1
  Ni  Ni47  1  0.25000000  0.95735054  0.75789900  1
  Ni  Ni48  1  0.75000000  0.19945154  0.95735054  1
  Ni  Ni49  1  0.25000000  0.80054846  0.04264946  1
  Ni  Ni50  1  0.75000000  0.86405023  0.21173966  1
  Ni  Ni51  1  0.25000000  0.13594977  0.78826034  1
  Ni  Ni52  1  0.75000000  0.34768943  0.13594977  1
  Ni  Ni53  1  0.25000000  0.65231057  0.86405023  1
  Ni  Ni54  1  0.75000000  0.78826034  0.65231057  1
  Ni  Ni55  1  0.25000000  0.21173966  0.34768943  1
  P  P0  1  0.75000000  0.99333009  0.13136504  1
  P  P1  1  0.25000000  0.00666991  0.86863496  1
  P  P2  1  0.75000000  0.13803495  0.00666991  1
  P  P3  1  0.25000000  0.86196505  0.99333009  1
  P  P4  1  0.75000000  0.86863496  0.86196505  1
  P  P5  1  0.25000000  0.13136504  0.13803495  1
  P  P6  1  0.75000000  0.82307239  0.10610195  1
  P  P7  1  0.25000000  0.17692761  0.89389805  1
  P  P8  1  0.75000000  0.28302955  0.17692761  1
  P  P9  1  0.25000000  0.71697045  0.82307239  1
  P  P10  1  0.75000000  0.89389805  0.71697045  1
  P  P11  1  0.25000000  0.10610195  0.28302955  1
  P  P12  1  0.75000000  0.79824982  0.25251469  1
  P  P13  1  0.25000000  0.20175018  0.74748531  1
  P  P14  1  0.75000000  0.45426486  0.20175018  1
  P  P15  1  0.25000000  0.54573514  0.79824982  1
  P  P16  1  0.75000000  0.74748531  0.54573514  1
  P  P17  1  0.25000000  0.25251469  0.45426486  1
  P  P18  1  0.75000000  0.94632964  0.42545806  1
  P  P19  1  0.25000000  0.05367036  0.57454194  1
  P  P20  1  0.75000000  0.47912842  0.05367036  1
  P  P21  1  0.25000000  0.52087158  0.94632964  1
  P  P22  1  0.75000000  0.57454194  0.52087158  1
  P  P23  1  0.25000000  0.42545806  0.47912842  1
  P  P24  1  0.75000000  0.65265785  0.08037063  1
  P  P25  1  0.25000000  0.34734215  0.91962937  1
  P  P26  1  0.75000000  0.42771278  0.34734215  1
  P  P27  1  0.25000000  0.57228722  0.65265785  1
  P  P28  1  0.75000000  0.91962937  0.57228722  1
  P  P29  1  0.25000000  0.08037063  0.42771278  1
  P  P30  1  0.75000000  0.77370488  0.39993716  1
  P  P31  1  0.25000000  0.22629512  0.60006284  1
  P  P32  1  0.75000000  0.62623228  0.22629512  1
  P  P33  1  0.25000000  0.37376772  0.77370488  1
  P  P34  1  0.75000000  0.60006284  0.37376772  1
  P  P35  1  0.25000000  0.39993716  0.62623228  1
  P  P36  1  0.75000000  0.96947656  0.27833835  1
  P  P37  1  0.25000000  0.03052344  0.72166165  1
  P  P38  1  0.75000000  0.30886178  0.03052344  1
  P  P39  1  0.25000000  0.69113822  0.96947656  1
  P  P40  1  0.75000000  0.72166165  0.69113822  1
  P  P41  1  0.25000000  0.27833835  0.30886178  1
loop_
_geom_bond_atom_site_label_1
_geom_bond_atom_site_label_2
_geom_bond_distance
_geom_bond_site_symmetry_2
Ni0 P22 2.302080 1_555
Ni0 P40 2.305778 1_555
Ni0 P27 2.313411 1_655
Ni0 P27 2.313411 1_555
Ni0 Y15 3.028008 1_555
Ni0 Y15 3.028008 1_655
Ni0 Y0 3.041038 1_555
Ni0 Y6 3.055237 1_555
Ni1 P23 2.302080 1_555
Ni1 P41 2.305778 1_555
Ni1 P26 2.313411 1_555
Ni1 P26 2.313411 1_455
Ni1 Y14 3.028008 1_555
Ni1 Y14 3.028008 1_455
Ni1 Y1 3.041038 1_555
Ni1 Y7 3.055237 1_555
Ni2 P18 2.302080 1_545
Ni2 P36 2.305778 1_545
Ni2 P29 2.313411 1_655
Ni2 P29 2.313411 1_555
Ni2 Y17 3.028008 1_645
Ni2 Y17 3.028008 1_545
Ni2 Y2 3.041038 1_555
Ni2 Y8 3.055237 1_555
Ni3 P19 2.302080 1_565
Ni3 P37 2.305778 1_565
Ni3 P28 2.313411 1_455
Ni3 P28 2.313411 1_555
Ni3 Y16 3.028008 1_565
Ni3 Y16 3.028008 1_465
Ni3 Y3 3.041038 1_555
Ni3 Y9 3.055237 1_555
Ni4 P20 2.302080 1_556
Ni4 P38 2.305778 1_556
Ni4 P25 2.313411 1_555
Ni4 P25 2.313411 1_655
Ni4 Y13 3.028008 1_656
Ni4 Y13 3.028008 1_556
Ni4 Y4 3.041038 1_555
Ni4 Y10 3.055237 1_555
Ni5 P21 2.302080 1_554
Ni5 P39 2.305778 1_554
Ni5 P24 2.313411 1_455
Ni5 P24 2.313411 1_555
Ni5 Y12 3.028008 1_454
Ni5 Y12 3.028008 1_554
Ni5 Y5 3.041038 1_555
Ni5 Y11 3.055237 1_555
Ni6 P24 2.208516 1_555
Ni6 P32 2.229520 1_555
Ni6 P12 2.234320 1_555
Ni6 Y5 2.945898 1_655
Ni6 Y5 2.945898 1_555
Ni6 Y11 2.957140 1_555
Ni6 Y11 2.957140 1_655
Ni6 Y23 2.964708 1_555
Ni6 Y23 2.964708 1_655
Ni7 P25 2.208516 1_555
Ni7 P33 2.229520 1_555
Ni7 P13 2.234320 1_555
Ni7 Y4 2.945898 1_555
Ni7 Y4 2.945898 1_455
Ni7 Y10 2.957140 1_455
Ni7 Y10 2.957140 1_555
Ni7 Y22 2.964708 1_555
Ni7 Y22 2.964708 1_455
Ni8 P26 2.208516 1_555
Ni8 P34 2.229520 1_555
Ni8 P14 2.234320 1_555
Ni8 Y1 2.945898 1_555
Ni8 Y1 2.945898 1_655
Ni8 Y7 2.957140 1_655
Ni8 Y7 2.957140 1_555
Ni8 Y19 2.964708 1_555
Ni8 Y19 2.964708 1_655
Ni9 P27 2.208516 1_555
Ni9 P35 2.229520 1_555
Ni9 P15 2.234320 1_555
Ni9 Y0 2.945898 1_455
Ni9 Y0 2.945898 1_555
Ni9 Y6 2.957140 1_455
Ni9 Y6 2.957140 1_555
Ni9 Y18 2.964708 1_555
Ni9 Y18 2.964708 1_455
Ni10 P28 2.208516 1_555
Ni10 P30 2.229520 1_555
Ni10 P16 2.234320 1_555
Ni10 Y3 2.945898 1_555
Ni10 Y3 2.945898 1_655
Ni10 Y9 2.957140 1_655
Ni10 Y9 2.957140 1_555
Ni10 Y21 2.964708 1_555
Ni10 Y21 2.964708 1_655
Ni11 P29 2.208516 1_555
Ni11 P31 2.229520 1_555
Ni11 P17 2.234320 1_555
Ni11 Y2 2.945898 1_455
Ni11 Y2 2.945898 1_555
Ni11 Y8 2.957140 1_555
Ni11 Y8 2.957140 1_455
Ni11 Y20 2.964708 1_555
Ni11 Y20 2.964708 1_455
Ni12 P28 2.305266 1_555
Ni12 P19 2.307825 1_565
Ni12 P19 2.307825 1_665
Ni12 P18 2.313996 1_555
Ni12 Y9 3.007578 1_655
Ni12 Y9 3.007578 1_555
Ni12 Y8 3.043268 1_565
Ni12 Y16 3.057475 1_565
Ni13 P29 2.305266 1_555
Ni13 P18 2.307825 1_545
Ni13 P18 2.307825 1_445
Ni13 P19 2.313996 1_555
Ni13 Y8 3.007578 1_455
Ni13 Y8 3.007578 1_555
Ni13 Y9 3.043268 1_545
Ni13 Y17 3.057475 1_545
Ni14 P24 2.305266 1_555
Ni14 P21 2.307825 1_654
Ni14 P21 2.307825 1_554
Ni14 P20 2.313996 1_555
Ni14 Y11 3.007578 1_655
Ni14 Y11 3.007578 1_555
Ni14 Y10 3.043268 1_554
Ni14 Y12 3.057475 1_554
Ni15 P25 2.305266 1_555
Ni15 P20 2.307825 1_456
Ni15 P20 2.307825 1_556
Ni15 P21 2.313996 1_555
Ni15 Y10 3.007578 1_455
Ni15 Y10 3.007578 1_555
Ni15 Y11 3.043268 1_556
Ni15 Y13 3.057475 1_556
Ni16 P26 2.305266 1_555
Ni16 P23 2.307825 1_555
Ni16 P23 2.307825 1_655
Ni16 P22 2.313996 1_555
Ni16 Y7 3.007578 1_655
Ni16 Y7 3.007578 1_555
Ni16 Y6 3.043268 1_555
Ni16 Y14 3.057475 1_555
Ni17 P27 2.305266 1_555
Ni17 P22 2.307825 1_555
Ni17 P22 2.307825 1_455
Ni17 P23 2.313996 1_555
Ni17 Y6 3.007578 1_455
Ni17 Y6 3.007578 1_555
Ni17 Y7 3.043268 1_555
Ni17 Y15 3.057475 1_555
Ni18 P32 2.245428 1_555
Ni18 P30 2.245432 1_555
Ni18 P34 2.245451 1_555
Ni18 Y23 2.934934 1_555
Ni18 Y23 2.934934 1_655
Ni18 Y19 2.934948 1_655
Ni18 Y19 2.934948 1_555
Ni18 Y21 2.934951 1_555
Ni18 Y21 2.934951 1_655
Ni19 P33 2.245428 1_555
Ni19 P31 2.245432 1_555
Ni19 P35 2.245451 1_555
Ni19 Y22 2.934934 1_455
Ni19 Y22 2.934934 1_555
Ni19 Y18 2.934948 1_555
Ni19 Y18 2.934948 1_455
Ni19 Y20 2.934951 1_455
Ni19 Y20 2.934951 1_555
Ni20 P4 2.184470 1_555
Ni20 P3 2.353513 1_655
Ni20 P3 2.353513 1_555
Ni20 Y24 3.046544 1_555
Ni21 P5 2.184470 1_555
Ni21 P2 2.353513 1_555
Ni21 P2 2.353513 1_455
Ni21 Y25 3.046544 1_555
Ni22 P0 2.184470 1_545
Ni22 P5 2.353513 1_555
Ni22 P5 2.353513 1_655
Ni22 Y26 3.046544 1_555
Ni23 P1 2.184470 1_565
Ni23 P4 2.353513 1_455
Ni23 P4 2.353513 1_555
Ni23 Y27 3.046544 1_555
Ni24 P2 2.184470 1_556
Ni24 P1 2.353513 1_555
Ni24 P1 2.353513 1_655
Ni24 Y28 3.046544 1_555
Ni25 P3 2.184470 1_554
Ni25 P0 2.353513 1_455
Ni25 P0 2.353513 1_555
Ni25 Y29 3.046544 1_555
Ni26 P6 2.302067 1_555
Ni26 P39 2.315770 1_654
Ni26 P39 2.315770 1_554
Ni26 P24 2.316153 1_555
Ni26 Y12 3.025495 1_554
Ni26 Y5 3.054380 1_655
Ni26 Y5 3.054380 1_555
Ni26 Y24 3.082808 1_554
Ni27 P7 2.302067 1_555
Ni27 P38 2.315770 1_456
Ni27 P38 2.315770 1_556
Ni27 P25 2.316153 1_555
Ni27 Y13 3.025495 1_556
Ni27 Y4 3.054380 1_555
Ni27 Y4 3.054380 1_455
Ni27 Y25 3.082808 1_556
Ni28 P8 2.302067 1_555
Ni28 P41 2.315770 1_655
Ni28 P41 2.315770 1_555
Ni28 P26 2.316153 1_555
Ni28 Y14 3.025495 1_555
Ni28 Y1 3.054381 1_555
Ni28 Y1 3.054381 1_655
Ni28 Y26 3.082808 1_555
Ni29 P9 2.302067 1_555
Ni29 P40 2.315770 1_455
Ni29 P40 2.315770 1_555
Ni29 P27 2.316153 1_555
Ni29 Y15 3.025495 1_555
Ni29 Y0 3.054381 1_455
Ni29 Y0 3.054381 1_555
Ni29 Y27 3.082808 1_555
Ni30 P10 2.302068 1_555
Ni30 P37 2.315770 1_565
Ni30 P37 2.315770 1_665
Ni30 P28 2.316153 1_555
Ni30 Y16 3.025495 1_565
Ni30 Y3 3.054380 1_655
Ni30 Y3 3.054380 1_555
Ni30 Y28 3.082808 1_565
Ni31 P11 2.302068 1_555
Ni31 P36 2.315770 1_445
Ni31 P36 2.315770 1_545
Ni31 P29 2.316153 1_555
Ni31 Y17 3.025495 1_545
Ni31 Y2 3.054380 1_455
Ni31 Y2 3.054380 1_555
Ni31 Y29 3.082808 1_545
Ni32 P6 2.255003 1_555
Ni32 P0 2.264105 1_555
Ni32 P3 2.390479 1_554
Ni32 P3 2.390479 1_654
Ni32 Y29 3.013857 1_655
Ni32 Y29 3.013857 1_555
Ni32 Y24 3.118629 1_554
Ni33 P7 2.255003 1_555
Ni33 P1 2.264105 1_555
Ni33 P2 2.390479 1_556
Ni33 P2 2.390479 1_456
Ni33 Y28 3.013857 1_455
Ni33 Y28 3.013857 1_555
Ni33 Y25 3.118629 1_556
Ni34 P8 2.255003 1_555
Ni34 P2 2.264105 1_555
Ni34 P5 2.390479 1_655
Ni34 P5 2.390479 1_555
Ni34 Y25 3.013857 1_555
Ni34 Y25 3.013857 1_655
Ni34 Y26 3.118629 1_555
Ni35 P9 2.255003 1_555
Ni35 P3 2.264105 1_555
Ni35 P4 2.390479 1_455
Ni35 P4 2.390479 1_555
Ni35 Y24 3.013857 1_455
Ni35 Y24 3.013857 1_555
Ni35 Y27 3.118629 1_555
Ni36 P10 2.255003 1_555
Ni36 P4 2.264105 1_555
Ni36 P1 2.390479 1_565
Ni36 P1 2.390479 1_665
Ni36 Y27 3.013857 1_655
Ni36 Y27 3.013857 1_555
Ni36 Y28 3.118629 1_565
Ni37 P11 2.255003 1_555
Ni37 P5 2.264105 1_555
Ni37 P0 2.390479 1_445
Ni37 P0 2.390479 1_545
Ni37 Y26 3.013857 1_455
Ni37 Y26 3.013857 1_555
Ni37 Y29 3.118629 1_545
Ni38 P18 2.221202 1_555
Ni38 P12 2.242915 1_555
Ni38 P30 2.244606 1_555
Ni38 Y17 2.941101 1_655
Ni38 Y17 2.941101 1_555
Ni38 Y9 2.957158 1_655
Ni38 Y9 2.957158 1_555
Ni38 Y23 2.966584 1_655
Ni38 Y23 2.966584 1_555
Ni39 P19 2.221202 1_555
Ni39 P13 2.242915 1_555
Ni39 P31 2.244606 1_555
Ni39 Y16 2.941101 1_455
Ni39 Y16 2.941101 1_555
Ni39 Y8 2.957158 1_555
Ni39 Y8 2.957158 1_455
Ni39 Y22 2.966584 1_455
Ni39 Y22 2.966584 1_555
Ni40 P20 2.221202 1_555
Ni40 P14 2.242915 1_555
Ni40 P32 2.244606 1_555
Ni40 Y13 2.941101 1_655
Ni40 Y13 2.941101 1_555
Ni40 Y11 2.957158 1_655
Ni40 Y11 2.957158 1_555
Ni40 Y19 2.966584 1_655
Ni40 Y19 2.966584 1_555
Ni41 P21 2.221202 1_555
Ni41 P15 2.242915 1_555
Ni41 P33 2.244606 1_555
Ni41 Y12 2.941101 1_455
Ni41 Y12 2.941101 1_555
Ni41 Y10 2.957158 1_455
Ni41 Y10 2.957158 1_555
Ni41 Y18 2.966584 1_555
Ni41 Y18 2.966584 1_455
Ni42 P22 2.221202 1_555
Ni42 P16 2.242915 1_555
Ni42 P34 2.244606 1_555
Ni42 Y15 2.941101 1_555
Ni42 Y15 2.941101 1_655
Ni42 Y7 2.957158 1_655
Ni42 Y7 2.957158 1_555
Ni42 Y21 2.966584 1_555
Ni42 Y21 2.966584 1_655
Ni43 P23 2.221202 1_555
Ni43 P17 2.242915 1_555
Ni43 P35 2.244606 1_555
Ni43 Y14 2.941101 1_455
Ni43 Y14 2.941101 1_555
Ni43 Y6 2.957158 1_455
Ni43 Y6 2.957158 1_555
Ni43 Y20 2.966584 1_455
Ni43 Y20 2.966584 1_555
Ni44 P4 2.304776 1_555
Ni44 P40 2.315433 1_555
Ni44 P9 2.338551 1_655
Ni44 P9 2.338551 1_555
Ni44 Y27 3.050746 1_555
Ni44 Y27 3.050746 1_655
Ni44 Y0 3.092518 1_555
Ni44 Y24 3.098737 1_555
Ni45 P5 2.304776 1_555
Ni45 P41 2.315433 1_555
Ni45 P8 2.338551 1_455
Ni45 P8 2.338551 1_555
Ni45 Y26 3.050746 1_555
Ni45 Y26 3.050746 1_455
Ni45 Y1 3.092518 1_555
Ni45 Y25 3.098737 1_555
Ni46 P0 2.304776 1_545
Ni46 P36 2.315433 1_545
Ni46 P11 2.338551 1_655
Ni46 P11 2.338551 1_555
Ni46 Y29 3.050746 1_645
Ni46 Y29 3.050746 1_545
Ni46 Y2 3.092518 1_555
Ni46 Y26 3.098737 1_555
Ni47 P1 2.304776 1_565
Ni47 P37 2.315433 1_565
Ni47 P10 2.338551 1_555
Ni47 P10 2.338551 1_455
Ni47 Y28 3.050746 1_565
Ni47 Y28 3.050746 1_465
Ni47 Y3 3.092518 1_555
Ni47 Y27 3.098737 1_555
Ni48 P2 2.304776 1_556
Ni48 P38 2.315433 1_556
Ni48 P7 2.338551 1_555
Ni48 P7 2.338551 1_655
Ni48 Y25 3.050746 1_556
Ni48 Y25 3.050746 1_656
Ni48 Y4 3.092518 1_555
Ni48 Y28 3.098737 1_555
Ni49 P3 2.304776 1_554
Ni49 P39 2.315433 1_554
Ni49 P6 2.338551 1_455
Ni49 P6 2.338551 1_555
Ni49 Y24 3.050746 1_554
Ni49 Y24 3.050746 1_454
Ni49 Y5 3.092518 1_555
Ni49 Y29 3.098737 1_555
Ni50 P6 2.212608 1_555
Ni50 P36 2.215095 1_555
Ni50 P12 2.234034 1_555
Ni50 Y29 2.924868 1_655
Ni50 Y29 2.924868 1_555
Ni50 Y5 2.947928 1_555
Ni50 Y5 2.947928 1_655
Ni50 Y17 2.971763 1_655
Ni50 Y17 2.971763 1_555
Ni51 P7 2.212608 1_555
Ni51 P37 2.215095 1_555
Ni51 P13 2.234034 1_555
Ni51 Y28 2.924868 1_455
Ni51 Y28 2.924868 1_555
Ni51 Y4 2.947928 1_455
Ni51 Y4 2.947928 1_555
Ni51 Y16 2.971763 1_555
Ni51 Y16 2.971763 1_455
Ni52 P8 2.212609 1_555
Ni52 P38 2.215095 1_555
Ni52 P14 2.234034 1_555
Ni52 Y25 2.924868 1_555
Ni52 Y25 2.924868 1_655
Ni52 Y1 2.947928 1_555
Ni52 Y1 2.947928 1_655
Ni52 Y13 2.971763 1_555
Ni52 Y13 2.971763 1_655
Ni53 P9 2.212609 1_555
Ni53 P39 2.215095 1_555
Ni53 P15 2.234034 1_555
Ni53 Y24 2.924868 1_555
Ni53 Y24 2.924868 1_455
Ni53 Y0 2.947928 1_555
Ni53 Y0 2.947928 1_455
Ni53 Y12 2.971763 1_555
Ni53 Y12 2.971763 1_455
Ni54 P10 2.212608 1_555
Ni54 P40 2.215095 1_555
Ni54 P16 2.234034 1_555
Ni54 Y27 2.924868 1_655
Ni54 Y27 2.924868 1_555
Ni54 Y3 2.947929 1_555
Ni54 Y3 2.947929 1_655
Ni54 Y15 2.971763 1_655
Ni54 Y15 2.971763 1_555
Ni55 P11 2.212608 1_555
Ni55 P41 2.215095 1_555
Ni55 P17 2.234034 1_555
Ni55 Y26 2.924868 1_455
Ni55 Y26 2.924868 1_555
Ni55 Y2 2.947929 1_455
Ni55 Y2 2.947929 1_555
Ni55 Y14 2.971763 1_455
Ni55 Y14 2.971763 1_555
P0 Y29 2.909693 1_655
P0 Y29 2.909693 1_555
P1 Y28 2.909693 1_455
P1 Y28 2.909693 1_555
P2 Y25 2.909693 1_655
P2 Y25 2.909693 1_555
P3 Y24 2.909693 1_455
P3 Y24 2.909693 1_555
P4 Y27 2.909693 1_555
P4 Y27 2.909693 1_655
P5 Y26 2.909693 1_455
P5 Y26 2.909693 1_555
P6 Y5 2.908013 1_655
P6 Y5 2.908013 1_555
P6 Y29 2.944075 1_655
P6 Y29 2.944075 1_555
P7 Y4 2.908013 1_555
P7 Y4 2.908013 1_455
P7 Y28 2.944075 1_455
P7 Y28 2.944075 1_555
P8 Y1 2.908013 1_555
P8 Y1 2.908013 1_655
P8 Y25 2.944075 1_555
P8 Y25 2.944075 1_655
P9 Y0 2.908013 1_455
P9 Y0 2.908013 1_555
P9 Y24 2.944075 1_555
P9 Y24 2.944075 1_455
P10 Y3 2.908013 1_655
P10 Y3 2.908013 1_555
P10 Y27 2.944075 1_555
P10 Y27 2.944075 1_655
P11 Y2 2.908013 1_455
P11 Y2 2.908013 1_555
P11 Y26 2.944075 1_555
P11 Y26 2.944075 1_455
P12 Y23 2.944527 1_555
P12 Y23 2.944527 1_655
P12 Y5 2.968395 1_655
P12 Y5 2.968395 1_555
P12 Y17 2.982519 1_655
P12 Y17 2.982519 1_555
P13 Y22 2.944527 1_455
P13 Y22 2.944527 1_555
P13 Y4 2.968395 1_455
P13 Y4 2.968395 1_555
P13 Y16 2.982519 1_555
P13 Y16 2.982519 1_455
P14 Y19 2.944527 1_655
P14 Y19 2.944527 1_555
P14 Y1 2.968395 1_555
P14 Y1 2.968395 1_655
P14 Y13 2.982519 1_555
P14 Y13 2.982519 1_655
P15 Y18 2.944527 1_555
P15 Y18 2.944527 1_455
P15 Y0 2.968395 1_455
P15 Y0 2.968395 1_555
P15 Y12 2.982519 1_455
P15 Y12 2.982519 1_555
P16 Y21 2.944527 1_555
P16 Y21 2.944527 1_655
P16 Y3 2.968395 1_655
P16 Y3 2.968395 1_555
P16 Y15 2.982519 1_555
P16 Y15 2.982519 1_655
P17 Y20 2.944527 1_455
P17 Y20 2.944527 1_555
P17 Y2 2.968395 1_455
P17 Y2 2.968395 1_555
P17 Y14 2.982519 1_455
P17 Y14 2.982519 1_555
P18 Y17 2.926728 1_655
P18 Y17 2.926728 1_555
P18 Y9 2.928384 1_655
P18 Y9 2.928384 1_555
P19 Y16 2.926728 1_555
P19 Y16 2.926728 1_455
P19 Y8 2.928384 1_555
P19 Y8 2.928384 1_455
P20 Y13 2.926728 1_655
P20 Y13 2.926728 1_555
P20 Y11 2.928384 1_555
P20 Y11 2.928384 1_655
P21 Y12 2.926728 1_455
P21 Y12 2.926728 1_555
P21 Y10 2.928384 1_555
P21 Y10 2.928384 1_455
P22 Y15 2.926728 1_655
P22 Y15 2.926728 1_555
P22 Y7 2.928384 1_655
P22 Y7 2.928384 1_555
P23 Y14 2.926728 1_455
P23 Y14 2.926728 1_555
P23 Y6 2.928384 1_455
P23 Y6 2.928384 1_555
P24 Y5 2.916780 1_655
P24 Y5 2.916780 1_555
P24 Y11 2.930507 1_555
P24 Y11 2.930507 1_655
P25 Y4 2.916780 1_555
P25 Y4 2.916780 1_455
P25 Y10 2.930507 1_455
P25 Y10 2.930507 1_555
P26 Y1 2.916780 1_555
P26 Y1 2.916780 1_655
P26 Y7 2.930507 1_555
P26 Y7 2.930507 1_655
P27 Y0 2.916780 1_455
P27 Y0 2.916780 1_555
P27 Y6 2.930507 1_455
P27 Y6 2.930507 1_555
P28 Y3 2.916780 1_555
P28 Y3 2.916780 1_655
P28 Y9 2.930507 1_555
P28 Y9 2.930507 1_655
P29 Y2 2.916780 1_555
P29 Y2 2.916780 1_455
P29 Y8 2.930507 1_455
P29 Y8 2.930507 1_555
P30 Y21 2.943320 1_555
P30 Y21 2.943320 1_655
P30 Y23 2.945549 1_655
P30 Y23 2.945549 1_555
P30 Y9 2.977773 1_655
P30 Y9 2.977773 1_555
P31 Y20 2.943320 1_555
P31 Y20 2.943320 1_455
P31 Y22 2.945549 1_555
P31 Y22 2.945549 1_455
P31 Y8 2.977773 1_555
P31 Y8 2.977773 1_455
P32 Y23 2.943320 1_655
P32 Y23 2.943320 1_555
P32 Y19 2.945549 1_555
P32 Y19 2.945549 1_655
P32 Y11 2.977773 1_555
P32 Y11 2.977773 1_655
P33 Y22 2.943320 1_455
P33 Y22 2.943320 1_555
P33 Y18 2.945549 1_555
P33 Y18 2.945549 1_455
P33 Y10 2.977773 1_455
P33 Y10 2.977773 1_555
P34 Y19 2.943320 1_655
P34 Y19 2.943320 1_555
P34 Y21 2.945549 1_555
P34 Y21 2.945549 1_655
P34 Y7 2.977773 1_555
P34 Y7 2.977773 1_655
P35 Y18 2.943320 1_555
P35 Y18 2.943320 1_455
P35 Y20 2.945549 1_555
P35 Y20 2.945549 1_455
P35 Y6 2.977773 1_455
P35 Y6 2.977773 1_555
P36 Y17 2.904027 1_655
P36 Y17 2.904027 1_555
P36 Y29 2.942777 1_655
P36 Y29 2.942777 1_555
P37 Y16 2.904027 1_555
P37 Y16 2.904027 1_455
P37 Y28 2.942777 1_555
P37 Y28 2.942777 1_455
P38 Y13 2.904027 1_555
P38 Y13 2.904027 1_655
P38 Y25 2.942777 1_555
P38 Y25 2.942777 1_655
P39 Y12 2.904027 1_455
P39 Y12 2.904027 1_555
P39 Y24 2.942777 1_455
P39 Y24 2.942777 1_555
P40 Y15 2.904027 1_555
P40 Y15 2.904027 1_655
P40 Y27 2.942777 1_555
P40 Y27 2.942777 1_655
P41 Y14 2.904027 1_555
P41 Y14 2.904027 1_455
P41 Y26 2.942777 1_455
P41 Y26 2.942777 1_555
