# generated using pymatgen
data_Ca3Co3N5
_symmetry_space_group_name_H-M   'P 1'
_cell_length_a   5.53545534
_cell_length_b   6.75346739
_cell_length_c   8.26242537
_cell_angle_alpha   108.91171376
_cell_angle_beta   104.26094724
_cell_angle_gamma   95.34203303
_symmetry_Int_Tables_number   1
_chemical_formula_structural   Ca3Co3N5
_chemical_formula_sum   'Ca6 Co6 N10'
_cell_volume   278.11679352
_cell_formula_units_Z   2
loop_
 _symmetry_equiv_pos_site_id
 _symmetry_equiv_pos_as_xyz
  1  'x, y, z'
loop_
 _atom_site_type_symbol
 _atom_site_label
 _atom_site_symmetry_multiplicity
 _atom_site_fract_x
 _atom_site_fract_y
 _atom_site_fract_z
 _atom_site_occupancy
  Ca  Ca0  1  0.81726489  0.41088728  0.61114477  1
  Ca  Ca1  1  0.18273511  0.58911272  0.38885523  1
  Ca  Ca2  1  0.65822815  0.86700705  0.86993982  1
  Ca  Ca3  1  0.34177185  0.13299295  0.13006018  1
  Ca  Ca4  1  0.65888759  0.66724690  0.20135433  1
  Ca  Ca5  1  0.34111241  0.33275310  0.79864567  1
  Co  Co0  1  0.91358130  0.32070535  0.97413543  1
  Co  Co1  1  0.08641870  0.67929465  0.02586457  1
  Co  Co2  1  0.68651751  0.94779964  0.56218285  1
  Co  Co3  1  0.31348249  0.05220036  0.43781715  1
  Co  Co4  1  0.10364806  0.88270097  0.71282717  1
  Co  Co5  1  0.89635194  0.11729903  0.28717283  1
  N  N0  1  0.93408541  0.11237134  0.77658066  1
  N  N1  1  0.06591459  0.88762866  0.22341934  1
  N  N2  1  0.82011789  0.69935727  0.51624450  1
  N  N3  1  0.17988211  0.30064273  0.48375550  1
  N  N4  1  0.74849874  0.53331601  0.90444090  1
  N  N5  1  0.25150126  0.46668399  0.09555910  1
  N  N6  1  0.37145900  0.94861707  0.62347246  1
  N  N7  1  0.62854100  0.05138293  0.37652754  1
  N  N8  1  0.22532904  0.76906546  0.88145526  1
  N  N9  1  0.77467096  0.23093454  0.11854474  1
loop_
_geom_bond_atom_site_label_1
_geom_bond_atom_site_label_2
_geom_bond_distance
_geom_bond_site_symmetry_2
Ca0 N2 2.324011 1_555
Ca0 N4 2.432148 1_555
Ca0 N7 2.494594 1_555
Ca0 N3 2.549984 1_655
Ca0 N0 2.818594 1_555
Ca0 N8 2.989447 1_655
Ca1 N3 2.324011 1_555
Ca1 N5 2.432148 1_555
Ca1 N6 2.494594 1_555
Ca1 N2 2.549984 1_455
Ca1 N1 2.818594 1_555
Ca1 N9 2.989447 1_455
Ca2 N4 2.442429 1_555
Ca2 N8 2.459019 1_555
Ca2 N6 2.503682 1_555
Ca2 N9 2.540778 1_566
Ca2 N0 2.571052 1_565
Ca3 N5 2.442429 1_555
Ca3 N9 2.459019 1_555
Ca3 N7 2.503682 1_555
Ca3 N8 2.540778 1_544
Ca3 N1 2.571052 1_545
Ca4 N5 2.318765 1_555
Ca4 N2 2.463110 1_555
Ca4 N1 2.514379 1_655
Ca4 N4 2.515392 1_554
Ca4 N7 2.572970 1_565
Ca4 N9 2.970236 1_555
Ca5 N4 2.318765 1_555
Ca5 N3 2.463110 1_555
Ca5 N0 2.514379 1_455
Ca5 N5 2.515392 1_556
Ca5 N6 2.572970 1_545
Ca5 N8 2.970236 1_555
Co0 N9 1.793486 1_556
Co0 N0 1.813594 1_555
Co0 N5 1.888990 1_656
Co0 N4 1.936328 1_555
Co1 N8 1.793486 1_554
Co1 N1 1.813594 1_555
Co1 N4 1.888990 1_454
Co1 N5 1.936328 1_555
Co2 N7 1.854793 1_565
Co2 N2 1.860828 1_555
Co2 N0 1.869607 1_565
Co2 N6 1.932116 1_555
Co3 N6 1.854793 1_545
Co3 N3 1.860828 1_555
Co3 N1 1.869607 1_545
Co3 N7 1.932116 1_555
Co4 N8 1.819578 1_555
Co4 N0 1.883966 1_465
Co4 N6 1.889523 1_555
Co4 N2 1.926943 1_455
Co5 N9 1.819578 1_555
Co5 N1 1.883966 1_645
Co5 N7 1.889523 1_555
Co5 N3 1.926943 1_655
