# generated using pymatgen
data_Ca3Cu2Ni(PO4)4
_symmetry_space_group_name_H-M   'P 1'
_cell_length_a   4.94317600
_cell_length_b   9.01682172
_cell_length_c   14.87734714
_cell_angle_alpha   94.42825294
_cell_angle_beta   90.00000000
_cell_angle_gamma   90.00000000
_symmetry_Int_Tables_number   1
_chemical_formula_structural   Ca3Cu2Ni(PO4)4
_chemical_formula_sum   'Ca6 Cu4 Ni2 P8 O32'
_cell_volume   661.12968666
_cell_formula_units_Z   2
loop_
 _symmetry_equiv_pos_site_id
 _symmetry_equiv_pos_as_xyz
  1  'x, y, z'
loop_
 _atom_site_type_symbol
 _atom_site_label
 _atom_site_symmetry_multiplicity
 _atom_site_fract_x
 _atom_site_fract_y
 _atom_site_fract_z
 _atom_site_occupancy
  Ca  Ca0  1  0.03435700  0.96232500  0.76557900  1
  Ca  Ca1  1  0.53435700  0.53767500  0.73442100  1
  Ca  Ca2  1  0.96382400  0.03814900  0.23475700  1
  Ca  Ca3  1  0.46382400  0.46185100  0.26524300  1
  Ca  Ca4  1  0.49910600  0.49943400  0.99913000  1
  Ca  Ca5  1  0.99910600  0.00056600  0.50087000  1
  Cu  Cu0  1  0.49947600  0.50078000  0.50059500  1
  Cu  Cu1  1  0.99947600  0.99922000  0.99940500  1
  Cu  Cu2  1  0.02944600  0.32683800  0.62136200  1
  Cu  Cu3  1  0.52944600  0.17316200  0.87863800  1
  Ni  Ni0  1  0.97124100  0.67935500  0.37825200  1
  Ni  Ni1  1  0.47124100  0.82064500  0.12174800  1
  P  P0  1  0.48201000  0.87611400  0.34178600  1
  P  P1  1  0.98201000  0.62388600  0.15821400  1
  P  P2  1  0.51819100  0.12415000  0.65878600  1
  P  P3  1  0.01819100  0.37585000  0.84121400  1
  P  P4  1  0.51430600  0.15563000  0.09340800  1
  P  P5  1  0.01430600  0.34437000  0.40659200  1
  P  P6  1  0.48762000  0.84364400  0.90586200  1
  P  P7  1  0.98762000  0.65635600  0.59413800  1
  O  O0  1  0.57572400  0.71299800  0.35127300  1
  O  O1  1  0.07572400  0.78700200  0.14872700  1
  O  O2  1  0.42659200  0.28771700  0.64884900  1
  O  O3  1  0.92659200  0.21228300  0.85115100  1
  O  O4  1  0.59482800  0.24777900  0.17975500  1
  O  O5  1  0.09482800  0.25222100  0.32024500  1
  O  O6  1  0.40487800  0.75317900  0.81935600  1
  O  O7  1  0.90487800  0.74682100  0.68064400  1
  O  O8  1  0.33018600  0.38740100  0.85809000  1
  O  O9  1  0.83018600  0.11259900  0.64191000  1
  O  O10  1  0.66671000  0.61783100  0.14135300  1
  O  O11  1  0.16671000  0.88216900  0.35864700  1
  O  O12  1  0.70224900  0.01219800  0.08445600  1
  O  O13  1  0.20224900  0.48780200  0.41554400  1
  O  O14  1  0.30035500  0.98899400  0.91582500  1
  O  O15  1  0.80035500  0.51100600  0.58417500  1
  O  O16  1  0.63622600  0.98972500  0.40291600  1
  O  O17  1  0.13622600  0.51027500  0.09708400  1
  O  O18  1  0.36121600  0.01019300  0.59871900  1
  O  O19  1  0.86121600  0.48980700  0.90128100  1
  O  O20  1  0.53116100  0.92014900  0.24294000  1
  O  O21  1  0.03116100  0.57985100  0.25706000  1
  O  O22  1  0.46738700  0.08044200  0.75840100  1
  O  O23  1  0.96738700  0.41955800  0.74159900  1
  O  O24  1  0.21948800  0.09311400  0.10100400  1
  O  O25  1  0.71948800  0.40688600  0.39899600  1
  O  O26  1  0.78340700  0.90373300  0.89890000  1
  O  O27  1  0.28340700  0.59626700  0.60110000  1
  O  O28  1  0.94784700  0.74369600  0.51005400  1
  O  O29  1  0.44784700  0.75630400  0.98994600  1
  O  O30  1  0.05216900  0.25683800  0.49106300  1
  O  O31  1  0.55216900  0.24316200  0.00893700  1
loop_
_geom_bond_atom_site_label_1
_geom_bond_atom_site_label_2
_geom_bond_distance
_geom_bond_site_symmetry_2
Ca0 O7 2.324449 1_455
Ca0 O22 2.396915 1_565
Ca0 O26 2.431845 1_455
Ca0 O3 2.557570 1_465
Ca0 O9 2.573846 1_465
Ca0 O14 2.588458 1_555
Ca0 O6 2.789986 1_555
Ca0 O22 3.003003 1_465
Ca0 O18 3.020726 1_565
Ca1 O6 2.324449 1_555
Ca1 O23 2.396915 1_555
Ca1 O27 2.431845 1_555
Ca1 O2 2.557570 1_555
Ca1 O8 2.573846 1_555
Ca1 O15 2.588458 1_555
Ca1 O7 2.789986 1_555
Ca1 O23 3.003003 1_455
Ca1 O19 3.020726 1_555
Ca2 O5 2.320276 1_655
Ca2 O20 2.396049 1_545
Ca2 O24 2.440236 1_655
Ca2 O1 2.573851 1_645
Ca2 O12 2.577962 1_555
Ca2 O11 2.604116 1_645
Ca2 O4 2.794333 1_555
Ca2 O20 3.005297 1_645
Ca2 O16 3.039820 1_545
Ca3 O4 2.320276 1_555
Ca3 O21 2.396049 1_555
Ca3 O25 2.440236 1_555
Ca3 O0 2.573851 1_555
Ca3 O13 2.577962 1_555
Ca3 O10 2.604116 1_555
Ca3 O5 2.794333 1_555
Ca3 O21 3.005297 1_655
Ca3 O17 3.039820 1_555
Ca4 O19 2.304601 1_555
Ca4 O17 2.308444 1_556
Ca4 O31 2.341315 1_556
Ca4 O29 2.344418 1_555
Ca4 O8 2.406915 1_555
Ca4 O10 2.440148 1_556
Ca5 O18 2.304601 1_655
Ca5 O16 2.308444 1_545
Ca5 O30 2.341315 1_655
Ca5 O28 2.344418 1_545
Ca5 O9 2.406915 1_555
Ca5 O11 2.440148 1_645
Cu0 O15 1.936238 1_555
Cu0 O13 1.936641 1_555
Cu0 O27 1.979655 1_555
Cu0 O25 1.996659 1_555
Cu1 O14 1.936238 1_655
Cu1 O12 1.936641 1_566
Cu1 O26 1.979655 1_555
Cu1 O24 1.996659 1_666
Cu2 O23 1.939578 1_455
Cu2 O30 1.994958 1_555
Cu2 O2 2.041553 1_555
Cu2 O15 2.118487 1_455
Cu2 O9 2.210543 1_455
Cu3 O22 1.939578 1_555
Cu3 O31 1.994958 1_556
Cu3 O3 2.041553 1_555
Cu3 O14 2.118487 1_545
Cu3 O8 2.210543 1_555
Ni0 O21 1.973266 1_655
Ni0 O28 2.004811 1_555
Ni0 O0 2.023458 1_555
Ni0 O11 2.108396 1_655
Ni0 O13 2.177836 1_655
Ni1 O20 1.973266 1_555
Ni1 O29 2.004811 1_554
Ni1 O1 2.023458 1_555
Ni1 O10 2.108396 1_555
Ni1 O12 2.177836 1_565
O0 P0 1.558778 1_555
O1 P1 1.558778 1_455
O2 P2 1.560686 1_555
O3 P3 1.560686 1_655
O4 P4 1.527815 1_555
O5 P5 1.527815 1_555
O6 P6 1.525408 1_555
O7 P7 1.525408 1_555
O8 P3 1.564727 1_555
O9 P2 1.564727 1_555
O10 P1 1.578915 1_555
O11 P0 1.578915 1_555
O12 P4 1.589614 1_555
O13 P5 1.589614 1_555
O14 P6 1.602037 1_555
O15 P7 1.602037 1_555
O16 P0 1.521111 1_555
O17 P1 1.521111 1_455
O18 P2 1.521419 1_555
O19 P3 1.521419 1_655
O20 P0 1.571437 1_555
O21 P1 1.571437 1_455
O22 P2 1.582696 1_555
O23 P3 1.582696 1_655
O24 P4 1.569775 1_555
O25 P5 1.569775 1_655
O26 P6 1.565494 1_555
O27 P7 1.565494 1_455
O28 P7 1.541380 1_555
O29 P6 1.541380 1_555
O30 P5 1.546103 1_555
O31 P4 1.546103 1_555
