# generated using pymatgen
data_Sr4LiMn2(GaO5)2
_symmetry_space_group_name_H-M   'P 1'
_cell_length_a   5.71695793
_cell_length_b   5.73014478
_cell_length_c   9.04879226
_cell_angle_alpha   71.84190807
_cell_angle_beta   71.88533812
_cell_angle_gamma   90.89276929
_symmetry_Int_Tables_number   1
_chemical_formula_structural   Sr4LiMn2(GaO5)2
_chemical_formula_sum   'Sr4 Li1 Mn2 Ga2 O10'
_cell_volume   265.62241116
_cell_formula_units_Z   1
loop_
 _symmetry_equiv_pos_site_id
 _symmetry_equiv_pos_as_xyz
  1  'x, y, z'
loop_
 _atom_site_type_symbol
 _atom_site_label
 _atom_site_symmetry_multiplicity
 _atom_site_fract_x
 _atom_site_fract_y
 _atom_site_fract_z
 _atom_site_occupancy
  Sr  Sr0  1  0.08877200  0.62019900  0.79142000  1
  Sr  Sr1  1  0.91122800  0.37980100  0.20858000  1
  Sr  Sr2  1  0.61976400  0.08834900  0.79142300  1
  Sr  Sr3  1  0.38023600  0.91165100  0.20857700  1
  Li  Li0  1  0.00000000  0.00000000  0.50000000  1
  Mn  Mn0  1  0.50000000  0.50000000  0.00000000  1
  Mn  Mn1  1  0.00000000  0.00000000  0.00000000  1
  Ga  Ga0  1  0.67350700  0.67525200  0.50011900  1
  Ga  Ga1  1  0.32649300  0.32474800  0.49988100  1
  O  O0  1  0.26209900  0.26210600  0.97525200  1
  O  O1  1  0.24927100  0.74981400  0.00092400  1
  O  O2  1  0.75072900  0.25018600  0.99907600  1
  O  O3  1  0.73790100  0.73789400  0.02474800  1
  O  O4  1  0.71146700  0.71475500  0.68637500  1
  O  O5  1  0.28853300  0.28524500  0.31362500  1
  O  O6  1  0.10218200  0.09897800  0.68612400  1
  O  O7  1  0.89781800  0.90102200  0.31387600  1
  O  O8  1  0.33414600  0.66296000  0.50000600  1
  O  O9  1  0.66585400  0.33704000  0.49999400  1
loop_
_geom_bond_atom_site_label_1
_geom_bond_atom_site_label_2
_geom_bond_distance
_geom_bond_site_symmetry_2
Li0 O6 2.167091 1_555
Li0 O7 2.167091 1_445
Li0 O4 2.169035 1_445
Li0 O5 2.169035 1_555
Mn0 O0 2.019914 1_554
Mn0 O3 2.019914 1_555
Mn0 O1 2.041515 1_555
Mn0 O2 2.041515 1_554
Mn0 O5 2.583254 1_555
Mn0 O4 2.583254 1_554
Mn1 O3 2.015608 1_445
Mn1 O0 2.015608 1_554
Mn1 O1 2.037085 1_545
Mn1 O2 2.037085 1_454
Mn1 O7 2.585264 1_445
Mn1 O6 2.585264 1_554
Ga0 O4 1.844606 1_555
Ga0 O7 1.844939 1_555
Ga0 O9 1.938177 1_555
Ga0 O8 1.940623 1_555
Ga1 O5 1.844606 1_555
Ga1 O6 1.844939 1_555
Ga1 O8 1.938177 1_555
Ga1 O9 1.940623 1_555
O0 Sr2 2.630590 1_555
O0 Sr0 2.630645 1_555
O0 Sr1 2.689298 1_456
O0 Sr3 2.689393 1_546
O1 Sr3 2.624976 1_555
O1 Sr1 2.625269 1_455
O1 Sr0 2.631629 1_554
O1 Sr2 2.631756 1_564
O2 Sr2 2.624976 1_555
O2 Sr0 2.625269 1_655
O2 Sr1 2.631629 1_556
O2 Sr3 2.631756 1_546
O3 Sr3 2.630590 1_555
O3 Sr1 2.630645 1_555
O3 Sr0 2.689298 1_654
O3 Sr2 2.689393 1_564
O4 Sr2 2.598964 1_565
O4 Sr0 2.615393 1_655
O5 Sr3 2.598964 1_545
O5 Sr1 2.615393 1_455
O6 Sr0 2.599833 1_545
O6 Sr2 2.615805 1_455
O7 Sr1 2.599833 1_565
O7 Sr3 2.615805 1_655
O8 Sr0 2.503533 1_555
O8 Sr3 2.503660 1_555
O9 Sr1 2.503533 1_555
O9 Sr2 2.503660 1_555
