# generated using pymatgen
data_C
_symmetry_space_group_name_H-M   'P 1'
_cell_length_a   10.68130827
_cell_length_b   10.74770351
_cell_length_c   10.42721568
_cell_angle_alpha   95.11598649
_cell_angle_beta   86.77443288
_cell_angle_gamma   89.89164528
_symmetry_Int_Tables_number   1
_chemical_formula_structural   C
_chemical_formula_sum   C100
_cell_volume   1190.35319192
_cell_formula_units_Z   100
loop_
 _symmetry_equiv_pos_site_id
 _symmetry_equiv_pos_as_xyz
  1  'x, y, z'
loop_
 _atom_site_type_symbol
 _atom_site_label
 _atom_site_symmetry_multiplicity
 _atom_site_fract_x
 _atom_site_fract_y
 _atom_site_fract_z
 _atom_site_occupancy
  C  C0  1  0.70219600  0.58917100  0.07179900  1
  C  C1  1  0.76746000  0.91667100  0.89816200  1
  C  C2  1  0.52083500  0.60769100  0.76929500  1
  C  C3  1  0.01967200  0.66002200  0.22191700  1
  C  C4  1  0.02039900  0.51671400  0.54386400  1
  C  C5  1  0.11352500  0.53317100  0.44813300  1
  C  C6  1  0.78204300  0.42732500  0.36117000  1
  C  C7  1  0.11502800  0.08490900  0.85191100  1
  C  C8  1  0.35437900  0.27376500  0.68786100  1
  C  C9  1  0.13261400  0.97138500  0.82918500  1
  C  C10  1  0.40637900  0.56572500  0.85004700  1
  C  C11  1  0.01912400  0.41586800  0.75292100  1
  C  C12  1  0.36386300  0.60833200  0.08072700  1
  C  C13  1  0.45939500  0.04688700  0.50580700  1
  C  C14  1  0.76180000  0.03983300  0.86842000  1
  C  C15  1  0.72052700  0.33570800  0.28897600  1
  C  C16  1  0.14428300  0.74655700  0.04806600  1
  C  C17  1  0.23110200  0.80394800  0.95827000  1
  C  C18  1  0.09012300  0.50404000  0.67020500  1
  C  C19  1  0.10908200  0.97617900  0.10951700  1
  C  C20  1  0.22834800  0.68213400  0.65582600  1
  C  C21  1  0.77648800  0.36329700  0.78577200  1
  C  C22  1  0.70498800  0.25570300  0.79318800  1
  C  C23  1  0.40701000  0.19196200  0.21821300  1
  C  C24  1  0.02334700  0.19801900  0.64622300  1
  C  C25  1  0.94161100  0.70403700  0.87422000  1
  C  C26  1  0.89631600  0.49883700  0.34968800  1
  C  C27  1  0.19278100  0.28414100  0.93865100  1
  C  C28  1  0.75667400  0.87543100  0.01957000  1
  C  C29  1  0.55053800  0.51912400  0.44342900  1
  C  C30  1  0.45075500  0.46153400  0.37866400  1
  C  C31  1  0.52506700  0.60520500  0.92227100  1
  C  C32  1  0.28476100  0.29236700  0.03773800  1
  C  C33  1  0.06308800  0.73033600  0.81373200  1
  C  C34  1  0.57444200  0.55988300  0.04529300  1
  C  C35  1  0.96867400  0.77814800  0.26715100  1
  C  C36  1  0.73716200  0.80572700  0.10916200  1
  C  C37  1  0.75165700  0.14184400  0.82655600  1
  C  C38  1  0.47265600  0.98372400  0.11434600  1
  C  C39  1  0.96225900  0.56040200  0.26607800  1
  C  C40  1  0.78956400  0.03457400  0.37285400  1
  C  C41  1  0.65407700  0.68236800  0.29399300  1
  C  C42  1  0.46698500  0.55249500  0.13501600  1
  C  C43  1  0.75502800  0.81305500  0.79491300  1
  C  C44  1  0.57940400  0.01721800  0.47196500  1
  C  C45  1  0.40180600  0.66651600  0.96309400  1
  C  C46  1  0.27534600  0.34931300  0.51864100  1
  C  C47  1  0.91384600  0.65191000  0.98579300  1
  C  C48  1  0.63598500  0.49251600  0.55366400  1
  C  C49  1  0.19976000  0.52789600  0.36555900  1
  C  C50  1  0.10818200  0.86939500  0.02198200  1
  C  C51  1  0.93950200  0.88408700  0.30984200  1
  C  C52  1  0.36816300  0.35391700  0.41622300  1
  C  C53  1  0.01899300  0.08049900  0.41660800  1
  C  C54  1  0.10981700  0.21651700  0.86219500  1
  C  C55  1  0.39625500  0.22758000  0.35851100  1
  C  C56  1  0.27351700  0.38786200  0.94604800  1
  C  C57  1  0.82005300  0.70369400  0.81460400  1
  C  C58  1  0.90116500  0.50500100  0.49653700  1
  C  C59  1  0.25191900  0.04894600  0.41512200  1
  C  C60  1  0.28363900  0.53631300  0.26205000  1
  C  C61  1  0.13767500  0.66371300  0.13871100  1
  C  C62  1  0.70361600  0.70129400  0.17002400  1
  C  C63  1  0.26594900  0.92958800  0.44066000  1
  C  C64  1  0.32380600  0.45777400  0.84977800  1
  C  C65  1  0.27415900  0.74912300  0.57509700  1
  C  C66  1  0.01179800  0.13904900  0.54203300  1
  C  C67  1  0.57643300  0.25351100  0.77027400  1
  C  C68  1  0.54632000  0.85473900  0.65340300  1
  C  C69  1  0.77064200  0.57846300  0.84355500  1
  C  C70  1  0.60756500  0.12060500  0.27062900  1
  C  C71  1  0.50049200  0.08757800  0.19135800  1
  C  C72  1  0.65972500  0.23855600  0.26948900  1
  C  C73  1  0.02965300  0.27579700  0.76584400  1
  C  C74  1  0.54037200  0.73521000  0.71387300  1
  C  C75  1  0.64469700  0.80833900  0.72419100  1
  C  C76  1  0.12341600  0.64207800  0.72726700  1
  C  C77  1  0.28892800  0.82864300  0.48656400  1
  C  C78  1  0.13428300  0.06976400  0.34615700  1
  C  C79  1  0.13173100  0.02812400  0.21535500  1
  C  C80  1  0.25153700  0.59918100  0.15323900  1
  C  C81  1  0.80171900  0.58310400  0.97827800  1
  C  C82  1  0.41393900  0.50933300  0.25797400  1
  C  C83  1  0.31428900  0.23149000  0.56770000  1
  C  C84  1  0.76389400  0.46451800  0.49606600  1
  C  C85  1  0.42542000  0.89689500  0.04294800  1
  C  C86  1  0.61712800  0.51754300  0.68709800  1
  C  C87  1  0.60454500  0.61434700  0.37135600  1
  C  C88  1  0.13025900  0.84764900  0.87297400  1
  C  C89  1  0.52167300  0.95010000  0.57316700  1
  C  C90  1  0.66653500  0.04695100  0.36862500  1
  C  C91  1  0.22373600  0.43582300  0.63017000  1
  C  C92  1  0.91225600  0.36297800  0.79000000  1
  C  C93  1  0.35842100  0.13466500  0.46249400  1
  C  C94  1  0.71781500  0.48419100  0.76874700  1
  C  C95  1  0.36541000  0.80424900  0.97533500  1
  C  C96  1  0.34307500  0.24553700  0.13013000  1
  C  C97  1  0.29524300  0.39771600  0.72495300  1
  C  C98  1  0.46701200  0.24354900  0.74003500  1
  C  C99  1  0.91062700  0.00710100  0.36421700  1
loop_
_geom_bond_atom_site_label_1
_geom_bond_atom_site_label_2
_geom_bond_distance
_geom_bond_site_symmetry_2
C0 C81 1.398922 1_554
C0 C34 1.437394 1_555
C0 C62 1.511000 1_555
C1 C28 1.377028 1_556
C1 C14 1.388185 1_565
C1 C43 1.489867 1_555
C2 C74 1.544230 1_555
C2 C86 1.574847 1_555
C2 C31 1.600892 1_555
C3 C39 1.339071 1_455
C3 C35 1.411634 1_455
C3 C61 1.492064 1_555
C4 C5 1.391963 1_555
C4 C58 1.393423 1_455
C6 C84 1.429899 1_555
C7 C9 1.233976 1_545
C8 C83 1.385375 1_555
C8 C98 1.397315 1_555
C8 C97 1.483486 1_555
C10 C64 1.458630 1_555
C10 C45 1.526742 1_555
C10 C2 1.536558 1_555
C10 C31 1.551404 1_555
C11 C92 1.329511 1_455
C11 C18 1.513912 1_555
C11 C73 1.527876 1_555
C12 C80 1.390134 1_555
C12 C42 1.422006 1_555
C12 C45 1.463431 1_554
C13 C44 1.340460 1_555
C13 C89 1.482633 1_545
C13 C93 1.544083 1_555
C14 C37 1.222529 1_555
C15 C72 1.238110 1_555
C15 C6 1.376197 1_555
C16 C61 1.354230 1_555
C16 C50 1.428139 1_555
C16 C17 1.457594 1_554
C17 C95 1.455455 1_555
C17 C88 1.533705 1_555
C17 C50 1.573201 1_556
C18 C4 1.565481 1_555
C18 C76 1.596841 1_555
C18 C91 1.619573 1_555
C19 C79 1.228336 1_565
C19 C50 1.401635 1_555
C20 C65 1.236714 1_555
C20 C76 1.400550 1_555
C21 C22 1.392521 1_555
C21 C92 1.453334 1_555
C21 C94 1.470754 1_555
C22 C37 1.400068 1_555
C22 C67 1.406834 1_555
C23 C96 1.343468 1_555
C23 C55 1.476792 1_555
C23 C71 1.497444 1_555
C24 C66 1.220564 1_555
C24 C73 1.443201 1_555
C25 C47 1.354016 1_555
C25 C33 1.449959 1_655
C25 C57 1.470616 1_555
C26 C39 1.315124 1_555
C26 C6 1.448588 1_555
C26 C58 1.530546 1_555
C27 C54 1.388414 1_555
C27 C56 1.410002 1_555
C27 C32 1.462475 1_556
C28 C36 1.257335 1_555
C29 C30 1.408570 1_555
C29 C87 1.426737 1_555
C29 C48 1.552963 1_555
C30 C82 1.473943 1_555
C30 C52 1.521582 1_555
C31 C45 1.494137 1_555
C31 C34 1.532165 1_556
C32 C96 1.312340 1_555
C32 C56 1.472873 1_554
C33 C76 1.381182 1_555
C33 C88 1.549349 1_555
C34 C42 1.446283 1_555
C35 C51 1.218325 1_555
C36 C62 1.376197 1_555
C38 C85 1.264851 1_555
C38 C71 1.359190 1_565
C40 C99 1.322173 1_555
C40 C90 1.324173 1_555
C41 C87 1.234390 1_555
C41 C62 1.400943 1_555
C42 C82 1.485043 1_555
C43 C57 1.400742 1_555
C43 C75 1.423569 1_555
C44 C89 1.441663 1_545
C44 C90 1.441896 1_555
C45 C95 1.522266 1_555
C46 C52 1.419959 1_555
C46 C83 1.475050 1_555
C46 C91 1.501295 1_555
C47 C81 1.411022 1_555
C48 C86 1.396523 1_555
C48 C84 1.480449 1_555
C49 C5 1.222637 1_555
C49 C60 1.372843 1_555
C50 C88 1.555034 1_554
C51 C99 1.417630 1_565
C52 C55 1.458866 1_555
C53 C78 1.397129 1_555
C53 C66 1.397876 1_555
C53 C99 1.502756 1_455
C54 C7 1.409731 1_555
C54 C73 1.535374 1_555
C55 C93 1.575273 1_555
C56 C64 1.391461 1_555
C57 C69 1.496151 1_555
C58 C84 1.530366 1_555
C59 C63 1.343016 1_545
C59 C78 1.508412 1_555
C59 C93 1.540417 1_555
C60 C82 1.418642 1_555
C60 C80 1.428658 1_555
C61 C80 1.421056 1_555
C63 C77 1.253493 1_555
C64 C97 1.448941 1_555
C65 C77 1.316194 1_555
C67 C98 1.229962 1_555
C68 C89 1.412943 1_555
C68 C75 1.431306 1_555
C68 C74 1.480618 1_555
C69 C94 1.365351 1_555
C69 C81 1.458129 1_555
C70 C72 1.386444 1_555
C70 C71 1.474049 1_555
C70 C90 1.510737 1_555
C73 C92 1.559399 1_455
C74 C75 1.368492 1_555
C78 C79 1.398794 1_555
C83 C93 1.498308 1_555
C85 C95 1.351836 1_554
C86 C94 1.471722 1_555
C88 C9 1.443890 1_555
C91 C97 1.372535 1_555
