# generated using pymatgen
data_Li7Mn4(P2O7)4
_symmetry_space_group_name_H-M   'P 1'
_cell_length_a   9.94830985
_cell_length_b   9.91192860
_cell_length_c   11.37887928
_cell_angle_alpha   89.97702676
_cell_angle_beta   102.93688811
_cell_angle_gamma   90.05088248
_symmetry_Int_Tables_number   1
_chemical_formula_structural   Li7Mn4(P2O7)4
_chemical_formula_sum   'Li14 Mn8 P16 O56'
_cell_volume   1093.55561761
_cell_formula_units_Z   2
loop_
 _symmetry_equiv_pos_site_id
 _symmetry_equiv_pos_as_xyz
  1  'x, y, z'
loop_
 _atom_site_type_symbol
 _atom_site_label
 _atom_site_symmetry_multiplicity
 _atom_site_fract_x
 _atom_site_fract_y
 _atom_site_fract_z
 _atom_site_occupancy
  Li  Li0  1  0.11297916  0.71990426  0.44821619  1
  Li  Li1  1  0.17032455  0.42189807  0.54594092  1
  Li  Li2  1  0.08790345  0.10915034  0.02323669  1
  Li  Li3  1  0.41220828  0.60939111  0.97664128  1
  Li  Li4  1  0.32890544  0.92165959  0.45351846  1
  Li  Li5  1  0.38686788  0.22009691  0.55161639  1
  Li  Li6  1  0.61293008  0.78063849  0.44980445  1
  Li  Li7  1  0.67349999  0.07908730  0.54874328  1
  Li  Li8  1  0.58691044  0.39271248  0.03212495  1
  Li  Li9  1  0.85109042  0.58717673  0.95754740  1
  Li  Li10  1  0.64900959  0.08706500  0.04242777  1
  Li  Li11  1  0.91330519  0.89247143  0.96807477  1
  Li  Li12  1  0.82641005  0.57914515  0.45132856  1
  Li  Li13  1  0.88676645  0.28074558  0.55020123  1
  Mn  Mn0  1  0.20680484  0.91795760  0.68018720  1
  Mn  Mn1  1  0.26034638  0.21288902  0.82423103  1
  Mn  Mn2  1  0.23981417  0.71309242  0.17574660  1
  Mn  Mn3  1  0.29324858  0.41782909  0.31954403  1
  Mn  Mn4  1  0.70512861  0.57842475  0.67671371  1
  Mn  Mn5  1  0.76103414  0.28395062  0.82741052  1
  Mn  Mn6  1  0.73920840  0.78404420  0.17273013  1
  Mn  Mn7  1  0.79476182  0.07851928  0.32342555  1
  P  P0  1  0.03004600  0.44761908  0.75942346  1
  P  P1  1  0.12025592  0.70674425  0.89273009  1
  P  P2  1  0.05910600  0.93303794  0.24150203  1
  P  P3  1  0.12299184  0.14895895  0.42713307  1
  P  P4  1  0.37690339  0.64886544  0.57270420  1
  P  P5  1  0.44103124  0.43303662  0.75858461  1
  P  P6  1  0.52521836  0.05241253  0.76171457  1
  P  P7  1  0.37991733  0.20674061  0.10715144  1
  P  P8  1  0.61711326  0.79503696  0.88987361  1
  P  P9  1  0.47023224  0.94781683  0.24071574  1
  P  P10  1  0.55781234  0.56809050  0.24679071  1
  P  P11  1  0.62111801  0.35047919  0.42868165  1
  P  P12  1  0.87879530  0.85043608  0.57127528  1
  P  P13  1  0.94222010  0.06793205  0.75321731  1
  P  P14  1  0.88285435  0.29465785  0.11011252  1
  P  P15  1  0.97480043  0.55208388  0.23824850  1
  O  O0  1  0.02117244  0.42244923  0.62584362  1
  O  O1  1  0.02532556  0.84032504  0.55210661  1
  O  O2  1  0.08774069  0.08725952  0.72875624  1
  O  O3  1  0.11587110  0.34083621  0.84263263  1
  O  O4  1  0.10806711  0.58870226  0.78953383  1
  O  O5  1  0.17251433  0.82637017  0.83460047  1
  O  O6  1  0.22819252  0.65227404  0.00465681  1
  O  O7  1  0.01655670  0.26406243  0.07770249  1
  O  O8  1  0.11407138  0.07833424  0.29653317  1
  O  O9  1  0.06295251  0.93623030  0.10968179  1
  O  O10  1  0.12712537  0.55234086  0.21861503  1
  O  O11  1  0.18748232  0.28892984  0.41987175  1
  O  O12  1  0.16747216  0.82663097  0.30791657  1
  O  O13  1  0.22547607  0.06299517  0.51779283  1
  O  O14  1  0.27408521  0.56311608  0.48209643  1
  O  O15  1  0.33267964  0.32629825  0.69244694  1
  O  O16  1  0.31287495  0.78893138  0.58014940  1
  O  O17  1  0.37295242  0.05239228  0.78144845  1
  O  O18  1  0.38589241  0.57810800  0.70331281  1
  O  O19  1  0.43752491  0.43648588  0.89044819  1
  O  O20  1  0.48339008  0.76452879  0.92209800  1
  O  O21  1  0.27186819  0.15228224  0.99519093  1
  O  O22  1  0.32757744  0.32621107  0.16523066  1
  O  O23  1  0.39179079  0.08852785  0.21024607  1
  O  O24  1  0.41229417  0.58709433  0.27132050  1
  O  O25  1  0.38498710  0.84073083  0.15756727  1
  O  O26  1  0.52667346  0.09121337  0.63278104  1
  O  O27  1  0.47450391  0.34056860  0.44780743  1
  O  O28  1  0.52349838  0.65912333  0.55364519  1
  O  O29  1  0.47880241  0.92275480  0.37437861  1
  O  O30  1  0.61614420  0.13862422  0.86003365  1
  O  O31  1  0.58397822  0.41036270  0.73110867  1
  O  O32  1  0.58350517  0.90132905  0.77516267  1
  O  O33  1  0.69026594  0.67749383  0.84155758  1
  O  O34  1  0.72104519  0.86952308  0.99374661  1
  O  O35  1  0.51951268  0.22165022  0.07681011  1
  O  O36  1  0.56429273  0.56533591  0.11524620  1
  O  O37  1  0.61278215  0.42070495  0.29838544  1
  O  O38  1  0.61529872  0.96056611  0.21087128  1
  O  O39  1  0.68629953  0.21123694  0.42051575  1
  O  O40  1  0.66277385  0.67225907  0.31638985  1
  O  O41  1  0.72313197  0.43688088  0.52006354  1
  O  O42  1  0.77704543  0.93716821  0.47992679  1
  O  O43  1  0.83725023  0.17196163  0.68360184  1
  O  O44  1  0.81305518  0.71136207  0.57929527  1
  O  O45  1  0.88509944  0.45999678  0.78958993  1
  O  O46  1  0.93569138  0.06497077  0.88476136  1
  O  O47  1  0.88728140  0.92049986  0.70158088  1
  O  O48  1  0.98064415  0.72155950  0.92323502  1
  O  O49  1  0.77907413  0.36920494  0.00636024  1
  O  O50  1  0.80967034  0.17705562  0.15849183  1
  O  O51  1  0.91670591  0.40085018  0.22478103  1
  O  O52  1  0.88394906  0.63837930  0.14000250  1
  O  O53  1  0.91607778  0.91024268  0.26882167  1
  O  O54  1  0.97637431  0.15945413  0.44605560  1
  O  O55  1  0.97322822  0.59064783  0.36718798  1
loop_
_geom_bond_atom_site_label_1
_geom_bond_atom_site_label_2
_geom_bond_distance
_geom_bond_site_symmetry_2
Li0 O55 1.961695 1_455
Li0 O1 2.011746 1_555
Li0 O12 2.084891 1_555
Li0 O14 2.204496 1_555
Li0 O16 2.310449 1_555
Li1 O0 1.905900 1_555
Li1 O14 1.971032 1_555
Li1 O11 1.983835 1_555
Li1 O15 2.254243 1_555
Li2 O7 1.856137 1_555
Li2 O21 1.973331 1_554
Li2 O46 1.974479 1_454
Li2 O9 2.018438 1_545
Li3 O20 1.856154 1_555
Li3 O6 1.973918 1_556
Li3 O36 1.974699 1_556
Li3 O19 2.018731 1_555
Li4 O29 1.906842 1_555
Li4 O13 1.973959 1_565
Li4 O16 1.983295 1_555
Li4 O12 2.240208 1_555
Li5 O26 1.961224 1_555
Li5 O27 2.009830 1_555
Li5 O15 2.087068 1_555
Li5 O13 2.206845 1_555
Li5 O11 2.305957 1_555
Li6 O29 1.997740 1_555
Li6 O40 2.010934 1_555
Li6 O28 2.026345 1_555
Li6 O42 2.221630 1_555
Li6 O44 2.300960 1_555
Li7 O26 1.920485 1_555
Li7 O39 1.985505 1_555
Li7 O42 2.004419 1_545
Li7 O43 2.176045 1_555
Li8 O35 1.932085 1_555
Li8 O19 1.980814 1_554
Li8 O36 1.992515 1_555
Li8 O49 2.011629 1_555
Li9 O48 1.951821 1_555
Li9 O33 2.039425 1_555
Li9 O52 2.090798 1_556
Li9 O45 2.376626 1_555
Li9 O49 2.379940 1_556
Li10 O35 1.954844 1_555
Li10 O50 2.036582 1_555
Li10 O30 2.090727 1_554
Li10 O38 2.375601 1_545
Li10 O34 2.377249 1_544
Li11 O48 1.932544 1_555
Li11 O9 1.981455 1_656
Li11 O46 1.991056 1_565
Li11 O34 2.011142 1_555
Li12 O55 1.920613 1_555
Li12 O44 1.985917 1_555
Li12 O41 2.003031 1_555
Li12 O40 2.177575 1_555
Li13 O0 1.995950 1_655
Li13 O43 2.010478 1_555
Li13 O54 2.029894 1_555
Li13 O41 2.217381 1_555
Li13 O39 2.304388 1_555
Mn0 O5 2.072260 1_555
Mn0 O16 2.141549 1_555
Mn0 O1 2.189969 1_555
Mn0 O2 2.195877 1_565
Mn0 O17 2.231553 1_565
Mn0 O13 2.380523 1_565
Mn1 O3 1.963715 1_555
Mn1 O21 2.014368 1_555
Mn1 O17 2.066554 1_555
Mn1 O15 2.123785 1_555
Mn1 O2 2.200321 1_555
Mn2 O25 1.964555 1_555
Mn2 O6 2.016649 1_555
Mn2 O10 2.067504 1_555
Mn2 O12 2.129253 1_555
Mn2 O24 2.203147 1_555
Mn3 O22 2.072405 1_555
Mn3 O11 2.139406 1_555
Mn3 O27 2.188887 1_555
Mn3 O24 2.192080 1_555
Mn3 O10 2.231738 1_555
Mn3 O14 2.385777 1_555
Mn4 O33 2.151844 1_555
Mn4 O44 2.155708 1_555
Mn4 O28 2.175889 1_555
Mn4 O31 2.222677 1_555
Mn4 O45 2.281674 1_555
Mn4 O41 2.307190 1_555
Mn5 O30 2.127409 1_555
Mn5 O49 2.174874 1_556
Mn5 O45 2.233122 1_555
Mn5 O31 2.238728 1_555
Mn5 O43 2.245730 1_555
Mn6 O52 2.130941 1_555
Mn6 O34 2.175427 1_554
Mn6 O53 2.234277 1_555
Mn6 O38 2.239024 1_555
Mn6 O40 2.243143 1_555
Mn7 O50 2.149662 1_555
Mn7 O39 2.157026 1_555
Mn7 O54 2.173583 1_555
Mn7 O53 2.228193 1_545
Mn7 O38 2.273401 1_545
Mn7 O42 2.302914 1_545
O0 P0 1.523347 1_555
O1 P12 1.524872 1_455
O2 P13 1.545913 1_455
O3 P0 1.544206 1_555
O4 P0 1.598363 1_555
O4 P1 1.643057 1_555
O5 P1 1.505318 1_555
O6 P1 1.566752 1_554
O7 P14 1.489166 1_455
O8 P2 1.615924 1_545
O8 P3 1.627275 1_555
O9 P2 1.509313 1_555
O10 P15 1.580462 1_455
O11 P3 1.537963 1_555
O12 P2 1.575534 1_555
O13 P3 1.536100 1_555
O14 P4 1.535776 1_555
O15 P5 1.575749 1_555
O16 P4 1.538240 1_555
O17 P6 1.580287 1_555
O18 P5 1.615647 1_555
O18 P4 1.627383 1_555
O19 P5 1.509054 1_555
O20 P8 1.487702 1_555
O21 P7 1.567224 1_556
O22 P7 1.505314 1_555
O23 P9 1.598377 1_545
O23 P7 1.643210 1_555
O24 P10 1.546144 1_555
O25 P9 1.543026 1_555
O26 P6 1.519739 1_555
O27 P11 1.525213 1_555
O28 P4 1.524977 1_555
O29 P9 1.524431 1_555
O30 P6 1.531775 1_555
O31 P5 1.539568 1_555
O32 P6 1.601209 1_565
O32 P8 1.652166 1_555
O33 P8 1.539627 1_555
O34 P8 1.569494 1_555
O35 P7 1.511260 1_555
O36 P10 1.512826 1_555
O37 P11 1.622897 1_555
O37 P10 1.623225 1_555
O38 P9 1.559842 1_555
O39 P11 1.537084 1_555
O40 P10 1.553087 1_555
O41 P11 1.539897 1_555
O42 P12 1.540728 1_555
O43 P13 1.553095 1_555
O44 P12 1.536655 1_555
O45 P0 1.560174 1_655
O46 P13 1.512962 1_555
O47 P12 1.622522 1_555
O47 P13 1.623248 1_565
O48 P1 1.512404 1_655
O49 P14 1.568625 1_555
O50 P14 1.539263 1_555
O51 P15 1.601107 1_555
O51 P14 1.651527 1_555
O52 P15 1.531821 1_555
O53 P2 1.539393 1_655
O54 P3 1.524991 1_655
O55 P15 1.519779 1_555
