# generated using pymatgen
data_MgAl2(Si3O8)2
_symmetry_space_group_name_H-M   'P 1'
_cell_length_a   5.09988579
_cell_length_b   8.52394872
_cell_length_c   8.85445106
_cell_angle_alpha   94.67832760
_cell_angle_beta   91.14416716
_cell_angle_gamma   87.87574978
_symmetry_Int_Tables_number   1
_chemical_formula_structural   MgAl2(Si3O8)2
_chemical_formula_sum   'Mg1 Al2 Si6 O16'
_cell_volume   383.31177006
_cell_formula_units_Z   1
loop_
 _symmetry_equiv_pos_site_id
 _symmetry_equiv_pos_as_xyz
  1  'x, y, z'
loop_
 _atom_site_type_symbol
 _atom_site_label
 _atom_site_symmetry_multiplicity
 _atom_site_fract_x
 _atom_site_fract_y
 _atom_site_fract_z
 _atom_site_occupancy
  Mg  Mg0  1  0.50098100  0.17397600  0.93880000  1
  Al  Al0  1  0.68075400  0.29870300  0.32435700  1
  Al  Al1  1  0.97234900  0.18729800  0.81399600  1
  Si  Si0  1  0.83307200  0.82066600  0.81988000  1
  Si  Si1  1  0.50423400  0.67149500  0.31142700  1
  Si  Si2  1  0.33807200  0.68378500  0.64822300  1
  Si  Si3  1  0.99705700  0.80040000  0.16008300  1
  Si  Si4  1  0.47157400  0.31739400  0.65763200  1
  Si  Si5  1  0.17497000  0.16116000  0.17448100  1
  O  O0  1  0.12122500  0.20717700  0.99695200  1
  O  O1  1  0.60656600  0.24814300  0.50491600  1
  O  O2  1  0.24176500  0.68523400  0.20296800  1
  O  O3  1  0.05077500  0.76504600  0.69227300  1
  O  O4  1  0.10074000  0.97864800  0.18131200  1
  O  O5  1  0.33085100  0.49258800  0.65304500  1
  O  O6  1  0.78787800  0.01495100  0.83480200  1
  O  O7  1  0.60428900  0.49305500  0.30233900  1
  O  O8  1  0.73550100  0.78508200  0.25969400  1
  O  O9  1  0.54897600  0.74961700  0.77628100  1
  O  O10  1  0.41823600  0.73657600  0.48428200  1
  O  O11  1  0.92521100  0.75804100  0.98110600  1
  O  O12  1  0.25860500  0.19560400  0.71560100  1
  O  O13  1  0.49926500  0.18215800  0.17624500  1
  O  O14  1  0.69182900  0.31553900  0.80290000  1
  O  O15  1  0.01772700  0.27051800  0.29737700  1
loop_
_geom_bond_atom_site_label_1
_geom_bond_atom_site_label_2
_geom_bond_distance
_geom_bond_site_symmetry_2
Mg0 O0 2.017794 1_555
Mg0 O14 2.054765 1_555
Mg0 O13 2.098091 1_556
Mg0 O6 2.128225 1_555
Mg0 O12 2.326513 1_555
Al0 O7 1.713567 1_555
Al0 O1 1.741703 1_555
Al0 O15 1.744861 1_655
Al0 O13 1.835932 1_555
Al1 O12 1.721572 1_655
Al1 O0 1.773452 1_655
Al1 O14 1.774038 1_555
Al1 O6 1.797421 1_555
O0 Si5 1.665930 1_556
O1 Si4 1.589885 1_555
O2 Si3 1.617524 1_455
O2 Si1 1.638021 1_555
O3 Si0 1.630275 1_455
O3 Si2 1.637739 1_555
O4 Si5 1.620854 1_565
O4 Si3 1.622480 1_455
O5 Si2 1.635585 1_555
O5 Si4 1.635866 1_555
O6 Si0 1.658431 1_545
O7 Si1 1.582551 1_555
O8 Si3 1.628791 1_555
O8 Si1 1.648303 1_555
O9 Si0 1.618507 1_555
O9 Si2 1.627794 1_555
O10 Si2 1.618853 1_555
O10 Si1 1.647091 1_555
O11 Si0 1.619455 1_555
O11 Si3 1.633803 1_556
O12 Si4 1.647301 1_555
O13 Si5 1.669735 1_555
O14 Si4 1.691385 1_555
O15 Si5 1.584330 1_555
