# generated using pymatgen
data_Zn(AgO2)2
_symmetry_space_group_name_H-M   'P 1'
_cell_length_a   3.11115900
_cell_length_b   9.74425300
_cell_length_c   11.01399700
_cell_angle_alpha   90.00000000
_cell_angle_beta   90.00000000
_cell_angle_gamma   90.00000000
_symmetry_Int_Tables_number   1
_chemical_formula_structural   Zn(AgO2)2
_chemical_formula_sum   'Zn4 Ag8 O16'
_cell_volume   333.89945655
_cell_formula_units_Z   4
loop_
 _symmetry_equiv_pos_site_id
 _symmetry_equiv_pos_as_xyz
  1  'x, y, z'
loop_
 _atom_site_type_symbol
 _atom_site_label
 _atom_site_symmetry_multiplicity
 _atom_site_fract_x
 _atom_site_fract_y
 _atom_site_fract_z
 _atom_site_occupancy
  Zn  Zn0  1  0.25000000  0.26172600  0.34113500  1
  Zn  Zn1  1  0.75000000  0.73827400  0.65886500  1
  Zn  Zn2  1  0.25000000  0.76172600  0.15886500  1
  Zn  Zn3  1  0.75000000  0.23827400  0.84113500  1
  Ag  Ag0  1  0.75000000  0.41539800  0.10720700  1
  Ag  Ag1  1  0.25000000  0.08460200  0.60720700  1
  Ag  Ag2  1  0.75000000  0.91539800  0.39279300  1
  Ag  Ag3  1  0.25000000  0.58460200  0.89279300  1
  Ag  Ag4  1  0.25000000  0.56893200  0.38739700  1
  Ag  Ag5  1  0.75000000  0.43106800  0.61260300  1
  Ag  Ag6  1  0.25000000  0.06893200  0.11260300  1
  Ag  Ag7  1  0.75000000  0.93106800  0.88739700  1
  O  O0  1  0.75000000  0.87178800  0.07183200  1
  O  O1  1  0.25000000  0.12821200  0.92816800  1
  O  O2  1  0.75000000  0.37178800  0.42816800  1
  O  O3  1  0.25000000  0.62821200  0.57183200  1
  O  O4  1  0.75000000  0.02514800  0.72232500  1
  O  O5  1  0.25000000  0.97485200  0.27767500  1
  O  O6  1  0.75000000  0.52514800  0.77767500  1
  O  O7  1  0.25000000  0.47485200  0.22232500  1
  O  O8  1  0.75000000  0.61833800  0.03307500  1
  O  O9  1  0.25000000  0.38166200  0.96692500  1
  O  O10  1  0.75000000  0.11833800  0.46692500  1
  O  O11  1  0.25000000  0.88166200  0.53307500  1
  O  O12  1  0.25000000  0.77248400  0.79210900  1
  O  O13  1  0.75000000  0.22751600  0.20789100  1
  O  O14  1  0.75000000  0.72751600  0.29210900  1
  O  O15  1  0.25000000  0.27248400  0.70789100  1
loop_
_geom_bond_atom_site_label_1
_geom_bond_atom_site_label_2
_geom_bond_distance
_geom_bond_site_symmetry_2
Ag0 O7 2.088792 1_655
Ag0 O7 2.088792 1_555
Ag0 O8 2.139429 1_555
Ag0 O13 2.140432 1_555
Ag0 O9 2.217007 1_654
Ag0 O9 2.217007 1_554
Ag1 O4 2.088792 1_455
Ag1 O4 2.088792 1_555
Ag1 O11 2.139429 1_545
Ag1 O15 2.140432 1_555
Ag1 O10 2.217007 1_555
Ag1 O10 2.217007 1_455
Ag2 O5 2.088792 1_655
Ag2 O5 2.088792 1_555
Ag2 O10 2.139429 1_565
Ag2 O14 2.140432 1_555
Ag2 O11 2.217007 1_655
Ag2 O11 2.217007 1_555
Ag3 O6 2.088792 1_555
Ag3 O6 2.088792 1_455
Ag3 O9 2.139429 1_555
Ag3 O12 2.140432 1_555
Ag3 O8 2.217007 1_456
Ag3 O8 2.217007 1_556
Ag4 O7 2.036150 1_555
Ag4 O3 2.111899 1_555
Ag4 O14 2.430880 1_555
Ag4 O14 2.430880 1_455
Ag4 O2 2.512329 1_455
Ag4 O2 2.512329 1_555
Ag5 O6 2.036150 1_555
Ag5 O2 2.111899 1_555
Ag5 O15 2.430880 1_555
Ag5 O15 2.430880 1_655
Ag5 O3 2.512329 1_555
Ag5 O3 2.512329 1_655
Ag6 O5 2.036150 1_545
Ag6 O1 2.111899 1_554
Ag6 O13 2.430880 1_455
Ag6 O13 2.430880 1_555
Ag6 O0 2.512329 1_445
Ag6 O0 2.512329 1_545
Ag7 O4 2.036150 1_565
Ag7 O0 2.111899 1_556
Ag7 O12 2.430880 1_555
Ag7 O12 2.430880 1_655
Ag7 O1 2.512329 1_565
Ag7 O1 2.512329 1_665
O0 Zn2 2.118703 1_655
O0 Zn2 2.118703 1_555
O1 Zn3 2.118703 1_455
O1 Zn3 2.118703 1_555
O2 Zn0 2.118703 1_555
O2 Zn0 2.118703 1_655
O3 Zn1 2.118703 1_455
O3 Zn1 2.118703 1_555
O4 Zn3 2.454642 1_555
O5 Zn2 2.454642 1_555
O6 Zn1 2.454642 1_555
O7 Zn0 2.454642 1_555
O8 Zn2 2.508285 1_655
O8 Zn2 2.508285 1_555
O9 Zn3 2.508285 1_455
O9 Zn3 2.508285 1_555
O10 Zn0 2.508285 1_555
O10 Zn0 2.508285 1_655
O11 Zn1 2.508285 1_455
O11 Zn1 2.508285 1_555
O12 Zn1 2.164405 1_555
O12 Zn1 2.164405 1_455
O13 Zn0 2.164405 1_555
O13 Zn0 2.164405 1_655
O14 Zn2 2.164405 1_555
O14 Zn2 2.164405 1_655
O15 Zn3 2.164405 1_455
O15 Zn3 2.164405 1_555
