# generated using pymatgen
data_Li7Mn2(CoO4)3
_symmetry_space_group_name_H-M   'P 1'
_cell_length_a   2.95542464
_cell_length_b   2.95542430
_cell_length_c   29.01654906
_cell_angle_alpha   90.00000000
_cell_angle_beta   90.00000000
_cell_angle_gamma   119.99998968
_symmetry_Int_Tables_number   1
_chemical_formula_structural   Li7Mn2(CoO4)3
_chemical_formula_sum   'Li7 Mn2 Co3 O12'
_cell_volume   219.49072163
_cell_formula_units_Z   1
loop_
 _symmetry_equiv_pos_site_id
 _symmetry_equiv_pos_as_xyz
  1  'x, y, z'
loop_
 _atom_site_type_symbol
 _atom_site_label
 _atom_site_symmetry_multiplicity
 _atom_site_fract_x
 _atom_site_fract_y
 _atom_site_fract_z
 _atom_site_occupancy
  Li  Li0  1  -0.00000000  0.00000000  0.24735399  1
  Li  Li1  1  0.33333300  0.66666700  0.41147947  1
  Li  Li2  1  0.66666700  0.33333300  0.58735434  1
  Li  Li3  1  -0.00000000  -0.00000000  0.75174830  1
  Li  Li4  1  0.33333300  0.66666700  0.91124490  1
  Li  Li5  1  0.66666700  0.33333300  0.09178444  1
  Li  Li6  1  0.33333300  0.66666700  0.16654030  1
  Mn  Mn0  1  -0.00000000  0.00000000  0.99896787  1
  Mn  Mn1  1  -0.00000000  -0.00000000  0.50038639  1
  Co  Co0  1  0.66666700  0.33333300  0.33279129  1
  Co  Co1  1  0.33333300  0.66666700  0.66781472  1
  Co  Co2  1  0.66666700  0.33333300  0.83258860  1
  O  O0  1  -0.00000000  -0.00000000  0.37342343  1
  O  O1  1  0.33333300  0.66666700  0.53857330  1
  O  O2  1  0.66666700  0.33333300  0.70489124  1
  O  O3  1  -0.00000000  -0.00000000  0.87283675  1
  O  O4  1  0.33333300  0.66666700  0.03412884  1
  O  O5  1  0.66666700  0.33333300  0.20913481  1
  O  O6  1  -0.00000000  -0.00000000  0.12381557  1
  O  O7  1  0.33333300  0.66666700  0.29614589  1
  O  O8  1  0.66666700  0.33333300  0.46300202  1
  O  O9  1  0.00000000  0.00000000  0.62860975  1
  O  O10  1  0.33333300  0.66666700  0.79384024  1
  O  O11  1  0.66666700  0.33333300  0.96154354  1
loop_
_geom_bond_atom_site_label_1
_geom_bond_atom_site_label_2
_geom_bond_distance
_geom_bond_site_symmetry_2
Li0 O5 2.035033 1_455
Li0 O5 2.035036 1_445
Li0 O5 2.035036 1_555
Li0 O7 2.217187 1_545
Li0 O7 2.217189 1_555
Li0 O7 2.217189 1_445
Li1 O0 2.032458 1_565
Li1 O0 2.032460 1_555
Li1 O0 2.032460 1_665
Li1 O8 2.268601 1_565
Li1 O8 2.268601 1_455
Li1 O8 2.268605 1_555
Li2 O9 2.084353 1_655
Li2 O9 2.084356 1_665
Li2 O9 2.084356 1_555
Li2 O1 2.216986 1_545
Li2 O1 2.216986 1_655
Li2 O1 2.216989 1_555
Li3 O10 2.098388 1_545
Li3 O10 2.098390 1_555
Li3 O10 2.098390 1_445
Li3 O2 2.181765 1_455
Li3 O2 2.181767 1_445
Li3 O2 2.181767 1_555
Li4 O3 2.038027 1_565
Li4 O3 2.038029 1_555
Li4 O3 2.038029 1_665
Li4 O11 2.245356 1_565
Li4 O11 2.245357 1_455
Li4 O11 2.245360 1_555
Li5 O6 1.943026 1_655
Li5 O6 1.943029 1_665
Li5 O6 1.943029 1_555
Li5 O4 2.389628 1_545
Li5 O4 2.389628 1_655
Li5 O4 2.389632 1_555
Li6 O5 2.106909 1_565
Li6 O5 2.106910 1_455
Li6 O5 2.106913 1_555
Li6 O6 2.109128 1_565
Li6 O6 2.109130 1_555
Li6 O6 2.109130 1_665
Mn0 O4 1.988068 1_546
Mn0 O4 1.988071 1_556
Mn0 O4 1.988071 1_446
Mn0 O11 2.022557 1_455
Mn0 O11 2.022560 1_445
Mn0 O11 2.022560 1_555
Mn1 O8 2.021935 1_455
Mn1 O8 2.021937 1_445
Mn1 O8 2.021937 1_555
Mn1 O1 2.034523 1_545
Mn1 O1 2.034526 1_555
Mn1 O1 2.034526 1_445
Co0 O7 2.010513 1_545
Co0 O7 2.010513 1_655
Co0 O7 2.010517 1_555
Co0 O0 2.074019 1_655
Co0 O0 2.074022 1_665
Co0 O0 2.074022 1_555
Co1 O2 2.017157 1_565
Co1 O2 2.017157 1_455
Co1 O2 2.017161 1_555
Co1 O9 2.050762 1_565
Co1 O9 2.050764 1_555
Co1 O9 2.050764 1_665
Co2 O10 2.043442 1_545
Co2 O10 2.043442 1_655
Co2 O10 2.043446 1_555
Co2 O3 2.067706 1_655
Co2 O3 2.067708 1_665
Co2 O3 2.067708 1_555
