# generated using pymatgen
data_BaSrMgSi2O7
_symmetry_space_group_name_H-M   'P 1'
_cell_length_a   8.21702500
_cell_length_b   5.34452200
_cell_length_c   8.20722521
_cell_angle_alpha   88.98325545
_cell_angle_beta   90.00000000
_cell_angle_gamma   90.00000000
_symmetry_Int_Tables_number   1
_chemical_formula_structural   BaSrMgSi2O7
_chemical_formula_sum   'Ba2 Sr2 Mg2 Si4 O14'
_cell_volume   360.37233532
_cell_formula_units_Z   2
loop_
 _symmetry_equiv_pos_site_id
 _symmetry_equiv_pos_as_xyz
  1  'x, y, z'
loop_
 _atom_site_type_symbol
 _atom_site_label
 _atom_site_symmetry_multiplicity
 _atom_site_fract_x
 _atom_site_fract_y
 _atom_site_fract_z
 _atom_site_occupancy
  Ba  Ba0  1  0.16479900  0.48766600  0.08716700  1
  Ba  Ba1  1  0.66479900  0.51233400  0.91283300  1
  Sr  Sr0  1  0.83103000  0.49449000  0.41758600  1
  Sr  Sr1  1  0.33103000  0.50551000  0.58241400  1
  Mg  Mg0  1  0.50130200  0.99913500  0.25253300  1
  Mg  Mg1  1  0.00130200  0.00086500  0.74746700  1
  Si  Si0  1  0.63768400  0.05446900  0.60198300  1
  Si  Si1  1  0.13768400  0.94553100  0.39801700  1
  Si  Si2  1  0.36226600  0.04534600  0.87707700  1
  Si  Si3  1  0.86226600  0.95465400  0.12292300  1
  O  O0  1  0.99894400  0.84779900  0.26104000  1
  O  O1  1  0.49894400  0.15220100  0.73896000  1
  O  O2  1  0.57989400  0.20490800  0.43455900  1
  O  O3  1  0.07989400  0.79509200  0.56544100  1
  O  O4  1  0.42265100  0.16778400  0.04993600  1
  O  O5  1  0.92265100  0.83221600  0.95006400  1
  O  O6  1  0.69432000  0.80983700  0.18064300  1
  O  O7  1  0.19432000  0.19016300  0.81935700  1
  O  O8  1  0.30895600  0.81464100  0.33805700  1
  O  O9  1  0.80895600  0.18535900  0.66194300  1
  O  O10  1  0.63964200  0.75156800  0.59576400  1
  O  O11  1  0.13964200  0.24843200  0.40423600  1
  O  O12  1  0.35851100  0.74270300  0.87474600  1
  O  O13  1  0.85851100  0.25729700  0.12525400  1
loop_
_geom_bond_atom_site_label_1
_geom_bond_atom_site_label_2
_geom_bond_distance
_geom_bond_site_symmetry_2
Ba0 O12 2.710461 1_554
Ba0 O4 2.742975 1_555
Ba0 O7 2.746290 1_554
Ba0 O0 2.774128 1_455
Ba0 O13 2.816753 1_455
Ba0 O11 2.886380 1_555
Ba0 O5 2.922777 1_454
Ba0 O8 2.970627 1_555
Ba1 O13 2.710461 1_556
Ba1 O5 2.742975 1_555
Ba1 O6 2.746290 1_556
Ba1 O1 2.774128 1_555
Ba1 O12 2.816753 1_555
Ba1 O10 2.886380 1_555
Ba1 O4 2.922777 1_556
Ba1 O9 2.970627 1_555
Mg0 O6 1.976957 1_555
Mg0 O2 1.979052 1_565
Mg0 O8 1.984540 1_555
Mg0 O4 1.985367 1_565
Mg1 O7 1.976957 1_555
Mg1 O3 1.979052 1_545
Mg1 O9 1.984540 1_455
Mg1 O5 1.985367 1_445
O0 Si3 1.688030 1_555
O0 Si1 1.690315 1_655
O0 Sr0 2.652152 1_555
O1 Si2 1.688030 1_555
O1 Si0 1.690315 1_555
O1 Sr1 2.652152 1_555
O2 Si0 1.649501 1_555
O2 Sr0 2.581756 1_555
O2 Sr1 2.881754 1_555
O3 Si1 1.649501 1_555
O3 Sr1 2.581756 1_555
O3 Sr0 2.881754 1_455
O4 Si2 1.649254 1_554
O5 Si3 1.649254 1_556
O6 Si3 1.647691 1_555
O6 Sr0 2.787067 1_555
O7 Si2 1.647691 1_555
O7 Sr1 2.787067 1_555
O8 Si1 1.650567 1_555
O8 Sr1 2.582041 1_555
O9 Si0 1.650567 1_555
O9 Sr0 2.582041 1_555
O10 Si0 1.620650 1_565
O10 Sr0 2.563342 1_555
O10 Sr1 2.859573 1_555
O11 Si1 1.620650 1_545
O11 Sr1 2.563342 1_555
O11 Sr0 2.859573 1_455
O12 Si2 1.618229 1_565
O12 Sr1 2.742677 1_555
O13 Si3 1.618229 1_545
O13 Sr0 2.742677 1_555
