# generated using pymatgen
data_Li2La2Si3
_symmetry_space_group_name_H-M   'P 1'
_cell_length_a   9.67113421
_cell_length_b   9.67113421
_cell_length_c   6.91712158
_cell_angle_alpha   90.00000000
_cell_angle_beta   90.00000000
_cell_angle_gamma   152.95501830
_symmetry_Int_Tables_number   1
_chemical_formula_structural   Li2La2Si3
_chemical_formula_sum   'Li4 La4 Si6'
_cell_volume   294.16805467
_cell_formula_units_Z   2
loop_
 _symmetry_equiv_pos_site_id
 _symmetry_equiv_pos_as_xyz
  1  'x, y, z'
loop_
 _atom_site_type_symbol
 _atom_site_label
 _atom_site_symmetry_multiplicity
 _atom_site_fract_x
 _atom_site_fract_y
 _atom_site_fract_z
 _atom_site_occupancy
  Li  Li0  1  0.81244158  0.18755842  0.43906247  1
  Li  Li1  1  0.18755842  0.81244158  0.56093753  1
  Li  Li2  1  0.81244158  0.18755842  0.06093753  1
  Li  Li3  1  0.18755842  0.81244158  0.93906247  1
  La  La0  1  0.55228678  0.44771322  0.75000000  1
  La  La1  1  0.44771322  0.55228678  0.25000000  1
  La  La2  1  0.33973054  0.66026946  0.75000000  1
  La  La3  1  0.66026946  0.33973054  0.25000000  1
  Si  Si0  1  0.94355599  0.05644401  0.92232690  1
  Si  Si1  1  0.05644401  0.94355599  0.07767310  1
  Si  Si2  1  0.94355599  0.05644401  0.57767310  1
  Si  Si3  1  0.05644401  0.94355599  0.42232690  1
  Si  Si4  1  0.71978935  0.28021065  0.75000000  1
  Si  Si5  1  0.28021065  0.71978935  0.25000000  1
loop_
_geom_bond_atom_site_label_1
_geom_bond_atom_site_label_2
_geom_bond_distance
_geom_bond_site_symmetry_2
Li0 Si2 2.645596 1_555
Li0 Si5 2.681691 1_545
Li0 Si5 2.681691 1_655
Li0 Si4 2.768023 1_555
Li1 Si3 2.645596 1_555
Li1 Si4 2.681691 1_455
Li1 Si4 2.681691 1_565
Li1 Si5 2.768023 1_555
Li2 Si0 2.645596 1_554
Li2 Si5 2.681691 1_545
Li2 Si5 2.681691 1_655
Li2 Si4 2.768023 1_554
Li3 Si1 2.645596 1_556
Li3 Si4 2.681691 1_455
Li3 Si4 2.681691 1_565
Li3 Si5 2.768023 1_556
La0 Si4 3.150064 1_555
La0 Si1 3.202685 1_546
La0 Si3 3.202685 1_545
La0 Si3 3.202685 1_655
La0 Si1 3.202685 1_656
La0 Si2 3.273513 1_455
La0 Si0 3.273513 1_455
La0 Si2 3.273513 1_565
La0 Si0 3.273513 1_565
La1 Si5 3.150064 1_555
La1 Si0 3.202685 1_454
La1 Si2 3.202685 1_455
La1 Si2 3.202685 1_565
La1 Si0 3.202685 1_564
La1 Si1 3.273513 1_545
La1 Si3 3.273513 1_545
La1 Si3 3.273513 1_655
La1 Si1 3.273513 1_655
La2 Li1 3.146414 1_555
La2 Li3 3.146414 1_555
La2 Li2 3.162766 1_566
La2 Li2 3.162766 1_456
La2 Li0 3.162766 1_455
La2 Li0 3.162766 1_565
La2 Si4 3.194000 1_565
La2 Si4 3.194000 1_455
La2 Si0 3.216695 1_565
La2 Si2 3.216695 1_455
La2 Si0 3.216695 1_455
La2 Si2 3.216695 1_565
La3 Li0 3.146414 1_555
La3 Li2 3.146414 1_555
La3 Li1 3.162766 1_545
La3 Li3 3.162766 1_654
La3 Li1 3.162766 1_655
La3 Li3 3.162766 1_544
La3 Si5 3.194000 1_655
La3 Si5 3.194000 1_545
La3 Si1 3.216695 1_655
La3 Si3 3.216695 1_655
La3 Si3 3.216695 1_545
La3 Si1 3.216695 1_545
Si0 Si1 2.379432 1_646
Si0 Si2 2.384012 1_555
Si1 Si3 2.384012 1_555
Si2 Si3 2.379432 1_645
