# generated using pymatgen
data_Pm2MgSe4
_symmetry_space_group_name_H-M   'P 1'
_cell_length_a   13.51857464
_cell_length_b   8.09105358
_cell_length_c   13.62382869
_cell_angle_alpha   90.00000000
_cell_angle_beta   90.00000000
_cell_angle_gamma   90.00000000
_symmetry_Int_Tables_number   1
_chemical_formula_structural   Pm2MgSe4
_chemical_formula_sum   'Pm16 Mg8 Se32'
_cell_volume   1490.16773011
_cell_formula_units_Z   8
loop_
 _symmetry_equiv_pos_site_id
 _symmetry_equiv_pos_as_xyz
  1  'x, y, z'
loop_
 _atom_site_type_symbol
 _atom_site_label
 _atom_site_symmetry_multiplicity
 _atom_site_fract_x
 _atom_site_fract_y
 _atom_site_fract_z
 _atom_site_occupancy
  Pm  Pm0  1  0.10806511  0.88352445  0.68497281  1
  Pm  Pm1  1  0.89193489  0.11647555  0.18497281  1
  Pm  Pm2  1  0.39193489  0.88352445  0.18497281  1
  Pm  Pm3  1  0.60806511  0.11647555  0.68497281  1
  Pm  Pm4  1  0.12744351  0.38205499  0.32635849  1
  Pm  Pm5  1  0.87255649  0.61794501  0.82635849  1
  Pm  Pm6  1  0.37255649  0.38205499  0.82635849  1
  Pm  Pm7  1  0.62744351  0.61794501  0.32635849  1
  Pm  Pm8  1  0.13362287  0.62851137  0.99180631  1
  Pm  Pm9  1  0.86637713  0.37148863  0.49180631  1
  Pm  Pm10  1  0.36637713  0.62851137  0.49180631  1
  Pm  Pm11  1  0.63362287  0.37148863  0.99180631  1
  Pm  Pm12  1  0.13453117  0.12882842  0.99273393  1
  Pm  Pm13  1  0.86546883  0.87117158  0.49273393  1
  Pm  Pm14  1  0.36546883  0.12882842  0.49273393  1
  Pm  Pm15  1  0.63453117  0.87117158  0.99273393  1
  Mg  Mg0  1  0.11135147  0.38285468  0.69241457  1
  Mg  Mg1  1  0.88864853  0.61714532  0.19241457  1
  Mg  Mg2  1  0.38864853  0.38285468  0.19241457  1
  Mg  Mg3  1  0.61135147  0.61714532  0.69241457  1
  Mg  Mg4  1  0.12638020  0.87877341  0.31983000  1
  Mg  Mg5  1  0.87361980  0.12122659  0.81983000  1
  Mg  Mg6  1  0.37361980  0.87877341  0.81983000  1
  Mg  Mg7  1  0.62638020  0.12122659  0.31983000  1
  Se  Se0  1  0.01073076  0.88039696  0.87936840  1
  Se  Se1  1  0.98926924  0.11960304  0.37936840  1
  Se  Se2  1  0.48926924  0.88039696  0.37936840  1
  Se  Se3  1  0.51073076  0.11960304  0.87936840  1
  Se  Se4  1  0.03090845  0.38034292  0.12861174  1
  Se  Se5  1  0.96909155  0.61965708  0.62861174  1
  Se  Se6  1  0.46909155  0.38034292  0.62861174  1
  Se  Se7  1  0.53090845  0.61965708  0.12861174  1
  Se  Se8  1  0.02341502  0.37105959  0.86714692  1
  Se  Se9  1  0.97658498  0.62894041  0.36714692  1
  Se  Se10  1  0.47658498  0.37105959  0.36714692  1
  Se  Se11  1  0.52341502  0.62894041  0.86714692  1
  Se  Se12  1  0.04511219  0.87154732  0.13865999  1
  Se  Se13  1  0.95488781  0.12845268  0.63865999  1
  Se  Se14  1  0.45488781  0.87154732  0.63865999  1
  Se  Se15  1  0.54511219  0.12845268  0.13865999  1
  Se  Se16  1  0.20989195  0.87912928  0.49841676  1
  Se  Se17  1  0.79010805  0.12087072  0.99841676  1
  Se  Se18  1  0.29010805  0.87912928  0.99841676  1
  Se  Se19  1  0.70989195  0.12087072  0.49841676  1
  Se  Se20  1  0.21040323  0.38017938  0.52239866  1
  Se  Se21  1  0.78959677  0.61982062  0.02239866  1
  Se  Se22  1  0.28959677  0.38017938  0.02239866  1
  Se  Se23  1  0.71040323  0.61982062  0.52239866  1
  Se  Se24  1  0.23235000  0.12865938  0.77613388  1
  Se  Se25  1  0.76765000  0.87134062  0.27613388  1
  Se  Se26  1  0.26765000  0.12865938  0.27613388  1
  Se  Se27  1  0.73235000  0.87134062  0.77613388  1
  Se  Se28  1  0.23045597  0.63251816  0.77814852  1
  Se  Se29  1  0.76954403  0.36748184  0.27814852  1
  Se  Se30  1  0.26954403  0.63251816  0.27814852  1
  Se  Se31  1  0.73045597  0.36748184  0.77814852  1
loop_
_geom_bond_atom_site_label_1
_geom_bond_atom_site_label_2
_geom_bond_distance
_geom_bond_site_symmetry_2
Pm0 Se24 2.880845 1_565
Pm0 Se16 2.890663 1_555
Pm0 Se28 2.910930 1_555
Pm0 Se13 2.934844 1_465
Pm0 Se5 2.945722 1_455
Pm0 Se0 2.957383 1_555
Pm1 Se25 2.880845 1_545
Pm1 Se17 2.890663 1_554
Pm1 Se29 2.910930 1_555
Pm1 Se12 2.934844 1_645
Pm1 Se4 2.945722 1_655
Pm1 Se1 2.957383 1_555
Pm2 Se26 2.880845 1_565
Pm2 Se18 2.890663 1_554
Pm2 Se30 2.910930 1_555
Pm2 Se15 2.934844 1_565
Pm2 Se7 2.945722 1_555
Pm2 Se2 2.957383 1_555
Pm3 Se27 2.880845 1_545
Pm3 Se19 2.890663 1_555
Pm3 Se31 2.910930 1_555
Pm3 Se14 2.934844 1_545
Pm3 Se6 2.945722 1_555
Pm3 Se3 2.957383 1_555
Pm4 Se30 2.868513 1_555
Pm4 Se26 2.874749 1_555
Pm4 Se20 2.896766 1_555
Pm4 Se9 2.908294 1_455
Pm4 Se1 2.918904 1_455
Pm4 Se4 2.993537 1_555
Pm5 Se31 2.868513 1_555
Pm5 Se27 2.874749 1_555
Pm5 Se21 2.896766 1_556
Pm5 Se8 2.908294 1_655
Pm5 Se0 2.918904 1_655
Pm5 Se5 2.993537 1_555
Pm6 Se28 2.868513 1_555
Pm6 Se24 2.874749 1_555
Pm6 Se22 2.896766 1_556
Pm6 Se11 2.908294 1_555
Pm6 Se3 2.918904 1_555
Pm6 Se6 2.993537 1_555
Pm7 Se29 2.868513 1_555
Pm7 Se25 2.874749 1_555
Pm7 Se23 2.896766 1_555
Pm7 Se10 2.908294 1_555
Pm7 Se2 2.918904 1_555
Pm7 Se7 2.993537 1_555
Pm8 Se18 2.931738 1_555
Pm8 Se22 2.942249 1_556
Pm8 Se0 3.043033 1_555
Pm8 Se12 3.049809 1_556
Pm8 Se4 3.071436 1_556
Pm8 Se8 3.072969 1_555
Pm8 Se28 3.191806 1_555
Pm9 Se19 2.931738 1_555
Pm9 Se23 2.942249 1_555
Pm9 Se1 3.043033 1_555
Pm9 Se13 3.049809 1_555
Pm9 Se5 3.071436 1_555
Pm9 Se9 3.072969 1_555
Pm9 Se29 3.191806 1_555
Pm10 Se16 2.931738 1_555
Pm10 Se20 2.942249 1_555
Pm10 Se2 3.043033 1_555
Pm10 Se14 3.049809 1_555
Pm10 Se6 3.071436 1_555
Pm10 Se10 3.072969 1_555
Pm10 Se30 3.191806 1_555
Pm11 Se17 2.931738 1_555
Pm11 Se21 2.942249 1_556
Pm11 Se3 3.043033 1_555
Pm11 Se15 3.049809 1_556
Pm11 Se7 3.071436 1_556
Pm11 Se11 3.072969 1_555
Pm11 Se31 3.191806 1_555
Pm12 Se18 2.917376 1_545
Pm12 Se22 2.948487 1_556
Pm12 Se8 3.004175 1_555
Pm12 Se0 3.037555 1_545
Pm12 Se4 3.087147 1_556
Pm12 Se12 3.122025 1_546
Pm12 Se24 3.233668 1_555
Pm13 Se19 2.917376 1_565
Pm13 Se23 2.948487 1_555
Pm13 Se9 3.004175 1_555
Pm13 Se1 3.037555 1_565
Pm13 Se5 3.087147 1_555
Pm13 Se13 3.122025 1_565
Pm13 Se25 3.233668 1_555
Pm14 Se16 2.917376 1_545
Pm14 Se20 2.948487 1_555
Pm14 Se10 3.004175 1_555
Pm14 Se2 3.037555 1_545
Pm14 Se6 3.087147 1_555
Pm14 Se14 3.122025 1_545
Pm14 Se26 3.233668 1_555
Pm15 Se17 2.917376 1_565
Pm15 Se21 2.948487 1_556
Pm15 Se11 3.004175 1_555
Pm15 Se3 3.037555 1_565
Pm15 Se7 3.087147 1_556
Pm15 Se15 3.122025 1_566
Pm15 Se27 3.233668 1_555
Mg0 Se8 2.662553 1_555
Mg0 Se20 2.675554 1_555
Mg0 Se28 2.835021 1_555
Mg0 Se5 2.850451 1_455
Mg0 Se24 2.864711 1_555
Mg0 Se13 3.040918 1_455
Mg1 Se9 2.662553 1_555
Mg1 Se21 2.675554 1_555
Mg1 Se29 2.835021 1_555
Mg1 Se4 2.850451 1_655
Mg1 Se25 2.864711 1_555
Mg1 Se12 3.040918 1_655
Mg2 Se10 2.662553 1_555
Mg2 Se22 2.675554 1_555
Mg2 Se30 2.835021 1_555
Mg2 Se7 2.850451 1_555
Mg2 Se26 2.864711 1_555
Mg2 Se15 3.040918 1_555
Mg3 Se11 2.662553 1_555
Mg3 Se23 2.675554 1_555
Mg3 Se31 2.835021 1_555
Mg3 Se6 2.850451 1_555
Mg3 Se27 2.864711 1_555
Mg3 Se14 3.040918 1_555
Mg4 Se16 2.682204 1_555
Mg4 Se12 2.702324 1_555
Mg4 Se1 2.809001 1_465
Mg4 Se30 2.835144 1_555
Mg4 Se26 2.844194 1_565
Mg4 Se9 2.932978 1_455
Mg5 Se17 2.682204 1_555
Mg5 Se13 2.702324 1_555
Mg5 Se0 2.809001 1_645
Mg5 Se31 2.835144 1_555
Mg5 Se27 2.844194 1_545
Mg5 Se8 2.932978 1_655
Mg6 Se18 2.682204 1_555
Mg6 Se14 2.702324 1_555
Mg6 Se3 2.809001 1_565
Mg6 Se28 2.835144 1_555
Mg6 Se24 2.844194 1_565
Mg6 Se11 2.932978 1_555
Mg7 Se19 2.682204 1_555
Mg7 Se15 2.702324 1_555
Mg7 Se2 2.809001 1_545
Mg7 Se29 2.835144 1_555
Mg7 Se25 2.844194 1_545
Mg7 Se10 2.932978 1_555
