# generated using pymatgen
data_NdAs2
_symmetry_space_group_name_H-M   'P 1'
_cell_length_a   4.14995232
_cell_length_b   6.89640693
_cell_length_c   10.18717065
_cell_angle_alpha   90.00000000
_cell_angle_beta   96.50024316
_cell_angle_gamma   90.00000000
_symmetry_Int_Tables_number   1
_chemical_formula_structural   NdAs2
_chemical_formula_sum   'Nd4 As8'
_cell_volume   289.68008471
_cell_formula_units_Z   4
loop_
 _symmetry_equiv_pos_site_id
 _symmetry_equiv_pos_as_xyz
  1  'x, y, z'
loop_
 _atom_site_type_symbol
 _atom_site_label
 _atom_site_symmetry_multiplicity
 _atom_site_fract_x
 _atom_site_fract_y
 _atom_site_fract_z
 _atom_site_occupancy
  Nd  Nd0  1  0.27057229  0.81080639  0.35886462  1
  Nd  Nd1  1  0.22942771  0.31080639  0.14113538  1
  Nd  Nd2  1  0.72942771  0.18919361  0.64113538  1
  Nd  Nd3  1  0.77057229  0.68919361  0.85886462  1
  As  As0  1  0.32631171  0.87737011  0.04894765  1
  As  As1  1  0.17368829  0.37737011  0.45105235  1
  As  As2  1  0.67368829  0.12262989  0.95105235  1
  As  As3  1  0.82631171  0.62262989  0.54894765  1
  As  As4  1  0.29461803  0.35526744  0.83064769  1
  As  As5  1  0.20538197  0.85526744  0.66935231  1
  As  As6  1  0.70538197  0.64473256  0.16935231  1
  As  As7  1  0.79461803  0.14473256  0.33064769  1
loop_
_geom_bond_atom_site_label_1
_geom_bond_atom_site_label_2
_geom_bond_distance
_geom_bond_site_symmetry_2
As0 As6 2.473120 1_555
As0 As2 2.501828 1_564
As0 Nd3 3.105030 1_554
As0 Nd3 3.121160 1_454
As0 Nd1 3.172405 1_565
As0 Nd0 3.224493 1_555
As1 As7 2.473120 1_455
As1 As3 2.501828 1_455
As1 Nd2 3.105030 1_455
As1 Nd2 3.121160 1_555
As1 Nd0 3.172405 1_555
As1 Nd1 3.224493 1_555
As2 As4 2.473120 1_555
As2 Nd1 3.105030 1_556
As2 Nd1 3.121160 1_656
As2 Nd3 3.172405 1_545
As2 Nd2 3.224493 1_555
As3 As5 2.473120 1_655
As3 Nd0 3.105030 1_655
As3 Nd0 3.121160 1_555
As3 Nd2 3.172405 1_555
As3 Nd3 3.224493 1_555
As4 Nd2 3.013915 1_555
As4 Nd3 3.026342 1_555
As4 Nd2 3.084657 1_455
As4 Nd3 3.202667 1_455
As4 Nd1 3.219544 1_556
As5 Nd3 3.013915 1_455
As5 Nd2 3.026342 1_465
As5 Nd3 3.084657 1_555
As5 Nd2 3.202667 1_565
As5 Nd0 3.219544 1_555
As6 Nd0 3.013915 1_555
As6 Nd1 3.026342 1_555
As6 Nd0 3.084657 1_655
As6 Nd1 3.202667 1_655
As6 Nd3 3.219544 1_554
As7 Nd1 3.013915 1_655
As7 Nd0 3.026342 1_645
As7 Nd1 3.084657 1_555
As7 Nd0 3.202667 1_545
As7 Nd2 3.219544 1_555
