# generated using pymatgen
data_Sm2ZrSe5
_symmetry_space_group_name_H-M   'P 1'
_cell_length_a   7.69379404
_cell_length_b   8.21263143
_cell_length_c   12.23235526
_cell_angle_alpha   90.00000000
_cell_angle_beta   90.00000000
_cell_angle_gamma   90.00000000
_symmetry_Int_Tables_number   1
_chemical_formula_structural   Sm2ZrSe5
_chemical_formula_sum   'Sm8 Zr4 Se20'
_cell_volume   772.91720493
_cell_formula_units_Z   4
loop_
 _symmetry_equiv_pos_site_id
 _symmetry_equiv_pos_as_xyz
  1  'x, y, z'
loop_
 _atom_site_type_symbol
 _atom_site_label
 _atom_site_symmetry_multiplicity
 _atom_site_fract_x
 _atom_site_fract_y
 _atom_site_fract_z
 _atom_site_occupancy
  Sm  Sm0  1  0.97548553  0.00329001  0.17890814  1
  Sm  Sm1  1  0.52451447  0.49670999  0.67890814  1
  Sm  Sm2  1  0.02451447  0.50329001  0.82109186  1
  Sm  Sm3  1  0.47548553  0.99670999  0.32109186  1
  Sm  Sm4  1  0.02451447  0.99670999  0.82109186  1
  Sm  Sm5  1  0.47548553  0.50329001  0.32109186  1
  Sm  Sm6  1  0.97548553  0.49670999  0.17890814  1
  Sm  Sm7  1  0.52451447  0.00329001  0.67890814  1
  Zr  Zr0  1  0.42115046  0.75000000  0.00623241  1
  Zr  Zr1  1  0.07884954  0.75000000  0.50623241  1
  Zr  Zr2  1  0.57884954  0.25000000  0.99376759  1
  Zr  Zr3  1  0.92115046  0.25000000  0.49376759  1
  Se  Se0  1  0.83897848  0.96255988  0.40832296  1
  Se  Se1  1  0.66102152  0.53744012  0.90832296  1
  Se  Se2  1  0.16102152  0.46255988  0.59167704  1
  Se  Se3  1  0.33897848  0.03744012  0.09167704  1
  Se  Se4  1  0.16102152  0.03744012  0.59167704  1
  Se  Se5  1  0.33897848  0.46255988  0.09167704  1
  Se  Se6  1  0.83897848  0.53744012  0.40832296  1
  Se  Se7  1  0.66102152  0.96255988  0.90832296  1
  Se  Se8  1  0.66633879  0.75000000  0.18043420  1
  Se  Se9  1  0.83366121  0.75000000  0.68043420  1
  Se  Se10  1  0.33366121  0.25000000  0.81956580  1
  Se  Se11  1  0.16633879  0.25000000  0.31956580  1
  Se  Se12  1  0.44778331  0.75000000  0.50393381  1
  Se  Se13  1  0.05221669  0.75000000  0.00393381  1
  Se  Se14  1  0.55221669  0.25000000  0.49606619  1
  Se  Se15  1  0.94778331  0.25000000  0.99606619  1
  Se  Se16  1  0.18807141  0.75000000  0.29278223  1
  Se  Se17  1  0.31192859  0.75000000  0.79278223  1
  Se  Se18  1  0.81192859  0.25000000  0.70721777  1
  Se  Se19  1  0.68807141  0.25000000  0.20721777  1
loop_
_geom_bond_atom_site_label_1
_geom_bond_atom_site_label_2
_geom_bond_distance
_geom_bond_site_symmetry_2
Se0 Zr3 2.657957 1_565
Se0 Zr1 2.808509 1_655
Se0 Sm3 3.006399 1_555
Se0 Sm0 3.014989 1_565
Se1 Zr2 2.657957 1_555
Se1 Zr0 2.808509 1_556
Se1 Sm2 3.006399 1_655
Se1 Sm1 3.014989 1_555
Se2 Zr1 2.657957 1_555
Se2 Zr3 2.808509 1_455
Se2 Sm1 3.006399 1_555
Se2 Sm2 3.014989 1_555
Se3 Zr0 2.657957 1_545
Se3 Zr2 2.808509 1_554
Se3 Sm0 3.006399 1_455
Se3 Sm3 3.014989 1_545
Se4 Zr1 2.657957 1_545
Se4 Zr3 2.808509 1_455
Se4 Sm7 3.006399 1_555
Se4 Sm4 3.014989 1_545
Se5 Zr0 2.657957 1_555
Se5 Zr2 2.808509 1_554
Se5 Sm6 3.006399 1_455
Se5 Sm5 3.014989 1_555
Se6 Zr3 2.657957 1_555
Se6 Zr1 2.808509 1_655
Se6 Sm5 3.006399 1_555
Se6 Sm6 3.014989 1_555
Se7 Zr2 2.657957 1_565
Se7 Zr0 2.808509 1_556
Se7 Sm4 3.006399 1_655
Se7 Sm7 3.014989 1_565
Se8 Zr0 2.845934 1_555
Se8 Sm5 3.036737 1_555
Se8 Sm3 3.036737 1_555
Se8 Sm6 3.159874 1_555
Se8 Sm0 3.159874 1_565
Se9 Zr1 2.845934 1_655
Se9 Sm2 3.036737 1_655
Se9 Sm4 3.036737 1_655
Se9 Sm7 3.159874 1_565
Se9 Sm1 3.159874 1_555
Se10 Zr2 2.845934 1_555
Se10 Sm7 3.036737 1_555
Se10 Sm1 3.036737 1_555
Se10 Sm4 3.159874 1_545
Se10 Sm2 3.159874 1_555
Se11 Zr3 2.845934 1_455
Se11 Sm0 3.036737 1_455
Se11 Sm6 3.036737 1_455
Se11 Sm3 3.159874 1_545
Se11 Sm5 3.159874 1_555
Se12 Zr1 2.838640 1_555
Se12 Sm5 3.025390 1_555
Se12 Sm3 3.025390 1_555
Se12 Sm7 3.042490 1_565
Se12 Sm1 3.042490 1_555
Se13 Zr0 2.838640 1_555
Se13 Sm2 3.025390 1_554
Se13 Sm4 3.025390 1_554
Se13 Sm0 3.042490 1_465
Se13 Sm6 3.042490 1_455
Se14 Zr3 2.838640 1_555
Se14 Sm1 3.025390 1_555
Se14 Sm7 3.025390 1_555
Se14 Sm3 3.042490 1_545
Se14 Sm5 3.042490 1_555
Se15 Zr2 2.838640 1_555
Se15 Sm6 3.025390 1_556
Se15 Sm0 3.025390 1_556
Se15 Sm4 3.042490 1_645
Se15 Sm2 3.042490 1_655
Se16 Zr1 2.742894 1_555
Se16 Sm0 2.990419 1_465
Se16 Sm6 2.990419 1_455
Se16 Sm5 3.019110 1_555
Se16 Sm3 3.019110 1_555
Se17 Zr0 2.742894 1_556
Se17 Sm7 2.990419 1_565
Se17 Sm1 2.990419 1_555
Se17 Sm2 3.019110 1_555
Se17 Sm4 3.019110 1_555
Se18 Zr3 2.742894 1_555
Se18 Sm4 2.990419 1_645
Se18 Sm2 2.990419 1_655
Se18 Sm1 3.019110 1_555
Se18 Sm7 3.019110 1_555
Se19 Zr2 2.742894 1_554
Se19 Sm3 2.990419 1_545
Se19 Sm5 2.990419 1_555
Se19 Sm6 3.019110 1_555
Se19 Sm0 3.019110 1_555
