# generated using pymatgen
data_Nd2H22C10(N2O7)3
_symmetry_space_group_name_H-M   'P 1'
_cell_length_a   9.18786904
_cell_length_b   9.18786904
_cell_length_c   15.74197702
_cell_angle_alpha   77.25201795
_cell_angle_beta   77.25201795
_cell_angle_gamma   78.60497203
_symmetry_Int_Tables_number   1
_chemical_formula_structural   Nd2H22C10(N2O7)3
_chemical_formula_sum   'Nd4 H44 C20 N12 O42'
_cell_volume   1248.60554256
_cell_formula_units_Z   2
loop_
 _symmetry_equiv_pos_site_id
 _symmetry_equiv_pos_as_xyz
  1  'x, y, z'
loop_
 _atom_site_type_symbol
 _atom_site_label
 _atom_site_symmetry_multiplicity
 _atom_site_fract_x
 _atom_site_fract_y
 _atom_site_fract_z
 _atom_site_occupancy
  Nd  Nd0  1  0.03152300  0.32049900  0.83911000  1
  Nd  Nd1  1  0.67950100  0.96847700  0.66089000  1
  Nd  Nd2  1  0.96847700  0.67950100  0.16089000  1
  Nd  Nd3  1  0.32049900  0.03152300  0.33911000  1
  H  H0  1  0.11768300  0.04603000  0.00058400  1
  H  H1  1  0.95397000  0.88231700  0.49941600  1
  H  H2  1  0.88231700  0.95397000  0.99941600  1
  H  H3  1  0.04603000  0.11768300  0.50058400  1
  H  H4  1  0.00628300  0.17518700  0.04558800  1
  H  H5  1  0.82481300  0.99371700  0.45441200  1
  H  H6  1  0.99371700  0.82481300  0.95441200  1
  H  H7  1  0.17518700  0.00628300  0.54558800  1
  H  H8  1  0.82626000  0.27179700  0.16663700  1
  H  H9  1  0.72820300  0.17374000  0.33336300  1
  H  H10  1  0.17374000  0.72820300  0.83336300  1
  H  H11  1  0.27179700  0.82626000  0.66663700  1
  H  H12  1  0.86748500  0.09841000  0.16584600  1
  H  H13  1  0.90159000  0.13251500  0.33415400  1
  H  H14  1  0.13251500  0.90159000  0.83415400  1
  H  H15  1  0.09841000  0.86748500  0.66584600  1
  H  H16  1  0.65030300  0.45882900  0.25474400  1
  H  H17  1  0.54117100  0.34969700  0.24525600  1
  H  H18  1  0.34969700  0.54117100  0.74525600  1
  H  H19  1  0.45882900  0.65030300  0.75474400  1
  H  H20  1  0.28090500  0.22780000  0.00747600  1
  H  H21  1  0.77220000  0.71909500  0.49252400  1
  H  H22  1  0.71909500  0.77220000  0.99252400  1
  H  H23  1  0.22780000  0.28090500  0.50747600  1
  H  H24  1  0.35762200  0.13038300  0.09858200  1
  H  H25  1  0.86961700  0.64237800  0.40141800  1
  H  H26  1  0.64237800  0.86961700  0.90141800  1
  H  H27  1  0.13038300  0.35762200  0.59858200  1
  H  H28  1  0.59573700  0.40710600  0.89343400  1
  H  H29  1  0.59289400  0.40426300  0.60656600  1
  H  H30  1  0.40426300  0.59289400  0.10656600  1
  H  H31  1  0.40710600  0.59573700  0.39343400  1
  H  H32  1  0.40622300  0.39154500  0.89793600  1
  H  H33  1  0.60845500  0.59377700  0.60206400  1
  H  H34  1  0.59377700  0.60845500  0.10206400  1
  H  H35  1  0.39154500  0.40622300  0.39793600  1
  H  H36  1  0.59384100  0.18674000  0.11256700  1
  H  H37  1  0.81326000  0.40615900  0.38743300  1
  H  H38  1  0.40615900  0.81326000  0.88743300  1
  H  H39  1  0.18674000  0.59384100  0.61256700  1
  H  H40  1  0.69304900  0.30756200  0.02558800  1
  H  H41  1  0.69243800  0.30695100  0.47441200  1
  H  H42  1  0.30695100  0.69243800  0.97441200  1
  H  H43  1  0.30756200  0.69304900  0.52558800  1
  C  C0  1  0.92563500  0.65927600  0.72215900  1
  C  C1  1  0.34072400  0.07436500  0.77784100  1
  C  C2  1  0.07436500  0.34072400  0.27784100  1
  C  C3  1  0.65927600  0.92563500  0.22215900  1
  C  C4  1  0.77069900  0.60598200  0.76293300  1
  C  C5  1  0.39401800  0.22930100  0.73706700  1
  C  C6  1  0.22930100  0.39401800  0.23706700  1
  C  C7  1  0.60598200  0.77069900  0.26293300  1
  C  C8  1  0.08495000  0.50868600  0.98576000  1
  C  C9  1  0.49131400  0.91505000  0.51424000  1
  C  C10  1  0.91505000  0.49131400  0.01424000  1
  C  C11  1  0.50868600  0.08495000  0.48576000  1
  C  C12  1  0.82628500  0.09852900  0.79728200  1
  C  C13  1  0.90147100  0.17371500  0.70271800  1
  C  C14  1  0.17371500  0.90147100  0.20271800  1
  C  C15  1  0.09852900  0.82628500  0.29728200  1
  C  C16  1  0.49214700  0.27181600  0.00532000  1
  C  C17  1  0.72818400  0.50785300  0.49468000  1
  C  C18  1  0.50785300  0.72818400  0.99468000  1
  C  C19  1  0.27181600  0.49214700  0.50532000  1
  N  N0  1  0.36879800  0.20648500  0.04034400  1
  N  N1  1  0.79351500  0.63120200  0.45965600  1
  N  N2  1  0.63120200  0.79351500  0.95965600  1
  N  N3  1  0.20648500  0.36879800  0.54034400  1
  N  N4  1  0.49982700  0.36355000  0.92613100  1
  N  N5  1  0.63645000  0.50017300  0.57386900  1
  N  N6  1  0.50017300  0.63645000  0.07386900  1
  N  N7  1  0.36355000  0.49982700  0.42613100  1
  N  N8  1  0.60698300  0.24491500  0.04898500  1
  N  N9  1  0.75508500  0.39301800  0.45101500  1
  N  N10  1  0.39301800  0.75508500  0.95101500  1
  N  N11  1  0.24491500  0.60698300  0.54898500  1
  O  O0  1  0.04336300  0.56432000  0.73275200  1
  O  O1  1  0.43568000  0.95663700  0.76724800  1
  O  O2  1  0.95663700  0.43568000  0.26724800  1
  O  O3  1  0.56432000  0.04336300  0.23275200  1
  O  O4  1  0.92329200  0.79352100  0.67946200  1
  O  O5  1  0.20647900  0.07670800  0.82053800  1
  O  O6  1  0.07670800  0.20647900  0.32053800  1
  O  O7  1  0.79352100  0.92329200  0.17946200  1
  O  O8  1  0.65456100  0.69962600  0.74543700  1
  O  O9  1  0.30037400  0.34543900  0.75456300  1
  O  O10  1  0.34543900  0.30037400  0.25456300  1
  O  O11  1  0.69962600  0.65456100  0.24543700  1
  O  O12  1  0.77321900  0.47445100  0.80864200  1
  O  O13  1  0.52554900  0.22678100  0.69135800  1
  O  O14  1  0.22678100  0.52554900  0.19135800  1
  O  O15  1  0.47445100  0.77321900  0.30864200  1
  O  O16  1  0.13582700  0.57842600  0.03089000  1
  O  O17  1  0.42157400  0.86417300  0.46911000  1
  O  O18  1  0.86417300  0.42157400  0.96911000  1
  O  O19  1  0.57842600  0.13582700  0.53089000  1
  O  O20  1  0.15908900  0.45160500  0.91968800  1
  O  O21  1  0.54839500  0.84091100  0.58031200  1
  O  O22  1  0.84091100  0.54839500  0.08031200  1
  O  O23  1  0.45160500  0.15908900  0.41968800  1
  O  O24  1  0.86183800  0.13247900  0.86292500  1
  O  O25  1  0.86752100  0.13816200  0.63707500  1
  O  O26  1  0.13816200  0.86752100  0.13707500  1
  O  O27  1  0.13247900  0.86183800  0.36292500  1
  O  O28  1  0.73601000  0.00839100  0.80066700  1
  O  O29  1  0.99160900  0.26399000  0.69933300  1
  O  O30  1  0.26399000  0.99160900  0.19933300  1
  O  O31  1  0.00839100  0.73601000  0.30066700  1
  O  O32  1  0.07512400  0.15281100  0.98851800  1
  O  O33  1  0.84718900  0.92487600  0.51148200  1
  O  O34  1  0.92487600  0.84718900  0.01148200  1
  O  O35  1  0.15281100  0.07512400  0.48851800  1
  O  O36  1  0.90752300  0.19464400  0.14449200  1
  O  O37  1  0.80535600  0.09247700  0.35550800  1
  O  O38  1  0.09247700  0.80535600  0.85550800  1
  O  O39  1  0.19464400  0.90752300  0.64449200  1
  O  O40  1  0.64543300  0.35456700  0.25000000  1
  O  O41  1  0.35456700  0.64543300  0.75000000  1
loop_
_geom_bond_atom_site_label_1
_geom_bond_atom_site_label_2
_geom_bond_distance
_geom_bond_site_symmetry_2
Nd0 O24 2.464932 1_455
Nd0 O29 2.486202 1_455
Nd0 O0 2.488807 1_555
Nd0 O18 2.510060 1_455
Nd0 O20 2.514372 1_555
Nd0 O5 2.519032 1_555
Nd0 O9 2.561987 1_555
Nd0 O32 2.576573 1_555
Nd0 O12 2.596087 1_455
Nd1 O25 2.464932 1_565
Nd1 O28 2.486202 1_565
Nd1 O1 2.488807 1_555
Nd1 O19 2.510060 1_565
Nd1 O21 2.514372 1_555
Nd1 O4 2.519032 1_555
Nd1 O8 2.561987 1_555
Nd1 O33 2.576573 1_555
Nd1 O13 2.596087 1_565
Nd2 O26 2.464932 1_655
Nd2 O31 2.486202 1_655
Nd2 O2 2.488807 1_555
Nd2 O16 2.510060 1_655
Nd2 O22 2.514372 1_555
Nd2 O7 2.519032 1_555
Nd2 O11 2.561987 1_555
Nd2 O34 2.576573 1_555
Nd2 O14 2.596087 1_655
Nd3 O27 2.464932 1_545
Nd3 O30 2.486202 1_545
Nd3 O3 2.488807 1_555
Nd3 O17 2.510060 1_545
Nd3 O23 2.514372 1_555
Nd3 O6 2.519032 1_555
Nd3 O10 2.561987 1_555
Nd3 O35 2.576573 1_555
Nd3 O15 2.596087 1_545
H0 O32 0.974917 1_554
H1 O33 0.974917 1_555
H2 O34 0.974917 1_556
H3 O35 0.974917 1_555
H4 O32 1.014293 1_554
H5 O33 1.014293 1_555
H6 O34 1.014293 1_556
H7 O35 1.014293 1_555
H8 O36 0.983128 1_555
H9 O37 0.983128 1_555
H10 O38 0.983128 1_555
H11 O39 0.983128 1_555
H12 O36 0.986350 1_555
H13 O37 0.986350 1_555
H14 O38 0.986350 1_555
H15 O39 0.986350 1_555
H16 O40 0.987534 1_555
H17 O40 0.987534 1_555
H18 O41 0.987534 1_555
H19 O41 0.987534 1_555
H20 N0 1.017540 1_555
H21 N1 1.017540 1_555
H22 N2 1.017540 1_555
H23 N3 1.017540 1_555
H24 N0 1.021693 1_555
H25 N1 1.021693 1_555
H26 N2 1.021693 1_555
H27 N3 1.021693 1_555
H28 N4 1.024636 1_555
H29 N5 1.024636 1_555
H30 N6 1.024636 1_555
H31 N7 1.024636 1_555
H32 N4 1.016594 1_555
H33 N5 1.016594 1_555
H34 N6 1.016594 1_555
H35 N7 1.016594 1_555
H36 N8 1.018896 1_555
H37 N9 1.018896 1_555
H38 N10 1.018896 1_555
H39 N11 1.018896 1_555
H40 N8 1.024707 1_555
H41 N9 1.024715 1_555
H42 N10 1.024715 1_555
H43 N11 1.024707 1_555
C0 O0 1.265494 1_655
C0 O4 1.266329 1_555
C1 O1 1.265494 1_545
C1 O5 1.266329 1_555
C2 O2 1.265494 1_455
C2 O6 1.266329 1_555
C3 O3 1.265494 1_565
C3 O7 1.266329 1_555
C4 O12 1.261455 1_555
C4 O8 1.271648 1_555
C5 O13 1.261455 1_555
C5 O9 1.271648 1_555
C6 O14 1.261455 1_555
C6 O10 1.271648 1_555
C7 O15 1.261455 1_555
C7 O11 1.271648 1_555
C8 O16 1.264762 1_556
C8 O20 1.267977 1_555
C9 O17 1.264762 1_555
C9 O21 1.267977 1_555
C10 O18 1.264762 1_554
C10 O22 1.267977 1_555
C11 O19 1.264762 1_555
C11 O23 1.267977 1_555
C12 O24 1.266216 1_555
C12 O28 1.268514 1_555
C13 O25 1.266216 1_555
C13 O29 1.268514 1_555
C14 O26 1.266216 1_555
C14 O30 1.268514 1_555
C15 O27 1.266216 1_555
C15 O31 1.268514 1_555
C16 N8 1.337479 1_555
C16 N4 1.338035 1_554
C16 N0 1.340029 1_555
C17 N9 1.337471 1_555
C17 N5 1.338035 1_555
C17 N1 1.340029 1_555
C18 N10 1.337471 1_555
C18 N6 1.338035 1_556
C18 N2 1.340029 1_555
C19 N11 1.337479 1_555
C19 N7 1.338035 1_555
C19 N3 1.340029 1_555
