# generated using pymatgen
data_Nd23Mg4Ir7
_symmetry_space_group_name_H-M   'P 1'
_cell_length_a   10.09507082
_cell_length_b   10.09507082
_cell_length_c   22.70210515
_cell_angle_alpha   90.00000000
_cell_angle_beta   90.00000000
_cell_angle_gamma   119.99999938
_symmetry_Int_Tables_number   1
_chemical_formula_structural   Nd23Mg4Ir7
_chemical_formula_sum   'Nd46 Mg8 Ir14'
_cell_volume   2003.62068089
_cell_formula_units_Z   2
loop_
 _symmetry_equiv_pos_site_id
 _symmetry_equiv_pos_as_xyz
  1  'x, y, z'
loop_
 _atom_site_type_symbol
 _atom_site_label
 _atom_site_symmetry_multiplicity
 _atom_site_fract_x
 _atom_site_fract_y
 _atom_site_fract_z
 _atom_site_occupancy
  Nd  Nd0  1  0.20744174  0.41488348  0.71918537  1
  Nd  Nd1  1  0.20744174  0.79255826  0.71918537  1
  Nd  Nd2  1  0.79255826  0.58511652  0.21918537  1
  Nd  Nd3  1  0.58511652  0.79255826  0.71918537  1
  Nd  Nd4  1  0.79255826  0.20744174  0.21918537  1
  Nd  Nd5  1  0.41488348  0.20744174  0.21918537  1
  Nd  Nd6  1  0.79265130  0.58530261  0.94810818  1
  Nd  Nd7  1  0.79265130  0.20734870  0.94810818  1
  Nd  Nd8  1  0.20734870  0.41469739  0.44810818  1
  Nd  Nd9  1  0.41469739  0.20734870  0.94810818  1
  Nd  Nd10  1  0.20734870  0.79265130  0.44810818  1
  Nd  Nd11  1  0.58530261  0.79265130  0.44810818  1
  Nd  Nd12  1  0.20939673  0.41879345  0.99089367  1
  Nd  Nd13  1  0.20939673  0.79060327  0.99089367  1
  Nd  Nd14  1  0.79060327  0.58120655  0.49089367  1
  Nd  Nd15  1  0.58120655  0.79060327  0.99089367  1
  Nd  Nd16  1  0.79060327  0.20939673  0.49089367  1
  Nd  Nd17  1  0.41879345  0.20939673  0.49089367  1
  Nd  Nd18  1  0.87145692  0.74291384  0.63494117  1
  Nd  Nd19  1  0.87145692  0.12854308  0.63494117  1
  Nd  Nd20  1  0.12854308  0.25708616  0.13494117  1
  Nd  Nd21  1  0.25708616  0.12854308  0.63494117  1
  Nd  Nd22  1  0.12854308  0.87145692  0.13494117  1
  Nd  Nd23  1  0.74291384  0.87145692  0.13494117  1
  Nd  Nd24  1  0.45940382  0.91880763  0.85609323  1
  Nd  Nd25  1  0.45940382  0.54059618  0.85609323  1
  Nd  Nd26  1  0.54059618  0.08119237  0.35609323  1
  Nd  Nd27  1  0.08119237  0.54059618  0.85609323  1
  Nd  Nd28  1  0.54059618  0.45940382  0.35609323  1
  Nd  Nd29  1  0.91880763  0.45940382  0.35609323  1
  Nd  Nd30  1  0.00000000  -0.00000000  0.00030720  1
  Nd  Nd31  1  0.00000000  -0.00000000  0.50030720  1
  Nd  Nd32  1  0.46052442  0.92104885  0.58554398  1
  Nd  Nd33  1  0.46052442  0.53947558  0.58554398  1
  Nd  Nd34  1  0.53947558  0.07895115  0.08554398  1
  Nd  Nd35  1  0.07895115  0.53947558  0.58554398  1
  Nd  Nd36  1  0.53947558  0.46052442  0.08554398  1
  Nd  Nd37  1  0.92104885  0.46052442  0.08554398  1
  Nd  Nd38  1  0.79452941  0.58905883  0.78152802  1
  Nd  Nd39  1  0.79452941  0.20547059  0.78152802  1
  Nd  Nd40  1  0.20547059  0.41094117  0.28152802  1
  Nd  Nd41  1  0.41094117  0.20547059  0.78152802  1
  Nd  Nd42  1  0.20547059  0.79452941  0.28152802  1
  Nd  Nd43  1  0.58905883  0.79452941  0.28152802  1
  Nd  Nd44  1  0.66666700  0.33333300  0.64547374  1
  Nd  Nd45  1  0.33333300  0.66666700  0.14547374  1
  Mg  Mg0  1  0.00000000  -0.00000000  0.75040269  1
  Mg  Mg1  1  0.00000000  -0.00000000  0.25040269  1
  Mg  Mg2  1  0.10571438  0.21142875  0.86289225  1
  Mg  Mg3  1  0.10571438  0.89428562  0.86289225  1
  Mg  Mg4  1  0.89428562  0.78857125  0.36289225  1
  Mg  Mg5  1  0.78857125  0.89428562  0.86289225  1
  Mg  Mg6  1  0.89428562  0.10571438  0.36289225  1
  Mg  Mg7  1  0.21142875  0.10571438  0.36289225  1
  Ir  Ir0  1  0.52046659  0.04093317  0.70948907  1
  Ir  Ir1  1  0.52046659  0.47953341  0.70948907  1
  Ir  Ir2  1  0.47953341  0.95906683  0.20948907  1
  Ir  Ir3  1  0.95906683  0.47953341  0.70948907  1
  Ir  Ir4  1  0.47953341  0.52046659  0.20948907  1
  Ir  Ir5  1  0.04093317  0.52046659  0.20948907  1
  Ir  Ir6  1  0.66666700  0.33333300  0.86452756  1
  Ir  Ir7  1  0.33333300  0.66666700  0.36452756  1
  Ir  Ir8  1  0.14460327  0.28920655  0.56332799  1
  Ir  Ir9  1  0.14460327  0.85539673  0.56332799  1
  Ir  Ir10  1  0.85539673  0.71079345  0.06332799  1
  Ir  Ir11  1  0.71079345  0.85539673  0.56332799  1
  Ir  Ir12  1  0.85539673  0.14460327  0.06332799  1
  Ir  Ir13  1  0.28920655  0.14460327  0.06332799  1
loop_
_geom_bond_atom_site_label_1
_geom_bond_atom_site_label_2
_geom_bond_distance
_geom_bond_site_symmetry_2
Mg0 Mg2 3.152515 1_555
Mg0 Mg5 3.152515 1_445
Mg0 Mg3 3.152515 1_545
Mg0 Nd19 3.452896 1_455
Mg0 Nd18 3.452896 1_445
Mg0 Nd21 3.452896 1_555
Mg0 Nd38 3.661518 1_445
Mg0 Nd41 3.661518 1_555
Mg0 Nd39 3.661518 1_455
Mg0 Nd1 3.695742 1_545
Mg0 Nd3 3.695742 1_445
Mg0 Nd0 3.695742 1_555
Mg1 Mg7 3.152515 1_555
Mg1 Mg4 3.152515 1_445
Mg1 Mg6 3.152515 1_455
Mg1 Nd22 3.452896 1_545
Mg1 Nd23 3.452896 1_445
Mg1 Nd20 3.452896 1_555
Mg1 Nd43 3.661518 1_445
Mg1 Nd40 3.661518 1_555
Mg1 Nd42 3.661518 1_545
Mg1 Nd4 3.695742 1_455
Mg1 Nd2 3.695742 1_445
Mg1 Nd5 3.695742 1_555
Mg2 Mg3 3.201582 1_545
Mg2 Mg5 3.201582 1_445
Mg2 Nd12 3.425038 1_555
Mg2 Nd27 3.456853 1_555
Mg2 Nd25 3.456853 1_555
Mg2 Nd41 3.618729 1_555
Mg2 Nd39 3.618729 1_455
Mg2 Nd30 3.626109 1_556
Mg2 Nd9 3.688118 1_555
Mg2 Nd7 3.688119 1_455
Mg2 Nd0 3.715834 1_555
Mg3 Mg5 3.201582 1_455
Mg3 Nd13 3.425038 1_555
Mg3 Nd27 3.456853 1_555
Mg3 Nd24 3.456853 1_555
Mg3 Nd38 3.618729 1_455
Mg3 Nd41 3.618729 1_565
Mg3 Nd30 3.626109 1_566
Mg3 Nd6 3.688119 1_455
Mg3 Nd9 3.688119 1_565
Mg3 Nd1 3.715834 1_555
Mg4 Mg6 3.201582 1_565
Mg4 Mg7 3.201582 1_665
Mg4 Nd14 3.425038 1_555
Mg4 Nd29 3.456853 1_555
Mg4 Nd28 3.456853 1_555
Mg4 Nd43 3.618729 1_555
Mg4 Nd42 3.618729 1_655
Mg4 Nd31 3.626109 1_665
Mg4 Nd11 3.688118 1_555
Mg4 Nd10 3.688119 1_655
Mg4 Nd2 3.715834 1_555
Mg5 Nd15 3.425038 1_555
Mg5 Nd24 3.456853 1_555
Mg5 Nd25 3.456853 1_555
Mg5 Nd38 3.618729 1_555
Mg5 Nd39 3.618729 1_565
Mg5 Nd30 3.626109 1_666
Mg5 Nd6 3.688118 1_555
Mg5 Nd7 3.688119 1_565
Mg5 Nd3 3.715834 1_555
Mg6 Mg7 3.201582 1_655
Mg6 Nd16 3.425038 1_555
Mg6 Nd26 3.456853 1_555
Mg6 Nd29 3.456853 1_555
Mg6 Nd43 3.618729 1_545
Mg6 Nd40 3.618729 1_655
Mg6 Nd31 3.626109 1_655
Mg6 Nd11 3.688119 1_545
Mg6 Nd8 3.688119 1_655
Mg6 Nd4 3.715834 1_555
Mg7 Nd17 3.425038 1_555
Mg7 Nd26 3.456853 1_555
Mg7 Nd28 3.456853 1_555
Mg7 Nd40 3.618729 1_555
Mg7 Nd42 3.618729 1_545
Mg7 Nd31 3.626109 1_555
Mg7 Nd8 3.688118 1_555
Mg7 Nd10 3.688119 1_545
Mg7 Nd5 3.715834 1_555
Ir0 Nd3 2.897876 1_545
Ir0 Nd1 2.897876 1_545
Ir0 Nd39 2.914216 1_555
Ir0 Nd41 2.914217 1_555
Ir0 Nd44 2.940554 1_555
Ir0 Nd32 3.002676 1_545
Ir0 Nd24 3.495288 1_545
Ir0 Nd19 3.614889 1_555
Ir0 Nd21 3.614889 1_555
Ir1 Nd3 2.897876 1_555
Ir1 Nd0 2.897876 1_555
Ir1 Nd41 2.914216 1_555
Ir1 Nd38 2.914216 1_555
Ir1 Nd44 2.940562 1_555
Ir1 Nd33 3.002676 1_555
Ir1 Nd25 3.495288 1_555
Ir1 Nd21 3.614889 1_555
Ir1 Nd18 3.614889 1_555
Ir2 Nd5 2.897876 1_565
Ir2 Nd4 2.897876 1_565
Ir2 Nd42 2.914216 1_555
Ir2 Nd43 2.914217 1_555
Ir2 Nd45 2.940554 1_555
Ir2 Nd34 3.002676 1_565
Ir2 Nd26 3.495288 1_565
Ir2 Nd22 3.614889 1_555
Ir2 Nd23 3.614889 1_555
Ir3 Nd0 2.897876 1_655
Ir3 Nd1 2.897876 1_655
Ir3 Nd39 2.914216 1_555
Ir3 Nd38 2.914217 1_555
Ir3 Nd44 2.940554 1_555
Ir3 Nd35 3.002676 1_655
Ir3 Nd27 3.495288 1_655
Ir3 Nd19 3.614889 1_555
Ir3 Nd18 3.614889 1_555
Ir4 Nd5 2.897876 1_555
Ir4 Nd2 2.897876 1_555
Ir4 Nd43 2.914216 1_555
Ir4 Nd40 2.914216 1_555
Ir4 Nd45 2.940562 1_555
Ir4 Nd36 3.002676 1_555
Ir4 Nd28 3.495288 1_555
Ir4 Nd20 3.614889 1_555
Ir4 Nd23 3.614889 1_555
Ir5 Nd2 2.897876 1_455
Ir5 Nd4 2.897876 1_455
Ir5 Nd42 2.914216 1_555
Ir5 Nd40 2.914217 1_555
Ir5 Nd45 2.940554 1_555
Ir5 Nd37 3.002676 1_455
Ir5 Nd29 3.495288 1_455
Ir5 Nd22 3.614889 1_555
Ir5 Nd20 3.614889 1_555
Ir6 Nd7 2.907391 1_555
Ir6 Nd6 2.907397 1_555
Ir6 Nd9 2.907397 1_555
Ir6 Nd39 2.923832 1_555
Ir6 Nd41 2.923838 1_555
Ir6 Nd38 2.923838 1_555
Ir6 Nd27 3.629079 1_655
Ir6 Nd24 3.629079 1_545
Ir6 Nd25 3.629088 1_555
Ir7 Nd10 2.907391 1_555
Ir7 Nd11 2.907397 1_555
Ir7 Nd8 2.907397 1_555
Ir7 Nd42 2.923832 1_555
Ir7 Nd43 2.923838 1_555
Ir7 Nd40 2.923838 1_555
Ir7 Nd26 3.629079 1_565
Ir7 Nd29 3.629079 1_455
Ir7 Nd28 3.629088 1_555
Ir8 Nd8 2.836497 1_555
Ir8 Nd19 2.899111 1_455
Ir8 Nd21 2.899111 1_555
Ir8 Nd31 2.905132 1_555
Ir8 Nd35 2.958243 1_555
Ir8 Nd33 2.958243 1_555
Ir8 Nd17 3.639366 1_555
Ir8 Nd16 3.639366 1_455
Ir9 Nd10 2.836497 1_555
Ir9 Nd21 2.899111 1_565
Ir9 Nd18 2.899111 1_455
Ir9 Nd31 2.905132 1_565
Ir9 Nd32 2.958243 1_555
Ir9 Nd35 2.958243 1_555
Ir9 Nd17 3.639366 1_565
Ir9 Nd14 3.639366 1_455
Ir10 Nd6 2.836497 1_554
Ir10 Nd22 2.899111 1_655
Ir10 Nd23 2.899111 1_555
Ir10 Nd30 2.905132 1_665
Ir10 Nd37 2.958243 1_555
Ir10 Nd36 2.958243 1_555
Ir10 Nd15 3.639366 1_554
Ir10 Nd13 3.639366 1_654
Ir11 Nd11 2.836497 1_555
Ir11 Nd19 2.899111 1_565
Ir11 Nd18 2.899111 1_555
Ir11 Nd31 2.905132 1_665
Ir11 Nd32 2.958243 1_555
Ir11 Nd33 2.958243 1_555
Ir11 Nd14 3.639366 1_555
Ir11 Nd16 3.639366 1_565
Ir12 Nd7 2.836497 1_554
Ir12 Nd20 2.899111 1_655
Ir12 Nd23 2.899111 1_545
Ir12 Nd30 2.905132 1_655
Ir12 Nd37 2.958243 1_555
Ir12 Nd34 2.958243 1_555
Ir12 Nd12 3.639366 1_654
Ir12 Nd15 3.639366 1_544
Ir13 Nd9 2.836497 1_554
Ir13 Nd22 2.899111 1_545
Ir13 Nd20 2.899111 1_555
Ir13 Nd30 2.905132 1_555
Ir13 Nd34 2.958243 1_555
Ir13 Nd36 2.958243 1_555
Ir13 Nd12 3.639366 1_554
Ir13 Nd13 3.639366 1_544
