# generated using pymatgen
data_Mg9Si5
_symmetry_space_group_name_H-M   'P 1'
_cell_length_a   7.17573800
_cell_length_b   7.27071744
_cell_length_c   12.80865313
_cell_angle_alpha   90.49427476
_cell_angle_beta   105.26629510
_cell_angle_gamma   119.02552169
_symmetry_Int_Tables_number   1
_chemical_formula_structural   Mg9Si5
_chemical_formula_sum   'Mg18 Si10'
_cell_volume   556.29552141
_cell_formula_units_Z   2
loop_
 _symmetry_equiv_pos_site_id
 _symmetry_equiv_pos_as_xyz
  1  'x, y, z'
loop_
 _atom_site_type_symbol
 _atom_site_label
 _atom_site_symmetry_multiplicity
 _atom_site_fract_x
 _atom_site_fract_y
 _atom_site_fract_z
 _atom_site_occupancy
  Mg  Mg0  1  0.06565700  0.43425700  0.62341700  1
  Mg  Mg1  1  0.78258200  0.55375000  0.45200100  1
  Mg  Mg2  1  0.57522800  0.69996300  0.61554100  1
  Mg  Mg3  1  0.25794300  0.26939700  0.46648800  1
  Mg  Mg4  1  0.30550100  0.93922400  0.62304300  1
  Mg  Mg5  1  0.56602500  0.04993000  0.45806300  1
  Mg  Mg6  1  0.06214700  0.22331000  0.10803000  1
  Mg  Mg7  1  0.26432100  0.55034700  0.95408200  1
  Mg  Mg8  1  0.58170000  0.43290200  0.10131800  1
  Mg  Mg9  1  0.80144900  0.79664800  0.95713700  1
  Mg  Mg10  1  0.66252000  0.86452100  0.15932400  1
  Mg  Mg11  1  0.54945400  0.06132900  0.95160000  1
  Mg  Mg12  1  0.84388400  0.28668200  0.28819400  1
  Mg  Mg13  1  0.01847300  0.74211600  0.78429200  1
  Mg  Mg14  1  0.40578600  0.58582300  0.30229800  1
  Mg  Mg15  1  0.42605200  0.35071800  0.78382700  1
  Mg  Mg16  1  0.06501700  0.63753800  0.14308800  1
  Mg  Mg17  1  0.81768400  0.13920600  0.78171700  1
  Si  Si0  1  0.07880500  0.87384600  0.31854300  1
  Si  Si1  1  0.83398700  0.93334700  0.39923100  1
  Si  Si2  1  0.98210300  0.02791300  0.61747100  1
  Si  Si3  1  0.18686400  0.12693800  0.92877100  1
  Si  Si4  1  0.41198800  0.20967000  0.28526400  1
  Si  Si5  1  0.42412700  0.74248400  0.78755900  1
  Si  Si6  1  0.34024200  0.01464000  0.10659600  1
  Si  Si7  1  0.84206800  0.45177100  0.93176900  1
  Si  Si8  1  0.65007700  0.35835300  0.62548500  1
  Si  Si9  1  0.19834700  0.64340500  0.44563100  1
loop_
_geom_bond_atom_site_label_1
_geom_bond_atom_site_label_2
_geom_bond_distance
_geom_bond_site_symmetry_2
Mg0 Si2 2.710532 1_455
Mg0 Si5 2.745168 1_555
Mg0 Si8 2.764592 1_455
Mg0 Si9 2.863765 1_555
Mg1 Si1 2.717677 1_555
Mg1 Si9 2.752142 1_655
Mg1 Si8 2.777836 1_555
Mg1 Si4 2.890092 1_555
Mg1 Si0 3.168337 1_655
Mg2 Si2 2.723188 1_565
Mg2 Si5 2.774420 1_555
Mg2 Si8 2.781666 1_555
Mg2 Si9 2.832875 1_555
Mg3 Si1 2.708772 1_445
Mg3 Si8 2.770745 1_555
Mg3 Si0 2.924057 1_545
Mg3 Si4 2.932273 1_555
Mg3 Si9 2.954610 1_555
Mg3 Si2 3.072856 1_455
Mg4 Si2 2.678034 1_465
Mg4 Si5 2.738642 1_555
Mg4 Si9 2.787792 1_555
Mg4 Si8 2.836707 1_565
Mg5 Si1 2.705040 1_545
Mg5 Si4 2.733356 1_555
Mg5 Si8 2.813272 1_555
Mg5 Si9 2.815286 1_545
Mg5 Si0 3.063111 1_545
Mg5 Si2 3.219926 1_555
Mg6 Si3 2.868215 1_554
Mg6 Si4 2.951213 1_555
Mg6 Si6 3.039923 1_555
Mg7 Si7 2.684997 1_455
Mg7 Si5 2.756963 1_555
Mg7 Si3 2.849315 1_555
Mg8 Si6 2.684552 1_555
Mg8 Si3 2.891712 1_554
Mg8 Si4 3.054094 1_555
Mg9 Si7 2.687593 1_555
Mg9 Si3 2.765318 1_665
Mg9 Si5 2.838554 1_555
Mg10 Si1 2.931187 1_555
Mg10 Si6 2.938556 1_565
Mg10 Mg8 2.950135 1_555
Mg10 Mg12 2.957130 1_565
Mg10 Mg14 3.011936 1_555
Mg10 Mg6 3.036859 1_665
Mg10 Si0 3.111229 1_655
Mg10 Mg9 3.123953 1_554
Mg10 Mg11 3.136952 1_564
Mg10 Mg7 3.146475 1_554
Mg11 Si7 2.653522 1_555
Mg11 Si6 2.719739 1_556
Mg11 Si5 2.737800 1_545
Mg11 Si3 2.808709 1_555
Mg12 Si9 2.840767 1_655
Mg12 Si4 2.859061 1_555
Mg12 Si1 2.926898 1_545
Mg13 Si3 2.857533 1_565
Mg13 Si7 2.891693 1_455
Mg13 Si5 2.898827 1_555
Mg13 Si8 2.970498 1_455
Mg13 Si2 3.043171 1_465
Mg14 Si4 2.764454 1_555
Mg14 Si1 2.787485 1_555
Mg14 Si9 2.791439 1_555
Mg15 Si7 2.812615 1_555
Mg15 Si3 2.839030 1_555
Mg15 Si5 2.855197 1_555
Mg15 Si8 2.886683 1_555
Mg15 Si2 3.046447 1_455
Mg16 Si6 2.624876 1_565
Mg16 Si7 2.696240 1_454
Mg16 Si0 2.768327 1_555
Mg17 Si3 2.859757 1_655
Mg17 Si7 2.872424 1_555
Mg17 Si5 2.917406 1_545
Mg17 Si8 2.938871 1_555
Mg17 Si2 2.945636 1_555
Si0 Si1 2.455069 1_455
Si0 Si4 2.597956 1_565
Si0 Si9 2.626642 1_555
Si1 Si2 2.666372 1_565
Si3 Si6 2.578734 1_556
Si4 Si6 2.475511 1_555
