# generated using pymatgen
data_V2O5
_symmetry_space_group_name_H-M   'P 1'
_cell_length_a   11.75710764
_cell_length_b   11.61643109
_cell_length_c   11.96821702
_cell_angle_alpha   85.62741843
_cell_angle_beta   91.33987853
_cell_angle_gamma   81.42750815
_symmetry_Int_Tables_number   1
_chemical_formula_structural   V2O5
_chemical_formula_sum   'V30 O75'
_cell_volume   1610.59983836
_cell_formula_units_Z   15
loop_
 _symmetry_equiv_pos_site_id
 _symmetry_equiv_pos_as_xyz
  1  'x, y, z'
loop_
 _atom_site_type_symbol
 _atom_site_label
 _atom_site_symmetry_multiplicity
 _atom_site_fract_x
 _atom_site_fract_y
 _atom_site_fract_z
 _atom_site_occupancy
  V  V0  1  0.52301343  0.80567140  0.99598524  1
  V  V1  1  0.78223503  0.54798896  0.72602636  1
  V  V2  1  0.13276949  0.14052771  0.70225946  1
  V  V3  1  0.24987900  0.93533691  0.52115516  1
  V  V4  1  0.66722021  0.16943897  0.19159898  1
  V  V5  1  0.17677928  0.39898877  0.37849437  1
  V  V6  1  0.24488729  0.74821130  0.09354275  1
  V  V7  1  0.13781066  0.45546083  0.71515266  1
  V  V8  1  0.04711092  0.64784090  0.92598695  1
  V  V9  1  0.58686470  0.21131878  0.77253374  1
  V  V10  1  0.64074837  0.65427279  0.24257450  1
  V  V11  1  0.26160934  0.13161197  0.09477300  1
  V  V12  1  0.97800178  0.10140478  0.44156290  1
  V  V13  1  0.84083807  0.83496809  0.70195560  1
  V  V14  1  0.72161184  0.25672503  0.51438776  1
  V  V15  1  0.07612996  0.72334699  0.53690505  1
  V  V16  1  0.86199362  0.09691625  0.84311796  1
  V  V17  1  0.04222227  0.46918656  0.13433949  1
  V  V18  1  0.56864674  0.58320618  0.51631245  1
  V  V19  1  0.42474363  0.34506215  0.51111987  1
  V  V20  1  0.77019768  0.38919259  0.16248673  1
  V  V21  1  0.02204375  0.86729502  0.27088310  1
  V  V22  1  0.96598951  0.16362195  0.11283848  1
  V  V23  1  0.45261975  0.82424326  0.39297701  1
  V  V24  1  0.48705882  0.06840337  0.42977922  1
  V  V25  1  0.36114841  0.07671138  0.89550431  1
  V  V26  1  0.91463246  0.46393028  0.50921243  1
  V  V27  1  0.54682442  0.41787916  0.97633607  1
  V  V28  1  0.43617298  0.31367147  0.21921499  1
  V  V29  1  0.77593429  0.89647205  0.11350591  1
  O  O0  1  0.21308607  0.99902139  0.64275065  1
  O  O1  1  0.91428572  0.81829204  0.19870165  1
  O  O2  1  0.46327528  0.30387904  0.64426016  1
  O  O3  1  0.49865826  0.11292875  0.78221303  1
  O  O4  1  0.50937906  0.94838896  0.33237108  1
  O  O5  1  0.93748367  0.36679130  0.13953988  1
  O  O6  1  0.71670265  0.76224684  0.24547305  1
  O  O7  1  0.91074293  0.48380866  0.65808416  1
  O  O8  1  0.80428386  0.37201678  0.49218561  1
  O  O9  1  0.78087163  0.47286691  0.84509730  1
  O  O10  1  0.84429386  0.95551262  0.01153248  1
  O  O11  1  0.58769175  0.31013295  0.45612290  1
  O  O12  1  0.40268947  0.20427457  0.45583551  1
  O  O13  1  0.99198192  0.02544197  0.17022620  1
  O  O14  1  0.28027733  0.62117263  0.15893322  1
  O  O15  1  0.60566865  0.20232519  0.06805370  1
  O  O16  1  0.70906524  0.13004267  0.85656193  1
  O  O17  1  0.24938951  0.03231379  0.97817863  1
  O  O18  1  0.66148229  0.32986489  0.24006688  1
  O  O19  1  0.40015302  0.96837856  0.51078410  1
  O  O20  1  0.46975956  0.95670094  0.94257613  1
  O  O21  1  0.49473322  0.72399639  0.29652075  1
  O  O22  1  0.96334583  0.96410396  0.37338630  1
  O  O23  1  0.06001209  0.74642127  0.38964359  1
  O  O24  1  0.52217526  0.73504661  0.51929869  1
  O  O25  1  0.04598971  0.39660505  0.45987016  1
  O  O26  1  0.46302925  0.40944349  0.09819737  1
  O  O27  1  0.27622224  0.13379848  0.77166550  1
  O  O28  1  0.64308260  0.56819184  0.39720218  1
  O  O29  1  0.37354113  0.79390473  0.04895614  1
  O  O30  1  0.07677341  0.53400652  0.83289663  1
  O  O31  1  0.87833103  0.59109168  0.44194223  1
  O  O32  1  0.71927855  0.01439562  0.19517679  1
  O  O33  1  0.66689122  0.84818916  0.03687534  1
  O  O34  1  0.45542004  0.50449804  0.50823368  1
  O  O35  1  0.49451762  0.54082675  0.91167671  1
  O  O36  1  0.37175476  0.39906226  0.31511997  1
  O  O37  1  0.14857121  0.83326093  0.19236153  1
  O  O38  1  0.87061911  0.95995343  0.77435373  1
  O  O39  1  0.11346264  0.19288207  0.10195864  1
  O  O40  1  0.58094325  0.66946635  0.10884518  1
  O  O41  1  0.03574454  0.14373989  0.57198063  1
  O  O42  1  0.68352952  0.23449016  0.65310679  1
  O  O43  1  0.37290385  0.18507711  0.98219630  1
  O  O44  1  0.15321277  0.01799697  0.43326384  1
  O  O45  1  0.10619093  0.50196535  0.26492545  1
  O  O46  1  0.92322896  0.15691882  0.97453643  1
  O  O47  1  0.18766034  0.79459086  0.57316752  1
  O  O48  1  0.27103825  0.39600245  0.50513957  1
  O  O49  1  0.81908254  0.21324575  0.16975280  1
  O  O50  1  0.87624162  0.19830382  0.74701215  1
  O  O51  1  0.95505473  0.79304744  0.60368335  1
  O  O52  1  0.54635044  0.32099330  0.86353809  1
  O  O53  1  0.76027454  0.52187918  0.22006291  1
  O  O54  1  0.54135601  0.74541660  0.88017463  1
  O  O55  1  0.14895817  0.41941144  0.06028420  1
  O  O56  1  0.99134461  0.19593787  0.33745424  1
  O  O57  1  0.06597250  0.08089231  0.80456337  1
  O  O58  1  0.73256556  0.89082833  0.62105228  1
  O  O59  1  0.65863178  0.53013152  0.63818805  1
  O  O60  1  0.97798915  0.60137796  0.05165815  1
  O  O61  1  0.27331608  0.44601256  0.74338264  1
  O  O62  1  0.60579780  0.06478792  0.50165981  1
  O  O63  1  0.10897492  0.30924503  0.70707653  1
  O  O64  1  0.18892351  0.27259875  0.33105576  1
  O  O65  1  0.69382098  0.42326533  0.03446586  1
  O  O66  1  0.29808969  0.03272146  0.19690957  1
  O  O67  1  0.10587589  0.57608624  0.59296823  1
  O  O68  1  0.81764720  0.13978768  0.46451703  1
  O  O69  1  0.16131159  0.72277595  0.96907008  1
  O  O70  1  0.30810600  0.82583339  0.39930244  1
  O  O71  1  0.32790413  0.25093385  0.16871932  1
  O  O72  1  0.95374243  0.74940870  0.85840923  1
  O  O73  1  0.53401025  0.17671925  0.28001281  1
  O  O74  1  0.78569406  0.69635084  0.74520906  1
loop_
_geom_bond_atom_site_label_1
_geom_bond_atom_site_label_2
_geom_bond_distance
_geom_bond_site_symmetry_2
O0 V3 1.717688 1_555
O0 V2 1.961690 1_565
O1 V21 1.707109 1_655
O1 V29 1.962435 1_555
O2 V19 1.660896 1_555
O2 V9 2.191466 1_555
O3 V9 1.653482 1_555
O3 V25 2.201713 1_555
O4 V23 1.789196 1_555
O4 V24 1.877406 1_565
O5 V17 1.834141 1_655
O5 V20 1.973580 1_555
O5 V22 2.380911 1_555
O6 V10 1.646500 1_555
O6 V29 2.326004 1_555
O7 V26 1.814765 1_555
O7 V1 1.820410 1_555
O8 V14 1.776210 1_555
O8 V26 1.816177 1_555
O9 V1 1.614993 1_555
O10 V29 1.639625 1_555
O11 V14 1.715147 1_555
O11 V19 2.033746 1_555
O12 V24 1.787490 1_555
O12 V19 1.860945 1_555
O13 V22 1.678539 1_555
O13 V21 2.097661 1_645
O14 V6 1.609039 1_555
O15 V4 1.623993 1_555
O16 V16 1.795400 1_555
O16 V9 1.830355 1_555
O17 V25 1.776665 1_555
O17 V11 1.893110 1_556
O18 V20 1.786435 1_555
O18 V4 1.985735 1_555
O19 V3 1.868001 1_555
O19 V24 1.887451 1_565
O19 V23 2.294469 1_555
O20 V25 1.790913 1_565
O20 V0 1.833417 1_555
O21 V23 1.730239 1_555
O21 V10 1.933138 1_555
O22 V21 1.806796 1_655
O22 V12 1.874332 1_565
O23 V15 1.763863 1_555
O23 V21 1.915780 1_555
O24 V18 1.770358 1_555
O24 V23 1.865137 1_555
O25 V26 1.760254 1_455
O25 V5 1.841862 1_555
O26 V27 1.783675 1_554
O26 V28 1.820876 1_555
O27 V25 1.793591 1_555
O27 V2 1.850939 1_555
O28 V18 1.696826 1_555
O28 V10 2.032908 1_555
O29 V6 1.757372 1_555
O29 V0 1.902477 1_554
O30 V8 1.793556 1_555
O30 V7 1.838871 1_555
O31 V26 1.620800 1_555
O32 V29 1.799501 1_545
O32 V4 1.810693 1_555
O33 V29 1.742737 1_555
O33 V0 1.895289 1_554
O34 V18 1.728516 1_555
O34 V19 1.936860 1_555
O35 V27 1.601315 1_555
O36 V28 1.692725 1_555
O36 V19 2.423845 1_555
O36 V5 2.431449 1_555
O37 V21 1.788604 1_555
O37 V6 1.887970 1_555
O38 V13 1.819488 1_555
O38 V16 1.836952 1_565
O39 V11 1.787321 1_555
O39 V22 1.821607 1_455
O40 V10 1.718853 1_555
O40 V0 2.025240 1_554
O41 V12 1.818260 1_455
O41 V2 1.905005 1_555
O42 V14 1.739932 1_555
O42 V9 1.874983 1_555
O43 V25 1.710135 1_555
O43 V11 2.027404 1_556
O44 V3 1.668806 1_545
O44 V12 2.149732 1_455
O45 V17 1.809521 1_555
O45 V5 1.835900 1_555
O46 V22 1.729451 1_556
O46 V16 1.934377 1_555
O47 V15 1.715924 1_555
O47 V3 1.954068 1_555
O48 V19 1.813753 1_555
O48 V5 1.851676 1_555
O49 V22 1.896727 1_555
O49 V4 1.946177 1_555
O49 V20 2.033635 1_555
O50 V16 1.612278 1_555
O51 V15 1.768877 1_655
O51 V13 1.841186 1_555
O52 V9 1.758192 1_555
O52 V27 1.822740 1_555
O53 V20 1.725195 1_555
O53 V10 1.961950 1_555
O54 V0 1.604515 1_555
O55 V17 1.615086 1_555
O56 V12 1.623230 1_555
O57 V2 1.635123 1_555
O58 V13 1.606039 1_555
O59 V18 1.795345 1_555
O59 V1 1.819811 1_555
O60 V8 1.810549 1_654
O60 V17 1.815267 1_655
O61 V7 1.606666 1_555
O62 V24 1.616041 1_555
O63 V7 1.790076 1_555
O63 V2 1.943526 1_555
O64 V5 1.602108 1_555
O65 V20 1.745799 1_555
O65 V27 1.859418 1_554
O66 V11 1.616265 1_555
O67 V15 1.770444 1_555
O67 V7 1.935942 1_555
O68 V14 1.781641 1_555
O68 V12 1.902879 1_555
O69 V8 1.791888 1_555
O69 V6 1.832291 1_556
O70 V23 1.699930 1_555
O70 V3 2.069663 1_555
O71 V28 1.680612 1_555
O71 V11 1.946506 1_555
O72 V8 1.636485 1_655
O72 V13 2.337243 1_555
O73 V28 1.903247 1_555
O73 V4 1.905617 1_555
O73 V24 2.238340 1_555
O74 V1 1.762210 1_555
O74 V13 1.865744 1_555
