# generated using pymatgen
data_Ti2VSe4
_symmetry_space_group_name_H-M   'P 1'
_cell_length_a   6.99041628
_cell_length_b   6.99041628
_cell_length_c   6.39815332
_cell_angle_alpha   63.78462800
_cell_angle_beta   63.78462800
_cell_angle_gamma   29.06481268
_symmetry_Int_Tables_number   1
_chemical_formula_structural   Ti2VSe4
_chemical_formula_sum   'Ti2 V1 Se4'
_cell_volume   135.14823443
_cell_formula_units_Z   1
loop_
 _symmetry_equiv_pos_site_id
 _symmetry_equiv_pos_as_xyz
  1  'x, y, z'
loop_
 _atom_site_type_symbol
 _atom_site_label
 _atom_site_symmetry_multiplicity
 _atom_site_fract_x
 _atom_site_fract_y
 _atom_site_fract_z
 _atom_site_occupancy
  Ti  Ti0  1  0.00010200  0.00010200  0.99918500  1
  Ti  Ti1  1  0.25273000  0.25273000  0.69942500  1
  V  V0  1  0.74730100  0.74730100  0.30043400  1
  Se  Se0  1  0.11130900  0.11130900  0.54714100  1
  Se  Se1  1  0.89005100  0.89005100  0.44628000  1
  Se  Se2  1  0.36229800  0.36229800  0.97466500  1
  Se  Se3  1  0.63620900  0.63620900  0.03287100  1
loop_
_geom_bond_atom_site_label_1
_geom_bond_atom_site_label_2
_geom_bond_distance
_geom_bond_site_symmetry_2
Se0 V0 2.510814 1_455
Se0 V0 2.510814 1_545
Se0 Ti1 2.512855 1_555
Se0 Ti0 2.580179 1_555
Se1 V0 2.499680 1_555
Se1 Ti1 2.531140 1_655
Se1 Ti1 2.531140 1_565
Se1 Ti0 2.551991 1_664
Se2 Ti0 2.616602 1_655
Se2 Ti0 2.616602 1_565
Se2 V0 2.623486 1_456
Se2 V0 2.623486 1_546
Se2 Ti1 2.771891 1_555
Se3 Ti0 2.622711 1_564
Se3 Ti0 2.622711 1_654
Se3 Ti1 2.654156 1_564
Se3 Ti1 2.654156 1_654
Se3 V0 2.745931 1_555
