# generated using pymatgen
data_Cs3CaFe(P2O7)2
_symmetry_space_group_name_H-M   'P 1'
_cell_length_a   9.30847391
_cell_length_b   11.28255282
_cell_length_c   15.06619633
_cell_angle_alpha   90.00000000
_cell_angle_beta   90.00000000
_cell_angle_gamma   90.00000000
_symmetry_Int_Tables_number   1
_chemical_formula_structural   Cs3CaFe(P2O7)2
_chemical_formula_sum   'Cs12 Ca4 Fe4 P16 O56'
_cell_volume   1582.30238869
_cell_formula_units_Z   4
loop_
 _symmetry_equiv_pos_site_id
 _symmetry_equiv_pos_as_xyz
  1  'x, y, z'
loop_
 _atom_site_type_symbol
 _atom_site_label
 _atom_site_symmetry_multiplicity
 _atom_site_fract_x
 _atom_site_fract_y
 _atom_site_fract_z
 _atom_site_occupancy
  Cs  Cs0  1  0.37081963  0.36884102  0.37042506  1
  Cs  Cs1  1  0.12918037  0.63115898  0.87042506  1
  Cs  Cs2  1  0.87081963  0.13115898  0.62957494  1
  Cs  Cs3  1  0.62918037  0.86884102  0.12957494  1
  Cs  Cs4  1  0.27656577  0.71326297  0.30353840  1
  Cs  Cs5  1  0.22343423  0.28673703  0.80353840  1
  Cs  Cs6  1  0.77656577  0.78673703  0.69646160  1
  Cs  Cs7  1  0.72343423  0.21326297  0.19646160  1
  Cs  Cs8  1  0.82298027  0.48100890  0.41246876  1
  Cs  Cs9  1  0.67701973  0.51899110  0.91246876  1
  Cs  Cs10  1  0.32298027  0.01899110  0.58753124  1
  Cs  Cs11  1  0.17701973  0.98100890  0.08753124  1
  Ca  Ca0  1  0.54329004  0.36269855  0.61702078  1
  Ca  Ca1  1  0.95670996  0.63730145  0.11702078  1
  Ca  Ca2  1  0.04329004  0.13730145  0.38297922  1
  Ca  Ca3  1  0.45670996  0.86269855  0.88297922  1
  Fe  Fe0  1  0.64841987  0.87483217  0.42866554  1
  Fe  Fe1  1  0.85158013  0.12516783  0.92866554  1
  Fe  Fe2  1  0.14841987  0.62516783  0.57133446  1
  Fe  Fe3  1  0.35158013  0.37483217  0.07133446  1
  P  P0  1  0.47948492  0.64234742  0.52031635  1
  P  P1  1  0.02051508  0.35765258  0.02031635  1
  P  P2  1  0.97948492  0.85765258  0.47968365  1
  P  P3  1  0.52051508  0.14234742  0.97968365  1
  P  P4  1  0.41552167  0.62621313  0.70732603  1
  P  P5  1  0.08447833  0.37378687  0.20732603  1
  P  P6  1  0.91552167  0.87378687  0.29267397  1
  P  P7  1  0.58447833  0.12621313  0.79267397  1
  P  P8  1  0.41745302  0.03688407  0.32991361  1
  P  P9  1  0.08254698  0.96311593  0.82991361  1
  P  P10  1  0.91745302  0.46311593  0.67008639  1
  P  P11  1  0.58254698  0.53688407  0.17008639  1
  P  P12  1  0.65079606  0.14915607  0.43766561  1
  P  P13  1  0.84920394  0.85084393  0.93766561  1
  P  P14  1  0.15079606  0.35084393  0.56233439  1
  P  P15  1  0.34920394  0.64915607  0.06233439  1
  O  O0  1  0.57456752  0.72564343  0.46766407  1
  O  O1  1  0.92543248  0.27435657  0.96766407  1
  O  O2  1  0.07456752  0.77435657  0.53233593  1
  O  O3  1  0.42543248  0.22564343  0.03233593  1
  O  O4  1  0.47085800  0.50279865  0.72174851  1
  O  O5  1  0.02914200  0.49720135  0.22174851  1
  O  O6  1  0.97085800  0.99720135  0.27825149  1
  O  O7  1  0.52914200  0.00279865  0.77825149  1
  O  O8  1  0.41521873  0.02551585  0.23113993  1
  O  O9  1  0.08478127  0.97448415  0.73113993  1
  O  O10  1  0.91521873  0.47448415  0.76886007  1
  O  O11  1  0.58478127  0.52551585  0.26886007  1
  O  O12  1  0.28695775  0.08896214  0.37415716  1
  O  O13  1  0.21304225  0.91103786  0.87415716  1
  O  O14  1  0.78695775  0.41103786  0.62584284  1
  O  O15  1  0.71304225  0.58896214  0.12584284  1
  O  O16  1  0.49898771  0.68424077  0.62246604  1
  O  O17  1  0.00101229  0.31575923  0.12246604  1
  O  O18  1  -0.00101229  0.81575923  0.37753396  1
  O  O19  1  0.50101229  0.18424077  0.87753396  1
  O  O20  1  0.44404450  0.70994939  0.78225488  1
  O  O21  1  0.05595550  0.29005061  0.28225488  1
  O  O22  1  0.94404450  0.79005061  0.21774512  1
  O  O23  1  0.55595550  0.20994939  0.71774512  1
  O  O24  1  0.54960836  0.12982651  0.35132800  1
  O  O25  1  0.95039164  0.87017349  0.85132800  1
  O  O26  1  0.04960836  0.37017349  0.64867200  1
  O  O27  1  0.45039164  0.62982651  0.14867200  1
  O  O28  1  0.52566365  0.51575159  0.51281357  1
  O  O29  1  0.97433635  0.48424841  0.01281357  1
  O  O30  1  0.02566365  0.98424841  0.48718643  1
  O  O31  1  0.47433635  0.01575159  0.98718643  1
  O  O32  1  0.46463919  0.91997607  0.37552096  1
  O  O33  1  0.03536081  0.08002393  0.87552096  1
  O  O34  1  0.96463919  0.58002393  0.62447904  1
  O  O35  1  0.53536081  0.41997607  0.12447904  1
  O  O36  1  0.75536848  0.87377653  0.32035173  1
  O  O37  1  0.74463152  0.12622347  0.82035173  1
  O  O38  1  0.25536848  0.62622347  0.67964827  1
  O  O39  1  0.24463152  0.37377653  0.17964827  1
  O  O40  1  0.32215696  0.66403561  0.49862232  1
  O  O41  1  0.17784304  0.33596439  0.99862232  1
  O  O42  1  0.82215696  0.83596439  0.50137768  1
  O  O43  1  0.67784304  0.16403561  0.00137768  1
  O  O44  1  0.79523657  0.18248615  0.40075734  1
  O  O45  1  0.70476343  0.81751385  0.90075734  1
  O  O46  1  0.29523657  0.31751385  0.59924266  1
  O  O47  1  0.20476343  0.68248615  0.09924266  1
  O  O48  1  0.58289191  0.24270822  0.49480909  1
  O  O49  1  0.91710809  0.75729178  0.99480909  1
  O  O50  1  0.08289191  0.25729178  0.50519091  1
  O  O51  1  0.41710809  0.74270822  0.00519091  1
  O  O52  1  0.65082492  0.02877395  0.48650640  1
  O  O53  1  0.84917508  0.97122605  0.98650640  1
  O  O54  1  0.15082492  0.47122605  0.51349360  1
  O  O55  1  0.34917508  0.52877395  0.01349360  1
loop_
_geom_bond_atom_site_label_1
_geom_bond_atom_site_label_2
_geom_bond_distance
_geom_bond_site_symmetry_2
Cs0 O28 3.070347 1_555
Cs0 O11 3.071309 1_555
Cs0 O48 3.071485 1_555
Cs0 O39 3.105530 1_555
Cs0 O24 3.181929 1_555
Cs0 O54 3.189691 1_555
Cs0 O12 3.253293 1_555
Cs0 O21 3.338422 1_555
Cs1 O29 3.070347 1_456
Cs1 O10 3.071309 1_455
Cs1 O49 3.071485 1_455
Cs1 O38 3.105530 1_555
Cs1 O25 3.181929 1_455
Cs1 O55 3.189691 1_556
Cs1 O13 3.253293 1_555
Cs1 O20 3.338422 1_555
Cs2 O30 3.070347 1_645
Cs2 O9 3.071309 1_645
Cs2 O50 3.071485 1_655
Cs2 O37 3.105530 1_555
Cs2 O26 3.181929 1_655
Cs2 O52 3.189691 1_555
Cs2 O14 3.253293 1_555
Cs2 O23 3.338422 1_555
Cs3 O31 3.070347 1_564
Cs3 O8 3.071309 1_565
Cs3 O51 3.071485 1_555
Cs3 O36 3.105530 1_555
Cs3 O27 3.181929 1_555
Cs3 O53 3.189691 1_554
Cs3 O15 3.253293 1_555
Cs3 O22 3.338422 1_555
Cs4 O27 2.991376 1_555
Cs4 O40 3.021145 1_555
Cs4 O18 3.042421 1_555
Cs4 O32 3.111336 1_555
Cs4 O47 3.168774 1_555
Cs4 O22 3.464392 1_455
Cs4 O5 3.572874 1_555
Cs4 O11 3.604342 1_555
Cs5 O26 2.991376 1_555
Cs5 O41 3.021145 1_555
Cs5 O19 3.042421 1_555
Cs5 O33 3.111336 1_555
Cs5 O46 3.168774 1_555
Cs5 O23 3.464392 1_555
Cs5 O4 3.572874 1_555
Cs5 O10 3.604342 1_455
Cs6 O25 2.991376 1_555
Cs6 O42 3.021145 1_555
Cs6 O16 3.042421 1_555
Cs6 O34 3.111336 1_555
Cs6 O45 3.168774 1_555
Cs6 O20 3.464392 1_555
Cs6 O7 3.572874 1_565
Cs6 O9 3.604342 1_655
Cs7 O24 2.991376 1_555
Cs7 O43 3.021145 1_555
Cs7 O17 3.042421 1_655
Cs7 O35 3.111336 1_555
Cs7 O44 3.168774 1_555
Cs7 O21 3.464392 1_655
Cs7 O6 3.572874 1_545
Cs7 O8 3.604342 1_555
Cs8 O11 3.138433 1_555
Cs8 O28 3.177837 1_555
Cs8 O14 3.327190 1_555
Cs8 O44 3.382590 1_555
Cs8 O54 3.412027 1_655
Cs8 O5 3.460163 1_655
Cs9 O10 3.138433 1_555
Cs9 O29 3.177837 1_556
Cs9 O15 3.327190 1_556
Cs9 O45 3.382590 1_555
Cs9 O55 3.412027 1_556
Cs9 O4 3.460163 1_555
Cs10 O9 3.138433 1_545
Cs10 O30 3.177837 1_545
Cs10 O12 3.327190 1_555
Cs10 O46 3.382590 1_555
Cs10 O52 3.412027 1_555
Cs10 O7 3.460163 1_555
Cs11 O8 3.138433 1_565
Cs11 O31 3.177837 1_564
Cs11 O13 3.327190 1_554
Cs11 O47 3.382590 1_555
Cs11 O53 3.412027 1_454
Cs11 O6 3.460163 1_455
Ca0 O23 2.299329 1_555
Ca0 O48 2.314933 1_555
Ca0 O4 2.332973 1_555
Ca0 O14 2.336607 1_555
Ca0 O28 2.339611 1_555
Ca0 O46 2.379730 1_555
Ca1 O22 2.299329 1_555
Ca1 O49 2.314933 1_554
Ca1 O5 2.332973 1_655
Ca1 O15 2.336607 1_555
Ca1 O29 2.339611 1_555
Ca1 O47 2.379730 1_655
Ca2 O21 2.299329 1_555
Ca2 O50 2.314933 1_555
Ca2 O6 2.332973 1_445
Ca2 O12 2.336607 1_555
Ca2 O30 2.339611 1_545
Ca2 O44 2.379730 1_455
Ca3 O20 2.299329 1_555
Ca3 O51 2.314933 1_556
Ca3 O7 2.332973 1_565
Ca3 O13 2.336607 1_555
Ca3 O31 2.339611 1_565
Ca3 O45 2.379730 1_555
Fe0 O0 1.910780 1_555
Fe0 O36 1.911607 1_555
Fe0 O52 1.943343 1_565
Fe0 O32 1.956292 1_555
Fe0 O42 2.001959 1_555
Fe1 O1 1.910780 1_555
Fe1 O37 1.911607 1_555
Fe1 O53 1.943343 1_545
Fe1 O33 1.956292 1_655
Fe1 O43 2.001959 1_556
Fe2 O2 1.910780 1_555
Fe2 O38 1.911607 1_555
Fe2 O54 1.943343 1_555
Fe2 O34 1.956292 1_455
Fe2 O40 2.001959 1_555
Fe3 O3 1.910780 1_555
Fe3 O39 1.911607 1_555
Fe3 O55 1.943343 1_555
Fe3 O35 1.956292 1_555
Fe3 O41 2.001959 1_554
O0 P0 1.515203 1_555
O1 P1 1.515203 1_656
O2 P2 1.515203 1_455
O3 P3 1.515203 1_554
O4 P4 1.500468 1_555
O5 P5 1.500468 1_555
O6 P6 1.500468 1_555
O7 P7 1.500468 1_555
O8 P8 1.493806 1_555
O9 P9 1.493806 1_555
O10 P10 1.493806 1_555
O11 P11 1.493806 1_555
O12 P8 1.505025 1_555
O13 P9 1.505025 1_555
O14 P10 1.505025 1_555
O15 P11 1.505025 1_555
O16 P0 1.620158 1_555
O16 P4 1.633057 1_555
O17 P1 1.620158 1_555
O17 P5 1.633057 1_555
O18 P2 1.620158 1_455
O18 P6 1.633057 1_455
O19 P3 1.620158 1_555
O19 P7 1.633057 1_555
O20 P4 1.495814 1_555
O21 P5 1.495814 1_555
O22 P6 1.495814 1_555
O23 P7 1.495814 1_555
O24 P12 1.620731 1_555
O24 P8 1.648338 1_555
O25 P13 1.620731 1_555
O25 P9 1.648338 1_655
O26 P14 1.620731 1_555
O26 P10 1.648338 1_455
O27 P15 1.620731 1_555
O27 P11 1.648338 1_555
O28 P0 1.495882 1_555
O29 P1 1.495882 1_655
O30 P2 1.495882 1_455
O31 P3 1.495882 1_555
O32 P8 1.550770 1_565
O33 P9 1.550770 1_545
O34 P10 1.550770 1_555
O35 P11 1.550770 1_555
O36 P6 1.548005 1_555
O37 P7 1.548005 1_555
O38 P4 1.548005 1_555
O39 P5 1.548005 1_555
O40 P0 1.520334 1_555
O41 P1 1.520334 1_556
O42 P2 1.520334 1_555
O43 P3 1.520334 1_554
O44 P12 1.502784 1_555
O45 P13 1.502784 1_555
O46 P14 1.502784 1_555
O47 P15 1.502784 1_555
O48 P12 1.501611 1_555
O49 P13 1.501611 1_555
O50 P14 1.501611 1_555
O51 P15 1.501611 1_555
O52 P12 1.544740 1_555
O53 P13 1.544740 1_555
O54 P14 1.544740 1_555
O55 P15 1.544740 1_555
