# generated using pymatgen
data_CeMg2Ni9
_symmetry_space_group_name_H-M   'P 1'
_cell_length_a   8.30394190
_cell_length_b   8.30394190
_cell_length_c   8.30394242
_cell_angle_alpha   33.69830368
_cell_angle_beta   33.69830368
_cell_angle_gamma   33.69830676
_symmetry_Int_Tables_number   1
_chemical_formula_structural   CeMg2Ni9
_chemical_formula_sum   'Ce1 Mg2 Ni9'
_cell_volume   157.03652459
_cell_formula_units_Z   1
loop_
 _symmetry_equiv_pos_site_id
 _symmetry_equiv_pos_as_xyz
  1  'x, y, z'
loop_
 _atom_site_type_symbol
 _atom_site_label
 _atom_site_symmetry_multiplicity
 _atom_site_fract_x
 _atom_site_fract_y
 _atom_site_fract_z
 _atom_site_occupancy
  Ce  Ce0  1  -0.00000000  -0.00000000  0.00000000  1
  Mg  Mg0  1  0.85547155  0.85547155  0.85547155  1
  Mg  Mg1  1  0.14452845  0.14452845  0.14452845  1
  Ni  Ni0  1  0.58628056  0.08167526  0.58628056  1
  Ni  Ni1  1  0.08167526  0.58628056  0.58628056  1
  Ni  Ni2  1  0.58628056  0.58628056  0.08167526  1
  Ni  Ni3  1  0.41371944  0.91832474  0.41371944  1
  Ni  Ni4  1  0.91832474  0.41371944  0.41371944  1
  Ni  Ni5  1  0.33408239  0.33408239  0.33408239  1
  Ni  Ni6  1  0.41371944  0.41371944  0.91832474  1
  Ni  Ni7  1  0.50000000  0.50000000  0.50000000  1
  Ni  Ni8  1  0.66591761  0.66591761  0.66591761  1
loop_
_geom_bond_atom_site_label_1
_geom_bond_atom_site_label_2
_geom_bond_distance
_geom_bond_site_symmetry_2
Ce0 Ni8 2.779330 1_445
Ce0 Ni5 2.779330 1_554
Ce0 Ni8 2.779330 1_544
Ce0 Ni8 2.779330 1_454
Ce0 Ni5 2.779330 1_455
Ce0 Ni5 2.779330 1_545
Ce0 Ni1 3.122688 1_554
Ce0 Ni0 3.122688 1_554
Ce0 Ni3 3.122688 1_445
Ce0 Ni4 3.122688 1_445
Ce0 Ni2 3.122688 1_455
Ce0 Ni2 3.122688 1_545
Ce0 Ni6 3.122688 1_544
Ce0 Ni6 3.122688 1_454
Ce0 Ni0 3.122688 1_455
Ce0 Ni1 3.122688 1_545
Ce0 Ni3 3.122688 1_544
Ce0 Ni4 3.122688 1_454
Mg0 Ni4 2.786216 1_565
Mg0 Ni3 2.786216 1_655
Mg0 Ni6 2.786216 1_565
Mg0 Ni6 2.786216 1_655
Mg0 Ni3 2.786216 1_556
Mg0 Ni4 2.786216 1_556
Mg0 Ni2 2.804099 1_556
Mg0 Ni1 2.804100 1_655
Mg0 Ni0 2.804100 1_565
Mg0 Ni7 2.827446 1_556
Mg0 Ni7 2.827446 1_565
Mg0 Ni7 2.827446 1_655
Mg1 Ni0 2.786216 1_455
Mg1 Ni1 2.786216 1_545
Mg1 Ni2 2.786216 1_545
Mg1 Ni2 2.786216 1_455
Mg1 Ni0 2.786216 1_554
Mg1 Ni1 2.786216 1_554
Mg1 Ni6 2.804099 1_554
Mg1 Ni3 2.804100 1_545
Mg1 Ni4 2.804100 1_455
Mg1 Ni7 2.827446 1_554
Mg1 Ni7 2.827446 1_545
Mg1 Ni7 2.827446 1_455
Ni0 Ni7 2.380162 1_555
Ni0 Ni2 2.384753 1_546
Ni0 Ni1 2.384753 1_645
Ni0 Ni5 2.419693 1_555
Ni0 Ni2 2.429091 1_555
Ni0 Ni1 2.429091 1_555
Ni0 Ni8 2.433864 1_545
Ni1 Ni7 2.380162 1_555
Ni1 Ni2 2.384753 1_456
Ni1 Ni5 2.419693 1_555
Ni1 Ni2 2.429091 1_555
Ni1 Ni8 2.433864 1_455
Ni2 Ni7 2.380162 1_555
Ni2 Ni5 2.419693 1_555
Ni2 Ni8 2.433865 1_554
Ni3 Ni7 2.380162 1_555
Ni3 Ni6 2.384753 1_564
Ni3 Ni4 2.384753 1_465
Ni3 Ni8 2.419693 1_555
Ni3 Ni6 2.429091 1_555
Ni3 Ni4 2.429091 1_555
Ni3 Ni5 2.433864 1_565
Ni4 Ni7 2.380162 1_555
Ni4 Ni6 2.384753 1_654
Ni4 Ni8 2.419693 1_555
Ni4 Ni6 2.429091 1_555
Ni4 Ni5 2.433864 1_655
Ni5 Ni6 2.433865 1_554
Ni5 Ni8 2.779497 1_554
Ni5 Ni8 2.779497 1_545
Ni5 Ni8 2.779497 1_455
Ni6 Ni7 2.380162 1_555
Ni6 Ni8 2.419693 1_555
