# generated using pymatgen
data_Dy12Al7Si
_symmetry_space_group_name_H-M   'P 1'
_cell_length_a   11.23684328
_cell_length_b   11.23684328
_cell_length_c   11.23684328
_cell_angle_alpha   117.45405526
_cell_angle_beta   117.45405526
_cell_angle_gamma   94.46934109
_symmetry_Int_Tables_number   1
_chemical_formula_structural   Dy12Al7Si
_chemical_formula_sum   'Dy24 Al14 Si2'
_cell_volume   1038.45994145
_cell_formula_units_Z   2
loop_
 _symmetry_equiv_pos_site_id
 _symmetry_equiv_pos_as_xyz
  1  'x, y, z'
loop_
 _atom_site_type_symbol
 _atom_site_label
 _atom_site_symmetry_multiplicity
 _atom_site_fract_x
 _atom_site_fract_y
 _atom_site_fract_z
 _atom_site_occupancy
  Dy  Dy0  1  0.14772700  0.64772700  0.50000000  1
  Dy  Dy1  1  0.85227300  0.35227300  0.50000000  1
  Dy  Dy2  1  0.64772700  0.14772700  0.50000000  1
  Dy  Dy3  1  0.35227300  0.85227300  0.50000000  1
  Dy  Dy4  1  0.83655300  0.70085500  0.26454100  1
  Dy  Dy5  1  0.16344700  0.29914500  0.73545900  1
  Dy  Dy6  1  0.43631500  0.57201200  0.73545900  1
  Dy  Dy7  1  0.70085500  0.43631500  0.86430200  1
  Dy  Dy8  1  0.06368500  0.79914500  0.13569800  1
  Dy  Dy9  1  0.56368500  0.42798800  0.26454100  1
  Dy  Dy10  1  0.29914500  0.56368500  0.13569800  1
  Dy  Dy11  1  0.93631500  0.20085500  0.86430200  1
  Dy  Dy12  1  0.57201200  0.83655300  0.13569800  1
  Dy  Dy13  1  0.66344700  0.92798800  0.86430200  1
  Dy  Dy14  1  0.42798800  0.16344700  0.86430200  1
  Dy  Dy15  1  0.33655300  0.07201200  0.13569800  1
  Dy  Dy16  1  0.92798800  0.06368500  0.26454100  1
  Dy  Dy17  1  0.07201200  0.93631500  0.73545900  1
  Dy  Dy18  1  0.79914500  0.66344700  0.73545900  1
  Dy  Dy19  1  0.20085500  0.33655300  0.26454100  1
  Dy  Dy20  1  0.16999900  0.66999900  0.83999800  1
  Dy  Dy21  1  0.83000100  0.33000100  0.16000200  1
  Dy  Dy22  1  0.66999900  0.83000100  0.50000000  1
  Dy  Dy23  1  0.33000100  0.16999900  0.50000000  1
  Al  Al0  1  0.61773700  0.11773700  0.73547500  1
  Al  Al1  1  0.38226300  0.88226300  0.26452500  1
  Al  Al2  1  0.11773700  0.38226300  0.50000000  1
  Al  Al3  1  0.88226300  0.61773700  0.50000000  1
  Al  Al4  1  0.50000000  0.50000000  0.00000000  1
  Al  Al5  1  0.00000000  0.00000000  0.00000000  1
  Al  Al6  1  0.38200500  0.88200500  0.85676900  1
  Al  Al7  1  0.61799500  0.11799500  0.14323100  1
  Al  Al8  1  0.02523500  0.52523500  0.14323100  1
  Al  Al9  1  0.88200500  0.02523500  0.50000000  1
  Al  Al10  1  0.47476500  0.61799500  0.50000000  1
  Al  Al11  1  0.97476500  0.47476500  0.85676900  1
  Al  Al12  1  0.11799500  0.97476500  0.50000000  1
  Al  Al13  1  0.52523500  0.38200500  0.50000000  1
  Si  Si0  1  0.75000000  0.75000000  0.00000000  1
  Si  Si1  1  0.25000000  0.25000000  0.00000000  1
loop_
_geom_bond_atom_site_label_1
_geom_bond_atom_site_label_2
_geom_bond_distance
_geom_bond_site_symmetry_2
Dy4 Si0 3.003134 1_555
Dy5 Si1 3.003134 1_556
Dy6 Si0 3.003126 1_556
Dy7 Si0 3.003124 1_556
Dy8 Si0 3.003124 1_455
Dy9 Si1 3.003126 1_555
Dy10 Si1 3.003124 1_555
Dy11 Si1 3.003124 1_656
Dy12 Si0 3.003134 1_555
Dy13 Si0 3.003134 1_556
Dy14 Si1 3.003134 1_556
Dy15 Si1 3.003134 1_555
Dy16 Si0 3.003126 1_545
Dy17 Si1 3.003126 1_566
Dy18 Si0 3.003134 1_556
Dy19 Si1 3.003134 1_555
Al0 Dy3 2.975743 1_545
Al0 Dy2 2.975755 1_555
Al0 Dy13 3.039195 1_545
Al0 Dy14 3.039195 1_555
Al0 Dy7 3.039216 1_555
Al0 Dy11 3.039216 1_555
Al0 Dy23 3.411785 1_555
Al0 Dy22 3.411785 1_545
Al0 Dy21 3.502104 1_556
Al1 Dy2 2.975743 1_565
Al1 Dy3 2.975755 1_555
Al1 Dy15 3.039195 1_565
Al1 Dy12 3.039195 1_555
Al1 Dy8 3.039216 1_555
Al1 Dy10 3.039216 1_555
Al1 Dy22 3.411785 1_555
Al1 Dy23 3.411785 1_565
Al1 Dy20 3.502104 1_554
Al2 Dy0 2.975744 1_555
Al2 Dy1 2.975744 1_455
Al2 Dy5 3.039203 1_555
Al2 Dy19 3.039203 1_555
Al2 Dy16 3.039211 1_455
Al2 Dy6 3.039211 1_555
Al2 Dy21 3.411780 1_455
Al2 Dy20 3.411780 1_555
Al2 Dy23 3.502112 1_555
Al3 Dy1 2.975744 1_555
Al3 Dy0 2.975744 1_655
Al3 Dy18 3.039203 1_555
Al3 Dy4 3.039203 1_555
Al3 Dy17 3.039211 1_655
Al3 Dy9 3.039211 1_555
Al3 Dy20 3.411780 1_655
Al3 Dy21 3.411780 1_555
Al3 Dy22 3.502112 1_555
Al4 Dy7 3.217138 1_554
Al4 Dy10 3.217138 1_555
Al4 Dy14 3.217139 1_554
Al4 Dy12 3.217139 1_555
Al4 Dy4 3.217139 1_555
Al4 Dy5 3.217139 1_554
Al4 Dy6 3.217141 1_554
Al4 Dy9 3.217141 1_555
Al5 Dy11 3.217138 1_454
Al5 Dy8 3.217138 1_545
Al5 Dy13 3.217139 1_444
Al5 Dy15 3.217139 1_555
Al5 Dy19 3.217139 1_555
Al5 Dy18 3.217139 1_444
Al5 Dy16 3.217141 1_455
Al5 Dy17 3.217141 1_544
Al6 Al7 2.754632 1_566
Al6 Dy0 3.064233 1_555
Al6 Dy20 3.110240 1_555
Al6 Dy13 3.119910 1_555
Al6 Dy14 3.119910 1_565
Al6 Dy15 3.180986 1_566
Al6 Dy12 3.180986 1_556
Al6 Dy17 3.329318 1_555
Al6 Dy6 3.329318 1_555
Al6 Dy3 3.715856 1_555
Al7 Dy1 3.064233 1_555
Al7 Dy21 3.110240 1_555
Al7 Dy15 3.119910 1_555
Al7 Dy12 3.119910 1_545
Al7 Dy14 3.180986 1_554
Al7 Dy13 3.180986 1_544
Al7 Dy9 3.329318 1_555
Al7 Dy16 3.329318 1_555
Al7 Dy2 3.715856 1_555
Al8 Dy0 3.064229 1_555
Al8 Dy21 3.110225 1_455
Al8 Dy8 3.119921 1_555
Al8 Dy10 3.119921 1_555
Al8 Dy7 3.180983 1_454
Al8 Dy11 3.180983 1_454
Al8 Dy19 3.329308 1_555
Al8 Dy4 3.329308 1_455
Al8 Dy3 3.715865 1_555
Al9 Dy2 3.064239 1_555
Al9 Dy22 3.110233 1_545
Al9 Dy16 3.119910 1_555
Al9 Dy5 3.119916 1_655
Al9 Dy17 3.180969 1_645
Al9 Dy4 3.180977 1_545
Al9 Dy11 3.329308 1_555
Al9 Dy12 3.329313 1_545
Al9 Dy1 3.715867 1_555
Al10 Al13 2.754626 1_555
Al10 Dy3 3.064239 1_555
Al10 Dy22 3.110233 1_555
Al10 Dy6 3.119910 1_555
Al10 Dy19 3.119916 1_555
Al10 Dy9 3.180969 1_555
Al10 Dy18 3.180977 1_555
Al10 Dy10 3.329308 1_555
Al10 Dy13 3.329313 1_555
Al10 Dy0 3.715867 1_555
Al11 Al8 2.754648 1_656
Al11 Dy1 3.064229 1_555
Al11 Dy20 3.110225 1_655
Al11 Dy11 3.119921 1_555
Al11 Dy7 3.119921 1_555
Al11 Dy10 3.180983 1_656
Al11 Dy8 3.180983 1_656
Al11 Dy18 3.329308 1_555
Al11 Dy5 3.329308 1_655
Al11 Dy2 3.715865 1_555
Al12 Al9 2.754626 1_465
Al12 Dy3 3.064239 1_555
Al12 Dy23 3.110233 1_565
Al12 Dy17 3.119910 1_555
Al12 Dy4 3.119916 1_455
Al12 Dy16 3.180969 1_465
Al12 Dy5 3.180977 1_565
Al12 Dy8 3.329308 1_555
Al12 Dy14 3.329313 1_565
Al12 Dy0 3.715867 1_555
Al13 Dy2 3.064239 1_555
Al13 Dy23 3.110233 1_555
Al13 Dy9 3.119910 1_555
Al13 Dy18 3.119916 1_555
Al13 Dy6 3.180969 1_555
Al13 Dy19 3.180977 1_555
Al13 Dy7 3.329308 1_555
Al13 Dy15 3.329313 1_555
Al13 Dy1 3.715867 1_555
