# generated using pymatgen
data_Na9Mn15O32
_symmetry_space_group_name_H-M   'P 1'
_cell_length_a   6.19471305
_cell_length_b   6.19471305
_cell_length_c   20.44079928
_cell_angle_alpha   79.43904718
_cell_angle_beta   79.43904718
_cell_angle_gamma   59.24565803
_symmetry_Int_Tables_number   1
_chemical_formula_structural   Na9Mn15O32
_chemical_formula_sum   'Na9 Mn15 O32'
_cell_volume   658.93918085
_cell_formula_units_Z   1
loop_
 _symmetry_equiv_pos_site_id
 _symmetry_equiv_pos_as_xyz
  1  'x, y, z'
loop_
 _atom_site_type_symbol
 _atom_site_label
 _atom_site_symmetry_multiplicity
 _atom_site_fract_x
 _atom_site_fract_y
 _atom_site_fract_z
 _atom_site_occupancy
  Na  Na0  1  0.02356400  0.02356400  0.90917800  1
  Na  Na1  1  0.50000000  0.50000000  0.00000000  1
  Na  Na2  1  0.97643600  0.97643600  0.09082200  1
  Na  Na3  1  0.28683300  0.28683300  0.15315900  1
  Na  Na4  1  0.53241400  0.53241400  0.40917200  1
  Na  Na5  1  0.46758600  0.46758600  0.59082800  1
  Na  Na6  1  0.21361100  0.21361100  0.34151800  1
  Na  Na7  1  0.78638900  0.78638900  0.65848200  1
  Na  Na8  1  0.71316700  0.71316700  0.84684100  1
  Mn  Mn0  1  0.50000000  0.00000000  0.00000000  1
  Mn  Mn1  1  0.63508000  0.63508000  0.12350900  1
  Mn  Mn2  1  0.75090800  0.75090800  0.24913900  1
  Mn  Mn3  1  0.36492000  0.36492000  0.87649100  1
  Mn  Mn4  1  0.74824700  0.25229500  0.24804200  1
  Mn  Mn5  1  0.25229500  0.74824700  0.24804200  1
  Mn  Mn6  1  0.00000000  0.50000000  0.00000000  1
  Mn  Mn7  1  0.87631400  0.87631400  0.37427200  1
  Mn  Mn8  1  0.74770500  0.25175300  0.75195800  1
  Mn  Mn9  1  0.00000000  0.50000000  0.50000000  1
  Mn  Mn10  1  0.50000000  0.00000000  0.50000000  1
  Mn  Mn11  1  0.24909200  0.24909200  0.75086100  1
  Mn  Mn12  1  0.12368600  0.12368600  0.62572800  1
  Mn  Mn13  1  0.00000000  0.00000000  0.50000000  1
  Mn  Mn14  1  0.25175300  0.74770500  0.75195800  1
  O  O0  1  0.62146400  0.18556100  0.93181300  1
  O  O1  1  0.20268300  0.20268300  0.94456400  1
  O  O2  1  0.79731700  0.79731700  0.05543600  1
  O  O3  1  0.70383000  0.70383000  0.95353600  1
  O  O4  1  0.37853600  0.81443900  0.06818700  1
  O  O5  1  0.81443900  0.37853600  0.06818700  1
  O  O6  1  0.46708200  0.88640400  0.19442400  1
  O  O7  1  0.18556100  0.62146400  0.93181300  1
  O  O8  1  0.57204100  0.57204100  0.29936400  1
  O  O9  1  0.46947100  0.46947100  0.19036800  1
  O  O10  1  0.71714700  0.71714700  0.44137400  1
  O  O11  1  0.29617000  0.29617000  0.04646400  1
  O  O12  1  0.92832900  0.92832900  0.19974100  1
  O  O13  1  0.86319700  0.29116200  0.55139900  1
  O  O14  1  0.04074500  0.61014000  0.30140100  1
  O  O15  1  0.61014000  0.04074500  0.30140100  1
  O  O16  1  0.88640400  0.46708200  0.19442400  1
  O  O17  1  0.13680300  0.70883800  0.44860100  1
  O  O18  1  0.70883800  0.13680300  0.44860100  1
  O  O19  1  0.78828800  0.78828800  0.55144500  1
  O  O20  1  0.42795900  0.42795900  0.70063600  1
  O  O21  1  0.28285300  0.28285300  0.55862600  1
  O  O22  1  0.21171200  0.21171200  0.44855500  1
  O  O23  1  0.03356800  0.03356800  0.30607100  1
  O  O24  1  0.53291800  0.11359600  0.80557600  1
  O  O25  1  0.29116200  0.86319700  0.55139900  1
  O  O26  1  0.38986000  0.95925500  0.69859900  1
  O  O27  1  0.95925500  0.38986000  0.69859900  1
  O  O28  1  0.96643200  0.96643200  0.69392900  1
  O  O29  1  0.07167100  0.07167100  0.80025900  1
  O  O30  1  0.53052900  0.53052900  0.80963200  1
  O  O31  1  0.11359600  0.53291800  0.80557600  1
loop_
_geom_bond_atom_site_label_1
_geom_bond_atom_site_label_2
_geom_bond_distance
_geom_bond_site_symmetry_2
Na0 O7 2.148714 1_545
Na0 O0 2.148714 1_455
Na0 O29 2.176889 1_555
Na0 O1 2.198438 1_555
Na1 O3 2.200470 1_554
Na1 O11 2.200470 1_555
Na1 O0 2.326975 1_554
Na1 O7 2.326975 1_554
Na1 O4 2.326975 1_555
Na1 O5 2.326975 1_555
Na2 O5 2.148714 1_565
Na2 O4 2.148714 1_655
Na2 O12 2.176889 1_555
Na2 O2 2.198438 1_555
Na3 O11 2.161965 1_555
Na3 O6 2.203849 1_545
Na3 O16 2.203849 1_455
Na3 O9 2.253566 1_555
Na4 O18 2.170154 1_555
Na4 O17 2.170154 1_555
Na4 O8 2.194599 1_555
Na4 O10 2.223509 1_555
Na5 O13 2.170154 1_555
Na5 O25 2.170154 1_555
Na5 O20 2.194599 1_555
Na5 O21 2.223509 1_555
Na6 O14 2.178607 1_555
Na6 O15 2.178607 1_555
Na6 O22 2.183701 1_555
Na6 O23 2.208503 1_555
Na7 O27 2.178607 1_555
Na7 O26 2.178607 1_555
Na7 O19 2.183701 1_555
Na7 O28 2.208503 1_555
Na8 O3 2.161965 1_555
Na8 O24 2.203849 1_565
Na8 O31 2.203849 1_655
Na8 O30 2.253566 1_555
Mn0 O3 1.921556 1_544
Mn0 O11 1.921556 1_555
Mn0 O4 1.934688 1_545
Mn0 O0 1.934688 1_554
Mn0 O1 2.032528 1_554
Mn0 O2 2.032528 1_545
Mn1 O5 1.852353 1_555
Mn1 O4 1.852353 1_555
Mn1 O2 1.990989 1_555
Mn1 O9 2.005288 1_555
Mn1 O16 2.055572 1_555
Mn1 O6 2.055572 1_555
Mn2 O12 1.963996 1_555
Mn2 O14 1.971210 1_655
Mn2 O15 1.971210 1_565
Mn2 O16 1.978415 1_555
Mn2 O6 1.978415 1_555
Mn2 O8 1.982701 1_555
Mn3 O0 1.852353 1_555
Mn3 O7 1.852353 1_555
Mn3 O1 1.990989 1_555
Mn3 O30 2.005288 1_555
Mn3 O24 2.055572 1_555
Mn3 O31 2.055572 1_555
Mn4 O15 1.979796 1_555
Mn4 O9 1.992705 1_555
Mn4 O16 1.997559 1_555
Mn4 O23 2.024098 1_655
Mn4 O12 2.068753 1_545
Mn4 O8 2.084724 1_555
Mn5 O14 1.979796 1_555
Mn5 O9 1.992705 1_555
Mn5 O6 1.997559 1_555
Mn5 O23 2.024098 1_565
Mn5 O12 2.068753 1_455
Mn5 O8 2.084724 1_555
Mn6 O3 1.921556 1_454
Mn6 O11 1.921556 1_555
Mn6 O7 1.934688 1_554
Mn6 O5 1.934688 1_455
Mn6 O1 2.032528 1_554
Mn6 O2 2.032528 1_455
Mn7 O23 1.953530 1_665
Mn7 O10 1.956653 1_555
Mn7 O17 2.144151 1_655
Mn7 O18 2.144151 1_565
Mn7 O14 2.145110 1_655
Mn7 O15 2.145110 1_565
Mn8 O27 1.979796 1_555
Mn8 O30 1.992705 1_555
Mn8 O24 1.997559 1_555
Mn8 O28 2.024098 1_545
Mn8 O29 2.068753 1_655
Mn8 O20 2.084724 1_555
Mn9 O17 1.947382 1_555
Mn9 O13 1.947382 1_455
Mn9 O19 1.950034 1_455
Mn9 O22 1.950034 1_555
Mn9 O21 2.020888 1_555
Mn9 O10 2.020888 1_455
Mn10 O18 1.947382 1_555
Mn10 O25 1.947382 1_545
Mn10 O19 1.950034 1_545
Mn10 O22 1.950034 1_555
Mn10 O21 2.020888 1_555
Mn10 O10 2.020888 1_545
Mn11 O29 1.963996 1_555
Mn11 O26 1.971210 1_545
Mn11 O27 1.971210 1_455
Mn11 O24 1.978415 1_555
Mn11 O31 1.978415 1_555
Mn11 O20 1.982701 1_555
Mn12 O28 1.953530 1_445
Mn12 O21 1.956653 1_555
Mn12 O13 2.144151 1_455
Mn12 O25 2.144151 1_545
Mn12 O26 2.145110 1_545
Mn12 O27 2.145110 1_455
Mn13 O13 1.969832 1_455
Mn13 O25 1.969832 1_545
Mn13 O17 1.969832 1_545
Mn13 O18 1.969832 1_455
Mn13 O19 2.300840 1_445
Mn13 O22 2.300840 1_555
Mn14 O26 1.979796 1_555
Mn14 O30 1.992705 1_555
Mn14 O31 1.997559 1_555
Mn14 O28 2.024098 1_455
Mn14 O29 2.068753 1_565
Mn14 O20 2.084724 1_555
