# generated using pymatgen
data_BaCaEuWO6
_symmetry_space_group_name_H-M   'P 1'
_cell_length_a   5.93214857
_cell_length_b   5.95746799
_cell_length_c   8.39142769
_cell_angle_alpha   90.74287598
_cell_angle_beta   90.45216021
_cell_angle_gamma   90.28727367
_symmetry_Int_Tables_number   1
_chemical_formula_structural   BaCaEuWO6
_chemical_formula_sum   'Ba2 Ca2 Eu2 W2 O12'
_cell_volume   296.51992344
_cell_formula_units_Z   2
loop_
 _symmetry_equiv_pos_site_id
 _symmetry_equiv_pos_as_xyz
  1  'x, y, z'
loop_
 _atom_site_type_symbol
 _atom_site_label
 _atom_site_symmetry_multiplicity
 _atom_site_fract_x
 _atom_site_fract_y
 _atom_site_fract_z
 _atom_site_occupancy
  Ba  Ba0  1  0.50376012  0.52535590  0.25081398  1
  Ba  Ba1  1  0.49623988  0.47464410  0.74918602  1
  Ca  Ca0  1  -0.00000000  0.50000000  0.00000000  1
  Ca  Ca1  1  0.50000000  0.00000000  0.50000000  1
  Eu  Eu0  1  0.99402646  0.04011573  0.25251675  1
  Eu  Eu1  1  0.00597354  0.95988427  0.74748325  1
  W  W0  1  0.50000000  0.00000000  0.00000000  1
  W  W1  1  -0.00000000  0.50000000  0.50000000  1
  O  O0  1  0.23942306  0.19385156  0.95482688  1
  O  O1  1  0.26001727  0.69992737  0.52863168  1
  O  O2  1  0.76057694  0.80614844  0.04517312  1
  O  O3  1  0.73998273  0.30007263  0.47136832  1
  O  O4  1  0.30256358  0.74062222  0.96165078  1
  O  O5  1  0.18740068  0.23256044  0.54112157  1
  O  O6  1  0.69743642  0.25937778  0.03834922  1
  O  O7  1  0.81259932  0.76743956  0.45887843  1
  O  O8  1  0.41436220  0.99803711  0.22678910  1
  O  O9  1  0.05837620  0.46517738  0.27100298  1
  O  O10  1  0.58563780  0.00196289  0.77321090  1
  O  O11  1  0.94162380  0.53482262  0.72899702  1
loop_
_geom_bond_atom_site_label_1
_geom_bond_atom_site_label_2
_geom_bond_distance
_geom_bond_site_symmetry_2
Ba0 O6 2.643261 1_555
Ba0 O9 2.671512 1_555
Ba0 O3 2.689352 1_555
Ba0 O2 2.861439 1_555
Ba0 O8 2.877439 1_555
Ba0 O7 2.888350 1_555
Ba0 O1 2.934723 1_555
Ba0 O4 3.001227 1_554
Ba0 O8 3.186847 1_545
Ba1 O4 2.643261 1_555
Ba1 O11 2.671512 1_555
Ba1 O1 2.689352 1_555
Ba1 O0 2.861439 1_555
Ba1 O10 2.877439 1_555
Ba1 O5 2.888350 1_555
Ba1 O3 2.934723 1_555
Ba1 O6 3.001227 1_556
Ba1 O10 3.186847 1_565
Ca0 O11 2.309767 1_454
Ca0 O9 2.309767 1_555
Ca0 O4 2.318459 1_554
Ca0 O6 2.318459 1_455
Ca0 O0 2.346054 1_554
Ca0 O2 2.346054 1_455
Ca1 O1 2.295907 1_545
Ca1 O3 2.295907 1_555
Ca1 O8 2.344191 1_545
Ca1 O10 2.344191 1_555
Ca1 O5 2.345382 1_555
Ca1 O7 2.345382 1_545
Eu0 O8 2.518000 1_645
Eu0 O9 2.561536 1_655
Eu0 O2 2.601474 1_545
Eu0 O7 2.623108 1_545
Eu0 O3 2.834702 1_555
Eu0 O6 2.840011 1_555
Eu0 O5 2.892479 1_655
Eu0 O0 3.049844 1_654
Eu1 O10 2.518000 1_465
Eu1 O11 2.561536 1_455
Eu1 O0 2.601474 1_565
Eu1 O5 2.623108 1_565
Eu1 O1 2.834702 1_555
Eu1 O4 2.840011 1_555
Eu1 O7 2.892479 1_455
Eu1 O2 3.049844 1_456
O0 W0 1.971509 1_556
O1 W1 1.955466 1_555
O2 W0 1.971509 1_565
O3 W1 1.955466 1_655
O4 W0 1.956037 1_566
O5 W1 1.979741 1_555
O6 W0 1.956037 1_555
O7 W1 1.979741 1_655
O8 W0 1.973759 1_565
O9 W1 1.963781 1_555
O10 W0 1.973759 1_556
O11 W1 1.963781 1_655
