# generated using pymatgen
data_Mg5Ga
_symmetry_space_group_name_H-M   'P 1'
_cell_length_a   16.21154708
_cell_length_b   16.21154708
_cell_length_c   9.84967324
_cell_angle_alpha   90.00000000
_cell_angle_beta   90.00000000
_cell_angle_gamma   157.07513501
_symmetry_Int_Tables_number   1
_chemical_formula_structural   Mg5Ga
_chemical_formula_sum   'Mg40 Ga8'
_cell_volume   1008.33447984
_cell_formula_units_Z   8
loop_
 _symmetry_equiv_pos_site_id
 _symmetry_equiv_pos_as_xyz
  1  'x, y, z'
loop_
 _atom_site_type_symbol
 _atom_site_label
 _atom_site_symmetry_multiplicity
 _atom_site_fract_x
 _atom_site_fract_y
 _atom_site_fract_z
 _atom_site_occupancy
  Mg  Mg0_0  1  0.00026278  0.49973722  0.25000000  1
  Mg  Mg0_1  1  0.00026278  0.49973722  0.75000000  1
  Mg  Mg0_2  1  0.00026278  0.99973722  0.25000000  1
  Mg  Mg0_3  1  0.00026278  0.99973722  0.75000000  1
  Mg  Mg0_4  1  0.50026278  0.49973722  0.25000000  1
  Mg  Mg0_5  1  0.50026278  0.49973722  0.75000000  1
  Mg  Mg0_6  1  0.50026278  0.99973722  0.25000000  1
  Mg  Mg0_7  1  0.50026278  0.99973722  0.75000000  1
  Mg  Mg1_0  1  0.16354715  0.33645285  0.25000000  1
  Mg  Mg1_1  1  0.16354715  0.33645285  0.75000000  1
  Mg  Mg1_2  1  0.16354715  0.83645285  0.25000000  1
  Mg  Mg1_3  1  0.16354715  0.83645285  0.75000000  1
  Mg  Mg1_4  1  0.66354715  0.33645285  0.25000000  1
  Mg  Mg1_5  1  0.66354715  0.33645285  0.75000000  1
  Mg  Mg1_6  1  0.66354715  0.83645286  0.25000000  1
  Mg  Mg1_7  1  0.66354715  0.83645286  0.75000000  1
  Mg  Mg2_0  1  0.33349253  0.16650747  0.25000000  1
  Mg  Mg2_1  1  0.33349253  0.16650747  0.75000000  1
  Mg  Mg2_2  1  0.33349253  0.66650747  0.25000000  1
  Mg  Mg2_3  1  0.33349253  0.66650747  0.75000000  1
  Mg  Mg2_4  1  0.83349253  0.16650747  0.25000000  1
  Mg  Mg2_5  1  0.83349253  0.16650747  0.75000000  1
  Mg  Mg2_6  1  0.83349253  0.66650747  0.25000000  1
  Mg  Mg2_7  1  0.83349253  0.66650747  0.75000000  1
  Mg  Mg3_0  1  0.05999232  0.44000768  0.00000000  1
  Mg  Mg3_1  1  0.05999232  0.44000768  0.50000000  1
  Mg  Mg3_2  1  0.05999232  0.94000768  0.00000000  1
  Mg  Mg3_3  1  0.05999232  0.94000768  0.50000000  1
  Mg  Mg3_4  1  0.55999232  0.44000768  0.00000000  1
  Mg  Mg3_5  1  0.55999232  0.44000768  0.50000000  1
  Mg  Mg3_6  1  0.55999232  0.94000768  0.00000000  1
  Mg  Mg3_7  1  0.55999232  0.94000768  0.50000000  1
  Mg  Mg4_0  1  0.21993139  0.28006861  0.00000000  1
  Mg  Mg4_1  1  0.21993139  0.28006861  0.50000000  1
  Mg  Mg4_2  1  0.21993139  0.78006861  0.00000000  1
  Mg  Mg4_3  1  0.21993139  0.78006861  0.50000000  1
  Mg  Mg4_4  1  0.71993139  0.28006861  0.00000000  1
  Mg  Mg4_5  1  0.71993139  0.28006861  0.50000000  1
  Mg  Mg4_6  1  0.71993139  0.78006861  0.00000000  1
  Mg  Mg4_7  1  0.71993139  0.78006861  0.50000000  1
  Ga  Ga0_0  1  0.38944083  0.11055916  0.00000000  1
  Ga  Ga0_1  1  0.38944083  0.11055916  0.50000000  1
  Ga  Ga0_2  1  0.38944083  0.61055916  0.00000000  1
  Ga  Ga0_3  1  0.38944083  0.61055916  0.50000000  1
  Ga  Ga0_4  1  0.88944084  0.11055917  0.00000000  1
  Ga  Ga0_5  1  0.88944084  0.11055917  0.50000000  1
  Ga  Ga0_6  1  0.88944084  0.61055916  0.00000000  1
  Ga  Ga0_7  1  0.88944084  0.61055916  0.50000000  1
loop_
_geom_bond_atom_site_label_1
_geom_bond_atom_site_label_2
_geom_bond_distance
_geom_bond_site_symmetry_2
Mg0_0 Mg4_4 3.096322 1_455
Mg0_0 Mg4_5 3.096322 1_455
Mg0_0 Mg4_3 3.096322 1_555
Mg0_0 Mg4_2 3.096322 1_555
Mg0_0 Mg2_2 3.096679 1_555
Mg0_0 Mg2_4 3.096679 1_455
Mg0_0 Mg3_1 3.108999 1_555
Mg0_0 Mg3_0 3.108999 1_555
Mg0_0 Mg1_4 3.191802 1_455
Mg0_0 Mg1_2 3.191802 1_555
Mg0_0 Mg0_6 3.221646 1_445
Mg0_0 Mg0_6 3.221646 1_555
Mg0_1 Mg4_4 3.096322 1_456
Mg0_1 Mg4_5 3.096322 1_455
Mg0_1 Mg4_3 3.096322 1_555
Mg0_1 Mg4_2 3.096322 1_556
Mg0_1 Mg2_3 3.096679 1_555
Mg0_1 Mg2_5 3.096679 1_455
Mg0_1 Mg3_0 3.108999 1_556
Mg0_1 Mg3_1 3.108999 1_555
Mg0_1 Mg1_3 3.191802 1_555
Mg0_1 Mg1_5 3.191802 1_455
Mg0_1 Mg0_7 3.221646 1_445
Mg0_1 Mg0_7 3.221646 1_555
Mg0_2 Mg4_7 3.096322 1_455
Mg0_2 Mg4_6 3.096322 1_455
Mg0_2 Mg4_1 3.096322 1_565
Mg0_2 Mg4_0 3.096322 1_565
Mg0_2 Mg2_6 3.096679 1_455
Mg0_2 Mg2_0 3.096679 1_565
Mg0_2 Mg3_3 3.108999 1_555
Mg0_2 Mg3_2 3.108999 1_555
Mg0_2 Mg1_6 3.191802 1_455
Mg0_2 Mg1_0 3.191802 1_565
Mg0_2 Mg0_4 3.221646 1_455
Mg0_2 Mg0_4 3.221646 1_565
Mg0_3 Mg4_7 3.096322 1_455
Mg0_3 Mg4_6 3.096322 1_456
Mg0_3 Mg4_0 3.096322 1_566
Mg0_3 Mg4_1 3.096322 1_565
Mg0_3 Mg2_7 3.096679 1_455
Mg0_3 Mg2_1 3.096679 1_565
Mg0_3 Mg3_3 3.108999 1_555
Mg0_3 Mg3_2 3.108999 1_556
Mg0_3 Mg1_7 3.191802 1_455
Mg0_3 Mg1_1 3.191802 1_565
Mg0_3 Mg0_5 3.221646 1_455
Mg0_3 Mg0_5 3.221646 1_565
Mg0_4 Mg4_6 3.096322 1_555
Mg0_4 Mg4_7 3.096322 1_555
Mg0_4 Mg4_1 3.096322 1_555
Mg0_4 Mg4_0 3.096322 1_555
Mg0_4 Mg2_0 3.096679 1_555
Mg0_4 Mg2_6 3.096679 1_555
Mg0_4 Mg3_5 3.108999 1_555
Mg0_4 Mg3_4 3.108999 1_555
Mg0_4 Mg1_0 3.191802 1_555
Mg0_4 Mg1_6 3.191802 1_555
Mg0_5 Mg4_7 3.096322 1_555
Mg0_5 Mg4_6 3.096322 1_556
Mg0_5 Mg4_1 3.096322 1_555
Mg0_5 Mg4_0 3.096322 1_556
Mg0_5 Mg2_1 3.096679 1_555
Mg0_5 Mg2_7 3.096679 1_555
Mg0_5 Mg3_5 3.108999 1_555
Mg0_5 Mg3_4 3.108999 1_556
Mg0_5 Mg1_1 3.191802 1_555
Mg0_5 Mg1_7 3.191802 1_555
Mg0_6 Mg4_5 3.096322 1_565
Mg0_6 Mg4_4 3.096322 1_565
Mg0_6 Mg4_2 3.096322 1_555
Mg0_6 Mg4_3 3.096322 1_555
Mg0_6 Mg2_4 3.096679 1_565
Mg0_6 Mg2_2 3.096679 1_555
Mg0_6 Mg3_7 3.108999 1_555
Mg0_6 Mg3_6 3.108999 1_555
Mg0_6 Mg1_2 3.191802 1_555
Mg0_6 Mg1_4 3.191802 1_565
Mg0_7 Mg4_4 3.096322 1_566
Mg0_7 Mg4_5 3.096322 1_565
Mg0_7 Mg4_2 3.096322 1_556
Mg0_7 Mg4_3 3.096322 1_555
Mg0_7 Mg2_5 3.096679 1_565
Mg0_7 Mg2_3 3.096679 1_555
Mg0_7 Mg3_7 3.108999 1_555
Mg0_7 Mg3_6 3.108999 1_556
Mg0_7 Mg1_3 3.191802 1_555
Mg0_7 Mg1_5 3.191802 1_565
Mg1_0 Mg2_2 3.010967 1_555
Mg1_0 Mg2_4 3.010967 1_455
Mg1_0 Mg4_0 3.045268 1_555
Mg1_0 Mg4_1 3.045268 1_555
Mg1_0 Mg1_6 3.221646 1_445
Mg1_0 Mg1_6 3.221646 1_555
Mg1_1 Mg2_3 3.010967 1_555
Mg1_1 Mg2_5 3.010967 1_455
Mg1_1 Mg4_0 3.045268 1_556
Mg1_1 Mg4_1 3.045268 1_555
Mg1_1 Mg1_7 3.221646 1_445
Mg1_1 Mg1_7 3.221646 1_555
Mg1_2 Mg2_6 3.010967 1_455
Mg1_2 Mg2_0 3.010967 1_565
Mg1_2 Mg4_2 3.045268 1_555
Mg1_2 Mg4_3 3.045268 1_555
Mg1_2 Mg1_4 3.221646 1_455
Mg1_2 Mg1_4 3.221646 1_565
Mg1_3 Mg2_7 3.010967 1_455
Mg1_3 Mg2_1 3.010967 1_565
Mg1_3 Mg4_2 3.045268 1_556
Mg1_3 Mg4_3 3.045268 1_555
Mg1_3 Mg1_5 3.221646 1_455
Mg1_3 Mg1_5 3.221646 1_565
Mg1_4 Mg2_6 3.010967 1_555
Mg1_4 Mg2_0 3.010967 1_555
Mg1_4 Mg4_5 3.045268 1_555
Mg1_4 Mg4_4 3.045268 1_555
Mg1_5 Mg2_1 3.010967 1_555
Mg1_5 Mg2_7 3.010967 1_555
Mg1_5 Mg4_5 3.045268 1_555
Mg1_5 Mg4_4 3.045268 1_556
Mg1_6 Mg2_4 3.010967 1_565
Mg1_6 Mg2_2 3.010967 1_555
Mg1_6 Mg4_7 3.045268 1_555
Mg1_6 Mg4_6 3.045268 1_555
Mg1_7 Mg2_5 3.010967 1_565
Mg1_7 Mg2_3 3.010967 1_555
Mg1_7 Mg4_7 3.045268 1_555
Mg1_7 Mg4_6 3.045268 1_556
Mg2_0 Mg3_5 3.035769 1_555
Mg2_0 Mg3_3 3.035769 1_545
Mg2_0 Mg3_2 3.035769 1_545
Mg2_0 Mg3_4 3.035769 1_555
Mg2_0 Mg2_6 3.221646 1_445
Mg2_0 Mg2_6 3.221646 1_555
Mg2_1 Mg3_4 3.035769 1_556
Mg2_1 Mg3_5 3.035769 1_555
Mg2_1 Mg3_2 3.035769 1_546
Mg2_1 Mg3_3 3.035769 1_545
Mg2_1 Mg2_7 3.221646 1_445
Mg2_1 Mg2_7 3.221646 1_555
Mg2_2 Mg3_1 3.035769 1_555
Mg2_2 Mg3_0 3.035769 1_555
Mg2_2 Mg3_7 3.035769 1_555
Mg2_2 Mg3_6 3.035769 1_555
Mg2_2 Mg2_4 3.221646 1_565
Mg2_2 Mg2_4 3.221646 1_455
Mg2_3 Mg3_0 3.035769 1_556
Mg2_3 Mg3_1 3.035769 1_555
Mg2_3 Mg3_7 3.035769 1_555
Mg2_3 Mg3_6 3.035769 1_556
Mg2_3 Mg2_5 3.221646 1_565
Mg2_3 Mg2_5 3.221646 1_455
Mg2_4 Mg3_6 3.035769 1_545
Mg2_4 Mg3_0 3.035769 1_655
Mg2_4 Mg3_7 3.035769 1_545
Mg2_4 Mg3_1 3.035769 1_655
Mg2_5 Mg3_0 3.035769 1_656
Mg2_5 Mg3_6 3.035769 1_546
Mg2_5 Mg3_7 3.035769 1_545
Mg2_5 Mg3_1 3.035769 1_655
Mg2_6 Mg3_3 3.035769 1_655
Mg2_6 Mg3_2 3.035769 1_655
Mg2_6 Mg3_4 3.035769 1_555
Mg2_6 Mg3_5 3.035769 1_555
Mg2_7 Mg3_3 3.035769 1_655
Mg2_7 Mg3_2 3.035769 1_656
Mg2_7 Mg3_4 3.035769 1_556
Mg2_7 Mg3_5 3.035769 1_555
Ga0_0 Mg3_2 2.994713 1_545
Ga0_0 Mg3_4 2.994713 1_555
Ga0_0 Mg4_2 3.022679 1_545
Ga0_0 Mg4_4 3.022679 1_555
Ga0_0 Mg2_1 3.037138 1_554
Ga0_0 Mg2_0 3.037138 1_555
Ga0_0 Mg1_2 3.040564 1_545
Ga0_0 Mg1_3 3.040564 1_544
Ga0_0 Mg1_4 3.040564 1_555
Ga0_0 Mg1_5 3.040564 1_554
Ga0_1 Mg3_3 2.994713 1_545
Ga0_1 Mg3_5 2.994713 1_555
Ga0_1 Mg4_3 3.022679 1_545
Ga0_1 Mg4_5 3.022679 1_555
Ga0_1 Mg2_1 3.037138 1_555
Ga0_1 Mg2_0 3.037138 1_555
Ga0_1 Mg1_5 3.040564 1_555
Ga0_1 Mg1_2 3.040564 1_545
Ga0_1 Mg1_3 3.040564 1_545
Ga0_1 Mg1_4 3.040564 1_555
Ga0_2 Mg3_0 2.994713 1_555
Ga0_2 Mg3_6 2.994713 1_555
Ga0_2 Mg4_0 3.022679 1_555
Ga0_2 Mg4_6 3.022679 1_555
Ga0_2 Mg2_3 3.037138 1_554
Ga0_2 Mg2_2 3.037138 1_555
Ga0_2 Mg1_0 3.040564 1_555
Ga0_2 Mg1_1 3.040564 1_554
Ga0_2 Mg1_7 3.040564 1_554
Ga0_2 Mg1_6 3.040564 1_555
Ga0_3 Mg3_1 2.994713 1_555
Ga0_3 Mg3_7 2.994713 1_555
Ga0_3 Mg4_1 3.022679 1_555
Ga0_3 Mg4_7 3.022679 1_555
Ga0_3 Mg2_2 3.037138 1_555
Ga0_3 Mg2_3 3.037138 1_555
Ga0_3 Mg1_1 3.040564 1_555
Ga0_3 Mg1_0 3.040564 1_555
Ga0_3 Mg1_6 3.040564 1_555
Ga0_3 Mg1_7 3.040564 1_555
Ga0_4 Mg3_0 2.994713 1_655
Ga0_4 Mg3_6 2.994713 1_545
Ga0_4 Mg4_0 3.022679 1_655
Ga0_4 Mg4_6 3.022679 1_545
Ga0_4 Mg2_5 3.037138 1_554
Ga0_4 Mg2_4 3.037138 1_555
Ga0_4 Mg1_1 3.040564 1_654
Ga0_4 Mg1_0 3.040564 1_655
Ga0_4 Mg1_6 3.040564 1_545
Ga0_4 Mg1_7 3.040564 1_544
Ga0_5 Mg3_1 2.994713 1_655
Ga0_5 Mg3_7 2.994713 1_545
Ga0_5 Mg4_1 3.022679 1_655
Ga0_5 Mg4_7 3.022679 1_545
Ga0_5 Mg2_4 3.037138 1_555
Ga0_5 Mg2_5 3.037138 1_555
Ga0_5 Mg1_0 3.040564 1_655
Ga0_5 Mg1_1 3.040564 1_655
Ga0_5 Mg1_6 3.040564 1_545
Ga0_5 Mg1_7 3.040564 1_545
Ga0_6 Mg3_2 2.994713 1_655
Ga0_6 Mg3_4 2.994713 1_555
Ga0_6 Mg4_2 3.022679 1_655
Ga0_6 Mg4_4 3.022679 1_555
Ga0_6 Mg2_6 3.037138 1_555
Ga0_6 Mg2_7 3.037138 1_554
Ga0_6 Mg1_4 3.040564 1_555
Ga0_6 Mg1_5 3.040564 1_554
Ga0_6 Mg1_3 3.040564 1_654
Ga0_6 Mg1_2 3.040564 1_655
Ga0_7 Mg3_3 2.994713 1_655
Ga0_7 Mg3_5 2.994713 1_555
Ga0_7 Mg4_3 3.022679 1_655
Ga0_7 Mg4_5 3.022679 1_555
Ga0_7 Mg2_6 3.037138 1_555
Ga0_7 Mg2_7 3.037138 1_555
Ga0_7 Mg1_4 3.040564 1_555
Ga0_7 Mg1_5 3.040564 1_555
Ga0_7 Mg1_3 3.040564 1_655
Ga0_7 Mg1_2 3.040564 1_655
