# generated using pymatgen
data_Lu2Cu2O5
_symmetry_space_group_name_H-M   'P 1'
_cell_length_a   3.41841200
_cell_length_b   10.76567900
_cell_length_c   12.36820300
_cell_angle_alpha   90.00000000
_cell_angle_beta   90.00000000
_cell_angle_gamma   90.00000000
_symmetry_Int_Tables_number   1
_chemical_formula_structural   Lu2Cu2O5
_chemical_formula_sum   'Lu8 Cu8 O20'
_cell_volume   455.16874776
_cell_formula_units_Z   4
loop_
 _symmetry_equiv_pos_site_id
 _symmetry_equiv_pos_as_xyz
  1  'x, y, z'
loop_
 _atom_site_type_symbol
 _atom_site_label
 _atom_site_symmetry_multiplicity
 _atom_site_fract_x
 _atom_site_fract_y
 _atom_site_fract_z
 _atom_site_occupancy
  Lu  Lu0  1  0.27626500  0.54222400  0.16952900  1
  Lu  Lu1  1  0.72373500  0.45777600  0.66952900  1
  Lu  Lu2  1  0.22373500  0.04222400  0.16952900  1
  Lu  Lu3  1  0.77626500  0.95777600  0.66952900  1
  Lu  Lu4  1  0.27679700  0.70802200  0.49752700  1
  Lu  Lu5  1  0.72320300  0.29197800  0.99752700  1
  Lu  Lu6  1  0.22320300  0.20802200  0.49752700  1
  Lu  Lu7  1  0.77679700  0.79197800  0.99752700  1
  Cu  Cu0  1  0.84565500  0.76160500  0.27984200  1
  Cu  Cu1  1  0.15434500  0.23839500  0.77984200  1
  Cu  Cu2  1  0.65434500  0.26160500  0.27984200  1
  Cu  Cu3  1  0.34565500  0.73839500  0.77984200  1
  Cu  Cu4  1  0.84069900  0.48904900  0.38765900  1
  Cu  Cu5  1  0.15930100  0.51095100  0.88765900  1
  Cu  Cu6  1  0.65930100  0.98904900  0.38765900  1
  Cu  Cu7  1  0.34069900  0.01095100  0.88765900  1
  O  O0  1  0.27146100  0.92158400  0.02841400  1
  O  O1  1  0.72853900  0.07841600  0.52841400  1
  O  O2  1  0.22853900  0.42158400  0.02841400  1
  O  O3  1  0.77146100  0.57841600  0.52841400  1
  O  O4  1  0.72371600  0.93013900  0.23470500  1
  O  O5  1  0.27628400  0.06986100  0.73470500  1
  O  O6  1  0.77628400  0.43013900  0.23470500  1
  O  O7  1  0.22371600  0.56986100  0.73470500  1
  O  O8  1  0.17425000  0.62482000  0.33361800  1
  O  O9  1  0.82575000  0.37518000  0.83361800  1
  O  O10  1  0.32575000  0.12482000  0.33361800  1
  O  O11  1  0.67425000  0.87518000  0.83361800  1
  O  O12  1  0.78089700  0.82051800  0.43320600  1
  O  O13  1  0.21910300  0.17948200  0.93320600  1
  O  O14  1  0.71910300  0.32051800  0.43320600  1
  O  O15  1  0.28089700  0.67948200  0.93320600  1
  O  O16  1  0.27650000  0.82810500  0.63920100  1
  O  O17  1  0.72350000  0.17189500  0.13920100  1
  O  O18  1  0.22350000  0.32810500  0.63920100  1
  O  O19  1  0.77650000  0.67189500  0.13920100  1
loop_
_geom_bond_atom_site_label_1
_geom_bond_atom_site_label_2
_geom_bond_distance
_geom_bond_site_symmetry_2
Lu0 O2 2.181658 1_555
Lu0 O19 2.237889 1_455
Lu0 O19 2.239116 1_555
Lu0 O6 2.242104 1_455
Lu0 O6 2.242203 1_555
Lu0 O8 2.243013 1_555
Lu1 O3 2.181658 1_555
Lu1 O18 2.237889 1_655
Lu1 O18 2.239116 1_555
Lu1 O7 2.242104 1_655
Lu1 O7 2.242203 1_555
Lu1 O9 2.243013 1_555
Lu2 O0 2.181658 1_545
Lu2 O17 2.237889 1_555
Lu2 O17 2.239116 1_455
Lu2 O4 2.242104 1_545
Lu2 O4 2.242203 1_445
Lu2 O10 2.243013 1_555
Lu3 O1 2.181658 1_565
Lu3 O16 2.237889 1_555
Lu3 O16 2.239116 1_655
Lu3 O5 2.242104 1_565
Lu3 O5 2.242203 1_665
Lu3 O11 2.243013 1_555
Lu4 O16 2.177535 1_555
Lu4 O3 2.225343 1_555
Lu4 O12 2.230090 1_455
Lu4 O8 2.243879 1_555
Lu4 O12 2.251471 1_555
Lu4 O3 2.253189 1_455
Lu5 O17 2.177535 1_556
Lu5 O2 2.225343 1_556
Lu5 O13 2.230090 1_655
Lu5 O9 2.243879 1_555
Lu5 O13 2.251471 1_555
Lu5 O2 2.253189 1_656
Lu6 O18 2.177535 1_555
Lu6 O1 2.225343 1_455
Lu6 O14 2.230090 1_555
Lu6 O10 2.243879 1_555
Lu6 O14 2.251471 1_455
Lu6 O1 2.253189 1_555
Lu7 O19 2.177535 1_556
Lu7 O0 2.225343 1_656
Lu7 O15 2.230090 1_555
Lu7 O11 2.243879 1_555
Lu7 O15 2.251471 1_655
Lu7 O0 2.253189 1_556
Cu0 O4 1.943553 1_555
Cu0 O8 1.967897 1_655
Cu0 O19 2.003600 1_555
Cu0 O12 2.012276 1_555
Cu1 O5 1.943553 1_555
Cu1 O9 1.967897 1_455
Cu1 O18 2.003600 1_555
Cu1 O13 2.012276 1_555
Cu2 O6 1.943553 1_555
Cu2 O10 1.967897 1_555
Cu2 O17 2.003600 1_555
Cu2 O14 2.012276 1_555
Cu3 O7 1.943553 1_555
Cu3 O11 1.967897 1_555
Cu3 O16 2.003600 1_555
Cu3 O15 2.012276 1_555
Cu4 O14 1.944734 1_555
Cu4 O8 1.970610 1_655
Cu4 O3 2.003081 1_555
Cu4 O6 2.007357 1_555
Cu5 O15 1.944734 1_555
Cu5 O9 1.970610 1_455
Cu5 O2 2.003081 1_556
Cu5 O7 2.007357 1_555
Cu6 O12 1.944734 1_555
Cu6 O10 1.970610 1_565
Cu6 O1 2.003081 1_565
Cu6 O4 2.007357 1_555
Cu7 O13 1.944734 1_555
Cu7 O11 1.970610 1_545
Cu7 O0 2.003081 1_546
Cu7 O5 2.007357 1_555
