# generated using pymatgen
data_Li2MnF4
_symmetry_space_group_name_H-M   'P 1'
_cell_length_a   6.47818800
_cell_length_b   5.23599600
_cell_length_c   10.54764407
_cell_angle_alpha   67.36200983
_cell_angle_beta   90.00000000
_cell_angle_gamma   90.00000000
_symmetry_Int_Tables_number   1
_chemical_formula_structural   Li2MnF4
_chemical_formula_sum   'Li8 Mn4 F16'
_cell_volume   330.20902820
_cell_formula_units_Z   4
loop_
 _symmetry_equiv_pos_site_id
 _symmetry_equiv_pos_as_xyz
  1  'x, y, z'
loop_
 _atom_site_type_symbol
 _atom_site_label
 _atom_site_symmetry_multiplicity
 _atom_site_fract_x
 _atom_site_fract_y
 _atom_site_fract_z
 _atom_site_occupancy
  Li  Li0  1  0.48217700  0.65787200  0.57631400  1
  Li  Li1  1  0.98217700  0.34212800  0.92368600  1
  Li  Li2  1  0.48167100  0.34018900  0.92476100  1
  Li  Li3  1  0.98167100  0.65981100  0.57523900  1
  Li  Li4  1  0.01832900  0.34018900  0.42476100  1
  Li  Li5  1  0.51832900  0.65981100  0.07523900  1
  Li  Li6  1  0.01782300  0.65787200  0.07631400  1
  Li  Li7  1  0.51782300  0.34212800  0.42368600  1
  Mn  Mn0  1  0.76315800  0.99894200  0.25056200  1
  Mn  Mn1  1  0.26315800  0.00105800  0.24943800  1
  Mn  Mn2  1  0.73684200  0.99894200  0.75056200  1
  Mn  Mn3  1  0.23684200  0.00105800  0.74943800  1
  F  F0  1  0.73191200  0.74994300  0.63891200  1
  F  F1  1  0.23156300  0.78231000  0.62239500  1
  F  F2  1  0.51435000  0.25687300  0.12335600  1
  F  F3  1  0.01135800  0.25562400  0.12261800  1
  F  F4  1  0.73156300  0.21769000  0.87760500  1
  F  F5  1  0.23191200  0.25005700  0.86108800  1
  F  F6  1  0.98565000  0.25687300  0.62335600  1
  F  F7  1  0.51135800  0.74437600  0.37738200  1
  F  F8  1  0.48864200  0.25562400  0.62261800  1
  F  F9  1  0.01435000  0.74312700  0.37664400  1
  F  F10  1  0.76808800  0.74994300  0.13891200  1
  F  F11  1  0.26843700  0.78231000  0.12239500  1
  F  F12  1  0.98864200  0.74437600  0.87738200  1
  F  F13  1  0.48565000  0.74312700  0.87664400  1
  F  F14  1  0.76843700  0.21769000  0.37760500  1
  F  F15  1  0.26808800  0.25005700  0.36108800  1
loop_
_geom_bond_atom_site_label_1
_geom_bond_atom_site_label_2
_geom_bond_distance
_geom_bond_site_symmetry_2
F0 Li0 1.879031 1_555
F0 Li3 1.880328 1_555
F0 Mn2 2.066300 1_555
F1 Li3 1.877511 1_455
F1 Li0 1.881592 1_555
F1 Mn3 2.071266 1_565
F2 Li5 1.971075 1_555
F2 Li2 1.979766 1_554
F2 Mn0 2.197087 1_545
F2 Mn1 2.199866 1_555
F3 Li6 1.970879 1_555
F3 Li1 1.977874 1_454
F3 Mn0 2.194662 1_445
F3 Mn1 2.203234 1_555
F4 Li2 1.877511 1_555
F4 Li1 1.881592 1_555
F4 Mn2 2.071266 1_545
F5 Li1 1.879031 1_455
F5 Li2 1.880328 1_555
F5 Mn3 2.066300 1_555
F6 Li3 1.971075 1_555
F6 Li4 1.979766 1_655
F6 Mn2 2.197087 1_545
F6 Mn3 2.199866 1_655
F7 Li7 1.970879 1_555
F7 Li0 1.977874 1_555
F7 Mn1 2.194662 1_565
F7 Mn0 2.203234 1_555
F8 Li0 1.970879 1_555
F8 Li7 1.977874 1_555
F8 Mn2 2.194662 1_545
F8 Mn3 2.203234 1_555
F9 Li4 1.971075 1_555
F9 Li3 1.979766 1_455
F9 Mn1 2.197087 1_565
F9 Mn0 2.199866 1_455
F10 Li6 1.879031 1_655
F10 Li5 1.880328 1_555
F10 Mn0 2.066300 1_555
F11 Li5 1.877511 1_555
F11 Li6 1.881592 1_555
F11 Mn1 2.071266 1_565
F12 Li1 1.970879 1_555
F12 Li6 1.977874 1_656
F12 Mn3 2.194662 1_665
F12 Mn2 2.203234 1_555
F13 Li2 1.971075 1_555
F13 Li5 1.979766 1_556
F13 Mn3 2.197087 1_565
F13 Mn2 2.199866 1_555
F14 Li4 1.877511 1_655
F14 Li7 1.881592 1_555
F14 Mn0 2.071266 1_545
F15 Li7 1.879031 1_555
F15 Li4 1.880328 1_555
F15 Mn1 2.066300 1_555
