# generated using pymatgen
data_Te2Mo3W(Se2S)2
_symmetry_space_group_name_H-M   'P 1'
_cell_length_a   3.34314705
_cell_length_b   3.34314705
_cell_length_c   38.02833000
_cell_angle_alpha   90.00000000
_cell_angle_beta   90.00000000
_cell_angle_gamma   119.99998121
_symmetry_Int_Tables_number   1
_chemical_formula_structural   Te2Mo3W(Se2S)2
_chemical_formula_sum   'Te2 Mo3 W1 Se4 S2'
_cell_volume   368.08568452
_cell_formula_units_Z   1
loop_
 _symmetry_equiv_pos_site_id
 _symmetry_equiv_pos_as_xyz
  1  'x, y, z'
loop_
 _atom_site_type_symbol
 _atom_site_label
 _atom_site_symmetry_multiplicity
 _atom_site_fract_x
 _atom_site_fract_y
 _atom_site_fract_z
 _atom_site_occupancy
  Te  Te0  1  0.33333300  0.66666700  0.33168600  1
  Te  Te1  1  0.33333300  0.66666700  0.23195100  1
  Mo  Mo0  1  0.33333300  0.66666700  0.09387600  1
  Mo  Mo1  1  0.33333300  0.66666700  0.46967400  1
  Mo  Mo2  1  0.66666700  0.33333300  0.28182400  1
  W  W0  1  0.66666700  0.33333300  0.65753800  1
  Se  Se0  1  0.33333300  0.66666700  0.70151700  1
  Se  Se1  1  0.66666700  0.33333300  0.05011900  1
  Se  Se2  1  0.66666700  0.33333300  0.13767600  1
  Se  Se3  1  0.33333300  0.66666700  0.61353900  1
  S  S0  1  0.66666700  0.33333300  0.42975800  1
  S  S1  1  0.66666700  0.33333300  0.50958900  1
loop_
_geom_bond_atom_site_label_1
_geom_bond_atom_site_label_2
_geom_bond_distance
_geom_bond_site_symmetry_2
Mo0 Se1 2.548422 1_455
Mo0 Se1 2.548422 1_565
Mo0 Se1 2.548426 1_555
Mo0 Se2 2.549490 1_455
Mo0 Se2 2.549490 1_565
Mo0 Se2 2.549494 1_555
Mo1 S1 2.455516 1_455
Mo1 S1 2.455516 1_565
Mo1 S1 2.455521 1_555
Mo1 S0 2.455540 1_455
Mo1 S0 2.455540 1_565
Mo1 S0 2.455544 1_555
Mo2 Te0 2.705733 1_545
Mo2 Te0 2.705733 1_655
Mo2 Te0 2.705737 1_555
Mo2 Te1 2.706027 1_545
Mo2 Te1 2.706027 1_655
Mo2 Te1 2.706030 1_555
Se0 W0 2.553942 1_565
Se0 W0 2.553942 1_455
Se0 W0 2.553946 1_555
Se3 W0 2.554440 1_455
Se3 W0 2.554440 1_565
Se3 W0 2.554444 1_555
