# generated using pymatgen
data_Mg2WN2
_symmetry_space_group_name_H-M   'P 1'
_cell_length_a   5.29953357
_cell_length_b   5.29953357
_cell_length_c   6.06031687
_cell_angle_alpha   71.98878870
_cell_angle_beta   71.98878870
_cell_angle_gamma   49.86457789
_symmetry_Int_Tables_number   1
_chemical_formula_structural   Mg2WN2
_chemical_formula_sum   'Mg4 W2 N4'
_cell_volume   122.32680139
_cell_formula_units_Z   2
loop_
 _symmetry_equiv_pos_site_id
 _symmetry_equiv_pos_as_xyz
  1  'x, y, z'
loop_
 _atom_site_type_symbol
 _atom_site_label
 _atom_site_symmetry_multiplicity
 _atom_site_fract_x
 _atom_site_fract_y
 _atom_site_fract_z
 _atom_site_occupancy
  Mg  Mg0  1  0.33261800  0.33261800  0.59438800  1
  Mg  Mg1  1  0.66738200  0.66738200  0.40561200  1
  Mg  Mg2  1  0.99736100  0.99736100  0.74034200  1
  Mg  Mg3  1  0.00263900  0.00263900  0.25965800  1
  W  W0  1  0.66135300  0.66135300  0.90396100  1
  W  W1  1  0.33864700  0.33864700  0.09603900  1
  N  N0  1  0.82469400  0.82469400  0.60277400  1
  N  N1  1  0.17530600  0.17530600  0.39722600  1
  N  N2  1  0.49725500  0.49725500  0.24183100  1
  N  N3  1  0.50274500  0.50274500  0.75816900  1
loop_
_geom_bond_atom_site_label_1
_geom_bond_atom_site_label_2
_geom_bond_distance
_geom_bond_site_symmetry_2
Mg0 N2 2.182511 1_555
Mg0 N3 2.183045 1_555
Mg0 N1 2.223915 1_555
Mg0 N0 2.235287 1_545
Mg0 N0 2.235287 1_455
Mg1 N3 2.182511 1_555
Mg1 N2 2.183045 1_555
Mg1 N0 2.223915 1_555
Mg1 N1 2.235287 1_655
Mg1 N1 2.235287 1_565
Mg2 N0 2.095885 1_555
Mg2 N1 2.196281 1_665
Mg2 N3 2.238063 1_655
Mg2 N3 2.238063 1_565
Mg3 N1 2.095885 1_555
Mg3 N0 2.196281 1_445
Mg3 N2 2.238063 1_545
Mg3 N2 2.238063 1_455
N0 W0 1.960135 1_555
N1 W1 1.960135 1_555
N2 W1 2.005760 1_555
N2 W0 2.116091 1_554
N3 W0 2.005760 1_555
N3 W1 2.116091 1_556
