# generated using pymatgen
data_CaMg2
_symmetry_space_group_name_H-M   'P 1'
_cell_length_a   13.27697091
_cell_length_b   13.27697091
_cell_length_c   13.27697091
_cell_angle_alpha   147.50159482
_cell_angle_beta   147.50159482
_cell_angle_gamma   46.62165892
_symmetry_Int_Tables_number   1
_chemical_formula_structural   CaMg2
_chemical_formula_sum   'Ca8 Mg16'
_cell_volume   673.16179325
_cell_formula_units_Z   8
loop_
 _symmetry_equiv_pos_site_id
 _symmetry_equiv_pos_as_xyz
  1  'x, y, z'
loop_
 _atom_site_type_symbol
 _atom_site_label
 _atom_site_symmetry_multiplicity
 _atom_site_fract_x
 _atom_site_fract_y
 _atom_site_fract_z
 _atom_site_occupancy
  Ca  Ca0_0  1  0.25000000  0.25000000  0.00000000  1
  Ca  Ca0_1  1  0.25000000  0.25000000  0.50000000  1
  Ca  Ca0_2  1  0.25000000  0.75000000  0.00000000  1
  Ca  Ca0_3  1  0.25000000  0.75000000  0.50000000  1
  Ca  Ca0_4  1  0.75000000  0.25000000  0.00000000  1
  Ca  Ca0_5  1  0.75000000  0.25000000  0.50000000  1
  Ca  Ca0_6  1  0.75000000  0.75000000  0.00000000  1
  Ca  Ca0_7  1  0.75000000  0.75000000  0.50000000  1
  Mg  Mg0_0  1  0.40805649  0.40805650  0.00000000  1
  Mg  Mg0_1  1  0.40805649  0.40805649  0.50000000  1
  Mg  Mg0_2  1  0.40805649  0.90805649  0.00000000  1
  Mg  Mg0_3  1  0.40805649  0.90805649  0.50000000  1
  Mg  Mg0_4  1  0.90805649  0.40805650  0.00000000  1
  Mg  Mg0_5  1  0.90805649  0.40805650  0.50000000  1
  Mg  Mg0_6  1  0.90805649  0.90805649  0.00000000  1
  Mg  Mg0_7  1  0.90805649  0.90805649  0.50000000  1
  Mg  Mg1_0  1  0.09194350  0.09194351  0.00000000  1
  Mg  Mg1_1  1  0.09194351  0.09194351  0.50000000  1
  Mg  Mg1_2  1  0.09194350  0.59194351  0.00000000  1
  Mg  Mg1_3  1  0.09194350  0.59194350  0.50000000  1
  Mg  Mg1_4  1  0.59194351  0.09194351  0.00000000  1
  Mg  Mg1_5  1  0.59194350  0.09194351  0.50000000  1
  Mg  Mg1_6  1  0.59194350  0.59194351  0.00000000  1
  Mg  Mg1_7  1  0.59194350  0.59194351  0.50000000  1
loop_
_geom_bond_atom_site_label_1
_geom_bond_atom_site_label_2
_geom_bond_distance
_geom_bond_site_symmetry_2
Ca0_0 Mg1_7 3.453741 1_555
Ca0_0 Mg0_1 3.453741 1_555
Ca0_0 Mg1_1 3.453741 1_554
Ca0_0 Mg1_2 3.453741 1_555
Ca0_0 Mg0_7 3.453741 1_444
Ca0_0 Mg0_2 3.453741 1_545
Ca0_0 Mg1_4 3.453741 1_555
Ca0_0 Mg0_4 3.453741 1_455
Ca0_0 Ca0_5 3.715104 1_555
Ca0_0 Ca0_3 3.715104 1_555
Ca0_0 Ca0_3 3.715104 1_544
Ca0_0 Ca0_5 3.715104 1_454
Ca0_1 Mg1_3 3.453741 1_555
Ca0_1 Mg1_5 3.453741 1_555
Ca0_1 Mg1_6 3.453741 1_556
Ca0_1 Mg1_0 3.453741 1_555
Ca0_1 Mg0_3 3.453741 1_545
Ca0_1 Mg0_0 3.453741 1_556
Ca0_1 Mg0_5 3.453741 1_455
Ca0_1 Mg0_6 3.453741 1_445
Ca0_1 Ca0_4 3.715104 1_556
Ca0_1 Ca0_2 3.715104 1_545
Ca0_1 Ca0_2 3.715104 1_556
Ca0_1 Ca0_4 3.715104 1_455
Ca0_2 Mg1_0 3.453741 1_565
Ca0_2 Mg1_3 3.453741 1_554
Ca0_2 Mg0_0 3.453741 1_555
Ca0_2 Mg0_3 3.453741 1_555
Ca0_2 Mg0_5 3.453741 1_454
Ca0_2 Mg1_6 3.453741 1_555
Ca0_2 Mg1_5 3.453741 1_565
Ca0_2 Mg0_6 3.453741 1_455
Ca0_2 Ca0_7 3.715104 1_555
Ca0_2 Ca0_7 3.715104 1_454
Ca0_3 Mg1_1 3.453741 1_565
Ca0_3 Mg0_1 3.453741 1_555
Ca0_3 Mg1_2 3.453741 1_555
Ca0_3 Mg1_7 3.453741 1_555
Ca0_3 Mg0_2 3.453741 1_556
Ca0_3 Mg0_4 3.453741 1_455
Ca0_3 Mg0_7 3.453741 1_455
Ca0_3 Mg1_4 3.453741 1_566
Ca0_3 Ca0_6 3.715104 1_556
Ca0_3 Ca0_6 3.715104 1_455
Ca0_4 Mg0_5 3.453741 1_555
Ca0_4 Mg1_5 3.453741 1_554
Ca0_4 Mg1_3 3.453741 1_655
Ca0_4 Mg0_0 3.453741 1_555
Ca0_4 Mg1_6 3.453741 1_555
Ca0_4 Mg1_0 3.453741 1_655
Ca0_4 Mg0_3 3.453741 1_544
Ca0_4 Mg0_6 3.453741 1_545
Ca0_4 Ca0_7 3.715104 1_555
Ca0_4 Ca0_7 3.715104 1_544
Ca0_5 Mg0_1 3.453741 1_555
Ca0_5 Mg1_7 3.453741 1_555
Ca0_5 Mg1_4 3.453741 1_555
Ca0_5 Mg0_4 3.453741 1_556
Ca0_5 Mg1_1 3.453741 1_655
Ca0_5 Mg1_2 3.453741 1_656
Ca0_5 Mg0_2 3.453741 1_545
Ca0_5 Mg0_7 3.453741 1_545
Ca0_5 Ca0_6 3.715104 1_545
Ca0_5 Ca0_6 3.715104 1_556
Ca0_6 Mg1_1 3.453741 1_665
Ca0_6 Mg1_7 3.453741 1_554
Ca0_6 Mg1_2 3.453741 1_655
Ca0_6 Mg0_7 3.453741 1_555
Ca0_6 Mg0_1 3.453741 1_554
Ca0_6 Mg1_4 3.453741 1_565
Ca0_6 Mg0_2 3.453741 1_555
Ca0_6 Mg0_4 3.453741 1_555
Ca0_7 Mg1_6 3.453741 1_555
Ca0_7 Mg1_0 3.453741 1_666
Ca0_7 Mg0_0 3.453741 1_555
Ca0_7 Mg0_3 3.453741 1_555
Ca0_7 Mg0_5 3.453741 1_555
Ca0_7 Mg1_3 3.453741 1_655
Ca0_7 Mg0_6 3.453741 1_556
Ca0_7 Mg1_5 3.453741 1_565
Mg0_0 Mg1_4 3.082267 1_555
Mg0_0 Mg1_7 3.082267 1_555
Mg0_0 Mg1_2 3.082267 1_555
Mg0_0 Mg1_1 3.082267 1_554
Mg0_1 Mg1_5 3.082267 1_555
Mg0_1 Mg1_0 3.082267 1_555
Mg0_1 Mg1_6 3.082267 1_556
Mg0_1 Mg1_3 3.082267 1_555
Mg0_2 Mg1_5 3.082267 1_565
Mg0_2 Mg1_0 3.082267 1_565
Mg0_2 Mg1_3 3.082267 1_554
Mg0_2 Mg1_6 3.082267 1_555
Mg0_3 Mg1_4 3.082267 1_566
Mg0_3 Mg1_7 3.082267 1_555
Mg0_3 Mg1_2 3.082267 1_555
Mg0_3 Mg1_1 3.082267 1_565
Mg0_4 Mg1_3 3.082267 1_655
Mg0_4 Mg1_6 3.082267 1_555
Mg0_4 Mg1_0 3.082267 1_655
Mg0_4 Mg1_5 3.082267 1_554
Mg0_5 Mg1_4 3.082267 1_555
Mg0_5 Mg1_7 3.082267 1_555
Mg0_5 Mg1_2 3.082267 1_656
Mg0_5 Mg1_1 3.082267 1_655
Mg0_6 Mg1_4 3.082267 1_565
Mg0_6 Mg1_7 3.082267 1_554
Mg0_6 Mg1_1 3.082267 1_665
Mg0_6 Mg1_2 3.082267 1_655
Mg0_7 Mg1_5 3.082267 1_565
Mg0_7 Mg1_6 3.082267 1_555
Mg0_7 Mg1_0 3.082267 1_666
Mg0_7 Mg1_3 3.082267 1_655
