# generated using pymatgen
data_Al2Si2H4O9
_symmetry_space_group_name_H-M   'P 1'
_cell_length_a   5.27162293
_cell_length_b   5.23861764
_cell_length_c   7.29663051
_cell_angle_alpha   90.39509329
_cell_angle_beta   89.21474162
_cell_angle_gamma   120.20862890
_symmetry_Int_Tables_number   1
_chemical_formula_structural   Al2Si2H4O9
_chemical_formula_sum   'Al2 Si2 H4 O9'
_cell_volume   174.12309675
_cell_formula_units_Z   1
loop_
 _symmetry_equiv_pos_site_id
 _symmetry_equiv_pos_as_xyz
  1  'x, y, z'
loop_
 _atom_site_type_symbol
 _atom_site_label
 _atom_site_symmetry_multiplicity
 _atom_site_fract_x
 _atom_site_fract_y
 _atom_site_fract_z
 _atom_site_occupancy
  Al  Al0  1  0.66746300  0.66744700  0.48158800  1
  Al  Al1  1  0.00001600  0.33255300  0.48158800  1
  Si  Si0  1  0.67797900  0.34226700  0.85591600  1
  Si  Si1  1  0.33571200  0.65773300  0.85591600  1
  H  H0  1  0.34128900  0.34123800  0.22699500  1
  H  H1  1  0.00005100  0.65876200  0.22699500  1
  H  H2  1  0.65875800  0.00000000  0.22846400  1
  H  H3  1  0.99628400  0.00000000  0.75235500  1
  O  O0  1  0.71265200  0.38657200  0.63680700  1
  O  O1  1  0.32608000  0.61342800  0.63680700  1
  O  O2  1  0.50008600  0.49461100  0.94947100  1
  O  O3  1  0.00547500  0.50538900  0.94947100  1
  O  O4  1  0.50473400  0.00000000  0.92923800  1
  O  O5  1  0.33551800  0.39355700  0.35359100  1
  O  O6  1  0.94196100  0.60644300  0.35359100  1
  O  O7  1  0.72865600  0.00000000  0.34995500  1
  O  O8  1  0.93398300  0.00000000  0.62885400  1
loop_
_geom_bond_atom_site_label_1
_geom_bond_atom_site_label_2
_geom_bond_distance
_geom_bond_site_symmetry_2
Al0 O6 1.868833 1_555
Al0 O5 1.868898 1_555
Al0 O7 1.873663 1_565
Al0 O8 1.927721 1_565
Al0 O0 1.971696 1_555
Al0 O1 2.009376 1_555
Al1 O5 1.868833 1_555
Al1 O6 1.868898 1_455
Al1 O7 1.873663 1_455
Al1 O8 1.927721 1_455
Al1 O1 1.971696 1_555
Al1 O0 2.009376 1_455
H0 O5 0.966147 1_555
H1 O6 0.966147 1_455
H2 O7 0.964658 1_555
H3 O8 0.963344 1_555
O0 Si0 1.611745 1_555
O1 Si1 1.611745 1_555
O2 Si0 1.646337 1_555
O2 Si1 1.648170 1_555
O3 Si1 1.646337 1_555
O3 Si0 1.648170 1_455
O4 Si0 1.639263 1_555
O4 Si1 1.639263 1_545
