# generated using pymatgen
data_CaSi2NiO6
_symmetry_space_group_name_H-M   'P 1'
_cell_length_a   5.45559100
_cell_length_b   9.71675200
_cell_length_c   18.95129100
_cell_angle_alpha   90.00000000
_cell_angle_beta   90.00000000
_cell_angle_gamma   90.00000000
_symmetry_Int_Tables_number   1
_chemical_formula_structural   CaSi2NiO6
_chemical_formula_sum   'Ca8 Si16 Ni8 O48'
_cell_volume   1004.61977593
_cell_formula_units_Z   8
loop_
 _symmetry_equiv_pos_site_id
 _symmetry_equiv_pos_as_xyz
  1  'x, y, z'
loop_
 _atom_site_type_symbol
 _atom_site_label
 _atom_site_symmetry_multiplicity
 _atom_site_fract_x
 _atom_site_fract_y
 _atom_site_fract_z
 _atom_site_occupancy
  Ca  Ca0  1  0.61155400  0.14382300  0.37907500  1
  Ca  Ca1  1  0.38844600  0.85617700  0.62092500  1
  Ca  Ca2  1  0.61155400  0.64382300  0.12092500  1
  Ca  Ca3  1  0.11155400  0.85617700  0.12092500  1
  Ca  Ca4  1  0.88844600  0.14382300  0.87907500  1
  Ca  Ca5  1  0.38844600  0.35617700  0.87907500  1
  Ca  Ca6  1  0.11155400  0.35617700  0.37907500  1
  Ca  Ca7  1  0.88844600  0.64382300  0.62092500  1
  Si  Si0  1  0.56328200  0.66430400  0.77452800  1
  Si  Si1  1  0.75696800  0.83324100  0.47465700  1
  Si  Si2  1  0.74303200  0.83324100  0.97465700  1
  Si  Si3  1  0.93671800  0.16430400  0.22547200  1
  Si  Si4  1  0.06328200  0.33569600  0.72547200  1
  Si  Si5  1  0.43671800  0.83569600  0.27452800  1
  Si  Si6  1  0.25696800  0.66675900  0.47465700  1
  Si  Si7  1  0.75696800  0.33324100  0.02534300  1
  Si  Si8  1  0.74303200  0.33324100  0.52534300  1
  Si  Si9  1  0.93671800  0.66430400  0.27452800  1
  Si  Si10  1  0.43671800  0.33569600  0.22547200  1
  Si  Si11  1  0.56328200  0.16430400  0.72547200  1
  Si  Si12  1  0.24303200  0.16675900  0.52534300  1
  Si  Si13  1  0.06328200  0.83569600  0.77452800  1
  Si  Si14  1  0.24303200  0.66675900  0.97465700  1
  Si  Si15  1  0.25696800  0.16675900  0.02534300  1
  Ni  Ni0  1  0.38398000  0.00043400  0.87181700  1
  Ni  Ni1  1  0.61602000  0.99956600  0.12818300  1
  Ni  Ni2  1  0.88398000  0.99956600  0.62818300  1
  Ni  Ni3  1  0.11602000  0.00043400  0.37181700  1
  Ni  Ni4  1  0.38398000  0.50043400  0.62818300  1
  Ni  Ni5  1  0.61602000  0.49956600  0.37181700  1
  Ni  Ni6  1  0.88398000  0.49956600  0.87181700  1
  Ni  Ni7  1  0.11602000  0.50043400  0.12818300  1
  O  O0  1  0.91553400  0.51788000  0.31460300  1
  O  O1  1  0.32468900  0.03174000  0.07056300  1
  O  O2  1  0.08446600  0.48212000  0.68539700  1
  O  O3  1  0.75568600  0.35118900  0.93906100  1
  O  O4  1  0.25568600  0.14881100  0.93906100  1
  O  O5  1  0.96730500  0.21303400  0.04466300  1
  O  O6  1  0.95663800  0.65329700  0.18819100  1
  O  O7  1  0.04336200  0.84670300  0.68819100  1
  O  O8  1  0.75568600  0.85118900  0.56093900  1
  O  O9  1  0.95663800  0.15329700  0.31180900  1
  O  O10  1  0.41553400  0.48212000  0.18539700  1
  O  O11  1  0.74431400  0.35118900  0.43906100  1
  O  O12  1  0.67531100  0.96826000  0.92943700  1
  O  O13  1  0.45663800  0.84670300  0.18819100  1
  O  O14  1  0.58446600  0.01788000  0.68539700  1
  O  O15  1  0.32468900  0.53174000  0.42943700  1
  O  O16  1  0.41553400  0.98212000  0.31460300  1
  O  O17  1  0.17698400  0.75718400  0.29978100  1
  O  O18  1  0.32301600  0.75718400  0.79978100  1
  O  O19  1  0.53269500  0.71303400  0.95533700  1
  O  O20  1  0.74431400  0.85118900  0.06093900  1
  O  O21  1  0.54336200  0.65329700  0.68819100  1
  O  O22  1  0.82468900  0.46826000  0.07056300  1
  O  O23  1  0.17698400  0.25718400  0.20021900  1
  O  O24  1  0.24431400  0.14881100  0.43906100  1
  O  O25  1  0.54336200  0.15329700  0.81180900  1
  O  O26  1  0.67531100  0.46826000  0.57056300  1
  O  O27  1  0.25568600  0.64881100  0.56093900  1
  O  O28  1  0.17531100  0.53174000  0.92943700  1
  O  O29  1  0.67698400  0.74281600  0.29978100  1
  O  O30  1  0.08446600  0.98212000  0.81460300  1
  O  O31  1  0.82301600  0.74281600  0.79978100  1
  O  O32  1  0.82301600  0.24281600  0.70021900  1
  O  O33  1  0.82468900  0.96826000  0.42943700  1
  O  O34  1  0.24431400  0.64881100  0.06093900  1
  O  O35  1  0.17531100  0.03174000  0.57056300  1
  O  O36  1  0.32301600  0.25718400  0.70021900  1
  O  O37  1  0.03269500  0.78696600  0.95533700  1
  O  O38  1  0.46730500  0.78696600  0.45533700  1
  O  O39  1  0.67698400  0.24281600  0.20021900  1
  O  O40  1  0.46730500  0.28696600  0.04466300  1
  O  O41  1  0.53269500  0.21303400  0.54466300  1
  O  O42  1  0.03269500  0.28696600  0.54466300  1
  O  O43  1  0.45663800  0.34670300  0.31180900  1
  O  O44  1  0.58446600  0.51788000  0.81460300  1
  O  O45  1  0.96730500  0.71303400  0.45533700  1
  O  O46  1  0.04336200  0.34670300  0.81180900  1
  O  O47  1  0.91553400  0.01788000  0.18539700  1
loop_
_geom_bond_atom_site_label_1
_geom_bond_atom_site_label_2
_geom_bond_distance
_geom_bond_site_symmetry_2
Ca0 O16 2.259479 1_545
Ca0 O33 2.274441 1_545
Ca0 O9 2.275490 1_555
Ca0 O24 2.304072 1_555
Ca0 O11 2.424221 1_555
Ca0 O43 2.495097 1_555
Ca1 O14 2.259479 1_565
Ca1 O35 2.274441 1_565
Ca1 O7 2.275490 1_555
Ca1 O8 2.304072 1_555
Ca1 O27 2.424221 1_555
Ca1 O21 2.495097 1_555
Ca2 O10 2.259479 1_555
Ca2 O22 2.274441 1_555
Ca2 O6 2.275490 1_555
Ca2 O34 2.304072 1_555
Ca2 O20 2.424221 1_555
Ca2 O13 2.495097 1_555
Ca3 O47 2.259479 1_465
Ca3 O1 2.274441 1_565
Ca3 O13 2.275490 1_555
Ca3 O20 2.304072 1_455
Ca3 O34 2.424221 1_555
Ca3 O6 2.495097 1_455
Ca4 O30 2.259479 1_645
Ca4 O12 2.274441 1_545
Ca4 O25 2.275490 1_555
Ca4 O4 2.304072 1_655
Ca4 O3 2.424221 1_555
Ca4 O46 2.495097 1_655
Ca5 O44 2.259479 1_555
Ca5 O28 2.274441 1_555
Ca5 O46 2.275490 1_555
Ca5 O3 2.304072 1_555
Ca5 O4 2.424221 1_555
Ca5 O25 2.495097 1_555
Ca6 O0 2.259479 1_455
Ca6 O15 2.274441 1_555
Ca6 O43 2.275490 1_555
Ca6 O11 2.304072 1_455
Ca6 O24 2.424221 1_555
Ca6 O9 2.495097 1_455
Ca7 O2 2.259479 1_655
Ca7 O26 2.274441 1_555
Ca7 O21 2.275490 1_555
Ca7 O27 2.304072 1_655
Ca7 O8 2.424221 1_555
Ca7 O7 2.495097 1_655
Ni0 O12 1.953530 1_545
Ni0 O30 1.969104 1_545
Ni0 O4 2.047560 1_555
Ni0 O25 2.062904 1_555
Ni1 O1 1.953530 1_565
Ni1 O47 1.969104 1_565
Ni1 O20 2.047560 1_555
Ni1 O13 2.062904 1_555
Ni2 O35 1.953530 1_665
Ni2 O14 1.969104 1_565
Ni2 O8 2.047560 1_555
Ni2 O7 2.062904 1_655
Ni3 O33 1.953530 1_445
Ni3 O16 1.969104 1_545
Ni3 O24 2.047560 1_555
Ni3 O9 2.062904 1_455
Ni4 O26 1.953530 1_555
Ni4 O2 1.969104 1_555
Ni4 O27 2.047560 1_555
Ni4 O21 2.062904 1_555
Ni5 O15 1.953530 1_555
Ni5 O0 1.969104 1_555
Ni5 O11 2.047560 1_555
Ni5 O43 2.062904 1_555
Ni6 O28 1.953530 1_655
Ni6 O44 1.969104 1_555
Ni6 O3 2.047560 1_555
Ni6 O46 2.062904 1_655
Ni7 O22 1.953530 1_455
Ni7 O10 1.969104 1_555
Ni7 O34 2.047560 1_555
Ni7 O6 2.062904 1_455
O0 Si9 1.616916 1_555
O1 Si15 1.610004 1_555
O2 Si4 1.616916 1_555
O3 Si7 1.644444 1_556
O4 Si15 1.644444 1_556
O5 Si7 1.677831 1_555
O5 Si15 1.683309 1_655
O6 Si9 1.643287 1_555
O7 Si13 1.643287 1_555
O8 Si1 1.644444 1_555
O9 Si3 1.643287 1_555
O10 Si10 1.616916 1_555
O11 Si8 1.644444 1_555
O12 Si2 1.610004 1_555
O13 Si5 1.643287 1_555
O14 Si11 1.616916 1_555
O15 Si6 1.610004 1_555
O16 Si5 1.616916 1_555
O17 Si9 1.661838 1_455
O17 Si5 1.678964 1_555
O18 Si0 1.661838 1_555
O18 Si13 1.678964 1_555
O19 Si2 1.677831 1_555
O19 Si14 1.683309 1_555
O20 Si2 1.644444 1_554
O21 Si0 1.643287 1_555
O22 Si7 1.610004 1_555
O23 Si3 1.661838 1_455
O23 Si10 1.678964 1_555
O24 Si12 1.644444 1_555
O25 Si11 1.643287 1_555
O26 Si8 1.610004 1_555
O27 Si6 1.644444 1_555
O28 Si14 1.610004 1_555
O29 Si5 1.661838 1_555
O29 Si9 1.678964 1_555
O30 Si13 1.616916 1_555
O31 Si13 1.661838 1_655
O31 Si0 1.678964 1_555
O32 Si4 1.661838 1_655
O32 Si11 1.678964 1_555
O33 Si1 1.610004 1_555
O34 Si14 1.644444 1_554
O35 Si12 1.610004 1_555
O36 Si11 1.661838 1_555
O36 Si4 1.678964 1_555
O37 Si14 1.677831 1_555
O37 Si2 1.683309 1_455
O38 Si6 1.677831 1_555
O38 Si1 1.683309 1_555
O39 Si10 1.661838 1_555
O39 Si3 1.678964 1_555
O40 Si15 1.677831 1_555
O40 Si7 1.683309 1_555
O41 Si8 1.677831 1_555
O41 Si12 1.683309 1_555
O42 Si12 1.677831 1_555
O42 Si8 1.683309 1_455
O43 Si10 1.643287 1_555
O44 Si0 1.616916 1_555
O45 Si1 1.677831 1_555
O45 Si6 1.683309 1_655
O46 Si4 1.643287 1_555
O47 Si3 1.616916 1_555
