# generated using pymatgen
data_US2O17
_symmetry_space_group_name_H-M   'P 1'
_cell_length_a   12.50147300
_cell_length_b   7.27786900
_cell_length_c   7.61452071
_cell_angle_alpha   83.55577534
_cell_angle_beta   90.00000000
_cell_angle_gamma   90.00000000
_symmetry_Int_Tables_number   1
_chemical_formula_structural   US2O17
_chemical_formula_sum   'U2 S4 O34'
_cell_volume   688.42278296
_cell_formula_units_Z   2
loop_
 _symmetry_equiv_pos_site_id
 _symmetry_equiv_pos_as_xyz
  1  'x, y, z'
loop_
 _atom_site_type_symbol
 _atom_site_label
 _atom_site_symmetry_multiplicity
 _atom_site_fract_x
 _atom_site_fract_y
 _atom_site_fract_z
 _atom_site_occupancy
  U  U0  1  0.75000000  0.32331700  0.69268200  1
  U  U1  1  0.25000000  0.67668300  0.30731800  1
  S  S0  1  0.51935200  0.88522300  0.76860000  1
  S  S1  1  0.01935200  0.11477700  0.23140000  1
  S  S2  1  0.48064800  0.11477700  0.23140000  1
  S  S3  1  0.98064800  0.88522300  0.76860000  1
  O  O0  1  0.66085600  0.38507700  0.88394200  1
  O  O1  1  0.16085600  0.61492300  0.11605800  1
  O  O2  1  0.33914400  0.61492300  0.11605800  1
  O  O3  1  0.83914400  0.38507700  0.88394200  1
  O  O4  1  0.75000000  0.62915800  0.64486900  1
  O  O5  1  0.25000000  0.37084200  0.35513100  1
  O  O6  1  0.75000000  0.10935500  0.95241900  1
  O  O7  1  0.25000000  0.89064500  0.04758100  1
  O  O8  1  0.20189300  0.38007800  0.72171200  1
  O  O9  1  0.70189300  0.61992200  0.27828800  1
  O  O10  1  0.79810700  0.61992200  0.27828800  1
  O  O11  1  0.29810700  0.38007800  0.72171200  1
  O  O12  1  0.75000000  0.14310100  0.54544500  1
  O  O13  1  0.25000000  0.85689900  0.45455500  1
  O  O14  1  0.57896600  0.06099100  0.77784200  1
  O  O15  1  0.07896600  0.93900900  0.22215800  1
  O  O16  1  0.42103400  0.93900900  0.22215800  1
  O  O17  1  0.92103400  0.06099100  0.77784200  1
  O  O18  1  0.54850500  0.80052600  0.60599400  1
  O  O19  1  0.04850500  0.19947400  0.39400600  1
  O  O20  1  0.45149500  0.19947400  0.39400600  1
  O  O21  1  0.95149500  0.80052600  0.60599400  1
  O  O22  1  0.54134200  0.75492800  0.92684900  1
  O  O23  1  0.04134200  0.24507200  0.07315100  1
  O  O24  1  0.45865800  0.24507200  0.07315100  1
  O  O25  1  0.95865800  0.75492800  0.92684900  1
  O  O26  1  0.40338500  0.92837500  0.75221200  1
  O  O27  1  0.90338500  0.07162500  0.24778800  1
  O  O28  1  0.59661500  0.07162500  0.24778800  1
  O  O29  1  0.09661500  0.92837500  0.75221200  1
  O  O30  1  0.64728400  0.44053400  0.50513400  1
  O  O31  1  0.14728400  0.55946600  0.49486600  1
  O  O32  1  0.35271600  0.55946600  0.49486600  1
  O  O33  1  0.85271600  0.44053400  0.50513400  1
loop_
_geom_bond_atom_site_label_1
_geom_bond_atom_site_label_2
_geom_bond_distance
_geom_bond_site_symmetry_2
O0 U0 1.926628 1_555
O1 U1 1.926628 1_555
O2 U1 1.926628 1_555
O3 U0 1.926628 1_555
O4 U0 2.214756 1_555
O5 U1 2.214756 1_555
O6 U0 2.375941 1_555
O7 U1 2.375941 1_555
O10 O9 1.202817 1_555
O11 O8 1.202817 1_555
O12 U0 1.818598 1_555
O13 U1 1.818598 1_555
O14 S0 1.488950 1_545
O15 S1 1.488950 1_565
O16 S2 1.488950 1_565
O17 S3 1.488950 1_545
O18 S0 1.489017 1_555
O19 S1 1.489017 1_555
O20 S2 1.489017 1_555
O21 S3 1.489017 1_555
O22 S0 1.473193 1_555
O23 S1 1.473193 1_555
O24 S2 1.473193 1_555
O25 S3 1.473193 1_555
O26 S0 1.485666 1_555
O27 S1 1.485666 1_655
O28 S2 1.485666 1_555
O29 S3 1.485666 1_455
O30 U0 2.035348 1_555
O31 U1 2.035348 1_555
O32 U1 2.035348 1_555
O33 U0 2.035348 1_555
