# generated using pymatgen
data_Ba3TmRu2O9
_symmetry_space_group_name_H-M   'P 1'
_cell_length_a   5.90450042
_cell_length_b   5.90450042
_cell_length_c   14.38598737
_cell_angle_alpha   90.00000000
_cell_angle_beta   90.00000000
_cell_angle_gamma   120.00000496
_symmetry_Int_Tables_number   1
_chemical_formula_structural   Ba3TmRu2O9
_chemical_formula_sum   'Ba6 Tm2 Ru4 O18'
_cell_volume   434.34677444
_cell_formula_units_Z   2
loop_
 _symmetry_equiv_pos_site_id
 _symmetry_equiv_pos_as_xyz
  1  'x, y, z'
loop_
 _atom_site_type_symbol
 _atom_site_label
 _atom_site_symmetry_multiplicity
 _atom_site_fract_x
 _atom_site_fract_y
 _atom_site_fract_z
 _atom_site_occupancy
  Ba  Ba0  1  0.33333300  0.66666700  0.09508862  1
  Ba  Ba1  1  0.66666700  0.33333300  0.90494819  1
  Ba  Ba2  1  0.66666700  0.33333300  0.59509500  1
  Ba  Ba3  1  0.33333300  0.66666700  0.40486974  1
  Ba  Ba4  1  0.00000000  0.00000000  0.24997640  1
  Ba  Ba5  1  0.00000000  0.00000000  0.75002485  1
  Tm  Tm0  1  0.00000000  0.00000000  0.00001111  1
  Tm  Tm1  1  0.00000000  0.00000000  0.49998751  1
  Ru  Ru0  1  0.33333300  0.66666700  0.66059123  1
  Ru  Ru1  1  0.66666700  0.33333300  0.33940664  1
  Ru  Ru2  1  0.66666700  0.33333300  0.16057049  1
  Ru  Ru3  1  0.33333300  0.66666700  0.83943108  1
  O  O0  1  0.51180259  0.02360519  0.24998072  1
  O  O1  1  0.48819037  0.97638075  0.75001903  1
  O  O2  1  0.97639481  0.48819741  0.24998072  1
  O  O3  1  0.02361925  0.51180963  0.75001903  1
  O  O4  1  0.51180259  0.48819741  0.24998072  1
  O  O5  1  0.48819037  0.51180963  0.75001903  1
  O  O6  1  0.17449415  0.34898829  0.58689222  1
  O  O7  1  0.82550676  0.65101352  0.41309520  1
  O  O8  1  0.65101171  0.82550585  0.58689222  1
  O  O9  1  0.82550828  0.65101657  0.08688128  1
  O  O10  1  0.34898648  0.17449324  0.41309520  1
  O  O11  1  0.17449413  0.34898826  0.91313126  1
  O  O12  1  0.17449415  0.82550585  0.58689222  1
  O  O13  1  0.34898343  0.17449172  0.08688128  1
  O  O14  1  0.82550676  0.17449324  0.41309520  1
  O  O15  1  0.65101174  0.82550587  0.91313126  1
  O  O16  1  0.82550828  0.17449172  0.08688128  1
  O  O17  1  0.17449413  0.82550587  0.91313126  1
loop_
_geom_bond_atom_site_label_1
_geom_bond_atom_site_label_2
_geom_bond_distance
_geom_bond_site_symmetry_2
Ba0 O2 2.880367 1_455
Ba0 O0 2.880367 1_565
Ba0 O4 2.880370 1_555
Ba0 O13 2.955691 1_565
Ba0 O9 2.955691 1_455
Ba0 O16 2.955694 1_565
Ba0 O16 2.955694 1_455
Ba0 O9 2.955697 1_555
Ba0 O13 2.955697 1_555
Ba0 O17 3.080712 1_554
Ba0 O15 3.080715 1_554
Ba0 O11 3.080715 1_554
Ba1 O1 2.880825 1_545
Ba1 O3 2.880825 1_655
Ba1 O5 2.880828 1_555
Ba1 O11 2.955678 1_655
Ba1 O15 2.955678 1_545
Ba1 O17 2.955680 1_655
Ba1 O17 2.955680 1_545
Ba1 O15 2.955684 1_555
Ba1 O11 2.955684 1_555
Ba1 O16 3.080429 1_556
Ba1 O9 3.080431 1_556
Ba1 O13 3.080431 1_556
Ba2 O1 2.880768 1_545
Ba2 O3 2.880768 1_655
Ba2 O5 2.880771 1_555
Ba2 O6 2.955689 1_655
Ba2 O8 2.955689 1_545
Ba2 O12 2.955692 1_655
Ba2 O12 2.955692 1_545
Ba2 O8 2.955695 1_555
Ba2 O6 2.955695 1_555
Ba2 O14 3.081236 1_555
Ba2 O7 3.081238 1_555
Ba2 O10 3.081238 1_555
Ba3 O0 2.880332 1_565
Ba3 O2 2.880332 1_455
Ba3 O4 2.880336 1_555
Ba3 O10 2.955702 1_565
Ba3 O7 2.955702 1_455
Ba3 O14 2.955704 1_565
Ba3 O14 2.955704 1_455
Ba3 O7 2.955708 1_555
Ba3 O10 2.955708 1_555
Ba3 O12 3.081508 1_555
Ba3 O6 3.081511 1_555
Ba3 O8 3.081511 1_555
Ba4 O13 2.947799 1_555
Ba4 O9 2.947799 1_445
Ba4 O16 2.947799 1_455
Ba4 O7 2.948080 1_445
Ba4 O10 2.948080 1_555
Ba4 O14 2.948080 1_455
Ba4 O4 2.954716 1_555
Ba4 O4 2.954716 1_445
Ba4 O0 2.954717 1_555
Ba4 O2 2.954717 1_445
Ba4 O2 2.954717 1_455
Ba4 O0 2.954717 1_455
Ba5 O11 2.947943 1_555
Ba5 O15 2.947943 1_445
Ba5 O17 2.947944 1_545
Ba5 O6 2.948244 1_555
Ba5 O8 2.948244 1_445
Ba5 O12 2.948244 1_545
Ba5 O5 2.954719 1_445
Ba5 O5 2.954719 1_555
Ba5 O1 2.954720 1_545
Ba5 O3 2.954720 1_545
Ba5 O1 2.954720 1_445
Ba5 O3 2.954720 1_555
O0 Ru2 2.040294 1_555
O0 Ru1 2.040436 1_555
O1 Ru3 2.040255 1_555
O1 Ru0 2.040397 1_555
O2 Ru2 2.040294 1_555
O2 Ru1 2.040436 1_555
O3 Ru3 2.040255 1_555
O3 Ru0 2.040397 1_555
O4 Ru2 2.040298 1_555
O4 Ru1 2.040440 1_555
O5 Ru3 2.040259 1_555
O5 Ru0 2.040402 1_555
O6 Ru0 1.939814 1_555
O6 Tm1 2.178895 1_555
O7 Ru1 1.939739 1_555
O7 Tm1 2.178785 1_665
O8 Ru0 1.939814 1_555
O8 Tm1 2.178895 1_665
O9 Ru2 1.939758 1_555
O9 Tm0 2.178590 1_665
O10 Ru1 1.939739 1_555
O10 Tm1 2.178785 1_555
O11 Ru3 1.939823 1_555
O11 Tm0 2.178690 1_556
O12 Ru0 1.939810 1_555
O12 Tm1 2.178895 1_565
O13 Ru2 1.939758 1_555
O13 Tm0 2.178590 1_555
O14 Ru1 1.939735 1_555
O14 Tm1 2.178785 1_655
O15 Ru3 1.939823 1_555
O15 Tm0 2.178690 1_666
O16 Ru2 1.939753 1_555
O16 Tm0 2.178590 1_655
O17 Ru3 1.939819 1_555
O17 Tm0 2.178690 1_566
