# generated using pymatgen
data_K2VOF4
_symmetry_space_group_name_H-M   'P 1'
_cell_length_a   5.76081500
_cell_length_b   7.55452800
_cell_length_c   11.68263200
_cell_angle_alpha   90.00000000
_cell_angle_beta   90.00000000
_cell_angle_gamma   90.00000000
_symmetry_Int_Tables_number   1
_chemical_formula_structural   K2VOF4
_chemical_formula_sum   'K8 V4 O4 F16'
_cell_volume   508.43092768
_cell_formula_units_Z   4
loop_
 _symmetry_equiv_pos_site_id
 _symmetry_equiv_pos_as_xyz
  1  'x, y, z'
loop_
 _atom_site_type_symbol
 _atom_site_label
 _atom_site_symmetry_multiplicity
 _atom_site_fract_x
 _atom_site_fract_y
 _atom_site_fract_z
 _atom_site_occupancy
  K  K0  1  0.75984100  0.33162900  0.91147400  1
  K  K1  1  0.25984100  0.66837100  0.08852600  1
  K  K2  1  0.25984100  0.16837100  0.41147400  1
  K  K3  1  0.75984100  0.83162900  0.58852600  1
  K  K4  1  0.25967200  0.48826100  0.72496100  1
  K  K5  1  0.75967200  0.51173900  0.27503900  1
  K  K6  1  0.75967200  0.01173900  0.22496100  1
  K  K7  1  0.25967200  0.98826100  0.77503900  1
  V  V0  1  0.73903600  0.31761800  0.56544000  1
  V  V1  1  0.23903600  0.68238200  0.43456000  1
  V  V2  1  0.23903600  0.18238200  0.06544000  1
  V  V3  1  0.73903600  0.81761800  0.93456000  1
  O  O0  1  0.52922800  0.18705200  0.61322300  1
  O  O1  1  0.02922800  0.81294800  0.38677700  1
  O  O2  1  0.02922800  0.31294800  0.11322300  1
  O  O3  1  0.52922800  0.68705200  0.88677700  1
  F  F0  1  0.77247300  0.22499100  0.40862400  1
  F  F1  1  0.27247300  0.77500900  0.59137600  1
  F  F2  1  0.27247300  0.27500900  0.90862400  1
  F  F3  1  0.77247300  0.72499100  0.09137600  1
  F  F4  1  0.03365000  0.49420800  0.50009900  1
  F  F5  1  0.53365000  0.50579200  0.49990100  1
  F  F6  1  0.53365000  0.00579200  0.00009900  1
  F  F7  1  0.03365000  0.99420800  0.99990100  1
  F  F8  1  0.77745500  0.47150200  0.69583400  1
  F  F9  1  0.27745500  0.52849800  0.30416600  1
  F  F10  1  0.27745500  0.02849800  0.19583400  1
  F  F11  1  0.77745500  0.97150200  0.80416600  1
  F  F12  1  0.00594500  0.17987100  0.61123900  1
  F  F13  1  0.50594500  0.82012900  0.38876100  1
  F  F14  1  0.50594500  0.32012900  0.11123900  1
  F  F15  1  0.00594500  0.67987100  0.88876100  1
loop_
_geom_bond_atom_site_label_1
_geom_bond_atom_site_label_2
_geom_bond_distance
_geom_bond_site_symmetry_2
K0 O2 2.825515 1_656
K0 O3 3.009604 1_555
K1 O3 2.825515 1_554
K1 O2 3.009604 1_555
K2 O0 2.825515 1_555
K2 O1 3.009604 1_545
K3 O1 2.825515 1_655
K3 O0 3.009604 1_565
K4 O3 2.870619 1_555
K4 O0 3.048491 1_555
K5 O2 2.870619 1_655
K5 O1 3.048491 1_655
K6 O1 2.870619 1_645
K6 O2 3.048491 1_655
K7 O0 2.870619 1_565
K7 O3 3.048491 1_555
O0 V0 1.656927 1_555
O1 V1 1.656927 1_555
O2 V2 1.656927 1_555
O3 V3 1.656927 1_555
F0 V0 1.970551 1_555
F0 K5 2.670881 1_555
F0 K6 2.684158 1_555
F0 K2 2.840228 1_655
F0 K2 2.984180 1_555
F1 V1 1.970551 1_555
F1 K4 2.670881 1_555
F1 K7 2.684158 1_555
F1 K3 2.840228 1_555
F1 K3 2.984180 1_455
F2 V2 1.970551 1_556
F2 K7 2.670881 1_545
F2 K4 2.684158 1_555
F2 K0 2.840228 1_555
F2 K0 2.984180 1_455
F3 V3 1.970551 1_554
F3 K6 2.670881 1_565
F3 K5 2.684158 1_555
F3 K1 2.840228 1_655
F3 K1 2.984180 1_555
F4 V1 2.001758 1_555
F4 V0 2.289750 1_455
F4 K4 2.932308 1_555
F4 K2 2.971384 1_555
F4 K5 3.069506 1_455
F4 K3 3.170643 1_455
F5 V0 2.001758 1_555
F5 V1 2.289750 1_555
F5 K5 2.932308 1_555
F5 K3 2.971384 1_555
F5 K4 3.069506 1_555
F5 K2 3.170643 1_555
F6 V3 2.001758 1_544
F6 V2 2.289750 1_555
F6 K6 2.932308 1_555
F6 K0 2.971384 1_554
F6 K7 3.069506 1_544
F6 K1 3.170643 1_545
F7 V2 2.001758 1_566
F7 V3 2.289750 1_455
F7 K7 2.932308 1_555
F7 K1 2.971384 1_556
F7 K6 3.069506 1_466
F7 K0 3.170643 1_465
F8 V0 1.928995 1_555
F8 K0 2.733760 1_555
F8 K4 2.801588 1_655
F8 K3 2.997251 1_555
F8 K4 3.004867 1_555
F9 V1 1.928995 1_555
F9 K1 2.733760 1_555
F9 K5 2.801588 1_555
F9 K2 2.997251 1_555
F9 K5 3.004867 1_455
F10 V2 1.928995 1_555
F10 K2 2.733760 1_555
F10 K6 2.801588 1_555
F10 K1 2.997251 1_545
F10 K6 3.004867 1_455
F11 V3 1.928995 1_555
F11 K3 2.733760 1_555
F11 K7 2.801588 1_655
F11 K0 2.997251 1_565
F11 K7 3.004867 1_555
F12 V0 1.932204 1_455
F12 K2 2.755616 1_555
F12 K7 2.809580 1_545
F12 K3 3.000263 1_445
F12 K4 3.054388 1_555
F13 V1 1.932204 1_555
F13 K3 2.755616 1_555
F13 K6 2.809580 1_565
F13 K2 3.000263 1_565
F13 K5 3.054388 1_555
F14 V2 1.932204 1_555
F14 K0 2.755616 1_554
F14 K5 2.809580 1_555
F14 K1 3.000263 1_555
F14 K6 3.054388 1_555
F15 V3 1.932204 1_455
F15 K1 2.755616 1_556
F15 K4 2.809580 1_555
F15 K0 3.000263 1_455
F15 K7 3.054388 1_555
