# generated using pymatgen
data_NbCo2
_symmetry_space_group_name_H-M   'P 1'
_cell_length_a   4.78153400
_cell_length_b   4.78153408
_cell_length_c   7.76508400
_cell_angle_alpha   90.00000000
_cell_angle_beta   90.00000000
_cell_angle_gamma   119.99999948
_symmetry_Int_Tables_number   1
_chemical_formula_structural   NbCo2
_chemical_formula_sum   'Nb4 Co8'
_cell_volume   153.74864446
_cell_formula_units_Z   4
loop_
 _symmetry_equiv_pos_site_id
 _symmetry_equiv_pos_as_xyz
  1  'x, y, z'
loop_
 _atom_site_type_symbol
 _atom_site_label
 _atom_site_symmetry_multiplicity
 _atom_site_fract_x
 _atom_site_fract_y
 _atom_site_fract_z
 _atom_site_occupancy
  Nb  Nb0  1  0.33333300  0.66666700  0.43590900  1
  Nb  Nb1  1  0.66666700  0.33333300  0.56409100  1
  Nb  Nb2  1  0.66666700  0.33333300  0.93590900  1
  Nb  Nb3  1  0.33333300  0.66666700  0.06409100  1
  Co  Co0  1  0.00000000  0.00000000  0.50000000  1
  Co  Co1  1  0.00000000  0.00000000  0.00000000  1
  Co  Co2  1  0.83128600  0.16871400  0.25000000  1
  Co  Co3  1  0.83128600  0.66257200  0.25000000  1
  Co  Co4  1  0.33742800  0.16871400  0.25000000  1
  Co  Co5  1  0.16871400  0.83128600  0.75000000  1
  Co  Co6  1  0.16871400  0.33742800  0.75000000  1
  Co  Co7  1  0.66257200  0.83128600  0.75000000  1
loop_
_geom_bond_atom_site_label_1
_geom_bond_atom_site_label_2
_geom_bond_distance
_geom_bond_site_symmetry_2
Nb0 Nb3 2.887198 1_555
Nb0 Nb1 2.934573 1_455
Nb0 Nb1 2.934573 1_565
Nb0 Nb1 2.934580 1_555
Nb1 Nb2 2.887198 1_555
Nb2 Nb3 2.934573 1_656
Nb2 Nb3 2.934573 1_546
Nb2 Nb3 2.934580 1_556
Co0 Co7 2.391837 1_445
Co0 Co4 2.391837 1_555
Co0 Co5 2.391837 1_545
Co0 Co2 2.391837 1_455
Co0 Co3 2.391837 1_445
Co0 Co6 2.391837 1_555
Co0 Nb0 2.805118 1_545
Co0 Nb1 2.805118 1_455
Co0 Nb1 2.805122 1_555
Co0 Nb0 2.805122 1_445
Co0 Nb1 2.805122 1_445
Co0 Nb0 2.805122 1_555
Co1 Co7 2.391837 1_444
Co1 Co4 2.391837 1_555
Co1 Co5 2.391837 1_544
Co1 Co2 2.391837 1_455
Co1 Co3 2.391837 1_445
Co1 Co6 2.391837 1_554
Co1 Nb3 2.805118 1_545
Co1 Nb2 2.805118 1_454
Co1 Nb2 2.805122 1_554
Co1 Nb3 2.805122 1_445
Co1 Nb3 2.805122 1_555
Co1 Nb2 2.805122 1_444
Co2 Co4 2.361399 1_555
Co2 Co3 2.361399 1_555
Co2 Co4 2.420135 1_655
Co2 Co3 2.420135 1_545
Co2 Nb0 2.792854 1_655
Co2 Nb3 2.792854 1_655
Co2 Nb0 2.792854 1_545
Co2 Nb3 2.792854 1_545
Co2 Nb1 2.794131 1_555
Co2 Nb2 2.794131 1_554
Co3 Co4 2.361399 1_555
Co3 Co4 2.420135 1_665
Co3 Nb0 2.792852 1_655
Co3 Nb3 2.792852 1_655
Co3 Nb3 2.792856 1_555
Co3 Nb0 2.792856 1_555
Co3 Nb1 2.794133 1_555
Co3 Nb2 2.794133 1_554
Co4 Nb0 2.792852 1_545
Co4 Nb3 2.792852 1_545
Co4 Nb3 2.792856 1_555
Co4 Nb0 2.792856 1_555
Co4 Nb2 2.794133 1_554
Co4 Nb1 2.794133 1_555
Co5 Co7 2.361399 1_555
Co5 Co6 2.361399 1_555
Co5 Co7 2.420135 1_455
Co5 Co6 2.420135 1_565
Co5 Nb2 2.792854 1_455
Co5 Nb1 2.792854 1_455
Co5 Nb1 2.792854 1_565
Co5 Nb2 2.792854 1_565
Co5 Nb3 2.794131 1_556
Co5 Nb0 2.794131 1_555
Co6 Co7 2.361399 1_555
Co6 Co7 2.420135 1_445
Co6 Nb1 2.792852 1_455
Co6 Nb2 2.792852 1_455
Co6 Nb1 2.792856 1_555
Co6 Nb2 2.792856 1_555
Co6 Nb3 2.794133 1_556
Co6 Nb0 2.794133 1_555
Co7 Nb1 2.792852 1_565
Co7 Nb2 2.792852 1_565
Co7 Nb1 2.792856 1_555
Co7 Nb2 2.792856 1_555
Co7 Nb3 2.794133 1_556
Co7 Nb0 2.794133 1_555
