# generated using pymatgen
data_KNaNb2O6
_symmetry_space_group_name_H-M   'P 1'
_cell_length_a   4.07941829
_cell_length_b   5.72081347
_cell_length_c   5.72081347
_cell_angle_alpha   88.79990293
_cell_angle_beta   90.15002003
_cell_angle_gamma   90.15002003
_symmetry_Int_Tables_number   1
_chemical_formula_structural   KNaNb2O6
_chemical_formula_sum   'K1 Na1 Nb2 O6'
_cell_volume   133.47982359
_cell_formula_units_Z   1
loop_
 _symmetry_equiv_pos_site_id
 _symmetry_equiv_pos_as_xyz
  1  'x, y, z'
loop_
 _atom_site_type_symbol
 _atom_site_label
 _atom_site_symmetry_multiplicity
 _atom_site_fract_x
 _atom_site_fract_y
 _atom_site_fract_z
 _atom_site_occupancy
  K  K0  1  0.49833900  0.00052300  0.50052300  1
  Na  Na0  1  0.50266800  0.49894100  0.99894100  1
  Nb  Nb0  1  0.98557900  0.00761700  0.00801000  1
  Nb  Nb1  1  0.98557900  0.50801000  0.50761700  1
  O  O0  1  0.02345100  0.23937100  0.73937100  1
  O  O1  1  0.02452000  0.73650200  0.23650200  1
  O  O2  1  0.01376500  0.24321300  0.23700800  1
  O  O3  1  0.01376500  0.73700800  0.74321300  1
  O  O4  1  0.51925700  0.99307000  0.99265500  1
  O  O5  1  0.51925700  0.49265500  0.49307000  1
loop_
_geom_bond_atom_site_label_1
_geom_bond_atom_site_label_2
_geom_bond_distance
_geom_bond_site_symmetry_2
K0 O0 2.755551 1_555
K0 O5 2.815898 1_555
K0 O4 2.815898 1_545
K0 O2 2.831781 1_555
K0 O3 2.831781 1_545
K0 O1 2.892026 1_545
K0 O0 2.893180 1_655
K0 O4 2.908103 1_544
K0 O5 2.908103 1_545
K0 O2 2.921464 1_655
K0 O3 2.921464 1_645
K0 O1 3.049547 1_645
Na0 O1 2.757504 1_556
Na0 O2 2.808636 1_556
Na0 O3 2.808636 1_555
Na0 O5 2.826931 1_556
Na0 O4 2.826931 1_555
Na0 O2 2.874011 1_656
Na0 O3 2.874011 1_655
Na0 O1 2.876295 1_656
Na0 O0 2.879907 1_555
Na0 O4 2.895940 1_545
Na0 O5 2.895940 1_555
Na0 O0 3.008161 1_655
Nb0 O2 1.902207 1_655
Nb0 O4 1.905800 1_544
Nb0 O1 2.013648 1_645
Nb0 O0 2.014535 1_654
Nb0 O4 2.180973 1_644
Nb0 O3 2.191964 1_644
Nb1 O3 1.902207 1_655
Nb1 O5 1.905800 1_555
Nb1 O1 2.013648 1_655
Nb1 O0 2.014535 1_655
Nb1 O5 2.180973 1_655
Nb1 O2 2.191964 1_655
