# generated using pymatgen
data_Sm3Si11Pt23
_symmetry_space_group_name_H-M   'P 1'
_cell_length_a   12.04128721
_cell_length_b   12.04128721
_cell_length_c   12.04128721
_cell_angle_alpha   60.00000000
_cell_angle_beta   60.00000000
_cell_angle_gamma   60.00000000
_symmetry_Int_Tables_number   1
_chemical_formula_structural   Sm3Si11Pt23
_chemical_formula_sum   'Sm6 Si22 Pt46'
_cell_volume   1234.53596975
_cell_formula_units_Z   2
loop_
 _symmetry_equiv_pos_site_id
 _symmetry_equiv_pos_as_xyz
  1  'x, y, z'
loop_
 _atom_site_type_symbol
 _atom_site_label
 _atom_site_symmetry_multiplicity
 _atom_site_fract_x
 _atom_site_fract_y
 _atom_site_fract_z
 _atom_site_occupancy
  Sm  Sm0  1  0.50000000  -0.00000000  -0.00000000  1
  Sm  Sm1  1  0.50000000  -0.00000000  0.50000000  1
  Sm  Sm2  1  0.50000000  0.50000000  -0.00000000  1
  Sm  Sm3  1  0.00000000  0.50000000  0.50000000  1
  Sm  Sm4  1  0.00000000  0.50000000  -0.00000000  1
  Sm  Sm5  1  0.00000000  -0.00000000  0.50000000  1
  Si  Si0  1  0.82837384  0.17162616  0.17162616  1
  Si  Si1  1  0.82837384  0.17162616  0.82837384  1
  Si  Si2  1  0.82837384  0.82837384  0.17162616  1
  Si  Si3  1  0.17162616  0.82837384  0.82837384  1
  Si  Si4  1  0.17162616  0.82837384  0.17162616  1
  Si  Si5  1  0.17162616  0.17162616  0.82837384  1
  Si  Si6  1  0.50448429  0.16517190  0.16517190  1
  Si  Si7  1  0.16517190  0.50448429  0.16517190  1
  Si  Si8  1  0.16517190  0.16517190  0.50448429  1
  Si  Si9  1  0.16517190  0.16517190  0.16517190  1
  Si  Si10  1  0.49551571  0.83482810  0.83482810  1
  Si  Si11  1  0.83482810  0.49551571  0.83482810  1
  Si  Si12  1  0.83482810  0.83482810  0.49551571  1
  Si  Si13  1  0.83482810  0.83482810  0.83482810  1
  Si  Si14  1  0.81909887  0.39363371  0.39363371  1
  Si  Si15  1  0.39363371  0.81909887  0.39363371  1
  Si  Si16  1  0.39363371  0.39363371  0.81909887  1
  Si  Si17  1  0.39363371  0.39363371  0.39363371  1
  Si  Si18  1  0.18090113  0.60636629  0.60636629  1
  Si  Si19  1  0.60636629  0.18090113  0.60636629  1
  Si  Si20  1  0.60636629  0.60636629  0.18090113  1
  Si  Si21  1  0.60636629  0.60636629  0.60636629  1
  Pt  Pt0  1  0.75181792  0.08272736  0.08272736  1
  Pt  Pt1  1  0.08272736  0.75181792  0.08272736  1
  Pt  Pt2  1  0.08272736  0.08272736  0.75181792  1
  Pt  Pt3  1  0.08272736  0.08272736  0.08272736  1
  Pt  Pt4  1  0.24818208  0.91727264  0.91727264  1
  Pt  Pt5  1  0.91727264  0.24818208  0.91727264  1
  Pt  Pt6  1  0.91727264  0.91727264  0.24818208  1
  Pt  Pt7  1  0.91727264  0.91727264  0.91727264  1
  Pt  Pt8  1  0.07549370  0.30816877  0.30816877  1
  Pt  Pt9  1  0.30816877  0.07549370  0.30816877  1
  Pt  Pt10  1  0.30816877  0.30816877  0.07549370  1
  Pt  Pt11  1  0.30816877  0.30816877  0.30816877  1
  Pt  Pt12  1  0.92450630  0.69183123  0.69183123  1
  Pt  Pt13  1  0.69183123  0.92450630  0.69183123  1
  Pt  Pt14  1  0.69183123  0.69183123  0.92450630  1
  Pt  Pt15  1  0.69183123  0.69183123  0.69183123  1
  Pt  Pt16  1  0.62548293  0.37451707  0.37451707  1
  Pt  Pt17  1  0.62548293  0.37451707  0.62548293  1
  Pt  Pt18  1  0.62548293  0.62548293  0.37451707  1
  Pt  Pt19  1  0.37451707  0.62548293  0.62548293  1
  Pt  Pt20  1  0.37451707  0.62548293  0.37451707  1
  Pt  Pt21  1  0.37451707  0.37451707  0.62548293  1
  Pt  Pt22  1  0.57862377  0.91726118  0.25205752  1
  Pt  Pt23  1  0.57862377  0.25205752  0.25205752  1
  Pt  Pt24  1  0.57862377  0.25205752  0.91726118  1
  Pt  Pt25  1  0.91726118  0.57862377  0.25205752  1
  Pt  Pt26  1  0.25205752  0.57862377  0.91726118  1
  Pt  Pt27  1  0.25205752  0.57862377  0.25205752  1
  Pt  Pt28  1  0.25205752  0.25205752  0.57862377  1
  Pt  Pt29  1  0.25205752  0.91726118  0.57862377  1
  Pt  Pt30  1  0.91726118  0.25205752  0.57862377  1
  Pt  Pt31  1  0.25205752  0.25205752  0.91726118  1
  Pt  Pt32  1  0.91726118  0.25205752  0.25205752  1
  Pt  Pt33  1  0.25205752  0.91726118  0.25205752  1
  Pt  Pt34  1  0.42137623  0.08273882  0.74794248  1
  Pt  Pt35  1  0.42137623  0.74794248  0.74794248  1
  Pt  Pt36  1  0.42137623  0.74794248  0.08273882  1
  Pt  Pt37  1  0.08273882  0.42137623  0.74794248  1
  Pt  Pt38  1  0.74794248  0.42137623  0.08273882  1
  Pt  Pt39  1  0.74794248  0.42137623  0.74794248  1
  Pt  Pt40  1  0.74794248  0.74794248  0.42137623  1
  Pt  Pt41  1  0.74794248  0.08273882  0.42137623  1
  Pt  Pt42  1  0.08273882  0.74794248  0.42137623  1
  Pt  Pt43  1  0.74794248  0.74794248  0.08273882  1
  Pt  Pt44  1  0.08273882  0.74794248  0.74794248  1
  Pt  Pt45  1  0.74794248  0.08273882  0.74794248  1
loop_
_geom_bond_atom_site_label_1
_geom_bond_atom_site_label_2
_geom_bond_distance
_geom_bond_site_symmetry_2
Pt0 Si6 2.431703 1_555
Pt0 Si2 2.502192 1_545
Pt0 Si0 2.502192 1_555
Pt0 Si1 2.502192 1_554
Pt1 Si7 2.431703 1_555
Pt1 Si4 2.502192 1_555
Pt1 Si3 2.502192 1_554
Pt1 Si2 2.502192 1_455
Pt2 Si8 2.431703 1_555
Pt2 Si5 2.502192 1_555
Pt2 Si1 2.502192 1_455
Pt2 Si3 2.502192 1_545
Pt3 Si9 2.431702 1_555
Pt3 Si5 2.502192 1_554
Pt3 Si4 2.502192 1_545
Pt3 Si0 2.502192 1_455
Pt4 Si10 2.431703 1_555
Pt4 Si3 2.502192 1_555
Pt4 Si4 2.502192 1_556
Pt4 Si5 2.502192 1_565
Pt5 Si11 2.431703 1_555
Pt5 Si1 2.502192 1_555
Pt5 Si0 2.502192 1_556
Pt5 Si5 2.502192 1_655
Pt6 Si12 2.431703 1_555
Pt6 Si2 2.502192 1_555
Pt6 Si4 2.502192 1_655
Pt6 Si0 2.502192 1_565
Pt7 Si13 2.431702 1_555
Pt7 Si2 2.502192 1_556
Pt7 Si3 2.502192 1_655
Pt7 Si1 2.502192 1_565
Pt8 Si8 2.518302 1_555
Pt8 Si7 2.518302 1_555
Pt8 Si9 2.518302 1_555
Pt8 Si14 2.520789 1_455
Pt9 Si8 2.518302 1_555
Pt9 Si6 2.518302 1_555
Pt9 Si9 2.518302 1_555
Pt9 Si15 2.520789 1_545
Pt10 Si6 2.518302 1_555
Pt10 Si7 2.518302 1_555
Pt10 Si9 2.518302 1_555
Pt10 Si16 2.520789 1_554
Pt11 Si8 2.518302 1_555
Pt11 Si6 2.518302 1_555
Pt11 Si7 2.518302 1_555
Pt11 Si17 2.520789 1_555
Pt12 Si11 2.518302 1_555
Pt12 Si12 2.518302 1_555
Pt12 Si13 2.518302 1_555
Pt12 Si18 2.520789 1_655
Pt13 Si12 2.518302 1_555
Pt13 Si10 2.518302 1_555
Pt13 Si13 2.518302 1_555
Pt13 Si19 2.520789 1_565
Pt14 Si11 2.518302 1_555
Pt14 Si10 2.518302 1_555
Pt14 Si13 2.518302 1_555
Pt14 Si20 2.520789 1_556
Pt15 Si11 2.518302 1_555
Pt15 Si10 2.518302 1_555
Pt15 Si12 2.518302 1_555
Pt15 Si21 2.520789 1_555
Pt16 Si17 2.582177 1_555
Pt16 Si20 2.582177 1_555
Pt16 Si19 2.582177 1_555
Pt16 Si14 2.582177 1_555
Pt17 Si21 2.582177 1_555
Pt17 Si16 2.582177 1_555
Pt17 Si14 2.582177 1_555
Pt17 Si19 2.582177 1_555
Pt18 Si21 2.582177 1_555
Pt18 Si15 2.582177 1_555
Pt18 Si14 2.582177 1_555
Pt18 Si20 2.582177 1_555
Pt19 Si21 2.582177 1_555
Pt19 Si15 2.582177 1_555
Pt19 Si16 2.582177 1_555
Pt19 Si18 2.582177 1_555
Pt20 Si17 2.582177 1_555
Pt20 Si18 2.582177 1_555
Pt20 Si20 2.582177 1_555
Pt20 Si15 2.582177 1_555
Pt21 Si17 2.582177 1_555
Pt21 Si18 2.582177 1_555
Pt21 Si19 2.582177 1_555
Pt21 Si16 2.582177 1_555
Pt22 Si6 2.438987 1_565
Pt22 Si2 2.456164 1_555
Pt22 Si15 2.466918 1_555
Pt22 Sm0 3.163398 1_565
Pt22 Sm1 3.163399 1_565
Pt23 Si6 2.438987 1_555
Pt23 Si0 2.456164 1_555
Pt23 Si17 2.466919 1_555
Pt23 Sm2 3.163398 1_555
Pt23 Sm1 3.163398 1_555
Pt24 Si6 2.438987 1_556
Pt24 Si1 2.456164 1_555
Pt24 Si16 2.466918 1_555
Pt24 Sm0 3.163398 1_556
Pt24 Sm2 3.163399 1_556
Pt25 Si7 2.438987 1_655
Pt25 Si2 2.456164 1_555
Pt25 Si14 2.466918 1_555
Pt25 Sm4 3.163398 1_655
Pt25 Sm3 3.163399 1_655
Pt26 Si7 2.438987 1_556
Pt26 Si3 2.456164 1_555
Pt26 Si16 2.466918 1_555
Pt26 Sm4 3.163398 1_556
Pt26 Sm2 3.163399 1_556
Pt27 Si7 2.438987 1_555
Pt27 Si4 2.456164 1_555
Pt27 Si17 2.466919 1_555
Pt27 Sm2 3.163398 1_555
Pt27 Sm3 3.163398 1_555
Pt28 Si8 2.438987 1_555
Pt28 Si5 2.456164 1_555
Pt28 Si17 2.466919 1_555
Pt28 Sm3 3.163398 1_555
Pt28 Sm1 3.163398 1_555
Pt29 Si8 2.438987 1_565
Pt29 Si3 2.456164 1_555
Pt29 Si15 2.466918 1_555
Pt29 Sm5 3.163398 1_565
Pt29 Sm1 3.163399 1_565
Pt30 Si8 2.438987 1_655
Pt30 Si1 2.456164 1_555
Pt30 Si14 2.466918 1_555
Pt30 Sm5 3.163398 1_655
Pt30 Sm3 3.163399 1_655
Pt31 Si9 2.438987 1_556
Pt31 Si5 2.456164 1_555
Pt31 Si16 2.466919 1_555
Pt31 Sm0 3.163399 1_556
Pt31 Sm4 3.163399 1_556
Pt32 Si9 2.438987 1_655
Pt32 Si0 2.456164 1_555
Pt32 Si14 2.466919 1_555
Pt32 Sm4 3.163399 1_655
Pt32 Sm5 3.163399 1_655
Pt33 Si9 2.438987 1_565
Pt33 Si4 2.456164 1_555
Pt33 Si15 2.466919 1_555
Pt33 Sm5 3.163399 1_565
Pt33 Sm0 3.163399 1_565
Pt34 Si10 2.438987 1_545
Pt34 Si5 2.456164 1_555
Pt34 Si19 2.466918 1_555
Pt34 Sm0 3.163398 1_556
Pt34 Sm1 3.163399 1_555
Pt35 Si10 2.438987 1_555
Pt35 Si3 2.456164 1_555
Pt35 Si21 2.466919 1_555
Pt35 Sm1 3.163398 1_565
Pt35 Sm2 3.163398 1_556
Pt36 Si10 2.438987 1_554
Pt36 Si4 2.456164 1_555
Pt36 Si20 2.466918 1_555
Pt36 Sm0 3.163398 1_565
Pt36 Sm2 3.163399 1_555
Pt37 Si11 2.438987 1_455
Pt37 Si5 2.456164 1_555
Pt37 Si18 2.466918 1_555
Pt37 Sm4 3.163398 1_556
Pt37 Sm3 3.163399 1_555
Pt38 Si11 2.438987 1_554
Pt38 Si0 2.456164 1_555
Pt38 Si20 2.466918 1_555
Pt38 Sm4 3.163398 1_655
Pt38 Sm2 3.163399 1_555
Pt39 Si11 2.438987 1_555
Pt39 Si1 2.456164 1_555
Pt39 Si21 2.466919 1_555
Pt39 Sm2 3.163398 1_556
Pt39 Sm3 3.163398 1_655
Pt40 Si12 2.438987 1_555
Pt40 Si2 2.456164 1_555
Pt40 Si21 2.466919 1_555
Pt40 Sm1 3.163398 1_565
Pt40 Sm3 3.163398 1_655
Pt41 Si12 2.438987 1_545
Pt41 Si0 2.456164 1_555
Pt41 Si19 2.466918 1_555
Pt41 Sm5 3.163398 1_655
Pt41 Sm1 3.163399 1_555
Pt42 Si12 2.438987 1_455
Pt42 Si4 2.456164 1_555
Pt42 Si18 2.466918 1_555
Pt42 Sm5 3.163398 1_565
Pt42 Sm3 3.163399 1_555
Pt43 Si13 2.438987 1_554
Pt43 Si2 2.456164 1_555
Pt43 Si20 2.466919 1_555
Pt43 Sm0 3.163399 1_565
Pt43 Sm4 3.163399 1_655
Pt44 Si13 2.438987 1_455
Pt44 Si3 2.456164 1_555
Pt44 Si18 2.466919 1_555
Pt44 Sm5 3.163399 1_565
Pt44 Sm4 3.163399 1_556
Pt45 Si13 2.438987 1_545
Pt45 Si1 2.456164 1_555
Pt45 Si19 2.466919 1_555
Pt45 Sm0 3.163399 1_556
Pt45 Sm5 3.163399 1_655
