# generated using pymatgen
data_LaU2S5
_symmetry_space_group_name_H-M   'P 1'
_cell_length_a   7.47600700
_cell_length_b   8.04373000
_cell_length_c   11.82178800
_cell_angle_alpha   90.00000000
_cell_angle_beta   90.00000000
_cell_angle_gamma   90.00000000
_symmetry_Int_Tables_number   1
_chemical_formula_structural   LaU2S5
_chemical_formula_sum   'La4 U8 S20'
_cell_volume   710.90300606
_cell_formula_units_Z   4
loop_
 _symmetry_equiv_pos_site_id
 _symmetry_equiv_pos_as_xyz
  1  'x, y, z'
loop_
 _atom_site_type_symbol
 _atom_site_label
 _atom_site_symmetry_multiplicity
 _atom_site_fract_x
 _atom_site_fract_y
 _atom_site_fract_z
 _atom_site_occupancy
  La  La0  1  0.02584700  0.49883300  0.82341500  1
  La  La1  1  0.97415300  0.99883300  0.17658500  1
  La  La2  1  0.52584700  0.99883300  0.67658500  1
  La  La3  1  0.47415300  0.49883300  0.32341500  1
  U  U0  1  0.57260400  0.25044600  0.99190500  1
  U  U1  1  0.92739600  0.25044600  0.49190500  1
  U  U2  1  0.42739600  0.75044600  0.00809500  1
  U  U3  1  0.07260400  0.75044600  0.50809500  1
  U  U4  1  0.48064800  0.00109900  0.31960400  1
  U  U5  1  0.51935200  0.50109900  0.68039600  1
  U  U6  1  0.98064800  0.50109900  0.18039600  1
  U  U7  1  0.01935200  0.00109900  0.81960400  1
  S  S0  1  0.34539500  0.04157400  0.09903000  1
  S  S1  1  0.16998200  0.45669000  0.59323000  1
  S  S2  1  0.65460500  0.54157400  0.90097000  1
  S  S3  1  0.83001800  0.95669000  0.40677000  1
  S  S4  1  0.66998200  0.95669000  0.90677000  1
  S  S5  1  0.84539500  0.54157400  0.40097000  1
  S  S6  1  0.33001800  0.45669000  0.09323000  1
  S  S7  1  0.15460500  0.04157400  0.59903000  1
  S  S8  1  0.95624700  0.25140200  0.99843100  1
  S  S9  1  0.54375300  0.25140200  0.49843100  1
  S  S10  1  0.04375300  0.75140200  0.00156900  1
  S  S11  1  0.45624700  0.75140200  0.50156900  1
  S  S12  1  0.69830900  0.25054800  0.21502800  1
  S  S13  1  0.80169100  0.25054800  0.71502800  1
  S  S14  1  0.30169100  0.75054800  0.78497200  1
  S  S15  1  0.19830900  0.75054800  0.28497200  1
  S  S16  1  0.33121600  0.24940800  0.81284900  1
  S  S17  1  0.16878400  0.24940800  0.31284900  1
  S  S18  1  0.66878400  0.74940800  0.18715100  1
  S  S19  1  0.83121600  0.74940800  0.68715100  1
loop_
_geom_bond_atom_site_label_1
_geom_bond_atom_site_label_2
_geom_bond_distance
_geom_bond_site_symmetry_2
La0 S13 2.904933 1_455
La0 S8 2.917650 1_455
La0 S14 2.925539 1_555
La0 S10 2.929327 1_556
La0 S2 2.943073 1_455
La0 S1 2.946346 1_555
La0 S19 2.962200 1_455
La0 S16 3.041823 1_555
La1 S15 2.904933 1_655
La1 S10 2.917650 1_655
La1 S12 2.925539 1_565
La1 S8 2.929327 1_564
La1 S0 2.943073 1_665
La1 S3 2.946346 1_555
La1 S17 2.962200 1_665
La1 S18 3.041823 1_555
La2 S14 2.904933 1_555
La2 S11 2.917650 1_555
La2 S13 2.925539 1_565
La2 S9 2.929327 1_565
La2 S7 2.943073 1_565
La2 S4 2.946346 1_555
La2 S16 2.962200 1_565
La2 S19 3.041823 1_555
La3 S12 2.904933 1_555
La3 S9 2.917650 1_555
La3 S15 2.925539 1_555
La3 S11 2.929327 1_555
La3 S5 2.943073 1_555
La3 S6 2.946346 1_555
La3 S18 2.962200 1_555
La3 S17 3.041823 1_555
S0 U2 2.648639 1_545
S0 U0 2.704045 1_554
S0 U4 2.815652 1_555
S1 U3 2.669492 1_555
S1 U1 2.734239 1_455
S1 U5 2.830447 1_555
S2 U0 2.648639 1_555
S2 U2 2.704045 1_556
S2 U5 2.815652 1_555
S3 U1 2.669492 1_565
S3 U3 2.734239 1_655
S3 U4 2.830447 1_565
S4 U0 2.669492 1_565
S4 U2 2.734239 1_556
S4 U7 2.830447 1_665
S5 U1 2.648639 1_555
S5 U3 2.704045 1_655
S5 U6 2.815652 1_555
S6 U2 2.669492 1_555
S6 U0 2.734239 1_554
S6 U6 2.830447 1_455
S7 U3 2.648639 1_545
S7 U1 2.704045 1_455
S7 U7 2.815652 1_555
S8 U0 2.869165 1_555
S8 U6 2.948692 1_556
S8 U7 2.957272 1_655
S9 U1 2.869165 1_555
S9 U5 2.948692 1_555
S9 U4 2.957272 1_555
S10 U2 2.869165 1_555
S10 U7 2.948692 1_564
S10 U6 2.957272 1_455
S11 U3 2.869165 1_555
S11 U4 2.948692 1_565
S11 U5 2.957272 1_555
S12 U0 2.800125 1_554
S12 U4 2.863968 1_555
S12 U6 2.946974 1_555
S13 U1 2.800125 1_555
S13 U7 2.863968 1_655
S13 U5 2.946974 1_555
S14 U2 2.800125 1_556
S14 U5 2.863968 1_555
S14 U7 2.946974 1_565
S15 U3 2.800125 1_555
S15 U6 2.863968 1_455
S15 U4 2.946974 1_565
S16 U0 2.781618 1_555
S16 U5 2.920415 1_555
S16 U7 3.071089 1_555
S17 U1 2.781618 1_455
S17 U6 2.920415 1_455
S17 U4 3.071089 1_555
S18 U2 2.781618 1_555
S18 U4 2.920415 1_565
S18 U6 3.071089 1_555
S19 U3 2.781618 1_655
S19 U7 2.920415 1_665
S19 U5 3.071089 1_555
