# generated using pymatgen
data_Li4MnCo3O8
_symmetry_space_group_name_H-M   'P 1'
_cell_length_a   3.03833850
_cell_length_b   6.01247216
_cell_length_c   16.15164541
_cell_angle_alpha   89.02938901
_cell_angle_beta   89.40464646
_cell_angle_gamma   92.86858409
_symmetry_Int_Tables_number   1
_chemical_formula_structural   Li4MnCo3O8
_chemical_formula_sum   'Li8 Mn2 Co6 O16'
_cell_volume   294.62639259
_cell_formula_units_Z   2
loop_
 _symmetry_equiv_pos_site_id
 _symmetry_equiv_pos_as_xyz
  1  'x, y, z'
loop_
 _atom_site_type_symbol
 _atom_site_label
 _atom_site_symmetry_multiplicity
 _atom_site_fract_x
 _atom_site_fract_y
 _atom_site_fract_z
 _atom_site_occupancy
  Li  Li0  1  0.50307300  0.25000400  0.12549500  1
  Li  Li1  1  0.49685700  0.25003100  0.62454800  1
  Li  Li2  1  0.49997900  0.75021400  0.37502600  1
  Li  Li3  1  0.49990700  0.74973900  0.87502400  1
  Li  Li4  1  0.99307600  0.50068100  0.00100800  1
  Li  Li5  1  0.99862000  0.50031800  0.50184600  1
  Li  Li6  1  0.00120500  0.99971700  0.24827800  1
  Li  Li7  1  0.00694600  0.99918100  0.74889000  1
  Mn  Mn0  1  0.50030200  0.24978100  0.87494800  1
  Mn  Mn1  1  0.49976700  0.25016300  0.37500900  1
  Co  Co0  1  0.48929200  0.74634100  0.12506800  1
  Co  Co1  1  0.51055000  0.75356600  0.62495600  1
  Co  Co2  1  0.01171800  0.99721600  0.00156400  1
  Co  Co3  1  0.01965500  0.99908000  0.50059800  1
  Co  Co4  1  0.98027000  0.50108100  0.24939100  1
  Co  Co5  1  0.98826100  0.50278300  0.74841000  1
  O  O0  1  0.47375800  0.23714200  0.49608300  1
  O  O1  1  0.51883600  0.23744800  0.99466700  1
  O  O2  1  0.52590300  0.26305600  0.25398700  1
  O  O3  1  0.48181600  0.26228000  0.75521500  1
  O  O4  1  0.00118200  0.98956600  0.12033700  1
  O  O5  1  0.02478000  0.98781000  0.61863300  1
  O  O6  1  0.97503000  0.51214800  0.13134500  1
  O  O7  1  0.99880700  0.51064000  0.62968300  1
  O  O8  1  0.96009100  0.49334100  0.36837600  1
  O  O9  1  0.97482700  0.49111800  0.86820800  1
  O  O10  1  0.03945200  0.00701600  0.38167100  1
  O  O11  1  0.02618100  0.00838500  0.88171000  1
  O  O12  1  0.44439300  0.73726500  0.24468400  1
  O  O13  1  0.50652100  0.74390700  0.74429100  1
  O  O14  1  0.49347700  0.75624100  0.00572700  1
  O  O15  1  0.55546900  0.76274300  0.50532600  1
loop_
_geom_bond_atom_site_label_1
_geom_bond_atom_site_label_2
_geom_bond_distance
_geom_bond_site_symmetry_2
Li0 O2 2.079914 1_555
Li0 O6 2.081111 1_555
Li0 O1 2.115844 1_554
Li0 O4 2.133620 1_545
Li0 O4 2.233463 1_645
Li0 O6 2.306975 1_455
Li1 O0 2.079461 1_555
Li1 O5 2.081753 1_545
Li1 O3 2.113118 1_555
Li1 O7 2.134438 1_555
Li1 O7 2.234076 1_455
Li1 O5 2.307090 1_645
Li2 O15 2.115359 1_555
Li2 O12 2.116184 1_555
Li2 O8 2.137704 1_555
Li2 O10 2.138247 1_565
Li2 O10 2.199572 1_665
Li2 O8 2.200757 1_455
Li3 O14 2.111998 1_556
Li3 O13 2.112342 1_555
Li3 O11 2.174442 1_565
Li3 O9 2.176317 1_455
Li3 O9 2.176976 1_555
Li3 O11 2.178805 1_665
Li4 O1 2.090902 1_554
Li4 O6 2.107687 1_555
Li4 O14 2.109719 1_655
Li4 O9 2.147899 1_554
Li4 O14 2.214944 1_555
Li4 O1 2.307015 1_654
Li5 O7 2.066766 1_555
Li5 O15 2.125950 1_555
Li5 O8 2.161153 1_555
Li5 O0 2.193414 1_555
Li5 O0 2.197126 1_655
Li5 O15 2.256764 1_655
Li6 O4 2.068393 1_555
Li6 O12 2.126211 1_555
Li6 O10 2.159923 1_565
Li6 O2 2.193687 1_565
Li6 O2 2.198168 1_465
Li6 O12 2.256874 1_455
Li7 O3 2.091550 1_565
Li7 O5 2.106355 1_555
Li7 O13 2.108471 1_455
Li7 O11 2.148239 1_565
Li7 O13 2.213564 1_555
Li7 O3 2.305031 1_465
Mn0 O1 1.935337 1_555
Mn0 O3 1.935580 1_555
Mn0 O11 1.993916 1_555
Mn0 O9 1.994500 1_555
Mn0 O9 2.212808 1_455
Mn0 O11 2.213996 1_655
Mn1 O2 1.955559 1_555
Mn1 O0 1.956402 1_555
Mn1 O10 1.972747 1_555
Mn1 O8 1.972880 1_555
Mn1 O10 2.252956 1_655
Mn1 O8 2.253042 1_455
Co0 O14 1.927354 1_555
Co0 O12 1.935045 1_555
Co0 O6 2.050862 1_455
Co0 O4 2.080731 1_655
Co0 O6 2.092207 1_555
Co0 O4 2.135291 1_555
Co1 O13 1.927241 1_555
Co1 O15 1.935279 1_555
Co1 O5 2.051013 1_655
Co1 O7 2.079217 1_455
Co1 O5 2.092529 1_555
Co1 O7 2.134322 1_555
Co2 O4 1.918048 1_555
Co2 O11 1.935832 1_564
Co2 O1 2.059356 1_564
Co2 O14 2.085473 1_455
Co2 O14 2.111225 1_555
Co2 O1 2.134435 1_464
Co3 O5 1.906769 1_555
Co3 O10 1.920893 1_565
Co3 O0 1.937624 1_565
Co3 O15 1.951303 1_455
Co3 O15 2.214897 1_555
Co3 O0 2.245367 1_465
Co4 O6 1.906931 1_555
Co4 O8 1.921845 1_555
Co4 O2 1.938033 1_555
Co4 O12 1.950529 1_655
Co4 O12 2.214410 1_555
Co4 O2 2.244638 1_655
Co5 O7 1.917313 1_555
Co5 O9 1.934950 1_555
Co5 O3 2.058931 1_555
Co5 O13 2.086094 1_655
Co5 O13 2.111809 1_555
Co5 O3 2.137028 1_655
