# generated using pymatgen
data_Li7Mn4CoO12
_symmetry_space_group_name_H-M   'P 1'
_cell_length_a   2.97403100
_cell_length_b   5.08831260
_cell_length_c   15.04161309
_cell_angle_alpha   96.22129275
_cell_angle_beta   93.63750083
_cell_angle_gamma   103.56079255
_symmetry_Int_Tables_number   1
_chemical_formula_structural   Li7Mn4CoO12
_chemical_formula_sum   'Li7 Mn4 Co1 O12'
_cell_volume   219.04110366
_cell_formula_units_Z   1
loop_
 _symmetry_equiv_pos_site_id
 _symmetry_equiv_pos_as_xyz
  1  'x, y, z'
loop_
 _atom_site_type_symbol
 _atom_site_label
 _atom_site_symmetry_multiplicity
 _atom_site_fract_x
 _atom_site_fract_y
 _atom_site_fract_z
 _atom_site_occupancy
  Li  Li0  1  0.36544100  0.59449500  0.09435500  1
  Li  Li1  1  0.96776500  0.74051900  0.23912400  1
  Li  Li2  1  0.68056300  0.92461200  0.41808900  1
  Li  Li3  1  0.33044400  0.08574100  0.58129200  1
  Li  Li4  1  0.00211400  0.25019900  0.75020900  1
  Li  Li5  1  0.65384300  0.40450200  0.91684200  1
  Li  Li6  1  0.66767700  0.16821700  0.16786100  1
  Mn  Mn0  1  0.01138000  0.00148300  0.00693600  1
  Mn  Mn1  1  0.32549500  0.33360300  0.32869700  1
  Mn  Mn2  1  0.66276000  0.66413800  0.66428200  1
  Mn  Mn3  1  0.34606300  0.83884700  0.83358000  1
  Co  Co0  1  0.98095500  0.49253500  0.49830700  1
  O  O0  1  0.62151700  0.24969600  0.03682400  1
  O  O1  1  0.34617400  0.46360600  0.22063800  1
  O  O2  1  0.95670000  0.58750600  0.37741800  1
  O  O3  1  0.68010300  0.77018800  0.54158400  1
  O  O4  1  0.36514800  0.94710100  0.71084400  1
  O  O5  1  0.03470500  0.11338700  0.88003300  1
  O  O6  1  0.98866300  0.87183300  0.11501000  1
  O  O7  1  0.71452400  0.08462100  0.29891900  1
  O  O8  1  0.30590000  0.22848900  0.45508100  1
  O  O9  1  0.96901100  0.38533500  0.61818000  1
  O  O10  1  0.64342500  0.55485000  0.78741700  1
  O  O11  1  0.37963200  0.74449700  0.95847900  1
loop_
_geom_bond_atom_site_label_1
_geom_bond_atom_site_label_2
_geom_bond_distance
_geom_bond_site_symmetry_2
Li0 O6 2.008556 1_455
Li0 O6 2.031912 1_555
Li0 O1 2.079675 1_555
Li0 O0 2.188169 1_555
Li0 O11 2.257293 1_554
Li0 O0 2.515865 1_455
Li1 O1 2.006887 1_655
Li1 O1 2.026929 1_555
Li1 O6 2.049667 1_555
Li1 O7 2.191999 1_565
Li1 O2 2.298270 1_555
Li1 O7 2.527568 1_665
Li2 O7 2.046190 1_565
Li2 O3 2.093831 1_555
Li2 O2 2.118456 1_555
Li2 O8 2.119633 1_665
Li2 O8 2.154561 1_565
Li2 O2 2.413456 1_455
Li3 O8 2.107851 1_555
Li3 O9 2.109023 1_455
Li3 O9 2.136284 1_555
Li3 O4 2.147601 1_545
Li3 O3 2.161051 1_545
Li3 O3 2.205650 1_445
Li4 O10 2.125413 1_455
Li4 O4 2.135163 1_545
Li4 O4 2.146487 1_445
Li4 O5 2.146986 1_555
Li4 O10 2.154983 1_555
Li4 O9 2.174701 1_455
Li5 O0 2.044836 1_556
Li5 O5 2.074864 1_555
Li5 O5 2.114805 1_655
Li5 O11 2.131148 1_555
Li5 O10 2.168488 1_555
Li5 O11 2.426271 1_655
Li6 O0 2.060357 1_555
Li6 O7 2.064254 1_555
Li6 O1 2.077307 1_555
Li6 O6 2.080674 1_545
Li6 O1 2.253206 1_655
Li6 O6 2.256680 1_445
Mn0 O6 1.818745 1_445
Mn0 O0 1.942011 1_455
Mn0 O0 1.946428 1_555
Mn0 O11 2.001722 1_544
Mn0 O5 2.050974 1_554
Mn0 O11 2.058811 1_444
Mn1 O1 1.819303 1_555
Mn1 O7 1.942786 1_555
Mn1 O7 1.949748 1_455
Mn1 O2 1.992598 1_455
Mn1 O8 2.030554 1_555
Mn1 O2 2.052567 1_555
Mn2 O9 1.948285 1_555
Mn2 O4 1.950562 1_555
Mn2 O3 1.978603 1_555
Mn2 O10 1.991168 1_555
Mn2 O9 2.232252 1_455
Mn2 O4 2.261087 1_655
Mn3 O5 1.942754 1_565
Mn3 O10 1.952487 1_555
Mn3 O4 1.983415 1_555
Mn3 O11 1.990993 1_555
Mn3 O5 2.213446 1_665
Mn3 O10 2.262604 1_455
Co0 O8 1.913394 1_655
Co0 O3 1.920324 1_555
Co0 O2 1.932701 1_555
Co0 O9 1.939617 1_555
Co0 O8 2.153733 1_555
Co0 O3 2.234833 1_655
