# generated using pymatgen
data_PrIn5Ir
_symmetry_space_group_name_H-M   'P 1'
_cell_length_a   4.69016595
_cell_length_b   4.69016595
_cell_length_c   7.59864785
_cell_angle_alpha   90.00000000
_cell_angle_beta   90.00000000
_cell_angle_gamma   90.00000000
_symmetry_Int_Tables_number   1
_chemical_formula_structural   PrIn5Ir
_chemical_formula_sum   'Pr1 In5 Ir1'
_cell_volume   167.15244632
_cell_formula_units_Z   1
loop_
 _symmetry_equiv_pos_site_id
 _symmetry_equiv_pos_as_xyz
  1  'x, y, z'
loop_
 _atom_site_type_symbol
 _atom_site_label
 _atom_site_symmetry_multiplicity
 _atom_site_fract_x
 _atom_site_fract_y
 _atom_site_fract_z
 _atom_site_occupancy
  Pr  Pr0  1  0.00000000  0.00000000  0.00000000  1
  In  In0  1  0.50000000  0.50000000  0.00000000  1
  In  In1  1  0.50000000  -0.00000000  0.69434227  1
  In  In2  1  0.00000000  0.50000000  0.69434227  1
  In  In3  1  0.50000000  0.00000000  0.30565773  1
  In  In4  1  -0.00000000  0.50000000  0.30565773  1
  Ir  Ir0  1  0.00000000  0.00000000  0.50000000  1
loop_
_geom_bond_atom_site_label_1
_geom_bond_atom_site_label_2
_geom_bond_distance
_geom_bond_site_symmetry_2
In0 In1 3.300578 1_564
In0 In4 3.300578 1_655
In0 In3 3.300578 1_565
In0 In2 3.300578 1_654
In0 In3 3.300578 1_555
In0 In4 3.300578 1_555
In0 In2 3.300578 1_554
In0 In1 3.300578 1_554
In0 Pr0 3.316448 1_665
In0 Pr0 3.316448 1_555
In0 Pr0 3.316448 1_565
In0 Pr0 3.316448 1_655
In1 Ir0 2.771312 1_555
In1 Ir0 2.771312 1_655
In1 In3 2.953477 1_555
In1 Pr0 3.300578 1_556
In1 Pr0 3.300578 1_656
In1 In2 3.316448 1_655
In1 In2 3.316448 1_555
In1 In2 3.316448 1_545
In1 In2 3.316448 1_645
In2 Ir0 2.771312 1_555
In2 Ir0 2.771312 1_565
In2 In4 2.953477 1_555
In2 Pr0 3.300578 1_556
In2 Pr0 3.300578 1_566
In3 Ir0 2.771312 1_555
In3 Ir0 2.771312 1_655
In3 Pr0 3.300578 1_555
In3 Pr0 3.300578 1_655
In3 In4 3.316448 1_645
In3 In4 3.316448 1_545
In3 In4 3.316448 1_555
In3 In4 3.316448 1_655
In4 Ir0 2.771312 1_555
In4 Ir0 2.771312 1_565
In4 Pr0 3.300578 1_555
In4 Pr0 3.300578 1_565
