# generated using pymatgen
data_UAl5Cu6
_symmetry_space_group_name_H-M   'P 1'
_cell_length_a   10.30942552
_cell_length_b   8.17763044
_cell_length_c   7.82194863
_cell_angle_alpha   80.20119876
_cell_angle_beta   51.41161454
_cell_angle_gamma   48.38718670
_symmetry_Int_Tables_number   1
_chemical_formula_structural   UAl5Cu6
_chemical_formula_sum   'U2 Al10 Cu12'
_cell_volume   350.17273231
_cell_formula_units_Z   2
loop_
 _symmetry_equiv_pos_site_id
 _symmetry_equiv_pos_as_xyz
  1  'x, y, z'
loop_
 _atom_site_type_symbol
 _atom_site_label
 _atom_site_symmetry_multiplicity
 _atom_site_fract_x
 _atom_site_fract_y
 _atom_site_fract_z
 _atom_site_occupancy
  U  U0  1  0.00000000  0.00000000  0.00000000  1
  U  U1  1  0.25000000  0.25000000  0.25000000  1
  Al  Al0  1  0.50000000  0.50000000  0.50000000  1
  Al  Al1  1  0.75000000  0.75000000  0.75000000  1
  Al  Al2  1  0.75461000  0.07111000  0.83564400  1
  Al  Al3  1  0.83564400  0.33863700  0.75461000  1
  Al  Al4  1  0.07111000  0.75461000  0.33863700  1
  Al  Al5  1  0.33863700  0.83564400  0.07111000  1
  Al  Al6  1  0.49539000  0.17889000  0.41435600  1
  Al  Al7  1  0.41435600  0.91136300  0.49539000  1
  Al  Al8  1  0.17889000  0.49539000  0.91136300  1
  Al  Al9  1  0.91136300  0.41435600  0.17889000  1
  Cu  Cu0  1  0.62500000  0.12500000  0.62500000  1
  Cu  Cu1  1  0.62500000  0.62500000  0.62500000  1
  Cu  Cu2  1  0.12500000  0.62500000  0.62500000  1
  Cu  Cu3  1  0.62500000  0.62500000  0.12500000  1
  Cu  Cu4  1  0.49143200  0.43480000  0.18311800  1
  Cu  Cu5  1  0.18311800  0.89065000  0.49143200  1
  Cu  Cu6  1  0.43480000  0.49143200  0.89065000  1
  Cu  Cu7  1  0.89065000  0.18311800  0.43480000  1
  Cu  Cu8  1  0.75856800  0.81520000  0.06688200  1
  Cu  Cu9  1  0.06688200  0.35935000  0.75856800  1
  Cu  Cu10  1  0.81520000  0.75856800  0.35935000  1
  Cu  Cu11  1  0.35935000  0.06688200  0.81520000  1
loop_
_geom_bond_atom_site_label_1
_geom_bond_atom_site_label_2
_geom_bond_distance
_geom_bond_site_symmetry_2
Al0 Cu5 2.687232 1_555
Al0 Cu4 2.687232 1_555
Al0 Cu6 2.687232 1_555
Al0 Cu7 2.687232 1_555
Al0 Cu0 2.706132 1_555
Al0 Cu3 2.706132 1_555
Al0 Cu1 2.706132 1_555
Al0 Cu2 2.706132 1_555
Al0 Al9 2.854938 1_555
Al0 Al7 2.854938 1_555
Al0 Al8 2.854943 1_555
Al0 Al6 2.854946 1_555
Al0 U0 3.299414 1_655
Al0 U0 3.299414 1_566
Al1 Cu11 2.687232 1_565
Al1 Cu10 2.687232 1_555
Al1 Cu9 2.687232 1_655
Al1 Cu8 2.687232 1_556
Al1 Cu3 2.706132 1_556
Al1 Cu0 2.706132 1_565
Al1 Cu1 2.706132 1_555
Al1 Cu2 2.706132 1_655
Al1 Al5 2.854938 1_556
Al1 Al3 2.854938 1_555
Al1 Al4 2.854943 1_655
Al1 Al2 2.854946 1_565
Al1 U1 3.299414 1_566
Al1 U1 3.299414 1_655
Al2 Cu2 2.509978 1_645
Al2 Cu8 2.518527 1_546
Al2 Cu0 2.532092 1_555
Al2 Cu4 2.535494 1_556
Al2 Cu6 2.559700 1_555
Al2 Cu5 2.607476 1_645
Al2 Al3 2.679702 1_555
Al2 Cu7 2.807106 1_555
Al2 Al4 2.973749 1_645
Al2 U1 3.190751 1_556
Al2 U0 3.199938 1_656
Al3 Cu3 2.509973 1_556
Al3 Cu9 2.518521 1_655
Al3 Cu1 2.532090 1_555
Al3 Cu5 2.535499 1_645
Al3 Cu7 2.559705 1_555
Al3 Cu4 2.607479 1_556
Al3 Cu6 2.807110 1_555
Al3 Al5 2.973749 1_556
Al3 U1 3.190747 1_655
Al3 U0 3.199941 1_656
Al4 Cu0 2.509978 1_465
Al4 Cu10 2.518531 1_455
Al4 Cu2 2.532085 1_555
Al4 Cu6 2.535499 1_554
Al4 Cu4 2.559697 1_555
Al4 Cu7 2.607475 1_465
Al4 Al5 2.679702 1_555
Al4 Cu5 2.807100 1_555
Al4 U1 3.190752 1_555
Al4 U0 3.199944 1_565
Al5 Cu1 2.509979 1_554
Al5 Cu11 2.518526 1_564
Al5 Cu3 2.532084 1_555
Al5 Cu7 2.535498 1_465
Al5 Cu5 2.559697 1_555
Al5 Cu6 2.607483 1_554
Al5 Cu4 2.807106 1_555
Al5 U1 3.190744 1_565
Al5 U0 3.199947 1_565
Al6 Cu2 2.509978 1_555
Al6 Cu4 2.518527 1_555
Al6 Cu0 2.532092 1_555
Al6 Cu8 2.535494 1_545
Al6 Cu10 2.559700 1_545
Al6 Cu9 2.607476 1_555
Al6 Al7 2.679702 1_545
Al6 Cu11 2.807106 1_555
Al6 Al8 2.973749 1_555
Al6 U0 3.190751 1_655
Al6 U1 3.199938 1_555
Al7 Cu3 2.509973 1_555
Al7 Cu5 2.518521 1_555
Al7 Cu1 2.532090 1_555
Al7 Cu9 2.535499 1_565
Al7 Cu11 2.559705 1_565
Al7 Cu8 2.607479 1_555
Al7 Cu10 2.807110 1_555
Al7 Al9 2.973749 1_555
Al7 U0 3.190747 1_566
Al7 U1 3.199941 1_565
Al8 Cu0 2.509978 1_555
Al8 Cu6 2.518531 1_555
Al8 Cu2 2.532085 1_555
Al8 Cu10 2.535499 1_456
Al8 Cu8 2.559697 1_456
Al8 Cu11 2.607475 1_555
Al8 Al9 2.679702 1_456
Al8 Cu9 2.807100 1_555
Al8 U0 3.190752 1_566
Al8 U1 3.199944 1_556
Al9 Cu1 2.509979 1_555
Al9 Cu7 2.518526 1_555
Al9 Cu3 2.532084 1_555
Al9 Cu11 2.535498 1_654
Al9 Cu9 2.559697 1_654
Al9 Cu10 2.607483 1_555
Al9 Cu8 2.807106 1_555
Al9 U0 3.190744 1_655
Al9 U1 3.199947 1_655
Cu0 Cu11 2.518962 1_555
Cu0 Cu7 2.518962 1_555
Cu0 Cu10 2.524773 1_545
Cu0 Cu6 2.524773 1_555
Cu0 U1 3.572984 1_556
Cu0 U0 3.572984 1_655
Cu1 Cu6 2.518962 1_555
Cu1 Cu10 2.518962 1_555
Cu1 Cu7 2.524773 1_555
Cu1 Cu11 2.524773 1_565
Cu1 U0 3.572984 1_566
Cu1 U1 3.572984 1_655
Cu2 Cu9 2.518962 1_555
Cu2 Cu5 2.518962 1_555
Cu2 Cu4 2.524773 1_555
Cu2 Cu8 2.524773 1_456
Cu2 U0 3.572984 1_566
Cu2 U1 3.572984 1_555
Cu3 Cu4 2.518962 1_555
Cu3 Cu8 2.518962 1_555
Cu3 Cu5 2.524773 1_555
Cu3 Cu9 2.524773 1_654
Cu3 U1 3.572984 1_565
Cu3 U0 3.572984 1_655
Cu4 Cu6 2.595222 1_554
Cu4 Cu5 2.752380 1_555
Cu4 U0 3.128667 1_655
Cu4 U1 3.443146 1_555
Cu5 Cu7 2.595222 1_465
Cu5 U0 3.128667 1_566
Cu5 U1 3.443146 1_565
Cu6 Cu7 2.752380 1_555
Cu6 U0 3.128667 1_566
Cu6 U1 3.443146 1_556
Cu7 U0 3.128667 1_655
Cu7 U1 3.443146 1_655
Cu8 Cu9 2.752380 1_654
Cu8 U1 3.128667 1_565
Cu8 U0 3.443146 1_665
Cu9 U1 3.128667 1_555
Cu9 U0 3.443146 1_556
Cu10 Cu8 2.595222 1_555
Cu10 Cu11 2.752380 1_565
Cu10 U1 3.128667 1_655
Cu10 U0 3.443146 1_665
Cu11 Cu9 2.595222 1_555
Cu11 U1 3.128667 1_556
Cu11 U0 3.443146 1_556
