# generated using pymatgen
data_Ba4Sr(FeO3)5
_symmetry_space_group_name_H-M   'P 1'
_cell_length_a   5.67242775
_cell_length_b   5.67242704
_cell_length_c   20.64800376
_cell_angle_alpha   82.11899444
_cell_angle_beta   82.11897354
_cell_angle_gamma   90.02667605
_symmetry_Int_Tables_number   1
_chemical_formula_structural   Ba4Sr(FeO3)5
_chemical_formula_sum   'Ba8 Sr2 Fe10 O30'
_cell_volume   651.76249654
_cell_formula_units_Z   2
loop_
 _symmetry_equiv_pos_site_id
 _symmetry_equiv_pos_as_xyz
  1  'x, y, z'
loop_
 _atom_site_type_symbol
 _atom_site_label
 _atom_site_symmetry_multiplicity
 _atom_site_fract_x
 _atom_site_fract_y
 _atom_site_fract_z
 _atom_site_occupancy
  Ba  Ba0  1  0.35127400  0.85131300  0.29725600  1
  Ba  Ba1  1  0.85131200  0.35127400  0.29725600  1
  Ba  Ba2  1  0.04814100  0.54814600  0.90376500  1
  Ba  Ba3  1  0.54814600  0.04814000  0.90376500  1
  Ba  Ba4  1  0.25036200  0.75036100  0.49923200  1
  Ba  Ba5  1  0.75035800  0.25036000  0.49923100  1
  Ba  Ba6  1  0.14999300  0.65002400  0.70013200  1
  Ba  Ba7  1  0.65002400  0.14999300  0.70013200  1
  Sr  Sr0  1  0.44995500  0.95009600  0.09994000  1
  Sr  Sr1  1  0.95009600  0.44995700  0.09994000  1
  Fe  Fe0  1  0.40161000  0.40160900  0.19665900  1
  Fe  Fe1  1  0.90126400  0.90127500  0.19719900  1
  Fe  Fe2  1  0.29956400  0.29956600  0.40079500  1
  Fe  Fe3  1  0.09993000  0.09992900  0.80048900  1
  Fe  Fe4  1  0.59715700  0.59715800  0.80542400  1
  Fe  Fe5  1  0.20036900  0.20038100  0.59950600  1
  Fe  Fe6  1  0.70020700  0.70020500  0.60015800  1
  Fe  Fe7  1  0.49899200  0.49898800  0.00219900  1
  Fe  Fe8  1  0.99838700  0.99839000  0.00329300  1
  Fe  Fe9  1  0.80106900  0.80105100  0.39756800  1
  O  O0  1  0.44792000  0.44792300  0.10345300  1
  O  O1  1  0.95020400  0.95020400  0.10023700  1
  O  O2  1  0.35446200  0.35446500  0.29086500  1
  O  O3  1  0.85366500  0.85366500  0.29323100  1
  O  O4  1  0.04611400  0.04611500  0.90705800  1
  O  O5  1  0.54797400  0.54797100  0.90463500  1
  O  O6  1  0.24891100  0.24891100  0.50154500  1
  O  O7  1  0.74859400  0.74859300  0.50268200  1
  O  O8  1  0.15021900  0.15022000  0.69922400  1
  O  O9  1  0.65313600  0.65313200  0.69398000  1
  O  O10  1  0.45246600  0.94831300  0.59952800  1
  O  O11  1  0.94831100  0.45246400  0.59952800  1
  O  O12  1  0.94771600  0.94771400  0.59943800  1
  O  O13  1  0.45294100  0.45294000  0.59953100  1
  O  O14  1  0.74480000  0.24768600  0.00748800  1
  O  O15  1  0.24768800  0.74480100  0.00748800  1
  O  O16  1  0.64930100  0.15708300  0.19361900  1
  O  O17  1  0.15708300  0.64930300  0.19361900  1
  O  O18  1  0.24752400  0.24752300  0.00716500  1
  O  O19  1  0.74511600  0.74511600  0.00748000  1
  O  O20  1  0.15441600  0.15441900  0.19351900  1
  O  O21  1  0.65213000  0.65213300  0.19346500  1
  O  O22  1  0.55060100  0.05174000  0.39744000  1
  O  O23  1  0.05174100  0.55059600  0.39744000  1
  O  O24  1  0.35106700  0.84721700  0.80186900  1
  O  O25  1  0.84721700  0.35106800  0.80186900  1
  O  O26  1  0.05185800  0.05185900  0.39746500  1
  O  O27  1  0.55047200  0.55047200  0.39743100  1
  O  O28  1  0.84721500  0.84721500  0.80187400  1
  O  O29  1  0.35092800  0.35092600  0.80189700  1
loop_
_geom_bond_atom_site_label_1
_geom_bond_atom_site_label_2
_geom_bond_distance
_geom_bond_site_symmetry_2
Ba0 O3 2.835226 1_455
Ba0 O2 2.838944 1_565
Ba0 O2 2.839389 1_555
Ba0 O3 2.839546 1_555
Ba0 O22 2.852231 1_565
Ba0 O23 2.853332 1_555
Ba0 O27 2.853416 1_555
Ba0 O26 2.853685 1_565
Ba0 O17 2.902288 1_555
Ba0 O16 2.903928 1_565
Ba0 O20 2.904973 1_565
Ba0 O21 2.905954 1_555
Ba1 O3 2.835226 1_545
Ba1 O2 2.838933 1_655
Ba1 O2 2.839401 1_555
Ba1 O3 2.839546 1_555
Ba1 O23 2.852223 1_655
Ba1 O22 2.853318 1_555
Ba1 O27 2.853413 1_555
Ba1 O26 2.853683 1_655
Ba1 O16 2.902290 1_555
Ba1 O17 2.903937 1_655
Ba1 O20 2.904958 1_655
Ba1 O21 2.905969 1_555
Ba2 O5 2.834753 1_455
Ba2 O4 2.834807 1_565
Ba2 O5 2.837785 1_555
Ba2 O4 2.839190 1_555
Ba2 O25 2.876927 1_455
Ba2 O29 2.877848 1_555
Ba2 O28 2.878145 1_455
Ba2 O24 2.878240 1_555
Ba2 O18 2.900147 1_556
Ba2 O15 2.903642 1_556
Ba2 O19 2.904733 1_456
Ba2 O14 2.904818 1_456
Ba3 O5 2.834764 1_545
Ba3 O4 2.834802 1_655
Ba3 O5 2.837774 1_555
Ba3 O4 2.839196 1_555
Ba3 O24 2.876927 1_545
Ba3 O29 2.877840 1_555
Ba3 O28 2.878141 1_545
Ba3 O25 2.878246 1_555
Ba3 O18 2.900144 1_556
Ba3 O14 2.903637 1_556
Ba3 O19 2.904731 1_546
Ba3 O15 2.904807 1_546
Ba4 O6 2.834929 1_565
Ba4 O7 2.836818 1_555
Ba4 O7 2.837331 1_455
Ba4 O6 2.838273 1_555
Ba4 O12 2.853819 1_455
Ba4 O11 2.853825 1_455
Ba4 O10 2.855056 1_555
Ba4 O13 2.855166 1_555
Ba4 O22 2.875923 1_565
Ba4 O23 2.876161 1_555
Ba4 O26 2.876332 1_565
Ba4 O27 2.876817 1_555
Ba5 O6 2.834949 1_655
Ba5 O7 2.836827 1_555
Ba5 O7 2.837323 1_545
Ba5 O6 2.838254 1_555
Ba5 O10 2.853811 1_545
Ba5 O12 2.853848 1_545
Ba5 O11 2.855076 1_555
Ba5 O13 2.855171 1_555
Ba5 O23 2.875914 1_655
Ba5 O22 2.876119 1_555
Ba5 O26 2.876314 1_655
Ba5 O27 2.876801 1_555
Ba6 O8 2.834814 1_565
Ba6 O8 2.837733 1_555
Ba6 O9 2.838548 1_455
Ba6 O9 2.839353 1_555
Ba6 O11 2.858074 1_455
Ba6 O13 2.859613 1_555
Ba6 O10 2.859695 1_555
Ba6 O12 2.860767 1_455
Ba6 O24 2.874915 1_555
Ba6 O25 2.875634 1_455
Ba6 O28 2.875915 1_455
Ba6 O29 2.876418 1_555
Ba7 O8 2.834809 1_655
Ba7 O8 2.837739 1_555
Ba7 O9 2.838570 1_545
Ba7 O9 2.839330 1_555
Ba7 O10 2.858063 1_545
Ba7 O13 2.859608 1_555
Ba7 O11 2.859683 1_555
Ba7 O12 2.860777 1_545
Ba7 O25 2.874918 1_555
Ba7 O24 2.875637 1_545
Ba7 O28 2.875916 1_545
Ba7 O29 2.876406 1_555
Fe0 O0 1.887972 1_555
Fe0 O2 1.908227 1_555
Fe0 O16 1.975708 1_555
Fe0 O17 1.975724 1_555
Fe0 O20 1.996107 1_555
Fe0 O21 1.997482 1_555
Fe1 O3 1.945217 1_555
Fe1 O1 1.964057 1_555
Fe1 O21 2.014500 1_555
Fe1 O20 2.016927 1_665
Fe1 O16 2.038440 1_565
Fe1 O17 2.038520 1_655
Fe2 O27 2.000002 1_555
Fe2 O26 2.001118 1_555
Fe2 O23 2.002525 1_555
Fe2 O22 2.002565 1_555
Fe2 O6 2.040784 1_555
Fe2 O2 2.226731 1_555
Fe3 O29 2.018879 1_555
Fe3 O28 2.021458 1_445
Fe3 O24 2.021608 1_545
Fe3 O25 2.021620 1_455
Fe3 O8 2.051215 1_555
Fe3 O4 2.158656 1_555
Fe4 O29 1.990215 1_555
Fe4 O24 1.991826 1_555
Fe4 O25 1.991830 1_555
Fe4 O28 1.992581 1_555
Fe4 O5 2.009610 1_555
Fe4 O9 2.257400 1_555
Fe5 O6 1.984290 1_555
Fe5 O8 2.019880 1_555
Fe5 O11 2.022586 1_455
Fe5 O10 2.022683 1_545
Fe5 O13 2.025715 1_555
Fe5 O12 2.026645 1_445
Fe6 O9 1.900450 1_555
Fe6 O7 1.974465 1_555
Fe6 O12 1.982231 1_555
Fe6 O13 1.985660 1_555
Fe6 O11 1.989344 1_555
Fe6 O10 1.989360 1_555
Fe7 O5 1.976248 1_554
Fe7 O14 1.997254 1_555
Fe7 O15 1.997282 1_555
Fe7 O19 1.997984 1_555
Fe7 O18 1.999445 1_555
Fe7 O0 2.050995 1_555
Fe8 O4 1.949328 1_664
Fe8 O1 1.963689 1_555
Fe8 O18 2.015135 1_665
Fe8 O19 2.016301 1_555
Fe8 O14 2.019328 1_565
Fe8 O15 2.019356 1_655
Fe9 O27 2.010305 1_555
Fe9 O23 2.010496 1_655
Fe9 O22 2.010616 1_565
Fe9 O26 2.011032 1_665
Fe9 O3 2.113444 1_555
Fe9 O7 2.129179 1_555
O0 Sr1 2.834716 1_455
O0 Sr0 2.834732 1_545
O0 Sr0 2.839481 1_555
O0 Sr1 2.839498 1_555
O1 Sr0 2.833968 1_655
O1 Sr1 2.833979 1_565
O1 Sr1 2.838462 1_555
O1 Sr0 2.838474 1_555
O14 Sr1 2.743298 1_555
O14 Sr0 2.743898 1_545
O15 Sr0 2.743284 1_555
O15 Sr1 2.743901 1_455
O16 Sr0 2.760443 1_545
O16 Sr1 2.761107 1_555
O17 Sr1 2.760443 1_455
O17 Sr0 2.761095 1_555
O18 Sr0 2.748323 1_545
O18 Sr1 2.748334 1_455
O19 Sr1 2.744785 1_555
O19 Sr0 2.744791 1_555
O20 Sr1 2.759483 1_455
O20 Sr0 2.759494 1_545
O21 Sr0 2.759550 1_555
O21 Sr1 2.759561 1_555
