# generated using pymatgen
data_U2Mn(PO11)2
_symmetry_space_group_name_H-M   'P 1'
_cell_length_a   10.76678476
_cell_length_b   10.76678476
_cell_length_c   7.04574833
_cell_angle_alpha   71.06351008
_cell_angle_beta   71.06351008
_cell_angle_gamma   125.01983230
_symmetry_Int_Tables_number   1
_chemical_formula_structural   U2Mn(PO11)2
_chemical_formula_sum   'U2 Mn1 P2 O22'
_cell_volume   475.68528521
_cell_formula_units_Z   1
loop_
 _symmetry_equiv_pos_site_id
 _symmetry_equiv_pos_as_xyz
  1  'x, y, z'
loop_
 _atom_site_type_symbol
 _atom_site_label
 _atom_site_symmetry_multiplicity
 _atom_site_fract_x
 _atom_site_fract_y
 _atom_site_fract_z
 _atom_site_occupancy
  U  U0  1  0.20084200  0.79915800  0.50000000  1
  U  U1  1  0.79915800  0.20084200  0.50000000  1
  Mn  Mn0  1  0.00000000  0.00000000  0.00000000  1
  P  P0  1  0.25081900  0.74918100  0.00000000  1
  P  P1  1  0.74918100  0.25081900  0.00000000  1
  O  O0  1  0.10604200  0.89395800  0.50000000  1
  O  O1  1  0.89395800  0.10604200  0.50000000  1
  O  O2  1  0.29574600  0.70425400  0.50000000  1
  O  O3  1  0.70425400  0.29574600  0.50000000  1
  O  O4  1  0.18741900  0.78107600  0.19317800  1
  O  O5  1  0.21892400  0.81258100  0.80682200  1
  O  O6  1  0.81258100  0.21892400  0.80682200  1
  O  O7  1  0.78107600  0.18741900  0.19317800  1
  O  O8  1  0.88019300  0.47580700  0.83906800  1
  O  O9  1  0.52419300  0.11980700  0.16093200  1
  O  O10  1  0.11980700  0.52419300  0.16093200  1
  O  O11  1  0.47580700  0.88019300  0.83906800  1
  O  O12  1  0.20249700  0.33099300  0.76105200  1
  O  O13  1  0.66900700  0.79750300  0.23894800  1
  O  O14  1  0.79750300  0.66900700  0.23894800  1
  O  O15  1  0.33099300  0.20249700  0.76105200  1
  O  O16  1  0.01419200  0.01419200  0.75138700  1
  O  O17  1  0.98580800  0.98580800  0.24861300  1
  O  O18  1  0.31825400  0.42386900  0.79551200  1
  O  O19  1  0.57613100  0.68174600  0.20448800  1
  O  O20  1  0.68174600  0.57613100  0.20448800  1
  O  O21  1  0.42386900  0.31825400  0.79551200  1
loop_
_geom_bond_atom_site_label_1
_geom_bond_atom_site_label_2
_geom_bond_distance
_geom_bond_site_symmetry_2
Mn0 O17 1.655532 1_445
Mn0 O16 1.655532 1_554
Mn0 O14 2.256996 1_445
Mn0 O13 2.256996 1_445
Mn0 O12 2.256996 1_554
Mn0 O15 2.256996 1_554
O0 U0 1.810891 1_555
O1 U1 1.810891 1_555
O2 U0 1.812878 1_555
O3 U1 1.812878 1_555
O4 P0 1.551072 1_555
O4 U0 2.275033 1_555
O5 P0 1.551072 1_556
O5 U0 2.275033 1_555
O6 P1 1.551072 1_556
O6 U1 2.275033 1_555
O7 P1 1.551072 1_555
O7 U1 2.275033 1_555
O8 P1 1.549475 1_556
O8 U0 2.280492 1_655
O9 P1 1.549475 1_555
O9 U0 2.280492 1_545
O10 P0 1.549475 1_555
O10 U1 2.280492 1_455
O11 P0 1.549475 1_556
O11 U1 2.280492 1_565
O12 O18 1.239283 1_555
O13 O19 1.239283 1_555
O14 O20 1.239283 1_555
O15 O21 1.239283 1_555
