# generated using pymatgen
data_CaAg3P3O13
_symmetry_space_group_name_H-M   'P 1'
_cell_length_a   6.63268600
_cell_length_b   7.54795400
_cell_length_c   10.80565586
_cell_angle_alpha   80.78585710
_cell_angle_beta   90.00000000
_cell_angle_gamma   90.00000000
_symmetry_Int_Tables_number   1
_chemical_formula_structural   CaAg3P3O13
_chemical_formula_sum   'Ca2 Ag6 P6 O26'
_cell_volume   533.98559973
_cell_formula_units_Z   2
loop_
 _symmetry_equiv_pos_site_id
 _symmetry_equiv_pos_as_xyz
  1  'x, y, z'
loop_
 _atom_site_type_symbol
 _atom_site_label
 _atom_site_symmetry_multiplicity
 _atom_site_fract_x
 _atom_site_fract_y
 _atom_site_fract_z
 _atom_site_occupancy
  Ca  Ca0  1  0.75000000  0.33526300  0.18984600  1
  Ca  Ca1  1  0.25000000  0.66473700  0.81015400  1
  Ag  Ag0  1  0.25000000  0.71643100  0.24815500  1
  Ag  Ag1  1  0.75000000  0.28356900  0.75184500  1
  Ag  Ag2  1  0.25000000  0.25813900  0.41758800  1
  Ag  Ag3  1  0.50000000  0.00000000  0.00000000  1
  Ag  Ag4  1  0.75000000  0.74186100  0.58241200  1
  Ag  Ag5  1  0.00000000  0.00000000  0.00000000  1
  P  P0  1  0.25000000  0.76197600  0.50831700  1
  P  P1  1  0.75000000  0.23802400  0.49168300  1
  P  P2  1  0.25000000  0.22357700  0.73150500  1
  P  P3  1  0.75000000  0.77642300  0.26849500  1
  P  P4  1  0.75000000  0.68261800  0.89720300  1
  P  P5  1  0.25000000  0.31738200  0.10279700  1
  O  O0  1  0.75000000  0.60503900  0.77085700  1
  O  O1  1  0.57229100  0.25490200  0.39570100  1
  O  O2  1  0.25000000  0.14993400  0.60491000  1
  O  O3  1  0.55512200  0.80107700  0.88827600  1
  O  O4  1  0.75000000  0.40226100  0.56512700  1
  O  O5  1  0.75000000  0.14745500  0.93203400  1
  O  O6  1  0.25000000  0.59773900  0.43487300  1
  O  O7  1  0.05512200  0.19892300  0.11172400  1
  O  O8  1  0.25000000  0.92483500  0.40408000  1
  O  O9  1  0.75000000  0.07516500  0.59592000  1
  O  O10  1  0.07056300  0.34873000  0.75141000  1
  O  O11  1  0.25000000  0.85254500  0.06796600  1
  O  O12  1  0.57056300  0.65127000  0.24859000  1
  O  O13  1  0.75000000  0.53316000  0.00681800  1
  O  O14  1  0.75000000  0.85006600  0.39509000  1
  O  O15  1  0.44487800  0.19892300  0.11172400  1
  O  O16  1  0.92770900  0.25490200  0.39570100  1
  O  O17  1  0.42770900  0.74509800  0.60429900  1
  O  O18  1  0.42943700  0.34873000  0.75141000  1
  O  O19  1  0.25000000  0.39496100  0.22914300  1
  O  O20  1  0.75000000  0.95339300  0.17612200  1
  O  O21  1  0.25000000  0.04660700  0.82387800  1
  O  O22  1  0.92943700  0.65127000  0.24859000  1
  O  O23  1  0.94487800  0.80107700  0.88827600  1
  O  O24  1  0.07229100  0.74509800  0.60429900  1
  O  O25  1  0.25000000  0.46684000  0.99318200  1
loop_
_geom_bond_atom_site_label_1
_geom_bond_atom_site_label_2
_geom_bond_distance
_geom_bond_site_symmetry_2
Ca0 O13 2.279597 1_555
Ca0 O7 2.479014 1_655
Ca0 O15 2.479014 1_555
Ca0 O16 2.504611 1_555
Ca0 O1 2.504611 1_555
Ca0 O12 2.827272 1_555
Ca0 O22 2.827272 1_555
Ca0 O20 2.909768 1_545
Ca1 O25 2.279597 1_555
Ca1 O23 2.479014 1_455
Ca1 O3 2.479014 1_555
Ca1 O17 2.504611 1_555
Ca1 O24 2.504611 1_555
Ca1 O10 2.827272 1_555
Ca1 O18 2.827272 1_555
Ca1 O21 2.909768 1_565
Ag0 O11 2.050839 1_555
Ag0 O6 2.072316 1_555
Ag0 O12 2.182173 1_555
Ag0 O22 2.182173 1_455
Ag0 O19 2.467683 1_555
Ag0 O8 2.482331 1_555
Ag1 O5 2.050839 1_555
Ag1 O4 2.072316 1_555
Ag1 O10 2.182173 1_655
Ag1 O18 2.182173 1_555
Ag1 O0 2.467683 1_555
Ag1 O9 2.482331 1_555
Ag2 O2 2.057850 1_555
Ag2 O19 2.130603 1_555
Ag2 O1 2.151267 1_555
Ag2 O16 2.151267 1_455
Ag2 O8 2.543220 1_545
Ag2 O6 2.599738 1_555
Ag3 O5 2.065397 1_554
Ag3 O11 2.065397 1_545
Ag3 O15 2.103808 1_555
Ag3 O3 2.103808 1_544
Ag3 O20 2.506137 1_545
Ag3 O21 2.506137 1_554
Ag4 O14 2.057850 1_555
Ag4 O0 2.130603 1_555
Ag4 O24 2.151267 1_655
Ag4 O17 2.151267 1_555
Ag4 O9 2.543220 1_565
Ag4 O4 2.599738 1_555
Ag5 O5 2.065397 1_454
Ag5 O11 2.065397 1_545
Ag5 O23 2.103808 1_444
Ag5 O7 2.103808 1_555
Ag5 O21 2.506137 1_554
Ag5 O20 2.506137 1_445
O0 P4 1.569336 1_555
O1 P1 1.561697 1_555
O2 P2 1.556839 1_555
O3 P4 1.565843 1_555
O4 P1 1.575316 1_555
O6 P0 1.575316 1_555
O7 P5 1.565843 1_555
O8 P0 1.528501 1_555
O9 P1 1.528501 1_555
O10 P2 1.555683 1_555
O12 P3 1.555683 1_555
O13 P4 1.499216 1_554
O14 P3 1.556839 1_555
O15 P5 1.565843 1_555
O16 P1 1.561697 1_555
O17 P0 1.561697 1_555
O18 P2 1.555683 1_555
O19 P5 1.569336 1_555
O20 P3 1.534137 1_555
O21 P2 1.534137 1_555
O22 P3 1.555683 1_555
O23 P4 1.565843 1_555
O24 P0 1.561697 1_555
O25 P5 1.499216 1_556
