# generated using pymatgen
data_NaHf3(NCl)3
_symmetry_space_group_name_H-M   'P 1'
_cell_length_a   6.32844823
_cell_length_b   6.32844823
_cell_length_c   10.40157369
_cell_angle_alpha   84.17588732
_cell_angle_beta   84.17588732
_cell_angle_gamma   120.01068646
_symmetry_Int_Tables_number   1
_chemical_formula_structural   NaHf3(NCl)3
_chemical_formula_sum   'Na2 Hf6 N6 Cl6'
_cell_volume   353.21645723
_cell_formula_units_Z   2
loop_
 _symmetry_equiv_pos_site_id
 _symmetry_equiv_pos_as_xyz
  1  'x, y, z'
loop_
 _atom_site_type_symbol
 _atom_site_label
 _atom_site_symmetry_multiplicity
 _atom_site_fract_x
 _atom_site_fract_y
 _atom_site_fract_z
 _atom_site_occupancy
  Na  Na0  1  0.66667500  0.33332500  0.00000000  1
  Na  Na1  1  0.33332500  0.66667500  0.00000000  1
  Hf  Hf0  1  0.20600800  0.20600800  0.38386600  1
  Hf  Hf1  1  0.53834700  0.87219500  0.38348000  1
  Hf  Hf2  1  0.87219500  0.53834700  0.38348000  1
  Hf  Hf3  1  0.12780500  0.46165300  0.61652000  1
  Hf  Hf4  1  0.46165300  0.12780500  0.61652000  1
  Hf  Hf5  1  0.79399200  0.79399200  0.61613400  1
  N  N0  1  0.13619700  0.13619700  0.59143900  1
  N  N1  1  0.46986300  0.80326200  0.59043000  1
  N  N2  1  0.80326200  0.46986300  0.59043000  1
  N  N3  1  0.19673800  0.53013700  0.40957000  1
  N  N4  1  0.53013700  0.19673800  0.40957000  1
  N  N5  1  0.86380300  0.86380300  0.40856100  1
  Cl  Cl0  1  0.06057100  0.72417100  0.81821100  1
  Cl  Cl1  1  0.39709700  0.39709700  0.81819800  1
  Cl  Cl2  1  0.72417100  0.06057100  0.81821100  1
  Cl  Cl3  1  0.27582900  0.93942900  0.18178900  1
  Cl  Cl4  1  0.60290300  0.60290300  0.18180200  1
  Cl  Cl5  1  0.93942900  0.27582900  0.18178900  1
loop_
_geom_bond_atom_site_label_1
_geom_bond_atom_site_label_2
_geom_bond_distance
_geom_bond_site_symmetry_2
Hf0 N0 2.114142 1_555
Hf0 N3 2.123906 1_555
Hf0 N4 2.123906 1_555
Hf0 N5 2.128053 1_445
Hf1 N1 2.107796 1_555
Hf1 N4 2.124067 1_565
Hf1 N3 2.124526 1_555
Hf1 N5 2.128055 1_555
Hf2 N2 2.107796 1_555
Hf2 N3 2.124067 1_655
Hf2 N4 2.124526 1_555
Hf2 N5 2.128055 1_555
Hf3 N3 2.107796 1_555
Hf3 N2 2.124067 1_455
Hf3 N1 2.124526 1_555
Hf3 N0 2.128055 1_555
Hf4 N4 2.107796 1_555
Hf4 N1 2.124067 1_545
Hf4 N2 2.124526 1_555
Hf4 N0 2.128055 1_555
Hf5 N5 2.114142 1_555
Hf5 N2 2.123906 1_555
Hf5 N1 2.123906 1_555
Hf5 N0 2.128053 1_665
Cl0 Na0 2.798880 1_456
Cl0 Na1 2.799707 1_556
Cl0 Hf3 2.928404 1_555
Cl0 Hf4 2.952064 1_565
Cl0 Hf5 2.955709 1_455
Cl1 Na0 2.799627 1_556
Cl1 Na1 2.799627 1_556
Cl1 Hf5 2.929411 1_555
Cl1 Hf4 2.952950 1_555
Cl1 Hf3 2.952950 1_555
Cl2 Na1 2.798880 1_546
Cl2 Na0 2.799707 1_556
Cl2 Hf4 2.928404 1_555
Cl2 Hf3 2.952064 1_655
Cl2 Hf5 2.955709 1_545
Cl3 Na0 2.798880 1_565
Cl3 Na1 2.799707 1_555
Cl3 Hf1 2.928404 1_555
Cl3 Hf2 2.952064 1_455
Cl3 Hf0 2.955709 1_565
Cl4 Na0 2.799627 1_555
Cl4 Na1 2.799627 1_555
Cl4 Hf0 2.929411 1_555
Cl4 Hf1 2.952950 1_555
Cl4 Hf2 2.952950 1_555
Cl5 Na1 2.798880 1_655
Cl5 Na0 2.799707 1_555
Cl5 Hf2 2.928404 1_555
Cl5 Hf1 2.952064 1_545
Cl5 Hf0 2.955709 1_655
