# generated using pymatgen
data_HfAlCu
_symmetry_space_group_name_H-M   'P 1'
_cell_length_a   5.15545186
_cell_length_b   5.15545186
_cell_length_c   8.32531200
_cell_angle_alpha   90.00000000
_cell_angle_beta   90.00000000
_cell_angle_gamma   118.87911986
_symmetry_Int_Tables_number   1
_chemical_formula_structural   HfAlCu
_chemical_formula_sum   'Hf4 Al4 Cu4'
_cell_volume   193.75810317
_cell_formula_units_Z   4
loop_
 _symmetry_equiv_pos_site_id
 _symmetry_equiv_pos_as_xyz
  1  'x, y, z'
loop_
 _atom_site_type_symbol
 _atom_site_label
 _atom_site_symmetry_multiplicity
 _atom_site_fract_x
 _atom_site_fract_y
 _atom_site_fract_z
 _atom_site_occupancy
  Hf  Hf0  1  0.66695500  0.33304500  0.30378200  1
  Hf  Hf1  1  0.33494300  0.66505700  0.18164300  1
  Hf  Hf2  1  0.33494300  0.66505700  0.81835700  1
  Hf  Hf3  1  0.66695500  0.33304500  0.69621800  1
  Al  Al0  1  0.00459800  0.99540200  0.23814900  1
  Al  Al1  1  0.00459800  0.99540200  0.76185100  1
  Al  Al2  1  0.65246300  0.83349300  0.50000000  1
  Al  Al3  1  0.16650700  0.34753700  0.50000000  1
  Cu  Cu0  1  0.16564700  0.83435300  0.50000000  1
  Cu  Cu1  1  0.34621200  0.17284800  0.00000000  1
  Cu  Cu2  1  0.82715200  0.65378800  0.00000000  1
  Cu  Cu3  1  0.82887900  0.17112100  0.00000000  1
loop_
_geom_bond_atom_site_label_1
_geom_bond_atom_site_label_2
_geom_bond_distance
_geom_bond_site_symmetry_2
Hf0 Hf1 3.118270 1_555
Hf0 Hf1 3.182710 1_545
Hf0 Hf1 3.182710 1_655
Hf0 Hf3 3.267152 1_555
Hf1 Hf2 3.024469 1_554
Hf2 Hf3 3.118270 1_555
Hf2 Hf3 3.182710 1_565
Hf2 Hf3 3.182710 1_455
Al0 Cu1 2.512634 1_565
Al0 Cu2 2.512634 1_455
Al0 Cu3 2.522899 1_465
Al0 Cu0 2.607100 1_555
Al0 Al3 2.698355 1_565
Al0 Al2 2.698355 1_455
Al0 Hf1 2.970504 1_555
Al0 Hf0 3.040987 1_565
Al0 Hf0 3.040987 1_455
Al0 Hf0 3.047205 1_465
Al0 Hf1 3.059631 1_455
Al0 Hf1 3.059631 1_565
Al1 Cu1 2.512634 1_566
Al1 Cu2 2.512634 1_456
Al1 Cu3 2.522899 1_466
Al1 Cu0 2.607100 1_555
Al1 Al3 2.698355 1_565
Al1 Al2 2.698355 1_455
Al1 Hf2 2.970504 1_555
Al1 Hf3 3.040987 1_565
Al1 Hf3 3.040987 1_455
Al1 Hf3 3.047205 1_465
Al1 Hf2 3.059631 1_455
Al1 Hf2 3.059631 1_565
Al2 Cu0 2.511901 1_555
Al2 Al3 2.547648 1_555
Al2 Cu0 2.643557 1_655
Al2 Al3 2.694900 1_665
Al2 Hf1 3.014197 1_555
Al2 Hf2 3.014197 1_555
Al2 Hf0 3.020110 1_565
Al2 Hf3 3.020110 1_565
Al2 Hf3 3.084952 1_555
Al2 Hf0 3.084952 1_555
Al3 Cu0 2.511901 1_555
Al3 Cu0 2.643557 1_545
Al3 Hf1 3.014197 1_555
Al3 Hf2 3.014197 1_555
Al3 Hf0 3.020110 1_455
Al3 Hf3 3.020110 1_455
Al3 Hf3 3.084952 1_555
Al3 Hf0 3.084952 1_555
Cu0 Hf1 3.046983 1_555
Cu0 Hf2 3.046983 1_555
Cu0 Hf3 3.088654 1_565
Cu0 Hf0 3.088654 1_565
Cu0 Hf3 3.088654 1_455
Cu0 Hf0 3.088654 1_455
Cu1 Cu3 2.492679 1_555
Cu1 Cu2 2.521351 1_555
Cu1 Cu3 2.662797 1_455
Cu1 Cu2 2.721197 1_445
Cu1 Hf3 2.914363 1_554
Cu1 Hf0 2.914363 1_555
Cu1 Hf2 2.978563 1_554
Cu1 Hf1 2.978563 1_555
Cu1 Hf1 2.999446 1_545
Cu1 Hf2 2.999446 1_544
Cu2 Cu3 2.492679 1_555
Cu2 Cu3 2.662797 1_565
Cu2 Hf3 2.914363 1_554
Cu2 Hf0 2.914363 1_555
Cu2 Hf1 2.978563 1_555
Cu2 Hf2 2.978563 1_554
Cu2 Hf1 2.999446 1_655
Cu2 Hf2 2.999446 1_654
Cu3 Hf3 2.909146 1_554
Cu3 Hf0 2.909146 1_555
Cu3 Hf1 3.026686 1_545
Cu3 Hf2 3.026686 1_544
Cu3 Hf1 3.026686 1_655
Cu3 Hf2 3.026686 1_654
