# generated using pymatgen
data_CeMg2
_symmetry_space_group_name_H-M   'P 1'
_cell_length_a   5.81174476
_cell_length_b   5.81174476
_cell_length_c   6.00112474
_cell_angle_alpha   67.04367318
_cell_angle_beta   67.04367318
_cell_angle_gamma   59.28176473
_symmetry_Int_Tables_number   1
_chemical_formula_structural   CeMg2
_chemical_formula_sum   'Ce2 Mg4'
_cell_volume   155.72487448
_cell_formula_units_Z   2
loop_
 _symmetry_equiv_pos_site_id
 _symmetry_equiv_pos_as_xyz
  1  'x, y, z'
loop_
 _atom_site_type_symbol
 _atom_site_label
 _atom_site_symmetry_multiplicity
 _atom_site_fract_x
 _atom_site_fract_y
 _atom_site_fract_z
 _atom_site_occupancy
  Ce  Ce0  1  0.07580400  0.92419600  0.25000000  1
  Ce  Ce1  1  0.92419600  0.07580400  0.75000000  1
  Mg  Mg0  1  0.25470300  0.41378500  0.74851800  1
  Mg  Mg1  1  0.58621500  0.74529700  0.75148200  1
  Mg  Mg2  1  0.41378500  0.25470300  0.24851800  1
  Mg  Mg3  1  0.74529700  0.58621500  0.25148200  1
loop_
_geom_bond_atom_site_label_1
_geom_bond_atom_site_label_2
_geom_bond_distance
_geom_bond_site_symmetry_2
Ce0 Ce1 3.124569 1_465
Ce0 Ce1 3.124569 1_464
Ce0 Mg2 3.309975 1_465
Ce0 Mg3 3.309975 1_465
Ce0 Mg1 3.344155 1_554
Ce0 Mg0 3.344155 1_555
Ce0 Mg2 3.347076 1_555
Ce0 Mg3 3.347076 1_555
Ce0 Mg3 3.372775 1_455
Ce0 Mg2 3.372775 1_565
Ce0 Mg1 3.483659 1_455
Ce0 Mg0 3.483659 1_564
Ce1 Mg0 3.309975 1_645
Ce1 Mg1 3.309975 1_645
Ce1 Mg2 3.344155 1_556
Ce1 Mg3 3.344155 1_555
Ce1 Mg0 3.347076 1_555
Ce1 Mg1 3.347076 1_555
Ce1 Mg1 3.372775 1_545
Ce1 Mg0 3.372775 1_655
Ce1 Mg3 3.483659 1_546
Ce1 Mg2 3.483659 1_655
Mg0 Mg2 3.136824 1_555
Mg0 Mg2 3.136824 1_556
Mg0 Mg1 3.336444 1_545
Mg0 Mg1 3.336444 1_455
Mg0 Mg3 3.352222 1_456
Mg0 Mg1 3.357108 1_555
Mg0 Mg3 3.461783 1_555
Mg1 Mg3 3.136824 1_556
Mg1 Mg3 3.136824 1_555
Mg1 Mg2 3.352222 1_565
Mg1 Mg2 3.461783 1_556
Mg2 Mg3 3.336444 1_455
Mg2 Mg3 3.336444 1_545
Mg2 Mg3 3.357108 1_555
