# generated using pymatgen
data_Ca(CrS2)2
_symmetry_space_group_name_H-M   'P 1'
_cell_length_a   7.53728721
_cell_length_b   7.53728721
_cell_length_c   7.53728721
_cell_angle_alpha   121.71796964
_cell_angle_beta   121.71796964
_cell_angle_gamma   87.04928507
_symmetry_Int_Tables_number   1
_chemical_formula_structural   Ca(CrS2)2
_chemical_formula_sum   'Ca2 Cr4 S8'
_cell_volume   294.49502911
_cell_formula_units_Z   2
loop_
 _symmetry_equiv_pos_site_id
 _symmetry_equiv_pos_as_xyz
  1  'x, y, z'
loop_
 _atom_site_type_symbol
 _atom_site_label
 _atom_site_symmetry_multiplicity
 _atom_site_fract_x
 _atom_site_fract_y
 _atom_site_fract_z
 _atom_site_occupancy
  Ca  Ca0  1  0.50000000  0.50000000  0.00000000  1
  Ca  Ca1  1  0.25000000  0.75000000  0.50000000  1
  Cr  Cr0  1  0.87500000  0.12500000  0.25000000  1
  Cr  Cr1  1  0.37500000  0.12500000  0.25000000  1
  Cr  Cr2  1  0.87500000  0.62500000  0.75000000  1
  Cr  Cr3  1  0.87500000  0.12500000  0.75000000  1
  S  S0  1  0.68260000  0.90109500  0.78150500  1
  S  S1  1  0.09890500  0.88040900  0.78150500  1
  S  S2  1  0.09890500  0.31740000  0.21849500  1
  S  S3  1  0.06740000  0.34890500  0.71849500  1
  S  S4  1  0.63040900  0.34890500  0.28150500  1
  S  S5  1  0.65109500  0.36959100  0.71849500  1
  S  S6  1  0.11959100  0.90109500  0.21849500  1
  S  S7  1  0.65109500  0.93260000  0.28150500  1
loop_
_geom_bond_atom_site_label_1
_geom_bond_atom_site_label_2
_geom_bond_distance
_geom_bond_site_symmetry_2
Ca0 S3 2.645315 1_554
Ca0 S7 2.645315 1_555
Ca0 S4 2.645315 1_555
Ca0 S5 2.645315 1_554
Ca1 S0 2.645315 1_555
Ca1 S2 2.645315 1_555
Ca1 S6 2.645315 1_555
Ca1 S1 2.645315 1_555
Cr0 S3 2.453931 1_655
Cr0 S0 2.453931 1_544
Cr0 S6 2.453937 1_645
Cr0 S4 2.453937 1_555
Cr0 S7 2.458240 1_545
Cr0 S2 2.458240 1_655
Cr1 S7 2.453931 1_545
Cr1 S2 2.453931 1_555
Cr1 S5 2.453931 1_555
Cr1 S1 2.453931 1_544
Cr1 S4 2.458234 1_555
Cr1 S6 2.458234 1_545
Cr2 S3 2.453931 1_655
Cr2 S0 2.453931 1_555
Cr2 S6 2.453931 1_656
Cr2 S4 2.453931 1_555
Cr2 S1 2.458234 1_655
Cr2 S5 2.458234 1_555
Cr3 S2 2.453931 1_656
Cr3 S7 2.453931 1_545
Cr3 S5 2.453937 1_555
Cr3 S1 2.453937 1_645
Cr3 S3 2.458240 1_655
Cr3 S0 2.458240 1_545
