# generated using pymatgen
data_Ru2C2N8Cl3O5
_symmetry_space_group_name_H-M   'P 1'
_cell_length_a   7.34692800
_cell_length_b   7.76639300
_cell_length_c   16.56880600
_cell_angle_alpha   90.00000000
_cell_angle_beta   90.00000000
_cell_angle_gamma   90.00000000
_symmetry_Int_Tables_number   1
_chemical_formula_structural   Ru2C2N8Cl3O5
_chemical_formula_sum   'Ru4 C4 N16 Cl6 O10'
_cell_volume   945.40165866
_cell_formula_units_Z   2
loop_
 _symmetry_equiv_pos_site_id
 _symmetry_equiv_pos_as_xyz
  1  'x, y, z'
loop_
 _atom_site_type_symbol
 _atom_site_label
 _atom_site_symmetry_multiplicity
 _atom_site_fract_x
 _atom_site_fract_y
 _atom_site_fract_z
 _atom_site_occupancy
  Ru  Ru0  1  0.77023100  0.07537000  0.39460600  1
  Ru  Ru1  1  0.77023100  0.92463000  0.60539400  1
  Ru  Ru2  1  0.27023100  0.42463000  0.89460600  1
  Ru  Ru3  1  0.27023100  0.57537000  0.10539400  1
  C  C0  1  0.72776800  0.13609800  0.13670700  1
  C  C1  1  0.72776800  0.86390200  0.86329300  1
  C  C2  1  0.22776800  0.36390200  0.63670700  1
  C  C3  1  0.22776800  0.63609800  0.36329300  1
  N  N0  1  0.50221600  0.17061900  0.37415400  1
  N  N1  1  0.50221600  0.82938100  0.62584600  1
  N  N2  1  0.00221600  0.32938100  0.87415400  1
  N  N3  1  0.00221600  0.67061900  0.12584600  1
  N  N4  1  0.40369100  0.26897400  0.35147900  1
  N  N5  1  0.40369100  0.73102600  0.64852100  1
  N  N6  1  0.90369100  0.23102600  0.85147900  1
  N  N7  1  0.90369100  0.76897400  0.14852100  1
  N  N8  1  0.87537000  0.26136100  0.38301400  1
  N  N9  1  0.87537000  0.73863900  0.61698600  1
  N  N10  1  0.37537000  0.23863900  0.88301400  1
  N  N11  1  0.37537000  0.76136100  0.11698600  1
  N  N12  1  0.86413400  0.90702000  0.32853900  1
  N  N13  1  0.86413400  0.09298000  0.67146100  1
  N  N14  1  0.36413400  0.59298000  0.82853900  1
  N  N15  1  0.36413400  0.40702000  0.17146100  1
  Cl  Cl0  1  0.20286400  0.00000000  0.50000000  1
  Cl  Cl1  1  0.70286400  0.50000000  0.00000000  1
  Cl  Cl2  1  0.77785000  0.70823200  0.33553000  1
  Cl  Cl3  1  0.77785000  0.29176800  0.66447000  1
  Cl  Cl4  1  0.27785000  0.79176800  0.83553000  1
  Cl  Cl5  1  0.27785000  0.20823200  0.16447000  1
  O  O0  1  0.70610600  0.00000000  0.50000000  1
  O  O1  1  0.20610600  0.50000000  0.00000000  1
  O  O2  1  0.77694100  0.21233900  0.19420200  1
  O  O3  1  0.77694100  0.78766100  0.80579800  1
  O  O4  1  0.27694000  0.28766100  0.69420200  1
  O  O5  1  0.27694000  0.71233900  0.30579800  1
  O  O6  1  0.67911400  0.05663200  0.08059800  1
  O  O7  1  0.67911400  0.94336800  0.91940200  1
  O  O8  1  0.17911400  0.44336800  0.58059800  1
  O  O9  1  0.17911400  0.55663200  0.41940200  1
loop_
_geom_bond_atom_site_label_1
_geom_bond_atom_site_label_2
_geom_bond_distance
_geom_bond_site_symmetry_2
C0 O6 1.171722 1_555
C0 O2 1.178393 1_555
C1 O7 1.171722 1_555
C1 O3 1.178393 1_555
C2 O8 1.171722 1_555
C2 O4 1.178391 1_555
C3 O9 1.171722 1_555
C3 O5 1.178391 1_555
N0 N4 1.117409 1_555
N0 Ru0 2.130575 1_555
N1 N5 1.117409 1_555
N1 Ru1 2.130575 1_555
N2 N6 1.117409 1_455
N2 Ru2 2.130575 1_555
N3 N7 1.117409 1_455
N3 Ru3 2.130575 1_555
N8 Ru0 1.649268 1_555
N9 Ru1 1.649268 1_555
N10 Ru2 1.649268 1_555
N11 Ru3 1.649268 1_555
N12 Ru0 1.839485 1_565
N13 Ru1 1.839485 1_545
N14 Ru2 1.839485 1_555
N15 Ru3 1.839485 1_555
Cl2 N12 1.672960 1_555
Cl3 N13 1.672960 1_555
Cl4 N14 1.672960 1_555
Cl5 N15 1.672960 1_555
O0 Ru1 1.901050 1_545
O0 Ru0 1.901050 1_555
O1 Ru2 1.901050 1_554
O1 Ru3 1.901050 1_555
