# generated using pymatgen
data_Mg14CrCo
_symmetry_space_group_name_H-M   'P 1'
_cell_length_a   6.30291253
_cell_length_b   6.30291204
_cell_length_c   10.02218131
_cell_angle_alpha   90.00000000
_cell_angle_beta   90.00000000
_cell_angle_gamma   120.00000262
_symmetry_Int_Tables_number   1
_chemical_formula_structural   Mg14CrCo
_chemical_formula_sum   'Mg14 Cr1 Co1'
_cell_volume   344.80646650
_cell_formula_units_Z   1
loop_
 _symmetry_equiv_pos_site_id
 _symmetry_equiv_pos_as_xyz
  1  'x, y, z'
loop_
 _atom_site_type_symbol
 _atom_site_label
 _atom_site_symmetry_multiplicity
 _atom_site_fract_x
 _atom_site_fract_y
 _atom_site_fract_z
 _atom_site_occupancy
  Mg  Mg0  1  0.16556735  0.83278317  0.12500000  1
  Mg  Mg1  1  0.16915144  0.83457522  0.62500000  1
  Mg  Mg2  1  0.66721683  0.33443265  0.12500000  1
  Mg  Mg3  1  0.66542478  0.33084856  0.62500000  1
  Mg  Mg4  1  0.66721683  0.83278317  0.12500000  1
  Mg  Mg5  1  0.66542478  0.83457522  0.62500000  1
  Mg  Mg6  1  0.32543813  0.17456187  0.36748445  1
  Mg  Mg7  1  0.32543813  0.17456187  0.88251555  1
  Mg  Mg8  1  0.32543813  0.65087727  0.36748445  1
  Mg  Mg9  1  0.32543813  0.65087727  0.88251555  1
  Mg  Mg10  1  0.84912273  0.17456187  0.36748445  1
  Mg  Mg11  1  0.84912273  0.17456187  0.88251555  1
  Mg  Mg12  1  0.83333300  0.66666700  0.37745109  1
  Mg  Mg13  1  0.83333300  0.66666700  0.87254891  1
  Cr  Cr0  1  0.16666700  0.33333300  0.62500000  1
  Co  Co0  1  0.16666700  0.33333300  0.12500000  1
loop_
_geom_bond_atom_site_label_1
_geom_bond_atom_site_label_2
_geom_bond_distance
_geom_bond_site_symmetry_2
Mg0 Mg9 3.064507 1_554
Mg0 Mg8 3.064507 1_555
Mg0 Mg7 3.064514 1_564
Mg0 Mg6 3.064514 1_565
Mg0 Mg12 3.112913 1_455
Mg0 Mg13 3.112913 1_454
Mg0 Mg2 3.141059 1_455
Mg0 Mg4 3.141060 1_455
Mg0 Mg2 3.161853 1_565
Mg0 Mg4 3.161853 1_555
Mg1 Mg13 3.084699 1_455
Mg1 Mg12 3.084699 1_455
Mg1 Mg3 3.127967 1_565
Mg1 Mg5 3.127967 1_555
Mg1 Mg3 3.174945 1_455
Mg1 Mg5 3.174945 1_455
Mg1 Mg9 3.179990 1_555
Mg1 Mg8 3.179990 1_555
Mg1 Mg6 3.179996 1_565
Mg1 Mg7 3.179996 1_565
Mg2 Mg7 3.064514 1_554
Mg2 Mg6 3.064514 1_555
Mg2 Mg4 3.141059 1_555
Mg2 Mg4 3.161853 1_545
Mg3 Mg5 3.127967 1_545
Mg3 Mg5 3.174945 1_555
Mg3 Mg6 3.179996 1_555
Mg3 Mg7 3.179996 1_555
Mg4 Mg9 3.064513 1_554
Mg4 Mg8 3.064513 1_555
Mg5 Mg8 3.179996 1_555
Mg5 Mg9 3.179996 1_555
Mg6 Mg8 3.002174 1_555
Mg6 Mg8 3.300738 1_545
Mg7 Mg9 3.002174 1_555
Mg7 Mg9 3.300738 1_545
Mg10 Mg8 3.002174 1_655
Mg10 Mg6 3.002174 1_655
Mg10 Mg2 3.064507 1_555
Mg10 Mg4 3.064513 1_545
Mg10 Mg12 3.154216 1_555
Mg10 Mg12 3.154216 1_545
Mg10 Mg3 3.179990 1_555
Mg10 Mg5 3.179996 1_545
Mg10 Mg8 3.300738 1_545
Mg10 Mg6 3.300738 1_555
Mg11 Mg9 3.002174 1_655
Mg11 Mg7 3.002174 1_655
Mg11 Mg2 3.064507 1_556
Mg11 Mg4 3.064513 1_546
Mg11 Mg13 3.154216 1_555
Mg11 Mg13 3.154216 1_545
Mg11 Mg3 3.179990 1_555
Mg11 Mg5 3.179996 1_545
Mg11 Mg9 3.300738 1_545
Mg11 Mg7 3.300738 1_555
Mg12 Mg5 3.084692 1_555
Mg12 Mg3 3.084699 1_555
Mg12 Mg4 3.112906 1_555
Mg12 Mg2 3.112913 1_555
Mg12 Mg6 3.154216 1_665
Mg12 Mg6 3.154216 1_555
Mg12 Mg8 3.154217 1_655
Mg12 Mg8 3.154217 1_555
Mg13 Mg5 3.084692 1_555
Mg13 Mg3 3.084699 1_555
Mg13 Mg4 3.112906 1_556
Mg13 Mg2 3.112913 1_556
Mg13 Mg7 3.154216 1_665
Mg13 Mg7 3.154216 1_555
Mg13 Mg9 3.154217 1_655
Mg13 Mg9 3.154217 1_555
Cr0 Mg6 3.108891 1_555
Cr0 Mg7 3.108891 1_555
Cr0 Mg8 3.108897 1_555
Cr0 Mg9 3.108897 1_555
Cr0 Mg10 3.108897 1_455
Cr0 Mg11 3.108897 1_455
Cr0 Mg5 3.151485 1_555
Cr0 Mg5 3.151485 1_445
Cr0 Mg1 3.151485 1_555
Cr0 Mg1 3.151485 1_545
Cr0 Mg3 3.151485 1_455
Cr0 Mg3 3.151485 1_555
Co0 Mg7 2.985014 1_554
Co0 Mg6 2.985014 1_555
Co0 Mg8 2.985020 1_555
Co0 Mg9 2.985020 1_554
Co0 Mg11 2.985020 1_454
Co0 Mg10 2.985020 1_455
Co0 Mg0 3.151462 1_555
Co0 Mg4 3.151462 1_445
Co0 Mg4 3.151462 1_555
Co0 Mg0 3.151462 1_545
Co0 Mg2 3.151462 1_455
Co0 Mg2 3.151462 1_555
