# generated using pymatgen
data_KNaCaTh(Si2O5)4
_symmetry_space_group_name_H-M   'P 1'
_cell_length_a   7.57922865
_cell_length_b   7.57922865
_cell_length_c   14.72544399
_cell_angle_alpha   90.00000000
_cell_angle_beta   90.00000000
_cell_angle_gamma   90.00000000
_symmetry_Int_Tables_number   1
_chemical_formula_structural   KNaCaTh(Si2O5)4
_chemical_formula_sum   'K2 Na2 Ca2 Th2 Si16 O40'
_cell_volume   845.89881440
_cell_formula_units_Z   2
loop_
 _symmetry_equiv_pos_site_id
 _symmetry_equiv_pos_as_xyz
  1  'x, y, z'
loop_
 _atom_site_type_symbol
 _atom_site_label
 _atom_site_symmetry_multiplicity
 _atom_site_fract_x
 _atom_site_fract_y
 _atom_site_fract_z
 _atom_site_occupancy
  K  K0  1  -0.00000000  -0.00000000  0.50000000  1
  K  K1  1  -0.00000000  -0.00000000  0.00000000  1
  Na  Na0  1  -0.00000000  0.50000000  0.25000000  1
  Na  Na1  1  0.50000000  -0.00000000  0.75000000  1
  Ca  Ca0  1  0.50000000  -0.00000000  0.25000000  1
  Ca  Ca1  1  -0.00000000  0.50000000  0.75000000  1
  Th  Th0  1  -0.00000000  -0.00000000  0.25000000  1
  Th  Th1  1  -0.00000000  -0.00000000  0.75000000  1
  Si  Si0  1  0.25736916  0.33495076  0.39156942  1
  Si  Si1  1  0.74263084  0.66504924  0.39156942  1
  Si  Si2  1  0.66182008  0.26380551  0.39017942  1
  Si  Si3  1  0.33817992  0.73619449  0.39017942  1
  Si  Si4  1  0.73619449  0.33817992  0.89017942  1
  Si  Si5  1  0.26380551  0.66182008  0.89017942  1
  Si  Si6  1  0.33495076  0.25736916  0.89156942  1
  Si  Si7  1  0.66504924  0.74263084  0.89156942  1
  Si  Si8  1  0.73619449  0.66182008  0.60982058  1
  Si  Si9  1  0.26380551  0.33817992  0.60982058  1
  Si  Si10  1  0.33495076  0.74263084  0.60843058  1
  Si  Si11  1  0.66504924  0.25736916  0.60843058  1
  Si  Si12  1  0.25736916  0.66504924  0.10843058  1
  Si  Si13  1  0.74263084  0.33495076  0.10843058  1
  Si  Si14  1  0.66182008  0.73619449  0.10982058  1
  Si  Si15  1  0.33817992  0.26380551  0.10982058  1
  O  O0  1  0.09931443  0.23992614  0.34174683  1
  O  O1  1  0.90068557  0.76007386  0.34174683  1
  O  O2  1  0.74570241  0.10569611  0.33427237  1
  O  O3  1  0.25429759  0.89430389  0.33427237  1
  O  O4  1  0.89430389  0.25429759  0.83427237  1
  O  O5  1  0.10569611  0.74570241  0.83427237  1
  O  O6  1  0.23992614  0.09931443  0.84174683  1
  O  O7  1  0.76007386  0.90068557  0.84174683  1
  O  O8  1  0.89430389  0.74570241  0.66572763  1
  O  O9  1  0.10569611  0.25429759  0.66572763  1
  O  O10  1  0.23992614  0.90068557  0.65825317  1
  O  O11  1  0.76007386  0.09931443  0.65825317  1
  O  O12  1  0.09931443  0.76007386  0.15825317  1
  O  O13  1  0.90068557  0.23992614  0.15825317  1
  O  O14  1  0.74570241  0.89430389  0.16572763  1
  O  O15  1  0.25429759  0.10569611  0.16572763  1
  O  O16  1  0.23825447  0.31531538  0.50119306  1
  O  O17  1  0.76174553  0.68468462  0.50119306  1
  O  O18  1  0.68468462  0.23825447  0.49880694  1
  O  O19  1  0.31531538  0.76174553  0.49880694  1
  O  O20  1  0.76174553  0.31531538  0.99880694  1
  O  O21  1  0.23825447  0.68468462  0.99880694  1
  O  O22  1  0.31531538  0.23825447  0.00119306  1
  O  O23  1  0.68468462  0.76174553  0.00119306  1
  O  O24  1  0.45108934  0.25499388  0.36309424  1
  O  O25  1  0.54891066  0.74500612  0.36309424  1
  O  O26  1  0.74053676  0.45638613  0.36360812  1
  O  O27  1  0.25946324  0.54361387  0.36360812  1
  O  O28  1  0.54361387  0.25946324  0.86360812  1
  O  O29  1  0.45638613  0.74053676  0.86360812  1
  O  O30  1  0.25499388  0.45108934  0.86309424  1
  O  O31  1  0.74500612  0.54891066  0.86309424  1
  O  O32  1  0.54361387  0.74053676  0.63639188  1
  O  O33  1  0.45638613  0.25946324  0.63639188  1
  O  O34  1  0.25499388  0.54891066  0.63690576  1
  O  O35  1  0.74500612  0.45108934  0.63690576  1
  O  O36  1  0.45108934  0.74500612  0.13690576  1
  O  O37  1  0.54891066  0.25499388  0.13690576  1
  O  O38  1  0.74053676  0.54361387  0.13639188  1
  O  O39  1  0.25946324  0.45638613  0.13639188  1
loop_
_geom_bond_atom_site_label_1
_geom_bond_atom_site_label_2
_geom_bond_distance
_geom_bond_site_symmetry_2
K0 O19 2.995420 1_545
K0 O17 2.995420 1_445
K0 O18 2.995420 1_455
K0 O16 2.995420 1_555
K0 O0 3.050229 1_555
K0 O1 3.050229 1_445
K0 O11 3.050229 1_455
K0 O10 3.050229 1_545
K0 O8 3.211255 1_445
K0 O2 3.211255 1_455
K0 O3 3.211255 1_545
K0 O9 3.211255 1_555
K1 O23 2.995420 1_445
K1 O22 2.995420 1_555
K1 O21 2.995420 1_544
K1 O20 2.995420 1_454
K1 O6 3.050229 1_554
K1 O13 3.050229 1_455
K1 O12 3.050229 1_545
K1 O7 3.050229 1_444
K1 O14 3.211255 1_445
K1 O15 3.211255 1_555
K1 O5 3.211255 1_544
K1 O4 3.211255 1_454
Na0 O1 2.505454 1_455
Na0 O13 2.505454 1_455
Na0 O0 2.505454 1_555
Na0 O12 2.505454 1_555
Na0 O39 2.602923 1_555
Na0 O27 2.602923 1_555
Na0 O38 2.602923 1_455
Na0 O26 2.602923 1_455
Na1 O11 2.505454 1_555
Na1 O10 2.505454 1_545
Na1 O7 2.505454 1_545
Na1 O6 2.505454 1_555
Na1 O29 2.602923 1_545
Na1 O32 2.602923 1_545
Na1 O28 2.602923 1_555
Na1 O33 2.602923 1_555
Ca0 O2 2.376894 1_555
Ca0 O3 2.376894 1_545
Ca0 O15 2.376894 1_555
Ca0 O14 2.376894 1_545
Ca0 O24 2.577987 1_555
Ca0 O36 2.577987 1_545
Ca0 O25 2.577987 1_545
Ca0 O37 2.577987 1_555
Ca1 O5 2.376894 1_555
Ca1 O9 2.376894 1_555
Ca1 O4 2.376894 1_455
Ca1 O8 2.376894 1_455
Ca1 O34 2.577987 1_555
Ca1 O31 2.577987 1_455
Ca1 O30 2.577987 1_555
Ca1 O35 2.577987 1_455
O0 Si0 1.578609 1_555
O0 Th0 2.387177 1_555
O1 Si1 1.578609 1_555
O1 Th0 2.387177 1_665
O2 Si2 1.586815 1_555
O2 Th0 2.428270 1_655
O3 Si3 1.586815 1_555
O3 Th0 2.428270 1_565
O4 Si4 1.586815 1_555
O4 Th1 2.428270 1_655
O5 Si5 1.586815 1_555
O5 Th1 2.428270 1_565
O6 Si6 1.578609 1_555
O6 Th1 2.387177 1_555
O7 Si7 1.578609 1_555
O7 Th1 2.387177 1_665
O8 Si8 1.586815 1_555
O8 Th1 2.428270 1_665
O9 Si9 1.586815 1_555
O9 Th1 2.428270 1_555
O10 Si10 1.578609 1_555
O10 Th1 2.387177 1_565
O11 Si11 1.578609 1_555
O11 Th1 2.387177 1_655
O12 Si12 1.578609 1_555
O12 Th0 2.387177 1_565
O13 Si13 1.578609 1_555
O13 Th0 2.387177 1_655
O14 Si14 1.586815 1_555
O14 Th0 2.428270 1_665
O15 Si15 1.586815 1_555
O15 Th0 2.428270 1_555
O16 Si9 1.620561 1_555
O16 Si0 1.627563 1_555
O17 Si8 1.620561 1_555
O17 Si1 1.627563 1_555
O18 Si2 1.620561 1_555
O18 Si11 1.627563 1_555
O19 Si3 1.620561 1_555
O19 Si10 1.627563 1_555
O20 Si4 1.620561 1_555
O20 Si13 1.627563 1_556
O21 Si5 1.620561 1_555
O21 Si12 1.627563 1_556
O22 Si15 1.620561 1_555
O22 Si6 1.627563 1_554
O23 Si14 1.620561 1_555
O23 Si7 1.627563 1_554
O24 Si0 1.642811 1_555
O24 Si2 1.647576 1_555
O25 Si1 1.642811 1_555
O25 Si3 1.647576 1_555
O26 Si2 1.624657 1_555
O26 Si1 1.634302 1_555
O27 Si3 1.624657 1_555
O27 Si0 1.634302 1_555
O28 Si4 1.624657 1_555
O28 Si6 1.634302 1_555
O29 Si5 1.624657 1_555
O29 Si7 1.634302 1_555
O30 Si6 1.642811 1_555
O30 Si5 1.647576 1_555
O31 Si7 1.642811 1_555
O31 Si4 1.647576 1_555
O32 Si8 1.624657 1_555
O32 Si10 1.634302 1_555
O33 Si9 1.624657 1_555
O33 Si11 1.634302 1_555
O34 Si10 1.642811 1_555
O34 Si9 1.647576 1_555
O35 Si11 1.642811 1_555
O35 Si8 1.647576 1_555
O36 Si12 1.642811 1_555
O36 Si14 1.647576 1_555
O37 Si13 1.642811 1_555
O37 Si15 1.647576 1_555
O38 Si14 1.624657 1_555
O38 Si13 1.634302 1_555
O39 Si15 1.624657 1_555
O39 Si12 1.634302 1_555
