# generated using pymatgen
data_Sr5(IrN3)2
_symmetry_space_group_name_H-M   'P 1'
_cell_length_a   6.35047963
_cell_length_b   7.18765486
_cell_length_c   13.10484547
_cell_angle_alpha   90.00000036
_cell_angle_beta   101.04565080
_cell_angle_gamma   124.46580476
_symmetry_Int_Tables_number   1
_chemical_formula_structural   Sr5(IrN3)2
_chemical_formula_sum   'Sr10 Ir4 N12'
_cell_volume   479.67002368
_cell_formula_units_Z   2
loop_
 _symmetry_equiv_pos_site_id
 _symmetry_equiv_pos_as_xyz
  1  'x, y, z'
loop_
 _atom_site_type_symbol
 _atom_site_label
 _atom_site_symmetry_multiplicity
 _atom_site_fract_x
 _atom_site_fract_y
 _atom_site_fract_z
 _atom_site_occupancy
  Sr  Sr0  1  0.11794100  0.80046300  0.99995300  1
  Sr  Sr1  1  0.88205900  0.68252300  0.50004700  1
  Sr  Sr2  1  0.88205900  0.19953700  0.00004700  1
  Sr  Sr3  1  0.11794100  0.31747700  0.49995300  1
  Sr  Sr4  1  0.32217900  0.04666700  0.72056200  1
  Sr  Sr5  1  0.67782100  0.72448700  0.77943800  1
  Sr  Sr6  1  0.67782100  0.95333300  0.27943800  1
  Sr  Sr7  1  0.32217900  0.27551300  0.22056200  1
  Sr  Sr8  1  0.00000000  0.37787500  0.75000000  1
  Sr  Sr9  1  0.00000000  0.62212500  0.25000000  1
  Ir  Ir0  1  0.53430000  0.83454600  0.55386000  1
  Ir  Ir1  1  0.46570000  0.30024600  0.94614000  1
  Ir  Ir2  1  0.46570000  0.16545400  0.44614000  1
  Ir  Ir3  1  0.53430000  0.69975400  0.05386000  1
  N  N0  1  0.89463500  0.99172100  0.62549100  1
  N  N1  1  0.10536500  0.09708500  0.87450900  1
  N  N2  1  0.10536500  0.00827900  0.37450900  1
  N  N3  1  0.89463500  0.90291500  0.12549100  1
  N  N4  1  0.28204100  0.68256800  0.64002900  1
  N  N5  1  0.71795900  0.40052700  0.85997100  1
  N  N6  1  0.71795900  0.31743200  0.35997100  1
  N  N7  1  0.28204100  0.59947300  0.14002900  1
  N  N8  1  0.58150400  0.27694400  0.58649100  1
  N  N9  1  0.41849600  0.69544000  0.91350900  1
  N  N10  1  0.41849600  0.72305600  0.41350900  1
  N  N11  1  0.58150400  0.30456000  0.08649100  1
loop_
_geom_bond_atom_site_label_1
_geom_bond_atom_site_label_2
_geom_bond_distance
_geom_bond_site_symmetry_2
Ir0 N10 1.838647 1_555
Ir0 N0 1.909119 1_555
Ir0 N4 1.935787 1_555
Ir1 N11 1.838647 1_556
Ir1 N1 1.909120 1_555
Ir1 N5 1.935787 1_555
Ir2 N8 1.838647 1_555
Ir2 N2 1.909119 1_555
Ir2 N6 1.935787 1_555
Ir3 N9 1.838647 1_554
Ir3 N3 1.909120 1_555
Ir3 N7 1.935787 1_555
N0 Sr4 2.563238 1_665
N0 Sr3 2.708445 1_665
N0 Sr1 2.719700 1_555
N0 Sr5 2.779637 1_555
N0 Sr8 2.879819 1_665
N1 Sr5 2.563238 1_445
N1 Sr2 2.708453 1_456
N1 Sr0 2.719700 1_545
N1 Sr4 2.779631 1_555
N1 Sr8 2.879825 1_555
N2 Sr6 2.563238 1_445
N2 Sr1 2.708445 1_445
N2 Sr3 2.719700 1_555
N2 Sr7 2.779637 1_555
N2 Sr9 2.879819 1_545
N3 Sr7 2.563238 1_665
N3 Sr0 2.708453 1_654
N3 Sr2 2.719700 1_565
N3 Sr6 2.779631 1_555
N3 Sr9 2.879825 1_655
N4 Sr8 2.574995 1_555
N4 Sr5 2.670019 1_555
N4 Sr4 2.677589 1_565
N4 Sr3 2.741107 1_555
N4 Sr1 2.833859 1_455
N5 Sr8 2.574995 1_655
N5 Sr4 2.670016 1_555
N5 Sr5 2.677582 1_555
N5 Sr2 2.741102 1_556
N5 Sr0 2.833856 1_655
N6 Sr9 2.574995 1_655
N6 Sr7 2.670019 1_555
N6 Sr6 2.677589 1_545
N6 Sr1 2.741107 1_555
N6 Sr3 2.833859 1_655
N7 Sr9 2.574995 1_555
N7 Sr6 2.670016 1_555
N7 Sr7 2.677582 1_555
N7 Sr0 2.741102 1_554
N7 Sr2 2.833856 1_455
N8 Sr4 2.561680 1_555
N8 Sr8 2.795805 1_655
N8 Sr1 2.820538 1_555
N8 Sr3 3.119083 1_555
N9 Sr5 2.561682 1_555
N9 Sr8 2.795805 1_555
N9 Sr0 2.820534 1_555
N9 Sr2 3.119087 1_566
N10 Sr6 2.561680 1_555
N10 Sr9 2.795805 1_555
N10 Sr3 2.820538 1_555
N10 Sr1 3.119083 1_555
N11 Sr7 2.561682 1_555
N11 Sr9 2.795805 1_655
N11 Sr2 2.820534 1_555
N11 Sr0 3.119087 1_544
