# generated using pymatgen
data_Mg6GaBi
_symmetry_space_group_name_H-M   'P 1'
_cell_length_a   5.30616300
_cell_length_b   6.28944000
_cell_length_c   11.18383400
_cell_angle_alpha   90.00000000
_cell_angle_beta   90.00000000
_cell_angle_gamma   90.00000000
_symmetry_Int_Tables_number   1
_chemical_formula_structural   Mg6GaBi
_chemical_formula_sum   'Mg12 Ga2 Bi2'
_cell_volume   373.23578618
_cell_formula_units_Z   2
loop_
 _symmetry_equiv_pos_site_id
 _symmetry_equiv_pos_as_xyz
  1  'x, y, z'
loop_
 _atom_site_type_symbol
 _atom_site_label
 _atom_site_symmetry_multiplicity
 _atom_site_fract_x
 _atom_site_fract_y
 _atom_site_fract_z
 _atom_site_occupancy
  Mg  Mg0  1  0.00000000  0.24579700  0.08181400  1
  Mg  Mg1  1  0.00000000  0.75420300  0.08181400  1
  Mg  Mg2  1  0.00000000  0.00000000  0.33169200  1
  Mg  Mg3  1  0.50000000  0.74595100  0.41252800  1
  Mg  Mg4  1  0.50000000  0.25404900  0.41252800  1
  Mg  Mg5  1  0.50000000  0.00000000  0.16793700  1
  Mg  Mg6  1  0.00000000  0.74579700  0.58181400  1
  Mg  Mg7  1  0.00000000  0.25420300  0.58181400  1
  Mg  Mg8  1  0.00000000  0.50000000  0.83169200  1
  Mg  Mg9  1  0.50000000  0.24595100  0.91252800  1
  Mg  Mg10  1  0.50000000  0.75404900  0.91252800  1
  Mg  Mg11  1  0.50000000  0.50000000  0.66793700  1
  Ga  Ga0  1  0.00000000  0.50000000  0.34880100  1
  Ga  Ga1  1  0.00000000  0.00000000  0.84880100  1
  Bi  Bi0  1  0.50000000  0.50000000  0.16288400  1
  Bi  Bi1  1  0.50000000  0.00000000  0.66288400  1
loop_
_geom_bond_atom_site_label_1
_geom_bond_atom_site_label_2
_geom_bond_distance
_geom_bond_site_symmetry_2
Mg0 Mg2 3.193688 1_555
Mg0 Mg8 3.221981 1_554
Mg0 Mg9 3.259341 1_454
Mg0 Mg9 3.259341 1_554
Mg1 Mg2 3.193688 1_565
Mg1 Mg8 3.221981 1_554
Mg1 Mg10 3.259341 1_554
Mg1 Mg10 3.259341 1_454
Mg2 Mg6 3.221981 1_545
Mg2 Mg7 3.221981 1_555
Mg2 Mg5 3.223802 1_555
Mg2 Mg5 3.223802 1_455
Mg2 Mg3 3.226330 1_545
Mg2 Mg3 3.226330 1_445
Mg2 Mg4 3.226330 1_455
Mg2 Mg4 3.226330 1_555
Mg3 Mg4 3.093788 1_555
Mg3 Mg5 3.167936 1_565
Mg3 Mg4 3.195652 1_565
Mg3 Mg6 3.259341 1_655
Mg3 Mg6 3.259341 1_555
Mg4 Mg5 3.167936 1_555
Mg4 Mg7 3.259341 1_555
Mg4 Mg7 3.259341 1_655
Mg5 Mg9 3.248415 1_554
Mg6 Mg8 3.193688 1_555
Mg7 Mg8 3.193688 1_555
Mg8 Mg9 3.226330 1_555
Mg8 Mg9 3.226330 1_455
Mg10 Mg9 3.093788 1_565
Mg10 Mg11 3.167936 1_555
Mg10 Mg9 3.195652 1_555
Mg10 Mg8 3.226330 1_655
Mg10 Mg8 3.226330 1_555
Mg10 Mg5 3.248415 1_566
Mg11 Mg9 3.167936 1_555
Mg11 Mg8 3.223802 1_655
Mg11 Mg8 3.223802 1_555
Mg11 Mg3 3.248415 1_555
Mg11 Mg4 3.248415 1_555
Ga0 Mg7 3.030018 1_555
Ga0 Mg6 3.030018 1_555
Ga0 Mg2 3.150536 1_555
Ga0 Mg2 3.150536 1_565
Ga0 Mg4 3.152726 1_555
Ga0 Mg4 3.152726 1_455
Ga0 Mg3 3.152726 1_555
Ga0 Mg3 3.152726 1_455
Ga1 Mg0 3.030018 1_556
Ga1 Mg1 3.030018 1_546
Ga1 Mg8 3.150536 1_545
Ga1 Mg8 3.150536 1_555
Ga1 Mg9 3.152726 1_555
Ga1 Mg9 3.152726 1_455
Ga1 Mg10 3.152726 1_445
Ga1 Mg10 3.152726 1_545
Bi0 Mg5 3.145228 1_565
Bi0 Mg5 3.145228 1_555
Bi0 Mg3 3.191867 1_555
Bi0 Mg4 3.191867 1_555
Bi0 Mg9 3.223773 1_554
Bi0 Mg10 3.223773 1_554
Bi0 Mg1 3.227544 1_655
Bi0 Mg1 3.227544 1_555
Bi0 Mg0 3.227544 1_655
Bi0 Mg0 3.227544 1_555
Bi0 Ga0 3.370784 1_655
Bi0 Ga0 3.370784 1_555
Bi1 Mg11 3.145228 1_545
Bi1 Mg11 3.145228 1_555
Bi1 Mg9 3.191867 1_555
Bi1 Mg10 3.191867 1_545
Bi1 Mg3 3.223773 1_545
Bi1 Mg4 3.223773 1_555
Bi1 Mg7 3.227544 1_555
Bi1 Mg7 3.227544 1_655
Bi1 Mg6 3.227544 1_645
Bi1 Mg6 3.227544 1_545
Bi1 Ga1 3.370784 1_655
Bi1 Ga1 3.370784 1_555
