# generated using pymatgen
data_Sm2VFe16
_symmetry_space_group_name_H-M   'P 1'
_cell_length_a   6.42828802
_cell_length_b   6.42828802
_cell_length_c   6.42828771
_cell_angle_alpha   82.77692623
_cell_angle_beta   82.77692623
_cell_angle_gamma   82.77692326
_symmetry_Int_Tables_number   1
_chemical_formula_structural   Sm2VFe16
_chemical_formula_sum   'Sm2 V1 Fe16'
_cell_volume   259.80027499
_cell_formula_units_Z   1
loop_
 _symmetry_equiv_pos_site_id
 _symmetry_equiv_pos_as_xyz
  1  'x, y, z'
loop_
 _atom_site_type_symbol
 _atom_site_label
 _atom_site_symmetry_multiplicity
 _atom_site_fract_x
 _atom_site_fract_y
 _atom_site_fract_z
 _atom_site_occupancy
  Sm  Sm0  1  0.65884800  0.65884800  0.65884800  1
  Sm  Sm1  1  0.34504500  0.34504500  0.34504500  1
  V  V0  1  0.09090400  0.09090400  0.09090400  1
  Fe  Fe0  1  0.34011600  0.34011600  0.84389500  1
  Fe  Fe1  1  0.84389500  0.34011600  0.34011600  1
  Fe  Fe2  1  0.34011600  0.84389500  0.34011600  1
  Fe  Fe3  1  0.66029900  0.66029900  0.15572300  1
  Fe  Fe4  1  0.15572300  0.66029900  0.66029900  1
  Fe  Fe5  1  0.66029900  0.15572300  0.66029900  1
  Fe  Fe6  1  0.00107200  0.00107200  0.49956800  1
  Fe  Fe7  1  0.49956800  0.00107200  0.00107200  1
  Fe  Fe8  1  0.00107200  0.49956800  0.00107200  1
  Fe  Fe9  1  0.70434300  0.29467100  0.99941200  1
  Fe  Fe10  1  0.99941200  0.70434300  0.29467100  1
  Fe  Fe11  1  0.29467100  0.99941200  0.70434300  1
  Fe  Fe12  1  0.99941200  0.29467100  0.70434300  1
  Fe  Fe13  1  0.70434300  0.99941200  0.29467100  1
  Fe  Fe14  1  0.29467100  0.70434300  0.99941200  1
  Fe  Fe15  1  0.90619000  0.90619000  0.90619000  1
loop_
_geom_bond_atom_site_label_1
_geom_bond_atom_site_label_2
_geom_bond_distance
_geom_bond_site_symmetry_2
Sm1 V0 3.165484 1_555
Fe0 Fe8 2.442644 1_556
Fe0 Fe7 2.442644 1_556
Fe0 Fe4 2.482267 1_555
Fe0 Fe5 2.482267 1_555
Fe0 Fe12 2.531339 1_455
Fe0 Fe11 2.531339 1_545
Fe0 Fe14 2.628662 1_555
Fe0 Fe9 2.628662 1_555
Fe0 V0 2.649555 1_556
Fe0 Sm0 3.104976 1_555
Fe0 Sm1 3.199127 1_555
Fe0 Sm1 3.229844 1_556
Fe1 Fe6 2.442644 1_655
Fe1 Fe8 2.442644 1_655
Fe1 Fe3 2.482267 1_555
Fe1 Fe5 2.482267 1_555
Fe1 Fe9 2.531339 1_554
Fe1 Fe13 2.531339 1_545
Fe1 Fe12 2.628662 1_555
Fe1 Fe10 2.628662 1_555
Fe1 V0 2.649555 1_655
Fe1 Sm0 3.104975 1_555
Fe1 Sm1 3.199127 1_555
Fe1 Sm1 3.229844 1_655
Fe2 Fe6 2.442644 1_565
Fe2 Fe7 2.442644 1_565
Fe2 Fe3 2.482267 1_555
Fe2 Fe4 2.482267 1_555
Fe2 V0 2.649555 1_565
Fe2 Sm0 3.104975 1_555
Fe2 Sm1 3.199127 1_555
Fe2 Sm1 3.229844 1_565
Fe3 Fe8 2.448684 1_655
Fe3 Fe7 2.448684 1_565
Fe3 Fe9 2.639889 1_554
Fe3 Sm1 3.080134 1_555
Fe3 Sm0 3.196431 1_554
Fe3 Sm0 3.231916 1_555
Fe4 Fe6 2.448684 1_565
Fe4 Fe8 2.448684 1_556
Fe4 Sm1 3.080134 1_555
Fe4 Sm0 3.196431 1_455
Fe4 Sm0 3.231916 1_555
Fe5 Fe6 2.448684 1_655
Fe5 Fe7 2.448684 1_556
Fe5 Fe9 2.517622 1_555
Fe5 Sm1 3.080134 1_555
Fe5 Sm0 3.196431 1_545
Fe5 Sm0 3.231916 1_555
Fe6 V0 2.624694 1_555
Fe6 Sm0 3.288125 1_445
Fe6 Sm1 3.299994 1_555
Fe7 Fe9 2.431274 1_554
Fe7 V0 2.624694 1_555
Fe7 Sm0 3.288125 1_544
Fe7 Sm1 3.299993 1_555
Fe8 Fe9 2.452304 1_454
Fe8 V0 2.624694 1_555
Fe8 Sm0 3.288125 1_454
Fe8 Sm1 3.299993 1_555
Fe9 V0 2.755324 1_656
Fe9 Sm0 3.009786 1_555
Fe9 Sm1 3.013032 1_556
Fe10 Fe8 2.431274 1_655
Fe10 Fe6 2.452304 1_665
Fe10 Fe13 2.508164 1_555
Fe10 Fe14 2.509779 1_654
Fe10 Fe3 2.517622 1_555
Fe10 Fe2 2.531339 1_655
Fe10 Fe4 2.639889 1_655
Fe10 V0 2.755324 1_665
Fe10 Fe15 2.764962 1_554
Fe10 Sm0 3.009786 1_555
Fe10 Sm1 3.013032 1_655
Fe11 Fe6 2.431274 1_565
Fe11 Fe7 2.452304 1_566
Fe11 Fe14 2.508164 1_555
Fe11 Fe12 2.509779 1_465
Fe11 Fe4 2.517622 1_555
Fe11 Fe2 2.628662 1_555
Fe11 Fe5 2.639889 1_565
Fe11 V0 2.755323 1_566
Fe11 Fe15 2.764962 1_455
Fe11 Sm0 3.009786 1_555
Fe11 Sm1 3.013032 1_565
Fe12 Fe6 2.431274 1_655
Fe12 Fe8 2.452304 1_656
Fe12 Fe9 2.508164 1_555
Fe12 Fe5 2.517622 1_555
Fe12 Fe4 2.639889 1_655
Fe12 V0 2.755323 1_656
Fe12 Fe15 2.764962 1_545
Fe12 Sm0 3.009786 1_555
Fe12 Sm1 3.013032 1_655
Fe13 Fe7 2.431274 1_565
Fe13 Fe6 2.452304 1_665
Fe13 Fe9 2.509779 1_564
Fe13 Fe3 2.517622 1_555
Fe13 Fe2 2.628662 1_555
Fe13 Fe5 2.639889 1_565
Fe13 V0 2.755324 1_665
Fe13 Fe15 2.764962 1_554
Fe13 Sm0 3.009786 1_555
Fe13 Sm1 3.013032 1_565
Fe14 Fe8 2.431274 1_556
Fe14 Fe7 2.452304 1_566
Fe14 Fe4 2.517622 1_555
Fe14 Fe2 2.531339 1_556
Fe14 Fe3 2.639889 1_556
Fe14 V0 2.755324 1_566
Fe14 Fe15 2.764962 1_455
Fe14 Sm0 3.009786 1_555
Fe14 Sm1 3.013032 1_556
Fe15 V0 2.300728 1_666
Fe15 Fe6 2.620715 1_665
Fe15 Fe8 2.620715 1_656
Fe15 Fe7 2.620715 1_566
Fe15 Fe4 2.631180 1_655
Fe15 Fe5 2.631180 1_565
Fe15 Fe3 2.631180 1_556
Fe15 Fe9 2.764962 1_565
Fe15 Sm0 3.080798 1_555
