# generated using pymatgen
data_La5Sm3VCr7O24
_symmetry_space_group_name_H-M   'P 1'
_cell_length_a   7.82645179
_cell_length_b   7.82645179
_cell_length_c   7.82960189
_cell_angle_alpha   89.88070360
_cell_angle_beta   89.88070360
_cell_angle_gamma   89.91202923
_symmetry_Int_Tables_number   1
_chemical_formula_structural   La5Sm3VCr7O24
_chemical_formula_sum   'La5 Sm3 V1 Cr7 O24'
_cell_volume   479.58668469
_cell_formula_units_Z   1
loop_
 _symmetry_equiv_pos_site_id
 _symmetry_equiv_pos_as_xyz
  1  'x, y, z'
loop_
 _atom_site_type_symbol
 _atom_site_label
 _atom_site_symmetry_multiplicity
 _atom_site_fract_x
 _atom_site_fract_y
 _atom_site_fract_z
 _atom_site_occupancy
  La  La0  1  0.74974300  0.24975800  0.74967800  1
  La  La1  1  0.25020200  0.25020200  0.75006500  1
  La  La2  1  0.74917100  0.74917100  0.74899200  1
  La  La3  1  0.24975800  0.74974300  0.74967800  1
  La  La4  1  0.74985200  0.74985200  0.24977200  1
  Sm  Sm0  1  0.74995000  0.25064800  0.25082000  1
  Sm  Sm1  1  0.25079300  0.25079300  0.25108600  1
  Sm  Sm2  1  0.25064800  0.74995000  0.25082000  1
  V  V0  1  0.00067200  0.00067200  0.00129000  1
  Cr  Cr0  1  0.49971900  0.00038100  0.00114100  1
  Cr  Cr1  1  0.00038100  0.49971900  0.00114100  1
  Cr  Cr2  1  0.49960800  0.49960800  0.00108400  1
  Cr  Cr3  1  0.00036600  0.00036600  0.49891600  1
  Cr  Cr4  1  0.49962600  0.00036300  0.49884900  1
  Cr  Cr5  1  0.00036300  0.49962600  0.49884900  1
  Cr  Cr6  1  0.49961300  0.49961300  0.49889300  1
  O  O0  1  0.99894100  0.99894100  0.74812700  1
  O  O1  1  0.49970500  0.00011200  0.74979900  1
  O  O2  1  0.00011200  0.49970500  0.74979900  1
  O  O3  1  0.49984400  0.49984400  0.74987600  1
  O  O4  1  0.00280200  0.00280200  0.25207800  1
  O  O5  1  0.49839300  0.00178500  0.25014700  1
  O  O6  1  0.00178500  0.49839300  0.25014700  1
  O  O7  1  0.49824400  0.49824400  0.25007800  1
  O  O8  1  0.00079400  0.25182300  0.00474300  1
  O  O9  1  0.49999800  0.25013300  0.00378300  1
  O  O10  1  0.00078500  0.74846000  0.00082300  1
  O  O11  1  0.49799300  0.74982900  0.00210000  1
  O  O12  1  0.00013800  0.25019900  0.49637100  1
  O  O13  1  0.49989700  0.25006900  0.49617400  1
  O  O14  1  0.00189300  0.74977400  0.49767100  1
  O  O15  1  0.49802800  0.74989500  0.49777300  1
  O  O16  1  0.74846000  0.00078500  0.00082300  1
  O  O17  1  0.25182300  0.00079400  0.00474300  1
  O  O18  1  0.74982900  0.49799300  0.00210000  1
  O  O19  1  0.25013300  0.49999800  0.00378300  1
  O  O20  1  0.74977400  0.00189300  0.49767100  1
  O  O21  1  0.25019900  0.00013800  0.49637100  1
  O  O22  1  0.74989500  0.49802800  0.49777300  1
  O  O23  1  0.25006900  0.49989700  0.49617400  1
loop_
_geom_bond_atom_site_label_1
_geom_bond_atom_site_label_2
_geom_bond_distance
_geom_bond_site_symmetry_2
La0 O3 2.764861 1_555
La0 O0 2.765068 1_545
La0 O16 2.765440 1_556
La0 O22 2.765792 1_555
La0 O1 2.767440 1_555
La0 O20 2.769899 1_555
La0 O2 2.770946 1_655
La0 O18 2.774253 1_556
La0 O12 2.785267 1_655
La0 O9 2.786148 1_556
La0 O13 2.789144 1_555
La0 O8 2.804579 1_656
La1 O2 2.762696 1_555
La1 O1 2.762696 1_555
La1 O3 2.765223 1_555
La1 O0 2.783246 1_445
La1 O23 2.784679 1_555
La1 O13 2.784679 1_555
La1 O17 2.787535 1_556
La1 O8 2.787535 1_556
La1 O9 2.790068 1_556
La1 O19 2.790068 1_556
La1 O21 2.791409 1_555
La1 O12 2.791409 1_555
La2 O3 2.761726 1_555
La2 O0 2.766633 1_555
La2 O1 2.767213 1_565
La2 O2 2.767213 1_655
La2 O15 2.783585 1_555
La2 O22 2.783585 1_555
La2 O20 2.787108 1_565
La2 O14 2.787108 1_655
La2 O18 2.788474 1_556
La2 O11 2.788474 1_556
La2 O10 2.789586 1_656
La2 O16 2.789586 1_566
La3 O3 2.764861 1_555
La3 O0 2.765068 1_455
La3 O10 2.765440 1_556
La3 O15 2.765792 1_555
La3 O2 2.767440 1_555
La3 O14 2.769899 1_555
La3 O1 2.770946 1_565
La3 O11 2.774253 1_556
La3 O21 2.785267 1_565
La3 O19 2.786148 1_556
La3 O23 2.789144 1_555
La3 O17 2.804579 1_566
La4 O22 2.763848 1_555
La4 O15 2.763848 1_555
La4 O10 2.764133 1_655
La4 O16 2.764133 1_565
La4 O11 2.767994 1_555
La4 O18 2.767994 1_555
La4 O20 2.770257 1_565
La4 O14 2.770257 1_655
La4 O5 2.783704 1_565
La4 O6 2.783704 1_655
La4 O7 2.786997 1_555
La4 O4 2.801980 1_665
Cr0 O17 1.940290 1_555
Cr0 O16 1.946763 1_555
Cr0 O5 1.949678 1_555
Cr0 O9 1.954829 1_555
Cr0 O11 1.960999 1_545
Cr0 O1 1.967914 1_554
Cr1 O8 1.940290 1_555
Cr1 O10 1.946763 1_555
Cr1 O6 1.949678 1_555
Cr1 O19 1.954829 1_555
Cr1 O18 1.960999 1_455
Cr1 O2 1.967914 1_554
Cr2 O7 1.949538 1_555
Cr2 O19 1.952572 1_555
Cr2 O9 1.952572 1_555
Cr2 O18 1.958397 1_555
Cr2 O11 1.958397 1_555
Cr2 O3 1.966853 1_554
Cr3 O4 1.932752 1_555
Cr3 O0 1.951240 1_445
Cr3 O21 1.955364 1_555
Cr3 O12 1.955364 1_555
Cr3 O14 1.961309 1_545
Cr3 O20 1.961309 1_455
Cr4 O5 1.947290 1_555
Cr4 O21 1.952269 1_555
Cr4 O13 1.954385 1_555
Cr4 O20 1.957829 1_555
Cr4 O15 1.960371 1_545
Cr4 O1 1.964837 1_555
Cr5 O6 1.947290 1_555
Cr5 O12 1.952269 1_555
Cr5 O23 1.954385 1_555
Cr5 O14 1.957829 1_555
Cr5 O22 1.960371 1_455
Cr5 O2 1.964837 1_555
Cr6 O7 1.948226 1_555
Cr6 O23 1.953202 1_555
Cr6 O13 1.953202 1_555
Cr6 O15 1.958842 1_555
Cr6 O22 1.958842 1_555
Cr6 O3 1.965106 1_555
O0 V0 1.982315 1_666
O4 V0 1.963781 1_555
O4 Sm1 2.746927 1_555
O4 Sm2 2.768960 1_545
O4 Sm0 2.768960 1_455
O5 Sm1 2.746207 1_555
O5 Sm2 2.766948 1_545
O5 Sm0 2.771579 1_555
O6 Sm1 2.746207 1_555
O6 Sm0 2.766948 1_455
O6 Sm2 2.771579 1_555
O7 Sm1 2.740945 1_555
O7 Sm2 2.761184 1_555
O7 Sm0 2.761184 1_555
O8 V0 1.965865 1_555
O8 Sm0 2.747846 1_455
O8 Sm1 2.750294 1_555
O9 Sm1 2.745457 1_555
O9 Sm0 2.753875 1_555
O10 V0 1.973935 1_565
O10 Sm2 2.769784 1_555
O11 Sm2 2.742998 1_555
O12 Sm1 2.742445 1_555
O12 Sm0 2.746998 1_455
O13 Sm1 2.738396 1_555
O13 Sm0 2.739461 1_555
O14 Sm2 2.740462 1_555
O15 Sm2 2.739103 1_555
O16 V0 1.973935 1_655
O16 Sm0 2.769784 1_555
O17 V0 1.965865 1_555
O17 Sm2 2.747846 1_545
O17 Sm1 2.750294 1_555
O18 Sm0 2.742998 1_555
O19 Sm1 2.745457 1_555
O19 Sm2 2.753875 1_555
O20 Sm0 2.740462 1_555
O21 Sm1 2.742445 1_555
O21 Sm2 2.746998 1_545
O22 Sm0 2.739103 1_555
O23 Sm1 2.738396 1_555
O23 Sm2 2.739461 1_555
