# generated using pymatgen
data_Ca3Ni2(WO6)2
_symmetry_space_group_name_H-M   'P 1'
_cell_length_a   5.45375900
_cell_length_b   5.54886181
_cell_length_c   7.68110559
_cell_angle_alpha   89.84111499
_cell_angle_beta   89.93079993
_cell_angle_gamma   88.73806872
_symmetry_Int_Tables_number   1
_chemical_formula_structural   Ca3Ni2(WO6)2
_chemical_formula_sum   'Ca3 Ni2 W2 O12'
_cell_volume   232.38938451
_cell_formula_units_Z   1
loop_
 _symmetry_equiv_pos_site_id
 _symmetry_equiv_pos_as_xyz
  1  'x, y, z'
loop_
 _atom_site_type_symbol
 _atom_site_label
 _atom_site_symmetry_multiplicity
 _atom_site_fract_x
 _atom_site_fract_y
 _atom_site_fract_z
 _atom_site_occupancy
  Ca  Ca0  1  0.99474400  0.95498400  0.75008500  1
  Ca  Ca1  1  0.51477000  0.44683100  0.74810600  1
  Ca  Ca2  1  0.00898300  0.04660300  0.24777900  1
  Ni  Ni0  1  0.00169500  0.49721800  0.99933000  1
  Ni  Ni1  1  0.49978600  0.99506400  0.49973400  1
  W  W0  1  0.50580800  0.98158100  0.00916100  1
  W  W1  1  0.00138600  0.50456900  0.49040000  1
  O  O0  1  0.92790700  0.48920500  0.25239600  1
  O  O1  1  0.58281400  0.97281600  0.24703600  1
  O  O2  1  0.08923600  0.51456100  0.74565900  1
  O  O3  1  0.41652500  0.03161700  0.75588700  1
  O  O4  1  0.29191500  0.27364500  0.03564200  1
  O  O5  1  0.18505400  0.79773700  0.47026600  1
  O  O6  1  0.70554400  0.71542000  0.94115300  1
  O  O7  1  0.79998200  0.22164500  0.54397100  1
  O  O8  1  0.78199200  0.19531000  0.96105600  1
  O  O9  1  0.72016200  0.71023300  0.55827600  1
  O  O10  1  0.20489100  0.80746600  0.03024300  1
  O  O11  1  0.27964400  0.29023300  0.46105100  1
loop_
_geom_bond_atom_site_label_1
_geom_bond_atom_site_label_2
_geom_bond_distance
_geom_bond_site_symmetry_2
Ca0 O3 2.348953 1_665
Ca0 O8 2.385349 1_565
Ca0 O7 2.397073 1_565
Ca0 O2 2.486777 1_655
Ca0 O9 2.522609 1_555
Ca0 O5 2.534418 1_655
Ca0 O6 2.546474 1_555
Ca0 O10 2.563045 1_656
Ca1 O2 2.342898 1_555
Ca1 O9 2.360803 1_555
Ca1 O6 2.363622 1_555
Ca1 O3 2.377487 1_555
Ca1 O7 2.521658 1_555
Ca1 O8 2.578907 1_555
Ca1 O4 2.704027 1_556
Ca1 O11 2.706939 1_555
Ca2 O1 2.368890 1_445
Ca2 O10 2.374831 1_545
Ca2 O5 2.383693 1_545
Ca2 O0 2.486164 1_455
Ca2 O4 2.586774 1_555
Ca2 O11 2.606930 1_555
Ca2 O8 2.648635 1_454
Ca2 O7 2.715853 1_455
Ni0 O0 1.985145 1_456
Ni0 O2 2.008105 1_555
Ni0 O4 2.008658 1_556
Ni0 O6 2.046199 1_455
Ni0 O10 2.082072 1_556
Ni0 O8 2.102516 1_455
Ni1 O1 1.996123 1_555
Ni1 O9 2.014534 1_555
Ni1 O3 2.028432 1_565
Ni1 O11 2.030724 1_565
Ni1 O5 2.069179 1_555
Ni1 O7 2.114466 1_565
O0 W1 1.874585 1_655
O1 W0 1.875541 1_555
O2 W1 2.020123 1_555
O3 W0 2.022918 1_546
O4 W0 1.986592 1_545
O5 W1 1.934838 1_555
O6 W0 1.890166 1_556
O7 W1 1.977803 1_655
O8 W0 1.971467 1_546
O9 W1 1.962334 1_655
O10 W0 1.929062 1_555
O11 W1 1.920789 1_555
