# generated using pymatgen
data_Li2S2O7
_symmetry_space_group_name_H-M   'P 1'
_cell_length_a   4.93159200
_cell_length_b   8.36992300
_cell_length_c   13.35716600
_cell_angle_alpha   90.00000000
_cell_angle_beta   90.00000000
_cell_angle_gamma   90.00000000
_symmetry_Int_Tables_number   1
_chemical_formula_structural   Li2S2O7
_chemical_formula_sum   'Li8 S8 O28'
_cell_volume   551.34434616
_cell_formula_units_Z   4
loop_
 _symmetry_equiv_pos_site_id
 _symmetry_equiv_pos_as_xyz
  1  'x, y, z'
loop_
 _atom_site_type_symbol
 _atom_site_label
 _atom_site_symmetry_multiplicity
 _atom_site_fract_x
 _atom_site_fract_y
 _atom_site_fract_z
 _atom_site_occupancy
  Li  Li0  1  0.60097500  0.56854500  0.39615200  1
  Li  Li1  1  0.89902500  0.93145500  0.89615200  1
  Li  Li2  1  0.39902500  0.06854500  0.60384800  1
  Li  Li3  1  0.10097500  0.43145500  0.10384800  1
  Li  Li4  1  0.39902500  0.43145500  0.60384800  1
  Li  Li5  1  0.10097500  0.06854500  0.10384800  1
  Li  Li6  1  0.60097500  0.93145500  0.39615200  1
  Li  Li7  1  0.89902500  0.56854500  0.89615200  1
  S  S0  1  0.77798400  0.25000000  0.28377400  1
  S  S1  1  0.72201600  0.25000000  0.78377400  1
  S  S2  1  0.22201600  0.75000000  0.71622600  1
  S  S3  1  0.27798400  0.75000000  0.21622600  1
  S  S4  1  0.88546000  0.25000000  0.49604900  1
  S  S5  1  0.61454000  0.25000000  0.99604900  1
  S  S6  1  0.11454000  0.75000000  0.50395100  1
  S  S7  1  0.38546000  0.75000000  0.00395100  1
  O  O0  1  0.62445100  0.39664600  0.29387600  1
  O  O1  1  0.87554900  0.10335400  0.79387600  1
  O  O2  1  0.37554900  0.89664600  0.70612400  1
  O  O3  1  0.12445100  0.60335400  0.20612400  1
  O  O4  1  0.37554900  0.60335400  0.70612400  1
  O  O5  1  0.12445100  0.89664600  0.20612400  1
  O  O6  1  0.62445100  0.10335400  0.29387600  1
  O  O7  1  0.87554900  0.39664600  0.79387600  1
  O  O8  1  0.97027500  0.25000000  0.20078700  1
  O  O9  1  0.52972500  0.25000000  0.70078700  1
  O  O10  1  0.02972500  0.75000000  0.79921300  1
  O  O11  1  0.47027500  0.75000000  0.29921300  1
  O  O12  1  0.99956300  0.25000000  0.38185900  1
  O  O13  1  0.50043700  0.25000000  0.88185900  1
  O  O14  1  0.00043700  0.75000000  0.61814100  1
  O  O15  1  0.49956300  0.75000000  0.11814100  1
  O  O16  1  0.72579500  0.39627400  0.50775800  1
  O  O17  1  0.77420500  0.10372600  0.00775800  1
  O  O18  1  0.27420500  0.89627400  0.49224200  1
  O  O19  1  0.22579500  0.60372600  0.99224200  1
  O  O20  1  0.27420500  0.60372600  0.49224200  1
  O  O21  1  0.22579500  0.89627400  0.99224200  1
  O  O22  1  0.72579500  0.10372600  0.50775800  1
  O  O23  1  0.77420500  0.39627400  0.00775800  1
  O  O24  1  0.13638600  0.25000000  0.55416000  1
  O  O25  1  0.36361400  0.25000000  0.05416000  1
  O  O26  1  0.86361400  0.75000000  0.44584000  1
  O  O27  1  0.63638600  0.75000000  0.94584000  1
loop_
_geom_bond_atom_site_label_1
_geom_bond_atom_site_label_2
_geom_bond_distance
_geom_bond_site_symmetry_2
Li0 O0 1.987403 1_555
Li0 O20 2.081100 1_555
Li0 O11 2.097305 1_555
Li0 O26 2.103508 1_555
Li0 O16 2.163396 1_555
Li1 O1 1.987403 1_565
Li1 O21 2.081100 1_655
Li1 O10 2.097305 1_655
Li1 O27 2.103508 1_555
Li1 O17 2.163396 1_566
Li2 O2 1.987403 1_545
Li2 O22 2.081100 1_555
Li2 O9 2.097305 1_555
Li2 O24 2.103508 1_555
Li2 O18 2.163396 1_545
Li3 O3 1.987403 1_555
Li3 O23 2.081100 1_455
Li3 O8 2.097305 1_455
Li3 O25 2.103508 1_555
Li3 O19 2.163396 1_554
Li4 O4 1.987403 1_555
Li4 O16 2.081100 1_555
Li4 O9 2.097305 1_555
Li4 O24 2.103508 1_555
Li4 O20 2.163396 1_555
Li5 O5 1.987403 1_545
Li5 O17 2.081100 1_455
Li5 O8 2.097305 1_455
Li5 O25 2.103508 1_555
Li5 O21 2.163396 1_544
Li6 O6 1.987403 1_565
Li6 O18 2.081100 1_555
Li6 O11 2.097305 1_555
Li6 O26 2.103508 1_555
Li6 O22 2.163396 1_565
Li7 O7 1.987403 1_555
Li7 O19 2.081100 1_655
Li7 O10 2.097305 1_655
Li7 O27 2.103508 1_555
Li7 O23 2.163396 1_556
O0 S0 1.448465 1_555
O1 S1 1.448465 1_555
O2 S2 1.448465 1_555
O3 S3 1.448465 1_555
O4 S2 1.448465 1_555
O5 S3 1.448465 1_555
O6 S0 1.448465 1_555
O7 S1 1.448465 1_555
O8 S0 1.458761 1_555
O9 S1 1.458761 1_555
O10 S2 1.458761 1_555
O11 S3 1.458761 1_555
O12 S4 1.625744 1_555
O12 S0 1.706029 1_555
O13 S5 1.625744 1_555
O13 S1 1.706029 1_555
O14 S6 1.625744 1_555
O14 S2 1.706029 1_555
O15 S7 1.625744 1_555
O15 S3 1.706029 1_555
O16 S4 1.464028 1_555
O17 S5 1.464028 1_554
O18 S6 1.464028 1_555
O19 S7 1.464028 1_556
O20 S6 1.464028 1_555
O21 S7 1.464028 1_556
O22 S4 1.464028 1_555
O23 S5 1.464028 1_554
O24 S4 1.460754 1_455
O25 S5 1.460754 1_554
O26 S6 1.460754 1_655
O27 S7 1.460754 1_556
