# generated using pymatgen
data_Tb3U(CoGe)8
_symmetry_space_group_name_H-M   'P 1'
_cell_length_a   3.99339600
_cell_length_b   3.99339600
_cell_length_c   20.12633400
_cell_angle_alpha   90.00000000
_cell_angle_beta   90.00000000
_cell_angle_gamma   90.00000000
_symmetry_Int_Tables_number   1
_chemical_formula_structural   Tb3U(CoGe)8
_chemical_formula_sum   'Tb3 U1 Co8 Ge8'
_cell_volume   320.95890729
_cell_formula_units_Z   1
loop_
 _symmetry_equiv_pos_site_id
 _symmetry_equiv_pos_as_xyz
  1  'x, y, z'
loop_
 _atom_site_type_symbol
 _atom_site_label
 _atom_site_symmetry_multiplicity
 _atom_site_fract_x
 _atom_site_fract_y
 _atom_site_fract_z
 _atom_site_occupancy
  Tb  Tb0  1  0.50000000  0.50000000  0.24897800  1
  Tb  Tb1  1  0.00000000  0.00000000  0.50000000  1
  Tb  Tb2  1  0.50000000  0.50000000  0.75102200  1
  U  U0  1  0.00000000  0.00000000  0.00000000  1
  Co  Co0  1  0.00000000  0.50000000  0.12325200  1
  Co  Co1  1  0.50000000  0.00000000  0.37502800  1
  Co  Co2  1  0.00000000  0.50000000  0.62497200  1
  Co  Co3  1  0.50000000  0.00000000  0.87674800  1
  Co  Co4  1  0.50000000  0.00000000  0.12325200  1
  Co  Co5  1  0.00000000  0.50000000  0.37502800  1
  Co  Co6  1  0.50000000  0.00000000  0.62497200  1
  Co  Co7  1  0.00000000  0.50000000  0.87674800  1
  Ge  Ge0  1  0.50000000  0.50000000  0.06246300  1
  Ge  Ge1  1  0.00000000  0.00000000  0.31390000  1
  Ge  Ge2  1  0.50000000  0.50000000  0.56427900  1
  Ge  Ge3  1  0.00000000  0.00000000  0.81381100  1
  Ge  Ge4  1  0.00000000  0.00000000  0.18618900  1
  Ge  Ge5  1  0.50000000  0.50000000  0.43572100  1
  Ge  Ge6  1  0.00000000  0.00000000  0.68610000  1
  Ge  Ge7  1  0.50000000  0.50000000  0.93753700  1
loop_
_geom_bond_atom_site_label_1
_geom_bond_atom_site_label_2
_geom_bond_distance
_geom_bond_site_symmetry_2
Co0 Ge0 2.341721 1_455
Co0 Ge0 2.341721 1_555
Co0 Ge4 2.364595 1_555
Co0 Ge4 2.364595 1_565
Co0 U0 3.184373 1_555
Co0 U0 3.184373 1_565
Co0 Tb0 3.223313 1_555
Co0 Tb0 3.223313 1_455
Co1 Ge5 2.340712 1_545
Co1 Ge5 2.340712 1_555
Co1 Ge1 2.345293 1_655
Co1 Ge1 2.345293 1_555
Co1 Tb1 3.211413 1_555
Co1 Tb1 3.211413 1_655
Co1 Tb0 3.228434 1_555
Co1 Tb0 3.228434 1_545
Co2 Ge2 2.340712 1_455
Co2 Ge2 2.340712 1_555
Co2 Ge6 2.345293 1_565
Co2 Ge6 2.345293 1_555
Co2 Tb1 3.211413 1_555
Co2 Tb1 3.211413 1_565
Co2 Tb2 3.228434 1_555
Co2 Tb2 3.228434 1_455
Co3 Ge7 2.341721 1_555
Co3 Ge7 2.341721 1_545
Co3 Ge3 2.364595 1_655
Co3 Ge3 2.364595 1_555
Co3 U0 3.184373 1_556
Co3 U0 3.184373 1_656
Co3 Tb2 3.223313 1_555
Co3 Tb2 3.223313 1_545
Co4 Ge0 2.341721 1_555
Co4 Ge0 2.341721 1_545
Co4 Ge4 2.364595 1_555
Co4 Ge4 2.364595 1_655
Co4 U0 3.184373 1_555
Co4 U0 3.184373 1_655
Co4 Tb0 3.223313 1_555
Co4 Tb0 3.223313 1_545
Co5 Ge5 2.340712 1_455
Co5 Ge5 2.340712 1_555
Co5 Ge1 2.345293 1_565
Co5 Ge1 2.345293 1_555
Co5 Tb1 3.211413 1_565
Co5 Tb1 3.211413 1_555
Co5 Tb0 3.228434 1_555
Co5 Tb0 3.228434 1_455
Co6 Ge2 2.340712 1_555
Co6 Ge2 2.340712 1_545
Co6 Ge6 2.345293 1_555
Co6 Ge6 2.345293 1_655
Co6 Tb1 3.211413 1_555
Co6 Tb1 3.211413 1_655
Co6 Tb2 3.228434 1_555
Co6 Tb2 3.228434 1_545
Co7 Ge7 2.341721 1_455
Co7 Ge7 2.341721 1_555
Co7 Ge3 2.364595 1_565
Co7 Ge3 2.364595 1_555
Co7 U0 3.184373 1_556
Co7 U0 3.184373 1_566
Co7 Tb2 3.223313 1_555
Co7 Tb2 3.223313 1_455
Ge0 Ge7 2.514302 1_554
Ge0 U0 3.090960 1_555
Ge0 U0 3.090960 1_565
Ge0 U0 3.090960 1_655
Ge0 U0 3.090960 1_665
Ge1 Ge4 2.570354 1_555
Ge1 Tb0 3.111417 1_455
Ge1 Tb0 3.111417 1_445
Ge1 Tb0 3.111417 1_555
Ge1 Tb0 3.111417 1_545
Ge2 Ge5 2.587401 1_555
Ge2 Tb1 3.106005 1_555
Ge2 Tb1 3.106005 1_565
Ge2 Tb1 3.106005 1_655
Ge2 Tb1 3.106005 1_665
Ge3 Ge6 2.570354 1_555
Ge3 Tb2 3.093635 1_545
Ge3 Tb2 3.093635 1_555
Ge3 Tb2 3.093635 1_455
Ge3 Tb2 3.093635 1_445
Ge4 Tb0 3.093635 1_555
Ge4 Tb0 3.093635 1_455
Ge4 Tb0 3.093635 1_545
Ge4 Tb0 3.093635 1_445
Ge5 Tb1 3.106005 1_555
Ge5 Tb1 3.106005 1_565
Ge5 Tb1 3.106005 1_655
Ge5 Tb1 3.106005 1_665
Ge6 Tb2 3.111417 1_445
Ge6 Tb2 3.111417 1_545
Ge6 Tb2 3.111417 1_555
Ge6 Tb2 3.111417 1_455
Ge7 U0 3.090960 1_656
Ge7 U0 3.090960 1_566
Ge7 U0 3.090960 1_666
Ge7 U0 3.090960 1_556
