# generated using pymatgen
data_YbAlF5
_symmetry_space_group_name_H-M   'P 1'
_cell_length_a   6.92327698
_cell_length_b   10.20476606
_cell_length_c   10.25025666
_cell_angle_alpha   84.80900060
_cell_angle_beta   71.99246915
_cell_angle_gamma   72.35231246
_symmetry_Int_Tables_number   1
_chemical_formula_structural   YbAlF5
_chemical_formula_sum   'Yb8 Al8 F40'
_cell_volume   656.29552560
_cell_formula_units_Z   8
loop_
 _symmetry_equiv_pos_site_id
 _symmetry_equiv_pos_as_xyz
  1  'x, y, z'
loop_
 _atom_site_type_symbol
 _atom_site_label
 _atom_site_symmetry_multiplicity
 _atom_site_fract_x
 _atom_site_fract_y
 _atom_site_fract_z
 _atom_site_occupancy
  Yb  Yb0  1  0.08641100  0.67750800  0.17922600  1
  Yb  Yb1  1  0.27349300  0.26990800  0.16820100  1
  Yb  Yb2  1  0.27066900  0.81476700  0.68100900  1
  Yb  Yb3  1  0.43652900  0.83128800  0.27720200  1
  Yb  Yb4  1  0.53775300  0.18573700  0.72467500  1
  Yb  Yb5  1  0.71715300  0.18926400  0.32336900  1
  Yb  Yb6  1  0.73479800  0.72653200  0.81443000  1
  Yb  Yb7  1  0.91588700  0.32527400  0.79976800  1
  Al  Al0  1  0.31924000  0.98994500  0.00138700  1
  Al  Al1  1  0.99708100  0.50267900  0.49018000  1
  Al  Al2  1  0.15222300  0.14834900  0.51503200  1
  Al  Al3  1  0.30479000  0.52005400  0.84851800  1
  Al  Al4  1  0.82498600  0.00273900  0.99673900  1
  Al  Al5  1  0.49455800  0.50356100  0.49423100  1
  Al  Al6  1  0.68904400  0.48055000  0.14145200  1
  Al  Al7  1  0.82830400  0.85625200  0.48079700  1
  F  F0  1  0.01651800  0.18516900  0.38058700  1
  F  F1  1  0.29660000  0.03895800  0.17297400  1
  F  F2  1  0.06090300  0.33341400  0.55867200  1
  F  F3  1  0.09697600  0.44977100  0.31138400  1
  F  F4  1  0.23701500  0.49217700  0.02905900  1
  F  F5  1  0.07026000  0.86262800  0.34368200  1
  F  F6  1  0.26247800  0.14545100  0.66126500  1
  F  F7  1  0.30831100  0.82609400  0.07494200  1
  F  F8  1  0.05751100  0.65378600  0.85731500  1
  F  F9  1  0.37486600  0.18786300  0.38261300  1
  F  F10  1  0.24828000  0.51368400  0.47630200  1
  F  F11  1  0.20914900  0.38251400  0.80921100  1
  F  F12  1  0.34545000  0.16073000  0.94909800  1
  F  F13  1  0.42906200  0.61346900  0.19382900  1
  F  F14  1  0.55416500  0.35306400  0.13756900  1
  F  F15  1  0.65252300  0.08842900  0.15492300  1
  F  F16  1  0.25827000  0.96630700  0.49490500  1
  F  F17  1  0.36423400  0.56908100  0.66470200  1
  F  F18  1  0.44758500  0.68462000  0.44942600  1
  F  F19  1  0.53857400  0.32116100  0.54262300  1
  F  F20  1  0.62923100  0.43025700  0.32653600  1
  F  F21  1  0.71750700  0.03840600  0.51500300  1
  F  F22  1  0.43121200  0.65578900  0.85004400  1
  F  F23  1  0.56697000  0.38844400  0.80264000  1
  F  F24  1  0.79207000  0.61297000  0.17669800  1
  F  F25  1  0.38766300  0.93183000  0.82916000  1
  F  F26  1  0.74104100  0.49276700  0.51160600  1
  F  F27  1  0.62083900  0.80320000  0.61562500  1
  F  F28  1  0.93097900  0.33332500  0.13415900  1
  F  F29  1  0.74760900  0.16127900  0.90535800  1
  F  F30  1  0.68737800  0.87386000  0.35466500  1
  F  F31  1  0.89353600  0.84566500  0.08612300  1
  F  F32  1  0.90025100  0.15563000  0.64619600  1
  F  F33  1  0.75900000  0.50748300  0.95874700  1
  F  F34  1  0.89845800  0.54790900  0.67488000  1
  F  F35  1  0.93329400  0.67217600  0.42296100  1
  F  F36  1  0.03790700  0.05873000  0.02594200  1
  F  F37  1  0.61789400  0.92791300  0.96826300  1
  F  F38  1  0.96585900  0.81530300  0.61478400  1
  F  F39  1  0.98805400  0.92528900  0.83551300  1
loop_
_geom_bond_atom_site_label_1
_geom_bond_atom_site_label_2
_geom_bond_distance
_geom_bond_site_symmetry_2
Al0 F7 1.784176 1_555
Al0 F25 1.787372 1_554
Al0 F36 1.802686 1_565
Al0 F1 1.819162 1_565
Al0 F12 1.822145 1_564
Al0 F37 1.898015 1_554
Al1 F10 1.737802 1_655
Al1 F26 1.750627 1_555
Al1 F35 1.780696 1_555
Al1 F2 1.783627 1_655
Al1 F3 1.815929 1_655
Al1 F34 1.852386 1_555
Al2 F16 1.783638 1_545
Al2 F32 1.829115 1_455
Al2 F9 1.834435 1_555
Al2 F0 1.848193 1_555
Al2 F2 1.849452 1_555
Al2 F6 1.875109 1_555
Al3 F4 1.781735 1_556
Al3 F8 1.819797 1_555
Al3 F11 1.844328 1_555
Al3 F23 1.851508 1_555
Al3 F22 1.852675 1_555
Al3 F17 1.855958 1_555
Al4 F39 1.781045 1_545
Al4 F31 1.782085 1_546
Al4 F15 1.801622 1_556
Al4 F29 1.814484 1_555
Al4 F36 1.844868 1_656
Al4 F37 1.920101 1_545
Al5 F26 1.739621 1_555
Al5 F10 1.742168 1_555
Al5 F17 1.784738 1_555
Al5 F20 1.789540 1_555
Al5 F18 1.817970 1_555
Al5 F19 1.840109 1_555
Al6 F33 1.801155 1_554
Al6 F24 1.815881 1_555
Al6 F14 1.826206 1_555
Al6 F13 1.849814 1_555
Al6 F28 1.866935 1_555
Al6 F20 1.871105 1_555
Al7 F21 1.803809 1_565
Al7 F30 1.813107 1_555
Al7 F27 1.837095 1_555
Al7 F5 1.838344 1_655
Al7 F38 1.852382 1_555
Al7 F35 1.874990 1_555
F0 Yb5 2.309970 1_455
F0 Yb1 2.617221 1_555
F1 Yb1 2.310372 1_555
F1 Yb3 2.357210 1_545
F2 Yb7 2.366761 1_455
F3 Yb1 2.243855 1_555
F3 Yb0 2.574867 1_555
F4 Yb0 2.317787 1_555
F4 Yb1 2.555913 1_555
F5 Yb3 2.340120 1_555
F5 Yb0 2.598940 1_555
F6 Yb4 2.347945 1_555
F6 Yb7 2.614592 1_455
F7 Yb0 2.430157 1_555
F7 Yb3 2.505058 1_555
F8 Yb6 2.297531 1_455
F8 Yb2 2.725114 1_555
F9 Yb5 2.261393 1_555
F9 Yb1 2.507633 1_555
F11 Yb7 2.307301 1_455
F11 Yb4 2.506981 1_555
F12 Yb4 2.309902 1_555
F12 Yb1 2.440873 1_556
F13 Yb0 2.310627 1_555
F13 Yb3 2.472758 1_555
F14 Yb1 2.273533 1_555
F14 Yb5 2.702499 1_555
F15 Yb5 2.306205 1_555
F15 Yb1 2.685608 1_555
F16 Yb2 2.350480 1_555
F16 Yb3 2.494749 1_555
F17 Yb2 2.399502 1_555
F18 Yb3 2.213234 1_555
F18 Yb2 2.585629 1_555
F19 Yb4 2.218937 1_555
F19 Yb5 2.492288 1_555
F20 Yb5 2.348232 1_555
F21 Yb5 2.383681 1_555
F21 Yb4 2.494948 1_555
F22 Yb6 2.338792 1_555
F22 Yb2 2.541294 1_555
F23 Yb7 2.295009 1_555
F23 Yb4 2.368834 1_555
F24 Yb0 2.331640 1_655
F24 Yb3 2.757929 1_555
F25 Yb2 2.462661 1_555
F25 Yb6 2.639668 1_555
F27 Yb2 2.275231 1_555
F27 Yb6 2.391342 1_555
F28 Yb1 2.388301 1_655
F28 Yb5 2.672576 1_555
F29 Yb7 2.324699 1_555
F29 Yb4 2.638834 1_555
F30 Yb3 2.282058 1_555
F31 Yb0 2.177322 1_655
F32 Yb4 2.317099 1_555
F32 Yb7 2.489730 1_555
F33 Yb7 2.349900 1_555
F33 Yb6 2.557522 1_555
F34 Yb6 2.206809 1_555
F34 Yb7 2.493594 1_555
F35 Yb0 2.396110 1_655
F37 Yb6 2.480621 1_555
F38 Yb2 2.406690 1_655
F38 Yb6 2.467117 1_555
F39 Yb2 2.162832 1_655
