# generated using pymatgen
data_Mg5Si9
_symmetry_space_group_name_H-M   'P 1'
_cell_length_a   5.42737400
_cell_length_b   7.40475564
_cell_length_c   12.70316087
_cell_angle_alpha   90.51706098
_cell_angle_beta   98.61051235
_cell_angle_gamma   105.91469109
_symmetry_Int_Tables_number   1
_chemical_formula_structural   Mg5Si9
_chemical_formula_sum   'Mg10 Si18'
_cell_volume   484.74450082
_cell_formula_units_Z   2
loop_
 _symmetry_equiv_pos_site_id
 _symmetry_equiv_pos_as_xyz
  1  'x, y, z'
loop_
 _atom_site_type_symbol
 _atom_site_label
 _atom_site_symmetry_multiplicity
 _atom_site_fract_x
 _atom_site_fract_y
 _atom_site_fract_z
 _atom_site_occupancy
  Mg  Mg0  1  0.19112100  0.00144000  0.73318100  1
  Mg  Mg1  1  0.82818900  0.93923700  0.43820400  1
  Mg  Mg2  1  0.57314100  0.56843100  0.52695300  1
  Mg  Mg3  1  0.53336600  0.60502400  0.27869000  1
  Mg  Mg4  1  0.97018300  0.31715300  0.55200400  1
  Mg  Mg5  1  0.38595300  0.14384600  0.52085900  1
  Mg  Mg6  1  0.22600900  0.92604400  0.28405400  1
  Mg  Mg7  1  0.37814400  0.72645600  0.88672700  1
  Mg  Mg8  1  0.05053000  0.18672200  0.10213300  1
  Mg  Mg9  1  0.82166100  0.49154900  0.94326200  1
  Si  Si0  1  0.78347100  0.76183000  0.09123700  1
  Si  Si1  1  0.21078000  0.28920200  0.88630300  1
  Si  Si2  1  0.12266500  0.27425600  0.34600600  1
  Si  Si3  1  0.72182200  0.71342800  0.75943400  1
  Si  Si4  1  0.00950300  0.54144800  0.16987300  1
  Si  Si5  1  0.75621000  0.22864500  0.76668700  1
  Si  Si6  1  0.63182200  0.28042700  0.35107800  1
  Si  Si7  1  0.03831500  0.56723100  0.71209000  1
  Si  Si8  1  0.59318200  0.27283200  0.13424400  1
  Si  Si9  1  0.66272800  0.95012000  0.63913200  1
  Si  Si10  1  0.92751600  0.93699800  0.92584100  1
  Si  Si11  1  0.31172100  0.91349700  0.07062100  1
  Si  Si12  1  0.70906100  0.99150200  0.22123200  1
  Si  Si13  1  0.40678500  0.39587700  0.72176000  1
  Si  Si14  1  0.56062900  0.11045200  0.93520500  1
  Si  Si15  1  0.34922700  0.52397500  0.05995300  1
  Si  Si16  1  0.18959200  0.75403200  0.56136800  1
  Si  Si17  1  0.05678800  0.58848700  0.38163000  1
loop_
_geom_bond_atom_site_label_1
_geom_bond_atom_site_label_2
_geom_bond_distance
_geom_bond_site_symmetry_2
Mg0 Si16 2.834423 1_545
Mg0 Si1 2.841414 1_555
Mg0 Si13 2.846981 1_555
Mg0 Si9 2.857305 1_445
Mg0 Si3 2.904338 1_445
Mg0 Si14 2.965350 1_555
Mg0 Si10 2.993227 1_445
Mg0 Si5 3.030559 1_555
Mg0 Si7 3.090752 1_545
Mg0 Si9 3.092596 1_545
Mg1 Si12 2.790606 1_555
Mg1 Si9 2.837269 1_555
Mg1 Si2 2.918683 1_665
Mg1 Si16 2.961585 1_655
Mg1 Si6 3.149211 1_565
Mg2 Si16 2.871209 1_555
Mg2 Si13 2.943664 1_555
Mg2 Si9 3.036670 1_555
Mg2 Si3 3.046247 1_555
Mg2 Si17 3.157175 1_555
Mg2 Si6 3.184410 1_555
Mg2 Si16 3.209861 1_655
Mg3 Si6 2.739589 1_555
Mg3 Si15 2.808794 1_555
Mg3 Si4 2.879861 1_555
Mg3 Si12 2.895055 1_555
Mg3 Si17 2.979343 1_655
Mg3 Si0 3.002415 1_555
Mg3 Si17 3.042579 1_555
Mg3 Si2 3.051751 1_555
Mg3 Si8 3.171403 1_555
Mg4 Si7 2.651913 1_655
Mg4 Si6 2.875962 1_555
Mg4 Si13 2.880062 1_655
Mg4 Si2 2.900203 1_655
Mg4 Si17 2.967658 1_655
Mg4 Si9 3.084812 1_545
Mg4 Si16 3.120146 1_655
Mg4 Si5 3.127094 1_555
Mg5 Si9 2.667665 1_545
Mg5 Si6 2.759734 1_555
Mg5 Si2 2.784447 1_555
Mg5 Si16 2.869901 1_545
Mg5 Si13 3.117790 1_555
Mg6 Si12 2.771589 1_555
Mg6 Si17 2.786648 1_555
Mg6 Si11 2.823625 1_555
Mg6 Si2 2.910477 1_565
Mg6 Si6 2.947960 1_565
Mg6 Si12 2.970844 1_455
Mg6 Si4 3.028976 1_555
Mg6 Si0 3.135255 1_455
Mg7 Si3 2.665016 1_555
Mg7 Si15 2.673722 1_556
Mg7 Si7 2.692280 1_555
Mg7 Si14 2.772440 1_565
Mg7 Si11 2.823618 1_556
Mg7 Si10 2.925881 1_555
Mg7 Si0 3.101231 1_556
Mg7 Si1 3.113446 1_555
Mg8 Si15 2.686192 1_555
Mg8 Si12 2.687581 1_445
Mg8 Si10 2.771425 1_444
Mg8 Si8 2.802270 1_555
Mg8 Si8 2.810823 1_455
Mg8 Si11 2.826856 1_545
Mg8 Si4 2.833149 1_555
Mg8 Si1 3.039564 1_554
Mg8 Si14 3.058066 1_454
Mg8 Si0 3.074069 1_445
Mg8 Si2 3.103572 1_555
Mg9 Si14 2.782039 1_555
Mg9 Si0 2.803238 1_556
Mg9 Si5 2.872396 1_555
Mg9 Si4 2.891039 1_656
Mg9 Si3 2.936777 1_555
Mg9 Si15 2.966328 1_656
Mg9 Si1 3.066263 1_655
Mg9 Si8 3.149101 1_556
Mg9 Si10 3.204802 1_555
Mg9 Si1 3.209160 1_555
Si0 Si4 2.434372 1_655
Si0 Si15 2.498996 1_555
Si0 Si12 2.511567 1_555
Si0 Si10 2.587071 1_554
Si0 Si11 2.830890 1_655
Si1 Si13 2.521782 1_555
Si1 Si14 2.604425 1_555
Si1 Si5 2.618231 1_455
Si1 Si15 2.677849 1_556
Si1 Si10 2.733752 1_445
Si2 Si6 2.687224 1_455
Si2 Si6 2.742248 1_555
Si3 Si9 2.391637 1_555
Si3 Si7 2.408647 1_655
Si4 Si8 2.545466 1_455
Si5 Si9 2.501231 1_545
Si5 Si7 2.712051 1_655
Si6 Si8 2.729845 1_555
Si10 Si3 2.583047 1_555
Si10 Si11 2.611014 1_656
Si10 Si14 2.664496 1_565
Si11 Si14 2.563532 1_564
Si11 Si12 2.589624 1_555
Si11 Si8 2.725613 1_565
Si12 Si8 2.551118 1_565
Si12 Si6 2.847586 1_565
Si12 Si2 2.869187 1_665
Si13 Si3 2.492260 1_555
Si13 Si5 2.536189 1_555
Si13 Si7 2.635365 1_555
Si14 Si5 2.584593 1_555
Si14 Si8 2.750407 1_556
Si15 Si4 2.502917 1_555
Si15 Si8 2.666430 1_555
Si16 Si7 2.479707 1_555
Si16 Si17 2.491486 1_555
Si16 Si9 2.616852 1_555
Si17 Si2 2.496462 1_555
Si17 Si4 2.674051 1_555
Si17 Si6 2.739423 1_455
