# generated using pymatgen
data_HoMg(NiO3)2
_symmetry_space_group_name_H-M   'P 1'
_cell_length_a   5.09973300
_cell_length_b   5.42036100
_cell_length_c   7.34930800
_cell_angle_alpha   90.00000000
_cell_angle_beta   90.00000000
_cell_angle_gamma   90.00000000
_symmetry_Int_Tables_number   1
_chemical_formula_structural   HoMg(NiO3)2
_chemical_formula_sum   'Ho2 Mg2 Ni4 O12'
_cell_volume   203.15246636
_cell_formula_units_Z   2
loop_
 _symmetry_equiv_pos_site_id
 _symmetry_equiv_pos_as_xyz
  1  'x, y, z'
loop_
 _atom_site_type_symbol
 _atom_site_label
 _atom_site_symmetry_multiplicity
 _atom_site_fract_x
 _atom_site_fract_y
 _atom_site_fract_z
 _atom_site_occupancy
  Ho  Ho0  1  0.01952900  0.67338700  0.00000000  1
  Ho  Ho1  1  0.51952900  0.32661300  0.50000000  1
  Mg  Mg0  1  0.47248800  0.17772300  0.00000000  1
  Mg  Mg1  1  0.97248800  0.82227700  0.50000000  1
  Ni  Ni0  1  0.99836100  0.24521100  0.75034500  1
  Ni  Ni1  1  0.99836100  0.24521100  0.24965500  1
  Ni  Ni2  1  0.49836100  0.75478900  0.25034500  1
  Ni  Ni3  1  0.49836100  0.75478900  0.74965500  1
  O  O0  1  0.10703900  0.19364400  0.50000000  1
  O  O1  1  0.20613900  0.96118600  0.81691900  1
  O  O2  1  0.20613900  0.96118600  0.18308100  1
  O  O3  1  0.31330700  0.44014800  0.80838500  1
  O  O4  1  0.31330700  0.44014800  0.19161500  1
  O  O5  1  0.36508900  0.71851700  0.50000000  1
  O  O6  1  0.60703900  0.80635600  0.00000000  1
  O  O7  1  0.70613900  0.03881400  0.31691900  1
  O  O8  1  0.70613900  0.03881400  0.68308100  1
  O  O9  1  0.81330700  0.55985200  0.69161500  1
  O  O10  1  0.81330700  0.55985200  0.30838500  1
  O  O11  1  0.86508900  0.28148300  0.00000000  1
loop_
_geom_bond_atom_site_label_1
_geom_bond_atom_site_label_2
_geom_bond_distance
_geom_bond_site_symmetry_2
Ho0 O6 2.223635 1_455
Ho0 O11 2.265569 1_455
Ho0 O2 2.269273 1_555
Ho0 O1 2.269273 1_554
Ho0 O4 2.413712 1_555
Ho0 O3 2.413712 1_554
Ho0 O10 2.573205 1_455
Ho0 O9 2.573205 1_454
Ho1 O0 2.223635 1_555
Ho1 O5 2.265569 1_555
Ho1 O8 2.269273 1_555
Ho1 O7 2.269273 1_555
Ho1 O9 2.413712 1_555
Ho1 O10 2.413712 1_555
Ho1 O3 2.573205 1_555
Ho1 O4 2.573205 1_555
Mg0 O11 2.079653 1_555
Mg0 O6 2.126682 1_545
Mg0 O4 2.159966 1_555
Mg0 O3 2.159966 1_554
Mg0 O2 2.243438 1_545
Mg0 O1 2.243438 1_544
Mg1 O5 2.079653 1_655
Mg1 O0 2.126682 1_665
Mg1 O9 2.159966 1_555
Mg1 O10 2.159966 1_555
Mg1 O8 2.243438 1_565
Mg1 O7 2.243438 1_565
Ni0 O8 1.927907 1_555
Ni0 O1 1.931911 1_645
Ni0 O0 1.941749 1_655
Ni0 O11 1.966479 1_556
Ni0 O3 1.969289 1_655
Ni0 O9 1.996382 1_555
Ni1 O7 1.927907 1_555
Ni1 O2 1.931911 1_645
Ni1 O0 1.941749 1_655
Ni1 O11 1.966479 1_555
Ni1 O4 1.969289 1_655
Ni1 O10 1.996382 1_555
Ni2 O2 1.927907 1_555
Ni2 O7 1.931911 1_565
Ni2 O6 1.941749 1_555
Ni2 O5 1.966479 1_555
Ni2 O10 1.969289 1_555
Ni2 O4 1.996382 1_555
Ni3 O1 1.927907 1_555
Ni3 O8 1.931911 1_565
Ni3 O6 1.941749 1_556
Ni3 O5 1.966479 1_555
Ni3 O9 1.969289 1_555
Ni3 O3 1.996382 1_555
