# generated using pymatgen
data_Tm2MgSe4
_symmetry_space_group_name_H-M   'P 1'
_cell_length_a   13.12273484
_cell_length_b   7.82167192
_cell_length_c   13.38731182
_cell_angle_alpha   90.00000000
_cell_angle_beta   90.00000000
_cell_angle_gamma   90.00000000
_symmetry_Int_Tables_number   1
_chemical_formula_structural   Tm2MgSe4
_chemical_formula_sum   'Tm16 Mg8 Se32'
_cell_volume   1374.09679989
_cell_formula_units_Z   8
loop_
 _symmetry_equiv_pos_site_id
 _symmetry_equiv_pos_as_xyz
  1  'x, y, z'
loop_
 _atom_site_type_symbol
 _atom_site_label
 _atom_site_symmetry_multiplicity
 _atom_site_fract_x
 _atom_site_fract_y
 _atom_site_fract_z
 _atom_site_occupancy
  Tm  Tm0  1  0.10772495  0.88386397  0.68634581  1
  Tm  Tm1  1  0.89227505  0.11613603  0.18634581  1
  Tm  Tm2  1  0.39227505  0.88386397  0.18634581  1
  Tm  Tm3  1  0.60772495  0.11613603  0.68634581  1
  Tm  Tm4  1  0.12693426  0.38229700  0.32618445  1
  Tm  Tm5  1  0.87306574  0.61770300  0.82618445  1
  Tm  Tm6  1  0.37306574  0.38229700  0.82618445  1
  Tm  Tm7  1  0.62693426  0.61770300  0.32618445  1
  Tm  Tm8  1  0.13370384  0.63034741  0.99044999  1
  Tm  Tm9  1  0.86629616  0.36965259  0.49044999  1
  Tm  Tm10  1  0.36629616  0.63034741  0.49044999  1
  Tm  Tm11  1  0.63370384  0.36965259  0.99044999  1
  Tm  Tm12  1  0.13374127  0.13029724  0.99122065  1
  Tm  Tm13  1  0.86625873  0.86970276  0.49122065  1
  Tm  Tm14  1  0.36625873  0.13029724  0.49122065  1
  Tm  Tm15  1  0.63374127  0.86970276  0.99122065  1
  Mg  Mg0  1  0.11153967  0.38291555  0.69047656  1
  Mg  Mg1  1  0.88846033  0.61708445  0.19047656  1
  Mg  Mg2  1  0.38846033  0.38291555  0.19047656  1
  Mg  Mg3  1  0.61153967  0.61708445  0.69047656  1
  Mg  Mg4  1  0.12623351  0.87942907  0.32146826  1
  Mg  Mg5  1  0.87376649  0.12057093  0.82146826  1
  Mg  Mg6  1  0.37376649  0.87942907  0.82146826  1
  Mg  Mg7  1  0.62623351  0.12057093  0.32146826  1
  Se  Se0  1  0.01392524  0.87688015  0.87744848  1
  Se  Se1  1  0.98607476  0.12311985  0.37744848  1
  Se  Se2  1  0.48607476  0.87688015  0.37744848  1
  Se  Se3  1  0.51392524  0.12311985  0.87744848  1
  Se  Se4  1  0.03377479  0.37708724  0.13102782  1
  Se  Se5  1  0.96622521  0.62291276  0.63102782  1
  Se  Se6  1  0.46622521  0.37708724  0.63102782  1
  Se  Se7  1  0.53377479  0.62291276  0.13102782  1
  Se  Se8  1  0.02223435  0.37538454  0.87075979  1
  Se  Se9  1  0.97776565  0.62461546  0.37075979  1
  Se  Se10  1  0.47776565  0.37538454  0.37075979  1
  Se  Se11  1  0.52223435  0.62461546  0.87075979  1
  Se  Se12  1  0.04341670  0.87580499  0.13554187  1
  Se  Se13  1  0.95658330  0.12419501  0.63554187  1
  Se  Se14  1  0.45658330  0.87580499  0.63554187  1
  Se  Se15  1  0.54341670  0.12419501  0.13554187  1
  Se  Se16  1  0.21161880  0.88099351  0.50432499  1
  Se  Se17  1  0.78838120  0.11900649  0.00432499  1
  Se  Se18  1  0.28838120  0.88099351  0.00432499  1
  Se  Se19  1  0.71161880  0.11900649  0.50432499  1
  Se  Se20  1  0.21310610  0.38078635  0.51747740  1
  Se  Se21  1  0.78689390  0.61921365  0.01747740  1
  Se  Se22  1  0.28689390  0.38078635  0.01747740  1
  Se  Se23  1  0.71310610  0.61921365  0.51747740  1
  Se  Se24  1  0.23152991  0.13109513  0.77641958  1
  Se  Se25  1  0.76847009  0.86890487  0.27641958  1
  Se  Se26  1  0.26847009  0.13109513  0.27641958  1
  Se  Se27  1  0.73152991  0.86890487  0.77641958  1
  Se  Se28  1  0.23232745  0.63433311  0.77785534  1
  Se  Se29  1  0.76767255  0.36566689  0.27785534  1
  Se  Se30  1  0.26767255  0.63433311  0.27785534  1
  Se  Se31  1  0.73232745  0.36566689  0.77785534  1
loop_
_geom_bond_atom_site_label_1
_geom_bond_atom_site_label_2
_geom_bond_distance
_geom_bond_site_symmetry_2
Mg0 Se20 2.672179 1_555
Mg0 Se8 2.683637 1_555
Mg0 Se24 2.771763 1_555
Mg0 Se28 2.783511 1_555
Mg0 Se5 2.791693 1_455
Mg0 Se13 2.961561 1_455
Mg1 Se21 2.672179 1_555
Mg1 Se9 2.683637 1_555
Mg1 Se25 2.771763 1_555
Mg1 Se29 2.783511 1_555
Mg1 Se4 2.791693 1_655
Mg1 Se12 2.961561 1_655
Mg2 Se22 2.672179 1_555
Mg2 Se10 2.683637 1_555
Mg2 Se26 2.771763 1_555
Mg2 Se30 2.783511 1_555
Mg2 Se7 2.791693 1_555
Mg2 Se15 2.961561 1_555
Mg3 Se23 2.672179 1_555
Mg3 Se11 2.683637 1_555
Mg3 Se27 2.771763 1_555
Mg3 Se31 2.783511 1_555
Mg3 Se6 2.791693 1_555
Mg3 Se14 2.961561 1_555
Mg4 Se16 2.692239 1_555
Mg4 Se12 2.716117 1_555
Mg4 Se30 2.731483 1_555
Mg4 Se1 2.752751 1_465
Mg4 Se26 2.778929 1_565
Mg4 Se9 2.864202 1_455
Mg5 Se17 2.692239 1_556
Mg5 Se13 2.716117 1_555
Mg5 Se31 2.731483 1_555
Mg5 Se0 2.752751 1_645
Mg5 Se27 2.778929 1_545
Mg5 Se8 2.864202 1_655
Mg6 Se18 2.692239 1_556
Mg6 Se14 2.716117 1_555
Mg6 Se28 2.731483 1_555
Mg6 Se3 2.752751 1_565
Mg6 Se24 2.778929 1_565
Mg6 Se11 2.864202 1_555
Mg7 Se19 2.692239 1_555
Mg7 Se15 2.716117 1_555
Mg7 Se29 2.731483 1_555
Mg7 Se2 2.752751 1_545
Mg7 Se25 2.778929 1_545
Mg7 Se10 2.864202 1_555
Se0 Tm5 2.827956 1_455
Se0 Tm0 2.839592 1_555
Se0 Tm8 2.911612 1_555
Se0 Tm12 2.953120 1_565
Se1 Tm4 2.827956 1_655
Se1 Tm1 2.839592 1_555
Se1 Tm9 2.911612 1_555
Se1 Tm13 2.953120 1_545
Se2 Tm7 2.827956 1_555
Se2 Tm2 2.839592 1_555
Se2 Tm10 2.911612 1_555
Se2 Tm14 2.953120 1_565
Se3 Tm6 2.827956 1_555
Se3 Tm3 2.839592 1_555
Se3 Tm11 2.911612 1_555
Se3 Tm15 2.953120 1_545
Se4 Tm1 2.856984 1_455
Se4 Tm4 2.884784 1_555
Se4 Tm12 2.991663 1_554
Se4 Tm8 3.030747 1_554
Se5 Tm0 2.856984 1_655
Se5 Tm5 2.884784 1_555
Se5 Tm13 2.991663 1_555
Se5 Tm9 3.030747 1_555
Se6 Tm3 2.856984 1_555
Se6 Tm6 2.884784 1_555
Se6 Tm14 2.991663 1_555
Se6 Tm10 3.030747 1_555
Se7 Tm2 2.856984 1_555
Se7 Tm7 2.884784 1_555
Se7 Tm15 2.991663 1_554
Se7 Tm11 3.030747 1_554
Se8 Tm5 2.789302 1_455
Se8 Tm12 2.901149 1_555
Se8 Tm8 2.946893 1_555
Se9 Tm4 2.789302 1_655
Se9 Tm13 2.901149 1_555
Se9 Tm9 2.946893 1_555
Se10 Tm7 2.789302 1_555
Se10 Tm14 2.901149 1_555
Se10 Tm10 2.946893 1_555
Se11 Tm6 2.789302 1_555
Se11 Tm15 2.901149 1_555
Se11 Tm11 2.946893 1_555
Se12 Tm1 2.816031 1_465
Se12 Tm8 2.977018 1_554
Se12 Tm12 3.016648 1_564
Se13 Tm0 2.816031 1_645
Se13 Tm9 2.977018 1_555
Se13 Tm13 3.016648 1_545
Se14 Tm3 2.816031 1_565
Se14 Tm10 2.977018 1_555
Se14 Tm14 3.016648 1_565
Se15 Tm2 2.816031 1_545
Se15 Tm11 2.977018 1_554
Se15 Tm15 3.016648 1_544
Se16 Tm0 2.792334 1_555
Se16 Tm14 2.819791 1_565
Se16 Tm10 2.828073 1_555
Se17 Tm1 2.792334 1_555
Se17 Tm15 2.819791 1_544
Se17 Tm11 2.828073 1_554
Se18 Tm2 2.792334 1_555
Se18 Tm12 2.819791 1_564
Se18 Tm8 2.828073 1_554
Se19 Tm3 2.792334 1_555
Se19 Tm13 2.819791 1_545
Se19 Tm9 2.828073 1_555
Se20 Tm4 2.799477 1_555
Se20 Tm10 2.825307 1_555
Se20 Tm14 2.828677 1_555
Se21 Tm5 2.799477 1_554
Se21 Tm11 2.825307 1_554
Se21 Tm15 2.828677 1_554
Se22 Tm6 2.799477 1_554
Se22 Tm8 2.825307 1_554
Se22 Tm12 2.828677 1_554
Se23 Tm7 2.799477 1_555
Se23 Tm9 2.825307 1_555
Se23 Tm13 2.828677 1_555
Se24 Tm6 2.784611 1_555
Se24 Tm0 2.798752 1_545
Se24 Tm12 3.148953 1_555
Se25 Tm7 2.784611 1_555
Se25 Tm1 2.798752 1_565
Se25 Tm13 3.148953 1_555
Se26 Tm4 2.784611 1_555
Se26 Tm2 2.798752 1_545
Se26 Tm14 3.148953 1_555
Se27 Tm5 2.784611 1_555
Se27 Tm3 2.798752 1_565
Se27 Tm15 3.148953 1_555
Se28 Tm6 2.777721 1_555
Se28 Tm0 2.825552 1_555
Se28 Tm8 3.126671 1_555
Se29 Tm7 2.777721 1_555
Se29 Tm1 2.825552 1_555
Se29 Tm9 3.126671 1_555
Se30 Tm4 2.777721 1_555
Se30 Tm2 2.825552 1_555
Se30 Tm10 3.126671 1_555
Se31 Tm5 2.777721 1_555
Se31 Tm3 2.825552 1_555
Se31 Tm11 3.126671 1_555
