# generated using pymatgen
data_Li2CoO3
_symmetry_space_group_name_H-M   'P 1'
_cell_length_a   5.12910188
_cell_length_b   5.12910188
_cell_length_c   7.88856778
_cell_angle_alpha   66.49787829
_cell_angle_beta   66.49787829
_cell_angle_gamma   33.58215810
_symmetry_Int_Tables_number   1
_chemical_formula_structural   Li2CoO3
_chemical_formula_sum   'Li4 Co2 O6'
_cell_volume   104.35881210
_cell_formula_units_Z   2
loop_
 _symmetry_equiv_pos_site_id
 _symmetry_equiv_pos_as_xyz
  1  'x, y, z'
loop_
 _atom_site_type_symbol
 _atom_site_label
 _atom_site_symmetry_multiplicity
 _atom_site_fract_x
 _atom_site_fract_y
 _atom_site_fract_z
 _atom_site_occupancy
  Li  Li0  1  0.50000000  0.50000000  0.50000000  1
  Li  Li1  1  0.16079400  0.16079400  0.16471600  1
  Li  Li2  1  0.83920600  0.83920600  0.83528400  1
  Li  Li3  1  0.50000000  0.50000000  0.00000000  1
  Co  Co0  1  0.16001600  0.16001600  0.67799100  1
  Co  Co1  1  0.83998400  0.83998400  0.32200900  1
  O  O0  1  0.17509200  0.17509200  0.43170700  1
  O  O1  1  0.82502400  0.82502400  0.10999500  1
  O  O2  1  0.51323000  0.51323000  0.74310300  1
  O  O3  1  0.82490800  0.82490800  0.56829300  1
  O  O4  1  0.48677000  0.48677000  0.25689700  1
  O  O5  1  0.17497600  0.17497600  0.89000500  1
loop_
_geom_bond_atom_site_label_1
_geom_bond_atom_site_label_2
_geom_bond_distance
_geom_bond_site_symmetry_2
Li0 O2 1.975391 1_555
Li0 O4 1.975391 1_555
Li0 O0 2.161203 1_655
Li0 O3 2.161203 1_455
Li0 O0 2.161203 1_565
Li0 O3 2.161203 1_545
Li1 O1 2.098369 1_455
Li1 O1 2.098369 1_545
Li1 O5 2.112858 1_554
Li1 O4 2.147042 1_545
Li1 O4 2.147042 1_455
Li1 O0 2.168428 1_555
Li2 O5 2.098369 1_565
Li2 O5 2.098369 1_655
Li2 O1 2.112858 1_556
Li2 O2 2.147042 1_655
Li2 O2 2.147042 1_565
Li2 O3 2.168428 1_555
Li3 O4 1.975962 1_555
Li3 O2 1.975962 1_554
Li3 O5 2.158499 1_564
Li3 O5 2.158499 1_654
Li3 O1 2.158499 1_545
Li3 O1 2.158499 1_455
Co0 O5 1.738823 1_555
Co0 O0 1.885965 1_555
Co0 O2 1.980034 1_455
Co0 O2 1.980034 1_545
Co0 O3 2.097440 1_545
Co0 O3 2.097440 1_455
Co1 O1 1.738823 1_555
Co1 O3 1.885965 1_555
Co1 O4 1.980034 1_655
Co1 O4 1.980034 1_565
Co1 O0 2.097440 1_655
Co1 O0 2.097440 1_565
