# generated using pymatgen
data_V2Cu3NiO6
_symmetry_space_group_name_H-M   'P 1'
_cell_length_a   5.25361772
_cell_length_b   5.25301456
_cell_length_c   11.67596130
_cell_angle_alpha   94.54586259
_cell_angle_beta   85.46242922
_cell_angle_gamma   60.49401786
_symmetry_Int_Tables_number   1
_chemical_formula_structural   V2Cu3NiO6
_chemical_formula_sum   'V4 Cu6 Ni2 O12'
_cell_volume   276.94752421
_cell_formula_units_Z   2
loop_
 _symmetry_equiv_pos_site_id
 _symmetry_equiv_pos_as_xyz
  1  'x, y, z'
loop_
 _atom_site_type_symbol
 _atom_site_label
 _atom_site_symmetry_multiplicity
 _atom_site_fract_x
 _atom_site_fract_y
 _atom_site_fract_z
 _atom_site_occupancy
  V  V0  1  0.25050400  0.75051200  0.25000400  1
  V  V1  1  0.75047400  0.25047300  0.75000600  1
  V  V2  1  0.58432800  0.08425700  0.24999200  1
  V  V3  1  0.08436200  0.58427300  0.74999400  1
  Cu  Cu0  1  0.16406500  0.16434400  0.50002800  1
  Cu  Cu1  1  0.83770700  0.83803000  0.50003900  1
  Cu  Cu2  1  0.49739300  0.49716100  0.49999600  1
  Cu  Cu3  1  0.66430600  0.66408600  0.99994900  1
  Cu  Cu4  1  0.33806800  0.33772200  0.99999500  1
  Cu  Cu5  1  0.99717300  0.99741000  0.00000200  1
  Ni  Ni0  1  0.91615300  0.41620700  0.24998700  1
  Ni  Ni1  1  0.41609100  0.91615600  0.75000000  1
  O  O0  1  0.22626000  0.09871800  0.33987200  1
  O  O1  1  0.72632100  0.59865700  0.83981400  1
  O  O2  1  0.59870000  0.72627900  0.16010800  1
  O  O3  1  0.09865700  0.22635600  0.66016800  1
  O  O4  1  0.53415500  0.45756100  0.34001600  1
  O  O5  1  0.03408300  0.95754700  0.84004700  1
  O  O6  1  0.89776800  0.78522000  0.33975800  1
  O  O7  1  0.39784100  0.28529000  0.83978500  1
  O  O8  1  0.28515900  0.39777600  0.16026700  1
  O  O9  1  0.78524000  0.89783700  0.66024400  1
  O  O10  1  0.95759400  0.03411100  0.15998000  1
  O  O11  1  0.45759700  0.53401600  0.65994800  1
loop_
_geom_bond_atom_site_label_1
_geom_bond_atom_site_label_2
_geom_bond_distance
_geom_bond_site_symmetry_2
Cu0 O3 1.847114 1_555
Cu0 O0 1.847321 1_555
Cu1 O9 1.847591 1_555
Cu1 O6 1.848469 1_555
Cu2 O11 1.846654 1_555
Cu2 O4 1.847011 1_555
Cu3 O1 1.847056 1_555
Cu3 O2 1.847357 1_556
Cu4 O7 1.847655 1_555
Cu4 O8 1.848351 1_556
Cu5 O5 1.846671 1_654
Cu5 O10 1.847003 1_565
Ni0 O8 2.083918 1_655
Ni0 O6 2.083981 1_555
Ni0 O10 2.092724 1_555
Ni0 O4 2.092911 1_555
Ni0 O2 2.099488 1_555
Ni0 O0 2.099691 1_655
Ni1 O7 2.084922 1_565
Ni1 O9 2.085014 1_555
Ni1 O5 2.092965 1_555
Ni1 O11 2.093005 1_555
Ni1 O3 2.099386 1_565
Ni1 O1 2.099472 1_555
O0 V0 1.976890 1_545
O0 V2 2.044520 1_555
O1 V1 1.976682 1_555
O1 V3 2.044276 1_655
O2 V0 1.977334 1_555
O2 V2 2.044023 1_565
O3 V1 1.977234 1_455
O3 V3 2.043636 1_555
O4 V0 1.984604 1_555
O4 V2 2.034702 1_555
O5 V1 1.984675 1_465
O5 V3 2.034497 1_555
O6 V0 1.973632 1_655
O6 V2 2.064889 1_565
O7 V1 1.973067 1_555
O7 V3 2.065052 1_555
O8 V0 1.973340 1_555
O8 V2 2.065054 1_555
O9 V1 1.972784 1_565
O9 V3 2.065246 1_655
O10 V0 1.984491 1_645
O10 V2 2.034856 1_555
O11 V1 1.984551 1_555
O11 V3 2.034662 1_555
