# generated using pymatgen
data_Li3MnCoO5
_symmetry_space_group_name_H-M   'P 1'
_cell_length_a   10.53510236
_cell_length_b   10.53510236
_cell_length_c   5.90781544
_cell_angle_alpha   81.96399344
_cell_angle_beta   81.96399344
_cell_angle_gamma   15.87946082
_symmetry_Int_Tables_number   1
_chemical_formula_structural   Li3MnCoO5
_chemical_formula_sum   'Li6 Mn2 Co2 O10'
_cell_volume   177.61251983
_cell_formula_units_Z   2
loop_
 _symmetry_equiv_pos_site_id
 _symmetry_equiv_pos_as_xyz
  1  'x, y, z'
loop_
 _atom_site_type_symbol
 _atom_site_label
 _atom_site_symmetry_multiplicity
 _atom_site_fract_x
 _atom_site_fract_y
 _atom_site_fract_z
 _atom_site_occupancy
  Li  Li0  1  0.90693800  0.90693800  0.79037100  1
  Li  Li1  1  0.70029800  0.70029800  0.40072700  1
  Li  Li2  1  0.50000000  0.50000000  0.00000000  1
  Li  Li3  1  0.29970200  0.29970200  0.59927300  1
  Li  Li4  1  0.09306200  0.09306200  0.20962900  1
  Li  Li5  1  0.50000000  0.50000000  0.50000000  1
  Mn  Mn0  1  0.09531600  0.09531600  0.69728500  1
  Mn  Mn1  1  0.90468400  0.90468400  0.30271500  1
  Co  Co0  1  0.70020700  0.70020700  0.89849900  1
  Co  Co1  1  0.29979300  0.29979300  0.10150100  1
  O  O0  1  0.80468800  0.80468800  0.33142400  1
  O  O1  1  0.60167000  0.60167000  0.92073400  1
  O  O2  1  0.39906700  0.39906700  0.52179000  1
  O  O3  1  0.20136000  0.20136000  0.13415700  1
  O  O4  1  0.00779400  0.00779400  0.74692800  1
  O  O5  1  0.99220600  0.99220600  0.25307200  1
  O  O6  1  0.79864000  0.79864000  0.86584300  1
  O  O7  1  0.60093300  0.60093300  0.47821000  1
  O  O8  1  0.39833000  0.39833000  0.07926600  1
  O  O9  1  0.19531200  0.19531200  0.66857600  1
loop_
_geom_bond_atom_site_label_1
_geom_bond_atom_site_label_2
_geom_bond_distance
_geom_bond_site_symmetry_2
Li0 O4 2.084006 1_665
Li0 O2 2.176222 1_655
Li0 O2 2.176222 1_565
Li0 O8 2.230777 1_566
Li0 O8 2.230777 1_656
Li0 O6 2.240956 1_555
Li1 O7 2.059438 1_555
Li1 O9 2.141502 1_655
Li1 O9 2.141502 1_565
Li1 O3 2.142071 1_565
Li1 O3 2.142071 1_655
Li1 O0 2.159033 1_555
Li2 O5 2.076253 1_545
Li2 O5 2.076253 1_455
Li2 O4 2.076253 1_564
Li2 O4 2.076253 1_654
Li2 O8 2.107204 1_555
Li2 O1 2.107204 1_554
Li3 O2 2.059438 1_555
Li3 O0 2.141502 1_545
Li3 O0 2.141502 1_455
Li3 O6 2.142071 1_545
Li3 O6 2.142071 1_455
Li3 O9 2.159033 1_555
Li4 O5 2.084006 1_445
Li4 O7 2.176222 1_455
Li4 O7 2.176222 1_545
Li4 O1 2.230777 1_544
Li4 O1 2.230777 1_454
Li4 O3 2.240956 1_555
Li5 O4 2.083083 1_565
Li5 O4 2.083083 1_655
Li5 O5 2.083083 1_455
Li5 O5 2.083083 1_545
Li5 O7 2.092008 1_555
Li5 O2 2.092008 1_555
Mn0 O4 1.808491 1_555
Mn0 O7 1.940025 1_455
Mn0 O7 1.940025 1_545
Mn0 O1 1.981751 1_545
Mn0 O1 1.981751 1_455
Mn0 O9 2.069622 1_555
Mn1 O5 1.808491 1_555
Mn1 O2 1.940025 1_565
Mn1 O2 1.940025 1_655
Mn1 O8 1.981751 1_655
Mn1 O8 1.981751 1_565
Mn1 O0 2.069622 1_555
Co0 O9 2.003095 1_655
Co0 O9 2.003095 1_565
Co0 O3 2.016435 1_566
Co0 O3 2.016435 1_656
Co0 O6 2.035870 1_555
Co0 O1 2.041896 1_555
Co1 O0 2.003095 1_455
Co1 O0 2.003095 1_545
Co1 O6 2.016435 1_544
Co1 O6 2.016435 1_454
Co1 O3 2.035870 1_555
Co1 O8 2.041896 1_555
