# generated using pymatgen
data_ScTl(MoO4)2
_symmetry_space_group_name_H-M   'P 1'
_cell_length_a   5.80025999
_cell_length_b   5.80025915
_cell_length_c   7.33538825
_cell_angle_alpha   90.00000000
_cell_angle_beta   90.00000000
_cell_angle_gamma   119.99999936
_symmetry_Int_Tables_number   1
_chemical_formula_structural   ScTl(MoO4)2
_chemical_formula_sum   'Sc1 Tl1 Mo2 O8'
_cell_volume   213.72168936
_cell_formula_units_Z   1
loop_
 _symmetry_equiv_pos_site_id
 _symmetry_equiv_pos_as_xyz
  1  'x, y, z'
loop_
 _atom_site_type_symbol
 _atom_site_label
 _atom_site_symmetry_multiplicity
 _atom_site_fract_x
 _atom_site_fract_y
 _atom_site_fract_z
 _atom_site_occupancy
  Sc  Sc0  1  0.00000000  0.00000000  0.00000000  1
  Tl  Tl0  1  0.00000000  0.00000000  0.50000000  1
  Mo  Mo0  1  0.66666700  0.33333300  0.24916427  1
  Mo  Mo1  1  0.33333300  0.66666700  0.75083573  1
  O  O0  1  0.83417116  0.16582784  0.17133934  1
  O  O1  1  0.83417116  0.66834432  0.17133934  1
  O  O2  1  0.33165568  0.16582784  0.17133934  1
  O  O3  1  0.66834432  0.83417116  0.82866066  1
  O  O4  1  0.33333300  0.66666700  0.51703012  1
  O  O5  1  0.66666700  0.33333300  0.48296988  1
  O  O6  1  0.16582784  0.83417116  0.82866066  1
  O  O7  1  0.16582784  0.33165568  0.82866066  1
loop_
_geom_bond_atom_site_label_1
_geom_bond_atom_site_label_2
_geom_bond_distance
_geom_bond_site_symmetry_2
Mo0 O5 1.715055 1_555
Mo0 O0 1.777005 1_555
Mo0 O1 1.777015 1_555
Mo0 O2 1.777015 1_555
Mo1 O4 1.715055 1_555
Mo1 O6 1.777005 1_555
Mo1 O7 1.777015 1_555
Mo1 O3 1.777015 1_555
O0 Sc0 2.086888 1_655
O1 Sc0 2.086883 1_665
O2 Sc0 2.086884 1_555
O3 Sc0 2.086884 1_666
O6 Sc0 2.086888 1_566
O7 Sc0 2.086883 1_556
