# generated using pymatgen
data_NdTa3O9
_symmetry_space_group_name_H-M   'P 1'
_cell_length_a   11.99362059
_cell_length_b   8.87228010
_cell_length_c   7.89980623
_cell_angle_alpha   90.00392234
_cell_angle_beta   90.00856153
_cell_angle_gamma   63.23651540
_symmetry_Int_Tables_number   1
_chemical_formula_structural   NdTa3O9
_chemical_formula_sum   'Nd4 Ta12 O36'
_cell_volume   750.57080655
_cell_formula_units_Z   4
loop_
 _symmetry_equiv_pos_site_id
 _symmetry_equiv_pos_as_xyz
  1  'x, y, z'
loop_
 _atom_site_type_symbol
 _atom_site_label
 _atom_site_symmetry_multiplicity
 _atom_site_fract_x
 _atom_site_fract_y
 _atom_site_fract_z
 _atom_site_occupancy
  Nd  Nd0  1  0.02927100  0.50508500  0.99967600  1
  Nd  Nd1  1  0.36146500  0.49730400  0.50001100  1
  Nd  Nd2  1  0.68394400  0.50090300  0.50003200  1
  Nd  Nd3  1  0.85636900  0.00106500  0.49972100  1
  Ta  Ta0  1  0.26224100  0.24299200  0.25202400  1
  Ta  Ta1  1  0.26231700  0.24293900  0.74780600  1
  Ta  Ta2  1  0.09738800  0.75224500  0.24905500  1
  Ta  Ta3  1  0.09743600  0.75216700  0.75084900  1
  Ta  Ta4  1  0.58862900  0.24630700  0.24285300  1
  Ta  Ta5  1  0.58876700  0.24619600  0.75690800  1
  Ta  Ta6  1  0.42568200  0.75785000  0.24366100  1
  Ta  Ta7  1  0.42574000  0.75781900  0.75630100  1
  Ta  Ta8  1  0.92904400  0.25058600  0.24340300  1
  Ta  Ta9  1  0.92899900  0.25042500  0.75661200  1
  Ta  Ta10  1  0.75397100  0.75469300  0.24675700  1
  Ta  Ta11  1  0.75405900  0.75453800  0.75353700  1
  O  O0  1  0.07787900  0.27125900  0.22273500  1
  O  O1  1  0.07785300  0.27117500  0.77712100  1
  O  O2  1  0.33628300  0.00205300  0.25020500  1
  O  O3  1  0.24289600  0.27020000  0.99991500  1
  O  O4  1  0.07756500  0.75012900  0.00000100  1
  O  O5  1  0.15598500  0.50741700  0.75967500  1
  O  O6  1  0.24278500  0.27171100  0.49992700  1
  O  O7  1  0.15575700  0.50758800  0.24015600  1
  O  O8  1  0.07350100  0.75555300  0.50003400  1
  O  O9  1  0.40874200  0.27580900  0.26044100  1
  O  O10  1  0.40885100  0.27568800  0.73947400  1
  O  O11  1  0.26107300  0.72880500  0.72984500  1
  O  O12  1  0.26098900  0.72898400  0.27025400  1
  O  O13  1  0.66643500  0.99825600  0.26133700  1
  O  O14  1  0.59159100  0.25025200  0.99992300  1
  O  O15  1  0.42140400  0.74222400  0.00000000  1
  O  O16  1  0.33632400  0.00200600  0.74967500  1
  O  O17  1  0.50484900  0.49674900  0.72724600  1
  O  O18  1  0.56605500  0.25735200  0.49997000  1
  O  O19  1  0.50464300  0.49681000  0.27265200  1
  O  O20  1  0.42082200  0.73164200  0.50002200  1
  O  O21  1  0.74918000  0.24287800  0.70187500  1
  O  O22  1  0.74907900  0.24296000  0.29803100  1
  O  O23  1  0.59070600  0.73242400  0.26999400  1
  O  O24  1  0.59072500  0.73252300  0.73025800  1
  O  O25  1  0.99294500  0.00084700  0.26518900  1
  O  O26  1  0.76334100  0.72453400  0.00018200  1
  O  O27  1  0.66686600  0.99808500  0.73875800  1
  O  O28  1  0.90333900  0.25325000  0.00001000  1
  O  O29  1  0.75347500  0.73632000  0.50015900  1
  O  O30  1  0.82472200  0.49381000  0.26262300  1
  O  O31  1  0.91623500  0.24410300  0.49997300  1
  O  O32  1  0.82459900  0.49365100  0.73756500  1
  O  O33  1  0.91607100  0.74899800  0.74855300  1
  O  O34  1  0.91566300  0.75015800  0.25225100  1
  O  O35  1  0.99278500  0.00068400  0.73476700  1
loop_
_geom_bond_atom_site_label_1
_geom_bond_atom_site_label_2
_geom_bond_distance
_geom_bond_site_symmetry_2
Nd0 O5 2.435971 1_555
Nd0 O7 2.437286 1_556
Nd0 O3 2.469555 1_555
Nd0 O4 2.489244 1_556
Nd0 O1 2.578421 1_555
Nd0 O0 2.580646 1_556
Nd0 O33 2.795657 1_455
Nd0 O34 2.810261 1_456
Nd0 O26 2.893232 1_456
Nd1 O18 2.418386 1_555
Nd1 O20 2.482448 1_555
Nd1 O19 2.483739 1_555
Nd1 O17 2.484200 1_555
Nd1 O11 2.595738 1_555
Nd1 O12 2.596291 1_555
Nd1 O9 2.600273 1_555
Nd1 O10 2.600277 1_555
Nd1 O6 2.932237 1_555
Nd1 O8 3.170361 1_555
Nd1 O5 3.176745 1_555
Nd1 O7 3.178852 1_555
Nd2 O32 2.504480 1_555
Nd2 O30 2.505486 1_555
Nd2 O29 2.574248 1_555
Nd2 O23 2.589108 1_555
Nd2 O24 2.590697 1_555
Nd2 O21 2.604305 1_555
Nd2 O22 2.604595 1_555
Nd2 O31 2.690012 1_555
Nd2 O17 2.812391 1_555
Nd2 O19 2.814524 1_555
Nd2 O20 2.886438 1_555
Nd2 O18 3.069213 1_555
Nd3 O25 2.472639 1_555
Nd3 O35 2.473619 1_555
Nd3 O22 2.512596 1_555
Nd3 O21 2.514372 1_555
Nd3 O8 2.533337 1_645
Nd3 O31 2.561162 1_555
Nd3 O34 2.803082 1_545
Nd3 O33 2.817140 1_545
Nd3 O13 2.964140 1_545
Nd3 O27 2.964406 1_545
Nd3 O29 3.106583 1_545
Nd3 O18 3.188045 1_555
O0 Ta8 1.881951 1_455
O0 Ta0 2.122762 1_555
O1 Ta9 1.882379 1_455
O1 Ta1 2.124158 1_555
O2 Ta0 1.910186 1_555
O2 Ta6 1.937631 1_545
O3 Ta0 2.007015 1_556
O3 Ta1 2.007139 1_555
O4 Ta2 1.982857 1_555
O4 Ta3 1.983726 1_554
O5 Ta3 1.959601 1_555
O5 Ta1 2.108612 1_555
O6 Ta1 1.975006 1_555
O6 Ta0 1.975138 1_555
O7 Ta2 1.959142 1_555
O7 Ta0 2.109678 1_555
O8 Ta3 2.000322 1_555
O8 Ta2 2.001642 1_555
O9 Ta0 1.907152 1_555
O9 Ta4 2.057691 1_555
O10 Ta1 1.907198 1_555
O10 Ta5 2.057944 1_555
O11 Ta3 1.885741 1_555
O11 Ta7 2.113794 1_555
O12 Ta2 1.885721 1_555
O12 Ta6 2.113559 1_555
O13 Ta10 1.934422 1_555
O13 Ta4 1.971283 1_565
O14 Ta4 1.920047 1_556
O14 Ta5 1.920686 1_555
O15 Ta6 1.932184 1_555
O15 Ta7 1.932536 1_554
O16 Ta1 1.910157 1_555
O16 Ta7 1.937534 1_545
O17 Ta5 1.998627 1_555
O17 Ta7 2.082978 1_555
O18 Ta5 2.044384 1_555
O18 Ta4 2.045683 1_555
O19 Ta4 1.998364 1_555
O19 Ta6 2.082766 1_555
O20 Ta7 2.041685 1_555
O20 Ta6 2.042355 1_555
O21 Ta5 1.959753 1_555
O21 Ta9 2.229913 1_555
O22 Ta4 1.960203 1_555
O22 Ta8 2.231916 1_555
O23 Ta6 1.899817 1_555
O23 Ta10 2.062907 1_555
O24 Ta7 1.899570 1_555
O24 Ta11 2.062525 1_555
O25 Ta2 1.990480 1_645
O25 Ta8 1.999295 1_555
O26 Ta10 1.962507 1_555
O26 Ta11 1.962912 1_554
O27 Ta11 1.934232 1_555
O27 Ta5 1.971468 1_565
O28 Ta9 1.945691 1_554
O28 Ta8 1.945731 1_555
O29 Ta11 2.008407 1_555
O29 Ta10 2.008691 1_555
O30 Ta8 1.952851 1_555
O30 Ta10 2.079511 1_555
O31 Ta8 2.035463 1_555
O31 Ta9 2.035817 1_555
O32 Ta9 1.952888 1_555
O32 Ta11 2.079828 1_555
O33 Ta11 1.921887 1_555
O33 Ta3 2.188100 1_655
O34 Ta10 1.921973 1_555
O34 Ta2 2.188091 1_655
O35 Ta3 1.990154 1_645
O35 Ta9 1.999505 1_555
