# generated using pymatgen
data_NbHO3
_symmetry_space_group_name_H-M   'P 1'
_cell_length_a   6.75610400
_cell_length_b   6.76769468
_cell_length_c   6.79088348
_cell_angle_alpha   109.85035216
_cell_angle_beta   108.82537817
_cell_angle_gamma   109.30557508
_symmetry_Int_Tables_number   1
_chemical_formula_structural   NbHO3
_chemical_formula_sum   'Nb4 H4 O12'
_cell_volume   240.27644744
_cell_formula_units_Z   4
loop_
 _symmetry_equiv_pos_site_id
 _symmetry_equiv_pos_as_xyz
  1  'x, y, z'
loop_
 _atom_site_type_symbol
 _atom_site_label
 _atom_site_symmetry_multiplicity
 _atom_site_fract_x
 _atom_site_fract_y
 _atom_site_fract_z
 _atom_site_occupancy
  Nb  Nb0  1  0.50936400  0.98557400  0.03152300  1
  Nb  Nb1  1  0.98326700  0.49196900  0.03161200  1
  Nb  Nb2  1  0.47525100  0.48030400  0.54473500  1
  Nb  Nb3  1  0.99378400  0.99318100  0.47037200  1
  H  H0  1  0.44040400  0.82069700  0.73789800  1
  H  H1  1  0.44973600  0.19104400  0.37076300  1
  H  H2  1  0.73958700  0.55495500  0.81786500  1
  H  H3  1  0.88102600  0.28461200  0.60183900  1
  O  O0  1  0.70023400  0.21290400  0.09545600  1
  O  O1  1  0.31760100  0.80042700  0.88415000  1
  O  O2  1  0.31664400  0.19887200  0.48148300  1
  O  O3  1  0.69760500  0.79792500  0.50554300  1
  O  O4  1  0.52003700  0.30329900  0.78158000  1
  O  O5  1  0.51369400  0.72130200  0.20783800  1
  O  O6  1  0.88519300  0.68681400  0.79035400  1
  O  O7  1  0.06999400  0.28455000  0.21423100  1
  O  O8  1  0.80987100  0.52783400  0.27605400  1
  O  O9  1  0.19819900  0.47899500  0.72015400  1
  O  O10  1  0.82169300  0.11262100  0.69982800  1
  O  O11  1  0.20448600  0.92328300  0.27201900  1
loop_
_geom_bond_atom_site_label_1
_geom_bond_atom_site_label_2
_geom_bond_distance
_geom_bond_site_symmetry_2
Nb0 O1 1.219971 1_554
Nb0 O0 1.446243 1_565
Nb0 O5 2.469727 1_555
Nb1 O7 2.260298 1_655
Nb1 O8 2.314346 1_555
Nb1 O10 2.343175 1_554
Nb1 O11 2.392465 1_655
Nb1 O5 2.996091 1_655
Nb2 O2 1.660805 1_555
Nb2 O3 2.336577 1_555
Nb2 O7 2.430088 1_555
Nb3 O2 2.125130 1_665
Nb3 O3 2.140489 1_555
Nb3 O11 2.305339 1_655
Nb3 O10 2.316987 1_565
Nb3 O8 2.595291 1_555
Nb3 O5 2.679300 1_555
Nb3 O9 2.700511 1_665
H0 O1 1.497546 1_555
H0 Nb0 1.727359 1_556
H0 Nb2 2.364049 1_555
H1 O2 1.348125 1_555
H1 O11 1.717921 1_545
H2 O6 1.204305 1_555
H2 Nb1 2.083516 1_556
H3 O10 1.532317 1_555
H3 Nb3 2.346062 1_545
O0 O8 1.786078 1_555
O3 O5 1.772227 1_555
O10 O3 1.782336 1_545
O11 O2 1.626134 1_565
