# generated using pymatgen
data_Ho2NiB10
_symmetry_space_group_name_H-M   'P 1'
_cell_length_a   4.12795340
_cell_length_b   5.51825410
_cell_length_c   11.03163973
_cell_angle_alpha   90.00000000
_cell_angle_beta   90.00000000
_cell_angle_gamma   90.00000000
_symmetry_Int_Tables_number   1
_chemical_formula_structural   Ho2NiB10
_chemical_formula_sum   'Ho4 Ni2 B20'
_cell_volume   251.29077796
_cell_formula_units_Z   2
loop_
 _symmetry_equiv_pos_site_id
 _symmetry_equiv_pos_as_xyz
  1  'x, y, z'
loop_
 _atom_site_type_symbol
 _atom_site_label
 _atom_site_symmetry_multiplicity
 _atom_site_fract_x
 _atom_site_fract_y
 _atom_site_fract_z
 _atom_site_occupancy
  Ho  Ho0  1  0.50000000  0.18436717  0.36230931  1
  Ho  Ho1  1  0.50000000  0.81563283  0.63769069  1
  Ho  Ho2  1  0.50000000  0.31563283  0.86230931  1
  Ho  Ho3  1  0.50000000  0.68436717  0.13769069  1
  Ni  Ni0  1  -0.00000000  0.00000000  -0.00000000  1
  Ni  Ni1  1  -0.00000000  0.50000000  0.50000000  1
  B  B0  1  0.00000000  0.37351410  0.04088285  1
  B  B1  1  0.00000000  0.62648590  0.95911715  1
  B  B2  1  -0.00000000  0.12648590  0.54088285  1
  B  B3  1  -0.00000000  0.87351410  0.45911715  1
  B  B4  1  -0.00000000  0.33871498  0.19881199  1
  B  B5  1  -0.00000000  0.66128502  0.80118801  1
  B  B6  1  0.00000000  0.16128502  0.69881199  1
  B  B7  1  -0.00000000  0.83871498  0.30118801  1
  B  B8  1  0.00000000  0.02642727  0.18566365  1
  B  B9  1  0.00000000  0.97357273  0.81433635  1
  B  B10  1  -0.00000000  0.47357273  0.68566365  1
  B  B11  1  0.00000000  0.52642727  0.31433635  1
  B  B12  1  0.30161529  0.19974975  0.11446060  1
  B  B13  1  0.69838471  0.80025025  0.88553940  1
  B  B14  1  0.30161529  0.80025025  0.88553940  1
  B  B15  1  0.69838471  0.30025025  0.61446060  1
  B  B16  1  0.69838471  0.19974975  0.11446060  1
  B  B17  1  0.30161529  0.69974975  0.38553940  1
  B  B18  1  0.69838471  0.69974975  0.38553940  1
  B  B19  1  0.30161529  0.30025025  0.61446060  1
loop_
_geom_bond_atom_site_label_1
_geom_bond_atom_site_label_2
_geom_bond_distance
_geom_bond_site_symmetry_2
Ho0 Ni1 3.098530 1_655
Ho0 Ni1 3.098530 1_555
Ho1 Ni1 3.098530 1_655
Ho1 Ni1 3.098530 1_555
Ho2 Ni0 3.098530 1_556
Ho2 Ni0 3.098530 1_656
Ho3 Ni0 3.098530 1_565
Ho3 Ni0 3.098530 1_665
B0 B1 1.662027 1_554
B0 B4 1.752768 1_555
B0 B16 1.768737 1_455
B0 B12 1.768737 1_555
B0 Ni0 2.109912 1_555
B0 Ho2 2.871020 1_554
B0 Ho2 2.871020 1_454
B0 Ho3 2.888425 1_555
B0 Ho3 2.888425 1_455
B1 B5 1.752768 1_555
B1 B14 1.768737 1_555
B1 B13 1.768737 1_455
B1 Ni0 2.109912 1_566
B1 Ho3 2.871020 1_456
B1 Ho3 2.871020 1_556
B1 Ho2 2.888425 1_455
B1 Ho2 2.888425 1_555
B2 B3 1.662027 1_545
B2 B6 1.752768 1_555
B2 Ni1 2.109912 1_555
B2 Ho0 2.871020 1_555
B2 Ho0 2.871020 1_455
B2 Ho1 2.888425 1_545
B2 Ho1 2.888425 1_445
B3 B7 1.752768 1_555
B3 Ni1 2.109912 1_555
B3 Ho1 2.871020 1_555
B3 Ho1 2.871020 1_455
B3 Ho0 2.888425 1_565
B3 Ho0 2.888425 1_465
B4 B8 1.729376 1_555
B4 Ho0 2.870292 1_555
B4 Ho0 2.870292 1_455
B4 Ho3 2.890121 1_455
B4 Ho3 2.890121 1_555
B5 B9 1.729376 1_555
B5 Ho1 2.870292 1_455
B5 Ho1 2.870292 1_555
B5 Ho2 2.890121 1_555
B5 Ho2 2.890121 1_455
B6 B9 1.642293 1_545
B6 Ho2 2.870292 1_455
B6 Ho2 2.870292 1_555
B6 Ho1 2.890121 1_445
B6 Ho1 2.890121 1_545
B7 B8 1.642293 1_565
B7 Ho3 2.870292 1_555
B7 Ho3 2.870292 1_455
B7 Ho0 2.890121 1_565
B7 Ho0 2.890121 1_465
B8 Ni0 2.053360 1_555
B8 Ho3 2.846579 1_445
B8 Ho3 2.846579 1_545
B8 Ho0 2.969344 1_455
B8 Ho0 2.969344 1_555
B9 Ni0 2.053360 1_566
B9 Ho2 2.846579 1_565
B9 Ho2 2.846579 1_465
B9 Ho1 2.969344 1_555
B9 Ho1 2.969344 1_455
B10 B5 1.642293 1_555
B10 B6 1.729376 1_555
B10 B19 1.755540 1_555
B10 B15 1.755540 1_455
B10 Ni1 2.053360 1_555
B10 Ho1 2.846579 1_555
B10 Ho1 2.846579 1_455
B10 Ho2 2.969344 1_555
B10 Ho2 2.969344 1_455
B11 B4 1.642293 1_555
B11 B7 1.729376 1_555
B11 B17 1.755540 1_555
B11 B18 1.755540 1_455
B11 Ni1 2.053360 1_555
B11 Ho0 2.846579 1_455
B11 Ho0 2.846579 1_555
B11 Ho3 2.969344 1_555
B11 Ho3 2.969344 1_455
B12 B16 1.637846 1_555
B12 B4 1.733235 1_555
B12 B8 1.755540 1_555
B12 Ni0 2.087951 1_555
B12 Ho3 2.808537 1_555
B12 Ho0 2.855445 1_555
B12 Ho2 2.969359 1_554
B12 Ho3 2.970642 1_545
B13 B14 1.637846 1_555
B13 B5 1.733235 1_655
B13 B9 1.755540 1_655
B13 Ni0 2.087951 1_666
B13 Ho2 2.808537 1_555
B13 Ho1 2.855445 1_555
B13 Ho3 2.969359 1_556
B13 Ho2 2.970642 1_565
B14 B5 1.733235 1_555
B14 B9 1.755540 1_555
B14 Ni0 2.087951 1_566
B14 Ho2 2.808537 1_555
B14 Ho1 2.855445 1_555
B14 Ho3 2.969359 1_556
B14 Ho2 2.970642 1_565
B15 B19 1.637846 1_555
B15 B6 1.733235 1_655
B15 B2 1.768737 1_655
B15 Ni1 2.087951 1_655
B15 Ho1 2.808537 1_545
B15 Ho2 2.855445 1_555
B15 Ho0 2.969359 1_555
B15 Ho1 2.970642 1_555
B16 B4 1.733235 1_655
B16 B8 1.755540 1_655
B16 Ni0 2.087951 1_655
B16 Ho3 2.808537 1_555
B16 Ho0 2.855445 1_555
B16 Ho2 2.969359 1_554
B16 Ho3 2.970642 1_545
B17 B18 1.637846 1_555
B17 B7 1.733235 1_555
B17 B3 1.768737 1_555
B17 Ni1 2.087951 1_555
B17 Ho0 2.808537 1_565
B17 Ho3 2.855445 1_555
B17 Ho1 2.969359 1_555
B17 Ho0 2.970642 1_555
B18 B7 1.733235 1_655
B18 B3 1.768737 1_655
B18 Ni1 2.087951 1_655
B18 Ho0 2.808537 1_565
B18 Ho3 2.855445 1_555
B18 Ho1 2.969359 1_555
B18 Ho0 2.970642 1_555
B19 B6 1.733235 1_555
B19 B2 1.768737 1_555
B19 Ni1 2.087951 1_555
B19 Ho1 2.808537 1_545
B19 Ho2 2.855445 1_555
B19 Ho0 2.969359 1_555
B19 Ho1 2.970642 1_555
