# generated using pymatgen
data_Cr3NiP4
_symmetry_space_group_name_H-M   'P 1'
_cell_length_a   3.09241293
_cell_length_b   5.31765847
_cell_length_c   5.99011178
_cell_angle_alpha   89.85461221
_cell_angle_beta   90.00000000
_cell_angle_gamma   90.00000000
_symmetry_Int_Tables_number   1
_chemical_formula_structural   Cr3NiP4
_chemical_formula_sum   'Cr3 Ni1 P4'
_cell_volume   98.50345184
_cell_formula_units_Z   1
loop_
 _symmetry_equiv_pos_site_id
 _symmetry_equiv_pos_as_xyz
  1  'x, y, z'
loop_
 _atom_site_type_symbol
 _atom_site_label
 _atom_site_symmetry_multiplicity
 _atom_site_fract_x
 _atom_site_fract_y
 _atom_site_fract_z
 _atom_site_occupancy
  Cr  Cr0  1  0.00000000  0.00814232  0.80467472  1
  Cr  Cr1  1  0.50000000  0.49418131  0.28974443  1
  Cr  Cr2  1  0.50000000  0.99511255  0.20282848  1
  Ni  Ni0  1  0.00000000  0.50592915  0.69713631  1
  P  P0  1  0.00000000  0.69814273  0.06673378  1
  P  P1  1  0.00000000  0.18697377  0.44007003  1
  P  P2  1  0.50000000  0.30453739  0.92947471  1
  P  P3  1  0.50000000  0.80698178  0.56933953  1
loop_
_geom_bond_atom_site_label_1
_geom_bond_atom_site_label_2
_geom_bond_distance
_geom_bond_site_symmetry_2
Cr0 P0 2.273430 1_546
Cr0 P2 2.332331 1_555
Cr0 P2 2.332331 1_455
Cr0 P3 2.351570 1_445
Cr0 P3 2.351570 1_545
Cr0 P1 2.379863 1_555
Cr1 P0 2.311768 1_655
Cr1 P0 2.311768 1_555
Cr1 P3 2.363451 1_555
Cr1 P2 2.384375 1_554
Cr1 P1 2.421334 1_655
Cr1 P1 2.421334 1_555
Cr2 P2 2.318375 1_564
Cr2 P1 2.336357 1_565
Cr2 P1 2.336357 1_665
Cr2 P0 2.357053 1_555
Cr2 P0 2.357053 1_655
Cr2 P3 2.410322 1_555
Ni0 P1 2.293720 1_555
Ni0 P2 2.338163 1_455
Ni0 P2 2.338163 1_555
Ni0 P3 2.352321 1_555
Ni0 P3 2.352321 1_455
Ni0 P0 2.440843 1_556
