# generated using pymatgen
data_TiZnP2O7
_symmetry_space_group_name_H-M   'P 1'
_cell_length_a   8.67400200
_cell_length_b   7.04599500
_cell_length_c   9.19707372
_cell_angle_alpha   66.74688334
_cell_angle_beta   90.00000000
_cell_angle_gamma   90.00000000
_symmetry_Int_Tables_number   1
_chemical_formula_structural   TiZnP2O7
_chemical_formula_sum   'Ti4 Zn4 P8 O28'
_cell_volume   516.43800858
_cell_formula_units_Z   4
loop_
 _symmetry_equiv_pos_site_id
 _symmetry_equiv_pos_as_xyz
  1  'x, y, z'
loop_
 _atom_site_type_symbol
 _atom_site_label
 _atom_site_symmetry_multiplicity
 _atom_site_fract_x
 _atom_site_fract_y
 _atom_site_fract_z
 _atom_site_occupancy
  Ti  Ti0  1  0.06902700  0.22044000  0.40139600  1
  Ti  Ti1  1  0.93097300  0.77956000  0.59860400  1
  Ti  Ti2  1  0.56902700  0.77956000  0.09860400  1
  Ti  Ti3  1  0.43097300  0.22044000  0.90139600  1
  Zn  Zn0  1  0.94275500  0.69698700  0.18367600  1
  Zn  Zn1  1  0.44275500  0.30301300  0.31632400  1
  Zn  Zn2  1  0.55724500  0.69698700  0.68367600  1
  Zn  Zn3  1  0.05724500  0.30301300  0.81632400  1
  P  P0  1  0.73830000  0.06303400  0.75211300  1
  P  P1  1  0.22285500  0.52788500  0.03429400  1
  P  P2  1  0.76170000  0.06303400  0.25211300  1
  P  P3  1  0.27714500  0.52788500  0.53429400  1
  P  P4  1  0.23830000  0.93696600  0.74788700  1
  P  P5  1  0.72285500  0.47211500  0.46570600  1
  P  P6  1  0.77714500  0.47211500  0.96570600  1
  P  P7  1  0.26170000  0.93696600  0.24788700  1
  O  O0  1  0.17516500  0.74687200  0.90178600  1
  O  O1  1  0.60866700  0.11281800  0.30616900  1
  O  O2  1  0.89133300  0.11281800  0.80616900  1
  O  O3  1  0.38164200  0.54975500  0.10193800  1
  O  O4  1  0.82483500  0.25312800  0.09821400  1
  O  O5  1  0.10798000  0.97419600  0.62655200  1
  O  O6  1  0.61835800  0.45024500  0.89806200  1
  O  O7  1  0.09190600  0.48219800  0.15686400  1
  O  O8  1  0.27156800  0.37270100  0.45377200  1
  O  O9  1  0.89202000  0.02580400  0.37344800  1
  O  O10  1  0.39202000  0.97419600  0.12655200  1
  O  O11  1  0.75743500  0.88242000  0.19669800  1
  O  O12  1  0.25743500  0.11758000  0.30330200  1
  O  O13  1  0.32483500  0.74687200  0.40178600  1
  O  O14  1  0.60798000  0.02580400  0.87344800  1
  O  O15  1  0.10866700  0.88718200  0.19383100  1
  O  O16  1  0.24256500  0.11758000  0.80330200  1
  O  O17  1  0.90809400  0.51780200  0.84313600  1
  O  O18  1  0.22843200  0.37270100  0.95377200  1
  O  O19  1  0.77156800  0.62729900  0.04622800  1
  O  O20  1  0.88164200  0.45024500  0.39806200  1
  O  O21  1  0.40809400  0.48219800  0.65686400  1
  O  O22  1  0.59190600  0.51780200  0.34313600  1
  O  O23  1  0.39133300  0.88718200  0.69383100  1
  O  O24  1  0.74256500  0.88242000  0.69669800  1
  O  O25  1  0.11835800  0.54975500  0.60193800  1
  O  O26  1  0.72843200  0.62729900  0.54622800  1
  O  O27  1  0.67516500  0.25312800  0.59821400  1
loop_
_geom_bond_atom_site_label_1
_geom_bond_atom_site_label_2
_geom_bond_distance
_geom_bond_site_symmetry_2
O0 P1 1.597609 1_556
O0 P4 1.612576 1_555
O1 P2 1.506626 1_555
O1 Zn1 1.993620 1_555
O2 P0 1.506626 1_555
O2 Zn3 1.993620 1_655
O3 P1 1.543856 1_555
O3 Zn1 2.117682 1_555
O3 Ti2 2.285917 1_555
O4 P6 1.597609 1_554
O4 P2 1.612576 1_555
O5 P4 1.536477 1_555
O5 Ti0 2.139097 1_565
O5 Ti1 2.140673 1_455
O6 P6 1.543856 1_555
O6 Zn2 2.117682 1_555
O6 Ti3 2.285917 1_555
O7 P1 1.542086 1_555
O7 Zn0 2.078368 1_455
O7 Ti0 2.285558 1_555
O8 P3 1.544581 1_555
O8 Zn1 2.129334 1_555
O8 Ti0 2.208517 1_555
O9 P2 1.536477 1_555
O9 Ti1 2.139097 1_545
O9 Ti0 2.140673 1_655
O10 P7 1.536477 1_555
O10 Ti3 2.139097 1_564
O10 Ti2 2.140673 1_555
O11 P2 1.546855 1_565
O11 Zn0 2.104506 1_555
O11 Ti2 2.127497 1_555
O12 P7 1.546855 1_545
O12 Zn1 2.104506 1_555
O12 Ti0 2.127497 1_555
O13 P3 1.597609 1_555
O13 P7 1.612576 1_555
O14 P0 1.536477 1_555
O14 Ti2 2.139097 1_546
O14 Ti3 2.140673 1_555
O15 P7 1.506626 1_555
O15 Zn0 1.993620 1_455
O16 P4 1.546855 1_545
O16 Zn3 2.104506 1_555
O16 Ti3 2.127497 1_555
O17 P6 1.542086 1_555
O17 Zn3 2.078368 1_655
O17 Ti1 2.285558 1_555
O18 P1 1.544581 1_556
O18 Zn3 2.129334 1_555
O18 Ti3 2.208517 1_555
O19 P6 1.544581 1_554
O19 Zn0 2.129334 1_555
O19 Ti2 2.208517 1_555
O20 P5 1.543856 1_555
O20 Zn0 2.117682 1_555
O20 Ti0 2.285917 1_655
O21 P3 1.542086 1_555
O21 Zn2 2.078368 1_555
O21 Ti3 2.285558 1_555
O22 P5 1.542086 1_555
O22 Zn1 2.078368 1_555
O22 Ti2 2.285558 1_555
O23 P4 1.506626 1_555
O23 Zn2 1.993620 1_555
O24 P0 1.546855 1_565
O24 Zn2 2.104506 1_555
O24 Ti1 2.127497 1_555
O25 P3 1.543856 1_555
O25 Zn3 2.117682 1_555
O25 Ti1 2.285917 1_455
O26 P5 1.544581 1_555
O26 Zn2 2.129334 1_555
O26 Ti1 2.208517 1_555
O27 P5 1.597609 1_555
O27 P0 1.612576 1_555
