# generated using pymatgen
data_Ba5P3O13
_symmetry_space_group_name_H-M   'P 1'
_cell_length_a   10.34109614
_cell_length_b   10.34109614
_cell_length_c   7.80725800
_cell_angle_alpha   90.00000000
_cell_angle_beta   90.00000000
_cell_angle_gamma   120.00000089
_symmetry_Int_Tables_number   1
_chemical_formula_structural   Ba5P3O13
_chemical_formula_sum   'Ba10 P6 O26'
_cell_volume   723.03997769
_cell_formula_units_Z   2
loop_
 _symmetry_equiv_pos_site_id
 _symmetry_equiv_pos_as_xyz
  1  'x, y, z'
loop_
 _atom_site_type_symbol
 _atom_site_label
 _atom_site_symmetry_multiplicity
 _atom_site_fract_x
 _atom_site_fract_y
 _atom_site_fract_z
 _atom_site_occupancy
  Ba  Ba0  1  0.76016800  0.74243300  0.75484700  1
  Ba  Ba1  1  0.98226500  0.23983200  0.75484700  1
  Ba  Ba2  1  0.25756700  0.01773500  0.75484700  1
  Ba  Ba3  1  0.23983200  0.25756700  0.25484700  1
  Ba  Ba4  1  0.01773500  0.76016800  0.25484700  1
  Ba  Ba5  1  0.74243300  0.98226500  0.25484700  1
  Ba  Ba6  1  0.66666700  0.33333300  0.50070500  1
  Ba  Ba7  1  0.33333300  0.66666700  0.00070500  1
  Ba  Ba8  1  0.66666700  0.33333300  0.00198400  1
  Ba  Ba9  1  0.33333300  0.66666700  0.50198400  1
  P  P0  1  0.59790300  0.96770000  0.74939700  1
  P  P1  1  0.36979700  0.40209700  0.74939700  1
  P  P2  1  0.03230000  0.63020300  0.74939700  1
  P  P3  1  0.40209700  0.03230000  0.24939700  1
  P  P4  1  0.63020300  0.59790300  0.24939700  1
  P  P5  1  0.96770000  0.36979700  0.24939700  1
  O  O0  1  0.45788300  0.57614800  0.75688900  1
  O  O1  1  0.11826400  0.54211700  0.75688900  1
  O  O2  1  0.42385200  0.88173600  0.75688900  1
  O  O3  1  0.54211700  0.42385200  0.25688900  1
  O  O4  1  0.88173600  0.45788300  0.25688900  1
  O  O5  1  0.57614800  0.11826400  0.25688900  1
  O  O6  1  0.92487700  0.26526600  0.40920200  1
  O  O7  1  0.34038900  0.07512300  0.40920200  1
  O  O8  1  0.73473400  0.65961100  0.40920200  1
  O  O9  1  0.07512300  0.73473400  0.90920200  1
  O  O10  1  0.65961100  0.92487700  0.90920200  1
  O  O11  1  0.26526600  0.34038900  0.90920200  1
  O  O12  1  0.35295200  0.08392400  0.08604100  1
  O  O13  1  0.73097100  0.64704800  0.08604100  1
  O  O14  1  0.91607600  0.26902900  0.08604100  1
  O  O15  1  0.64704800  0.91607600  0.58604100  1
  O  O16  1  0.26902900  0.35295200  0.58604100  1
  O  O17  1  0.08392400  0.73097100  0.58604100  1
  O  O18  1  0.48016300  0.34081800  0.74568500  1
  O  O19  1  0.86065500  0.51983700  0.74568500  1
  O  O20  1  0.65918200  0.13934500  0.74568500  1
  O  O21  1  0.51983700  0.65918200  0.24568500  1
  O  O22  1  0.13934500  0.48016300  0.24568500  1
  O  O23  1  0.34081800  0.86065500  0.24568500  1
  O  O24  1  0.00000000  0.00000000  0.65419900  1
  O  O25  1  0.00000000  0.00000000  0.15419900  1
loop_
_geom_bond_atom_site_label_1
_geom_bond_atom_site_label_2
_geom_bond_distance
_geom_bond_site_symmetry_2
Ba0 O24 2.693876 1_665
Ba0 O0 2.711731 1_555
Ba0 O13 2.729878 1_556
Ba0 O8 2.803492 1_555
Ba0 O10 2.838131 1_555
Ba0 O15 2.903483 1_555
Ba0 O19 2.962367 1_555
Ba1 O24 2.693876 1_655
Ba1 O1 2.711732 1_655
Ba1 O14 2.729881 1_556
Ba1 O6 2.803492 1_555
Ba1 O11 2.838131 1_655
Ba1 O16 2.903492 1_655
Ba1 O20 2.962367 1_555
Ba2 O24 2.693876 1_555
Ba2 O2 2.711723 1_545
Ba2 O12 2.729878 1_556
Ba2 O7 2.803492 1_555
Ba2 O9 2.838131 1_545
Ba2 O17 2.903490 1_545
Ba2 O18 2.962367 1_555
Ba3 O25 2.693876 1_555
Ba3 O3 2.711731 1_555
Ba3 O16 2.729878 1_555
Ba3 O11 2.803492 1_554
Ba3 O7 2.838131 1_555
Ba3 O12 2.903483 1_555
Ba3 O22 2.962367 1_555
Ba4 O25 2.693876 1_565
Ba4 O4 2.711732 1_455
Ba4 O17 2.729881 1_555
Ba4 O9 2.803492 1_554
Ba4 O8 2.838131 1_455
Ba4 O13 2.903492 1_455
Ba4 O23 2.962367 1_555
Ba5 O25 2.693876 1_665
Ba5 O5 2.711723 1_565
Ba5 O15 2.729878 1_555
Ba5 O10 2.803492 1_554
Ba5 O6 2.838131 1_565
Ba5 O14 2.903490 1_565
Ba5 O21 2.962367 1_555
Ba6 O4 2.713706 1_555
Ba6 O5 2.713706 1_555
Ba6 O3 2.713706 1_555
Ba6 O20 2.744644 1_555
Ba6 O19 2.744647 1_555
Ba6 O18 2.744651 1_555
Ba6 O6 3.164671 1_555
Ba6 O7 3.164677 1_555
Ba6 O8 3.164681 1_555
Ba7 O1 2.713706 1_554
Ba7 O2 2.713706 1_554
Ba7 O0 2.713706 1_554
Ba7 O23 2.744644 1_555
Ba7 O22 2.744647 1_555
Ba7 O21 2.744651 1_555
Ba7 O9 3.164671 1_554
Ba7 O10 3.164677 1_554
Ba7 O11 3.164681 1_554
Ba8 O4 2.775120 1_555
Ba8 O5 2.775120 1_555
Ba8 O3 2.775120 1_555
Ba8 O20 2.806941 1_554
Ba8 O19 2.806944 1_554
Ba8 O18 2.806948 1_554
Ba8 O14 3.039739 1_555
Ba8 O12 3.039753 1_555
Ba8 O13 3.039759 1_555
Ba9 O1 2.775120 1_555
Ba9 O2 2.775120 1_555
Ba9 O0 2.775120 1_555
Ba9 O23 2.806941 1_555
Ba9 O22 2.806944 1_555
Ba9 O21 2.806948 1_555
Ba9 O17 3.039739 1_555
Ba9 O15 3.039753 1_555
Ba9 O16 3.039759 1_555
O0 P1 1.559876 1_555
O1 P2 1.559867 1_555
O2 P0 1.559876 1_555
O3 P4 1.559876 1_555
O4 P5 1.559867 1_555
O5 P3 1.559876 1_555
O6 P5 1.562850 1_555
O7 P3 1.562850 1_555
O8 P4 1.562850 1_555
O9 P2 1.562850 1_555
O10 P0 1.562850 1_555
O11 P1 1.562850 1_555
O12 P3 1.562413 1_555
O13 P4 1.562407 1_555
O14 P5 1.562408 1_555
O15 P0 1.562413 1_555
O16 P1 1.562407 1_555
O17 P2 1.562408 1_555
O18 P1 1.558275 1_555
O19 P2 1.558275 1_655
O20 P0 1.558275 1_545
O21 P4 1.558275 1_555
O22 P5 1.558275 1_455
O23 P3 1.558275 1_565
