# generated using pymatgen
data_CaNp(HO)9
_symmetry_space_group_name_H-M   'P 1'
_cell_length_a   6.52163900
_cell_length_b   8.10068703
_cell_length_c   8.52814425
_cell_angle_alpha   80.89334842
_cell_angle_beta   69.11130563
_cell_angle_gamma   77.25247174
_symmetry_Int_Tables_number   1
_chemical_formula_structural   CaNp(HO)9
_chemical_formula_sum   'Ca2 Np2 H18 O18'
_cell_volume   408.98363142
_cell_formula_units_Z   2
loop_
 _symmetry_equiv_pos_site_id
 _symmetry_equiv_pos_as_xyz
  1  'x, y, z'
loop_
 _atom_site_type_symbol
 _atom_site_label
 _atom_site_symmetry_multiplicity
 _atom_site_fract_x
 _atom_site_fract_y
 _atom_site_fract_z
 _atom_site_occupancy
  Ca  Ca0  1  0.17798400  0.28649500  0.87166000  1
  Ca  Ca1  1  0.82201600  0.71350500  0.12834000  1
  Np  Np0  1  0.50000000  0.50000000  0.00000000  1
  Np  Np1  1  0.50000000  0.50000000  0.50000000  1
  H  H0  1  0.79171600  0.55816100  0.66513800  1
  H  H1  1  0.20828400  0.44183900  0.33486200  1
  H  H2  1  0.92490800  0.28650600  0.23650500  1
  H  H3  1  0.07509200  0.71349400  0.76349500  1
  H  H4  1  0.10535000  0.12430000  0.24364300  1
  H  H5  1  0.89465000  0.87570000  0.75635700  1
  H  H6  1  0.06765800  0.15523700  0.59837800  1
  H  H7  1  0.93234200  0.84476300  0.40162200  1
  H  H8  1  0.82732800  0.22714300  0.72581300  1
  H  H9  1  0.17267200  0.77285700  0.27418700  1
  H  H10  1  0.17606800  0.92985800  0.84576300  1
  H  H11  1  0.82393200  0.07014200  0.15423700  1
  H  H12  1  0.35556700  0.90317000  0.93697200  1
  H  H13  1  0.64443300  0.09683000  0.06302800  1
  H  H14  1  0.66363900  0.04128300  0.59347500  1
  H  H15  1  0.33636100  0.95871700  0.40652500  1
  H  H16  1  0.64675900  0.84722100  0.64018700  1
  H  H17  1  0.35324100  0.15277900  0.35981300  1
  O  O0  1  0.48469700  0.72535800  0.05025400  1
  O  O1  1  0.51530300  0.27464200  0.94974600  1
  O  O2  1  0.80116100  0.45501400  0.99443200  1
  O  O3  1  0.19883900  0.54498600  0.00556800  1
  O  O4  1  0.79597400  0.46175300  0.34200100  1
  O  O5  1  0.20402600  0.53824700  0.65799900  1
  O  O6  1  0.52593300  0.27254600  0.60114400  1
  O  O7  1  0.47406700  0.72745400  0.39885600  1
  O  O8  1  0.62837100  0.58091800  0.70337500  1
  O  O9  1  0.37162900  0.41908200  0.29662500  1
  O  O10  1  0.01552700  0.18643800  0.17299500  1
  O  O11  1  0.98447300  0.81356200  0.82700500  1
  O  O12  1  0.98746400  0.21345600  0.70360000  1
  O  O13  1  0.01253600  0.78654400  0.29640000  1
  O  O14  1  0.28514100  0.98617000  0.86470000  1
  O  O15  1  0.71485900  0.01383000  0.13530000  1
  O  O16  1  0.75406600  0.92567100  0.59422300  1
  O  O17  1  0.24593400  0.07432900  0.40577700  1
loop_
_geom_bond_atom_site_label_1
_geom_bond_atom_site_label_2
_geom_bond_distance
_geom_bond_site_symmetry_2
Ca0 O14 2.382527 1_545
Ca0 O12 2.410565 1_455
Ca0 O2 2.477135 1_455
Ca0 O10 2.482246 1_556
Ca0 O1 2.494662 1_555
Ca0 O5 2.502780 1_555
Ca0 O3 2.588565 1_556
Ca0 O6 2.592391 1_555
Ca1 O15 2.382527 1_565
Ca1 O13 2.410565 1_655
Ca1 O3 2.477135 1_655
Ca1 O11 2.482246 1_554
Ca1 O0 2.494662 1_555
Ca1 O4 2.502780 1_555
Ca1 O2 2.588565 1_554
Ca1 O7 2.592391 1_555
Np0 O2 1.901501 1_554
Np0 O3 1.901501 1_555
Np0 O0 1.913907 1_555
Np0 O1 1.913907 1_554
Np0 O8 2.395164 1_554
Np0 O9 2.395164 1_555
Np1 O6 1.905513 1_555
Np1 O7 1.905513 1_555
Np1 O5 1.910738 1_555
Np1 O4 1.910738 1_555
Np1 O8 2.403382 1_555
Np1 O9 2.403382 1_555
H0 O8 0.979684 1_555
H1 O9 0.979684 1_555
H2 O10 0.999513 1_655
H2 O4 1.694058 1_555
H3 O11 0.999513 1_455
H3 O5 1.694058 1_555
H4 O10 0.992514 1_555
H5 O11 0.992514 1_555
H6 O12 0.995803 1_455
H7 O13 0.995803 1_655
H8 O12 0.976378 1_555
H9 O13 0.976378 1_555
H10 O14 0.994287 1_555
H11 O15 0.994287 1_555
H12 O14 0.988588 1_555
H13 O15 0.988588 1_555
H14 O16 0.990948 1_545
H15 O17 0.990948 1_565
H16 O16 0.984403 1_555
H17 O17 0.984403 1_555
