# generated using pymatgen
data_NiH20C4(N5O6)2
_symmetry_space_group_name_H-M   'P 1'
_cell_length_a   6.66546964
_cell_length_b   7.91123551
_cell_length_c   18.18416800
_cell_angle_alpha   90.00000000
_cell_angle_beta   90.00000000
_cell_angle_gamma   98.37943798
_symmetry_Int_Tables_number   1
_chemical_formula_structural   NiH20C4(N5O6)2
_chemical_formula_sum   'Ni2 H40 C8 N20 O24'
_cell_volume   948.65292997
_cell_formula_units_Z   2
loop_
 _symmetry_equiv_pos_site_id
 _symmetry_equiv_pos_as_xyz
  1  'x, y, z'
loop_
 _atom_site_type_symbol
 _atom_site_label
 _atom_site_symmetry_multiplicity
 _atom_site_fract_x
 _atom_site_fract_y
 _atom_site_fract_z
 _atom_site_occupancy
  Ni  Ni0  1  0.00000000  0.00000000  0.00000000  1
  Ni  Ni1  1  0.50000000  0.50000000  0.50000000  1
  H  H0  1  0.04960400  0.70017900  0.05810100  1
  H  H1  1  0.95039600  0.29982100  0.94189900  1
  H  H2  1  0.45039600  0.79982100  0.55810100  1
  H  H3  1  0.54960400  0.20017900  0.44189900  1
  H  H4  1  0.07180000  0.92877500  0.83833100  1
  H  H5  1  0.92820000  0.07122500  0.16166900  1
  H  H6  1  0.42820000  0.57122500  0.33833100  1
  H  H7  1  0.57180000  0.42877500  0.66166900  1
  H  H8  1  0.27674800  0.95741000  0.77407700  1
  H  H9  1  0.72325200  0.04259000  0.22592300  1
  H  H10  1  0.22325200  0.54259000  0.27407700  1
  H  H11  1  0.77674800  0.45741000  0.72592300  1
  H  H12  1  0.98184100  0.83240700  0.31219100  1
  H  H13  1  0.01815900  0.16759300  0.68780900  1
  H  H14  1  0.51815900  0.66759300  0.81219100  1
  H  H15  1  0.48184100  0.33240700  0.18780900  1
  H  H16  1  0.79271000  0.66758300  0.28642700  1
  H  H17  1  0.20729000  0.33241700  0.71357300  1
  H  H18  1  0.70729000  0.83241700  0.78642700  1
  H  H19  1  0.29271000  0.16758300  0.21357300  1
  H  H20  1  0.39446400  0.80430500  0.09967700  1
  H  H21  1  0.60553600  0.19569500  0.90032300  1
  H  H22  1  0.10553600  0.69569500  0.59967700  1
  H  H23  1  0.89446400  0.30430500  0.40032300  1
  H  H24  1  0.85767200  0.77615700  0.49958500  1
  H  H25  1  0.14232800  0.22384200  0.50041500  1
  H  H26  1  0.64232800  0.72384300  0.99958500  1
  H  H27  1  0.35767200  0.27615800  0.00041500  1
  H  H28  1  0.42094800  0.87151100  0.19023200  1
  H  H29  1  0.57905200  0.12848900  0.80976800  1
  H  H30  1  0.07905200  0.62848900  0.69023200  1
  H  H31  1  0.92094800  0.37151100  0.30976800  1
  H  H32  1  0.02457100  0.89245600  0.43592400  1
  H  H33  1  0.97542900  0.10754400  0.56407600  1
  H  H34  1  0.47542900  0.60754400  0.93592400  1
  H  H35  1  0.52457100  0.39245600  0.06407600  1
  H  H36  1  0.36618600  0.79256100  0.47819600  1
  H  H37  1  0.63381400  0.20743900  0.52180400  1
  H  H38  1  0.13381400  0.70743900  0.97819600  1
  H  H39  1  0.86618600  0.29256100  0.02180400  1
  C  C0  1  0.67579100  0.92383700  0.12507200  1
  C  C1  1  0.32420900  0.07616300  0.87492800  1
  C  C2  1  0.82420900  0.57616300  0.62507200  1
  C  C3  1  0.17579100  0.42383700  0.37492800  1
  C  C4  1  0.78683700  0.72901200  0.39375500  1
  C  C5  1  0.21316300  0.27098800  0.60624500  1
  C  C6  1  0.71316300  0.77098800  0.89375500  1
  C  C7  1  0.28683700  0.22901200  0.10624500  1
  N  N0  1  0.84501500  0.76076400  0.32320900  1
  N  N1  1  0.15498500  0.23923600  0.67679100  1
  N  N2  1  0.65498500  0.73923600  0.82320900  1
  N  N3  1  0.34501500  0.26076400  0.17679100  1
  N  N4  1  0.88689600  0.82320000  0.44744100  1
  N  N5  1  0.11310400  0.17680000  0.55255900  1
  N  N6  1  0.61310400  0.67680000  0.94744100  1
  N  N7  1  0.38689600  0.32320000  0.05255900  1
  N  N8  1  0.48851300  0.84248600  0.14250700  1
  N  N9  1  0.51148700  0.15751400  0.85749300  1
  N  N10  1  0.01148700  0.65751400  0.64250700  1
  N  N11  1  0.98851300  0.34248600  0.35749300  1
  N  N12  1  0.21687100  0.97989100  0.82377600  1
  N  N13  1  0.78312900  0.02010900  0.17622400  1
  N  N14  1  0.28312900  0.52010900  0.32377600  1
  N  N15  1  0.71687100  0.47989100  0.67622400  1
  N  N16  1  0.87931200  0.51561000  0.15872100  1
  N  N17  1  0.12068800  0.48439000  0.84127900  1
  N  N18  1  0.62068800  0.98439000  0.65872100  1
  N  N19  1  0.37931200  0.01561000  0.34127900  1
  O  O0  1  0.32244200  0.98872600  0.40794100  1
  O  O1  1  0.67755800  0.01127400  0.59205900  1
  O  O2  1  0.17755800  0.51127400  0.90794100  1
  O  O3  1  0.82244200  0.48872600  0.09205900  1
  O  O4  1  0.26528400  0.95268500  0.28889000  1
  O  O5  1  0.73471600  0.04731500  0.71111000  1
  O  O6  1  0.23471600  0.54731500  0.78889000  1
  O  O7  1  0.76528400  0.45268500  0.21111000  1
  O  O8  1  0.04723300  0.60624000  0.17205700  1
  O  O9  1  0.95276700  0.39376000  0.82794300  1
  O  O10  1  0.45276700  0.89376000  0.67205700  1
  O  O11  1  0.54723300  0.10624000  0.32794300  1
  O  O12  1  0.75274400  0.59813900  0.56116200  1
  O  O13  1  0.24725600  0.40186100  0.43883800  1
  O  O14  1  0.74725600  0.90186100  0.06116200  1
  O  O15  1  0.25274400  0.09813900  0.93883800  1
  O  O16  1  0.63327500  0.61594500  0.40661200  1
  O  O17  1  0.36672500  0.38405500  0.59338800  1
  O  O18  1  0.86672500  0.88405500  0.90661200  1
  O  O19  1  0.13327500  0.11594500  0.09338800  1
  O  O20  1  0.13338000  0.77575000  0.02329300  1
  O  O21  1  0.86662000  0.22425000  0.97670700  1
  O  O22  1  0.36662000  0.72425000  0.52329300  1
  O  O23  1  0.63338000  0.27575000  0.47670700  1
loop_
_geom_bond_atom_site_label_1
_geom_bond_atom_site_label_2
_geom_bond_distance
_geom_bond_site_symmetry_2
Ni0 O19 2.068058 1_555
Ni0 O18 2.068058 1_444
Ni0 O14 2.072824 1_445
Ni0 O15 2.072824 1_554
Ni0 O20 2.139371 1_545
Ni0 O21 2.139371 1_454
Ni1 O17 2.068058 1_555
Ni1 O16 2.068058 1_555
Ni1 O13 2.072824 1_555
Ni1 O12 2.072824 1_555
Ni1 O22 2.139371 1_555
Ni1 O23 2.139371 1_555
H0 O20 0.986196 1_555
H1 O21 0.986196 1_555
H2 O22 0.986196 1_555
H3 O23 0.986196 1_555
H4 N12 1.026955 1_555
H5 N13 1.026955 1_555
H6 N14 1.026955 1_555
H7 N15 1.026955 1_555
H8 N12 1.014073 1_555
H9 N13 1.014073 1_555
H10 N14 1.014073 1_555
H11 N15 1.014073 1_555
H12 N0 1.021024 1_555
H13 N1 1.021024 1_555
H14 N2 1.021024 1_555
H15 N3 1.021024 1_555
H16 N0 1.018544 1_555
H17 N1 1.018544 1_555
H18 N2 1.018544 1_555
H19 N3 1.018544 1_555
H20 N8 1.017646 1_555
H21 N9 1.017646 1_555
H22 N10 1.017646 1_555
H23 N11 1.017646 1_555
H24 N4 1.026839 1_555
H25 N5 1.026836 1_555
H26 N6 1.026839 1_555
H27 N7 1.026836 1_555
H28 N8 1.019230 1_555
H29 N9 1.019230 1_555
H30 N10 1.019230 1_555
H31 N11 1.019230 1_555
H32 N4 1.019622 1_455
H33 N5 1.019622 1_655
H34 N6 1.019622 1_555
H35 N7 1.019622 1_555
H36 O22 0.982348 1_555
H37 O23 0.982348 1_555
H38 O20 0.982348 1_556
H39 O21 0.982348 1_554
C0 O14 1.277444 1_555
C0 N13 1.341020 1_565
C0 N8 1.356027 1_555
C1 O15 1.277444 1_555
C1 N12 1.341020 1_545
C1 N9 1.356027 1_555
C2 O12 1.277444 1_555
C2 N15 1.341020 1_555
C2 N10 1.356027 1_655
C3 O13 1.277444 1_555
C3 N14 1.341020 1_555
C3 N11 1.356027 1_455
C4 O16 1.278914 1_555
C4 N4 1.344708 1_555
C4 N0 1.353039 1_555
C5 O17 1.278914 1_555
C5 N5 1.344708 1_555
C5 N1 1.353039 1_555
C6 O18 1.278914 1_555
C6 N6 1.344708 1_555
C6 N2 1.353039 1_555
C7 O19 1.278914 1_555
C7 N7 1.344708 1_555
C7 N3 1.353039 1_555
N16 O8 1.261651 1_655
N16 O7 1.273877 1_555
N16 O3 1.278609 1_555
N17 O9 1.261651 1_455
N17 O6 1.273877 1_555
N17 O2 1.278609 1_555
N18 O10 1.261651 1_555
N18 O5 1.273877 1_565
N18 O1 1.278609 1_565
N19 O11 1.261651 1_555
N19 O4 1.273877 1_545
N19 O0 1.278609 1_545
