# generated using pymatgen
data_Mg2Ta2MnO8
_symmetry_space_group_name_H-M   'P 1'
_cell_length_a   5.23213953
_cell_length_b   12.09046430
_cell_length_c   10.18018582
_cell_angle_alpha   107.25919318
_cell_angle_beta   90.40633706
_cell_angle_gamma   89.99865173
_symmetry_Int_Tables_number   1
_chemical_formula_structural   Mg2Ta2MnO8
_chemical_formula_sum   'Mg8 Ta8 Mn4 O32'
_cell_volume   614.97413119
_cell_formula_units_Z   4
loop_
 _symmetry_equiv_pos_site_id
 _symmetry_equiv_pos_as_xyz
  1  'x, y, z'
loop_
 _atom_site_type_symbol
 _atom_site_label
 _atom_site_symmetry_multiplicity
 _atom_site_fract_x
 _atom_site_fract_y
 _atom_site_fract_z
 _atom_site_occupancy
  Mg  Mg0  1  0.75584700  0.20716900  0.54606600  1
  Mg  Mg1  1  0.75584500  0.70716300  0.54605600  1
  Mg  Mg2  1  0.74522000  0.43482100  0.45620100  1
  Mg  Mg3  1  0.74523000  0.93481700  0.45620100  1
  Mg  Mg4  1  0.24522200  0.29263600  0.45616200  1
  Mg  Mg5  1  0.24522100  0.79263000  0.45615200  1
  Mg  Mg6  1  0.25578700  0.06508800  0.54619000  1
  Mg  Mg7  1  0.25579400  0.56508500  0.54618500  1
  Ta  Ta0  1  0.74123400  0.14097500  0.23796300  1
  Ta  Ta1  1  0.74125500  0.64097800  0.23794600  1
  Ta  Ta2  1  0.75981400  0.02234000  0.76437400  1
  Ta  Ta3  1  0.75984500  0.52232800  0.76436600  1
  Ta  Ta4  1  0.25981500  0.35896800  0.76429300  1
  Ta  Ta5  1  0.25981100  0.85898200  0.76427800  1
  Ta  Ta6  1  0.24130500  0.47773600  0.23806600  1
  Ta  Ta7  1  0.24130600  0.97771400  0.23805900  1
  Mn  Mn0  1  0.75040700  0.82781900  0.00120600  1
  Mn  Mn1  1  0.25034900  0.17233000  0.00119900  1
  Mn  Mn2  1  0.75036900  0.32783100  0.00125800  1
  Mn  Mn3  1  0.25052000  0.67229600  0.00106400  1
  O  O0  1  0.07213400  0.09073000  0.14883900  1
  O  O1  1  0.07214600  0.59073400  0.14882500  1
  O  O2  1  0.42905900  0.01648400  0.85356900  1
  O  O3  1  0.42907400  0.51647700  0.85356000  1
  O  O4  1  0.92905600  0.40939300  0.85358600  1
  O  O5  1  0.92905300  0.90939900  0.85357900  1
  O  O6  1  0.57202900  0.48346600  0.14869100  1
  O  O7  1  0.57202300  0.98346500  0.14868800  1
  O  O8  1  0.59406300  0.21631700  0.12340900  1
  O  O9  1  0.59406200  0.71631500  0.12339700  1
  O  O10  1  0.90673500  0.15494600  0.87896300  1
  O  O11  1  0.90675300  0.65493800  0.87895800  1
  O  O12  1  0.40668500  0.28365300  0.87895900  1
  O  O13  1  0.40668200  0.78365200  0.87893800  1
  O  O14  1  0.09403700  0.34523100  0.12344000  1
  O  O15  1  0.09404800  0.84521900  0.12342200  1
  O  O16  1  0.45384600  0.14590600  0.37587300  1
  O  O17  1  0.45384400  0.64590200  0.37586500  1
  O  O18  1  0.04721800  0.45841500  0.62641800  1
  O  O19  1  0.04721500  0.95841400  0.62642000  1
  O  O20  1  0.95381000  0.04156200  0.37595500  1
  O  O21  1  0.95380700  0.54156400  0.37595600  1
  O  O22  1  0.54718200  0.35390800  0.62639300  1
  O  O23  1  0.54718200  0.85390800  0.62638700  1
  O  O24  1  0.37969500  0.41954200  0.38546700  1
  O  O25  1  0.37970200  0.91954200  0.38547400  1
  O  O26  1  0.12126800  0.22725300  0.61684600  1
  O  O27  1  0.12126700  0.72725300  0.61684300  1
  O  O28  1  0.62129500  0.08034700  0.61686300  1
  O  O29  1  0.62129900  0.58034800  0.61687000  1
  O  O30  1  0.87971100  0.27266200  0.38546800  1
  O  O31  1  0.87970500  0.77265900  0.38546300  1
loop_
_geom_bond_atom_site_label_1
_geom_bond_atom_site_label_2
_geom_bond_distance
_geom_bond_site_symmetry_2
Mg0 O28 2.007284 1_555
Mg0 O26 2.027390 1_655
Mg0 O22 2.039589 1_555
Mg0 O30 2.122079 1_555
Mg0 O16 2.290630 1_555
Mg0 O20 2.459407 1_555
Mg1 O29 2.007301 1_555
Mg1 O27 2.027418 1_655
Mg1 O23 2.039644 1_555
Mg1 O31 2.122049 1_555
Mg1 O17 2.290614 1_555
Mg1 O21 2.459294 1_555
Mg2 O30 2.006721 1_555
Mg2 O24 2.027750 1_555
Mg2 O21 2.040168 1_555
Mg2 O29 2.121034 1_555
Mg2 O18 2.290999 1_655
Mg2 O22 2.462476 1_555
Mg3 O31 2.006684 1_555
Mg3 O25 2.027742 1_555
Mg3 O20 2.040173 1_565
Mg3 O28 2.121041 1_565
Mg3 O19 2.290964 1_655
Mg3 O23 2.462418 1_555
Mg4 O24 2.007412 1_555
Mg4 O30 2.027540 1_455
Mg4 O16 2.039335 1_555
Mg4 O26 2.122199 1_555
Mg4 O22 2.290747 1_555
Mg4 O18 2.461444 1_555
Mg5 O25 2.007388 1_555
Mg5 O31 2.027548 1_455
Mg5 O17 2.039311 1_555
Mg5 O27 2.122218 1_555
Mg5 O23 2.290785 1_555
Mg5 O19 2.461542 1_555
Mg6 O26 2.006780 1_555
Mg6 O28 2.027470 1_555
Mg6 O19 2.039409 1_545
Mg6 O25 2.121414 1_545
Mg6 O20 2.291137 1_455
Mg6 O16 2.462876 1_555
Mg7 O27 2.006828 1_555
Mg7 O29 2.027494 1_555
Mg7 O18 2.039402 1_555
Mg7 O24 2.121380 1_555
Mg7 O21 2.291136 1_455
Mg7 O17 2.462874 1_555
Mn0 O15 2.153588 1_655
Mn0 O13 2.154681 1_554
Mn0 O5 2.237124 1_554
Mn0 O7 2.238265 1_555
Mn0 O9 2.245788 1_555
Mn0 O11 2.248940 1_554
Mn1 O10 2.153595 1_454
Mn1 O8 2.154173 1_555
Mn1 O0 2.236434 1_555
Mn1 O2 2.241175 1_554
Mn1 O12 2.244465 1_554
Mn1 O14 2.249040 1_555
Mn2 O14 2.153518 1_655
Mn2 O12 2.154670 1_554
Mn2 O4 2.237445 1_554
Mn2 O6 2.237871 1_555
Mn2 O8 2.245507 1_555
Mn2 O10 2.249149 1_554
Mn3 O11 2.153566 1_454
Mn3 O9 2.154079 1_555
Mn3 O1 2.237483 1_555
Mn3 O3 2.240077 1_554
Mn3 O13 2.243582 1_554
Mn3 O15 2.249885 1_555
O0 Ta0 1.971003 1_455
O0 Ta7 2.049513 1_545
O1 Ta1 1.970948 1_455
O1 Ta6 2.049446 1_555
O2 Ta2 1.970986 1_555
O2 Ta5 2.048953 1_545
O3 Ta3 1.971044 1_555
O3 Ta4 2.049005 1_555
O4 Ta4 1.971373 1_655
O4 Ta3 2.048819 1_555
O5 Ta5 1.971382 1_655
O5 Ta2 2.048842 1_565
O6 Ta6 1.971456 1_555
O6 Ta1 2.048940 1_555
O7 Ta7 1.971448 1_555
O7 Ta0 2.048921 1_565
O8 Ta0 1.843982 1_555
O9 Ta1 1.843949 1_555
O10 Ta2 1.843837 1_555
O11 Ta3 1.843853 1_555
O12 Ta4 1.843995 1_555
O13 Ta5 1.844073 1_555
O14 Ta6 1.843894 1_555
O15 Ta7 1.843832 1_555
O16 Ta0 2.053260 1_555
O16 Ta7 2.371754 1_545
O17 Ta1 2.053425 1_555
O17 Ta6 2.371486 1_555
O18 Ta3 2.053286 1_455
O18 Ta4 2.373236 1_555
O19 Ta2 2.053456 1_465
O19 Ta5 2.372982 1_555
O20 Ta7 2.053318 1_645
O20 Ta0 2.373784 1_555
O21 Ta6 2.053249 1_655
O21 Ta1 2.373870 1_555
O22 Ta4 2.052839 1_555
O22 Ta3 2.374473 1_555
O23 Ta5 2.052763 1_555
O23 Ta2 2.374544 1_565
O24 Ta6 1.970304 1_555
O25 Ta7 1.970283 1_555
O26 Ta4 1.969979 1_555
O27 Ta5 1.970008 1_555
O28 Ta2 1.970200 1_555
O29 Ta3 1.970210 1_555
O30 Ta0 1.969956 1_555
O31 Ta1 1.969926 1_555
