# generated using pymatgen
data_InH3(CO2)3
_symmetry_space_group_name_H-M   'P 1'
_cell_length_a   12.85889498
_cell_length_b   12.85889498
_cell_length_c   6.99696600
_cell_angle_alpha   90.00000000
_cell_angle_beta   90.00000000
_cell_angle_gamma   120.00000504
_symmetry_Int_Tables_number   1
_chemical_formula_structural   InH3(CO2)3
_chemical_formula_sum   'In6 H18 C18 O36'
_cell_volume   1001.95374299
_cell_formula_units_Z   6
loop_
 _symmetry_equiv_pos_site_id
 _symmetry_equiv_pos_as_xyz
  1  'x, y, z'
loop_
 _atom_site_type_symbol
 _atom_site_label
 _atom_site_symmetry_multiplicity
 _atom_site_fract_x
 _atom_site_fract_y
 _atom_site_fract_z
 _atom_site_occupancy
  In  In0  1  0.67411900  0.01907600  0.50630400  1
  In  In1  1  0.98092400  0.65504300  0.50630400  1
  In  In2  1  0.34495700  0.32588100  0.50630400  1
  In  In3  1  0.32588100  0.98092400  0.00630400  1
  In  In4  1  0.01907600  0.34495700  0.00630400  1
  In  In5  1  0.65504300  0.67411900  0.00630400  1
  H  H0  1  0.48806600  0.80048700  0.78746500  1
  H  H1  1  0.19951300  0.68757900  0.78746500  1
  H  H2  1  0.31242100  0.51193400  0.78746500  1
  H  H3  1  0.51193400  0.19951300  0.28746500  1
  H  H4  1  0.80048700  0.31242100  0.28746500  1
  H  H5  1  0.68757900  0.48806600  0.28746500  1
  H  H6  1  0.46652700  0.68827400  0.26615300  1
  H  H7  1  0.31172600  0.77825300  0.26615300  1
  H  H8  1  0.22174700  0.53347300  0.26615300  1
  H  H9  1  0.53347300  0.31172600  0.76615300  1
  H  H10  1  0.68827400  0.22174700  0.76615300  1
  H  H11  1  0.77825300  0.46652700  0.76615300  1
  H  H12  1  0.84594300  0.99213700  0.18798600  1
  H  H13  1  0.00786300  0.85380600  0.18798600  1
  H  H14  1  0.14619400  0.15405700  0.18798600  1
  H  H15  1  0.15405700  0.00786300  0.68798600  1
  H  H16  1  0.99213700  0.14619400  0.68798600  1
  H  H17  1  0.85380600  0.84594300  0.68798600  1
  C  C0  1  0.47885200  0.87919100  0.82225000  1
  C  C1  1  0.12080900  0.59966100  0.82225000  1
  C  C2  1  0.40033900  0.52114800  0.82225000  1
  C  C3  1  0.52114800  0.12080900  0.32225000  1
  C  C4  1  0.87919100  0.40033900  0.32225000  1
  C  C5  1  0.59966100  0.47885200  0.32225000  1
  C  C6  1  0.54479300  0.77928400  0.28317300  1
  C  C7  1  0.22071600  0.76550900  0.28317300  1
  C  C8  1  0.23449100  0.45520700  0.28317300  1
  C  C9  1  0.45520700  0.22071600  0.78317300  1
  C  C10  1  0.77928400  0.23449100  0.78317300  1
  C  C11  1  0.76550900  0.54479300  0.78317300  1
  C  C12  1  0.86259700  0.08478700  0.17433200  1
  C  C13  1  0.91521300  0.77781000  0.17433200  1
  C  C14  1  0.22219000  0.13740300  0.17433200  1
  C  C15  1  0.13740300  0.91521300  0.67433200  1
  C  C16  1  0.08478700  0.22219000  0.67433200  1
  C  C17  1  0.77781000  0.86259700  0.67433200  1
  O  O0  1  0.79619300  0.11557200  0.26399900  1
  O  O1  1  0.88442800  0.68062100  0.26399900  1
  O  O2  1  0.31937900  0.20380700  0.26399900  1
  O  O3  1  0.20380700  0.88442800  0.76399900  1
  O  O4  1  0.11557200  0.31937900  0.76399900  1
  O  O5  1  0.68062100  0.79619300  0.76399900  1
  O  O6  1  0.55334900  0.98141400  0.75434500  1
  O  O7  1  0.01858600  0.57193500  0.75434500  1
  O  O8  1  0.42806500  0.44665100  0.75434500  1
  O  O9  1  0.44665100  0.01858600  0.25434500  1
  O  O10  1  0.98141400  0.42806500  0.25434500  1
  O  O11  1  0.57193500  0.55334900  0.25434500  1
  O  O12  1  0.79494100  0.94898500  0.56503500  1
  O  O13  1  0.05101500  0.84595500  0.56503500  1
  O  O14  1  0.15404500  0.20505900  0.56503500  1
  O  O15  1  0.20505900  0.05101500  0.06503500  1
  O  O16  1  0.94898500  0.15404500  0.06503500  1
  O  O17  1  0.84595500  0.79494100  0.06503500  1
  O  O18  1  0.63924900  0.80935000  0.18655000  1
  O  O19  1  0.19065000  0.82990000  0.18655000  1
  O  O20  1  0.17010000  0.36075100  0.18655000  1
  O  O21  1  0.36075100  0.19065000  0.68655000  1
  O  O22  1  0.80935000  0.17010000  0.68655000  1
  O  O23  1  0.82990000  0.63924900  0.68655000  1
  O  O24  1  0.53175000  0.84680600  0.40242500  1
  O  O25  1  0.15319400  0.68494400  0.40242500  1
  O  O26  1  0.31505600  0.46825000  0.40242500  1
  O  O27  1  0.46825000  0.15319400  0.90242500  1
  O  O28  1  0.84680600  0.31505600  0.90242500  1
  O  O29  1  0.68494400  0.53175000  0.90242500  1
  O  O30  1  0.60800100  0.14073500  0.43258300  1
  O  O31  1  0.85926500  0.46726600  0.43258300  1
  O  O32  1  0.53273400  0.39199900  0.43258300  1
  O  O33  1  0.39199900  0.85926500  0.93258300  1
  O  O34  1  0.14073500  0.53273400  0.93258300  1
  O  O35  1  0.46726600  0.60800100  0.93258300  1
loop_
_geom_bond_atom_site_label_1
_geom_bond_atom_site_label_2
_geom_bond_distance
_geom_bond_site_symmetry_2
In0 O24 2.175205 1_545
In0 O30 2.183193 1_555
In0 O12 2.189811 1_545
In0 O6 2.215003 1_545
In0 O0 2.220436 1_555
In0 O22 2.238033 1_555
In1 O25 2.175205 1_655
In1 O31 2.183192 1_555
In1 O13 2.189799 1_655
In1 O7 2.215003 1_655
In1 O1 2.220437 1_555
In1 O23 2.238029 1_555
In2 O26 2.175205 1_555
In2 O32 2.183192 1_555
In2 O14 2.189801 1_555
In2 O8 2.215003 1_555
In2 O2 2.220437 1_555
In2 O21 2.238039 1_555
In3 O27 2.175205 1_564
In3 O33 2.183193 1_554
In3 O15 2.189811 1_565
In3 O9 2.215003 1_565
In3 O3 2.220436 1_554
In3 O19 2.238033 1_555
In4 O28 2.175205 1_454
In4 O34 2.183192 1_554
In4 O16 2.189799 1_455
In4 O10 2.215003 1_455
In4 O4 2.220437 1_554
In4 O20 2.238029 1_555
In5 O29 2.175205 1_554
In5 O35 2.183192 1_554
In5 O17 2.189801 1_555
In5 O11 2.215003 1_555
In5 O5 2.220437 1_554
In5 O18 2.238039 1_555
C0 H0 1.103369 1_555
C0 O6 1.269668 1_555
C0 O33 1.273886 1_555
C1 H1 1.103369 1_555
C1 O7 1.269668 1_555
C1 O34 1.273886 1_555
C2 H2 1.103369 1_555
C2 O8 1.269669 1_555
C2 O35 1.273886 1_555
C3 H3 1.103369 1_555
C3 O9 1.269668 1_555
C3 O30 1.273886 1_555
C4 H4 1.103369 1_555
C4 O10 1.269668 1_555
C4 O31 1.273886 1_555
C5 H5 1.103369 1_555
C5 O11 1.269669 1_555
C5 O32 1.273886 1_555
C6 H6 1.104007 1_555
C6 O18 1.269728 1_555
C6 O24 1.274305 1_555
C7 H7 1.104007 1_555
C7 O19 1.269738 1_555
C7 O25 1.274304 1_555
C8 H8 1.104007 1_555
C8 O20 1.269730 1_555
C8 O26 1.274305 1_555
C9 H9 1.104007 1_555
C9 O21 1.269728 1_555
C9 O27 1.274305 1_555
C10 H10 1.104007 1_555
C10 O22 1.269738 1_555
C10 O28 1.274304 1_555
C11 H11 1.104007 1_555
C11 O23 1.269730 1_555
C11 O29 1.274305 1_555
C12 H12 1.104188 1_545
C12 O0 1.271796 1_555
C12 O16 1.273839 1_555
C13 H13 1.104188 1_655
C13 O1 1.271796 1_555
C13 O17 1.273845 1_555
C14 H14 1.104188 1_555
C14 O2 1.271796 1_555
C14 O15 1.273835 1_555
C15 H15 1.104188 1_565
C15 O3 1.271796 1_555
C15 O13 1.273839 1_555
C16 H16 1.104188 1_455
C16 O4 1.271796 1_555
C16 O14 1.273845 1_555
C17 H17 1.104188 1_555
C17 O5 1.271796 1_555
C17 O12 1.273835 1_555
