# generated using pymatgen
data_AlCoO3
_symmetry_space_group_name_H-M   'P 1'
_cell_length_a   4.76980900
_cell_length_b   4.92083200
_cell_length_c   7.30050200
_cell_angle_alpha   90.00000000
_cell_angle_beta   90.00000000
_cell_angle_gamma   90.00000000
_symmetry_Int_Tables_number   1
_chemical_formula_structural   AlCoO3
_chemical_formula_sum   'Al4 Co4 O12'
_cell_volume   171.35321261
_cell_formula_units_Z   4
loop_
 _symmetry_equiv_pos_site_id
 _symmetry_equiv_pos_as_xyz
  1  'x, y, z'
loop_
 _atom_site_type_symbol
 _atom_site_label
 _atom_site_symmetry_multiplicity
 _atom_site_fract_x
 _atom_site_fract_y
 _atom_site_fract_z
 _atom_site_occupancy
  Al  Al0  1  0.52303300  0.93329000  0.75000000  1
  Al  Al1  1  0.02303300  0.56671000  0.25000000  1
  Al  Al2  1  0.97696700  0.43329000  0.75000000  1
  Al  Al3  1  0.47696700  0.06671000  0.25000000  1
  Co  Co0  1  0.50000000  0.50000000  0.50000000  1
  Co  Co1  1  0.00000000  0.00000000  0.50000000  1
  Co  Co2  1  0.00000000  0.00000000  0.00000000  1
  Co  Co3  1  0.50000000  0.50000000  0.00000000  1
  O  O0  1  0.17877900  0.31870000  0.41685200  1
  O  O1  1  0.67877900  0.18130000  0.58314800  1
  O  O2  1  0.32122100  0.81870000  0.08314800  1
  O  O3  1  0.82122100  0.68130000  0.91685200  1
  O  O4  1  0.82122100  0.68130000  0.58314800  1
  O  O5  1  0.32122100  0.81870000  0.41685200  1
  O  O6  1  0.67877900  0.18130000  0.91685200  1
  O  O7  1  0.17877900  0.31870000  0.08314800  1
  O  O8  1  0.65135000  0.41497000  0.25000000  1
  O  O9  1  0.15135000  0.08503000  0.75000000  1
  O  O10  1  0.84865000  0.91497000  0.25000000  1
  O  O11  1  0.34865000  0.58503000  0.75000000  1
loop_
_geom_bond_atom_site_label_1
_geom_bond_atom_site_label_2
_geom_bond_distance
_geom_bond_site_symmetry_2
Al0 O1 1.877514 1_565
Al0 O6 1.877514 1_565
Al0 O11 1.904918 1_555
Al0 O9 1.923685 1_565
Al0 O4 2.245955 1_555
Al0 O3 2.245955 1_555
Al1 O0 1.877514 1_555
Al1 O7 1.877514 1_555
Al1 O10 1.904918 1_455
Al1 O8 1.923685 1_455
Al1 O5 2.245955 1_555
Al1 O2 2.245955 1_555
Al2 O4 1.877514 1_555
Al2 O3 1.877514 1_555
Al2 O9 1.904918 1_655
Al2 O11 1.923685 1_655
Al2 O1 2.245955 1_555
Al2 O6 2.245955 1_555
Al3 O2 1.877514 1_545
Al3 O5 1.877514 1_545
Al3 O8 1.904918 1_555
Al3 O10 1.923685 1_545
Al3 O0 2.245955 1_555
Al3 O7 2.245955 1_555
Co0 O0 1.874013 1_555
Co0 O4 1.874013 1_555
Co0 O1 1.885501 1_555
Co0 O5 1.885501 1_555
Co0 O8 2.006816 1_555
Co0 O11 2.006816 1_555
Co1 O5 1.874013 1_545
Co1 O1 1.874013 1_455
Co1 O4 1.885501 1_445
Co1 O0 1.885501 1_555
Co1 O10 2.006816 1_445
Co1 O9 2.006816 1_555
Co2 O2 1.874013 1_545
Co2 O6 1.874013 1_454
Co2 O3 1.885501 1_444
Co2 O7 1.885501 1_555
Co2 O10 2.006816 1_445
Co2 O9 2.006816 1_554
Co3 O3 1.874013 1_554
Co3 O7 1.874013 1_555
Co3 O6 1.885501 1_554
Co3 O2 1.885501 1_555
Co3 O8 2.006816 1_555
Co3 O11 2.006816 1_554
