# generated using pymatgen
data_MgVCr2Fe3(PO4)6
_symmetry_space_group_name_H-M   'P 1'
_cell_length_a   8.69399603
_cell_length_b   8.69059271
_cell_length_c   8.78123841
_cell_angle_alpha   59.99283937
_cell_angle_beta   63.62633335
_cell_angle_gamma   60.31109212
_symmetry_Int_Tables_number   1
_chemical_formula_structural   MgVCr2Fe3(PO4)6
_chemical_formula_sum   'Mg1 V1 Cr2 Fe3 P6 O24'
_cell_volume   481.79066597
_cell_formula_units_Z   1
loop_
 _symmetry_equiv_pos_site_id
 _symmetry_equiv_pos_as_xyz
  1  'x, y, z'
loop_
 _atom_site_type_symbol
 _atom_site_label
 _atom_site_symmetry_multiplicity
 _atom_site_fract_x
 _atom_site_fract_y
 _atom_site_fract_z
 _atom_site_occupancy
  Mg  Mg0  1  0.63643400  0.12578700  0.10399600  1
  V  V0  1  0.26943700  0.23978200  0.25137000  1
  Cr  Cr0  1  0.02955500  0.99431800  0.98519700  1
  Cr  Cr1  1  0.49307700  0.50178700  0.51206200  1
  Fe  Fe0  1  0.06464100  0.64369800  0.64802300  1
  Fe  Fe1  1  0.46519900  0.84378200  0.83935300  1
  Fe  Fe2  1  0.89458000  0.36686400  0.37205700  1
  P  P0  1  0.27253800  0.24982600  0.54414500  1
  P  P1  1  0.26312900  0.94435300  0.24440400  1
  P  P2  1  0.25312400  0.55159500  0.95409400  1
  P  P3  1  0.78113100  0.44557200  0.02464600  1
  P  P4  1  0.76936600  0.03290900  0.74150100  1
  P  P5  1  0.75119500  0.74539200  0.46041000  1
  O  O0  1  0.09721800  0.11734800  0.29845600  1
  O  O1  1  0.09394000  0.49250300  0.12295300  1
  O  O2  1  0.10052900  0.30369200  0.48106000  1
  O  O3  1  0.26804500  0.08381400  0.72574400  1
  O  O4  1  0.43288600  0.20328300  0.37899100  1
  O  O5  1  0.27816200  0.41480600  0.56150700  1
  O  O6  1  0.24452800  0.93560500  0.08380700  1
  O  O7  1  0.28092800  0.75697900  0.40983400  1
  O  O8  1  0.59831900  0.59215600  0.97916000  1
  O  O9  1  0.25799800  0.56608200  0.77135200  1
  O  O10  1  0.81578500  0.24653600  0.03745800  1
  O  O11  1  0.59707300  0.98183300  0.82236900  1
  O  O12  1  0.42932500  0.00580700  0.18774700  1
  O  O13  1  0.24405400  0.74142800  0.93683400  1
  O  O14  1  0.75760000  0.43276000  0.21785700  1
  O  O15  1  0.42395400  0.37607200  0.01550400  1
  O  O16  1  0.72445800  0.23863300  0.58717700  1
  O  O17  1  0.81260900  0.04303200  0.88949200  1
  O  O18  1  0.71893600  0.58578100  0.44799400  1
  O  O19  1  0.58109600  0.81301900  0.60505900  1
  O  O20  1  0.77488500  0.89754600  0.27128600  1
  O  O21  1  0.92910700  0.65481300  0.51764100  1
  O  O22  1  0.94527100  0.50364300  0.88592300  1
  O  O23  1  0.93894900  0.89747400  0.65384800  1
loop_
_geom_bond_atom_site_label_1
_geom_bond_atom_site_label_2
_geom_bond_distance
_geom_bond_site_symmetry_2
Mg0 O20 1.957740 1_545
Mg0 O10 2.017943 1_555
Mg0 O17 2.027753 1_554
Mg0 O15 2.086150 1_555
Mg0 O12 2.187819 1_555
Mg0 O4 2.462909 1_555
Cr0 O6 2.134124 1_556
Cr0 O13 2.158294 1_555
Cr0 O10 2.163846 1_466
Cr0 O17 2.168972 1_465
Cr0 O3 2.392256 1_565
Cr0 O20 2.590413 1_456
Cr1 O7 2.134007 1_555
Cr1 O5 2.145032 1_555
Cr1 O18 2.175489 1_555
Cr1 O16 2.196538 1_555
Cr1 O9 2.383358 1_555
Cr1 O14 2.688507 1_555
Fe0 O21 1.919337 1_455
Fe0 O22 1.924708 1_455
Fe0 O23 1.933040 1_455
Fe0 O9 2.053609 1_555
Fe0 O5 2.140293 1_555
Fe0 O7 2.271514 1_555
Fe1 O8 1.923208 1_555
Fe1 O19 1.939364 1_555
Fe1 O11 1.951359 1_555
Fe1 O3 2.044643 1_565
Fe1 O13 2.165831 1_555
Fe1 O6 2.337379 1_556
Fe2 O14 1.887113 1_555
Fe2 O18 1.970398 1_555
Fe2 O16 2.010652 1_555
Fe2 O2 2.108762 1_655
Fe2 O0 2.197613 1_655
Fe2 O1 2.257987 1_655
O0 P1 1.588554 1_545
O0 V0 2.032976 1_555
O1 P2 1.580157 1_554
O1 V0 2.038439 1_555
O2 P0 1.595475 1_555
O2 V0 2.052842 1_555
O3 P0 1.524887 1_555
O4 P0 1.562760 1_555
O4 V0 1.997155 1_555
O5 P0 1.541444 1_555
O6 P1 1.530603 1_555
O7 P1 1.539463 1_555
O8 P3 1.535546 1_556
O9 P2 1.528237 1_555
O10 P3 1.553920 1_555
O11 P4 1.530805 1_565
O12 P1 1.574956 1_545
O12 V0 2.006349 1_555
O13 P2 1.543553 1_555
O14 P3 1.567816 1_555
O15 P2 1.571008 1_554
O15 V0 2.036618 1_555
O16 P4 1.593923 1_555
O17 P4 1.555339 1_555
O18 P5 1.605749 1_555
O19 P5 1.537086 1_555
O20 P5 1.522624 1_555
O21 P5 1.534120 1_555
O22 P3 1.526135 1_556
O23 P4 1.526582 1_565
