# generated using pymatgen
data_Rb2Mg2Be3F12
_symmetry_space_group_name_H-M   'P 1'
_cell_length_a   9.92750220
_cell_length_b   9.92750220
_cell_length_c   9.92750220
_cell_angle_alpha   90.00000000
_cell_angle_beta   90.00000000
_cell_angle_gamma   90.00000000
_symmetry_Int_Tables_number   1
_chemical_formula_structural   Rb2Mg2Be3F12
_chemical_formula_sum   'Rb8 Mg8 Be12 F48'
_cell_volume   978.40795689
_cell_formula_units_Z   4
loop_
 _symmetry_equiv_pos_site_id
 _symmetry_equiv_pos_as_xyz
  1  'x, y, z'
loop_
 _atom_site_type_symbol
 _atom_site_label
 _atom_site_symmetry_multiplicity
 _atom_site_fract_x
 _atom_site_fract_y
 _atom_site_fract_z
 _atom_site_occupancy
  Rb  Rb0  1  0.04216442  0.04216442  0.04216442  1
  Rb  Rb1  1  0.45783558  0.95783558  0.54216442  1
  Rb  Rb2  1  0.95783558  0.54216442  0.45783558  1
  Rb  Rb3  1  0.54216442  0.45783558  0.95783558  1
  Rb  Rb4  1  0.81572776  0.81572776  0.81572776  1
  Rb  Rb5  1  0.68427224  0.18427224  0.31572776  1
  Rb  Rb6  1  0.18427224  0.31572776  0.68427224  1
  Rb  Rb7  1  0.31572776  0.68427224  0.18427224  1
  Mg  Mg0  1  0.33492909  0.33492909  0.33492909  1
  Mg  Mg1  1  0.16507091  0.66507091  0.83492909  1
  Mg  Mg2  1  0.66507091  0.83492909  0.16507091  1
  Mg  Mg3  1  0.83492909  0.16507091  0.66507091  1
  Mg  Mg4  1  0.60265215  0.60265215  0.60265215  1
  Mg  Mg5  1  0.89734785  0.39734785  0.10265215  1
  Mg  Mg6  1  0.39734785  0.10265215  0.89734785  1
  Mg  Mg7  1  0.10265215  0.89734785  0.39734785  1
  Be  Be0  1  0.02060559  0.20763636  0.37511192  1
  Be  Be1  1  0.47939441  0.79236364  0.87511192  1
  Be  Be2  1  0.97939441  0.70763636  0.12488808  1
  Be  Be3  1  0.37511192  0.02060559  0.20763636  1
  Be  Be4  1  0.52060559  0.29236364  0.62488808  1
  Be  Be5  1  0.87511192  0.47939441  0.79236364  1
  Be  Be6  1  0.12488808  0.97939441  0.70763636  1
  Be  Be7  1  0.62488808  0.52060559  0.29236364  1
  Be  Be8  1  0.20763636  0.37511192  0.02060559  1
  Be  Be9  1  0.70763636  0.12488808  0.97939441  1
  Be  Be10  1  0.29236364  0.62488808  0.52060559  1
  Be  Be11  1  0.79236364  0.87511192  0.47939441  1
  F  F0  1  0.00927853  0.05927990  0.32998058  1
  F  F1  1  0.49072147  0.94072010  0.82998058  1
  F  F2  1  0.99072147  0.55927990  0.17001942  1
  F  F3  1  0.32998058  0.00927853  0.05927990  1
  F  F4  1  0.50927853  0.44072010  0.67001942  1
  F  F5  1  0.82998058  0.49072147  0.94072010  1
  F  F6  1  0.17001942  0.99072147  0.55927990  1
  F  F7  1  0.67001942  0.50927853  0.44072010  1
  F  F8  1  0.05927990  0.32998058  0.00927853  1
  F  F9  1  0.55927990  0.17001942  0.99072147  1
  F  F10  1  0.44072010  0.67001942  0.50927853  1
  F  F11  1  0.94072010  0.82998058  0.49072147  1
  F  F12  1  0.26841404  0.49312767  0.43845977  1
  F  F13  1  0.23158596  0.50687233  0.93845977  1
  F  F14  1  0.73158596  0.99312767  0.06154023  1
  F  F15  1  0.43845977  0.26841404  0.49312767  1
  F  F16  1  0.76841404  0.00687233  0.56154023  1
  F  F17  1  0.93845977  0.23158596  0.50687233  1
  F  F18  1  0.06154023  0.73158596  0.99312767  1
  F  F19  1  0.56154023  0.76841404  0.00687233  1
  F  F20  1  0.49312767  0.43845977  0.26841404  1
  F  F21  1  0.99312767  0.06154023  0.73158596  1
  F  F22  1  0.00687233  0.56154023  0.76841404  1
  F  F23  1  0.50687233  0.93845977  0.23158596  1
  F  F24  1  0.04674618  0.79848671  0.23343188  1
  F  F25  1  0.45325382  0.20151329  0.73343188  1
  F  F26  1  0.95325382  0.29848671  0.26656812  1
  F  F27  1  0.23343188  0.04674618  0.79848671  1
  F  F28  1  0.54674618  0.70151329  0.76656812  1
  F  F29  1  0.73343188  0.45325382  0.20151329  1
  F  F30  1  0.26656812  0.95325382  0.29848671  1
  F  F31  1  0.76656812  0.54674618  0.70151329  1
  F  F32  1  0.79848671  0.23343188  0.04674618  1
  F  F33  1  0.29848671  0.26656812  0.95325382  1
  F  F34  1  0.70151329  0.76656812  0.54674618  1
  F  F35  1  0.20151329  0.73343188  0.45325382  1
  F  F36  1  0.16766045  0.24984840  0.39950063  1
  F  F37  1  0.33233955  0.75015160  0.89950063  1
  F  F38  1  0.83233955  0.74984840  0.10049937  1
  F  F39  1  0.39950063  0.16766045  0.24984840  1
  F  F40  1  0.66766045  0.25015160  0.60049937  1
  F  F41  1  0.89950063  0.33233955  0.75015160  1
  F  F42  1  0.10049937  0.83233955  0.74984840  1
  F  F43  1  0.60049937  0.66766045  0.25015160  1
  F  F44  1  0.24984840  0.39950063  0.16766045  1
  F  F45  1  0.74984840  0.10049937  0.83233955  1
  F  F46  1  0.25015160  0.60049937  0.66766045  1
  F  F47  1  0.75015160  0.89950063  0.33233955  1
loop_
_geom_bond_atom_site_label_1
_geom_bond_atom_site_label_2
_geom_bond_distance
_geom_bond_site_symmetry_2
Be0 F36 1.538020 1_555
Be0 F0 1.543552 1_555
Be0 F26 1.556175 1_455
Be0 F17 1.559671 1_455
Be1 F37 1.538020 1_555
Be1 F1 1.543552 1_555
Be1 F28 1.556175 1_555
Be1 F19 1.559671 1_556
Be2 F38 1.538020 1_555
Be2 F2 1.543552 1_555
Be2 F24 1.556175 1_655
Be2 F18 1.559671 1_654
Be3 F39 1.538020 1_555
Be3 F3 1.543552 1_555
Be3 F30 1.556175 1_545
Be3 F23 1.559671 1_545
Be4 F40 1.538020 1_555
Be4 F4 1.543552 1_555
Be4 F25 1.556175 1_555
Be4 F15 1.559671 1_555
Be5 F41 1.538020 1_555
Be5 F5 1.543552 1_555
Be5 F31 1.556175 1_555
Be5 F22 1.559671 1_655
Be6 F42 1.538020 1_555
Be6 F6 1.543552 1_555
Be6 F27 1.556175 1_565
Be6 F21 1.559671 1_465
Be7 F43 1.538020 1_555
Be7 F7 1.543552 1_555
Be7 F29 1.556175 1_555
Be7 F20 1.559671 1_555
Be8 F44 1.538020 1_555
Be8 F8 1.543552 1_555
Be8 F33 1.556175 1_554
Be8 F13 1.559671 1_554
Be9 F45 1.538020 1_555
Be9 F9 1.543552 1_555
Be9 F32 1.556175 1_556
Be9 F14 1.559671 1_546
Be10 F46 1.538020 1_555
Be10 F10 1.543552 1_555
Be10 F35 1.556175 1_555
Be10 F12 1.559671 1_555
Be11 F47 1.538020 1_555
Be11 F11 1.543552 1_555
Be11 F34 1.556175 1_555
Be11 F16 1.559671 1_565
F0 Mg7 1.972527 1_545
F0 Rb0 2.880902 1_555
F1 Mg6 1.972527 1_565
F1 Rb1 2.880902 1_555
F2 Mg5 1.972527 1_555
F2 Rb2 2.880902 1_555
F3 Mg6 1.972527 1_554
F3 Rb0 2.880902 1_555
F4 Mg4 1.972527 1_555
F4 Rb3 2.880902 1_555
F5 Mg5 1.972527 1_556
F5 Rb3 2.880902 1_555
F6 Mg7 1.972527 1_555
F6 Rb1 2.880902 1_555
F7 Mg4 1.972527 1_555
F7 Rb2 2.880902 1_555
F8 Mg5 1.972527 1_455
F8 Rb0 2.880902 1_555
F9 Mg6 1.972527 1_555
F9 Rb3 2.880902 1_555
F10 Mg4 1.972527 1_555
F10 Rb1 2.880902 1_555
F11 Mg7 1.972527 1_655
F11 Rb2 2.880902 1_555
F12 Mg0 1.989706 1_555
F12 Rb6 3.123211 1_555
F12 Rb2 3.127384 1_455
F12 Rb7 3.192061 1_555
F13 Mg1 1.989706 1_555
F13 Rb7 3.123211 1_556
F13 Rb3 3.127384 1_555
F13 Rb6 3.192061 1_555
F14 Mg2 1.989706 1_555
F14 Rb4 3.123211 1_554
F14 Rb0 3.127384 1_665
F14 Rb5 3.192061 1_565
F15 Mg0 1.989706 1_555
F15 Rb5 3.123211 1_555
F15 Rb1 3.127384 1_545
F15 Rb6 3.192061 1_555
F16 Mg3 1.989706 1_555
F16 Rb5 3.123211 1_555
F16 Rb1 3.127384 1_545
F16 Rb4 3.192061 1_545
F17 Mg3 1.989706 1_555
F17 Rb6 3.123211 1_655
F17 Rb2 3.127384 1_555
F17 Rb5 3.192061 1_555
F18 Mg1 1.989706 1_555
F18 Rb4 3.123211 1_455
F18 Rb0 3.127384 1_566
F18 Rb7 3.192061 1_556
F19 Mg2 1.989706 1_555
F19 Rb7 3.123211 1_555
F19 Rb3 3.127384 1_554
F19 Rb4 3.192061 1_554
F20 Mg0 1.989706 1_555
F20 Rb7 3.123211 1_555
F20 Rb3 3.127384 1_554
F20 Rb5 3.192061 1_555
F21 Mg3 1.989706 1_555
F21 Rb4 3.123211 1_545
F21 Rb0 3.127384 1_656
F21 Rb6 3.192061 1_655
F22 Mg1 1.989706 1_555
F22 Rb6 3.123211 1_555
F22 Rb2 3.127384 1_455
F22 Rb4 3.192061 1_455
F23 Mg2 1.989706 1_555
F23 Rb5 3.123211 1_565
F23 Rb1 3.127384 1_555
F23 Rb7 3.192061 1_555
F24 Mg7 1.979720 1_555
F24 Rb7 2.941837 1_555
F24 Rb0 3.075653 1_565
F25 Mg6 1.979720 1_555
F25 Rb6 2.941837 1_555
F25 Rb1 3.075653 1_545
F26 Mg5 1.979720 1_555
F26 Rb5 2.941837 1_555
F26 Rb2 3.075653 1_555
F27 Mg6 1.979720 1_555
F27 Rb6 2.941837 1_555
F27 Rb0 3.075653 1_556
F28 Mg4 1.979720 1_555
F28 Rb4 2.941837 1_555
F28 Rb3 3.075653 1_555
F29 Mg5 1.979720 1_555
F29 Rb5 2.941837 1_555
F29 Rb3 3.075653 1_554
F30 Mg7 1.979720 1_555
F30 Rb7 2.941837 1_555
F30 Rb1 3.075653 1_555
F31 Mg4 1.979720 1_555
F31 Rb4 2.941837 1_555
F31 Rb2 3.075653 1_555
F32 Mg5 1.979720 1_555
F32 Rb5 2.941837 1_555
F32 Rb0 3.075653 1_655
F33 Mg6 1.979720 1_555
F33 Rb6 2.941837 1_555
F33 Rb3 3.075653 1_555
F34 Mg4 1.979720 1_555
F34 Rb4 2.941837 1_555
F34 Rb1 3.075653 1_555
F35 Mg7 1.979720 1_555
F35 Rb7 2.941837 1_555
F35 Rb2 3.075653 1_455
F36 Mg0 1.970228 1_555
F36 Rb6 2.906418 1_555
F37 Mg1 1.970228 1_555
F37 Rb7 2.906418 1_556
F38 Mg2 1.970228 1_555
F38 Rb4 2.906418 1_554
F39 Mg0 1.970228 1_555
F39 Rb5 2.906418 1_555
F40 Mg3 1.970228 1_555
F40 Rb5 2.906418 1_555
F41 Mg3 1.970228 1_555
F41 Rb6 2.906418 1_655
F42 Mg1 1.970228 1_555
F42 Rb4 2.906418 1_455
F43 Mg2 1.970228 1_555
F43 Rb7 2.906418 1_555
F44 Mg0 1.970228 1_555
F44 Rb7 2.906418 1_555
F45 Mg3 1.970228 1_555
F45 Rb4 2.906418 1_545
F46 Mg1 1.970228 1_555
F46 Rb6 2.906418 1_555
F47 Mg2 1.970228 1_555
F47 Rb5 2.906418 1_565
