# generated using pymatgen
data_HgPdF4
_symmetry_space_group_name_H-M   'P 1'
_cell_length_a   5.57267500
_cell_length_b   5.57428900
_cell_length_c   5.63743275
_cell_angle_alpha   89.46828119
_cell_angle_beta   90.00000000
_cell_angle_gamma   90.00000000
_symmetry_Int_Tables_number   1
_chemical_formula_structural   HgPdF4
_chemical_formula_sum   'Hg2 Pd2 F8'
_cell_volume   175.11198438
_cell_formula_units_Z   2
loop_
 _symmetry_equiv_pos_site_id
 _symmetry_equiv_pos_as_xyz
  1  'x, y, z'
loop_
 _atom_site_type_symbol
 _atom_site_label
 _atom_site_symmetry_multiplicity
 _atom_site_fract_x
 _atom_site_fract_y
 _atom_site_fract_z
 _atom_site_occupancy
  Hg  Hg0  1  0.50000000  0.00000000  0.50000000  1
  Hg  Hg1  1  0.00000000  0.50000000  0.50000000  1
  Pd  Pd0  1  0.50000000  0.50000000  0.00000000  1
  Pd  Pd1  1  0.00000000  0.00000000  0.00000000  1
  F  F0  1  0.82820700  0.67580900  0.84653000  1
  F  F1  1  0.32820700  0.82419100  0.15347000  1
  F  F2  1  0.15437000  0.14636300  0.67084400  1
  F  F3  1  0.65437000  0.35363700  0.32915600  1
  F  F4  1  0.17179300  0.32419100  0.15347000  1
  F  F5  1  0.67179300  0.17580900  0.84653000  1
  F  F6  1  0.84563000  0.85363700  0.32915600  1
  F  F7  1  0.34563000  0.64636300  0.67084400  1
loop_
_geom_bond_atom_site_label_1
_geom_bond_atom_site_label_2
_geom_bond_distance
_geom_bond_site_symmetry_2
F0 Pd1 2.227060 1_666
F0 Pd0 2.244643 1_556
F0 Hg1 2.393488 1_655
F1 Pd0 2.227060 1_555
F1 Pd1 2.244643 1_565
F1 Hg0 2.393488 1_565
F2 Pd1 2.195635 1_556
F2 Hg0 2.305998 1_555
F2 Hg1 2.349112 1_555
F3 Pd0 2.195635 1_555
F3 Hg1 2.305998 1_655
F3 Hg0 2.349112 1_555
F4 Pd1 2.227060 1_555
F4 Pd0 2.244643 1_555
F4 Hg1 2.393488 1_555
F5 Pd0 2.227060 1_556
F5 Pd1 2.244643 1_656
F5 Hg0 2.393488 1_555
F6 Pd1 2.195635 1_665
F6 Hg0 2.305998 1_565
F6 Hg1 2.349112 1_655
F7 Pd0 2.195635 1_556
F7 Hg1 2.305998 1_555
F7 Hg0 2.349112 1_565
