# generated using pymatgen
data_CaMn9CdO10
_symmetry_space_group_name_H-M   'P 1'
_cell_length_a   5.85868377
_cell_length_b   9.19199962
_cell_length_c   6.04749422
_cell_angle_alpha   70.68713065
_cell_angle_beta   111.48057626
_cell_angle_gamma   96.73630504
_symmetry_Int_Tables_number   1
_chemical_formula_structural   CaMn9CdO10
_chemical_formula_sum   'Ca1 Mn9 Cd1 O10'
_cell_volume   285.99835903
_cell_formula_units_Z   1
loop_
 _symmetry_equiv_pos_site_id
 _symmetry_equiv_pos_as_xyz
  1  'x, y, z'
loop_
 _atom_site_type_symbol
 _atom_site_label
 _atom_site_symmetry_multiplicity
 _atom_site_fract_x
 _atom_site_fract_y
 _atom_site_fract_z
 _atom_site_occupancy
  Ca  Ca0  1  0.15670400  0.79950400  0.00413100  1
  Mn  Mn0  1  0.49389000  0.38007400  0.32918400  1
  Mn  Mn1  1  0.96921100  0.09263800  0.98241700  1
  Mn  Mn2  1  0.51688400  0.00488700  0.43600200  1
  Mn  Mn3  1  0.96867600  0.50738700  0.27879900  1
  Mn  Mn4  1  0.02210100  0.17128600  0.46477200  1
  Mn  Mn5  1  0.49344600  0.21948800  0.90646200  1
  Mn  Mn6  1  0.51943800  0.59465100  0.64686200  1
  Mn  Mn7  1  0.02738300  0.42769400  0.84372400  1
  Mn  Mn8  1  0.91604700  0.79878900  0.42805700  1
  Cd  Cd0  1  0.61727400  0.80407400  0.96016500  1
  O  O0  1  0.76883000  0.05165800  0.22982600  1
  O  O1  1  0.71167600  0.41092700  0.01918200  1
  O  O2  1  0.70732000  0.18459600  0.62611000  1
  O  O3  1  0.76996400  0.54570700  0.48787700  1
  O  O4  1  0.23981100  0.20658900  0.20371100  1
  O  O5  1  0.26084900  0.80147100  0.41623400  1
  O  O6  1  0.77975000  0.79931800  0.68362800  1
  O  O7  1  0.21732300  0.04925800  0.83045700  1
  O  O8  1  0.24457600  0.39616400  0.61410400  1
  O  O9  1  0.21789500  0.55071600  0.08448700  1
loop_
_geom_bond_atom_site_label_1
_geom_bond_atom_site_label_2
_geom_bond_distance
_geom_bond_site_symmetry_2
Ca0 O9 2.219023 1_555
Ca0 O7 2.233086 1_564
Ca0 O5 2.344608 1_555
Ca0 O6 2.345299 1_454
Mn0 O9 2.138224 1_555
Mn0 O4 2.179646 1_555
Mn0 O2 2.182901 1_555
Mn0 O3 2.259876 1_555
Mn0 O1 2.557026 1_555
Mn0 O8 2.680811 1_555
Mn1 O4 2.094102 1_656
Mn1 O2 2.095205 1_555
Mn1 O7 2.114992 1_655
Mn1 O0 2.137427 1_556
Mn2 O0 2.182359 1_555
Mn2 O5 2.262533 1_545
Mn2 O2 2.275891 1_555
Mn2 O6 2.303653 1_545
Mn2 O4 2.314986 1_555
Mn3 O8 2.094218 1_655
Mn3 O1 2.096316 1_555
Mn3 O9 2.117060 1_655
Mn3 O3 2.132360 1_555
Mn4 O7 2.065117 1_555
Mn4 O0 2.129861 1_455
Mn4 O4 2.294230 1_555
Mn4 O2 2.411995 1_455
Mn4 O8 2.554972 1_555
Mn5 O7 2.148034 1_555
Mn5 O8 2.158138 1_555
Mn5 O1 2.196189 1_556
Mn5 O0 2.254959 1_556
Mn5 O2 2.560705 1_555
Mn5 O4 2.688411 1_556
Mn6 O3 2.180745 1_555
Mn6 O5 2.286687 1_555
Mn6 O1 2.294347 1_556
Mn6 O6 2.295615 1_555
Mn6 O8 2.297249 1_555
Mn7 O9 2.060894 1_556
Mn7 O3 2.131910 1_455
Mn7 O8 2.297445 1_555
Mn7 O1 2.415176 1_456
Mn7 O4 2.470105 1_556
Mn8 O6 1.983980 1_555
Mn8 O5 2.044358 1_655
Mn8 O0 2.335314 1_565
Mn8 O3 2.340549 1_555
Cd0 O6 2.220086 1_555
