# generated using pymatgen
data_MgV4(CuO4)3
_symmetry_space_group_name_H-M   'P 1'
_cell_length_a   6.61903399
_cell_length_b   6.33951425
_cell_length_c   6.45684604
_cell_angle_alpha   107.74118839
_cell_angle_beta   110.68698384
_cell_angle_gamma   107.84505998
_symmetry_Int_Tables_number   1
_chemical_formula_structural   MgV4(CuO4)3
_chemical_formula_sum   'Mg1 V4 Cu3 O12'
_cell_volume   213.76192282
_cell_formula_units_Z   1
loop_
 _symmetry_equiv_pos_site_id
 _symmetry_equiv_pos_as_xyz
  1  'x, y, z'
loop_
 _atom_site_type_symbol
 _atom_site_label
 _atom_site_symmetry_multiplicity
 _atom_site_fract_x
 _atom_site_fract_y
 _atom_site_fract_z
 _atom_site_occupancy
  Mg  Mg0  1  0.67363200  0.53912100  0.13369900  1
  V  V0  1  0.52224600  0.50471000  0.51468000  1
  V  V1  1  0.01157800  0.50806700  0.01459000  1
  V  V2  1  0.01431300  0.00077600  0.50577300  1
  V  V3  1  0.52590000  0.99793000  0.00796800  1
  Cu  Cu0  1  0.01938700  0.51116400  0.51009000  1
  Cu  Cu1  1  0.28512200  0.42395700  0.86101500  1
  Cu  Cu2  1  0.51977000  0.00655300  0.51313900  1
  O  O0  1  0.12608200  0.82388100  0.32497700  1
  O  O1  1  0.82225300  0.68524000  0.50050900  1
  O  O2  1  0.31610500  0.50409400  0.19184400  1
  O  O3  1  0.21102600  0.69871000  0.88391500  1
  O  O4  1  0.73896300  0.52652600  0.83972500  1
  O  O5  1  0.21409000  0.32892500  0.52256200  1
  O  O6  1  0.71468300  0.89419600  0.19488500  1
  O  O7  1  0.34592600  0.13673300  0.83825900  1
  O  O8  1  0.83386600  0.32012300  0.14162000  1
  O  O9  1  0.52792500  0.81446100  0.69504600  1
  O  O10  1  0.50802800  0.20101300  0.33249700  1
  O  O11  1  0.89202200  0.17798700  0.69195600  1
loop_
_geom_bond_atom_site_label_1
_geom_bond_atom_site_label_2
_geom_bond_distance
_geom_bond_site_symmetry_2
Mg0 O1 1.973220 1_555
Mg0 O8 1.990571 1_555
Mg0 O6 2.074667 1_555
Mg0 O4 2.074860 1_554
Mg0 O7 2.360281 1_554
Mg0 O2 2.479306 1_555
Mg0 O0 2.543128 1_655
Cu0 O1 1.947145 1_455
Cu0 O5 1.974332 1_555
Cu0 O8 1.975705 1_455
Cu0 O3 2.003055 1_555
Cu1 O5 1.912542 1_555
Cu1 O3 1.927202 1_555
Cu1 O7 1.956265 1_555
Cu1 O2 1.956630 1_556
Cu1 O11 2.205099 1_455
Cu1 Mg0 2.261183 1_556
Cu2 O9 1.931999 1_545
Cu2 O10 1.938351 1_555
Cu2 O11 2.041903 1_555
Cu2 O0 2.159576 1_545
O0 V2 1.867749 1_565
O0 V1 2.037364 1_555
O1 V2 1.997026 1_665
O1 V0 2.015127 1_555
O2 V1 1.947366 1_555
O2 V0 2.046746 1_555
O3 V3 2.013728 1_556
O3 V1 2.084698 1_556
O4 V1 1.820723 1_656
O4 V0 2.013968 1_555
O5 V0 2.029683 1_555
O5 V2 2.040417 1_555
O6 V3 1.836381 1_555
O6 V2 1.989651 1_665
O7 V3 1.924045 1_546
O7 V2 2.133801 1_555
O8 V1 1.973389 1_655
O8 V3 2.050131 1_545
O9 V0 1.934896 1_555
O9 V3 2.007949 1_556
O10 V0 1.878791 1_555
O10 V3 2.164884 1_545
O11 V2 1.945317 1_655
O11 V1 2.123305 1_656
