# generated using pymatgen
data_Ba2OsO4
_symmetry_space_group_name_H-M   'P 1'
_cell_length_a   7.40790737
_cell_length_b   7.40790737
_cell_length_c   7.40790737
_cell_angle_alpha   148.51627620
_cell_angle_beta   148.51627620
_cell_angle_gamma   45.12381278
_symmetry_Int_Tables_number   1
_chemical_formula_structural   Ba2OsO4
_chemical_formula_sum   'Ba2 Os1 O4'
_cell_volume   110.52967057
_cell_formula_units_Z   1
loop_
 _symmetry_equiv_pos_site_id
 _symmetry_equiv_pos_as_xyz
  1  'x, y, z'
loop_
 _atom_site_type_symbol
 _atom_site_label
 _atom_site_symmetry_multiplicity
 _atom_site_fract_x
 _atom_site_fract_y
 _atom_site_fract_z
 _atom_site_occupancy
  Ba  Ba0  1  0.64677100  0.64677100  0.00000000  1
  Ba  Ba1  1  0.35322900  0.35322900  0.00000000  1
  Os  Os0  1  0.00000000  0.00000000  0.00000000  1
  O  O0  1  0.84571900  0.84571900  0.00000000  1
  O  O1  1  0.15428100  0.15428100  0.00000000  1
  O  O2  1  0.50000000  0.00000000  0.50000000  1
  O  O3  1  0.00000000  0.50000000  0.50000000  1
loop_
_geom_bond_atom_site_label_1
_geom_bond_atom_site_label_2
_geom_bond_distance
_geom_bond_site_symmetry_2
Ba0 O0 2.721985 1_555
Ba0 O2 2.841083 1_554
Ba0 O3 2.841083 1_655
Ba0 O2 2.841083 1_565
Ba0 O3 2.841083 1_554
Ba0 O1 2.844133 1_666
Ba0 O1 2.844133 1_565
Ba0 O1 2.844133 1_554
Ba0 O1 2.844133 1_655
Ba1 O1 2.721985 1_555
Ba1 O3 2.841083 1_655
Ba1 O2 2.841083 1_554
Ba1 O3 2.841083 1_554
Ba1 O2 2.841083 1_565
Ba1 O0 2.844133 1_455
Ba1 O0 2.844133 1_556
Ba1 O0 2.844133 1_545
Ba1 O0 2.844133 1_444
O0 Os0 2.110856 1_665
O1 Os0 2.110856 1_555
O2 Os0 2.009793 1_656
O2 Os0 2.009793 1_555
O3 Os0 2.009793 1_566
O3 Os0 2.009793 1_555
