# generated using pymatgen
data_U2Al3Cu7
_symmetry_space_group_name_H-M   'P 1'
_cell_length_a   4.15557300
_cell_length_b   5.07489897
_cell_length_c   8.80272722
_cell_angle_alpha   91.32444640
_cell_angle_beta   90.00000000
_cell_angle_gamma   90.00000000
_symmetry_Int_Tables_number   1
_chemical_formula_structural   U2Al3Cu7
_chemical_formula_sum   'U2 Al3 Cu7'
_cell_volume   185.59211369
_cell_formula_units_Z   1
loop_
 _symmetry_equiv_pos_site_id
 _symmetry_equiv_pos_as_xyz
  1  'x, y, z'
loop_
 _atom_site_type_symbol
 _atom_site_label
 _atom_site_symmetry_multiplicity
 _atom_site_fract_x
 _atom_site_fract_y
 _atom_site_fract_z
 _atom_site_occupancy
  U  U0  1  0.00000000  0.00364400  0.99924600  1
  U  U1  1  0.00000000  0.49636100  0.50073700  1
  Al  Al0  1  0.50000000  0.51078200  0.99329400  1
  Al  Al1  1  0.50000000  0.98925900  0.50673000  1
  Al  Al2  1  0.50000000  0.24991200  0.24998000  1
  Cu  Cu0  1  0.00000000  0.99414300  0.33412200  1
  Cu  Cu1  1  0.00000000  0.49910300  0.82990800  1
  Cu  Cu2  1  0.00000000  0.50579900  0.16587100  1
  Cu  Cu3  1  0.00000000  0.00087600  0.67008800  1
  Cu  Cu4  1  0.50000000  0.75004400  0.75000500  1
  Cu  Cu5  1  0.50000000  0.74985500  0.25003900  1
  Cu  Cu6  1  0.50000000  0.25002200  0.74998000  1
loop_
_geom_bond_atom_site_label_1
_geom_bond_atom_site_label_2
_geom_bond_distance
_geom_bond_site_symmetry_2
Al0 Cu4 2.486171 1_555
Al0 Cu6 2.491506 1_555
Al0 Cu1 2.526917 1_555
Al0 Cu1 2.526917 1_655
Al0 Cu5 2.540300 1_556
Al0 Cu2 2.574378 1_556
Al0 Cu2 2.574378 1_656
Al1 Cu4 2.485942 1_555
Al1 Cu6 2.491036 1_565
Al1 Cu3 2.526774 1_565
Al1 Cu3 2.526774 1_665
Al1 Cu5 2.540650 1_555
Al1 Cu0 2.574528 1_655
Al1 Cu0 2.574528 1_555
Al2 Cu5 2.537148 1_555
Al2 Cu5 2.537751 1_545
Al2 Cu0 2.568084 1_545
Al2 Cu0 2.568084 1_645
Al2 Cu2 2.568303 1_555
Al2 Cu2 2.568303 1_655
Cu0 Cu5 2.521817 1_555
Cu0 Cu5 2.521817 1_455
Cu0 U1 2.911049 1_565
Cu0 U0 2.949330 1_564
Cu0 U1 2.950261 1_555
Cu0 Cu3 2.956825 1_565
Cu1 Cu6 2.523681 1_455
Cu1 Cu6 2.523681 1_555
Cu1 Cu4 2.544627 1_455
Cu1 Cu4 2.544627 1_555
Cu1 Cu3 2.864936 1_555
Cu1 U1 2.897314 1_555
Cu1 U0 2.932863 1_565
Cu1 Cu3 2.937556 1_565
Cu1 U0 2.952540 1_555
Cu1 Cu2 2.956800 1_556
Cu2 Cu5 2.521458 1_555
Cu2 Cu5 2.521458 1_455
Cu2 U0 2.910815 1_554
Cu2 U1 2.949230 1_555
Cu2 U0 2.950584 1_564
Cu3 Cu6 2.523759 1_455
Cu3 Cu6 2.523759 1_555
Cu3 Cu4 2.544383 1_445
Cu3 Cu4 2.544383 1_545
Cu3 U0 2.897197 1_555
Cu3 U1 2.932806 1_545
Cu3 U1 2.952714 1_555
Cu4 Cu6 2.537343 1_565
Cu4 Cu6 2.537556 1_555
Cu4 U0 3.264454 1_565
Cu4 U0 3.264454 1_665
Cu4 U1 3.264771 1_655
Cu4 U1 3.264771 1_555
Cu5 U1 3.312626 1_655
Cu5 U1 3.312626 1_555
Cu5 U0 3.313795 1_564
Cu5 U0 3.313795 1_664
Cu6 U1 3.289464 1_555
Cu6 U1 3.289464 1_655
Cu6 U0 3.289679 1_655
Cu6 U0 3.289679 1_555
