# generated using pymatgen
data_Na3Al4O8
_symmetry_space_group_name_H-M   'P 1'
_cell_length_a   9.09729029
_cell_length_b   9.09729029
_cell_length_c   9.09729029
_cell_angle_alpha   109.47122063
_cell_angle_beta   109.47122063
_cell_angle_gamma   109.47122063
_symmetry_Int_Tables_number   1
_chemical_formula_structural   Na3Al4O8
_chemical_formula_sum   'Na6 Al8 O16'
_cell_volume   579.58117227
_cell_formula_units_Z   2
loop_
 _symmetry_equiv_pos_site_id
 _symmetry_equiv_pos_as_xyz
  1  'x, y, z'
loop_
 _atom_site_type_symbol
 _atom_site_label
 _atom_site_symmetry_multiplicity
 _atom_site_fract_x
 _atom_site_fract_y
 _atom_site_fract_z
 _atom_site_occupancy
  Na  Na0  1  0.50000000  0.75000000  0.25000000  1
  Na  Na1  1  0.50000000  0.25000000  0.75000000  1
  Na  Na2  1  0.25000000  0.50000000  0.75000000  1
  Na  Na3  1  0.75000000  0.50000000  0.25000000  1
  Na  Na4  1  0.75000000  0.25000000  0.50000000  1
  Na  Na5  1  0.25000000  0.75000000  0.50000000  1
  Al  Al0  1  0.31251800  0.31251800  0.31251800  1
  Al  Al1  1  0.68748200  0.68748200  0.68748200  1
  Al  Al2  1  0.00000000  0.00000000  0.68748200  1
  Al  Al3  1  0.00000000  0.68748200  0.00000000  1
  Al  Al4  1  0.00000000  0.00000000  0.31251800  1
  Al  Al5  1  0.00000000  0.31251800  0.00000000  1
  Al  Al6  1  0.68748200  0.00000000  0.00000000  1
  Al  Al7  1  0.31251800  0.00000000  0.00000000  1
  O  O0  1  0.39808300  0.19904200  0.19904200  1
  O  O1  1  0.60191700  0.80095800  0.80095800  1
  O  O2  1  0.00000000  0.19904200  0.80095800  1
  O  O3  1  0.00000000  0.80095800  0.19904200  1
  O  O4  1  0.19904200  0.39808300  0.19904200  1
  O  O5  1  0.80095800  0.00000000  0.19904200  1
  O  O6  1  0.80095800  0.60191700  0.80095800  1
  O  O7  1  0.19904200  0.00000000  0.80095800  1
  O  O8  1  0.19904200  0.19904200  0.39808300  1
  O  O9  1  0.80095800  0.80095800  0.60191700  1
  O  O10  1  0.80095800  0.19904200  0.00000000  1
  O  O11  1  0.19904200  0.80095800  0.00000000  1
  O  O12  1  0.50000000  0.50000000  0.50000000  1
  O  O13  1  0.00000000  0.00000000  0.50000000  1
  O  O14  1  0.00000000  0.50000000  0.00000000  1
  O  O15  1  0.50000000  0.00000000  0.00000000  1
loop_
_geom_bond_atom_site_label_1
_geom_bond_atom_site_label_2
_geom_bond_distance
_geom_bond_site_symmetry_2
Al0 O12 1.705578 1_555
Al0 O8 1.760191 1_555
Al0 O0 1.760191 1_555
Al0 O4 1.760191 1_555
Al1 O12 1.705578 1_555
Al1 O6 1.760191 1_555
Al1 O9 1.760191 1_555
Al1 O1 1.760191 1_555
Al2 O13 1.705578 1_555
Al2 O7 1.760199 1_555
Al2 O2 1.760199 1_555
Al2 O9 1.760201 1_445
Al3 O14 1.705578 1_555
Al3 O11 1.760199 1_555
Al3 O3 1.760199 1_555
Al3 O6 1.760201 1_454
Al4 O13 1.705578 1_555
Al4 O3 1.760199 1_545
Al4 O5 1.760199 1_455
Al4 O8 1.760201 1_555
Al5 O14 1.705578 1_555
Al5 O10 1.760199 1_455
Al5 O2 1.760199 1_554
Al5 O4 1.760201 1_555
Al6 O15 1.705578 1_555
Al6 O10 1.760199 1_555
Al6 O5 1.760199 1_555
Al6 O1 1.760201 1_544
Al7 O15 1.705578 1_555
Al7 O7 1.760199 1_554
Al7 O11 1.760199 1_545
Al7 O0 1.760201 1_555
