# generated using pymatgen
data_BaMgV2ZnO8
_symmetry_space_group_name_H-M   'P 1'
_cell_length_a   9.92201722
_cell_length_b   9.92201722
_cell_length_c   9.92201722
_cell_angle_alpha   128.79146103
_cell_angle_beta   100.77502308
_cell_angle_gamma   100.75205389
_symmetry_Int_Tables_number   1
_chemical_formula_structural   BaMgV2ZnO8
_chemical_formula_sum   'Ba4 Mg4 V8 Zn4 O32'
_cell_volume   686.57528983
_cell_formula_units_Z   4
loop_
 _symmetry_equiv_pos_site_id
 _symmetry_equiv_pos_as_xyz
  1  'x, y, z'
loop_
 _atom_site_type_symbol
 _atom_site_label
 _atom_site_symmetry_multiplicity
 _atom_site_fract_x
 _atom_site_fract_y
 _atom_site_fract_z
 _atom_site_occupancy
  Ba  Ba0  1  0.87519700  0.12500000  0.50022700  1
  Ba  Ba1  1  0.87522600  0.62502900  0.00022700  1
  Ba  Ba2  1  0.37519700  0.37497100  0.25019700  1
  Ba  Ba3  1  0.37522600  0.87500000  0.75019700  1
  Mg  Mg0  1  0.03820900  0.45611500  0.33061900  1
  Mg  Mg1  1  0.37450400  0.29241000  0.83061900  1
  Mg  Mg2  1  0.53820900  0.70759000  0.08209400  1
  Mg  Mg3  1  0.87450400  0.54388500  0.58209400  1
  V  V0  1  0.04506300  0.00000000  0.04506300  1
  V  V1  1  0.54506300  0.00000000  0.54506300  1
  V  V2  1  0.70451700  0.50000000  0.20451700  1
  V  V3  1  0.20451700  0.50000000  0.70451700  1
  V  V4  1  0.54574800  0.42040600  0.62576700  1
  V  V5  1  0.04574800  0.91998100  0.62534200  1
  V  V6  1  0.20536100  0.57959400  0.12534200  1
  V  V7  1  0.70536100  0.08001900  0.12576700  1
  Zn  Zn0  1  0.71133900  0.79365200  0.66844300  1
  Zn  Zn1  1  0.37479100  0.95710400  0.16844300  1
  Zn  Zn2  1  0.21133900  0.04289600  0.41768600  1
  Zn  Zn3  1  0.87479100  0.20634800  0.91768600  1
  O  O0  1  0.03906500  0.00857300  0.22369300  1
  O  O1  1  0.71512000  0.18462800  0.72369300  1
  O  O2  1  0.53906500  0.81537200  0.53049200  1
  O  O3  1  0.21512000  0.99142700  0.03049200  1
  O  O4  1  0.71000100  0.68391900  0.21870500  1
  O  O5  1  0.03478600  0.50870300  0.71870400  1
  O  O6  1  0.21000100  0.49129700  0.52608300  1
  O  O7  1  0.53478600  0.31608100  0.02608300  1
  O  O8  1  0.71541500  0.40634700  0.61644500  1
  O  O9  1  0.03906100  0.90538700  0.44053300  1
  O  O10  1  0.21541500  0.09897000  0.80906800  1
  O  O11  1  0.53906100  0.59852800  0.63367400  1
  O  O12  1  0.03514600  0.40147200  0.94053300  1
  O  O13  1  0.71009800  0.90103000  0.11644500  1
  O  O14  1  0.53514600  0.09461400  0.13367400  1
  O  O15  1  0.21009800  0.59365300  0.30906800  1
  O  O16  1  0.89450800  0.79334600  0.83420400  1
  O  O17  1  0.54085800  0.93969600  0.33420400  1
  O  O18  1  0.39450800  0.06030400  0.60116200  1
  O  O19  1  0.04085800  0.20665400  0.10116200  1
  O  O20  1  0.85652000  0.44055400  0.15059300  1
  O  O21  1  0.21003900  0.29407300  0.65059300  1
  O  O22  1  0.35652000  0.70592700  0.91596600  1
  O  O23  1  0.71003900  0.55944600  0.41596600  1
  O  O24  1  0.53969600  0.47512300  0.83151000  1
  O  O25  1  0.89432600  0.97549000  0.68450800  1
  O  O26  1  0.03969600  0.70818600  0.56457200  1
  O  O27  1  0.39432600  0.20981800  0.41883600  1
  O  O28  1  0.20901800  0.79018200  0.18450800  1
  O  O29  1  0.85638700  0.29181400  0.33151000  1
  O  O30  1  0.70901800  0.02451000  0.91883600  1
  O  O31  1  0.35638700  0.52487700  0.06457200  1
loop_
_geom_bond_atom_site_label_1
_geom_bond_atom_site_label_2
_geom_bond_distance
_geom_bond_site_symmetry_2
Ba0 O9 2.794125 1_645
Ba0 O1 2.795091 1_555
Ba0 O5 2.797709 1_655
Ba0 O13 2.797942 1_545
Ba0 O25 2.992265 1_545
Ba0 O17 2.997455 1_545
Ba0 O21 3.001498 1_655
Ba0 O29 3.007770 1_555
Ba0 O12 3.145914 1_655
Ba0 O0 3.147022 1_655
Ba0 O4 3.152230 1_545
Ba0 O8 3.152334 1_555
Ba1 O12 2.794125 1_654
Ba1 O0 2.795101 1_665
Ba1 O4 2.797705 1_555
Ba1 O8 2.797942 1_554
Ba1 O28 2.992274 1_655
Ba1 O16 2.997465 1_554
Ba1 O20 3.001488 1_555
Ba1 O24 3.007762 1_554
Ba1 O9 3.145914 1_655
Ba1 O1 3.147014 1_554
Ba1 O5 3.152245 1_654
Ba1 O13 3.152334 1_555
Ba2 O11 2.794127 1_555
Ba2 O3 2.795099 1_545
Ba2 O7 2.797705 1_555
Ba2 O15 2.797935 1_555
Ba2 O27 2.992274 1_555
Ba2 O19 2.997456 1_555
Ba2 O23 3.001497 1_555
Ba2 O31 3.007771 1_555
Ba2 O14 3.145914 1_555
Ba2 O2 3.147015 1_555
Ba2 O6 3.152238 1_555
Ba2 O10 3.152333 1_554
Ba3 O14 2.794125 1_566
Ba3 O2 2.795099 1_555
Ba3 O6 2.797707 1_555
Ba3 O10 2.797935 1_565
Ba3 O30 2.992274 1_565
Ba3 O18 2.997456 1_565
Ba3 O22 3.001497 1_555
Ba3 O26 3.007762 1_555
Ba3 O11 3.145921 1_555
Ba3 O3 3.147015 1_556
Ba3 O7 3.152230 1_566
Ba3 O15 3.152333 1_555
Mg0 O19 2.072755 1_555
Mg0 O26 2.083970 1_555
Mg0 O15 2.109566 1_555
Mg0 O6 2.117122 1_555
Mg0 O20 2.193359 1_455
Mg0 O29 2.199747 1_455
Mg1 O18 2.072755 1_555
Mg1 O31 2.083969 1_556
Mg1 O10 2.109566 1_555
Mg1 O7 2.117128 1_556
Mg1 O21 2.193359 1_555
Mg1 O24 2.199747 1_555
Mg2 O17 2.072755 1_555
Mg2 O24 2.083973 1_554
Mg2 O13 2.109566 1_555
Mg2 O4 2.117121 1_555
Mg2 O22 2.193359 1_554
Mg2 O31 2.199741 1_555
Mg3 O16 2.072755 1_555
Mg3 O29 2.083973 1_555
Mg3 O8 2.109566 1_555
Mg3 O5 2.117122 1_655
Mg3 O23 2.193359 1_555
Mg3 O26 2.199754 1_655
O0 V0 1.733350 1_555
O0 Zn2 2.115152 1_555
O1 V1 1.733350 1_555
O1 Zn3 2.115151 1_555
O2 V1 1.733350 1_565
O2 Zn0 2.115158 1_555
O3 V0 1.733350 1_565
O3 Zn1 2.115158 1_555
O4 V2 1.729467 1_555
O5 V3 1.729463 1_555
O6 V3 1.729463 1_555
O7 V2 1.729465 1_555
O8 V4 1.729639 1_555
O9 V5 1.733776 1_555
O9 Zn2 2.120608 1_565
O10 V5 1.729639 1_545
O11 V4 1.733776 1_555
O11 Zn0 2.120602 1_555
O12 V6 1.733776 1_556
O12 Zn3 2.120596 1_455
O13 V7 1.729639 1_565
O14 V7 1.733779 1_555
O14 Zn1 2.120608 1_545
O15 V6 1.729639 1_555
O16 V0 1.768159 1_666
O16 Zn0 2.213288 1_555
O17 V1 1.768159 1_565
O17 Zn1 2.213288 1_555
O18 V1 1.768159 1_555
O18 Zn2 2.213295 1_555
O19 V0 1.768159 1_555
O19 Zn3 2.213295 1_454
O20 V2 1.773969 1_555
O20 Zn3 2.087687 1_554
O21 V3 1.773969 1_555
O21 Zn2 2.087686 1_555
O22 V3 1.773969 1_555
O22 Zn1 2.087682 1_556
O23 V2 1.773969 1_555
O23 Zn0 2.087682 1_555
O24 V4 1.770582 1_555
O25 V5 1.771613 1_655
O25 Zn3 2.080928 1_565
O25 Zn0 2.210470 1_555
O26 V5 1.770578 1_555
O27 V4 1.771613 1_555
O27 Zn1 2.080933 1_545
O27 Zn2 2.210464 1_555
O28 V6 1.771613 1_555
O28 Zn2 2.080929 1_565
O28 Zn1 2.210470 1_555
O29 V7 1.770582 1_555
O30 V7 1.771613 1_556
O30 Zn0 2.080933 1_545
O30 Zn3 2.210476 1_555
O31 V6 1.770585 1_555
