# generated using pymatgen
data_KYbP4(H2O3)6
_symmetry_space_group_name_H-M   'P 1'
_cell_length_a   7.67516025
_cell_length_b   7.67516025
_cell_length_c   15.25671519
_cell_angle_alpha   90.37088737
_cell_angle_beta   90.37088737
_cell_angle_gamma   111.15082679
_symmetry_Int_Tables_number   1
_chemical_formula_structural   KYbP4(H2O3)6
_chemical_formula_sum   'K2 Yb2 P8 H24 O36'
_cell_volume   838.14397861
_cell_formula_units_Z   2
loop_
 _symmetry_equiv_pos_site_id
 _symmetry_equiv_pos_as_xyz
  1  'x, y, z'
loop_
 _atom_site_type_symbol
 _atom_site_label
 _atom_site_symmetry_multiplicity
 _atom_site_fract_x
 _atom_site_fract_y
 _atom_site_fract_z
 _atom_site_occupancy
  K  K0  1  0.52357900  0.47642100  0.75000000  1
  K  K1  1  0.47642100  0.52357900  0.25000000  1
  Yb  Yb0  1  0.88485700  0.11514300  0.75000000  1
  Yb  Yb1  1  0.11514300  0.88485700  0.25000000  1
  P  P0  1  0.20650600  0.03197300  0.91414800  1
  P  P1  1  0.79349400  0.96802700  0.08585200  1
  P  P2  1  0.96802700  0.79349400  0.58585200  1
  P  P3  1  0.03197300  0.20650600  0.41414800  1
  P  P4  1  0.75851900  0.82055500  0.42347900  1
  P  P5  1  0.24148100  0.17944500  0.57652100  1
  P  P6  1  0.17944500  0.24148100  0.07652100  1
  P  P7  1  0.82055500  0.75851900  0.92347900  1
  H  H0  1  0.45678400  0.95256400  0.76514900  1
  H  H1  1  0.54321600  0.04743600  0.23485100  1
  H  H2  1  0.04743600  0.54321600  0.73485100  1
  H  H3  1  0.95256400  0.45678400  0.26514900  1
  H  H4  1  0.48619200  0.84786900  0.67839200  1
  H  H5  1  0.51380800  0.15213100  0.32160800  1
  H  H6  1  0.15213100  0.51380800  0.82160800  1
  H  H7  1  0.84786900  0.48619200  0.17839200  1
  H  H8  1  0.36652200  0.74401900  0.89293900  1
  H  H9  1  0.63347800  0.25598100  0.10706100  1
  H  H10  1  0.25598100  0.63347800  0.60706100  1
  H  H11  1  0.74401900  0.36652200  0.39293900  1
  H  H12  1  0.31633800  0.55750600  0.94713700  1
  H  H13  1  0.68366200  0.44249400  0.05286300  1
  H  H14  1  0.44249400  0.68366200  0.55286300  1
  H  H15  1  0.55750600  0.31633800  0.44713700  1
  H  H16  1  0.59763800  0.13534600  0.88163600  1
  H  H17  1  0.40236200  0.86465400  0.11836400  1
  H  H18  1  0.86465400  0.40236200  0.61836400  1
  H  H19  1  0.13534600  0.59763800  0.38163600  1
  H  H20  1  0.66428400  0.23830000  0.61345900  1
  H  H21  1  0.33571600  0.76170000  0.38654100  1
  H  H22  1  0.76170000  0.33571600  0.88654100  1
  H  H23  1  0.23830000  0.66428400  0.11345900  1
  O  O0  1  0.36566800  0.97352900  0.88638300  1
  O  O1  1  0.63433200  0.02647100  0.11361700  1
  O  O2  1  0.02647100  0.63433200  0.61361700  1
  O  O3  1  0.97352900  0.36566800  0.38638300  1
  O  O4  1  0.34572700  0.60919600  0.88769700  1
  O  O5  1  0.65427300  0.39080400  0.11230300  1
  O  O6  1  0.39080400  0.65427300  0.61230300  1
  O  O7  1  0.60919600  0.34572700  0.38769700  1
  O  O8  1  0.84860500  0.04104900  0.44942900  1
  O  O9  1  0.15139500  0.95895100  0.55057100  1
  O  O10  1  0.95895100  0.15139500  0.05057100  1
  O  O11  1  0.04104900  0.84860500  0.94942900  1
  O  O12  1  0.72521600  0.84990200  0.99614200  1
  O  O13  1  0.27478400  0.15009800  0.00385800  1
  O  O14  1  0.15009800  0.27478400  0.50385800  1
  O  O15  1  0.84990200  0.72521600  0.49614200  1
  O  O16  1  0.72301400  0.21033900  0.85971000  1
  O  O17  1  0.27698600  0.78966100  0.14029000  1
  O  O18  1  0.78966100  0.27698600  0.64029000  1
  O  O19  1  0.21033900  0.72301400  0.35971000  1
  O  O20  1  0.44743600  0.24454000  0.55998300  1
  O  O21  1  0.55256400  0.75546000  0.44001700  1
  O  O22  1  0.75546000  0.55256400  0.94001700  1
  O  O23  1  0.24454000  0.44743600  0.05998300  1
  O  O24  1  0.85879200  0.86187600  0.64945500  1
  O  O25  1  0.14120800  0.13812400  0.35054500  1
  O  O26  1  0.13812400  0.14120800  0.85054500  1
  O  O27  1  0.86187600  0.85879200  0.14945500  1
  O  O28  1  0.54536400  0.95772300  0.71837200  1
  O  O29  1  0.45463600  0.04227700  0.28162800  1
  O  O30  1  0.04227700  0.45463600  0.78162800  1
  O  O31  1  0.95772300  0.54536400  0.21837200  1
  O  O32  1  0.78609000  0.82568400  0.83532800  1
  O  O33  1  0.21391000  0.17431600  0.16467200  1
  O  O34  1  0.17431600  0.21391000  0.66467200  1
  O  O35  1  0.82568400  0.78609000  0.33532800  1
loop_
_geom_bond_atom_site_label_1
_geom_bond_atom_site_label_2
_geom_bond_distance
_geom_bond_site_symmetry_2
K0 O4 2.885913 1_555
K0 O6 2.885913 1_555
K0 O34 2.993883 1_555
K0 O32 2.993883 1_555
K1 O7 2.885913 1_555
K1 O5 2.885913 1_555
K1 O33 2.993883 1_555
K1 O35 2.993883 1_555
H0 O28 0.979960 1_555
H1 O29 0.979960 1_555
H2 O30 0.979960 1_555
H3 O31 0.979960 1_555
H4 O28 1.001315 1_555
H5 O29 1.001315 1_555
H6 O30 1.001315 1_555
H7 O31 1.001315 1_555
H8 O4 0.991077 1_555
H9 O5 0.991077 1_555
H10 O6 0.991077 1_555
H11 O7 0.991077 1_555
H12 O4 0.986607 1_555
H13 O5 0.986607 1_555
H14 O6 0.986607 1_555
H15 O7 0.986607 1_555
H16 O16 0.987999 1_555
H17 O17 0.987999 1_555
H18 O18 0.987999 1_555
H19 O19 0.987999 1_555
H20 O18 0.984310 1_555
H21 O19 0.984310 1_555
H22 O16 0.984310 1_555
H23 O17 0.984310 1_555
O0 P0 1.507522 1_565
O1 P1 1.507522 1_545
O2 P2 1.507522 1_455
O3 P3 1.507522 1_655
O8 P3 1.616173 1_655
O8 P4 1.625470 1_545
O9 P2 1.616173 1_455
O9 P5 1.625470 1_565
O10 P1 1.616173 1_545
O10 P6 1.625470 1_655
O11 P0 1.616173 1_565
O11 P7 1.625470 1_455
O12 P1 1.612968 1_556
O12 P7 1.620857 1_555
O13 P0 1.612968 1_554
O13 P6 1.620857 1_555
O14 P3 1.612968 1_555
O14 P5 1.620857 1_555
O15 P2 1.612968 1_555
O15 P4 1.620857 1_555
O16 Yb0 2.354682 1_555
O17 Yb1 2.354682 1_555
O18 Yb0 2.354682 1_555
O19 Yb1 2.354682 1_555
O20 P5 1.499625 1_555
O21 P4 1.499625 1_555
O22 P7 1.499625 1_555
O23 P6 1.499625 1_555
O24 P2 1.497156 1_555
O24 Yb0 2.418375 1_565
O25 P3 1.497156 1_555
O25 Yb1 2.418375 1_545
O26 P0 1.497156 1_555
O26 Yb0 2.418375 1_455
O27 P1 1.497156 1_555
O27 Yb1 2.418375 1_655
O28 Yb0 2.487246 1_565
O29 Yb1 2.487246 1_545
O30 Yb0 2.487246 1_455
O31 Yb1 2.487246 1_655
O32 P7 1.499077 1_555
O32 Yb0 2.457635 1_565
O33 P6 1.499077 1_555
O33 Yb1 2.457635 1_545
O34 P5 1.499077 1_555
O34 Yb0 2.457635 1_455
O35 P4 1.499077 1_555
O35 Yb1 2.457635 1_655
