# generated using pymatgen
data_Pm3Nd
_symmetry_space_group_name_H-M   'P 1'
_cell_length_a   7.47161051
_cell_length_b   7.47161051
_cell_length_c   5.84661487
_cell_angle_alpha   90.00000000
_cell_angle_beta   90.00000000
_cell_angle_gamma   120.00000489
_symmetry_Int_Tables_number   1
_chemical_formula_structural   Pm3Nd
_chemical_formula_sum   'Pm6 Nd2'
_cell_volume   282.65947372
_cell_formula_units_Z   2
loop_
 _symmetry_equiv_pos_site_id
 _symmetry_equiv_pos_as_xyz
  1  'x, y, z'
loop_
 _atom_site_type_symbol
 _atom_site_label
 _atom_site_symmetry_multiplicity
 _atom_site_fract_x
 _atom_site_fract_y
 _atom_site_fract_z
 _atom_site_occupancy
  Pm  Pm0  1  0.83337150  0.16662850  0.75000000  1
  Pm  Pm1  1  0.33325599  0.16662850  0.75000000  1
  Pm  Pm2  1  0.83337150  0.66674401  0.75000000  1
  Pm  Pm3  1  0.16662850  0.83337150  0.25000000  1
  Pm  Pm4  1  0.66674401  0.83337150  0.25000000  1
  Pm  Pm5  1  0.16662850  0.33325599  0.25000000  1
  Nd  Nd0  1  0.66666700  0.33333300  0.25000000  1
  Nd  Nd1  1  0.33333300  0.66666700  0.75000000  1
loop_
_geom_bond_atom_site_label_1
_geom_bond_atom_site_label_2
_geom_bond_distance
_geom_bond_site_symmetry_2
Pm0 Pm4 3.632585 1_546
Pm0 Pm4 3.632585 1_545
Pm0 Pm5 3.632585 1_656
Pm0 Pm5 3.632585 1_655
Pm0 Pm2 3.734942 1_545
Pm0 Pm1 3.734942 1_655
Pm0 Pm2 3.736668 1_555
Pm0 Pm1 3.736668 1_555
Pm1 Pm5 3.632578 1_555
Pm1 Pm5 3.632578 1_556
Pm1 Pm3 3.632585 1_546
Pm1 Pm3 3.632585 1_545
Pm1 Pm2 3.734942 1_445
Pm1 Pm2 3.736668 1_555
Pm2 Pm4 3.632578 1_556
Pm2 Pm4 3.632578 1_555
Pm2 Pm3 3.632585 1_656
Pm2 Pm3 3.632585 1_655
Pm3 Pm4 3.734942 1_455
Pm3 Pm5 3.734942 1_565
Pm3 Pm5 3.736668 1_555
Pm3 Pm4 3.736668 1_555
Pm4 Pm5 3.734942 1_665
Pm4 Pm5 3.736668 1_555
Nd0 Pm0 3.633169 1_555
Nd0 Pm0 3.633169 1_554
Nd0 Pm1 3.633177 1_554
Nd0 Pm2 3.633177 1_555
Nd0 Pm2 3.633177 1_554
Nd0 Pm1 3.633177 1_555
Nd0 Pm3 3.735805 1_545
Nd0 Pm3 3.735805 1_655
Nd0 Pm4 3.735805 1_555
Nd0 Pm5 3.735805 1_555
Nd0 Pm4 3.735805 1_545
Nd0 Pm5 3.735805 1_655
Nd1 Pm3 3.633169 1_556
Nd1 Pm3 3.633169 1_555
Nd1 Pm4 3.633177 1_556
Nd1 Pm5 3.633177 1_556
Nd1 Pm4 3.633177 1_555
Nd1 Pm5 3.633177 1_555
Nd1 Pm0 3.735805 1_455
Nd1 Pm0 3.735805 1_565
Nd1 Pm2 3.735805 1_555
Nd1 Pm1 3.735805 1_555
Nd1 Pm2 3.735805 1_455
Nd1 Pm1 3.735805 1_565
