# generated using pymatgen
data_Sr2La2MgMnO8
_symmetry_space_group_name_H-M   'P 1'
_cell_length_a   5.50375200
_cell_length_b   5.50629200
_cell_length_c   12.61420700
_cell_angle_alpha   90.00000000
_cell_angle_beta   90.00000000
_cell_angle_gamma   90.00000000
_symmetry_Int_Tables_number   1
_chemical_formula_structural   Sr2La2MgMnO8
_chemical_formula_sum   'Sr4 La4 Mg2 Mn2 O16'
_cell_volume   382.27689356
_cell_formula_units_Z   2
loop_
 _symmetry_equiv_pos_site_id
 _symmetry_equiv_pos_as_xyz
  1  'x, y, z'
loop_
 _atom_site_type_symbol
 _atom_site_label
 _atom_site_symmetry_multiplicity
 _atom_site_fract_x
 _atom_site_fract_y
 _atom_site_fract_z
 _atom_site_occupancy
  Sr  Sr0  1  0.50000000  0.00000000  0.85614900  1
  Sr  Sr1  1  0.00000000  0.50000000  0.14348900  1
  Sr  Sr2  1  0.00000000  0.00000000  0.64205100  1
  Sr  Sr3  1  0.00000000  0.00000000  0.35860500  1
  La  La0  1  0.50000000  0.00000000  0.13882600  1
  La  La1  1  0.00000000  0.50000000  0.86235000  1
  La  La2  1  0.50000000  0.50000000  0.64142100  1
  La  La3  1  0.50000000  0.50000000  0.35987800  1
  Mg  Mg0  1  0.50000000  0.50000000  0.99960600  1
  Mg  Mg1  1  0.50000000  0.00000000  0.50253800  1
  Mn  Mn0  1  0.00000000  0.00000000  0.00003400  1
  Mn  Mn1  1  0.00000000  0.50000000  0.49769200  1
  O  O0  1  0.75274800  0.26307900  0.49888100  1
  O  O1  1  0.24725200  0.73692100  0.49888100  1
  O  O2  1  0.24725200  0.26307900  0.49888100  1
  O  O3  1  0.75274800  0.73692100  0.49888100  1
  O  O4  1  0.50000000  0.00000000  0.66664000  1
  O  O5  1  0.50000000  0.00000000  0.32207600  1
  O  O6  1  0.00000000  0.50000000  0.34194600  1
  O  O7  1  0.00000000  0.50000000  0.66894200  1
  O  O8  1  0.50000000  0.50000000  0.82503500  1
  O  O9  1  0.50000000  0.50000000  0.17622300  1
  O  O10  1  0.00000000  0.00000000  0.84217900  1
  O  O11  1  0.00000000  0.00000000  0.15882800  1
  O  O12  1  0.75843600  0.24554100  0.99999200  1
  O  O13  1  0.24156400  0.75445900  0.99999200  1
  O  O14  1  0.24156400  0.24554100  0.99999200  1
  O  O15  1  0.75843600  0.75445900  0.99999200  1
loop_
_geom_bond_atom_site_label_1
_geom_bond_atom_site_label_2
_geom_bond_distance
_geom_bond_site_symmetry_2
La0 O5 2.311553 1_555
La0 O12 2.630223 1_554
La0 O13 2.630223 1_544
La0 O15 2.630223 1_544
La0 O14 2.630223 1_554
La0 O11 2.763418 1_655
La0 O11 2.763418 1_555
La0 O9 2.793268 1_545
La0 O9 2.793268 1_555
La1 O7 2.439689 1_555
La1 O13 2.597170 1_555
La1 O15 2.597170 1_455
La1 O14 2.597170 1_555
La1 O12 2.597170 1_455
La1 O10 2.764879 1_565
La1 O10 2.764879 1_555
La1 O8 2.791842 1_555
La1 O8 2.791842 1_455
La2 O8 2.316145 1_555
La2 O2 2.621036 1_555
La2 O3 2.621036 1_555
La2 O0 2.621036 1_555
La2 O1 2.621036 1_555
La2 O4 2.771464 1_555
La2 O4 2.771464 1_565
La2 O7 2.773687 1_655
La2 O7 2.773687 1_555
La3 O9 2.316662 1_555
La3 O2 2.590633 1_555
La3 O0 2.590633 1_555
La3 O1 2.590633 1_555
La3 O3 2.590633 1_555
La3 O6 2.761157 1_655
La3 O6 2.761157 1_555
La3 O5 2.794135 1_565
La3 O5 2.794135 1_555
Mg0 O13 1.996574 1_555
Mg0 O14 1.996574 1_555
Mg0 O15 1.996574 1_555
Mg0 O12 1.996574 1_555
Mg0 O8 2.202075 1_555
Mg0 O9 2.227883 1_556
Mg1 O2 2.008879 1_555
Mg1 O1 2.008879 1_545
Mg1 O0 2.008879 1_555
Mg1 O3 2.008879 1_545
Mg1 O4 2.070017 1_555
Mg1 O5 2.276385 1_555
Mn0 O15 1.896194 1_444
Mn0 O14 1.896194 1_554
Mn0 O12 1.896194 1_454
Mn0 O13 1.896194 1_544
Mn0 O10 1.991216 1_554
Mn0 O11 2.003060 1_555
Mn1 O2 1.885181 1_555
Mn1 O0 1.885181 1_455
Mn1 O1 1.885181 1_555
Mn1 O3 1.885181 1_455
Mn1 O6 1.964612 1_555
Mn1 O7 2.160183 1_555
O0 Sr3 2.661062 1_655
O0 Sr2 2.685475 1_655
O1 Sr3 2.661062 1_565
O1 Sr2 2.685475 1_565
O2 Sr3 2.661062 1_555
O2 Sr2 2.685475 1_555
O3 Sr3 2.661062 1_665
O3 Sr2 2.685475 1_665
O4 Sr0 2.390506 1_555
O4 Sr2 2.769301 1_555
O4 Sr2 2.769301 1_655
O5 Sr3 2.790187 1_555
O5 Sr3 2.790187 1_655
O6 Sr1 2.503378 1_555
O6 Sr3 2.761154 1_555
O6 Sr3 2.761154 1_565
O7 Sr2 2.773964 1_555
O7 Sr2 2.773964 1_565
O8 Sr0 2.780980 1_565
O8 Sr0 2.780980 1_555
O9 Sr1 2.782682 1_555
O9 Sr1 2.782682 1_655
O10 Sr2 2.524456 1_555
O10 Sr0 2.757512 1_455
O10 Sr0 2.757512 1_555
O11 Sr3 2.520028 1_555
O11 Sr1 2.759937 1_545
O11 Sr1 2.759937 1_555
O12 Sr1 2.647114 1_656
O12 Sr0 2.672709 1_555
O13 Sr1 2.647114 1_556
O13 Sr0 2.672709 1_565
O14 Sr1 2.647114 1_556
O14 Sr0 2.672709 1_555
O15 Sr1 2.647114 1_656
O15 Sr0 2.672709 1_565
