# generated using pymatgen
data_LiCoPO4
_symmetry_space_group_name_H-M   'P 1'
_cell_length_a   4.98038280
_cell_length_b   7.29215766
_cell_length_c   9.59047500
_cell_angle_alpha   90.00069843
_cell_angle_beta   90.00228614
_cell_angle_gamma   89.97169577
_symmetry_Int_Tables_number   1
_chemical_formula_structural   LiCoPO4
_chemical_formula_sum   'Li4 Co4 P4 O16'
_cell_volume   348.30430222
_cell_formula_units_Z   4
loop_
 _symmetry_equiv_pos_site_id
 _symmetry_equiv_pos_as_xyz
  1  'x, y, z'
loop_
 _atom_site_type_symbol
 _atom_site_label
 _atom_site_symmetry_multiplicity
 _atom_site_fract_x
 _atom_site_fract_y
 _atom_site_fract_z
 _atom_site_occupancy
  Li  Li0  1  0.10100100  0.23347900  0.43557500  1
  Li  Li1  1  0.89900000  0.76652000  0.93558200  1
  Li  Li2  1  0.59852800  0.26524000  0.65253500  1
  Li  Li3  1  0.40147600  0.73475600  0.15253600  1
  Co  Co0  1  0.79567200  0.41596400  0.07299300  1
  Co  Co1  1  0.20433100  0.58403900  0.57299100  1
  Co  Co2  1  0.29415300  0.08502400  0.02354500  1
  Co  Co3  1  0.70584300  0.91498200  0.52354500  1
  P  P0  1  0.86817700  0.00443000  0.19793000  1
  P  P1  1  0.13183900  0.99557000  0.69793500  1
  P  P2  1  0.36604100  0.49353200  0.89682600  1
  P  P3  1  0.63395000  0.50647400  0.39681200  1
  O  O0  1  0.90092700  0.01142900  0.35803300  1
  O  O1  1  0.09908000  0.98857200  0.85803100  1
  O  O2  1  0.57057600  0.98282100  0.15592700  1
  O  O3  1  0.42943000  0.01717900  0.65593300  1
  O  O4  1  0.95840400  0.14628400  0.62851900  1
  O  O5  1  0.04159400  0.85371700  0.12851900  1
  O  O6  1  0.98854100  0.19172000  0.14103000  1
  O  O7  1  0.01146100  0.80828000  0.64102600  1
  O  O8  1  0.48767900  0.30972600  0.95893400  1
  O  O9  1  0.51231800  0.69027100  0.45893700  1
  O  O10  1  0.60433500  0.52091700  0.23674200  1
  O  O11  1  0.39566100  0.47908400  0.73673800  1
  O  O12  1  0.06852800  0.51660200  0.93899000  1
  O  O13  1  0.93146200  0.48339400  0.43899100  1
  O  O14  1  0.46127900  0.35190500  0.46133800  1
  O  O15  1  0.53871400  0.64808800  0.96134400  1
loop_
_geom_bond_atom_site_label_1
_geom_bond_atom_site_label_2
_geom_bond_distance
_geom_bond_site_symmetry_2
Li0 O14 2.006964 1_555
Li0 O13 2.008414 1_455
Li0 O0 2.041894 1_455
Li0 O4 2.081660 1_455
Li1 O15 2.007037 1_555
Li1 O12 2.008409 1_655
Li1 O1 2.041995 1_655
Li1 O5 2.081536 1_656
Li2 O3 1.995982 1_555
Li2 O4 2.004100 1_555
Li2 O11 2.025613 1_555
Li2 O14 2.056328 1_555
Li3 O2 1.996010 1_555
Li3 O5 2.004129 1_555
Li3 O10 2.025559 1_555
Li3 O15 2.056308 1_554
Co0 O10 1.989833 1_555
Co0 O6 2.005198 1_555
Co0 O12 2.009480 1_654
Co0 O8 2.037322 1_554
Co0 O15 2.376400 1_554
Co1 O11 1.989762 1_555
Co1 O7 2.005189 1_555
Co1 O13 2.009443 1_455
Co1 O9 2.037333 1_555
Co1 O14 2.376470 1_555
Co2 O1 1.989675 1_544
Co2 O8 1.999865 1_554
Co2 O2 2.015315 1_545
Co2 O6 2.047075 1_455
Co2 O5 2.333023 1_545
Co3 O0 1.989749 1_565
Co3 O9 1.999872 1_555
Co3 O3 2.015359 1_565
Co3 O7 2.047036 1_655
Co3 O4 2.332941 1_565
O0 P0 1.544942 1_555
O1 P1 1.544893 1_555
O2 P0 1.544054 1_565
O3 P1 1.544035 1_545
O4 P1 1.547968 1_645
O5 P0 1.547910 1_465
O6 P0 1.588477 1_555
O7 P1 1.588505 1_555
O8 P2 1.586662 1_555
O9 P3 1.586663 1_555
O10 P3 1.545799 1_555
O11 P2 1.545985 1_555
O12 P2 1.545037 1_555
O13 P3 1.545048 1_555
O14 P3 1.547245 1_555
O15 P2 1.547112 1_555
