# generated using pymatgen
data_Ca4Mn6Si5O28
_symmetry_space_group_name_H-M   'P 1'
_cell_length_a   5.33769354
_cell_length_b   5.33769354
_cell_length_c   19.65076700
_cell_angle_alpha   90.00000000
_cell_angle_beta   90.00000000
_cell_angle_gamma   110.01955626
_symmetry_Int_Tables_number   1
_chemical_formula_structural   Ca4Mn6Si5O28
_chemical_formula_sum   'Ca4 Mn6 Si5 O28'
_cell_volume   526.03980957
_cell_formula_units_Z   1
loop_
 _symmetry_equiv_pos_site_id
 _symmetry_equiv_pos_as_xyz
  1  'x, y, z'
loop_
 _atom_site_type_symbol
 _atom_site_label
 _atom_site_symmetry_multiplicity
 _atom_site_fract_x
 _atom_site_fract_y
 _atom_site_fract_z
 _atom_site_occupancy
  Ca  Ca0  1  0.69335100  0.30664900  0.10120000  1
  Ca  Ca1  1  0.30406200  0.69593800  0.41253000  1
  Ca  Ca2  1  0.69335100  0.30664900  0.89880000  1
  Ca  Ca3  1  0.30406200  0.69593800  0.58747000  1
  Mn  Mn0  1  0.49668900  0.99962500  0.25140000  1
  Mn  Mn1  1  0.00037500  0.50331100  0.25140000  1
  Mn  Mn2  1  0.49668900  0.99962500  0.74860000  1
  Mn  Mn3  1  0.00037500  0.50331100  0.74860000  1
  Mn  Mn4  1  0.68495300  0.79316000  0.00000000  1
  Mn  Mn5  1  0.20684000  0.31504700  0.00000000  1
  Si  Si0  1  0.02754600  0.97245400  0.15187800  1
  Si  Si1  1  0.96636300  0.03363700  0.34867600  1
  Si  Si2  1  0.02754600  0.97245400  0.84812200  1
  Si  Si3  1  0.96636300  0.03363700  0.65132400  1
  Si  Si4  1  0.89798900  0.10201100  0.50000000  1
  O  O0  1  0.34216800  0.09398200  0.16851800  1
  O  O1  1  0.09549100  0.35097100  0.33284300  1
  O  O2  1  0.34216800  0.09398200  0.83148200  1
  O  O3  1  0.09549100  0.35097100  0.66715700  1
  O  O4  1  0.64902900  0.90450900  0.33284300  1
  O  O5  1  0.90601800  0.65783200  0.16851800  1
  O  O6  1  0.64902900  0.90450900  0.66715700  1
  O  O7  1  0.90601800  0.65783200  0.83148200  1
  O  O8  1  0.36221900  0.63778100  0.22229300  1
  O  O9  1  0.63570600  0.36429400  0.27896900  1
  O  O10  1  0.36221900  0.63778100  0.77770700  1
  O  O11  1  0.63570600  0.36429400  0.72103100  1
  O  O12  1  0.86700500  0.13299500  0.19843100  1
  O  O13  1  0.13144500  0.86855500  0.30602700  1
  O  O14  1  0.86700500  0.13299500  0.80156900  1
  O  O15  1  0.13144500  0.86855500  0.69397300  1
  O  O16  1  0.50735800  0.07881900  0.00000000  1
  O  O17  1  0.04131400  0.42578200  0.50000000  1
  O  O18  1  0.57421800  0.95868600  0.50000000  1
  O  O19  1  0.92118100  0.49264200  0.00000000  1
  O  O20  1  0.96556300  0.03443700  0.07024600  1
  O  O21  1  0.01606800  0.98393200  0.43080300  1
  O  O22  1  0.96556300  0.03443700  0.92975400  1
  O  O23  1  0.01606800  0.98393200  0.56919700  1
  O  O24  1  0.44342800  0.55657200  0.06140900  1
  O  O25  1  0.58259900  0.41740100  0.43040100  1
  O  O26  1  0.44342800  0.55657200  0.93859100  1
  O  O27  1  0.58259900  0.41740100  0.56959900  1
loop_
_geom_bond_atom_site_label_1
_geom_bond_atom_site_label_2
_geom_bond_distance
_geom_bond_site_symmetry_2
Ca0 O0 2.257295 1_555
Ca0 O5 2.257295 1_555
Ca0 O24 2.321429 1_555
Ca0 O19 2.364870 1_555
Ca0 O16 2.364870 1_555
Ca0 O12 2.440742 1_555
Ca0 O20 2.457192 1_555
Ca1 O18 2.369827 1_555
Ca1 O17 2.369827 1_555
Ca1 O4 2.382945 1_555
Ca1 O1 2.382945 1_555
Ca1 O25 2.461215 1_555
Ca1 O21 2.544208 1_555
Ca1 O13 2.580544 1_555
Ca2 O2 2.257295 1_555
Ca2 O7 2.257295 1_555
Ca2 O26 2.321429 1_555
Ca2 O16 2.364870 1_556
Ca2 O19 2.364870 1_556
Ca2 O14 2.440742 1_555
Ca2 O22 2.457192 1_555
Ca3 O18 2.369827 1_555
Ca3 O17 2.369827 1_555
Ca3 O6 2.382945 1_555
Ca3 O3 2.382945 1_555
Ca3 O27 2.461215 1_555
Ca3 O23 2.544208 1_555
Ca3 O15 2.580544 1_555
Mn0 O8 1.903555 1_555
Mn0 O9 1.908929 1_565
Mn0 O4 1.939835 1_555
Mn0 O0 1.967485 1_565
Mn0 O13 2.123371 1_555
Mn0 O12 2.129285 1_565
Mn1 O8 1.903555 1_555
Mn1 O9 1.908929 1_455
Mn1 O1 1.939835 1_555
Mn1 O5 1.967485 1_455
Mn1 O13 2.123371 1_555
Mn1 O12 2.129285 1_455
Mn2 O10 1.903555 1_555
Mn2 O11 1.908929 1_565
Mn2 O6 1.939835 1_555
Mn2 O2 1.967485 1_565
Mn2 O15 2.123371 1_555
Mn2 O14 2.129285 1_565
Mn3 O10 1.903555 1_555
Mn3 O11 1.908929 1_455
Mn3 O3 1.939835 1_555
Mn3 O7 1.967485 1_455
Mn3 O15 2.123371 1_555
Mn3 O14 2.129285 1_455
Mn4 O24 1.896913 1_555
Mn4 O26 1.896913 1_554
Mn4 O16 2.052592 1_565
Mn4 O20 2.118198 1_565
Mn4 O22 2.118198 1_564
Mn4 O19 2.355374 1_555
Mn5 O24 1.896913 1_555
Mn5 O26 1.896913 1_554
Mn5 O19 2.052592 1_455
Mn5 O20 2.118198 1_455
Mn5 O22 2.118198 1_454
Mn5 O16 2.355374 1_555
O0 Si0 1.613095 1_545
O1 Si1 1.625295 1_455
O2 Si2 1.613095 1_545
O3 Si3 1.625295 1_455
O4 Si1 1.625295 1_565
O5 Si0 1.613095 1_655
O6 Si3 1.625295 1_565
O7 Si2 1.613095 1_655
O12 Si0 1.675784 1_645
O13 Si1 1.669394 1_465
O14 Si2 1.675784 1_645
O15 Si3 1.669394 1_465
O17 Si4 1.632998 1_455
O18 Si4 1.632998 1_565
O20 Si0 1.693252 1_645
O21 Si1 1.671380 1_465
O21 Si4 1.707468 1_465
O22 Si2 1.693252 1_645
O23 Si3 1.671380 1_465
O23 Si4 1.707468 1_465
