# generated using pymatgen
data_Zn(GaS2)2
_symmetry_space_group_name_H-M   'P 1'
_cell_length_a   24.42460412
_cell_length_b   24.42460412
_cell_length_c   24.42460428
_cell_angle_alpha   8.74858982
_cell_angle_beta   8.74858982
_cell_angle_gamma   8.74858897
_symmetry_Int_Tables_number   1
_chemical_formula_structural   Zn(GaS2)2
_chemical_formula_sum   'Zn2 Ga4 S8'
_cell_volume   292.48879292
_cell_formula_units_Z   2
loop_
 _symmetry_equiv_pos_site_id
 _symmetry_equiv_pos_as_xyz
  1  'x, y, z'
loop_
 _atom_site_type_symbol
 _atom_site_label
 _atom_site_symmetry_multiplicity
 _atom_site_fract_x
 _atom_site_fract_y
 _atom_site_fract_z
 _atom_site_occupancy
  Zn  Zn0  1  0.32495800  0.32495800  0.32495800  1
  Zn  Zn1  1  0.49254600  0.49254600  0.49254600  1
  Ga  Ga0  1  0.60667300  0.60667300  0.60667300  1
  Ga  Ga1  1  0.88920000  0.88920000  0.88920000  1
  Ga  Ga2  1  0.77321700  0.77321700  0.77321700  1
  Ga  Ga3  1  0.05569100  0.05569100  0.05569100  1
  S  S0  1  0.00078300  0.00078300  0.00078300  1
  S  S1  1  0.28942500  0.28942500  0.28942500  1
  S  S2  1  0.92026100  0.92026100  0.92026100  1
  S  S3  1  0.54278800  0.54278800  0.54278800  1
  S  S4  1  0.83485600  0.83485600  0.83485600  1
  S  S5  1  0.45588300  0.45588300  0.45588300  1
  S  S6  1  0.08675600  0.08675600  0.08675600  1
  S  S7  1  0.37599700  0.37599700  0.37599700  1
loop_
_geom_bond_atom_site_label_1
_geom_bond_atom_site_label_2
_geom_bond_distance
_geom_bond_site_symmetry_2
Ga0 S1 2.450638 1_655
Ga0 S1 2.450638 1_565
Ga0 S1 2.450638 1_556
Ga0 S2 2.589260 1_455
Ga0 S2 2.589260 1_545
Ga0 S2 2.589260 1_554
Ga1 S2 2.267114 1_555
Ga1 S3 2.353399 1_565
Ga1 S3 2.353399 1_655
Ga1 S3 2.353399 1_556
Ga2 S5 2.447637 1_565
Ga2 S5 2.447637 1_655
Ga2 S5 2.447637 1_556
Ga2 S6 2.591252 1_566
Ga2 S6 2.591252 1_656
Ga2 S6 2.591252 1_665
Ga3 S6 2.267406 1_555
Ga3 S7 2.351882 1_455
Ga3 S7 2.351882 1_545
Ga3 S7 2.351882 1_554
S0 Zn0 2.252568 1_545
S0 Zn0 2.252568 1_455
S0 Zn0 2.252568 1_554
S1 Zn0 2.593521 1_555
S4 Zn1 2.248669 1_565
S4 Zn1 2.248669 1_655
S4 Zn1 2.248669 1_556
S5 Zn1 2.675999 1_555
