# generated using pymatgen
data_Ba2CaCuSn2F14
_symmetry_space_group_name_H-M   'P 1'
_cell_length_a   5.61342600
_cell_length_b   7.78880048
_cell_length_c   15.64661096
_cell_angle_alpha   91.56829982
_cell_angle_beta   90.29226937
_cell_angle_gamma   110.82005730
_symmetry_Int_Tables_number   1
_chemical_formula_structural   Ba2CaCuSn2F14
_chemical_formula_sum   'Ba4 Ca2 Cu2 Sn4 F28'
_cell_volume   639.10807042
_cell_formula_units_Z   2
loop_
 _symmetry_equiv_pos_site_id
 _symmetry_equiv_pos_as_xyz
  1  'x, y, z'
loop_
 _atom_site_type_symbol
 _atom_site_label
 _atom_site_symmetry_multiplicity
 _atom_site_fract_x
 _atom_site_fract_y
 _atom_site_fract_z
 _atom_site_occupancy
  Ba  Ba0  1  0.08627400  0.34943200  0.62161000  1
  Ba  Ba1  1  0.26354300  0.35212300  0.12703600  1
  Ba  Ba2  1  0.90114200  0.63325800  0.37510300  1
  Ba  Ba3  1  0.73153700  0.63486600  0.87563200  1
  Ca  Ca0  1  0.44016700  0.00938100  0.75300600  1
  Ca  Ca1  1  0.57345300  0.01714900  0.25403600  1
  Cu  Cu0  1  0.51130100  0.00894800  0.99973600  1
  Cu  Cu1  1  0.49927300  0.01045100  0.49925400  1
  Sn  Sn0  1  0.08520000  0.24110300  0.87900200  1
  Sn  Sn1  1  0.16032700  0.23873400  0.37953800  1
  Sn  Sn2  1  0.90155400  0.75391700  0.12382400  1
  Sn  Sn3  1  0.85106600  0.75450200  0.62386700  1
  F  F0  1  0.86275200  0.95657400  0.33565600  1
  F  F1  1  0.87658600  0.31688400  0.45823900  1
  F  F2  1  0.10863800  0.69475400  0.54983100  1
  F  F3  1  0.62931400  0.49173200  0.60593200  1
  F  F4  1  0.62904600  0.07219000  0.61786700  1
  F  F5  1  0.55392500  0.92155600  0.88359200  1
  F  F6  1  0.43399200  0.31749300  0.95537600  1
  F  F7  1  0.91082200  0.00742600  0.15623400  1
  F  F8  1  0.36283400  0.32355400  0.77472900  1
  F  F9  1  0.38097700  0.53188400  0.39558400  1
  F  F10  1  0.81290000  0.24441500  0.77560900  1
  F  F11  1  0.14273200  0.52639700  0.89488800  1
  F  F12  1  0.43773800  0.25326100  0.26986500  1
  F  F13  1  0.17575500  0.76824200  0.21123400  1
  F  F14  1  0.44774300  0.07548400  0.11562300  1
  F  F15  1  0.64231800  0.67069500  0.21795400  1
  F  F16  1  0.08783300  0.82177200  0.01460400  1
  F  F17  1  0.09390700  0.00658200  0.65837200  1
  F  F18  1  0.90271900  0.17684000  0.00086200  1
  F  F19  1  0.72905200  0.82267900  0.51477900  1
  F  F20  1  0.58435400  0.69364600  0.04814000  1
  F  F21  1  0.59425700  0.76509300  0.71310200  1
  F  F22  1  0.95621200  0.32370200  0.27156900  1
  F  F23  1  0.27728900  0.17375200  0.50929300  1
  F  F24  1  0.36539700  0.92416400  0.38337900  1
  F  F25  1  0.09406400  0.96755100  0.83841300  1
  F  F26  1  0.03093500  0.67400100  0.71999700  1
  F  F27  1  0.86677200  0.49151700  0.10360000  1
loop_
_geom_bond_atom_site_label_1
_geom_bond_atom_site_label_2
_geom_bond_distance
_geom_bond_site_symmetry_2
Ba0 F23 2.653494 1_555
Ba0 F4 2.702882 1_455
Ba0 F17 2.762035 1_555
Ba0 F1 2.775903 1_455
Ba0 F10 2.843106 1_455
Ba0 F3 2.863845 1_555
Ba0 F8 2.898530 1_555
Ba0 F2 2.904833 1_555
Ba0 F26 3.034341 1_555
Ba0 F3 3.146091 1_455
Ba1 F12 2.674043 1_555
Ba1 F14 2.703385 1_555
Ba1 F7 2.763073 1_455
Ba1 F18 2.776648 1_455
Ba1 F22 2.816938 1_455
Ba1 F27 2.829540 1_455
Ba1 F6 2.893491 1_554
Ba1 F20 2.939377 1_555
Ba1 F15 2.954127 1_555
Ba1 F27 3.193817 1_555
Ba2 F0 2.690434 1_555
Ba2 F9 2.763418 1_555
Ba2 F1 2.778318 1_555
Ba2 F24 2.779415 1_655
Ba2 F15 2.923321 1_555
Ba2 F2 2.925672 1_655
Ba2 F19 2.957074 1_555
Ba2 F22 2.975606 1_555
Ba2 F13 3.015210 1_655
Ba2 F9 3.081892 1_655
Ba3 F11 2.743259 1_655
Ba3 F25 2.746087 1_655
Ba3 F5 2.750337 1_555
Ba3 F6 2.777080 1_555
Ba3 F20 2.898570 1_556
Ba3 F16 2.925786 1_656
Ba3 F26 2.926724 1_655
Ba3 F21 2.960842 1_555
Ba3 F8 2.974093 1_555
Ba3 F11 3.125387 1_555
Ca0 F10 2.255717 1_555
Ca0 F25 2.294960 1_545
Ca0 F5 2.328990 1_545
Ca0 F4 2.354829 1_555
Ca0 F21 2.422548 1_545
Ca0 F17 2.430985 1_555
Ca0 F8 2.646326 1_555
Ca0 F26 2.831216 1_545
Ca1 F12 2.235326 1_555
Ca1 F0 2.246609 1_545
Ca1 F24 2.342493 1_545
Ca1 F14 2.379250 1_555
Ca1 F13 2.455171 1_545
Ca1 F7 2.461523 1_555
Ca1 F22 2.589206 1_555
Ca1 F15 2.900040 1_545
Cu0 F14 1.941725 1_556
Cu0 F5 1.968631 1_545
Cu0 F18 2.119873 1_556
Cu0 F16 2.321816 1_546
Cu1 F24 1.965696 1_545
Cu1 F4 1.973469 1_555
Cu1 F23 2.076759 1_555
Cu1 F19 2.284497 1_545
F0 Sn1 2.321124 1_665
F1 Sn1 2.256528 1_655
F2 Sn3 2.028519 1_455
F3 Sn3 1.992742 1_555
F6 Sn0 2.173605 1_555
F7 Sn2 2.007619 1_545
F8 Sn0 2.207927 1_555
F9 Sn1 2.183030 1_555
F10 Sn0 2.226946 1_655
F11 Sn0 2.136026 1_555
F12 Sn1 2.301105 1_555
F13 Sn2 2.024899 1_455
F15 Sn2 2.027449 1_555
F16 Sn2 1.991975 1_455
F17 Sn3 2.009109 1_445
F18 Sn0 2.154760 1_654
F19 Sn3 1.990146 1_555
F20 Sn2 2.036424 1_555
F21 Sn3 2.033018 1_555
F22 Sn1 2.277100 1_655
F23 Sn1 2.255643 1_555
F25 Sn0 2.224198 1_565
F26 Sn3 2.039877 1_455
F27 Sn2 1.998900 1_555
