# generated using pymatgen
data_Nd(Mg10Ni)2
_symmetry_space_group_name_H-M   'P 1'
_cell_length_a   11.20490456
_cell_length_b   11.20490456
_cell_length_c   11.20490456
_cell_angle_alpha   60.00000000
_cell_angle_beta   60.00000000
_cell_angle_gamma   60.00000000
_symmetry_Int_Tables_number   1
_chemical_formula_structural   Nd(Mg10Ni)2
_chemical_formula_sum   'Nd2 Mg40 Ni4'
_cell_volume   994.73978432
_cell_formula_units_Z   2
loop_
 _symmetry_equiv_pos_site_id
 _symmetry_equiv_pos_as_xyz
  1  'x, y, z'
loop_
 _atom_site_type_symbol
 _atom_site_label
 _atom_site_symmetry_multiplicity
 _atom_site_fract_x
 _atom_site_fract_y
 _atom_site_fract_z
 _atom_site_occupancy
  Nd  Nd0  1  0.50000000  0.50000000  0.50000000  1
  Nd  Nd1  1  0.75000000  0.75000000  0.75000000  1
  Mg  Mg0  1  0.41340500  0.67904000  0.95377800  1
  Mg  Mg1  1  0.67904000  0.41340500  0.95377800  1
  Mg  Mg2  1  0.57096000  0.83659500  0.29622200  1
  Mg  Mg3  1  0.83659500  0.57096000  0.29622200  1
  Mg  Mg4  1  0.95377800  0.95377800  0.67904000  1
  Mg  Mg5  1  0.95377800  0.95377800  0.41340500  1
  Mg  Mg6  1  0.29622200  0.29622200  0.83659500  1
  Mg  Mg7  1  0.29622200  0.29622200  0.57096000  1
  Mg  Mg8  1  0.62500000  0.62500000  0.62500000  1
  Mg  Mg9  1  0.62500000  0.62500000  0.12500000  1
  Mg  Mg10  1  0.12500000  0.62500000  0.62500000  1
  Mg  Mg11  1  0.62500000  0.12500000  0.62500000  1
  Mg  Mg12  1  0.13214100  0.13214100  0.86785900  1
  Mg  Mg13  1  0.11785900  0.11785900  0.38214100  1
  Mg  Mg14  1  0.86785900  0.86785900  0.13214100  1
  Mg  Mg15  1  0.38214100  0.38214100  0.11785900  1
  Mg  Mg16  1  0.95377800  0.67904000  0.95377800  1
  Mg  Mg17  1  0.67904000  0.95377800  0.41340500  1
  Mg  Mg18  1  0.57096000  0.29622200  0.83659500  1
  Mg  Mg19  1  0.29622200  0.57096000  0.29622200  1
  Mg  Mg20  1  0.95377800  0.67904000  0.41340500  1
  Mg  Mg21  1  0.67904000  0.95377800  0.95377800  1
  Mg  Mg22  1  0.57096000  0.29622200  0.29622200  1
  Mg  Mg23  1  0.29622200  0.57096000  0.83659500  1
  Mg  Mg24  1  0.41340500  0.95377800  0.67904000  1
  Mg  Mg25  1  0.95377800  0.41340500  0.95377800  1
  Mg  Mg26  1  0.29622200  0.83659500  0.29622200  1
  Mg  Mg27  1  0.83659500  0.29622200  0.57096000  1
  Mg  Mg28  1  0.41340500  0.95377800  0.95377800  1
  Mg  Mg29  1  0.95377800  0.41340500  0.67904000  1
  Mg  Mg30  1  0.29622200  0.83659500  0.57096000  1
  Mg  Mg31  1  0.83659500  0.29622200  0.29622200  1
  Mg  Mg32  1  0.13214100  0.86785900  0.13214100  1
  Mg  Mg33  1  0.86785900  0.13214100  0.86785900  1
  Mg  Mg34  1  0.38214100  0.11785900  0.38214100  1
  Mg  Mg35  1  0.11785900  0.38214100  0.11785900  1
  Mg  Mg36  1  0.13214100  0.86785900  0.86785900  1
  Mg  Mg37  1  0.86785900  0.13214100  0.13214100  1
  Mg  Mg38  1  0.38214100  0.11785900  0.11785900  1
  Mg  Mg39  1  0.11785900  0.38214100  0.38214100  1
  Ni  Ni0  1  0.12500000  0.12500000  0.12500000  1
  Ni  Ni1  1  0.12500000  0.12500000  0.62500000  1
  Ni  Ni2  1  0.62500000  0.12500000  0.12500000  1
  Ni  Ni3  1  0.12500000  0.62500000  0.12500000  1
loop_
_geom_bond_atom_site_label_1
_geom_bond_atom_site_label_2
_geom_bond_distance
_geom_bond_site_symmetry_2
Mg0 Mg1 2.976415 1_555
Mg0 Mg15 2.995840 1_556
Mg0 Ni3 3.014224 1_556
Mg0 Mg24 3.078413 1_555
Mg0 Mg28 3.078413 1_555
Mg0 Mg32 3.108804 1_556
Mg0 Mg36 3.108809 1_555
Mg0 Mg19 3.133493 1_556
Mg0 Mg23 3.133512 1_555
Mg0 Mg9 3.408797 1_556
Mg0 Mg8 3.408806 1_555
Mg0 Nd1 3.555523 1_555
Mg1 Mg15 2.995840 1_556
Mg1 Ni2 3.014224 1_556
Mg1 Mg25 3.078413 1_555
Mg1 Mg29 3.078413 1_555
Mg1 Mg37 3.108804 1_556
Mg1 Mg33 3.108809 1_555
Mg1 Mg22 3.133493 1_556
Mg1 Mg18 3.133512 1_555
Mg1 Mg9 3.408797 1_556
Mg1 Mg8 3.408806 1_555
Mg1 Nd1 3.555523 1_555
Mg2 Mg3 2.976415 1_555
Mg2 Ni2 3.014224 1_565
Mg2 Mg30 3.078413 1_555
Mg2 Mg26 3.078413 1_555
Mg2 Mg38 3.108804 1_565
Mg2 Mg34 3.108809 1_565
Mg2 Mg21 3.133493 1_554
Mg2 Mg9 3.408797 1_555
Mg2 Mg8 3.408806 1_555
Mg2 Nd0 3.555523 1_555
Mg3 Ni3 3.014224 1_655
Mg3 Mg31 3.078413 1_555
Mg3 Mg35 3.108804 1_655
Mg3 Mg39 3.108809 1_655
Mg3 Mg9 3.408797 1_555
Mg3 Mg8 3.408806 1_555
Mg3 Nd0 3.555523 1_555
Mg4 Mg5 2.976415 1_555
Mg4 Ni1 3.014214 1_665
Mg4 Nd1 3.555533 1_555
Mg5 Ni0 3.014219 1_665
Mg5 Nd1 3.555528 1_555
Mg6 Mg7 2.976415 1_555
Mg6 Ni0 3.014219 1_556
Mg6 Nd0 3.555528 1_555
Mg7 Ni1 3.014214 1_555
Mg7 Nd0 3.555533 1_555
Mg8 Nd0 3.430787 1_555
Mg8 Nd1 3.430787 1_555
Mg9 Nd1 3.430787 1_554
Mg9 Nd0 3.430787 1_555
Mg10 Mg23 3.408797 1_555
Mg10 Mg30 3.408797 1_555
Mg10 Mg29 3.408797 1_455
Mg10 Mg20 3.408797 1_455
Mg10 Mg6 3.408802 1_555
Mg10 Mg26 3.408802 1_555
Mg10 Mg25 3.408802 1_455
Mg10 Mg5 3.408802 1_455
Mg10 Mg4 3.408807 1_455
Mg10 Mg16 3.408807 1_455
Mg10 Mg19 3.408807 1_555
Mg10 Mg7 3.408807 1_555
Mg10 Nd1 3.430787 1_455
Mg10 Nd0 3.430787 1_555
Mg11 Mg18 3.408797 1_555
Mg11 Mg27 3.408797 1_555
Mg11 Mg24 3.408797 1_545
Mg11 Mg17 3.408797 1_545
Mg11 Mg6 3.408802 1_555
Mg11 Mg31 3.408802 1_555
Mg11 Mg28 3.408802 1_545
Mg11 Mg5 3.408802 1_545
Mg11 Mg4 3.408807 1_545
Mg11 Mg21 3.408807 1_545
Mg11 Mg22 3.408807 1_555
Mg11 Mg7 3.408807 1_555
Mg11 Nd0 3.430787 1_555
Mg11 Nd1 3.430787 1_545
Mg12 Ni1 2.803511 1_555
Mg12 Ni0 2.803511 1_556
Mg12 Mg32 2.961255 1_546
Mg12 Mg37 2.961255 1_456
Mg12 Mg33 2.961255 1_455
Mg12 Mg36 2.961255 1_545
Mg12 Mg6 2.995830 1_555
Mg12 Mg7 2.995835 1_555
Mg12 Mg24 3.108804 1_545
Mg12 Mg29 3.108804 1_455
Mg12 Mg28 3.108809 1_545
Mg12 Mg25 3.108809 1_455
Mg13 Ni0 2.803511 1_555
Mg13 Ni1 2.803511 1_555
Mg13 Mg34 2.961255 1_555
Mg13 Mg35 2.961255 1_555
Mg13 Mg38 2.961255 1_555
Mg13 Mg39 2.961255 1_555
Mg13 Mg5 2.995830 1_445
Mg13 Mg4 2.995835 1_445
Mg13 Mg30 3.108804 1_545
Mg13 Mg27 3.108804 1_455
Mg13 Mg31 3.108809 1_455
Mg13 Mg26 3.108809 1_545
Mg14 Ni3 2.803511 1_655
Mg14 Ni2 2.803511 1_565
Mg14 Mg33 2.961255 1_564
Mg14 Mg36 2.961255 1_654
Mg14 Mg37 2.961255 1_565
Mg14 Mg32 2.961255 1_655
Mg14 Mg3 2.995840 1_555
Mg14 Mg2 2.995840 1_555
Mg14 Mg16 3.108800 1_554
Mg14 Mg21 3.108800 1_554
Mg14 Mg17 3.108809 1_555
Mg14 Mg20 3.108809 1_555
Mg15 Ni3 2.803511 1_555
Mg15 Ni2 2.803511 1_555
Mg15 Mg34 2.961255 1_555
Mg15 Mg35 2.961255 1_555
Mg15 Mg38 2.961255 1_555
Mg15 Mg39 2.961255 1_555
Mg15 Mg22 3.108800 1_555
Mg15 Mg19 3.108800 1_555
Mg15 Mg23 3.108809 1_554
Mg15 Mg18 3.108809 1_554
Mg16 Mg25 2.976415 1_555
Mg16 Mg35 2.995835 1_656
Mg16 Ni3 3.014214 1_656
Mg16 Mg21 3.078413 1_555
Mg16 Mg4 3.078413 1_555
Mg16 Mg36 3.108800 1_655
Mg16 Mg3 3.133493 1_556
Mg16 Mg23 3.133493 1_655
Mg16 Mg9 3.408807 1_556
Mg16 Nd1 3.555533 1_555
Mg17 Mg24 2.976415 1_555
Mg17 Mg34 2.995840 1_565
Mg17 Ni2 3.014224 1_565
Mg17 Mg20 3.078413 1_555
Mg17 Mg5 3.078413 1_555
Mg17 Mg37 3.108804 1_565
Mg17 Mg22 3.133493 1_565
Mg17 Mg2 3.133512 1_555
Mg17 Mg8 3.408806 1_555
Mg17 Nd1 3.555523 1_555
Mg18 Mg27 2.976415 1_555
Mg18 Mg33 2.995840 1_555
Mg18 Ni2 3.014224 1_556
Mg18 Mg23 3.078413 1_555
Mg18 Mg6 3.078413 1_555
Mg18 Mg38 3.108804 1_556
Mg18 Mg21 3.133493 1_545
Mg18 Mg8 3.408806 1_555
Mg18 Nd0 3.555523 1_555
Mg19 Mg26 2.976415 1_555
Mg19 Mg32 2.995835 1_555
Mg19 Ni3 3.014214 1_555
Mg19 Mg7 3.078413 1_555
Mg19 Mg22 3.078413 1_555
Mg19 Mg39 3.108800 1_555
Mg19 Mg20 3.133493 1_455
Mg19 Mg9 3.408807 1_555
Mg19 Nd0 3.555533 1_555
Mg20 Mg29 2.976415 1_555
Mg20 Mg39 2.995840 1_655
Mg20 Ni3 3.014224 1_655
Mg20 Mg5 3.078413 1_555
Mg20 Mg32 3.108804 1_655
Mg20 Mg3 3.133512 1_555
Mg20 Mg8 3.408806 1_555
Mg20 Nd1 3.555523 1_555
Mg21 Mg28 2.976415 1_555
Mg21 Mg38 2.995835 1_566
Mg21 Ni2 3.014214 1_566
Mg21 Mg4 3.078413 1_555
Mg21 Mg33 3.108800 1_565
Mg21 Mg9 3.408807 1_556
Mg21 Nd1 3.555533 1_555
Mg22 Mg31 2.976415 1_555
Mg22 Mg37 2.995835 1_555
Mg22 Ni2 3.014214 1_555
Mg22 Mg7 3.078413 1_555
Mg22 Mg34 3.108800 1_555
Mg22 Mg9 3.408807 1_555
Mg22 Nd0 3.555533 1_555
Mg23 Mg30 2.976415 1_555
Mg23 Mg36 2.995840 1_555
Mg23 Ni3 3.014224 1_556
Mg23 Mg6 3.078413 1_555
Mg23 Mg35 3.108804 1_556
Mg23 Mg8 3.408806 1_555
Mg23 Nd0 3.555523 1_555
Mg24 Mg34 2.995840 1_565
Mg24 Ni1 3.014224 1_565
Mg24 Mg28 3.078413 1_555
Mg24 Mg36 3.108809 1_555
Mg24 Mg7 3.133493 1_565
Mg24 Mg30 3.133512 1_555
Mg24 Mg8 3.408806 1_555
Mg24 Nd1 3.555523 1_555
Mg25 Mg35 2.995830 1_656
Mg25 Ni0 3.014219 1_656
Mg25 Mg29 3.078413 1_555
Mg25 Mg37 3.108809 1_556
Mg25 Mg6 3.133494 1_655
Mg25 Mg31 3.133494 1_556
Mg25 Mg9 3.408802 1_556
Mg25 Nd1 3.555528 1_555
Mg26 Mg32 2.995830 1_555
Mg26 Ni0 3.014219 1_565
Mg26 Mg30 3.078413 1_555
Mg26 Mg38 3.108809 1_565
Mg26 Mg28 3.133494 1_554
Mg26 Mg5 3.133494 1_455
Mg26 Mg9 3.408802 1_555
Mg26 Nd0 3.555528 1_555
Mg27 Mg33 2.995840 1_555
Mg27 Ni1 3.014224 1_655
Mg27 Mg3 3.078413 1_555
Mg27 Mg31 3.078413 1_555
Mg27 Mg39 3.108809 1_655
Mg27 Mg4 3.133493 1_545
Mg27 Mg29 3.133512 1_555
Mg27 Mg8 3.408806 1_555
Mg27 Nd0 3.555523 1_555
Mg28 Mg38 2.995830 1_566
Mg28 Ni0 3.014219 1_566
Mg28 Mg32 3.108809 1_556
Mg28 Mg6 3.133494 1_565
Mg28 Mg9 3.408802 1_556
Mg28 Nd1 3.555528 1_555
Mg29 Mg39 2.995840 1_655
Mg29 Ni1 3.014224 1_655
Mg29 Mg33 3.108809 1_555
Mg29 Mg7 3.133493 1_655
Mg29 Mg8 3.408806 1_555
Mg29 Nd1 3.555523 1_555
Mg30 Mg36 2.995840 1_555
Mg30 Ni1 3.014224 1_565
Mg30 Mg34 3.108809 1_565
Mg30 Mg4 3.133493 1_455
Mg30 Mg8 3.408806 1_555
Mg30 Nd0 3.555523 1_555
Mg31 Mg37 2.995830 1_555
Mg31 Ni0 3.014219 1_655
Mg31 Mg35 3.108809 1_655
Mg31 Mg5 3.133494 1_545
Mg31 Mg9 3.408802 1_555
Mg31 Nd0 3.555528 1_555
Mg32 Ni3 2.803511 1_555
Mg32 Ni0 2.803511 1_565
Mg32 Mg37 2.961255 1_465
Mg32 Mg36 2.961255 1_554
Mg32 Mg5 3.108809 1_455
Mg33 Ni1 2.803511 1_655
Mg33 Ni2 2.803511 1_556
Mg33 Mg37 2.961255 1_556
Mg33 Mg36 2.961255 1_645
Mg33 Mg4 3.108800 1_545
Mg34 Ni1 2.803511 1_555
Mg34 Ni2 2.803511 1_555
Mg34 Mg38 2.961255 1_555
Mg34 Mg39 2.961255 1_555
Mg34 Mg7 3.108800 1_555
Mg35 Ni0 2.803511 1_555
Mg35 Ni3 2.803511 1_555
Mg35 Mg38 2.961255 1_555
Mg35 Mg39 2.961255 1_555
Mg35 Mg6 3.108809 1_554
Mg36 Ni3 2.803511 1_556
Mg36 Ni1 2.803511 1_565
Mg36 Mg4 3.108800 1_455
Mg37 Ni2 2.803511 1_555
Mg37 Ni0 2.803511 1_655
Mg37 Mg5 3.108809 1_545
Mg38 Ni0 2.803511 1_555
Mg38 Ni2 2.803511 1_555
Mg38 Mg6 3.108809 1_554
Mg39 Ni3 2.803511 1_555
Mg39 Ni1 2.803511 1_555
Mg39 Mg7 3.108800 1_555
