# generated using pymatgen
data_Tm3Cu20Sb11
_symmetry_space_group_name_H-M   'P 1'
_cell_length_a   11.90819863
_cell_length_b   11.90819863
_cell_length_c   11.90819863
_cell_angle_alpha   60.00000000
_cell_angle_beta   60.00000000
_cell_angle_gamma   60.00000000
_symmetry_Int_Tables_number   1
_chemical_formula_structural   Tm3Cu20Sb11
_chemical_formula_sum   'Tm6 Cu40 Sb22'
_cell_volume   1194.05192209
_cell_formula_units_Z   2
loop_
 _symmetry_equiv_pos_site_id
 _symmetry_equiv_pos_as_xyz
  1  'x, y, z'
loop_
 _atom_site_type_symbol
 _atom_site_label
 _atom_site_symmetry_multiplicity
 _atom_site_fract_x
 _atom_site_fract_y
 _atom_site_fract_z
 _atom_site_occupancy
  Tm  Tm0  1  0.49307700  0.00692300  0.00692300  1
  Tm  Tm1  1  0.00692300  0.49307700  0.49307700  1
  Tm  Tm2  1  0.00692300  0.49307700  0.00692300  1
  Tm  Tm3  1  0.49307700  0.00692300  0.49307700  1
  Tm  Tm4  1  0.00692300  0.00692300  0.49307700  1
  Tm  Tm5  1  0.49307700  0.49307700  0.00692300  1
  Cu  Cu0  1  0.69873500  0.69873500  0.69873500  1
  Cu  Cu1  1  0.69873500  0.69873500  0.90379500  1
  Cu  Cu2  1  0.69873500  0.90379500  0.69873500  1
  Cu  Cu3  1  0.90379500  0.69873500  0.69873500  1
  Cu  Cu4  1  0.50280400  0.50280400  0.72568900  1
  Cu  Cu5  1  0.50280400  0.50280400  0.26870300  1
  Cu  Cu6  1  0.72568900  0.26870300  0.50280400  1
  Cu  Cu7  1  0.72568900  0.50280400  0.50280400  1
  Cu  Cu8  1  0.26870300  0.72568900  0.50280400  1
  Cu  Cu9  1  0.26870300  0.50280400  0.50280400  1
  Cu  Cu10  1  0.50280400  0.72568900  0.26870300  1
  Cu  Cu11  1  0.50280400  0.26870300  0.72568900  1
  Cu  Cu12  1  0.50280400  0.72568900  0.50280400  1
  Cu  Cu13  1  0.26870300  0.50280400  0.72568900  1
  Cu  Cu14  1  0.72568900  0.50280400  0.26870300  1
  Cu  Cu15  1  0.50280400  0.26870300  0.50280400  1
  Cu  Cu16  1  0.25044300  0.25044300  0.87009600  1
  Cu  Cu17  1  0.25044300  0.25044300  0.62901800  1
  Cu  Cu18  1  0.87009600  0.62901800  0.25044300  1
  Cu  Cu19  1  0.87009600  0.25044300  0.25044300  1
  Cu  Cu20  1  0.62901800  0.87009600  0.25044300  1
  Cu  Cu21  1  0.62901800  0.25044300  0.25044300  1
  Cu  Cu22  1  0.25044300  0.87009600  0.62901800  1
  Cu  Cu23  1  0.25044300  0.62901800  0.87009600  1
  Cu  Cu24  1  0.25044300  0.87009600  0.25044300  1
  Cu  Cu25  1  0.62901800  0.25044300  0.87009600  1
  Cu  Cu26  1  0.87009600  0.25044300  0.62901800  1
  Cu  Cu27  1  0.25044300  0.62901800  0.25044300  1
  Cu  Cu28  1  0.99732800  0.99732800  0.23265300  1
  Cu  Cu29  1  0.99732800  0.99732800  0.77269100  1
  Cu  Cu30  1  0.23265300  0.77269100  0.99732800  1
  Cu  Cu31  1  0.23265300  0.99732800  0.99732800  1
  Cu  Cu32  1  0.77269100  0.23265300  0.99732800  1
  Cu  Cu33  1  0.77269100  0.99732800  0.99732800  1
  Cu  Cu34  1  0.99732800  0.23265300  0.77269100  1
  Cu  Cu35  1  0.99732800  0.77269100  0.23265300  1
  Cu  Cu36  1  0.99732800  0.23265300  0.99732800  1
  Cu  Cu37  1  0.77269100  0.99732800  0.23265300  1
  Cu  Cu38  1  0.23265300  0.99732800  0.77269100  1
  Cu  Cu39  1  0.99732800  0.77269100  0.99732800  1
  Sb  Sb0  1  0.35149000  0.35149000  0.35149000  1
  Sb  Sb1  1  0.35149000  0.35149000  0.94553100  1
  Sb  Sb2  1  0.35149000  0.94553100  0.35149000  1
  Sb  Sb3  1  0.94553100  0.35149000  0.35149000  1
  Sb  Sb4  1  0.75042600  0.75042600  0.43642800  1
  Sb  Sb5  1  0.75042600  0.75042600  0.06272100  1
  Sb  Sb6  1  0.43642800  0.06272100  0.75042600  1
  Sb  Sb7  1  0.43642800  0.75042600  0.75042600  1
  Sb  Sb8  1  0.06272100  0.43642800  0.75042600  1
  Sb  Sb9  1  0.06272100  0.75042600  0.75042600  1
  Sb  Sb10  1  0.75042600  0.43642800  0.06272100  1
  Sb  Sb11  1  0.75042600  0.06272100  0.43642800  1
  Sb  Sb12  1  0.75042600  0.43642800  0.75042600  1
  Sb  Sb13  1  0.06272100  0.75042600  0.43642800  1
  Sb  Sb14  1  0.43642800  0.75042600  0.06272100  1
  Sb  Sb15  1  0.75042600  0.06272100  0.75042600  1
  Sb  Sb16  1  0.00000000  0.00000000  0.00000000  1
  Sb  Sb17  1  0.14937900  0.14937900  0.14937900  1
  Sb  Sb18  1  0.14937900  0.14937900  0.55186300  1
  Sb  Sb19  1  0.14937900  0.55186300  0.14937900  1
  Sb  Sb20  1  0.55186300  0.14937900  0.14937900  1
  Sb  Sb21  1  0.50000000  0.50000000  0.50000000  1
loop_
_geom_bond_atom_site_label_1
_geom_bond_atom_site_label_2
_geom_bond_distance
_geom_bond_site_symmetry_2
Cu0 Cu2 2.441895 1_555
Cu0 Cu1 2.441895 1_555
Cu0 Cu3 2.441895 1_555
Cu0 Sb4 2.654834 1_555
Cu0 Sb7 2.654834 1_555
Cu0 Sb12 2.654834 1_555
Cu1 Cu3 2.441895 1_555
Cu1 Cu2 2.441895 1_555
Cu1 Sb10 2.654837 1_556
Cu1 Sb14 2.654837 1_556
Cu1 Sb5 2.654846 1_556
Cu2 Cu3 2.441895 1_555
Cu2 Sb11 2.654837 1_565
Cu2 Sb6 2.654837 1_565
Cu2 Sb15 2.654846 1_565
Cu3 Sb13 2.654837 1_655
Cu3 Sb8 2.654837 1_655
Cu3 Sb9 2.654846 1_655
Cu4 Cu7 2.654159 1_555
Cu4 Sb1 2.675715 1_555
Cu4 Sb21 2.721350 1_555
Cu4 Sb12 2.776977 1_555
Cu4 Sb7 2.776977 1_555
Cu4 Tm5 3.237306 1_556
Cu5 Sb0 2.675712 1_555
Cu5 Sb21 2.721350 1_555
Cu5 Sb14 2.776972 1_555
Cu5 Sb10 2.776972 1_555
Cu5 Cu9 2.787721 1_555
Cu5 Tm5 3.237306 1_555
Cu6 Sb3 2.675721 1_555
Cu6 Sb21 2.721350 1_555
Cu6 Sb11 2.776966 1_555
Cu6 Sb15 2.776974 1_555
Cu6 Cu7 2.787721 1_555
Cu6 Tm4 3.237306 1_655
Cu7 Sb3 2.675715 1_555
Cu7 Sb21 2.721350 1_555
Cu7 Sb12 2.776977 1_555
Cu7 Sb4 2.776977 1_555
Cu7 Tm1 3.237306 1_655
Cu8 Cu9 2.654159 1_555
Cu8 Sb2 2.675721 1_555
Cu8 Sb21 2.721350 1_555
Cu8 Sb13 2.776966 1_555
Cu8 Sb9 2.776974 1_555
Cu8 Tm4 3.237306 1_565
Cu9 Sb0 2.675712 1_555
Cu9 Sb21 2.721350 1_555
Cu9 Sb8 2.776972 1_555
Cu9 Sb13 2.776972 1_555
Cu9 Tm1 3.237306 1_555
Cu10 Cu14 2.654159 1_555
Cu10 Cu5 2.654159 1_555
Cu10 Cu20 2.673422 1_555
Cu10 Cu24 2.673422 1_555
Cu10 Sb2 2.675721 1_555
Cu10 Sb21 2.721350 1_555
Cu10 Sb14 2.776966 1_555
Cu10 Sb5 2.776974 1_555
Cu10 Cu12 2.787721 1_555
Cu10 Cu8 2.787721 1_555
Cu10 Tm0 3.237306 1_565
Cu11 Cu15 2.654159 1_555
Cu11 Cu6 2.654159 1_555
Cu11 Cu25 2.673422 1_555
Cu11 Cu16 2.673422 1_555
Cu11 Sb1 2.675721 1_555
Cu11 Sb21 2.721350 1_555
Cu11 Sb6 2.776966 1_555
Cu11 Sb15 2.776974 1_555
Cu11 Cu13 2.787721 1_555
Cu11 Cu4 2.787721 1_555
Cu11 Tm0 3.237306 1_556
Cu12 Cu7 2.654159 1_555
Cu12 Cu4 2.654159 1_555
Cu12 Cu20 2.673422 1_555
Cu12 Cu22 2.673422 1_555
Cu12 Sb2 2.675715 1_555
Cu12 Sb21 2.721350 1_555
Cu12 Sb4 2.776977 1_555
Cu12 Sb7 2.776977 1_555
Cu12 Cu8 2.787721 1_555
Cu12 Tm3 3.237306 1_565
Cu13 Cu8 2.654159 1_555
Cu13 Cu9 2.654159 1_555
Cu13 Cu23 2.673422 1_555
Cu13 Cu16 2.673422 1_555
Cu13 Sb1 2.675721 1_555
Cu13 Sb21 2.721350 1_555
Cu13 Sb8 2.776966 1_555
Cu13 Sb9 2.776974 1_555
Cu13 Cu4 2.787721 1_555
Cu13 Tm2 3.237306 1_556
Cu14 Cu5 2.654159 1_555
Cu14 Cu18 2.673422 1_555
Cu14 Cu19 2.673422 1_555
Cu14 Sb3 2.675721 1_555
Cu14 Sb21 2.721350 1_555
Cu14 Sb10 2.776966 1_555
Cu14 Sb5 2.776974 1_555
Cu14 Cu7 2.787721 1_555
Cu14 Cu6 2.787721 1_555
Cu14 Tm2 3.237306 1_655
Cu15 Cu6 2.654159 1_555
Cu15 Cu17 2.673422 1_555
Cu15 Cu21 2.673422 1_555
Cu15 Sb0 2.675712 1_555
Cu15 Sb21 2.721350 1_555
Cu15 Sb6 2.776972 1_555
Cu15 Sb11 2.776972 1_555
Cu15 Cu9 2.787721 1_555
Cu15 Cu5 2.787721 1_555
Cu15 Tm3 3.237306 1_555
Cu16 Sb8 2.647942 1_555
Cu16 Sb6 2.647942 1_555
Cu16 Cu31 2.678863 1_545
Cu16 Cu36 2.678863 1_455
Cu16 Sb1 2.704155 1_555
Cu16 Sb17 2.720440 1_556
Cu16 Cu17 2.870805 1_555
Cu16 Tm0 3.319108 1_556
Cu16 Tm2 3.319108 1_556
Cu17 Sb8 2.647948 1_555
Cu17 Sb6 2.647948 1_555
Cu17 Cu9 2.673422 1_555
Cu17 Cu38 2.678863 1_545
Cu17 Cu34 2.678863 1_455
Cu17 Sb0 2.704145 1_555
Cu17 Sb18 2.720440 1_555
Cu17 Tm1 3.319108 1_555
Cu17 Tm3 3.319108 1_555
Cu18 Sb5 2.647940 1_555
Cu18 Sb4 2.647950 1_555
Cu18 Cu7 2.673422 1_555
Cu18 Cu35 2.678863 1_555
Cu18 Cu39 2.678863 1_554
Cu18 Sb3 2.704145 1_555
Cu18 Sb19 2.720440 1_655
Cu18 Cu20 2.870805 1_555
Cu18 Tm1 3.319108 1_655
Cu18 Tm2 3.319108 1_655
Cu19 Sb11 2.647942 1_555
Cu19 Sb10 2.647942 1_555
Cu19 Cu6 2.673422 1_555
Cu19 Cu36 2.678863 1_554
Cu19 Cu28 2.678863 1_545
Cu19 Sb3 2.704155 1_555
Cu19 Sb17 2.720440 1_655
Cu19 Cu21 2.870805 1_555
Cu19 Tm4 3.319108 1_655
Cu19 Tm2 3.319108 1_655
Cu20 Sb5 2.647940 1_555
Cu20 Sb4 2.647950 1_555
Cu20 Cu37 2.678863 1_555
Cu20 Cu33 2.678863 1_554
Cu20 Sb2 2.704145 1_555
Cu20 Sb20 2.720440 1_565
Cu20 Tm3 3.319108 1_565
Cu20 Tm0 3.319108 1_565
Cu21 Sb11 2.647948 1_555
Cu21 Sb10 2.647948 1_555
Cu21 Cu5 2.673422 1_555
Cu21 Cu32 2.678863 1_554
Cu21 Cu37 2.678863 1_545
Cu21 Sb0 2.704145 1_555
Cu21 Sb20 2.720440 1_555
Cu21 Tm3 3.319108 1_555
Cu21 Tm5 3.319108 1_555
Cu22 Sb9 2.647940 1_555
Cu22 Sb7 2.647950 1_555
Cu22 Cu8 2.673422 1_555
Cu22 Cu38 2.678863 1_555
Cu22 Cu29 2.678863 1_455
Cu22 Sb2 2.704145 1_555
Cu22 Sb18 2.720440 1_565
Cu22 Cu23 2.870805 1_555
Cu22 Tm3 3.319108 1_565
Cu22 Tm4 3.319108 1_565
Cu23 Sb9 2.647940 1_555
Cu23 Sb7 2.647950 1_555
Cu23 Cu4 2.673422 1_555
Cu23 Cu30 2.678863 1_555
Cu23 Cu39 2.678863 1_455
Cu23 Sb1 2.704145 1_555
Cu23 Sb19 2.720440 1_556
Cu23 Tm5 3.319108 1_556
Cu23 Tm2 3.319108 1_556
Cu24 Sb13 2.647942 1_555
Cu24 Sb14 2.647942 1_555
Cu24 Cu8 2.673422 1_555
Cu24 Cu31 2.678863 1_554
Cu24 Cu28 2.678863 1_455
Cu24 Sb2 2.704155 1_555
Cu24 Sb17 2.720440 1_565
Cu24 Cu27 2.870805 1_555
Cu24 Tm0 3.319108 1_565
Cu24 Tm4 3.319108 1_565
Cu25 Sb15 2.647940 1_555
Cu25 Sb12 2.647950 1_555
Cu25 Cu4 2.673422 1_555
Cu25 Cu32 2.678863 1_555
Cu25 Cu33 2.678863 1_545
Cu25 Sb1 2.704145 1_555
Cu25 Sb20 2.720440 1_556
Cu25 Cu26 2.870805 1_555
Cu25 Tm5 3.319108 1_556
Cu25 Tm0 3.319108 1_556
Cu26 Sb15 2.647940 1_555
Cu26 Sb12 2.647950 1_555
Cu26 Cu6 2.673422 1_555
Cu26 Cu7 2.673422 1_555
Cu26 Cu34 2.678863 1_555
Cu26 Cu29 2.678863 1_545
Cu26 Sb3 2.704145 1_555
Cu26 Sb18 2.720440 1_655
Cu26 Tm1 3.319108 1_655
Cu26 Tm4 3.319108 1_655
Cu27 Sb14 2.647948 1_555
Cu27 Sb13 2.647948 1_555
Cu27 Cu9 2.673422 1_555
Cu27 Cu5 2.673422 1_555
Cu27 Cu35 2.678863 1_455
Cu27 Cu30 2.678863 1_554
Cu27 Sb0 2.704145 1_555
Cu27 Sb19 2.720440 1_555
Cu27 Tm1 3.319108 1_555
Cu27 Tm5 3.319108 1_555
Cu28 Cu35 2.675022 1_555
Cu28 Cu37 2.675022 1_555
Cu28 Sb17 2.688440 1_665
Cu28 Sb16 2.739029 1_665
Cu28 Sb13 2.757678 1_655
Cu28 Sb11 2.757678 1_565
Cu28 Cu36 2.802297 1_564
Cu28 Cu31 2.802297 1_654
Cu28 Tm4 3.219497 1_665
Cu29 Cu33 2.675022 1_555
Cu29 Cu39 2.675022 1_555
Cu29 Sb18 2.688440 1_665
Cu29 Sb16 2.739029 1_666
Cu29 Sb15 2.757673 1_565
Cu29 Sb9 2.757673 1_655
Cu29 Cu34 2.802297 1_565
Cu29 Cu38 2.802297 1_655
Cu29 Tm4 3.219497 1_665
Cu30 Cu38 2.675022 1_555
Cu30 Cu31 2.675022 1_555
Cu30 Sb19 2.688440 1_556
Cu30 Sb16 2.739029 1_566
Cu30 Sb7 2.757676 1_555
Cu30 Sb14 2.757684 1_556
Cu30 Cu39 2.802297 1_455
Cu30 Cu35 2.802297 1_456
Cu30 Tm5 3.219497 1_556
Cu31 Cu38 2.675022 1_555
Cu31 Sb17 2.688440 1_566
Cu31 Sb16 2.739029 1_566
Cu31 Sb6 2.757678 1_565
Cu31 Sb14 2.757678 1_556
Cu31 Cu36 2.802297 1_465
Cu31 Tm0 3.219497 1_566
Cu32 Cu36 2.675022 1_555
Cu32 Cu34 2.675022 1_555
Cu32 Sb20 2.688440 1_556
Cu32 Sb16 2.739029 1_656
Cu32 Sb12 2.757676 1_555
Cu32 Sb10 2.757684 1_556
Cu32 Cu33 2.802297 1_545
Cu32 Cu37 2.802297 1_546
Cu32 Tm5 3.219497 1_556
Cu33 Cu39 2.675022 1_555
Cu33 Sb20 2.688440 1_566
Cu33 Sb16 2.739029 1_666
Cu33 Sb5 2.757673 1_556
Cu33 Sb15 2.757673 1_565
Cu33 Cu37 2.802297 1_556
Cu33 Tm0 3.219497 1_566
Cu34 Cu36 2.675022 1_555
Cu34 Sb18 2.688440 1_655
Cu34 Sb16 2.739029 1_656
Cu34 Sb12 2.757676 1_555
Cu34 Sb8 2.757684 1_655
Cu34 Cu38 2.802297 1_645
Cu34 Tm1 3.219497 1_655
Cu35 Cu37 2.675022 1_555
Cu35 Sb19 2.688440 1_655
Cu35 Sb16 2.739029 1_665
Cu35 Sb4 2.757676 1_555
Cu35 Sb13 2.757684 1_655
Cu35 Cu39 2.802297 1_554
Cu35 Tm1 3.219497 1_655
Cu36 Sb17 2.688440 1_656
Cu36 Sb16 2.739029 1_656
Cu36 Sb10 2.757678 1_556
Cu36 Sb8 2.757678 1_655
Cu36 Tm2 3.219497 1_656
Cu37 Sb20 2.688440 1_565
Cu37 Sb16 2.739029 1_665
Cu37 Sb4 2.757676 1_555
Cu37 Sb11 2.757684 1_565
Cu37 Tm3 3.219497 1_565
Cu38 Sb18 2.688440 1_565
Cu38 Sb16 2.739029 1_566
Cu38 Sb7 2.757676 1_555
Cu38 Sb6 2.757684 1_565
Cu38 Tm3 3.219497 1_565
Cu39 Sb19 2.688440 1_656
Cu39 Sb16 2.739029 1_666
Cu39 Sb5 2.757673 1_556
Cu39 Sb9 2.757673 1_655
Cu39 Tm2 3.219497 1_656
Sb0 Tm3 3.395291 1_555
Sb0 Tm5 3.395291 1_555
Sb0 Tm1 3.395291 1_555
Sb1 Tm5 3.395283 1_556
Sb1 Tm0 3.395293 1_556
Sb1 Tm2 3.395293 1_556
Sb2 Tm3 3.395283 1_565
Sb2 Tm0 3.395293 1_565
Sb2 Tm4 3.395293 1_565
Sb3 Tm1 3.395283 1_655
Sb3 Tm2 3.395293 1_655
Sb3 Tm4 3.395293 1_655
Sb4 Tm1 3.131897 1_655
Sb4 Tm3 3.131897 1_565
Sb5 Tm2 3.131900 1_655
Sb5 Tm0 3.131900 1_565
Sb6 Tm0 3.131893 1_556
Sb6 Tm3 3.131904 1_555
Sb7 Tm5 3.131897 1_556
Sb7 Tm3 3.131897 1_565
Sb8 Tm2 3.131893 1_556
Sb8 Tm1 3.131904 1_555
Sb9 Tm4 3.131900 1_565
Sb9 Tm2 3.131900 1_556
Sb10 Tm2 3.131893 1_655
Sb10 Tm5 3.131904 1_555
Sb11 Tm4 3.131893 1_655
Sb11 Tm3 3.131904 1_555
Sb12 Tm1 3.131897 1_655
Sb12 Tm5 3.131897 1_556
Sb13 Tm4 3.131893 1_565
Sb13 Tm1 3.131904 1_555
Sb14 Tm0 3.131893 1_565
Sb14 Tm5 3.131904 1_555
Sb15 Tm0 3.131900 1_556
Sb15 Tm4 3.131900 1_655
Sb17 Tm4 3.390927 1_555
Sb17 Tm0 3.390927 1_555
Sb17 Tm2 3.390927 1_555
Sb18 Tm1 3.390927 1_555
Sb18 Tm4 3.390927 1_555
Sb18 Tm3 3.390927 1_555
Sb19 Tm1 3.390927 1_555
Sb19 Tm5 3.390927 1_555
Sb19 Tm2 3.390927 1_555
Sb20 Tm5 3.390927 1_555
Sb20 Tm3 3.390927 1_555
Sb20 Tm0 3.390927 1_555
