# generated using pymatgen
data_LiVTeO5
_symmetry_space_group_name_H-M   'P 1'
_cell_length_a   5.22100100
_cell_length_b   8.48102200
_cell_length_c   9.65755200
_cell_angle_alpha   90.00000000
_cell_angle_beta   90.00000000
_cell_angle_gamma   90.00000000
_symmetry_Int_Tables_number   1
_chemical_formula_structural   LiVTeO5
_chemical_formula_sum   'Li4 V4 Te4 O20'
_cell_volume   427.63084312
_cell_formula_units_Z   4
loop_
 _symmetry_equiv_pos_site_id
 _symmetry_equiv_pos_as_xyz
  1  'x, y, z'
loop_
 _atom_site_type_symbol
 _atom_site_label
 _atom_site_symmetry_multiplicity
 _atom_site_fract_x
 _atom_site_fract_y
 _atom_site_fract_z
 _atom_site_occupancy
  Li  Li0  1  0.03711000  0.87861900  0.97593200  1
  Li  Li1  1  0.53711000  0.62138100  0.02406800  1
  Li  Li2  1  0.46289000  0.12138100  0.47593200  1
  Li  Li3  1  0.96289000  0.37861900  0.52406800  1
  V  V0  1  0.54273100  0.97768800  0.14771100  1
  V  V1  1  0.04273100  0.52231200  0.85228900  1
  V  V2  1  0.95726900  0.02231200  0.64771100  1
  V  V3  1  0.45726900  0.47768800  0.35228900  1
  Te  Te0  1  0.46213500  0.18267700  0.85254100  1
  Te  Te1  1  0.96213500  0.31732300  0.14745900  1
  Te  Te2  1  0.03786500  0.81732300  0.35254100  1
  Te  Te3  1  0.53786500  0.68267700  0.64745900  1
  O  O0  1  0.68799600  0.17558600  0.08124200  1
  O  O1  1  0.18799600  0.32441400  0.91875800  1
  O  O2  1  0.81200400  0.82441400  0.58124200  1
  O  O3  1  0.31200400  0.67558600  0.41875800  1
  O  O4  1  0.84481400  0.99464400  0.81201500  1
  O  O5  1  0.34481400  0.50535600  0.18798500  1
  O  O6  1  0.65518600  0.00535600  0.31201500  1
  O  O7  1  0.15518600  0.49464400  0.68798500  1
  O  O8  1  0.28550300  0.10008400  0.69067800  1
  O  O9  1  0.78550300  0.39991600  0.30932200  1
  O  O10  1  0.21449700  0.89991600  0.19067800  1
  O  O11  1  0.71449700  0.60008400  0.80932200  1
  O  O12  1  0.33659300  0.02351900  0.96963100  1
  O  O13  1  0.83659300  0.47648100  0.03036900  1
  O  O14  1  0.16340700  0.97648100  0.46963100  1
  O  O15  1  0.66340700  0.52351900  0.53036900  1
  O  O16  1  0.71499900  0.82410200  0.08931300  1
  O  O17  1  0.21499900  0.67589800  0.91068700  1
  O  O18  1  0.78500100  0.17589800  0.58931300  1
  O  O19  1  0.28500100  0.32410200  0.41068700  1
loop_
_geom_bond_atom_site_label_1
_geom_bond_atom_site_label_2
_geom_bond_distance
_geom_bond_site_symmetry_2
Li0 O12 1.989660 1_565
Li0 O17 2.053182 1_555
Li0 O16 2.059374 1_456
Li0 O4 2.117133 1_455
Li0 O10 2.278487 1_556
Li1 O13 1.989660 1_555
Li1 O16 2.053182 1_555
Li1 O17 2.059374 1_554
Li1 O5 2.117133 1_555
Li1 O11 2.278487 1_554
Li2 O14 1.989660 1_545
Li2 O19 2.053182 1_555
Li2 O18 2.059374 1_555
Li2 O6 2.117133 1_555
Li2 O8 2.278487 1_555
Li3 O15 1.989660 1_555
Li3 O18 2.053182 1_555
Li3 O19 2.059374 1_655
Li3 O7 2.117133 1_655
Li3 O9 2.278487 1_555
O0 V0 1.950445 1_545
O0 Te1 1.975474 1_555
O0 Te0 2.504495 1_554
O1 V1 1.950445 1_555
O1 Te0 1.975474 1_555
O1 Te1 2.504495 1_456
O2 V2 1.950445 1_565
O2 Te3 1.975474 1_555
O2 Te2 2.504495 1_655
O3 V3 1.950445 1_555
O3 Te2 1.975474 1_555
O3 Te3 2.504495 1_555
O4 V2 1.708108 1_565
O4 Te0 2.586148 1_565
O5 V3 1.708108 1_555
O5 Te1 2.586148 1_455
O6 V0 1.708108 1_545
O6 Te2 2.586148 1_645
O7 V1 1.708108 1_555
O7 Te3 2.586148 1_555
O8 V2 1.882563 1_455
O8 Te0 1.945431 1_555
O9 V3 1.882563 1_555
O9 Te1 1.945431 1_555
O10 V0 1.882563 1_555
O10 Te2 1.945431 1_555
O11 V1 1.882563 1_655
O11 Te3 1.945431 1_555
O12 Te0 1.878924 1_555
O12 V0 2.065710 1_546
O13 Te1 1.878924 1_555
O13 V1 2.065710 1_654
O14 Te2 1.878924 1_555
O14 V2 2.065710 1_465
O15 Te3 1.878924 1_555
O15 V3 2.065710 1_555
O16 V0 1.680385 1_555
O17 V1 1.680385 1_555
O18 V2 1.680385 1_555
O19 V3 1.680385 1_555
