# generated using pymatgen
data_Er
_symmetry_space_group_name_H-M   'P 1'
_cell_length_a   7.09649219
_cell_length_b   7.09617664
_cell_length_c   17.48579460
_cell_angle_alpha   90.00005704
_cell_angle_beta   78.28168991
_cell_angle_gamma   119.99859461
_symmetry_Int_Tables_number   1
_chemical_formula_structural   Er
_chemical_formula_sum   Er24
_cell_volume   741.32170884
_cell_formula_units_Z   24
loop_
 _symmetry_equiv_pos_site_id
 _symmetry_equiv_pos_as_xyz
  1  'x, y, z'
loop_
 _atom_site_type_symbol
 _atom_site_label
 _atom_site_symmetry_multiplicity
 _atom_site_fract_x
 _atom_site_fract_y
 _atom_site_fract_z
 _atom_site_occupancy
  Er  Er0_0  1  0.00001076  0.00000395  0.49998486  1
  Er  Er0_1  1  0.00001076  0.00000395  0.99998486  1
  Er  Er0_2  1  0.00001076  0.50000395  0.49998486  1
  Er  Er0_3  1  0.00001076  0.50000395  0.99998486  1
  Er  Er0_4  1  0.50001076  0.00000395  0.49998485  1
  Er  Er0_5  1  0.50001076  0.00000395  0.99998486  1
  Er  Er0_6  1  0.50001076  0.50000395  0.49998486  1
  Er  Er0_7  1  0.50001076  0.50000395  0.99998486  1
  Er  Er1_0  1  0.22220145  0.11110018  0.16684562  1
  Er  Er1_1  1  0.22220145  0.11110018  0.66684562  1
  Er  Er1_2  1  0.22220145  0.61110018  0.16684562  1
  Er  Er1_3  1  0.22220145  0.61110018  0.66684562  1
  Er  Er1_4  1  0.72220145  0.11110018  0.16684562  1
  Er  Er1_5  1  0.72220145  0.11110019  0.66684562  1
  Er  Er1_6  1  0.72220145  0.61110018  0.16684562  1
  Er  Er1_7  1  0.72220145  0.61110018  0.66684562  1
  Er  Er2_0  1  0.27778979  0.38889686  0.33317002  1
  Er  Er2_1  1  0.27778979  0.38889686  0.83317002  1
  Er  Er2_2  1  0.27778979  0.88889686  0.33317002  1
  Er  Er2_3  1  0.27778979  0.88889686  0.83317002  1
  Er  Er2_4  1  0.77778979  0.38889686  0.33317002  1
  Er  Er2_5  1  0.77778979  0.38889686  0.83317002  1
  Er  Er2_6  1  0.77778979  0.88889686  0.33317002  1
  Er  Er2_7  1  0.77778979  0.88889686  0.83317002  1
loop_
_geom_bond_atom_site_label_1
_geom_bond_atom_site_label_2
_geom_bond_distance
_geom_bond_site_symmetry_2
Er0_0 Er2_2 3.497748 1_545
Er0_0 Er2_0 3.497773 1_555
Er0_0 Er1_7 3.498390 1_445
Er0_0 Er1_5 3.498396 1_455
Er0_0 Er2_6 3.498850 1_445
Er0_0 Er1_1 3.499484 1_555
Er0_0 Er0_2 3.548088 1_555
Er0_0 Er0_2 3.548088 1_545
Er0_0 Er0_6 3.548243 1_555
Er0_0 Er0_6 3.548243 1_445
Er0_0 Er0_4 3.548246 1_555
Er0_0 Er0_4 3.548246 1_455
Er0_1 Er2_3 3.497748 1_545
Er0_1 Er2_1 3.497773 1_555
Er0_1 Er1_6 3.498390 1_446
Er0_1 Er1_4 3.498396 1_456
Er0_1 Er2_7 3.498850 1_445
Er0_1 Er1_0 3.499484 1_556
Er0_1 Er0_3 3.548088 1_555
Er0_1 Er0_3 3.548088 1_545
Er0_1 Er0_7 3.548243 1_555
Er0_1 Er0_7 3.548243 1_445
Er0_1 Er0_5 3.548246 1_555
Er0_1 Er0_5 3.548246 1_455
Er0_2 Er2_0 3.497748 1_555
Er0_2 Er2_2 3.497773 1_555
Er0_2 Er1_5 3.498390 1_455
Er0_2 Er1_7 3.498396 1_455
Er0_2 Er2_4 3.498850 1_455
Er0_2 Er1_3 3.499484 1_555
Er0_2 Er0_4 3.548243 1_455
Er0_2 Er0_4 3.548243 1_565
Er0_2 Er0_6 3.548246 1_455
Er0_2 Er0_6 3.548246 1_555
Er0_3 Er2_1 3.497748 1_555
Er0_3 Er2_3 3.497773 1_555
Er0_3 Er1_4 3.498390 1_456
Er0_3 Er1_6 3.498396 1_456
Er0_3 Er2_5 3.498850 1_455
Er0_3 Er1_2 3.499484 1_556
Er0_3 Er0_5 3.548243 1_565
Er0_3 Er0_5 3.548243 1_455
Er0_3 Er0_7 3.548246 1_455
Er0_3 Er0_7 3.548246 1_555
Er0_4 Er2_6 3.497748 1_545
Er0_4 Er2_4 3.497773 1_555
Er0_4 Er1_3 3.498390 1_545
Er0_4 Er1_1 3.498396 1_555
Er0_4 Er2_2 3.498850 1_545
Er0_4 Er1_5 3.499484 1_555
Er0_4 Er0_6 3.548088 1_555
Er0_4 Er0_6 3.548088 1_545
Er0_5 Er2_7 3.497748 1_545
Er0_5 Er2_5 3.497773 1_555
Er0_5 Er1_2 3.498390 1_546
Er0_5 Er1_0 3.498396 1_556
Er0_5 Er2_3 3.498850 1_545
Er0_5 Er1_4 3.499484 1_556
Er0_5 Er0_7 3.548088 1_555
Er0_5 Er0_7 3.548088 1_545
Er0_6 Er2_4 3.497748 1_555
Er0_6 Er2_6 3.497773 1_555
Er0_6 Er1_1 3.498390 1_555
Er0_6 Er1_3 3.498396 1_555
Er0_6 Er2_0 3.498850 1_555
Er0_6 Er1_7 3.499484 1_555
Er0_7 Er2_5 3.497748 1_555
Er0_7 Er2_7 3.497773 1_555
Er0_7 Er1_0 3.498390 1_556
Er0_7 Er1_2 3.498396 1_556
Er0_7 Er2_1 3.498850 1_555
Er0_7 Er1_6 3.499484 1_556
Er1_0 Er2_2 3.491162 1_545
Er1_0 Er2_0 3.491177 1_555
Er1_0 Er2_6 3.491770 1_445
Er1_0 Er1_2 3.548088 1_555
Er1_0 Er1_2 3.548088 1_545
Er1_0 Er1_6 3.548243 1_555
Er1_0 Er1_6 3.548243 1_445
Er1_0 Er1_4 3.548246 1_555
Er1_0 Er1_4 3.548246 1_455
Er1_1 Er2_3 3.491162 1_545
Er1_1 Er2_1 3.491177 1_555
Er1_1 Er2_7 3.491770 1_445
Er1_1 Er1_3 3.548088 1_555
Er1_1 Er1_3 3.548088 1_545
Er1_1 Er1_7 3.548243 1_555
Er1_1 Er1_7 3.548243 1_445
Er1_1 Er1_5 3.548246 1_555
Er1_1 Er1_5 3.548246 1_455
Er1_2 Er2_0 3.491162 1_555
Er1_2 Er2_2 3.491177 1_555
Er1_2 Er2_4 3.491770 1_455
Er1_2 Er1_4 3.548243 1_455
Er1_2 Er1_4 3.548243 1_565
Er1_2 Er1_6 3.548246 1_455
Er1_2 Er1_6 3.548246 1_555
Er1_3 Er2_1 3.491162 1_555
Er1_3 Er2_3 3.491177 1_555
Er1_3 Er2_5 3.491770 1_455
Er1_3 Er1_5 3.548243 1_455
Er1_3 Er1_5 3.548243 1_565
Er1_3 Er1_7 3.548246 1_555
Er1_3 Er1_7 3.548246 1_455
Er1_4 Er2_6 3.491162 1_545
Er1_4 Er2_4 3.491177 1_555
Er1_4 Er2_2 3.491770 1_545
Er1_4 Er1_6 3.548088 1_555
Er1_4 Er1_6 3.548088 1_545
Er1_5 Er2_7 3.491162 1_545
Er1_5 Er2_5 3.491177 1_555
Er1_5 Er2_3 3.491770 1_545
Er1_5 Er1_7 3.548088 1_555
Er1_5 Er1_7 3.548088 1_545
Er1_6 Er2_4 3.491162 1_555
Er1_6 Er2_6 3.491177 1_555
Er1_6 Er2_0 3.491770 1_555
Er1_7 Er2_5 3.491162 1_555
Er1_7 Er2_7 3.491177 1_555
Er1_7 Er2_1 3.491770 1_555
Er2_0 Er2_2 3.548088 1_555
Er2_0 Er2_2 3.548088 1_545
Er2_0 Er2_6 3.548243 1_555
Er2_0 Er2_6 3.548243 1_445
Er2_0 Er2_4 3.548246 1_455
Er2_0 Er2_4 3.548246 1_555
Er2_1 Er2_3 3.548088 1_545
Er2_1 Er2_3 3.548088 1_555
Er2_1 Er2_7 3.548243 1_445
Er2_1 Er2_7 3.548243 1_555
Er2_1 Er2_5 3.548246 1_555
Er2_1 Er2_5 3.548246 1_455
Er2_2 Er2_4 3.548243 1_455
Er2_2 Er2_4 3.548243 1_565
Er2_2 Er2_6 3.548246 1_455
Er2_2 Er2_6 3.548246 1_555
Er2_3 Er2_5 3.548243 1_565
Er2_3 Er2_5 3.548243 1_455
Er2_3 Er2_7 3.548246 1_555
Er2_3 Er2_7 3.548246 1_455
Er2_4 Er2_6 3.548088 1_555
Er2_4 Er2_6 3.548088 1_545
Er2_5 Er2_7 3.548088 1_555
Er2_5 Er2_7 3.548088 1_545
