# generated using pymatgen
data_BiMoO5
_symmetry_space_group_name_H-M   'P 1'
_cell_length_a   6.23285000
_cell_length_b   11.99877700
_cell_length_c   16.27411400
_cell_angle_alpha   90.00000000
_cell_angle_beta   90.00000000
_cell_angle_gamma   90.00000000
_symmetry_Int_Tables_number   1
_chemical_formula_structural   BiMoO5
_chemical_formula_sum   'Bi8 Mo8 O40'
_cell_volume   1217.08528342
_cell_formula_units_Z   8
loop_
 _symmetry_equiv_pos_site_id
 _symmetry_equiv_pos_as_xyz
  1  'x, y, z'
loop_
 _atom_site_type_symbol
 _atom_site_label
 _atom_site_symmetry_multiplicity
 _atom_site_fract_x
 _atom_site_fract_y
 _atom_site_fract_z
 _atom_site_occupancy
  Bi  Bi0  1  0.92548200  0.81981000  0.21000600  1
  Bi  Bi1  1  0.07451800  0.18019000  0.78999400  1
  Bi  Bi2  1  0.57451800  0.31981000  0.78999400  1
  Bi  Bi3  1  0.07451800  0.68019000  0.71000600  1
  Bi  Bi4  1  0.42548200  0.18019000  0.28999400  1
  Bi  Bi5  1  0.42548200  0.68019000  0.21000600  1
  Bi  Bi6  1  0.57451800  0.81981000  0.71000600  1
  Bi  Bi7  1  0.92548200  0.31981000  0.28999400  1
  Mo  Mo0  1  0.97840300  0.39791500  0.61499100  1
  Mo  Mo1  1  0.52159700  0.89791500  0.38500800  1
  Mo  Mo2  1  0.02159700  0.60208500  0.38500800  1
  Mo  Mo3  1  0.47840300  0.10208500  0.61499100  1
  Mo  Mo4  1  0.02159700  0.10208500  0.11499200  1
  Mo  Mo5  1  0.97840300  0.89791500  0.88500900  1
  Mo  Mo6  1  0.52159700  0.39791500  0.11499200  1
  Mo  Mo7  1  0.47840300  0.60208500  0.88500900  1
  O  O0  1  0.88541800  0.29771900  0.70216200  1
  O  O1  1  0.25114900  0.04599800  0.07239300  1
  O  O2  1  0.24885100  0.54599800  0.92760700  1
  O  O3  1  0.22819900  0.79588700  0.15179300  1
  O  O4  1  0.27180100  0.29588700  0.84820700  1
  O  O5  1  0.88541800  0.79771900  0.79783800  1
  O  O6  1  0.27180100  0.79588700  0.65179300  1
  O  O7  1  0.61458200  0.79771900  0.29783800  1
  O  O8  1  0.25114900  0.54599800  0.42760700  1
  O  O9  1  0.11458200  0.70228100  0.29783800  1
  O  O10  1  0.61458200  0.29771900  0.20216200  1
  O  O11  1  0.62099700  0.17180700  0.54041800  1
  O  O12  1  0.75114900  0.95400200  0.42760700  1
  O  O13  1  0.77180100  0.70411300  0.65179300  1
  O  O14  1  0.14806200  0.01074900  0.83810300  1
  O  O15  1  0.75114900  0.45400200  0.07239300  1
  O  O16  1  0.11458200  0.20228100  0.20216200  1
  O  O17  1  0.72819900  0.20411300  0.34820700  1
  O  O18  1  0.12099700  0.82819300  0.95958200  1
  O  O19  1  0.24885100  0.04599800  0.57239300  1
  O  O20  1  0.37900300  0.82819300  0.45958200  1
  O  O21  1  0.85193800  0.98925100  0.16189700  1
  O  O22  1  0.77180100  0.20411300  0.84820700  1
  O  O23  1  0.64806200  0.98925100  0.66189700  1
  O  O24  1  0.37900300  0.32819300  0.04041800  1
  O  O25  1  0.12099700  0.32819300  0.54041800  1
  O  O26  1  0.74885100  0.45400200  0.57239300  1
  O  O27  1  0.74885100  0.95400200  0.92760700  1
  O  O28  1  0.64806200  0.48925100  0.83810300  1
  O  O29  1  0.87900300  0.67180700  0.45958200  1
  O  O30  1  0.87900300  0.17180700  0.04041800  1
  O  O31  1  0.62099700  0.67180700  0.95958200  1
  O  O32  1  0.85193800  0.48925100  0.33810300  1
  O  O33  1  0.72819900  0.70411300  0.15179300  1
  O  O34  1  0.22819900  0.29588700  0.34820700  1
  O  O35  1  0.14806200  0.51074900  0.66189700  1
  O  O36  1  0.35193800  0.51074900  0.16189700  1
  O  O37  1  0.38541800  0.20228100  0.70216200  1
  O  O38  1  0.35193800  0.01074900  0.33810300  1
  O  O39  1  0.38541800  0.70228100  0.79783800  1
loop_
_geom_bond_atom_site_label_1
_geom_bond_atom_site_label_2
_geom_bond_distance
_geom_bond_site_symmetry_2
Bi0 O33 2.082466 1_555
Bi0 O3 2.130697 1_655
Bi0 O21 2.226328 1_555
Bi0 O9 2.328304 1_655
Bi0 O7 2.422489 1_555
Bi1 O4 2.082466 1_555
Bi1 O22 2.130697 1_455
Bi1 O14 2.226328 1_555
Bi1 O0 2.328304 1_455
Bi1 O37 2.422489 1_555
Bi2 O22 2.082466 1_555
Bi2 O4 2.130697 1_555
Bi2 O28 2.226328 1_555
Bi2 O37 2.328304 1_555
Bi2 O0 2.422489 1_555
Bi3 O6 2.082466 1_555
Bi3 O13 2.130697 1_455
Bi3 O35 2.226328 1_555
Bi3 O5 2.328304 1_455
Bi3 O39 2.422489 1_555
Bi4 O34 2.082466 1_555
Bi4 O17 2.130697 1_555
Bi4 O38 2.226328 1_555
Bi4 O10 2.328304 1_555
Bi4 O16 2.422489 1_555
Bi5 O3 2.082466 1_555
Bi5 O33 2.130697 1_555
Bi5 O36 2.226328 1_555
Bi5 O7 2.328304 1_555
Bi5 O9 2.422489 1_555
Bi6 O13 2.082466 1_555
Bi6 O6 2.130697 1_555
Bi6 O23 2.226328 1_555
Bi6 O39 2.328304 1_555
Bi6 O5 2.422489 1_555
Bi7 O17 2.082466 1_555
Bi7 O34 2.130697 1_655
Bi7 O32 2.226328 1_555
Bi7 O16 2.328304 1_655
Bi7 O10 2.422489 1_555
Mo0 O25 1.721226 1_655
Mo0 O26 1.726432 1_555
Mo0 O35 1.879865 1_655
Mo0 O0 1.947758 1_555
Mo1 O20 1.721237 1_555
Mo1 O12 1.726439 1_555
Mo1 O38 1.879858 1_565
Mo1 O7 1.947746 1_555
Mo2 O29 1.721237 1_455
Mo2 O8 1.726439 1_555
Mo2 O32 1.879858 1_455
Mo2 O9 1.947746 1_555
Mo3 O11 1.721226 1_555
Mo3 O19 1.726432 1_555
Mo3 O23 1.879865 1_545
Mo3 O37 1.947758 1_555
Mo4 O30 1.721237 1_455
Mo4 O1 1.726439 1_555
Mo4 O21 1.879858 1_445
Mo4 O16 1.947746 1_555
Mo5 O18 1.721226 1_655
Mo5 O27 1.726432 1_555
Mo5 O14 1.879865 1_665
Mo5 O5 1.947758 1_555
Mo6 O24 1.721237 1_555
Mo6 O15 1.726439 1_555
Mo6 O36 1.879858 1_555
Mo6 O10 1.947746 1_555
Mo7 O31 1.721226 1_555
Mo7 O2 1.726432 1_555
Mo7 O28 1.879865 1_555
Mo7 O39 1.947758 1_555
