# generated using pymatgen
data_UVB4
_symmetry_space_group_name_H-M   'P 1'
_cell_length_a   3.54850200
_cell_length_b   5.91210000
_cell_length_c   11.43931300
_cell_angle_alpha   90.00000000
_cell_angle_beta   90.00000000
_cell_angle_gamma   90.00000000
_symmetry_Int_Tables_number   1
_chemical_formula_structural   UVB4
_chemical_formula_sum   'U4 V4 B16'
_cell_volume   239.98647619
_cell_formula_units_Z   4
loop_
 _symmetry_equiv_pos_site_id
 _symmetry_equiv_pos_as_xyz
  1  'x, y, z'
loop_
 _atom_site_type_symbol
 _atom_site_label
 _atom_site_symmetry_multiplicity
 _atom_site_fract_x
 _atom_site_fract_y
 _atom_site_fract_z
 _atom_site_occupancy
  U  U0  1  0.00000000  0.62502400  0.34888300  1
  U  U1  1  0.00000000  0.37497600  0.65111700  1
  U  U2  1  0.00000000  0.12502400  0.15111700  1
  U  U3  1  0.00000000  0.87497600  0.84888300  1
  V  V0  1  0.00000000  0.62758000  0.08458600  1
  V  V1  1  0.00000000  0.37242000  0.91541400  1
  V  V2  1  0.00000000  0.12758000  0.41541400  1
  V  V3  1  0.00000000  0.87242000  0.58458600  1
  B  B0  1  0.50000000  0.78462700  0.18679200  1
  B  B1  1  0.50000000  0.21537300  0.81320800  1
  B  B2  1  0.50000000  0.28462700  0.31320800  1
  B  B3  1  0.50000000  0.71537300  0.68679200  1
  B  B4  1  0.50000000  0.86613900  0.03306200  1
  B  B5  1  0.50000000  0.13386100  0.96693800  1
  B  B6  1  0.50000000  0.36613900  0.46693800  1
  B  B7  1  0.50000000  0.63386100  0.53306200  1
  B  B8  1  0.50000000  0.88492600  0.45318200  1
  B  B9  1  0.50000000  0.11507400  0.54681800  1
  B  B10  1  0.50000000  0.38492600  0.04681800  1
  B  B11  1  0.50000000  0.61507400  0.95318200  1
  B  B12  1  0.50000000  0.97223600  0.30743600  1
  B  B13  1  0.50000000  0.02776400  0.69256400  1
  B  B14  1  0.50000000  0.47223600  0.19256400  1
  B  B15  1  0.50000000  0.52776400  0.80743600  1
loop_
_geom_bond_atom_site_label_1
_geom_bond_atom_site_label_2
_geom_bond_distance
_geom_bond_site_symmetry_2
B0 B12 1.770558 1_555
B0 B4 1.823400 1_555
B0 B14 1.848067 1_555
B0 V0 2.318833 1_555
B0 V0 2.318833 1_655
B0 U2 2.713763 1_565
B0 U2 2.713763 1_665
B0 U0 2.734304 1_555
B0 U0 2.734304 1_655
B1 B13 1.770558 1_555
B1 B5 1.823400 1_555
B1 B15 1.848067 1_555
B1 V1 2.318833 1_555
B1 V1 2.318833 1_655
B1 U3 2.713763 1_545
B1 U3 2.713763 1_645
B1 U1 2.734304 1_555
B1 U1 2.734304 1_655
B2 B6 1.823400 1_555
B2 V2 2.318833 1_555
B2 V2 2.318833 1_655
B2 U0 2.713763 1_655
B2 U0 2.713763 1_555
B2 U2 2.734304 1_655
B2 U2 2.734304 1_555
B3 B7 1.823400 1_555
B3 V3 2.318833 1_555
B3 V3 2.318833 1_655
B3 U1 2.713763 1_655
B3 U1 2.713763 1_555
B3 U3 2.734304 1_655
B3 U3 2.734304 1_555
B4 B5 1.754256 1_564
B4 V0 2.341910 1_555
B4 V0 2.341910 1_655
B4 U2 2.704501 1_565
B4 U2 2.704501 1_665
B4 U3 2.754931 1_654
B4 U3 2.754931 1_554
B5 V1 2.341910 1_555
B5 V1 2.341910 1_655
B5 U3 2.704501 1_645
B5 U3 2.704501 1_545
B5 U2 2.754931 1_656
B5 U2 2.754931 1_556
B6 B9 1.743040 1_555
B6 B7 1.754256 1_555
B6 V2 2.341910 1_655
B6 V2 2.341910 1_555
B6 U0 2.704501 1_555
B6 U0 2.704501 1_655
B6 U1 2.754931 1_555
B6 U1 2.754931 1_655
B7 B8 1.743040 1_555
B7 V3 2.341910 1_555
B7 V3 2.341910 1_655
B7 U1 2.704501 1_655
B7 U1 2.704501 1_555
B7 U0 2.754931 1_655
B7 U0 2.754931 1_555
B8 B9 1.731679 1_565
B8 V2 2.322216 1_565
B8 V2 2.322216 1_665
B8 V3 2.326576 1_655
B8 V3 2.326576 1_555
B8 U0 2.632966 1_555
B8 U0 2.632966 1_655
B9 V3 2.322216 1_645
B9 V3 2.322216 1_545
B9 V2 2.326576 1_655
B9 V2 2.326576 1_555
B9 U1 2.632966 1_655
B9 U1 2.632966 1_555
B10 B11 1.731679 1_554
B10 B5 1.743040 1_554
B10 B14 1.745313 1_555
B10 V0 2.322216 1_655
B10 V0 2.322216 1_555
B10 V1 2.326576 1_554
B10 V1 2.326576 1_654
B10 U2 2.632966 1_555
B10 U2 2.632966 1_655
B11 B4 1.743040 1_556
B11 B15 1.745313 1_555
B11 V1 2.322216 1_655
B11 V1 2.322216 1_555
B11 V0 2.326576 1_556
B11 V0 2.326576 1_656
B11 U3 2.632966 1_555
B11 U3 2.632966 1_655
B12 B8 1.745313 1_555
B12 B2 1.848067 1_565
B12 V2 2.348861 1_565
B12 V2 2.348861 1_665
B12 U2 2.676099 1_565
B12 U2 2.676099 1_665
B12 U0 2.754370 1_655
B12 U0 2.754370 1_555
B13 B9 1.745313 1_555
B13 B3 1.848067 1_545
B13 V3 2.348861 1_645
B13 V3 2.348861 1_545
B13 U3 2.676099 1_545
B13 U3 2.676099 1_645
B13 U1 2.754370 1_555
B13 U1 2.754370 1_655
B14 B2 1.770558 1_555
B14 V0 2.348861 1_555
B14 V0 2.348861 1_655
B14 U0 2.676099 1_555
B14 U0 2.676099 1_655
B14 U2 2.754370 1_555
B14 U2 2.754370 1_655
B15 B3 1.770558 1_555
B15 V1 2.348861 1_655
B15 V1 2.348861 1_555
B15 U1 2.676099 1_555
B15 U1 2.676099 1_655
B15 U3 2.754370 1_655
B15 U3 2.754370 1_555
