# generated using pymatgen
data_Er7FeI12
_symmetry_space_group_name_H-M   'P 1'
_cell_length_a   9.59762524
_cell_length_b   9.59762587
_cell_length_c   9.59762567
_cell_angle_alpha   107.06470687
_cell_angle_beta   107.06470478
_cell_angle_gamma   107.06470287
_symmetry_Int_Tables_number   1
_chemical_formula_structural   Er7FeI12
_chemical_formula_sum   'Er7 Fe1 I12'
_cell_volume   734.96658097
_cell_formula_units_Z   1
loop_
 _symmetry_equiv_pos_site_id
 _symmetry_equiv_pos_as_xyz
  1  'x, y, z'
loop_
 _atom_site_type_symbol
 _atom_site_label
 _atom_site_symmetry_multiplicity
 _atom_site_fract_x
 _atom_site_fract_y
 _atom_site_fract_z
 _atom_site_occupancy
  Er  Er0  1  0.91010153  0.97983419  0.71339558  1
  Er  Er1  1  0.71339558  0.91010153  0.97983419  1
  Er  Er2  1  0.97983419  0.71339558  0.91010153  1
  Er  Er3  1  0.08989847  0.02016581  0.28660442  1
  Er  Er4  1  0.28660442  0.08989847  0.02016581  1
  Er  Er5  1  0.02016581  0.28660442  0.08989847  1
  Er  Er6  1  0.50000000  0.50000000  0.50000000  1
  Fe  Fe0  1  -0.00000000  0.00000000  -0.00000000  1
  I  I0  1  0.84045180  0.61386810  0.53575456  1
  I  I1  1  0.53575456  0.84045180  0.61386810  1
  I  I2  1  0.61386810  0.53575456  0.84045180  1
  I  I3  1  0.15954820  0.38613190  0.46424544  1
  I  I4  1  0.46424544  0.15954820  0.38613190  1
  I  I5  1  0.38613190  0.46424544  0.15954820  1
  I  I6  1  0.92759809  0.32251380  0.77261304  1
  I  I7  1  0.77261304  0.92759809  0.32251380  1
  I  I8  1  0.32251380  0.77261304  0.92759809  1
  I  I9  1  0.07240191  0.67748620  0.22738696  1
  I  I10  1  0.22738696  0.07240191  0.67748620  1
  I  I11  1  0.67748620  0.22738696  0.07240191  1
loop_
_geom_bond_atom_site_label_1
_geom_bond_atom_site_label_2
_geom_bond_distance
_geom_bond_site_symmetry_2
Er0 Fe0 2.558316 1_666
Er0 I10 3.064162 1_665
Er0 I6 3.113026 1_565
Er0 I1 3.166305 1_555
Er0 I0 3.182627 1_555
Er0 I7 3.416007 1_555
Er1 Fe0 2.558316 1_666
Er1 I11 3.064162 1_566
Er1 I7 3.113026 1_556
Er1 I2 3.166305 1_555
Er1 I1 3.182627 1_555
Er1 I8 3.416007 1_555
Er2 Fe0 2.558316 1_666
Er2 I9 3.064162 1_656
Er2 I8 3.113026 1_655
Er2 I0 3.166305 1_555
Er2 I2 3.182627 1_555
Er2 I6 3.416007 1_555
Er3 Fe0 2.558316 1_555
Er3 I7 3.064162 1_445
Er3 I9 3.113026 1_545
Er3 I4 3.166305 1_555
Er3 I3 3.182627 1_555
Er3 I10 3.416007 1_555
Er4 Fe0 2.558316 1_555
Er4 I8 3.064162 1_544
Er4 I10 3.113026 1_554
Er4 I5 3.166305 1_555
Er4 I4 3.182627 1_555
Er4 I11 3.416007 1_555
Er5 Fe0 2.558316 1_555
Er5 I6 3.064162 1_454
Er5 I11 3.113026 1_455
Er5 I3 3.166305 1_555
Er5 I5 3.182627 1_555
Er5 I9 3.416007 1_555
Er6 I0 3.002475 1_555
Er6 I3 3.002475 1_555
Er6 I5 3.002475 1_555
Er6 I2 3.002475 1_555
Er6 I1 3.002475 1_555
Er6 I4 3.002475 1_555
