# generated using pymatgen
data_CaMn2O4
_symmetry_space_group_name_H-M   'P 1'
_cell_length_a   6.27327100
_cell_length_b   6.32900307
_cell_length_c   15.34161541
_cell_angle_alpha   90.24839593
_cell_angle_beta   90.99724673
_cell_angle_gamma   118.86183247
_symmetry_Int_Tables_number   1
_chemical_formula_structural   CaMn2O4
_chemical_formula_sum   'Ca6 Mn12 O24'
_cell_volume   533.31874629
_cell_formula_units_Z   6
loop_
 _symmetry_equiv_pos_site_id
 _symmetry_equiv_pos_as_xyz
  1  'x, y, z'
loop_
 _atom_site_type_symbol
 _atom_site_label
 _atom_site_symmetry_multiplicity
 _atom_site_fract_x
 _atom_site_fract_y
 _atom_site_fract_z
 _atom_site_occupancy
  Ca  Ca0  1  0.85136700  0.18287900  0.04277200  1
  Ca  Ca1  1  0.15479100  0.82146300  0.32954800  1
  Ca  Ca2  1  0.32936400  0.16203900  0.16527300  1
  Ca  Ca3  1  0.84384100  0.17732200  0.66959400  1
  Ca  Ca4  1  0.00079400  0.50068400  0.50008500  1
  Ca  Ca5  1  0.66903200  0.83707900  0.83582200  1
  Mn  Mn0  1  0.82288400  0.65591400  0.16288500  1
  Mn  Mn1  1  0.51130700  0.51980900  0.38025600  1
  Mn  Mn2  1  0.49890100  0.49881600  0.00121800  1
  Mn  Mn3  1  0.33706700  0.66472700  0.16426800  1
  Mn  Mn4  1  0.50028700  0.00057500  0.49946900  1
  Mn  Mn5  1  0.18997800  0.86402200  0.71126200  1
  Mn  Mn6  1  0.00026500  0.99984200  0.49966800  1
  Mn  Mn7  1  0.17410400  0.34264600  0.83651300  1
  Mn  Mn8  1  0.81136400  0.13710500  0.28940000  1
  Mn  Mn9  1  0.66667000  0.33812000  0.83538700  1
  Mn  Mn10  1  0.48868300  0.47990300  0.62000900  1
  Mn  Mn11  1  0.14580000  0.80907900  0.95922500  1
  O  O0  1  0.65575500  0.37940700  0.08095700  1
  O  O1  1  0.52090600  0.53174700  0.23674600  1
  O  O2  1  0.23549900  0.39955100  0.08071100  1
  O  O3  1  0.66499300  0.78268300  0.07730000  1
  O  O4  1  0.35330300  0.70914800  0.42735000  1
  O  O5  1  0.96312200  0.48843000  0.23300500  1
  O  O6  1  0.18922900  0.87010300  0.57311000  1
  O  O7  1  0.47385400  0.94913800  0.23582900  1
  O  O8  1  0.85700700  0.71427200  0.42607600  1
  O  O9  1  0.13410800  0.78591300  0.09474100  1
  O  O10  1  0.31857200  0.14636600  0.42851100  1
  O  O11  1  0.96550700  0.95422900  0.22961500  1
  O  O12  1  0.03325000  0.04565000  0.76870600  1
  O  O13  1  0.68131000  0.85361600  0.57056800  1
  O  O14  1  0.14380100  0.28604500  0.57341800  1
  O  O15  1  0.52735500  0.05272000  0.76326000  1
  O  O16  1  0.86591100  0.21726200  0.89821200  1
  O  O17  1  0.81214300  0.13166500  0.42652600  1
  O  O18  1  0.04256300  0.51422200  0.76343600  1
  O  O19  1  0.64686000  0.29195000  0.57173900  1
  O  O20  1  0.32411700  0.20206100  0.92699700  1
  O  O21  1  0.77764400  0.60810400  0.92239700  1
  O  O22  1  0.48050400  0.46754100  0.76602800  1
  O  O23  1  0.33618600  0.62615800  0.92211100  1
loop_
_geom_bond_atom_site_label_1
_geom_bond_atom_site_label_2
_geom_bond_distance
_geom_bond_site_symmetry_2
Ca0 O2 2.186390 1_655
Ca0 O0 2.210962 1_555
Ca0 O16 2.228521 1_554
Ca0 O3 2.288488 1_545
Ca1 O8 2.241550 1_455
Ca1 O4 2.259699 1_555
Ca1 O7 2.296810 1_555
Ca1 O11 2.318965 1_455
Ca1 O10 2.338406 1_565
Ca1 O5 2.355087 1_455
Ca2 O7 2.228567 1_545
Ca2 O11 2.259605 1_445
Ca2 O2 2.265891 1_555
Ca2 O0 2.268597 1_555
Ca2 O1 2.310586 1_555
Ca2 O9 2.335509 1_545
Ca3 O14 2.246532 1_655
Ca3 O19 2.262170 1_555
Ca3 O15 2.286103 1_555
Ca3 O12 2.307033 1_655
Ca3 O13 2.333969 1_545
Ca3 O18 2.349045 1_655
Ca4 O14 2.251797 1_555
Ca4 O8 2.254989 1_455
Ca4 O19 2.269217 1_455
Ca4 O4 2.271147 1_555
Ca4 O6 2.319911 1_555
Ca4 O17 2.321871 1_455
Ca5 O15 2.245351 1_565
Ca5 O12 2.281484 1_665
Ca5 O21 2.294977 1_555
Ca5 O22 2.297633 1_555
Ca5 O16 2.302427 1_565
Ca5 O23 2.305429 1_555
Mn0 O11 1.932306 1_555
Mn0 O0 1.976197 1_555
Mn0 O5 1.982938 1_555
Mn0 O3 2.019866 1_555
Mn0 O9 2.027178 1_655
Mn0 O1 2.033603 1_555
Mn1 O8 2.018593 1_555
Mn1 O4 2.025976 1_555
Mn1 O1 2.204172 1_555
Mn1 O10 2.209907 1_555
Mn2 O2 1.920156 1_555
Mn2 O0 1.928710 1_555
Mn2 O3 1.951438 1_555
Mn2 O21 1.977778 1_554
Mn2 O23 1.980898 1_554
Mn2 O20 1.994046 1_554
Mn3 O7 1.908056 1_555
Mn3 O2 1.945893 1_555
Mn3 O1 2.043352 1_555
Mn3 O9 2.061474 1_555
Mn3 O3 2.278374 1_555
Mn3 O5 2.330125 1_455
Mn4 O4 1.944553 1_545
Mn4 O19 1.945593 1_555
Mn4 O17 2.070091 1_555
Mn4 O6 2.072504 1_545
Mn4 O10 2.077717 1_555
Mn4 O13 2.080828 1_545
Mn5 O15 2.008696 1_565
Mn5 O12 2.043825 1_565
Mn5 O18 2.112302 1_555
Mn5 O6 2.119956 1_555
Mn6 O8 1.930765 1_455
Mn6 O14 1.934999 1_565
Mn6 O6 2.061596 1_555
Mn6 O17 2.064098 1_465
Mn6 O10 2.082305 1_565
Mn6 O13 2.083265 1_455
Mn7 O12 1.934881 1_555
Mn7 O16 1.962835 1_455
Mn7 O18 1.990092 1_555
Mn7 O22 2.025267 1_555
Mn7 O23 2.037110 1_555
Mn7 O20 2.092345 1_555
Mn8 O7 2.018149 1_545
Mn8 O11 2.053796 1_545
Mn8 O17 2.104125 1_555
Mn8 O5 2.144938 1_555
Mn9 O15 1.917278 1_555
Mn9 O16 1.990913 1_555
Mn9 O21 1.996439 1_555
Mn9 O22 2.013685 1_555
Mn9 O18 2.363313 1_655
Mn9 O20 2.379887 1_555
Mn10 O14 2.018186 1_555
Mn10 O19 2.026216 1_555
Mn10 O13 2.217677 1_555
Mn10 O22 2.242487 1_555
Mn11 O9 2.084905 1_556
Mn11 O21 2.093668 1_455
Mn11 O23 2.108022 1_555
Mn11 O20 2.241835 1_565
