# generated using pymatgen
data_Ba2GaSbS5
_symmetry_space_group_name_H-M   'P 1'
_cell_length_a   8.97165200
_cell_length_b   9.12353600
_cell_length_c   12.35173200
_cell_angle_alpha   90.00000000
_cell_angle_beta   90.00000000
_cell_angle_gamma   90.00000000
_symmetry_Int_Tables_number   1
_chemical_formula_structural   Ba2GaSbS5
_chemical_formula_sum   'Ba8 Ga4 Sb4 S20'
_cell_volume   1011.02866624
_cell_formula_units_Z   4
loop_
 _symmetry_equiv_pos_site_id
 _symmetry_equiv_pos_as_xyz
  1  'x, y, z'
loop_
 _atom_site_type_symbol
 _atom_site_label
 _atom_site_symmetry_multiplicity
 _atom_site_fract_x
 _atom_site_fract_y
 _atom_site_fract_z
 _atom_site_occupancy
  Ba  Ba0  1  0.00664800  0.12204200  0.82303600  1
  Ba  Ba1  1  0.49335200  0.37795800  0.32303600  1
  Ba  Ba2  1  0.50664800  0.87795800  0.17696400  1
  Ba  Ba3  1  0.99335200  0.62204200  0.67696400  1
  Ba  Ba4  1  0.99335200  0.87795800  0.17696400  1
  Ba  Ba5  1  0.50664800  0.62204200  0.67696400  1
  Ba  Ba6  1  0.49335200  0.12204200  0.82303600  1
  Ba  Ba7  1  0.00664800  0.37795800  0.32303600  1
  Ga  Ga0  1  0.25000000  0.32874600  0.59465600  1
  Ga  Ga1  1  0.25000000  0.17125400  0.09465600  1
  Ga  Ga2  1  0.75000000  0.67125400  0.40534400  1
  Ga  Ga3  1  0.75000000  0.82874600  0.90534400  1
  Sb  Sb0  1  0.25000000  0.97636100  0.52337400  1
  Sb  Sb1  1  0.25000000  0.52363900  0.02337400  1
  Sb  Sb2  1  0.75000000  0.02363900  0.47662600  1
  Sb  Sb3  1  0.75000000  0.47636100  0.97662600  1
  S  S0  1  0.05178600  0.17252600  0.55467100  1
  S  S1  1  0.44821400  0.32747400  0.05467100  1
  S  S2  1  0.55178600  0.82747400  0.44532900  1
  S  S3  1  0.94821400  0.67252600  0.94532900  1
  S  S4  1  0.94821400  0.82747400  0.44532900  1
  S  S5  1  0.55178600  0.67252600  0.94532900  1
  S  S6  1  0.44821400  0.17252600  0.55467100  1
  S  S7  1  0.05178600  0.32747400  0.05467100  1
  S  S8  1  0.25000000  0.88252600  0.71079600  1
  S  S9  1  0.25000000  0.61747400  0.21079600  1
  S  S10  1  0.75000000  0.11747400  0.28920400  1
  S  S11  1  0.75000000  0.38252600  0.78920400  1
  S  S12  1  0.25000000  0.38289400  0.77328600  1
  S  S13  1  0.25000000  0.11710600  0.27328600  1
  S  S14  1  0.75000000  0.61710600  0.22671400  1
  S  S15  1  0.75000000  0.88289400  0.72671400  1
  S  S16  1  0.25000000  0.96936800  0.99233900  1
  S  S17  1  0.25000000  0.53063200  0.49233900  1
  S  S18  1  0.75000000  0.03063200  0.00766100  1
  S  S19  1  0.75000000  0.46936800  0.50766100  1
loop_
_geom_bond_atom_site_label_1
_geom_bond_atom_site_label_2
_geom_bond_distance
_geom_bond_site_symmetry_2
Ba0 S12 3.287577 1_555
Ba0 S16 3.328658 1_545
Ba0 S11 3.335313 1_455
Ba0 S18 3.346295 1_456
Ba0 S0 3.371032 1_555
Ba0 S8 3.385838 1_545
Ba0 S15 3.387896 1_445
Ba0 S7 3.444231 1_556
Ba1 S13 3.287577 1_555
Ba1 S17 3.328658 1_555
Ba1 S10 3.335313 1_555
Ba1 S19 3.346295 1_555
Ba1 S1 3.371032 1_555
Ba1 S9 3.385838 1_555
Ba1 S14 3.387896 1_555
Ba1 S6 3.444231 1_555
Ba2 S14 3.287577 1_555
Ba2 S18 3.328658 1_565
Ba2 S9 3.335313 1_555
Ba2 S16 3.346295 1_554
Ba2 S2 3.371032 1_555
Ba2 S10 3.385838 1_565
Ba2 S13 3.387896 1_565
Ba2 S5 3.444231 1_554
Ba3 S15 3.287577 1_555
Ba3 S19 3.328658 1_555
Ba3 S8 3.335313 1_655
Ba3 S17 3.346295 1_655
Ba3 S3 3.371032 1_555
Ba3 S11 3.385838 1_555
Ba3 S12 3.387896 1_655
Ba3 S4 3.444231 1_555
Ba4 S14 3.287577 1_555
Ba4 S18 3.328658 1_565
Ba4 S9 3.335313 1_655
Ba4 S16 3.346295 1_654
Ba4 S4 3.371032 1_555
Ba4 S10 3.385838 1_565
Ba4 S13 3.387896 1_665
Ba4 S3 3.444231 1_554
Ba5 S15 3.287577 1_555
Ba5 S19 3.328658 1_555
Ba5 S8 3.335313 1_555
Ba5 S17 3.346295 1_555
Ba5 S5 3.371032 1_555
Ba5 S11 3.385838 1_555
Ba5 S12 3.387896 1_555
Ba5 S2 3.444231 1_555
Ba6 S12 3.287577 1_555
Ba6 S16 3.328658 1_545
Ba6 S11 3.335313 1_555
Ba6 S18 3.346295 1_556
Ba6 S6 3.371032 1_555
Ba6 S8 3.385838 1_545
Ba6 S15 3.387896 1_545
Ba6 S1 3.444231 1_556
Ba7 S13 3.287577 1_555
Ba7 S17 3.328658 1_555
Ba7 S10 3.335313 1_455
Ba7 S19 3.346295 1_455
Ba7 S7 3.371032 1_555
Ba7 S9 3.385838 1_555
Ba7 S14 3.387896 1_455
Ba7 S0 3.444231 1_555
Ga0 S17 2.233790 1_555
Ga0 S12 2.261020 1_555
Ga0 S0 2.331891 1_555
Ga0 S6 2.331891 1_555
Ga1 S16 2.233790 1_544
Ga1 S13 2.261020 1_555
Ga1 S7 2.331891 1_555
Ga1 S1 2.331891 1_555
Ga2 S19 2.233790 1_555
Ga2 S14 2.261020 1_555
Ga2 S4 2.331891 1_555
Ga2 S2 2.331891 1_555
Ga3 S18 2.233790 1_566
Ga3 S15 2.261020 1_555
Ga3 S3 2.331891 1_555
Ga3 S5 2.331891 1_555
S0 Sb0 2.552431 1_545
S0 Sb2 3.178856 1_455
S1 Sb1 2.552431 1_555
S1 Sb3 3.178856 1_554
S2 Sb2 2.552431 1_565
S2 Sb0 3.178856 1_555
S3 Sb3 2.552431 1_555
S3 Sb1 3.178856 1_656
S4 Sb2 2.552431 1_565
S4 Sb0 3.178856 1_655
S5 Sb3 2.552431 1_555
S5 Sb1 3.178856 1_556
S6 Sb0 2.552431 1_545
S6 Sb2 3.178856 1_555
S7 Sb1 2.552431 1_555
S7 Sb3 3.178856 1_454
S8 Sb0 2.468214 1_555
S9 Sb1 2.468214 1_555
S10 Sb2 2.468214 1_555
S11 Sb3 2.468214 1_555
