# generated using pymatgen
data_LiMg14Zr
_symmetry_space_group_name_H-M   'P 1'
_cell_length_a   6.44227647
_cell_length_b   6.44227593
_cell_length_c   10.07637285
_cell_angle_alpha   90.00000000
_cell_angle_beta   90.00000000
_cell_angle_gamma   120.00000272
_symmetry_Int_Tables_number   1
_chemical_formula_structural   LiMg14Zr
_chemical_formula_sum   'Li1 Mg14 Zr1'
_cell_volume   362.17088106
_cell_formula_units_Z   1
loop_
 _symmetry_equiv_pos_site_id
 _symmetry_equiv_pos_as_xyz
  1  'x, y, z'
loop_
 _atom_site_type_symbol
 _atom_site_label
 _atom_site_symmetry_multiplicity
 _atom_site_fract_x
 _atom_site_fract_y
 _atom_site_fract_z
 _atom_site_occupancy
  Li  Li0  1  0.16666700  0.33333300  0.62500000  1
  Mg  Mg0  1  0.17213456  0.83606678  0.12500000  1
  Mg  Mg1  1  0.16785480  0.83392690  0.62500000  1
  Mg  Mg2  1  0.66393322  0.32786544  0.12500000  1
  Mg  Mg3  1  0.66607310  0.33214520  0.62500000  1
  Mg  Mg4  1  0.66393322  0.83606678  0.12500000  1
  Mg  Mg5  1  0.66607310  0.83392690  0.62500000  1
  Mg  Mg6  1  0.33066981  0.16933019  0.37537980  1
  Mg  Mg7  1  0.33066981  0.16933019  0.87462020  1
  Mg  Mg8  1  0.33066981  0.66134061  0.37537980  1
  Mg  Mg9  1  0.33066981  0.66134061  0.87462020  1
  Mg  Mg10  1  0.83865939  0.16933019  0.37537980  1
  Mg  Mg11  1  0.83865939  0.16933019  0.87462020  1
  Mg  Mg12  1  0.83333300  0.66666700  0.37306837  1
  Mg  Mg13  1  0.83333300  0.66666700  0.87693163  1
  Zr  Zr0  1  0.16666700  0.33333300  0.12500000  1
loop_
_geom_bond_atom_site_label_1
_geom_bond_atom_site_label_2
_geom_bond_distance
_geom_bond_site_symmetry_2
Li0 Mg7 3.110541 1_555
Li0 Mg6 3.110541 1_555
Li0 Mg9 3.110548 1_555
Li0 Mg8 3.110548 1_555
Li0 Mg11 3.110548 1_455
Li0 Mg10 3.110548 1_455
Li0 Mg1 3.221145 1_555
Li0 Mg1 3.221145 1_545
Li0 Mg5 3.221145 1_555
Li0 Mg5 3.221145 1_445
Li0 Mg3 3.221145 1_555
Li0 Mg3 3.221145 1_455
Mg0 Mg12 3.133868 1_455
Mg0 Mg13 3.133868 1_454
Mg0 Mg8 3.134475 1_555
Mg0 Mg9 3.134475 1_554
Mg0 Mg7 3.134481 1_564
Mg0 Mg6 3.134481 1_565
Mg0 Mg2 3.168303 1_565
Mg0 Mg4 3.168303 1_555
Mg0 Zr0 3.221282 1_555
Mg0 Zr0 3.221282 1_565
Mg0 Mg2 3.273973 1_455
Mg0 Mg4 3.273974 1_455
Mg1 Mg9 3.135152 1_555
Mg1 Mg8 3.135152 1_555
Mg1 Mg7 3.135159 1_565
Mg1 Mg6 3.135159 1_565
Mg1 Mg13 3.150802 1_455
Mg1 Mg12 3.150802 1_455
Mg1 Mg3 3.209660 1_565
Mg1 Mg5 3.209660 1_555
Mg1 Mg3 3.232616 1_455
Mg1 Mg5 3.232616 1_455
Mg2 Mg6 3.134481 1_555
Mg2 Mg7 3.134481 1_554
Mg2 Mg4 3.168303 1_545
Mg2 Zr0 3.221283 1_555
Mg2 Zr0 3.221283 1_655
Mg2 Mg4 3.273973 1_555
Mg3 Mg7 3.135159 1_555
Mg3 Mg6 3.135159 1_555
Mg3 Mg5 3.209660 1_545
Mg3 Mg5 3.232616 1_555
Mg4 Mg8 3.134481 1_555
Mg4 Mg9 3.134481 1_554
Mg4 Zr0 3.221282 1_555
Mg4 Zr0 3.221282 1_665
Mg5 Mg9 3.135159 1_555
Mg5 Mg8 3.135159 1_555
Mg6 Zr0 3.116734 1_555
Mg6 Mg8 3.169667 1_555
Mg6 Mg8 3.272609 1_545
Mg7 Zr0 3.116734 1_556
Mg7 Mg9 3.169667 1_555
Mg7 Mg9 3.272609 1_545
Mg8 Zr0 3.116740 1_555
Mg9 Zr0 3.116740 1_556
Mg10 Zr0 3.116740 1_655
Mg10 Mg2 3.134475 1_555
Mg10 Mg4 3.134481 1_545
Mg10 Mg3 3.135152 1_555
Mg10 Mg5 3.135158 1_545
Mg10 Mg8 3.169667 1_655
Mg10 Mg6 3.169667 1_655
Mg10 Mg12 3.221359 1_545
Mg10 Mg12 3.221359 1_555
Mg10 Mg8 3.272609 1_545
Mg10 Mg6 3.272609 1_555
Mg11 Zr0 3.116740 1_656
Mg11 Mg2 3.134475 1_556
Mg11 Mg4 3.134481 1_546
Mg11 Mg3 3.135152 1_555
Mg11 Mg5 3.135158 1_545
Mg11 Mg9 3.169667 1_655
Mg11 Mg7 3.169667 1_655
Mg11 Mg13 3.221359 1_545
Mg11 Mg13 3.221359 1_555
Mg11 Mg9 3.272609 1_545
Mg11 Mg7 3.272609 1_555
Mg12 Mg4 3.133861 1_555
Mg12 Mg2 3.133868 1_555
Mg12 Mg5 3.150796 1_555
Mg12 Mg3 3.150802 1_555
Mg12 Mg6 3.221359 1_665
Mg12 Mg6 3.221359 1_555
Mg12 Mg8 3.221359 1_555
Mg12 Mg8 3.221360 1_655
Mg13 Mg4 3.133861 1_556
Mg13 Mg2 3.133868 1_556
Mg13 Mg5 3.150796 1_555
Mg13 Mg3 3.150802 1_555
Mg13 Mg7 3.221359 1_665
Mg13 Mg7 3.221359 1_555
Mg13 Mg9 3.221359 1_555
Mg13 Mg9 3.221360 1_655
