# generated using pymatgen
data_Fe3NiP2
_symmetry_space_group_name_H-M   'P 1'
_cell_length_a   3.52444826
_cell_length_b   5.77663368
_cell_length_c   6.43405517
_cell_angle_alpha   90.00000000
_cell_angle_beta   90.00000000
_cell_angle_gamma   90.00000000
_symmetry_Int_Tables_number   1
_chemical_formula_structural   Fe3NiP2
_chemical_formula_sum   'Fe6 Ni2 P4'
_cell_volume   130.99380215
_cell_formula_units_Z   2
loop_
 _symmetry_equiv_pos_site_id
 _symmetry_equiv_pos_as_xyz
  1  'x, y, z'
loop_
 _atom_site_type_symbol
 _atom_site_label
 _atom_site_symmetry_multiplicity
 _atom_site_fract_x
 _atom_site_fract_y
 _atom_site_fract_z
 _atom_site_occupancy
  Fe  Fe0  1  0.25000000  0.97320014  0.16345604  1
  Fe  Fe1  1  0.25000000  0.47320014  0.33654396  1
  Fe  Fe2  1  0.75000000  0.14646231  0.43313080  1
  Fe  Fe3  1  0.75000000  0.64646231  0.06686920  1
  Fe  Fe4  1  0.25000000  0.85304660  0.56683388  1
  Fe  Fe5  1  0.25000000  0.35304660  0.93316612  1
  Ni  Ni0  1  0.75000000  0.02747327  0.83337730  1
  Ni  Ni1  1  0.75000000  0.52747327  0.66662270  1
  P  P0  1  0.75000000  0.26836348  0.11876892  1
  P  P1  1  0.75000000  0.76836348  0.38123108  1
  P  P2  1  0.25000000  0.73145521  0.88096950  1
  P  P3  1  0.25000000  0.23145521  0.61903050  1
loop_
_geom_bond_atom_site_label_1
_geom_bond_atom_site_label_2
_geom_bond_distance
_geom_bond_site_symmetry_2
Fe0 P2 2.292065 1_554
Fe0 P0 2.468866 1_465
Fe0 P0 2.468866 1_565
Fe0 P1 2.543393 1_455
Fe0 P1 2.543393 1_555
Fe1 P3 2.292065 1_555
Fe1 P1 2.468866 1_555
Fe1 P1 2.468866 1_455
Fe1 P0 2.543393 1_555
Fe1 P0 2.543393 1_455
Fe2 P0 2.141697 1_555
Fe2 P3 2.185662 1_555
Fe2 P3 2.185662 1_655
Fe2 P1 2.209517 1_545
Fe3 P1 2.141697 1_555
Fe3 P2 2.185662 1_654
Fe3 P2 2.185662 1_554
Fe3 P0 2.209517 1_555
Fe4 P2 2.139734 1_555
Fe4 P1 2.184215 1_455
Fe4 P1 2.184215 1_555
Fe4 P3 2.211576 1_565
Fe5 P3 2.139734 1_555
Fe5 P0 2.184215 1_556
Fe5 P0 2.184215 1_456
Fe5 P2 2.211576 1_555
Ni0 P0 2.303930 1_556
Ni0 P2 2.474522 1_645
Ni0 P2 2.474522 1_545
Ni0 P3 2.529004 1_555
Ni0 P3 2.529004 1_655
Ni1 P1 2.303930 1_555
Ni1 P3 2.474522 1_555
Ni1 P3 2.474522 1_655
Ni1 P2 2.529004 1_655
Ni1 P2 2.529004 1_555
