# generated using pymatgen
data_Ho2Fe3Si5
_symmetry_space_group_name_H-M   'P 1'
_cell_length_a   10.28816582
_cell_length_b   10.28816904
_cell_length_c   5.45281698
_cell_angle_alpha   90.00000000
_cell_angle_beta   90.00000000
_cell_angle_gamma   89.99990159
_symmetry_Int_Tables_number   1
_chemical_formula_structural   Ho2Fe3Si5
_chemical_formula_sum   'Ho8 Fe12 Si20'
_cell_volume   577.16098758
_cell_formula_units_Z   4
loop_
 _symmetry_equiv_pos_site_id
 _symmetry_equiv_pos_as_xyz
  1  'x, y, z'
loop_
 _atom_site_type_symbol
 _atom_site_label
 _atom_site_symmetry_multiplicity
 _atom_site_fract_x
 _atom_site_fract_y
 _atom_site_fract_z
 _atom_site_occupancy
  Ho  Ho0  1  0.56919442  0.73725171  0.50000000  1
  Ho  Ho1  1  0.43080368  0.26274819  0.50000000  1
  Ho  Ho2  1  0.06919139  0.76275397  0.00000000  1
  Ho  Ho3  1  0.93081116  0.23724562  0.00000000  1
  Ho  Ho4  1  0.26274831  0.56919275  0.50000000  1
  Ho  Ho5  1  0.73725111  0.43080556  0.50000000  1
  Ho  Ho6  1  0.23724558  0.06919113  0.00000000  1
  Ho  Ho7  1  0.76275506  0.93080857  0.00000000  1
  Fe  Fe0  1  0.87630901  0.85440320  0.50000000  1
  Fe  Fe1  1  0.12369443  0.14559739  0.50000000  1
  Fe  Fe2  1  0.37628494  0.64561557  0.00000000  1
  Fe  Fe3  1  0.62371309  0.35438443  0.00000000  1
  Fe  Fe4  1  0.14559688  0.87630529  0.50000000  1
  Fe  Fe5  1  0.85440332  0.12369580  0.50000000  1
  Fe  Fe6  1  0.35438375  0.37628846  0.00000000  1
  Fe  Fe7  1  0.64561572  0.62371171  0.00000000  1
  Fe  Fe8  1  0.49999954  -0.00000004  0.25000415  1
  Fe  Fe9  1  0.00000109  0.49999911  0.74999571  1
  Fe  Fe10  1  0.00000109  0.49999911  0.25000429  1
  Fe  Fe11  1  0.49999954  -0.00000004  0.74999585  1
  Si  Si0  1  0.67722355  0.17723082  0.25000058  1
  Si  Si1  1  0.32277598  0.82276942  0.25000246  1
  Si  Si2  1  0.17722960  0.32277724  0.74999928  1
  Si  Si3  1  0.82277075  0.67722281  0.74999669  1
  Si  Si4  1  0.82277075  0.67722281  0.25000331  1
  Si  Si5  1  0.17722960  0.32277724  0.25000072  1
  Si  Si6  1  0.67722355  0.17723082  0.74999942  1
  Si  Si7  1  0.32277598  0.82276942  0.74999754  1
  Si  Si8  1  0.49999925  0.50000038  0.22969002  1
  Si  Si9  1  0.00000100  0.00000057  0.72970362  1
  Si  Si10  1  0.49999925  0.50000038  0.77030998  1
  Si  Si11  1  0.00000100  0.00000057  0.27029638  1
  Si  Si12  1  0.67877543  0.97925114  0.50000000  1
  Si  Si13  1  0.32122422  0.02074939  0.50000000  1
  Si  Si14  1  0.17877690  0.52075033  0.00000000  1
  Si  Si15  1  0.82122439  0.47924974  0.00000000  1
  Si  Si16  1  0.02075000  0.67877408  0.50000000  1
  Si  Si17  1  0.97925147  0.32122533  0.50000000  1
  Si  Si18  1  0.47924881  0.17877735  0.00000000  1
  Si  Si19  1  0.52075037  0.82122268  0.00000000  1
loop_
_geom_bond_atom_site_label_1
_geom_bond_atom_site_label_2
_geom_bond_distance
_geom_bond_site_symmetry_2
Ho0 Si12 2.733089 1_555
Ho0 Si19 2.903109 1_556
Ho0 Si19 2.903109 1_555
Ho0 Si10 2.938917 1_555
Ho0 Si8 2.938917 1_555
Ho0 Si4 3.007608 1_555
Ho0 Si3 3.007608 1_555
Ho0 Si7 3.009913 1_555
Ho0 Si1 3.009913 1_555
Ho1 Si13 2.733076 1_555
Ho1 Si18 2.903110 1_556
Ho1 Si18 2.903110 1_555
Ho1 Si8 2.938925 1_555
Ho1 Si10 2.938925 1_555
Ho1 Si5 3.007595 1_555
Ho1 Si2 3.007595 1_555
Ho1 Si6 3.009929 1_555
Ho1 Si0 3.009929 1_555
Ho2 Si14 2.733144 1_555
Ho2 Si16 2.903132 1_555
Ho2 Si16 2.903132 1_554
Ho2 Si11 2.938825 1_565
Ho2 Si9 2.938825 1_564
Ho2 Si1 3.007670 1_555
Ho2 Si7 3.007670 1_554
Ho2 Si3 3.009989 1_454
Ho2 Si4 3.009989 1_455
Ho3 Si15 2.733153 1_555
Ho3 Si17 2.903130 1_554
Ho3 Si17 2.903130 1_555
Ho3 Si9 2.938810 1_654
Ho3 Si11 2.938810 1_655
Ho3 Si6 3.007691 1_554
Ho3 Si0 3.007691 1_555
Ho3 Si5 3.009965 1_655
Ho3 Si2 3.009965 1_654
Ho4 Si16 2.733075 1_555
Ho4 Si14 2.903108 1_556
Ho4 Si14 2.903108 1_555
Ho4 Si8 2.938904 1_555
Ho4 Si10 2.938904 1_555
Ho4 Si7 3.007613 1_555
Ho4 Si1 3.007613 1_555
Ho4 Si2 3.009898 1_555
Ho4 Si5 3.009898 1_555
Ho5 Si17 2.733090 1_555
Ho5 Si15 2.903117 1_555
Ho5 Si15 2.903117 1_556
Ho5 Si10 2.938918 1_555
Ho5 Si8 2.938918 1_555
Ho5 Si6 3.007600 1_555
Ho5 Si0 3.007600 1_555
Ho5 Si4 3.009909 1_555
Ho5 Si3 3.009909 1_555
Ho6 Si18 2.733146 1_555
Ho6 Si13 2.903128 1_554
Ho6 Si13 2.903128 1_555
Ho6 Si9 2.938810 1_554
Ho6 Si11 2.938810 1_555
Ho6 Si2 3.007679 1_554
Ho6 Si5 3.007679 1_555
Ho6 Si1 3.009992 1_545
Ho6 Si7 3.009992 1_544
Ho7 Si19 2.733158 1_555
Ho7 Si12 2.903133 1_555
Ho7 Si12 2.903133 1_554
Ho7 Si9 2.938825 1_664
Ho7 Si11 2.938825 1_665
Ho7 Si4 3.007681 1_555
Ho7 Si3 3.007681 1_554
Ho7 Si6 3.009995 1_564
Ho7 Si0 3.009995 1_565
Fe0 Si9 2.330677 1_665
Fe0 Si11 2.330677 1_665
Fe0 Si16 2.339483 1_655
Fe0 Si3 2.341900 1_555
Fe0 Si4 2.341900 1_555
Fe0 Si12 2.404141 1_555
Fe0 Ho7 3.068557 1_555
Fe0 Ho7 3.068557 1_556
Fe1 Si9 2.330682 1_555
Fe1 Si11 2.330682 1_555
Fe1 Si17 2.339486 1_455
Fe1 Si5 2.341897 1_555
Fe1 Si2 2.341897 1_555
Fe1 Si13 2.404108 1_555
Fe1 Ho6 3.068549 1_555
Fe1 Ho6 3.068549 1_556
Fe2 Si8 2.330878 1_555
Fe2 Si10 2.330878 1_554
Fe2 Si19 2.339472 1_555
Fe2 Si1 2.341634 1_555
Fe2 Si7 2.341634 1_554
Fe2 Si14 2.404018 1_555
Fe2 Ho4 3.068537 1_555
Fe2 Ho4 3.068537 1_554
Fe3 Si8 2.330880 1_555
Fe3 Si10 2.330880 1_554
Fe3 Si18 2.339464 1_555
Fe3 Si6 2.341630 1_554
Fe3 Si0 2.341630 1_555
Fe3 Si15 2.404046 1_555
Fe3 Ho5 3.068538 1_555
Fe3 Ho5 3.068538 1_554
Fe4 Si11 2.330683 1_565
Fe4 Si9 2.330683 1_565
Fe4 Si13 2.339493 1_565
Fe4 Si7 2.341885 1_555
Fe4 Si1 2.341885 1_555
Fe4 Si16 2.404119 1_555
Fe4 Ho2 3.068548 1_556
Fe4 Ho2 3.068548 1_555
Fe5 Si9 2.330695 1_655
Fe5 Si11 2.330695 1_655
Fe5 Si12 2.339501 1_545
Fe5 Si6 2.341894 1_555
Fe5 Si0 2.341894 1_555
Fe5 Si17 2.404111 1_555
Fe5 Ho3 3.068549 1_556
Fe5 Ho3 3.068549 1_555
Fe6 Si10 2.330869 1_554
Fe6 Si8 2.330869 1_555
Fe6 Si14 2.339442 1_555
Fe6 Si5 2.341637 1_555
Fe6 Si2 2.341637 1_554
Fe6 Si18 2.404040 1_555
Fe6 Ho1 3.068542 1_555
Fe6 Ho1 3.068542 1_554
Fe7 Si10 2.330872 1_554
Fe7 Si8 2.330872 1_555
Fe7 Si15 2.339457 1_555
Fe7 Si3 2.341652 1_554
Fe7 Si4 2.341652 1_555
Fe7 Si19 2.404040 1_555
Fe7 Ho0 3.068545 1_555
Fe7 Ho0 3.068545 1_554
Fe8 Si13 2.299293 1_555
Fe8 Si12 2.299297 1_545
Fe8 Si19 2.299338 1_545
Fe8 Si18 2.299339 1_555
Fe8 Si1 2.578597 1_545
Fe8 Si0 2.578602 1_555
Fe8 Ho0 3.110036 1_545
Fe8 Ho1 3.110038 1_555
Fe8 Ho6 3.110098 1_555
Fe8 Ho7 3.110112 1_545
Fe9 Si17 2.299281 1_455
Fe9 Si16 2.299290 1_555
Fe9 Si14 2.299327 1_556
Fe9 Si15 2.299332 1_456
Fe9 Si2 2.578565 1_555
Fe9 Si3 2.578592 1_455
Fe9 Ho4 3.110025 1_555
Fe9 Ho5 3.110049 1_455
Fe9 Ho3 3.110094 1_456
Fe9 Ho2 3.110107 1_556
Fe10 Si17 2.299281 1_455
Fe10 Si16 2.299290 1_555
Fe10 Si14 2.299327 1_555
Fe10 Si15 2.299332 1_455
Fe10 Si5 2.578565 1_555
Fe10 Si4 2.578592 1_455
Fe10 Fe9 2.726362 1_555
Fe10 Fe9 2.726455 1_554
Fe10 Ho4 3.110025 1_555
Fe10 Ho5 3.110049 1_455
Fe10 Ho3 3.110094 1_455
Fe10 Ho2 3.110107 1_555
Fe11 Si13 2.299293 1_555
Fe11 Si12 2.299297 1_545
Fe11 Si19 2.299338 1_546
Fe11 Si18 2.299339 1_556
Fe11 Si7 2.578597 1_545
Fe11 Si6 2.578602 1_555
Fe11 Fe8 2.726363 1_555
Fe11 Fe8 2.726454 1_556
Fe11 Ho0 3.110036 1_545
Fe11 Ho1 3.110038 1_555
Fe11 Ho6 3.110098 1_556
Fe11 Ho7 3.110112 1_546
Si0 Si18 2.450945 1_555
Si0 Si12 2.450984 1_545
Si0 Si6 2.726402 1_555
Si0 Si6 2.726415 1_554
Si1 Si19 2.450947 1_555
Si1 Si13 2.450981 1_565
Si1 Si7 2.726382 1_555
Si1 Si7 2.726435 1_554
Si2 Si5 2.726401 1_555
Si2 Si5 2.726416 1_556
Si3 Si4 2.726372 1_555
Si3 Si4 2.726445 1_556
Si12 Si6 2.450984 1_565
Si13 Si7 2.450981 1_545
Si14 Si5 2.450932 1_555
Si14 Si2 2.450932 1_554
Si15 Si4 2.450939 1_555
Si15 Si3 2.450939 1_554
Si16 Si3 2.450972 1_455
Si16 Si4 2.450972 1_455
Si17 Si5 2.450970 1_655
Si17 Si2 2.450970 1_655
Si18 Si6 2.450945 1_554
Si19 Si7 2.450947 1_554
