# generated using pymatgen
data_SrLaCoO4
_symmetry_space_group_name_H-M   'P 1'
_cell_length_a   3.85362086
_cell_length_b   12.80985277
_cell_length_c   7.68527505
_cell_angle_alpha   90.00699492
_cell_angle_beta   90.01158897
_cell_angle_gamma   90.07524500
_symmetry_Int_Tables_number   1
_chemical_formula_structural   SrLaCoO4
_chemical_formula_sum   'Sr4 La4 Co4 O16'
_cell_volume   379.37800690
_cell_formula_units_Z   4
loop_
 _symmetry_equiv_pos_site_id
 _symmetry_equiv_pos_as_xyz
  1  'x, y, z'
loop_
 _atom_site_type_symbol
 _atom_site_label
 _atom_site_symmetry_multiplicity
 _atom_site_fract_x
 _atom_site_fract_y
 _atom_site_fract_z
 _atom_site_occupancy
  Sr  Sr0  1  0.99889100  0.64161400  0.50108600  1
  Sr  Sr1  1  0.50007300  0.14206400  0.25178500  1
  Sr  Sr2  1  0.99889800  0.64359300  0.99891800  1
  Sr  Sr3  1  0.50038200  0.14293000  0.74816000  1
  La  La0  1  0.49975400  0.85714600  0.25476700  1
  La  La1  1  0.00110900  0.35698600  0.00242300  1
  La  La2  1  0.49972200  0.85680500  0.74521200  1
  La  La3  1  0.00106100  0.35778700  0.49786200  1
  Co  Co0  1  0.00001400  0.00332700  0.99989800  1
  Co  Co1  1  0.50015200  0.50228400  0.75044700  1
  Co  Co2  1  0.50026000  0.50576500  0.24950700  1
  Co  Co3  1  0.00004300  0.00606200  0.50034400  1
  O  O0  1  0.99977200  0.83148100  0.49915900  1
  O  O1  1  0.49992400  0.33107500  0.24924800  1
  O  O2  1  0.99960600  0.83638300  0.00067100  1
  O  O3  1  0.50139600  0.33288100  0.75072000  1
  O  O4  1  0.49997700  0.67423600  0.24971900  1
  O  O5  1  0.00035700  0.17113500  0.00031100  1
  O  O6  1  0.49850700  0.67638400  0.75015400  1
  O  O7  1  0.00021400  0.17383100  0.49972800  1
  O  O8  1  0.50002200  0.99139200  0.49967600  1
  O  O9  1  0.00024000  0.49199500  0.24939800  1
  O  O10  1  0.50005000  0.99639800  0.00039800  1
  O  O11  1  0.99975700  0.49710000  0.75056400  1
  O  O12  1  0.99987400  0.99525300  0.25596000  1
  O  O13  1  0.49992300  0.49437000  0.00746800  1
  O  O14  1  0.00018000  0.99555100  0.74403100  1
  O  O15  1  0.49984100  0.49417100  0.49238600  1
loop_
_geom_bond_atom_site_label_1
_geom_bond_atom_site_label_2
_geom_bond_distance
_geom_bond_site_symmetry_2
La0 O4 2.343368 1_555
La0 O8 2.549338 1_555
La0 O12 2.614445 1_555
La0 O12 2.617189 1_455
La0 O10 2.646583 1_555
La0 O0 2.710734 1_455
La0 O0 2.710906 1_555
La0 O2 2.756077 1_455
La0 O2 2.756320 1_555
La1 O5 2.380775 1_555
La1 O9 2.567661 1_555
La1 O13 2.604749 1_555
La1 O13 2.614922 1_455
La1 O11 2.639870 1_454
La1 O1 2.721000 1_555
La1 O1 2.727386 1_455
La1 O3 2.746343 1_454
La1 O3 2.749011 1_554
La2 O6 2.311482 1_555
La2 O8 2.556153 1_555
La2 O14 2.620944 1_655
La2 O14 2.621778 1_555
La2 O10 2.653843 1_556
La2 O0 2.718391 1_455
La2 O0 2.719810 1_555
La2 O2 2.762910 1_556
La2 O2 2.763608 1_456
La3 O7 2.356493 1_555
La3 O9 2.569565 1_555
La3 O15 2.596097 1_555
La3 O15 2.606448 1_455
La3 O11 2.637351 1_455
La3 O1 2.732493 1_555
La3 O1 2.737489 1_455
La3 O3 2.754236 1_455
La3 O3 2.756078 1_555
Co0 O10 1.928603 1_446
Co0 O10 1.929112 1_546
Co0 O14 1.968918 1_545
Co0 O12 1.970636 1_446
Co0 O2 2.138536 1_446
Co0 O5 2.149596 1_556
Co1 O11 1.926520 1_555
Co1 O11 1.929389 1_455
Co1 O13 1.977890 1_556
Co1 O15 1.985978 1_555
Co1 O3 2.170040 1_555
Co1 O6 2.230214 1_555
Co2 O13 1.865837 1_555
Co2 O15 1.872510 1_555
Co2 O9 1.934714 1_555
Co2 O9 1.935022 1_655
Co2 O4 2.158091 1_555
Co2 O1 2.237752 1_555
Co3 O14 1.877652 1_545
Co3 O12 1.883238 1_445
Co3 O8 1.935793 1_445
Co3 O8 1.936125 1_545
Co3 O7 2.149101 1_555
Co3 O0 2.236373 1_445
O0 Sr0 2.432213 1_555
O1 Sr1 2.421285 1_555
O2 Sr2 2.469645 1_554
O3 Sr3 2.433319 1_555
O4 Sr2 2.751205 1_554
O4 Sr2 2.755757 1_454
O4 Sr0 2.757511 1_555
O4 Sr0 2.763133 1_455
O5 Sr1 2.753677 1_555
O5 Sr1 2.755071 1_455
O5 Sr3 2.755815 1_454
O5 Sr3 2.757161 1_554
O6 Sr2 2.745515 1_455
O6 Sr2 2.747860 1_555
O6 Sr0 2.750513 1_455
O6 Sr0 2.753946 1_555
O7 Sr1 2.739985 1_455
O7 Sr1 2.740515 1_555
O7 Sr3 2.740760 1_455
O7 Sr3 2.741858 1_555
O8 Sr1 2.712116 1_565
O8 Sr3 2.722884 1_565
O9 Sr0 2.722863 1_455
O9 Sr2 2.734553 1_454
O10 Sr1 2.685790 1_565
O10 Sr3 2.698531 1_564
O11 Sr0 2.665316 1_555
O11 Sr2 2.676495 1_555
O12 Sr1 2.691442 1_665
O12 Sr1 2.693870 1_565
O13 Sr2 2.710362 1_554
O13 Sr2 2.719513 1_454
O14 Sr3 2.696514 1_565
O14 Sr3 2.698953 1_465
O15 Sr0 2.694555 1_555
O15 Sr0 2.703343 1_455
