# generated using pymatgen
data_La15FeGe9
_symmetry_space_group_name_H-M   'P 1'
_cell_length_a   7.05990273
_cell_length_b   15.60612993
_cell_length_c   15.60607772
_cell_angle_alpha   120.00043570
_cell_angle_beta   90.00068339
_cell_angle_gamma   89.99939713
_symmetry_Int_Tables_number   1
_chemical_formula_structural   La15FeGe9
_chemical_formula_sum   'La30 Fe2 Ge18'
_cell_volume   1489.07449884
_cell_formula_units_Z   2
loop_
 _symmetry_equiv_pos_site_id
 _symmetry_equiv_pos_as_xyz
  1  'x, y, z'
loop_
 _atom_site_type_symbol
 _atom_site_label
 _atom_site_symmetry_multiplicity
 _atom_site_fract_x
 _atom_site_fract_y
 _atom_site_fract_z
 _atom_site_occupancy
  La  La0  1  0.50134489  0.01988824  0.34423592  1
  La  La1  1  0.50134730  0.32434392  0.98009937  1
  La  La2  1  0.50134519  0.65576474  0.67566361  1
  La  La3  1  0.50136447  0.32434653  0.34423133  1
  La  La4  1  0.50133848  0.65576361  0.98010588  1
  La  La5  1  0.50136240  0.01990687  0.67566316  1
  La  La6  1  0.00135328  0.98013393  0.65576774  1
  La  La7  1  0.00136461  0.67563042  0.01986659  1
  La  La8  1  0.00136263  0.34423080  0.32436000  1
  La  La9  1  0.00135971  0.67563242  0.65576838  1
  La  La10  1  0.00136970  0.34423424  0.01986455  1
  La  La11  1  0.00135902  0.98013369  0.32436027  1
  La  La12  1  0.76111211  0.41492866  0.82986492  1
  La  La13  1  0.76109171  0.41493494  0.58506661  1
  La  La14  1  0.76108374  0.17013026  0.58506830  1
  La  La15  1  0.26098195  0.58498308  0.16997695  1
  La  La16  1  0.26099617  0.58499375  0.41501940  1
  La  La17  1  0.26097715  0.83001974  0.41501136  1
  La  La18  1  0.21736430  0.25190188  0.50379796  1
  La  La19  1  0.21735624  0.25189485  0.74809760  1
  La  La20  1  0.21733061  0.49620142  0.74810131  1
  La  La21  1  0.71748192  0.74819488  0.49638694  1
  La  La22  1  0.71748214  0.74818484  0.25180642  1
  La  La23  1  0.71747735  0.50361167  0.25179312  1
  La  La24  1  0.77998542  0.08249563  0.16499618  1
  La  La25  1  0.77999412  0.08250134  0.91750902  1
  La  La26  1  0.77998936  0.83501103  0.91750123  1
  La  La27  1  0.27997187  0.91751843  0.83502745  1
  La  La28  1  0.27998029  0.91750989  0.08248400  1
  La  La29  1  0.27997402  0.16497375  0.08248425  1
  Fe  Fe0  1  0.98602407  0.33330221  0.66670192  1
  Fe  Fe1  1  0.48615030  0.66669969  0.33329604  1
  Ge  Ge0  1  0.22280558  0.13129086  0.26258505  1
  Ge  Ge1  1  0.22282695  0.13128941  0.86870705  1
  Ge  Ge2  1  0.22278643  0.73741584  0.86870713  1
  Ge  Ge3  1  0.72276584  0.86870993  0.73742969  1
  Ge  Ge4  1  0.72276645  0.86872504  0.13128464  1
  Ge  Ge5  1  0.72278327  0.26256817  0.13129576  1
  Ge  Ge6  1  0.23956692  0.46763530  0.93525113  1
  Ge  Ge7  1  0.23955244  0.46760828  0.53238662  1
  Ge  Ge8  1  0.23955817  0.06476092  0.53236822  1
  Ge  Ge9  1  0.73956182  0.53238086  0.06475087  1
  Ge  Ge10  1  0.73954908  0.53238584  0.46761133  1
  Ge  Ge11  1  0.73955378  0.93522656  0.46760776  1
  Ge  Ge12  1  0.78922964  0.19807972  0.39615789  1
  Ge  Ge13  1  0.78923317  0.19806216  0.80192922  1
  Ge  Ge14  1  0.78922100  0.60385352  0.80192023  1
  Ge  Ge15  1  0.28919486  0.80192854  0.60386984  1
  Ge  Ge16  1  0.28918944  0.80193166  0.19807720  1
  Ge  Ge17  1  0.28917867  0.39614603  0.19808261  1
loop_
_geom_bond_atom_site_label_1
_geom_bond_atom_site_label_2
_geom_bond_distance
_geom_bond_site_symmetry_2
Fe0 La12 2.717382 1_555
Fe0 La14 2.717600 1_555
Fe0 La13 2.718606 1_555
Fe0 La19 2.740194 1_655
Fe0 La20 2.741145 1_655
Fe0 La18 2.741336 1_655
Fe1 La15 2.720132 1_555
Fe1 La17 2.720171 1_555
Fe1 La16 2.721323 1_555
Fe1 La22 2.742090 1_555
Fe1 La23 2.743267 1_555
Fe1 La21 2.743309 1_555
Ge0 La28 3.133099 1_545
Ge0 La29 3.133140 1_555
Ge0 La18 3.260267 1_555
Ge0 La0 3.275446 1_555
Ge0 La3 3.275579 1_555
Ge0 La11 3.348546 1_545
Ge0 La8 3.348599 1_555
Ge0 La24 3.393091 1_455
Ge1 La27 3.132937 1_545
Ge1 La29 3.132995 1_556
Ge1 La19 3.260323 1_555
Ge1 La5 3.275321 1_555
Ge1 La1 3.275379 1_555
Ge1 La6 3.348650 1_545
Ge1 La10 3.348667 1_556
Ge1 La25 3.393209 1_455
Ge2 La28 3.133033 1_556
Ge2 La27 3.133160 1_555
Ge2 La20 3.260300 1_555
Ge2 La2 3.275432 1_555
Ge2 La4 3.275468 1_555
Ge2 La9 3.348489 1_555
Ge2 La7 3.348593 1_556
Ge2 La26 3.392979 1_455
Ge3 La26 3.132886 1_555
Ge3 La25 3.133125 1_565
Ge3 La21 3.257954 1_555
Ge3 La9 3.275939 1_655
Ge3 La6 3.276045 1_655
Ge3 La2 3.348646 1_555
Ge3 La5 3.348810 1_565
Ge3 La27 3.392986 1_555
Ge4 La24 3.132825 1_565
Ge4 La26 3.132999 1_554
Ge4 La22 3.258242 1_555
Ge4 La11 3.275895 1_655
Ge4 La7 3.276133 1_655
Ge4 La0 3.348637 1_565
Ge4 La4 3.348812 1_554
Ge4 La28 3.392850 1_555
Ge5 La24 3.132905 1_555
Ge5 La25 3.132991 1_554
Ge5 La23 3.257977 1_555
Ge5 La8 3.275714 1_655
Ge5 La10 3.276164 1_655
Ge5 La3 3.348465 1_555
Ge5 La1 3.348996 1_554
Ge5 La29 3.393067 1_555
Ge6 La20 3.171086 1_555
Ge6 La19 3.171315 1_555
Ge6 La15 3.175966 1_556
Ge6 La4 3.235756 1_555
Ge6 La1 3.235931 1_555
Ge6 La7 3.289654 1_556
Ge6 La10 3.289914 1_556
Ge6 La12 3.665847 1_455
Ge6 La12 3.947950 1_555
Ge7 La18 3.170793 1_555
Ge7 La20 3.170894 1_555
Ge7 La16 3.176368 1_555
Ge7 La2 3.236079 1_555
Ge7 La3 3.236090 1_555
Ge7 La8 3.289935 1_555
Ge7 La9 3.289936 1_555
Ge7 La13 3.665745 1_455
Ge7 La13 3.947728 1_555
Ge8 La18 3.170982 1_555
Ge8 La19 3.171086 1_555
Ge8 La17 3.176186 1_545
Ge8 La0 3.235795 1_555
Ge8 La5 3.236116 1_555
Ge8 La11 3.289771 1_545
Ge8 La6 3.290068 1_545
Ge8 La14 3.665891 1_455
Ge8 La14 3.947737 1_555
Ge9 La22 3.171269 1_555
Ge9 La23 3.171279 1_555
Ge9 La12 3.178176 1_554
Ge9 La7 3.235852 1_655
Ge9 La10 3.235988 1_655
Ge9 La4 3.290089 1_554
Ge9 La1 3.290178 1_554
Ge9 La15 3.665841 1_555
Ge9 La15 3.946326 1_655
Ge10 La21 3.171198 1_555
Ge10 La23 3.171338 1_555
Ge10 La13 3.178469 1_555
Ge10 La9 3.236031 1_655
Ge10 La8 3.236050 1_655
Ge10 La3 3.290080 1_555
Ge10 La2 3.290285 1_555
Ge10 La16 3.665505 1_555
Ge10 La16 3.946407 1_655
Ge11 La22 3.171154 1_555
Ge11 La21 3.171214 1_555
Ge11 La14 3.178419 1_565
Ge11 La6 3.236031 1_655
Ge11 La11 3.236033 1_655
Ge11 La0 3.290081 1_565
Ge11 La5 3.290274 1_565
Ge11 La17 3.665717 1_555
Ge11 La17 3.946258 1_655
Ge12 La24 3.124878 1_555
Ge12 La13 3.194809 1_555
Ge12 La14 3.194886 1_555
Ge12 La3 3.204172 1_555
Ge12 La0 3.204276 1_555
Ge12 La18 3.354453 1_655
Ge12 La11 3.354985 1_645
Ge12 La8 3.355070 1_655
Ge13 La25 3.124619 1_555
Ge13 La14 3.195000 1_555
Ge13 La12 3.195062 1_555
Ge13 La5 3.203870 1_555
Ge13 La1 3.204113 1_555
Ge13 La19 3.354553 1_655
Ge13 La6 3.354800 1_645
Ge13 La10 3.354945 1_656
Ge14 La26 3.124830 1_555
Ge14 La13 3.194847 1_555
Ge14 La12 3.195058 1_555
Ge14 La2 3.203963 1_555
Ge14 La4 3.204228 1_555
Ge14 La20 3.354369 1_655
Ge14 La9 3.354896 1_655
Ge14 La7 3.355077 1_656
Ge15 La27 3.124820 1_555
Ge15 La16 3.195221 1_555
Ge15 La17 3.195433 1_555
Ge15 La9 3.204170 1_555
Ge15 La6 3.204287 1_555
Ge15 La21 3.354522 1_555
Ge15 La2 3.355216 1_555
Ge15 La5 3.355563 1_565
Ge16 La28 3.125030 1_555
Ge16 La17 3.195207 1_555
Ge16 La15 3.195365 1_555
Ge16 La11 3.204139 1_555
Ge16 La7 3.204232 1_555
Ge16 La22 3.354496 1_555
Ge16 La0 3.355210 1_565
Ge16 La4 3.355367 1_554
Ge17 La29 3.125026 1_555
Ge17 La16 3.195214 1_555
Ge17 La15 3.195236 1_555
Ge17 La8 3.204011 1_555
Ge17 La10 3.204238 1_555
Ge17 La23 3.354494 1_555
Ge17 La3 3.355184 1_555
Ge17 La1 3.355601 1_554
