# generated using pymatgen
data_Na2Nd2PtO6
_symmetry_space_group_name_H-M   'P 1'
_cell_length_a   6.63541328
_cell_length_b   6.63541328
_cell_length_c   6.67964234
_cell_angle_alpha   89.01981361
_cell_angle_beta   89.01981361
_cell_angle_gamma   89.23802009
_symmetry_Int_Tables_number   1
_chemical_formula_structural   Na2Nd2PtO6
_chemical_formula_sum   'Na4 Nd4 Pt2 O12'
_cell_volume   293.98508580
_cell_formula_units_Z   2
loop_
 _symmetry_equiv_pos_site_id
 _symmetry_equiv_pos_as_xyz
  1  'x, y, z'
loop_
 _atom_site_type_symbol
 _atom_site_label
 _atom_site_symmetry_multiplicity
 _atom_site_fract_x
 _atom_site_fract_y
 _atom_site_fract_z
 _atom_site_occupancy
  Na  Na0  1  0.24297600  0.75702400  0.50000000  1
  Na  Na1  1  0.75351900  0.24648100  0.00000000  1
  Na  Na2  1  0.89420900  0.75287200  0.14038200  1
  Na  Na3  1  0.24712800  0.10579100  0.85961800  1
  Nd  Nd0  1  0.61071000  0.38929000  0.50000000  1
  Nd  Nd1  1  0.75705000  0.88664700  0.64840400  1
  Nd  Nd2  1  0.37714000  0.62286000  0.00000000  1
  Nd  Nd3  1  0.11335300  0.24295000  0.35159600  1
  Pt  Pt0  1  0.50659800  0.00068300  0.24453900  1
  Pt  Pt1  1  0.99931700  0.49340200  0.75546100  1
  O  O0  1  0.21578700  0.92557200  0.19285700  1
  O  O1  1  0.43430100  0.06279600  0.53518500  1
  O  O2  1  0.55268300  0.70414800  0.32516800  1
  O  O3  1  0.91402500  0.20416300  0.68313500  1
  O  O4  1  0.69486300  0.55159100  0.81274500  1
  O  O5  1  0.06171500  0.42710400  0.05280700  1
  O  O6  1  0.79583700  0.08597500  0.31686500  1
  O  O7  1  0.57289600  0.93828500  0.94719300  1
  O  O8  1  0.44840900  0.30513700  0.18725500  1
  O  O9  1  0.07442800  0.78421300  0.80714300  1
  O  O10  1  0.29585200  0.44731700  0.67483200  1
  O  O11  1  0.93720400  0.56569900  0.46481500  1
loop_
_geom_bond_atom_site_label_1
_geom_bond_atom_site_label_2
_geom_bond_distance
_geom_bond_site_symmetry_2
Na0 O9 2.328350 1_555
Na0 O0 2.328350 1_555
Na0 O2 2.371242 1_555
Na0 O10 2.371242 1_555
Na0 O1 2.424558 1_565
Na0 O11 2.424558 1_455
Na1 O6 2.372370 1_555
Na1 O3 2.372370 1_554
Na1 O8 2.392438 1_555
Na1 O4 2.392438 1_554
Na1 O7 2.418105 1_544
Na1 O5 2.418105 1_655
Na2 O0 2.468504 1_655
Na2 O5 2.491428 1_655
Na2 O11 2.497965 1_555
Na2 O9 2.515485 1_654
Na2 O2 2.583346 1_555
Na2 O6 2.593358 1_565
Na2 O7 2.773896 1_554
Na2 O4 2.927283 1_554
Na3 O9 2.468504 1_545
Na3 O7 2.491428 1_545
Na3 O1 2.497965 1_555
Na3 O0 2.515485 1_546
Na3 O10 2.583346 1_555
Na3 O3 2.593358 1_455
Na3 O5 2.773896 1_556
Na3 O8 2.927283 1_556
Nd0 O10 2.405695 1_555
Nd0 O2 2.405695 1_555
Nd0 O4 2.443048 1_555
Nd0 O8 2.443048 1_555
Nd0 O11 2.481818 1_555
Nd0 O1 2.481818 1_555
Nd0 O3 2.650106 1_555
Nd0 O6 2.650106 1_555
Nd1 O7 2.350019 1_555
Nd1 O3 2.379267 1_565
Nd1 O9 2.456601 1_655
Nd1 O4 2.498695 1_555
Nd1 O1 2.546174 1_565
Nd1 O6 2.570836 1_565
Nd1 O11 2.727560 1_555
Nd1 O2 2.863622 1_555
Nd2 O8 2.477142 1_555
Nd2 O4 2.477142 1_554
Nd2 O7 2.494702 1_554
Nd2 O5 2.494702 1_555
Nd2 O2 2.551206 1_555
Nd2 O10 2.551206 1_554
Nd2 O9 2.612369 1_554
Nd2 O0 2.612369 1_555
Nd3 O5 2.350019 1_555
Nd3 O6 2.379267 1_455
Nd3 O0 2.456601 1_545
Nd3 O8 2.498695 1_555
Nd3 O11 2.546174 1_455
Nd3 O3 2.570836 1_455
Nd3 O1 2.727560 1_555
Nd3 O10 2.863622 1_555
O0 Pt0 2.036021 1_565
O1 Pt0 2.039443 1_555
O2 Pt0 2.051468 1_565
O3 Pt1 2.075347 1_555
O4 Pt1 2.081939 1_555
O5 Pt1 2.074415 1_454
O6 Pt0 2.075347 1_555
O7 Pt0 2.074415 1_566
O8 Pt0 2.081939 1_555
O9 Pt1 2.036021 1_455
O10 Pt1 2.051468 1_455
O11 Pt1 2.039443 1_555
