# generated using pymatgen
data_Ba3NiF12
_symmetry_space_group_name_H-M   'P 1'
_cell_length_a   7.25385280
_cell_length_b   7.25385280
_cell_length_c   7.32214832
_cell_angle_alpha   85.12357415
_cell_angle_beta   85.12357415
_cell_angle_gamma   119.50148633
_symmetry_Int_Tables_number   1
_chemical_formula_structural   Ba3NiF12
_chemical_formula_sum   'Ba3 Ni1 F12'
_cell_volume   330.51676253
_cell_formula_units_Z   1
loop_
 _symmetry_equiv_pos_site_id
 _symmetry_equiv_pos_as_xyz
  1  'x, y, z'
loop_
 _atom_site_type_symbol
 _atom_site_label
 _atom_site_symmetry_multiplicity
 _atom_site_fract_x
 _atom_site_fract_y
 _atom_site_fract_z
 _atom_site_occupancy
  Ba  Ba0  1  0.00000000  0.00000000  0.50000000  1
  Ba  Ba1  1  0.00000000  0.50000000  0.00000000  1
  Ba  Ba2  1  0.50000000  0.00000000  0.00000000  1
  Ni  Ni0  1  0.00000000  0.00000000  0.00000000  1
  F  F0  1  0.32186800  0.60811900  0.18453400  1
  F  F1  1  0.67813200  0.39188100  0.81546600  1
  F  F2  1  0.52158800  0.09181100  0.41026300  1
  F  F3  1  0.39188100  0.67813200  0.81546600  1
  F  F4  1  0.47841200  0.90818900  0.58973700  1
  F  F5  1  0.60811900  0.32186800  0.18453400  1
  F  F6  1  0.90831800  0.12177800  0.81611000  1
  F  F7  1  0.90818900  0.47841200  0.58973700  1
  F  F8  1  0.09168200  0.87822200  0.18389000  1
  F  F9  1  0.09181100  0.52158800  0.41026300  1
  F  F10  1  0.87822200  0.09168200  0.18389000  1
  F  F11  1  0.12177800  0.90831800  0.81611000  1
loop_
_geom_bond_atom_site_label_1
_geom_bond_atom_site_label_2
_geom_bond_distance
_geom_bond_site_symmetry_2
Ba0 F10 2.691564 1_455
Ba0 F8 2.691564 1_545
Ba0 F6 2.691564 1_455
Ba0 F11 2.691564 1_545
Ba1 F0 2.608651 1_555
Ba1 F1 2.608651 1_454
Ba1 F5 2.647361 1_455
Ba1 F3 2.647361 1_554
Ba1 F11 2.812278 1_554
Ba1 F10 2.812278 1_455
Ba1 F8 2.960690 1_555
Ba1 F6 2.960690 1_454
Ba1 F9 3.132013 1_555
Ba1 F7 3.132013 1_454
Ba2 F5 2.608651 1_555
Ba2 F3 2.608651 1_544
Ba2 F0 2.647361 1_545
Ba2 F1 2.647361 1_554
Ba2 F6 2.812278 1_554
Ba2 F8 2.812278 1_545
Ba2 F10 2.960690 1_555
Ba2 F11 2.960690 1_544
Ba2 F2 3.132013 1_555
Ba2 F4 3.132013 1_544
F2 F4 1.679510 1_545
F6 Ni0 1.887914 1_656
F7 F9 1.679510 1_655
F8 Ni0 1.887914 1_565
F10 Ni0 1.887914 1_655
F11 Ni0 1.887914 1_566
