# generated using pymatgen
data_Os2C3
_symmetry_space_group_name_H-M   'P 1'
_cell_length_a   5.12109900
_cell_length_b   7.62544500
_cell_length_c   10.07975000
_cell_angle_alpha   90.00000000
_cell_angle_beta   90.00000000
_cell_angle_gamma   90.00000000
_symmetry_Int_Tables_number   1
_chemical_formula_structural   Os2C3
_chemical_formula_sum   'Os16 C24'
_cell_volume   393.62087768
_cell_formula_units_Z   8
loop_
 _symmetry_equiv_pos_site_id
 _symmetry_equiv_pos_as_xyz
  1  'x, y, z'
loop_
 _atom_site_type_symbol
 _atom_site_label
 _atom_site_symmetry_multiplicity
 _atom_site_fract_x
 _atom_site_fract_y
 _atom_site_fract_z
 _atom_site_occupancy
  Os  Os0  1  0.74878800  0.31386000  0.76650000  1
  Os  Os1  1  0.24878800  0.18614000  0.73350000  1
  Os  Os2  1  0.25121200  0.18614000  0.26650000  1
  Os  Os3  1  0.75121200  0.31386000  0.23350000  1
  Os  Os4  1  0.25121200  0.68614000  0.23350000  1
  Os  Os5  1  0.75121200  0.81386000  0.26650000  1
  Os  Os6  1  0.74878800  0.81386000  0.73350000  1
  Os  Os7  1  0.24878800  0.68614000  0.76650000  1
  Os  Os8  1  0.75000000  0.42459700  0.50000000  1
  Os  Os9  1  0.25000000  0.07540300  0.00000000  1
  Os  Os10  1  0.25000000  0.57540300  0.50000000  1
  Os  Os11  1  0.75000000  0.92459700  0.00000000  1
  Os  Os12  1  0.25000000  0.01711000  0.50000000  1
  Os  Os13  1  0.75000000  0.48289000  0.00000000  1
  Os  Os14  1  0.75000000  0.98289000  0.50000000  1
  Os  Os15  1  0.25000000  0.51711000  0.00000000  1
  C  C0  1  0.53980000  0.20099000  0.57515100  1
  C  C1  1  0.03980000  0.29901000  0.92484900  1
  C  C2  1  0.46020000  0.29901000  0.07515100  1
  C  C3  1  0.96020000  0.20099000  0.42484900  1
  C  C4  1  0.46020000  0.79901000  0.42484900  1
  C  C5  1  0.96020000  0.70099000  0.07515100  1
  C  C6  1  0.53980000  0.70099000  0.92484900  1
  C  C7  1  0.03980000  0.79901000  0.57515100  1
  C  C8  1  0.91518500  0.11900500  0.11793000  1
  C  C9  1  0.41518500  0.38099500  0.38207000  1
  C  C10  1  0.08481500  0.38099500  0.61793000  1
  C  C11  1  0.58481500  0.11900500  0.88207000  1
  C  C12  1  0.08481500  0.88099500  0.88207000  1
  C  C13  1  0.58481500  0.61900500  0.61793000  1
  C  C14  1  0.91518500  0.61900500  0.38207000  1
  C  C15  1  0.41518500  0.88099500  0.11793000  1
  C  C16  1  0.61281300  0.57129900  0.18822200  1
  C  C17  1  0.11281300  0.92870100  0.31177800  1
  C  C18  1  0.38718700  0.92870100  0.68822200  1
  C  C19  1  0.88718700  0.57129900  0.81177800  1
  C  C20  1  0.38718700  0.42870100  0.81177800  1
  C  C21  1  0.88718700  0.07129900  0.68822200  1
  C  C22  1  0.61281300  0.07129900  0.31177800  1
  C  C23  1  0.11281300  0.42870100  0.18822200  1
loop_
_geom_bond_atom_site_label_1
_geom_bond_atom_site_label_2
_geom_bond_distance
_geom_bond_site_symmetry_2
C0 Os14 2.120967 1_545
C0 Os8 2.154053 1_555
C0 Os12 2.177710 1_555
C0 Os1 2.186645 1_555
C0 Os0 2.367760 1_555
C1 Os15 2.120967 1_556
C1 Os9 2.154053 1_556
C1 Os13 2.177710 1_456
C1 Os0 2.186645 1_455
C1 Os1 2.367760 1_555
C2 Os15 2.120967 1_555
C2 Os9 2.154053 1_555
C2 Os13 2.177710 1_555
C2 Os3 2.186645 1_555
C2 Os2 2.367760 1_555
C3 Os14 2.120967 1_545
C3 Os8 2.154053 1_555
C3 Os12 2.177710 1_655
C3 Os2 2.186645 1_655
C3 Os3 2.367760 1_555
C4 Os12 2.120967 1_565
C4 Os10 2.154053 1_555
C4 Os14 2.177710 1_555
C4 Os5 2.186645 1_555
C4 Os4 2.367760 1_555
C5 Os13 2.120967 1_555
C5 Os11 2.154053 1_555
C5 Os15 2.177710 1_655
C5 Os4 2.186645 1_655
C5 Os5 2.367760 1_555
C6 Os13 2.120967 1_556
C6 Os11 2.154053 1_556
C6 Os15 2.177710 1_556
C6 Os7 2.186645 1_555
C6 Os6 2.367760 1_555
C7 Os12 2.120967 1_565
C7 Os10 2.154053 1_555
C7 Os14 2.177710 1_455
C7 Os6 2.186645 1_455
C7 Os7 2.367760 1_555
C8 Os3 2.066381 1_555
C8 Os11 2.079968 1_545
C8 Os9 2.112697 1_655
C8 Os2 2.337943 1_655
C9 Os2 2.066381 1_555
C9 Os10 2.079968 1_555
C9 Os8 2.112697 1_555
C9 Os3 2.337943 1_555
C10 Os1 2.066381 1_555
C10 Os10 2.079968 1_555
C10 Os8 2.112697 1_455
C10 Os0 2.337943 1_455
C11 Os0 2.066381 1_555
C11 Os11 2.079968 1_546
C11 Os9 2.112697 1_556
C11 Os1 2.337943 1_555
C12 Os7 2.066381 1_555
C12 Os9 2.079968 1_566
C12 Os11 2.112697 1_456
C12 Os6 2.337943 1_455
C13 Os6 2.066381 1_555
C13 Os8 2.079968 1_555
C13 Os10 2.112697 1_555
C13 Os7 2.337943 1_555
C14 Os5 2.066381 1_555
C14 Os8 2.079968 1_555
C14 Os10 2.112697 1_655
C14 Os4 2.337943 1_655
C15 Os4 2.066381 1_555
C15 Os9 2.079968 1_565
C15 Os11 2.112697 1_555
C15 Os5 2.337943 1_555
C16 Os4 2.098645 1_555
C16 Os5 2.132145 1_555
C16 Os13 2.132498 1_555
C16 Os3 2.136431 1_555
C17 Os5 2.098645 1_455
C17 Os4 2.132145 1_555
C17 Os12 2.132498 1_565
C17 Os2 2.136431 1_565
C18 Os6 2.098645 1_555
C18 Os7 2.132145 1_555
C18 Os12 2.132498 1_565
C18 Os1 2.136431 1_565
C19 Os7 2.098645 1_655
C19 Os6 2.132145 1_555
C19 Os13 2.132498 1_556
C19 Os0 2.136431 1_555
C20 Os0 2.098645 1_555
C20 Os1 2.132145 1_555
C20 Os15 2.132498 1_556
C20 Os7 2.136431 1_555
C21 Os1 2.098645 1_655
C21 Os0 2.132145 1_555
C21 Os14 2.132498 1_545
C21 Os6 2.136431 1_545
C22 Os2 2.098645 1_555
C22 Os3 2.132145 1_555
C22 Os14 2.132498 1_545
C22 Os5 2.136431 1_545
C23 Os3 2.098645 1_455
C23 Os2 2.132145 1_555
C23 Os15 2.132498 1_555
C23 Os4 2.136431 1_555
