# generated using pymatgen
data_Hf6Ga16Co7
_symmetry_space_group_name_H-M   'P 1'
_cell_length_a   8.49430264
_cell_length_b   8.49430264
_cell_length_c   8.49430264
_cell_angle_alpha   60.00000000
_cell_angle_beta   60.00000000
_cell_angle_gamma   60.00000000
_symmetry_Int_Tables_number   1
_chemical_formula_structural   Hf6Ga16Co7
_chemical_formula_sum   'Hf6 Ga16 Co7'
_cell_volume   433.37932942
_cell_formula_units_Z   1
loop_
 _symmetry_equiv_pos_site_id
 _symmetry_equiv_pos_as_xyz
  1  'x, y, z'
loop_
 _atom_site_type_symbol
 _atom_site_label
 _atom_site_symmetry_multiplicity
 _atom_site_fract_x
 _atom_site_fract_y
 _atom_site_fract_z
 _atom_site_occupancy
  Hf  Hf0  1  0.69510100  0.69510100  0.30489900  1
  Hf  Hf1  1  0.30489900  0.69510100  0.30489900  1
  Hf  Hf2  1  0.69510100  0.30489900  0.30489900  1
  Hf  Hf3  1  0.30489900  0.30489900  0.69510100  1
  Hf  Hf4  1  0.69510100  0.30489900  0.69510100  1
  Hf  Hf5  1  0.30489900  0.69510100  0.69510100  1
  Ga  Ga0  1  0.87936100  0.87936100  0.36191600  1
  Ga  Ga1  1  0.87936100  0.36191600  0.87936100  1
  Ga  Ga2  1  0.36191600  0.87936100  0.87936100  1
  Ga  Ga3  1  0.87936100  0.87936100  0.87936100  1
  Ga  Ga4  1  0.12063900  0.12063900  0.63808400  1
  Ga  Ga5  1  0.12063900  0.63808400  0.12063900  1
  Ga  Ga6  1  0.63808400  0.12063900  0.12063900  1
  Ga  Ga7  1  0.12063900  0.12063900  0.12063900  1
  Ga  Ga8  1  0.66001000  0.66001000  0.01996900  1
  Ga  Ga9  1  0.66001000  0.01996900  0.66001000  1
  Ga  Ga10  1  0.01996900  0.66001000  0.66001000  1
  Ga  Ga11  1  0.66001000  0.66001000  0.66001000  1
  Ga  Ga12  1  0.33999000  0.33999000  0.98003100  1
  Ga  Ga13  1  0.33999000  0.98003100  0.33999000  1
  Ga  Ga14  1  0.98003100  0.33999000  0.33999000  1
  Ga  Ga15  1  0.33999000  0.33999000  0.33999000  1
  Co  Co0  1  0.00000000  0.00000000  0.00000000  1
  Co  Co1  1  0.00000000  0.00000000  0.50000000  1
  Co  Co2  1  0.50000000  0.00000000  0.50000000  1
  Co  Co3  1  0.00000000  0.50000000  0.50000000  1
  Co  Co4  1  0.50000000  0.50000000  0.00000000  1
  Co  Co5  1  0.00000000  0.50000000  0.00000000  1
  Co  Co6  1  0.50000000  0.00000000  0.00000000  1
loop_
_geom_bond_atom_site_label_1
_geom_bond_atom_site_label_2
_geom_bond_distance
_geom_bond_site_symmetry_2
Ga0 Ga10 2.718577 1_655
Ga0 Ga11 2.718577 1_555
Ga0 Ga9 2.718577 1_565
Ga0 Ga5 2.898402 1_655
Ga0 Ga6 2.898402 1_565
Ga0 Ga7 2.898414 1_665
Ga0 Hf0 3.016591 1_555
Ga0 Hf1 3.016598 1_655
Ga0 Hf2 3.016598 1_565
Ga1 Ga10 2.718577 1_655
Ga1 Ga11 2.718577 1_555
Ga1 Ga8 2.718577 1_556
Ga1 Ga6 2.898402 1_556
Ga1 Ga4 2.898402 1_655
Ga1 Ga7 2.898414 1_656
Ga1 Hf4 3.016591 1_555
Ga1 Hf3 3.016598 1_655
Ga1 Hf2 3.016598 1_556
Ga2 Ga8 2.718577 1_556
Ga2 Ga9 2.718577 1_565
Ga2 Ga5 2.898402 1_556
Ga2 Ga4 2.898402 1_565
Ga2 Ga7 2.898414 1_566
Ga2 Hf5 3.016591 1_555
Ga2 Hf3 3.016598 1_565
Ga2 Hf1 3.016598 1_556
Ga3 Ga8 2.718577 1_556
Ga3 Ga9 2.718577 1_565
Ga3 Ga4 2.898414 1_665
Ga3 Ga5 2.898414 1_656
Ga3 Ga6 2.898414 1_566
Ga3 Hf4 3.016597 1_565
Ga3 Hf5 3.016597 1_655
Ga3 Hf0 3.016597 1_556
Ga4 Hf3 3.016591 1_555
Ga4 Hf5 3.016598 1_545
Ga4 Hf4 3.016598 1_455
Ga5 Hf1 3.016591 1_555
Ga5 Hf5 3.016598 1_554
Ga5 Hf0 3.016598 1_455
Ga6 Hf2 3.016591 1_555
Ga6 Hf4 3.016598 1_554
Ga6 Hf0 3.016598 1_545
Ga7 Hf1 3.016597 1_545
Ga7 Hf3 3.016597 1_554
Ga7 Hf2 3.016597 1_455
Ga8 Hf2 2.750840 1_555
Ga8 Hf1 2.750840 1_555
Ga8 Hf0 2.750845 1_555
Ga9 Hf2 2.750840 1_555
Ga9 Hf3 2.750840 1_555
Ga9 Hf4 2.750845 1_555
Ga10 Ga3 2.718577 1_455
Ga10 Hf1 2.750840 1_555
Ga10 Hf3 2.750840 1_555
Ga10 Hf5 2.750845 1_555
Ga11 Ga2 2.718577 1_555
Ga11 Hf4 2.750837 1_555
Ga11 Hf5 2.750837 1_555
Ga11 Hf0 2.750837 1_555
Ga12 Ga5 2.718577 1_556
Ga12 Ga6 2.718577 1_556
Ga12 Ga7 2.718577 1_556
Ga12 Hf4 2.750840 1_555
Ga12 Hf5 2.750840 1_555
Ga12 Hf3 2.750845 1_555
Ga13 Ga4 2.718577 1_565
Ga13 Ga6 2.718577 1_565
Ga13 Ga7 2.718577 1_565
Ga13 Hf0 2.750840 1_555
Ga13 Hf5 2.750840 1_555
Ga13 Hf1 2.750845 1_555
Ga14 Ga5 2.718577 1_655
Ga14 Ga4 2.718577 1_655
Ga14 Ga7 2.718577 1_655
Ga14 Hf0 2.750840 1_555
Ga14 Hf4 2.750840 1_555
Ga14 Hf2 2.750845 1_555
Ga15 Ga4 2.718577 1_555
Ga15 Ga5 2.718577 1_555
Ga15 Ga6 2.718577 1_555
Ga15 Hf3 2.750837 1_555
Ga15 Hf2 2.750837 1_555
Ga15 Hf1 2.750837 1_555
Co0 Ga4 2.510093 1_554
Co0 Ga6 2.510093 1_455
Co0 Ga2 2.510093 1_544
Co0 Ga5 2.510093 1_545
Co0 Ga0 2.510093 1_445
Co0 Ga1 2.510093 1_454
Co0 Ga7 2.510100 1_555
Co0 Ga3 2.510100 1_444
Co1 Ga14 2.456004 1_455
Co1 Ga13 2.456004 1_545
Co1 Ga9 2.456004 1_455
Co1 Ga10 2.456004 1_545
Co1 Ga3 2.632475 1_445
Co1 Ga7 2.632475 1_555
Co1 Ga4 2.632482 1_555
Co1 Ga0 2.632482 1_445
Co1 Hf4 3.074747 1_455
Co1 Hf5 3.074747 1_545
Co1 Hf2 3.074747 1_455
Co1 Hf1 3.074747 1_545
Co2 Ga9 2.455997 1_555
Co2 Ga13 2.455997 1_545
Co2 Ga11 2.456002 1_545
Co2 Ga15 2.456002 1_555
Co2 Ga0 2.632475 1_545
Co2 Ga2 2.632475 1_545
Co2 Ga6 2.632475 1_555
Co2 Ga4 2.632475 1_555
Co2 Hf3 3.074747 1_555
Co2 Hf2 3.074747 1_555
Co2 Hf0 3.074747 1_545
Co2 Hf5 3.074747 1_545
Co3 Ga10 2.455997 1_555
Co3 Ga14 2.455997 1_455
Co3 Ga11 2.456002 1_455
Co3 Ga15 2.456002 1_555
Co3 Ga0 2.632475 1_455
Co3 Ga1 2.632475 1_455
Co3 Ga4 2.632475 1_555
Co3 Ga5 2.632475 1_555
Co3 Hf1 3.074747 1_555
Co3 Hf3 3.074747 1_555
Co3 Hf0 3.074747 1_455
Co3 Hf4 3.074747 1_455
Co4 Ga8 2.455997 1_555
Co4 Ga12 2.455997 1_554
Co4 Ga11 2.456002 1_554
Co4 Ga15 2.456002 1_555
Co4 Ga1 2.632475 1_554
Co4 Ga2 2.632475 1_554
Co4 Ga6 2.632475 1_555
Co4 Ga5 2.632475 1_555
Co4 Hf1 3.074747 1_555
Co4 Hf2 3.074747 1_555
Co4 Hf5 3.074747 1_554
Co4 Hf4 3.074747 1_554
Co5 Ga8 2.456004 1_455
Co5 Ga12 2.456004 1_554
Co5 Ga10 2.456004 1_554
Co5 Ga14 2.456004 1_455
Co5 Ga3 2.632475 1_454
Co5 Ga7 2.632475 1_555
Co5 Ga5 2.632482 1_555
Co5 Ga1 2.632482 1_454
Co5 Hf5 3.074747 1_554
Co5 Hf0 3.074747 1_455
Co5 Hf2 3.074747 1_455
Co5 Hf3 3.074747 1_554
Co6 Ga8 2.456004 1_545
Co6 Ga13 2.456004 1_545
Co6 Ga12 2.456004 1_554
Co6 Ga9 2.456004 1_554
Co6 Ga3 2.632475 1_544
Co6 Ga7 2.632475 1_555
Co6 Ga6 2.632482 1_555
Co6 Ga2 2.632482 1_544
Co6 Hf4 3.074747 1_554
Co6 Hf0 3.074747 1_545
Co6 Hf1 3.074747 1_545
Co6 Hf3 3.074747 1_554
