# generated using pymatgen
data_MnFeH4NF6
_symmetry_space_group_name_H-M   'P 1'
_cell_length_a   8.10778100
_cell_length_b   10.82845600
_cell_length_c   13.04836700
_cell_angle_alpha   90.00000000
_cell_angle_beta   90.00000000
_cell_angle_gamma   90.00000000
_symmetry_Int_Tables_number   1
_chemical_formula_structural   MnFeH4NF6
_chemical_formula_sum   'Mn8 Fe8 H32 N8 F48'
_cell_volume   1145.57811627
_cell_formula_units_Z   8
loop_
 _symmetry_equiv_pos_site_id
 _symmetry_equiv_pos_as_xyz
  1  'x, y, z'
loop_
 _atom_site_type_symbol
 _atom_site_label
 _atom_site_symmetry_multiplicity
 _atom_site_fract_x
 _atom_site_fract_y
 _atom_site_fract_z
 _atom_site_occupancy
  Mn  Mn0  1  0.72048900  0.32096000  0.62054800  1
  Mn  Mn1  1  0.27951100  0.67904000  0.62054800  1
  Mn  Mn2  1  0.22048900  0.67904000  0.12054800  1
  Mn  Mn3  1  0.77951100  0.32096000  0.12054800  1
  Mn  Mn4  1  0.75626500  0.81430600  0.87957400  1
  Mn  Mn5  1  0.24373500  0.18569400  0.87957400  1
  Mn  Mn6  1  0.25626500  0.18569400  0.37957400  1
  Mn  Mn7  1  0.74373500  0.81430600  0.37957400  1
  Fe  Fe0  1  0.24483500  0.32201700  0.59801600  1
  Fe  Fe1  1  0.75516500  0.67798300  0.59801600  1
  Fe  Fe2  1  0.74483500  0.67798300  0.09801600  1
  Fe  Fe3  1  0.25516500  0.32201700  0.09801600  1
  Fe  Fe4  1  0.25403600  0.83171900  0.88795600  1
  Fe  Fe5  1  0.74596400  0.16828100  0.88795600  1
  Fe  Fe6  1  0.75403600  0.16828100  0.38795600  1
  Fe  Fe7  1  0.24596400  0.83171900  0.38795600  1
  H  H0  1  0.40249700  0.64240300  0.98383700  1
  H  H1  1  0.59750300  0.35759700  0.98383700  1
  H  H2  1  0.90249700  0.35759700  0.48383700  1
  H  H3  1  0.09750300  0.64240300  0.48383700  1
  H  H4  1  0.56892800  0.55455300  0.83373300  1
  H  H5  1  0.43107200  0.44544700  0.83373300  1
  H  H6  1  0.06892800  0.44544700  0.33373300  1
  H  H7  1  0.93107200  0.55455300  0.33373300  1
  H  H8  1  0.40877500  0.53726200  0.36994700  1
  H  H9  1  0.59122500  0.46273800  0.36994700  1
  H  H10  1  0.90877500  0.46273800  0.86994700  1
  H  H11  1  0.09122500  0.53726200  0.86994700  1
  H  H12  1  0.44743000  0.43194200  0.27941000  1
  H  H13  1  0.55257000  0.56805800  0.27941000  1
  H  H14  1  0.94743000  0.56805800  0.77941000  1
  H  H15  1  0.05257000  0.43194200  0.77941000  1
  H  H16  1  0.41909700  0.05113100  0.58512100  1
  H  H17  1  0.58090300  0.94886900  0.58512100  1
  H  H18  1  0.91909700  0.94886900  0.08512100  1
  H  H19  1  0.08090300  0.05113100  0.08512100  1
  H  H20  1  0.43420800  0.94095400  0.67587600  1
  H  H21  1  0.56579200  0.05904600  0.67587600  1
  H  H22  1  0.93420800  0.05904600  0.17587600  1
  H  H23  1  0.06579200  0.94095400  0.17587600  1
  H  H24  1  0.41832100  0.04951200  0.11169400  1
  H  H25  1  0.58167900  0.95048800  0.11169400  1
  H  H26  1  0.91832100  0.95048800  0.61169400  1
  H  H27  1  0.08167900  0.04951200  0.61169400  1
  H  H28  1  0.43545500  0.93885900  0.20304400  1
  H  H29  1  0.56454500  0.06114100  0.20304400  1
  H  H30  1  0.93545500  0.06114100  0.70304400  1
  H  H31  1  0.06454500  0.93885900  0.70304400  1
  N  N0  1  0.50000000  0.50000000  0.78466700  1
  N  N1  1  0.00000000  0.50000000  0.28466700  1
  N  N2  1  0.50000000  0.50000000  0.32427300  1
  N  N3  1  0.00000000  0.50000000  0.82427300  1
  N  N4  1  0.50000000  0.00000000  0.62991900  1
  N  N5  1  0.00000000  0.00000000  0.12991900  1
  N  N6  1  0.50000000  0.00000000  0.15787400  1
  N  N7  1  0.00000000  0.00000000  0.65787400  1
  F  F0  1  0.22849000  0.49622600  0.64343800  1
  F  F1  1  0.77151000  0.50377400  0.64343800  1
  F  F2  1  0.72849000  0.50377400  0.14343800  1
  F  F3  1  0.27151000  0.49622600  0.14343800  1
  F  F4  1  0.22008000  0.36137800  0.95190900  1
  F  F5  1  0.77992000  0.63862200  0.95190900  1
  F  F6  1  0.72008000  0.63862200  0.45190900  1
  F  F7  1  0.27992000  0.36137800  0.45190900  1
  F  F8  1  0.27219500  0.85369700  0.03545000  1
  F  F9  1  0.72780500  0.14630300  0.03545000  1
  F  F10  1  0.77219500  0.14630300  0.53545000  1
  F  F11  1  0.22780500  0.85369700  0.53545000  1
  F  F12  1  0.20398600  0.77840300  0.74689000  1
  F  F13  1  0.79601400  0.22159700  0.74689000  1
  F  F14  1  0.70398600  0.22159700  0.24689000  1
  F  F15  1  0.29601400  0.77840300  0.24689000  1
  F  F16  1  0.47833000  0.28172600  0.62416400  1
  F  F17  1  0.52167000  0.71827400  0.62416400  1
  F  F18  1  0.97833000  0.71827400  0.12416400  1
  F  F19  1  0.02167000  0.28172600  0.12416400  1
  F  F20  1  0.48852300  0.80528300  0.86437200  1
  F  F21  1  0.51147700  0.19471700  0.86437200  1
  F  F22  1  0.98852300  0.19471700  0.36437200  1
  F  F23  1  0.01147700  0.80528300  0.36437200  1
  F  F24  1  0.27312400  0.99856600  0.83544900  1
  F  F25  1  0.72687600  0.00143400  0.83544900  1
  F  F26  1  0.77312400  0.00143400  0.33544900  1
  F  F27  1  0.22687600  0.99856600  0.33544900  1
  F  F28  1  0.74065600  0.35322000  0.93354200  1
  F  F29  1  0.25934400  0.64678000  0.93354200  1
  F  F30  1  0.24065600  0.64678000  0.43354200  1
  F  F31  1  0.75934400  0.35322000  0.43354200  1
  F  F32  1  0.72402800  0.85760700  0.04499500  1
  F  F33  1  0.27597200  0.14239300  0.04499500  1
  F  F34  1  0.22402800  0.14239300  0.54499500  1
  F  F35  1  0.77597200  0.85760700  0.54499500  1
  F  F36  1  0.82713000  0.72853700  0.73662100  1
  F  F37  1  0.17287000  0.27146300  0.73662100  1
  F  F38  1  0.32713000  0.27146300  0.23662100  1
  F  F39  1  0.67287000  0.72853700  0.23662100  1
  F  F40  1  0.98072200  0.35068500  0.54737400  1
  F  F41  1  0.01927800  0.64931500  0.54737400  1
  F  F42  1  0.48072200  0.64931500  0.04737400  1
  F  F43  1  0.51927800  0.35068500  0.04737400  1
  F  F44  1  0.01744600  0.84739400  0.90417400  1
  F  F45  1  0.98255400  0.15260600  0.90417400  1
  F  F46  1  0.51744600  0.15260600  0.40417400  1
  F  F47  1  0.48255400  0.84739400  0.40417400  1
loop_
_geom_bond_atom_site_label_1
_geom_bond_atom_site_label_2
_geom_bond_distance
_geom_bond_site_symmetry_2
H0 Mn2 2.348864 1_556
H1 Mn3 2.348864 1_556
H2 Mn0 2.348864 1_555
H3 Mn1 2.348864 1_555
H4 N0 1.034973 1_555
H5 N0 1.034973 1_555
H6 N1 1.034973 1_555
H7 N1 1.034973 1_655
H8 N2 1.032009 1_555
H9 N2 1.032009 1_555
H10 N3 1.032009 1_655
H11 N3 1.032009 1_555
H12 N2 1.033181 1_555
H13 N2 1.033181 1_555
H14 N3 1.033181 1_655
H15 N3 1.033181 1_555
H16 N4 1.038509 1_555
H17 N4 1.038509 1_565
H18 N5 1.038509 1_665
H19 N5 1.038509 1_555
H20 N4 1.026131 1_565
H21 N4 1.026131 1_555
H22 N5 1.026131 1_655
H23 N5 1.026131 1_565
H24 N6 1.043597 1_555
H25 N6 1.043597 1_565
H26 N7 1.043597 1_665
H27 N7 1.043597 1_555
H28 N6 1.029356 1_565
H29 N6 1.029356 1_555
H30 N7 1.029356 1_655
H31 N7 1.029356 1_565
F0 Fe0 1.981766 1_555
F0 Mn1 2.044289 1_555
F1 Fe1 1.981766 1_555
F1 Mn0 2.044289 1_555
F2 Fe2 1.981766 1_555
F2 Mn3 2.044289 1_555
F3 Fe3 1.981766 1_555
F3 Mn2 2.044289 1_555
F4 Fe3 1.974123 1_556
F4 Mn5 2.132303 1_555
F5 Fe2 1.974123 1_556
F5 Mn4 2.132303 1_555
F6 Fe1 1.974123 1_555
F6 Mn7 2.132303 1_555
F7 Fe0 1.974123 1_555
F7 Mn6 2.132303 1_555
F8 Fe4 1.944796 1_554
F8 Mn2 2.232845 1_555
F9 Fe5 1.944796 1_554
F9 Mn3 2.232845 1_555
F10 Fe6 1.944796 1_555
F10 Mn0 2.232845 1_555
F11 Fe7 1.944796 1_555
F11 Mn1 2.232845 1_555
F12 Fe4 1.971316 1_555
F12 Mn1 2.061641 1_555
F13 Fe5 1.971316 1_555
F13 Mn0 2.061641 1_555
F14 Fe6 1.971316 1_555
F14 Mn3 2.061641 1_555
F15 Fe7 1.971316 1_555
F15 Mn2 2.061641 1_555
F16 Fe0 1.972482 1_555
F16 Mn0 2.009365 1_555
F17 Fe1 1.972482 1_555
F17 Mn1 2.009365 1_555
F18 Fe2 1.972482 1_555
F18 Mn2 2.009365 1_655
F19 Fe3 1.972482 1_555
F19 Mn3 2.009365 1_455
F20 Fe4 1.947072 1_555
F20 Mn4 2.182026 1_555
F21 Fe5 1.947072 1_555
F21 Mn5 2.182026 1_555
F22 Fe6 1.947072 1_555
F22 Mn6 2.182026 1_655
F23 Fe7 1.947072 1_555
F23 Mn7 2.182026 1_455
F24 Fe4 1.938428 1_555
F24 Mn5 2.119952 1_565
F25 Fe5 1.938428 1_555
F25 Mn4 2.119952 1_545
F26 Fe6 1.938428 1_555
F26 Mn7 2.119952 1_545
F27 Fe7 1.938428 1_555
F27 Mn6 2.119952 1_565
F28 H1 1.334185 1_555
F28 Fe5 2.089519 1_555
F28 Mn3 2.485050 1_556
F29 H0 1.334185 1_555
F29 Fe4 2.089519 1_555
F29 Mn2 2.485050 1_556
F30 H3 1.334185 1_555
F30 Fe7 2.089519 1_555
F30 Mn1 2.485050 1_555
F31 H2 1.334185 1_555
F31 Fe6 2.089519 1_555
F31 Mn0 2.485050 1_555
F32 Fe2 2.071309 1_555
F32 Mn4 2.224225 1_554
F33 Fe3 2.071309 1_555
F33 Mn5 2.224225 1_554
F34 Fe0 2.071309 1_555
F34 Mn6 2.224225 1_555
F35 Fe1 2.071309 1_555
F35 Mn7 2.224225 1_555
F36 Fe1 1.977634 1_555
F36 Mn4 2.161491 1_555
F37 Fe0 1.977634 1_555
F37 Mn5 2.161491 1_555
F38 Fe3 1.977634 1_555
F38 Mn6 2.161491 1_555
F39 Fe2 1.977634 1_555
F39 Mn7 2.161491 1_555
F40 H2 1.046509 1_555
F40 Fe0 2.262407 1_655
F40 Mn0 2.338157 1_555
F41 H3 1.046509 1_555
F41 Fe1 2.262407 1_455
F41 Mn1 2.338157 1_555
F42 H0 1.046509 1_554
F42 Fe2 2.262407 1_555
F42 Mn2 2.338157 1_555
F43 H1 1.046509 1_554
F43 Fe3 2.262407 1_555
F43 Mn3 2.338157 1_555
F44 Fe4 1.937307 1_555
F44 Mn4 2.171550 1_455
F45 Fe5 1.937307 1_555
F45 Mn5 2.171550 1_655
F46 Fe6 1.937307 1_555
F46 Mn6 2.171550 1_555
F47 Fe7 1.937307 1_555
F47 Mn7 2.171550 1_555
