# generated using pymatgen
data_CsNiF3
_symmetry_space_group_name_H-M   'P 1'
_cell_length_a   6.10916741
_cell_length_b   6.10916741
_cell_length_c   14.71554900
_cell_angle_alpha   90.00000000
_cell_angle_beta   90.00000000
_cell_angle_gamma   119.99999359
_symmetry_Int_Tables_number   1
_chemical_formula_structural   CsNiF3
_chemical_formula_sum   'Cs6 Ni6 F18'
_cell_volume   475.63212641
_cell_formula_units_Z   6
loop_
 _symmetry_equiv_pos_site_id
 _symmetry_equiv_pos_as_xyz
  1  'x, y, z'
loop_
 _atom_site_type_symbol
 _atom_site_label
 _atom_site_symmetry_multiplicity
 _atom_site_fract_x
 _atom_site_fract_y
 _atom_site_fract_z
 _atom_site_occupancy
  Cs  Cs0  1  0.00000000  0.00000000  0.25000000  1
  Cs  Cs1  1  0.00000000  0.00000000  0.75000000  1
  Cs  Cs2  1  0.33333300  0.66666700  0.40603400  1
  Cs  Cs3  1  0.66666700  0.33333300  0.59396600  1
  Cs  Cs4  1  0.66666700  0.33333300  0.90603400  1
  Cs  Cs5  1  0.33333300  0.66666700  0.09396600  1
  Ni  Ni0  1  0.00000000  0.00000000  0.50000000  1
  Ni  Ni1  1  0.00000000  0.00000000  0.00000000  1
  Ni  Ni2  1  0.33333300  0.66666700  0.65361000  1
  Ni  Ni3  1  0.66666700  0.33333300  0.34639000  1
  Ni  Ni4  1  0.66666700  0.33333300  0.15361000  1
  Ni  Ni5  1  0.33333300  0.66666700  0.84639000  1
  F  F0  1  0.52446900  0.47553100  0.25000000  1
  F  F1  1  0.52446900  0.04893700  0.25000000  1
  F  F2  1  0.95106300  0.47553100  0.25000000  1
  F  F3  1  0.47553100  0.52446900  0.75000000  1
  F  F4  1  0.47553100  0.95106300  0.75000000  1
  F  F5  1  0.04893700  0.52446900  0.75000000  1
  F  F6  1  0.83439800  0.16560200  0.42092200  1
  F  F7  1  0.83439800  0.66879500  0.42092200  1
  F  F8  1  0.33120500  0.16560200  0.42092200  1
  F  F9  1  0.16560200  0.83439800  0.57907800  1
  F  F10  1  0.16560200  0.33120500  0.57907800  1
  F  F11  1  0.66879500  0.83439800  0.57907800  1
  F  F12  1  0.16560200  0.83439800  0.92092200  1
  F  F13  1  0.16560200  0.33120500  0.92092200  1
  F  F14  1  0.66879500  0.83439800  0.92092200  1
  F  F15  1  0.83439800  0.16560200  0.07907800  1
  F  F16  1  0.83439800  0.66879500  0.07907800  1
  F  F17  1  0.33120500  0.16560200  0.07907800  1
loop_
_geom_bond_atom_site_label_1
_geom_bond_atom_site_label_2
_geom_bond_distance
_geom_bond_site_symmetry_2
Cs0 F6 3.065426 1_455
Cs0 F15 3.065426 1_455
Cs0 F7 3.065429 1_445
Cs0 F16 3.065429 1_445
Cs0 F8 3.065429 1_555
Cs0 F17 3.065429 1_555
Cs0 F1 3.065534 1_455
Cs0 F2 3.065534 1_455
Cs0 F0 3.065538 1_555
Cs0 F0 3.065538 1_445
Cs0 F1 3.065540 1_555
Cs0 F2 3.065540 1_445
Cs1 F12 3.065426 1_545
Cs1 F9 3.065426 1_545
Cs1 F14 3.065429 1_445
Cs1 F11 3.065429 1_445
Cs1 F13 3.065429 1_555
Cs1 F10 3.065429 1_555
Cs1 F5 3.065534 1_545
Cs1 F4 3.065534 1_545
Cs1 F3 3.065538 1_555
Cs1 F3 3.065538 1_445
Cs1 F5 3.065540 1_555
Cs1 F4 3.065540 1_445
Cs2 F2 3.059836 1_455
Cs2 F1 3.059836 1_565
Cs2 F0 3.059843 1_555
Cs2 F7 3.062445 1_455
Cs2 F8 3.062445 1_565
Cs2 F6 3.062451 1_565
Cs2 F6 3.062451 1_455
Cs2 F8 3.062457 1_555
Cs2 F7 3.062457 1_555
Cs2 F9 3.103926 1_555
Cs2 F10 3.103926 1_555
Cs2 F11 3.103926 1_555
Cs3 F4 3.059836 1_545
Cs3 F5 3.059836 1_655
Cs3 F3 3.059843 1_555
Cs3 F11 3.062445 1_545
Cs3 F10 3.062445 1_655
Cs3 F9 3.062451 1_655
Cs3 F9 3.062451 1_545
Cs3 F10 3.062457 1_555
Cs3 F11 3.062457 1_555
Cs3 F6 3.103926 1_555
Cs3 F8 3.103926 1_555
Cs3 F7 3.103926 1_555
Cs4 F4 3.059836 1_545
Cs4 F5 3.059836 1_655
Cs4 F3 3.059843 1_555
Cs4 F13 3.062445 1_655
Cs4 F14 3.062445 1_545
Cs4 F12 3.062451 1_655
Cs4 F12 3.062451 1_545
Cs4 F13 3.062457 1_555
Cs4 F14 3.062457 1_555
Cs4 F15 3.103926 1_556
Cs4 F17 3.103926 1_556
Cs4 F16 3.103926 1_556
Cs5 F2 3.059836 1_455
Cs5 F1 3.059836 1_565
Cs5 F0 3.059843 1_555
Cs5 F16 3.062445 1_455
Cs5 F17 3.062445 1_565
Cs5 F15 3.062451 1_455
Cs5 F15 3.062451 1_565
Cs5 F17 3.062457 1_555
Cs5 F16 3.062457 1_555
Cs5 F12 3.103926 1_554
Cs5 F13 3.103926 1_554
Cs5 F14 3.103926 1_554
F0 Ni3 2.067831 1_555
F0 Ni4 2.067831 1_555
F1 Ni3 2.067832 1_555
F1 Ni4 2.067832 1_555
F2 Ni3 2.067832 1_555
F2 Ni4 2.067832 1_555
F3 Ni5 2.067831 1_555
F3 Ni2 2.067831 1_555
F4 Ni5 2.067832 1_555
F4 Ni2 2.067832 1_555
F5 Ni5 2.067832 1_555
F5 Ni2 2.067832 1_555
F6 Ni3 2.086369 1_555
F6 Ni0 2.103496 1_655
F7 Ni3 2.086369 1_555
F7 Ni0 2.103500 1_665
F8 Ni3 2.086369 1_555
F8 Ni0 2.103500 1_555
F9 Ni2 2.086369 1_555
F9 Ni0 2.103496 1_565
F10 Ni2 2.086369 1_555
F10 Ni0 2.103500 1_555
F11 Ni2 2.086369 1_555
F11 Ni0 2.103500 1_665
F12 Ni5 2.086369 1_555
F12 Ni1 2.103496 1_566
F13 Ni5 2.086369 1_555
F13 Ni1 2.103500 1_556
F14 Ni5 2.086369 1_555
F14 Ni1 2.103500 1_666
F15 Ni4 2.086369 1_555
F15 Ni1 2.103496 1_655
F16 Ni4 2.086369 1_555
F16 Ni1 2.103500 1_665
F17 Ni4 2.086369 1_555
F17 Ni1 2.103500 1_555
