# generated using pymatgen
data_NbPd2
_symmetry_space_group_name_H-M   'P 1'
_cell_length_a   5.67045678
_cell_length_b   7.88916062
_cell_length_c   9.73897100
_cell_angle_alpha   113.89303204
_cell_angle_beta   106.92514467
_cell_angle_gamma   90.00000000
_symmetry_Int_Tables_number   1
_chemical_formula_structural   NbPd2
_chemical_formula_sum   'Nb8 Pd16'
_cell_volume   377.60628890
_cell_formula_units_Z   8
loop_
 _symmetry_equiv_pos_site_id
 _symmetry_equiv_pos_as_xyz
  1  'x, y, z'
loop_
 _atom_site_type_symbol
 _atom_site_label
 _atom_site_symmetry_multiplicity
 _atom_site_fract_x
 _atom_site_fract_y
 _atom_site_fract_z
 _atom_site_occupancy
  Nb  Nb0_0  1  0.00000000  0.00000000  0.00000000  1
  Nb  Nb0_1  1  0.00000000  0.00000000  0.50000000  1
  Nb  Nb0_2  1  0.00000000  0.50000000  0.00000000  1
  Nb  Nb0_3  1  0.00000000  0.50000000  0.50000000  1
  Nb  Nb0_4  1  0.50000000  0.00000000  0.00000000  1
  Nb  Nb0_5  1  0.50000000  0.00000000  0.50000000  1
  Nb  Nb0_6  1  0.50000000  0.50000000  0.00000000  1
  Nb  Nb0_7  1  0.50000000  0.50000000  0.50000000  1
  Pd  Pd0_0  1  0.33328789  0.33328789  0.16657627  1
  Pd  Pd0_1  1  0.33328789  0.33328789  0.66657627  1
  Pd  Pd0_2  1  0.33328789  0.83328789  0.16657627  1
  Pd  Pd0_3  1  0.33328789  0.83328788  0.66657627  1
  Pd  Pd0_4  1  0.83328789  0.33328789  0.16657627  1
  Pd  Pd0_5  1  0.83328789  0.33328789  0.66657627  1
  Pd  Pd0_6  1  0.83328789  0.83328789  0.16657627  1
  Pd  Pd0_7  1  0.83328789  0.83328788  0.66657627  1
  Pd  Pd1_0  1  0.16671212  0.16671211  0.33342373  1
  Pd  Pd1_1  1  0.16671212  0.16671211  0.83342373  1
  Pd  Pd1_2  1  0.16671212  0.66671212  0.33342373  1
  Pd  Pd1_3  1  0.16671212  0.66671211  0.83342373  1
  Pd  Pd1_4  1  0.66671212  0.16671211  0.33342373  1
  Pd  Pd1_5  1  0.66671212  0.16671211  0.83342373  1
  Pd  Pd1_6  1  0.66671212  0.66671212  0.33342373  1
  Pd  Pd1_7  1  0.66671212  0.66671211  0.83342373  1
loop_
_geom_bond_atom_site_label_1
_geom_bond_atom_site_label_2
_geom_bond_distance
_geom_bond_site_symmetry_2
Nb0_0 Pd0_0 2.806519 1_555
Nb0_0 Pd1_7 2.806519 1_444
Nb0_0 Pd0_4 2.806521 1_455
Nb0_0 Pd1_3 2.806521 1_544
Nb0_0 Pd0_2 2.806521 1_545
Nb0_0 Pd1_5 2.806521 1_454
Nb0_0 Pd0_6 2.806523 1_445
Nb0_0 Pd1_1 2.806523 1_554
Nb0_0 Pd1_0 2.814407 1_555
Nb0_0 Pd0_7 2.814407 1_444
Nb0_0 Nb0_4 2.835228 1_455
Nb0_0 Nb0_4 2.835228 1_555
Nb0_1 Pd1_6 2.806519 1_445
Nb0_1 Pd0_1 2.806519 1_555
Nb0_1 Pd0_5 2.806521 1_455
Nb0_1 Pd1_2 2.806521 1_545
Nb0_1 Pd1_4 2.806521 1_455
Nb0_1 Pd0_3 2.806521 1_545
Nb0_1 Pd0_7 2.806523 1_445
Nb0_1 Pd1_0 2.806523 1_555
Nb0_1 Pd1_1 2.814407 1_555
Nb0_1 Pd0_6 2.814407 1_445
Nb0_1 Nb0_5 2.835228 1_455
Nb0_1 Nb0_5 2.835228 1_555
Nb0_2 Pd1_5 2.806519 1_454
Nb0_2 Pd0_2 2.806519 1_555
Nb0_2 Pd0_6 2.806521 1_455
Nb0_2 Pd1_1 2.806521 1_554
Nb0_2 Pd1_7 2.806521 1_454
Nb0_2 Pd0_0 2.806521 1_555
Nb0_2 Pd0_4 2.806523 1_455
Nb0_2 Pd1_3 2.806523 1_554
Nb0_2 Pd1_2 2.814407 1_555
Nb0_2 Pd0_5 2.814407 1_454
Nb0_2 Nb0_6 2.835228 1_455
Nb0_2 Nb0_6 2.835228 1_555
Nb0_3 Pd0_3 2.806519 1_555
Nb0_3 Pd1_4 2.806519 1_455
Nb0_3 Pd0_7 2.806521 1_455
Nb0_3 Pd1_0 2.806521 1_555
Nb0_3 Pd1_6 2.806521 1_455
Nb0_3 Pd0_1 2.806521 1_555
Nb0_3 Pd0_5 2.806523 1_455
Nb0_3 Pd1_2 2.806523 1_555
Nb0_3 Pd1_3 2.814407 1_555
Nb0_3 Pd0_4 2.814407 1_455
Nb0_3 Nb0_7 2.835228 1_455
Nb0_3 Nb0_7 2.835228 1_555
Nb0_4 Pd1_3 2.806519 1_544
Nb0_4 Pd0_4 2.806519 1_555
Nb0_4 Pd0_0 2.806521 1_555
Nb0_4 Pd1_7 2.806521 1_544
Nb0_4 Pd1_1 2.806521 1_554
Nb0_4 Pd0_6 2.806521 1_545
Nb0_4 Pd0_2 2.806523 1_545
Nb0_4 Pd1_5 2.806523 1_554
Nb0_4 Pd1_4 2.814407 1_555
Nb0_4 Pd0_3 2.814407 1_544
Nb0_5 Pd1_2 2.806519 1_545
Nb0_5 Pd0_5 2.806519 1_555
Nb0_5 Pd1_6 2.806521 1_545
Nb0_5 Pd0_1 2.806521 1_555
Nb0_5 Pd1_0 2.806521 1_555
Nb0_5 Pd0_7 2.806521 1_545
Nb0_5 Pd0_3 2.806523 1_545
Nb0_5 Pd1_4 2.806523 1_555
Nb0_5 Pd1_5 2.814407 1_555
Nb0_5 Pd0_2 2.814407 1_545
Nb0_6 Pd1_1 2.806519 1_554
Nb0_6 Pd0_6 2.806519 1_555
Nb0_6 Pd0_2 2.806521 1_555
Nb0_6 Pd1_5 2.806521 1_554
Nb0_6 Pd1_3 2.806521 1_554
Nb0_6 Pd0_4 2.806521 1_555
Nb0_6 Pd0_0 2.806523 1_555
Nb0_6 Pd1_7 2.806523 1_554
Nb0_6 Pd1_6 2.814407 1_555
Nb0_6 Pd0_1 2.814407 1_554
Nb0_7 Pd0_7 2.806519 1_555
Nb0_7 Pd1_0 2.806519 1_555
Nb0_7 Pd1_4 2.806521 1_555
Nb0_7 Pd0_3 2.806521 1_555
Nb0_7 Pd0_5 2.806521 1_555
Nb0_7 Pd1_2 2.806521 1_555
Nb0_7 Pd0_1 2.806523 1_555
Nb0_7 Pd1_6 2.806523 1_555
Nb0_7 Pd1_7 2.814407 1_555
Nb0_7 Pd0_0 2.814407 1_555
Pd0_0 Pd1_0 2.807664 1_555
Pd0_0 Pd1_4 2.807667 1_555
Pd0_0 Pd1_2 2.807670 1_555
Pd0_0 Pd1_6 2.807673 1_555
Pd0_0 Pd1_1 2.812118 1_554
Pd0_0 Pd0_4 2.835228 1_455
Pd0_0 Pd0_4 2.835228 1_555
Pd0_1 Pd1_1 2.807664 1_555
Pd0_1 Pd1_5 2.807667 1_555
Pd0_1 Pd1_3 2.807670 1_555
Pd0_1 Pd1_7 2.807673 1_555
Pd0_1 Pd1_0 2.812118 1_555
Pd0_1 Pd0_5 2.835228 1_455
Pd0_1 Pd0_5 2.835228 1_555
Pd0_2 Pd1_2 2.807664 1_555
Pd0_2 Pd1_6 2.807667 1_555
Pd0_2 Pd1_0 2.807670 1_565
Pd0_2 Pd1_4 2.807673 1_565
Pd0_2 Pd1_3 2.812118 1_554
Pd0_2 Pd0_6 2.835228 1_455
Pd0_2 Pd0_6 2.835228 1_555
Pd0_3 Pd1_3 2.807664 1_555
Pd0_3 Pd1_7 2.807667 1_555
Pd0_3 Pd1_1 2.807670 1_565
Pd0_3 Pd1_5 2.807673 1_565
Pd0_3 Pd1_2 2.812118 1_555
Pd0_3 Pd0_7 2.835228 1_455
Pd0_3 Pd0_7 2.835228 1_555
Pd0_4 Pd1_4 2.807664 1_555
Pd0_4 Pd1_0 2.807667 1_655
Pd0_4 Pd1_6 2.807670 1_555
Pd0_4 Pd1_2 2.807673 1_655
Pd0_4 Pd1_5 2.812118 1_554
Pd0_5 Pd1_5 2.807664 1_555
Pd0_5 Pd1_1 2.807667 1_655
Pd0_5 Pd1_7 2.807670 1_555
Pd0_5 Pd1_3 2.807673 1_655
Pd0_5 Pd1_4 2.812118 1_555
Pd0_6 Pd1_6 2.807664 1_555
Pd0_6 Pd1_2 2.807667 1_655
Pd0_6 Pd1_4 2.807670 1_565
Pd0_6 Pd1_0 2.807673 1_665
Pd0_6 Pd1_7 2.812118 1_554
Pd0_7 Pd1_7 2.807664 1_555
Pd0_7 Pd1_3 2.807667 1_655
Pd0_7 Pd1_5 2.807670 1_565
Pd0_7 Pd1_1 2.807673 1_665
Pd0_7 Pd1_6 2.812118 1_555
Pd1_0 Pd1_4 2.835228 1_455
Pd1_0 Pd1_4 2.835228 1_555
Pd1_1 Pd1_5 2.835228 1_555
Pd1_1 Pd1_5 2.835228 1_455
Pd1_2 Pd1_6 2.835228 1_455
Pd1_2 Pd1_6 2.835228 1_555
Pd1_3 Pd1_7 2.835228 1_455
Pd1_3 Pd1_7 2.835228 1_555
