# generated using pymatgen
data_PrZnAgAs2
_symmetry_space_group_name_H-M   'P 1'
_cell_length_a   4.34984228
_cell_length_b   4.34984228
_cell_length_c   6.98600700
_cell_angle_alpha   90.00000000
_cell_angle_beta   90.00000000
_cell_angle_gamma   120.00000429
_symmetry_Int_Tables_number   1
_chemical_formula_structural   PrZnAgAs2
_chemical_formula_sum   'Pr1 Zn1 Ag1 As2'
_cell_volume   114.47394515
_cell_formula_units_Z   1
loop_
 _symmetry_equiv_pos_site_id
 _symmetry_equiv_pos_as_xyz
  1  'x, y, z'
loop_
 _atom_site_type_symbol
 _atom_site_label
 _atom_site_symmetry_multiplicity
 _atom_site_fract_x
 _atom_site_fract_y
 _atom_site_fract_z
 _atom_site_occupancy
  Pr  Pr0  1  0.00000000  0.00000000  0.98583100  1
  Zn  Zn0  1  0.66666700  0.33333300  0.37430500  1
  Ag  Ag0  1  0.33333300  0.66666700  0.63792100  1
  As  As0  1  0.33333300  0.66666700  0.24938000  1
  As  As1  1  0.66666700  0.33333300  0.75256500  1
loop_
_geom_bond_atom_site_label_1
_geom_bond_atom_site_label_2
_geom_bond_distance
_geom_bond_site_symmetry_2
Ag0 As1 2.635996 1_455
Ag0 As1 2.635996 1_565
Ag0 As1 2.636004 1_555
Ag0 As0 2.714350 1_555
Ag0 Zn0 3.114258 1_455
Ag0 Zn0 3.114258 1_565
Ag0 Zn0 3.114265 1_555
Ag0 Pr0 3.494906 1_565
Ag0 Pr0 3.494909 1_665
Ag0 Pr0 3.494909 1_555
As0 Zn0 2.658699 1_455
As0 Zn0 2.658699 1_565
As0 Zn0 2.658707 1_555
As0 Pr0 3.113982 1_564
As0 Pr0 3.113985 1_554
As0 Pr0 3.113985 1_664
As1 Zn0 2.642527 1_555
As1 Pr0 2.993763 1_655
As1 Pr0 2.993766 1_555
As1 Pr0 2.993766 1_665
