# generated using pymatgen
data_Li2Mn2CrO6
_symmetry_space_group_name_H-M   'P 1'
_cell_length_a   5.11721842
_cell_length_b   5.11725616
_cell_length_c   10.23583901
_cell_angle_alpha   90.00393377
_cell_angle_beta   89.99769033
_cell_angle_gamma   118.45823783
_symmetry_Int_Tables_number   1
_chemical_formula_structural   Li2Mn2CrO6
_chemical_formula_sum   'Li4 Mn4 Cr2 O12'
_cell_volume   235.64855806
_cell_formula_units_Z   2
loop_
 _symmetry_equiv_pos_site_id
 _symmetry_equiv_pos_as_xyz
  1  'x, y, z'
loop_
 _atom_site_type_symbol
 _atom_site_label
 _atom_site_symmetry_multiplicity
 _atom_site_fract_x
 _atom_site_fract_y
 _atom_site_fract_z
 _atom_site_occupancy
  Li  Li0  1  0.12623000  0.61776500  0.74765600  1
  Li  Li1  1  0.38226400  0.87379300  0.25233900  1
  Li  Li2  1  0.62621700  0.11775600  0.75233500  1
  Li  Li3  1  0.88233800  0.37376300  0.24764100  1
  Mn  Mn0  1  0.16471500  0.83529400  0.49999000  1
  Mn  Mn1  1  0.33801000  0.66217100  0.99996300  1
  Mn  Mn2  1  0.66464900  0.33537900  0.99993700  1
  Mn  Mn3  1  0.83791300  0.16206000  0.49999200  1
  Cr  Cr0  1  0.99746700  0.00220700  0.00001400  1
  Cr  Cr1  1  0.49748200  0.50226300  0.50014200  1
  O  O0  1  0.00132700  0.65665600  0.09959400  1
  O  O1  1  0.95547300  0.31159400  0.88872000  1
  O  O2  1  0.18846600  0.54446300  0.38874400  1
  O  O3  1  0.45555300  0.81154200  0.61129000  1
  O  O4  1  0.16514400  0.16245400  0.59556700  1
  O  O5  1  0.33754500  0.33504700  0.09552100  1
  O  O6  1  0.66506300  0.66249000  0.90443000  1
  O  O7  1  0.34329600  0.99866000  0.90037200  1
  O  O8  1  0.83763700  0.83490400  0.40447100  1
  O  O9  1  0.50142700  0.15658700  0.40040900  1
  O  O10  1  0.84343700  0.49860100  0.59961300  1
  O  O11  1  0.68834700  0.04455200  0.11126100  1
loop_
_geom_bond_atom_site_label_1
_geom_bond_atom_site_label_2
_geom_bond_distance
_geom_bond_site_symmetry_2
Li0 O10 1.980229 1_455
Li0 O1 1.999648 1_455
Li0 O3 2.044252 1_555
Li0 O7 2.326548 1_555
Li1 O9 1.980380 1_565
Li1 O11 1.999433 1_565
Li1 O2 2.044614 1_555
Li1 O0 2.326960 1_555
Li2 O7 1.980553 1_545
Li2 O3 1.999500 1_545
Li2 O1 2.044210 1_555
Li2 O10 2.326614 1_555
Li3 O0 1.980647 1_655
Li3 O2 1.999735 1_655
Li3 O11 2.044066 1_555
Li3 O9 2.327050 1_555
Mn0 O2 1.923136 1_555
Mn0 O3 1.923590 1_555
Mn0 O8 1.937590 1_455
Mn0 O4 1.938088 1_565
Mn0 O9 2.002802 1_565
Mn0 O10 2.002949 1_455
Mn1 O6 1.937633 1_555
Mn1 O5 1.937871 1_556
Mn1 O7 1.990149 1_555
Mn1 O0 1.990639 1_556
Mn1 O11 2.235462 1_566
Mn1 O1 2.236049 1_455
Mn2 O1 1.923021 1_555
Mn2 O11 1.923602 1_556
Mn2 O6 1.937658 1_555
Mn2 O5 1.938094 1_556
Mn2 O7 2.002814 1_545
Mn2 O0 2.003039 1_656
Mn3 O8 1.938103 1_545
Mn3 O4 1.938546 1_655
Mn3 O9 1.989676 1_555
Mn3 O10 1.989930 1_555
Mn3 O2 2.235746 1_655
Mn3 O3 2.235818 1_545
Cr0 O6 2.013561 1_544
Cr0 O5 2.014999 1_655
Cr0 O11 2.042621 1_555
Cr0 O1 2.043281 1_554
Cr0 O0 2.049307 1_645
Cr0 O7 2.050075 1_644
Cr1 O4 2.012891 1_555
Cr1 O8 2.015600 1_555
Cr1 O3 2.041704 1_555
Cr1 O2 2.042779 1_555
Cr1 O10 2.050084 1_555
Cr1 O9 2.050702 1_555
