# generated using pymatgen
data_Au
_symmetry_space_group_name_H-M   'P 1'
_cell_length_a   5.64041869
_cell_length_b   5.63097812
_cell_length_c   10.89759898
_cell_angle_alpha   107.78862113
_cell_angle_beta   107.37455880
_cell_angle_gamma   90.26320362
_symmetry_Int_Tables_number   1
_chemical_formula_structural   Au
_chemical_formula_sum   Au16
_cell_volume   312.78065001
_cell_formula_units_Z   16
loop_
 _symmetry_equiv_pos_site_id
 _symmetry_equiv_pos_as_xyz
  1  'x, y, z'
loop_
 _atom_site_type_symbol
 _atom_site_label
 _atom_site_symmetry_multiplicity
 _atom_site_fract_x
 _atom_site_fract_y
 _atom_site_fract_z
 _atom_site_occupancy
  Au  Au0_0  1  0.30404650  0.30059650  0.13702750  1
  Au  Au0_1  1  0.30404650  0.30059650  0.63702750  1
  Au  Au0_2  1  0.30404650  0.80059650  0.13702750  1
  Au  Au0_3  1  0.30404650  0.80059650  0.63702750  1
  Au  Au0_4  1  0.80404650  0.30059650  0.13702750  1
  Au  Au0_5  1  0.80404650  0.30059650  0.63702750  1
  Au  Au0_6  1  0.80404650  0.80059650  0.13702750  1
  Au  Au0_7  1  0.80404650  0.80059650  0.63702750  1
  Au  Au1_0  1  0.19595400  0.19940400  0.36297300  1
  Au  Au1_1  1  0.19595400  0.19940400  0.86297300  1
  Au  Au1_2  1  0.19595400  0.69940400  0.36297300  1
  Au  Au1_3  1  0.19595400  0.69940400  0.86297300  1
  Au  Au1_4  1  0.69595400  0.19940400  0.36297300  1
  Au  Au1_5  1  0.69595400  0.19940400  0.86297300  1
  Au  Au1_6  1  0.69595400  0.69940400  0.36297300  1
  Au  Au1_7  1  0.69595400  0.69940400  0.86297300  1
loop_
_geom_bond_atom_site_label_1
_geom_bond_atom_site_label_2
_geom_bond_distance
_geom_bond_site_symmetry_2
Au0_0 Au1_1 2.735934 1_554
Au0_0 Au0_2 2.815489 1_555
Au0_0 Au0_2 2.815489 1_545
Au0_0 Au0_4 2.820209 1_555
Au0_0 Au0_4 2.820209 1_455
Au0_0 Au1_0 2.917155 1_555
Au0_0 Au1_4 2.981946 1_555
Au0_0 Au1_2 3.001352 1_555
Au0_0 Au1_6 3.052436 1_555
Au0_1 Au1_0 2.735934 1_555
Au0_1 Au0_3 2.815489 1_555
Au0_1 Au0_3 2.815489 1_545
Au0_1 Au0_5 2.820209 1_455
Au0_1 Au0_5 2.820209 1_555
Au0_1 Au1_1 2.917155 1_555
Au0_1 Au1_5 2.981946 1_555
Au0_1 Au1_3 3.001352 1_555
Au0_1 Au1_7 3.052436 1_555
Au0_2 Au1_3 2.735934 1_554
Au0_2 Au0_6 2.820209 1_555
Au0_2 Au0_6 2.820209 1_455
Au0_2 Au1_2 2.917155 1_555
Au0_2 Au1_6 2.981946 1_555
Au0_2 Au1_0 3.001352 1_565
Au0_2 Au1_4 3.052436 1_565
Au0_3 Au1_2 2.735934 1_555
Au0_3 Au0_7 2.820209 1_455
Au0_3 Au0_7 2.820209 1_555
Au0_3 Au1_3 2.917155 1_555
Au0_3 Au1_7 2.981946 1_555
Au0_3 Au1_1 3.001352 1_565
Au0_3 Au1_5 3.052436 1_565
Au0_4 Au1_5 2.735934 1_554
Au0_4 Au0_6 2.815489 1_555
Au0_4 Au0_6 2.815489 1_545
Au0_4 Au1_4 2.917155 1_555
Au0_4 Au1_0 2.981946 1_655
Au0_4 Au1_6 3.001352 1_555
Au0_4 Au1_2 3.052436 1_655
Au0_5 Au1_4 2.735934 1_555
Au0_5 Au0_7 2.815489 1_555
Au0_5 Au0_7 2.815489 1_545
Au0_5 Au1_5 2.917155 1_555
Au0_5 Au1_1 2.981946 1_655
Au0_5 Au1_7 3.001352 1_555
Au0_5 Au1_3 3.052436 1_655
Au0_6 Au1_7 2.735934 1_554
Au0_6 Au1_6 2.917155 1_555
Au0_6 Au1_2 2.981946 1_655
Au0_6 Au1_4 3.001352 1_565
Au0_6 Au1_0 3.052436 1_665
Au0_7 Au1_6 2.735934 1_555
Au0_7 Au1_7 2.917155 1_555
Au0_7 Au1_3 2.981946 1_655
Au0_7 Au1_5 3.001352 1_565
Au0_7 Au1_1 3.052436 1_665
Au1_0 Au1_2 2.815489 1_555
Au1_0 Au1_2 2.815489 1_545
Au1_0 Au1_4 2.820209 1_455
Au1_0 Au1_4 2.820209 1_555
Au1_1 Au1_3 2.815489 1_555
Au1_1 Au1_3 2.815489 1_545
Au1_1 Au1_5 2.820209 1_555
Au1_1 Au1_5 2.820209 1_455
Au1_2 Au1_6 2.820209 1_555
Au1_2 Au1_6 2.820209 1_455
Au1_3 Au1_7 2.820209 1_455
Au1_3 Au1_7 2.820209 1_555
Au1_4 Au1_6 2.815489 1_555
Au1_4 Au1_6 2.815489 1_545
Au1_5 Au1_7 2.815489 1_555
Au1_5 Au1_7 2.815489 1_545
