# generated using pymatgen
data_ZrGeMo
_symmetry_space_group_name_H-M   'P 1'
_cell_length_a   3.59590700
_cell_length_b   7.07210200
_cell_length_c   8.35923800
_cell_angle_alpha   90.00000000
_cell_angle_beta   90.00000000
_cell_angle_gamma   90.00000000
_symmetry_Int_Tables_number   1
_chemical_formula_structural   ZrGeMo
_chemical_formula_sum   'Zr4 Ge4 Mo4'
_cell_volume   212.58061415
_cell_formula_units_Z   4
loop_
 _symmetry_equiv_pos_site_id
 _symmetry_equiv_pos_as_xyz
  1  'x, y, z'
loop_
 _atom_site_type_symbol
 _atom_site_label
 _atom_site_symmetry_multiplicity
 _atom_site_fract_x
 _atom_site_fract_y
 _atom_site_fract_z
 _atom_site_occupancy
  Zr  Zr0  1  0.25000000  0.54655700  0.83225500  1
  Zr  Zr1  1  0.25000000  0.04655700  0.66774500  1
  Zr  Zr2  1  0.75000000  0.45344300  0.16774500  1
  Zr  Zr3  1  0.75000000  0.95344300  0.33225500  1
  Ge  Ge0  1  0.25000000  0.75244700  0.13954400  1
  Ge  Ge1  1  0.25000000  0.25244700  0.36045600  1
  Ge  Ge2  1  0.75000000  0.24755300  0.86045600  1
  Ge  Ge3  1  0.75000000  0.74755300  0.63954400  1
  Mo  Mo0  1  0.25000000  0.62807300  0.43996500  1
  Mo  Mo1  1  0.25000000  0.12807300  0.06003500  1
  Mo  Mo2  1  0.75000000  0.37192700  0.56003500  1
  Mo  Mo3  1  0.75000000  0.87192700  0.93996500  1
loop_
_geom_bond_atom_site_label_1
_geom_bond_atom_site_label_2
_geom_bond_distance
_geom_bond_site_symmetry_2
Ge0 Mo3 2.594213 1_554
Ge0 Mo3 2.594213 1_454
Ge0 Mo0 2.660874 1_555
Ge0 Mo1 2.738348 1_565
Ge0 Zr2 2.785621 1_555
Ge0 Zr2 2.785621 1_455
Ge0 Zr3 2.801473 1_455
Ge0 Zr3 2.801473 1_555
Ge0 Zr0 2.952691 1_554
Ge1 Mo2 2.594213 1_555
Ge1 Mo2 2.594213 1_455
Ge1 Mo1 2.660874 1_555
Ge1 Mo0 2.738348 1_555
Ge1 Zr3 2.785621 1_545
Ge1 Zr3 2.785621 1_445
Ge1 Zr2 2.801473 1_555
Ge1 Zr2 2.801473 1_455
Ge1 Zr1 2.952691 1_555
Ge2 Mo1 2.594213 1_656
Ge2 Mo1 2.594213 1_556
Ge2 Mo2 2.660874 1_555
Ge2 Mo3 2.738348 1_545
Ge2 Zr0 2.785621 1_655
Ge2 Zr0 2.785621 1_555
Ge2 Zr1 2.801473 1_655
Ge2 Zr1 2.801473 1_555
Ge2 Zr2 2.952691 1_556
Ge3 Mo0 2.594213 1_655
Ge3 Mo0 2.594213 1_555
Ge3 Mo3 2.660874 1_555
Ge3 Mo2 2.738348 1_555
Ge3 Zr1 2.785621 1_565
Ge3 Zr1 2.785621 1_665
Ge3 Zr0 2.801473 1_655
Ge3 Zr0 2.801473 1_555
Ge3 Zr3 2.952691 1_555
Mo0 Mo2 2.742542 1_555
Mo0 Mo2 2.742542 1_455
Mo0 Zr3 3.055837 1_455
Mo0 Zr3 3.055837 1_555
Mo0 Zr2 3.152142 1_455
Mo0 Zr2 3.152142 1_555
Mo1 Mo3 2.742542 1_444
Mo1 Mo3 2.742542 1_544
Mo1 Zr2 3.055837 1_555
Mo1 Zr2 3.055837 1_455
Mo1 Zr3 3.152142 1_545
Mo1 Zr3 3.152142 1_445
Mo2 Zr1 3.055837 1_655
Mo2 Zr1 3.055837 1_555
Mo2 Zr0 3.152142 1_655
Mo2 Zr0 3.152142 1_555
Mo3 Zr0 3.055837 1_655
Mo3 Zr0 3.055837 1_555
Mo3 Zr1 3.152142 1_565
Mo3 Zr1 3.152142 1_665
