# generated using pymatgen
data_K9Gd3Si12(O16F)2
_symmetry_space_group_name_H-M   'P 1'
_cell_length_a   6.88683610
_cell_length_b   11.38715099
_cell_length_c   11.46221291
_cell_angle_alpha   87.50181643
_cell_angle_beta   89.61155908
_cell_angle_gamma   80.26455019
_symmetry_Int_Tables_number   1
_chemical_formula_structural   K9Gd3Si12(O16F)2
_chemical_formula_sum   'K9 Gd3 Si12 O32 F2'
_cell_volume   885.09633144
_cell_formula_units_Z   1
loop_
 _symmetry_equiv_pos_site_id
 _symmetry_equiv_pos_as_xyz
  1  'x, y, z'
loop_
 _atom_site_type_symbol
 _atom_site_label
 _atom_site_symmetry_multiplicity
 _atom_site_fract_x
 _atom_site_fract_y
 _atom_site_fract_z
 _atom_site_occupancy
  K  K0  1  0.77063291  0.11414352  0.51893750  1
  K  K1  1  0.22936709  0.88585648  0.48106250  1
  K  K2  1  0.66978121  0.30606484  0.27867333  1
  K  K3  1  0.33021879  0.69393516  0.72132667  1
  K  K4  1  0.33225330  0.65311306  0.28559772  1
  K  K5  1  0.66774670  0.34688694  0.71440228  1
  K  K6  1  0.00000000  0.50000000  0.50000000  1
  K  K7  1  0.51439072  0.83059386  0.01226971  1
  K  K8  1  0.48560928  0.16940614  0.98773029  1
  Gd  Gd0  1  0.01405446  0.01405799  0.16393512  1
  Gd  Gd1  1  0.98594554  0.98594201  0.83606488  1
  Gd  Gd2  1  0.50000000  0.50000000  0.00000000  1
  Si  Si0  1  0.21526762  0.16542456  0.38295079  1
  Si  Si1  1  0.78473238  0.83457544  0.61704921  1
  Si  Si2  1  0.18792534  0.19615115  0.66129123  1
  Si  Si3  1  0.81207466  0.80384885  0.33870877  1
  Si  Si4  1  0.51736489  0.01564759  0.24242913  1
  Si  Si5  1  0.48263511  0.98435241  0.75757087  1
  Si  Si6  1  0.15660012  0.41051216  0.80309478  1
  Si  Si7  1  0.84339988  0.58948784  0.19690522  1
  Si  Si8  1  0.05361942  0.73248433  0.01146871  1
  Si  Si9  1  0.94638058  0.26751567  0.98853129  1
  Si  Si10  1  0.16297372  0.36174600  0.18950827  1
  Si  Si11  1  0.83702628  0.63825400  0.81049173  1
  O  O0  1  0.35647986  0.37056342  0.11715171  1
  O  O1  1  0.64352014  0.62943658  0.88284829  1
  O  O2  1  0.65674292  0.53106598  0.16978435  1
  O  O3  1  0.34325708  0.46893402  0.83021565  1
  O  O4  1  0.20401708  0.18464790  0.52146317  1
  O  O5  1  0.79598292  0.81535210  0.47853683  1
  O  O6  1  0.68898778  0.07988555  0.18929120  1
  O  O7  1  0.31101222  0.92011445  0.81070880  1
  O  O8  1  0.39789006  0.12508669  0.71576756  1
  O  O9  1  0.60210994  0.87491331  0.28423244  1
  O  O10  1  0.43352576  0.08287150  0.36341206  1
  O  O11  1  0.56647424  0.91712850  0.63658794  1
  O  O12  1  0.26811965  0.66194394  0.04283408  1
  O  O13  1  0.73188035  0.33805606  0.95716592  1
  O  O14  1  0.00935231  0.28945726  0.12542350  1
  O  O15  1  0.99064769  0.71054274  0.87457650  1
  O  O16  1  0.03054535  0.87544878  0.01731892  1
  O  O17  1  0.96945465  0.12455122  0.98268108  1
  O  O18  1  0.04163005  0.10151872  0.34163979  1
  O  O19  1  0.95836995  0.89848128  0.65836021  1
  O  O20  1  0.21739507  0.29593546  0.31813433  1
  O  O21  1  0.78260493  0.70406454  0.68186567  1
  O  O22  1  0.18952064  0.33769004  0.68187448  1
  O  O23  1  0.81047936  0.66230996  0.31812552  1
  O  O24  1  0.99839135  0.15087624  0.71443950  1
  O  O25  1  0.00160865  0.84912376  0.28556050  1
  O  O26  1  0.04381428  0.49292500  0.22391727  1
  O  O27  1  0.95618572  0.50707500  0.77608273  1
  O  O28  1  0.11607143  0.31532213  0.90651754  1
  O  O29  1  0.88392857  0.68467787  0.09348246  1
  O  O30  1  0.34143218  0.01394549  0.15244836  1
  O  O31  1  0.65856782  0.98605451  0.84755164  1
  F  F0  1  0.24753179  0.65789689  0.50433726  1
  F  F1  1  0.75246821  0.34210311  0.49566274  1
loop_
_geom_bond_atom_site_label_1
_geom_bond_atom_site_label_2
_geom_bond_distance
_geom_bond_site_symmetry_2
K0 O18 2.741720 1_655
K0 O24 2.829856 1_555
K0 O19 2.977994 1_545
K0 O10 3.014231 1_555
K0 O11 3.099315 1_545
K1 O19 2.741720 1_455
K1 O25 2.829856 1_555
K1 O18 2.977994 1_565
K1 O11 3.014231 1_555
K1 O10 3.099315 1_565
K2 O2 2.788414 1_555
K2 O6 2.795264 1_555
K2 O0 2.832357 1_555
K2 O14 2.900680 1_655
K3 O3 2.788414 1_555
K3 O7 2.795264 1_555
K3 O1 2.832357 1_555
K3 O15 2.900680 1_455
K4 O2 2.785287 1_555
K4 O12 2.815200 1_555
K4 O25 2.906552 1_555
K4 O26 3.021580 1_555
K5 O3 2.785287 1_555
K5 O13 2.815200 1_555
K5 O24 2.906552 1_555
K5 O27 3.021580 1_555
K6 O22 2.889745 1_555
K6 O23 2.889745 1_455
K6 O26 3.180059 1_555
K6 O27 3.180059 1_455
K6 O21 3.345146 1_455
K6 O20 3.345146 1_555
K7 O7 2.773853 1_554
K7 O12 2.778883 1_555
K7 O30 2.790166 1_565
K7 O1 2.797819 1_554
K7 O31 2.821709 1_554
K7 O29 2.927674 1_555
K7 O9 3.256218 1_555
K7 O16 3.285104 1_555
K8 O6 2.773853 1_556
K8 O13 2.778883 1_555
K8 O31 2.790166 1_545
K8 O0 2.797819 1_556
K8 O30 2.821709 1_556
K8 O28 2.927674 1_555
K8 O8 3.256218 1_555
K8 O17 3.285104 1_555
Gd0 O30 2.257334 1_555
Gd0 O6 2.258470 1_455
Gd0 O25 2.302780 1_545
Gd0 O18 2.328714 1_555
Gd0 O16 2.344438 1_545
Gd0 O17 2.375668 1_454
Gd1 O31 2.257334 1_555
Gd1 O7 2.258470 1_655
Gd1 O24 2.302780 1_565
Gd1 O19 2.328714 1_555
Gd1 O17 2.344438 1_565
Gd1 O16 2.375668 1_656
Gd2 O0 2.292308 1_555
Gd2 O1 2.292308 1_554
Gd2 O13 2.294384 1_554
Gd2 O12 2.294384 1_555
Gd2 O3 2.301162 1_554
Gd2 O2 2.301162 1_555
O0 Si10 1.580152 1_555
O1 Si11 1.580152 1_555
O2 Si7 1.582504 1_555
O3 Si6 1.582504 1_555
O4 Si0 1.611667 1_555
O4 Si2 1.615301 1_555
O5 Si1 1.611667 1_555
O5 Si3 1.615301 1_555
O6 Si4 1.595878 1_555
O7 Si5 1.595878 1_555
O8 Si2 1.645628 1_555
O8 Si5 1.661010 1_545
O9 Si3 1.645628 1_555
O9 Si4 1.661010 1_565
O10 Si0 1.651996 1_555
O10 Si4 1.665707 1_555
O11 Si1 1.651996 1_555
O11 Si5 1.665707 1_555
O12 Si8 1.592920 1_555
O13 Si9 1.592920 1_555
O14 Si10 1.641412 1_555
O14 Si9 1.671103 1_454
O15 Si11 1.641412 1_555
O15 Si8 1.671103 1_656
O16 Si8 1.613033 1_555
O17 Si9 1.613033 1_555
O18 Si0 1.586114 1_555
O19 Si1 1.586114 1_555
O20 Si0 1.634556 1_555
O20 Si10 1.640708 1_555
O21 Si1 1.634556 1_555
O21 Si11 1.640708 1_555
O22 Si2 1.640918 1_555
O22 Si6 1.643838 1_555
O23 Si3 1.640918 1_555
O23 Si7 1.643838 1_555
O24 Si2 1.590636 1_655
O25 Si3 1.590636 1_455
O26 Si7 1.634866 1_455
O26 Si10 1.640943 1_555
O27 Si6 1.634866 1_655
O27 Si11 1.640943 1_555
O28 Si6 1.626024 1_555
O28 Si9 1.643597 1_455
O29 Si7 1.626024 1_555
O29 Si8 1.643597 1_655
O30 Si4 1.599615 1_555
O31 Si5 1.599615 1_555
F0 K4 2.571180 1_555
F0 K1 2.579789 1_555
F0 K3 2.620297 1_555
F0 K6 2.680828 1_555
F1 K5 2.571180 1_555
F1 K0 2.579789 1_555
F1 K2 2.620297 1_555
F1 K6 2.680828 1_655
