# generated using pymatgen
data_CsNa3TiO4
_symmetry_space_group_name_H-M   'P 1'
_cell_length_a   6.61475000
_cell_length_b   8.63947595
_cell_length_c   11.43176912
_cell_angle_alpha   82.67514766
_cell_angle_beta   76.15017814
_cell_angle_gamma   79.67761701
_symmetry_Int_Tables_number   1
_chemical_formula_structural   CsNa3TiO4
_chemical_formula_sum   'Cs4 Na12 Ti4 O16'
_cell_volume   621.59001088
_cell_formula_units_Z   4
loop_
 _symmetry_equiv_pos_site_id
 _symmetry_equiv_pos_as_xyz
  1  'x, y, z'
loop_
 _atom_site_type_symbol
 _atom_site_label
 _atom_site_symmetry_multiplicity
 _atom_site_fract_x
 _atom_site_fract_y
 _atom_site_fract_z
 _atom_site_occupancy
  Cs  Cs0  1  0.04124000  0.13510100  0.62605800  1
  Cs  Cs1  1  0.95876000  0.86489900  0.37394200  1
  Cs  Cs2  1  0.03289100  0.37985700  0.87365700  1
  Cs  Cs3  1  0.96710900  0.62014300  0.12634300  1
  Na  Na0  1  0.20367100  0.16627400  0.14508700  1
  Na  Na1  1  0.79632900  0.83372600  0.85491300  1
  Na  Na2  1  0.50487900  0.66584000  0.39262700  1
  Na  Na3  1  0.49512100  0.33416000  0.60737300  1
  Na  Na4  1  0.18251000  0.44639400  0.39623400  1
  Na  Na5  1  0.53932500  0.42967400  0.12539100  1
  Na  Na6  1  0.20471900  0.94251500  0.89588400  1
  Na  Na7  1  0.79528100  0.05748500  0.10411600  1
  Na  Na8  1  0.57067700  0.95617200  0.62517300  1
  Na  Na9  1  0.42932300  0.04382800  0.37482700  1
  Na  Na10  1  0.46067500  0.57032600  0.87460900  1
  Na  Na11  1  0.81749000  0.55360600  0.60376600  1
  Ti  Ti0  1  0.16543400  0.71508700  0.64529400  1
  Ti  Ti1  1  0.83456600  0.28491300  0.35470600  1
  Ti  Ti2  1  0.58017000  0.21282800  0.86234500  1
  Ti  Ti3  1  0.41983000  0.78717200  0.13765500  1
  O  O0  1  0.34708100  0.83814500  0.54187000  1
  O  O1  1  0.65291900  0.16185500  0.45813000  1
  O  O2  1  0.42944700  0.11441200  0.78493200  1
  O  O3  1  0.57055300  0.88558800  0.21506800  1
  O  O4  1  0.18173700  0.71375700  0.80431100  1
  O  O5  1  0.81826300  0.28624300  0.19568900  1
  O  O6  1  0.81720800  0.08360700  0.89728500  1
  O  O7  1  0.18279200  0.91639300  0.10271500  1
  O  O8  1  0.66935800  0.37728400  0.75305400  1
  O  O9  1  0.33064200  0.62271600  0.24694600  1
  O  O10  1  0.58678700  0.69023000  0.00485600  1
  O  O11  1  0.41321300  0.30977000  0.99514400  1
  O  O12  1  0.88755300  0.79828000  0.64522100  1
  O  O13  1  0.79805800  0.48214500  0.41211500  1
  O  O14  1  0.11244700  0.20172000  0.35477900  1
  O  O15  1  0.20194200  0.51785500  0.58788500  1
loop_
_geom_bond_atom_site_label_1
_geom_bond_atom_site_label_2
_geom_bond_distance
_geom_bond_site_symmetry_2
Cs0 O14 3.018816 1_555
Cs0 O0 3.072205 1_545
Cs0 O6 3.113274 1_455
Cs0 O8 3.123614 1_455
Cs0 O12 3.215635 1_445
Cs0 O2 3.451117 1_555
Cs0 O1 3.517319 1_455
Cs0 O15 3.595133 1_555
Cs1 O12 3.018816 1_555
Cs1 O1 3.072205 1_565
Cs1 O7 3.113274 1_655
Cs1 O9 3.123614 1_655
Cs1 O14 3.215635 1_665
Cs1 O3 3.451117 1_555
Cs1 O0 3.517319 1_655
Cs1 O13 3.595133 1_555
Cs2 O8 3.049266 1_455
Cs2 O11 3.088160 1_555
Cs2 O6 3.099515 1_455
Cs2 O4 3.159196 1_555
Cs2 O2 3.214388 1_555
Cs2 O15 3.328667 1_555
Cs3 O9 3.049266 1_655
Cs3 O10 3.088160 1_555
Cs3 O7 3.099515 1_655
Cs3 O5 3.159196 1_555
Cs3 O3 3.214388 1_555
Cs3 O13 3.328667 1_555
Na0 O7 2.306474 1_545
Na0 O11 2.309282 1_554
Na0 O14 2.373325 1_555
Na0 O5 2.531426 1_455
Na1 O6 2.306474 1_565
Na1 O10 2.309282 1_556
Na1 O12 2.373325 1_555
Na1 O4 2.531426 1_655
Na2 O13 2.311474 1_555
Na2 O0 2.335489 1_555
Na2 O9 2.339167 1_555
Na2 O3 2.608441 1_555
Na3 O15 2.311474 1_555
Na3 O1 2.335489 1_555
Na3 O8 2.339167 1_555
Na3 O2 2.608441 1_555
Na4 O9 2.294480 1_555
Na4 O14 2.370533 1_555
Na4 O15 2.388712 1_555
Na4 O13 2.471286 1_455
Na5 O5 2.285247 1_555
Na5 O11 2.298613 1_554
Na5 O9 2.337839 1_555
Na5 O10 2.513918 1_555
Na6 O7 2.318199 1_556
Na6 O2 2.330709 1_565
Na6 O4 2.395070 1_555
Na6 O6 2.630996 1_465
Na7 O6 2.318199 1_554
Na7 O3 2.330709 1_545
Na7 O5 2.395070 1_555
Na7 O7 2.630996 1_645
Na8 O12 2.330740 1_555
Na8 O2 2.332236 1_565
Na8 O0 2.365712 1_555
Na8 O1 2.466584 1_565
Na9 O14 2.330740 1_555
Na9 O3 2.332236 1_545
Na9 O1 2.365712 1_555
Na9 O0 2.466584 1_545
Na10 O4 2.285247 1_555
Na10 O10 2.298613 1_556
Na10 O8 2.337839 1_555
Na10 O11 2.513918 1_555
Na11 O8 2.294480 1_555
Na11 O12 2.370533 1_555
Na11 O13 2.388712 1_555
Na11 O15 2.471286 1_655
O0 Ti0 1.851770 1_555
O1 Ti1 1.851770 1_555
O2 Ti2 1.848834 1_555
O3 Ti3 1.848834 1_555
O4 Ti0 1.845104 1_555
O5 Ti1 1.845104 1_555
O6 Ti2 1.850180 1_555
O7 Ti3 1.850180 1_555
O8 Ti2 1.850027 1_555
O9 Ti3 1.850027 1_555
O10 Ti3 1.848209 1_555
O11 Ti2 1.848209 1_555
O12 Ti0 1.849967 1_655
O13 Ti1 1.858599 1_555
O14 Ti1 1.849967 1_455
O15 Ti0 1.858599 1_555
