# generated using pymatgen
data_SmMgAu
_symmetry_space_group_name_H-M   'P 1'
_cell_length_a   7.67738753
_cell_length_b   7.67738753
_cell_length_c   4.13411326
_cell_angle_alpha   90.00000000
_cell_angle_beta   90.00000000
_cell_angle_gamma   119.99999582
_symmetry_Int_Tables_number   1
_chemical_formula_structural   SmMgAu
_chemical_formula_sum   'Sm3 Mg3 Au3'
_cell_volume   211.02793395
_cell_formula_units_Z   3
loop_
 _symmetry_equiv_pos_site_id
 _symmetry_equiv_pos_as_xyz
  1  'x, y, z'
loop_
 _atom_site_type_symbol
 _atom_site_label
 _atom_site_symmetry_multiplicity
 _atom_site_fract_x
 _atom_site_fract_y
 _atom_site_fract_z
 _atom_site_occupancy
  Sm  Sm0  1  0.58625586  0.00000000  -0.00000000  1
  Sm  Sm1  1  0.00000000  0.58625586  0.00000000  1
  Sm  Sm2  1  0.41374414  0.41374414  -0.00000000  1
  Mg  Mg0  1  0.24261581  0.00000000  0.50000000  1
  Mg  Mg1  1  0.00000000  0.24261581  0.50000000  1
  Mg  Mg2  1  0.75738419  0.75738419  0.50000000  1
  Au  Au0  1  0.33333300  0.66666700  0.50000000  1
  Au  Au1  1  0.66666700  0.33333300  0.50000000  1
  Au  Au2  1  0.00000000  -0.00000000  0.00000000  1
loop_
_geom_bond_atom_site_label_1
_geom_bond_atom_site_label_2
_geom_bond_distance
_geom_bond_site_symmetry_2
Au0 Mg0 2.969269 1_565
Au0 Mg1 2.969274 1_555
Au0 Mg2 2.969277 1_555
Au0 Sm1 3.102112 1_556
Au0 Sm1 3.102112 1_555
Au0 Sm0 3.102114 1_566
Au0 Sm0 3.102114 1_565
Au0 Sm2 3.102118 1_555
Au0 Sm2 3.102118 1_556
Au1 Mg1 2.969269 1_655
Au1 Mg0 2.969274 1_555
Au1 Mg2 2.969277 1_555
Au1 Sm0 3.102112 1_556
Au1 Sm0 3.102112 1_555
Au1 Sm1 3.102114 1_655
Au1 Sm1 3.102114 1_656
Au1 Sm2 3.102118 1_555
Au1 Sm2 3.102118 1_556
Au2 Mg1 2.782483 1_555
Au2 Mg0 2.782483 1_554
Au2 Mg1 2.782483 1_554
Au2 Mg0 2.782483 1_555
Au2 Mg2 2.782483 1_444
Au2 Mg2 2.782483 1_445
Au2 Sm0 3.176474 1_455
Au2 Sm1 3.176474 1_545
Au2 Sm2 3.176474 1_555
