# generated using pymatgen
data_Li9Mn2Co5O16
_symmetry_space_group_name_H-M   'P 1'
_cell_length_a   5.11776400
_cell_length_b   5.80130024
_cell_length_c   10.06409721
_cell_angle_alpha   105.47245004
_cell_angle_beta   99.90474946
_cell_angle_gamma   90.51925719
_symmetry_Int_Tables_number   1
_chemical_formula_structural   Li9Mn2Co5O16
_chemical_formula_sum   'Li9 Mn2 Co5 O16'
_cell_volume   283.20326737
_cell_formula_units_Z   1
loop_
 _symmetry_equiv_pos_site_id
 _symmetry_equiv_pos_as_xyz
  1  'x, y, z'
loop_
 _atom_site_type_symbol
 _atom_site_label
 _atom_site_symmetry_multiplicity
 _atom_site_fract_x
 _atom_site_fract_y
 _atom_site_fract_z
 _atom_site_occupancy
  Li  Li0  1  0.49903800  0.73514300  0.00520800  1
  Li  Li1  1  0.24730400  0.37243300  0.75571200  1
  Li  Li2  1  0.50537000  0.26355300  0.00321700  1
  Li  Li3  1  0.24296600  0.88576500  0.75135700  1
  Li  Li4  1  0.75469900  0.12159600  0.24792300  1
  Li  Li5  1  0.75419200  0.62027200  0.24761500  1
  Li  Li6  1  0.00069000  0.49606600  0.49385400  1
  Li  Li7  1  0.00039000  0.99567500  0.49515000  1
  Li  Li8  1  0.00088600  0.49121700  0.99872800  1
  Mn  Mn0  1  0.00268300  0.00061500  0.99698500  1
  Mn  Mn1  1  0.75305300  0.62750900  0.75480500  1
  Co  Co0  1  0.49617500  0.25600000  0.49828500  1
  Co  Co1  1  0.23668800  0.86237200  0.24375900  1
  Co  Co2  1  0.75134400  0.13305000  0.75363900  1
  Co  Co3  1  0.49886000  0.75791900  0.49974300  1
  Co  Co4  1  0.24279600  0.37333500  0.24246200  1
  O  O0  1  0.34796300  0.05312400  0.11371700  1
  O  O1  1  0.09431400  0.69971900  0.87398100  1
  O  O2  1  0.37893400  0.55614000  0.13676700  1
  O  O3  1  0.09613400  0.17465900  0.87437700  1
  O  O4  1  0.61581700  0.43602600  0.38561400  1
  O  O5  1  0.60251300  0.93492500  0.37787500  1
  O  O6  1  0.85354100  0.82791900  0.63779400  1
  O  O7  1  0.86170500  0.32977300  0.64168300  1
  O  O8  1  0.63332700  0.43557300  0.86150700  1
  O  O9  1  0.40545100  0.07543400  0.62605800  1
  O  O10  1  0.65360200  0.93442100  0.87070400  1
  O  O11  1  0.40280200  0.57784400  0.62821400  1
  O  O12  1  0.90235200  0.82070300  0.12358000  1
  O  O13  1  0.88839100  0.28516300  0.11648100  1
  O  O14  1  0.14200300  0.18662900  0.37062100  1
  O  O15  1  0.13401300  0.67943000  0.37258600  1
loop_
_geom_bond_atom_site_label_1
_geom_bond_atom_site_label_2
_geom_bond_distance
_geom_bond_site_symmetry_2
Li0 O2 2.052127 1_555
Li0 O0 2.105888 1_565
Li0 O8 2.146329 1_554
Li0 O12 2.178522 1_555
Li0 O10 2.231900 1_554
Li0 O1 2.232273 1_554
Li1 O8 2.055695 1_555
Li1 O7 2.081604 1_455
Li1 O3 2.091420 1_555
Li1 O9 2.124949 1_555
Li1 O1 2.185530 1_555
Li1 O11 2.202215 1_555
Li2 O2 2.051385 1_555
Li2 O13 2.075601 1_555
Li2 O0 2.095387 1_555
Li2 O8 2.127801 1_554
Li2 O10 2.239531 1_544
Li2 O3 2.241218 1_554
Li3 O3 2.035231 1_565
Li3 O1 2.070134 1_555
Li3 O6 2.095346 1_455
Li3 O9 2.139361 1_565
Li3 O11 2.142454 1_555
Li3 O10 2.208801 1_555
Li4 O13 2.021834 1_555
Li4 O12 2.089919 1_545
Li4 O14 2.119401 1_655
Li4 O5 2.140244 1_545
Li4 O4 2.183225 1_555
Li4 O0 2.246460 1_555
Li5 O2 2.024783 1_555
Li5 O15 2.096348 1_655
Li5 O12 2.137588 1_555
Li5 O4 2.165531 1_555
Li5 O5 2.179959 1_555
Li5 O13 2.227089 1_555
Li6 O15 2.013115 1_555
Li6 O4 2.057820 1_455
Li6 O14 2.104264 1_555
Li6 O7 2.183453 1_455
Li6 O11 2.229633 1_555
Li6 O6 2.299028 1_455
Li7 O14 2.088492 1_565
Li7 O15 2.112000 1_555
Li7 O5 2.145176 1_455
Li7 O6 2.162445 1_455
Li7 O9 2.228223 1_565
Li7 O7 2.301121 1_465
Li8 O13 2.035407 1_456
Li8 O3 2.043577 1_555
Li8 O1 2.067409 1_555
Li8 O8 2.099354 1_455
Li8 O12 2.107310 1_456
Li8 O2 2.144313 1_556
Mn0 O3 1.905205 1_555
Mn0 O0 1.918487 1_556
Mn0 O13 1.927090 1_456
Mn0 O1 1.964953 1_545
Mn0 O10 1.974935 1_445
Mn0 O12 1.975119 1_446
Mn1 O8 1.902739 1_555
Mn1 O1 1.913716 1_655
Mn1 O7 1.942866 1_555
Mn1 O10 1.975425 1_555
Mn1 O11 1.982010 1_555
Mn1 O6 1.982670 1_555
Co0 O4 1.900153 1_555
Co0 O9 1.970216 1_555
Co0 O14 2.001965 1_555
Co0 O5 2.067624 1_545
Co0 O11 2.086341 1_555
Co0 O7 2.119573 1_555
Co1 O12 1.890387 1_455
Co1 O15 2.010446 1_555
Co1 O2 2.029280 1_555
Co1 O0 2.068681 1_565
Co1 O5 2.077837 1_555
Co1 O14 2.086006 1_565
Co2 O3 1.935609 1_655
Co2 O7 1.945332 1_555
Co2 O8 1.962566 1_555
Co2 O9 1.967819 1_555
Co2 O10 1.970461 1_545
Co2 O6 1.972738 1_545
Co3 O5 1.930301 1_555
Co3 O11 1.983616 1_555
Co3 O15 2.045264 1_555
Co3 O6 2.051364 1_555
Co3 O9 2.052609 1_565
Co3 O4 2.068116 1_555
Co4 O2 1.893427 1_555
Co4 O13 2.001234 1_455
Co4 O14 2.016685 1_555
Co4 O15 2.050903 1_555
Co4 O0 2.095986 1_555
Co4 O4 2.148013 1_555
