# generated using pymatgen
data_Na2Al2B2O7
_symmetry_space_group_name_H-M   'P 1'
_cell_length_a   15.58990500
_cell_length_b   4.87036600
_cell_length_c   4.87529545
_cell_angle_alpha   60.11089913
_cell_angle_beta   90.00000000
_cell_angle_gamma   90.00000000
_symmetry_Int_Tables_number   1
_chemical_formula_structural   Na2Al2B2O7
_chemical_formula_sum   'Na4 Al4 B4 O14'
_cell_volume   320.93780377
_cell_formula_units_Z   2
loop_
 _symmetry_equiv_pos_site_id
 _symmetry_equiv_pos_as_xyz
  1  'x, y, z'
loop_
 _atom_site_type_symbol
 _atom_site_label
 _atom_site_symmetry_multiplicity
 _atom_site_fract_x
 _atom_site_fract_y
 _atom_site_fract_z
 _atom_site_occupancy
  Na  Na0  1  0.50000000  0.00000000  0.00000000  1
  Na  Na1  1  0.00000000  0.00000000  0.00000000  1
  Na  Na2  1  0.75000000  0.00570300  0.00529300  1
  Na  Na3  1  0.25000000  0.99429700  0.99470700  1
  Al  Al0  1  0.13892200  0.34175700  0.32942700  1
  Al  Al1  1  0.63892200  0.65824300  0.67057300  1
  Al  Al2  1  0.86107800  0.65824300  0.67057300  1
  Al  Al3  1  0.36107800  0.34175700  0.32942700  1
  B  B0  1  0.60484100  0.33130900  0.33364200  1
  B  B1  1  0.10484100  0.66869100  0.66635800  1
  B  B2  1  0.39515900  0.66869100  0.66635800  1
  B  B3  1  0.89515900  0.33130900  0.33364200  1
  O  O0  1  0.75000000  0.63164000  0.68281200  1
  O  O1  1  0.25000000  0.36836000  0.31718800  1
  O  O2  1  0.39969900  0.64667400  0.39471000  1
  O  O3  1  0.39706300  0.39661400  0.96046600  1
  O  O4  1  0.38978800  0.96253200  0.64554200  1
  O  O5  1  0.89969900  0.35332600  0.60529000  1
  O  O6  1  0.89706300  0.60338600  0.03953400  1
  O  O7  1  0.88978800  0.03746800  0.35445800  1
  O  O8  1  0.60030100  0.35332600  0.60529000  1
  O  O9  1  0.60293700  0.60338600  0.03953400  1
  O  O10  1  0.61021200  0.03746800  0.35445800  1
  O  O11  1  0.10030100  0.64667400  0.39471000  1
  O  O12  1  0.10293700  0.39661400  0.96046600  1
  O  O13  1  0.11021200  0.96253200  0.64554200  1
loop_
_geom_bond_atom_site_label_1
_geom_bond_atom_site_label_2
_geom_bond_distance
_geom_bond_site_symmetry_2
Na0 O8 2.410199 1_554
Na0 O2 2.410199 1_545
Na0 O9 2.443910 1_545
Na0 O3 2.443910 1_554
Na0 O10 2.507203 1_555
Na0 O4 2.507203 1_544
Na1 O5 2.410199 1_454
Na1 O11 2.410199 1_545
Na1 O6 2.443910 1_445
Na1 O12 2.443910 1_554
Na1 O7 2.507203 1_455
Na1 O13 2.507203 1_544
Na2 O0 2.643592 1_554
Na2 O10 2.816636 1_555
Na2 O7 2.816636 1_555
Na2 O0 2.869156 1_545
Na2 O0 2.940318 1_544
Na2 O9 2.966092 1_545
Na2 O6 2.966092 1_545
Na2 O8 2.970763 1_554
Na2 O5 2.970763 1_554
Na3 O1 2.643592 1_556
Na3 O4 2.816636 1_555
Na3 O13 2.816636 1_555
Na3 O1 2.869156 1_565
Na3 O1 2.940318 1_566
Na3 O12 2.966092 1_565
Na3 O3 2.966092 1_565
Na3 O11 2.970763 1_556
Na3 O2 2.970763 1_556
Al0 O1 1.735342 1_555
Al0 O11 1.772085 1_555
Al0 O12 1.772791 1_554
Al0 O13 1.774784 1_545
Al1 O0 1.735342 1_555
Al1 O8 1.772085 1_555
Al1 O9 1.772791 1_556
Al1 O10 1.774784 1_565
Al2 O0 1.735342 1_555
Al2 O5 1.772085 1_555
Al2 O6 1.772791 1_556
Al2 O7 1.774784 1_565
Al3 O1 1.735342 1_555
Al3 O2 1.772085 1_555
Al3 O3 1.772791 1_554
Al3 O4 1.774784 1_545
B0 O8 1.382745 1_555
B0 O9 1.385321 1_555
B0 O10 1.385874 1_555
B1 O11 1.382745 1_555
B1 O12 1.385321 1_555
B1 O13 1.385874 1_555
B2 O2 1.382745 1_555
B2 O3 1.385321 1_555
B2 O4 1.385874 1_555
B3 O5 1.382745 1_555
B3 O6 1.385321 1_555
B3 O7 1.385874 1_555
