# generated using pymatgen
data_Be3B3P6N3O25
_symmetry_space_group_name_H-M   'P 1'
_cell_length_a   12.75333040
_cell_length_b   12.75333040
_cell_length_c   12.75333040
_cell_angle_alpha   90.00000000
_cell_angle_beta   90.00000000
_cell_angle_gamma   90.00000000
_symmetry_Int_Tables_number   1
_chemical_formula_structural   Be3B3P6N3O25
_chemical_formula_sum   'Be12 B12 P24 N12 O100'
_cell_volume   2074.29649374
_cell_formula_units_Z   4
loop_
 _symmetry_equiv_pos_site_id
 _symmetry_equiv_pos_as_xyz
  1  'x, y, z'
loop_
 _atom_site_type_symbol
 _atom_site_label
 _atom_site_symmetry_multiplicity
 _atom_site_fract_x
 _atom_site_fract_y
 _atom_site_fract_z
 _atom_site_occupancy
  Be  Be0  1  0.18210583  0.56815994  0.37482773  1
  Be  Be1  1  0.31789417  0.43184006  0.87482773  1
  Be  Be2  1  0.81789417  0.06815994  0.12517227  1
  Be  Be3  1  0.37482773  0.18210583  0.56815994  1
  Be  Be4  1  0.68210583  0.93184006  0.62517227  1
  Be  Be5  1  0.87482773  0.31789417  0.43184006  1
  Be  Be6  1  0.12517227  0.81789417  0.06815994  1
  Be  Be7  1  0.62517227  0.68210583  0.93184006  1
  Be  Be8  1  0.56815994  0.37482773  0.18210583  1
  Be  Be9  1  0.06815994  0.12517227  0.81789417  1
  Be  Be10  1  0.93184006  0.62517227  0.68210583  1
  Be  Be11  1  0.43184006  0.87482773  0.31789417  1
  B  B0  1  0.12488729  0.14003070  0.38980805  1
  B  B1  1  0.37511271  0.85996930  0.88980805  1
  B  B2  1  0.87511271  0.64003070  0.11019195  1
  B  B3  1  0.38980805  0.12488729  0.14003070  1
  B  B4  1  0.62488729  0.35996930  0.61019195  1
  B  B5  1  0.88980805  0.37511271  0.85996930  1
  B  B6  1  0.11019195  0.87511271  0.64003070  1
  B  B7  1  0.61019195  0.62488729  0.35996930  1
  B  B8  1  0.14003070  0.38980805  0.12488729  1
  B  B9  1  0.64003070  0.11019195  0.87511271  1
  B  B10  1  0.35996930  0.61019195  0.62488729  1
  B  B11  1  0.85996930  0.88980805  0.37511271  1
  P  P0  1  0.08968944  0.35572511  0.33749854  1
  P  P1  1  0.41031056  0.64427489  0.83749854  1
  P  P2  1  0.91031056  0.85572511  0.16250146  1
  P  P3  1  0.33749854  0.08968944  0.35572511  1
  P  P4  1  0.58968944  0.14427489  0.66250146  1
  P  P5  1  0.83749854  0.41031056  0.64427489  1
  P  P6  1  0.16250146  0.91031056  0.85572511  1
  P  P7  1  0.66250146  0.58968944  0.14427489  1
  P  P8  1  0.35572511  0.33749854  0.08968944  1
  P  P9  1  0.85572511  0.16250146  0.91031056  1
  P  P10  1  0.14427489  0.66250146  0.58968944  1
  P  P11  1  0.64427489  0.83749854  0.41031056  1
  P  P12  1  0.08770210  0.60574680  0.16003922  1
  P  P13  1  0.41229790  0.39425320  0.66003922  1
  P  P14  1  0.91229790  0.10574680  0.33996078  1
  P  P15  1  0.16003922  0.08770210  0.60574680  1
  P  P16  1  0.58770210  0.89425320  0.83996078  1
  P  P17  1  0.66003922  0.41229790  0.39425320  1
  P  P18  1  0.33996078  0.91229790  0.10574680  1
  P  P19  1  0.83996078  0.58770210  0.89425320  1
  P  P20  1  0.60574680  0.16003922  0.08770210  1
  P  P21  1  0.10574680  0.33996078  0.91229790  1
  P  P22  1  0.89425320  0.83996078  0.58770210  1
  P  P23  1  0.39425320  0.66003922  0.41229790  1
  N  N0  1  0.37523380  0.37523380  0.37523380  1
  N  N1  1  0.12476620  0.62476620  0.87523380  1
  N  N2  1  0.62476620  0.87523380  0.12476620  1
  N  N3  1  0.87523380  0.12476620  0.62476620  1
  N  N4  1  0.64998354  0.64998354  0.64998354  1
  N  N5  1  0.85001646  0.35001646  0.14998354  1
  N  N6  1  0.35001646  0.14998354  0.85001646  1
  N  N7  1  0.14998354  0.85001646  0.35001646  1
  N  N8  1  0.09959545  0.09959545  0.09959545  1
  N  N9  1  0.40040455  0.90040455  0.59959545  1
  N  N10  1  0.90040455  0.59959545  0.40040455  1
  N  N11  1  0.59959545  0.40040455  0.90040455  1
  O  O0  1  0.08662256  0.12342014  0.69274738  1
  O  O1  1  0.41337744  0.87657986  0.19274738  1
  O  O2  1  0.91337744  0.62342014  0.80725262  1
  O  O3  1  0.69274738  0.08662256  0.12342014  1
  O  O4  1  0.58662256  0.37657986  0.30725262  1
  O  O5  1  0.19274738  0.41337744  0.87657986  1
  O  O6  1  0.80725262  0.91337744  0.62342014  1
  O  O7  1  0.30725262  0.58662256  0.37657986  1
  O  O8  1  0.12342014  0.69274738  0.08662256  1
  O  O9  1  0.62342014  0.80725262  0.91337744  1
  O  O10  1  0.37657986  0.30725262  0.58662256  1
  O  O11  1  0.87657986  0.19274738  0.41337744  1
  O  O12  1  0.13190157  0.61838397  0.26975941  1
  O  O13  1  0.36809843  0.38161603  0.76975941  1
  O  O14  1  0.86809843  0.11838397  0.23024059  1
  O  O15  1  0.26975941  0.13190157  0.61838397  1
  O  O16  1  0.63190157  0.88161603  0.73024059  1
  O  O17  1  0.76975941  0.36809843  0.38161603  1
  O  O18  1  0.23024059  0.86809843  0.11838397  1
  O  O19  1  0.73024059  0.63190157  0.88161603  1
  O  O20  1  0.61838397  0.26975941  0.13190157  1
  O  O21  1  0.11838397  0.23024059  0.86809843  1
  O  O22  1  0.88161603  0.73024059  0.63190157  1
  O  O23  1  0.38161603  0.76975941  0.36809843  1
  O  O24  1  0.16198207  0.44338910  0.37327610  1
  O  O25  1  0.33801793  0.55661090  0.87327610  1
  O  O26  1  0.83801793  0.94338910  0.12672390  1
  O  O27  1  0.37327610  0.16198207  0.44338910  1
  O  O28  1  0.66198207  0.05661090  0.62672390  1
  O  O29  1  0.87327610  0.33801793  0.55661090  1
  O  O30  1  0.12672390  0.83801793  0.94338910  1
  O  O31  1  0.62672390  0.66198207  0.05661090  1
  O  O32  1  0.44338910  0.37327610  0.16198207  1
  O  O33  1  0.94338910  0.12672390  0.83801793  1
  O  O34  1  0.05661090  0.62672390  0.66198207  1
  O  O35  1  0.55661090  0.87327610  0.33801793  1
  O  O36  1  0.03441930  0.10194512  0.32977212  1
  O  O37  1  0.46558070  0.89805488  0.82977212  1
  O  O38  1  0.96558070  0.60194512  0.17022788  1
  O  O39  1  0.32977212  0.03441930  0.10194512  1
  O  O40  1  0.53441930  0.39805488  0.67022788  1
  O  O41  1  0.82977212  0.46558070  0.89805488  1
  O  O42  1  0.17022788  0.96558070  0.60194512  1
  O  O43  1  0.67022788  0.53441930  0.39805488  1
  O  O44  1  0.10194512  0.32977212  0.03441930  1
  O  O45  1  0.60194512  0.17022788  0.96558070  1
  O  O46  1  0.39805488  0.67022788  0.53441930  1
  O  O47  1  0.89805488  0.82977212  0.46558070  1
  O  O48  1  0.14386924  0.25269606  0.37374712  1
  O  O49  1  0.35613076  0.74730394  0.87374712  1
  O  O50  1  0.85613076  0.75269606  0.12625288  1
  O  O51  1  0.37374712  0.14386924  0.25269606  1
  O  O52  1  0.64386924  0.24730394  0.62625288  1
  O  O53  1  0.87374712  0.35613076  0.74730394  1
  O  O54  1  0.12625288  0.85613076  0.75269606  1
  O  O55  1  0.62625288  0.64386924  0.24730394  1
  O  O56  1  0.25269606  0.37374712  0.14386924  1
  O  O57  1  0.75269606  0.12625288  0.85613076  1
  O  O58  1  0.24730394  0.62625288  0.64386924  1
  O  O59  1  0.74730394  0.87374712  0.35613076  1
  O  O60  1  0.87359311  0.87359311  0.87359311  1
  O  O61  1  0.62640689  0.12640689  0.37359311  1
  O  O62  1  0.12640689  0.37359311  0.62640689  1
  O  O63  1  0.37359311  0.62640689  0.12640689  1
  O  O64  1  0.13230698  0.61944013  0.47950581  1
  O  O65  1  0.36769302  0.38055987  0.97950581  1
  O  O66  1  0.86769302  0.11944013  0.02049419  1
  O  O67  1  0.47950581  0.13230698  0.61944013  1
  O  O68  1  0.63230698  0.88055987  0.52049419  1
  O  O69  1  0.97950581  0.36769302  0.38055987  1
  O  O70  1  0.02049419  0.86769302  0.11944013  1
  O  O71  1  0.52049419  0.63230698  0.88055987  1
  O  O72  1  0.61944013  0.47950581  0.13230698  1
  O  O73  1  0.11944013  0.02049419  0.86769302  1
  O  O74  1  0.88055987  0.52049419  0.63230698  1
  O  O75  1  0.38055987  0.97950581  0.36769302  1
  O  O76  1  0.08050155  0.35072939  0.21543647  1
  O  O77  1  0.41949845  0.64927061  0.71543647  1
  O  O78  1  0.91949845  0.85072939  0.28456353  1
  O  O79  1  0.21543647  0.08050155  0.35072939  1
  O  O80  1  0.58050155  0.14927061  0.78456353  1
  O  O81  1  0.71543647  0.41949845  0.64927061  1
  O  O82  1  0.28456353  0.91949845  0.85072939  1
  O  O83  1  0.78456353  0.58050155  0.14927061  1
  O  O84  1  0.35072939  0.21543647  0.08050155  1
  O  O85  1  0.85072939  0.28456353  0.91949845  1
  O  O86  1  0.14927061  0.78456353  0.58050155  1
  O  O87  1  0.64927061  0.71543647  0.41949845  1
  O  O88  1  0.10613389  0.12257614  0.50215059  1
  O  O89  1  0.39386611  0.87742386  0.00215059  1
  O  O90  1  0.89386611  0.62257614  0.99784941  1
  O  O91  1  0.50215059  0.10613389  0.12257614  1
  O  O92  1  0.60613389  0.37742386  0.49784941  1
  O  O93  1  0.00215059  0.39386611  0.87742386  1
  O  O94  1  0.99784941  0.89386611  0.62257614  1
  O  O95  1  0.49784941  0.60613389  0.37742386  1
  O  O96  1  0.12257614  0.50215059  0.10613389  1
  O  O97  1  0.62257614  0.99784941  0.89386611  1
  O  O98  1  0.37742386  0.49784941  0.60613389  1
  O  O99  1  0.87742386  0.00215059  0.39386611  1
loop_
_geom_bond_atom_site_label_1
_geom_bond_atom_site_label_2
_geom_bond_distance
_geom_bond_site_symmetry_2
Be0 O24 1.611929 1_555
Be0 O7 1.613468 1_555
Be0 O64 1.616561 1_555
Be0 O12 1.617325 1_555
Be1 O25 1.611929 1_555
Be1 O5 1.613468 1_555
Be1 O65 1.616561 1_555
Be1 O13 1.617325 1_555
Be2 O26 1.611929 1_545
Be2 O3 1.613468 1_555
Be2 O66 1.616561 1_555
Be2 O14 1.617325 1_555
Be3 O27 1.611929 1_555
Be3 O10 1.613468 1_555
Be3 O67 1.616561 1_555
Be3 O15 1.617325 1_555
Be4 O28 1.611929 1_565
Be4 O6 1.613468 1_555
Be4 O68 1.616561 1_555
Be4 O16 1.617325 1_555
Be5 O29 1.611929 1_555
Be5 O11 1.613468 1_555
Be5 O69 1.616561 1_555
Be5 O17 1.617325 1_555
Be6 O30 1.611929 1_554
Be6 O8 1.613468 1_555
Be6 O70 1.616561 1_555
Be6 O18 1.617325 1_555
Be7 O31 1.611929 1_556
Be7 O9 1.613468 1_555
Be7 O71 1.616561 1_555
Be7 O19 1.617325 1_555
Be8 O32 1.611929 1_555
Be8 O4 1.613468 1_555
Be8 O72 1.616561 1_555
Be8 O20 1.617325 1_555
Be9 O33 1.611929 1_455
Be9 O0 1.613468 1_555
Be9 O73 1.616561 1_555
Be9 O21 1.617325 1_555
Be10 O34 1.611929 1_655
Be10 O2 1.613468 1_555
Be10 O74 1.616561 1_555
Be10 O22 1.617325 1_555
Be11 O35 1.611929 1_555
Be11 O1 1.613468 1_555
Be11 O75 1.616561 1_555
Be11 O23 1.617325 1_555
B0 O36 1.467425 1_555
B0 O79 1.469127 1_555
B0 O88 1.469524 1_555
B0 O48 1.471435 1_555
B1 O37 1.467425 1_555
B1 O82 1.469127 1_555
B1 O89 1.469524 1_556
B1 O49 1.471435 1_555
B2 O38 1.467425 1_555
B2 O83 1.469127 1_555
B2 O90 1.469524 1_554
B2 O50 1.471435 1_555
B3 O39 1.467425 1_555
B3 O84 1.469127 1_555
B3 O91 1.469524 1_555
B3 O51 1.471435 1_555
B4 O40 1.467425 1_555
B4 O81 1.469127 1_555
B4 O92 1.469524 1_555
B4 O52 1.471435 1_555
B5 O41 1.467425 1_555
B5 O85 1.469127 1_555
B5 O93 1.469524 1_655
B5 O53 1.471435 1_555
B6 O42 1.467425 1_555
B6 O86 1.469127 1_555
B6 O94 1.469524 1_455
B6 O54 1.471435 1_555
B7 O43 1.467425 1_555
B7 O87 1.469127 1_555
B7 O95 1.469524 1_555
B7 O55 1.471435 1_555
B8 O44 1.467425 1_555
B8 O76 1.469127 1_555
B8 O96 1.469524 1_555
B8 O56 1.471435 1_555
B9 O45 1.467425 1_555
B9 O80 1.469127 1_555
B9 O97 1.469524 1_545
B9 O57 1.471435 1_555
B10 O46 1.467425 1_555
B10 O77 1.469127 1_555
B10 O98 1.469524 1_555
B10 O58 1.471435 1_555
B11 O47 1.467425 1_555
B11 O78 1.469127 1_555
B11 O99 1.469524 1_565
B11 O59 1.471435 1_555
O0 P15 1.521600 1_555
O1 P18 1.521600 1_555
O2 P19 1.521600 1_555
O3 P20 1.521600 1_555
O4 P17 1.521600 1_555
O5 P21 1.521600 1_555
O6 P22 1.521600 1_555
O7 P23 1.521600 1_555
O8 P12 1.521600 1_555
O9 P16 1.521600 1_555
O10 P13 1.521600 1_555
O11 P14 1.521600 1_555
O12 P12 1.517154 1_555
O13 P13 1.517154 1_555
O14 P14 1.517154 1_555
O15 P15 1.517154 1_555
O16 P16 1.517154 1_555
O17 P17 1.517154 1_555
O18 P18 1.517154 1_555
O19 P19 1.517154 1_555
O20 P20 1.517154 1_555
O21 P21 1.517154 1_555
O22 P22 1.517154 1_555
O23 P23 1.517154 1_555
O24 P0 1.519266 1_555
O25 P1 1.519266 1_555
O26 P2 1.519266 1_555
O27 P3 1.519266 1_555
O28 P4 1.519266 1_555
O29 P5 1.519266 1_555
O30 P6 1.519266 1_555
O31 P7 1.519266 1_555
O32 P8 1.519266 1_555
O33 P9 1.519266 1_555
O34 P10 1.519266 1_555
O35 P11 1.519266 1_555
O36 P14 1.563617 1_455
O37 P16 1.563617 1_555
O38 P12 1.563617 1_655
O39 P18 1.563617 1_545
O40 P13 1.563617 1_555
O41 P19 1.563617 1_555
O42 P15 1.563617 1_565
O43 P17 1.563617 1_555
O44 P21 1.563617 1_554
O45 P20 1.563617 1_556
O46 P23 1.563617 1_555
O47 P22 1.563617 1_555
O48 P0 1.554881 1_555
O49 P1 1.554881 1_555
O50 P2 1.554881 1_555
O51 P3 1.554881 1_555
O52 P4 1.554881 1_555
O53 P5 1.554881 1_555
O54 P6 1.554881 1_555
O55 P7 1.554881 1_555
O56 P8 1.554881 1_555
O57 P9 1.554881 1_555
O58 P10 1.554881 1_555
O59 P11 1.554881 1_555
O64 P10 1.516410 1_555
O65 P8 1.516410 1_556
O66 P9 1.516410 1_554
O67 P4 1.516410 1_555
O68 P11 1.516410 1_555
O69 P0 1.516410 1_655
O70 P2 1.516410 1_455
O71 P1 1.516410 1_555
O72 P7 1.516410 1_555
O73 P6 1.516410 1_545
O74 P5 1.516410 1_555
O75 P3 1.516410 1_565
O76 P0 1.562401 1_555
O77 P1 1.562401 1_555
O78 P2 1.562401 1_555
O79 P3 1.562401 1_555
O80 P4 1.562401 1_555
O81 P5 1.562401 1_555
O82 P6 1.562401 1_555
O83 P7 1.562401 1_555
O84 P8 1.562401 1_555
O85 P9 1.562401 1_555
O86 P10 1.562401 1_555
O87 P11 1.562401 1_555
O88 P15 1.554346 1_555
O89 P18 1.554346 1_555
O90 P19 1.554346 1_555
O91 P20 1.554346 1_555
O92 P17 1.554346 1_555
O93 P21 1.554346 1_555
O94 P22 1.554346 1_555
O95 P23 1.554346 1_555
O96 P12 1.554346 1_555
O97 P16 1.554346 1_555
O98 P13 1.554346 1_555
O99 P14 1.554346 1_555
