# generated using pymatgen
data_Yb4(GeO5)3
_symmetry_space_group_name_H-M   'P 1'
_cell_length_a   9.61142259
_cell_length_b   9.61142259
_cell_length_c   6.95395000
_cell_angle_alpha   90.00000000
_cell_angle_beta   90.00000000
_cell_angle_gamma   109.65240868
_symmetry_Int_Tables_number   1
_chemical_formula_structural   Yb4(GeO5)3
_chemical_formula_sum   'Yb8 Ge6 O30'
_cell_volume   604.98225915
_cell_formula_units_Z   2
loop_
 _symmetry_equiv_pos_site_id
 _symmetry_equiv_pos_as_xyz
  1  'x, y, z'
loop_
 _atom_site_type_symbol
 _atom_site_label
 _atom_site_symmetry_multiplicity
 _atom_site_fract_x
 _atom_site_fract_y
 _atom_site_fract_z
 _atom_site_occupancy
  Yb  Yb0  1  0.06866200  0.32793400  0.25000000  1
  Yb  Yb1  1  0.93133800  0.67206600  0.75000000  1
  Yb  Yb2  1  0.32793400  0.06866200  0.25000000  1
  Yb  Yb3  1  0.67206600  0.93133800  0.75000000  1
  Yb  Yb4  1  0.73511700  0.41714700  0.25000000  1
  Yb  Yb5  1  0.26488300  0.58285300  0.75000000  1
  Yb  Yb6  1  0.41714700  0.73511700  0.25000000  1
  Yb  Yb7  1  0.58285300  0.26488300  0.75000000  1
  Ge  Ge0  1  0.04939700  0.73599600  0.25000000  1
  Ge  Ge1  1  0.95060300  0.26400400  0.75000000  1
  Ge  Ge2  1  0.73599600  0.04939700  0.25000000  1
  Ge  Ge3  1  0.26400400  0.95060300  0.75000000  1
  Ge  Ge4  1  0.00000000  0.00000000  0.00000000  1
  Ge  Ge5  1  0.00000000  0.00000000  0.50000000  1
  O  O0  1  0.99075900  0.54150100  0.25000000  1
  O  O1  1  0.00924100  0.45849900  0.75000000  1
  O  O2  1  0.54150100  0.99075900  0.25000000  1
  O  O3  1  0.45849900  0.00924100  0.75000000  1
  O  O4  1  0.96418500  0.79183600  0.04797700  1
  O  O5  1  0.03581500  0.20816400  0.95202300  1
  O  O6  1  0.03581500  0.20816400  0.54797700  1
  O  O7  1  0.79183600  0.96418500  0.45202300  1
  O  O8  1  0.96418500  0.79183600  0.45202300  1
  O  O9  1  0.20816400  0.03581500  0.54797700  1
  O  O10  1  0.20816400  0.03581500  0.95202300  1
  O  O11  1  0.79183600  0.96418500  0.04797700  1
  O  O12  1  0.06671700  0.06671700  0.25000000  1
  O  O13  1  0.93328300  0.93328300  0.75000000  1
  O  O14  1  0.40611000  0.40611000  0.25000000  1
  O  O15  1  0.59389000  0.59389000  0.75000000  1
  O  O16  1  0.24003900  0.53109000  0.09439600  1
  O  O17  1  0.75996100  0.46891000  0.90560400  1
  O  O18  1  0.75996100  0.46891000  0.59439600  1
  O  O19  1  0.53109000  0.24003900  0.40560400  1
  O  O20  1  0.24003900  0.53109000  0.40560400  1
  O  O21  1  0.46891000  0.75996100  0.59439600  1
  O  O22  1  0.46891000  0.75996100  0.90560400  1
  O  O23  1  0.53109000  0.24003900  0.09439600  1
  O  O24  1  0.52121800  0.52121800  0.25000000  1
  O  O25  1  0.47878200  0.47878200  0.75000000  1
  O  O26  1  0.82222300  0.23906600  0.25000000  1
  O  O27  1  0.17777700  0.76093400  0.75000000  1
  O  O28  1  0.23906600  0.82222300  0.25000000  1
  O  O29  1  0.76093400  0.17777700  0.75000000  1
loop_
_geom_bond_atom_site_label_1
_geom_bond_atom_site_label_2
_geom_bond_distance
_geom_bond_site_symmetry_2
Ge0 O28 1.730294 1_555
Ge0 O0 1.761686 1_455
Ge0 O8 1.796695 1_455
Ge0 O4 1.796695 1_455
Ge1 O29 1.730294 1_555
Ge1 O1 1.761686 1_655
Ge1 O5 1.796695 1_655
Ge1 O6 1.796695 1_655
Ge2 O26 1.730294 1_555
Ge2 O2 1.761686 1_545
Ge2 O7 1.796695 1_545
Ge2 O11 1.796695 1_545
Ge3 O27 1.730294 1_555
Ge3 O3 1.761686 1_565
Ge3 O10 1.796695 1_565
Ge3 O9 1.796695 1_565
Ge4 O12 1.888954 1_555
Ge4 O13 1.888954 1_444
Ge4 O5 1.941535 1_554
Ge4 O10 1.941535 1_554
Ge4 O4 1.941535 1_445
Ge4 O11 1.941535 1_445
Ge5 O12 1.888954 1_555
Ge5 O13 1.888954 1_445
Ge5 O9 1.941535 1_555
Ge5 O6 1.941535 1_555
Ge5 O7 1.941535 1_445
Ge5 O8 1.941535 1_445
O0 Yb4 2.343175 1_555
O0 Yb0 2.409968 1_655
O1 Yb5 2.343175 1_555
O1 Yb1 2.409968 1_455
O2 Yb6 2.343175 1_555
O2 Yb2 2.409968 1_565
O3 Yb7 2.343175 1_555
O3 Yb3 2.409968 1_545
O4 Yb1 2.339670 1_554
O5 Yb0 2.339670 1_556
O6 Yb0 2.339670 1_555
O7 Yb3 2.339670 1_555
O8 Yb1 2.339670 1_555
O9 Yb2 2.339670 1_555
O10 Yb2 2.339670 1_556
O11 Yb3 2.339670 1_554
O12 Yb2 2.504442 1_555
O12 Yb0 2.504442 1_555
O13 Yb1 2.504442 1_555
O13 Yb3 2.504442 1_555
O14 O24 1.274647 1_555
O15 O25 1.274647 1_555
O16 Yb0 2.352317 1_555
O16 Yb6 2.380908 1_555
O16 Yb5 2.441360 1_554
O17 Yb1 2.352317 1_555
O17 Yb7 2.380908 1_555
O17 Yb4 2.441360 1_556
O18 Yb1 2.352317 1_555
O18 Yb7 2.380908 1_555
O18 Yb4 2.441360 1_555
O19 Yb2 2.352317 1_555
O19 Yb4 2.380908 1_555
O19 Yb7 2.441360 1_555
O20 Yb0 2.352317 1_555
O20 Yb6 2.380908 1_555
O20 Yb5 2.441360 1_555
O21 Yb3 2.352317 1_555
O21 Yb5 2.380908 1_555
O21 Yb6 2.441360 1_555
O22 Yb3 2.352317 1_555
O22 Yb5 2.380908 1_555
O22 Yb6 2.441360 1_556
O23 Yb2 2.352317 1_555
O23 Yb4 2.380908 1_555
O23 Yb7 2.441360 1_554
O24 Yb4 2.571063 1_555
O24 Yb6 2.571063 1_555
O25 Yb5 2.571063 1_555
O25 Yb7 2.571063 1_555
O26 Yb4 2.143456 1_555
O26 Yb0 2.231399 1_655
O27 Yb5 2.143456 1_555
O27 Yb1 2.231399 1_455
O28 Yb6 2.143456 1_555
O28 Yb2 2.231399 1_565
O29 Yb7 2.143456 1_555
O29 Yb3 2.231399 1_545
