# generated using pymatgen
data_ErMnAl
_symmetry_space_group_name_H-M   'P 1'
_cell_length_a   5.40989591
_cell_length_b   5.40989591
_cell_length_c   5.40989591
_cell_angle_alpha   119.56493918
_cell_angle_beta   118.96508135
_cell_angle_gamma   91.27859244
_symmetry_Int_Tables_number   1
_chemical_formula_structural   ErMnAl
_chemical_formula_sum   'Er2 Mn2 Al2'
_cell_volume   113.16662483
_cell_formula_units_Z   2
loop_
 _symmetry_equiv_pos_site_id
 _symmetry_equiv_pos_as_xyz
  1  'x, y, z'
loop_
 _atom_site_type_symbol
 _atom_site_label
 _atom_site_symmetry_multiplicity
 _atom_site_fract_x
 _atom_site_fract_y
 _atom_site_fract_z
 _atom_site_occupancy
  Er  Er0  1  0.13031200  0.88031200  0.25000000  1
  Er  Er1  1  0.86968800  0.11968800  0.75000000  1
  Mn  Mn0  1  0.50000000  0.00000000  0.00000000  1
  Mn  Mn1  1  0.50000000  0.50000000  0.50000000  1
  Al  Al0  1  0.00000000  0.50000000  0.50000000  1
  Al  Al1  1  0.50000000  0.50000000  0.00000000  1
loop_
_geom_bond_atom_site_label_1
_geom_bond_atom_site_label_2
_geom_bond_distance
_geom_bond_site_symmetry_2
Er0 Mn0 3.110398 1_565
Er0 Mn1 3.110398 1_565
Er0 Mn1 3.220548 1_454
Er0 Mn1 3.220548 1_555
Er0 Mn0 3.220548 1_465
Er0 Mn0 3.220548 1_566
Er0 Er1 3.290294 1_565
Er0 Er1 3.290294 1_464
Er0 Er1 3.361603 1_454
Er0 Er1 3.361603 1_465
Er1 Mn0 3.110398 1_556
Er1 Mn1 3.110398 1_545
Er1 Mn0 3.220548 1_656
Er1 Mn0 3.220548 1_555
Er1 Mn1 3.220548 1_656
Er1 Mn1 3.220548 1_555
Mn0 Mn1 2.722716 1_544
Mn0 Mn1 2.722716 1_555
Al0 Mn0 2.704948 1_455
Al0 Mn1 2.704948 1_455
Al0 Mn0 2.704948 1_566
Al0 Mn1 2.704948 1_555
Al0 Al1 2.747150 1_556
Al0 Al1 2.747150 1_455
Al0 Er1 3.181146 1_465
Al0 Er1 3.181146 1_454
Al0 Er0 3.181146 1_545
Al0 Er0 3.181146 1_556
Al0 Er1 3.188100 1_455
Al0 Er0 3.188100 1_555
Al1 Mn1 2.704948 1_554
Al1 Mn0 2.704948 1_555
Al1 Mn1 2.704948 1_555
Al1 Mn0 2.704948 1_565
Al1 Er1 3.181146 1_554
Al1 Er0 3.181146 1_544
Al1 Er0 3.181146 1_555
Al1 Er1 3.181146 1_565
Al1 Er0 3.188100 1_655
Al1 Er1 3.188100 1_454
