# generated using pymatgen
data_PrCu2
_symmetry_space_group_name_H-M   'P 1'
_cell_length_a   4.31107816
_cell_length_b   5.62356106
_cell_length_c   5.62356106
_cell_angle_alpha   80.57232982
_cell_angle_beta   67.46143576
_cell_angle_gamma   67.46143576
_symmetry_Int_Tables_number   1
_chemical_formula_structural   PrCu2
_chemical_formula_sum   'Pr2 Cu4'
_cell_volume   116.28186733
_cell_formula_units_Z   2
loop_
 _symmetry_equiv_pos_site_id
 _symmetry_equiv_pos_as_xyz
  1  'x, y, z'
loop_
 _atom_site_type_symbol
 _atom_site_label
 _atom_site_symmetry_multiplicity
 _atom_site_fract_x
 _atom_site_fract_y
 _atom_site_fract_z
 _atom_site_occupancy
  Pr  Pr0  1  0.53197425  0.71802575  0.21802575  1
  Pr  Pr1  1  0.46802575  0.28197425  0.78197425  1
  Cu  Cu0  1  0.16595971  0.29069041  0.37738818  1
  Cu  Cu1  1  0.83404029  0.70930959  0.62261182  1
  Cu  Cu2  1  0.83404029  0.12261182  0.20930959  1
  Cu  Cu3  1  0.16595971  0.87738818  0.79069041  1
loop_
_geom_bond_atom_site_label_1
_geom_bond_atom_site_label_2
_geom_bond_distance
_geom_bond_site_symmetry_2
Cu0 Cu2 2.490132 1_455
Cu0 Cu2 2.490146 1_555
Cu0 Cu1 2.541576 1_455
Cu0 Cu3 3.005721 1_545
Cu0 Pr1 3.010092 1_455
Cu0 Pr1 3.010099 1_555
Cu0 Pr1 3.093833 1_554
Cu0 Pr0 3.103208 1_545
Cu0 Pr0 3.191455 1_455
Cu0 Pr0 3.191461 1_555
Cu1 Cu3 2.490132 1_655
Cu1 Cu3 2.490146 1_555
Cu1 Cu2 3.005721 1_565
Cu1 Pr0 3.010092 1_655
Cu1 Pr0 3.010099 1_555
Cu1 Pr0 3.093833 1_556
Cu1 Pr1 3.103208 1_565
Cu1 Pr1 3.191455 1_655
Cu1 Pr1 3.191461 1_555
Cu2 Cu3 2.541576 1_644
Cu2 Pr0 3.010092 1_645
Cu2 Pr0 3.010099 1_545
Cu2 Pr0 3.093833 1_555
Cu2 Pr1 3.103208 1_555
Cu2 Pr1 3.191455 1_654
Cu2 Pr1 3.191461 1_554
Cu3 Pr1 3.010092 1_465
Cu3 Pr1 3.010099 1_565
Cu3 Pr1 3.093833 1_555
Cu3 Pr0 3.103208 1_555
Cu3 Pr0 3.191455 1_456
Cu3 Pr0 3.191461 1_556
