# generated using pymatgen
data_GaCuBr4
_symmetry_space_group_name_H-M   'P 1'
_cell_length_a   5.78484907
_cell_length_b   5.78484907
_cell_length_c   10.62877968
_cell_angle_alpha   90.00000000
_cell_angle_beta   90.00000000
_cell_angle_gamma   90.00000000
_symmetry_Int_Tables_number   1
_chemical_formula_structural   GaCuBr4
_chemical_formula_sum   'Ga2 Cu2 Br8'
_cell_volume   355.68657187
_cell_formula_units_Z   2
loop_
 _symmetry_equiv_pos_site_id
 _symmetry_equiv_pos_as_xyz
  1  'x, y, z'
loop_
 _atom_site_type_symbol
 _atom_site_label
 _atom_site_symmetry_multiplicity
 _atom_site_fract_x
 _atom_site_fract_y
 _atom_site_fract_z
 _atom_site_occupancy
  Ga  Ga0  1  0.00000000  0.50000000  0.25000000  1
  Ga  Ga1  1  0.50000000  -0.00000000  0.75000000  1
  Cu  Cu0  1  0.00000000  -0.00000000  0.00000000  1
  Cu  Cu1  1  0.00000000  -0.00000000  0.50000000  1
  Br  Br0  1  0.23870553  0.26464774  0.12395476  1
  Br  Br1  1  0.76129447  0.73535326  0.12395476  1
  Br  Br2  1  0.26464774  0.76129447  0.87604524  1
  Br  Br3  1  0.76129447  0.26464774  0.37604524  1
  Br  Br4  1  0.73535326  0.23870553  0.87604524  1
  Br  Br5  1  0.23870553  0.73535326  0.37604524  1
  Br  Br6  1  0.73535326  0.76129447  0.62395476  1
  Br  Br7  1  0.26464774  0.23870553  0.62395476  1
loop_
_geom_bond_atom_site_label_1
_geom_bond_atom_site_label_2
_geom_bond_distance
_geom_bond_site_symmetry_2
Br0 Ga0 2.356958 1_555
Br0 Cu0 2.446710 1_555
Br1 Ga0 2.356962 1_655
Br1 Cu0 2.446707 1_665
Br2 Ga1 2.356958 1_565
Br2 Cu0 2.446710 1_566
Br3 Ga0 2.356958 1_655
Br3 Cu1 2.446710 1_655
Br4 Ga1 2.356962 1_555
Br4 Cu0 2.446707 1_656
Br5 Ga0 2.356962 1_555
Br5 Cu1 2.446707 1_565
Br6 Ga1 2.356962 1_565
Br6 Cu1 2.446707 1_665
Br7 Ga1 2.356958 1_555
Br7 Cu1 2.446710 1_555
