# generated using pymatgen
data_Ba2CdP4(H3O8)2
_symmetry_space_group_name_H-M   'P 1'
_cell_length_a   10.42923000
_cell_length_b   5.50831500
_cell_length_c   12.36904974
_cell_angle_alpha   79.77467274
_cell_angle_beta   90.00000000
_cell_angle_gamma   90.00000000
_symmetry_Int_Tables_number   1
_chemical_formula_structural   Ba2CdP4(H3O8)2
_chemical_formula_sum   'Ba4 Cd2 P8 H12 O32'
_cell_volume   699.28495708
_cell_formula_units_Z   2
loop_
 _symmetry_equiv_pos_site_id
 _symmetry_equiv_pos_as_xyz
  1  'x, y, z'
loop_
 _atom_site_type_symbol
 _atom_site_label
 _atom_site_symmetry_multiplicity
 _atom_site_fract_x
 _atom_site_fract_y
 _atom_site_fract_z
 _atom_site_occupancy
  Ba  Ba0  1  0.34701600  0.85907400  0.81966000  1
  Ba  Ba1  1  0.84701600  0.14092600  0.68034000  1
  Ba  Ba2  1  0.65298400  0.14092600  0.18034000  1
  Ba  Ba3  1  0.15298400  0.85907400  0.31966000  1
  Cd  Cd0  1  0.50000000  0.00000000  0.50000000  1
  Cd  Cd1  1  0.00000000  0.00000000  0.00000000  1
  P  P0  1  0.30453700  0.23612100  0.05408500  1
  P  P1  1  0.80453700  0.76387900  0.44591500  1
  P  P2  1  0.69546300  0.76387900  0.94591500  1
  P  P3  1  0.19546300  0.23612100  0.55408500  1
  P  P4  1  0.00840500  0.58786000  0.80171600  1
  P  P5  1  0.50840500  0.41214000  0.69828400  1
  P  P6  1  0.99159500  0.41214000  0.19828400  1
  P  P7  1  0.49159500  0.58786000  0.30171600  1
  H  H0  1  0.46597700  0.28962200  0.93780100  1
  H  H1  1  0.96597700  0.71037800  0.56219900  1
  H  H2  1  0.53402300  0.71037800  0.06219900  1
  H  H3  1  0.03402300  0.28962200  0.43780100  1
  H  H4  1  0.18509400  0.56358100  0.05801500  1
  H  H5  1  0.68509400  0.43641900  0.44198500  1
  H  H6  1  0.81490600  0.43641900  0.94198500  1
  H  H7  1  0.31490600  0.56358100  0.55801500  1
  H  H8  1  0.17486100  0.38144100  0.74680600  1
  H  H9  1  0.67486100  0.61855900  0.75319400  1
  H  H10  1  0.82513900  0.61855900  0.25319400  1
  H  H11  1  0.32513900  0.38144100  0.24680600  1
  O  O0  1  0.45203500  0.23596100  0.02085400  1
  O  O1  1  0.95203500  0.76403900  0.47914600  1
  O  O2  1  0.54796500  0.76403900  0.97914600  1
  O  O3  1  0.04796500  0.23596100  0.52085400  1
  O  O4  1  0.26555200  0.51963700  0.01863900  1
  O  O5  1  0.76555200  0.48036300  0.48136100  1
  O  O6  1  0.73444800  0.48036300  0.98136100  1
  O  O7  1  0.23444800  0.51963700  0.51863900  1
  O  O8  1  0.30034200  0.16743800  0.17913900  1
  O  O9  1  0.80034200  0.83256200  0.32086100  1
  O  O10  1  0.69965800  0.83256200  0.82086100  1
  O  O11  1  0.19965800  0.16743800  0.67913900  1
  O  O12  1  0.22879900  0.07084800  0.99022600  1
  O  O13  1  0.72879900  0.92915200  0.50977400  1
  O  O14  1  0.77120100  0.92915200  0.00977400  1
  O  O15  1  0.27120100  0.07084800  0.49022600  1
  O  O16  1  0.15683700  0.52108400  0.78927700  1
  O  O17  1  0.65683700  0.47891600  0.71072300  1
  O  O18  1  0.84316300  0.47891600  0.21072300  1
  O  O19  1  0.34316300  0.52108400  0.28927700  1
  O  O20  1  0.94089700  0.36794800  0.87675500  1
  O  O21  1  0.44089700  0.63205200  0.62324500  1
  O  O22  1  0.05910300  0.63205200  0.12324500  1
  O  O23  1  0.55910300  0.36794800  0.37675500  1
  O  O24  1  0.94512900  0.62741800  0.68733500  1
  O  O25  1  0.44512900  0.37258200  0.81266500  1
  O  O26  1  0.05487100  0.37258200  0.31266500  1
  O  O27  1  0.55487100  0.62741800  0.18733500  1
  O  O28  1  0.00860900  0.82876100  0.84782100  1
  O  O29  1  0.50860900  0.17123900  0.65217900  1
  O  O30  1  0.99139100  0.17123900  0.15217900  1
  O  O31  1  0.49139100  0.82876100  0.34782100  1
loop_
_geom_bond_atom_site_label_1
_geom_bond_atom_site_label_2
_geom_bond_distance
_geom_bond_site_symmetry_2
Ba0 O11 2.686973 1_565
Ba0 O16 2.791009 1_555
Ba0 O2 2.862000 1_555
Ba0 O12 2.864543 1_565
Ba0 O25 2.884076 1_555
Ba0 O4 2.939613 1_556
Ba0 O29 2.970465 1_565
Ba0 O25 2.994728 1_565
Ba0 O21 3.082753 1_555
Ba1 O10 2.686973 1_545
Ba1 O17 2.791009 1_555
Ba1 O3 2.862000 1_655
Ba1 O13 2.864543 1_545
Ba1 O24 2.884076 1_555
Ba1 O5 2.939613 1_555
Ba1 O28 2.970465 1_645
Ba1 O24 2.994728 1_545
Ba1 O20 3.082753 1_555
Ba2 O9 2.686973 1_545
Ba2 O18 2.791009 1_555
Ba2 O0 2.862000 1_555
Ba2 O14 2.864543 1_545
Ba2 O27 2.884076 1_555
Ba2 O6 2.939613 1_554
Ba2 O31 2.970465 1_545
Ba2 O27 2.994728 1_545
Ba2 O23 3.082753 1_555
Ba3 O8 2.686973 1_565
Ba3 O19 2.791009 1_555
Ba3 O1 2.862000 1_455
Ba3 O15 2.864543 1_565
Ba3 O26 2.884076 1_555
Ba3 O7 2.939613 1_555
Ba3 O30 2.970465 1_465
Ba3 O26 2.994728 1_565
Ba3 O22 3.082753 1_555
Cd0 O29 2.251935 1_555
Cd0 O31 2.251935 1_545
Cd0 O21 2.390538 1_545
Cd0 O23 2.390538 1_555
Cd0 O13 2.417457 1_545
Cd0 O15 2.417457 1_555
Cd1 O30 2.251935 1_455
Cd1 O28 2.251935 1_544
Cd1 O22 2.390538 1_545
Cd1 O20 2.390538 1_454
Cd1 O12 2.417457 1_554
Cd1 O14 2.417457 1_445
H0 O0 1.027629 1_556
H0 O25 1.549420 1_555
H1 O1 1.027629 1_555
H1 O24 1.549420 1_555
H2 O2 1.027629 1_554
H2 O27 1.549420 1_555
H3 O3 1.027629 1_555
H3 O26 1.549420 1_555
H4 O4 1.020673 1_555
H4 O22 1.621060 1_555
H5 O5 1.020673 1_555
H5 O23 1.621060 1_555
H6 O6 1.020673 1_555
H6 O20 1.621060 1_555
H7 O7 1.020673 1_555
H7 O21 1.621060 1_555
H8 O16 1.022952 1_555
H8 O11 1.583433 1_555
H9 O17 1.022952 1_555
H9 O10 1.583433 1_555
H10 O18 1.022952 1_555
H10 O9 1.583433 1_555
H11 O19 1.022952 1_555
H11 O8 1.583433 1_555
O0 P0 1.592300 1_555
O1 P1 1.592300 1_555
O2 P2 1.592300 1_555
O3 P3 1.592300 1_555
O4 P0 1.597915 1_555
O5 P1 1.597915 1_555
O6 P2 1.597915 1_555
O7 P3 1.597915 1_555
O8 P0 1.526390 1_555
O9 P1 1.526390 1_555
O10 P2 1.526390 1_555
O11 P3 1.526390 1_555
O12 P0 1.527061 1_556
O13 P1 1.527061 1_555
O14 P2 1.527061 1_554
O15 P3 1.527061 1_555
O16 P4 1.604824 1_555
O17 P5 1.604824 1_555
O18 P6 1.604824 1_555
O19 P7 1.604824 1_555
O20 P4 1.557355 1_655
O21 P5 1.557355 1_555
O22 P6 1.557355 1_455
O23 P7 1.557355 1_555
O24 P4 1.541148 1_655
O25 P5 1.541148 1_555
O26 P6 1.541148 1_455
O27 P7 1.541148 1_555
O28 P4 1.534505 1_555
O29 P5 1.534505 1_555
O30 P6 1.534505 1_555
O31 P7 1.534505 1_555
