# generated using pymatgen
data_Ca2AlCoO5
_symmetry_space_group_name_H-M   'P 1'
_cell_length_a   5.27262149
_cell_length_b   5.57470020
_cell_length_c   8.32648612
_cell_angle_alpha   109.68662472
_cell_angle_beta   108.81019652
_cell_angle_gamma   88.97685293
_symmetry_Int_Tables_number   1
_chemical_formula_structural   Ca2AlCoO5
_chemical_formula_sum   'Ca4 Al2 Co2 O10'
_cell_volume   216.99609625
_cell_formula_units_Z   2
loop_
 _symmetry_equiv_pos_site_id
 _symmetry_equiv_pos_as_xyz
  1  'x, y, z'
loop_
 _atom_site_type_symbol
 _atom_site_label
 _atom_site_symmetry_multiplicity
 _atom_site_fract_x
 _atom_site_fract_y
 _atom_site_fract_z
 _atom_site_occupancy
  Ca  Ca0  1  0.11794600  0.64410200  0.22068600  1
  Ca  Ca1  1  0.40254600  0.92234800  0.77918000  1
  Ca  Ca2  1  0.89802300  0.36050200  0.78062300  1
  Ca  Ca3  1  0.62069800  0.07958500  0.22034000  1
  Al  Al0  1  0.29474100  0.32800400  0.50360000  1
  Al  Al1  1  0.78953600  0.67529600  0.49715400  1
  Co  Co0  1  0.49755800  0.50143400  0.99957200  1
  Co  Co1  1  0.99845600  0.00148200  0.99941400  1
  O  O0  1  0.62901000  0.39325300  0.49977000  1
  O  O1  1  0.12945300  0.61275200  0.50123300  1
  O  O2  1  0.61797000  0.70810500  0.28666400  1
  O  O3  1  0.33180900  0.29598800  0.71375100  1
  O  O4  1  0.11829500  0.07796300  0.30389300  1
  O  O5  1  0.81304100  0.92732100  0.69743900  1
  O  O6  1  0.24191000  0.73839600  0.97436100  1
  O  O7  1  0.25636900  0.25245400  0.02783400  1
  O  O8  1  0.75892400  0.27234200  0.02579700  1
  O  O9  1  0.74556500  0.74382800  0.97235800  1
loop_
_geom_bond_atom_site_label_1
_geom_bond_atom_site_label_2
_geom_bond_distance
_geom_bond_site_symmetry_2
Ca0 O4 2.280392 1_565
Ca0 O1 2.382072 1_555
Ca0 O7 2.492958 1_555
Ca0 O2 2.519411 1_555
Ca0 O8 2.530822 1_455
Ca0 O6 2.552134 1_554
Ca0 O9 2.560660 1_454
Ca0 O2 2.854266 1_455
Ca1 O3 2.319544 1_565
Ca1 O1 2.378403 1_555
Ca1 O9 2.446827 1_555
Ca1 O5 2.472526 1_555
Ca1 O6 2.540014 1_555
Ca1 O8 2.549041 1_566
Ca1 O7 2.584279 1_566
Ca1 O5 2.961511 1_455
Ca2 O5 2.285524 1_545
Ca2 O0 2.377664 1_555
Ca2 O9 2.495812 1_555
Ca2 O6 2.507676 1_655
Ca2 O3 2.515467 1_655
Ca2 O7 2.540949 1_656
Ca2 O8 2.569292 1_556
Ca2 O3 2.860705 1_555
Ca3 O2 2.317430 1_545
Ca3 O0 2.380926 1_555
Ca3 O7 2.485380 1_555
Ca3 O4 2.488756 1_655
Ca3 O8 2.504364 1_555
Ca3 O9 2.535564 1_544
Ca3 O6 2.583511 1_544
Ca3 O4 2.948679 1_555
Al0 O4 1.749461 1_555
Al0 O3 1.766508 1_555
Al0 O1 1.800081 1_555
Al0 O0 1.818405 1_555
Al1 O5 1.750638 1_555
Al1 O2 1.763853 1_555
Al1 O0 1.808726 1_555
Al1 O1 1.811436 1_655
Co0 O8 1.873183 1_556
Co0 O6 1.883291 1_555
Co0 O9 2.011892 1_555
Co0 O7 2.018710 1_556
Co0 O3 2.144155 1_555
Co0 O2 2.153287 1_556
Co1 O7 1.870853 1_656
Co1 O9 1.883735 1_545
Co1 O6 1.934310 1_645
Co1 O8 1.952087 1_556
Co1 O5 2.275461 1_545
Co1 O4 2.292770 1_656
