# generated using pymatgen
data_Ca(BiO2)2
_symmetry_space_group_name_H-M   'P 1'
_cell_length_a   7.01284265
_cell_length_b   7.01284265
_cell_length_c   17.19826402
_cell_angle_alpha   89.78049360
_cell_angle_beta   89.78049360
_cell_angle_gamma   59.84520379
_symmetry_Int_Tables_number   1
_chemical_formula_structural   Ca(BiO2)2
_chemical_formula_sum   'Ca6 Bi12 O24'
_cell_volume   731.34054124
_cell_formula_units_Z   6
loop_
 _symmetry_equiv_pos_site_id
 _symmetry_equiv_pos_as_xyz
  1  'x, y, z'
loop_
 _atom_site_type_symbol
 _atom_site_label
 _atom_site_symmetry_multiplicity
 _atom_site_fract_x
 _atom_site_fract_y
 _atom_site_fract_z
 _atom_site_occupancy
  Ca  Ca0  1  0.83609700  0.83609700  0.95921000  1
  Ca  Ca1  1  0.16657600  0.16657600  0.66648100  1
  Ca  Ca2  1  0.33392100  0.33392100  0.83254400  1
  Ca  Ca3  1  0.83326100  0.83326100  0.33461300  1
  Ca  Ca4  1  0.99997000  0.99997000  0.50011500  1
  Ca  Ca5  1  0.66683300  0.66683300  0.16734500  1
  Bi  Bi0  1  0.83452200  0.33341000  0.83191600  1
  Bi  Bi1  1  0.50275000  0.50275000  0.62286000  1
  Bi  Bi2  1  0.49843500  0.49843500  0.99517800  1
  Bi  Bi3  1  0.33341000  0.83452200  0.83191600  1
  Bi  Bi4  1  0.50046900  0.99990700  0.50028900  1
  Bi  Bi5  1  0.16932500  0.16932500  0.29083700  1
  Bi  Bi6  1  0.99990700  0.50046900  0.50028900  1
  Bi  Bi7  1  0.16019800  0.66823000  0.16776000  1
  Bi  Bi8  1  0.83046300  0.83046300  0.70994000  1
  Bi  Bi9  1  0.66823000  0.16019800  0.16776000  1
  Bi  Bi10  1  0.49741300  0.49741300  0.37618800  1
  Bi  Bi11  1  0.16342900  0.16342900  0.04135700  1
  O  O0  1  0.65174100  0.19448500  0.91365300  1
  O  O1  1  0.49941000  0.49941000  0.75592700  1
  O  O2  1  0.19448500  0.65174100  0.91365300  1
  O  O3  1  0.65683000  0.65683000  0.91406000  1
  O  O4  1  0.32222000  0.85724300  0.58036600  1
  O  O5  1  0.00929500  0.00929500  0.75152100  1
  O  O6  1  0.16580200  0.16580200  0.42381200  1
  O  O7  1  0.47721000  0.01091600  0.75265300  1
  O  O8  1  0.85724300  0.32222000  0.58036600  1
  O  O9  1  0.16719700  0.16719700  0.90754800  1
  O  O10  1  0.32269900  0.32269900  0.58147700  1
  O  O11  1  0.01091600  0.47721000  0.75265300  1
  O  O12  1  0.99025200  0.52316900  0.24759900  1
  O  O13  1  0.67702200  0.67702200  0.41848100  1
  O  O14  1  0.14261600  0.67815100  0.41966900  1
  O  O15  1  0.52316900  0.99025200  0.24759900  1
  O  O16  1  0.83425100  0.83425100  0.09404200  1
  O  O17  1  0.83414900  0.83414900  0.57617300  1
  O  O18  1  0.98896900  0.98896900  0.24800800  1
  O  O19  1  0.67815100  0.14261600  0.41966900  1
  O  O20  1  0.33832200  0.33832200  0.08552800  1
  O  O21  1  0.81598500  0.34436600  0.08740800  1
  O  O22  1  0.50191700  0.50191700  0.24419100  1
  O  O23  1  0.34436600  0.81598500  0.08740800  1
loop_
_geom_bond_atom_site_label_1
_geom_bond_atom_site_label_2
_geom_bond_distance
_geom_bond_site_symmetry_2
Ca0 O2 2.308732 1_655
Ca0 O0 2.308732 1_565
Ca0 O3 2.316623 1_555
Ca0 O16 2.318886 1_556
Ca1 O10 2.390499 1_555
Ca1 O8 2.392501 1_455
Ca1 O4 2.392501 1_545
Ca1 O7 2.399320 1_555
Ca1 O11 2.399320 1_555
Ca1 O5 2.402027 1_555
Ca2 O0 2.386086 1_555
Ca2 O2 2.386086 1_555
Ca2 O9 2.397576 1_555
Ca2 O7 2.398973 1_555
Ca2 O11 2.398973 1_555
Ca2 O1 2.399950 1_555
Ca3 O13 2.379791 1_555
Ca3 O19 2.381352 1_565
Ca3 O14 2.381352 1_655
Ca3 O18 2.403379 1_555
Ca3 O15 2.405729 1_555
Ca3 O12 2.405729 1_555
Ca4 O17 2.398102 1_555
Ca4 O19 2.398627 1_565
Ca4 O14 2.398627 1_655
Ca4 O4 2.398874 1_655
Ca4 O8 2.398874 1_565
Ca4 O6 2.400499 1_665
Ca5 O16 2.389237 1_555
Ca5 O21 2.394664 1_555
Ca5 O23 2.394664 1_555
Ca5 O22 2.396287 1_555
Ca5 O12 2.404549 1_555
Ca5 O15 2.404549 1_555
Bi0 O11 2.373883 1_655
Bi0 O9 2.402707 1_655
Bi0 O5 2.406770 1_655
Bi0 O0 2.408044 1_555
Bi0 O1 2.418537 1_555
Bi0 O3 2.421655 1_555
Bi1 O4 2.268974 1_555
Bi1 O8 2.268974 1_555
Bi1 O1 2.288702 1_555
Bi1 O10 2.304510 1_555
Bi2 O0 2.318235 1_555
Bi2 O2 2.318235 1_555
Bi2 O3 2.372745 1_555
Bi2 O20 2.485157 1_556
Bi2 O23 2.497838 1_556
Bi2 O21 2.497838 1_556
Bi3 O7 2.373883 1_565
Bi3 O9 2.402707 1_565
Bi3 O5 2.406770 1_565
Bi3 O2 2.408044 1_555
Bi3 O1 2.418537 1_555
Bi3 O3 2.421655 1_555
Bi4 O4 2.385983 1_555
Bi4 O19 2.388662 1_565
Bi4 O10 2.409091 1_565
Bi4 O17 2.410226 1_555
Bi4 O13 2.415396 1_555
Bi4 O6 2.420825 1_565
Bi5 O12 2.269327 1_455
Bi5 O15 2.269327 1_545
Bi5 O6 2.287151 1_555
Bi5 O18 2.315930 1_445
Bi6 O8 2.385983 1_555
Bi6 O14 2.388662 1_655
Bi6 O10 2.409091 1_655
Bi6 O17 2.410226 1_555
Bi6 O13 2.415396 1_555
Bi6 O6 2.420825 1_655
Bi7 O16 2.350530 1_455
Bi7 O12 2.352764 1_455
Bi7 O18 2.388199 1_455
Bi7 O23 2.443629 1_555
Bi7 O20 2.453810 1_555
Bi7 O22 2.456689 1_555
Bi8 O11 2.263107 1_655
Bi8 O7 2.263107 1_565
Bi8 O5 2.291496 1_665
Bi8 O17 2.300798 1_555
Bi9 O16 2.350530 1_545
Bi9 O15 2.352764 1_545
Bi9 O18 2.388199 1_545
Bi9 O21 2.443629 1_555
Bi9 O20 2.453810 1_555
Bi9 O22 2.456689 1_555
Bi10 O22 2.270537 1_555
Bi10 O14 2.276208 1_555
Bi10 O19 2.276208 1_555
Bi10 O13 2.304358 1_555
Bi11 O23 2.249652 1_545
Bi11 O21 2.249652 1_455
Bi11 O20 2.260816 1_555
Bi11 O9 2.301536 1_554
