# generated using pymatgen
data_Ba2MgMo4(P2O7)4
_symmetry_space_group_name_H-M   'P 1'
_cell_length_a   8.11406299
_cell_length_b   8.02435327
_cell_length_c   10.24756635
_cell_angle_alpha   77.90221551
_cell_angle_beta   76.28015325
_cell_angle_gamma   84.68041218
_symmetry_Int_Tables_number   1
_chemical_formula_structural   Ba2MgMo4(P2O7)4
_chemical_formula_sum   'Ba2 Mg1 Mo4 P8 O28'
_cell_volume   633.13728234
_cell_formula_units_Z   1
loop_
 _symmetry_equiv_pos_site_id
 _symmetry_equiv_pos_as_xyz
  1  'x, y, z'
loop_
 _atom_site_type_symbol
 _atom_site_label
 _atom_site_symmetry_multiplicity
 _atom_site_fract_x
 _atom_site_fract_y
 _atom_site_fract_z
 _atom_site_occupancy
  Ba  Ba0  1  0.99772307  0.51645427  0.98373500  1
  Ba  Ba1  1  0.49162631  0.00858295  0.52469496  1
  Mg  Mg0  1  0.60060614  0.90031613  0.08094772  1
  Mo  Mo0  1  0.00790054  0.00187583  0.49803508  1
  Mo  Mo1  1  0.01406447  0.00696089  0.01122114  1
  Mo  Mo2  1  0.45863023  0.53414450  0.25620985  1
  Mo  Mo3  1  0.56075320  0.45962425  0.74233358  1
  P  P0  1  0.80575460  0.71839200  0.29204150  1
  P  P1  1  0.25521231  0.20689441  0.20832791  1
  P  P2  1  0.20992144  0.28338543  0.71499705  1
  P  P3  1  0.71516231  0.80914582  0.79037300  1
  P  P4  1  0.74473594  0.35871902  0.43631899  1
  P  P5  1  0.62558870  0.24923117  0.04635052  1
  P  P6  1  0.26932209  0.64291571  0.56272847  1
  P  P7  1  0.36765247  0.73450735  0.93799069  1
  O  O0  1  0.94385922  0.76951121  0.16175567  1
  O  O1  1  0.24815441  0.06512641  0.33498459  1
  O  O2  1  0.08112713  0.24373436  0.85370543  1
  O  O3  1  0.77306763  0.94306301  0.66349512  1
  O  O4  1  0.62936485  0.73231614  0.24701656  1
  O  O5  1  0.27502925  0.38476472  0.23212991  1
  O  O6  1  0.39575526  0.27277351  0.73110401  1
  O  O7  1  0.74475850  0.62324690  0.77379632  1
  O  O8  1  0.79141521  0.80627181  0.40921511  1
  O  O9  1  0.12193534  0.21057315  0.12698790  1
  O  O10  1  0.19397389  0.18388796  0.60977677  1
  O  O11  1  0.76655505  0.83164191  0.92061536  1
  O  O12  1  0.84611079  0.51287465  0.32530914  1
  O  O13  1  0.44417824  0.15533387  0.10749888  1
  O  O14  1  0.41496686  0.74404237  0.07519074  1
  O  O15  1  0.28039110  0.62435196  0.41578290  1
  O  O16  1  0.65855433  0.27856839  0.89196501  1
  O  O17  1  0.74291075  0.38567842  0.57864492  1
  O  O18  1  0.37732225  0.55228477  0.91199421  1
  O  O19  1  0.44536449  0.64034049  0.59769777  1
  O  O20  1  0.63708344  0.40739519  0.10447610  1
  O  O21  1  0.16240421  0.48951471  0.66943364  1
  O  O22  1  0.19687200  0.81946907  0.92261907  1
  O  O23  1  0.17178112  0.80628385  0.59566258  1
  O  O24  1  0.74198539  0.09656740  0.09645020  1
  O  O25  1  0.83775605  0.19432679  0.40391087  1
  O  O26  1  0.50538838  0.84854653  0.82001412  1
  O  O27  1  0.56394801  0.36302876  0.40746065  1
loop_
_geom_bond_atom_site_label_1
_geom_bond_atom_site_label_2
_geom_bond_distance
_geom_bond_site_symmetry_2
Ba0 O2 2.746367 1_655
Ba0 O9 2.815700 1_656
Ba0 O22 2.919889 1_655
Ba0 O0 2.941497 1_556
Ba0 O18 3.018543 1_655
Ba0 O20 3.027083 1_556
Ba0 O11 3.056723 1_555
Ba0 O21 3.225329 1_655
Ba0 O7 3.251381 1_555
Ba0 O12 3.418795 1_556
Ba1 O10 2.730812 1_555
Ba1 O27 2.901711 1_555
Ba1 O3 2.918766 1_545
Ba1 O19 2.928808 1_545
Ba1 O8 2.942881 1_545
Ba1 O1 3.028846 1_555
Ba1 O23 3.048014 1_545
Ba1 O26 3.053657 1_545
Ba1 O25 3.161527 1_555
Ba1 O6 3.219732 1_555
Mg0 O4 1.984021 1_555
Mg0 O11 2.002196 1_554
Mg0 O14 2.065985 1_555
Mg0 O24 2.085056 1_565
Mg0 O13 2.336789 1_565
Mo0 O23 2.195065 1_545
Mo0 O25 2.198436 1_455
Mo0 O3 2.242139 1_445
Mo0 O1 2.265530 1_555
Mo0 O10 2.766561 1_555
Mo0 O8 2.871600 1_445
Mo1 O22 2.192729 1_544
Mo1 O0 2.210662 1_445
Mo1 O2 2.236288 1_554
Mo1 O24 2.282080 1_455
Mo1 O9 2.532415 1_555
Mo2 O5 2.084836 1_555
Mo2 O15 2.114192 1_555
Mo2 O27 2.129940 1_555
Mo2 O4 2.177289 1_555
Mo2 O20 2.206956 1_555
Mo2 O14 2.301064 1_555
Mo3 O17 2.104501 1_555
Mo3 O16 2.126347 1_555
Mo3 O6 2.138063 1_555
Mo3 O19 2.163767 1_555
Mo3 O7 2.196870 1_555
Mo3 O18 2.213606 1_555
O0 P0 1.533787 1_555
O1 P1 1.529684 1_555
O2 P2 1.543133 1_555
O3 P3 1.511360 1_555
O4 P0 1.592418 1_555
O5 P1 1.526303 1_555
O6 P2 1.548069 1_555
O7 P3 1.527151 1_555
O8 P0 1.491991 1_555
O9 P1 1.508796 1_555
O10 P2 1.504329 1_555
O11 P3 1.538430 1_555
O12 P4 1.629672 1_555
O12 P0 1.631038 1_555
O13 P5 1.642345 1_555
O13 P1 1.702883 1_555
O14 P7 1.560949 1_554
O15 P6 1.524855 1_555
O16 P5 1.511542 1_556
O17 P4 1.515136 1_555
O18 P7 1.532090 1_555
O19 P6 1.550307 1_555
O20 P5 1.529525 1_555
O21 P6 1.627071 1_555
O21 P2 1.657101 1_555
O22 P7 1.514330 1_555
O23 P6 1.524856 1_555
O24 P5 1.551809 1_555
O25 P4 1.516648 1_555
O26 P7 1.622659 1_555
O26 P3 1.668729 1_555
O27 P4 1.559680 1_555
