# generated using pymatgen
data_AlZnB5H20C5(NO2)5
_symmetry_space_group_name_H-M   'P 1'
_cell_length_a   7.55432200
_cell_length_b   9.30669980
_cell_length_c   13.97318333
_cell_angle_alpha   77.59534267
_cell_angle_beta   76.60262579
_cell_angle_gamma   68.03949593
_symmetry_Int_Tables_number   1
_chemical_formula_structural   AlZnB5H20C5(NO2)5
_chemical_formula_sum   'Al2 Zn2 B10 H40 C10 N10 O20'
_cell_volume   877.33170134
_cell_formula_units_Z   2
loop_
 _symmetry_equiv_pos_site_id
 _symmetry_equiv_pos_as_xyz
  1  'x, y, z'
loop_
 _atom_site_type_symbol
 _atom_site_label
 _atom_site_symmetry_multiplicity
 _atom_site_fract_x
 _atom_site_fract_y
 _atom_site_fract_z
 _atom_site_occupancy
  Al  Al0  1  0.23643700  0.55454700  0.95102400  1
  Al  Al1  1  0.33219700  0.11169600  0.44869600  1
  Zn  Zn0  1  0.64937100  0.51384300  0.56505100  1
  Zn  Zn1  1  0.62501500  0.94750000  0.08870000  1
  B  B0  1  0.00478300  0.37345800  0.90866700  1
  B  B1  1  0.67853900  0.39586800  0.89437400  1
  B  B2  1  0.96333500  0.17484700  0.82509200  1
  B  B3  1  0.11613900  0.88046500  0.82567300  1
  B  B4  1  0.15915500  0.05789400  0.67023900  1
  B  B5  1  0.16751800  0.58251500  0.17364000  1
  B  B6  1  0.21533800  0.44496700  0.34176100  1
  B  B7  1  0.06142500  0.74058900  0.31697900  1
  B  B8  1  0.10628000  0.96436500  0.37236500  1
  B  B9  1  0.77827400  0.95557500  0.39716000  1
  H  H0  1  0.70026400  0.65118300  0.74522500  1
  H  H1  1  0.74793400  0.82326300  0.68340200  1
  H  H2  1  0.99268600  0.68768900  0.55688300  1
  H  H3  1  0.03717500  0.57546600  0.67464100  1
  H  H4  1  0.32766500  0.34939600  0.61521500  1
  H  H5  1  0.34480200  0.26587100  0.74078600  1
  H  H6  1  0.70287300  0.15556400  0.69638100  1
  H  H7  1  0.59086700  0.09451600  0.62031700  1
  H  H8  1  0.67738500  0.41846500  0.34723900  1
  H  H9  1  0.82985400  0.52498000  0.34501900  1
  H  H10  1  0.75229600  0.57416000  0.18321700  1
  H  H11  1  0.50097200  0.61171500  0.22648900  1
  H  H12  1  0.95294500  0.18126000  0.08524900  1
  H  H13  1  0.92607800  0.05758000  0.19856900  1
  H  H14  1  0.64269300  0.27646500  0.21912800  1
  H  H15  1  0.62216200  0.31825600  0.09212000  1
  H  H16  1  0.56861800  0.73652000  0.88538700  1
  H  H17  1  0.40185700  0.81756500  0.98794500  1
  H  H18  1  0.40267900  0.02705800  0.84013100  1
  H  H19  1  0.65491300  0.98227300  0.83658300  1
  H  H20  1  0.59264400  0.82620100  0.55346100  1
  H  H21  1  0.45212000  0.78274900  0.65494400  1
  H  H22  1  0.97280900  0.37737500  0.63173000  1
  H  H23  1  0.02171900  0.46589700  0.51690100  1
  H  H24  1  0.50823800  0.43258400  0.75123800  1
  H  H25  1  0.32466400  0.54734800  0.69768400  1
  H  H26  1  0.68790400  0.25003700  0.48604200  1
  H  H27  1  0.86595200  0.20722900  0.54417300  1
  H  H28  1  0.41461200  0.61129700  0.43019100  1
  H  H29  1  0.54278700  0.72400100  0.41843100  1
  H  H30  1  0.68383500  0.81511500  0.26625400  1
  H  H31  1  0.45242900  0.84628100  0.26538900  1
  H  H32  1  0.97789200  0.87965800  0.10932600  1
  H  H33  1  0.93657700  0.99950500  0.00221700  1
  H  H34  1  0.38274900  0.22917800  0.15513800  1
  H  H35  1  0.47766700  0.10642600  0.24515500  1
  H  H36  1  0.82008600  0.76990600  0.95114800  1
  H  H37  1  0.71817700  0.65623800  0.03002500  1
  H  H38  1  0.33259500  0.14113000  0.97726100  1
  H  H39  1  0.53515900  0.17391200  0.92978400  1
  C  C0  1  0.73851600  0.71310600  0.67149100  1
  C  C1  1  0.93711400  0.61512300  0.62067600  1
  C  C2  1  0.42011900  0.31550200  0.67226500  1
  C  C3  1  0.61473000  0.19539400  0.63716900  1
  C  C4  1  0.68148500  0.53695400  0.34107800  1
  C  C5  1  0.62989900  0.62730900  0.23979200  1
  C  C6  1  0.86582200  0.11044800  0.12980400  1
  C  C7  1  0.65585500  0.22258500  0.15380200  1
  C  C8  1  0.53769900  0.81851100  0.93793100  1
  C  C9  1  0.51777200  0.98305900  0.88566000  1
  N  N0  1  0.58733600  0.74038500  0.61295700  1
  N  N1  1  0.92908100  0.48079600  0.58351700  1
  N  N2  1  0.45225600  0.45641800  0.68686000  1
  N  N3  1  0.72054200  0.26705400  0.54890200  1
  N  N4  1  0.55245900  0.60892500  0.42849700  1
  N  N5  1  0.59153100  0.79727100  0.22926900  1
  N  N6  1  0.88427000  0.98214600  0.07755600  1
  N  N7  1  0.50975800  0.14490300  0.17107100  1
  N  N8  1  0.69311700  0.76996800  0.99792500  1
  N  N9  1  0.47912000  0.08611400  0.96102400  1
  O  O0  1  0.12108300  0.43212100  0.93549500  1
  O  O1  1  0.80240700  0.45225500  0.92424800  1
  O  O2  1  0.48547000  0.46968400  0.91200100  1
  O  O3  1  0.07713000  0.23562700  0.86870700  1
  O  O4  1  0.75423600  0.26669100  0.84483000  1
  O  O5  1  0.03063300  0.18360400  0.71576900  1
  O  O6  1  0.99289100  0.00931800  0.86961000  1
  O  O7  1  0.15168500  0.73371300  0.87450200  1
  O  O8  1  0.20268400  0.90541700  0.72502100  1
  O  O9  1  0.24389200  0.07609200  0.57488400  1
  O  O10  1  0.18913500  0.57732700  0.07611300  1
  O  O11  1  0.23197100  0.44297600  0.23966900  1
  O  O12  1  0.27682400  0.31146700  0.40484300  1
  O  O13  1  0.08138100  0.72217800  0.21211400  1
  O  O14  1  0.13509300  0.58627000  0.37855500  1
  O  O15  1  0.17508900  0.83594700  0.32327700  1
  O  O16  1  0.85140400  0.81865800  0.35566500  1
  O  O17  1  0.23113500  0.02860700  0.38437600  1
  O  O18  1  0.90566500  0.02741500  0.40757400  1
  O  O19  1  0.58605100  0.02031000  0.43017000  1
loop_
_geom_bond_atom_site_label_1
_geom_bond_atom_site_label_2
_geom_bond_distance
_geom_bond_site_symmetry_2
Al0 O10 1.743808 1_556
Al0 O0 1.743877 1_555
Al0 O2 1.748901 1_555
Al0 O7 1.756804 1_555
Al1 O9 1.741573 1_555
Al1 O17 1.745483 1_555
Al1 O12 1.747787 1_555
Al1 O19 1.764250 1_555
B0 O0 1.345285 1_555
B0 O3 1.377635 1_555
B0 O1 1.413602 1_455
B1 O2 1.347838 1_555
B1 O4 1.382573 1_555
B1 O1 1.402730 1_555
B2 O3 1.478162 1_655
B2 O4 1.480329 1_555
B2 O6 1.485067 1_555
B2 O5 1.488707 1_655
B3 O7 1.346560 1_555
B3 O6 1.377750 1_465
B3 O8 1.416523 1_555
B4 O9 1.342633 1_555
B4 O5 1.378451 1_555
B4 O8 1.417307 1_545
B5 O10 1.343639 1_555
B5 O13 1.381098 1_555
B5 O11 1.412547 1_555
B6 O12 1.350543 1_555
B6 O14 1.382391 1_555
B6 O11 1.406317 1_555
B7 O15 1.473482 1_555
B7 O13 1.478298 1_555
B7 O14 1.485221 1_555
B7 O16 1.498808 1_455
B8 O17 1.346658 1_565
B8 O15 1.375274 1_555
B8 O18 1.412984 1_465
B9 O19 1.356109 1_565
B9 O16 1.381145 1_555
B9 O18 1.407923 1_565
H20 N0 1.026575 1_555
H21 N0 1.031259 1_555
H22 N1 1.037370 1_555
H23 N1 1.027830 1_455
H24 N2 1.028434 1_555
H25 N2 1.022463 1_555
H26 N3 1.023087 1_555
H27 N3 1.022614 1_555
H28 N4 1.028128 1_555
H29 N4 1.026466 1_555
H30 N5 1.035062 1_555
H31 N5 1.030364 1_555
H32 N6 1.032513 1_555
H33 N6 1.035558 1_555
H34 N7 1.022951 1_555
H35 N7 1.023714 1_555
H36 N8 1.027835 1_555
H37 N8 1.021203 1_554
H38 N9 1.023962 1_555
H39 N9 1.028239 1_555
C0 H0 1.099377 1_555
C0 H1 1.103241 1_555
C0 N0 1.471234 1_555
C1 H2 1.098598 1_555
C1 H3 1.100959 1_655
C1 N1 1.478632 1_555
C2 H5 1.099051 1_555
C2 H4 1.099081 1_555
C2 N2 1.482042 1_555
C3 H6 1.097388 1_555
C3 H7 1.100274 1_555
C3 N3 1.481008 1_555
C4 H9 1.097384 1_555
C4 H8 1.099060 1_555
C4 N4 1.484010 1_555
C5 H11 1.097913 1_555
C5 H10 1.100793 1_555
C5 N5 1.478037 1_555
C6 H13 1.097547 1_555
C6 H12 1.101516 1_555
C6 N6 1.476870 1_545
C7 H15 1.096758 1_555
C7 H14 1.100846 1_555
C7 N7 1.482362 1_555
C8 H16 1.097182 1_555
C8 H17 1.101511 1_555
C8 N8 1.477156 1_555
C9 H18 1.098394 1_565
C9 H19 1.100405 1_555
C9 N9 1.481918 1_565
N0 Zn0 2.198834 1_555
N1 Zn0 2.087707 1_555
N2 Zn0 2.104726 1_555
N3 Zn0 2.204106 1_555
N4 Zn0 2.096958 1_555
N5 Zn1 2.175145 1_555
N6 Zn1 2.067206 1_555
N7 Zn1 2.169270 1_545
N8 Zn1 2.136742 1_556
N9 Zn1 2.218262 1_546
