# generated using pymatgen
data_Na2CaZrSi2O7F2
_symmetry_space_group_name_H-M   'P 1'
_cell_length_a   10.60879400
_cell_length_b   7.35373700
_cell_length_c   10.20076833
_cell_angle_alpha   89.91092297
_cell_angle_beta   90.00000000
_cell_angle_gamma   90.00000000
_symmetry_Int_Tables_number   1
_chemical_formula_structural   Na2CaZrSi2O7F2
_chemical_formula_sum   'Na8 Ca4 Zr4 Si8 O28 F8'
_cell_volume   795.80464462
_cell_formula_units_Z   4
loop_
 _symmetry_equiv_pos_site_id
 _symmetry_equiv_pos_as_xyz
  1  'x, y, z'
loop_
 _atom_site_type_symbol
 _atom_site_label
 _atom_site_symmetry_multiplicity
 _atom_site_fract_x
 _atom_site_fract_y
 _atom_site_fract_z
 _atom_site_occupancy
  Na  Na0  1  0.42790100  0.61829300  0.12017000  1
  Na  Na1  1  0.57209900  0.38170700  0.87983000  1
  Na  Na2  1  0.92790100  0.38170700  0.37983000  1
  Na  Na3  1  0.07209900  0.61829300  0.62017000  1
  Na  Na4  1  0.43112300  0.12817400  0.12436500  1
  Na  Na5  1  0.56887700  0.87182600  0.87563500  1
  Na  Na6  1  0.93112300  0.87182600  0.37563500  1
  Na  Na7  1  0.06887700  0.12817400  0.62436500  1
  Ca  Ca0  1  0.29875000  0.37390800  0.39413000  1
  Ca  Ca1  1  0.70125000  0.62609200  0.60587000  1
  Ca  Ca2  1  0.79875000  0.62609200  0.10587000  1
  Ca  Ca3  1  0.20125000  0.37390800  0.89413000  1
  Zr  Zr0  1  0.80208500  0.12569300  0.10900400  1
  Zr  Zr1  1  0.19791500  0.87430700  0.89099600  1
  Zr  Zr2  1  0.30208500  0.87430700  0.39099600  1
  Zr  Zr3  1  0.69791500  0.12569300  0.60900400  1
  Si  Si0  1  0.12028400  0.59886800  0.17081300  1
  Si  Si1  1  0.87971600  0.40113200  0.82918700  1
  Si  Si2  1  0.62028400  0.40113200  0.32918700  1
  Si  Si3  1  0.37971600  0.59886800  0.67081300  1
  Si  Si4  1  0.12098000  0.15467400  0.16689400  1
  Si  Si5  1  0.87902000  0.84532600  0.83310600  1
  Si  Si6  1  0.62098000  0.84532600  0.33310600  1
  Si  Si7  1  0.37902000  0.15467400  0.66689400  1
  O  O0  1  0.14783100  0.66245400  0.01796200  1
  O  O1  1  0.85216900  0.33754600  0.98203800  1
  O  O2  1  0.64783100  0.33754600  0.48203800  1
  O  O3  1  0.35216900  0.66245400  0.51796200  1
  O  O4  1  0.23746000  0.66741100  0.26539900  1
  O  O5  1  0.76254000  0.33258900  0.73460100  1
  O  O6  1  0.73746000  0.33258900  0.23460100  1
  O  O7  1  0.26254000  0.66741100  0.76539900  1
  O  O8  1  0.14903100  0.37537900  0.16574300  1
  O  O9  1  0.85096900  0.62462100  0.83425700  1
  O  O10  1  0.64903100  0.62462100  0.33425700  1
  O  O11  1  0.35096900  0.37537900  0.66574300  1
  O  O12  1  0.15010800  0.08822100  0.01712600  1
  O  O13  1  0.84989200  0.91177900  0.98287400  1
  O  O14  1  0.65010800  0.91177900  0.48287400  1
  O  O15  1  0.34989200  0.08822100  0.51712600  1
  O  O16  1  0.48089800  0.36052200  0.27737500  1
  O  O17  1  0.51910200  0.63947800  0.72262500  1
  O  O18  1  0.98089800  0.63947800  0.22262500  1
  O  O19  1  0.01910200  0.36052200  0.77737500  1
  O  O20  1  0.97546500  0.11679500  0.21087900  1
  O  O21  1  0.02453500  0.88320500  0.78912100  1
  O  O22  1  0.47546500  0.88320500  0.28912100  1
  O  O23  1  0.52453500  0.11679500  0.71087900  1
  O  O24  1  0.22841800  0.07914900  0.26848000  1
  O  O25  1  0.77158200  0.92085100  0.73152000  1
  O  O26  1  0.72841800  0.92085100  0.23152000  1
  O  O27  1  0.27158200  0.07914900  0.76848000  1
  F  F0  1  0.38726100  0.37076200  0.98506900  1
  F  F1  1  0.61273900  0.62923800  0.01493100  1
  F  F2  1  0.88726100  0.62923800  0.51493100  1
  F  F3  1  0.11273900  0.37076200  0.48506900  1
  F  F4  1  0.62289400  0.12450100  0.01571000  1
  F  F5  1  0.37710600  0.87549900  0.98429000  1
  F  F6  1  0.12289400  0.87549900  0.48429000  1
  F  F7  1  0.87710600  0.12450100  0.51571000  1
loop_
_geom_bond_atom_site_label_1
_geom_bond_atom_site_label_2
_geom_bond_distance
_geom_bond_site_symmetry_2
Na0 O4 2.531527 1_555
Na0 O16 2.543905 1_555
Na0 O22 2.651478 1_555
Na1 O5 2.531527 1_555
Na1 O17 2.543905 1_555
Na1 O23 2.651478 1_555
Na2 O6 2.531527 1_555
Na2 O18 2.543905 1_555
Na2 O20 2.651478 1_555
Na3 O7 2.531527 1_555
Na3 O19 2.543905 1_555
Na3 O21 2.651478 1_555
Na4 O16 2.375435 1_555
Na4 O22 2.506312 1_545
Na4 O24 2.629435 1_555
Na5 O17 2.375435 1_555
Na5 O23 2.506312 1_565
Na5 O25 2.629435 1_555
Na6 O18 2.375435 1_555
Na6 O20 2.506312 1_565
Na6 O26 2.629435 1_555
Na7 O19 2.375435 1_555
Na7 O21 2.506312 1_545
Na7 O27 2.629435 1_555
Ca0 F3 2.180623 1_555
Ca0 O16 2.272129 1_555
Ca0 O15 2.504789 1_555
Ca0 O3 2.535261 1_555
Ca0 O4 2.607065 1_555
Ca0 O24 2.628039 1_555
Ca0 O8 2.819657 1_555
Ca0 O11 2.825539 1_555
Ca1 F2 2.180623 1_555
Ca1 O17 2.272129 1_555
Ca1 O14 2.504789 1_555
Ca1 O2 2.535261 1_555
Ca1 O5 2.607065 1_555
Ca1 O25 2.628039 1_555
Ca1 O9 2.819657 1_555
Ca1 O10 2.825539 1_555
Ca2 F1 2.180623 1_555
Ca2 O18 2.272129 1_555
Ca2 O13 2.504789 1_554
Ca2 O1 2.535261 1_554
Ca2 O6 2.607065 1_555
Ca2 O26 2.628039 1_555
Ca2 O10 2.819657 1_555
Ca2 O9 2.825539 1_554
Ca3 F0 2.180623 1_555
Ca3 O19 2.272129 1_555
Ca3 O12 2.504789 1_556
Ca3 O0 2.535261 1_556
Ca3 O7 2.607065 1_555
Ca3 O27 2.628039 1_555
Ca3 O11 2.819657 1_555
Ca3 O8 2.825539 1_556
O0 Si0 1.653142 1_555
O0 Zr1 2.092974 1_554
O1 Si1 1.653142 1_555
O1 Zr0 2.092974 1_556
O2 Si2 1.653142 1_555
O2 Zr3 2.092974 1_555
O3 Si3 1.653142 1_555
O3 Zr2 2.092974 1_555
O4 Si0 1.652815 1_555
O4 Zr2 2.105320 1_555
O5 Si1 1.652815 1_555
O5 Zr3 2.105320 1_555
O6 Si2 1.652815 1_555
O6 Zr0 2.105320 1_555
O7 Si3 1.652815 1_555
O7 Zr1 2.105320 1_555
O8 Si4 1.650087 1_555
O8 Si0 1.672415 1_555
O9 Si5 1.650087 1_555
O9 Si1 1.672415 1_555
O10 Si6 1.650087 1_555
O10 Si2 1.672415 1_555
O11 Si7 1.650087 1_555
O11 Si3 1.672415 1_555
O12 Si4 1.634207 1_555
O12 Zr1 2.096058 1_544
O13 Si5 1.634207 1_555
O13 Zr0 2.096058 1_566
O14 Si6 1.634207 1_555
O14 Zr3 2.096058 1_565
O15 Si7 1.634207 1_555
O15 Zr2 2.096058 1_545
O16 Si2 1.598629 1_555
O17 Si3 1.598629 1_555
O18 Si0 1.598629 1_655
O19 Si1 1.598629 1_455
O20 Si4 1.631455 1_655
O20 Zr0 2.113583 1_555
O21 Si5 1.631455 1_455
O21 Zr1 2.113583 1_555
O22 Si6 1.631455 1_555
O22 Zr2 2.113583 1_555
O23 Si7 1.631455 1_555
O23 Zr3 2.113583 1_555
O24 Si4 1.636952 1_555
O24 Zr2 2.106161 1_545
O25 Si5 1.636952 1_555
O25 Zr3 2.106161 1_565
O26 Si6 1.636952 1_555
O26 Zr0 2.106161 1_565
O27 Si7 1.636952 1_555
O27 Zr1 2.106161 1_545
F0 Na1 2.236920 1_555
F0 Na0 2.325155 1_556
F0 Na4 2.325957 1_556
F1 Na0 2.236920 1_555
F1 Na1 2.325155 1_554
F1 Na5 2.325957 1_554
F2 Na3 2.236920 1_655
F2 Na2 2.325155 1_555
F2 Na6 2.325957 1_555
F3 Na2 2.236920 1_455
F3 Na3 2.325155 1_555
F3 Na7 2.325957 1_555
F4 Zr0 2.125931 1_555
F4 Na4 2.316963 1_555
F4 Na1 2.404359 1_554
F4 Na5 2.414722 1_544
F5 Zr1 2.125931 1_555
F5 Na5 2.316963 1_555
F5 Na0 2.404359 1_556
F5 Na4 2.414722 1_566
F6 Zr2 2.125931 1_555
F6 Na6 2.316963 1_455
F6 Na3 2.404359 1_555
F6 Na7 2.414722 1_565
F7 Zr3 2.125931 1_555
F7 Na7 2.316963 1_655
F7 Na2 2.404359 1_555
F7 Na6 2.414722 1_545
