# generated using pymatgen
data_Y4ZrNi25
_symmetry_space_group_name_H-M   'P 1'
_cell_length_a   3.92627913
_cell_length_b   4.87616841
_cell_length_c   21.18086949
_cell_angle_alpha   83.39015294
_cell_angle_beta   90.00000000
_cell_angle_gamma   90.00000000
_symmetry_Int_Tables_number   1
_chemical_formula_structural   Y4ZrNi25
_chemical_formula_sum   'Y4 Zr1 Ni25'
_cell_volume   402.81650657
_cell_formula_units_Z   1
loop_
 _symmetry_equiv_pos_site_id
 _symmetry_equiv_pos_as_xyz
  1  'x, y, z'
loop_
 _atom_site_type_symbol
 _atom_site_label
 _atom_site_symmetry_multiplicity
 _atom_site_fract_x
 _atom_site_fract_y
 _atom_site_fract_z
 _atom_site_occupancy
  Y  Y0  1  -0.00000000  0.39991777  0.20011837  1
  Y  Y1  1  0.00000000  0.80000187  0.39994983  1
  Y  Y2  1  0.00000000  0.19995170  0.60005017  1
  Y  Y3  1  -0.00000000  0.60003615  0.79988163  1
  Zr  Zr0  1  0.00000000  -0.00002584  -0.00000000  1
  Ni  Ni0  1  0.00000000  0.93427415  0.13141999  1
  Ni  Ni1  1  -0.00000000  0.33325713  0.33343241  1
  Ni  Ni2  1  -0.00000000  0.73327134  0.53340880  1
  Ni  Ni3  1  -0.00000000  0.13326336  0.73342554  1
  Ni  Ni4  1  0.00000000  0.53229172  0.93534875  1
  Ni  Ni5  1  0.00000000  0.46764048  0.06465125  1
  Ni  Ni6  1  -0.00000000  0.86668890  0.26657446  1
  Ni  Ni7  1  0.00000000  0.26668014  0.46659120  1
  Ni  Ni8  1  -0.00000000  0.66668954  0.66656759  1
  Ni  Ni9  1  0.00000000  0.06569413  0.86858001  1
  Ni  Ni10  1  0.50000000  0.50000319  0.00000000  1
  Ni  Ni11  1  0.50000000  0.90004889  0.19989321  1
  Ni  Ni12  1  0.50000000  0.30000014  0.39999362  1
  Ni  Ni13  1  0.50000000  0.69999375  0.60000638  1
  Ni  Ni14  1  0.50000000  0.09994210  0.80010679  1
  Ni  Ni15  1  0.50000000  0.19753948  0.09875678  1
  Ni  Ni16  1  0.50000000  0.60011853  0.29997191  1
  Ni  Ni17  1  0.50000000  -0.00001216  0.50000118  1
  Ni  Ni18  1  0.50000000  0.39985546  0.70003205  1
  Ni  Ni19  1  0.50000000  0.80243471  0.90124543  1
  Ni  Ni20  1  0.50000000  0.70368015  0.09875457  1
  Ni  Ni21  1  0.50000000  0.09988750  0.29996795  1
  Ni  Ni22  1  0.50000000  0.49998902  0.49999882  1
  Ni  Ni23  1  0.50000000  0.90009043  0.70002809  1
  Ni  Ni24  1  0.50000000  0.29629627  0.90124322  1
loop_
_geom_bond_atom_site_label_1
_geom_bond_atom_site_label_2
_geom_bond_distance
_geom_bond_site_symmetry_2
Ni0 Ni20 2.403337 1_555
Ni0 Ni20 2.403337 1_455
Ni0 Ni15 2.403340 1_565
Ni0 Ni15 2.403340 1_465
Ni0 Ni11 2.435053 1_455
Ni0 Ni11 2.435053 1_555
Ni0 Zr0 2.765087 1_565
Ni0 Ni5 2.813777 1_565
Ni0 Ni5 2.813930 1_555
Ni0 Y0 2.834311 1_565
Ni0 Y0 2.834372 1_555
Ni0 Ni6 2.843661 1_555
Ni1 Ni12 2.411470 1_455
Ni1 Ni12 2.411470 1_555
Ni1 Ni21 2.415976 1_555
Ni1 Ni21 2.415976 1_455
Ni1 Ni16 2.416024 1_455
Ni1 Ni16 2.416024 1_555
Ni1 Ni7 2.801672 1_555
Ni1 Y0 2.804938 1_555
Ni1 Y1 2.811203 1_545
Ni1 Y1 2.811232 1_555
Ni1 Ni6 2.814780 1_545
Ni1 Ni6 2.814803 1_555
Ni2 Ni22 2.415361 1_555
Ni2 Ni22 2.415361 1_455
Ni2 Ni8 2.801672 1_555
Ni2 Y1 2.807987 1_555
Ni2 Y2 2.812512 1_555
Ni2 Y2 2.812521 1_565
Ni2 Ni7 2.814367 1_565
Ni2 Ni7 2.814367 1_555
Ni3 Y2 2.806228 1_555
Ni3 Y3 2.810572 1_545
Ni3 Y3 2.810579 1_555
Ni3 Ni8 2.814779 1_555
Ni3 Ni8 2.814803 1_545
Ni3 Ni9 2.843661 1_555
Ni4 Ni5 2.720535 1_556
Ni4 Zr0 2.791844 1_556
Ni4 Zr0 2.791912 1_566
Ni4 Ni9 2.813778 1_555
Ni4 Ni9 2.813930 1_565
Ni4 Y3 2.850239 1_555
Ni5 Zr0 2.791844 1_555
Ni5 Zr0 2.791912 1_565
Ni5 Y0 2.850239 1_555
Ni6 Y1 2.806228 1_555
Ni6 Y0 2.810572 1_555
Ni6 Y0 2.810579 1_565
Ni7 Y2 2.807987 1_555
Ni7 Y1 2.812512 1_545
Ni7 Y1 2.812521 1_555
Ni8 Y3 2.804938 1_555
Ni8 Y2 2.811203 1_555
Ni8 Y2 2.811232 1_565
Ni9 Zr0 2.765087 1_556
Ni9 Y3 2.834311 1_555
Ni9 Y3 2.834372 1_545
Ni10 Ni5 2.388356 1_555
Ni10 Ni5 2.388356 1_655
Ni10 Ni4 2.388356 1_654
Ni10 Ni4 2.388356 1_554
Ni10 Ni19 2.416581 1_554
Ni10 Ni20 2.416581 1_555
Ni10 Ni15 2.416699 1_555
Ni10 Ni24 2.416699 1_554
Ni10 Zr0 3.130093 1_565
Ni10 Zr0 3.130093 1_665
Ni10 Zr0 3.130313 1_555
Ni10 Zr0 3.130313 1_655
Ni11 Ni6 2.412937 1_655
Ni11 Ni6 2.412937 1_555
Ni11 Ni21 2.432706 1_565
Ni11 Ni16 2.432815 1_555
Ni11 Ni15 2.444941 1_565
Ni11 Ni20 2.445019 1_555
Ni11 Y0 3.130136 1_665
Ni11 Y0 3.130136 1_565
Ni11 Y0 3.130277 1_655
Ni11 Y0 3.130277 1_555
Ni12 Ni7 2.411914 1_655
Ni12 Ni7 2.411914 1_555
Ni12 Ni22 2.431722 1_555
Ni12 Ni17 2.431807 1_555
Ni12 Ni16 2.432306 1_555
Ni12 Ni21 2.432422 1_555
Ni12 Y1 3.130127 1_655
Ni12 Y1 3.130127 1_555
Ni12 Y1 3.130280 1_645
Ni12 Y1 3.130280 1_545
Ni13 Ni8 2.411470 1_555
Ni13 Ni8 2.411470 1_655
Ni13 Ni2 2.411914 1_655
Ni13 Ni2 2.411914 1_555
Ni13 Ni17 2.431722 1_565
Ni13 Ni22 2.431807 1_555
Ni13 Ni23 2.432306 1_555
Ni13 Ni18 2.432422 1_555
Ni13 Y2 3.130127 1_565
Ni13 Y2 3.130127 1_665
Ni13 Y2 3.130280 1_655
Ni13 Y2 3.130280 1_555
Ni14 Ni3 2.412937 1_555
Ni14 Ni3 2.412937 1_655
Ni14 Ni18 2.432706 1_555
Ni14 Ni23 2.432815 1_545
Ni14 Ni9 2.435053 1_555
Ni14 Ni9 2.435053 1_655
Ni14 Ni24 2.444941 1_555
Ni14 Ni19 2.445019 1_545
Ni14 Y3 3.130136 1_555
Ni14 Y3 3.130136 1_655
Ni14 Y3 3.130277 1_645
Ni14 Y3 3.130277 1_545
Ni15 Ni20 2.408147 1_545
Ni15 Ni5 2.427214 1_655
Ni15 Ni5 2.427214 1_555
Ni15 Ni20 2.468022 1_555
Ni15 Zr0 3.101827 1_555
Ni15 Zr0 3.101827 1_655
Ni15 Y0 3.150364 1_655
Ni15 Y0 3.150364 1_555
Ni16 Ni6 2.414999 1_555
Ni16 Ni6 2.414999 1_655
Ni16 Ni21 2.436948 1_565
Ni16 Ni21 2.439220 1_555
Ni16 Y0 3.123362 1_655
Ni16 Y0 3.123362 1_555
Ni16 Y1 3.124637 1_555
Ni16 Y1 3.124637 1_655
Ni17 Ni7 2.415361 1_555
Ni17 Ni7 2.415361 1_655
Ni17 Ni2 2.415409 1_545
Ni17 Ni2 2.415409 1_645
Ni17 Ni22 2.438084 1_555
Ni17 Ni22 2.438084 1_545
Ni17 Y2 3.125865 1_655
Ni17 Y2 3.125865 1_555
Ni17 Y1 3.125942 1_645
Ni17 Y1 3.125942 1_545
Ni18 Ni3 2.415033 1_555
Ni18 Ni3 2.415033 1_655
Ni18 Ni8 2.415976 1_655
Ni18 Ni8 2.415976 1_555
Ni18 Ni23 2.436948 1_545
Ni18 Ni23 2.439220 1_555
Ni18 Y3 3.123264 1_555
Ni18 Y3 3.123264 1_655
Ni18 Y2 3.124736 1_655
Ni18 Y2 3.124736 1_555
Ni19 Ni9 2.403336 1_665
Ni19 Ni9 2.403336 1_565
Ni19 Ni24 2.408147 1_565
Ni19 Ni4 2.427307 1_555
Ni19 Ni4 2.427307 1_655
Ni19 Ni24 2.468022 1_555
Ni19 Zr0 3.101745 1_566
Ni19 Zr0 3.101745 1_666
Ni19 Y3 3.150436 1_655
Ni19 Y3 3.150436 1_555
Ni20 Ni5 2.427307 1_655
Ni20 Ni5 2.427307 1_555
Ni20 Zr0 3.101745 1_665
Ni20 Zr0 3.101745 1_565
Ni20 Y0 3.150436 1_555
Ni20 Y0 3.150436 1_655
Ni21 Ni6 2.415033 1_645
Ni21 Ni6 2.415033 1_545
Ni21 Y0 3.123264 1_555
Ni21 Y0 3.123264 1_655
Ni21 Y1 3.124736 1_645
Ni21 Y1 3.124736 1_545
Ni22 Ni7 2.415409 1_555
Ni22 Ni7 2.415409 1_655
Ni22 Y1 3.125865 1_555
Ni22 Y1 3.125865 1_655
Ni22 Y2 3.125942 1_555
Ni22 Y2 3.125942 1_655
Ni23 Ni3 2.414999 1_665
Ni23 Ni3 2.414999 1_565
Ni23 Ni8 2.416024 1_555
Ni23 Ni8 2.416024 1_655
Ni23 Y3 3.123362 1_655
Ni23 Y3 3.123362 1_555
Ni23 Y2 3.124637 1_565
Ni23 Y2 3.124637 1_665
Ni24 Ni9 2.403340 1_655
Ni24 Ni9 2.403340 1_555
Ni24 Ni4 2.427214 1_555
Ni24 Ni4 2.427214 1_655
Ni24 Zr0 3.101827 1_556
Ni24 Zr0 3.101827 1_656
Ni24 Y3 3.150364 1_555
Ni24 Y3 3.150364 1_655
