# generated using pymatgen
data_Mo13O33
_symmetry_space_group_name_H-M   'P 1'
_cell_length_a   3.90644200
_cell_length_b   11.37174948
_cell_length_c   15.03208904
_cell_angle_alpha   93.64732286
_cell_angle_beta   97.41968772
_cell_angle_gamma   99.87768755
_symmetry_Int_Tables_number   1
_chemical_formula_structural   Mo13O33
_chemical_formula_sum   'Mo13 O33'
_cell_volume   649.84535139
_cell_formula_units_Z   1
loop_
 _symmetry_equiv_pos_site_id
 _symmetry_equiv_pos_as_xyz
  1  'x, y, z'
loop_
 _atom_site_type_symbol
 _atom_site_label
 _atom_site_symmetry_multiplicity
 _atom_site_fract_x
 _atom_site_fract_y
 _atom_site_fract_z
 _atom_site_occupancy
  Mo  Mo0  1  0.01737500  0.94183300  0.11695800  1
  Mo  Mo1  1  0.97267600  0.05497400  0.88038000  1
  Mo  Mo2  1  0.74620100  0.71403900  0.78737300  1
  Mo  Mo3  1  0.25489400  0.28565700  0.21298000  1
  Mo  Mo4  1  0.87716300  0.13871000  0.63296400  1
  Mo  Mo5  1  0.12271300  0.85937400  0.36561900  1
  Mo  Mo6  1  0.90220500  0.52580100  0.26958200  1
  Mo  Mo7  1  0.10329100  0.47390300  0.73134100  1
  Mo  Mo8  1  0.68329700  0.80841700  0.54219500  1
  Mo  Mo9  1  0.31323800  0.18963800  0.45713800  1
  Mo  Mo10  1  0.81829700  0.60986600  0.02657700  1
  Mo  Mo11  1  0.17891800  0.38416000  0.97291400  1
  Mo  Mo12  1  0.75193200  0.49933000  0.50002300  1
  O  O0  1  0.62067100  0.84240600  0.39840800  1
  O  O1  1  0.37581200  0.15715200  0.59955400  1
  O  O2  1  0.68918900  0.75326800  0.65213800  1
  O  O3  1  0.30927800  0.24791800  0.34830000  1
  O  O4  1  0.54203500  0.95386200  0.12941300  1
  O  O5  1  0.46247900  0.04395600  0.87382600  1
  O  O6  1  0.78629200  0.33480700  0.22831600  1
  O  O7  1  0.21535100  0.66508400  0.77123800  1
  O  O8  1  0.55430200  0.62904400  0.48389400  1
  O  O9  1  0.43709500  0.37110000  0.51551500  1
  O  O10  1  0.84778100  0.86915800  0.82368200  1
  O  O11  1  0.15462400  0.13073800  0.17726500  1
  O  O12  1  0.93871300  0.10700100  0.74811100  1
  O  O13  1  0.06498800  0.89907800  0.24906300  1
  O  O14  1  0.92901000  0.78382100  0.07586500  1
  O  O15  1  0.07395700  0.21916300  0.92606400  1
  O  O16  1  0.63001200  0.52535200  0.73665600  1
  O  O17  1  0.37379600  0.47507400  0.26422200  1
  O  O18  1  0.77230800  0.97528800  0.58156700  1
  O  O19  1  0.21943100  0.02644800  0.41564300  1
  O  O20  1  0.85809300  0.56856900  0.14676000  1
  O  O21  1  0.14519000  0.43340000  0.85279900  1
  O  O22  1  0.00312400  0.00069000  0.00592100  1
  O  O23  1  0.99196200  0.32417300  0.67888500  1
  O  O24  1  0.00616400  0.67773900  0.31935900  1
  O  O25  1  0.93856400  0.46636700  0.40044800  1
  O  O26  1  0.06960300  0.53351800  0.59969700  1
  O  O27  1  0.78365300  0.66055300  0.90909100  1
  O  O28  1  0.21884800  0.34117000  0.09249400  1
  O  O29  1  0.84122600  0.19124600  0.49507500  1
  O  O30  1  0.15471200  0.80937700  0.50548100  1
  O  O31  1  0.70499800  0.42745700  0.98125600  1
  O  O32  1  0.29413700  0.57032000  0.01795200  1
loop_
_geom_bond_atom_site_label_1
_geom_bond_atom_site_label_2
_geom_bond_distance
_geom_bond_site_symmetry_2
Mo0 O14 1.822191 1_455
Mo0 O22 1.835196 1_565
Mo0 O4 1.917153 1_455
Mo0 O4 2.013922 1_555
Mo0 O13 2.067103 1_555
Mo0 O11 2.226095 1_565
Mo1 O15 1.904599 1_655
Mo1 O5 1.953413 1_655
Mo1 O5 1.964615 1_555
Mo1 O22 2.017909 1_656
Mo1 O12 2.104604 1_555
Mo1 O10 2.176969 1_545
Mo2 O10 1.774368 1_555
Mo2 O27 1.960113 1_555
Mo2 O7 2.031245 1_555
Mo2 O7 2.043339 1_655
Mo2 O2 2.100877 1_555
Mo2 O16 2.181659 1_555
Mo3 O11 1.770267 1_555
Mo3 O28 1.951596 1_555
Mo3 O6 2.033896 1_555
Mo3 O6 2.039643 1_455
Mo3 O3 2.097089 1_555
Mo3 O17 2.191354 1_555
Mo4 O12 1.784802 1_555
Mo4 O18 1.921652 1_545
Mo4 O1 2.008036 1_555
Mo4 O1 2.053437 1_655
Mo4 O23 2.129784 1_555
Mo4 O29 2.187266 1_555
Mo5 O13 1.832492 1_555
Mo5 O19 1.953582 1_565
Mo5 O0 1.989320 1_555
Mo5 O0 2.063587 1_455
Mo5 O24 2.090458 1_555
Mo5 O30 2.206271 1_555
Mo6 O24 1.796217 1_655
Mo6 O20 1.932815 1_555
Mo6 O17 2.032275 1_655
Mo6 O17 2.035379 1_555
Mo6 O25 2.115830 1_555
Mo6 O6 2.173880 1_555
Mo7 O23 1.787909 1_455
Mo7 O21 1.904740 1_555
Mo7 O16 2.030023 1_555
Mo7 O16 2.042108 1_455
Mo7 O26 2.127656 1_555
Mo7 O7 2.172013 1_555
Mo8 O2 1.803374 1_555
Mo8 O18 1.910420 1_555
Mo8 O30 1.988061 1_655
Mo8 O30 2.069452 1_555
Mo8 O8 2.118620 1_555
Mo8 O0 2.209783 1_555
Mo9 O3 1.803083 1_555
Mo9 O19 1.878181 1_555
Mo9 O29 2.001821 1_455
Mo9 O29 2.064370 1_555
Mo9 O9 2.140037 1_555
Mo9 O1 2.185347 1_555
Mo10 O27 1.887874 1_554
Mo10 O20 1.889173 1_555
Mo10 O32 2.003987 1_655
Mo10 O32 2.004945 1_555
Mo10 O14 2.021482 1_555
Mo10 O31 2.095262 1_554
Mo11 O28 1.886801 1_556
Mo11 O15 1.917801 1_555
Mo11 O21 1.919249 1_555
Mo11 O31 2.012573 1_455
Mo11 O31 2.014948 1_555
Mo11 O32 2.134132 1_556
Mo12 O9 1.787479 1_555
Mo12 O26 1.793379 1_655
Mo12 O25 1.793529 1_555
Mo12 O8 1.794027 1_555
