# generated using pymatgen
data_NaP3PbO9
_symmetry_space_group_name_H-M   'P 1'
_cell_length_a   5.78847600
_cell_length_b   11.12052900
_cell_length_c   12.92814200
_cell_angle_alpha   90.00000000
_cell_angle_beta   90.00000000
_cell_angle_gamma   90.00000000
_symmetry_Int_Tables_number   1
_chemical_formula_structural   NaP3PbO9
_chemical_formula_sum   'Na4 P12 Pb4 O36'
_cell_volume   832.19633268
_cell_formula_units_Z   4
loop_
 _symmetry_equiv_pos_site_id
 _symmetry_equiv_pos_as_xyz
  1  'x, y, z'
loop_
 _atom_site_type_symbol
 _atom_site_label
 _atom_site_symmetry_multiplicity
 _atom_site_fract_x
 _atom_site_fract_y
 _atom_site_fract_z
 _atom_site_occupancy
  Na  Na0  1  0.39039900  0.39358600  0.41199900  1
  Na  Na1  1  0.10960100  0.60641400  0.91199900  1
  Na  Na2  1  0.60960100  0.89358600  0.08800100  1
  Na  Na3  1  0.89039900  0.10641400  0.58800100  1
  P  P0  1  0.08664800  0.70797900  0.18569300  1
  P  P1  1  0.41335200  0.29202100  0.68569300  1
  P  P2  1  0.91335200  0.20797900  0.31430700  1
  P  P3  1  0.58664800  0.79202100  0.81430700  1
  P  P4  1  0.10186300  0.34578800  0.14460500  1
  P  P5  1  0.39813700  0.65421200  0.64460500  1
  P  P6  1  0.89813700  0.84578800  0.35539500  1
  P  P7  1  0.60186300  0.15421200  0.85539500  1
  P  P8  1  0.10435400  0.08248500  0.13192200  1
  P  P9  1  0.39564600  0.91751500  0.63192200  1
  P  P10  1  0.89564600  0.58248500  0.36807800  1
  P  P11  1  0.60435400  0.41751500  0.86807800  1
  Pb  Pb0  1  0.40310300  0.02840000  0.36518400  1
  Pb  Pb1  1  0.09689700  0.97160000  0.86518400  1
  Pb  Pb2  1  0.59689700  0.52840000  0.13481600  1
  Pb  Pb3  1  0.90310300  0.47160000  0.63481600  1
  O  O0  1  0.08967800  0.82138900  0.26438400  1
  O  O1  1  0.41032200  0.17861100  0.76438400  1
  O  O2  1  0.91032200  0.32138900  0.23561600  1
  O  O3  1  0.58967800  0.67861100  0.73561600  1
  O  O4  1  0.17892200  0.29848300  0.63632300  1
  O  O5  1  0.32107800  0.70151700  0.13632300  1
  O  O6  1  0.82107800  0.79848300  0.86367700  1
  O  O7  1  0.67892200  0.20151700  0.36367700  1
  O  O8  1  0.50072300  0.56110300  0.57488100  1
  O  O9  1  0.99927700  0.43889700  0.07488100  1
  O  O10  1  0.49927700  0.06110300  0.92511900  1
  O  O11  1  0.00072300  0.93889700  0.42511900  1
  O  O12  1  0.12519900  0.21209600  0.38217700  1
  O  O13  1  0.37480100  0.78790400  0.88217700  1
  O  O14  1  0.87480100  0.71209600  0.11782300  1
  O  O15  1  0.62519900  0.28790400  0.61782300  1
  O  O16  1  0.10017600  0.21745100  0.08430000  1
  O  O17  1  0.39982400  0.78254900  0.58430000  1
  O  O18  1  0.89982400  0.71745100  0.41570000  1
  O  O19  1  0.60017600  0.28254900  0.91570000  1
  O  O20  1  0.98033100  0.00128900  0.05750000  1
  O  O21  1  0.51966900  0.99871100  0.55750000  1
  O  O22  1  0.01966900  0.50128900  0.44250000  1
  O  O23  1  0.48033100  0.49871100  0.94250000  1
  O  O24  1  0.34332700  0.04808000  0.16770100  1
  O  O25  1  0.15667300  0.95192000  0.66770100  1
  O  O26  1  0.65667300  0.54808000  0.33229900  1
  O  O27  1  0.84332700  0.45192000  0.83229900  1
  O  O28  1  0.06429400  0.59649000  0.26717600  1
  O  O29  1  0.43570600  0.40351000  0.76717600  1
  O  O30  1  0.93570600  0.09649000  0.23282400  1
  O  O31  1  0.56429400  0.90351000  0.73282400  1
  O  O32  1  0.33287300  0.36615200  0.19543700  1
  O  O33  1  0.16712700  0.63384800  0.69543700  1
  O  O34  1  0.66712700  0.86615200  0.30456300  1
  O  O35  1  0.83287300  0.13384800  0.80456300  1
loop_
_geom_bond_atom_site_label_1
_geom_bond_atom_site_label_2
_geom_bond_distance
_geom_bond_site_symmetry_2
Na0 O22 2.489008 1_555
Na0 O26 2.527657 1_555
Na0 O12 2.564874 1_555
Na0 O7 2.782380 1_555
Na0 O32 2.835934 1_555
Na0 O8 2.883117 1_555
Na1 O23 2.489008 1_555
Na1 O27 2.527657 1_455
Na1 O13 2.564874 1_555
Na1 O6 2.782380 1_455
Na1 O33 2.835934 1_555
Na1 O9 2.883117 1_456
Na2 O20 2.489008 1_565
Na2 O24 2.527657 1_565
Na2 O14 2.564874 1_555
Na2 O5 2.782380 1_555
Na2 O34 2.835934 1_555
Na2 O10 2.883117 1_564
Na3 O21 2.489008 1_545
Na3 O25 2.527657 1_645
Na3 O15 2.564874 1_555
Na3 O4 2.782380 1_655
Na3 O35 2.835934 1_555
Na3 O11 2.883117 1_645
O0 P0 1.620444 1_555
O0 P6 1.639298 1_455
O1 P1 1.620444 1_555
O1 P7 1.639298 1_555
O2 P2 1.620444 1_555
O2 P4 1.639298 1_655
O3 P3 1.620444 1_555
O3 P5 1.639298 1_555
O4 P1 1.501323 1_555
O4 Pb3 2.501126 1_455
O5 P0 1.501323 1_555
O5 Pb2 2.501126 1_555
O6 P3 1.501323 1_555
O6 Pb1 2.501126 1_655
O7 P2 1.501323 1_555
O7 Pb0 2.501126 1_555
O8 P5 1.495741 1_555
O8 Pb3 2.648787 1_555
O9 P4 1.495741 1_655
O9 Pb2 2.648787 1_555
O10 P7 1.495741 1_555
O10 Pb1 2.648787 1_545
O11 P6 1.495741 1_455
O11 Pb0 2.648787 1_565
O12 P2 1.508551 1_455
O12 Pb0 2.609407 1_555
O13 P3 1.508551 1_555
O13 Pb1 2.609407 1_555
O14 P0 1.508551 1_655
O14 Pb2 2.609407 1_555
O15 P1 1.508551 1_555
O15 Pb3 2.609407 1_555
O16 P8 1.622439 1_555
O16 P4 1.626269 1_555
O17 P9 1.622439 1_555
O17 P5 1.626269 1_555
O18 P10 1.622439 1_555
O18 P6 1.626269 1_555
O19 P11 1.622439 1_555
O19 P7 1.626269 1_555
O20 P8 1.502132 1_655
O20 Pb1 2.597289 1_644
O21 P9 1.502132 1_555
O21 Pb0 2.597289 1_565
O22 P10 1.502132 1_455
O22 Pb3 2.597289 1_455
O23 P11 1.502132 1_555
O23 Pb2 2.597289 1_556
O24 P8 1.507923 1_555
O24 Pb0 2.585707 1_555
O25 P9 1.507923 1_555
O25 Pb1 2.585707 1_555
O26 P10 1.507923 1_555
O26 Pb2 2.585707 1_555
O27 P11 1.507923 1_555
O27 Pb3 2.585707 1_555
O28 P0 1.632051 1_555
O28 P10 1.636737 1_455
O29 P1 1.632051 1_555
O29 P11 1.636737 1_555
O30 P2 1.632051 1_555
O30 P8 1.636737 1_655
O31 P3 1.632051 1_555
O31 P9 1.636737 1_555
O32 P4 1.507063 1_555
O32 Pb2 2.491052 1_555
O33 P5 1.507063 1_555
O33 Pb3 2.491052 1_455
O34 P6 1.507063 1_555
O34 Pb0 2.491052 1_565
O35 P7 1.507063 1_555
O35 Pb1 2.491052 1_645
