# generated using pymatgen
data_Mg2ClO7
_symmetry_space_group_name_H-M   'P 1'
_cell_length_a   6.67900400
_cell_length_b   6.87335645
_cell_length_c   7.57147810
_cell_angle_alpha   112.68180305
_cell_angle_beta   101.74022990
_cell_angle_gamma   94.47370015
_symmetry_Int_Tables_number   1
_chemical_formula_structural   Mg2ClO7
_chemical_formula_sum   'Mg4 Cl2 O14'
_cell_volume   309.24845900
_cell_formula_units_Z   2
loop_
 _symmetry_equiv_pos_site_id
 _symmetry_equiv_pos_as_xyz
  1  'x, y, z'
loop_
 _atom_site_type_symbol
 _atom_site_label
 _atom_site_symmetry_multiplicity
 _atom_site_fract_x
 _atom_site_fract_y
 _atom_site_fract_z
 _atom_site_occupancy
  Mg  Mg0  1  0.15437800  0.93970400  0.38599900  1
  Mg  Mg1  1  0.84562200  0.06029600  0.61400100  1
  Mg  Mg2  1  0.19474000  0.94285900  0.88576400  1
  Mg  Mg3  1  0.80526000  0.05714100  0.11423600  1
  Cl  Cl0  1  0.28041100  0.50077100  0.84267900  1
  Cl  Cl1  1  0.71958900  0.49922900  0.15732100  1
  O  O0  1  0.04969800  0.85100200  0.08356700  1
  O  O1  1  0.95030200  0.14899800  0.91643300  1
  O  O2  1  0.05836100  0.85430900  0.58756000  1
  O  O3  1  0.94163900  0.14569100  0.41244000  1
  O  O4  1  0.24765100  0.00420600  0.17572700  1
  O  O5  1  0.75234900  0.99579400  0.82427300  1
  O  O6  1  0.25148900  0.03624200  0.67850600  1
  O  O7  1  0.74851100  0.96375800  0.32149400  1
  O  O8  1  0.39826400  0.73762000  0.88616200  1
  O  O9  1  0.60173600  0.26238000  0.11383800  1
  O  O10  1  0.36957300  0.66837400  0.35210900  1
  O  O11  1  0.63042700  0.33162600  0.64789100  1
  O  O12  1  0.29266100  0.49075800  0.33641000  1
  O  O13  1  0.70733900  0.50924200  0.66359000  1
loop_
_geom_bond_atom_site_label_1
_geom_bond_atom_site_label_2
_geom_bond_distance
_geom_bond_site_symmetry_2
Mg0 O6 1.995207 1_565
Mg0 O4 2.006047 1_565
Mg0 O2 2.028592 1_555
Mg0 O3 2.067496 1_465
Mg0 O0 2.075878 1_555
Mg0 O10 2.410156 1_555
Mg1 O7 1.995207 1_545
Mg1 O5 2.006047 1_545
Mg1 O3 2.028592 1_555
Mg1 O2 2.067496 1_645
Mg1 O1 2.075878 1_555
Mg1 O11 2.410156 1_555
Mg2 O6 1.999770 1_565
Mg2 O4 2.017362 1_566
Mg2 O8 2.034352 1_555
Mg2 O2 2.077197 1_555
Mg2 O0 2.191874 1_556
Mg2 O1 2.233433 1_465
Mg3 O7 1.999770 1_545
Mg3 O5 2.017362 1_544
Mg3 O9 2.034352 1_555
Mg3 O3 2.077197 1_555
Mg3 O1 2.191874 1_554
Mg3 O0 2.233433 1_645
Cl0 O8 1.630790 1_555
Cl1 O9 1.630790 1_555
O0 O4 1.477998 1_565
O1 O5 1.477998 1_545
O2 O6 1.557098 1_565
O3 O7 1.557098 1_545
O10 O12 1.238472 1_555
O11 O13 1.238472 1_555
