# generated using pymatgen
data_LiNi3O4
_symmetry_space_group_name_H-M   'P 1'
_cell_length_a   5.87265861
_cell_length_b   5.91381788
_cell_length_c   5.91183756
_cell_angle_alpha   120.27542004
_cell_angle_beta   90.50892474
_cell_angle_gamma   59.93715172
_symmetry_Int_Tables_number   1
_chemical_formula_structural   LiNi3O4
_chemical_formula_sum   'Li2 Ni6 O8'
_cell_volume   145.07695750
_cell_formula_units_Z   2
loop_
 _symmetry_equiv_pos_site_id
 _symmetry_equiv_pos_as_xyz
  1  'x, y, z'
loop_
 _atom_site_type_symbol
 _atom_site_label
 _atom_site_symmetry_multiplicity
 _atom_site_fract_x
 _atom_site_fract_y
 _atom_site_fract_z
 _atom_site_occupancy
  Li  Li0  1  0.50003300  0.50002700  0.50000100  1
  Li  Li1  1  0.99995200  0.50000400  0.50002000  1
  Ni  Ni0  1  0.00000500  0.49994300  0.99995600  1
  Ni  Ni1  1  0.50006400  0.99997200  0.00001400  1
  Ni  Ni2  1  0.49995500  0.00010500  0.50003700  1
  Ni  Ni3  1  0.49996700  0.50001900  0.99997700  1
  Ni  Ni4  1  0.00010800  0.99986500  0.99994000  1
  Ni  Ni5  1  0.00003200  0.00002200  0.50006200  1
  O  O0  1  0.27540800  0.49965700  0.76257000  1
  O  O1  1  0.75219300  0.50075100  0.77913100  1
  O  O2  1  0.72449600  0.50033000  0.23734300  1
  O  O3  1  0.24776600  0.49925500  0.22081400  1
  O  O4  1  0.75323300  0.99423600  0.74725500  1
  O  O5  1  0.23139300  0.03777400  0.76910700  1
  O  O6  1  0.24678400  0.00578100  0.25275300  1
  O  O7  1  0.76861100  0.96225900  0.23101800  1
loop_
_geom_bond_atom_site_label_1
_geom_bond_atom_site_label_2
_geom_bond_distance
_geom_bond_site_symmetry_2
Li0 O2 2.047031 1_555
Li0 O0 2.047528 1_555
Li0 O1 2.207219 1_555
Li0 O3 2.207876 1_555
Li0 O5 2.247173 1_565
Li0 O7 2.247261 1_545
Li1 O6 2.065292 1_655
Li1 O4 2.065330 1_555
Li1 O1 2.206493 1_555
Li1 O3 2.207122 1_655
Li1 O0 2.231879 1_655
Li1 O2 2.232398 1_555
Ni0 O5 1.931343 1_555
Ni0 O7 1.931957 1_456
Ni0 O3 1.946164 1_556
Ni0 O1 1.946232 1_455
Ni0 O0 2.149535 1_555
Ni0 O2 2.149589 1_456
Ni1 O7 2.078078 1_555
Ni1 O5 2.078214 1_564
Ni1 O1 2.093100 1_554
Ni1 O4 2.093400 1_554
Ni1 O3 2.093418 1_565
Ni1 O6 2.093475 1_565
Ni2 O6 2.075979 1_555
Ni2 O4 2.076159 1_545
Ni2 O0 2.094130 1_555
Ni2 O2 2.095118 1_545
Ni2 O7 2.097747 1_545
Ni2 O5 2.098255 1_555
Ni3 O2 1.916973 1_556
Ni3 O0 1.917261 1_555
Ni3 O3 1.986232 1_556
Ni3 O1 1.986244 1_555
Ni3 O6 2.113512 1_566
Ni3 O4 2.113600 1_545
Ni4 O6 2.072000 1_566
Ni4 O4 2.072279 1_455
Ni4 O0 2.096830 1_555
Ni4 O2 2.097996 1_466
Ni4 O5 2.098541 1_565
Ni4 O7 2.099090 1_456
Ni5 O5 2.081644 1_555
Ni5 O7 2.081890 1_445
Ni5 O4 2.091687 1_445
Ni5 O6 2.091867 1_555
Ni5 O1 2.099411 1_455
Ni5 O3 2.099650 1_545
