# generated using pymatgen
data_Ba2NbVO6
_symmetry_space_group_name_H-M   'P 1'
_cell_length_a   8.24995412
_cell_length_b   10.03455573
_cell_length_c   8.24535389
_cell_angle_alpha   114.23048188
_cell_angle_beta   89.83954814
_cell_angle_gamma   65.85173872
_symmetry_Int_Tables_number   1
_chemical_formula_structural   Ba2NbVO6
_chemical_formula_sum   'Ba8 Nb4 V4 O24'
_cell_volume   555.90317538
_cell_formula_units_Z   4
loop_
 _symmetry_equiv_pos_site_id
 _symmetry_equiv_pos_as_xyz
  1  'x, y, z'
loop_
 _atom_site_type_symbol
 _atom_site_label
 _atom_site_symmetry_multiplicity
 _atom_site_fract_x
 _atom_site_fract_y
 _atom_site_fract_z
 _atom_site_occupancy
  Ba  Ba0  1  0.37609300  0.74953400  0.12428300  1
  Ba  Ba1  1  0.12583100  0.24951300  0.87557100  1
  Ba  Ba2  1  0.87455700  0.74956600  0.62543900  1
  Ba  Ba3  1  0.62463600  0.24962300  0.37410100  1
  Ba  Ba4  1  0.62555500  0.25046600  0.87427100  1
  Ba  Ba5  1  0.37385600  0.75050700  0.62433500  1
  Ba  Ba6  1  0.12379400  0.25045000  0.37602100  1
  Ba  Ba7  1  0.87564700  0.75039800  0.12601600  1
  Nb  Nb0  1  0.00000500  0.99998900  0.49999900  1
  Nb  Nb1  1  0.74998600  0.50001600  0.25000700  1
  Nb  Nb2  1  0.50000500  0.99999300  0.99999400  1
  Nb  Nb3  1  0.25000100  0.50000000  0.75000600  1
  V  V0  1  0.50002100  0.99995700  0.49997200  1
  V  V1  1  0.25017300  0.49965900  0.24981900  1
  V  V2  1  0.74999400  0.50001700  0.75000700  1
  V  V3  1  0.99994100  0.00011200  0.00005300  1
  O  O0  1  0.00045900  0.99982700  0.25282600  1
  O  O1  1  0.75037700  0.50015100  0.00423900  1
  O  O2  1  0.50027800  0.00013400  0.75285400  1
  O  O3  1  0.24944500  0.49977600  0.50406400  1
  O  O4  1  0.87511200  0.24979800  0.62494000  1
  O  O5  1  0.62513900  0.74982700  0.37495600  1
  O  O6  1  0.37512200  0.24969800  0.12483900  1
  O  O7  1  0.12526100  0.74962000  0.87484400  1
  O  O8  1  0.75463600  0.00002700  0.50038300  1
  O  O9  1  0.50331600  0.49991300  0.24926100  1
  O  O10  1  0.25452800  0.99986100  0.00030400  1
  O  O11  1  0.00316100  0.50003600  0.75045600  1
  O  O12  1  0.99966600  0.99994900  0.74707800  1
  O  O13  1  0.74937900  0.50032100  0.49598500  1
  O  O14  1  0.49958300  0.00017400  0.24729500  1
  O  O15  1  0.25080200  0.49973400  0.99569300  1
  O  O16  1  0.12499500  0.75007300  0.37504300  1
  O  O17  1  0.87477100  0.25032200  0.12510000  1
  O  O18  1  0.62474100  0.75046600  0.87519300  1
  O  O19  1  0.37481600  0.25025500  0.62509400  1
  O  O20  1  0.24529900  0.00011600  0.49969200  1
  O  O21  1  0.99677600  0.49989300  0.25064800  1
  O  O22  1  0.74551800  0.00001600  0.99963100  1
  O  O23  1  0.49672800  0.50021400  0.74968600  1
loop_
_geom_bond_atom_site_label_1
_geom_bond_atom_site_label_2
_geom_bond_distance
_geom_bond_site_symmetry_2
Ba0 O23 2.896963 1_554
Ba0 O14 2.898380 1_565
Ba0 O1 2.898979 1_555
Ba0 O9 2.900244 1_555
Ba0 O10 2.900480 1_555
Ba0 O15 2.901788 1_554
Ba0 O18 2.904164 1_554
Ba0 O20 2.905342 1_565
Ba0 O0 2.909173 1_555
Ba0 O5 2.918429 1_555
Ba0 O16 2.919587 1_555
Ba0 O7 2.921664 1_554
Ba1 O10 2.899217 1_546
Ba1 O2 2.899659 1_555
Ba1 O21 2.902666 1_456
Ba1 O15 2.903599 1_555
Ba1 O20 2.904844 1_555
Ba1 O12 2.904872 1_445
Ba1 O11 2.908779 1_555
Ba1 O1 2.909089 1_456
Ba1 O17 2.910646 1_456
Ba1 O6 2.911650 1_556
Ba1 O19 2.913102 1_555
Ba1 O4 2.927954 1_455
Ba2 O13 2.896438 1_555
Ba2 O22 2.897691 1_565
Ba2 O21 2.898968 1_555
Ba2 O11 2.899818 1_655
Ba2 O2 2.901963 1_565
Ba2 O3 2.903537 1_655
Ba2 O18 2.904165 1_555
Ba2 O12 2.905686 1_555
Ba2 O8 2.908085 1_565
Ba2 O5 2.919498 1_555
Ba2 O16 2.919713 1_655
Ba2 O7 2.920717 1_655
Ba3 O22 2.897016 1_554
Ba3 O14 2.897221 1_555
Ba3 O9 2.905210 1_555
Ba3 O23 2.906153 1_555
Ba3 O13 2.906271 1_555
Ba3 O3 2.906292 1_555
Ba3 O8 2.907990 1_555
Ba3 O0 2.909055 1_645
Ba3 O17 2.910956 1_555
Ba3 O6 2.912920 1_555
Ba3 O19 2.912964 1_555
Ba3 O4 2.927744 1_555
Ba4 O8 2.895890 1_555
Ba4 O1 2.898206 1_556
Ba4 O23 2.899194 1_555
Ba4 O9 2.899489 1_556
Ba4 O12 2.900830 1_545
Ba4 O15 2.901246 1_555
Ba4 O4 2.901541 1_555
Ba4 O2 2.906242 1_555
Ba4 O22 2.909766 1_555
Ba4 O19 2.919598 1_555
Ba4 O17 2.920343 1_556
Ba4 O6 2.922208 1_556
Ba5 O20 2.898304 1_565
Ba5 O12 2.898329 1_455
Ba5 O9 2.903280 1_555
Ba5 O3 2.904760 1_555
Ba5 O10 2.905269 1_556
Ba5 O2 2.906928 1_565
Ba5 O23 2.908153 1_555
Ba5 O13 2.908212 1_555
Ba5 O16 2.909277 1_555
Ba5 O5 2.911829 1_555
Ba5 O7 2.911871 1_555
Ba5 O18 2.930246 1_555
Ba6 O11 2.896777 1_555
Ba6 O0 2.897320 1_545
Ba6 O20 2.898745 1_555
Ba6 O3 2.899760 1_555
Ba6 O21 2.901005 1_455
Ba6 O13 2.901168 1_455
Ba6 O4 2.901730 1_455
Ba6 O10 2.907156 1_545
Ba6 O14 2.910046 1_555
Ba6 O17 2.919750 1_455
Ba6 O19 2.920647 1_555
Ba6 O6 2.922146 1_555
Ba7 O0 2.895636 1_655
Ba7 O8 2.896464 1_565
Ba7 O11 2.905346 1_654
Ba7 O1 2.905435 1_555
Ba7 O21 2.905881 1_555
Ba7 O15 2.907537 1_654
Ba7 O22 2.908803 1_564
Ba7 O14 2.910414 1_565
Ba7 O16 2.910581 1_655
Ba7 O7 2.911964 1_654
Ba7 O5 2.912034 1_555
Ba7 O18 2.930165 1_554
Nb0 O8 2.024120 1_465
Nb0 O20 2.024181 1_565
Nb0 O0 2.037354 1_555
Nb0 O12 2.037413 1_455
Nb0 O4 2.041495 1_465
Nb0 O16 2.042371 1_555
Nb1 O13 2.026911 1_555
Nb1 O1 2.026995 1_555
Nb1 O9 2.035464 1_555
Nb1 O21 2.035525 1_555
Nb1 O17 2.040555 1_555
Nb1 O5 2.041511 1_555
Nb2 O22 2.025559 1_565
Nb2 O10 2.025711 1_556
Nb2 O14 2.038331 1_566
Nb2 O2 2.038333 1_565
Nb2 O18 2.039191 1_555
Nb2 O6 2.040646 1_566
Nb3 O15 2.026899 1_555
Nb3 O3 2.026977 1_555
Nb3 O11 2.036264 1_555
Nb3 O23 2.036361 1_555
Nb3 O7 2.039951 1_555
Nb3 O19 2.040972 1_555
O0 V3 2.085392 1_465
O1 V2 2.095693 1_554
O2 V0 2.084381 1_545
O3 V1 2.095849 1_555
O4 V2 2.044847 1_555
O5 V0 2.044120 1_555
O6 V1 2.042738 1_555
O7 V3 2.047078 1_466
O8 V0 2.100861 1_545
O9 V1 2.089457 1_555
O10 V3 2.099310 1_465
O11 V2 2.088708 1_455
O12 V3 2.085206 1_566
O13 V2 2.095772 1_555
O14 V0 2.084318 1_545
O15 V1 2.095660 1_556
O16 V1 2.046440 1_555
O17 V3 2.044774 1_555
O18 V2 2.046727 1_555
O19 V0 2.045493 1_545
O20 V0 2.100801 1_545
O21 V1 2.089543 1_655
O22 V3 2.099384 1_556
O23 V2 2.088635 1_555
