# generated using pymatgen
data_La3Mg2TaO9
_symmetry_space_group_name_H-M   'P 1'
_cell_length_a   5.72739000
_cell_length_b   8.02782400
_cell_length_c   18.72202030
_cell_angle_alpha   64.57555530
_cell_angle_beta   90.00000000
_cell_angle_gamma   90.00000000
_symmetry_Int_Tables_number   1
_chemical_formula_structural   La3Mg2TaO9
_chemical_formula_sum   'La12 Mg8 Ta4 O36'
_cell_volume   777.44246728
_cell_formula_units_Z   4
loop_
 _symmetry_equiv_pos_site_id
 _symmetry_equiv_pos_as_xyz
  1  'x, y, z'
loop_
 _atom_site_type_symbol
 _atom_site_label
 _atom_site_symmetry_multiplicity
 _atom_site_fract_x
 _atom_site_fract_y
 _atom_site_fract_z
 _atom_site_occupancy
  La  La0  1  0.96593800  0.09811300  0.66113900  1
  La  La1  1  0.95994300  0.42007200  0.34393700  1
  La  La2  1  0.95158000  0.72708600  0.00358800  1
  La  La3  1  0.54005700  0.42007200  0.84393700  1
  La  La4  1  0.54842000  0.72708600  0.50358800  1
  La  La5  1  0.53406200  0.09811300  0.16113900  1
  La  La6  1  0.04842000  0.27291400  0.99641200  1
  La  La7  1  0.04005700  0.57992800  0.65606300  1
  La  La8  1  0.03406200  0.90188700  0.33886100  1
  La  La9  1  0.46593800  0.90188700  0.83886100  1
  La  La10  1  0.45158000  0.27291400  0.49641200  1
  La  La11  1  0.45994300  0.57992800  0.15606300  1
  Mg  Mg0  1  0.00336800  0.66777300  0.83106200  1
  Mg  Mg1  1  0.00000000  0.00000000  0.50000000  1
  Mg  Mg2  1  0.99663200  0.33222700  0.16893800  1
  Mg  Mg3  1  0.50000000  0.00000000  0.00000000  1
  Mg  Mg4  1  0.50336800  0.33222700  0.66893800  1
  Mg  Mg5  1  0.49663200  0.66777300  0.33106200  1
  Mg  Mg6  1  0.50000000  0.50000000  0.00000000  1
  Mg  Mg7  1  0.00000000  0.50000000  0.50000000  1
  Ta  Ta0  1  0.49856800  0.83175500  0.66681600  1
  Ta  Ta1  1  0.50143200  0.16824500  0.33318400  1
  Ta  Ta2  1  0.99856800  0.16824500  0.83318400  1
  Ta  Ta3  1  0.00143200  0.83175500  0.16681600  1
  O  O0  1  0.79727900  0.52398100  0.92901300  1
  O  O1  1  0.78384300  0.85309800  0.60081200  1
  O  O2  1  0.78436900  0.18230900  0.26772500  1
  O  O3  1  0.71563100  0.18230900  0.76772500  1
  O  O4  1  0.70272100  0.52398100  0.42901300  1
  O  O5  1  0.71615700  0.85309800  0.10081200  1
  O  O6  1  0.21563100  0.81769100  0.73227500  1
  O  O7  1  0.21615700  0.14690200  0.39918800  1
  O  O8  1  0.20272100  0.47601900  0.07098700  1
  O  O9  1  0.28384300  0.14690200  0.89918800  1
  O  O10  1  0.29727900  0.47601900  0.57098700  1
  O  O11  1  0.28436900  0.81769100  0.23227500  1
  O  O12  1  0.29453900  0.55775300  0.89993500  1
  O  O13  1  0.29924000  0.87619500  0.57344200  1
  O  O14  1  0.29837100  0.21815400  0.23826600  1
  O  O15  1  0.20162900  0.21815400  0.73826600  1
  O  O16  1  0.20546100  0.55775300  0.39993500  1
  O  O17  1  0.20076000  0.87619500  0.07344200  1
  O  O18  1  0.70162900  0.78184600  0.76173400  1
  O  O19  1  0.70076000  0.12380500  0.42655800  1
  O  O20  1  0.70546100  0.44224700  0.10006500  1
  O  O21  1  0.79924000  0.12380500  0.92655800  1
  O  O22  1  0.79453900  0.44224700  0.60006500  1
  O  O23  1  0.79837100  0.78184600  0.26173400  1
  O  O24  1  0.53122700  0.78140600  0.97172600  1
  O  O25  1  0.52283900  0.10299400  0.63886000  1
  O  O26  1  0.52135100  0.43962800  0.30120700  1
  O  O27  1  0.97864900  0.43962800  0.80120700  1
  O  O28  1  0.96877300  0.78140600  0.47172600  1
  O  O29  1  0.97716100  0.10299400  0.13886000  1
  O  O30  1  0.47864900  0.56037200  0.69879300  1
  O  O31  1  0.47716100  0.89700600  0.36114000  1
  O  O32  1  0.46877300  0.21859400  0.02827400  1
  O  O33  1  0.02283900  0.89700600  0.86114000  1
  O  O34  1  0.03122700  0.21859400  0.52827400  1
  O  O35  1  0.02135100  0.56037200  0.19879300  1
loop_
_geom_bond_atom_site_label_1
_geom_bond_atom_site_label_2
_geom_bond_distance
_geom_bond_site_symmetry_2
La0 O34 2.279726 1_655
La0 O15 2.455756 1_655
La0 O6 2.512439 1_645
La0 O25 2.569419 1_555
La0 O22 2.681598 1_555
La0 O3 2.766269 1_555
La0 O1 2.853015 1_545
La0 O18 2.859898 1_545
La1 O16 2.300669 1_655
La1 O7 2.466717 1_655
La1 O35 2.479617 1_655
La1 O4 2.558126 1_555
La1 O26 2.620472 1_555
La1 O19 2.663465 1_555
La1 O23 2.796739 1_555
La1 O2 3.004787 1_555
La1 O34 3.146480 1_655
La1 O26 3.300850 1_655
La2 O8 2.353670 1_655
La2 O33 2.452770 1_654
La2 O24 2.473625 1_554
La2 O17 2.554244 1_655
La2 O20 2.632845 1_555
La2 O0 2.709897 1_554
La2 O5 2.781314 1_555
La2 O21 3.006704 1_564
La3 O12 2.300669 1_555
La3 O9 2.466717 1_555
La3 O30 2.479617 1_555
La3 O0 2.558126 1_555
La3 O27 2.620472 1_555
La3 O21 2.663465 1_555
La3 O18 2.796739 1_555
La3 O3 3.004787 1_555
La3 O32 3.146480 1_556
La3 O27 3.300850 1_455
La4 O10 2.353670 1_555
La4 O31 2.452770 1_555
La4 O28 2.473625 1_555
La4 O13 2.554244 1_555
La4 O22 2.632845 1_555
La4 O4 2.709897 1_555
La4 O1 2.781314 1_555
La4 O19 3.006704 1_565
La5 O32 2.279726 1_555
La5 O14 2.455756 1_555
La5 O11 2.512439 1_545
La5 O29 2.569419 1_555
La5 O20 2.681598 1_555
La5 O2 2.766269 1_555
La5 O5 2.853015 1_545
La5 O23 2.859898 1_545
La6 O0 2.353670 1_455
La6 O29 2.452770 1_456
La6 O32 2.473625 1_556
La6 O21 2.554244 1_455
La6 O12 2.632845 1_555
La6 O8 2.709897 1_556
La6 O9 2.781314 1_555
La6 O17 3.006704 1_546
La7 O22 2.300669 1_455
La7 O1 2.466717 1_455
La7 O27 2.479617 1_455
La7 O10 2.558126 1_555
La7 O30 2.620472 1_555
La7 O13 2.663465 1_555
La7 O15 2.796739 1_555
La7 O6 3.004787 1_555
La7 O28 3.146480 1_455
La7 O30 3.300850 1_455
La8 O28 2.279726 1_455
La8 O23 2.455756 1_455
La8 O2 2.512439 1_465
La8 O31 2.569419 1_555
La8 O16 2.681598 1_555
La8 O11 2.766269 1_555
La8 O7 2.853015 1_565
La8 O14 2.859898 1_565
La9 O24 2.279726 1_555
La9 O18 2.455756 1_555
La9 O3 2.512439 1_565
La9 O33 2.569419 1_555
La9 O12 2.681598 1_555
La9 O6 2.766269 1_555
La9 O9 2.853015 1_565
La9 O15 2.859898 1_565
La10 O4 2.353670 1_555
La10 O25 2.452770 1_555
La10 O34 2.473625 1_555
La10 O19 2.554244 1_555
La10 O16 2.632845 1_555
La10 O10 2.709897 1_555
La10 O7 2.781314 1_555
La10 O13 3.006704 1_545
La11 O20 2.300669 1_555
La11 O5 2.466717 1_555
La11 O26 2.479617 1_555
La11 O8 2.558126 1_555
La11 O35 2.620472 1_555
La11 O17 2.663465 1_555
La11 O14 2.796739 1_555
La11 O11 3.004787 1_555
La11 O24 3.146480 1_554
La11 O35 3.300850 1_655
Mg0 O12 2.060563 1_555
Mg0 O0 2.066655 1_455
Mg0 O6 2.106131 1_555
Mg0 O18 2.118800 1_455
Mg0 O27 2.136794 1_455
Mg0 O33 2.146118 1_555
Mg1 O34 2.046764 1_555
Mg1 O28 2.046764 1_445
Mg1 O7 2.138820 1_555
Mg1 O1 2.138820 1_445
Mg1 O19 2.154604 1_455
Mg1 O13 2.154604 1_545
Mg2 O20 2.060563 1_555
Mg2 O8 2.066655 1_655
Mg2 O2 2.106131 1_555
Mg2 O14 2.118800 1_655
Mg2 O35 2.136794 1_655
Mg2 O29 2.146118 1_555
Mg3 O32 2.046764 1_555
Mg3 O24 2.046764 1_544
Mg3 O5 2.138820 1_545
Mg3 O9 2.138820 1_554
Mg3 O17 2.154604 1_545
Mg3 O21 2.154604 1_554
Mg4 O22 2.060563 1_555
Mg4 O10 2.066655 1_555
Mg4 O3 2.106131 1_555
Mg4 O15 2.118800 1_555
Mg4 O30 2.136794 1_555
Mg4 O25 2.146118 1_555
Mg5 O16 2.060563 1_555
Mg5 O4 2.066655 1_555
Mg5 O11 2.106131 1_555
Mg5 O23 2.118800 1_555
Mg5 O26 2.136794 1_555
Mg5 O31 2.146118 1_555
Mg6 O20 2.088926 1_555
Mg6 O12 2.088926 1_554
Mg6 O24 2.094955 1_554
Mg6 O32 2.094955 1_555
Mg6 O0 2.117221 1_554
Mg6 O8 2.117221 1_555
Mg7 O16 2.088926 1_555
Mg7 O22 2.088926 1_455
Mg7 O28 2.094955 1_455
Mg7 O34 2.094955 1_555
Mg7 O10 2.117221 1_555
Mg7 O4 2.117221 1_455
O1 Ta0 2.011007 1_555
O2 Ta1 2.005453 1_555
O3 Ta2 2.005453 1_555
O5 Ta3 2.011007 1_655
O6 Ta0 2.005453 1_555
O7 Ta1 2.011007 1_555
O9 Ta2 2.011007 1_455
O11 Ta3 2.005453 1_555
O13 Ta0 1.987742 1_555
O14 Ta1 2.014870 1_555
O15 Ta2 2.014870 1_455
O17 Ta3 1.987742 1_555
O18 Ta0 2.014870 1_555
O19 Ta1 1.987742 1_555
O21 Ta2 1.987742 1_555
O23 Ta3 2.014870 1_655
O25 Ta0 2.013958 1_545
O26 Ta1 1.999470 1_555
O27 Ta2 1.999470 1_555
O29 Ta3 2.013958 1_645
O30 Ta0 1.999470 1_555
O31 Ta1 2.013958 1_565
O33 Ta2 2.013958 1_465
O35 Ta3 1.999470 1_555
