# generated using pymatgen
data_Mg6AlGa
_symmetry_space_group_name_H-M   'P 1'
_cell_length_a   5.12933500
_cell_length_b   6.15063200
_cell_length_c   10.73831200
_cell_angle_alpha   90.00000000
_cell_angle_beta   90.00000000
_cell_angle_gamma   90.00000000
_symmetry_Int_Tables_number   1
_chemical_formula_structural   Mg6AlGa
_chemical_formula_sum   'Mg12 Al2 Ga2'
_cell_volume   338.77926825
_cell_formula_units_Z   2
loop_
 _symmetry_equiv_pos_site_id
 _symmetry_equiv_pos_as_xyz
  1  'x, y, z'
loop_
 _atom_site_type_symbol
 _atom_site_label
 _atom_site_symmetry_multiplicity
 _atom_site_fract_x
 _atom_site_fract_y
 _atom_site_fract_z
 _atom_site_occupancy
  Mg  Mg0  1  0.00000000  0.25176500  0.08455100  1
  Mg  Mg1  1  0.00000000  0.74823500  0.08455100  1
  Mg  Mg2  1  0.00000000  0.00000000  0.33299300  1
  Mg  Mg3  1  0.50000000  0.74751700  0.41520700  1
  Mg  Mg4  1  0.50000000  0.25248300  0.41520700  1
  Mg  Mg5  1  0.50000000  0.00000000  0.16692000  1
  Mg  Mg6  1  0.00000000  0.75176500  0.58455100  1
  Mg  Mg7  1  0.00000000  0.24823500  0.58455100  1
  Mg  Mg8  1  0.00000000  0.50000000  0.83299300  1
  Mg  Mg9  1  0.50000000  0.24751700  0.91520700  1
  Mg  Mg10  1  0.50000000  0.75248300  0.91520700  1
  Mg  Mg11  1  0.50000000  0.50000000  0.66692000  1
  Al  Al0  1  0.00000000  0.50000000  0.33362100  1
  Al  Al1  1  0.00000000  0.00000000  0.83362100  1
  Ga  Ga0  1  0.50000000  0.50000000  0.16695000  1
  Ga  Ga1  1  0.50000000  0.00000000  0.66695000  1
loop_
_geom_bond_atom_site_label_1
_geom_bond_atom_site_label_2
_geom_bond_distance
_geom_bond_site_symmetry_2
Mg0 Mg1 3.053604 1_555
Mg0 Mg2 3.084689 1_555
Mg0 Mg1 3.097028 1_545
Mg0 Mg8 3.102933 1_554
Mg0 Mg5 3.123742 1_555
Mg0 Mg5 3.123742 1_455
Mg0 Mg9 3.144047 1_554
Mg0 Mg9 3.144047 1_454
Mg1 Mg2 3.084689 1_565
Mg1 Mg8 3.102933 1_554
Mg1 Mg5 3.123742 1_465
Mg1 Mg5 3.123742 1_565
Mg1 Mg10 3.144047 1_554
Mg1 Mg10 3.144047 1_454
Mg2 Mg6 3.102933 1_545
Mg2 Mg7 3.102933 1_555
Mg2 Mg5 3.123753 1_555
Mg2 Mg5 3.123753 1_455
Mg2 Mg3 3.125463 1_545
Mg2 Mg4 3.125463 1_455
Mg2 Mg3 3.125463 1_445
Mg2 Mg4 3.125463 1_555
Mg3 Mg4 3.044772 1_555
Mg3 Mg5 3.085470 1_565
Mg3 Mg4 3.105860 1_565
Mg3 Mg6 3.144047 1_655
Mg3 Mg6 3.144047 1_555
Mg4 Mg5 3.085470 1_555
Mg4 Mg7 3.144047 1_555
Mg4 Mg7 3.144047 1_655
Mg5 Mg9 3.102212 1_554
Mg6 Mg7 3.053604 1_565
Mg6 Mg8 3.084689 1_555
Mg6 Mg7 3.097028 1_555
Mg7 Mg8 3.084689 1_555
Mg8 Mg9 3.125463 1_555
Mg8 Mg9 3.125463 1_455
Mg10 Mg9 3.044772 1_565
Mg10 Mg11 3.085470 1_555
Mg10 Mg5 3.102212 1_566
Mg10 Mg9 3.105860 1_555
Mg10 Mg8 3.125463 1_655
Mg10 Mg8 3.125463 1_555
Mg11 Mg9 3.085470 1_555
Mg11 Mg3 3.102212 1_555
Mg11 Mg4 3.102212 1_555
Mg11 Mg6 3.123742 1_555
Mg11 Mg7 3.123742 1_555
Mg11 Mg6 3.123742 1_655
Mg11 Mg7 3.123742 1_655
Mg11 Mg8 3.123753 1_555
Mg11 Mg8 3.123753 1_655
Al0 Mg2 3.075323 1_565
Al0 Mg2 3.075323 1_555
Al0 Mg1 3.079702 1_555
Al0 Mg0 3.079702 1_555
Al0 Mg7 3.107825 1_555
Al0 Mg6 3.107825 1_555
Al0 Mg3 3.108492 1_455
Al0 Mg4 3.108492 1_555
Al0 Mg4 3.108492 1_455
Al0 Mg3 3.108492 1_555
Al0 Ga0 3.127424 1_455
Al0 Ga0 3.127424 1_555
Al1 Mg8 3.075323 1_545
Al1 Mg8 3.075323 1_555
Al1 Mg6 3.079702 1_545
Al1 Mg7 3.079702 1_555
Al1 Mg1 3.107825 1_546
Al1 Mg0 3.107825 1_556
Al1 Mg10 3.108492 1_545
Al1 Mg9 3.108492 1_455
Al1 Mg9 3.108492 1_555
Al1 Mg10 3.108492 1_445
Al1 Ga1 3.127424 1_555
Al1 Ga1 3.127424 1_455
Ga0 Mg3 3.069931 1_555
Ga0 Mg4 3.069931 1_555
Ga0 Mg5 3.075316 1_565
Ga0 Mg5 3.075316 1_555
Ga0 Mg0 3.113127 1_655
Ga0 Mg1 3.113127 1_655
Ga0 Mg1 3.113127 1_555
Ga0 Mg0 3.113127 1_555
Ga0 Mg10 3.117594 1_554
Ga0 Mg9 3.117594 1_554
Ga1 Mg9 3.069931 1_555
Ga1 Mg10 3.069931 1_545
Ga1 Mg11 3.075316 1_545
Ga1 Mg11 3.075316 1_555
Ga1 Mg7 3.113127 1_655
Ga1 Mg6 3.113127 1_645
Ga1 Mg6 3.113127 1_545
Ga1 Mg7 3.113127 1_555
Ga1 Mg3 3.117594 1_545
Ga1 Mg4 3.117594 1_555
