# generated using pymatgen
data_KCdAs
_symmetry_space_group_name_H-M   'P 1'
_cell_length_a   4.57660980
_cell_length_b   4.57660980
_cell_length_c   7.91696195
_cell_angle_alpha   90.00000000
_cell_angle_beta   90.00000000
_cell_angle_gamma   90.00000000
_symmetry_Int_Tables_number   1
_chemical_formula_structural   KCdAs
_chemical_formula_sum   'K2 Cd2 As2'
_cell_volume   165.82359647
_cell_formula_units_Z   2
loop_
 _symmetry_equiv_pos_site_id
 _symmetry_equiv_pos_as_xyz
  1  'x, y, z'
loop_
 _atom_site_type_symbol
 _atom_site_label
 _atom_site_symmetry_multiplicity
 _atom_site_fract_x
 _atom_site_fract_y
 _atom_site_fract_z
 _atom_site_occupancy
  K  K0  1  0.75000000  0.75000000  0.34847705  1
  K  K1  1  0.25000000  0.25000000  0.65152295  1
  Cd  Cd0  1  0.75000000  0.25000000  0.00000000  1
  Cd  Cd1  1  0.25000000  0.75000000  0.00000000  1
  As  As0  1  0.75000000  0.75000000  0.79366061  1
  As  As1  1  0.25000000  0.25000000  0.20633939  1
loop_
_geom_bond_atom_site_label_1
_geom_bond_atom_site_label_2
_geom_bond_distance
_geom_bond_site_symmetry_2
Cd0 K1 3.584377 1_554
Cd0 K1 3.584377 1_654
Cd0 K0 3.584377 1_555
Cd0 K0 3.584377 1_545
Cd1 K1 3.584377 1_554
Cd1 K1 3.584377 1_564
Cd1 K0 3.584377 1_555
Cd1 K0 3.584377 1_455
As0 Cd1 2.811570 1_656
As0 Cd0 2.811570 1_566
As0 Cd0 2.811570 1_556
As0 Cd1 2.811570 1_556
As0 K1 3.426219 1_555
As0 K1 3.426219 1_565
As0 K1 3.426219 1_655
As0 K1 3.426219 1_665
As0 K0 3.524501 1_555
As1 Cd0 2.811570 1_455
As1 Cd0 2.811570 1_555
As1 Cd1 2.811570 1_545
As1 Cd1 2.811570 1_555
As1 K0 3.426219 1_455
As1 K0 3.426219 1_555
As1 K0 3.426219 1_545
As1 K0 3.426219 1_445
As1 K1 3.524501 1_555
