# generated using pymatgen
data_K2YCl5
_symmetry_space_group_name_H-M   'P 1'
_cell_length_a   7.92623004
_cell_length_b   8.56347054
_cell_length_c   12.64934431
_cell_angle_alpha   90.00000000
_cell_angle_beta   90.00000000
_cell_angle_gamma   90.00000000
_symmetry_Int_Tables_number   1
_chemical_formula_structural   K2YCl5
_chemical_formula_sum   'K8 Y4 Cl20'
_cell_volume   858.58736799
_cell_formula_units_Z   4
loop_
 _symmetry_equiv_pos_site_id
 _symmetry_equiv_pos_as_xyz
  1  'x, y, z'
loop_
 _atom_site_type_symbol
 _atom_site_label
 _atom_site_symmetry_multiplicity
 _atom_site_fract_x
 _atom_site_fract_y
 _atom_site_fract_z
 _atom_site_occupancy
  K  K0  1  0.55853708  0.49400711  0.82889100  1
  K  K1  1  0.44146292  0.50599289  0.17110900  1
  K  K2  1  0.05853708  0.50599289  0.67110900  1
  K  K3  1  0.44146292  -0.00599289  0.17110900  1
  K  K4  1  0.94146292  0.49400711  0.32889100  1
  K  K5  1  0.55853708  0.00599289  0.82889100  1
  K  K6  1  0.94146292  0.00599289  0.32889100  1
  K  K7  1  0.05853708  -0.00599289  0.67110900  1
  Y  Y0  1  0.57455275  0.75000000  0.50468545  1
  Y  Y1  1  0.42544725  0.25000000  0.49531455  1
  Y  Y2  1  0.07455275  0.25000000  0.99531455  1
  Y  Y3  1  0.92544725  0.75000000  0.00468545  1
  Cl  Cl0  1  0.84430905  0.75000000  0.79930478  1
  Cl  Cl1  1  0.15569095  0.25000000  0.20069522  1
  Cl  Cl2  1  0.34430905  0.25000000  0.70069522  1
  Cl  Cl3  1  0.65569095  0.75000000  0.29930478  1
  Cl  Cl4  1  0.38300069  0.75000000  0.67837712  1
  Cl  Cl5  1  0.61699931  0.25000000  0.32162288  1
  Cl  Cl6  1  0.88300069  0.25000000  0.82162288  1
  Cl  Cl7  1  0.11699931  0.75000000  0.17837712  1
  Cl  Cl8  1  0.91736101  0.75000000  0.50928244  1
  Cl  Cl9  1  0.08263899  0.25000000  0.49071756  1
  Cl  Cl10  1  0.41736101  0.25000000  0.99071756  1
  Cl  Cl11  1  0.58263899  0.75000000  0.00928244  1
  Cl  Cl12  1  0.66574664  0.04355213  0.57216144  1
  Cl  Cl13  1  0.33425336  0.95644787  0.42783856  1
  Cl  Cl14  1  0.16574664  0.95644787  0.92783856  1
  Cl  Cl15  1  0.33425336  0.54355213  0.42783856  1
  Cl  Cl16  1  0.83425336  0.04355213  0.07216144  1
  Cl  Cl17  1  0.66574664  0.45644787  0.57216144  1
  Cl  Cl18  1  0.83425336  0.45644787  0.07216144  1
  Cl  Cl19  1  0.16574664  0.54355213  0.92783856  1
loop_
_geom_bond_atom_site_label_1
_geom_bond_atom_site_label_2
_geom_bond_distance
_geom_bond_site_symmetry_2
Cl0 Y3 2.676350 1_556
Cl0 K7 3.143095 1_665
Cl0 K2 3.143095 1_655
Cl0 K5 3.174334 1_565
Cl0 K0 3.174334 1_555
Cl1 Y2 2.676350 1_554
Cl1 K6 3.143095 1_455
Cl1 K4 3.143095 1_455
Cl1 K3 3.174334 1_555
Cl1 K1 3.174334 1_555
Cl2 Y1 2.676350 1_555
Cl2 K5 3.143095 1_555
Cl2 K0 3.143095 1_555
Cl2 K7 3.174334 1_555
Cl2 K2 3.174334 1_555
Cl3 Y0 2.676350 1_555
Cl3 K3 3.143095 1_565
Cl3 K1 3.143095 1_555
Cl3 K6 3.174334 1_565
Cl3 K4 3.174334 1_555
Cl4 Y0 2.670651 1_555
Cl4 K5 3.219683 1_565
Cl4 K0 3.219683 1_555
Cl4 K7 3.314918 1_565
Cl4 K2 3.314918 1_555
Cl5 Y1 2.670651 1_555
Cl5 K1 3.219683 1_555
Cl5 K3 3.219683 1_555
Cl5 K6 3.314918 1_555
Cl5 K4 3.314918 1_555
Cl6 Y2 2.670651 1_655
Cl6 K7 3.219683 1_655
Cl6 K2 3.219683 1_655
Cl6 K5 3.314918 1_555
Cl6 K0 3.314918 1_555
Cl7 Y3 2.670651 1_455
Cl7 K6 3.219683 1_465
Cl7 K4 3.219683 1_455
Cl7 K1 3.314918 1_555
Cl7 K3 3.314918 1_565
Cl8 Y0 2.717799 1_555
Cl8 K7 3.131863 1_665
Cl8 K2 3.131863 1_655
Cl8 K6 3.170007 1_565
Cl8 K4 3.170007 1_555
Cl9 Y1 2.717799 1_555
Cl9 K4 3.131863 1_455
Cl9 K6 3.131863 1_455
Cl9 K2 3.170007 1_555
Cl9 K7 3.170007 1_555
Cl10 Y2 2.717799 1_555
Cl10 K5 3.131863 1_555
Cl10 K0 3.131863 1_555
Cl10 K3 3.170007 1_556
Cl10 K1 3.170007 1_556
Cl11 Y3 2.717799 1_555
Cl11 K3 3.131863 1_565
Cl11 K1 3.131863 1_555
Cl11 K5 3.170007 1_564
Cl11 K0 3.170007 1_554
Cl12 Y0 2.751418 1_545
Cl12 Y1 2.774558 1_555
Cl12 K5 3.372174 1_555
Cl12 K7 3.382233 1_655
Cl13 Y1 2.751418 1_565
Cl13 Y0 2.774558 1_555
Cl13 K3 3.372174 1_565
Cl13 K6 3.382233 1_465
Cl14 Y2 2.751418 1_565
Cl14 Y3 2.774558 1_456
Cl14 K7 3.372174 1_565
Cl14 K5 3.382233 1_565
Cl15 Y1 2.751418 1_555
Cl15 Y0 2.774558 1_555
Cl15 K1 3.372174 1_555
Cl15 K4 3.382233 1_455
Cl16 Y3 2.751418 1_545
Cl16 Y2 2.774558 1_654
Cl16 K6 3.372174 1_555
Cl16 K3 3.382233 1_555
Cl17 Y0 2.751418 1_555
Cl17 Y1 2.774558 1_555
Cl17 K0 3.372174 1_555
Cl17 K2 3.382233 1_655
Cl18 Y3 2.751418 1_555
Cl18 Y2 2.774558 1_654
Cl18 K4 3.372174 1_555
Cl18 K1 3.382233 1_555
Cl19 Y2 2.751418 1_555
Cl19 Y3 2.774558 1_456
Cl19 K2 3.372174 1_555
Cl19 K0 3.382233 1_555
