# generated using pymatgen
data_Cs3Tl2Cl9
_symmetry_space_group_name_H-M   'P 1'
_cell_length_a   9.69241808
_cell_length_b   9.69241808
_cell_length_c   9.69241910
_cell_angle_alpha   83.70195261
_cell_angle_beta   83.70195261
_cell_angle_gamma   83.70194829
_symmetry_Int_Tables_number   1
_chemical_formula_structural   Cs3Tl2Cl9
_chemical_formula_sum   'Cs6 Tl4 Cl18'
_cell_volume   895.17072367
_cell_formula_units_Z   2
loop_
 _symmetry_equiv_pos_site_id
 _symmetry_equiv_pos_as_xyz
  1  'x, y, z'
loop_
 _atom_site_type_symbol
 _atom_site_label
 _atom_site_symmetry_multiplicity
 _atom_site_fract_x
 _atom_site_fract_y
 _atom_site_fract_z
 _atom_site_occupancy
  Cs  Cs0  1  0.75000000  0.08786088  0.41213912  1
  Cs  Cs1  1  0.41213912  0.75000000  0.08786088  1
  Cs  Cs2  1  0.08786088  0.41213912  0.75000000  1
  Cs  Cs3  1  0.25000000  0.91213912  0.58786088  1
  Cs  Cs4  1  0.58786088  0.25000000  0.91213912  1
  Cs  Cs5  1  0.91213912  0.58786088  0.25000000  1
  Tl  Tl0  1  0.64918039  0.64918039  0.64918039  1
  Tl  Tl1  1  0.35081961  0.35081961  0.35081961  1
  Tl  Tl2  1  0.14918039  0.14918039  0.14918039  1
  Tl  Tl3  1  0.85081961  0.85081961  0.85081961  1
  Cl  Cl0  1  0.75000000  0.59389361  0.90610639  1
  Cl  Cl1  1  0.90610639  0.75000000  0.59389361  1
  Cl  Cl2  1  0.59389361  0.90610639  0.75000000  1
  Cl  Cl3  1  0.25000000  0.40610639  0.09389361  1
  Cl  Cl4  1  0.09389361  0.25000000  0.40610639  1
  Cl  Cl5  1  0.40610639  0.09389361  0.25000000  1
  Cl  Cl6  1  0.76405575  0.41604526  0.58694224  1
  Cl  Cl7  1  0.58694224  0.76405575  0.41604526  1
  Cl  Cl8  1  0.41604526  0.58694224  0.76405575  1
  Cl  Cl9  1  0.23594425  0.58395474  0.41305776  1
  Cl  Cl10  1  0.41305776  0.23594425  0.58395474  1
  Cl  Cl11  1  0.58395474  0.41305776  0.23594425  1
  Cl  Cl12  1  0.91604526  0.26405575  0.08694224  1
  Cl  Cl13  1  0.26405575  0.08694224  0.91604526  1
  Cl  Cl14  1  0.08694224  0.91604526  0.26405575  1
  Cl  Cl15  1  0.08395474  0.73594425  0.91305776  1
  Cl  Cl16  1  0.73594425  0.91305776  0.08395474  1
  Cl  Cl17  1  0.91305776  0.08395474  0.73594425  1
loop_
_geom_bond_atom_site_label_1
_geom_bond_atom_site_label_2
_geom_bond_distance
_geom_bond_site_symmetry_2
Cl0 Tl3 2.751280 1_555
Cl0 Tl0 2.751280 1_555
Cl0 Cs2 3.787917 1_655
Cl0 Cs1 3.787917 1_556
Cl0 Cs4 3.830063 1_555
Cl0 Cs5 3.830063 1_556
Cl1 Tl0 2.751280 1_555
Cl1 Tl3 2.751280 1_555
Cl1 Cs2 3.787917 1_655
Cl1 Cs0 3.787917 1_565
Cl1 Cs3 3.830063 1_655
Cl1 Cs5 3.830063 1_555
Cl2 Tl3 2.751280 1_555
Cl2 Tl0 2.751280 1_555
Cl2 Cs0 3.787918 1_565
Cl2 Cs1 3.787918 1_556
Cl2 Cs3 3.830063 1_555
Cl2 Cs4 3.830063 1_565
Cl3 Tl2 2.751280 1_555
Cl3 Tl1 2.751280 1_555
Cl3 Cs5 3.787917 1_455
Cl3 Cs4 3.787917 1_554
Cl3 Cs1 3.830063 1_555
Cl3 Cs2 3.830063 1_554
Cl4 Tl1 2.751280 1_555
Cl4 Tl2 2.751280 1_555
Cl4 Cs5 3.787917 1_455
Cl4 Cs3 3.787917 1_545
Cl4 Cs0 3.830063 1_455
Cl4 Cs2 3.830063 1_555
Cl5 Tl2 2.751280 1_555
Cl5 Tl1 2.751280 1_555
Cl5 Cs4 3.787918 1_554
Cl5 Cs3 3.787918 1_545
Cl5 Cs1 3.830063 1_545
Cl5 Cs0 3.830063 1_555
Cl6 Tl0 2.511831 1_555
Cl6 Cs2 3.660345 1_655
Cl6 Cs4 3.708148 1_555
Cl6 Cs5 3.715029 1_555
Cl6 Cs0 3.786206 1_555
Cl7 Tl0 2.511831 1_555
Cl7 Cs0 3.660345 1_565
Cl7 Cs5 3.708148 1_555
Cl7 Cs3 3.715028 1_555
Cl7 Cs1 3.786206 1_555
Cl8 Tl0 2.511831 1_555
Cl8 Cs1 3.660345 1_556
Cl8 Cs3 3.708148 1_555
Cl8 Cs4 3.715028 1_555
Cl8 Cs2 3.786206 1_555
Cl9 Tl1 2.511831 1_555
Cl9 Cs5 3.660345 1_455
Cl9 Cs1 3.708148 1_555
Cl9 Cs2 3.715029 1_555
Cl9 Cs3 3.786206 1_555
Cl10 Tl1 2.511831 1_555
Cl10 Cs3 3.660345 1_545
Cl10 Cs2 3.708148 1_555
Cl10 Cs0 3.715028 1_555
Cl10 Cs4 3.786206 1_555
Cl11 Tl1 2.511831 1_555
Cl11 Cs4 3.660345 1_554
Cl11 Cs0 3.708148 1_555
Cl11 Cs1 3.715028 1_555
Cl11 Cs5 3.786206 1_555
Cl12 Tl2 2.511831 1_655
Cl12 Cs5 3.660345 1_555
Cl12 Cs0 3.708148 1_555
Cl12 Cs2 3.715029 1_654
Cl12 Cs4 3.786206 1_554
Cl13 Tl2 2.511831 1_556
Cl13 Cs4 3.660345 1_555
Cl13 Cs2 3.708148 1_555
Cl13 Cs1 3.715028 1_546
Cl13 Cs3 3.786206 1_545
Cl14 Tl2 2.511831 1_565
Cl14 Cs3 3.660345 1_555
Cl14 Cs1 3.708148 1_555
Cl14 Cs0 3.715028 1_465
Cl14 Cs5 3.786206 1_455
Cl15 Tl3 2.511831 1_455
Cl15 Cs2 3.660345 1_555
Cl15 Cs3 3.708148 1_555
Cl15 Cs5 3.715029 1_456
Cl15 Cs1 3.786206 1_556
Cl16 Tl3 2.511831 1_554
Cl16 Cs1 3.660345 1_555
Cl16 Cs5 3.708148 1_555
Cl16 Cs4 3.715028 1_564
Cl16 Cs0 3.786206 1_565
Cl17 Tl3 2.511831 1_545
Cl17 Cs0 3.660345 1_555
Cl17 Cs4 3.708148 1_555
Cl17 Cs3 3.715028 1_645
Cl17 Cs2 3.786206 1_655
