# generated using pymatgen
data_DyMgWS4
_symmetry_space_group_name_H-M   'P 1'
_cell_length_a   7.65713205
_cell_length_b   7.60893886
_cell_length_c   7.60611792
_cell_angle_alpha   59.75849112
_cell_angle_beta   59.77625905
_cell_angle_gamma   59.79056195
_symmetry_Int_Tables_number   1
_chemical_formula_structural   DyMgWS4
_chemical_formula_sum   'Dy2 Mg2 W2 S8'
_cell_volume   311.75611366
_cell_formula_units_Z   2
loop_
 _symmetry_equiv_pos_site_id
 _symmetry_equiv_pos_as_xyz
  1  'x, y, z'
loop_
 _atom_site_type_symbol
 _atom_site_label
 _atom_site_symmetry_multiplicity
 _atom_site_fract_x
 _atom_site_fract_y
 _atom_site_fract_z
 _atom_site_occupancy
  Dy  Dy0  1  0.50000200  0.50000900  0.49998300  1
  Dy  Dy1  1  0.00000600  0.49998800  0.50000600  1
  Mg  Mg0  1  0.87614700  0.87375300  0.87401600  1
  Mg  Mg1  1  0.12382800  0.12627500  0.12601100  1
  W  W0  1  0.50000300  0.50000600  0.99998900  1
  W  W1  1  0.50000300  0.99999100  0.50000900  1
  S  S0  1  0.71551200  0.75420800  0.75423500  1
  S  S1  1  0.26726400  0.23242500  0.73302100  1
  S  S2  1  0.26737100  0.73278700  0.23244700  1
  S  S3  1  0.72390200  0.24579200  0.24579000  1
  S  S4  1  0.73261700  0.26722600  0.76753000  1
  S  S5  1  0.27607200  0.75419800  0.75419700  1
  S  S6  1  0.28452100  0.24577300  0.24577400  1
  S  S7  1  0.73275800  0.76756200  0.26699300  1
loop_
_geom_bond_atom_site_label_1
_geom_bond_atom_site_label_2
_geom_bond_distance
_geom_bond_site_symmetry_2
Dy0 S4 2.700855 1_555
Dy0 S2 2.700881 1_555
Dy0 S7 2.701632 1_555
Dy0 S1 2.701692 1_555
Dy0 S5 2.740703 1_555
Dy0 S3 2.740762 1_555
Dy1 S4 2.700714 1_455
Dy1 S2 2.700780 1_555
Dy1 S7 2.701443 1_455
Dy1 S1 2.701504 1_555
Dy1 S0 2.740941 1_455
Dy1 S6 2.740945 1_555
Mg0 S7 2.438993 1_556
Mg0 S4 2.443309 1_565
Mg0 S5 2.501545 1_655
Mg0 S0 2.501838 1_555
Mg1 S1 2.439094 1_554
Mg1 S2 2.443427 1_545
Mg1 S3 2.501593 1_455
Mg1 S6 2.501826 1_555
S0 W0 2.534365 1_555
S0 W1 2.534538 1_555
S1 W1 2.500137 1_545
S2 W0 2.499026 1_554
S3 W1 2.534287 1_545
S3 W0 2.534396 1_554
S4 W0 2.499026 1_555
S5 W1 2.534395 1_555
S5 W0 2.534502 1_555
S6 W0 2.534404 1_554
S6 W1 2.534450 1_545
S7 W1 2.500132 1_555
