# generated using pymatgen
data_Dy(AlFe)6
_symmetry_space_group_name_H-M   'P 1'
_cell_length_a   4.96520505
_cell_length_b   6.56284041
_cell_length_c   6.56284041
_cell_angle_alpha   98.41143443
_cell_angle_beta   112.22728863
_cell_angle_gamma   67.77271137
_symmetry_Int_Tables_number   1
_chemical_formula_structural   Dy(AlFe)6
_chemical_formula_sum   'Dy1 Al6 Fe6'
_cell_volume   183.25233347
_cell_formula_units_Z   1
loop_
 _symmetry_equiv_pos_site_id
 _symmetry_equiv_pos_as_xyz
  1  'x, y, z'
loop_
 _atom_site_type_symbol
 _atom_site_label
 _atom_site_symmetry_multiplicity
 _atom_site_fract_x
 _atom_site_fract_y
 _atom_site_fract_z
 _atom_site_occupancy
  Dy  Dy0  1  -0.00000000  -0.00000000  -0.00000000  1
  Al  Al0  1  0.65283062  0.34716938  0.65283062  1
  Al  Al1  1  0.34716938  0.65283062  0.34716938  1
  Al  Al2  1  -0.00000000  0.33834726  0.33834726  1
  Al  Al3  1  0.00000000  0.66165274  0.66165274  1
  Al  Al4  1  0.69530343  0.80469657  0.19530343  1
  Al  Al5  1  0.30469657  0.19530343  0.80469657  1
  Fe  Fe0  1  0.50000000  -0.00000000  0.50000000  1
  Fe  Fe1  1  -0.00000000  -0.00000000  0.50000000  1
  Fe  Fe2  1  0.50000000  0.50000000  -0.00000000  1
  Fe  Fe3  1  -0.00000000  0.50000000  -0.00000000  1
  Fe  Fe4  1  0.50000000  0.76080739  0.76080739  1
  Fe  Fe5  1  0.50000000  0.23919261  0.23919261  1
loop_
_geom_bond_atom_site_label_1
_geom_bond_atom_site_label_2
_geom_bond_distance
_geom_bond_site_symmetry_2
Dy0 Fe4 3.220375 1_444
Dy0 Fe5 3.220375 1_455
Dy0 Fe5 3.220375 1_555
Dy0 Fe4 3.220375 1_544
Dy0 Fe1 3.281420 1_554
Dy0 Fe1 3.281420 1_555
Dy0 Fe3 3.281420 1_545
Dy0 Fe3 3.281420 1_555
Dy0 Fe0 3.281420 1_555
Dy0 Fe0 3.281420 1_454
Dy0 Fe2 3.281420 1_455
Dy0 Fe2 3.281420 1_545
Al0 Fe4 2.594765 1_555
Al0 Fe5 2.594765 1_555
Al0 Fe2 2.614704 1_556
Al0 Fe0 2.614704 1_555
Al0 Fe3 2.614704 1_656
Al0 Fe1 2.614704 1_655
Al0 Al1 2.630984 1_555
Al0 Al5 2.805719 1_555
Al0 Al5 2.805719 1_655
Al0 Dy0 2.988266 1_656
Al1 Fe4 2.594765 1_555
Al1 Fe5 2.594765 1_555
Al1 Fe0 2.614704 1_565
Al1 Fe2 2.614704 1_555
Al1 Fe1 2.614704 1_565
Al1 Fe3 2.614704 1_555
Al1 Al4 2.805719 1_555
Al1 Al4 2.805719 1_455
Al1 Dy0 2.988266 1_565
Al2 Fe1 2.597194 1_555
Al2 Fe3 2.597194 1_555
Al2 Fe2 2.597194 1_455
Al2 Fe0 2.597194 1_555
Al2 Fe5 2.624184 1_455
Al2 Fe5 2.624184 1_555
Al2 Al3 2.772538 1_555
Al2 Dy0 2.901530 1_555
Al2 Al4 2.966512 1_455
Al2 Al5 2.966512 1_555
Al3 Fe1 2.597194 1_565
Al3 Fe3 2.597194 1_556
Al3 Fe0 2.597194 1_465
Al3 Fe2 2.597194 1_556
Al3 Fe4 2.624184 1_555
Al3 Fe4 2.624184 1_455
Al3 Dy0 2.901530 1_566
Al3 Al5 2.966512 1_555
Al3 Al4 2.966512 1_455
Al4 Fe0 2.521664 1_565
Al4 Fe2 2.521664 1_555
Al4 Fe1 2.521664 1_665
Al4 Fe3 2.521664 1_655
Al4 Fe5 2.652079 1_565
Al4 Fe4 2.652079 1_554
Al4 Dy0 2.998222 1_665
Al4 Dy0 2.998222 1_565
Al5 Fe2 2.521664 1_556
Al5 Fe0 2.521664 1_555
Al5 Fe3 2.521664 1_556
Al5 Fe1 2.521664 1_555
Al5 Fe5 2.652079 1_556
Al5 Fe4 2.652079 1_545
Al5 Dy0 2.998222 1_556
Al5 Dy0 2.998222 1_656
Fe0 Fe1 2.482603 1_555
Fe0 Fe1 2.482603 1_655
Fe0 Fe5 2.485961 1_555
Fe0 Fe4 2.485961 1_545
Fe1 Fe4 2.485961 1_545
Fe1 Fe5 2.485961 1_455
Fe2 Fe3 2.482603 1_655
Fe2 Fe3 2.482603 1_555
Fe2 Fe5 2.485961 1_555
Fe2 Fe4 2.485961 1_554
Fe3 Fe4 2.485961 1_454
Fe3 Fe5 2.485961 1_555
