# generated using pymatgen
data_Li3Co3SbO8
_symmetry_space_group_name_H-M   'P 1'
_cell_length_a   6.00053900
_cell_length_b   6.03052745
_cell_length_c   6.04430343
_cell_angle_alpha   119.59451209
_cell_angle_beta   90.65649397
_cell_angle_gamma   119.35760242
_symmetry_Int_Tables_number   1
_chemical_formula_structural   Li3Co3SbO8
_chemical_formula_sum   'Li3 Co3 Sb1 O8'
_cell_volume   156.20928759
_cell_formula_units_Z   1
loop_
 _symmetry_equiv_pos_site_id
 _symmetry_equiv_pos_as_xyz
  1  'x, y, z'
loop_
 _atom_site_type_symbol
 _atom_site_label
 _atom_site_symmetry_multiplicity
 _atom_site_fract_x
 _atom_site_fract_y
 _atom_site_fract_z
 _atom_site_occupancy
  Li  Li0  1  0.00000000  0.50000000  0.00000000  1
  Li  Li1  1  0.50000000  0.50000000  0.50000000  1
  Li  Li2  1  0.50000000  0.50000000  0.00000000  1
  Co  Co0  1  0.00000000  0.00000000  0.50000000  1
  Co  Co1  1  0.50000000  0.00000000  0.00000000  1
  Co  Co2  1  0.50000000  0.00000000  0.50000000  1
  Sb  Sb0  1  0.00000000  0.00000000  0.00000000  1
  O  O0  1  0.51495800  0.80965800  0.74901500  1
  O  O1  1  0.53337400  0.76768500  0.20102000  1
  O  O2  1  0.04755600  0.79041700  0.74011900  1
  O  O3  1  0.48504200  0.19034200  0.25098500  1
  O  O4  1  0.98173900  0.75850800  0.24396100  1
  O  O5  1  0.46662600  0.23231500  0.79898000  1
  O  O6  1  0.95244400  0.20958300  0.25988100  1
  O  O7  1  0.01826100  0.24149200  0.75603900  1
loop_
_geom_bond_atom_site_label_1
_geom_bond_atom_site_label_2
_geom_bond_distance
_geom_bond_site_symmetry_2
Li0 O4 1.586609 1_455
Li0 O7 1.586609 1_554
Li1 O0 1.678407 1_555
Li1 O3 1.678407 1_555
Li2 O1 1.364712 1_555
Li2 O5 1.364712 1_554
Co0 O7 1.463365 1_555
Co0 O4 1.463365 1_445
Co1 O3 1.418172 1_555
Co1 O0 1.418172 1_544
Co2 O5 1.746796 1_555
Co2 O1 1.746796 1_545
O2 Sb0 1.596636 1_566
O6 Sb0 1.596636 1_655
