# generated using pymatgen
data_Na2HoTa5O15
_symmetry_space_group_name_H-M   'P 1'
_cell_length_a   12.58478300
_cell_length_b   12.58478300
_cell_length_c   3.92188500
_cell_angle_alpha   90.00000000
_cell_angle_beta   90.00000000
_cell_angle_gamma   90.00000000
_symmetry_Int_Tables_number   1
_chemical_formula_structural   Na2HoTa5O15
_chemical_formula_sum   'Na4 Ho2 Ta10 O30'
_cell_volume   621.13545177
_cell_formula_units_Z   2
loop_
 _symmetry_equiv_pos_site_id
 _symmetry_equiv_pos_as_xyz
  1  'x, y, z'
loop_
 _atom_site_type_symbol
 _atom_site_label
 _atom_site_symmetry_multiplicity
 _atom_site_fract_x
 _atom_site_fract_y
 _atom_site_fract_z
 _atom_site_occupancy
  Na  Na0  1  0.67214100  0.17214100  0.50000000  1
  Na  Na1  1  0.32785900  0.82785900  0.50000000  1
  Na  Na2  1  0.17214100  0.32785900  0.50000000  1
  Na  Na3  1  0.82785900  0.67214100  0.50000000  1
  Ho  Ho0  1  0.00000000  0.00000000  0.50000000  1
  Ho  Ho1  1  0.50000000  0.50000000  0.50000000  1
  Ta  Ta0  1  0.50000000  0.00000000  0.00000000  1
  Ta  Ta1  1  0.00000000  0.50000000  0.00000000  1
  Ta  Ta2  1  0.21128800  0.07872800  0.00000000  1
  Ta  Ta3  1  0.78871200  0.92127200  0.00000000  1
  Ta  Ta4  1  0.07872800  0.78871200  0.00000000  1
  Ta  Ta5  1  0.71128800  0.42127200  0.00000000  1
  Ta  Ta6  1  0.92127200  0.21128800  0.00000000  1
  Ta  Ta7  1  0.28871200  0.57872800  0.00000000  1
  Ta  Ta8  1  0.57872800  0.71128800  0.00000000  1
  Ta  Ta9  1  0.42127200  0.28871200  0.00000000  1
  O  O0  1  0.18691000  0.07990100  0.50000000  1
  O  O1  1  0.81309000  0.92009900  0.50000000  1
  O  O2  1  0.07990100  0.81309000  0.50000000  1
  O  O3  1  0.68691000  0.42009900  0.50000000  1
  O  O4  1  0.92009900  0.18691000  0.50000000  1
  O  O5  1  0.31309000  0.57990100  0.50000000  1
  O  O6  1  0.57990100  0.68691000  0.50000000  1
  O  O7  1  0.42009900  0.31309000  0.50000000  1
  O  O8  1  0.22377600  0.72377600  0.00000000  1
  O  O9  1  0.77622400  0.27622400  0.00000000  1
  O  O10  1  0.72377600  0.77622400  0.00000000  1
  O  O11  1  0.27622400  0.22377600  0.00000000  1
  O  O12  1  0.50000000  0.00000000  0.50000000  1
  O  O13  1  0.00000000  0.50000000  0.50000000  1
  O  O14  1  0.05716700  0.13046800  0.00000000  1
  O  O15  1  0.94283300  0.86953200  0.00000000  1
  O  O16  1  0.13046800  0.94283300  0.00000000  1
  O  O17  1  0.55716700  0.36953200  0.00000000  1
  O  O18  1  0.86953200  0.05716700  0.00000000  1
  O  O19  1  0.44283300  0.63046800  0.00000000  1
  O  O20  1  0.63046800  0.55716700  0.00000000  1
  O  O21  1  0.36953200  0.44283300  0.00000000  1
  O  O22  1  0.34087300  0.99801200  0.00000000  1
  O  O23  1  0.65912700  0.00198800  0.00000000  1
  O  O24  1  0.99801200  0.65912700  0.00000000  1
  O  O25  1  0.84087300  0.50198800  0.00000000  1
  O  O26  1  0.00198800  0.34087300  0.00000000  1
  O  O27  1  0.15912700  0.49801200  0.00000000  1
  O  O28  1  0.49801200  0.84087300  0.00000000  1
  O  O29  1  0.50198800  0.15912700  0.00000000  1
loop_
_geom_bond_atom_site_label_1
_geom_bond_atom_site_label_2
_geom_bond_distance
_geom_bond_site_symmetry_2
Na0 O9 2.697549 1_555
Na0 O9 2.697549 1_556
Na0 O23 2.908169 1_556
Na0 O29 2.908169 1_555
Na0 O23 2.908169 1_555
Na0 O29 2.908169 1_556
Na1 O8 2.697549 1_556
Na1 O8 2.697549 1_555
Na1 O28 2.908169 1_556
Na1 O22 2.908169 1_555
Na1 O22 2.908169 1_556
Na1 O28 2.908169 1_555
Na2 O11 2.697549 1_556
Na2 O11 2.697549 1_555
Na2 O27 2.908169 1_556
Na2 O27 2.908169 1_555
Na2 O26 2.908169 1_555
Na2 O26 2.908169 1_556
Na3 O10 2.697549 1_555
Na3 O10 2.697549 1_556
Na3 O24 2.908169 1_556
Na3 O24 2.908169 1_555
Na3 O25 2.908169 1_555
Na3 O25 2.908169 1_556
Ho0 O4 2.558134 1_455
Ho0 O0 2.558134 1_555
Ho0 O1 2.558134 1_445
Ho0 O2 2.558134 1_545
Ho0 O14 2.656832 1_556
Ho0 O16 2.656832 1_545
Ho0 O16 2.656832 1_546
Ho0 O14 2.656832 1_555
Ho0 O18 2.656832 1_455
Ho0 O15 2.656832 1_446
Ho0 O15 2.656832 1_445
Ho0 O18 2.656832 1_456
Ho1 O5 2.558134 1_555
Ho1 O6 2.558134 1_555
Ho1 O7 2.558134 1_555
Ho1 O3 2.558134 1_555
Ho1 O17 2.656832 1_555
Ho1 O17 2.656832 1_556
Ho1 O21 2.656832 1_555
Ho1 O21 2.656832 1_556
Ho1 O19 2.656832 1_556
Ho1 O19 2.656832 1_555
Ho1 O20 2.656832 1_555
Ho1 O20 2.656832 1_556
O0 Ta2 1.984851 1_556
O0 Ta2 1.984851 1_555
O1 Ta3 1.984851 1_555
O1 Ta3 1.984851 1_556
O2 Ta4 1.984851 1_555
O2 Ta4 1.984851 1_556
O3 Ta5 1.984851 1_556
O3 Ta5 1.984851 1_555
O4 Ta6 1.984851 1_555
O4 Ta6 1.984851 1_556
O5 Ta7 1.984851 1_555
O5 Ta7 1.984851 1_556
O6 Ta8 1.984851 1_556
O6 Ta8 1.984851 1_555
O7 Ta9 1.984851 1_555
O7 Ta9 1.984851 1_556
O8 Ta7 1.999975 1_555
O8 Ta4 1.999975 1_555
O9 Ta5 1.999975 1_555
O9 Ta6 1.999975 1_555
O10 Ta8 1.999975 1_555
O10 Ta3 1.999975 1_555
O11 Ta9 1.999975 1_555
O11 Ta2 1.999975 1_555
O12 Ta0 1.960943 1_555
O12 Ta0 1.960943 1_556
O13 Ta1 1.960943 1_556
O13 Ta1 1.960943 1_555
O14 Ta6 1.989802 1_455
O14 Ta2 2.045959 1_555
O15 Ta4 1.989802 1_655
O15 Ta3 2.045959 1_555
O16 Ta2 1.989802 1_565
O16 Ta4 2.045959 1_555
O17 Ta9 1.989802 1_555
O17 Ta5 2.045959 1_555
O18 Ta3 1.989802 1_545
O18 Ta6 2.045959 1_555
O19 Ta8 1.989802 1_555
O19 Ta7 2.045959 1_555
O20 Ta5 1.989802 1_555
O20 Ta8 2.045959 1_555
O21 Ta7 1.989802 1_555
O21 Ta9 2.045959 1_555
O22 Ta2 1.921287 1_565
O22 Ta0 2.002735 1_565
O23 Ta3 1.921287 1_545
O23 Ta0 2.002735 1_555
O24 Ta4 1.921287 1_655
O24 Ta1 2.002735 1_655
O25 Ta5 1.921287 1_555
O25 Ta1 2.002735 1_655
O26 Ta6 1.921287 1_455
O26 Ta1 2.002735 1_555
O27 Ta7 1.921287 1_555
O27 Ta1 2.002735 1_555
O28 Ta8 1.921287 1_555
O28 Ta0 2.002735 1_565
O29 Ta9 1.921287 1_555
O29 Ta0 2.002735 1_555
