# generated using pymatgen
data_Na2MgH10S2O13
_symmetry_space_group_name_H-M   'P 1'
_cell_length_a   5.85724200
_cell_length_b   24.37098800
_cell_length_c   8.16203763
_cell_angle_alpha   90.00000000
_cell_angle_beta   96.43361341
_cell_angle_gamma   90.00000000
_symmetry_Int_Tables_number   1
_chemical_formula_structural   Na2MgH10S2O13
_chemical_formula_sum   'Na8 Mg4 H40 S8 O52'
_cell_volume   1157.76712810
_cell_formula_units_Z   4
loop_
 _symmetry_equiv_pos_site_id
 _symmetry_equiv_pos_as_xyz
  1  'x, y, z'
loop_
 _atom_site_type_symbol
 _atom_site_label
 _atom_site_symmetry_multiplicity
 _atom_site_fract_x
 _atom_site_fract_y
 _atom_site_fract_z
 _atom_site_occupancy
  Na  Na0  1  0.22145100  0.45029200  0.54737800  1
  Na  Na1  1  0.77854900  0.95029200  0.95262200  1
  Na  Na2  1  0.77854900  0.54970800  0.45262200  1
  Na  Na3  1  0.22145100  0.04970800  0.04737800  1
  Na  Na4  1  0.17070500  0.55229200  0.84823200  1
  Na  Na5  1  0.82929500  0.05229200  0.65176800  1
  Na  Na6  1  0.82929500  0.44770800  0.15176800  1
  Na  Na7  1  0.17070500  0.94770800  0.34823200  1
  Mg  Mg0  1  0.53985300  0.36003400  0.81783600  1
  Mg  Mg1  1  0.46014700  0.86003400  0.68216400  1
  Mg  Mg2  1  0.46014700  0.63996600  0.18216400  1
  Mg  Mg3  1  0.53985300  0.13996600  0.31783600  1
  H  H0  1  0.08957600  0.37442300  0.80134400  1
  H  H1  1  0.91042400  0.87442300  0.69865600  1
  H  H2  1  0.91042400  0.62557700  0.19865600  1
  H  H3  1  0.08957600  0.12557700  0.30134400  1
  H  H4  1  0.21031500  0.42644200  0.89175000  1
  H  H5  1  0.78968500  0.92644200  0.60825000  1
  H  H6  1  0.78968500  0.57355800  0.10825000  1
  H  H7  1  0.21031500  0.07355800  0.39175000  1
  H  H8  1  0.44812600  0.34774400  0.49046100  1
  H  H9  1  0.55187400  0.84774400  0.00953900  1
  H  H10  1  0.55187400  0.65225600  0.50953900  1
  H  H11  1  0.44812600  0.15225600  0.99046100  1
  H  H12  1  0.68900800  0.37816300  0.51683700  1
  H  H13  1  0.31099200  0.87816300  0.98316300  1
  H  H14  1  0.31099200  0.62183700  0.48316300  1
  H  H15  1  0.68900800  0.12183700  0.01683700  1
  H  H16  1  0.92359200  0.32247300  0.97327500  1
  H  H17  1  0.07640800  0.82247300  0.52672500  1
  H  H18  1  0.07640800  0.67752700  0.02672500  1
  H  H19  1  0.92359200  0.17752700  0.47327500  1
  H  H20  1  0.83958200  0.27746400  0.83631000  1
  H  H21  1  0.16041800  0.77746400  0.66369000  1
  H  H22  1  0.16041800  0.72253600  0.16369000  1
  H  H23  1  0.83958200  0.22253600  0.33631000  1
  H  H24  1  0.59839000  0.32404300  0.14705500  1
  H  H25  1  0.40161000  0.82404300  0.35294500  1
  H  H26  1  0.40161000  0.67595700  0.85294500  1
  H  H27  1  0.59839000  0.17595700  0.64705500  1
  H  H28  1  0.34980900  0.35072000  0.10712700  1
  H  H29  1  0.65019100  0.85072000  0.39287300  1
  H  H30  1  0.65019100  0.64928000  0.89287300  1
  H  H31  1  0.34980900  0.14928000  0.60712700  1
  H  H32  1  0.31660200  0.25620200  0.80492400  1
  H  H33  1  0.68339800  0.75620200  0.69507600  1
  H  H34  1  0.68339800  0.74379800  0.19507600  1
  H  H35  1  0.31660200  0.24379800  0.30492400  1
  H  H36  1  0.28655700  0.28624300  0.62970500  1
  H  H37  1  0.71344300  0.78624300  0.87029500  1
  H  H38  1  0.71344300  0.71375700  0.37029500  1
  H  H39  1  0.28655700  0.21375700  0.12970500  1
  S  S0  1  0.29114800  0.50936800  0.19917800  1
  S  S1  1  0.70885200  0.00936800  0.30082200  1
  S  S2  1  0.70885200  0.49063200  0.80082200  1
  S  S3  1  0.29114800  0.99063200  0.69917800  1
  S  S4  1  0.00818800  0.33198800  0.32227400  1
  S  S5  1  0.99181200  0.83198800  0.17772600  1
  S  S6  1  0.99181200  0.66801200  0.67772600  1
  S  S7  1  0.00818800  0.16801200  0.82227400  1
  O  O0  1  0.95124300  0.38118300  0.41862100  1
  O  O1  1  0.04875700  0.88118300  0.08137900  1
  O  O2  1  0.04875700  0.61881700  0.58137900  1
  O  O3  1  0.95124300  0.11881700  0.91862100  1
  O  O4  1  0.06012300  0.35045400  0.15501600  1
  O  O5  1  0.93987700  0.85045400  0.34498400  1
  O  O6  1  0.93987700  0.64954600  0.84498400  1
  O  O7  1  0.06012300  0.14954600  0.65501600  1
  O  O8  1  0.81073600  0.29322500  0.30324600  1
  O  O9  1  0.18926400  0.79322500  0.19675400  1
  O  O10  1  0.18926400  0.70677500  0.69675400  1
  O  O11  1  0.81073600  0.20677500  0.80324600  1
  O  O12  1  0.21753800  0.30371500  0.40777100  1
  O  O13  1  0.78246200  0.80371500  0.09222900  1
  O  O14  1  0.78246200  0.69628500  0.59222900  1
  O  O15  1  0.21753800  0.19628500  0.90777100  1
  O  O16  1  0.11356300  0.50388700  0.31647300  1
  O  O17  1  0.88643700  0.00388700  0.18352700  1
  O  O18  1  0.88643700  0.49611300  0.68352700  1
  O  O19  1  0.11356300  0.99611300  0.81647300  1
  O  O20  1  0.22663400  0.47367200  0.05401200  1
  O  O21  1  0.77336600  0.97367200  0.44598800  1
  O  O22  1  0.77336600  0.52632800  0.94598800  1
  O  O23  1  0.22663400  0.02632800  0.55401200  1
  O  O24  1  0.28907000  0.56771700  0.13687900  1
  O  O25  1  0.71093000  0.06771700  0.36312100  1
  O  O26  1  0.71093000  0.43228300  0.86312100  1
  O  O27  1  0.28907000  0.93228300  0.63687900  1
  O  O28  1  0.52082800  0.49500400  0.28269200  1
  O  O29  1  0.47917200  0.99500400  0.21730800  1
  O  O30  1  0.47917200  0.50499600  0.71730800  1
  O  O31  1  0.52082800  0.00499600  0.78269200  1
  O  O32  1  0.22113500  0.39949200  0.80193200  1
  O  O33  1  0.77886500  0.89949200  0.69806800  1
  O  O34  1  0.77886500  0.60050800  0.19806800  1
  O  O35  1  0.22113500  0.10050800  0.30193200  1
  O  O36  1  0.53919800  0.37462700  0.56173000  1
  O  O37  1  0.46080200  0.87462700  0.93827000  1
  O  O38  1  0.46080200  0.62537300  0.43827000  1
  O  O39  1  0.53919800  0.12537300  0.06173000  1
  O  O40  1  0.85122500  0.31774800  0.85783400  1
  O  O41  1  0.14877500  0.81774800  0.64216600  1
  O  O42  1  0.14877500  0.68225200  0.14216600  1
  O  O43  1  0.85122500  0.18225200  0.35783400  1
  O  O44  1  0.50401600  0.34799200  0.06846200  1
  O  O45  1  0.49598400  0.84799200  0.43153800  1
  O  O46  1  0.49598400  0.65200800  0.93153800  1
  O  O47  1  0.50401600  0.15200800  0.56846200  1
  O  O48  1  0.36662600  0.28788400  0.74223700  1
  O  O49  1  0.63337400  0.78788400  0.75776300  1
  O  O50  1  0.63337400  0.71211600  0.25776300  1
  O  O51  1  0.36662600  0.21211600  0.24223700  1
loop_
_geom_bond_atom_site_label_1
_geom_bond_atom_site_label_2
_geom_bond_distance
_geom_bond_site_symmetry_2
Na0 O16 2.321728 1_555
Na0 O30 2.347464 1_555
Na0 O32 2.418755 1_555
Na0 O0 2.464398 1_455
Na0 O18 2.611712 1_455
Na0 O36 2.613252 1_555
Na1 O17 2.321728 1_566
Na1 O31 2.347464 1_565
Na1 O33 2.418755 1_555
Na1 O1 2.464398 1_656
Na1 O19 2.611712 1_655
Na1 O37 2.613252 1_555
Na2 O18 2.321728 1_555
Na2 O28 2.347464 1_555
Na2 O34 2.418755 1_555
Na2 O2 2.464398 1_655
Na2 O16 2.611712 1_655
Na2 O38 2.613252 1_555
Na3 O19 2.321728 1_544
Na3 O29 2.347464 1_545
Na3 O35 2.418755 1_555
Na3 O3 2.464398 1_454
Na3 O17 2.611712 1_455
Na3 O39 2.613252 1_555
Na4 O24 2.409651 1_556
Na4 O18 2.439764 1_455
Na4 O30 2.483467 1_555
Na4 O20 2.544848 1_556
Na4 O22 2.620981 1_455
Na4 O6 2.727334 1_455
Na4 O2 2.744824 1_555
Na5 O25 2.409651 1_555
Na5 O19 2.439764 1_645
Na5 O31 2.483467 1_555
Na5 O21 2.544848 1_545
Na5 O23 2.620981 1_655
Na5 O7 2.727334 1_655
Na5 O3 2.744824 1_555
Na6 O26 2.409651 1_554
Na6 O16 2.439764 1_655
Na6 O28 2.483467 1_555
Na6 O22 2.544848 1_554
Na6 O20 2.620981 1_655
Na6 O4 2.727334 1_655
Na6 O0 2.744824 1_555
Na7 O27 2.409651 1_555
Na7 O17 2.439764 1_465
Na7 O29 2.483467 1_555
Na7 O23 2.544848 1_565
Na7 O21 2.620981 1_455
Na7 O5 2.727334 1_455
Na7 O1 2.744824 1_555
Mg0 O26 2.039128 1_555
Mg0 O40 2.088387 1_555
Mg0 O48 2.088485 1_555
Mg0 O32 2.090993 1_555
Mg0 O44 2.100231 1_556
Mg0 O36 2.119965 1_555
Mg1 O27 2.039128 1_555
Mg1 O41 2.088387 1_555
Mg1 O49 2.088485 1_555
Mg1 O33 2.090993 1_555
Mg1 O45 2.100231 1_555
Mg1 O37 2.119965 1_555
Mg2 O24 2.039128 1_555
Mg2 O42 2.088387 1_555
Mg2 O50 2.088485 1_555
Mg2 O34 2.090993 1_555
Mg2 O46 2.100231 1_554
Mg2 O38 2.119965 1_555
Mg3 O25 2.039128 1_555
Mg3 O43 2.088387 1_555
Mg3 O51 2.088485 1_555
Mg3 O35 2.090993 1_555
Mg3 O47 2.100231 1_555
Mg3 O39 2.119965 1_555
H0 O32 0.982977 1_555
H1 O33 0.982977 1_555
H2 O34 0.982977 1_555
H3 O35 0.982977 1_555
H4 O32 0.991587 1_555
H5 O33 0.991587 1_555
H6 O34 0.991587 1_555
H7 O35 0.991587 1_555
H8 O36 0.991275 1_555
H9 O37 0.991275 1_554
H10 O38 0.991275 1_555
H11 O39 0.991275 1_556
H12 O36 0.991818 1_555
H13 O37 0.991818 1_555
H14 O38 0.991818 1_555
H15 O39 0.991818 1_555
H16 O40 0.995604 1_555
H17 O41 0.995604 1_555
H18 O42 0.995604 1_555
H19 O43 0.995604 1_555
H20 O40 0.998340 1_555
H21 O41 0.998340 1_555
H22 O42 0.998340 1_555
H23 O43 0.998340 1_555
H24 O44 0.989063 1_555
H25 O45 0.989063 1_555
H26 O46 0.989063 1_555
H27 O47 0.989063 1_555
H28 O44 0.991824 1_555
H29 O45 0.991824 1_555
H30 O46 0.991824 1_555
H31 O47 0.991824 1_555
H32 O48 0.988640 1_555
H33 O49 0.988640 1_555
H34 O50 0.988640 1_555
H35 O51 0.988640 1_555
H36 O48 0.984193 1_555
H37 O49 0.984193 1_555
H38 O50 0.984193 1_555
H39 O51 0.984193 1_555
O0 S4 1.491935 1_655
O1 S5 1.491935 1_455
O2 S6 1.491935 1_455
O3 S7 1.491935 1_655
O4 S4 1.500603 1_555
O5 S5 1.500603 1_555
O6 S6 1.500603 1_555
O7 S7 1.500603 1_555
O8 S4 1.487905 1_655
O9 S5 1.487905 1_455
O10 S6 1.487905 1_455
O11 S7 1.487905 1_655
O12 S4 1.507840 1_555
O13 S5 1.507840 1_555
O14 S6 1.507840 1_555
O15 S7 1.507840 1_555
O16 S0 1.496492 1_555
O17 S1 1.496492 1_555
O18 S2 1.496492 1_555
O19 S3 1.496492 1_555
O20 S0 1.484294 1_555
O21 S1 1.484294 1_565
O22 S2 1.484294 1_555
O23 S3 1.484294 1_545
O24 S0 1.509791 1_555
O25 S1 1.509791 1_555
O26 S2 1.509791 1_555
O27 S3 1.509791 1_555
O28 S0 1.480367 1_555
O29 S1 1.480367 1_565
O30 S2 1.480367 1_555
O31 S3 1.480367 1_545
