# generated using pymatgen
data_MgSi2
_symmetry_space_group_name_H-M   'P 1'
_cell_length_a   4.44900300
_cell_length_b   5.27800026
_cell_length_c   9.67372313
_cell_angle_alpha   93.65090683
_cell_angle_beta   102.62165312
_cell_angle_gamma   112.24951324
_symmetry_Int_Tables_number   1
_chemical_formula_structural   MgSi2
_chemical_formula_sum   'Mg4 Si8'
_cell_volume   202.44908595
_cell_formula_units_Z   4
loop_
 _symmetry_equiv_pos_site_id
 _symmetry_equiv_pos_as_xyz
  1  'x, y, z'
loop_
 _atom_site_type_symbol
 _atom_site_label
 _atom_site_symmetry_multiplicity
 _atom_site_fract_x
 _atom_site_fract_y
 _atom_site_fract_z
 _atom_site_occupancy
  Mg  Mg0  1  0.42024000  0.69100400  0.79798700  1
  Mg  Mg1  1  0.42709600  0.22213900  0.28947600  1
  Mg  Mg2  1  0.07482600  0.59906600  0.21898700  1
  Mg  Mg3  1  0.42501100  0.97048500  0.55187900  1
  Si  Si0  1  0.37954700  0.39453600  0.02520500  1
  Si  Si1  1  0.09456300  0.86976800  0.97848800  1
  Si  Si2  1  0.74561400  0.59134100  0.57185100  1
  Si  Si3  1  0.77090800  0.85361700  0.36429100  1
  Si  Si4  1  0.77386200  0.34683200  0.86854600  1
  Si  Si5  1  0.72313000  0.05839000  0.07166900  1
  Si  Si6  1  0.09063900  0.33429200  0.51870500  1
  Si  Si7  1  0.07533100  0.06852900  0.74314400  1
loop_
_geom_bond_atom_site_label_1
_geom_bond_atom_site_label_2
_geom_bond_distance
_geom_bond_site_symmetry_2
Mg0 Si0 2.776697 1_556
Mg0 Si1 2.823067 1_555
Mg0 Si4 2.844946 1_555
Mg0 Mg3 2.879257 1_555
Mg0 Si1 2.880420 1_655
Mg0 Si5 2.897157 1_566
Mg0 Si6 2.919630 1_555
Mg0 Si7 2.949719 1_565
Mg0 Si2 2.995285 1_555
Mg0 Si7 3.005757 1_555
Mg0 Si4 3.015852 1_455
Mg0 Si7 3.026337 1_665
Mg0 Si2 3.139920 1_455
Mg0 Si4 3.166792 1_565
Mg1 Si0 2.759343 1_555
Mg1 Si3 2.931780 1_545
Mg1 Mg3 2.939077 1_545
Mg1 Si5 2.960391 1_555
Mg1 Si2 2.967548 1_555
Mg1 Mg2 2.990971 1_555
Mg1 Mg2 3.013357 1_545
Mg1 Si3 3.052917 1_555
Mg1 Mg2 3.068761 1_655
Mg1 Si6 3.076180 1_555
Mg1 Si6 3.103422 1_655
Mg1 Si3 3.103607 1_445
Mg1 Si5 3.135256 1_455
Mg1 Si1 3.155455 1_544
Mg2 Si3 2.752253 1_455
Mg2 Si5 2.783692 1_455
Mg2 Si1 2.807024 1_554
Mg2 Si3 2.842134 1_555
Mg2 Si0 2.911801 1_555
Mg2 Si0 2.987860 1_455
Mg3 Si3 2.799722 1_555
Mg3 Si7 2.803061 1_565
Mg3 Si6 2.834799 1_565
Mg3 Si2 2.857738 1_555
Mg3 Si3 2.886600 1_455
Mg3 Si7 2.909808 1_665
Mg3 Si6 2.957610 1_665
Mg3 Si2 2.983634 1_455
Mg3 Si2 3.011504 1_565
Mg3 Si6 3.076098 1_555
Mg3 Si4 3.248258 1_565
Si0 Si1 2.532586 1_544
Si0 Si4 2.624011 1_554
Si0 Si4 2.697101 1_454
Si0 Si5 2.746163 1_555
Si0 Si7 2.874409 1_554
Si0 Si5 2.937686 1_455
Si1 Si5 2.509942 1_566
Si1 Si5 2.513357 1_466
Si1 Si7 2.564762 1_565
Si1 Si4 2.601073 1_455
Si2 Si6 2.508863 1_655
Si2 Si3 2.509036 1_555
Si2 Si7 2.617124 1_665
Si2 Si6 2.618946 1_555
Si3 Si6 2.558712 1_665
Si4 Si5 2.558177 1_556
Si4 Si7 2.721070 1_655
Si4 Si7 2.820633 1_555
Si6 Si7 2.658246 1_555
