# generated using pymatgen
data_Nd2Ru2O7
_symmetry_space_group_name_H-M   'P 1'
_cell_length_a   7.34008713
_cell_length_b   7.34005758
_cell_length_c   7.33824718
_cell_angle_alpha   60.00802149
_cell_angle_beta   60.00816867
_cell_angle_gamma   59.98335347
_symmetry_Int_Tables_number   1
_chemical_formula_structural   Nd2Ru2O7
_chemical_formula_sum   'Nd4 Ru4 O14'
_cell_volume   279.56092471
_cell_formula_units_Z   2
loop_
 _symmetry_equiv_pos_site_id
 _symmetry_equiv_pos_as_xyz
  1  'x, y, z'
loop_
 _atom_site_type_symbol
 _atom_site_label
 _atom_site_symmetry_multiplicity
 _atom_site_fract_x
 _atom_site_fract_y
 _atom_site_fract_z
 _atom_site_occupancy
  Nd  Nd0  1  0.62500010  0.12499965  0.12499994  1
  Nd  Nd1  1  0.12500034  0.62499975  0.12499971  1
  Nd  Nd2  1  0.12500033  0.12499954  0.62499991  1
  Nd  Nd3  1  0.12500045  0.12499965  0.12499984  1
  Ru  Ru0  1  0.12500001  0.62499916  0.62500045  1
  Ru  Ru1  1  0.62500023  0.12500088  0.62499935  1
  Ru  Ru2  1  0.62499955  0.62499920  0.12500080  1
  Ru  Ru3  1  0.62500020  0.62500060  0.62499933  1
  O  O0  1  0.70787508  0.70787346  0.29212860  1
  O  O1  1  0.29212748  0.29212332  0.70787348  1
  O  O2  1  0.70492541  0.29506169  0.70493164  1
  O  O3  1  0.29505871  0.70492618  0.29508094  1
  O  O4  1  0.29506271  0.70492588  0.70493243  1
  O  O5  1  0.70492926  0.29505258  0.29508289  1
  O  O6  1  0.54212653  0.54212486  0.95787253  1
  O  O7  1  0.95787165  0.95787741  0.54212534  1
  O  O8  1  0.54507358  0.95494295  0.54506680  1
  O  O9  1  0.95493948  0.54507293  0.95492146  1
  O  O10  1  0.95493756  0.54507374  0.54506759  1
  O  O11  1  0.54507112  0.95494699  0.95491698  1
  O  O12  1  0.25000030  0.25000257  0.24999968  1
  O  O13  1  -0.00000006  0.99999703  0.00000030  1
loop_
_geom_bond_atom_site_label_1
_geom_bond_atom_site_label_2
_geom_bond_distance
_geom_bond_site_symmetry_2
Nd0 O12 2.247243 1_555
Nd0 O13 2.247243 1_645
Nd0 O6 2.525213 1_554
Nd0 O0 2.525218 1_545
Nd0 O11 2.546020 1_544
Nd0 O5 2.546023 1_555
Nd0 O8 2.546031 1_545
Nd0 O2 2.546041 1_554
Nd1 O12 2.247215 1_555
Nd1 O13 2.247215 1_555
Nd1 O0 2.525228 1_455
Nd1 O6 2.525232 1_554
Nd1 O9 2.546033 1_454
Nd1 O3 2.546034 1_555
Nd1 O4 2.546036 1_554
Nd1 O10 2.546039 1_455
Nd2 O12 2.247241 1_555
Nd2 O13 2.247242 1_546
Nd2 O1 2.525223 1_555
Nd2 O7 2.525228 1_445
Nd2 O4 2.546060 1_545
Nd2 O10 2.546064 1_455
Nd2 O8 2.546070 1_545
Nd2 O2 2.546082 1_455
Nd3 O12 2.247261 1_555
Nd3 O13 2.247261 1_545
Nd3 O7 2.525222 1_445
Nd3 O1 2.525226 1_554
Nd3 O11 2.546051 1_544
Nd3 O5 2.546054 1_455
Nd3 O9 2.546055 1_454
Nd3 O3 2.546056 1_545
O0 Ru3 2.026314 1_555
O0 Ru2 2.026362 1_555
O1 Ru1 2.026327 1_555
O1 Ru0 2.026340 1_555
O2 Ru1 2.013719 1_555
O2 Ru3 2.013847 1_555
O3 Ru0 2.013720 1_555
O3 Ru2 2.013867 1_555
O4 Ru0 2.013741 1_555
O4 Ru3 2.013848 1_555
O5 Ru1 2.013693 1_555
O5 Ru2 2.013889 1_555
O6 Ru3 2.026329 1_555
O6 Ru2 2.026352 1_556
O7 Ru1 2.026320 1_565
O7 Ru0 2.026354 1_655
O8 Ru1 2.013709 1_565
O8 Ru3 2.013868 1_555
O9 Ru0 2.013731 1_655
O9 Ru2 2.013861 1_556
O10 Ru0 2.013737 1_655
O10 Ru3 2.013847 1_555
O11 Ru1 2.013702 1_565
O11 Ru2 2.013898 1_556
