# generated using pymatgen
data_Ho6Ni20P13
_symmetry_space_group_name_H-M   'P 1'
_cell_length_a   12.62335739
_cell_length_b   12.62335739
_cell_length_c   3.73298300
_cell_angle_alpha   90.00000000
_cell_angle_beta   90.00000000
_cell_angle_gamma   119.99999678
_symmetry_Int_Tables_number   1
_chemical_formula_structural   Ho6Ni20P13
_chemical_formula_sum   'Ho6 Ni20 P13'
_cell_volume   515.15321406
_cell_formula_units_Z   1
loop_
 _symmetry_equiv_pos_site_id
 _symmetry_equiv_pos_as_xyz
  1  'x, y, z'
loop_
 _atom_site_type_symbol
 _atom_site_label
 _atom_site_symmetry_multiplicity
 _atom_site_fract_x
 _atom_site_fract_y
 _atom_site_fract_z
 _atom_site_occupancy
  Ho  Ho0  1  0.47161800  0.28104900  0.00000000  1
  Ho  Ho1  1  0.71895100  0.19056900  0.00000000  1
  Ho  Ho2  1  0.80943100  0.52838200  0.00000000  1
  Ho  Ho3  1  0.18872400  0.47060600  0.50000000  1
  Ho  Ho4  1  0.52939400  0.71811800  0.50000000  1
  Ho  Ho5  1  0.28188200  0.81127600  0.50000000  1
  Ni  Ni0  1  0.19593000  0.10369400  0.00000000  1
  Ni  Ni1  1  0.89630600  0.09223600  0.00000000  1
  Ni  Ni2  1  0.90776400  0.80407000  0.00000000  1
  Ni  Ni3  1  0.66666700  0.33333300  0.50000000  1
  Ni  Ni4  1  0.07711200  0.15916400  0.50000000  1
  Ni  Ni5  1  0.84083600  0.91794800  0.50000000  1
  Ni  Ni6  1  0.08205200  0.92288800  0.50000000  1
  Ni  Ni7  1  0.33333300  0.66666700  0.00000000  1
  Ni  Ni8  1  0.43848900  0.02048400  0.00000000  1
  Ni  Ni9  1  0.97951600  0.41800500  0.00000000  1
  Ni  Ni10  1  0.58199500  0.56151100  0.00000000  1
  Ni  Ni11  1  0.31943900  0.06990500  0.50000000  1
  Ni  Ni12  1  0.93009500  0.24953500  0.50000000  1
  Ni  Ni13  1  0.75046500  0.68056100  0.50000000  1
  Ni  Ni14  1  0.02015600  0.58640600  0.50000000  1
  Ni  Ni15  1  0.41359400  0.43375000  0.50000000  1
  Ni  Ni16  1  0.56625000  0.97984400  0.50000000  1
  Ni  Ni17  1  0.24301300  0.32064200  0.00000000  1
  Ni  Ni18  1  0.67935800  0.92237100  0.00000000  1
  Ni  Ni19  1  0.07762900  0.75698700  0.00000000  1
  P  P0  1  0.52533800  0.13749600  0.50000000  1
  P  P1  1  0.86250400  0.38784200  0.50000000  1
  P  P2  1  0.61215800  0.47466200  0.50000000  1
  P  P3  1  0.28151500  0.23160400  0.50000000  1
  P  P4  1  0.76839600  0.04991100  0.50000000  1
  P  P5  1  0.95008900  0.71848500  0.50000000  1
  P  P6  1  0.13813100  0.61485800  0.00000000  1
  P  P7  1  0.38514200  0.52327300  0.00000000  1
  P  P8  1  0.47672700  0.86186900  0.00000000  1
  P  P9  1  0.04989900  0.28412700  0.00000000  1
  P  P10  1  0.71587300  0.76577200  0.00000000  1
  P  P11  1  0.23422800  0.95010100  0.00000000  1
  P  P12  1  0.00000000  0.00000000  0.00000000  1
loop_
_geom_bond_atom_site_label_1
_geom_bond_atom_site_label_2
_geom_bond_distance
_geom_bond_site_symmetry_2
Ho0 P3 2.852067 1_555
Ho0 P3 2.852067 1_554
Ho0 P2 2.875515 1_555
Ho0 P2 2.875515 1_554
Ho0 Ni3 2.890788 1_554
Ho0 Ni3 2.890788 1_555
Ho0 P0 2.907968 1_554
Ho0 P0 2.907968 1_555
Ho0 Ni15 3.024534 1_554
Ho0 Ni15 3.024534 1_555
Ho0 Ni11 3.026216 1_555
Ho0 Ni11 3.026216 1_554
Ho0 Ni0 3.054853 1_555
Ho0 Ni10 3.089126 1_555
Ho0 Ni8 3.101325 1_555
Ho0 Ni17 3.165394 1_555
Ho1 P4 2.852067 1_555
Ho1 P4 2.852067 1_554
Ho1 P0 2.875515 1_554
Ho1 P0 2.875515 1_555
Ho1 Ni3 2.890778 1_554
Ho1 Ni3 2.890778 1_555
Ho1 P1 2.907968 1_555
Ho1 P1 2.907968 1_554
Ho1 Ni16 3.024535 1_544
Ho1 Ni16 3.024535 1_545
Ho1 Ni12 3.026214 1_555
Ho1 Ni12 3.026214 1_554
Ho1 Ni1 3.054853 1_555
Ho1 Ni8 3.089126 1_555
Ho1 Ni9 3.101325 1_555
Ho1 Ni18 3.165394 1_545
Ho2 P5 2.852067 1_555
Ho2 P5 2.852067 1_554
Ho2 P1 2.875515 1_555
Ho2 P1 2.875515 1_554
Ho2 Ni3 2.890785 1_554
Ho2 Ni3 2.890785 1_555
Ho2 P2 2.907968 1_555
Ho2 P2 2.907968 1_554
Ho2 Ni14 3.024535 1_654
Ho2 Ni14 3.024535 1_655
Ho2 Ni13 3.026223 1_555
Ho2 Ni13 3.026223 1_554
Ho2 Ni2 3.054853 1_555
Ho2 Ni9 3.089126 1_555
Ho2 Ni10 3.101325 1_555
Ho2 Ni19 3.165394 1_655
Ho3 P9 2.823275 1_556
Ho3 P9 2.823275 1_555
Ho3 P6 2.893175 1_556
Ho3 P6 2.893175 1_555
Ho3 Ni7 2.902333 1_556
Ho3 Ni7 2.902333 1_555
Ho3 P7 2.902596 1_556
Ho3 P7 2.902596 1_555
Ho3 Ni17 2.972272 1_555
Ho3 Ni17 2.972272 1_556
Ho3 Ni9 3.024155 1_455
Ho3 Ni9 3.024155 1_456
Ho3 Ni12 3.055426 1_455
Ho3 Ni15 3.097554 1_555
Ho3 Ni14 3.126543 1_555
Ho4 P10 2.823275 1_555
Ho4 P10 2.823275 1_556
Ho4 P7 2.893175 1_556
Ho4 P7 2.893175 1_555
Ho4 Ni7 2.902335 1_555
Ho4 Ni7 2.902335 1_556
Ho4 P8 2.902596 1_556
Ho4 P8 2.902596 1_555
Ho4 Ni18 2.972272 1_555
Ho4 Ni18 2.972272 1_556
Ho4 Ni10 3.024155 1_556
Ho4 Ni10 3.024155 1_555
Ho4 Ni13 3.055418 1_555
Ho4 Ni16 3.097554 1_555
Ho4 Ni15 3.126543 1_555
Ho5 P11 2.823275 1_555
Ho5 P11 2.823275 1_556
Ho5 P8 2.893175 1_555
Ho5 P8 2.893175 1_556
Ho5 Ni7 2.902326 1_555
Ho5 Ni7 2.902326 1_556
Ho5 P6 2.902596 1_556
Ho5 P6 2.902596 1_555
Ho5 Ni19 2.972272 1_555
Ho5 Ni19 2.972272 1_556
Ho5 Ni8 3.024155 1_566
Ho5 Ni8 3.024155 1_565
Ho5 Ni11 3.055430 1_565
Ho5 Ni14 3.097554 1_555
Ho5 Ni16 3.126543 1_555
Ni0 P12 2.143156 1_555
Ni0 P11 2.220414 1_545
Ni0 P3 2.348121 1_554
Ni0 P3 2.348121 1_555
Ni1 P12 2.143156 1_655
Ni1 P9 2.220414 1_655
Ni1 P4 2.348121 1_554
Ni1 P4 2.348121 1_555
Ni2 P12 2.143156 1_665
Ni2 P10 2.220414 1_555
Ni2 P5 2.348121 1_555
Ni2 P5 2.348121 1_554
Ni3 P1 2.209934 1_555
Ni3 P0 2.209938 1_555
Ni3 P2 2.209946 1_555
Ni4 P3 2.265926 1_555
Ni4 P12 2.551936 1_556
Ni4 P12 2.551936 1_555
Ni4 P9 2.575274 1_555
Ni4 P9 2.575274 1_556
Ni5 P4 2.265926 1_565
Ni5 P12 2.551936 1_666
Ni5 P12 2.551936 1_665
Ni5 P10 2.575275 1_555
Ni5 P10 2.575275 1_556
Ni6 P5 2.265926 1_455
Ni6 P12 2.551936 1_565
Ni6 P12 2.551936 1_566
Ni6 P11 2.575274 1_556
Ni6 P11 2.575274 1_555
Ni7 P6 2.210882 1_555
Ni7 P8 2.210885 1_555
Ni7 P7 2.210894 1_555
Ni8 P11 2.268689 1_545
Ni8 P8 2.282210 1_545
Ni8 P0 2.290880 1_554
Ni8 P0 2.290880 1_555
Ni9 P9 2.268689 1_655
Ni9 P6 2.282210 1_655
Ni9 P1 2.290880 1_554
Ni9 P1 2.290880 1_555
Ni10 P10 2.268689 1_555
Ni10 P7 2.282210 1_555
Ni10 P2 2.290880 1_555
Ni10 P2 2.290880 1_554
Ni11 P0 2.294745 1_555
Ni11 P11 2.302437 1_546
Ni11 P11 2.302437 1_545
Ni11 P3 2.317927 1_555
Ni12 P1 2.294733 1_555
Ni12 P9 2.302438 1_655
Ni12 P9 2.302438 1_656
Ni12 P4 2.317935 1_555
Ni13 P2 2.294743 1_555
Ni13 P10 2.302431 1_555
Ni13 P10 2.302431 1_556
Ni13 P5 2.317940 1_555
Ni14 P5 2.244283 1_455
Ni14 P1 2.292376 1_455
Ni14 P6 2.301249 1_556
Ni14 P6 2.301249 1_555
Ni15 P3 2.244283 1_555
Ni15 P2 2.292375 1_555
Ni15 P7 2.301249 1_556
Ni15 P7 2.301249 1_555
Ni16 P4 2.244283 1_565
Ni16 P0 2.292375 1_565
Ni16 P8 2.301249 1_555
Ni16 P8 2.301249 1_556
Ni17 P9 2.243082 1_555
Ni17 P7 2.274316 1_555
Ni17 P3 2.351503 1_554
Ni17 P3 2.351503 1_555
Ni18 P10 2.243082 1_555
Ni18 P8 2.274315 1_555
Ni18 P4 2.351503 1_565
Ni18 P4 2.351503 1_564
Ni19 P11 2.243082 1_555
Ni19 P6 2.274315 1_555
Ni19 P5 2.351503 1_454
Ni19 P5 2.351503 1_455
