# generated using pymatgen
data_SnPtSe
_symmetry_space_group_name_H-M   'P 1'
_cell_length_a   6.32177254
_cell_length_b   6.32177254
_cell_length_c   6.32177254
_cell_angle_alpha   90.00000000
_cell_angle_beta   90.00000000
_cell_angle_gamma   90.00000000
_symmetry_Int_Tables_number   1
_chemical_formula_structural   SnPtSe
_chemical_formula_sum   'Sn4 Pt4 Se4'
_cell_volume   252.64842608
_cell_formula_units_Z   4
loop_
 _symmetry_equiv_pos_site_id
 _symmetry_equiv_pos_as_xyz
  1  'x, y, z'
loop_
 _atom_site_type_symbol
 _atom_site_label
 _atom_site_symmetry_multiplicity
 _atom_site_fract_x
 _atom_site_fract_y
 _atom_site_fract_z
 _atom_site_occupancy
  Sn  Sn0  1  0.87801525  0.12198475  0.62198475  1
  Sn  Sn1  1  0.12198475  0.62198475  0.87801525  1
  Sn  Sn2  1  0.62198475  0.87801525  0.12198475  1
  Sn  Sn3  1  0.37801525  0.37801525  0.37801525  1
  Pt  Pt0  1  0.50331226  0.49668774  0.99668774  1
  Pt  Pt1  1  0.49668774  0.99668774  0.50331226  1
  Pt  Pt2  1  0.99668774  0.50331226  0.49668774  1
  Pt  Pt3  1  0.00331226  0.00331226  0.00331226  1
  Se  Se0  1  0.12205625  0.87794375  0.37794375  1
  Se  Se1  1  0.87794375  0.37794375  0.12205625  1
  Se  Se2  1  0.37794375  0.12205625  0.87794375  1
  Se  Se3  1  0.62205625  0.62205625  0.62205625  1
loop_
_geom_bond_atom_site_label_1
_geom_bond_atom_site_label_2
_geom_bond_distance
_geom_bond_site_symmetry_2
Pt0 Se2 2.607807 1_555
Pt0 Se1 2.607807 1_556
Pt0 Se3 2.607807 1_555
Pt0 Sn3 2.646046 1_556
Pt0 Sn1 2.646046 1_555
Pt0 Sn2 2.646046 1_556
Pt1 Se0 2.607807 1_555
Pt1 Se3 2.607807 1_555
Pt1 Se2 2.607807 1_565
Pt1 Sn3 2.646046 1_565
Pt1 Sn0 2.646046 1_565
Pt1 Sn2 2.646046 1_555
Pt2 Se1 2.607807 1_555
Pt2 Se0 2.607807 1_655
Pt2 Se3 2.607807 1_555
Pt2 Sn3 2.646046 1_655
Pt2 Sn0 2.646046 1_555
Pt2 Sn1 2.646046 1_655
Pt3 Se0 2.607807 1_545
Pt3 Se2 2.607807 1_554
Pt3 Se1 2.607807 1_455
Pt3 Sn2 2.646046 1_445
Pt3 Sn1 2.646046 1_544
Pt3 Sn0 2.646046 1_454
Se0 Sn0 2.672159 1_465
Se1 Sn1 2.672159 1_654
Se2 Sn2 2.672159 1_546
Se3 Sn3 2.672159 1_555
