# generated using pymatgen
data_NaMg14Zn
_symmetry_space_group_name_H-M   'P 1'
_cell_length_a   6.37777297
_cell_length_b   6.37777245
_cell_length_c   10.32328486
_cell_angle_alpha   90.00000000
_cell_angle_beta   90.00000000
_cell_angle_gamma   120.00000266
_symmetry_Int_Tables_number   1
_chemical_formula_structural   NaMg14Zn
_chemical_formula_sum   'Na1 Mg14 Zn1'
_cell_volume   363.65252460
_cell_formula_units_Z   1
loop_
 _symmetry_equiv_pos_site_id
 _symmetry_equiv_pos_as_xyz
  1  'x, y, z'
loop_
 _atom_site_type_symbol
 _atom_site_label
 _atom_site_symmetry_multiplicity
 _atom_site_fract_x
 _atom_site_fract_y
 _atom_site_fract_z
 _atom_site_occupancy
  Na  Na0  1  0.16666700  0.33333300  0.62500000  1
  Mg  Mg0  1  0.16481031  0.83240465  0.12500000  1
  Mg  Mg1  1  0.16877788  0.83438844  0.62500000  1
  Mg  Mg2  1  0.66759535  0.33518969  0.12500000  1
  Mg  Mg3  1  0.66561156  0.33122212  0.62500000  1
  Mg  Mg4  1  0.66759535  0.83240465  0.12500000  1
  Mg  Mg5  1  0.66561156  0.83438844  0.62500000  1
  Mg  Mg6  1  0.33262820  0.16737180  0.36797042  1
  Mg  Mg7  1  0.33262820  0.16737180  0.88202958  1
  Mg  Mg8  1  0.33262820  0.66525740  0.36797042  1
  Mg  Mg9  1  0.33262820  0.66525740  0.88202958  1
  Mg  Mg10  1  0.83474260  0.16737180  0.36797042  1
  Mg  Mg11  1  0.83474260  0.16737180  0.88202958  1
  Mg  Mg12  1  0.83333300  0.66666700  0.37676181  1
  Mg  Mg13  1  0.83333300  0.66666700  0.87323819  1
  Zn  Zn0  1  0.16666700  0.33333300  0.12500000  1
loop_
_geom_bond_atom_site_label_1
_geom_bond_atom_site_label_2
_geom_bond_distance
_geom_bond_site_symmetry_2
Mg0 Mg8 3.116773 1_555
Mg0 Mg9 3.116773 1_554
Mg0 Mg6 3.116779 1_565
Mg0 Mg7 3.116779 1_564
Mg0 Mg2 3.171124 1_455
Mg0 Mg4 3.171124 1_455
Mg0 Mg12 3.179130 1_455
Mg0 Mg13 3.179130 1_454
Mg0 Zn0 3.188903 1_555
Mg0 Zn0 3.188903 1_565
Mg0 Mg2 3.206649 1_565
Mg0 Mg4 3.206649 1_555
Mg1 Mg13 3.162252 1_455
Mg1 Mg12 3.162252 1_455
Mg1 Mg3 3.168692 1_565
Mg1 Mg5 3.168692 1_555
Mg1 Na0 3.188908 1_555
Mg1 Na0 3.188908 1_565
Mg1 Mg3 3.209080 1_455
Mg1 Mg5 3.209081 1_455
Mg1 Mg9 3.228509 1_555
Mg1 Mg8 3.228509 1_555
Mg1 Mg7 3.228515 1_565
Mg1 Mg6 3.228515 1_565
Mg2 Mg7 3.116779 1_554
Mg2 Mg6 3.116779 1_555
Mg2 Mg4 3.171124 1_555
Mg2 Zn0 3.188903 1_655
Mg2 Zn0 3.188903 1_555
Mg2 Mg4 3.206649 1_545
Mg3 Mg5 3.168692 1_545
Mg3 Na0 3.188908 1_555
Mg3 Na0 3.188908 1_655
Mg3 Mg5 3.209080 1_555
Mg3 Mg6 3.228515 1_555
Mg3 Mg7 3.228515 1_555
Mg4 Mg9 3.116779 1_554
Mg4 Mg8 3.116779 1_555
Mg4 Zn0 3.188903 1_665
Mg4 Zn0 3.188903 1_555
Mg5 Na0 3.188908 1_555
Mg5 Na0 3.188908 1_665
Mg5 Mg8 3.228515 1_555
Mg5 Mg9 3.228515 1_555
Mg6 Zn0 3.106825 1_555
Mg6 Mg8 3.175401 1_555
Mg6 Mg8 3.202371 1_545
Mg6 Na0 3.225137 1_555
Mg7 Zn0 3.106825 1_556
Mg7 Mg9 3.175401 1_555
Mg7 Mg9 3.202371 1_545
Mg7 Na0 3.225137 1_555
Mg8 Zn0 3.106832 1_555
Mg8 Na0 3.225143 1_555
Mg9 Zn0 3.106832 1_556
Mg9 Na0 3.225143 1_555
Mg10 Zn0 3.106832 1_655
Mg10 Mg2 3.116773 1_555
Mg10 Mg4 3.116779 1_545
Mg10 Mg8 3.175401 1_655
Mg10 Mg6 3.175401 1_655
Mg10 Mg12 3.190187 1_545
Mg10 Mg12 3.190187 1_555
Mg10 Mg8 3.202371 1_545
Mg10 Mg6 3.202372 1_555
Mg10 Na0 3.225143 1_655
Mg10 Mg3 3.228509 1_555
Mg10 Mg5 3.228515 1_545
Mg11 Zn0 3.106832 1_656
Mg11 Mg2 3.116773 1_556
Mg11 Mg4 3.116779 1_546
Mg11 Mg9 3.175401 1_655
Mg11 Mg7 3.175401 1_655
Mg11 Mg13 3.190187 1_545
Mg11 Mg13 3.190187 1_555
Mg11 Mg9 3.202371 1_545
Mg11 Mg7 3.202372 1_555
Mg11 Na0 3.225143 1_655
Mg11 Mg3 3.228509 1_555
Mg11 Mg5 3.228515 1_545
Mg12 Mg5 3.162245 1_555
Mg12 Mg3 3.162252 1_555
Mg12 Mg4 3.179124 1_555
Mg12 Mg2 3.179130 1_555
Mg12 Mg6 3.190187 1_665
Mg12 Mg6 3.190187 1_555
Mg12 Mg8 3.190187 1_655
Mg12 Mg8 3.190187 1_555
Mg13 Mg5 3.162245 1_555
Mg13 Mg3 3.162252 1_555
Mg13 Mg4 3.179124 1_556
Mg13 Mg2 3.179130 1_556
Mg13 Mg7 3.190187 1_665
Mg13 Mg7 3.190187 1_555
Mg13 Mg9 3.190187 1_655
Mg13 Mg9 3.190187 1_555
