# generated using pymatgen
data_Tl2CuH12(SeO7)2
_symmetry_space_group_name_H-M   'P 1'
_cell_length_a   12.84065400
_cell_length_b   6.40958000
_cell_length_c   9.50663335
_cell_angle_alpha   75.99656977
_cell_angle_beta   90.00000000
_cell_angle_gamma   90.00000000
_symmetry_Int_Tables_number   1
_chemical_formula_structural   Tl2CuH12(SeO7)2
_chemical_formula_sum   'Tl4 Cu2 H24 Se4 O28'
_cell_volume   759.17359692
_cell_formula_units_Z   2
loop_
 _symmetry_equiv_pos_site_id
 _symmetry_equiv_pos_as_xyz
  1  'x, y, z'
loop_
 _atom_site_type_symbol
 _atom_site_label
 _atom_site_symmetry_multiplicity
 _atom_site_fract_x
 _atom_site_fract_y
 _atom_site_fract_z
 _atom_site_occupancy
  Tl  Tl0  1  0.14073100  0.65492700  0.62067900  1
  Tl  Tl1  1  0.64073100  0.34507300  0.87932100  1
  Tl  Tl2  1  0.85926900  0.34507300  0.37932100  1
  Tl  Tl3  1  0.35926900  0.65492700  0.12067900  1
  Cu  Cu0  1  0.50000000  0.00000000  0.50000000  1
  Cu  Cu1  1  0.00000000  0.00000000  0.00000000  1
  H  H0  1  0.41316400  0.68866900  0.69216000  1
  H  H1  1  0.91316400  0.31133100  0.80784000  1
  H  H2  1  0.58683600  0.31133100  0.30784000  1
  H  H3  1  0.08683600  0.68866900  0.19216000  1
  H  H4  1  0.37696900  0.91083200  0.73026900  1
  H  H5  1  0.87696900  0.08916800  0.76973100  1
  H  H6  1  0.62303100  0.08916800  0.26973100  1
  H  H7  1  0.12303100  0.91083200  0.23026900  1
  H  H8  1  0.39969700  0.07158700  0.21857600  1
  H  H9  1  0.89969700  0.92841300  0.28142400  1
  H  H10  1  0.60030300  0.92841300  0.78142400  1
  H  H11  1  0.10030300  0.07158700  0.71857600  1
  H  H12  1  0.31299100  0.99118200  0.33652700  1
  H  H13  1  0.81299100  0.00881800  0.16347300  1
  H  H14  1  0.68700900  0.00881800  0.66347300  1
  H  H15  1  0.18700900  0.99118200  0.83652700  1
  H  H16  1  0.55832700  0.68030500  0.40029700  1
  H  H17  1  0.05832700  0.31969500  0.09970300  1
  H  H18  1  0.44167300  0.31969500  0.59970300  1
  H  H19  1  0.94167300  0.68030500  0.90029700  1
  H  H20  1  0.63447500  0.69007900  0.53300200  1
  H  H21  1  0.13447500  0.30992100  0.96699800  1
  H  H22  1  0.36552500  0.30992100  0.46699800  1
  H  H23  1  0.86552500  0.69007900  0.03300200  1
  Se  Se0  1  0.35800200  0.26666300  0.89281300  1
  Se  Se1  1  0.85800200  0.73333700  0.60718700  1
  Se  Se2  1  0.64199800  0.73333700  0.10718700  1
  Se  Se3  1  0.14199800  0.26666300  0.39281300  1
  O  O0  1  0.25053300  0.41226500  0.89957700  1
  O  O1  1  0.75053300  0.58773500  0.60042300  1
  O  O2  1  0.74946700  0.58773500  0.10042300  1
  O  O3  1  0.24946700  0.41226500  0.39957700  1
  O  O4  1  0.42765500  0.23953800  0.04445300  1
  O  O5  1  0.92765500  0.76046200  0.45554700  1
  O  O6  1  0.57234500  0.76046200  0.95554700  1
  O  O7  1  0.07234500  0.23953800  0.54445300  1
  O  O8  1  0.43336800  0.40282800  0.75534100  1
  O  O9  1  0.93336800  0.59717200  0.74465900  1
  O  O10  1  0.56663200  0.59717200  0.24465900  1
  O  O11  1  0.06663200  0.40282800  0.25534100  1
  O  O12  1  0.32538200  0.02462900  0.86588300  1
  O  O13  1  0.82538200  0.97537100  0.63411700  1
  O  O14  1  0.67461800  0.97537100  0.13411700  1
  O  O15  1  0.17461800  0.02462900  0.36588300  1
  O  O16  1  0.39368800  0.84166600  0.64959200  1
  O  O17  1  0.89368800  0.15833400  0.85040800  1
  O  O18  1  0.60631200  0.15833400  0.35040800  1
  O  O19  1  0.10631200  0.84166600  0.14959200  1
  O  O20  1  0.38567800  0.96406500  0.31013600  1
  O  O21  1  0.88567800  0.03593500  0.18986400  1
  O  O22  1  0.61432200  0.03593500  0.68986400  1
  O  O23  1  0.11432200  0.96406500  0.81013600  1
  O  O24  1  0.56210200  0.72138100  0.49549500  1
  O  O25  1  0.06210200  0.27861900  0.00450500  1
  O  O26  1  0.43789800  0.27861900  0.50450500  1
  O  O27  1  0.93789800  0.72138100  0.99549500  1
loop_
_geom_bond_atom_site_label_1
_geom_bond_atom_site_label_2
_geom_bond_distance
_geom_bond_site_symmetry_2
Cu0 O26 1.965690 1_555
Cu0 O24 1.965690 1_545
Cu0 O18 2.053634 1_555
Cu0 O16 2.053634 1_545
Cu0 O22 2.380565 1_555
Cu0 O20 2.380565 1_545
Cu1 O25 1.965690 1_555
Cu1 O27 1.965690 1_444
Cu1 O19 2.053634 1_545
Cu1 O17 2.053634 1_454
Cu1 O21 2.380565 1_455
Cu1 O23 2.380565 1_544
H0 O16 0.997956 1_555
H1 O17 0.997956 1_555
H2 O18 0.997956 1_555
H3 O19 0.997956 1_555
H4 O16 0.997706 1_555
H5 O17 0.997706 1_555
H6 O18 0.997706 1_555
H7 O19 0.997706 1_555
H8 O20 0.987264 1_545
H9 O21 0.987264 1_565
H10 O22 0.987264 1_565
H11 O23 0.987264 1_545
H12 O20 0.992672 1_555
H13 O21 0.992672 1_555
H14 O22 0.992672 1_555
H15 O23 0.992672 1_555
H16 O24 1.003009 1_555
H16 O10 1.692941 1_555
H17 O25 1.003009 1_555
H17 O11 1.692941 1_555
H18 O26 1.003009 1_555
H18 O8 1.692941 1_555
H19 O27 1.003009 1_555
H19 O9 1.692941 1_555
H20 O24 0.998198 1_555
H20 O1 1.690716 1_555
H21 O25 0.998198 1_556
H21 O0 1.690716 1_555
H22 O26 0.998198 1_555
H22 O3 1.690716 1_555
H23 O27 0.998198 1_554
H23 O2 1.690716 1_555
O0 Se0 1.675844 1_555
O1 Se1 1.675844 1_555
O2 Se2 1.675844 1_555
O3 Se3 1.675844 1_555
O4 Se0 1.669441 1_554
O5 Se1 1.669441 1_555
O6 Se2 1.669441 1_556
O7 Se3 1.669441 1_555
O8 Se0 1.689443 1_555
O9 Se1 1.689443 1_555
O10 Se2 1.689443 1_555
O11 Se3 1.689443 1_555
O12 Se0 1.685184 1_555
O13 Se1 1.685184 1_555
O14 Se2 1.685184 1_555
O15 Se3 1.685184 1_555
