# generated using pymatgen
data_YbGaGe
_symmetry_space_group_name_H-M   'P 1'
_cell_length_a   4.16487395
_cell_length_b   4.16487395
_cell_length_c   15.61132769
_cell_angle_alpha   90.00000000
_cell_angle_beta   90.00000000
_cell_angle_gamma   119.99999260
_symmetry_Int_Tables_number   1
_chemical_formula_structural   YbGaGe
_chemical_formula_sum   'Yb4 Ga4 Ge4'
_cell_volume   234.51694476
_cell_formula_units_Z   4
loop_
 _symmetry_equiv_pos_site_id
 _symmetry_equiv_pos_as_xyz
  1  'x, y, z'
loop_
 _atom_site_type_symbol
 _atom_site_label
 _atom_site_symmetry_multiplicity
 _atom_site_fract_x
 _atom_site_fract_y
 _atom_site_fract_z
 _atom_site_occupancy
  Yb  Yb0  1  0.00000000  0.00000000  0.75000000  1
  Yb  Yb1  1  0.00000000  0.00000000  0.25000000  1
  Yb  Yb2  1  0.00000000  0.00000000  0.50000000  1
  Yb  Yb3  1  0.00000000  0.00000000  0.00000000  1
  Ga  Ga0  1  0.66666700  0.33333300  0.86533788  1
  Ga  Ga1  1  0.66666700  0.33333300  0.63466212  1
  Ga  Ga2  1  0.33333300  0.66666700  0.13466212  1
  Ga  Ga3  1  0.33333300  0.66666700  0.36533788  1
  Ge  Ge0  1  0.66666700  0.33333300  0.11719775  1
  Ge  Ge1  1  0.66666700  0.33333300  0.38280225  1
  Ge  Ge2  1  0.33333300  0.66666700  0.88280225  1
  Ge  Ge3  1  0.33333300  0.66666700  0.61719775  1
loop_
_geom_bond_atom_site_label_1
_geom_bond_atom_site_label_2
_geom_bond_distance
_geom_bond_site_symmetry_2
Ga0 Ge2 2.419996 1_655
Ga0 Ge2 2.419996 1_545
Ga0 Ge2 2.420003 1_555
Ga0 Yb0 3.004018 1_655
Ga0 Yb0 3.004021 1_555
Ga0 Yb0 3.004021 1_665
Ga0 Yb3 3.193982 1_656
Ga0 Yb3 3.193985 1_556
Ga0 Yb3 3.193985 1_666
Ga1 Ge3 2.419996 1_655
Ga1 Ge3 2.419996 1_545
Ga1 Ge3 2.420003 1_555
Ga1 Yb0 3.004018 1_655
Ga1 Yb0 3.004021 1_555
Ga1 Yb0 3.004021 1_665
Ga1 Yb2 3.193982 1_655
Ga1 Yb2 3.193985 1_555
Ga1 Yb2 3.193985 1_665
Ga2 Ge0 2.419996 1_565
Ga2 Ge0 2.419996 1_455
Ga2 Ge0 2.420003 1_555
Ga2 Yb1 3.004018 1_565
Ga2 Yb1 3.004021 1_555
Ga2 Yb1 3.004021 1_665
Ga2 Yb3 3.193982 1_565
Ga2 Yb3 3.193985 1_555
Ga2 Yb3 3.193985 1_665
Ga3 Ge1 2.419996 1_455
Ga3 Ge1 2.419996 1_565
Ga3 Ge1 2.420003 1_555
Ga3 Yb1 3.004018 1_565
Ga3 Yb1 3.004021 1_555
Ga3 Yb1 3.004021 1_665
Ga3 Yb2 3.193982 1_565
Ga3 Yb2 3.193985 1_555
Ga3 Yb2 3.193985 1_665
Ge0 Yb3 3.021511 1_655
Ge0 Yb3 3.021514 1_555
Ge0 Yb3 3.021514 1_665
Ge0 Yb1 3.174947 1_655
Ge0 Yb1 3.174949 1_555
Ge0 Yb1 3.174949 1_665
Ge1 Yb2 3.021511 1_655
Ge1 Yb2 3.021514 1_555
Ge1 Yb2 3.021514 1_665
Ge1 Yb1 3.174947 1_655
Ge1 Yb1 3.174949 1_555
Ge1 Yb1 3.174949 1_665
Ge2 Yb3 3.021511 1_566
Ge2 Yb3 3.021514 1_556
Ge2 Yb3 3.021514 1_666
Ge2 Yb0 3.174947 1_565
Ge2 Yb0 3.174949 1_555
Ge2 Yb0 3.174949 1_665
Ge3 Yb2 3.021511 1_565
Ge3 Yb2 3.021514 1_555
Ge3 Yb2 3.021514 1_665
Ge3 Yb0 3.174947 1_565
Ge3 Yb0 3.174949 1_555
Ge3 Yb0 3.174949 1_665
