# generated using pymatgen
data_CeAl(CuNi)2
_symmetry_space_group_name_H-M   'P 1'
_cell_length_a   4.94491586
_cell_length_b   4.94491586
_cell_length_c   4.10179400
_cell_angle_alpha   90.00000000
_cell_angle_beta   90.00000000
_cell_angle_gamma   118.01605668
_symmetry_Int_Tables_number   1
_chemical_formula_structural   CeAl(CuNi)2
_chemical_formula_sum   'Ce1 Al1 Cu2 Ni2'
_cell_volume   88.54455299
_cell_formula_units_Z   1
loop_
 _symmetry_equiv_pos_site_id
 _symmetry_equiv_pos_as_xyz
  1  'x, y, z'
loop_
 _atom_site_type_symbol
 _atom_site_label
 _atom_site_symmetry_multiplicity
 _atom_site_fract_x
 _atom_site_fract_y
 _atom_site_fract_z
 _atom_site_occupancy
  Ce  Ce0  1  0.00000000  0.00000000  0.00000000  1
  Al  Al0  1  0.50000000  0.50000000  0.50000000  1
  Cu  Cu0  1  0.50000000  0.00000000  0.50000000  1
  Cu  Cu1  1  0.00000000  0.50000000  0.50000000  1
  Ni  Ni0  1  0.66418100  0.33581900  0.00000000  1
  Ni  Ni1  1  0.33581900  0.66418100  0.00000000  1
loop_
_geom_bond_atom_site_label_1
_geom_bond_atom_site_label_2
_geom_bond_distance
_geom_bond_site_symmetry_2
Ce0 Ni1 2.847058 1_545
Ce0 Ni0 2.847058 1_455
Ce0 Ni0 2.901845 1_555
Ce0 Ni1 2.901845 1_445
Ce0 Ni1 2.901845 1_555
Ce0 Ni0 2.901845 1_445
Ce0 Cu1 3.212355 1_554
Ce0 Cu0 3.212355 1_555
Ce0 Cu0 3.212355 1_554
Ce0 Cu1 3.212355 1_544
Ce0 Cu1 3.212355 1_555
Ce0 Cu0 3.212355 1_455
Ce0 Cu1 3.212355 1_545
Ce0 Cu0 3.212355 1_454
Al0 Cu0 2.472458 1_555
Al0 Cu0 2.472458 1_565
Al0 Cu1 2.472458 1_655
Al0 Cu1 2.472458 1_555
Al0 Ni1 2.478632 1_555
Al0 Ni0 2.478632 1_555
Al0 Ni1 2.478632 1_556
Al0 Ni0 2.478632 1_556
Al0 Ce0 3.269472 1_556
Al0 Ce0 3.269472 1_555
Al0 Ce0 3.269472 1_665
Al0 Ce0 3.269472 1_666
Cu0 Ni1 2.521181 1_545
Cu0 Ni0 2.521181 1_555
Cu0 Ni0 2.521181 1_556
Cu0 Ni1 2.521181 1_546
Cu0 Cu1 2.546226 1_545
Cu0 Cu1 2.546226 1_655
Cu1 Ni0 2.521181 1_456
Cu1 Ni1 2.521181 1_555
Cu1 Ni0 2.521181 1_455
Cu1 Ni1 2.521181 1_556
Ni0 Ni1 2.783838 1_555
Ni0 Ni1 2.932694 1_655
Ni0 Ni1 2.932694 1_545
