# generated using pymatgen
data_La3Nd(CuO4)2
_symmetry_space_group_name_H-M   'P 1'
_cell_length_a   5.34611200
_cell_length_b   5.51083700
_cell_length_c   7.06956145
_cell_angle_alpha   89.84161514
_cell_angle_beta   67.78347827
_cell_angle_gamma   90.00000000
_symmetry_Int_Tables_number   1
_chemical_formula_structural   La3Nd(CuO4)2
_chemical_formula_sum   'La3 Nd1 Cu2 O8'
_cell_volume   192.81699718
_cell_formula_units_Z   1
loop_
 _symmetry_equiv_pos_site_id
 _symmetry_equiv_pos_as_xyz
  1  'x, y, z'
loop_
 _atom_site_type_symbol
 _atom_site_label
 _atom_site_symmetry_multiplicity
 _atom_site_fract_x
 _atom_site_fract_y
 _atom_site_fract_z
 _atom_site_occupancy
  La  La0  1  0.14059100  0.51219100  0.71881800  1
  La  La1  1  0.64035200  0.98676100  0.71929600  1
  La  La2  1  0.36094500  0.01255700  0.27810900  1
  Nd  Nd0  1  0.86301800  0.48289600  0.27396400  1
  Cu  Cu0  1  0.49878000  0.49956600  0.00244000  1
  Cu  Cu1  1  0.99972700  0.99817800  0.00054700  1
  O  O0  1  0.76118500  0.25003600  0.97904100  1
  O  O1  1  0.73825300  0.74704600  0.02693800  1
  O  O2  1  0.23480800  0.74704600  0.02693800  1
  O  O3  1  0.25977400  0.25003600  0.97904100  1
  O  O4  1  0.68836900  0.55799000  0.62326200  1
  O  O5  1  0.31464400  0.44678800  0.37071200  1
  O  O6  1  0.81374200  0.06179000  0.37251600  1
  O  O7  1  0.18581100  0.94711700  0.62837700  1
loop_
_geom_bond_atom_site_label_1
_geom_bond_atom_site_label_2
_geom_bond_distance
_geom_bond_site_symmetry_2
La0 O5 2.307656 1_555
La0 O7 2.467097 1_555
La0 O3 2.597922 1_555
La0 O0 2.597922 1_455
La0 O2 2.742071 1_556
La0 O1 2.742074 1_456
La0 O4 2.756646 1_555
La0 O4 2.756646 1_455
La0 O7 3.171522 1_545
La1 O6 2.305722 1_565
La1 O4 2.446863 1_555
La1 O3 2.608833 1_565
La1 O0 2.608833 1_565
La1 O7 2.747325 1_655
La1 O7 2.747330 1_555
La1 O1 2.755749 1_556
La1 O2 2.755751 1_556
La1 O4 3.208240 1_565
La2 O7 2.319538 1_545
La2 O5 2.470285 1_555
La2 O2 2.582348 1_545
La2 O1 2.582348 1_545
La2 O3 2.706458 1_554
La2 O0 2.706460 1_554
La2 O6 2.757098 1_455
La2 O6 2.757103 1_555
La2 O5 3.174442 1_545
Nd0 O4 2.324431 1_555
Nd0 O6 2.406757 1_555
Nd0 O2 2.545686 1_655
Nd0 O1 2.545689 1_555
Nd0 O3 2.676454 1_654
Nd0 O0 2.676454 1_554
Nd0 O5 2.754088 1_555
Nd0 O5 2.754088 1_655
Cu0 O1 1.923024 1_555
Cu0 O2 1.923028 1_555
Cu0 O0 1.926672 1_554
Cu0 O3 1.926672 1_554
Cu0 O5 2.426863 1_555
Cu0 O4 2.501462 1_554
Cu1 O2 1.924962 1_655
Cu1 O1 1.924969 1_555
Cu1 O3 1.929061 1_664
Cu1 O0 1.929065 1_564
Cu1 O7 2.452786 1_654
Cu1 O6 2.460582 1_565
