# generated using pymatgen
data_Ni(PO3)3
_symmetry_space_group_name_H-M   'P 1'
_cell_length_a   9.44646600
_cell_length_b   9.45546614
_cell_length_c   9.78771946
_cell_angle_alpha   109.71671282
_cell_angle_beta   104.96511220
_cell_angle_gamma   108.62491116
_symmetry_Int_Tables_number   1
_chemical_formula_structural   Ni(PO3)3
_chemical_formula_sum   'Ni4 P12 O36'
_cell_volume   711.23769689
_cell_formula_units_Z   4
loop_
 _symmetry_equiv_pos_site_id
 _symmetry_equiv_pos_as_xyz
  1  'x, y, z'
loop_
 _atom_site_type_symbol
 _atom_site_label
 _atom_site_symmetry_multiplicity
 _atom_site_fract_x
 _atom_site_fract_y
 _atom_site_fract_z
 _atom_site_occupancy
  Ni  Ni0  1  0.74465500  0.22515300  0.27695800  1
  Ni  Ni1  1  0.90757300  0.70882800  0.78826100  1
  Ni  Ni2  1  0.25534500  0.77484700  0.72304200  1
  Ni  Ni3  1  0.09242700  0.29117200  0.21173900  1
  P  P0  1  0.30089900  0.43406100  0.59234900  1
  P  P1  1  0.04968800  0.78293000  0.16285600  1
  P  P2  1  0.57096400  0.33967600  0.70971800  1
  P  P3  1  0.99757600  0.39475200  0.64473100  1
  P  P4  1  0.51168100  0.15391200  0.90232300  1
  P  P5  1  0.81278700  0.90685000  0.07617900  1
  P  P6  1  0.18721300  0.09315000  0.92382100  1
  P  P7  1  0.00242400  0.60524800  0.35526900  1
  P  P8  1  0.69910100  0.56593900  0.40765100  1
  P  P9  1  0.48831900  0.84608800  0.09767700  1
  P  P10  1  0.42903600  0.66032400  0.29028200  1
  P  P11  1  0.95031200  0.21707000  0.83714400  1
  O  O0  1  0.36016100  0.81101100  0.94809300  1
  O  O1  1  0.78464600  0.07479900  0.71863100  1
  O  O2  1  0.27026700  0.51595200  0.24504100  1
  O  O3  1  0.58993300  0.30398200  0.86068500  1
  O  O4  1  0.00468600  0.62595100  0.19910100  1
  O  O5  1  0.84843600  0.25895900  0.50093300  1
  O  O6  1  0.99531400  0.37404900  0.80089900  1
  O  O7  1  0.57297400  0.60434100  0.29708400  1
  O  O8  1  0.36453600  0.62059900  0.65527200  1
  O  O9  1  0.81928200  0.85497800  0.91682100  1
  O  O10  1  0.74691000  0.67191500  0.58071400  1
  O  O11  1  0.42702600  0.39565900  0.70291600  1
  O  O12  1  0.21535400  0.92520100  0.28136900  1
  O  O13  1  0.15156400  0.74104100  0.49906700  1
  O  O14  1  0.63546400  0.37940100  0.34472800  1
  O  O15  1  0.96056600  0.28025200  0.00488200  1
  O  O16  1  0.56176400  0.01408600  0.23993000  1
  O  O17  1  0.88025000  0.09285000  0.18634200  1
  O  O18  1  0.63983900  0.18898900  0.05190700  1
  O  O19  1  0.96449000  0.42361900  0.31460700  1
  O  O20  1  0.43823600  0.98591400  0.76007000  1
  O  O21  1  0.03551000  0.57638100  0.68539300  1
  O  O22  1  0.15301100  0.36257000  0.64008100  1
  O  O23  1  0.18071800  0.14502200  0.08317900  1
  O  O24  1  0.90275000  0.82929500  0.17469600  1
  O  O25  1  0.72973300  0.48404800  0.75495900  1
  O  O26  1  0.48032300  0.81321600  0.44320500  1
  O  O27  1  0.36813200  0.19373900  0.94119500  1
  O  O28  1  0.41006700  0.69601800  0.13931500  1
  O  O29  1  0.84698900  0.63743000  0.35991900  1
  O  O30  1  0.63186800  0.80626100  0.05880500  1
  O  O31  1  0.25309000  0.32808500  0.41928600  1
  O  O32  1  0.09725000  0.17070500  0.82530400  1
  O  O33  1  0.11975000  0.90715000  0.81365800  1
  O  O34  1  0.51967700  0.18678400  0.55679500  1
  O  O35  1  0.03943400  0.71974800  0.99511800  1
loop_
_geom_bond_atom_site_label_1
_geom_bond_atom_site_label_2
_geom_bond_distance
_geom_bond_site_symmetry_2
Ni0 O16 2.021233 1_555
Ni0 O5 2.021413 1_555
Ni0 O18 2.024463 1_555
Ni0 O14 2.071859 1_555
Ni0 O19 2.149159 1_555
Ni0 O17 2.203153 1_555
Ni1 O35 2.033659 1_655
Ni1 O10 2.035390 1_555
Ni1 O9 2.072094 1_555
Ni1 O25 2.101166 1_555
Ni1 O33 2.150112 1_655
Ni1 O21 2.187947 1_655
Ni2 O20 2.021233 1_555
Ni2 O13 2.021413 1_555
Ni2 O0 2.024463 1_555
Ni2 O8 2.071859 1_555
Ni2 O21 2.149159 1_555
Ni2 O33 2.203153 1_555
Ni3 O15 2.033659 1_455
Ni3 O31 2.035390 1_555
Ni3 O23 2.072094 1_555
Ni3 O2 2.101166 1_555
Ni3 O17 2.150112 1_455
Ni3 O19 2.187947 1_455
O0 P9 1.489852 1_556
O1 P11 1.506373 1_555
O2 P10 1.500130 1_555
O3 P2 1.602424 1_555
O3 P4 1.613015 1_555
O4 P1 1.593702 1_555
O4 P7 1.609742 1_555
O5 P3 1.488458 1_555
O6 P11 1.593702 1_555
O6 P3 1.609742 1_555
O7 P10 1.603185 1_555
O7 P8 1.611870 1_555
O8 P0 1.500085 1_555
O9 P5 1.493189 1_556
O10 P8 1.499301 1_555
O11 P2 1.603185 1_555
O11 P0 1.611870 1_555
O12 P1 1.506373 1_555
O13 P7 1.488458 1_555
O14 P8 1.500085 1_555
O15 P11 1.510236 1_554
O16 P9 1.499361 1_545
O17 P5 1.520365 1_545
O18 P4 1.489852 1_554
O19 P7 1.519306 1_655
O20 P4 1.499361 1_565
O21 P3 1.519306 1_455
O22 P3 1.600364 1_455
O22 P0 1.604320 1_555
O23 P6 1.493189 1_554
O24 P1 1.603053 1_655
O24 P5 1.625337 1_555
O25 P2 1.500130 1_555
O26 P10 1.510985 1_555
O27 P6 1.599021 1_555
O27 P4 1.619058 1_555
O28 P10 1.602424 1_555
O28 P9 1.613015 1_555
O29 P7 1.600364 1_655
O29 P8 1.604320 1_555
O30 P5 1.599021 1_555
O30 P9 1.619058 1_555
O31 P0 1.499301 1_555
O32 P11 1.603053 1_455
O32 P6 1.625337 1_555
O33 P6 1.520365 1_565
O34 P2 1.510985 1_555
O35 P1 1.510236 1_556
