# generated using pymatgen
data_Li7Mn2(CoO4)3
_symmetry_space_group_name_H-M   'P 1'
_cell_length_a   2.81734566
_cell_length_b   7.46565758
_cell_length_c   9.57816711
_cell_angle_alpha   99.96810119
_cell_angle_beta   90.01324139
_cell_angle_gamma   100.88663785
_symmetry_Int_Tables_number   1
_chemical_formula_structural   Li7Mn2(CoO4)3
_chemical_formula_sum   'Li7 Mn2 Co3 O12'
_cell_volume   194.73570052
_cell_formula_units_Z   1
loop_
 _symmetry_equiv_pos_site_id
 _symmetry_equiv_pos_as_xyz
  1  'x, y, z'
loop_
 _atom_site_type_symbol
 _atom_site_label
 _atom_site_symmetry_multiplicity
 _atom_site_fract_x
 _atom_site_fract_y
 _atom_site_fract_z
 _atom_site_occupancy
  Li  Li0  1  0.07229192  0.15247871  0.71695844  1
  Li  Li1  1  0.58606223  0.17186947  0.26944878  1
  Li  Li2  1  0.74807109  0.49071275  0.74447267  1
  Li  Li3  1  0.24837188  0.49414197  0.25582638  1
  Li  Li4  1  0.41823515  0.83479056  0.73800120  1
  Li  Li5  1  0.92409883  0.85566826  0.27459709  1
  Li  Li6  1  0.50298164  0.00646657  0.49880200  1
  Mn  Mn0  1  0.00074776  0.00021952  0.00081055  1
  Mn  Mn1  1  0.83696111  0.67433100  0.50280078  1
  Co  Co0  1  0.66751816  0.33405942  0.99679263  1
  Co  Co1  1  0.16310104  0.32704168  0.49860870  1
  Co  Co2  1  0.33329374  0.66563703  0.00266703  1
  O  O0  1  0.54170514  0.08204464  0.88941413  1
  O  O1  1  0.04932086  0.09906243  0.38041199  1
  O  O2  1  0.21205356  0.42333165  0.89300201  1
  O  O3  1  0.71043810  0.42137773  0.38980915  1
  O  O4  1  0.87784150  0.75472871  0.89490904  1
  O  O5  1  0.36837303  0.73741742  0.38660067  1
  O  O6  1  0.62891429  0.25931674  0.61351318  1
  O  O7  1  0.12365173  0.24632271  0.10488739  1
  O  O8  1  0.29065180  0.58132695  0.61064300  1
  O  O9  1  0.78873622  0.57649029  0.10622986  1
  O  O10  1  0.94756825  0.89456162  0.61924719  1
  O  O11  1  0.45901297  0.91660217  0.11154313  1
loop_
_geom_bond_atom_site_label_1
_geom_bond_atom_site_label_2
_geom_bond_distance
_geom_bond_site_symmetry_2
Li0 O10 1.956372 1_445
Li0 O6 1.956440 1_455
Li0 O6 1.969516 1_555
Li0 O0 2.290082 1_455
Li0 O0 2.305723 1_555
Li0 O2 2.367621 1_555
Li1 O1 1.896264 1_655
Li1 O1 1.897898 1_555
Li1 O3 1.982786 1_555
Li1 O11 2.188990 1_545
Li1 O7 2.250879 1_555
Li1 O7 2.252490 1_655
Li2 O6 1.923796 1_555
Li2 O8 2.085185 1_655
Li2 O8 2.095302 1_555
Li2 O2 2.116840 1_655
Li2 O2 2.125864 1_555
Li2 O4 2.199826 1_555
Li3 O5 1.990516 1_555
Li3 O3 2.035773 1_555
Li3 O3 2.042088 1_455
Li3 O7 2.112998 1_555
Li3 O9 2.168218 1_555
Li3 O9 2.170894 1_455
Li4 O10 1.908417 1_555
Li4 O10 1.910444 1_455
Li4 O8 2.035115 1_555
Li4 O0 2.112363 1_565
Li4 O4 2.212480 1_555
Li4 O4 2.214087 1_455
Li5 O1 1.890402 1_665
Li5 O5 2.046491 1_555
Li5 O5 2.059512 1_655
Li5 O11 2.198434 1_555
Li5 O11 2.214788 1_655
Li5 O9 2.371920 1_555
Li6 O6 1.981226 1_555
Li6 O1 2.000448 1_555
Li6 O1 2.000806 1_655
Li6 O5 2.073188 1_545
Li6 O10 2.078011 1_445
Li6 O10 2.079911 1_545
Mn0 O7 1.901271 1_555
Mn0 O4 1.903756 1_444
Mn0 O0 1.925518 1_454
Mn0 O0 1.925903 1_554
Mn0 O11 1.927207 1_445
Mn0 O11 1.927316 1_545
Mn1 O10 1.793271 1_555
Mn1 O5 1.902096 1_655
Mn1 O5 1.902388 1_555
Mn1 O8 1.939938 1_555
Mn1 O8 1.940561 1_655
Mn1 O3 1.975503 1_555
Co0 O9 1.897549 1_556
Co0 O2 1.905239 1_655
Co0 O2 1.905495 1_555
Co0 O7 1.924723 1_656
Co0 O7 1.924893 1_556
Co0 O0 1.949696 1_555
Co1 O1 1.846062 1_555
Co1 O6 1.905730 1_555
Co1 O6 1.907322 1_455
Co1 O3 1.949651 1_455
Co1 O3 1.950504 1_555
Co1 O8 1.980268 1_555
Co2 O2 1.897623 1_554
Co2 O9 1.903648 1_555
Co2 O9 1.903745 1_455
Co2 O4 1.927077 1_454
Co2 O4 1.927259 1_554
Co2 O11 1.948367 1_555
