# generated using pymatgen
data_Lu5Tl3
_symmetry_space_group_name_H-M   'P 1'
_cell_length_a   6.54740700
_cell_length_b   8.81231200
_cell_length_c   8.83190782
_cell_angle_alpha   119.92663135
_cell_angle_beta   90.00000000
_cell_angle_gamma   90.00000000
_symmetry_Int_Tables_number   1
_chemical_formula_structural   Lu5Tl3
_chemical_formula_sum   'Lu10 Tl6'
_cell_volume   441.63650755
_cell_formula_units_Z   2
loop_
 _symmetry_equiv_pos_site_id
 _symmetry_equiv_pos_as_xyz
  1  'x, y, z'
loop_
 _atom_site_type_symbol
 _atom_site_label
 _atom_site_symmetry_multiplicity
 _atom_site_fract_x
 _atom_site_fract_y
 _atom_site_fract_z
 _atom_site_occupancy
  Lu  Lu0  1  0.50000000  0.33324700  0.66649500  1
  Lu  Lu1  1  0.50000000  0.66675300  0.33350500  1
  Lu  Lu2  1  0.00000000  0.66675300  0.33350500  1
  Lu  Lu3  1  0.00000000  0.33324700  0.66649500  1
  Lu  Lu4  1  0.75000000  0.24766700  0.00000000  1
  Lu  Lu5  1  0.75000000  0.75244500  0.75227500  1
  Lu  Lu6  1  0.75000000  0.00017000  0.24772500  1
  Lu  Lu7  1  0.25000000  0.75233300  0.00000000  1
  Lu  Lu8  1  0.25000000  0.24755500  0.24772500  1
  Lu  Lu9  1  0.25000000  0.99983000  0.75227500  1
  Tl  Tl0  1  0.75000000  0.60773300  0.00000000  1
  Tl  Tl1  1  0.75000000  0.39187900  0.39200000  1
  Tl  Tl2  1  0.75000000  0.99987800  0.60800000  1
  Tl  Tl3  1  0.25000000  0.39226700  0.00000000  1
  Tl  Tl4  1  0.25000000  0.60812100  0.60800000  1
  Tl  Tl5  1  0.25000000  0.00012200  0.39200000  1
loop_
_geom_bond_atom_site_label_1
_geom_bond_atom_site_label_2
_geom_bond_distance
_geom_bond_site_symmetry_2
Lu0 Tl4 3.172101 1_555
Lu0 Tl2 3.172101 1_545
Lu0 Tl5 3.173848 1_555
Lu0 Tl1 3.173857 1_555
Lu0 Tl3 3.177596 1_556
Lu0 Tl0 3.177599 1_556
Lu1 Tl5 3.172101 1_565
Lu1 Tl1 3.172101 1_555
Lu1 Tl2 3.173848 1_555
Lu1 Tl4 3.173857 1_555
Lu1 Tl0 3.177596 1_555
Lu1 Tl3 3.177599 1_555
Lu2 Tl5 3.172101 1_565
Lu2 Tl1 3.172101 1_455
Lu2 Tl2 3.173848 1_455
Lu2 Tl4 3.173857 1_555
Lu2 Tl0 3.177596 1_455
Lu2 Tl3 3.177599 1_555
Lu3 Tl4 3.172101 1_555
Lu3 Tl2 3.172101 1_445
Lu3 Tl5 3.173848 1_555
Lu3 Tl1 3.173857 1_455
Lu3 Tl3 3.177596 1_556
Lu3 Tl0 3.177599 1_456
Lu4 Tl1 3.034996 1_555
Lu4 Tl2 3.034997 1_544
Lu4 Tl0 3.173014 1_555
Lu4 Tl3 3.512958 1_555
Lu4 Tl3 3.512958 1_655
Lu5 Tl2 3.024940 1_555
Lu5 Tl0 3.032655 1_556
Lu5 Tl1 3.183196 1_555
Lu5 Tl4 3.513023 1_555
Lu5 Tl4 3.513023 1_655
Lu6 Tl1 3.024948 1_555
Lu6 Tl0 3.032655 1_545
Lu6 Tl2 3.183200 1_545
Lu6 Tl5 3.513021 1_555
Lu6 Tl5 3.513021 1_655
Lu7 Tl4 3.034996 1_554
Lu7 Tl5 3.034997 1_565
Lu7 Tl3 3.173014 1_555
Lu7 Tl0 3.512958 1_555
Lu7 Tl0 3.512958 1_455
Lu8 Tl5 3.024940 1_555
Lu8 Tl3 3.032655 1_555
Lu8 Tl4 3.183196 1_555
Lu8 Tl1 3.513023 1_555
Lu8 Tl1 3.513023 1_455
Lu9 Tl4 3.024948 1_555
Lu9 Tl3 3.032655 1_566
Lu9 Tl5 3.183200 1_565
Lu9 Tl2 3.513021 1_455
Lu9 Tl2 3.513021 1_555
