# generated using pymatgen
data_LiMnP2O7
_symmetry_space_group_name_H-M   'P 1'
_cell_length_a   9.71883200
_cell_length_b   9.95398218
_cell_length_c   11.11280975
_cell_angle_alpha   99.30150163
_cell_angle_beta   90.32556160
_cell_angle_gamma   90.16480791
_symmetry_Int_Tables_number   1
_chemical_formula_structural   LiMnP2O7
_chemical_formula_sum   'Li8 Mn8 P16 O56'
_cell_volume   1060.90473588
_cell_formula_units_Z   8
loop_
 _symmetry_equiv_pos_site_id
 _symmetry_equiv_pos_as_xyz
  1  'x, y, z'
loop_
 _atom_site_type_symbol
 _atom_site_label
 _atom_site_symmetry_multiplicity
 _atom_site_fract_x
 _atom_site_fract_y
 _atom_site_fract_z
 _atom_site_occupancy
  Li  Li0  1  0.89023300  0.08728000  0.01899600  1
  Li  Li1  1  0.40878700  0.41804300  0.98078200  1
  Li  Li2  1  0.80412400  0.39732900  0.54406400  1
  Li  Li3  1  0.19584600  0.60365400  0.45966300  1
  Li  Li4  1  0.86699700  0.64978700  0.04845100  1
  Li  Li5  1  0.11544800  0.91152900  0.98049500  1
  Li  Li6  1  0.44296500  0.89810700  0.50522600  1
  Li  Li7  1  0.72147000  0.89333200  0.55144800  1
  Mn  Mn0  1  0.08360500  0.19011500  0.65561400  1
  Mn  Mn1  1  0.77200700  0.28976900  0.84042000  1
  Mn  Mn2  1  0.28105000  0.21163300  0.15804100  1
  Mn  Mn3  1  0.57326000  0.30807600  0.33937300  1
  Mn  Mn4  1  0.42285100  0.68994300  0.66690500  1
  Mn  Mn5  1  0.71640300  0.77825200  0.83637300  1
  Mn  Mn6  1  0.22581800  0.70727900  0.15974700  1
  Mn  Mn7  1  0.92373500  0.81028400  0.33970400  1
  P  P0  1  0.56225800  0.02572600  0.75548400  1
  P  P1  1  0.29256300  0.12438100  0.87750000  1
  P  P2  1  0.06766000  0.06006900  0.24427700  1
  P  P3  1  0.85107200  0.13421400  0.43205100  1
  P  P4  1  0.34868900  0.36894600  0.56511500  1
  P  P5  1  0.56964400  0.43354500  0.75357800  1
  P  P6  1  0.93577800  0.54081200  0.76663300  1
  P  P7  1  0.78779500  0.37702800  0.12202400  1
  P  P8  1  0.21531100  0.61821000  0.87656700  1
  P  P9  1  0.06545700  0.45669100  0.23668900  1
  P  P10  1  0.42851100  0.56107800  0.24636500  1
  P  P11  1  0.64754800  0.63271300  0.43062600  1
  P  P12  1  0.14577200  0.86964700  0.56640500  1
  P  P13  1  0.93700300  0.94063200  0.75644300  1
  P  P14  1  0.71002500  0.88198000  0.12100000  1
  P  P15  1  0.43345300  0.96086600  0.23533900  1
  O  O0  1  0.57210300  0.00530800  0.61841900  1
  O  O1  1  0.15683200  0.01566400  0.54859200  1
  O  O2  1  0.93608400  0.08610000  0.72454900  1
  O  O3  1  0.67355400  0.11283200  0.82940700  1
  O  O4  1  0.42006400  0.10240000  0.78438000  1
  O  O5  1  0.18558100  0.19479100  0.80573800  1
  O  O6  1  0.34300000  0.22784300  0.99099500  1
  O  O7  1  0.74896600  0.02024800  0.10034100  1
  O  O8  1  0.93331000  0.13151700  0.30635600  1
  O  O9  1  0.06022900  0.06325000  0.10856200  1
  O  O10  1  0.44154200  0.10356400  0.19264500  1
  O  O11  1  0.71568400  0.20605500  0.41425300  1
  O  O12  1  0.19190300  0.14847700  0.29598700  1
  O  O13  1  0.93320800  0.22300100  0.53471400  1
  O  O14  1  0.43363500  0.28541100  0.46407900  1
  O  O15  1  0.69361300  0.35055300  0.69143900  1
  O  O16  1  0.20912400  0.30874600  0.58725800  1
  O  O17  1  0.93633800  0.39939900  0.81135400  1
  O  O18  1  0.43297100  0.36783900  0.69213800  1
  O  O19  1  0.57630600  0.40919300  0.88449900  1
  O  O20  1  0.26105700  0.48396700  0.90129400  1
  O  O21  1  0.83004100  0.27194200  0.00637200  1
  O  O22  1  0.67348800  0.31323700  0.19019400  1
  O  O23  1  0.91656800  0.38561000  0.21467100  1
  O  O24  1  0.42665900  0.41287000  0.27236900  1
  O  O25  1  0.16424400  0.36677100  0.14973900  1
  O  O26  1  0.89704600  0.54242800  0.63759300  1
  O  O27  1  0.66460300  0.48608900  0.44883500  1
  O  O28  1  0.33622000  0.52056900  0.55500400  1
  O  O29  1  0.09123800  0.46776200  0.36978900  1
  O  O30  1  0.85112600  0.64012400  0.86273700  1
  O  O31  1  0.57343900  0.58622300  0.73690900  1
  O  O32  1  0.08994300  0.59897600  0.78055800  1
  O  O33  1  0.31950100  0.70226900  0.81311800  1
  O  O34  1  0.15822900  0.71554400  0.99177400  1
  O  O35  1  0.76051700  0.51372700  0.09050000  1
  O  O36  1  0.41470700  0.57242400  0.11323400  1
  O  O37  1  0.56901200  0.62993200  0.30178400  1
  O  O38  1  0.05748500  0.59948800  0.18955900  1
  O  O39  1  0.78127700  0.71045000  0.41828700  1
  O  O40  1  0.30979300  0.65199200  0.31002800  1
  O  O41  1  0.55848300  0.72086900  0.52995200  1
  O  O42  1  0.06322500  0.77564700  0.46636200  1
  O  O43  1  0.81093000  0.85403300  0.70081800  1
  O  O44  1  0.28735100  0.80217700  0.58098500  1
  O  O45  1  0.55499100  0.88220800  0.79988900  1
  O  O46  1  0.94150900  0.93359700  0.89104800  1
  O  O47  1  0.06985500  0.86392200  0.69452000  1
  O  O48  1  0.25458700  0.99021300  0.90959800  1
  O  O49  1  0.67062100  0.77891300  0.00510200  1
  O  O50  1  0.82275300  0.80424100  0.18582600  1
  O  O51  1  0.58237300  0.88962300  0.21055600  1
  O  O52  1  0.33131400  0.87123900  0.14899500  1
  O  O53  1  0.07047300  0.91206400  0.27398200  1
  O  O54  1  0.83503300  0.98526100  0.44735800  1
  O  O55  1  0.41182000  0.96497100  0.36755600  1
loop_
_geom_bond_atom_site_label_1
_geom_bond_atom_site_label_2
_geom_bond_distance
_geom_bond_site_symmetry_2
Li0 O7 1.830621 1_555
Li0 O21 1.956836 1_555
Li0 O9 1.959103 1_655
Li0 O46 1.979775 1_544
Li1 O20 1.857603 1_555
Li1 O19 1.947674 1_555
Li1 O36 1.949014 1_556
Li1 O6 2.017272 1_555
Li2 O26 1.865065 1_555
Li2 O27 2.007992 1_555
Li2 O15 2.077544 1_555
Li2 O13 2.133430 1_555
Li2 O11 2.352322 1_555
Li3 O29 1.845172 1_555
Li3 O28 1.985215 1_555
Li3 O40 2.121211 1_555
Li3 O42 2.137859 1_555
Li3 O44 2.372465 1_555
Li4 O35 1.823605 1_555
Li4 O50 2.032664 1_555
Li4 O30 2.055349 1_554
Li4 O49 2.393840 1_555
Li4 O38 2.522530 1_655
Li5 O48 1.807839 1_555
Li5 O9 1.978080 1_566
Li5 O46 1.986873 1_455
Li5 O34 2.019268 1_555
Li6 O55 1.788923 1_555
Li6 O0 1.958725 1_565
Li6 O44 2.043022 1_555
Li6 O41 2.147798 1_555
Li7 O0 1.912334 1_565
Li7 O54 1.935040 1_555
Li7 O43 1.964626 1_555
Li7 O39 2.233064 1_555
Li7 O41 2.315337 1_555
Mn0 O5 1.929634 1_555
Mn0 O16 1.936957 1_555
Mn0 O2 1.993678 1_455
Mn0 O13 2.042395 1_455
Mn0 O1 2.070134 1_555
Mn1 O21 1.960918 1_556
Mn1 O3 1.987902 1_555
Mn1 O17 1.988893 1_555
Mn1 O15 1.999924 1_555
Mn1 O19 2.259639 1_555
Mn1 O2 2.740256 1_555
Mn2 O25 1.933096 1_555
Mn2 O12 1.954313 1_555
Mn2 O10 1.968390 1_555
Mn2 O6 1.985836 1_554
Mn2 O24 2.601895 1_555
Mn2 O9 2.606825 1_555
Mn3 O22 1.935303 1_555
Mn3 O11 1.976832 1_555
Mn3 O24 1.979931 1_555
Mn3 O14 1.983315 1_555
Mn3 O27 2.165520 1_555
Mn3 O10 2.707376 1_555
Mn4 O33 1.902331 1_555
Mn4 O31 2.017035 1_555
Mn4 O44 2.057418 1_555
Mn4 O41 2.078597 1_555
Mn4 O28 2.097591 1_555
Mn4 O45 2.558501 1_555
Mn5 O49 1.928563 1_556
Mn5 O30 1.956237 1_555
Mn5 O45 1.958011 1_555
Mn5 O43 2.015265 1_555
Mn5 O31 2.467841 1_555
Mn5 O46 2.684821 1_555
Mn6 O52 1.945230 1_555
Mn6 O34 1.989642 1_554
Mn6 O40 2.010518 1_555
Mn6 O38 2.012074 1_555
Mn6 O36 2.289066 1_555
Mn6 O53 2.692421 1_555
Mn7 O53 1.958664 1_655
Mn7 O50 1.959161 1_555
Mn7 O39 1.988318 1_555
Mn7 O42 2.018847 1_655
Mn7 O54 2.134192 1_555
O0 P0 1.507391 1_555
O1 P12 1.501868 1_545
O2 P13 1.545414 1_545
O3 P0 1.533261 1_555
O4 P0 1.589750 1_555
O4 P1 1.611582 1_555
O5 P1 1.543917 1_555
O6 P1 1.569021 1_555
O7 P14 1.479973 1_545
O8 P2 1.594871 1_655
O8 P3 1.609764 1_555
O9 P2 1.514933 1_555
O10 P15 1.570506 1_545
O11 P3 1.526445 1_555
O12 P2 1.544414 1_555
O13 P3 1.542579 1_555
O14 P4 1.531773 1_555
O15 P5 1.562590 1_555
O16 P4 1.518636 1_555
O17 P6 1.566706 1_555
O18 P5 1.580717 1_555
O18 P4 1.629598 1_555
O19 P5 1.514169 1_555
O20 P8 1.476303 1_555
O21 P7 1.577472 1_555
O22 P7 1.540214 1_555
O23 P9 1.608879 1_655
O23 P7 1.609326 1_555
O24 P10 1.548529 1_555
O25 P9 1.546766 1_555
O26 P6 1.483126 1_555
O27 P11 1.514932 1_555
O28 P4 1.536513 1_555
O29 P9 1.485141 1_555
O30 P6 1.571009 1_555
O31 P5 1.560796 1_555
O32 P6 1.602333 1_455
O32 P8 1.605435 1_555
O33 P8 1.554537 1_555
O34 P8 1.579795 1_555
O35 P7 1.483112 1_555
O36 P10 1.507116 1_555
O37 P10 1.600699 1_555
O37 P11 1.614945 1_555
O38 P9 1.594212 1_555
O39 P11 1.528820 1_555
O40 P10 1.568134 1_555
O41 P11 1.561976 1_555
O42 P12 1.550610 1_555
O43 P13 1.561905 1_555
O44 P12 1.551959 1_555
O45 P0 1.586512 1_565
O46 P13 1.509136 1_555
O47 P13 1.602997 1_455
O47 P12 1.616331 1_555
O48 P1 1.483133 1_565
O49 P14 1.556600 1_555
O50 P14 1.579296 1_555
O51 P14 1.589184 1_555
O51 P15 1.618890 1_555
O52 P15 1.552214 1_555
O53 P2 1.561246 1_565
O54 P3 1.527109 1_565
O55 P15 1.479485 1_555
