# generated using pymatgen
data_Li3Ni2(PO4)3
_symmetry_space_group_name_H-M   'P 1'
_cell_length_a   8.80684600
_cell_length_b   8.76587100
_cell_length_c   15.02864669
_cell_angle_alpha   54.90936935
_cell_angle_beta   90.00000000
_cell_angle_gamma   90.00000000
_symmetry_Int_Tables_number   1
_chemical_formula_structural   Li3Ni2(PO4)3
_chemical_formula_sum   'Li12 Ni8 P12 O48'
_cell_volume   949.33182636
_cell_formula_units_Z   4
loop_
 _symmetry_equiv_pos_site_id
 _symmetry_equiv_pos_as_xyz
  1  'x, y, z'
loop_
 _atom_site_type_symbol
 _atom_site_label
 _atom_site_symmetry_multiplicity
 _atom_site_fract_x
 _atom_site_fract_y
 _atom_site_fract_z
 _atom_site_occupancy
  Li  Li0  1  0.93460300  0.35009700  0.70965900  1
  Li  Li1  1  0.22376900  0.02989800  0.18105700  1
  Li  Li2  1  0.26903400  0.38733300  0.81558400  1
  Li  Li3  1  0.76903400  0.61266700  0.68441600  1
  Li  Li4  1  0.72376900  0.97010200  0.31894300  1
  Li  Li5  1  0.43460300  0.64990300  0.79034100  1
  Li  Li6  1  0.56539700  0.35009700  0.20965900  1
  Li  Li7  1  0.27623100  0.02989800  0.68105700  1
  Li  Li8  1  0.23096600  0.38733300  0.31558400  1
  Li  Li9  1  0.73096600  0.61266700  0.18441600  1
  Li  Li10  1  0.77623100  0.97010200  0.81894300  1
  Li  Li11  1  0.06539700  0.64990300  0.29034100  1
  Ni  Ni0  1  0.45697300  0.63181700  0.61164900  1
  Ni  Ni1  1  0.95697300  0.36818300  0.88835100  1
  Ni  Ni2  1  0.54201100  0.12466800  0.11358400  1
  Ni  Ni3  1  0.04201100  0.87533200  0.38641600  1
  Ni  Ni4  1  0.95798900  0.12466800  0.61358400  1
  Ni  Ni5  1  0.45798900  0.87533200  0.88641600  1
  Ni  Ni6  1  0.04302700  0.63181700  0.11164900  1
  Ni  Ni7  1  0.54302700  0.36818300  0.38835100  1
  P  P0  1  0.75557100  0.53897200  0.50126600  1
  P  P1  1  0.61029600  0.25596700  0.85028000  1
  P  P2  1  0.89651300  0.96190300  0.14748700  1
  P  P3  1  0.39651300  0.03809700  0.35251300  1
  P  P4  1  0.11029600  0.74403300  0.64972000  1
  P  P5  1  0.25557100  0.46102800  0.99873400  1
  P  P6  1  0.74442900  0.53897200  0.00126600  1
  P  P7  1  0.88970400  0.25596700  0.35028000  1
  P  P8  1  0.60348700  0.96190300  0.64748700  1
  P  P9  1  0.10348700  0.03809700  0.85251300  1
  P  P10  1  0.38970400  0.74403300  0.14972000  1
  P  P11  1  0.24442900  0.46102800  0.49873400  1
  O  O0  1  0.12976300  0.61729400  0.42800900  1
  O  O1  1  0.33564000  0.47984200  0.57737500  1
  O  O2  1  0.10820600  0.21248800  0.85585100  1
  O  O3  1  0.40563700  0.90039600  0.16736200  1
  O  O4  1  0.65904600  0.55768900  0.58173600  1
  O  O5  1  0.58825500  0.16689400  0.97197100  1
  O  O6  1  0.77213000  0.34123300  0.81113700  1
  O  O7  1  0.01961100  0.91408700  0.23465400  1
  O  O8  1  0.83138300  0.73616500  0.43175000  1
  O  O9  1  0.74060900  0.98647900  0.18388700  1
  O  O10  1  0.94663400  0.13583800  0.03901400  1
  O  O11  1  0.48982900  0.41367100  0.78580000  1
  O  O12  1  0.98982900  0.58632900  0.71420000  1
  O  O13  1  0.44663400  0.86416200  0.46098600  1
  O  O14  1  0.24060900  0.01352100  0.31611300  1
  O  O15  1  0.33138300  0.26383500  0.06825000  1
  O  O16  1  0.51961100  0.08591300  0.26534600  1
  O  O17  1  0.27213000  0.65876700  0.68886300  1
  O  O18  1  0.08825500  0.83310600  0.52802900  1
  O  O19  1  0.15904600  0.44231100  0.91826400  1
  O  O20  1  0.60820600  0.78751200  0.64414900  1
  O  O21  1  0.90563700  0.09960400  0.33263800  1
  O  O22  1  0.83564000  0.52015800  0.92262500  1
  O  O23  1  0.62976300  0.38270600  0.07199100  1
  O  O24  1  0.37023700  0.61729400  0.92800900  1
  O  O25  1  0.16436000  0.47984200  0.07737500  1
  O  O26  1  0.09436300  0.90039600  0.66736200  1
  O  O27  1  0.39179400  0.21248800  0.35585100  1
  O  O28  1  0.84095400  0.55768900  0.08173600  1
  O  O29  1  0.91174500  0.16689400  0.47197100  1
  O  O30  1  0.72787000  0.34123300  0.31113700  1
  O  O31  1  0.48038900  0.91408700  0.73465400  1
  O  O32  1  0.66861700  0.73616500  0.93175000  1
  O  O33  1  0.75939100  0.98647900  0.68388700  1
  O  O34  1  0.55336600  0.13583800  0.53901400  1
  O  O35  1  0.01017100  0.41367100  0.28580000  1
  O  O36  1  0.51017100  0.58632900  0.21420000  1
  O  O37  1  0.05336600  0.86416200  0.96098600  1
  O  O38  1  0.25939100  0.01352100  0.81611300  1
  O  O39  1  0.16861700  0.26383500  0.56825000  1
  O  O40  1  0.98038900  0.08591300  0.76534600  1
  O  O41  1  0.22787000  0.65876700  0.18886300  1
  O  O42  1  0.41174500  0.83310600  0.02802900  1
  O  O43  1  0.34095400  0.44231100  0.41826400  1
  O  O44  1  0.59436300  0.09960400  0.83263800  1
  O  O45  1  0.89179400  0.78751200  0.14414900  1
  O  O46  1  0.66436000  0.52015800  0.42262500  1
  O  O47  1  0.87023700  0.38270600  0.57199100  1
loop_
_geom_bond_atom_site_label_1
_geom_bond_atom_site_label_2
_geom_bond_distance
_geom_bond_site_symmetry_2
Li0 O40 1.999407 1_555
Li0 O47 2.000921 1_555
Li0 O6 2.059868 1_555
Li0 O12 2.166061 1_555
Li0 O2 2.360636 1_655
Li1 O14 1.956351 1_555
Li1 O7 1.992989 1_545
Li1 O15 1.995103 1_555
Li1 O3 2.040847 1_545
Li2 O2 1.911818 1_555
Li2 O11 1.978877 1_555
Li2 O17 2.019678 1_555
Li2 O19 2.099254 1_555
Li3 O20 1.911818 1_555
Li3 O12 1.978877 1_555
Li3 O6 2.019678 1_555
Li3 O4 2.099254 1_555
Li4 O9 1.956351 1_555
Li4 O16 1.992989 1_565
Li4 O8 1.995103 1_555
Li4 O21 2.040847 1_565
Li5 O31 1.999407 1_555
Li5 O24 2.000921 1_555
Li5 O17 2.059868 1_555
Li5 O11 2.166061 1_555
Li5 O20 2.360636 1_555
Li6 O16 1.999407 1_555
Li6 O23 2.000921 1_555
Li6 O30 2.059868 1_555
Li6 O36 2.166061 1_555
Li6 O27 2.360636 1_555
Li7 O38 1.956351 1_555
Li7 O31 1.992989 1_545
Li7 O39 1.995103 1_555
Li7 O26 2.040847 1_545
Li8 O27 1.911818 1_555
Li8 O35 1.978877 1_555
Li8 O41 2.019678 1_555
Li8 O43 2.099254 1_555
Li9 O45 1.911818 1_555
Li9 O36 1.978877 1_555
Li9 O30 2.019678 1_555
Li9 O28 2.099254 1_555
Li10 O33 1.956351 1_555
Li10 O40 1.992989 1_565
Li10 O32 1.995103 1_555
Li10 O44 2.040847 1_565
Li11 O7 1.999407 1_555
Li11 O0 2.000921 1_555
Li11 O41 2.059868 1_555
Li11 O35 2.166061 1_555
Li11 O45 2.360636 1_455
Ni0 O1 1.992696 1_555
Ni0 O13 1.995281 1_555
Ni0 O4 2.031566 1_555
Ni0 O17 2.089876 1_555
Ni0 O20 2.154438 1_555
Ni0 O11 2.199126 1_555
Ni1 O22 1.992696 1_555
Ni1 O10 1.995281 1_556
Ni1 O19 2.031566 1_655
Ni1 O6 2.089876 1_555
Ni1 O2 2.154438 1_655
Ni1 O12 2.199126 1_555
Ni2 O5 1.981565 1_554
Ni2 O3 2.033166 1_545
Ni2 O9 2.042363 1_545
Ni2 O15 2.106584 1_555
Ni2 O16 2.113154 1_555
Ni2 O23 2.116288 1_555
Ni3 O18 1.981565 1_555
Ni3 O21 2.033166 1_465
Ni3 O14 2.042363 1_565
Ni3 O8 2.106584 1_455
Ni3 O7 2.113154 1_555
Ni3 O0 2.116288 1_555
Ni4 O29 1.981565 1_555
Ni4 O26 2.033166 1_645
Ni4 O33 2.042363 1_545
Ni4 O39 2.106584 1_655
Ni4 O40 2.113154 1_555
Ni4 O47 2.116288 1_555
Ni5 O42 1.981565 1_556
Ni5 O44 2.033166 1_565
Ni5 O38 2.042363 1_565
Ni5 O32 2.106584 1_555
Ni5 O31 2.113154 1_555
Ni5 O24 2.116288 1_555
Ni6 O25 1.992696 1_555
Ni6 O37 1.995281 1_554
Ni6 O28 2.031566 1_455
Ni6 O41 2.089876 1_555
Ni6 O45 2.154438 1_455
Ni6 O35 2.199126 1_555
Ni7 O46 1.992696 1_555
Ni7 O34 1.995281 1_555
Ni7 O43 2.031566 1_555
Ni7 O30 2.089876 1_555
Ni7 O27 2.154438 1_555
Ni7 O36 2.199126 1_555
O0 P11 1.533600 1_555
O1 P11 1.514389 1_555
O2 P9 1.558623 1_555
O3 P10 1.544836 1_555
O4 P0 1.562123 1_555
O5 P1 1.533045 1_555
O6 P1 1.559010 1_555
O7 P2 1.560695 1_455
O8 P0 1.564890 1_555
O9 P2 1.538296 1_555
O10 P2 1.522936 1_545
O11 P1 1.560602 1_555
O12 P4 1.560602 1_655
O13 P3 1.522936 1_565
O14 P3 1.538296 1_555
O15 P5 1.564890 1_554
O16 P3 1.560695 1_555
O17 P4 1.559010 1_555
O18 P4 1.533045 1_555
O19 P5 1.562123 1_555
O20 P8 1.558623 1_555
O21 P7 1.544836 1_555
O22 P6 1.514389 1_556
O23 P6 1.533600 1_555
O24 P5 1.533600 1_555
O25 P5 1.514389 1_554
O26 P4 1.544836 1_555
O27 P3 1.558623 1_555
O28 P6 1.562123 1_555
O29 P7 1.533045 1_555
O30 P7 1.559010 1_555
O31 P8 1.560695 1_555
O32 P6 1.564890 1_556
O33 P8 1.538296 1_555
O34 P8 1.522936 1_545
O35 P7 1.560602 1_455
O36 P10 1.560602 1_555
O37 P9 1.522936 1_565
O38 P9 1.538296 1_555
O39 P11 1.564890 1_555
O40 P9 1.560695 1_655
O41 P10 1.559010 1_555
O42 P10 1.533045 1_555
O43 P11 1.562123 1_555
O44 P1 1.544836 1_555
O45 P2 1.558623 1_555
O46 P0 1.514389 1_555
O47 P0 1.533600 1_555
