# generated using pymatgen
data_InGaSnO5
_symmetry_space_group_name_H-M   'P 1'
_cell_length_a   3.26021900
_cell_length_b   11.05502900
_cell_length_c   12.01846322
_cell_angle_alpha   80.94415931
_cell_angle_beta   90.00000000
_cell_angle_gamma   90.00000000
_symmetry_Int_Tables_number   1
_chemical_formula_structural   InGaSnO5
_chemical_formula_sum   'In4 Ga4 Sn4 O20'
_cell_volume   427.76798295
_cell_formula_units_Z   4
loop_
 _symmetry_equiv_pos_site_id
 _symmetry_equiv_pos_as_xyz
  1  'x, y, z'
loop_
 _atom_site_type_symbol
 _atom_site_label
 _atom_site_symmetry_multiplicity
 _atom_site_fract_x
 _atom_site_fract_y
 _atom_site_fract_z
 _atom_site_occupancy
  In  In0  1  0.50000000  0.69655900  0.07686200  1
  In  In1  1  0.50000000  0.30344100  0.92313800  1
  In  In2  1  0.00000000  0.61829000  0.32884700  1
  In  In3  1  0.00000000  0.38171000  0.67115300  1
  Ga  Ga0  1  0.50000000  0.91481400  0.26325200  1
  Ga  Ga1  1  0.50000000  0.08518600  0.73674800  1
  Ga  Ga2  1  0.00000000  0.40029100  0.15166300  1
  Ga  Ga3  1  0.00000000  0.59970900  0.84833700  1
  Sn  Sn0  1  0.00000000  0.00000000  0.00000000  1
  Sn  Sn1  1  0.00000000  0.00000000  0.50000000  1
  Sn  Sn2  1  0.50000000  0.68866300  0.59291900  1
  Sn  Sn3  1  0.50000000  0.31133700  0.40708100  1
  O  O0  1  0.00000000  0.68652900  0.48573800  1
  O  O1  1  0.00000000  0.31347100  0.51426200  1
  O  O2  1  0.50000000  0.88364800  0.54702600  1
  O  O3  1  0.50000000  0.11635200  0.45297400  1
  O  O4  1  0.00000000  0.57254400  0.14879100  1
  O  O5  1  0.00000000  0.42745600  0.85120900  1
  O  O6  1  0.50000000  0.99910600  0.11562200  1
  O  O7  1  0.50000000  0.00089400  0.88437800  1
  O  O8  1  0.50000000  0.74583000  0.25692900  1
  O  O9  1  0.50000000  0.25417000  0.74307100  1
  O  O10  1  0.50000000  0.49662800  0.36064800  1
  O  O11  1  0.50000000  0.50337200  0.63935200  1
  O  O12  1  0.00000000  0.81498400  0.03076800  1
  O  O13  1  0.00000000  0.18501600  0.96923200  1
  O  O14  1  0.00000000  0.30119300  0.29375100  1
  O  O15  1  0.00000000  0.69880700  0.70624900  1
  O  O16  1  0.00000000  0.95105700  0.33345700  1
  O  O17  1  0.00000000  0.04894300  0.66654300  1
  O  O18  1  0.50000000  0.37034700  0.08414700  1
  O  O19  1  0.50000000  0.62965300  0.91585300  1
loop_
_geom_bond_atom_site_label_1
_geom_bond_atom_site_label_2
_geom_bond_distance
_geom_bond_site_symmetry_2
In0 O12 2.109461 1_655
In0 O12 2.109461 1_555
In0 O19 2.177653 1_554
In0 O4 2.216100 1_555
In0 O4 2.216100 1_655
In0 O8 2.313270 1_555
In1 O13 2.109461 1_655
In1 O13 2.109461 1_555
In1 O18 2.177653 1_556
In1 O5 2.216100 1_655
In1 O5 2.216100 1_555
In1 O9 2.313270 1_555
In2 O10 2.109615 1_455
In2 O10 2.109615 1_555
In2 O0 2.138299 1_555
In2 O8 2.238011 1_455
In2 O8 2.238011 1_555
In2 O4 2.298509 1_555
In3 O11 2.109615 1_555
In3 O11 2.109615 1_455
In3 O1 2.138299 1_555
In3 O9 2.238011 1_455
In3 O9 2.238011 1_555
In3 O5 2.298509 1_555
Ga0 O6 1.869750 1_555
Ga0 O8 1.881581 1_555
Ga0 O16 1.906866 1_655
Ga0 O16 1.906866 1_555
Ga1 O7 1.869750 1_555
Ga1 O9 1.881581 1_555
Ga1 O17 1.906866 1_555
Ga1 O17 1.906866 1_655
Ga2 O18 1.873454 1_555
Ga2 O18 1.873454 1_455
Ga2 O14 1.878147 1_555
Ga2 O4 1.899135 1_555
Ga3 O19 1.873454 1_455
Ga3 O19 1.873454 1_555
Ga3 O15 1.878147 1_555
Ga3 O5 1.899135 1_555
O0 Sn2 2.080075 1_555
O0 Sn2 2.080075 1_455
O1 Sn3 2.080075 1_455
O1 Sn3 2.080075 1_555
O2 Sn1 2.098175 1_665
O2 Sn1 2.098175 1_565
O2 Sn2 2.139255 1_555
O3 Sn1 2.098175 1_555
O3 Sn1 2.098175 1_655
O3 Sn3 2.139255 1_555
O6 Sn0 2.141032 1_665
O6 Sn0 2.141032 1_565
O7 Sn0 2.141032 1_556
O7 Sn0 2.141032 1_656
O10 Sn3 2.036544 1_555
O11 Sn2 2.036544 1_555
O12 Sn0 2.020429 1_565
O13 Sn0 2.020429 1_556
O14 Sn3 2.138481 1_555
O14 Sn3 2.138481 1_455
O15 Sn2 2.138481 1_555
O15 Sn2 2.138481 1_455
O16 Sn1 2.154075 1_565
O17 Sn1 2.154075 1_555
