# generated using pymatgen
data_Mg2Si3
_symmetry_space_group_name_H-M   'P 1'
_cell_length_a   6.56401561
_cell_length_b   5.63500272
_cell_length_c   13.80601437
_cell_angle_alpha   67.76742713
_cell_angle_beta   93.54728746
_cell_angle_gamma   56.89352420
_symmetry_Int_Tables_number   1
_chemical_formula_structural   Mg2Si3
_chemical_formula_sum   'Mg8 Si12'
_cell_volume   371.45259280
_cell_formula_units_Z   4
loop_
 _symmetry_equiv_pos_site_id
 _symmetry_equiv_pos_as_xyz
  1  'x, y, z'
loop_
 _atom_site_type_symbol
 _atom_site_label
 _atom_site_symmetry_multiplicity
 _atom_site_fract_x
 _atom_site_fract_y
 _atom_site_fract_z
 _atom_site_occupancy
  Mg  Mg0  1  0.93708800  0.16725400  0.23144800  1
  Mg  Mg1  1  0.10839100  0.19251100  0.77379600  1
  Mg  Mg2  1  0.98257700  0.03025900  0.00045900  1
  Mg  Mg3  1  0.89405500  0.60308800  0.98836500  1
  Mg  Mg4  1  0.59348400  0.79682000  0.73813200  1
  Mg  Mg5  1  0.37300600  0.32233500  0.22648900  1
  Mg  Mg6  1  0.63485200  0.53730400  0.55389300  1
  Mg  Mg7  1  0.44148000  0.23244900  0.48085000  1
  Si  Si0  1  0.51273300  0.51923900  0.02059800  1
  Si  Si1  1  0.35258300  0.08569200  0.97855300  1
  Si  Si2  1  0.71323600  0.90689300  0.13157500  1
  Si  Si3  1  0.37572100  0.51243200  0.85511500  1
  Si  Si4  1  0.98277200  0.82641500  0.70205700  1
  Si  Si5  1  0.98793200  0.54582500  0.32516600  1
  Si  Si6  1  0.14046800  0.04524100  0.56508600  1
  Si  Si7  1  0.87876000  0.79538900  0.44417500  1
  Si  Si8  1  0.25504300  0.50980700  0.61390700  1
  Si  Si9  1  0.75588000  0.33996100  0.38904400  1
  Si  Si10  1  0.38322300  0.85287400  0.18752200  1
  Si  Si11  1  0.69670000  0.17802600  0.79369100  1
loop_
_geom_bond_atom_site_label_1
_geom_bond_atom_site_label_2
_geom_bond_distance
_geom_bond_site_symmetry_2
Mg0 Si10 2.729002 1_645
Mg0 Si9 2.784598 1_555
Mg0 Si0 2.959548 1_555
Mg0 Si5 3.024770 1_555
Mg0 Si5 3.047794 1_545
Mg0 Si7 3.085687 1_545
Mg0 Si2 3.138123 1_545
Mg0 Si2 3.184631 1_555
Mg1 Si11 2.774999 1_455
Mg1 Si1 2.832045 1_555
Mg1 Si8 2.855283 1_555
Mg1 Si3 2.860099 1_545
Mg1 Si4 2.902516 1_455
Mg1 Si4 3.036435 1_445
Mg2 Si1 2.633608 1_654
Mg2 Si2 2.769849 1_545
Mg2 Si11 2.862710 1_554
Mg2 Si0 2.929824 1_555
Mg2 Si0 2.967681 1_645
Mg2 Si10 2.986553 1_645
Mg3 Si11 2.791616 1_565
Mg3 Si0 2.820805 1_556
Mg3 Si1 2.888064 1_655
Mg3 Si2 2.980062 1_556
Mg3 Si1 3.024800 1_565
Mg4 Si4 2.713951 1_555
Mg4 Si3 2.837097 1_555
Mg4 Si11 2.904150 1_565
Mg4 Si11 2.921801 1_555
Mg4 Si6 2.924465 1_565
Mg4 Si8 2.929599 1_565
Mg5 Si5 2.842181 1_455
Mg5 Si10 2.860028 1_545
Mg5 Si10 2.870185 1_555
Mg5 Si2 3.026106 1_545
Mg5 Si0 3.033134 1_555
Mg5 Si7 3.180277 1_545
Mg6 Si8 2.739774 1_555
Mg6 Si7 2.854707 1_555
Mg6 Si9 2.867292 1_555
Mg6 Si6 2.878651 1_655
Mg6 Si4 2.945197 1_545
Mg6 Si6 2.999571 1_565
Mg6 Si11 3.014596 1_555
Mg7 Si5 2.682217 1_455
Mg7 Si9 2.709406 1_555
Mg7 Si8 2.770610 1_555
Mg7 Si7 2.821682 1_545
Mg7 Si6 2.828817 1_555
Mg7 Si7 3.117043 1_455
Si0 Si3 2.424812 1_554
Si0 Si1 2.547064 1_564
Si0 Si2 2.602870 1_545
Si1 Si3 2.457577 1_555
Si1 Si2 2.499481 1_546
Si1 Si10 2.619305 1_546
Si2 Si5 2.411486 1_555
Si3 Si4 2.399933 1_455
Si4 Si6 2.457628 1_665
Si4 Si8 2.507429 1_655
Si5 Si9 2.401218 1_555
Si5 Si7 2.446243 1_555
Si6 Si8 2.458212 1_545
Si6 Si9 2.577679 1_455
Si7 Si9 2.469682 1_565
Si7 Si8 2.503909 1_655
Si10 Si2 2.476121 1_555
Si10 Si9 2.725326 1_555
Si11 Si3 2.408819 1_555
Si11 Si4 2.679316 1_545
Si11 Si8 2.781688 1_555
