# generated using pymatgen
data_ZnSi(AgS2)2
_symmetry_space_group_name_H-M   'P 1'
_cell_length_a   6.56602564
_cell_length_b   6.42762173
_cell_length_c   10.13643261
_cell_angle_alpha   51.09300218
_cell_angle_beta   90.00000000
_cell_angle_gamma   90.00000000
_symmetry_Int_Tables_number   1
_chemical_formula_structural   ZnSi(AgS2)2
_chemical_formula_sum   'Zn2 Si2 Ag4 S8'
_cell_volume   332.89749154
_cell_formula_units_Z   2
loop_
 _symmetry_equiv_pos_site_id
 _symmetry_equiv_pos_as_xyz
  1  'x, y, z'
loop_
 _atom_site_type_symbol
 _atom_site_label
 _atom_site_symmetry_multiplicity
 _atom_site_fract_x
 _atom_site_fract_y
 _atom_site_fract_z
 _atom_site_occupancy
  Zn  Zn0  1  0.68534942  0.59822885  0.67919813  1
  Zn  Zn1  1  0.31465058  0.59822885  0.17919813  1
  Si  Si0  1  0.81613781  0.35488481  0.42594065  1
  Si  Si1  1  0.18386219  0.35488481  0.92594065  1
  Ag  Ag0  1  0.67939442  0.09162216  0.17248247  1
  Ag  Ag1  1  0.32060558  0.09162216  0.67248247  1
  Ag  Ag2  1  0.84771958  0.85725946  0.92122730  1
  Ag  Ag3  1  0.15228042  0.85725946  0.42122730  1
  S  S0  1  0.87459358  0.47067956  0.91369299  1
  S  S1  1  0.12540642  0.47067956  0.41369299  1
  S  S2  1  0.68336923  0.26581727  0.64813286  1
  S  S3  1  0.31663077  0.26581727  0.14813286  1
  S  S4  1  0.80114979  0.01050864  0.43932020  1
  S  S5  1  0.19885021  0.01050864  0.93932020  1
  S  S6  1  0.65920045  0.67434024  0.20195642  1
  S  S7  1  0.34079955  0.67434024  0.70195642  1
loop_
_geom_bond_atom_site_label_1
_geom_bond_atom_site_label_2
_geom_bond_distance
_geom_bond_site_symmetry_2
Ag0 S6 2.508808 1_545
Ag0 S0 2.536129 1_554
Ag0 S4 2.540755 1_555
Ag0 S3 2.577004 1_555
Ag1 S7 2.508808 1_545
Ag1 S1 2.536129 1_555
Ag1 S5 2.540755 1_555
Ag1 S2 2.577004 1_555
Ag2 S0 2.539590 1_555
Ag2 S5 2.558577 1_665
Ag2 S2 2.567558 1_565
Ag2 S6 2.609484 1_556
Ag3 S1 2.539590 1_555
Ag3 S4 2.558577 1_465
Ag3 S3 2.567558 1_565
Ag3 S7 2.609484 1_555
S0 Si1 2.139371 1_655
S0 Zn0 2.327701 1_555
S1 Si0 2.139371 1_455
S1 Zn1 2.327701 1_555
S2 Si0 2.130883 1_555
S2 Zn0 2.347247 1_555
S3 Si1 2.130883 1_554
S3 Zn1 2.347247 1_555
S4 Si0 2.133228 1_555
S4 Zn0 2.327881 1_545
S5 Si1 2.133228 1_555
S5 Zn1 2.327881 1_546
S6 Si0 2.139361 1_555
S6 Zn1 2.356356 1_555
S7 Si1 2.139361 1_555
S7 Zn0 2.356356 1_555
