# generated using pymatgen
data_BaV2Cu(AgO4)2
_symmetry_space_group_name_H-M   'P 1'
_cell_length_a   5.47899100
_cell_length_b   5.70594244
_cell_length_c   14.52686933
_cell_angle_alpha   94.99023302
_cell_angle_beta   90.48539342
_cell_angle_gamma   117.81831938
_symmetry_Int_Tables_number   1
_chemical_formula_structural   BaV2Cu(AgO4)2
_chemical_formula_sum   'Ba2 V4 Cu2 Ag4 O16'
_cell_volume   399.52191666
_cell_formula_units_Z   2
loop_
 _symmetry_equiv_pos_site_id
 _symmetry_equiv_pos_as_xyz
  1  'x, y, z'
loop_
 _atom_site_type_symbol
 _atom_site_label
 _atom_site_symmetry_multiplicity
 _atom_site_fract_x
 _atom_site_fract_y
 _atom_site_fract_z
 _atom_site_occupancy
  Ba  Ba0  1  0.46724100  0.95616500  0.74870000  1
  Ba  Ba1  1  0.53275900  0.04383500  0.25130000  1
  V  V0  1  0.84085600  0.68224800  0.87314700  1
  V  V1  1  0.15914400  0.31775200  0.12685300  1
  V  V2  1  0.14253200  0.28373400  0.62508500  1
  V  V3  1  0.85746800  0.71626600  0.37491500  1
  Cu  Cu0  1  0.50000000  0.00000000  0.00000000  1
  Cu  Cu1  1  0.50000000  0.00000000  0.50000000  1
  Ag  Ag0  1  0.17014700  0.33161500  0.91033000  1
  Ag  Ag1  1  0.82985300  0.66838500  0.08967000  1
  Ag  Ag2  1  0.81050100  0.62367900  0.58810400  1
  Ag  Ag3  1  0.18949900  0.37632100  0.41189600  1
  O  O0  1  0.57845700  0.76219200  0.91321900  1
  O  O1  1  0.42154300  0.23780800  0.08678100  1
  O  O2  1  0.17660900  0.92145800  0.91934900  1
  O  O3  1  0.82339100  0.07854200  0.08065100  1
  O  O4  1  0.23413500  0.03366900  0.58477900  1
  O  O5  1  0.76586500  0.96633100  0.41522100  1
  O  O6  1  0.78454200  0.18090000  0.60061200  1
  O  O7  1  0.21545800  0.81910000  0.39938800  1
  O  O8  1  0.85459700  0.70506700  0.75638600  1
  O  O9  1  0.14540300  0.29493300  0.24361400  1
  O  O10  1  0.20109500  0.33661000  0.74274300  1
  O  O11  1  0.79890500  0.66339000  0.25725700  1
  O  O12  1  0.64840400  0.41682900  0.41903100  1
  O  O13  1  0.35159600  0.58317100  0.58096900  1
  O  O14  1  0.76038800  0.36031000  0.89605800  1
  O  O15  1  0.23961200  0.63969000  0.10394200  1
loop_
_geom_bond_atom_site_label_1
_geom_bond_atom_site_label_2
_geom_bond_distance
_geom_bond_site_symmetry_2
Ba0 O6 2.785173 1_565
Ba0 O14 2.847085 1_565
Ba0 O4 2.855872 1_565
Ba0 O0 2.893638 1_555
Ba0 O2 2.928864 1_555
Ba0 O13 2.946378 1_555
Ba0 O8 2.979594 1_455
Ba0 O8 3.071051 1_555
Ba0 O10 3.124805 1_555
Ba0 O10 3.135481 1_565
Ba1 O7 2.785173 1_545
Ba1 O15 2.847085 1_545
Ba1 O5 2.855872 1_545
Ba1 O1 2.893638 1_555
Ba1 O3 2.928864 1_555
Ba1 O12 2.946378 1_555
Ba1 O9 2.979594 1_655
Ba1 O9 3.071051 1_555
Ba1 O11 3.124805 1_555
Ba1 O11 3.135481 1_545
Cu0 O3 1.960951 1_555
Cu0 O2 1.960951 1_544
Cu0 O0 1.967552 1_544
Cu0 O1 1.967552 1_555
Cu0 O14 2.526080 1_554
Cu0 O15 2.526080 1_545
Cu1 O7 1.956818 1_545
Cu1 O6 1.956818 1_555
Cu1 O5 1.981413 1_545
Cu1 O4 1.981413 1_555
Cu1 O12 2.529697 1_555
Cu1 O13 2.529697 1_545
Ag0 O14 2.334784 1_455
Ag0 O2 2.371956 1_545
Ag0 O0 2.427587 1_555
Ag0 O10 2.443559 1_555
Ag1 O15 2.334784 1_655
Ag1 O3 2.371956 1_565
Ag1 O1 2.427587 1_555
Ag1 O11 2.443559 1_555
Ag2 O4 2.411657 1_665
Ag2 O13 2.415586 1_555
Ag2 O8 2.436786 1_555
Ag2 O6 2.486206 1_555
Ag2 O12 2.587395 1_555
Ag3 O5 2.411657 1_445
Ag3 O12 2.415586 1_555
Ag3 O9 2.436786 1_555
Ag3 O7 2.486206 1_555
Ag3 O13 2.587395 1_555
O0 V0 1.787161 1_555
O1 V1 1.787161 1_555
O2 V0 1.781503 1_455
O3 V1 1.781503 1_655
O4 V2 1.777265 1_555
O5 V3 1.777265 1_555
O6 V2 1.787621 1_655
O7 V3 1.787621 1_455
O8 V0 1.712033 1_555
O9 V1 1.712033 1_555
O10 V2 1.710554 1_555
O11 V3 1.710554 1_555
O12 V3 1.737325 1_555
O13 V2 1.737325 1_555
O14 V0 1.741415 1_555
O15 V1 1.741415 1_555
