# generated using pymatgen
data_Mn2P2O7
_symmetry_space_group_name_H-M   'P 1'
_cell_length_a   4.53672707
_cell_length_b   5.40420865
_cell_length_c   5.40419132
_cell_angle_alpha   104.50203319
_cell_angle_beta   97.63073871
_cell_angle_gamma   97.63104427
_symmetry_Int_Tables_number   1
_chemical_formula_structural   Mn2P2O7
_chemical_formula_sum   'Mn2 P2 O7'
_cell_volume   125.22138674
_cell_formula_units_Z   1
loop_
 _symmetry_equiv_pos_site_id
 _symmetry_equiv_pos_as_xyz
  1  'x, y, z'
loop_
 _atom_site_type_symbol
 _atom_site_label
 _atom_site_symmetry_multiplicity
 _atom_site_fract_x
 _atom_site_fract_y
 _atom_site_fract_z
 _atom_site_occupancy
  Mn  Mn0  1  0.50000094  0.30711140  0.69288612  1
  Mn  Mn1  1  0.50000153  0.68939248  0.31060857  1
  P  P0  1  0.90895084  0.21454073  0.21877148  1
  P  P1  1  0.09105072  0.78122769  0.78545487  1
  O  O0  1  0.00000003  0.99567834  0.00432505  1
  O  O1  1  0.72475304  0.07717084  0.37632966  1
  O  O2  1  0.27524647  0.62367282  0.92282760  1
  O  O3  1  0.72555698  0.37076009  0.07915486  1
  O  O4  1  0.27444083  0.92084466  0.62923943  1
  O  O5  1  0.20793525  0.37177036  0.37477403  1
  O  O6  1  0.79206436  0.62522759  0.62822933  1
loop_
_geom_bond_atom_site_label_1
_geom_bond_atom_site_label_2
_geom_bond_distance
_geom_bond_site_symmetry_2
Mn0 O4 2.121928 1_545
Mn0 O3 2.121928 1_556
Mn0 O5 2.156871 1_555
Mn0 O6 2.156874 1_555
Mn0 O1 2.290311 1_555
Mn0 O2 2.290340 1_555
Mn1 O1 2.126274 1_565
Mn1 O2 2.126291 1_554
Mn1 O6 2.153675 1_555
Mn1 O5 2.153687 1_555
Mn1 O3 2.303471 1_555
Mn1 O4 2.303474 1_555
O0 P0 1.575768 1_465
O0 P1 1.575810 1_554
O1 P0 1.521590 1_555
O2 P1 1.521585 1_555
O3 P0 1.520899 1_555
O4 P1 1.520869 1_555
O5 P0 1.517905 1_455
O6 P1 1.517901 1_655
