# generated using pymatgen
data_ZnSi7N10
_symmetry_space_group_name_H-M   'P 1'
_cell_length_a   6.70042093
_cell_length_b   6.91190700
_cell_length_c   9.70545867
_cell_angle_alpha   90.00000000
_cell_angle_beta   103.79377342
_cell_angle_gamma   90.00000000
_symmetry_Int_Tables_number   1
_chemical_formula_structural   ZnSi7N10
_chemical_formula_sum   'Zn2 Si14 N20'
_cell_volume   436.52277900
_cell_formula_units_Z   2
loop_
 _symmetry_equiv_pos_site_id
 _symmetry_equiv_pos_as_xyz
  1  'x, y, z'
loop_
 _atom_site_type_symbol
 _atom_site_label
 _atom_site_symmetry_multiplicity
 _atom_site_fract_x
 _atom_site_fract_y
 _atom_site_fract_z
 _atom_site_occupancy
  Zn  Zn0  1  0.96254600  0.92481900  0.67773000  1
  Zn  Zn1  1  0.96254600  0.07518100  0.17773000  1
  Si  Si0  1  0.54676900  0.98297900  0.82559300  1
  Si  Si1  1  0.54676900  0.01702100  0.32559300  1
  Si  Si2  1  0.35274400  0.01848000  0.02307700  1
  Si  Si3  1  0.35274400  0.98152000  0.52307700  1
  Si  Si4  1  0.11032500  0.40044200  0.07385100  1
  Si  Si5  1  0.11032500  0.59955800  0.57385100  1
  Si  Si6  1  0.65964600  0.36578800  0.99134800  1
  Si  Si7  1  0.65964600  0.63421200  0.49134800  1
  Si  Si8  1  0.84703900  0.61645300  0.80694700  1
  Si  Si9  1  0.84703900  0.38354700  0.30694700  1
  Si  Si10  1  0.29969000  0.62159800  0.88240900  1
  Si  Si11  1  0.29969000  0.37840200  0.38240900  1
  Si  Si12  1  0.48360000  0.36884900  0.68656400  1
  Si  Si13  1  0.48360000  0.63115100  0.18656400  1
  N  N0  1  0.75753700  0.85240500  0.80534500  1
  N  N1  1  0.75753700  0.14759500  0.30534500  1
  N  N2  1  0.56041500  0.13639600  0.97331700  1
  N  N3  1  0.56041500  0.86360400  0.47331700  1
  N  N4  1  0.32781900  0.86875400  0.87065300  1
  N  N5  1  0.32781900  0.13124600  0.37065300  1
  N  N6  1  0.14929400  0.15453200  0.04745600  1
  N  N7  1  0.14929400  0.84546800  0.54745600  1
  N  N8  1  0.28807400  0.50856100  0.72248300  1
  N  N9  1  0.28807400  0.49143900  0.22248300  1
  N  N10  1  0.45008300  0.12180100  0.67384800  1
  N  N11  1  0.45008300  0.87819900  0.17384800  1
  N  N12  1  0.88003800  0.39296400  0.12906000  1
  N  N13  1  0.88003800  0.60703600  0.62906000  1
  N  N14  1  0.07559000  0.56892600  0.93394600  1
  N  N15  1  0.07559000  0.43107400  0.43394600  1
  N  N16  1  0.69668500  0.41970700  0.82384800  1
  N  N17  1  0.69668500  0.58029300  0.32384800  1
  N  N18  1  0.49440700  0.54043100  0.02182500  1
  N  N19  1  0.49440700  0.45956900  0.52182500  1
loop_
_geom_bond_atom_site_label_1
_geom_bond_atom_site_label_2
_geom_bond_distance
_geom_bond_site_symmetry_2
N0 Si0 1.726238 1_555
N0 Si8 1.736433 1_555
N0 Zn0 2.117252 1_555
N1 Si1 1.726238 1_555
N1 Si9 1.736433 1_555
N1 Zn1 2.117252 1_555
N2 Si6 1.712058 1_555
N2 Si0 1.768017 1_545
N2 Si2 1.776000 1_556
N3 Si7 1.712058 1_555
N3 Si1 1.768017 1_565
N3 Si3 1.776000 1_555
N4 Si10 1.725442 1_555
N4 Si2 1.780321 1_566
N4 Si0 1.809084 1_555
N5 Si11 1.725442 1_555
N5 Si3 1.780321 1_545
N5 Si1 1.809084 1_555
N6 Si2 1.718261 1_555
N6 Si4 1.747771 1_555
N6 Zn1 2.054167 1_455
N7 Si3 1.718261 1_555
N7 Si5 1.747771 1_555
N7 Zn0 2.054167 1_455
N8 Si10 1.722808 1_555
N8 Si12 1.728649 1_555
N8 Si5 1.753773 1_555
N9 Si11 1.722808 1_555
N9 Si13 1.728649 1_555
N9 Si4 1.753773 1_555
N10 Si12 1.722862 1_555
N10 Si3 1.746903 1_545
N10 Si0 1.747689 1_545
N11 Si13 1.722862 1_555
N11 Si2 1.746903 1_565
N11 Si1 1.747689 1_565
N12 Si6 1.749626 1_554
N12 Si4 1.750702 1_655
N12 Si9 1.793286 1_555
N12 Zn1 2.286654 1_555
N13 Si7 1.749626 1_555
N13 Si5 1.750702 1_655
N13 Si8 1.793286 1_555
N13 Zn0 2.286654 1_555
N14 Si10 1.730774 1_555
N14 Si8 1.752778 1_455
N14 Si4 1.761639 1_556
N15 Si11 1.730774 1_555
N15 Si9 1.752778 1_455
N15 Si5 1.761639 1_555
N16 Si8 1.723350 1_555
N16 Si12 1.740753 1_555
N16 Si6 1.742314 1_555
N17 Si9 1.723350 1_555
N17 Si13 1.740753 1_555
N17 Si7 1.742314 1_555
N18 Si6 1.710736 1_554
N18 Si10 1.733780 1_554
N18 Si13 1.734941 1_555
N19 Si7 1.710736 1_555
N19 Si11 1.733780 1_555
N19 Si12 1.734941 1_555
