# generated using pymatgen
data_Mo2O5
_symmetry_space_group_name_H-M   'P 1'
_cell_length_a   3.93524500
_cell_length_b   4.37339700
_cell_length_c   12.27074201
_cell_angle_alpha   89.99989900
_cell_angle_beta   89.99985716
_cell_angle_gamma   89.99981948
_symmetry_Int_Tables_number   1
_chemical_formula_structural   Mo2O5
_chemical_formula_sum   'Mo4 O10'
_cell_volume   211.18423950
_cell_formula_units_Z   2
loop_
 _symmetry_equiv_pos_site_id
 _symmetry_equiv_pos_as_xyz
  1  'x, y, z'
loop_
 _atom_site_type_symbol
 _atom_site_label
 _atom_site_symmetry_multiplicity
 _atom_site_fract_x
 _atom_site_fract_y
 _atom_site_fract_z
 _atom_site_occupancy
  Mo  Mo0  1  0.01855800  0.89166500  0.15157100  1
  Mo  Mo1  1  0.51855700  0.10826400  0.34842200  1
  Mo  Mo2  1  0.51857100  0.10826200  0.65161200  1
  Mo  Mo3  1  0.01856500  0.89183900  0.84839500  1
  O  O0  1  0.51855200  0.99479400  0.18237200  1
  O  O1  1  0.01855200  0.00511900  0.31762300  1
  O  O2  1  0.01856200  0.00514200  0.68237200  1
  O  O3  1  0.51856000  0.99488600  0.81763300  1
  O  O4  1  0.01858500  0.49771300  0.85139800  1
  O  O5  1  0.51858900  0.50228800  0.64862900  1
  O  O6  1  0.51857700  0.50219500  0.35147400  1
  O  O7  1  0.51859300  0.99867800  0.50001100  1
  O  O8  1  0.01859500  0.00138100  0.99999900  1
  O  O9  1  0.01857700  0.49777200  0.14848500  1
loop_
_geom_bond_atom_site_label_1
_geom_bond_atom_site_label_2
_geom_bond_distance
_geom_bond_site_symmetry_2
Mo0 O9 1.723067 1_555
Mo0 O8 1.920798 1_564
Mo0 O0 2.053710 1_555
Mo0 O0 2.053751 1_455
Mo0 O1 2.097125 1_565
Mo1 O6 1.723224 1_555
Mo1 O7 1.920858 1_545
Mo1 O1 2.053720 1_655
Mo1 O1 2.053762 1_555
Mo1 O0 2.097118 1_545
Mo2 O5 1.723621 1_555
Mo2 O7 1.921001 1_545
Mo2 O2 2.053595 1_655
Mo2 O2 2.053663 1_555
Mo2 O3 2.096673 1_545
Mo3 O4 1.724063 1_555
Mo3 O8 1.920990 1_565
Mo3 O3 2.053545 1_555
Mo3 O3 2.053582 1_455
Mo3 O2 2.096622 1_565
