# generated using pymatgen
data_Pr3SiAgSe7
_symmetry_space_group_name_H-M   'P 1'
_cell_length_a   10.83301235
_cell_length_b   10.83301235
_cell_length_c   6.09608800
_cell_angle_alpha   90.00000000
_cell_angle_beta   90.00000000
_cell_angle_gamma   120.00000216
_symmetry_Int_Tables_number   1
_chemical_formula_structural   Pr3SiAgSe7
_chemical_formula_sum   'Pr6 Si2 Ag2 Se14'
_cell_volume   619.55565689
_cell_formula_units_Z   2
loop_
 _symmetry_equiv_pos_site_id
 _symmetry_equiv_pos_as_xyz
  1  'x, y, z'
loop_
 _atom_site_type_symbol
 _atom_site_label
 _atom_site_symmetry_multiplicity
 _atom_site_fract_x
 _atom_site_fract_y
 _atom_site_fract_z
 _atom_site_occupancy
  Pr  Pr0  1  0.12541700  0.35728400  0.73992600  1
  Pr  Pr1  1  0.76813300  0.12541700  0.23992600  1
  Pr  Pr2  1  0.35728400  0.23186700  0.23992600  1
  Pr  Pr3  1  0.64271600  0.76813300  0.73992600  1
  Pr  Pr4  1  0.23186700  0.87458300  0.73992600  1
  Pr  Pr5  1  0.87458300  0.64271600  0.23992600  1
  Si  Si0  1  0.33333300  0.66666700  0.32913900  1
  Si  Si1  1  0.66666700  0.33333300  0.82913900  1
  Ag  Ag0  1  0.00000000  0.00000000  0.19565000  1
  Ag  Ag1  1  0.00000000  0.00000000  0.69565000  1
  Se  Se0  1  0.52241000  0.10996400  0.97927900  1
  Se  Se1  1  0.47759000  0.89003600  0.47927900  1
  Se  Se2  1  0.10996400  0.58755400  0.47927900  1
  Se  Se3  1  0.58755400  0.47759000  0.97927900  1
  Se  Se4  1  0.09408900  0.26977800  0.22513800  1
  Se  Se5  1  0.82431200  0.09408900  0.72513800  1
  Se  Se6  1  0.41244600  0.52241000  0.47927900  1
  Se  Se7  1  0.89003600  0.41244600  0.97927900  1
  Se  Se8  1  0.33333300  0.66666700  0.95604200  1
  Se  Se9  1  0.66666700  0.33333300  0.45604200  1
  Se  Se10  1  0.90591100  0.73022200  0.72513800  1
  Se  Se11  1  0.17568800  0.90591100  0.22513800  1
  Se  Se12  1  0.73022200  0.82431200  0.22513800  1
  Se  Se13  1  0.26977800  0.17568800  0.72513800  1
loop_
_geom_bond_atom_site_label_1
_geom_bond_atom_site_label_2
_geom_bond_distance
_geom_bond_site_symmetry_2
Pr0 Se2 3.031983 1_555
Pr0 Se13 3.065988 1_555
Pr0 Se4 3.072657 1_556
Pr0 Se5 3.078477 1_455
Pr0 Se6 3.135398 1_555
Pr0 Se8 3.239262 1_555
Pr0 Se7 3.242185 1_455
Pr0 Se4 3.246588 1_555
Pr1 Se0 3.031983 1_554
Pr1 Se4 3.065978 1_655
Pr1 Se5 3.072660 1_555
Pr1 Se12 3.078473 1_545
Pr1 Se7 3.135398 1_554
Pr1 Se9 3.239255 1_555
Pr1 Se1 3.242185 1_545
Pr1 Se5 3.246591 1_554
Pr2 Se3 3.031983 1_554
Pr2 Se11 3.065979 1_545
Pr2 Se13 3.072658 1_555
Pr2 Se4 3.078484 1_555
Pr2 Se0 3.135399 1_554
Pr2 Se9 3.239264 1_555
Pr2 Se6 3.242185 1_555
Pr2 Se13 3.246589 1_554
Pr3 Se6 3.031983 1_555
Pr3 Se5 3.065979 1_565
Pr3 Se12 3.072658 1_556
Pr3 Se10 3.078484 1_555
Pr3 Se1 3.135399 1_555
Pr3 Se8 3.239264 1_555
Pr3 Se3 3.242185 1_555
Pr3 Se12 3.246589 1_555
Pr4 Se1 3.031983 1_555
Pr4 Se10 3.065978 1_455
Pr4 Se11 3.072660 1_556
Pr4 Se13 3.078473 1_565
Pr4 Se2 3.135398 1_555
Pr4 Se8 3.239255 1_555
Pr4 Se0 3.242185 1_565
Pr4 Se11 3.246591 1_555
Pr5 Se7 3.031983 1_554
Pr5 Se12 3.065988 1_555
Pr5 Se10 3.072657 1_555
Pr5 Se11 3.078477 1_655
Pr5 Se3 3.135398 1_554
Pr5 Se9 3.239262 1_555
Pr5 Se2 3.242185 1_655
Pr5 Se10 3.246588 1_554
Ag0 Se11 2.575540 1_545
Ag0 Se12 2.575548 1_445
Ag0 Se4 2.575550 1_555
Ag1 Se5 2.575540 1_455
Ag1 Se13 2.575548 1_555
Ag1 Se10 2.575550 1_445
Se0 Si1 2.313795 1_555
Se1 Si0 2.313795 1_555
Se2 Si0 2.313793 1_555
Se3 Si1 2.313803 1_555
Se6 Si0 2.313803 1_555
Se7 Si1 2.313793 1_555
Se8 Si0 2.274432 1_556
Se9 Si1 2.274432 1_555
