# generated using pymatgen
data_Ti5Cu2
_symmetry_space_group_name_H-M   'P 1'
_cell_length_a   5.65647400
_cell_length_b   24.24716800
_cell_length_c   26.35691600
_cell_angle_alpha   90.00000000
_cell_angle_beta   90.00000000
_cell_angle_gamma   90.00000000
_symmetry_Int_Tables_number   1
_chemical_formula_structural   Ti5Cu2
_chemical_formula_sum   'Ti160 Cu64'
_cell_volume   3614.94262932
_cell_formula_units_Z   32
loop_
 _symmetry_equiv_pos_site_id
 _symmetry_equiv_pos_as_xyz
  1  'x, y, z'
loop_
 _atom_site_type_symbol
 _atom_site_label
 _atom_site_symmetry_multiplicity
 _atom_site_fract_x
 _atom_site_fract_y
 _atom_site_fract_z
 _atom_site_occupancy
  Ti  Ti0_0  1  0.25000000  0.33164950  0.00140800  1
  Ti  Ti0_1  1  0.25000000  0.33164950  0.50140800  1
  Ti  Ti0_2  1  0.25000000  0.83164950  0.00140800  1
  Ti  Ti0_3  1  0.25000000  0.83164950  0.50140800  1
  Ti  Ti0_4  1  0.75000000  0.33164950  0.00140800  1
  Ti  Ti0_5  1  0.75000000  0.33164950  0.50140800  1
  Ti  Ti0_6  1  0.75000000  0.83164950  0.00140800  1
  Ti  Ti0_7  1  0.75000000  0.83164950  0.50140800  1
  Ti  Ti1_0  1  0.25000000  0.16835050  0.49859200  1
  Ti  Ti1_1  1  0.25000000  0.16835050  0.99859200  1
  Ti  Ti1_2  1  0.25000000  0.66835050  0.49859200  1
  Ti  Ti1_3  1  0.25000000  0.66835050  0.99859200  1
  Ti  Ti1_4  1  0.75000000  0.16835050  0.49859200  1
  Ti  Ti1_5  1  0.75000000  0.16835050  0.99859200  1
  Ti  Ti1_6  1  0.75000000  0.66835050  0.49859200  1
  Ti  Ti1_7  1  0.75000000  0.66835050  0.99859200  1
  Ti  Ti2_0  1  0.25000000  0.08164950  0.24859200  1
  Ti  Ti2_1  1  0.25000000  0.08164950  0.74859200  1
  Ti  Ti2_2  1  0.25000000  0.58164950  0.24859200  1
  Ti  Ti2_3  1  0.25000000  0.58164950  0.74859200  1
  Ti  Ti2_4  1  0.75000000  0.08164950  0.24859200  1
  Ti  Ti2_5  1  0.75000000  0.08164950  0.74859200  1
  Ti  Ti2_6  1  0.75000000  0.58164950  0.24859200  1
  Ti  Ti2_7  1  0.75000000  0.58164950  0.74859200  1
  Ti  Ti3_0  1  0.25000000  0.41835050  0.25140800  1
  Ti  Ti3_1  1  0.25000000  0.41835050  0.75140800  1
  Ti  Ti3_2  1  0.25000000  0.91835050  0.25140800  1
  Ti  Ti3_3  1  0.25000000  0.91835050  0.75140800  1
  Ti  Ti3_4  1  0.75000000  0.41835050  0.25140800  1
  Ti  Ti3_5  1  0.75000000  0.41835050  0.75140800  1
  Ti  Ti3_6  1  0.75000000  0.91835050  0.25140800  1
  Ti  Ti3_7  1  0.75000000  0.91835050  0.75140800  1
  Ti  Ti4_0  1  0.25000000  0.28391950  0.33159400  1
  Ti  Ti4_1  1  0.25000000  0.28391950  0.83159400  1
  Ti  Ti4_2  1  0.25000000  0.78391950  0.33159400  1
  Ti  Ti4_3  1  0.25000000  0.78391950  0.83159400  1
  Ti  Ti4_4  1  0.75000000  0.28391950  0.33159400  1
  Ti  Ti4_5  1  0.75000000  0.28391950  0.83159400  1
  Ti  Ti4_6  1  0.75000000  0.78391950  0.33159400  1
  Ti  Ti4_7  1  0.75000000  0.78391950  0.83159400  1
  Ti  Ti5_0  1  0.25000000  0.21608050  0.16840600  1
  Ti  Ti5_1  1  0.25000000  0.21608050  0.66840600  1
  Ti  Ti5_2  1  0.25000000  0.71608050  0.16840600  1
  Ti  Ti5_3  1  0.25000000  0.71608050  0.66840600  1
  Ti  Ti5_4  1  0.75000000  0.21608050  0.16840600  1
  Ti  Ti5_5  1  0.75000000  0.21608050  0.66840600  1
  Ti  Ti5_6  1  0.75000000  0.71608050  0.16840600  1
  Ti  Ti5_7  1  0.75000000  0.71608050  0.66840600  1
  Ti  Ti6_0  1  0.25000000  0.03391950  0.41840600  1
  Ti  Ti6_1  1  0.25000000  0.03391950  0.91840600  1
  Ti  Ti6_2  1  0.25000000  0.53391950  0.41840600  1
  Ti  Ti6_3  1  0.25000000  0.53391950  0.91840600  1
  Ti  Ti6_4  1  0.75000000  0.03391950  0.41840600  1
  Ti  Ti6_5  1  0.75000000  0.03391950  0.91840600  1
  Ti  Ti6_6  1  0.75000000  0.53391950  0.41840600  1
  Ti  Ti6_7  1  0.75000000  0.53391950  0.91840600  1
  Ti  Ti7_0  1  0.25000000  0.46608050  0.08159400  1
  Ti  Ti7_1  1  0.25000000  0.46608050  0.58159400  1
  Ti  Ti7_2  1  0.25000000  0.96608050  0.08159400  1
  Ti  Ti7_3  1  0.25000000  0.96608050  0.58159400  1
  Ti  Ti7_4  1  0.75000000  0.46608050  0.08159400  1
  Ti  Ti7_5  1  0.75000000  0.46608050  0.58159400  1
  Ti  Ti7_6  1  0.75000000  0.96608050  0.08159400  1
  Ti  Ti7_7  1  0.75000000  0.96608050  0.58159400  1
  Ti  Ti8_0  1  0.00000000  0.49717350  0.31064050  1
  Ti  Ti8_1  1  0.00000000  0.49717350  0.81064050  1
  Ti  Ti8_2  1  0.00000000  0.99717350  0.31064050  1
  Ti  Ti8_3  1  0.00000000  0.99717350  0.81064050  1
  Ti  Ti8_4  1  0.50000000  0.49717350  0.31064050  1
  Ti  Ti8_5  1  0.50000000  0.49717350  0.81064050  1
  Ti  Ti8_6  1  0.50000000  0.99717350  0.31064050  1
  Ti  Ti8_7  1  0.50000000  0.99717350  0.81064050  1
  Ti  Ti9_0  1  0.00000000  0.00282650  0.18935950  1
  Ti  Ti9_1  1  0.00000000  0.00282650  0.68935950  1
  Ti  Ti9_2  1  0.00000000  0.50282650  0.18935950  1
  Ti  Ti9_3  1  0.00000000  0.50282650  0.68935950  1
  Ti  Ti9_4  1  0.50000000  0.00282650  0.18935950  1
  Ti  Ti9_5  1  0.50000000  0.00282650  0.68935950  1
  Ti  Ti9_6  1  0.50000000  0.50282650  0.18935950  1
  Ti  Ti9_7  1  0.50000000  0.50282650  0.68935950  1
  Ti  Ti10_0  1  0.00000000  0.24717350  0.43935950  1
  Ti  Ti10_1  1  0.00000000  0.24717350  0.93935950  1
  Ti  Ti10_2  1  0.00000000  0.74717350  0.43935950  1
  Ti  Ti10_3  1  0.00000000  0.74717350  0.93935950  1
  Ti  Ti10_4  1  0.50000000  0.24717350  0.43935950  1
  Ti  Ti10_5  1  0.50000000  0.24717350  0.93935950  1
  Ti  Ti10_6  1  0.50000000  0.74717350  0.43935950  1
  Ti  Ti10_7  1  0.50000000  0.74717350  0.93935950  1
  Ti  Ti11_0  1  0.00000000  0.25282650  0.06064050  1
  Ti  Ti11_1  1  0.00000000  0.25282650  0.56064050  1
  Ti  Ti11_2  1  0.00000000  0.75282650  0.06064050  1
  Ti  Ti11_3  1  0.00000000  0.75282650  0.56064050  1
  Ti  Ti11_4  1  0.50000000  0.25282650  0.06064050  1
  Ti  Ti11_5  1  0.50000000  0.25282650  0.56064050  1
  Ti  Ti11_6  1  0.50000000  0.75282650  0.06064050  1
  Ti  Ti11_7  1  0.50000000  0.75282650  0.56064050  1
  Ti  Ti12_0  1  0.00000000  0.35336450  0.41558600  1
  Ti  Ti12_1  1  0.00000000  0.35336450  0.91558600  1
  Ti  Ti12_2  1  0.00000000  0.85336450  0.41558600  1
  Ti  Ti12_3  1  0.00000000  0.85336450  0.91558600  1
  Ti  Ti12_4  1  0.50000000  0.35336450  0.41558600  1
  Ti  Ti12_5  1  0.50000000  0.35336450  0.91558600  1
  Ti  Ti12_6  1  0.50000000  0.85336450  0.41558600  1
  Ti  Ti12_7  1  0.50000000  0.85336450  0.91558600  1
  Ti  Ti13_0  1  0.00000000  0.14663550  0.08441400  1
  Ti  Ti13_1  1  0.00000000  0.14663550  0.58441400  1
  Ti  Ti13_2  1  0.00000000  0.64663550  0.08441400  1
  Ti  Ti13_3  1  0.00000000  0.64663550  0.58441400  1
  Ti  Ti13_4  1  0.50000000  0.14663550  0.08441400  1
  Ti  Ti13_5  1  0.50000000  0.14663550  0.58441400  1
  Ti  Ti13_6  1  0.50000000  0.64663550  0.08441400  1
  Ti  Ti13_7  1  0.50000000  0.64663550  0.58441400  1
  Ti  Ti14_0  1  0.00000000  0.10336450  0.33441400  1
  Ti  Ti14_1  1  0.00000000  0.10336450  0.83441400  1
  Ti  Ti14_2  1  0.00000000  0.60336450  0.33441400  1
  Ti  Ti14_3  1  0.00000000  0.60336450  0.83441400  1
  Ti  Ti14_4  1  0.50000000  0.10336450  0.33441400  1
  Ti  Ti14_5  1  0.50000000  0.10336450  0.83441400  1
  Ti  Ti14_6  1  0.50000000  0.60336450  0.33441400  1
  Ti  Ti14_7  1  0.50000000  0.60336450  0.83441400  1
  Ti  Ti15_0  1  0.00000000  0.39663550  0.16558600  1
  Ti  Ti15_1  1  0.00000000  0.39663550  0.66558600  1
  Ti  Ti15_2  1  0.00000000  0.89663550  0.16558600  1
  Ti  Ti15_3  1  0.00000000  0.89663550  0.66558600  1
  Ti  Ti15_4  1  0.50000000  0.39663550  0.16558600  1
  Ti  Ti15_5  1  0.50000000  0.39663550  0.66558600  1
  Ti  Ti15_6  1  0.50000000  0.89663550  0.16558600  1
  Ti  Ti15_7  1  0.50000000  0.89663550  0.66558600  1
  Ti  Ti16_0  1  0.00000000  0.44625800  0.48272500  1
  Ti  Ti16_1  1  0.00000000  0.44625800  0.98272500  1
  Ti  Ti16_2  1  0.00000000  0.94625800  0.48272500  1
  Ti  Ti16_3  1  0.00000000  0.94625800  0.98272500  1
  Ti  Ti16_4  1  0.50000000  0.44625800  0.48272500  1
  Ti  Ti16_5  1  0.50000000  0.44625800  0.98272500  1
  Ti  Ti16_6  1  0.50000000  0.94625800  0.48272500  1
  Ti  Ti16_7  1  0.50000000  0.94625800  0.98272500  1
  Ti  Ti17_0  1  0.00000000  0.05374200  0.01727500  1
  Ti  Ti17_1  1  0.00000000  0.05374200  0.51727500  1
  Ti  Ti17_2  1  0.00000000  0.55374200  0.01727500  1
  Ti  Ti17_3  1  0.00000000  0.55374200  0.51727500  1
  Ti  Ti17_4  1  0.50000000  0.05374200  0.01727500  1
  Ti  Ti17_5  1  0.50000000  0.05374200  0.51727500  1
  Ti  Ti17_6  1  0.50000000  0.55374200  0.01727500  1
  Ti  Ti17_7  1  0.50000000  0.55374200  0.51727500  1
  Ti  Ti18_0  1  0.00000000  0.19625800  0.26727500  1
  Ti  Ti18_1  1  0.00000000  0.19625800  0.76727500  1
  Ti  Ti18_2  1  0.00000000  0.69625800  0.26727500  1
  Ti  Ti18_3  1  0.00000000  0.69625800  0.76727500  1
  Ti  Ti18_4  1  0.50000000  0.19625800  0.26727500  1
  Ti  Ti18_5  1  0.50000000  0.19625800  0.76727500  1
  Ti  Ti18_6  1  0.50000000  0.69625800  0.26727500  1
  Ti  Ti18_7  1  0.50000000  0.69625800  0.76727500  1
  Ti  Ti19_0  1  0.00000000  0.30374200  0.23272500  1
  Ti  Ti19_1  1  0.00000000  0.30374200  0.73272500  1
  Ti  Ti19_2  1  0.00000000  0.80374200  0.23272500  1
  Ti  Ti19_3  1  0.00000000  0.80374200  0.73272500  1
  Ti  Ti19_4  1  0.50000000  0.30374200  0.23272500  1
  Ti  Ti19_5  1  0.50000000  0.30374200  0.73272500  1
  Ti  Ti19_6  1  0.50000000  0.80374200  0.23272500  1
  Ti  Ti19_7  1  0.50000000  0.80374200  0.73272500  1
  Cu  Cu0_0  1  0.00000000  0.37520850  0.32153000  1
  Cu  Cu0_1  1  0.00000000  0.37520850  0.82153000  1
  Cu  Cu0_2  1  0.00000000  0.87520850  0.32153000  1
  Cu  Cu0_3  1  0.00000000  0.87520850  0.82153000  1
  Cu  Cu0_4  1  0.50000000  0.37520850  0.32153000  1
  Cu  Cu0_5  1  0.50000000  0.37520850  0.82153000  1
  Cu  Cu0_6  1  0.50000000  0.87520850  0.32153000  1
  Cu  Cu0_7  1  0.50000000  0.87520850  0.82153000  1
  Cu  Cu1_0  1  0.00000000  0.12479150  0.17847000  1
  Cu  Cu1_1  1  0.00000000  0.12479150  0.67847000  1
  Cu  Cu1_2  1  0.00000000  0.62479150  0.17847000  1
  Cu  Cu1_3  1  0.00000000  0.62479150  0.67847000  1
  Cu  Cu1_4  1  0.50000000  0.12479150  0.17847000  1
  Cu  Cu1_5  1  0.50000000  0.12479150  0.67847000  1
  Cu  Cu1_6  1  0.50000000  0.62479150  0.17847000  1
  Cu  Cu1_7  1  0.50000000  0.62479150  0.67847000  1
  Cu  Cu2_0  1  0.00000000  0.12520850  0.42847000  1
  Cu  Cu2_1  1  0.00000000  0.12520850  0.92847000  1
  Cu  Cu2_2  1  0.00000000  0.62520850  0.42847000  1
  Cu  Cu2_3  1  0.00000000  0.62520850  0.92847000  1
  Cu  Cu2_4  1  0.50000000  0.12520850  0.42847000  1
  Cu  Cu2_5  1  0.50000000  0.12520850  0.92847000  1
  Cu  Cu2_6  1  0.50000000  0.62520850  0.42847000  1
  Cu  Cu2_7  1  0.50000000  0.62520850  0.92847000  1
  Cu  Cu3_0  1  0.00000000  0.37479150  0.07153000  1
  Cu  Cu3_1  1  0.00000000  0.37479150  0.57153000  1
  Cu  Cu3_2  1  0.00000000  0.87479150  0.07153000  1
  Cu  Cu3_3  1  0.00000000  0.87479150  0.57153000  1
  Cu  Cu3_4  1  0.50000000  0.37479150  0.07153000  1
  Cu  Cu3_5  1  0.50000000  0.37479150  0.57153000  1
  Cu  Cu3_6  1  0.50000000  0.87479150  0.07153000  1
  Cu  Cu3_7  1  0.50000000  0.87479150  0.57153000  1
  Cu  Cu4_0  1  0.25000000  0.43808200  0.37996750  1
  Cu  Cu4_1  1  0.25000000  0.43808200  0.87996750  1
  Cu  Cu4_2  1  0.25000000  0.93808200  0.37996750  1
  Cu  Cu4_3  1  0.25000000  0.93808200  0.87996750  1
  Cu  Cu4_4  1  0.75000000  0.43808200  0.37996750  1
  Cu  Cu4_5  1  0.75000000  0.43808200  0.87996750  1
  Cu  Cu4_6  1  0.75000000  0.93808200  0.37996750  1
  Cu  Cu4_7  1  0.75000000  0.93808200  0.87996750  1
  Cu  Cu5_0  1  0.25000000  0.06191800  0.12003250  1
  Cu  Cu5_1  1  0.25000000  0.06191800  0.62003250  1
  Cu  Cu5_2  1  0.25000000  0.56191800  0.12003250  1
  Cu  Cu5_3  1  0.25000000  0.56191800  0.62003250  1
  Cu  Cu5_4  1  0.75000000  0.06191800  0.12003250  1
  Cu  Cu5_5  1  0.75000000  0.06191800  0.62003250  1
  Cu  Cu5_6  1  0.75000000  0.56191800  0.12003250  1
  Cu  Cu5_7  1  0.75000000  0.56191800  0.62003250  1
  Cu  Cu6_0  1  0.25000000  0.18808200  0.37003250  1
  Cu  Cu6_1  1  0.25000000  0.18808200  0.87003250  1
  Cu  Cu6_2  1  0.25000000  0.68808200  0.37003250  1
  Cu  Cu6_3  1  0.25000000  0.68808200  0.87003250  1
  Cu  Cu6_4  1  0.75000000  0.18808200  0.37003250  1
  Cu  Cu6_5  1  0.75000000  0.18808200  0.87003250  1
  Cu  Cu6_6  1  0.75000000  0.68808200  0.37003250  1
  Cu  Cu6_7  1  0.75000000  0.68808200  0.87003250  1
  Cu  Cu7_0  1  0.25000000  0.31191800  0.12996750  1
  Cu  Cu7_1  1  0.25000000  0.31191800  0.62996750  1
  Cu  Cu7_2  1  0.25000000  0.81191800  0.12996750  1
  Cu  Cu7_3  1  0.25000000  0.81191800  0.62996750  1
  Cu  Cu7_4  1  0.75000000  0.31191800  0.12996750  1
  Cu  Cu7_5  1  0.75000000  0.31191800  0.62996750  1
  Cu  Cu7_6  1  0.75000000  0.81191800  0.12996750  1
  Cu  Cu7_7  1  0.75000000  0.81191800  0.62996750  1
loop_
_geom_bond_atom_site_label_1
_geom_bond_atom_site_label_2
_geom_bond_distance
_geom_bond_site_symmetry_2
Ti0_0 Ti16_1 3.156687 1_554
Ti0_0 Ti16_5 3.156687 1_554
Ti0_1 Ti16_4 3.156687 1_555
Ti0_1 Ti16_0 3.156687 1_555
Ti0_2 Ti16_3 3.156687 1_554
Ti0_2 Ti16_7 3.156687 1_554
Ti0_3 Ti16_6 3.156687 1_555
Ti0_3 Ti16_2 3.156687 1_555
Ti0_4 Ti16_1 3.156687 1_654
Ti0_4 Ti16_5 3.156687 1_554
Ti0_5 Ti16_0 3.156687 1_655
Ti0_5 Ti16_4 3.156687 1_555
Ti0_6 Ti16_3 3.156687 1_654
Ti0_6 Ti16_7 3.156687 1_554
Ti0_7 Ti16_2 3.156687 1_655
Ti0_7 Ti16_6 3.156687 1_555
Ti12_0 Ti16_0 2.864390 1_555
Ti12_1 Ti16_1 2.864390 1_555
Ti12_2 Ti16_2 2.864390 1_555
Ti12_3 Ti16_3 2.864390 1_555
Ti12_4 Ti16_4 2.864390 1_555
Ti12_5 Ti16_5 2.864390 1_555
Ti12_6 Ti16_6 2.864390 1_555
Ti12_7 Ti16_7 2.864390 1_555
Ti13_0 Ti17_0 2.864390 1_555
Ti13_1 Ti17_1 2.864390 1_555
Ti13_2 Ti17_2 2.864390 1_555
Ti13_3 Ti17_3 2.864390 1_555
Ti13_4 Ti17_4 2.864390 1_555
Ti13_5 Ti17_5 2.864390 1_555
Ti13_6 Ti17_6 2.864390 1_555
Ti13_7 Ti17_7 2.864390 1_555
Ti14_0 Ti18_0 2.864390 1_555
Ti14_1 Ti18_1 2.864390 1_555
Ti14_2 Ti18_2 2.864390 1_555
Ti14_3 Ti18_3 2.864390 1_555
Ti14_4 Ti18_4 2.864390 1_555
Ti14_5 Ti18_5 2.864390 1_555
Ti14_6 Ti18_6 2.864390 1_555
Ti14_7 Ti18_7 2.864390 1_555
Ti15_0 Ti19_0 2.864390 1_555
Ti15_1 Ti19_1 2.864390 1_555
Ti15_2 Ti19_2 2.864390 1_555
Ti15_3 Ti19_3 2.864390 1_555
Ti15_4 Ti19_4 2.864390 1_555
Ti15_5 Ti19_5 2.864390 1_555
Ti15_6 Ti19_6 2.864390 1_555
Ti15_7 Ti19_7 2.864390 1_555
Ti16_0 Ti17_3 2.760695 1_555
Ti16_0 Ti16_4 2.828237 1_455
Ti16_0 Ti16_4 2.828237 1_555
Ti16_0 Ti7_1 3.003559 1_555
Ti16_0 Ti7_5 3.003559 1_455
Ti16_0 Ti6_6 3.064562 1_455
Ti16_0 Ti6_2 3.064562 1_555
Ti16_1 Ti17_2 2.760695 1_556
Ti16_1 Ti16_5 2.828237 1_455
Ti16_1 Ti16_5 2.828237 1_555
Ti16_1 Ti7_4 3.003559 1_456
Ti16_1 Ti7_0 3.003559 1_556
Ti16_1 Ti6_3 3.064562 1_555
Ti16_1 Ti6_7 3.064562 1_455
Ti16_2 Ti17_1 2.760695 1_565
Ti16_2 Ti16_6 2.828237 1_455
Ti16_2 Ti16_6 2.828237 1_555
Ti16_2 Ti7_7 3.003559 1_455
Ti16_2 Ti7_3 3.003559 1_555
Ti16_2 Ti6_4 3.064562 1_465
Ti16_2 Ti6_0 3.064562 1_565
Ti16_3 Ti17_0 2.760695 1_566
Ti16_3 Ti16_7 2.828237 1_455
Ti16_3 Ti16_7 2.828237 1_555
Ti16_3 Ti7_2 3.003559 1_556
Ti16_3 Ti7_6 3.003559 1_456
Ti16_3 Ti6_5 3.064562 1_465
Ti16_3 Ti6_1 3.064562 1_565
Ti16_4 Ti17_7 2.760695 1_555
Ti16_4 Ti7_1 3.003559 1_555
Ti16_4 Ti7_5 3.003559 1_555
Ti16_4 Ti6_2 3.064562 1_555
Ti16_4 Ti6_6 3.064562 1_555
Ti16_5 Ti17_6 2.760695 1_556
Ti16_5 Ti7_4 3.003559 1_556
Ti16_5 Ti7_0 3.003559 1_556
Ti16_5 Ti6_3 3.064562 1_555
Ti16_5 Ti6_7 3.064562 1_555
Ti16_6 Ti17_5 2.760695 1_565
Ti16_6 Ti7_3 3.003559 1_555
Ti16_6 Ti7_7 3.003559 1_555
Ti16_6 Ti6_0 3.064562 1_565
Ti16_6 Ti6_4 3.064562 1_565
Ti16_7 Ti17_4 2.760695 1_566
Ti16_7 Ti7_2 3.003559 1_556
Ti16_7 Ti7_6 3.003559 1_556
Ti16_7 Ti6_1 3.064562 1_565
Ti16_7 Ti6_5 3.064562 1_565
Ti17_0 Ti17_4 2.828237 1_555
Ti17_0 Ti17_4 2.828237 1_455
Ti17_0 Ti6_1 3.003559 1_554
Ti17_0 Ti6_5 3.003559 1_454
Ti17_0 Ti7_2 3.064562 1_545
Ti17_0 Ti7_6 3.064562 1_445
Ti17_0 Ti1_5 3.156687 1_454
Ti17_0 Ti1_1 3.156687 1_554
Ti17_1 Ti17_5 2.828237 1_555
Ti17_1 Ti17_5 2.828237 1_455
Ti17_1 Ti6_4 3.003559 1_455
Ti17_1 Ti6_0 3.003559 1_555
Ti17_1 Ti7_3 3.064562 1_545
Ti17_1 Ti7_7 3.064562 1_445
Ti17_1 Ti1_4 3.156687 1_455
Ti17_1 Ti1_0 3.156687 1_555
Ti17_2 Ti17_6 2.828237 1_455
Ti17_2 Ti17_6 2.828237 1_555
Ti17_2 Ti6_3 3.003559 1_554
Ti17_2 Ti6_7 3.003559 1_454
Ti17_2 Ti7_4 3.064562 1_455
Ti17_2 Ti7_0 3.064562 1_555
Ti17_2 Ti1_3 3.156687 1_554
Ti17_2 Ti1_7 3.156687 1_454
Ti17_3 Ti17_7 2.828237 1_555
Ti17_3 Ti17_7 2.828237 1_455
Ti17_3 Ti6_6 3.003559 1_455
Ti17_3 Ti6_2 3.003559 1_555
Ti17_3 Ti7_5 3.064562 1_455
Ti17_3 Ti7_1 3.064562 1_555
Ti17_3 Ti1_2 3.156687 1_555
Ti17_3 Ti1_6 3.156687 1_455
Ti17_4 Ti6_1 3.003559 1_554
Ti17_4 Ti6_5 3.003559 1_554
Ti17_4 Ti7_6 3.064562 1_545
Ti17_4 Ti7_2 3.064562 1_545
Ti17_4 Ti1_5 3.156687 1_554
Ti17_4 Ti1_1 3.156687 1_554
Ti17_5 Ti6_0 3.003559 1_555
Ti17_5 Ti6_4 3.003559 1_555
Ti17_5 Ti7_7 3.064562 1_545
Ti17_5 Ti7_3 3.064562 1_545
Ti17_5 Ti1_4 3.156687 1_555
Ti17_5 Ti1_0 3.156687 1_555
Ti17_6 Ti6_3 3.003559 1_554
Ti17_6 Ti6_7 3.003559 1_554
Ti17_6 Ti7_4 3.064562 1_555
Ti17_6 Ti7_0 3.064562 1_555
Ti17_6 Ti1_3 3.156687 1_554
Ti17_6 Ti1_7 3.156687 1_554
Ti17_7 Ti6_2 3.003559 1_555
Ti17_7 Ti6_6 3.003559 1_555
Ti17_7 Ti7_1 3.064562 1_555
Ti17_7 Ti7_5 3.064562 1_555
Ti17_7 Ti1_2 3.156687 1_555
Ti17_7 Ti1_6 3.156687 1_555
Ti18_0 Ti19_0 2.760695 1_555
Ti18_0 Ti18_4 2.828237 1_555
Ti18_0 Ti18_4 2.828237 1_455
Ti18_0 Ti5_0 3.003559 1_555
Ti18_0 Ti5_4 3.003559 1_455
Ti18_0 Ti4_4 3.064562 1_455
Ti18_0 Ti4_0 3.064562 1_555
Ti18_0 Ti2_0 3.156687 1_555
Ti18_0 Ti2_4 3.156687 1_455
Ti18_1 Ti19_1 2.760695 1_555
Ti18_1 Ti18_5 2.828237 1_455
Ti18_1 Ti18_5 2.828237 1_555
Ti18_1 Ti5_5 3.003559 1_455
Ti18_1 Ti5_1 3.003559 1_555
Ti18_1 Ti4_1 3.064562 1_555
Ti18_1 Ti4_5 3.064562 1_455
Ti18_1 Ti2_1 3.156687 1_555
Ti18_1 Ti2_5 3.156687 1_455
Ti18_2 Ti19_2 2.760695 1_555
Ti18_2 Ti18_6 2.828237 1_555
Ti18_2 Ti18_6 2.828237 1_455
Ti18_2 Ti5_2 3.003559 1_555
Ti18_2 Ti5_6 3.003559 1_455
Ti18_2 Ti4_2 3.064562 1_555
Ti18_2 Ti4_6 3.064562 1_455
Ti18_2 Ti2_2 3.156687 1_555
Ti18_2 Ti2_6 3.156687 1_455
Ti18_3 Ti19_3 2.760695 1_555
Ti18_3 Ti18_7 2.828237 1_555
Ti18_3 Ti18_7 2.828237 1_455
Ti18_3 Ti5_7 3.003559 1_455
Ti18_3 Ti5_3 3.003559 1_555
Ti18_3 Ti4_3 3.064562 1_555
Ti18_3 Ti4_7 3.064562 1_455
Ti18_3 Ti2_3 3.156687 1_555
Ti18_3 Ti2_7 3.156687 1_455
Ti18_4 Ti19_4 2.760695 1_555
Ti18_4 Ti5_0 3.003559 1_555
Ti18_4 Ti5_4 3.003559 1_555
Ti18_4 Ti4_4 3.064562 1_555
Ti18_4 Ti4_0 3.064562 1_555
Ti18_4 Ti2_0 3.156687 1_555
Ti18_4 Ti2_4 3.156687 1_555
Ti18_5 Ti19_5 2.760695 1_555
Ti18_5 Ti5_1 3.003559 1_555
Ti18_5 Ti5_5 3.003559 1_555
Ti18_5 Ti4_1 3.064562 1_555
Ti18_5 Ti4_5 3.064562 1_555
Ti18_5 Ti2_1 3.156687 1_555
Ti18_5 Ti2_5 3.156687 1_555
Ti18_6 Ti19_6 2.760695 1_555
Ti18_6 Ti5_6 3.003559 1_555
Ti18_6 Ti5_2 3.003559 1_555
Ti18_6 Ti4_2 3.064562 1_555
Ti18_6 Ti4_6 3.064562 1_555
Ti18_6 Ti2_2 3.156687 1_555
Ti18_6 Ti2_6 3.156687 1_555
Ti18_7 Ti19_7 2.760695 1_555
Ti18_7 Ti5_3 3.003559 1_555
Ti18_7 Ti5_7 3.003559 1_555
Ti18_7 Ti4_3 3.064562 1_555
Ti18_7 Ti4_7 3.064562 1_555
Ti18_7 Ti2_3 3.156687 1_555
Ti18_7 Ti2_7 3.156687 1_555
Ti19_0 Ti19_4 2.828237 1_455
Ti19_0 Ti19_4 2.828237 1_555
Ti19_0 Ti4_0 3.003559 1_555
Ti19_0 Ti4_4 3.003559 1_455
Ti19_0 Ti5_0 3.064562 1_555
Ti19_0 Ti5_4 3.064562 1_455
Ti19_0 Ti3_4 3.156687 1_455
Ti19_0 Ti3_0 3.156687 1_555
Ti19_1 Ti19_5 2.828237 1_455
Ti19_1 Ti19_5 2.828237 1_555
Ti19_1 Ti4_5 3.003559 1_455
Ti19_1 Ti4_1 3.003559 1_555
Ti19_1 Ti5_5 3.064562 1_455
Ti19_1 Ti5_1 3.064562 1_555
Ti19_1 Ti3_1 3.156687 1_555
Ti19_1 Ti3_5 3.156687 1_455
Ti19_2 Ti19_6 2.828237 1_455
Ti19_2 Ti19_6 2.828237 1_555
Ti19_2 Ti4_2 3.003559 1_555
Ti19_2 Ti4_6 3.003559 1_455
Ti19_2 Ti5_2 3.064562 1_555
Ti19_2 Ti5_6 3.064562 1_455
Ti19_2 Ti3_6 3.156687 1_455
Ti19_2 Ti3_2 3.156687 1_555
Ti19_3 Ti19_7 2.828237 1_555
Ti19_3 Ti19_7 2.828237 1_455
Ti19_3 Ti4_3 3.003559 1_555
Ti19_3 Ti4_7 3.003559 1_455
Ti19_3 Ti5_7 3.064562 1_455
Ti19_3 Ti5_3 3.064562 1_555
Ti19_3 Ti3_7 3.156687 1_455
Ti19_3 Ti3_3 3.156687 1_555
Ti19_4 Ti4_4 3.003559 1_555
Ti19_4 Ti4_0 3.003559 1_555
Ti19_4 Ti5_0 3.064562 1_555
Ti19_4 Ti5_4 3.064562 1_555
Ti19_4 Ti3_4 3.156687 1_555
Ti19_4 Ti3_0 3.156687 1_555
Ti19_5 Ti4_1 3.003559 1_555
Ti19_5 Ti4_5 3.003559 1_555
Ti19_5 Ti5_5 3.064562 1_555
Ti19_5 Ti5_1 3.064562 1_555
Ti19_5 Ti3_5 3.156687 1_555
Ti19_5 Ti3_1 3.156687 1_555
Ti19_6 Ti4_2 3.003559 1_555
Ti19_6 Ti4_6 3.003559 1_555
Ti19_6 Ti5_2 3.064562 1_555
Ti19_6 Ti5_6 3.064562 1_555
Ti19_6 Ti3_6 3.156687 1_555
Ti19_6 Ti3_2 3.156687 1_555
Ti19_7 Ti4_7 3.003559 1_555
Ti19_7 Ti4_3 3.003559 1_555
Ti19_7 Ti5_3 3.064562 1_555
Ti19_7 Ti5_7 3.064562 1_555
Ti19_7 Ti3_7 3.156687 1_555
Ti19_7 Ti3_3 3.156687 1_555
Cu0_0 Ti12_0 2.534976 1_555
Cu0_0 Ti3_0 2.551438 1_555
Cu0_0 Ti3_4 2.551438 1_455
Cu0_0 Cu4_0 2.587694 1_555
Cu0_0 Cu4_4 2.587694 1_455
Cu0_0 Ti4_4 2.640014 1_455
Cu0_0 Ti4_0 2.640014 1_555
Cu0_0 Cu0_4 2.828237 1_455
Cu0_0 Cu0_4 2.828237 1_555
Cu0_0 Ti19_0 2.912273 1_555
Cu0_0 Ti8_0 2.971201 1_555
Cu0_1 Ti12_1 2.534976 1_555
Cu0_1 Ti3_1 2.551438 1_555
Cu0_1 Ti3_5 2.551438 1_455
Cu0_1 Cu4_5 2.587694 1_455
Cu0_1 Cu4_1 2.587694 1_555
Cu0_1 Ti4_5 2.640014 1_455
Cu0_1 Ti4_1 2.640014 1_555
Cu0_1 Cu0_5 2.828237 1_455
Cu0_1 Cu0_5 2.828237 1_555
Cu0_1 Ti19_1 2.912273 1_555
Cu0_1 Ti8_1 2.971201 1_555
Cu0_2 Ti12_2 2.534976 1_555
Cu0_2 Ti3_6 2.551438 1_455
Cu0_2 Ti3_2 2.551438 1_555
Cu0_2 Cu4_2 2.587694 1_555
Cu0_2 Cu4_6 2.587694 1_455
Cu0_2 Ti4_2 2.640014 1_555
Cu0_2 Ti4_6 2.640014 1_455
Cu0_2 Cu0_6 2.828237 1_555
Cu0_2 Cu0_6 2.828237 1_455
Cu0_2 Ti19_2 2.912273 1_555
Cu0_2 Ti8_2 2.971201 1_555
Cu0_3 Ti12_3 2.534976 1_555
Cu0_3 Ti3_3 2.551438 1_555
Cu0_3 Ti3_7 2.551438 1_455
Cu0_3 Cu4_3 2.587694 1_555
Cu0_3 Cu4_7 2.587694 1_455
Cu0_3 Ti4_3 2.640014 1_555
Cu0_3 Ti4_7 2.640014 1_455
Cu0_3 Cu0_7 2.828237 1_455
Cu0_3 Cu0_7 2.828237 1_555
Cu0_3 Ti19_3 2.912273 1_555
Cu0_3 Ti8_3 2.971201 1_555
Cu0_4 Ti12_4 2.534976 1_555
Cu0_4 Ti3_0 2.551438 1_555
Cu0_4 Ti3_4 2.551438 1_555
Cu0_4 Cu4_0 2.587694 1_555
Cu0_4 Cu4_4 2.587694 1_555
Cu0_4 Ti4_0 2.640014 1_555
Cu0_4 Ti4_4 2.640014 1_555
Cu0_4 Ti19_4 2.912273 1_555
Cu0_4 Ti8_4 2.971201 1_555
Cu0_5 Ti12_5 2.534976 1_555
Cu0_5 Ti3_1 2.551438 1_555
Cu0_5 Ti3_5 2.551438 1_555
Cu0_5 Cu4_1 2.587694 1_555
Cu0_5 Cu4_5 2.587694 1_555
Cu0_5 Ti4_1 2.640014 1_555
Cu0_5 Ti4_5 2.640014 1_555
Cu0_5 Ti19_5 2.912273 1_555
Cu0_5 Ti8_5 2.971201 1_555
Cu0_6 Ti12_6 2.534976 1_555
Cu0_6 Ti3_6 2.551438 1_555
Cu0_6 Ti3_2 2.551438 1_555
Cu0_6 Cu4_6 2.587694 1_555
Cu0_6 Cu4_2 2.587694 1_555
Cu0_6 Ti4_2 2.640014 1_555
Cu0_6 Ti4_6 2.640014 1_555
Cu0_6 Ti19_6 2.912273 1_555
Cu0_6 Ti8_6 2.971201 1_555
Cu0_7 Ti12_7 2.534976 1_555
Cu0_7 Ti3_3 2.551438 1_555
Cu0_7 Ti3_7 2.551438 1_555
Cu0_7 Cu4_3 2.587694 1_555
Cu0_7 Cu4_7 2.587694 1_555
Cu0_7 Ti4_3 2.640014 1_555
Cu0_7 Ti4_7 2.640014 1_555
Cu0_7 Ti19_7 2.912273 1_555
Cu0_7 Ti8_7 2.971201 1_555
Cu1_0 Ti13_0 2.534976 1_555
Cu1_0 Ti2_0 2.551438 1_555
Cu1_0 Ti2_4 2.551438 1_455
Cu1_0 Cu5_0 2.587694 1_555
Cu1_0 Cu5_4 2.587694 1_455
Cu1_0 Ti5_0 2.640014 1_555
Cu1_0 Ti5_4 2.640014 1_455
Cu1_0 Cu1_4 2.828237 1_555
Cu1_0 Cu1_4 2.828237 1_455
Cu1_0 Ti18_0 2.912273 1_555
Cu1_0 Ti9_0 2.971201 1_555
Cu1_1 Ti13_1 2.534976 1_555
Cu1_1 Ti2_1 2.551438 1_555
Cu1_1 Ti2_5 2.551438 1_455
Cu1_1 Cu5_5 2.587694 1_455
Cu1_1 Cu5_1 2.587694 1_555
Cu1_1 Ti5_1 2.640014 1_555
Cu1_1 Ti5_5 2.640014 1_455
Cu1_1 Cu1_5 2.828237 1_455
Cu1_1 Cu1_5 2.828237 1_555
Cu1_1 Ti18_1 2.912273 1_555
Cu1_1 Ti9_1 2.971201 1_555
Cu1_2 Ti13_2 2.534976 1_555
Cu1_2 Ti2_2 2.551438 1_555
Cu1_2 Ti2_6 2.551438 1_455
Cu1_2 Cu5_2 2.587694 1_555
Cu1_2 Cu5_6 2.587694 1_455
Cu1_2 Ti5_2 2.640014 1_555
Cu1_2 Ti5_6 2.640014 1_455
Cu1_2 Cu1_6 2.828237 1_455
Cu1_2 Cu1_6 2.828237 1_555
Cu1_2 Ti18_2 2.912273 1_555
Cu1_2 Ti9_2 2.971201 1_555
Cu1_3 Ti13_3 2.534976 1_555
Cu1_3 Ti2_7 2.551438 1_455
Cu1_3 Ti2_3 2.551438 1_555
Cu1_3 Cu5_7 2.587694 1_455
Cu1_3 Cu5_3 2.587694 1_555
Cu1_3 Ti5_3 2.640014 1_555
Cu1_3 Ti5_7 2.640014 1_455
Cu1_3 Cu1_7 2.828237 1_555
Cu1_3 Cu1_7 2.828237 1_455
Cu1_3 Ti18_3 2.912273 1_555
Cu1_3 Ti9_3 2.971201 1_555
Cu1_4 Ti13_4 2.534976 1_555
Cu1_4 Ti2_0 2.551438 1_555
Cu1_4 Ti2_4 2.551438 1_555
Cu1_4 Cu5_0 2.587694 1_555
Cu1_4 Cu5_4 2.587694 1_555
Cu1_4 Ti5_4 2.640014 1_555
Cu1_4 Ti5_0 2.640014 1_555
Cu1_4 Ti18_4 2.912273 1_555
Cu1_4 Ti9_4 2.971201 1_555
Cu1_5 Ti13_5 2.534976 1_555
Cu1_5 Ti2_1 2.551438 1_555
Cu1_5 Ti2_5 2.551438 1_555
Cu1_5 Cu5_5 2.587694 1_555
Cu1_5 Cu5_1 2.587694 1_555
Cu1_5 Ti5_1 2.640014 1_555
Cu1_5 Ti5_5 2.640014 1_555
Cu1_5 Ti18_5 2.912273 1_555
Cu1_5 Ti9_5 2.971201 1_555
Cu1_6 Ti13_6 2.534976 1_555
Cu1_6 Ti2_2 2.551438 1_555
Cu1_6 Ti2_6 2.551438 1_555
Cu1_6 Cu5_6 2.587694 1_555
Cu1_6 Cu5_2 2.587694 1_555
Cu1_6 Ti5_2 2.640014 1_555
Cu1_6 Ti5_6 2.640014 1_555
Cu1_6 Ti18_6 2.912273 1_555
Cu1_6 Ti9_6 2.971201 1_555
Cu1_7 Ti13_7 2.534976 1_555
Cu1_7 Ti2_3 2.551438 1_555
Cu1_7 Ti2_7 2.551438 1_555
Cu1_7 Cu5_3 2.587694 1_555
Cu1_7 Cu5_7 2.587694 1_555
Cu1_7 Ti5_3 2.640014 1_555
Cu1_7 Ti5_7 2.640014 1_555
Cu1_7 Ti18_7 2.912273 1_555
Cu1_7 Ti9_7 2.971201 1_555
Cu2_0 Ti14_0 2.534976 1_555
Cu2_0 Ti1_0 2.551438 1_555
Cu2_0 Ti1_4 2.551438 1_455
Cu2_0 Cu6_0 2.587694 1_555
Cu2_0 Cu6_4 2.587694 1_455
Cu2_0 Ti6_4 2.640014 1_455
Cu2_0 Ti6_0 2.640014 1_555
Cu2_0 Cu2_4 2.828237 1_455
Cu2_0 Cu2_4 2.828237 1_555
Cu2_0 Ti17_1 2.912273 1_555
Cu2_0 Ti10_0 2.971201 1_555
Cu2_1 Ti14_1 2.534976 1_555
Cu2_1 Ti1_5 2.551438 1_455
Cu2_1 Ti1_1 2.551438 1_555
Cu2_1 Cu6_5 2.587694 1_455
Cu2_1 Cu6_1 2.587694 1_555
Cu2_1 Ti6_1 2.640014 1_555
Cu2_1 Ti6_5 2.640014 1_455
Cu2_1 Cu2_5 2.828237 1_555
Cu2_1 Cu2_5 2.828237 1_455
Cu2_1 Ti17_0 2.912273 1_556
Cu2_1 Ti10_1 2.971201 1_555
Cu2_2 Ti14_2 2.534976 1_555
Cu2_2 Ti1_2 2.551438 1_555
Cu2_2 Ti1_6 2.551438 1_455
Cu2_2 Cu6_2 2.587694 1_555
Cu2_2 Cu6_6 2.587694 1_455
Cu2_2 Ti6_2 2.640014 1_555
Cu2_2 Ti6_6 2.640014 1_455
Cu2_2 Cu2_6 2.828237 1_455
Cu2_2 Cu2_6 2.828237 1_555
Cu2_2 Ti17_3 2.912273 1_555
Cu2_2 Ti10_2 2.971201 1_555
Cu2_3 Ti14_3 2.534976 1_555
Cu2_3 Ti1_3 2.551438 1_555
Cu2_3 Ti1_7 2.551438 1_455
Cu2_3 Cu6_3 2.587694 1_555
Cu2_3 Cu6_7 2.587694 1_455
Cu2_3 Ti6_3 2.640014 1_555
Cu2_3 Ti6_7 2.640014 1_455
Cu2_3 Cu2_7 2.828237 1_455
Cu2_3 Cu2_7 2.828237 1_555
Cu2_3 Ti17_2 2.912273 1_556
Cu2_3 Ti10_3 2.971201 1_555
Cu2_4 Ti14_4 2.534976 1_555
Cu2_4 Ti1_4 2.551438 1_555
Cu2_4 Ti1_0 2.551438 1_555
Cu2_4 Cu6_0 2.587694 1_555
Cu2_4 Cu6_4 2.587694 1_555
Cu2_4 Ti6_4 2.640014 1_555
Cu2_4 Ti6_0 2.640014 1_555
Cu2_4 Ti17_5 2.912273 1_555
Cu2_4 Ti10_4 2.971201 1_555
Cu2_5 Ti14_5 2.534976 1_555
Cu2_5 Ti1_5 2.551438 1_555
Cu2_5 Ti1_1 2.551438 1_555
Cu2_5 Cu6_5 2.587694 1_555
Cu2_5 Cu6_1 2.587694 1_555
Cu2_5 Ti6_1 2.640014 1_555
Cu2_5 Ti6_5 2.640014 1_555
Cu2_5 Ti17_4 2.912273 1_556
Cu2_5 Ti10_5 2.971201 1_555
Cu2_6 Ti14_6 2.534976 1_555
Cu2_6 Ti1_2 2.551438 1_555
Cu2_6 Ti1_6 2.551438 1_555
Cu2_6 Cu6_2 2.587694 1_555
Cu2_6 Cu6_6 2.587694 1_555
Cu2_6 Ti6_2 2.640014 1_555
Cu2_6 Ti6_6 2.640014 1_555
Cu2_6 Ti17_7 2.912273 1_555
Cu2_6 Ti10_6 2.971201 1_555
Cu2_7 Ti14_7 2.534976 1_555
Cu2_7 Ti1_3 2.551438 1_555
Cu2_7 Ti1_7 2.551438 1_555
Cu2_7 Cu6_3 2.587694 1_555
Cu2_7 Cu6_7 2.587694 1_555
Cu2_7 Ti6_3 2.640014 1_555
Cu2_7 Ti6_7 2.640014 1_555
Cu2_7 Ti17_6 2.912273 1_556
Cu2_7 Ti10_7 2.971201 1_555
Cu3_0 Ti15_0 2.534976 1_555
Cu3_0 Ti0_4 2.551438 1_455
Cu3_0 Ti0_0 2.551438 1_555
Cu3_0 Cu7_0 2.587694 1_555
Cu3_0 Cu7_4 2.587694 1_455
Cu3_0 Ti7_4 2.640014 1_455
Cu3_0 Ti7_0 2.640014 1_555
Cu3_0 Cu3_4 2.828237 1_455
Cu3_0 Cu3_4 2.828237 1_555
Cu3_0 Ti16_1 2.912273 1_554
Cu3_0 Ti11_0 2.971201 1_555
Cu3_1 Ti15_1 2.534976 1_555
Cu3_1 Ti0_1 2.551438 1_555
Cu3_1 Ti0_5 2.551438 1_455
Cu3_1 Cu7_1 2.587694 1_555
Cu3_1 Cu7_5 2.587694 1_455
Cu3_1 Ti7_5 2.640014 1_455
Cu3_1 Ti7_1 2.640014 1_555
Cu3_1 Cu3_5 2.828237 1_555
Cu3_1 Cu3_5 2.828237 1_455
Cu3_1 Ti16_0 2.912273 1_555
Cu3_1 Ti11_1 2.971201 1_555
Cu3_2 Ti15_2 2.534976 1_555
Cu3_2 Ti0_2 2.551438 1_555
Cu3_2 Ti0_6 2.551438 1_455
Cu3_2 Cu7_2 2.587694 1_555
Cu3_2 Cu7_6 2.587694 1_455
Cu3_2 Ti7_2 2.640014 1_555
Cu3_2 Ti7_6 2.640014 1_455
Cu3_2 Cu3_6 2.828237 1_455
Cu3_2 Cu3_6 2.828237 1_555
Cu3_2 Ti16_3 2.912273 1_554
Cu3_2 Ti11_2 2.971201 1_555
Cu3_3 Ti15_3 2.534976 1_555
Cu3_3 Ti0_7 2.551438 1_455
Cu3_3 Ti0_3 2.551438 1_555
Cu3_3 Cu7_3 2.587694 1_555
Cu3_3 Cu7_7 2.587694 1_455
Cu3_3 Ti7_3 2.640014 1_555
Cu3_3 Ti7_7 2.640014 1_455
Cu3_3 Cu3_7 2.828237 1_555
Cu3_3 Cu3_7 2.828237 1_455
Cu3_3 Ti16_2 2.912273 1_555
Cu3_3 Ti11_3 2.971201 1_555
Cu3_4 Ti15_4 2.534976 1_555
Cu3_4 Ti0_0 2.551438 1_555
Cu3_4 Ti0_4 2.551438 1_555
Cu3_4 Cu7_0 2.587694 1_555
Cu3_4 Cu7_4 2.587694 1_555
Cu3_4 Ti7_4 2.640014 1_555
Cu3_4 Ti7_0 2.640014 1_555
Cu3_4 Ti16_5 2.912273 1_554
Cu3_4 Ti11_4 2.971201 1_555
Cu3_5 Ti15_5 2.534976 1_555
Cu3_5 Ti0_1 2.551438 1_555
Cu3_5 Ti0_5 2.551438 1_555
Cu3_5 Cu7_1 2.587694 1_555
Cu3_5 Cu7_5 2.587694 1_555
Cu3_5 Ti7_1 2.640014 1_555
Cu3_5 Ti7_5 2.640014 1_555
Cu3_5 Ti16_4 2.912273 1_555
Cu3_5 Ti11_5 2.971201 1_555
Cu3_6 Ti15_6 2.534976 1_555
Cu3_6 Ti0_6 2.551438 1_555
Cu3_6 Ti0_2 2.551438 1_555
Cu3_6 Cu7_2 2.587694 1_555
Cu3_6 Cu7_6 2.587694 1_555
Cu3_6 Ti7_2 2.640014 1_555
Cu3_6 Ti7_6 2.640014 1_555
Cu3_6 Ti16_7 2.912273 1_554
Cu3_6 Ti11_6 2.971201 1_555
Cu3_7 Ti15_7 2.534976 1_555
Cu3_7 Ti0_3 2.551438 1_555
Cu3_7 Ti0_7 2.551438 1_555
Cu3_7 Cu7_3 2.587694 1_555
Cu3_7 Cu7_7 2.587694 1_555
Cu3_7 Ti7_3 2.640014 1_555
Cu3_7 Ti7_7 2.640014 1_555
Cu3_7 Ti16_6 2.912273 1_555
Cu3_7 Ti11_7 2.971201 1_555
Cu4_0 Ti6_2 2.535035 1_555
Cu4_0 Ti12_0 2.664702 1_555
Cu4_0 Ti12_4 2.664702 1_555
Cu4_0 Ti8_0 2.718727 1_555
Cu4_0 Ti8_4 2.718727 1_555
Cu4_0 Ti16_4 3.061749 1_555
Cu4_0 Ti16_0 3.061749 1_555
Cu4_1 Ti6_3 2.535035 1_555
Cu4_1 Ti12_5 2.664702 1_555
Cu4_1 Ti12_1 2.664702 1_555
Cu4_1 Ti8_1 2.718727 1_555
Cu4_1 Ti8_5 2.718727 1_555
Cu4_1 Ti16_1 3.061749 1_555
Cu4_1 Ti16_5 3.061749 1_555
Cu4_2 Ti6_0 2.535035 1_565
Cu4_2 Ti12_6 2.664702 1_555
Cu4_2 Ti12_2 2.664702 1_555
Cu4_2 Ti8_2 2.718727 1_555
Cu4_2 Ti8_6 2.718727 1_555
Cu4_2 Ti16_2 3.061749 1_555
Cu4_2 Ti16_6 3.061749 1_555
Cu4_3 Ti6_1 2.535035 1_565
Cu4_3 Ti12_7 2.664702 1_555
Cu4_3 Ti12_3 2.664702 1_555
Cu4_3 Ti8_7 2.718727 1_555
Cu4_3 Ti8_3 2.718727 1_555
Cu4_3 Ti16_7 3.061749 1_555
Cu4_3 Ti16_3 3.061749 1_555
Cu4_4 Ti6_6 2.535035 1_555
Cu4_4 Ti12_0 2.664702 1_655
Cu4_4 Ti12_4 2.664702 1_555
Cu4_4 Ti8_4 2.718727 1_555
Cu4_4 Ti8_0 2.718727 1_655
Cu4_4 Ti16_4 3.061749 1_555
Cu4_4 Ti16_0 3.061749 1_655
Cu4_5 Ti6_7 2.535035 1_555
Cu4_5 Ti12_5 2.664702 1_555
Cu4_5 Ti12_1 2.664702 1_655
Cu4_5 Ti8_5 2.718727 1_555
Cu4_5 Ti8_1 2.718727 1_655
Cu4_5 Ti16_1 3.061749 1_655
Cu4_5 Ti16_5 3.061749 1_555
Cu4_6 Ti6_4 2.535035 1_565
Cu4_6 Ti12_6 2.664702 1_555
Cu4_6 Ti12_2 2.664702 1_655
Cu4_6 Ti8_2 2.718727 1_655
Cu4_6 Ti8_6 2.718727 1_555
Cu4_6 Ti16_6 3.061749 1_555
Cu4_6 Ti16_2 3.061749 1_655
Cu4_7 Ti6_5 2.535035 1_565
Cu4_7 Ti12_7 2.664702 1_555
Cu4_7 Ti12_3 2.664702 1_655
Cu4_7 Ti8_3 2.718727 1_655
Cu4_7 Ti8_7 2.718727 1_555
Cu4_7 Ti16_7 3.061749 1_555
Cu4_7 Ti16_3 3.061749 1_655
Cu5_0 Ti7_2 2.535035 1_545
Cu5_0 Ti13_0 2.664702 1_555
Cu5_0 Ti13_4 2.664702 1_555
Cu5_0 Ti9_0 2.718727 1_555
Cu5_0 Ti9_4 2.718727 1_555
Cu5_0 Ti17_0 3.061749 1_555
Cu5_0 Ti17_4 3.061749 1_555
Cu5_1 Ti7_3 2.535035 1_545
Cu5_1 Ti13_1 2.664702 1_555
Cu5_1 Ti13_5 2.664702 1_555
Cu5_1 Ti9_1 2.718727 1_555
Cu5_1 Ti9_5 2.718727 1_555
Cu5_1 Ti17_1 3.061749 1_555
Cu5_1 Ti17_5 3.061749 1_555
Cu5_2 Ti7_0 2.535035 1_555
Cu5_2 Ti13_2 2.664702 1_555
Cu5_2 Ti13_6 2.664702 1_555
Cu5_2 Ti9_2 2.718727 1_555
Cu5_2 Ti9_6 2.718727 1_555
Cu5_2 Ti17_2 3.061749 1_555
Cu5_2 Ti17_6 3.061749 1_555
Cu5_3 Ti7_1 2.535035 1_555
Cu5_3 Ti13_3 2.664702 1_555
Cu5_3 Ti13_7 2.664702 1_555
Cu5_3 Ti9_3 2.718727 1_555
Cu5_3 Ti9_7 2.718727 1_555
Cu5_3 Ti17_3 3.061749 1_555
Cu5_3 Ti17_7 3.061749 1_555
Cu5_4 Ti7_6 2.535035 1_545
Cu5_4 Ti13_0 2.664702 1_655
Cu5_4 Ti13_4 2.664702 1_555
Cu5_4 Ti9_0 2.718727 1_655
Cu5_4 Ti9_4 2.718727 1_555
Cu5_4 Ti17_0 3.061749 1_655
Cu5_4 Ti17_4 3.061749 1_555
Cu5_5 Ti7_7 2.535035 1_545
Cu5_5 Ti13_1 2.664702 1_655
Cu5_5 Ti13_5 2.664702 1_555
Cu5_5 Ti9_5 2.718727 1_555
Cu5_5 Ti9_1 2.718727 1_655
Cu5_5 Ti17_1 3.061749 1_655
Cu5_5 Ti17_5 3.061749 1_555
Cu5_6 Ti7_4 2.535035 1_555
Cu5_6 Ti13_6 2.664702 1_555
Cu5_6 Ti13_2 2.664702 1_655
Cu5_6 Ti9_2 2.718727 1_655
Cu5_6 Ti9_6 2.718727 1_555
Cu5_6 Ti17_2 3.061749 1_655
Cu5_6 Ti17_6 3.061749 1_555
Cu5_7 Ti7_5 2.535035 1_555
Cu5_7 Ti13_3 2.664702 1_655
Cu5_7 Ti13_7 2.664702 1_555
Cu5_7 Ti9_7 2.718727 1_555
Cu5_7 Ti9_3 2.718727 1_655
Cu5_7 Ti17_7 3.061749 1_555
Cu5_7 Ti17_3 3.061749 1_655
Cu6_0 Ti4_0 2.535035 1_555
Cu6_0 Ti14_4 2.664702 1_555
Cu6_0 Ti14_0 2.664702 1_555
Cu6_0 Ti10_0 2.718727 1_555
Cu6_0 Ti10_4 2.718727 1_555
Cu6_0 Ti18_4 3.061749 1_555
Cu6_0 Ti18_0 3.061749 1_555
Cu6_1 Ti4_1 2.535035 1_555
Cu6_1 Ti14_5 2.664702 1_555
Cu6_1 Ti14_1 2.664702 1_555
Cu6_1 Ti10_5 2.718727 1_555
Cu6_1 Ti10_1 2.718727 1_555
Cu6_1 Ti18_5 3.061749 1_555
Cu6_1 Ti18_1 3.061749 1_555
Cu6_2 Ti4_2 2.535035 1_555
Cu6_2 Ti14_2 2.664702 1_555
Cu6_2 Ti14_6 2.664702 1_555
Cu6_2 Ti10_2 2.718727 1_555
Cu6_2 Ti10_6 2.718727 1_555
Cu6_2 Ti18_6 3.061749 1_555
Cu6_2 Ti18_2 3.061749 1_555
Cu6_3 Ti4_3 2.535035 1_555
Cu6_3 Ti14_7 2.664702 1_555
Cu6_3 Ti14_3 2.664702 1_555
Cu6_3 Ti10_3 2.718727 1_555
Cu6_3 Ti10_7 2.718727 1_555
Cu6_3 Ti18_7 3.061749 1_555
Cu6_3 Ti18_3 3.061749 1_555
Cu6_4 Ti4_4 2.535035 1_555
Cu6_4 Ti14_0 2.664702 1_655
Cu6_4 Ti14_4 2.664702 1_555
Cu6_4 Ti10_0 2.718727 1_655
Cu6_4 Ti10_4 2.718727 1_555
Cu6_4 Ti18_4 3.061749 1_555
Cu6_4 Ti18_0 3.061749 1_655
Cu6_5 Ti4_5 2.535035 1_555
Cu6_5 Ti14_5 2.664702 1_555
Cu6_5 Ti14_1 2.664702 1_655
Cu6_5 Ti10_5 2.718727 1_555
Cu6_5 Ti10_1 2.718727 1_655
Cu6_5 Ti18_5 3.061749 1_555
Cu6_5 Ti18_1 3.061749 1_655
Cu6_6 Ti4_6 2.535035 1_555
Cu6_6 Ti14_6 2.664702 1_555
Cu6_6 Ti14_2 2.664702 1_655
Cu6_6 Ti10_6 2.718727 1_555
Cu6_6 Ti10_2 2.718727 1_655
Cu6_6 Ti18_6 3.061749 1_555
Cu6_6 Ti18_2 3.061749 1_655
Cu6_7 Ti4_7 2.535035 1_555
Cu6_7 Ti14_7 2.664702 1_555
Cu6_7 Ti14_3 2.664702 1_655
Cu6_7 Ti10_3 2.718727 1_655
Cu6_7 Ti10_7 2.718727 1_555
Cu6_7 Ti18_7 3.061749 1_555
Cu6_7 Ti18_3 3.061749 1_655
Cu7_0 Ti5_0 2.535035 1_555
Cu7_0 Ti15_4 2.664702 1_555
Cu7_0 Ti15_0 2.664702 1_555
Cu7_0 Ti11_4 2.718727 1_555
Cu7_0 Ti11_0 2.718727 1_555
Cu7_0 Ti19_0 3.061749 1_555
Cu7_0 Ti19_4 3.061749 1_555
Cu7_1 Ti5_1 2.535035 1_555
Cu7_1 Ti15_5 2.664702 1_555
Cu7_1 Ti15_1 2.664702 1_555
Cu7_1 Ti11_1 2.718727 1_555
Cu7_1 Ti11_5 2.718727 1_555
Cu7_1 Ti19_5 3.061749 1_555
Cu7_1 Ti19_1 3.061749 1_555
Cu7_2 Ti5_2 2.535035 1_555
Cu7_2 Ti15_2 2.664702 1_555
Cu7_2 Ti15_6 2.664702 1_555
Cu7_2 Ti11_2 2.718727 1_555
Cu7_2 Ti11_6 2.718727 1_555
Cu7_2 Ti19_6 3.061749 1_555
Cu7_2 Ti19_2 3.061749 1_555
Cu7_3 Ti5_3 2.535035 1_555
Cu7_3 Ti15_7 2.664702 1_555
Cu7_3 Ti15_3 2.664702 1_555
Cu7_3 Ti11_3 2.718727 1_555
Cu7_3 Ti11_7 2.718727 1_555
Cu7_3 Ti19_3 3.061749 1_555
Cu7_3 Ti19_7 3.061749 1_555
Cu7_4 Ti5_4 2.535035 1_555
Cu7_4 Ti15_4 2.664702 1_555
Cu7_4 Ti15_0 2.664702 1_655
Cu7_4 Ti11_0 2.718727 1_655
Cu7_4 Ti11_4 2.718727 1_555
Cu7_4 Ti19_4 3.061749 1_555
Cu7_4 Ti19_0 3.061749 1_655
Cu7_5 Ti5_5 2.535035 1_555
Cu7_5 Ti15_5 2.664702 1_555
Cu7_5 Ti15_1 2.664702 1_655
Cu7_5 Ti11_1 2.718727 1_655
Cu7_5 Ti11_5 2.718727 1_555
Cu7_5 Ti19_5 3.061749 1_555
Cu7_5 Ti19_1 3.061749 1_655
Cu7_6 Ti5_6 2.535035 1_555
Cu7_6 Ti15_2 2.664702 1_655
Cu7_6 Ti15_6 2.664702 1_555
Cu7_6 Ti11_6 2.718727 1_555
Cu7_6 Ti11_2 2.718727 1_655
Cu7_6 Ti19_6 3.061749 1_555
Cu7_6 Ti19_2 3.061749 1_655
Cu7_7 Ti5_7 2.535035 1_555
Cu7_7 Ti15_3 2.664702 1_655
Cu7_7 Ti15_7 2.664702 1_555
Cu7_7 Ti11_7 2.718727 1_555
Cu7_7 Ti11_3 2.718727 1_655
Cu7_7 Ti19_7 3.061749 1_555
Cu7_7 Ti19_3 3.061749 1_655
