# generated using pymatgen
data_Li7V3(SiO6)2
_symmetry_space_group_name_H-M   'P 1'
_cell_length_a   4.96028325
_cell_length_b   10.67690892
_cell_length_c   8.59940922
_cell_angle_alpha   66.24926834
_cell_angle_beta   89.99566570
_cell_angle_gamma   94.82368602
_symmetry_Int_Tables_number   1
_chemical_formula_structural   Li7V3(SiO6)2
_chemical_formula_sum   'Li14 V6 Si4 O24'
_cell_volume   415.09281037
_cell_formula_units_Z   2
loop_
 _symmetry_equiv_pos_site_id
 _symmetry_equiv_pos_as_xyz
  1  'x, y, z'
loop_
 _atom_site_type_symbol
 _atom_site_label
 _atom_site_symmetry_multiplicity
 _atom_site_fract_x
 _atom_site_fract_y
 _atom_site_fract_z
 _atom_site_occupancy
  Li  Li0  1  0.12502200  0.75000000  0.95836000  1
  Li  Li1  1  0.62502200  0.74998800  0.45837400  1
  Li  Li2  1  0.25615000  0.50741000  0.57970700  1
  Li  Li3  1  0.75615800  0.50738900  0.07968900  1
  Li  Li4  1  0.49398000  0.99264900  0.83705000  1
  Li  Li5  1  0.99394800  0.99261900  0.33709700  1
  Li  Li6  1  0.50327200  0.99324000  0.17356300  1
  Li  Li7  1  0.00327800  0.99330800  0.67352400  1
  Li  Li8  1  0.24674000  0.50678200  0.24321300  1
  Li  Li9  1  0.74670300  0.50675300  0.74324200  1
  Li  Li10  1  0.24677500  0.50674900  0.91675500  1
  Li  Li11  1  0.74681700  0.50677900  0.41678200  1
  Li  Li12  1  0.00324000  0.99327700  0.99994600  1
  Li  Li13  1  0.50326300  0.99330500  0.49997900  1
  V  V0  1  0.87504400  0.25011600  0.70838000  1
  V  V1  1  0.87498800  0.24998400  0.37460200  1
  V  V2  1  0.87496600  0.25007200  0.04209900  1
  V  V3  1  0.37512800  0.25005500  0.20838000  1
  V  V4  1  0.37479500  0.24994200  0.87453800  1
  V  V5  1  0.37503600  0.25015100  0.54216500  1
  Si  Si0  1  0.12492500  0.74997000  0.29164700  1
  Si  Si1  1  0.62494000  0.74996500  0.79164700  1
  Si  Si2  1  0.62504500  0.74995900  0.12506900  1
  Si  Si3  1  0.12504100  0.74995000  0.62506700  1
  O  O0  1  0.26899700  0.85267000  0.40676100  1
  O  O1  1  0.76898900  0.85266600  0.90676300  1
  O  O2  1  0.48124100  0.64715400  0.00943200  1
  O  O3  1  0.98124500  0.64716200  0.50942900  1
  O  O4  1  0.19322100  0.12652000  0.77018600  1
  O  O5  1  0.69317300  0.12648200  0.27027800  1
  O  O6  1  0.05648900  0.37331700  0.14689900  1
  O  O7  1  0.55636300  0.37337100  0.64693800  1
  O  O8  1  0.91949800  0.64754800  0.19651600  1
  O  O9  1  0.41953200  0.64754100  0.69652700  1
  O  O10  1  0.33032900  0.85230200  0.09422200  1
  O  O11  1  0.83044300  0.85225200  0.59422000  1
  O  O12  1  0.41948600  0.64752700  0.32227300  1
  O  O13  1  0.91941500  0.64749900  0.82228900  1
  O  O14  1  0.33073900  0.85240400  0.72004000  1
  O  O15  1  0.83075600  0.85241300  0.22004300  1
  O  O16  1  0.05690400  0.37008300  0.48177400  1
  O  O17  1  0.55675500  0.36986000  0.98158400  1
  O  O18  1  0.19349000  0.13010500  0.43497900  1
  O  O19  1  0.69349800  0.12995300  0.93493700  1
  O  O20  1  0.19274600  0.13022600  0.10184000  1
  O  O21  1  0.69280400  0.13024500  0.60184100  1
  O  O22  1  0.55689500  0.37009400  0.31474300  1
  O  O23  1  0.05671700  0.37019500  0.81460900  1
loop_
_geom_bond_atom_site_label_1
_geom_bond_atom_site_label_2
_geom_bond_distance
_geom_bond_site_symmetry_2
Li0 O10 2.106230 1_556
Li0 O8 2.106593 1_456
Li0 O14 2.108046 1_555
Li0 O13 2.109748 1_455
Li0 O1 2.109782 1_455
Li0 O2 2.111568 1_556
Li1 O11 2.106090 1_555
Li1 O9 2.106495 1_555
Li1 O15 2.108175 1_555
Li1 O12 2.109490 1_555
Li1 O0 2.109834 1_555
Li1 O3 2.111477 1_555
Li2 O3 2.016683 1_455
Li2 O7 2.071707 1_555
Li2 O23 2.139513 1_555
Li2 O16 2.141708 1_555
Li2 O9 2.216166 1_555
Li2 O12 2.218881 1_555
Li3 O2 2.016821 1_555
Li3 O6 2.072386 1_655
Li3 O22 2.140273 1_555
Li3 O17 2.144746 1_554
Li3 O8 2.216393 1_555
Li3 O13 2.218530 1_554
Li4 O1 2.018732 1_555
Li4 O4 2.072665 1_565
Li4 O21 2.141141 1_565
Li4 O19 2.141791 1_565
Li4 O14 2.218142 1_555
Li4 O10 2.218324 1_556
Li5 O0 2.018633 1_655
Li5 O5 2.072673 1_565
Li5 O20 2.141396 1_665
Li5 O18 2.143373 1_665
Li5 O11 2.217847 1_555
Li5 O15 2.217997 1_555
Li6 O10 2.018859 1_555
Li6 O5 2.081021 1_565
Li6 O20 2.131774 1_565
Li6 O19 2.141764 1_564
Li6 O0 2.215033 1_555
Li6 O15 2.232946 1_555
Li7 O11 2.019528 1_455
Li7 O4 2.080538 1_565
Li7 O21 2.131239 1_465
Li7 O18 2.141494 1_565
Li7 O1 2.215495 1_455
Li7 O14 2.233373 1_555
Li8 O12 2.015220 1_555
Li8 O6 2.081303 1_555
Li8 O22 2.128312 1_555
Li8 O16 2.140603 1_555
Li8 O2 2.218166 1_555
Li8 O8 2.231402 1_455
Li9 O13 2.015097 1_555
Li9 O7 2.080705 1_555
Li9 O23 2.126873 1_655
Li9 O17 2.140067 1_555
Li9 O3 2.218541 1_555
Li9 O9 2.231268 1_555
Li10 O9 2.017553 1_555
Li10 O6 2.083207 1_556
Li10 O17 2.129048 1_555
Li10 O23 2.141635 1_555
Li10 O2 2.214574 1_556
Li10 O13 2.232084 1_455
Li11 O8 2.017544 1_555
Li11 O7 2.083539 1_555
Li11 O16 2.128121 1_655
Li11 O22 2.141879 1_555
Li11 O3 2.214140 1_555
Li11 O12 2.231993 1_555
Li12 O15 2.016599 1_456
Li12 O4 2.079850 1_565
Li12 O19 2.126647 1_465
Li12 O20 2.142521 1_566
Li12 O1 2.218542 1_455
Li12 O10 2.232294 1_556
Li13 O14 2.016605 1_555
Li13 O5 2.079183 1_565
Li13 O18 2.127617 1_565
Li13 O21 2.142321 1_565
Li13 O0 2.218967 1_555
Li13 O11 2.233111 1_555
O0 Si0 1.853553 1_555
O0 Si3 1.856498 1_555
O1 Si1 1.853537 1_555
O1 Si2 1.856457 1_556
O2 Si1 1.852757 1_554
O2 Si2 1.857452 1_555
O3 Si0 1.852700 1_655
O3 Si3 1.857305 1_655
O4 V4 2.026329 1_555
O4 V5 2.028607 1_555
O4 V0 2.073689 1_455
O5 V1 2.027302 1_555
O5 V2 2.029424 1_555
O5 V3 2.073009 1_555
O6 V1 2.025361 1_455
O6 V2 2.027454 1_455
O6 V3 2.073430 1_555
O7 V4 2.025096 1_555
O7 V5 2.026700 1_555
O7 V0 2.073555 1_555
O8 Si2 1.853085 1_555
O8 Si0 1.853846 1_655
O9 Si3 1.853242 1_555
O9 Si1 1.853750 1_555
O10 Si0 1.852698 1_555
O10 Si2 1.853827 1_555
O11 Si1 1.852872 1_555
O11 Si3 1.853075 1_655
O12 Si2 1.851981 1_555
O12 Si0 1.854002 1_555
O13 Si3 1.852288 1_655
O13 Si1 1.853779 1_555
O14 Si1 1.852324 1_555
O14 Si3 1.853843 1_555
O15 Si0 1.852211 1_655
O15 Si2 1.853881 1_555
O16 V0 2.011607 1_455
O16 V1 2.016270 1_455
O16 V5 2.050327 1_555
O17 V3 2.011955 1_556
O17 V4 2.014072 1_555
O17 V2 2.049749 1_556
O18 V3 2.011091 1_555
O18 V5 2.015191 1_555
O18 V1 2.051504 1_455
O19 V0 2.011131 1_555
O19 V2 2.015502 1_556
O19 V4 2.053014 1_555
O20 V3 2.011057 1_555
O20 V4 2.015690 1_554
O20 V2 2.048349 1_455
O21 V0 2.011122 1_555
O21 V1 2.015618 1_555
O21 V5 2.048677 1_555
O22 V3 2.010521 1_555
O22 V5 2.016556 1_555
O22 V1 2.051283 1_555
O23 V0 2.009851 1_455
O23 V2 2.017160 1_456
O23 V4 2.052121 1_555
