# generated using pymatgen
data_MgAg14(PbO3)6
_symmetry_space_group_name_H-M   'P 1'
_cell_length_a   9.09528337
_cell_length_b   9.09469636
_cell_length_c   8.89740760
_cell_angle_alpha   71.41713768
_cell_angle_beta   107.97983984
_cell_angle_gamma   109.09522788
_symmetry_Int_Tables_number   1
_chemical_formula_structural   MgAg14(PbO3)6
_chemical_formula_sum   'Mg1 Ag14 Pb6 O18'
_cell_volume   641.82717766
_cell_formula_units_Z   1
loop_
 _symmetry_equiv_pos_site_id
 _symmetry_equiv_pos_as_xyz
  1  'x, y, z'
loop_
 _atom_site_type_symbol
 _atom_site_label
 _atom_site_symmetry_multiplicity
 _atom_site_fract_x
 _atom_site_fract_y
 _atom_site_fract_z
 _atom_site_occupancy
  Mg  Mg0  1  0.57589237  0.07761263  0.73976821  1
  Ag  Ag0  1  0.86159917  0.16188455  0.65853809  1
  Ag  Ag1  1  0.15343172  0.34395033  0.83447803  1
  Ag  Ag2  1  0.67085186  0.80188102  0.83248760  1
  Ag  Ag3  1  0.49918138  0.02318122  0.43609370  1
  Ag  Ag4  1  0.06987562  0.90220543  0.92931507  1
  Ag  Ag5  1  0.25184838  0.74899210  0.73582869  1
  Ag  Ag6  1  0.41127516  0.59447291  0.58740787  1
  Ag  Ag7  1  0.59672686  0.40985322  0.42086234  1
  Ag  Ag8  1  0.75203330  0.25932940  0.25024063  1
  Ag  Ag9  1  0.92961286  0.08460370  0.07661912  1
  Ag  Ag10  1  0.00802182  0.50314210  0.49510969  1
  Ag  Ag11  1  0.84222956  0.66733944  0.16690610  1
  Ag  Ag12  1  0.17020331  0.83593984  0.32405334  1
  Ag  Ag13  1  0.50034672  0.50893069  0.02030721  1
  Pb  Pb0  1  0.44194409  0.20124028  0.89858128  1
  Pb  Pb1  1  0.83213257  0.48976692  0.83138116  1
  Pb  Pb2  1  0.17098314  0.16578733  0.49040162  1
  Pb  Pb3  1  0.83819190  0.82925127  0.49195293  1
  Pb  Pb4  1  0.16712386  0.49737075  0.17116463  1
  Pb  Pb5  1  0.50636333  0.83052165  0.16645111  1
  O  O0  1  0.77724998  0.21750893  0.83301985  1
  O  O1  1  0.56451699  0.47007790  0.82975646  1
  O  O2  1  0.90224694  0.09617618  0.46752174  1
  O  O3  1  0.17621769  0.15028987  0.76254615  1
  O  O4  1  0.85768092  0.76344514  0.76237654  1
  O  O5  1  0.49400302  0.87774950  0.89278295  1
  O  O6  1  0.10912578  0.52776578  0.89930576  1
  O  O7  1  0.43418841  0.17599928  0.54650617  1
  O  O8  1  0.82410472  0.56184102  0.55272179  1
  O  O9  1  0.51779507  0.08183104  0.16422861  1
  O  O10  1  0.19160912  0.43664470  0.44436059  1
  O  O11  1  0.90187835  0.48295904  0.11101862  1
  O  O12  1  0.57159308  0.80722958  0.43823631  1
  O  O13  1  0.13998473  0.23682474  0.22344274  1
  O  O14  1  0.77330707  0.84829143  0.21874916  1
  O  O15  1  0.43682846  0.56056736  0.20253466  1
  O  O16  1  0.10918096  0.89699319  0.50805949  1
  O  O17  1  0.23518573  0.76826852  0.14658597  1
loop_
_geom_bond_atom_site_label_1
_geom_bond_atom_site_label_2
_geom_bond_distance
_geom_bond_site_symmetry_2
Mg0 O7 1.955568 1_555
Mg0 O0 1.967586 1_555
Mg0 O5 1.968565 1_545
Mg0 Pb0 2.777889 1_555
Ag0 O2 2.135898 1_555
Ag0 O0 2.178141 1_555
Ag0 O3 2.748878 1_655
Ag1 O6 2.118646 1_555
Ag1 O3 2.143322 1_555
Ag2 O4 2.140294 1_555
Ag2 O5 2.201354 1_555
Ag3 O7 2.238842 1_555
Ag3 O12 2.259685 1_545
Ag3 O9 2.352791 1_555
Ag4 O4 2.314074 1_455
Ag4 O17 2.320466 1_556
Ag4 O3 2.356334 1_565
Ag5 O16 2.320176 1_555
Ag5 O6 2.332474 1_555
Ag5 O5 2.372395 1_555
Ag6 O12 2.311656 1_555
Ag6 O10 2.321664 1_555
Ag6 O1 2.343829 1_555
Ag7 O8 2.286781 1_555
Ag7 O7 2.325155 1_555
Ag7 O15 2.372862 1_555
Ag8 O11 2.269655 1_555
Ag8 O9 2.293711 1_555
Ag8 O2 2.381854 1_555
Ag9 O13 2.271693 1_655
Ag9 O14 2.370206 1_545
Ag9 O0 2.377179 1_554
Ag10 O8 2.152672 1_455
Ag10 O10 2.158246 1_555
Ag11 O11 2.155633 1_555
Ag11 O14 2.156708 1_555
Ag12 O16 2.153766 1_555
Ag12 O17 2.157512 1_555
Ag13 O15 2.103368 1_555
Ag13 O1 2.113661 1_554
O0 Pb1 2.356538 1_555
O1 Pb0 2.297749 1_555
O1 Pb1 2.377305 1_555
O2 Pb3 2.257525 1_545
O2 Pb2 2.275747 1_655
O3 Pb0 2.310769 1_555
O3 Pb2 2.366627 1_555
O4 Pb3 2.251021 1_555
O4 Pb1 2.315567 1_555
O5 Pb5 2.306960 1_556
O6 Pb4 2.255432 1_556
O6 Pb1 2.335636 1_455
O7 Pb2 2.266058 1_555
O8 Pb3 2.285663 1_555
O8 Pb1 2.337925 1_555
O9 Pb5 2.247681 1_545
O9 Pb0 2.255958 1_554
O10 Pb4 2.270187 1_555
O10 Pb2 2.317995 1_555
O11 Pb4 2.272536 1_655
O11 Pb1 2.355790 1_554
O12 Pb5 2.261526 1_555
O12 Pb3 2.275072 1_555
O13 Pb2 2.205981 1_555
O13 Pb4 2.208605 1_555
O14 Pb3 2.280357 1_555
O14 Pb5 2.287184 1_555
O15 Pb5 2.266689 1_555
O15 Pb4 2.276563 1_555
O16 Pb2 2.286349 1_565
O16 Pb3 2.306438 1_455
O17 Pb4 2.289830 1_555
O17 Pb5 2.305666 1_555
