# generated using pymatgen
data_NbFeGe
_symmetry_space_group_name_H-M   'P 1'
_cell_length_a   6.56748600
_cell_length_b   7.10823700
_cell_length_c   7.42331911
_cell_angle_alpha   118.60558757
_cell_angle_beta   116.25424202
_cell_angle_gamma   90.00000000
_symmetry_Int_Tables_number   1
_chemical_formula_structural   NbFeGe
_chemical_formula_sum   'Nb6 Fe6 Ge6'
_cell_volume   262.80198507
_cell_formula_units_Z   6
loop_
 _symmetry_equiv_pos_site_id
 _symmetry_equiv_pos_as_xyz
  1  'x, y, z'
loop_
 _atom_site_type_symbol
 _atom_site_label
 _atom_site_symmetry_multiplicity
 _atom_site_fract_x
 _atom_site_fract_y
 _atom_site_fract_z
 _atom_site_occupancy
  Nb  Nb0  1  0.89733300  0.94441000  0.38881900  1
  Nb  Nb1  1  0.50851400  0.05559000  0.61118100  1
  Nb  Nb2  1  0.50633800  0.53258900  0.56517800  1
  Nb  Nb3  1  0.94116000  0.46741100  0.43482200  1
  Nb  Nb4  1  0.09120900  0.74955000  0.99910000  1
  Nb  Nb5  1  0.09210900  0.25045000  0.00090000  1
  Fe  Fe0  1  0.25193300  0.91282400  0.74988000  1
  Fe  Fe1  1  0.50205300  0.08717600  0.25012000  1
  Fe  Fe2  1  0.25193300  0.33705600  0.74988000  1
  Fe  Fe3  1  0.50205300  0.66294400  0.25012000  1
  Fe  Fe4  1  0.75050900  0.50000000  0.00000000  1
  Fe  Fe5  1  0.75050900  0.00000000  0.00000000  1
  Ge  Ge0  1  0.17242000  0.67173100  0.33473100  1
  Ge  Ge1  1  0.83768900  0.32826900  0.66526900  1
  Ge  Ge2  1  0.17242000  0.16299900  0.33473100  1
  Ge  Ge3  1  0.83768900  0.83700100  0.66526900  1
  Ge  Ge4  1  0.46821400  0.72215100  0.94430300  1
  Ge  Ge5  1  0.52391200  0.27784900  0.05569700  1
loop_
_geom_bond_atom_site_label_1
_geom_bond_atom_site_label_2
_geom_bond_distance
_geom_bond_site_symmetry_2
Fe0 Ge5 2.418422 1_566
Fe0 Ge4 2.448874 1_555
Fe0 Ge0 2.495198 1_555
Fe0 Ge3 2.500085 1_455
Fe0 Nb1 2.732205 1_565
Fe0 Nb0 2.776991 1_455
Fe0 Nb5 2.789598 1_566
Fe0 Fe5 2.841234 1_566
Fe0 Nb3 2.888967 1_455
Fe1 Ge4 2.418420 1_544
Fe1 Ge5 2.448876 1_555
Fe1 Ge1 2.495198 1_555
Fe1 Ge2 2.500085 1_555
Fe1 Nb0 2.732205 1_545
Fe1 Nb1 2.776991 1_555
Fe1 Nb4 2.789598 1_544
Fe1 Fe5 2.841234 1_555
Fe1 Nb2 2.888967 1_555
Fe2 Ge5 2.418417 1_556
Fe2 Ge4 2.448868 1_555
Fe2 Ge2 2.495197 1_555
Fe2 Ge1 2.500086 1_455
Fe2 Nb1 2.732209 1_555
Fe2 Nb0 2.776987 1_445
Fe2 Nb5 2.789598 1_556
Fe2 Fe4 2.841234 1_556
Fe2 Nb3 2.888966 1_455
Fe3 Ge4 2.418415 1_554
Fe3 Ge5 2.448870 1_555
Fe3 Ge3 2.495197 1_555
Fe3 Ge0 2.500086 1_555
Fe3 Nb0 2.732209 1_555
Fe3 Nb1 2.776987 1_565
Fe3 Nb4 2.789598 1_554
Fe3 Fe4 2.841234 1_555
Fe3 Nb2 2.888966 1_555
Fe4 Ge5 2.459411 1_555
Fe4 Ge4 2.459416 1_554
Fe4 Ge0 2.519212 1_655
Fe4 Ge1 2.519212 1_554
Fe4 Nb0 2.836664 1_555
Fe4 Nb1 2.836664 1_554
Fe4 Nb5 2.859685 1_655
Fe4 Nb4 2.859685 1_654
Fe4 Nb2 3.029957 1_554
Fe4 Nb3 3.029957 1_555
Fe5 Ge5 2.459416 1_555
Fe5 Ge4 2.459421 1_544
Fe5 Ge2 2.519212 1_655
Fe5 Ge3 2.519212 1_544
Fe5 Nb0 2.836659 1_545
Fe5 Nb1 2.836659 1_554
Fe5 Nb5 2.859685 1_655
Fe5 Nb4 2.859685 1_644
Fe5 Nb3 3.029957 1_555
Fe5 Nb2 3.029957 1_544
Ge0 Nb4 2.634776 1_554
Ge0 Nb3 2.645718 1_455
Ge0 Nb2 2.648593 1_555
Ge0 Nb0 2.660555 1_455
Ge0 Nb5 2.669163 1_555
Ge0 Nb1 2.675682 1_565
Ge1 Nb5 2.634776 1_656
Ge1 Nb2 2.645718 1_555
Ge1 Nb3 2.648593 1_555
Ge1 Nb1 2.660555 1_555
Ge1 Nb4 2.669163 1_655
Ge1 Nb0 2.675682 1_545
Ge2 Nb4 2.634771 1_544
Ge2 Nb3 2.645723 1_455
Ge2 Nb2 2.648598 1_555
Ge2 Nb0 2.660545 1_445
Ge2 Nb5 2.669168 1_555
Ge2 Nb1 2.675682 1_555
Ge3 Nb5 2.634771 1_666
Ge3 Nb2 2.645723 1_555
Ge3 Nb3 2.648598 1_555
Ge3 Nb1 2.660545 1_565
Ge3 Nb4 2.669168 1_655
Ge3 Nb0 2.675682 1_555
Ge4 Nb2 2.605979 1_555
Ge4 Nb4 2.673769 1_555
Ge4 Nb0 2.847390 1_556
Ge5 Nb3 2.605975 1_555
Ge5 Nb5 2.673775 1_555
Ge5 Nb1 2.847387 1_554
