# generated using pymatgen
data_LiMg6GaO8
_symmetry_space_group_name_H-M   'P 1'
_cell_length_a   8.51452466
_cell_length_b   4.20996913
_cell_length_c   4.20996913
_cell_angle_alpha   90.00000000
_cell_angle_beta   90.00000000
_cell_angle_gamma   90.00000000
_symmetry_Int_Tables_number   1
_chemical_formula_structural   LiMg6GaO8
_chemical_formula_sum   'Li1 Mg6 Ga1 O8'
_cell_volume   150.91007339
_cell_formula_units_Z   1
loop_
 _symmetry_equiv_pos_site_id
 _symmetry_equiv_pos_as_xyz
  1  'x, y, z'
loop_
 _atom_site_type_symbol
 _atom_site_label
 _atom_site_symmetry_multiplicity
 _atom_site_fract_x
 _atom_site_fract_y
 _atom_site_fract_z
 _atom_site_occupancy
  Li  Li0  1  0.00000000  0.00000000  0.00000000  1
  Mg  Mg0  1  0.50000000  0.00000000  0.00000000  1
  Mg  Mg1  1  0.50000000  0.50000000  0.50000000  1
  Mg  Mg2  1  0.24578550  0.00000000  0.50000000  1
  Mg  Mg3  1  0.75421450  0.00000000  0.50000000  1
  Mg  Mg4  1  0.24578550  0.50000000  -0.00000000  1
  Mg  Mg5  1  0.75421450  0.50000000  0.00000000  1
  Ga  Ga0  1  0.00000000  0.50000000  0.50000000  1
  O  O0  1  0.25702240  0.00000000  -0.00000000  1
  O  O1  1  0.74297760  -0.00000000  0.00000000  1
  O  O2  1  0.23772906  0.50000000  0.50000000  1
  O  O3  1  0.76227094  0.50000000  0.50000000  1
  O  O4  1  0.00000000  0.00000000  0.50000000  1
  O  O5  1  0.50000000  0.00000000  0.50000000  1
  O  O6  1  0.00000000  0.50000000  0.00000000  1
  O  O7  1  0.50000000  0.50000000  0.00000000  1
loop_
_geom_bond_atom_site_label_1
_geom_bond_atom_site_label_2
_geom_bond_distance
_geom_bond_site_symmetry_2
Li0 O6 2.104985 1_555
Li0 O4 2.104985 1_555
Li0 O4 2.104985 1_554
Li0 O6 2.104985 1_545
Li0 O0 2.188424 1_555
Li0 O1 2.188424 1_455
Mg0 O0 2.068839 1_555
Mg0 O1 2.068839 1_555
Mg0 O7 2.104985 1_555
Mg0 O5 2.104985 1_554
Mg0 O5 2.104985 1_555
Mg0 O7 2.104985 1_545
Mg1 O7 2.104985 1_555
Mg1 O7 2.104985 1_556
Mg1 O5 2.104985 1_555
Mg1 O5 2.104985 1_565
Mg1 O2 2.233112 1_555
Mg1 O3 2.233112 1_555
Mg2 O4 2.092747 1_555
Mg2 O2 2.106102 1_545
Mg2 O2 2.106102 1_555
Mg2 O0 2.107158 1_555
Mg2 O0 2.107158 1_556
Mg2 O5 2.164516 1_555
Mg3 O4 2.092747 1_655
Mg3 O3 2.106102 1_555
Mg3 O3 2.106102 1_545
Mg3 O1 2.107158 1_555
Mg3 O1 2.107158 1_556
Mg3 O5 2.164516 1_555
Mg4 O6 2.092747 1_555
Mg4 O2 2.106102 1_554
Mg4 O2 2.106102 1_555
Mg4 O0 2.107158 1_555
Mg4 O0 2.107158 1_565
Mg4 O7 2.164516 1_555
Mg5 O6 2.092747 1_655
Mg5 O3 2.106102 1_555
Mg5 O3 2.106102 1_554
Mg5 O1 2.107158 1_555
Mg5 O1 2.107158 1_565
Mg5 O7 2.164516 1_555
Ga0 O3 2.024150 1_455
Ga0 O2 2.024150 1_555
Ga0 O6 2.104985 1_555
Ga0 O4 2.104985 1_555
Ga0 O4 2.104985 1_565
Ga0 O6 2.104985 1_556
