# generated using pymatgen
data_CsLiMg14O15
_symmetry_space_group_name_H-M   'P 1'
_cell_length_a   8.53285826
_cell_length_b   8.80887595
_cell_length_c   4.38535560
_cell_angle_alpha   90.00000000
_cell_angle_beta   90.00000000
_cell_angle_gamma   90.00000000
_symmetry_Int_Tables_number   1
_chemical_formula_structural   CsLiMg14O15
_chemical_formula_sum   'Cs1 Li1 Mg14 O15'
_cell_volume   329.62477090
_cell_formula_units_Z   1
loop_
 _symmetry_equiv_pos_site_id
 _symmetry_equiv_pos_as_xyz
  1  'x, y, z'
loop_
 _atom_site_type_symbol
 _atom_site_label
 _atom_site_symmetry_multiplicity
 _atom_site_fract_x
 _atom_site_fract_y
 _atom_site_fract_z
 _atom_site_occupancy
  Cs  Cs0  1  0.09808902  0.50000000  0.00000000  1
  Li  Li0  1  0.98117676  0.00000000  0.00000000  1
  Mg  Mg0  1  0.50207254  0.00000000  0.00000000  1
  Mg  Mg1  1  0.52271681  0.50000000  0.00000000  1
  Mg  Mg2  1  0.99119610  0.23390783  0.50000000  1
  Mg  Mg3  1  0.99119610  0.76609217  0.50000000  1
  Mg  Mg4  1  0.49794700  0.24818239  0.50000000  1
  Mg  Mg5  1  0.49794700  0.75181761  0.50000000  1
  Mg  Mg6  1  0.24078122  0.00000000  0.50000000  1
  Mg  Mg7  1  0.26473399  0.50000000  0.50000000  1
  Mg  Mg8  1  0.75126280  0.00000000  0.50000000  1
  Mg  Mg9  1  0.75736417  0.50000000  0.50000000  1
  Mg  Mg10  1  0.24009140  0.21452244  0.00000000  1
  Mg  Mg11  1  0.24009140  0.78547756  0.00000000  1
  Mg  Mg12  1  0.75934348  0.24860899  -0.00000000  1
  Mg  Mg13  1  0.75934348  0.75139101  0.00000000  1
  O  O0  1  0.26635297  0.00000000  0.00000000  1
  O  O1  1  0.73273417  0.00000000  0.00000000  1
  O  O2  1  0.74680208  0.50000000  0.00000000  1
  O  O3  1  0.24546645  0.25898596  0.50000000  1
  O  O4  1  0.24546645  0.74101404  0.50000000  1
  O  O5  1  0.74282147  0.24856416  0.50000000  1
  O  O6  1  0.74282147  0.75143584  0.50000000  1
  O  O7  1  -0.00011142  0.00000000  0.50000000  1
  O  O8  1  0.98762820  0.50000000  0.50000000  1
  O  O9  1  0.49204670  0.00000000  0.50000000  1
  O  O10  1  0.49342380  0.50000000  0.50000000  1
  O  O11  1  0.99791253  0.22576567  -0.00000000  1
  O  O12  1  0.99791253  0.77423433  -0.00000000  1
  O  O13  1  0.48168468  0.26475537  -0.00000000  1
  O  O14  1  0.48168468  0.73524463  -0.00000000  1
loop_
_geom_bond_atom_site_label_1
_geom_bond_atom_site_label_2
_geom_bond_distance
_geom_bond_site_symmetry_2
Cs0 O8 2.386678 1_454
Cs0 O8 2.386678 1_455
Cs0 O12 2.562471 1_455
Cs0 O11 2.562471 1_455
Li0 O11 1.993862 1_555
Li0 O12 1.993862 1_545
Li0 O1 2.119925 1_555
Li0 O7 2.198483 1_654
Li0 O7 2.198483 1_655
Li0 O0 2.433368 1_655
Mg0 O1 1.968203 1_555
Mg0 O0 2.011362 1_555
Mg0 O9 2.194346 1_554
Mg0 O9 2.194346 1_555
Mg0 O14 2.338677 1_545
Mg0 O13 2.338677 1_555
Mg1 O2 1.912088 1_555
Mg1 O13 2.101611 1_555
Mg1 O14 2.101611 1_555
Mg1 O10 2.206878 1_555
Mg1 O10 2.206878 1_554
Mg2 O7 2.061800 1_655
Mg2 O5 2.123274 1_555
Mg2 O3 2.180870 1_655
Mg2 O11 2.194599 1_556
Mg2 O11 2.194599 1_555
Mg2 O8 2.344171 1_555
Mg3 O7 2.061800 1_665
Mg3 O6 2.123274 1_555
Mg3 O4 2.180870 1_655
Mg3 O12 2.194599 1_555
Mg3 O12 2.194599 1_556
Mg3 O8 2.344171 1_555
Mg4 O5 2.089482 1_555
Mg4 O3 2.156482 1_555
Mg4 O9 2.186788 1_555
Mg4 O13 2.201909 1_555
Mg4 O13 2.201909 1_556
Mg4 O10 2.218566 1_555
Mg5 O6 2.089482 1_555
Mg5 O4 2.156482 1_555
Mg5 O9 2.186788 1_565
Mg5 O14 2.201909 1_555
Mg5 O14 2.201909 1_556
Mg5 O10 2.218566 1_555
Mg6 O7 2.055503 1_555
Mg6 O9 2.144013 1_555
Mg6 O0 2.203508 1_555
Mg6 O0 2.203508 1_556
Mg6 O4 2.281725 1_545
Mg6 O3 2.281725 1_555
Mg7 O10 1.951378 1_555
Mg7 O3 2.129419 1_555
Mg7 O4 2.129419 1_555
Mg7 O8 2.364504 1_455
Mg8 O7 2.121489 1_655
Mg8 O5 2.190755 1_555
Mg8 O6 2.190755 1_545
Mg8 O1 2.198370 1_556
Mg8 O1 2.198370 1_555
Mg8 O9 2.211854 1_555
Mg9 O8 1.964810 1_555
Mg9 O2 2.194529 1_555
Mg9 O2 2.194529 1_556
Mg9 O6 2.218341 1_555
Mg9 O5 2.218341 1_555
Mg9 O10 2.252166 1_555
Mg10 O0 1.902942 1_555
Mg10 O11 2.068850 1_455
Mg10 O13 2.108437 1_555
Mg10 O3 2.227857 1_555
Mg10 O3 2.227857 1_554
Mg11 O0 1.902942 1_565
Mg11 O12 2.068850 1_455
Mg11 O14 2.108437 1_555
Mg11 O4 2.227857 1_554
Mg11 O4 2.227857 1_555
Mg12 O11 2.045597 1_555
Mg12 O5 2.197205 1_554
Mg12 O5 2.197205 1_555
Mg12 O1 2.201705 1_555
Mg12 O2 2.217056 1_555
Mg12 O13 2.373489 1_555
Mg13 O12 2.045597 1_555
Mg13 O6 2.197205 1_555
Mg13 O6 2.197205 1_554
Mg13 O1 2.201705 1_565
Mg13 O2 2.217056 1_555
Mg13 O14 2.373489 1_555
