# generated using pymatgen
data_PmMg3
_symmetry_space_group_name_H-M   'P 1'
_cell_length_a   6.78552476
_cell_length_b   6.78552476
_cell_length_c   5.17907526
_cell_angle_alpha   90.00000000
_cell_angle_beta   90.00000000
_cell_angle_gamma   120.00004267
_symmetry_Int_Tables_number   1
_chemical_formula_structural   PmMg3
_chemical_formula_sum   'Pm2 Mg6'
_cell_volume   206.51402231
_cell_formula_units_Z   2
loop_
 _symmetry_equiv_pos_site_id
 _symmetry_equiv_pos_as_xyz
  1  'x, y, z'
loop_
 _atom_site_type_symbol
 _atom_site_label
 _atom_site_symmetry_multiplicity
 _atom_site_fract_x
 _atom_site_fract_y
 _atom_site_fract_z
 _atom_site_occupancy
  Pm  Pm0  1  0.66666700  0.33333300  0.25000000  1
  Pm  Pm1  1  0.33333300  0.66666700  0.75000000  1
  Mg  Mg0  1  0.16109380  0.32218760  0.25000000  1
  Mg  Mg1  1  0.16109380  0.83890620  0.25000000  1
  Mg  Mg2  1  0.67781240  0.83890620  0.25000000  1
  Mg  Mg3  1  0.32218760  0.16109380  0.75000000  1
  Mg  Mg4  1  0.83890620  0.16109380  0.75000000  1
  Mg  Mg5  1  0.83890620  0.67781240  0.75000000  1
loop_
_geom_bond_atom_site_label_1
_geom_bond_atom_site_label_2
_geom_bond_distance
_geom_bond_site_symmetry_2
Mg0 Mg4 3.207857 1_455
Mg0 Mg4 3.207857 1_454
Mg0 Mg3 3.207857 1_555
Mg0 Mg3 3.207857 1_554
Mg0 Mg2 3.279316 1_445
Mg0 Mg1 3.279318 1_545
Mg0 Pm1 3.286874 1_554
Mg0 Pm1 3.286874 1_555
Mg0 Pm0 3.393391 1_455
Mg0 Pm0 3.393398 1_555
Mg0 Mg2 3.506205 1_555
Mg0 Mg1 3.506207 1_555
Mg1 Mg3 3.207857 1_564
Mg1 Mg5 3.207857 1_455
Mg1 Mg5 3.207857 1_454
Mg1 Mg3 3.207857 1_565
Mg1 Mg2 3.279318 1_455
Mg1 Pm1 3.286871 1_554
Mg1 Pm1 3.286871 1_555
Mg1 Pm0 3.393392 1_455
Mg1 Pm0 3.393392 1_565
Mg1 Mg2 3.506207 1_555
Mg2 Mg4 3.207857 1_565
Mg2 Mg4 3.207857 1_564
Mg2 Mg5 3.207857 1_555
Mg2 Mg5 3.207857 1_554
Mg2 Pm1 3.286874 1_555
Mg2 Pm1 3.286874 1_554
Mg2 Pm0 3.393391 1_565
Mg2 Pm0 3.393398 1_555
Mg3 Mg5 3.279316 1_445
Mg3 Mg4 3.279318 1_455
Mg3 Pm0 3.286874 1_555
Mg3 Pm0 3.286874 1_556
Mg3 Pm1 3.393391 1_545
Mg3 Pm1 3.393398 1_555
Mg3 Mg5 3.506205 1_555
Mg3 Mg4 3.506207 1_555
Mg4 Mg5 3.279318 1_545
Mg4 Pm0 3.286871 1_555
Mg4 Pm0 3.286871 1_556
Mg4 Pm1 3.393392 1_545
Mg4 Pm1 3.393392 1_655
Mg4 Mg5 3.506207 1_555
Mg5 Pm0 3.286874 1_555
Mg5 Pm0 3.286874 1_556
Mg5 Pm1 3.393391 1_655
Mg5 Pm1 3.393398 1_555
