# generated using pymatgen
data_Cs2CoCu3F10
_symmetry_space_group_name_H-M   'P 1'
_cell_length_a   6.95186548
_cell_length_b   6.83803409
_cell_length_c   7.31265166
_cell_angle_alpha   62.14029906
_cell_angle_beta   61.69494799
_cell_angle_gamma   65.48783575
_symmetry_Int_Tables_number   1
_chemical_formula_structural   Cs2CoCu3F10
_chemical_formula_sum   'Cs2 Co1 Cu3 F10'
_cell_volume   262.10840744
_cell_formula_units_Z   1
loop_
 _symmetry_equiv_pos_site_id
 _symmetry_equiv_pos_as_xyz
  1  'x, y, z'
loop_
 _atom_site_type_symbol
 _atom_site_label
 _atom_site_symmetry_multiplicity
 _atom_site_fract_x
 _atom_site_fract_y
 _atom_site_fract_z
 _atom_site_occupancy
  Cs  Cs0  1  0.62081600  0.61450200  0.62679300  1
  Cs  Cs1  1  0.37918400  0.38549800  0.37320700  1
  Co  Co0  1  0.00000000  0.00000000  0.50000000  1
  Cu  Cu0  1  0.00000000  0.50000000  0.00000000  1
  Cu  Cu1  1  0.50000000  0.00000000  0.00000000  1
  Cu  Cu2  1  0.00000000  0.00000000  0.00000000  1
  F  F0  1  0.26373700  0.25719300  0.91920800  1
  F  F1  1  0.73626300  0.74280700  0.08079200  1
  F  F2  1  0.07314900  0.08660500  0.68661300  1
  F  F3  1  0.92685100  0.91339500  0.31338700  1
  F  F4  1  0.05203700  0.66312500  0.69146300  1
  F  F5  1  0.33822500  0.95066200  0.30660700  1
  F  F6  1  0.94796300  0.33687500  0.30853700  1
  F  F7  1  0.66177500  0.04933800  0.69339300  1
  F  F8  1  0.78991800  0.28818200  0.99696500  1
  F  F9  1  0.21008200  0.71181800  0.00303500  1
loop_
_geom_bond_atom_site_label_1
_geom_bond_atom_site_label_2
_geom_bond_distance
_geom_bond_site_symmetry_2
Cs0 F3 2.926149 1_555
Cs0 F9 2.974914 1_556
Cs0 F8 2.980679 1_555
Cs0 F6 3.117683 1_555
Cs0 F5 3.195351 1_555
Cs1 F2 2.926149 1_555
Cs1 F8 2.974914 1_554
Cs1 F9 2.980679 1_555
Cs1 F4 3.117683 1_555
Cs1 F7 3.195351 1_555
Co0 F3 2.033427 1_445
Co0 F2 2.033427 1_555
Co0 F6 2.042563 1_455
Co0 F4 2.042563 1_545
Co0 F7 2.068013 1_455
Co0 F5 2.068013 1_545
Cu0 F4 1.916844 1_554
Cu0 F6 1.916844 1_455
Cu0 F1 1.957269 1_455
Cu0 F0 1.957269 1_554
Cu0 F9 2.459148 1_555
Cu0 F8 2.459148 1_454
Cu1 F7 1.903228 1_554
Cu1 F5 1.903228 1_545
Cu1 F0 1.921460 1_554
Cu1 F1 1.921460 1_545
Cu2 F8 1.902233 1_454
Cu2 F9 1.902233 1_545
Cu2 F2 1.933249 1_554
Cu2 F3 1.933249 1_445
