# generated using pymatgen
data_LiMnF3
_symmetry_space_group_name_H-M   'P 1'
_cell_length_a   5.93759739
_cell_length_b   5.93759739
_cell_length_c   11.67697000
_cell_angle_alpha   90.00000000
_cell_angle_beta   90.00000000
_cell_angle_gamma   119.99999319
_symmetry_Int_Tables_number   1
_chemical_formula_structural   LiMnF3
_chemical_formula_sum   'Li6 Mn6 F18'
_cell_volume   356.51870307
_cell_formula_units_Z   6
loop_
 _symmetry_equiv_pos_site_id
 _symmetry_equiv_pos_as_xyz
  1  'x, y, z'
loop_
 _atom_site_type_symbol
 _atom_site_label
 _atom_site_symmetry_multiplicity
 _atom_site_fract_x
 _atom_site_fract_y
 _atom_site_fract_z
 _atom_site_occupancy
  Li  Li0  1  0.00041100  0.32570500  0.25328600  1
  Li  Li1  1  0.32529400  0.99958900  0.25328600  1
  Li  Li2  1  0.32868700  0.33037200  0.75508000  1
  Li  Li3  1  0.00168400  0.67131300  0.75508000  1
  Li  Li4  1  0.67429500  0.67470600  0.25328600  1
  Li  Li5  1  0.66962800  0.99831600  0.75508000  1
  Mn  Mn0  1  0.66666700  0.33333300  0.97212500  1
  Mn  Mn1  1  0.66666700  0.33333300  0.47083700  1
  Mn  Mn2  1  0.00000000  0.00000000  0.50594300  1
  Mn  Mn3  1  0.33333300  0.66666700  0.03690000  1
  Mn  Mn4  1  0.33333300  0.66666700  0.53781100  1
  Mn  Mn5  1  0.00000000  0.00000000  0.00020000  1
  F  F0  1  0.69012800  0.04722100  0.58227200  1
  F  F1  1  0.64449200  0.95923700  0.92695100  1
  F  F2  1  0.95769000  0.31014400  0.08047600  1
  F  F3  1  0.04336300  0.35617700  0.42805400  1
  F  F4  1  0.35245400  0.04231000  0.08047600  1
  F  F5  1  0.31281300  0.95663700  0.42805400  1
  F  F6  1  0.66666700  0.33333300  0.28791800  1
  F  F7  1  0.66666700  0.33333300  0.78879800  1
  F  F8  1  0.00000000  0.00000000  0.75766600  1
  F  F9  1  0.00000000  0.00000000  0.25520400  1
  F  F10  1  0.95277900  0.64290700  0.58227200  1
  F  F11  1  0.35709300  0.30987200  0.58227200  1
  F  F12  1  0.04076300  0.68525500  0.92695100  1
  F  F13  1  0.31474500  0.35550800  0.92695100  1
  F  F14  1  0.68985600  0.64754600  0.08047600  1
  F  F15  1  0.64382300  0.68718700  0.42805400  1
  F  F16  1  0.33333300  0.66666700  0.21978500  1
  F  F17  1  0.33333300  0.66666700  0.72084900  1
loop_
_geom_bond_atom_site_label_1
_geom_bond_atom_site_label_2
_geom_bond_distance
_geom_bond_site_symmetry_2
F0 Li5 2.033619 1_545
F0 Mn2 2.184970 1_655
F0 Mn1 2.198913 1_555
F0 Mn4 2.253079 1_545
F1 Li5 2.017241 1_555
F1 Mn5 2.176007 1_666
F1 Mn3 2.206803 1_556
F1 Mn0 2.221935 1_565
F2 Li0 2.030111 1_655
F2 Mn5 2.189881 1_655
F2 Mn0 2.200805 1_554
F2 Mn3 2.234581 1_655
F3 Li0 2.053372 1_555
F3 Mn2 2.195795 1_555
F3 Mn4 2.198074 1_555
F3 Mn1 2.228741 1_455
F4 Li1 2.030111 1_545
F4 Mn5 2.189881 1_555
F4 Mn0 2.200808 1_554
F4 Mn3 2.234578 1_545
F5 Li1 2.053372 1_555
F5 Mn2 2.195789 1_565
F5 Mn4 2.198074 1_555
F5 Mn1 2.228746 1_565
F6 Li0 2.045050 1_655
F6 Li1 2.045053 1_545
F6 Li4 2.045055 1_555
F6 Mn1 2.135940 1_555
F7 Li5 2.036468 1_545
F7 Li3 2.036474 1_655
F7 Li2 2.036479 1_555
F7 Mn0 2.140704 1_555
F8 Li3 1.956863 1_545
F8 Li2 1.956866 1_555
F8 Li5 1.956869 1_445
F9 Li1 1.932816 1_545
F9 Li0 1.932816 1_555
F9 Li4 1.932816 1_445
F10 Li3 2.033619 1_655
F10 Mn2 2.184970 1_665
F10 Mn1 2.198916 1_555
F10 Mn4 2.253076 1_655
F11 Li2 2.033619 1_555
F11 Mn2 2.184971 1_555
F11 Mn1 2.198918 1_555
F11 Mn4 2.253082 1_555
F12 Li3 2.017241 1_555
F12 Mn5 2.176007 1_566
F12 Mn3 2.206800 1_556
F12 Mn0 2.221938 1_455
F13 Li2 2.017241 1_555
F13 Mn5 2.176007 1_556
F13 Mn3 2.206805 1_556
F13 Mn0 2.221941 1_555
F14 Li4 2.030111 1_555
F14 Mn5 2.189881 1_665
F14 Mn0 2.200810 1_554
F14 Mn3 2.234583 1_555
F15 Li4 2.053373 1_555
F15 Mn2 2.195793 1_665
F15 Mn4 2.198074 1_555
F15 Mn1 2.228752 1_555
F16 Li1 2.038929 1_555
F16 Li0 2.038932 1_555
F16 Li4 2.038935 1_555
F16 Mn3 2.135543 1_555
F17 Li3 2.023017 1_555
F17 Li2 2.023017 1_555
F17 Li5 2.023017 1_555
F17 Mn4 2.137329 1_555
