# generated using pymatgen
data_NaAlAsO4F
_symmetry_space_group_name_H-M   'P 1'
_cell_length_a   5.45665292
_cell_length_b   5.45665292
_cell_length_c   7.14089443
_cell_angle_alpha   74.52590845
_cell_angle_beta   74.52590845
_cell_angle_gamma   104.34096123
_symmetry_Int_Tables_number   1
_chemical_formula_structural   NaAlAsO4F
_chemical_formula_sum   'Na2 Al2 As2 O8 F2'
_cell_volume   185.48245782
_cell_formula_units_Z   2
loop_
 _symmetry_equiv_pos_site_id
 _symmetry_equiv_pos_as_xyz
  1  'x, y, z'
loop_
 _atom_site_type_symbol
 _atom_site_label
 _atom_site_symmetry_multiplicity
 _atom_site_fract_x
 _atom_site_fract_y
 _atom_site_fract_z
 _atom_site_occupancy
  Na  Na0  1  0.32857800  0.67142200  0.75000000  1
  Na  Na1  1  0.67142200  0.32857800  0.25000000  1
  Al  Al0  1  0.00000000  0.00000000  0.00000000  1
  Al  Al1  1  0.00000000  0.00000000  0.50000000  1
  As  As0  1  0.31351600  0.68648400  0.25000000  1
  As  As1  1  0.68648400  0.31351600  0.75000000  1
  O  O0  1  0.30364100  0.89931400  0.39007100  1
  O  O1  1  0.10068600  0.69635900  0.10992900  1
  O  O2  1  0.69635900  0.10068600  0.60992900  1
  O  O3  1  0.89931400  0.30364100  0.89007100  1
  O  O4  1  0.76316500  0.63733900  0.58579100  1
  O  O5  1  0.23683500  0.36266100  0.41420900  1
  O  O6  1  0.36266100  0.23683500  0.91420900  1
  O  O7  1  0.63733900  0.76316500  0.08579100  1
  F  F0  1  0.06516200  0.93483800  0.75000000  1
  F  F1  1  0.93483800  0.06516200  0.25000000  1
loop_
_geom_bond_atom_site_label_1
_geom_bond_atom_site_label_2
_geom_bond_distance
_geom_bond_site_symmetry_2
Na0 O3 2.421681 1_455
Na0 O2 2.421681 1_565
Na0 O6 2.425722 1_555
Na0 O4 2.425722 1_555
Na0 O1 2.595352 1_556
Na0 O0 2.595352 1_555
Na1 O0 2.421681 1_545
Na1 O1 2.421681 1_655
Na1 O5 2.425722 1_555
Na1 O7 2.425722 1_555
Na1 O2 2.595352 1_555
Na1 O3 2.595352 1_554
Al0 F1 1.871499 1_455
Al0 F0 1.871499 1_544
Al0 O6 1.904011 1_554
Al0 O7 1.904011 1_445
Al0 O1 1.910580 1_545
Al0 O3 1.910580 1_454
Al1 F0 1.871499 1_545
Al1 F1 1.871499 1_455
Al1 O5 1.904011 1_555
Al1 O4 1.904011 1_445
Al1 O2 1.910580 1_455
Al1 O0 1.910580 1_545
As0 O5 1.714245 1_555
As0 O7 1.714245 1_555
As0 O1 1.724575 1_555
As0 O0 1.724575 1_555
As1 O6 1.714245 1_555
As1 O4 1.714245 1_555
As1 O3 1.724575 1_555
As1 O2 1.724575 1_555
F0 Na0 2.270582 1_555
F1 Na1 2.270582 1_555
