# generated using pymatgen
data_Ho2ScNbO7
_symmetry_space_group_name_H-M   'P 1'
_cell_length_a   7.35502639
_cell_length_b   7.35502639
_cell_length_c   7.35502639
_cell_angle_alpha   120.76160533
_cell_angle_beta   119.37150453
_cell_angle_gamma   89.88898631
_symmetry_Int_Tables_number   1
_chemical_formula_structural   Ho2ScNbO7
_chemical_formula_sum   'Ho4 Sc2 Nb2 O14'
_cell_volume   281.00860874
_cell_formula_units_Z   2
loop_
 _symmetry_equiv_pos_site_id
 _symmetry_equiv_pos_as_xyz
  1  'x, y, z'
loop_
 _atom_site_type_symbol
 _atom_site_label
 _atom_site_symmetry_multiplicity
 _atom_site_fract_x
 _atom_site_fract_y
 _atom_site_fract_z
 _atom_site_occupancy
  Ho  Ho0  1  0.50000000  0.50000000  0.50000000  1
  Ho  Ho1  1  0.50000000  0.00000000  0.00000000  1
  Ho  Ho2  1  0.50000000  0.50000000  0.00000000  1
  Ho  Ho3  1  0.00000000  0.50000000  0.50000000  1
  Sc  Sc0  1  0.00000000  0.00000000  0.50000000  1
  Sc  Sc1  1  0.00000000  0.50000000  0.00000000  1
  Nb  Nb0  1  0.00000000  0.00000000  0.00000000  1
  Nb  Nb1  1  0.50000000  0.00000000  0.50000000  1
  O  O0  1  0.34475500  0.07901100  0.67486200  1
  O  O1  1  0.90414900  0.07901100  0.23425500  1
  O  O2  1  0.89832500  0.64832500  0.25000000  1
  O  O3  1  0.90414900  0.66989300  0.82513800  1
  O  O4  1  0.34475500  0.66989300  0.26574500  1
  O  O5  1  0.32631700  0.07631700  0.25000000  1
  O  O6  1  0.65524500  0.92098900  0.32513800  1
  O  O7  1  0.09585100  0.92098900  0.76574500  1
  O  O8  1  0.10167500  0.35167500  0.75000000  1
  O  O9  1  0.09585100  0.33010700  0.17486200  1
  O  O10  1  0.65524500  0.33010700  0.73425500  1
  O  O11  1  0.67368300  0.92368300  0.75000000  1
  O  O12  1  0.62131700  0.37131700  0.25000000  1
  O  O13  1  0.37868300  0.62868300  0.75000000  1
loop_
_geom_bond_atom_site_label_1
_geom_bond_atom_site_label_2
_geom_bond_distance
_geom_bond_site_symmetry_2
Ho0 O12 2.213353 1_555
Ho0 O13 2.213353 1_555
Ho0 O4 2.469965 1_555
Ho0 O10 2.469965 1_555
Ho0 O3 2.469970 1_555
Ho0 O9 2.469970 1_555
Ho0 O5 2.563890 1_555
Ho0 O11 2.563890 1_555
Ho1 O13 2.213353 1_544
Ho1 O12 2.213353 1_555
Ho1 O0 2.469970 1_554
Ho1 O6 2.469970 1_545
Ho1 O1 2.469970 1_555
Ho1 O7 2.469970 1_544
Ho1 O5 2.563890 1_555
Ho1 O11 2.563890 1_544
Ho2 O12 2.289222 1_555
Ho2 O13 2.289222 1_554
Ho2 O8 2.414612 1_554
Ho2 O2 2.414612 1_555
Ho2 O6 2.524049 1_555
Ho2 O0 2.524049 1_554
Ho2 O10 2.524055 1_554
Ho2 O4 2.524055 1_555
Ho3 O13 2.289222 1_555
Ho3 O12 2.289222 1_455
Ho3 O8 2.414612 1_555
Ho3 O2 2.414612 1_455
Ho3 O3 2.524049 1_455
Ho3 O9 2.524049 1_555
Ho3 O7 2.524049 1_555
Ho3 O1 2.524049 1_455
Nb0 O7 1.992230 1_544
Nb0 O1 1.992230 1_455
Nb0 O9 1.992236 1_555
Nb0 O3 1.992236 1_444
Nb0 O11 2.019117 1_444
Nb0 O5 2.019117 1_555
Nb1 O6 1.992236 1_545
Nb1 O0 1.992236 1_555
Nb1 O10 1.992237 1_555
Nb1 O4 1.992237 1_545
Nb1 O11 2.019117 1_545
Nb1 O5 2.019117 1_555
O0 Sc0 2.112731 1_555
O1 Sc0 2.112738 1_655
O2 Sc0 2.103361 1_665
O2 Sc1 2.103361 1_655
O3 Sc1 2.112731 1_656
O4 Sc1 2.112732 1_555
O6 Sc0 2.112731 1_665
O7 Sc0 2.112738 1_565
O8 Sc1 2.103361 1_556
O8 Sc0 2.103361 1_555
O9 Sc1 2.112731 1_555
O10 Sc1 2.112732 1_656
