# generated using pymatgen
data_V3Pb5O12
_symmetry_space_group_name_H-M   'P 1'
_cell_length_a   10.34226952
_cell_length_b   10.34226952
_cell_length_c   7.47625100
_cell_angle_alpha   90.00000000
_cell_angle_beta   90.00000000
_cell_angle_gamma   119.99999694
_symmetry_Int_Tables_number   1
_chemical_formula_structural   V3Pb5O12
_chemical_formula_sum   'V6 Pb10 O24'
_cell_volume   692.54216668
_cell_formula_units_Z   2
loop_
 _symmetry_equiv_pos_site_id
 _symmetry_equiv_pos_as_xyz
  1  'x, y, z'
loop_
 _atom_site_type_symbol
 _atom_site_label
 _atom_site_symmetry_multiplicity
 _atom_site_fract_x
 _atom_site_fract_y
 _atom_site_fract_z
 _atom_site_occupancy
  V  V0  1  0.39580600  0.01697400  0.25000000  1
  V  V1  1  0.60419400  0.98302600  0.75000000  1
  V  V2  1  0.98302600  0.37883200  0.25000000  1
  V  V3  1  0.01697400  0.62116800  0.75000000  1
  V  V4  1  0.62116800  0.60419400  0.25000000  1
  V  V5  1  0.37883200  0.39580600  0.75000000  1
  Pb  Pb0  1  0.25682700  0.25195800  0.25000000  1
  Pb  Pb1  1  0.74317300  0.74804200  0.75000000  1
  Pb  Pb2  1  0.74804200  0.00486900  0.25000000  1
  Pb  Pb3  1  0.25195800  0.99513100  0.75000000  1
  Pb  Pb4  1  0.99513100  0.74317300  0.25000000  1
  Pb  Pb5  1  0.00486900  0.25682700  0.75000000  1
  Pb  Pb6  1  0.33333300  0.66666700  0.01005400  1
  Pb  Pb7  1  0.66666700  0.33333300  0.98994600  1
  Pb  Pb8  1  0.66666700  0.33333300  0.51005400  1
  Pb  Pb9  1  0.33333300  0.66666700  0.48994600  1
  O  O0  1  0.34286800  0.08239300  0.06404000  1
  O  O1  1  0.65713200  0.91760700  0.93596000  1
  O  O2  1  0.91760700  0.26047500  0.06404000  1
  O  O3  1  0.65713200  0.91760700  0.56404000  1
  O  O4  1  0.08239300  0.73952500  0.93596000  1
  O  O5  1  0.34286800  0.08239300  0.43596000  1
  O  O6  1  0.73952500  0.65713200  0.06404000  1
  O  O7  1  0.08239300  0.73952500  0.56404000  1
  O  O8  1  0.26047500  0.34286800  0.93596000  1
  O  O9  1  0.91760700  0.26047500  0.43596000  1
  O  O10  1  0.26047500  0.34286800  0.56404000  1
  O  O11  1  0.73952500  0.65713200  0.43596000  1
  O  O12  1  0.18178000  0.48794300  0.25000000  1
  O  O13  1  0.81822000  0.51205700  0.75000000  1
  O  O14  1  0.51205700  0.69383700  0.25000000  1
  O  O15  1  0.48794300  0.30616300  0.75000000  1
  O  O16  1  0.30616300  0.81822000  0.25000000  1
  O  O17  1  0.69383700  0.18178000  0.75000000  1
  O  O18  1  0.59559200  0.10469600  0.25000000  1
  O  O19  1  0.40440800  0.89530400  0.75000000  1
  O  O20  1  0.89530400  0.49089600  0.25000000  1
  O  O21  1  0.10469600  0.50910400  0.75000000  1
  O  O22  1  0.50910400  0.40440800  0.25000000  1
  O  O23  1  0.49089600  0.59559200  0.75000000  1
loop_
_geom_bond_atom_site_label_1
_geom_bond_atom_site_label_2
_geom_bond_distance
_geom_bond_site_symmetry_2
O0 V0 1.749524 1_555
O0 Pb3 2.522363 1_544
O0 Pb0 2.713059 1_555
O1 V1 1.749524 1_555
O1 Pb2 2.522363 1_566
O1 Pb1 2.713059 1_555
O2 V2 1.749524 1_555
O2 Pb5 2.522363 1_654
O2 Pb2 2.713059 1_555
O3 V1 1.749524 1_555
O3 Pb2 2.522363 1_565
O3 Pb1 2.713059 1_555
O4 V3 1.749524 1_555
O4 Pb4 2.522363 1_456
O4 Pb3 2.713059 1_555
O5 V0 1.749524 1_555
O5 Pb3 2.522363 1_545
O5 Pb0 2.713059 1_555
O6 V4 1.749524 1_555
O6 Pb1 2.522363 1_554
O6 Pb4 2.713059 1_555
O7 V3 1.749524 1_555
O7 Pb4 2.522363 1_455
O7 Pb3 2.713059 1_555
O8 V5 1.749524 1_555
O8 Pb0 2.522363 1_556
O8 Pb5 2.713059 1_555
O9 V2 1.749524 1_555
O9 Pb5 2.522363 1_655
O9 Pb2 2.713059 1_555
O10 V5 1.749524 1_555
O10 Pb0 2.522363 1_555
O10 Pb5 2.713059 1_555
O11 V4 1.749524 1_555
O11 Pb1 2.522363 1_555
O11 Pb4 2.713059 1_555
O12 V2 1.783018 1_455
O12 Pb6 2.488822 1_555
O12 Pb9 2.488822 1_555
O13 V3 1.783018 1_655
O13 Pb8 2.488822 1_555
O13 Pb7 2.488822 1_555
O14 V4 1.783018 1_555
O14 Pb6 2.488825 1_555
O14 Pb9 2.488825 1_555
O15 V5 1.783018 1_555
O15 Pb7 2.488825 1_555
O15 Pb8 2.488825 1_555
O16 V0 1.783018 1_565
O16 Pb9 2.488818 1_555
O16 Pb6 2.488818 1_555
O17 V1 1.783018 1_545
O17 Pb8 2.488818 1_555
O17 Pb7 2.488818 1_555
O18 V0 1.793839 1_555
O18 Pb2 2.275888 1_555
O19 V1 1.793839 1_555
O19 Pb3 2.275888 1_555
O20 V2 1.793839 1_555
O20 Pb4 2.275888 1_555
O21 V3 1.793839 1_555
O21 Pb5 2.275888 1_555
O22 V4 1.793839 1_555
O22 Pb0 2.275888 1_555
O23 V5 1.793839 1_555
O23 Pb1 2.275888 1_555
