# generated using pymatgen
data_KRbMnV2O7
_symmetry_space_group_name_H-M   'P 1'
_cell_length_a   8.70094900
_cell_length_b   8.70094900
_cell_length_c   11.78542600
_cell_angle_alpha   90.00000000
_cell_angle_beta   90.00000000
_cell_angle_gamma   90.00000000
_symmetry_Int_Tables_number   1
_chemical_formula_structural   KRbMnV2O7
_chemical_formula_sum   'K4 Rb4 Mn4 V8 O28'
_cell_volume   892.23351258
_cell_formula_units_Z   4
loop_
 _symmetry_equiv_pos_site_id
 _symmetry_equiv_pos_as_xyz
  1  'x, y, z'
loop_
 _atom_site_type_symbol
 _atom_site_label
 _atom_site_symmetry_multiplicity
 _atom_site_fract_x
 _atom_site_fract_y
 _atom_site_fract_z
 _atom_site_occupancy
  K  K0  1  0.18091100  0.81908900  0.00000000  1
  K  K1  1  0.81908900  0.18091100  0.00000000  1
  K  K2  1  0.68091100  0.68091100  0.50000000  1
  K  K3  1  0.31908900  0.31908900  0.50000000  1
  Rb  Rb0  1  0.35325600  0.35325600  0.00000000  1
  Rb  Rb1  1  0.64674400  0.64674400  0.00000000  1
  Rb  Rb2  1  0.14674400  0.85325600  0.50000000  1
  Rb  Rb3  1  0.85325600  0.14674400  0.50000000  1
  Mn  Mn0  1  0.00000000  0.50000000  0.25000000  1
  Mn  Mn1  1  0.00000000  0.50000000  0.75000000  1
  Mn  Mn2  1  0.50000000  0.00000000  0.25000000  1
  Mn  Mn3  1  0.50000000  0.00000000  0.75000000  1
  V  V0  1  0.13994400  0.13994400  0.21160200  1
  V  V1  1  0.86005600  0.86005600  0.78839800  1
  V  V2  1  0.86005600  0.86005600  0.21160200  1
  V  V3  1  0.36005600  0.63994400  0.71160200  1
  V  V4  1  0.36005600  0.63994400  0.28839800  1
  V  V5  1  0.13994400  0.13994400  0.78839800  1
  V  V6  1  0.63994400  0.36005600  0.28839800  1
  V  V7  1  0.63994400  0.36005600  0.71160200  1
  O  O0  1  0.00000000  0.00000000  0.15671100  1
  O  O1  1  0.00000000  0.00000000  0.84328900  1
  O  O2  1  0.50000000  0.50000000  0.65671100  1
  O  O3  1  0.50000000  0.50000000  0.34328900  1
  O  O4  1  0.08712700  0.31858800  0.15746700  1
  O  O5  1  0.91287300  0.68141200  0.84253300  1
  O  O6  1  0.91287300  0.68141200  0.15746700  1
  O  O7  1  0.18141200  0.58712700  0.65746700  1
  O  O8  1  0.41287300  0.81858800  0.34253300  1
  O  O9  1  0.08712700  0.31858800  0.84253300  1
  O  O10  1  0.81858800  0.41287300  0.34253300  1
  O  O11  1  0.58712700  0.18141200  0.65746700  1
  O  O12  1  0.81858800  0.41287300  0.65746700  1
  O  O13  1  0.58712700  0.18141200  0.34253300  1
  O  O14  1  0.18141200  0.58712700  0.34253300  1
  O  O15  1  0.41287300  0.81858800  0.65746700  1
  O  O16  1  0.31858800  0.08712700  0.84253300  1
  O  O17  1  0.68141200  0.91287300  0.15746700  1
  O  O18  1  0.68141200  0.91287300  0.84253300  1
  O  O19  1  0.31858800  0.08712700  0.15746700  1
  O  O20  1  0.14223500  0.14223500  0.35432000  1
  O  O21  1  0.85776500  0.85776500  0.64568000  1
  O  O22  1  0.85776500  0.85776500  0.35432000  1
  O  O23  1  0.35776500  0.64223500  0.85432000  1
  O  O24  1  0.35776500  0.64223500  0.14568000  1
  O  O25  1  0.14223500  0.14223500  0.64568000  1
  O  O26  1  0.64223500  0.35776500  0.14568000  1
  O  O27  1  0.64223500  0.35776500  0.85432000  1
loop_
_geom_bond_atom_site_label_1
_geom_bond_atom_site_label_2
_geom_bond_distance
_geom_bond_site_symmetry_2
K0 O24 2.771921 1_555
K0 O23 2.771921 1_554
K0 O0 2.892512 1_565
K0 O1 2.892512 1_564
K0 O5 3.212188 1_454
K0 O6 3.212188 1_455
K0 O19 3.212188 1_565
K0 O16 3.212188 1_564
K1 O26 2.771921 1_555
K1 O27 2.771921 1_554
K1 O0 2.892512 1_655
K1 O1 2.892512 1_654
K1 O17 3.212188 1_545
K1 O18 3.212188 1_544
K1 O9 3.212188 1_654
K1 O4 3.212188 1_655
K2 O22 2.771921 1_555
K2 O21 2.771921 1_555
K2 O3 2.892512 1_555
K2 O2 2.892512 1_555
K2 O10 3.212188 1_555
K2 O15 3.212188 1_555
K2 O8 3.212188 1_555
K2 O12 3.212188 1_555
K3 O20 2.771921 1_555
K3 O25 2.771921 1_555
K3 O3 2.892512 1_555
K3 O2 2.892512 1_555
K3 O14 3.212188 1_555
K3 O11 3.212188 1_555
K3 O13 3.212188 1_555
K3 O7 3.212188 1_555
Mn0 O14 2.062887 1_555
Mn0 O6 2.062887 1_455
Mn0 O10 2.062887 1_455
Mn0 O4 2.062887 1_555
Mn1 O7 2.062887 1_555
Mn1 O5 2.062887 1_455
Mn1 O12 2.062887 1_455
Mn1 O9 2.062887 1_555
Mn2 O13 2.062887 1_555
Mn2 O17 2.062887 1_545
Mn2 O19 2.062887 1_555
Mn2 O8 2.062887 1_545
Mn3 O11 2.062887 1_555
Mn3 O16 2.062887 1_555
Mn3 O18 2.062887 1_545
Mn3 O15 2.062887 1_545
O0 V2 1.839516 1_445
O0 V0 1.839516 1_555
O1 V1 1.839516 1_445
O1 V5 1.839516 1_555
O2 V3 1.839516 1_555
O2 V7 1.839516 1_555
O3 V6 1.839516 1_555
O3 V4 1.839516 1_555
O4 V0 1.741929 1_555
O4 Rb0 2.982772 1_555
O5 V1 1.741929 1_555
O5 Rb1 2.982772 1_556
O6 V2 1.741929 1_555
O6 Rb1 2.982772 1_555
O7 V3 1.741929 1_555
O7 Rb2 2.982772 1_555
O8 V4 1.741929 1_555
O8 Rb2 2.982772 1_555
O9 V5 1.741929 1_555
O9 Rb0 2.982772 1_556
O10 V6 1.741929 1_555
O10 Rb3 2.982772 1_555
O11 V7 1.741929 1_555
O11 Rb3 2.982772 1_555
O12 V7 1.741929 1_555
O12 Rb3 2.982772 1_555
O13 V6 1.741929 1_555
O13 Rb3 2.982772 1_555
O14 V4 1.741929 1_555
O14 Rb2 2.982772 1_555
O15 V3 1.741929 1_555
O15 Rb2 2.982772 1_555
O16 V5 1.741929 1_555
O16 Rb0 2.982772 1_556
O17 V2 1.741929 1_555
O17 Rb1 2.982772 1_555
O18 V1 1.741929 1_555
O18 Rb1 2.982772 1_556
O19 V0 1.741929 1_555
O19 Rb0 2.982772 1_555
O20 V0 1.682229 1_555
O20 Rb3 3.044906 1_455
O20 Rb2 3.044906 1_545
O21 V1 1.682229 1_555
O21 Rb3 3.044906 1_565
O21 Rb2 3.044906 1_655
O22 V2 1.682229 1_555
O22 Rb3 3.044906 1_565
O22 Rb2 3.044906 1_655
O23 V3 1.682229 1_555
O23 Rb0 3.044906 1_556
O23 Rb1 3.044906 1_556
O24 V4 1.682229 1_555
O24 Rb0 3.044906 1_555
O24 Rb1 3.044906 1_555
O25 V5 1.682229 1_555
O25 Rb3 3.044906 1_455
O25 Rb2 3.044906 1_545
O26 V6 1.682229 1_555
O26 Rb0 3.044906 1_555
O26 Rb1 3.044906 1_555
O27 V7 1.682229 1_555
O27 Rb1 3.044906 1_556
O27 Rb0 3.044906 1_556
