# generated using pymatgen
data_Ca2Al2FeSi3O13
_symmetry_space_group_name_H-M   'P 1'
_cell_length_a   5.71351400
_cell_length_b   8.99344060
_cell_length_c   10.39642123
_cell_angle_alpha   116.12851412
_cell_angle_beta   90.00000000
_cell_angle_gamma   90.00000000
_symmetry_Int_Tables_number   1
_chemical_formula_structural   Ca2Al2FeSi3O13
_chemical_formula_sum   'Ca4 Al4 Fe2 Si6 O26'
_cell_volume   479.61941755
_cell_formula_units_Z   2
loop_
 _symmetry_equiv_pos_site_id
 _symmetry_equiv_pos_as_xyz
  1  'x, y, z'
loop_
 _atom_site_type_symbol
 _atom_site_label
 _atom_site_symmetry_multiplicity
 _atom_site_fract_x
 _atom_site_fract_y
 _atom_site_fract_z
 _atom_site_occupancy
  Ca  Ca0  1  0.25000000  0.23941800  0.84857600  1
  Ca  Ca1  1  0.75000000  0.76058300  0.15142400  1
  Ca  Ca2  1  0.25000000  0.40242800  0.57645100  1
  Ca  Ca3  1  0.75000000  0.59757200  0.42354900  1
  Al  Al0  1  0.50000000  0.00000000  0.00000000  1
  Al  Al1  1  0.00000000  0.00000000  0.00000000  1
  Al  Al2  1  0.50000000  0.00000000  0.50000000  1
  Al  Al3  1  0.00000000  0.00000000  0.50000000  1
  Fe  Fe0  1  0.75000000  0.70860300  0.77271700  1
  Fe  Fe1  1  0.25000000  0.29139700  0.22728300  1
  Si  Si0  1  0.25000000  0.66037400  0.95208400  1
  Si  Si1  1  0.75000000  0.33962600  0.04791600  1
  Si  Si2  1  0.75000000  0.31519800  0.72817500  1
  Si  Si3  1  0.25000000  0.68480200  0.27182500  1
  Si  Si4  1  0.25000000  0.81392000  0.67977900  1
  Si  Si5  1  0.75000000  0.18608000  0.32022100  1
  O  O0  1  0.49278900  0.76652900  0.96016700  1
  O  O1  1  0.99278900  0.23347100  0.03983300  1
  O  O2  1  0.50721100  0.23347100  0.03983300  1
  O  O3  1  0.00721100  0.76652900  0.96016700  1
  O  O4  1  0.47893300  0.68943400  0.64060900  1
  O  O5  1  0.97893300  0.31056600  0.35939100  1
  O  O6  1  0.52106700  0.31056600  0.35939100  1
  O  O7  1  0.02106700  0.68943400  0.64060900  1
  O  O8  1  0.51653700  0.20017000  0.66424900  1
  O  O9  1  0.01653700  0.79983000  0.33575100  1
  O  O10  1  0.48346300  0.79983000  0.33575100  1
  O  O11  1  0.98346300  0.20017000  0.66424900  1
  O  O12  1  0.75000000  0.94712100  0.87592900  1
  O  O13  1  0.25000000  0.05287900  0.12407100  1
  O  O14  1  0.25000000  0.95547600  0.85259100  1
  O  O15  1  0.75000000  0.04452400  0.14740900  1
  O  O16  1  0.25000000  0.92802300  0.59151600  1
  O  O17  1  0.75000000  0.07197700  0.40848400  1
  O  O18  1  0.25000000  0.48215900  0.81876800  1
  O  O19  1  0.75000000  0.51784100  0.18123200  1
  O  O20  1  0.75000000  0.47158800  0.69262200  1
  O  O21  1  0.25000000  0.52841200  0.30737800  1
  O  O22  1  0.75000000  0.37271600  0.90259100  1
  O  O23  1  0.25000000  0.62728400  0.09740900  1
  O  O24  1  0.75000000  0.90381300  0.55066100  1
  O  O25  1  0.25000000  0.09618700  0.44933900  1
loop_
_geom_bond_atom_site_label_1
_geom_bond_atom_site_label_2
_geom_bond_distance
_geom_bond_site_symmetry_2
Ca0 O18 2.336178 1_555
Ca0 O11 2.349531 1_455
Ca0 O8 2.349531 1_555
Ca0 O2 2.491963 1_556
Ca0 O1 2.491963 1_456
Ca0 O14 2.572271 1_545
Ca1 O19 2.336187 1_555
Ca1 O10 2.349533 1_555
Ca1 O9 2.349533 1_655
Ca1 O3 2.491959 1_654
Ca1 O0 2.491959 1_554
Ca1 O15 2.572262 1_565
Ca2 O18 2.295569 1_555
Ca2 O25 2.475093 1_555
Ca2 O6 2.555688 1_555
Ca2 O5 2.555688 1_455
Ca2 O7 2.702192 1_555
Ca2 O4 2.702192 1_555
Ca2 O8 2.814858 1_555
Ca2 O11 2.814858 1_455
Ca2 O20 3.056955 1_455
Ca2 O20 3.056955 1_555
Ca3 O19 2.295569 1_555
Ca3 O24 2.475093 1_555
Ca3 O7 2.555688 1_655
Ca3 O4 2.555688 1_555
Ca3 O5 2.702192 1_555
Ca3 O6 2.702192 1_555
Ca3 O10 2.814858 1_555
Ca3 O9 2.814858 1_655
Ca3 O21 3.056955 1_555
Ca3 O21 3.056955 1_655
Al0 O13 1.841186 1_555
Al0 O12 1.841186 1_544
Al0 O0 1.953485 1_544
Al0 O2 1.953485 1_555
Al0 O15 2.002185 1_555
Al0 O14 2.002185 1_544
Al1 O13 1.841186 1_555
Al1 O12 1.841186 1_444
Al1 O3 1.953485 1_544
Al1 O1 1.953485 1_455
Al1 O15 2.002185 1_455
Al1 O14 2.002185 1_544
Al2 O10 1.859589 1_545
Al2 O8 1.859589 1_555
Al2 O24 1.862064 1_545
Al2 O25 1.862064 1_555
Al2 O17 1.976608 1_555
Al2 O16 1.976608 1_545
Al3 O9 1.859589 1_545
Al3 O11 1.859589 1_455
Al3 O24 1.862064 1_445
Al3 O25 1.862064 1_555
Al3 O17 1.976608 1_455
Al3 O16 1.976608 1_545
Fe0 O20 1.916685 1_555
Fe0 O12 1.930160 1_555
Fe0 O7 2.026364 1_655
Fe0 O4 2.026364 1_555
Fe0 O3 2.309701 1_655
Fe0 O0 2.309701 1_555
Fe1 O21 1.916685 1_555
Fe1 O13 1.930160 1_555
Fe1 O5 2.026364 1_455
Fe1 O6 2.026364 1_555
Fe1 O1 2.309701 1_455
Fe1 O2 2.309701 1_555
O0 Si0 1.664966 1_555
O1 Si1 1.664966 1_555
O2 Si1 1.664966 1_555
O3 Si0 1.664966 1_555
O4 Si4 1.651842 1_555
O5 Si5 1.651842 1_555
O6 Si5 1.651842 1_555
O7 Si4 1.651842 1_555
O8 Si2 1.638779 1_555
O9 Si3 1.638779 1_555
O10 Si3 1.638779 1_555
O11 Si2 1.638779 1_555
O14 Si4 1.683464 1_555
O15 Si5 1.683464 1_555
O16 Si4 1.650587 1_555
O17 Si5 1.650587 1_555
O18 Si0 1.591631 1_555
O19 Si1 1.591631 1_555
O20 Si2 1.603966 1_555
O21 Si3 1.603966 1_555
O22 Si2 1.652117 1_555
O22 Si1 1.663512 1_556
O23 Si3 1.652117 1_555
O23 Si0 1.663512 1_554
