# generated using pymatgen
data_K3GdGe3(HO5)2
_symmetry_space_group_name_H-M   'P 1'
_cell_length_a   6.15561700
_cell_length_b   13.83449800
_cell_length_c   14.07244700
_cell_angle_alpha   90.00000000
_cell_angle_beta   90.00000000
_cell_angle_gamma   90.00000000
_symmetry_Int_Tables_number   1
_chemical_formula_structural   K3GdGe3(HO5)2
_chemical_formula_sum   'K12 Gd4 Ge12 H8 O40'
_cell_volume   1198.40777223
_cell_formula_units_Z   4
loop_
 _symmetry_equiv_pos_site_id
 _symmetry_equiv_pos_as_xyz
  1  'x, y, z'
loop_
 _atom_site_type_symbol
 _atom_site_label
 _atom_site_symmetry_multiplicity
 _atom_site_fract_x
 _atom_site_fract_y
 _atom_site_fract_z
 _atom_site_occupancy
  K  K0  1  0.08792500  0.63461900  0.01614800  1
  K  K1  1  0.41207500  0.13461900  0.48385200  1
  K  K2  1  0.91207500  0.36538100  0.51614800  1
  K  K3  1  0.58792500  0.86538100  0.98385200  1
  K  K4  1  0.91207500  0.36538100  0.98385200  1
  K  K5  1  0.58792500  0.86538100  0.51614800  1
  K  K6  1  0.08792500  0.63461900  0.48385200  1
  K  K7  1  0.41207500  0.13461900  0.01614800  1
  K  K8  1  0.42052500  0.63141500  0.25000000  1
  K  K9  1  0.07947600  0.13141500  0.25000000  1
  K  K10  1  0.57947600  0.36858500  0.75000000  1
  K  K11  1  0.92052400  0.86858500  0.75000000  1
  Gd  Gd0  1  0.58824200  0.95912000  0.25000000  1
  Gd  Gd1  1  0.91175800  0.45912000  0.25000000  1
  Gd  Gd2  1  0.41175800  0.04088000  0.75000000  1
  Gd  Gd3  1  0.08824200  0.54088000  0.75000000  1
  Ge  Ge0  1  0.09041500  0.90116100  0.10210700  1
  Ge  Ge1  1  0.40958500  0.40116100  0.39789300  1
  Ge  Ge2  1  0.90958500  0.09883900  0.60210700  1
  Ge  Ge3  1  0.59041500  0.59883900  0.89789300  1
  Ge  Ge4  1  0.90958500  0.09883900  0.89789300  1
  Ge  Ge5  1  0.59041500  0.59883900  0.60210700  1
  Ge  Ge6  1  0.09041500  0.90116100  0.39789300  1
  Ge  Ge7  1  0.40958500  0.40116100  0.10210700  1
  Ge  Ge8  1  0.91368300  0.74508000  0.25000000  1
  Ge  Ge9  1  0.58631700  0.24508000  0.25000000  1
  Ge  Ge10  1  0.08631700  0.25492000  0.75000000  1
  Ge  Ge11  1  0.41368300  0.75492000  0.75000000  1
  H  H0  1  0.10937200  0.92715000  0.93656000  1
  H  H1  1  0.39062800  0.42715000  0.56344000  1
  H  H2  1  0.89062800  0.07285000  0.43656000  1
  H  H3  1  0.60937200  0.57285000  0.06344000  1
  H  H4  1  0.89062800  0.07285000  0.06344000  1
  H  H5  1  0.60937200  0.57285000  0.43656000  1
  H  H6  1  0.10937200  0.92715000  0.56344000  1
  H  H7  1  0.39062800  0.42715000  0.93656000  1
  O  O0  1  0.65766100  0.79654600  0.25000000  1
  O  O1  1  0.84233900  0.29654600  0.25000000  1
  O  O2  1  0.34233900  0.20345400  0.75000000  1
  O  O3  1  0.15766100  0.70345400  0.75000000  1
  O  O4  1  0.86191000  0.97133300  0.13075000  1
  O  O5  1  0.63809000  0.47133300  0.36925000  1
  O  O6  1  0.13809000  0.02866700  0.63075000  1
  O  O7  1  0.36191000  0.52866700  0.86925000  1
  O  O8  1  0.13809000  0.02866700  0.86925000  1
  O  O9  1  0.36191000  0.52866700  0.63075000  1
  O  O10  1  0.86191000  0.97133300  0.36925000  1
  O  O11  1  0.63809000  0.47133300  0.13075000  1
  O  O12  1  0.33626700  0.95775000  0.12821000  1
  O  O13  1  0.16373300  0.45775000  0.37179000  1
  O  O14  1  0.66373300  0.04225000  0.62821000  1
  O  O15  1  0.83626700  0.54225000  0.87179000  1
  O  O16  1  0.66373300  0.04225000  0.87179000  1
  O  O17  1  0.83626700  0.54225000  0.62821000  1
  O  O18  1  0.33626700  0.95775000  0.37179000  1
  O  O19  1  0.16373300  0.45775000  0.12821000  1
  O  O20  1  0.07774700  0.77989900  0.14853800  1
  O  O21  1  0.42225300  0.27989900  0.35146200  1
  O  O22  1  0.92225300  0.22010100  0.64853800  1
  O  O23  1  0.57774700  0.72010100  0.85146200  1
  O  O24  1  0.92225300  0.22010100  0.85146200  1
  O  O25  1  0.57774700  0.72010100  0.64853800  1
  O  O26  1  0.07774700  0.77989900  0.35146200  1
  O  O27  1  0.42225300  0.27989900  0.14853800  1
  O  O28  1  0.08293200  0.86796600  0.97691100  1
  O  O29  1  0.41706800  0.36796600  0.52308900  1
  O  O30  1  0.91706800  0.13203400  0.47691100  1
  O  O31  1  0.58293200  0.63203400  0.02308900  1
  O  O32  1  0.91706800  0.13203400  0.02308900  1
  O  O33  1  0.58293200  0.63203400  0.47691100  1
  O  O34  1  0.08293200  0.86796600  0.52308900  1
  O  O35  1  0.41706800  0.36796600  0.97691100  1
  O  O36  1  0.92678300  0.62030200  0.25000000  1
  O  O37  1  0.57321700  0.12030200  0.25000000  1
  O  O38  1  0.07321700  0.37969800  0.75000000  1
  O  O39  1  0.42678300  0.87969800  0.75000000  1
loop_
_geom_bond_atom_site_label_1
_geom_bond_atom_site_label_2
_geom_bond_distance
_geom_bond_site_symmetry_2
K0 O20 2.741256 1_555
K0 O15 2.856499 1_454
K0 O19 2.948209 1_555
K0 O7 3.044070 1_554
K0 O31 3.048848 1_555
K0 O31 3.110283 1_455
K0 O28 3.275263 1_554
K1 O21 2.741256 1_555
K1 O14 2.856499 1_555
K1 O18 2.948209 1_545
K1 O6 3.044070 1_555
K1 O30 3.048848 1_455
K1 O30 3.110283 1_555
K1 O29 3.275263 1_555
K2 O22 2.741256 1_555
K2 O13 2.856499 1_655
K2 O17 2.948209 1_555
K2 O5 3.044070 1_555
K2 O29 3.048848 1_555
K2 O29 3.110283 1_655
K2 O30 3.275263 1_555
K3 O23 2.741256 1_555
K3 O12 2.856499 1_556
K3 O16 2.948209 1_565
K3 O4 3.044070 1_556
K3 O28 3.048848 1_655
K3 O28 3.110283 1_555
K3 O31 3.275263 1_556
K4 O24 2.741256 1_555
K4 O19 2.856499 1_656
K4 O15 2.948209 1_555
K4 O11 3.044070 1_556
K4 O35 3.048848 1_555
K4 O35 3.110283 1_655
K4 O32 3.275263 1_556
K5 O25 2.741256 1_555
K5 O18 2.856499 1_555
K5 O14 2.948209 1_565
K5 O10 3.044070 1_555
K5 O34 3.048848 1_655
K5 O34 3.110283 1_555
K5 O33 3.275263 1_555
K6 O26 2.741256 1_555
K6 O17 2.856499 1_455
K6 O13 2.948209 1_555
K6 O9 3.044070 1_555
K6 O33 3.048848 1_555
K6 O33 3.110283 1_455
K6 O34 3.275263 1_555
K7 O27 2.741256 1_555
K7 O16 2.856499 1_554
K7 O12 2.948209 1_545
K7 O8 3.044070 1_554
K7 O32 3.048848 1_455
K7 O32 3.110283 1_555
K7 O35 3.275263 1_554
K8 O0 2.711040 1_555
K8 O11 3.084546 1_555
K8 O5 3.084546 1_555
K9 O1 2.711043 1_455
K9 O10 3.084549 1_445
K9 O4 3.084549 1_445
K10 O2 2.711043 1_555
K10 O9 3.084549 1_555
K10 O7 3.084549 1_555
K11 O3 2.711043 1_655
K11 O6 3.084549 1_665
K11 O8 3.084549 1_665
Gd0 O37 2.231789 1_565
Gd0 O0 2.289363 1_555
Gd0 O12 2.311611 1_555
Gd0 O18 2.311611 1_555
Gd0 O10 2.383812 1_555
Gd0 O4 2.383812 1_555
Gd1 O36 2.231789 1_555
Gd1 O1 2.289363 1_555
Gd1 O19 2.311611 1_655
Gd1 O13 2.311611 1_655
Gd1 O11 2.383812 1_555
Gd1 O5 2.383812 1_555
Gd2 O39 2.231789 1_545
Gd2 O2 2.289363 1_555
Gd2 O14 2.311611 1_555
Gd2 O16 2.311611 1_555
Gd2 O6 2.383812 1_555
Gd2 O8 2.383812 1_555
Gd3 O38 2.231789 1_555
Gd3 O3 2.289363 1_555
Gd3 O17 2.311611 1_455
Gd3 O15 2.311611 1_455
Gd3 O9 2.383812 1_555
Gd3 O7 2.383812 1_555
Ge0 O12 1.743022 1_555
Ge0 O4 1.755963 1_455
Ge0 O20 1.802040 1_555
Ge0 O28 1.821266 1_554
Ge1 O13 1.743022 1_555
Ge1 O5 1.755963 1_555
Ge1 O21 1.802040 1_555
Ge1 O29 1.821266 1_555
Ge2 O14 1.743022 1_555
Ge2 O6 1.755963 1_655
Ge2 O22 1.802040 1_555
Ge2 O30 1.821266 1_555
Ge3 O15 1.743022 1_555
Ge3 O7 1.755963 1_555
Ge3 O23 1.802040 1_555
Ge3 O31 1.821266 1_556
Ge4 O16 1.743022 1_555
Ge4 O8 1.755963 1_655
Ge4 O24 1.802040 1_555
Ge4 O32 1.821266 1_556
Ge5 O17 1.743022 1_555
Ge5 O9 1.755963 1_555
Ge5 O25 1.802040 1_555
Ge5 O33 1.821266 1_555
Ge6 O18 1.743022 1_555
Ge6 O10 1.755963 1_455
Ge6 O26 1.802040 1_555
Ge6 O34 1.821266 1_555
Ge7 O19 1.743022 1_555
Ge7 O11 1.755963 1_555
Ge7 O27 1.802040 1_555
Ge7 O35 1.821266 1_554
Ge8 O36 1.728123 1_555
Ge8 O0 1.729348 1_555
Ge8 O20 1.814010 1_655
Ge8 O26 1.814010 1_655
Ge9 O37 1.728123 1_555
Ge9 O1 1.729348 1_555
Ge9 O27 1.814010 1_555
Ge9 O21 1.814010 1_555
Ge10 O38 1.728123 1_555
Ge10 O2 1.729348 1_555
Ge10 O24 1.814010 1_455
Ge10 O22 1.814010 1_455
Ge11 O39 1.728123 1_555
Ge11 O3 1.729348 1_555
Ge11 O23 1.814010 1_555
Ge11 O25 1.814010 1_555
H0 O28 1.009619 1_555
H0 O8 1.703206 1_565
H1 O29 1.009619 1_555
H1 O9 1.703206 1_555
H2 O30 1.009619 1_555
H2 O10 1.703206 1_545
H3 O31 1.009619 1_555
H3 O11 1.703206 1_555
H4 O32 1.009619 1_555
H4 O4 1.703206 1_545
H5 O33 1.009619 1_555
H5 O5 1.703206 1_555
H6 O34 1.009619 1_555
H6 O6 1.703206 1_565
H7 O35 1.009619 1_555
H7 O7 1.703206 1_555
