# generated using pymatgen
data_NaSb2H2OF7
_symmetry_space_group_name_H-M   'P 1'
_cell_length_a   5.57220700
_cell_length_b   9.74732600
_cell_length_c   13.70013168
_cell_angle_alpha   90.00000000
_cell_angle_beta   97.60857788
_cell_angle_gamma   90.00000000
_symmetry_Int_Tables_number   1
_chemical_formula_structural   NaSb2H2OF7
_chemical_formula_sum   'Na4 Sb8 H8 O4 F28'
_cell_volume   737.55921944
_cell_formula_units_Z   4
loop_
 _symmetry_equiv_pos_site_id
 _symmetry_equiv_pos_as_xyz
  1  'x, y, z'
loop_
 _atom_site_type_symbol
 _atom_site_label
 _atom_site_symmetry_multiplicity
 _atom_site_fract_x
 _atom_site_fract_y
 _atom_site_fract_z
 _atom_site_occupancy
  Na  Na0  1  0.24303000  0.44073600  0.92561000  1
  Na  Na1  1  0.75697000  0.94073600  0.57439000  1
  Na  Na2  1  0.75697000  0.55926400  0.07439000  1
  Na  Na3  1  0.24303000  0.05926400  0.42561000  1
  Sb  Sb0  1  0.79502000  0.16628600  0.97279000  1
  Sb  Sb1  1  0.20498000  0.66628600  0.52721000  1
  Sb  Sb2  1  0.20498000  0.83371400  0.02721000  1
  Sb  Sb3  1  0.79502000  0.33371400  0.47279000  1
  Sb  Sb4  1  0.38846200  0.19964100  0.70680400  1
  Sb  Sb5  1  0.61153800  0.69964100  0.79319600  1
  Sb  Sb6  1  0.61153800  0.80035900  0.29319600  1
  Sb  Sb7  1  0.38846200  0.30035900  0.20680400  1
  H  H0  1  0.15658100  0.91901300  0.73801300  1
  H  H1  1  0.84341900  0.41901300  0.76198700  1
  H  H2  1  0.84341900  0.08098700  0.26198700  1
  H  H3  1  0.15658100  0.58098700  0.23801300  1
  H  H4  1  0.97097100  0.03080500  0.76069800  1
  H  H5  1  0.02902900  0.53080500  0.73930200  1
  H  H6  1  0.02902900  0.96919500  0.23930200  1
  H  H7  1  0.97097100  0.46919500  0.26069800  1
  O  O0  1  0.06178500  0.99809900  0.70865200  1
  O  O1  1  0.93821500  0.49809900  0.79134800  1
  O  O2  1  0.93821500  0.00190100  0.29134800  1
  O  O3  1  0.06178500  0.50190100  0.20865200  1
  F  F0  1  0.00683800  0.17809300  0.86933600  1
  F  F1  1  0.99316200  0.67809300  0.63066400  1
  F  F2  1  0.99316200  0.82190700  0.13066400  1
  F  F3  1  0.00683800  0.32190700  0.36933600  1
  F  F4  1  0.10454500  0.10911900  0.06213000  1
  F  F5  1  0.89545500  0.60911900  0.43787000  1
  F  F6  1  0.89545500  0.89088100  0.93787000  1
  F  F7  1  0.10454500  0.39088100  0.56213000  1
  F  F8  1  0.90467800  0.35569300  0.00560600  1
  F  F9  1  0.09532200  0.85569300  0.49439400  1
  F  F10  1  0.09532200  0.64430700  0.99439400  1
  F  F11  1  0.90467800  0.14430700  0.50560600  1
  F  F12  1  0.43983700  0.10283000  0.57955800  1
  F  F13  1  0.56016300  0.60283000  0.92044200  1
  F  F14  1  0.56016300  0.89717000  0.42044200  1
  F  F15  1  0.43983700  0.39717000  0.07955800  1
  F  F16  1  0.69328000  0.29471000  0.67866800  1
  F  F17  1  0.30672000  0.79471000  0.82133200  1
  F  F18  1  0.30672000  0.70529000  0.32133200  1
  F  F19  1  0.69328000  0.20529000  0.17866800  1
  F  F20  1  0.58445800  0.04605200  0.76854500  1
  F  F21  1  0.41554200  0.54605200  0.73145500  1
  F  F22  1  0.41554200  0.95394800  0.23145500  1
  F  F23  1  0.58445800  0.45394800  0.26854500  1
  F  F24  1  0.52167500  0.28148200  0.86190700  1
  F  F25  1  0.47832500  0.78148200  0.63809300  1
  F  F26  1  0.47832500  0.71851800  0.13809300  1
  F  F27  1  0.52167500  0.21851800  0.36190700  1
loop_
_geom_bond_atom_site_label_1
_geom_bond_atom_site_label_2
_geom_bond_distance
_geom_bond_site_symmetry_2
Na0 O1 2.398667 1_455
Na1 O0 2.398667 1_655
Na2 O3 2.398667 1_655
Na3 O2 2.398667 1_455
H0 O0 0.989348 1_555
H1 O1 0.989348 1_555
H2 O2 0.989348 1_555
H3 O3 0.989348 1_555
H4 O0 0.980649 1_645
H5 O1 0.980649 1_455
H6 O2 0.980649 1_465
H7 O3 0.980649 1_655
F0 Sb0 1.964221 1_455
F1 Sb1 1.964221 1_655
F2 Sb2 1.964221 1_655
F3 Sb3 1.964221 1_455
F4 Sb0 2.055310 1_454
F5 Sb1 2.055310 1_655
F6 Sb2 2.055310 1_656
F7 Sb3 2.055310 1_455
F8 Sb0 1.977686 1_554
F8 Na2 2.389179 1_555
F8 Na0 2.447457 1_654
F9 Sb1 1.977686 1_555
F9 Na3 2.389179 1_565
F9 Na1 2.447457 1_455
F10 Sb2 1.977686 1_556
F10 Na0 2.389179 1_555
F10 Na2 2.447457 1_456
F11 Sb3 1.977686 1_555
F11 Na1 2.389179 1_545
F11 Na3 2.447457 1_655
F12 Sb4 2.035590 1_555
F12 Na3 2.284472 1_555
F12 Na1 2.378496 1_545
F13 Sb5 2.035590 1_555
F13 Na2 2.284472 1_556
F13 Na0 2.378496 1_555
F14 Sb6 2.035590 1_555
F14 Na1 2.284472 1_555
F14 Na3 2.378496 1_565
F15 Sb7 2.035590 1_555
F15 Na0 2.284472 1_554
F15 Na2 2.378496 1_555
F16 Sb4 2.016335 1_555
F17 Sb5 2.016335 1_555
F18 Sb6 2.016335 1_555
F19 Sb7 2.016335 1_555
F20 Sb4 1.976070 1_555
F21 Sb5 1.976070 1_555
F22 Sb6 1.976070 1_555
F23 Sb7 1.976070 1_555
F24 Sb0 2.296893 1_555
F24 Sb4 2.298916 1_555
F24 Na0 2.437401 1_555
F25 Sb1 2.296893 1_555
F25 Sb5 2.298916 1_555
F25 Na1 2.437401 1_555
F26 Sb2 2.296893 1_555
F26 Sb6 2.298916 1_555
F26 Na2 2.437401 1_555
F27 Sb3 2.296893 1_555
F27 Sb7 2.298916 1_555
F27 Na3 2.437401 1_555
