# generated using pymatgen
data_V3Rh
_symmetry_space_group_name_H-M   'P 1'
_cell_length_a   4.75280313
_cell_length_b   4.75280313
_cell_length_c   4.75280313
_cell_angle_alpha   90.00000000
_cell_angle_beta   90.00000000
_cell_angle_gamma   90.00000000
_symmetry_Int_Tables_number   1
_chemical_formula_structural   V3Rh
_chemical_formula_sum   'V6 Rh2'
_cell_volume   107.36172385
_cell_formula_units_Z   2
loop_
 _symmetry_equiv_pos_site_id
 _symmetry_equiv_pos_as_xyz
  1  'x, y, z'
loop_
 _atom_site_type_symbol
 _atom_site_label
 _atom_site_symmetry_multiplicity
 _atom_site_fract_x
 _atom_site_fract_y
 _atom_site_fract_z
 _atom_site_occupancy
  V  V0  1  0.50000000  0.25000000  0.00000000  1
  V  V1  1  0.50000000  0.75000000  0.00000000  1
  V  V2  1  0.25000000  0.00000000  0.50000000  1
  V  V3  1  0.75000000  0.00000000  0.50000000  1
  V  V4  1  0.00000000  0.50000000  0.25000000  1
  V  V5  1  0.00000000  0.50000000  0.75000000  1
  Rh  Rh0  1  0.50000000  0.50000000  0.50000000  1
  Rh  Rh1  1  0.00000000  0.00000000  0.00000000  1
loop_
_geom_bond_atom_site_label_1
_geom_bond_atom_site_label_2
_geom_bond_distance
_geom_bond_site_symmetry_2
V0 V1 2.376402 1_555
V0 V1 2.376402 1_545
V0 V3 2.910486 1_555
V0 V4 2.910486 1_555
V0 V3 2.910486 1_554
V0 V4 2.910486 1_655
V0 V5 2.910486 1_654
V0 V2 2.910486 1_555
V0 V5 2.910486 1_554
V0 V2 2.910486 1_554
V1 V3 2.910486 1_564
V1 V4 2.910486 1_555
V1 V2 2.910486 1_565
V1 V4 2.910486 1_655
V1 V5 2.910486 1_654
V1 V3 2.910486 1_565
V1 V2 2.910486 1_564
V1 V5 2.910486 1_554
V2 V3 2.376402 1_555
V2 V3 2.376402 1_455
V2 V4 2.910486 1_545
V2 V4 2.910486 1_555
V2 V5 2.910486 1_555
V2 V5 2.910486 1_545
V3 V5 2.910486 1_655
V3 V5 2.910486 1_645
V3 V4 2.910486 1_645
V3 V4 2.910486 1_655
V4 V5 2.376402 1_555
V4 V5 2.376402 1_554
Rh0 V3 2.656898 1_555
Rh0 V2 2.656898 1_565
Rh0 V4 2.656898 1_555
Rh0 V0 2.656898 1_556
Rh0 V1 2.656898 1_555
Rh0 V4 2.656898 1_655
Rh0 V5 2.656898 1_655
Rh0 V5 2.656898 1_555
Rh0 V1 2.656898 1_556
Rh0 V2 2.656898 1_555
Rh0 V3 2.656898 1_565
Rh0 V0 2.656898 1_555
Rh1 V3 2.656898 1_455
Rh1 V5 2.656898 1_554
Rh1 V0 2.656898 1_455
Rh1 V1 2.656898 1_445
Rh1 V2 2.656898 1_554
Rh1 V4 2.656898 1_545
Rh1 V1 2.656898 1_545
Rh1 V4 2.656898 1_555
Rh1 V5 2.656898 1_544
Rh1 V3 2.656898 1_454
Rh1 V2 2.656898 1_555
Rh1 V0 2.656898 1_555
