# generated using pymatgen
data_Mg3(InN2)2
_symmetry_space_group_name_H-M   'P 1'
_cell_length_a   6.51097430
_cell_length_b   8.86459398
_cell_length_c   5.63378613
_cell_angle_alpha   90.00000371
_cell_angle_beta   91.85940546
_cell_angle_gamma   132.90168955
_symmetry_Int_Tables_number   1
_chemical_formula_structural   Mg3(InN2)2
_chemical_formula_sum   'Mg6 In4 N8'
_cell_volume   237.95776205
_cell_formula_units_Z   2
loop_
 _symmetry_equiv_pos_site_id
 _symmetry_equiv_pos_as_xyz
  1  'x, y, z'
loop_
 _atom_site_type_symbol
 _atom_site_label
 _atom_site_symmetry_multiplicity
 _atom_site_fract_x
 _atom_site_fract_y
 _atom_site_fract_z
 _atom_site_occupancy
  Mg  Mg0  1  0.23740900  0.01691900  0.10169500  1
  Mg  Mg1  1  0.76259100  0.77951000  0.39830500  1
  Mg  Mg2  1  0.76259100  0.98308100  0.89830500  1
  Mg  Mg3  1  0.23740900  0.22049000  0.60169500  1
  Mg  Mg4  1  0.00000000  0.70800400  0.75000000  1
  Mg  Mg5  1  0.00000000  0.29199600  0.25000000  1
  In  In0  1  0.65472600  0.20665300  0.64702800  1
  In  In1  1  0.34527400  0.55192800  0.85297200  1
  In  In2  1  0.34527400  0.79334700  0.35297200  1
  In  In3  1  0.65472600  0.44807200  0.14702800  1
  N  N0  1  0.19843400  0.94884300  0.48733700  1
  N  N1  1  0.80156600  0.75040900  0.01266300  1
  N  N2  1  0.80156600  0.05115700  0.51266300  1
  N  N3  1  0.19843400  0.24959100  0.98733700  1
  N  N4  1  0.67762300  0.22651500  0.03326800  1
  N  N5  1  0.32237700  0.54889100  0.46673200  1
  N  N6  1  0.32237700  0.77348500  0.96673200  1
  N  N7  1  0.67762300  0.45110900  0.53326800  1
loop_
_geom_bond_atom_site_label_1
_geom_bond_atom_site_label_2
_geom_bond_distance
_geom_bond_site_symmetry_2
Mg0 N4 2.153417 1_555
Mg0 N1 2.160055 1_445
Mg0 N0 2.230728 1_545
Mg0 N3 2.331428 1_554
Mg0 N6 2.682087 1_544
Mg1 N5 2.153418 1_555
Mg1 N0 2.160055 1_655
Mg1 N1 2.230728 1_555
Mg1 N2 2.331428 1_565
Mg1 N7 2.682078 1_555
Mg2 N6 2.153417 1_555
Mg2 N3 2.160055 1_665
Mg2 N2 2.230728 1_565
Mg2 N1 2.331428 1_556
Mg2 N4 2.682087 1_566
Mg3 N7 2.153418 1_555
Mg3 N2 2.160055 1_455
Mg3 N3 2.230728 1_555
Mg3 N0 2.331428 1_545
Mg3 N5 2.682078 1_555
Mg4 N7 2.099628 1_455
Mg4 N6 2.099632 1_555
Mg4 N1 2.187609 1_456
Mg4 N0 2.187609 1_555
Mg5 N5 2.099628 1_555
Mg5 N4 2.099632 1_455
Mg5 N3 2.187609 1_554
Mg5 N2 2.187609 1_455
In0 N7 2.166850 1_555
In0 N4 2.175175 1_556
In0 N2 2.286551 1_555
In0 N0 2.332635 1_545
In1 N6 2.166833 1_555
In1 N5 2.175174 1_555
In1 N3 2.286559 1_555
In1 N1 2.332636 1_556
In2 N5 2.166850 1_555
In2 N6 2.175175 1_554
In2 N0 2.286551 1_555
In2 N2 2.332635 1_565
In3 N4 2.166833 1_555
In3 N7 2.175174 1_555
In3 N1 2.286559 1_555
In3 N3 2.332636 1_554
