# generated using pymatgen
data_MgMnN2
_symmetry_space_group_name_H-M   'P 1'
_cell_length_a   5.17812300
_cell_length_b   11.27037400
_cell_length_c   13.38409600
_cell_angle_alpha   90.00000000
_cell_angle_beta   90.00000000
_cell_angle_gamma   90.00000000
_symmetry_Int_Tables_number   1
_chemical_formula_structural   MgMnN2
_chemical_formula_sum   'Mg16 Mn16 N32'
_cell_volume   781.08758227
_cell_formula_units_Z   16
loop_
 _symmetry_equiv_pos_site_id
 _symmetry_equiv_pos_as_xyz
  1  'x, y, z'
loop_
 _atom_site_type_symbol
 _atom_site_label
 _atom_site_symmetry_multiplicity
 _atom_site_fract_x
 _atom_site_fract_y
 _atom_site_fract_z
 _atom_site_occupancy
  Mg  Mg0  1  0.59186800  0.04902200  0.17779300  1
  Mg  Mg1  1  0.09186800  0.45097800  0.82220700  1
  Mg  Mg2  1  0.40813200  0.54902200  0.32220700  1
  Mg  Mg3  1  0.90813200  0.95097800  0.67779300  1
  Mg  Mg4  1  0.40813200  0.95097800  0.82220700  1
  Mg  Mg5  1  0.90813200  0.54902200  0.17779300  1
  Mg  Mg6  1  0.59186800  0.45097800  0.67779300  1
  Mg  Mg7  1  0.09186800  0.04902200  0.32220700  1
  Mg  Mg8  1  0.85560800  0.29612000  0.06646800  1
  Mg  Mg9  1  0.35560800  0.20388000  0.93353200  1
  Mg  Mg10  1  0.14439200  0.79612000  0.43353200  1
  Mg  Mg11  1  0.64439200  0.70388000  0.56646800  1
  Mg  Mg12  1  0.14439200  0.70388000  0.93353200  1
  Mg  Mg13  1  0.64439200  0.79612000  0.06646800  1
  Mg  Mg14  1  0.85560800  0.20388000  0.56646800  1
  Mg  Mg15  1  0.35560800  0.29612000  0.43353200  1
  Mn  Mn0  1  0.62335200  0.95044600  0.43749400  1
  Mn  Mn1  1  0.12335200  0.54955400  0.56250600  1
  Mn  Mn2  1  0.37664800  0.45044600  0.06250600  1
  Mn  Mn3  1  0.87664800  0.04955400  0.93749400  1
  Mn  Mn4  1  0.37664800  0.04955400  0.56250600  1
  Mn  Mn5  1  0.87664800  0.45044600  0.43749400  1
  Mn  Mn6  1  0.62335200  0.54955400  0.93749400  1
  Mn  Mn7  1  0.12335200  0.95044600  0.06250600  1
  Mn  Mn8  1  0.83414200  0.30421800  0.30055700  1
  Mn  Mn9  1  0.33414200  0.19578200  0.69944300  1
  Mn  Mn10  1  0.16585800  0.80421800  0.19944300  1
  Mn  Mn11  1  0.66585800  0.69578200  0.80055700  1
  Mn  Mn12  1  0.16585800  0.69578200  0.69944300  1
  Mn  Mn13  1  0.66585800  0.80421800  0.30055700  1
  Mn  Mn14  1  0.83414200  0.19578200  0.80055700  1
  Mn  Mn15  1  0.33414200  0.30421800  0.19944300  1
  N  N0  1  0.78504500  0.47390400  0.31037200  1
  N  N1  1  0.28504500  0.02609600  0.68962800  1
  N  N2  1  0.21495500  0.97390400  0.18962800  1
  N  N3  1  0.71495500  0.52609600  0.81037200  1
  N  N4  1  0.21495500  0.52609600  0.68962800  1
  N  N5  1  0.71495500  0.97390400  0.31037200  1
  N  N6  1  0.78504500  0.02609600  0.81037200  1
  N  N7  1  0.28504500  0.47390400  0.18962800  1
  N  N8  1  0.76882600  0.29734100  0.44009200  1
  N  N9  1  0.26882600  0.20265900  0.55990800  1
  N  N10  1  0.23117400  0.79734100  0.05990800  1
  N  N11  1  0.73117400  0.70265900  0.94009200  1
  N  N12  1  0.23117400  0.70265900  0.55990800  1
  N  N13  1  0.73117400  0.79734100  0.44009200  1
  N  N14  1  0.76882600  0.20265900  0.94009200  1
  N  N15  1  0.26882600  0.29734100  0.05990800  1
  N  N16  1  0.71868100  0.46952700  0.05129800  1
  N  N17  1  0.21868100  0.03047300  0.94870200  1
  N  N18  1  0.28131900  0.96952700  0.44870200  1
  N  N19  1  0.78131900  0.53047300  0.55129800  1
  N  N20  1  0.28131900  0.53047300  0.94870200  1
  N  N21  1  0.78131900  0.96952700  0.05129800  1
  N  N22  1  0.71868100  0.03047300  0.55129800  1
  N  N23  1  0.21868100  0.46952700  0.44870200  1
  N  N24  1  0.65959300  0.23372100  0.19800000  1
  N  N25  1  0.15959300  0.26627900  0.80200000  1
  N  N26  1  0.34040700  0.73372100  0.30200000  1
  N  N27  1  0.84040700  0.76627900  0.69800000  1
  N  N28  1  0.34040700  0.76627900  0.80200000  1
  N  N29  1  0.84040700  0.73372100  0.19800000  1
  N  N30  1  0.65959300  0.26627900  0.69800000  1
  N  N31  1  0.15959300  0.23372100  0.30200000  1
loop_
_geom_bond_atom_site_label_1
_geom_bond_atom_site_label_2
_geom_bond_distance
_geom_bond_site_symmetry_2
Mg0 N5 2.066796 1_545
Mg0 N24 2.128215 1_555
Mg0 N2 2.133302 1_545
Mg0 N21 2.152066 1_545
Mg1 N4 2.066796 1_555
Mg1 N25 2.128215 1_555
Mg1 N3 2.133302 1_455
Mg1 N20 2.152066 1_555
Mg2 N7 2.066796 1_555
Mg2 N26 2.128215 1_555
Mg2 N0 2.133302 1_555
Mg2 N23 2.152066 1_555
Mg3 N6 2.066796 1_565
Mg3 N27 2.128215 1_555
Mg3 N1 2.133302 1_665
Mg3 N22 2.152066 1_565
Mg4 N1 2.066796 1_565
Mg4 N28 2.128215 1_555
Mg4 N6 2.133302 1_565
Mg4 N17 2.152066 1_565
Mg5 N0 2.066796 1_555
Mg5 N29 2.128215 1_555
Mg5 N7 2.133302 1_655
Mg5 N16 2.152066 1_555
Mg6 N3 2.066796 1_555
Mg6 N30 2.128215 1_555
Mg6 N4 2.133302 1_555
Mg6 N19 2.152066 1_555
Mg7 N2 2.066796 1_545
Mg7 N31 2.128215 1_555
Mg7 N5 2.133302 1_445
Mg7 N18 2.152066 1_545
Mg8 N14 2.042642 1_554
Mg8 N16 2.088892 1_555
Mg8 N15 2.141538 1_655
Mg8 N24 2.150330 1_555
Mg9 N15 2.042642 1_556
Mg9 N17 2.088892 1_555
Mg9 N14 2.141538 1_555
Mg9 N25 2.150330 1_555
Mg10 N12 2.042642 1_555
Mg10 N18 2.088892 1_555
Mg10 N13 2.141538 1_455
Mg10 N26 2.150330 1_555
Mg11 N13 2.042642 1_555
Mg11 N19 2.088892 1_555
Mg11 N12 2.141538 1_555
Mg11 N27 2.150330 1_555
Mg12 N10 2.042642 1_556
Mg12 N20 2.088892 1_555
Mg12 N11 2.141538 1_455
Mg12 N28 2.150330 1_555
Mg13 N11 2.042642 1_554
Mg13 N21 2.088892 1_555
Mg13 N10 2.141538 1_555
Mg13 N29 2.150330 1_555
Mg14 N8 2.042642 1_555
Mg14 N22 2.088892 1_555
Mg14 N9 2.141538 1_655
Mg14 N30 2.150330 1_555
Mg15 N9 2.042642 1_555
Mg15 N23 2.088892 1_555
Mg15 N8 2.141538 1_555
Mg15 N31 2.150330 1_555
Mn0 N5 1.785971 1_555
Mn0 N18 1.790392 1_555
Mn0 N13 1.813960 1_555
Mn0 N22 1.837710 1_565
Mn1 N4 1.785971 1_555
Mn1 N19 1.790392 1_455
Mn1 N12 1.813960 1_555
Mn1 N23 1.837710 1_555
Mn2 N7 1.785971 1_555
Mn2 N16 1.790392 1_555
Mn2 N15 1.813960 1_555
Mn2 N20 1.837710 1_554
Mn3 N6 1.785971 1_555
Mn3 N17 1.790392 1_655
Mn3 N14 1.813960 1_555
Mn3 N21 1.837710 1_546
Mn4 N1 1.785971 1_555
Mn4 N22 1.790392 1_555
Mn4 N9 1.813960 1_555
Mn4 N18 1.837710 1_545
Mn5 N0 1.785971 1_555
Mn5 N23 1.790392 1_655
Mn5 N8 1.813960 1_555
Mn5 N19 1.837710 1_555
Mn6 N3 1.785971 1_555
Mn6 N20 1.790392 1_555
Mn6 N11 1.813960 1_555
Mn6 N16 1.837710 1_556
Mn7 N2 1.785971 1_555
Mn7 N21 1.790392 1_455
Mn7 N10 1.813960 1_555
Mn7 N17 1.837710 1_564
Mn8 N24 1.825463 1_555
Mn8 N31 1.863231 1_655
Mn8 N8 1.899510 1_555
Mn8 N0 1.933716 1_555
Mn9 N25 1.825463 1_555
Mn9 N30 1.863231 1_555
Mn9 N9 1.899510 1_555
Mn9 N1 1.933716 1_555
Mn10 N26 1.825463 1_555
Mn10 N29 1.863231 1_455
Mn10 N10 1.899510 1_555
Mn10 N2 1.933716 1_555
Mn11 N27 1.825463 1_555
Mn11 N28 1.863231 1_555
Mn11 N11 1.899510 1_555
Mn11 N3 1.933716 1_555
Mn12 N28 1.825463 1_555
Mn12 N27 1.863231 1_455
Mn12 N12 1.899510 1_555
Mn12 N4 1.933716 1_555
Mn13 N29 1.825463 1_555
Mn13 N26 1.863231 1_555
Mn13 N13 1.899510 1_555
Mn13 N5 1.933716 1_555
Mn14 N30 1.825463 1_555
Mn14 N25 1.863231 1_655
Mn14 N14 1.899510 1_555
Mn14 N6 1.933716 1_555
Mn15 N31 1.825463 1_555
Mn15 N24 1.863231 1_555
Mn15 N15 1.899510 1_555
Mn15 N7 1.933716 1_555
