# generated using pymatgen
data_Ba4Pr2Cu6O13
_symmetry_space_group_name_H-M   'P 1'
_cell_length_a   12.67075001
_cell_length_b   12.64968855
_cell_length_c   5.57598104
_cell_angle_alpha   77.48943615
_cell_angle_beta   77.06722820
_cell_angle_gamma   25.44333566
_symmetry_Int_Tables_number   1
_chemical_formula_structural   Ba4Pr2Cu6O13
_chemical_formula_sum   'Ba4 Pr2 Cu6 O13'
_cell_volume   373.99533778
_cell_formula_units_Z   1
loop_
 _symmetry_equiv_pos_site_id
 _symmetry_equiv_pos_as_xyz
  1  'x, y, z'
loop_
 _atom_site_type_symbol
 _atom_site_label
 _atom_site_symmetry_multiplicity
 _atom_site_fract_x
 _atom_site_fract_y
 _atom_site_fract_z
 _atom_site_occupancy
  Ba  Ba0  1  0.16204700  0.64924800  0.83795300  1
  Ba  Ba1  1  0.64924800  0.16204700  0.35075200  1
  Ba  Ba2  1  0.83795300  0.35075200  0.16204700  1
  Ba  Ba3  1  0.35075200  0.83795300  0.64924800  1
  Pr  Pr0  1  0.00000000  0.50000000  0.00000000  1
  Pr  Pr1  1  0.50000000  0.00000000  0.50000000  1
  Cu  Cu0  1  0.57468000  0.07162300  0.92837700  1
  Cu  Cu1  1  0.07162300  0.57468000  0.42532000  1
  Cu  Cu2  1  0.42532000  0.92837700  0.07162300  1
  Cu  Cu3  1  0.92837700  0.42532000  0.57468000  1
  Cu  Cu4  1  0.26349000  0.73651000  0.26349000  1
  Cu  Cu5  1  0.73651000  0.26349000  0.73651000  1
  O  O0  1  0.69500500  0.15453300  0.84546700  1
  O  O1  1  0.15453300  0.69500500  0.30499500  1
  O  O2  1  0.30499500  0.84546700  0.15453300  1
  O  O3  1  0.84546700  0.30499500  0.69500500  1
  O  O4  1  0.31414400  0.31414400  0.18585600  1
  O  O5  1  0.81414400  0.81414400  0.68585600  1
  O  O6  1  0.31598000  0.31598000  0.68402000  1
  O  O7  1  0.81435600  0.81435600  0.18564400  1
  O  O8  1  0.18585600  0.18585600  0.31414400  1
  O  O9  1  0.68585600  0.68585600  0.81414400  1
  O  O10  1  0.18564400  0.18564400  0.81435600  1
  O  O11  1  0.68402000  0.68402000  0.31598000  1
  O  O12  1  0.50000000  0.50000000  0.50000000  1
loop_
_geom_bond_atom_site_label_1
_geom_bond_atom_site_label_2
_geom_bond_distance
_geom_bond_site_symmetry_2
Ba0 O1 2.751104 1_556
Ba0 O0 2.751104 1_465
Ba0 O6 2.877772 1_555
Ba0 O1 2.908157 1_555
Ba0 O0 2.908157 1_555
Ba0 O12 2.963224 1_555
Ba0 O5 2.966989 1_455
Ba0 O4 2.966989 1_556
Ba0 O7 2.973689 1_456
Ba1 O0 2.751104 1_554
Ba1 O1 2.751104 1_645
Ba1 O6 2.877772 1_555
Ba1 O0 2.908157 1_555
Ba1 O1 2.908157 1_555
Ba1 O12 2.963224 1_555
Ba1 O5 2.966989 1_545
Ba1 O4 2.966989 1_555
Ba1 O7 2.973689 1_545
Ba2 O3 2.751104 1_554
Ba2 O2 2.751104 1_645
Ba2 O11 2.877772 1_555
Ba2 O2 2.908157 1_555
Ba2 O3 2.908157 1_555
Ba2 O12 2.963224 1_555
Ba2 O8 2.966989 1_655
Ba2 O9 2.966989 1_554
Ba2 O10 2.973689 1_654
Ba3 O2 2.751104 1_556
Ba3 O3 2.751104 1_465
Ba3 O11 2.877772 1_555
Ba3 O2 2.908157 1_555
Ba3 O3 2.908157 1_555
Ba3 O12 2.963224 1_555
Ba3 O9 2.966989 1_555
Ba3 O8 2.966989 1_565
Ba3 O10 2.973689 1_565
Cu0 O4 1.966445 1_556
Cu0 O5 1.966445 1_545
Cu0 O7 1.987386 1_546
Cu0 O6 2.007827 1_555
Cu0 O0 2.449563 1_555
Cu1 O4 1.966445 1_555
Cu1 O5 1.966445 1_455
Cu1 O7 1.987386 1_455
Cu1 O6 2.007827 1_555
Cu1 O1 2.449563 1_555
Cu2 O9 1.966445 1_554
Cu2 O8 1.966445 1_565
Cu2 O10 1.987386 1_564
Cu2 O11 2.007827 1_555
Cu2 O2 2.449563 1_555
Cu3 O8 1.966445 1_655
Cu3 O9 1.966445 1_555
Cu3 O10 1.987386 1_655
Cu3 O11 2.007827 1_555
Cu3 O3 2.449563 1_555
Cu4 O2 1.829913 1_555
Cu4 O1 1.829913 1_555
Cu4 O12 1.880956 1_555
Cu5 O3 1.829913 1_555
Cu5 O0 1.829913 1_555
Cu5 O12 1.880956 1_555
O4 Pr1 2.516969 1_555
O4 Pr0 2.516969 1_555
O5 Pr1 2.516969 1_565
O5 Pr0 2.516969 1_656
O6 Pr0 2.517961 1_556
O6 Pr1 2.517961 1_555
O7 Pr1 2.493509 1_565
O7 Pr0 2.493509 1_655
O8 Pr0 2.516969 1_555
O8 Pr1 2.516969 1_555
O9 Pr1 2.516969 1_565
O9 Pr0 2.516969 1_656
O10 Pr1 2.493509 1_555
O10 Pr0 2.493509 1_556
O11 Pr0 2.517961 1_655
O11 Pr1 2.517961 1_565
