# generated using pymatgen
data_BaHS2O3
_symmetry_space_group_name_H-M   'P 1'
_cell_length_a   7.15359900
_cell_length_b   7.44298600
_cell_length_c   20.66357000
_cell_angle_alpha   90.00000000
_cell_angle_beta   90.00000000
_cell_angle_gamma   90.00000000
_symmetry_Int_Tables_number   1
_chemical_formula_structural   BaHS2O3
_chemical_formula_sum   'Ba8 H8 S16 O24'
_cell_volume   1100.21395626
_cell_formula_units_Z   8
loop_
 _symmetry_equiv_pos_site_id
 _symmetry_equiv_pos_as_xyz
  1  'x, y, z'
loop_
 _atom_site_type_symbol
 _atom_site_label
 _atom_site_symmetry_multiplicity
 _atom_site_fract_x
 _atom_site_fract_y
 _atom_site_fract_z
 _atom_site_occupancy
  Ba  Ba0  1  0.22343800  0.04396900  0.16737000  1
  Ba  Ba1  1  0.77656200  0.95603100  0.83263000  1
  Ba  Ba2  1  0.27656200  0.54396900  0.33263000  1
  Ba  Ba3  1  0.22343800  0.45603100  0.83263000  1
  Ba  Ba4  1  0.72343800  0.45603100  0.66737000  1
  Ba  Ba5  1  0.77656200  0.54396900  0.16737000  1
  Ba  Ba6  1  0.27656200  0.95603100  0.66737000  1
  Ba  Ba7  1  0.72343800  0.04396900  0.33263000  1
  H  H0  1  0.15978600  0.07392200  0.02511200  1
  H  H1  1  0.84021400  0.92607800  0.97488800  1
  H  H2  1  0.34021400  0.57392200  0.47488800  1
  H  H3  1  0.15978600  0.42607800  0.97488800  1
  H  H4  1  0.65978600  0.42607800  0.52511200  1
  H  H5  1  0.84021400  0.57392200  0.02511200  1
  H  H6  1  0.34021400  0.92607800  0.52511200  1
  H  H7  1  0.65978600  0.07392200  0.47488800  1
  S  S0  1  0.11213300  0.17329800  0.41519400  1
  S  S1  1  0.88786700  0.82670200  0.58480600  1
  S  S2  1  0.38786700  0.67329800  0.08480600  1
  S  S3  1  0.11213300  0.32670200  0.58480600  1
  S  S4  1  0.61213300  0.32670200  0.91519400  1
  S  S5  1  0.88786700  0.67329800  0.41519400  1
  S  S6  1  0.38786700  0.82670200  0.91519400  1
  S  S7  1  0.61213300  0.17329800  0.08480600  1
  S  S8  1  0.22953600  0.04663900  0.34119400  1
  S  S9  1  0.77046400  0.95336100  0.65880600  1
  S  S10  1  0.27046400  0.54663900  0.15880600  1
  S  S11  1  0.22953600  0.45336100  0.65880600  1
  S  S12  1  0.72953600  0.45336100  0.84119400  1
  S  S13  1  0.77046400  0.54663900  0.34119400  1
  S  S14  1  0.27046400  0.95336100  0.84119400  1
  S  S15  1  0.72953600  0.04663900  0.15880600  1
  O  O0  1  0.13823500  0.40341600  0.13660400  1
  O  O1  1  0.86176500  0.59658400  0.86339600  1
  O  O2  1  0.36176500  0.90341600  0.36339600  1
  O  O3  1  0.13823500  0.09658400  0.86339600  1
  O  O4  1  0.63823500  0.09658400  0.63660400  1
  O  O5  1  0.86176500  0.90341600  0.13660400  1
  O  O6  1  0.36176500  0.59658400  0.63660400  1
  O  O7  1  0.63823500  0.40341600  0.36339600  1
  O  O8  1  0.41461200  0.46477900  0.20263500  1
  O  O9  1  0.58538800  0.53522100  0.79736500  1
  O  O10  1  0.08538800  0.96477900  0.29736500  1
  O  O11  1  0.41461200  0.03522100  0.79736500  1
  O  O12  1  0.91461200  0.03522100  0.70263500  1
  O  O13  1  0.58538800  0.96477900  0.20263500  1
  O  O14  1  0.08538800  0.53522100  0.70263500  1
  O  O15  1  0.91461200  0.46477900  0.29736500  1
  O  O16  1  0.34002200  0.17918100  0.30097900  1
  O  O17  1  0.65997800  0.82081900  0.69902100  1
  O  O18  1  0.15997800  0.67918100  0.19902100  1
  O  O19  1  0.34002200  0.32081900  0.69902100  1
  O  O20  1  0.84002200  0.32081900  0.80097900  1
  O  O21  1  0.65997800  0.67918100  0.30097900  1
  O  O22  1  0.15997800  0.82081900  0.80097900  1
  O  O23  1  0.84002200  0.17918100  0.19902100  1
loop_
_geom_bond_atom_site_label_1
_geom_bond_atom_site_label_2
_geom_bond_distance
_geom_bond_site_symmetry_2
Ba0 O13 2.753652 1_545
Ba0 O0 2.816595 1_555
Ba0 O18 2.829428 1_545
Ba0 O5 2.862252 1_445
Ba0 O10 2.922007 1_545
Ba0 H0 2.982958 1_555
Ba0 O23 2.993914 1_455
Ba0 O16 3.054600 1_555
Ba0 S7 3.401295 1_555
Ba0 S2 3.450474 1_545
Ba1 O11 2.753652 1_565
Ba1 O1 2.816595 1_555
Ba1 O20 2.829428 1_565
Ba1 O3 2.862252 1_665
Ba1 O12 2.922007 1_565
Ba1 H1 2.982958 1_555
Ba1 O22 2.993914 1_655
Ba1 O17 3.054600 1_555
Ba1 S6 3.401295 1_555
Ba1 S4 3.450474 1_565
Ba2 O15 2.753652 1_455
Ba2 O2 2.816595 1_555
Ba2 O16 2.829428 1_555
Ba2 O7 2.862252 1_555
Ba2 O8 2.922007 1_555
Ba2 H2 2.982958 1_555
Ba2 O21 2.993914 1_555
Ba2 O18 3.054600 1_555
Ba2 S5 3.401295 1_455
Ba2 S0 3.450474 1_555
Ba3 O9 2.753652 1_555
Ba3 O3 2.816595 1_555
Ba3 O22 2.829428 1_555
Ba3 O1 2.862252 1_455
Ba3 O14 2.922007 1_555
Ba3 H3 2.982958 1_555
Ba3 O20 2.993914 1_455
Ba3 O19 3.054600 1_555
Ba3 S4 3.401295 1_555
Ba3 S6 3.450474 1_555
Ba4 O14 2.753652 1_655
Ba4 O4 2.816595 1_555
Ba4 O17 2.829428 1_555
Ba4 O6 2.862252 1_555
Ba4 O9 2.922007 1_555
Ba4 H4 2.982958 1_555
Ba4 O19 2.993914 1_555
Ba4 O20 3.054600 1_555
Ba4 S3 3.401295 1_655
Ba4 S1 3.450474 1_555
Ba5 O8 2.753652 1_555
Ba5 O5 2.816595 1_555
Ba5 O23 2.829428 1_555
Ba5 O0 2.862252 1_655
Ba5 O15 2.922007 1_555
Ba5 H5 2.982958 1_555
Ba5 O18 2.993914 1_655
Ba5 O21 3.054600 1_555
Ba5 S2 3.401295 1_555
Ba5 S7 3.450474 1_555
Ba6 O12 2.753652 1_465
Ba6 O6 2.816595 1_555
Ba6 O19 2.829428 1_565
Ba6 O4 2.862252 1_565
Ba6 O11 2.922007 1_565
Ba6 H6 2.982958 1_555
Ba6 O17 2.993914 1_555
Ba6 O22 3.054600 1_555
Ba6 S1 3.401295 1_455
Ba6 S3 3.450474 1_565
Ba7 O10 2.753652 1_645
Ba7 O7 2.816595 1_555
Ba7 O21 2.829428 1_545
Ba7 O2 2.862252 1_545
Ba7 O13 2.922007 1_545
Ba7 H7 2.982958 1_555
Ba7 O16 2.993914 1_555
Ba7 O23 3.054600 1_555
Ba7 S0 3.401295 1_655
Ba7 S5 3.450474 1_545
S0 S8 1.982987 1_555
S1 S9 1.982987 1_555
S10 S2 1.982987 1_555
S11 S3 1.982987 1_555
S12 S4 1.982987 1_555
S13 S5 1.982987 1_555
S14 S6 1.982987 1_555
S15 S7 1.982987 1_555
O0 S10 1.497196 1_555
O1 S12 1.497196 1_555
O2 S8 1.497196 1_565
O3 S14 1.497196 1_545
O4 S9 1.497196 1_545
O5 S15 1.497196 1_565
O6 S11 1.497196 1_555
O7 S13 1.497196 1_555
O8 S10 1.501592 1_555
O9 S12 1.501592 1_555
O10 S8 1.501592 1_565
O11 S14 1.501592 1_545
O12 S9 1.501592 1_545
O13 S15 1.501592 1_565
O14 S11 1.501592 1_555
O15 S13 1.501592 1_555
O16 S8 1.512754 1_555
O17 S9 1.512754 1_555
O18 S10 1.512754 1_555
O19 S11 1.512754 1_555
O20 S12 1.512754 1_555
O21 S13 1.512754 1_555
O22 S14 1.512754 1_555
O23 S15 1.512754 1_555
