# generated using pymatgen
data_PrGePd2
_symmetry_space_group_name_H-M   'P 1'
_cell_length_a   5.77632565
_cell_length_b   7.66259951
_cell_length_c   7.03370771
_cell_angle_alpha   90.00000000
_cell_angle_beta   90.00000000
_cell_angle_gamma   90.00000000
_symmetry_Int_Tables_number   1
_chemical_formula_structural   PrGePd2
_chemical_formula_sum   'Pr4 Ge4 Pd8'
_cell_volume   311.32365021
_cell_formula_units_Z   4
loop_
 _symmetry_equiv_pos_site_id
 _symmetry_equiv_pos_as_xyz
  1  'x, y, z'
loop_
 _atom_site_type_symbol
 _atom_site_label
 _atom_site_symmetry_multiplicity
 _atom_site_fract_x
 _atom_site_fract_y
 _atom_site_fract_z
 _atom_site_occupancy
  Pr  Pr0  1  0.84976627  0.53237807  0.25000000  1
  Pr  Pr1  1  0.65023373  0.03237807  0.25000000  1
  Pr  Pr2  1  0.15023373  0.46762193  0.75000000  1
  Pr  Pr3  1  0.34976627  0.96762193  0.75000000  1
  Ge  Ge0  1  0.15110073  0.87612904  0.25000000  1
  Ge  Ge1  1  0.34889927  0.37612904  0.25000000  1
  Ge  Ge2  1  0.84889927  0.12387096  0.75000000  1
  Ge  Ge3  1  0.65110073  0.62387096  0.75000000  1
  Pd  Pd0  1  0.41149570  0.67675786  0.05266854  1
  Pd  Pd1  1  0.08850430  0.17675686  0.44733146  1
  Pd  Pd2  1  0.58850430  0.32324314  0.55266854  1
  Pd  Pd3  1  0.91149570  0.82324214  0.94733146  1
  Pd  Pd4  1  0.58850430  0.32324314  0.94733146  1
  Pd  Pd5  1  0.91149570  0.82324214  0.55266854  1
  Pd  Pd6  1  0.41149570  0.67675786  0.44733146  1
  Pd  Pd7  1  0.08850430  0.17675686  0.05266854  1
loop_
_geom_bond_atom_site_label_1
_geom_bond_atom_site_label_2
_geom_bond_distance
_geom_bond_site_symmetry_2
Ge0 Pd0 2.553964 1_555
Ge0 Pd6 2.553964 1_555
Ge0 Pd5 2.571366 1_455
Ge0 Pd3 2.571366 1_454
Ge0 Pd7 2.713620 1_565
Ge0 Pd1 2.713620 1_565
Ge0 Pr1 3.121866 1_565
Ge0 Pr1 3.131118 1_465
Ge0 Pr0 3.157183 1_455
Ge1 Pd1 2.553969 1_555
Ge1 Pd7 2.553969 1_555
Ge1 Pd4 2.571365 1_554
Ge1 Pd2 2.571365 1_555
Ge1 Pd6 2.713627 1_555
Ge1 Pd0 2.713627 1_555
Ge1 Pr0 3.121866 1_455
Ge1 Pr0 3.131118 1_555
Ge1 Pr1 3.157183 1_555
Ge2 Pd4 2.553969 1_555
Ge2 Pd2 2.553969 1_555
Ge2 Pd7 2.571365 1_656
Ge2 Pd1 2.571365 1_655
Ge2 Pd5 2.713627 1_545
Ge2 Pd3 2.713627 1_545
Ge2 Pr3 3.121866 1_545
Ge2 Pr3 3.131118 1_645
Ge2 Pr2 3.157183 1_655
Ge3 Pd3 2.553964 1_555
Ge3 Pd5 2.553964 1_555
Ge3 Pd6 2.571366 1_555
Ge3 Pd0 2.571366 1_556
Ge3 Pd4 2.713620 1_555
Ge3 Pd2 2.713620 1_555
Ge3 Pr2 3.121866 1_655
Ge3 Pr2 3.131118 1_555
Ge3 Pr3 3.157183 1_555
Pd0 Pd6 2.775944 1_555
Pd0 Pd4 2.988678 1_554
Pd0 Pr2 3.062305 1_554
Pd0 Pr0 3.091826 1_555
Pd0 Pr3 3.102695 1_554
Pd0 Pd3 3.185958 1_554
Pd0 Pd3 3.185958 1_454
Pd0 Pr1 3.354650 1_565
Pd0 Pr0 3.698473 1_455
Pd1 Pd7 2.775944 1_555
Pd1 Pd5 2.988678 1_445
Pd1 Pr3 3.062301 1_545
Pd1 Pr1 3.091823 1_455
Pd1 Pr2 3.102701 1_555
Pd1 Pd2 3.185963 1_555
Pd1 Pd2 3.185963 1_455
Pd1 Pr0 3.354656 1_455
Pd1 Pr1 3.698471 1_555
Pd2 Pd4 2.775944 1_555
Pd2 Pd6 2.988678 1_555
Pd2 Pr0 3.062301 1_555
Pd2 Pr2 3.091823 1_555
Pd2 Pr1 3.102701 1_555
Pd2 Pr3 3.354656 1_545
Pd2 Pr2 3.698471 1_655
Pd3 Pd5 2.775944 1_555
Pd3 Pd7 2.988678 1_666
Pd3 Pr1 3.062305 1_566
Pd3 Pr3 3.091826 1_655
Pd3 Pr0 3.102695 1_556
Pd3 Pr2 3.354650 1_655
Pd3 Pr3 3.698473 1_555
Pd4 Pr0 3.062301 1_556
Pd4 Pr2 3.091823 1_555
Pd4 Pr1 3.102701 1_556
Pd4 Pd7 3.185963 1_556
Pd4 Pd7 3.185963 1_656
Pd4 Pr3 3.354656 1_545
Pd4 Pr2 3.698471 1_655
Pd5 Pr1 3.062305 1_565
Pd5 Pr3 3.091826 1_655
Pd5 Pr0 3.102695 1_555
Pd5 Pd6 3.185958 1_555
Pd5 Pd6 3.185958 1_655
Pd5 Pr2 3.354650 1_655
Pd5 Pr3 3.698473 1_555
Pd6 Pr2 3.062305 1_555
Pd6 Pr0 3.091826 1_555
Pd6 Pr3 3.102695 1_555
Pd6 Pr1 3.354650 1_565
Pd6 Pr0 3.698473 1_455
Pd7 Pr3 3.062301 1_544
Pd7 Pr1 3.091823 1_455
Pd7 Pr2 3.102701 1_554
Pd7 Pr0 3.354656 1_455
Pd7 Pr1 3.698471 1_555
