# generated using pymatgen
data_Tl3Mo4(P2O11)2
_symmetry_space_group_name_H-M   'P 1'
_cell_length_a   10.23610600
_cell_length_b   10.00151300
_cell_length_c   12.89970854
_cell_angle_alpha   49.84952197
_cell_angle_beta   90.00000000
_cell_angle_gamma   90.00000000
_symmetry_Int_Tables_number   1
_chemical_formula_structural   Tl3Mo4(P2O11)2
_chemical_formula_sum   'Tl6 Mo8 P8 O44'
_cell_volume   1009.42651070
_cell_formula_units_Z   2
loop_
 _symmetry_equiv_pos_site_id
 _symmetry_equiv_pos_as_xyz
  1  'x, y, z'
loop_
 _atom_site_type_symbol
 _atom_site_label
 _atom_site_symmetry_multiplicity
 _atom_site_fract_x
 _atom_site_fract_y
 _atom_site_fract_z
 _atom_site_occupancy
  Tl  Tl0  1  0.65259900  0.33158200  0.14185900  1
  Tl  Tl1  1  0.34740100  0.66841800  0.85814100  1
  Tl  Tl2  1  0.15259900  0.66841800  0.35814100  1
  Tl  Tl3  1  0.84740100  0.33158200  0.64185900  1
  Tl  Tl4  1  0.00000000  0.50000000  0.00000000  1
  Tl  Tl5  1  0.50000000  0.50000000  0.50000000  1
  Mo  Mo0  1  0.46316800  0.98167900  0.12289400  1
  Mo  Mo1  1  0.53683200  0.01832100  0.87710600  1
  Mo  Mo2  1  0.96316800  0.01832100  0.37710600  1
  Mo  Mo3  1  0.03683200  0.98167900  0.62289400  1
  Mo  Mo4  1  0.78322100  0.75232300  0.15861300  1
  Mo  Mo5  1  0.21677900  0.24767700  0.84138700  1
  Mo  Mo6  1  0.28322100  0.24767700  0.34138700  1
  Mo  Mo7  1  0.71677900  0.75232300  0.65861300  1
  P  P0  1  0.69653000  0.84746100  0.35491400  1
  P  P1  1  0.30347000  0.15253900  0.64508600  1
  P  P2  1  0.19653000  0.15253900  0.14508600  1
  P  P3  1  0.80347000  0.84746100  0.85491400  1
  P  P4  1  0.47479300  0.63179800  0.16177600  1
  P  P5  1  0.52520700  0.36820200  0.83822400  1
  P  P6  1  0.97479300  0.36820200  0.33822400  1
  P  P7  1  0.02520700  0.63179800  0.66177600  1
  O  O0  1  0.84014800  0.31645300  0.01482300  1
  O  O1  1  0.15985200  0.68354700  0.98517700  1
  O  O2  1  0.34014800  0.68354700  0.48517700  1
  O  O3  1  0.65985200  0.31645300  0.51482300  1
  O  O4  1  0.41024400  0.72673000  0.21132200  1
  O  O5  1  0.58975600  0.27327000  0.78867800  1
  O  O6  1  0.91024400  0.27327000  0.28867800  1
  O  O7  1  0.08975600  0.72673000  0.71132200  1
  O  O8  1  0.52131100  0.24436700  0.99732000  1
  O  O9  1  0.47868900  0.75563300  0.00268000  1
  O  O10  1  0.02131100  0.75563300  0.50268000  1
  O  O11  1  0.97868900  0.24436700  0.49732000  1
  O  O12  1  0.74040800  0.71974800  0.33221300  1
  O  O13  1  0.25959200  0.28025200  0.66778700  1
  O  O14  1  0.24040800  0.28025200  0.16778700  1
  O  O15  1  0.75959200  0.71974800  0.83221300  1
  O  O16  1  0.62815800  0.93791600  0.04801700  1
  O  O17  1  0.37184200  0.06208400  0.95198300  1
  O  O18  1  0.12815800  0.06208400  0.45198300  1
  O  O19  1  0.87184200  0.93791600  0.54801700  1
  O  O20  1  0.89886300  0.90709400  0.10606700  1
  O  O21  1  0.10113700  0.09290600  0.89393300  1
  O  O22  1  0.39886300  0.09290600  0.39393300  1
  O  O23  1  0.60113700  0.90709400  0.60606700  1
  O  O24  1  0.79224900  0.99928000  0.29960500  1
  O  O25  1  0.20775100  0.00072000  0.70039500  1
  O  O26  1  0.29224900  0.00072000  0.20039500  1
  O  O27  1  0.70775100  0.99928000  0.79960500  1
  O  O28  1  0.82215300  0.73367700  0.00969700  1
  O  O29  1  0.17784700  0.26632300  0.99030300  1
  O  O30  1  0.32215300  0.26632300  0.49030300  1
  O  O31  1  0.67784700  0.73367700  0.50969700  1
  O  O32  1  0.89088300  0.52669300  0.28894200  1
  O  O33  1  0.10911700  0.47330700  0.71105800  1
  O  O34  1  0.39088300  0.47330700  0.21105800  1
  O  O35  1  0.60911700  0.52669300  0.78894200  1
  O  O36  1  0.56460400  0.93415300  0.27899900  1
  O  O37  1  0.43539600  0.06584700  0.72100100  1
  O  O38  1  0.06460400  0.06584700  0.22100100  1
  O  O39  1  0.93539600  0.93415300  0.77899900  1
  O  O40  1  0.61552900  0.57991400  0.21605300  1
  O  O41  1  0.38447100  0.42008600  0.78394700  1
  O  O42  1  0.11552900  0.42008600  0.28394700  1
  O  O43  1  0.88447100  0.57991400  0.71605300  1
loop_
_geom_bond_atom_site_label_1
_geom_bond_atom_site_label_2
_geom_bond_distance
_geom_bond_site_symmetry_2
Mo0 O17 2.023586 1_564
Mo0 O36 2.030930 1_555
Mo0 O26 2.083790 1_565
Mo0 O4 2.084604 1_555
Mo0 O8 2.095820 1_564
Mo0 O16 2.126489 1_555
Mo1 O16 2.023586 1_546
Mo1 O37 2.030930 1_555
Mo1 O27 2.083790 1_545
Mo1 O5 2.084604 1_555
Mo1 O9 2.095820 1_546
Mo1 O17 2.126489 1_555
Mo2 O19 2.023586 1_545
Mo2 O38 2.030930 1_655
Mo2 O24 2.083790 1_545
Mo2 O6 2.084604 1_555
Mo2 O10 2.095820 1_645
Mo2 O18 2.126489 1_655
Mo3 O18 2.023586 1_565
Mo3 O39 2.030930 1_455
Mo3 O25 2.083790 1_565
Mo3 O7 2.084604 1_555
Mo3 O11 2.095820 1_465
Mo3 O19 2.126489 1_455
Mo4 O20 1.704022 1_555
Mo4 O32 2.059323 1_555
Mo4 O28 2.084637 1_555
Mo4 O12 2.090977 1_555
Mo4 O16 2.141292 1_555
Mo4 O40 2.195710 1_555
Mo5 O21 1.704022 1_555
Mo5 O33 2.059323 1_555
Mo5 O29 2.084637 1_555
Mo5 O13 2.090977 1_555
Mo5 O17 2.141292 1_555
Mo5 O41 2.195710 1_555
Mo6 O22 1.704022 1_555
Mo6 O34 2.059323 1_555
Mo6 O30 2.084637 1_555
Mo6 O14 2.090977 1_555
Mo6 O18 2.141292 1_555
Mo6 O42 2.195710 1_555
Mo7 O23 1.704022 1_555
Mo7 O35 2.059323 1_555
Mo7 O31 2.084637 1_555
Mo7 O15 2.090977 1_555
Mo7 O19 2.141292 1_555
Mo7 O43 2.195710 1_555
O0 Tl4 2.373018 1_655
O0 Tl0 2.591064 1_555
O1 Tl4 2.373018 1_556
O1 Tl1 2.591064 1_555
O2 Tl5 2.373018 1_555
O2 Tl2 2.591064 1_555
O3 Tl5 2.373018 1_555
O3 Tl3 2.591064 1_555
O4 P4 1.590313 1_555
O5 P5 1.590313 1_555
O6 P6 1.590313 1_555
O7 P7 1.590313 1_555
O8 P5 1.571472 1_555
O9 P4 1.571472 1_555
O10 P7 1.571472 1_555
O11 P6 1.571472 1_555
O12 P0 1.549646 1_555
O13 P1 1.549646 1_555
O14 P2 1.549646 1_555
O15 P3 1.549646 1_555
O24 P0 1.541930 1_555
O25 P1 1.541930 1_555
O26 P2 1.541930 1_555
O27 P3 1.541930 1_555
O28 P3 1.545328 1_554
O29 P2 1.545328 1_556
O30 P1 1.545328 1_555
O31 P0 1.545328 1_555
O32 P6 1.534610 1_555
O33 P7 1.534610 1_555
O34 P4 1.534610 1_555
O35 P5 1.534610 1_555
O36 P0 1.561856 1_555
O37 P1 1.561856 1_555
O38 P2 1.561856 1_555
O39 P3 1.561856 1_555
O40 P4 1.538262 1_555
O41 P5 1.538262 1_555
O42 P6 1.538262 1_455
O43 P7 1.538262 1_655
