# generated using pymatgen
data_Zr10CrSb5
_symmetry_space_group_name_H-M   'P 1'
_cell_length_a   5.58344700
_cell_length_b   8.41891553
_cell_length_c   8.41891553
_cell_angle_alpha   96.31297946
_cell_angle_beta   109.36600153
_cell_angle_gamma   70.63399847
_symmetry_Int_Tables_number   1
_chemical_formula_structural   Zr10CrSb5
_chemical_formula_sum   'Zr10 Cr1 Sb5'
_cell_volume   352.22849215
_cell_formula_units_Z   1
loop_
 _symmetry_equiv_pos_site_id
 _symmetry_equiv_pos_as_xyz
  1  'x, y, z'
loop_
 _atom_site_type_symbol
 _atom_site_label
 _atom_site_symmetry_multiplicity
 _atom_site_fract_x
 _atom_site_fract_y
 _atom_site_fract_z
 _atom_site_occupancy
  Zr  Zr0  1  0.41130800  0.86354800  0.70981600  1
  Zr  Zr1  1  0.56504000  0.13645200  0.29018400  1
  Zr  Zr2  1  0.93496000  0.29018400  0.13645200  1
  Zr  Zr3  1  0.08869200  0.70981600  0.86354800  1
  Zr  Zr4  1  0.70149200  0.70981600  0.13645200  1
  Zr  Zr5  1  0.27485600  0.29018400  0.86354800  1
  Zr  Zr6  1  0.79850800  0.13645200  0.70981600  1
  Zr  Zr7  1  0.22514400  0.86354800  0.29018400  1
  Zr  Zr8  1  0.25000000  0.50000000  0.50000000  1
  Zr  Zr9  1  0.75000000  0.50000000  0.50000000  1
  Cr  Cr0  1  0.25000000  0.00000000  0.00000000  1
  Sb  Sb0  1  0.33679400  0.50000000  0.17358800  1
  Sb  Sb1  1  0.66320600  0.50000000  0.82641200  1
  Sb  Sb2  1  0.83679400  0.82641200  0.50000000  1
  Sb  Sb3  1  0.16320600  0.17358800  0.50000000  1
  Sb  Sb4  1  0.75000000  0.00000000  0.00000000  1
loop_
_geom_bond_atom_site_label_1
_geom_bond_atom_site_label_2
_geom_bond_distance
_geom_bond_site_symmetry_2
Zr8 Zr9 2.791723 1_455
Zr8 Zr9 2.791723 1_555
Cr0 Sb4 2.791723 1_455
Cr0 Sb4 2.791723 1_555
Cr0 Zr6 2.873180 1_454
Cr0 Zr4 2.873180 1_545
Cr0 Zr1 2.873180 1_555
Cr0 Zr2 2.873180 1_455
Cr0 Zr3 2.873180 1_544
Cr0 Zr0 2.873180 1_544
Cr0 Zr5 2.873180 1_554
Cr0 Zr7 2.873180 1_545
Sb0 Zr9 2.944443 1_555
Sb0 Zr8 2.944443 1_555
Sb0 Zr5 2.974136 1_554
Sb0 Zr3 2.974136 1_554
Sb0 Zr7 3.033094 1_555
Sb0 Zr1 3.033094 1_555
Sb0 Zr2 3.208357 1_455
Sb0 Zr4 3.208357 1_555
Sb0 Zr4 3.321280 1_455
Sb0 Zr2 3.321280 1_555
Sb1 Zr8 2.944443 1_555
Sb1 Zr9 2.944443 1_555
Sb1 Zr2 2.974136 1_556
Sb1 Zr4 2.974136 1_556
Sb1 Zr0 3.033094 1_555
Sb1 Zr6 3.033094 1_555
Sb1 Zr5 3.208357 1_655
Sb1 Zr3 3.208357 1_555
Sb1 Zr3 3.321280 1_655
Sb1 Zr5 3.321280 1_555
Sb2 Zr8 2.944443 1_655
Sb2 Zr9 2.944443 1_555
Sb2 Zr1 2.974136 1_565
Sb2 Zr6 2.974136 1_565
Sb2 Zr3 3.033094 1_655
Sb2 Zr4 3.033094 1_555
Sb2 Zr7 3.208357 1_555
Sb2 Zr0 3.208357 1_655
Sb2 Zr0 3.321280 1_555
Sb2 Zr7 3.321280 1_655
Sb3 Zr9 2.944443 1_455
Sb3 Zr8 2.944443 1_555
Sb3 Zr7 2.974136 1_545
Sb3 Zr0 2.974136 1_545
Sb3 Zr5 3.033094 1_555
Sb3 Zr2 3.033094 1_455
Sb3 Zr1 3.208357 1_555
Sb3 Zr6 3.208357 1_455
Sb3 Zr6 3.321280 1_555
Sb3 Zr1 3.321280 1_455
Sb4 Zr7 2.936637 1_645
Sb4 Zr5 2.936637 1_554
Sb4 Zr0 2.936637 1_544
Sb4 Zr3 2.936637 1_644
Sb4 Zr2 2.936637 1_555
Sb4 Zr1 2.936637 1_555
Sb4 Zr6 2.936637 1_554
Sb4 Zr4 2.936637 1_545
