# generated using pymatgen
data_Na2AgAuCl6
_symmetry_space_group_name_H-M   'P 1'
_cell_length_a   7.20781802
_cell_length_b   7.20781802
_cell_length_c   7.20781802
_cell_angle_alpha   60.00000000
_cell_angle_beta   60.00000000
_cell_angle_gamma   60.00000000
_symmetry_Int_Tables_number   1
_chemical_formula_structural   Na2AgAuCl6
_chemical_formula_sum   'Na2 Ag1 Au1 Cl6'
_cell_volume   264.78686759
_cell_formula_units_Z   1
loop_
 _symmetry_equiv_pos_site_id
 _symmetry_equiv_pos_as_xyz
  1  'x, y, z'
loop_
 _atom_site_type_symbol
 _atom_site_label
 _atom_site_symmetry_multiplicity
 _atom_site_fract_x
 _atom_site_fract_y
 _atom_site_fract_z
 _atom_site_occupancy
  Na  Na0  1  0.75000000  0.75000000  0.75000000  1
  Na  Na1  1  0.25000000  0.25000000  0.25000000  1
  Ag  Ag0  1  0.50000000  0.50000000  0.50000000  1
  Au  Au0  1  0.00000000  0.00000000  0.00000000  1
  Cl  Cl0  1  0.75208700  0.24791300  0.24791300  1
  Cl  Cl1  1  0.24791300  0.24791300  0.75208700  1
  Cl  Cl2  1  0.24791300  0.75208700  0.75208700  1
  Cl  Cl3  1  0.24791300  0.75208700  0.24791300  1
  Cl  Cl4  1  0.75208700  0.24791300  0.75208700  1
  Cl  Cl5  1  0.75208700  0.75208700  0.24791300  1
loop_
_geom_bond_atom_site_label_1
_geom_bond_atom_site_label_2
_geom_bond_distance
_geom_bond_site_symmetry_2
Ag0 Cl5 2.569622 1_555
Ag0 Cl2 2.569622 1_555
Ag0 Cl4 2.569622 1_555
Ag0 Cl0 2.569622 1_555
Ag0 Cl3 2.569622 1_555
Ag0 Cl1 2.569622 1_555
Au0 Cl0 2.527075 1_455
Au0 Cl3 2.527075 1_545
Au0 Cl1 2.527075 1_554
Au0 Cl5 2.527075 1_445
Au0 Cl2 2.527075 1_544
Au0 Cl4 2.527075 1_454
