# generated using pymatgen
data_BaGaCu3Se4
_symmetry_space_group_name_H-M   'P 1'
_cell_length_a   6.22956600
_cell_length_b   6.22956600
_cell_length_c   6.22956600
_cell_angle_alpha   90.00000000
_cell_angle_beta   90.00000000
_cell_angle_gamma   90.00000000
_symmetry_Int_Tables_number   1
_chemical_formula_structural   BaGaCu3Se4
_chemical_formula_sum   'Ba1 Ga1 Cu3 Se4'
_cell_volume   241.75383612
_cell_formula_units_Z   1
loop_
 _symmetry_equiv_pos_site_id
 _symmetry_equiv_pos_as_xyz
  1  'x, y, z'
loop_
 _atom_site_type_symbol
 _atom_site_label
 _atom_site_symmetry_multiplicity
 _atom_site_fract_x
 _atom_site_fract_y
 _atom_site_fract_z
 _atom_site_occupancy
  Ba  Ba0  1  0.50000000  0.50000000  0.50000000  1
  Ga  Ga0  1  0.00000000  0.00000000  0.00000000  1
  Cu  Cu0  1  0.00000000  0.50000000  0.00000000  1
  Cu  Cu1  1  0.00000000  0.00000000  0.50000000  1
  Cu  Cu2  1  0.50000000  0.00000000  0.00000000  1
  Se  Se0  1  0.21999100  0.21999100  0.21999100  1
  Se  Se1  1  0.78000900  0.78000900  0.21999100  1
  Se  Se2  1  0.21999100  0.78000900  0.78000900  1
  Se  Se3  1  0.78000900  0.21999100  0.78000900  1
loop_
_geom_bond_atom_site_label_1
_geom_bond_atom_site_label_2
_geom_bond_distance
_geom_bond_site_symmetry_2
Ba0 Se1 3.021276 1_555
Ba0 Se3 3.021276 1_555
Ba0 Se2 3.021276 1_555
Ba0 Se0 3.021276 1_555
Ga0 Se2 2.373686 1_544
Ga0 Se1 2.373686 1_445
Ga0 Se0 2.373686 1_555
Ga0 Se3 2.373686 1_454
Cu0 Se2 2.607482 1_554
Cu0 Se1 2.607482 1_455
Cu0 Se0 2.607482 1_555
Cu0 Se3 2.607482 1_454
Cu1 Se1 2.607482 1_445
Cu1 Se2 2.607482 1_545
Cu1 Se3 2.607482 1_455
Cu1 Se0 2.607482 1_555
Cu2 Se1 2.607482 1_545
Cu2 Se0 2.607482 1_555
Cu2 Se3 2.607482 1_554
Cu2 Se2 2.607482 1_544
