# generated using pymatgen
data_CuH2(CO2)2
_symmetry_space_group_name_H-M   'P 1'
_cell_length_a   6.46978600
_cell_length_b   8.73128600
_cell_length_c   14.59514000
_cell_angle_alpha   90.00000000
_cell_angle_beta   90.00000000
_cell_angle_gamma   90.00000000
_symmetry_Int_Tables_number   1
_chemical_formula_structural   CuH2(CO2)2
_chemical_formula_sum   'Cu8 H16 C16 O32'
_cell_volume   824.47291888
_cell_formula_units_Z   8
loop_
 _symmetry_equiv_pos_site_id
 _symmetry_equiv_pos_as_xyz
  1  'x, y, z'
loop_
 _atom_site_type_symbol
 _atom_site_label
 _atom_site_symmetry_multiplicity
 _atom_site_fract_x
 _atom_site_fract_y
 _atom_site_fract_z
 _atom_site_occupancy
  Cu  Cu0  1  0.49560200  0.94509000  0.61557900  1
  Cu  Cu1  1  0.50439800  0.55491000  0.11557900  1
  Cu  Cu2  1  0.00439800  0.44509000  0.38442100  1
  Cu  Cu3  1  0.99560200  0.05491000  0.88442100  1
  Cu  Cu4  1  0.50439800  0.05491000  0.38442100  1
  Cu  Cu5  1  0.49560200  0.44509000  0.88442100  1
  Cu  Cu6  1  0.99560200  0.55491000  0.61557900  1
  Cu  Cu7  1  0.00439800  0.94509000  0.11557900  1
  H  H0  1  0.54991500  0.67554800  0.46013500  1
  H  H1  1  0.45008500  0.82445200  0.96013500  1
  H  H2  1  0.95008500  0.17554800  0.53986500  1
  H  H3  1  0.04991500  0.32445200  0.03986500  1
  H  H4  1  0.45008500  0.32445200  0.53986500  1
  H  H5  1  0.54991500  0.17554800  0.03986500  1
  H  H6  1  0.04991500  0.82445200  0.46013500  1
  H  H7  1  0.95008500  0.67554800  0.96013500  1
  H  H8  1  0.66097400  0.75489600  0.75563100  1
  H  H9  1  0.33902600  0.74510400  0.25563100  1
  H  H10  1  0.83902600  0.25489600  0.24436900  1
  H  H11  1  0.16097400  0.24510400  0.74436900  1
  H  H12  1  0.33902600  0.24510400  0.24436900  1
  H  H13  1  0.66097400  0.25489600  0.74436900  1
  H  H14  1  0.16097400  0.74510400  0.75563100  1
  H  H15  1  0.83902600  0.75489600  0.25563100  1
  C  C0  1  0.65680400  0.66525600  0.51865800  1
  C  C1  1  0.34319600  0.83474400  0.01865800  1
  C  C2  1  0.84319600  0.16525600  0.48134200  1
  C  C3  1  0.15680400  0.33474400  0.98134200  1
  C  C4  1  0.34319600  0.33474400  0.48134200  1
  C  C5  1  0.65680400  0.16525600  0.98134200  1
  C  C6  1  0.15680400  0.83474400  0.51865800  1
  C  C7  1  0.84319600  0.66525600  0.01865800  1
  C  C8  1  0.73206600  0.86744500  0.76914300  1
  C  C9  1  0.26793400  0.63255500  0.26914300  1
  C  C10  1  0.76793400  0.36744500  0.23085700  1
  C  C11  1  0.23206600  0.13255500  0.73085700  1
  C  C12  1  0.26793400  0.13255500  0.23085700  1
  C  C13  1  0.73206600  0.36744500  0.73085700  1
  C  C14  1  0.23206600  0.63255500  0.76914300  1
  C  C15  1  0.76793400  0.86744500  0.26914300  1
  O  O0  1  0.63602300  0.74642100  0.58986700  1
  O  O1  1  0.36397700  0.75357900  0.08986700  1
  O  O2  1  0.86397700  0.24642100  0.41013300  1
  O  O3  1  0.13602300  0.25357900  0.91013300  1
  O  O4  1  0.36397700  0.25357900  0.41013300  1
  O  O5  1  0.63602300  0.24642100  0.91013300  1
  O  O6  1  0.13602300  0.75357900  0.58986700  1
  O  O7  1  0.86397700  0.74642100  0.08986700  1
  O  O8  1  0.69838400  0.97848500  0.71480500  1
  O  O9  1  0.30161600  0.52151500  0.21480500  1
  O  O10  1  0.80161600  0.47848500  0.28519500  1
  O  O11  1  0.19838400  0.02151500  0.78519500  1
  O  O12  1  0.30161600  0.02151500  0.28519500  1
  O  O13  1  0.69838400  0.47848500  0.78519500  1
  O  O14  1  0.19838400  0.52151500  0.71480500  1
  O  O15  1  0.80161600  0.97848500  0.21480500  1
  O  O16  1  0.69786100  0.06704800  0.48972300  1
  O  O17  1  0.30213900  0.43295200  0.98972300  1
  O  O18  1  0.80213900  0.56704800  0.51027700  1
  O  O19  1  0.19786100  0.93295200  0.01027700  1
  O  O20  1  0.30213900  0.93295200  0.51027700  1
  O  O21  1  0.69786100  0.56704800  0.01027700  1
  O  O22  1  0.19786100  0.43295200  0.48972300  1
  O  O23  1  0.80213900  0.06704800  0.98972300  1
  O  O24  1  0.65466700  0.87353800  0.34042900  1
  O  O25  1  0.34533300  0.62646200  0.84042900  1
  O  O26  1  0.84533300  0.37353800  0.65957100  1
  O  O27  1  0.15466700  0.12646200  0.15957100  1
  O  O28  1  0.34533300  0.12646200  0.65957100  1
  O  O29  1  0.65466700  0.37353800  0.15957100  1
  O  O30  1  0.15466700  0.62646200  0.34042900  1
  O  O31  1  0.84533300  0.87353800  0.84042900  1
loop_
_geom_bond_atom_site_label_1
_geom_bond_atom_site_label_2
_geom_bond_distance
_geom_bond_site_symmetry_2
Cu0 O28 1.966028 1_565
Cu0 O8 1.975748 1_555
Cu0 O20 1.984930 1_555
Cu0 O0 1.993778 1_555
Cu0 O16 2.494077 1_565
Cu1 O29 1.966028 1_555
Cu1 O9 1.975748 1_555
Cu1 O21 1.984930 1_555
Cu1 O1 1.993778 1_555
Cu1 O17 2.494077 1_554
Cu2 O30 1.966028 1_555
Cu2 O10 1.975748 1_455
Cu2 O22 1.984930 1_555
Cu2 O2 1.993778 1_455
Cu2 O18 2.494077 1_455
Cu3 O31 1.966028 1_545
Cu3 O11 1.975748 1_655
Cu3 O23 1.984930 1_555
Cu3 O3 1.993778 1_655
Cu3 O19 2.494077 1_646
Cu4 O24 1.966028 1_545
Cu4 O12 1.975748 1_555
Cu4 O16 1.984930 1_555
Cu4 O4 1.993778 1_555
Cu4 O20 2.494077 1_545
Cu5 O25 1.966028 1_555
Cu5 O13 1.975748 1_555
Cu5 O17 1.984930 1_555
Cu5 O5 1.993778 1_555
Cu5 O21 2.494077 1_556
Cu6 O26 1.966028 1_555
Cu6 O14 1.975748 1_655
Cu6 O18 1.984930 1_555
Cu6 O6 1.993778 1_655
Cu6 O22 2.494077 1_655
Cu7 O27 1.966028 1_565
Cu7 O15 1.975748 1_455
Cu7 O19 1.984930 1_555
Cu7 O7 1.993778 1_455
Cu7 O23 2.494077 1_464
C0 H0 1.102674 1_555
C0 O0 1.265090 1_555
C0 O18 1.278427 1_555
C1 H1 1.102674 1_554
C1 O1 1.265090 1_555
C1 O19 1.278427 1_555
C2 H2 1.102674 1_555
C2 O2 1.265090 1_555
C2 O16 1.278427 1_555
C3 H3 1.102674 1_556
C3 O3 1.265090 1_555
C3 O17 1.278427 1_555
C4 H4 1.102674 1_555
C4 O4 1.265090 1_555
C4 O22 1.278427 1_555
C5 H5 1.102674 1_556
C5 O5 1.265090 1_555
C5 O23 1.278427 1_555
C6 H6 1.102674 1_555
C6 O6 1.265090 1_555
C6 O20 1.278427 1_555
C7 H7 1.102674 1_554
C7 O7 1.265090 1_555
C7 O21 1.278427 1_555
C8 H8 1.102787 1_555
C8 O8 1.271386 1_555
C8 O31 1.273710 1_555
C9 H9 1.102787 1_555
C9 O9 1.271386 1_555
C9 O30 1.273710 1_555
C10 H10 1.102787 1_555
C10 O10 1.271386 1_555
C10 O29 1.273710 1_555
C11 H11 1.102787 1_555
C11 O11 1.271386 1_555
C11 O28 1.273710 1_555
C12 H12 1.102787 1_555
C12 O12 1.271386 1_555
C12 O27 1.273710 1_555
C13 H13 1.102787 1_555
C13 O13 1.271386 1_555
C13 O26 1.273710 1_555
C14 H14 1.102787 1_555
C14 O14 1.271386 1_555
C14 O25 1.273710 1_555
C15 H15 1.102787 1_555
C15 O15 1.271386 1_555
C15 O24 1.273710 1_555
