# generated using pymatgen
data_Zr4FeSe8
_symmetry_space_group_name_H-M   'P 1'
_cell_length_a   7.31357174
_cell_length_b   7.31357174
_cell_length_c   9.03920754
_cell_angle_alpha   53.54459267
_cell_angle_beta   53.54459267
_cell_angle_gamma   61.92547356
_symmetry_Int_Tables_number   1
_chemical_formula_structural   Zr4FeSe8
_chemical_formula_sum   'Zr4 Fe1 Se8'
_cell_volume   307.57870132
_cell_formula_units_Z   1
loop_
 _symmetry_equiv_pos_site_id
 _symmetry_equiv_pos_as_xyz
  1  'x, y, z'
loop_
 _atom_site_type_symbol
 _atom_site_label
 _atom_site_symmetry_multiplicity
 _atom_site_fract_x
 _atom_site_fract_y
 _atom_site_fract_z
 _atom_site_occupancy
  Zr  Zr0  1  0.24615800  0.24615800  0.00496100  1
  Zr  Zr1  1  0.75384200  0.75384200  0.99503900  1
  Zr  Zr2  1  0.75694300  0.24305700  0.50000000  1
  Zr  Zr3  1  0.24305700  0.75694300  0.50000000  1
  Fe  Fe0  1  0.00000000  0.00000000  0.00000000  1
  Se  Se0  1  0.28707000  0.28707000  0.66745300  1
  Se  Se1  1  0.78734600  0.78734600  0.66668000  1
  Se  Se2  1  0.28390300  0.78598600  0.16586800  1
  Se  Se3  1  0.78598600  0.28390300  0.16586800  1
  Se  Se4  1  0.21401400  0.71609700  0.83413200  1
  Se  Se5  1  0.71609700  0.21401400  0.83413200  1
  Se  Se6  1  0.21265400  0.21265400  0.33332000  1
  Se  Se7  1  0.71293000  0.71293000  0.33254700  1
loop_
_geom_bond_atom_site_label_1
_geom_bond_atom_site_label_2
_geom_bond_distance
_geom_bond_site_symmetry_2
Fe0 Se2 2.619317 1_545
Fe0 Se3 2.619317 1_455
Fe0 Se4 2.619317 1_544
Fe0 Se5 2.619317 1_454
Fe0 Se7 2.645862 1_445
Fe0 Se0 2.645862 1_554
Se0 Zr0 2.720498 1_556
Se0 Zr2 2.749595 1_555
Se0 Zr3 2.749595 1_555
Se1 Zr3 2.675927 1_655
Se1 Zr2 2.675927 1_565
Se1 Zr1 2.694001 1_555
Se2 Zr0 2.702547 1_565
Se2 Zr3 2.735251 1_555
Se2 Zr1 2.759726 1_554
Se3 Zr0 2.702547 1_655
Se3 Zr2 2.735251 1_555
Se3 Zr1 2.759726 1_554
Se4 Zr1 2.702547 1_455
Se4 Zr3 2.735251 1_555
Se4 Zr0 2.759726 1_556
Se5 Zr1 2.702547 1_545
Se5 Zr2 2.735251 1_555
Se5 Zr0 2.759726 1_556
Se6 Zr2 2.675927 1_455
Se6 Zr3 2.675927 1_545
Se6 Zr0 2.694001 1_555
Se7 Zr1 2.720498 1_554
Se7 Zr2 2.749595 1_555
Se7 Zr3 2.749595 1_555
