# generated using pymatgen
data_Eu3Zn2(CuP2)2
_symmetry_space_group_name_H-M   'P 1'
_cell_length_a   4.09380464
_cell_length_b   4.09380464
_cell_length_c   15.01787600
_cell_angle_alpha   90.00000000
_cell_angle_beta   90.00000000
_cell_angle_gamma   120.00001033
_symmetry_Int_Tables_number   1
_chemical_formula_structural   Eu3Zn2(CuP2)2
_chemical_formula_sum   'Eu3 Zn2 Cu2 P4'
_cell_volume   217.96829558
_cell_formula_units_Z   1
loop_
 _symmetry_equiv_pos_site_id
 _symmetry_equiv_pos_as_xyz
  1  'x, y, z'
loop_
 _atom_site_type_symbol
 _atom_site_label
 _atom_site_symmetry_multiplicity
 _atom_site_fract_x
 _atom_site_fract_y
 _atom_site_fract_z
 _atom_site_occupancy
  Eu  Eu0  1  0.00000000  0.00000000  0.00000000  1
  Eu  Eu1  1  0.00000000  0.00000000  0.27269400  1
  Eu  Eu2  1  0.00000000  0.00000000  0.72730600  1
  Zn  Zn0  1  0.66666700  0.33333300  0.56010500  1
  Zn  Zn1  1  0.33333300  0.66666700  0.43989500  1
  Cu  Cu0  1  0.66666700  0.33333300  0.13649400  1
  Cu  Cu1  1  0.33333300  0.66666700  0.86350600  1
  P  P0  1  0.66666700  0.33333300  0.86406600  1
  P  P1  1  0.33333300  0.66666700  0.13593400  1
  P  P2  1  0.66666700  0.33333300  0.39337300  1
  P  P3  1  0.33333300  0.66666700  0.60662700  1
loop_
_geom_bond_atom_site_label_1
_geom_bond_atom_site_label_2
_geom_bond_distance
_geom_bond_site_symmetry_2
Eu0 P0 3.123120 1_454
Eu0 P1 3.123120 1_545
Eu0 P0 3.123122 1_444
Eu0 P1 3.123122 1_445
Eu0 P0 3.123122 1_554
Eu0 P1 3.123122 1_555
Eu1 P2 2.978420 1_455
Eu1 P2 2.978423 1_445
Eu1 P2 2.978423 1_555
Eu1 P1 3.131243 1_545
Eu1 P1 3.131245 1_445
Eu1 P1 3.131245 1_555
Eu2 P3 2.978420 1_545
Eu2 P3 2.978423 1_445
Eu2 P3 2.978423 1_555
Eu2 P0 3.131243 1_455
Eu2 P0 3.131245 1_555
Eu2 P0 3.131245 1_445
Cu0 P1 2.363572 1_545
Cu0 P1 2.363572 1_655
Cu0 P1 2.363579 1_555
Cu0 Eu1 3.125733 1_655
Cu0 Eu1 3.125735 1_665
Cu0 Eu1 3.125735 1_555
Cu0 Eu0 3.128624 1_655
Cu0 Eu0 3.128626 1_665
Cu0 Eu0 3.128626 1_555
Cu1 P0 2.363572 1_455
Cu1 P0 2.363572 1_565
Cu1 P0 2.363579 1_555
Cu1 Eu2 3.125733 1_565
Cu1 Eu2 3.125735 1_665
Cu1 Eu2 3.125735 1_555
Cu1 Eu0 3.128624 1_566
Cu1 Eu0 3.128626 1_666
Cu1 Eu0 3.128626 1_556
P2 Zn1 2.464656 1_545
P2 Zn1 2.464656 1_655
P2 Zn1 2.464663 1_555
P2 Zn0 2.503961 1_555
P3 Zn0 2.464656 1_455
P3 Zn0 2.464656 1_565
P3 Zn0 2.464663 1_555
P3 Zn1 2.503961 1_555
