# generated using pymatgen
data_CdP2(HO2)4
_symmetry_space_group_name_H-M   'P 1'
_cell_length_a   10.35629650
_cell_length_b   10.35629650
_cell_length_c   10.35629678
_cell_angle_alpha   94.98998350
_cell_angle_beta   94.98998350
_cell_angle_gamma   94.98998192
_symmetry_Int_Tables_number   1
_chemical_formula_structural   CdP2(HO2)4
_chemical_formula_sum   'Cd6 P12 H24 O48'
_cell_volume   1097.32514838
_cell_formula_units_Z   6
loop_
 _symmetry_equiv_pos_site_id
 _symmetry_equiv_pos_as_xyz
  1  'x, y, z'
loop_
 _atom_site_type_symbol
 _atom_site_label
 _atom_site_symmetry_multiplicity
 _atom_site_fract_x
 _atom_site_fract_y
 _atom_site_fract_z
 _atom_site_occupancy
  Cd  Cd0  1  0.66098800  0.27984500  0.86703800  1
  Cd  Cd1  1  0.86703800  0.66098800  0.27984500  1
  Cd  Cd2  1  0.27984500  0.86703800  0.66098800  1
  Cd  Cd3  1  0.33901200  0.72015500  0.13296200  1
  Cd  Cd4  1  0.13296200  0.33901200  0.72015500  1
  Cd  Cd5  1  0.72015500  0.13296200  0.33901200  1
  P  P0  1  0.39240500  0.02132000  0.28405200  1
  P  P1  1  0.28405200  0.39240500  0.02132000  1
  P  P2  1  0.02132000  0.28405200  0.39240500  1
  P  P3  1  0.60759500  0.97868000  0.71594800  1
  P  P4  1  0.71594800  0.60759500  0.97868000  1
  P  P5  1  0.97868000  0.71594800  0.60759500  1
  P  P6  1  0.21781400  0.10937700  0.47977900  1
  P  P7  1  0.47977900  0.21781400  0.10937700  1
  P  P8  1  0.10937700  0.47977900  0.21781400  1
  P  P9  1  0.78218600  0.89062300  0.52022100  1
  P  P10  1  0.52022100  0.78218600  0.89062300  1
  P  P11  1  0.89062300  0.52022100  0.78218600  1
  H  H0  1  0.75743800  0.32605000  0.56748600  1
  H  H1  1  0.56748600  0.75743800  0.32605000  1
  H  H2  1  0.32605000  0.56748600  0.75743800  1
  H  H3  1  0.24256200  0.67395000  0.43251400  1
  H  H4  1  0.43251400  0.24256200  0.67395000  1
  H  H5  1  0.67395000  0.43251400  0.24256200  1
  H  H6  1  0.53511700  0.60908000  0.30013600  1
  H  H7  1  0.30013600  0.53511700  0.60908000  1
  H  H8  1  0.60908000  0.30013600  0.53511700  1
  H  H9  1  0.46488300  0.39092000  0.69986400  1
  H  H10  1  0.69986400  0.46488300  0.39092000  1
  H  H11  1  0.39092000  0.69986400  0.46488300  1
  H  H12  1  0.29372900  0.06870300  0.87580900  1
  H  H13  1  0.87580900  0.29372900  0.06870300  1
  H  H14  1  0.06870300  0.87580900  0.29372900  1
  H  H15  1  0.70627100  0.93129700  0.12419100  1
  H  H16  1  0.12419100  0.70627100  0.93129700  1
  H  H17  1  0.93129700  0.12419100  0.70627100  1
  H  H18  1  0.85367300  0.95395400  0.17575400  1
  H  H19  1  0.17575400  0.85367300  0.95395400  1
  H  H20  1  0.95395400  0.17575400  0.85367300  1
  H  H21  1  0.14632700  0.04604600  0.82424600  1
  H  H22  1  0.82424600  0.14632700  0.04604600  1
  H  H23  1  0.04604600  0.82424600  0.14632700  1
  O  O0  1  0.90347200  0.25102600  0.29618000  1
  O  O1  1  0.29618000  0.90347200  0.25102600  1
  O  O2  1  0.25102600  0.29618000  0.90347200  1
  O  O3  1  0.09652800  0.74897400  0.70382000  1
  O  O4  1  0.70382000  0.09652800  0.74897400  1
  O  O5  1  0.74897400  0.70382000  0.09652800  1
  O  O6  1  0.99749400  0.67070300  0.46929800  1
  O  O7  1  0.46929800  0.99749400  0.67070300  1
  O  O8  1  0.67070300  0.46929800  0.99749400  1
  O  O9  1  0.00250600  0.32929700  0.53070200  1
  O  O10  1  0.53070200  0.00250600  0.32929700  1
  O  O11  1  0.32929700  0.53070200  0.00250600  1
  O  O12  1  0.20503600  0.59799000  0.25547500  1
  O  O13  1  0.25547500  0.20503600  0.59799000  1
  O  O14  1  0.59799000  0.25547500  0.20503600  1
  O  O15  1  0.79496400  0.40201000  0.74452500  1
  O  O16  1  0.74452500  0.79496400  0.40201000  1
  O  O17  1  0.40201000  0.74452500  0.79496400  1
  O  O18  1  0.96962300  0.49846100  0.17796200  1
  O  O19  1  0.17796200  0.96962300  0.49846100  1
  O  O20  1  0.49846100  0.17796200  0.96962300  1
  O  O21  1  0.03037700  0.50153900  0.82203800  1
  O  O22  1  0.82203800  0.03037700  0.50153900  1
  O  O23  1  0.50153900  0.82203800  0.03037700  1
  O  O24  1  0.39084200  0.33825500  0.12141100  1
  O  O25  1  0.12141100  0.39084200  0.33825500  1
  O  O26  1  0.33825500  0.12141100  0.39084200  1
  O  O27  1  0.60915800  0.66174500  0.87858900  1
  O  O28  1  0.87858900  0.60915800  0.66174500  1
  O  O29  1  0.66174500  0.87858900  0.60915800  1
  O  O30  1  0.38565200  0.10282600  0.15758700  1
  O  O31  1  0.15758700  0.38565200  0.10282600  1
  O  O32  1  0.10282600  0.15758700  0.38565200  1
  O  O33  1  0.61434800  0.89717400  0.84241300  1
  O  O34  1  0.84241300  0.61434800  0.89717400  1
  O  O35  1  0.89717400  0.84241300  0.61434800  1
  O  O36  1  0.49229600  0.69042400  0.30940100  1
  O  O37  1  0.30940100  0.49229600  0.69042400  1
  O  O38  1  0.69042400  0.30940100  0.49229600  1
  O  O39  1  0.50770400  0.30957600  0.69059900  1
  O  O40  1  0.69059900  0.50770400  0.30957600  1
  O  O41  1  0.30957600  0.69059900  0.50770400  1
  O  O42  1  0.00053100  0.15186900  0.77716200  1
  O  O43  1  0.77716200  0.00053100  0.15186900  1
  O  O44  1  0.15186900  0.77716200  0.00053100  1
  O  O45  1  0.99946900  0.84813100  0.22283800  1
  O  O46  1  0.22283800  0.99946900  0.84813100  1
  O  O47  1  0.84813100  0.22283800  0.99946900  1
loop_
_geom_bond_atom_site_label_1
_geom_bond_atom_site_label_2
_geom_bond_distance
_geom_bond_site_symmetry_2
Cd0 O4 2.265624 1_555
Cd0 O8 2.272856 1_555
Cd0 O20 2.296132 1_555
Cd0 O15 2.327175 1_555
Cd0 O39 2.373177 1_555
Cd0 O47 2.421428 1_555
Cd1 O5 2.265624 1_555
Cd1 O6 2.272856 1_555
Cd1 O18 2.296131 1_555
Cd1 O16 2.327175 1_555
Cd1 O40 2.373177 1_555
Cd1 O45 2.421428 1_555
Cd2 O3 2.265624 1_555
Cd2 O7 2.272856 1_555
Cd2 O19 2.296131 1_555
Cd2 O17 2.327175 1_555
Cd2 O41 2.373177 1_555
Cd2 O46 2.421428 1_555
Cd3 O1 2.265624 1_555
Cd3 O11 2.272856 1_555
Cd3 O23 2.296132 1_555
Cd3 O12 2.327175 1_555
Cd3 O36 2.373177 1_555
Cd3 O44 2.421428 1_555
Cd4 O2 2.265624 1_555
Cd4 O9 2.272856 1_555
Cd4 O21 2.296131 1_555
Cd4 O13 2.327175 1_555
Cd4 O37 2.373177 1_555
Cd4 O42 2.421428 1_555
Cd5 O0 2.265624 1_555
Cd5 O10 2.272856 1_555
Cd5 O22 2.296131 1_555
Cd5 O14 2.327175 1_555
Cd5 O38 2.373177 1_555
Cd5 O43 2.421428 1_555
H0 O38 0.989727 1_555
H1 O36 0.989727 1_555
H2 O37 0.989727 1_555
H3 O41 0.989727 1_555
H4 O39 0.989727 1_555
H5 O40 0.989727 1_555
H6 O36 0.986852 1_555
H7 O37 0.986852 1_555
H8 O38 0.986852 1_555
H9 O39 0.986852 1_555
H10 O40 0.986852 1_555
H11 O41 0.986852 1_555
H12 O46 0.985560 1_545
H13 O47 0.985560 1_554
H14 O45 0.985560 1_455
H15 O43 0.985560 1_565
H16 O44 0.985560 1_556
H17 O42 0.985560 1_655
H18 O43 0.987353 1_565
H19 O44 0.987353 1_556
H20 O42 0.987353 1_655
H21 O46 0.987353 1_545
H22 O47 0.987353 1_554
H23 O45 0.987353 1_455
O0 P2 1.502037 1_655
O1 P0 1.502037 1_565
O2 P1 1.502037 1_556
O3 P5 1.502037 1_455
O4 P3 1.502037 1_545
O5 P4 1.502037 1_554
O6 P5 1.502175 1_555
O7 P3 1.502175 1_555
O8 P4 1.502175 1_555
O9 P2 1.502175 1_555
O10 P0 1.502175 1_555
O11 P1 1.502175 1_555
O12 P8 1.506991 1_555
O13 P6 1.506991 1_555
O14 P7 1.506991 1_555
O15 P11 1.506991 1_555
O16 P9 1.506991 1_555
O17 P10 1.506991 1_555
O18 P8 1.503740 1_655
O19 P6 1.503740 1_565
O20 P7 1.503740 1_556
O21 P11 1.503740 1_455
O22 P9 1.503740 1_545
O23 P10 1.503740 1_554
O24 P7 1.616316 1_555
O24 P1 1.619161 1_555
O25 P8 1.616316 1_555
O25 P2 1.619161 1_555
O26 P6 1.616316 1_555
O26 P0 1.619161 1_555
O27 P10 1.616316 1_555
O27 P4 1.619161 1_555
O28 P11 1.616316 1_555
O28 P5 1.619161 1_555
O29 P9 1.616316 1_555
O29 P3 1.619161 1_555
O30 P7 1.613631 1_555
O30 P0 1.618453 1_555
O31 P8 1.613631 1_555
O31 P1 1.618453 1_555
O32 P6 1.613631 1_555
O32 P2 1.618453 1_555
O33 P10 1.613631 1_555
O33 P3 1.618453 1_555
O34 P11 1.613631 1_555
O34 P4 1.618453 1_555
O35 P9 1.613631 1_555
O35 P5 1.618453 1_555
