# generated using pymatgen
data_HfMg6Fe
_symmetry_space_group_name_H-M   'P 1'
_cell_length_a   4.76740000
_cell_length_b   6.06866200
_cell_length_c   11.07770800
_cell_angle_alpha   90.00000000
_cell_angle_beta   90.00000000
_cell_angle_gamma   90.00000000
_symmetry_Int_Tables_number   1
_chemical_formula_structural   HfMg6Fe
_chemical_formula_sum   'Hf2 Mg12 Fe2'
_cell_volume   320.49735900
_cell_formula_units_Z   2
loop_
 _symmetry_equiv_pos_site_id
 _symmetry_equiv_pos_as_xyz
  1  'x, y, z'
loop_
 _atom_site_type_symbol
 _atom_site_label
 _atom_site_symmetry_multiplicity
 _atom_site_fract_x
 _atom_site_fract_y
 _atom_site_fract_z
 _atom_site_occupancy
  Hf  Hf0  1  0.50000000  0.50000000  0.19355200  1
  Hf  Hf1  1  0.50000000  0.00000000  0.69355200  1
  Mg  Mg0  1  0.00000000  0.74368100  0.07990300  1
  Mg  Mg1  1  0.00000000  0.25631900  0.07990300  1
  Mg  Mg2  1  0.00000000  0.00000000  0.32717700  1
  Mg  Mg3  1  0.50000000  0.25842500  0.42544000  1
  Mg  Mg4  1  0.50000000  0.74157500  0.42544000  1
  Mg  Mg5  1  0.50000000  0.00000000  0.16679100  1
  Mg  Mg6  1  0.00000000  0.24368100  0.57990300  1
  Mg  Mg7  1  0.00000000  0.75631900  0.57990300  1
  Mg  Mg8  1  0.00000000  0.50000000  0.82717700  1
  Mg  Mg9  1  0.50000000  0.75842500  0.92544000  1
  Mg  Mg10  1  0.50000000  0.24157500  0.92544000  1
  Mg  Mg11  1  0.50000000  0.50000000  0.66679100  1
  Fe  Fe0  1  0.00000000  0.50000000  0.30179300  1
  Fe  Fe1  1  0.00000000  0.00000000  0.80179300  1
loop_
_geom_bond_atom_site_label_1
_geom_bond_atom_site_label_2
_geom_bond_distance
_geom_bond_site_symmetry_2
Hf0 Mg4 2.957691 1_555
Hf0 Mg3 2.957691 1_555
Hf0 Mg5 3.048778 1_565
Hf0 Mg5 3.048778 1_555
Hf0 Mg10 3.358696 1_554
Hf0 Mg9 3.358696 1_554
Hf1 Mg9 2.957691 1_545
Hf1 Mg10 2.957691 1_555
Hf1 Mg11 3.048778 1_555
Hf1 Mg11 3.048778 1_545
Hf1 Mg3 3.358696 1_555
Hf1 Mg4 3.358696 1_545
Mg0 Mg9 2.935623 1_554
Mg0 Mg9 2.935623 1_454
Mg0 Mg5 3.004678 1_465
Mg0 Mg5 3.004678 1_565
Mg0 Mg2 3.150079 1_565
Mg0 Mg8 3.166197 1_554
Mg1 Mg10 2.935623 1_454
Mg1 Mg10 2.935623 1_554
Mg1 Mg5 3.004678 1_455
Mg1 Mg5 3.004678 1_555
Mg1 Mg2 3.150079 1_555
Mg1 Mg8 3.166197 1_554
Mg2 Mg5 2.972999 1_455
Mg2 Mg5 2.972999 1_555
Mg2 Mg3 3.053926 1_455
Mg2 Mg4 3.053926 1_445
Mg2 Mg3 3.053926 1_555
Mg2 Mg4 3.053926 1_545
Mg2 Mg6 3.166197 1_555
Mg2 Mg7 3.166197 1_545
Mg3 Mg4 2.932074 1_555
Mg3 Mg6 2.935623 1_655
Mg3 Mg6 2.935623 1_555
Mg3 Mg4 3.136588 1_545
Mg3 Mg5 3.266364 1_555
Mg4 Mg7 2.935623 1_555
Mg4 Mg7 2.935623 1_655
Mg4 Mg5 3.266364 1_565
Mg5 Mg9 3.049178 1_544
Mg6 Mg8 3.150079 1_555
Mg7 Mg8 3.150079 1_555
Mg8 Mg9 3.053926 1_555
Mg8 Mg9 3.053926 1_455
Mg10 Mg9 2.932074 1_545
Mg10 Mg5 3.049178 1_556
Mg10 Mg8 3.053926 1_555
Mg10 Mg8 3.053926 1_655
Mg10 Mg9 3.136588 1_555
Mg10 Mg11 3.266364 1_555
Mg11 Mg8 2.972999 1_655
Mg11 Mg8 2.972999 1_555
Mg11 Mg6 3.004678 1_655
Mg11 Mg7 3.004678 1_655
Mg11 Mg6 3.004678 1_555
Mg11 Mg7 3.004678 1_555
Mg11 Mg3 3.049178 1_555
Mg11 Mg4 3.049178 1_555
Mg11 Mg9 3.266364 1_555
Fe0 Hf0 2.668291 1_455
Fe0 Hf0 2.668291 1_555
Fe0 Mg1 2.868593 1_555
Fe0 Mg0 2.868593 1_555
Fe0 Mg2 3.047333 1_555
Fe0 Mg2 3.047333 1_565
Fe0 Mg3 3.115676 1_555
Fe0 Mg4 3.115676 1_555
Fe0 Mg3 3.115676 1_455
Fe0 Mg4 3.115676 1_455
Fe0 Mg6 3.451244 1_555
Fe0 Mg7 3.451244 1_555
Fe1 Hf1 2.668291 1_455
Fe1 Hf1 2.668291 1_555
Fe1 Mg6 2.868593 1_555
Fe1 Mg7 2.868593 1_545
Fe1 Mg8 3.047333 1_555
Fe1 Mg8 3.047333 1_545
Fe1 Mg10 3.115676 1_455
Fe1 Mg9 3.115676 1_445
Fe1 Mg9 3.115676 1_545
Fe1 Mg10 3.115676 1_555
Fe1 Mg0 3.451244 1_546
Fe1 Mg1 3.451244 1_556
