# generated using pymatgen
data_Li3Sm3(TeO6)2
_symmetry_space_group_name_H-M   'P 1'
_cell_length_a   10.91465673
_cell_length_b   10.91465673
_cell_length_c   10.91465673
_cell_angle_alpha   109.47122063
_cell_angle_beta   109.47122063
_cell_angle_gamma   109.47122063
_symmetry_Int_Tables_number   1
_chemical_formula_structural   Li3Sm3(TeO6)2
_chemical_formula_sum   'Li12 Sm12 Te8 O48'
_cell_volume   1000.94071114
_cell_formula_units_Z   4
loop_
 _symmetry_equiv_pos_site_id
 _symmetry_equiv_pos_as_xyz
  1  'x, y, z'
loop_
 _atom_site_type_symbol
 _atom_site_label
 _atom_site_symmetry_multiplicity
 _atom_site_fract_x
 _atom_site_fract_y
 _atom_site_fract_z
 _atom_site_occupancy
  Li  Li0  1  0.25000000  0.62500000  0.37500000  1
  Li  Li1  1  0.75000000  0.37500000  0.62500000  1
  Li  Li2  1  0.75000000  0.87500000  0.12500000  1
  Li  Li3  1  0.37500000  0.25000000  0.62500000  1
  Li  Li4  1  0.62500000  0.75000000  0.37500000  1
  Li  Li5  1  0.25000000  0.12500000  0.87500000  1
  Li  Li6  1  0.12500000  0.75000000  0.87500000  1
  Li  Li7  1  0.87500000  0.25000000  0.12500000  1
  Li  Li8  1  0.62500000  0.37500000  0.25000000  1
  Li  Li9  1  0.37500000  0.62500000  0.75000000  1
  Li  Li10  1  0.87500000  0.12500000  0.75000000  1
  Li  Li11  1  0.12500000  0.87500000  0.25000000  1
  Sm  Sm0  1  0.25000000  0.37500000  0.12500000  1
  Sm  Sm1  1  0.75000000  0.62500000  0.87500000  1
  Sm  Sm2  1  0.75000000  0.12500000  0.37500000  1
  Sm  Sm3  1  0.12500000  0.25000000  0.37500000  1
  Sm  Sm4  1  0.37500000  0.75000000  0.12500000  1
  Sm  Sm5  1  0.25000000  0.87500000  0.62500000  1
  Sm  Sm6  1  0.87500000  0.75000000  0.62500000  1
  Sm  Sm7  1  0.62500000  0.25000000  0.87500000  1
  Sm  Sm8  1  0.37500000  0.12500000  0.25000000  1
  Sm  Sm9  1  0.62500000  0.87500000  0.75000000  1
  Sm  Sm10  1  0.12500000  0.37500000  0.75000000  1
  Sm  Sm11  1  0.87500000  0.62500000  0.25000000  1
  Te  Te0  1  0.00000000  0.00000000  0.00000000  1
  Te  Te1  1  0.50000000  0.00000000  0.50000000  1
  Te  Te2  1  0.00000000  0.50000000  0.50000000  1
  Te  Te3  1  0.50000000  0.00000000  0.00000000  1
  Te  Te4  1  0.50000000  0.50000000  0.00000000  1
  Te  Te5  1  0.50000000  0.50000000  0.50000000  1
  Te  Te6  1  0.00000000  0.00000000  0.50000000  1
  Te  Te7  1  0.00000000  0.50000000  0.00000000  1
  O  O0  1  0.47538200  0.38213500  0.30417200  1
  O  O1  1  0.52461800  0.61786500  0.69582800  1
  O  O2  1  0.57796200  0.17121000  0.19582800  1
  O  O3  1  0.92203800  0.11786500  0.59324700  1
  O  O4  1  0.30417200  0.47538200  0.38213500  1
  O  O5  1  0.32879000  0.92203800  0.30417200  1
  O  O6  1  0.42203800  0.82879000  0.80417200  1
  O  O7  1  0.07796200  0.88213500  0.40675300  1
  O  O8  1  0.69582800  0.52461800  0.61786500  1
  O  O9  1  0.67121000  0.07796200  0.69582800  1
  O  O10  1  0.02461800  0.32879000  0.90675300  1
  O  O11  1  0.19582800  0.57796200  0.17121000  1
  O  O12  1  0.11786500  0.02461800  0.19582800  1
  O  O13  1  0.97538200  0.67121000  0.09324700  1
  O  O14  1  0.80417200  0.42203800  0.82879000  1
  O  O15  1  0.88213500  0.97538200  0.80417200  1
  O  O16  1  0.59324700  0.92203800  0.11786500  1
  O  O17  1  0.17121000  0.47538200  0.59324700  1
  O  O18  1  0.40675300  0.07796200  0.88213500  1
  O  O19  1  0.82879000  0.52461800  0.40675300  1
  O  O20  1  0.90675300  0.02461800  0.32879000  1
  O  O21  1  0.38213500  0.57796200  0.90675300  1
  O  O22  1  0.09324700  0.97538200  0.67121000  1
  O  O23  1  0.61786500  0.42203800  0.09324700  1
  O  O24  1  0.38213500  0.30417200  0.47538200  1
  O  O25  1  0.57796200  0.90675300  0.38213500  1
  O  O26  1  0.61786500  0.69582800  0.52461800  1
  O  O27  1  0.42203800  0.09324700  0.61786500  1
  O  O28  1  0.11786500  0.59324700  0.92203800  1
  O  O29  1  0.02461800  0.19582800  0.11786500  1
  O  O30  1  0.88213500  0.40675300  0.07796200  1
  O  O31  1  0.97538200  0.80417200  0.88213500  1
  O  O32  1  0.32879000  0.90675300  0.02461800  1
  O  O33  1  0.92203800  0.30417200  0.32879000  1
  O  O34  1  0.67121000  0.09324700  0.97538200  1
  O  O35  1  0.07796200  0.69582800  0.67121000  1
  O  O36  1  0.17121000  0.19582800  0.57796200  1
  O  O37  1  0.47538200  0.59324700  0.17121000  1
  O  O38  1  0.82879000  0.80417200  0.42203800  1
  O  O39  1  0.52461800  0.40675300  0.82879000  1
  O  O40  1  0.30417200  0.32879000  0.92203800  1
  O  O41  1  0.69582800  0.67121000  0.07796200  1
  O  O42  1  0.19582800  0.11786500  0.02461800  1
  O  O43  1  0.80417200  0.88213500  0.97538200  1
  O  O44  1  0.90675300  0.38213500  0.57796200  1
  O  O45  1  0.09324700  0.61786500  0.42203800  1
  O  O46  1  0.59324700  0.17121000  0.47538200  1
  O  O47  1  0.40675300  0.82879000  0.52461800  1
loop_
_geom_bond_atom_site_label_1
_geom_bond_atom_site_label_2
_geom_bond_distance
_geom_bond_site_symmetry_2
Li0 O11 1.928790 1_555
Li0 O4 1.928792 1_555
Li0 O47 1.928792 1_555
Li0 O45 1.928798 1_555
Li1 O14 1.928790 1_555
Li1 O46 1.928792 1_555
Li1 O8 1.928792 1_555
Li1 O44 1.928798 1_555
Li2 O41 1.928790 1_555
Li2 O43 1.928792 1_554
Li2 O20 1.928792 1_565
Li2 O16 1.928798 1_555
Li3 O36 1.928790 1_555
Li3 O24 1.928792 1_555
Li3 O39 1.928792 1_555
Li3 O27 1.928798 1_555
Li4 O38 1.928790 1_555
Li4 O37 1.928792 1_555
Li4 O26 1.928792 1_555
Li4 O25 1.928798 1_555
Li5 O40 1.928790 1_555
Li5 O42 1.928792 1_556
Li5 O22 1.928792 1_545
Li5 O18 1.928798 1_555
Li6 O35 1.928790 1_555
Li6 O32 1.928792 1_556
Li6 O31 1.928792 1_455
Li6 O28 1.928798 1_555
Li7 O33 1.928790 1_555
Li7 O34 1.928792 1_554
Li7 O29 1.928792 1_655
Li7 O30 1.928798 1_555
Li8 O2 1.928790 1_555
Li8 O0 1.928792 1_555
Li8 O19 1.928792 1_555
Li8 O23 1.928798 1_555
Li9 O6 1.928790 1_555
Li9 O17 1.928792 1_555
Li9 O1 1.928792 1_555
Li9 O21 1.928798 1_555
Li10 O9 1.928790 1_555
Li10 O10 1.928792 1_655
Li10 O15 1.928792 1_545
Li10 O3 1.928798 1_555
Li11 O5 1.928790 1_555
Li11 O13 1.928792 1_455
Li11 O12 1.928792 1_565
Li11 O7 1.928798 1_555
O0 Te5 1.961937 1_555
O0 Sm8 2.416312 1_555
O0 Sm0 2.538797 1_555
O1 Te5 1.961937 1_555
O1 Sm9 2.416312 1_555
O1 Sm1 2.538797 1_555
O2 Te3 1.961940 1_555
O2 Sm8 2.416302 1_555
O2 Sm2 2.538803 1_555
O3 Te6 1.961928 1_655
O3 Sm10 2.416309 1_655
O3 Sm2 2.538802 1_555
O4 Te5 1.961937 1_555
O4 Sm0 2.416312 1_555
O4 Sm3 2.538797 1_555
O5 Te1 1.961940 1_565
O5 Sm8 2.416302 1_565
O5 Sm4 2.538803 1_555
O6 Te3 1.961940 1_566
O6 Sm9 2.416302 1_555
O6 Sm5 2.538803 1_555
O7 Te6 1.961928 1_565
O7 Sm11 2.416309 1_455
O7 Sm5 2.538802 1_555
O8 Te5 1.961937 1_555
O8 Sm1 2.416312 1_555
O8 Sm6 2.538797 1_555
O9 Te1 1.961940 1_555
O9 Sm9 2.416302 1_545
O9 Sm7 2.538803 1_555
O10 Te7 1.961937 1_556
O10 Sm10 2.416312 1_555
O10 Sm0 2.538797 1_556
O11 Te7 1.961940 1_555
O11 Sm0 2.416302 1_555
O11 Sm4 2.538803 1_555
O12 Te0 1.961937 1_555
O12 Sm8 2.416312 1_555
O12 Sm3 2.538797 1_555
O13 Te7 1.961937 1_655
O13 Sm11 2.416312 1_555
O13 Sm1 2.538797 1_554
O14 Te7 1.961940 1_656
O14 Sm1 2.416302 1_555
O14 Sm7 2.538803 1_555
O15 Te0 1.961937 1_666
O15 Sm9 2.416312 1_555
O15 Sm6 2.538797 1_555
O16 Te3 1.961928 1_565
O16 Sm2 2.416309 1_565
O16 Sm4 2.538802 1_555
O17 Te2 1.961937 1_555
O17 Sm10 2.416312 1_555
O17 Sm3 2.538797 1_555
O18 Te3 1.961928 1_556
O18 Sm5 2.416309 1_545
O18 Sm7 2.538802 1_555
O19 Te2 1.961937 1_655
O19 Sm11 2.416312 1_555
O19 Sm6 2.538797 1_555
O20 Te6 1.961937 1_655
O20 Sm2 2.416312 1_555
O20 Sm3 2.538797 1_655
O21 Te4 1.961928 1_556
O21 Sm10 2.416309 1_555
O21 Sm4 2.538802 1_556
O22 Te6 1.961937 1_565
O22 Sm5 2.416312 1_555
O22 Sm6 2.538797 1_455
O23 Te4 1.961928 1_555
O23 Sm11 2.416309 1_555
O23 Sm7 2.538802 1_554
O24 Te5 1.961937 1_555
O24 Sm3 2.416312 1_555
O24 Sm8 2.538797 1_555
O25 Te1 1.961928 1_565
O25 Sm4 2.416309 1_555
O25 Sm2 2.538802 1_565
O26 Te5 1.961937 1_555
O26 Sm6 2.416312 1_555
O26 Sm9 2.538797 1_555
O27 Te1 1.961928 1_555
O27 Sm7 2.416309 1_555
O27 Sm5 2.538802 1_545
O28 Te7 1.961928 1_556
O28 Sm4 2.416309 1_556
O28 Sm10 2.538802 1_555
O29 Te0 1.961937 1_555
O29 Sm3 2.416312 1_555
O29 Sm0 2.538797 1_555
O30 Te7 1.961928 1_655
O30 Sm7 2.416309 1_554
O30 Sm11 2.538802 1_555
O31 Te0 1.961937 1_666
O31 Sm6 2.416312 1_555
O31 Sm1 2.538797 1_555
O32 Te3 1.961937 1_565
O32 Sm4 2.416312 1_555
O32 Sm8 2.538797 1_565
O33 Te2 1.961940 1_655
O33 Sm3 2.416302 1_655
O33 Sm2 2.538803 1_555
O34 Te3 1.961937 1_556
O34 Sm7 2.416312 1_555
O34 Sm9 2.538797 1_545
O35 Te2 1.961940 1_555
O35 Sm6 2.416302 1_455
O35 Sm5 2.538803 1_555
O36 Te6 1.961940 1_555
O36 Sm3 2.416302 1_555
O36 Sm10 2.538803 1_555
O37 Te4 1.961937 1_555
O37 Sm4 2.416312 1_555
O37 Sm0 2.538797 1_555
O38 Te6 1.961940 1_665
O38 Sm6 2.416302 1_555
O38 Sm11 2.538803 1_555
O39 Te4 1.961937 1_556
O39 Sm7 2.416312 1_555
O39 Sm1 2.538797 1_555
O40 Te4 1.961940 1_556
O40 Sm0 2.416302 1_556
O40 Sm10 2.538803 1_555
O41 Te4 1.961940 1_555
O41 Sm1 2.416302 1_554
O41 Sm11 2.538803 1_555
O42 Te0 1.961937 1_555
O42 Sm0 2.416312 1_555
O42 Sm8 2.538797 1_555
O43 Te0 1.961937 1_666
O43 Sm1 2.416312 1_555
O43 Sm9 2.538797 1_555
O44 Te2 1.961928 1_655
O44 Sm2 2.416309 1_555
O44 Sm10 2.538802 1_655
O45 Te2 1.961928 1_555
O45 Sm5 2.416309 1_555
O45 Sm11 2.538802 1_455
O46 Te1 1.961937 1_555
O46 Sm2 2.416312 1_555
O46 Sm8 2.538797 1_555
O47 Te1 1.961937 1_565
O47 Sm5 2.416312 1_555
O47 Sm9 2.538797 1_555
