# generated using pymatgen
data_MgP4WO12
_symmetry_space_group_name_H-M   'P 1'
_cell_length_a   7.78601433
_cell_length_b   7.78601433
_cell_length_c   10.34887690
_cell_angle_alpha   64.96056260
_cell_angle_beta   64.96056260
_cell_angle_gamma   65.26636228
_symmetry_Int_Tables_number   1
_chemical_formula_structural   MgP4WO12
_chemical_formula_sum   'Mg2 P8 W2 O24'
_cell_volume   492.62428470
_cell_formula_units_Z   2
loop_
 _symmetry_equiv_pos_site_id
 _symmetry_equiv_pos_as_xyz
  1  'x, y, z'
loop_
 _atom_site_type_symbol
 _atom_site_label
 _atom_site_symmetry_multiplicity
 _atom_site_fract_x
 _atom_site_fract_y
 _atom_site_fract_z
 _atom_site_occupancy
  Mg  Mg0  1  0.95681900  0.04318100  0.75000000  1
  Mg  Mg1  1  0.04318100  0.95681900  0.25000000  1
  P  P0  1  0.31849600  0.30863500  0.68223600  1
  P  P1  1  0.69136500  0.68150400  0.81776400  1
  P  P2  1  0.68150400  0.69136500  0.31776400  1
  P  P3  1  0.30863500  0.31849600  0.18223600  1
  P  P4  1  0.72830900  0.24325200  0.48308300  1
  P  P5  1  0.75674800  0.27169100  0.01691700  1
  P  P6  1  0.27169100  0.75674800  0.51691700  1
  P  P7  1  0.24325200  0.72830900  0.98308300  1
  W  W0  1  0.50000000  0.00000000  0.00000000  1
  W  W1  1  0.00000000  0.50000000  0.50000000  1
  O  O0  1  0.30030900  0.53824600  0.63697300  1
  O  O1  1  0.46175400  0.69969100  0.86302700  1
  O  O2  1  0.69969100  0.46175400  0.36302700  1
  O  O3  1  0.53824600  0.30030900  0.13697300  1
  O  O4  1  0.50302400  0.23100700  0.55157700  1
  O  O5  1  0.76899300  0.49697600  0.94842300  1
  O  O6  1  0.49697600  0.76899300  0.44842300  1
  O  O7  1  0.23100700  0.50302400  0.05157700  1
  O  O8  1  0.35257300  0.20802800  0.83083900  1
  O  O9  1  0.79197200  0.64742700  0.66916100  1
  O  O10  1  0.64742700  0.79197200  0.16916100  1
  O  O11  1  0.20802800  0.35257300  0.33083900  1
  O  O12  1  0.14098100  0.28455600  0.67161800  1
  O  O13  1  0.71544400  0.85901900  0.82838200  1
  O  O14  1  0.85901900  0.71544400  0.32838200  1
  O  O15  1  0.28455600  0.14098100  0.17161800  1
  O  O16  1  0.79396200  0.23397600  0.60374100  1
  O  O17  1  0.76602400  0.20603800  0.89625900  1
  O  O18  1  0.20603800  0.76602400  0.39625900  1
  O  O19  1  0.23397600  0.79396200  0.10374100  1
  O  O20  1  0.84245100  0.09854900  0.39727400  1
  O  O21  1  0.90145100  0.15754900  0.10272600  1
  O  O22  1  0.15754900  0.90145100  0.60272600  1
  O  O23  1  0.09854900  0.84245100  0.89727400  1
loop_
_geom_bond_atom_site_label_1
_geom_bond_atom_site_label_2
_geom_bond_distance
_geom_bond_site_symmetry_2
Mg0 O23 1.986816 1_645
Mg0 O22 1.986816 1_645
Mg0 O17 2.061729 1_555
Mg0 O16 2.061729 1_555
Mg0 O12 2.495190 1_655
Mg0 O13 2.495190 1_545
Mg1 O20 1.986816 1_465
Mg1 O21 1.986816 1_465
Mg1 O19 2.061729 1_555
Mg1 O18 2.061729 1_555
Mg1 O15 2.495190 1_565
Mg1 O14 2.495190 1_455
O0 P0 1.603428 1_555
O0 P6 1.617252 1_555
O1 P1 1.603428 1_555
O1 P7 1.617252 1_555
O2 P2 1.603428 1_555
O2 P4 1.617252 1_555
O3 P3 1.603428 1_555
O3 P5 1.617252 1_555
O4 P0 1.605792 1_555
O4 P4 1.618199 1_555
O5 P1 1.605792 1_555
O5 P5 1.618199 1_556
O6 P2 1.605792 1_555
O6 P6 1.618199 1_555
O7 P3 1.605792 1_555
O7 P7 1.618199 1_554
O8 P0 1.483512 1_555
O8 W0 2.179622 1_556
O9 P1 1.483512 1_555
O9 W1 2.179622 1_655
O10 P2 1.483512 1_555
O10 W0 2.179622 1_565
O11 P3 1.483512 1_555
O11 W1 2.179622 1_555
O12 P0 1.523269 1_555
O12 W1 2.181897 1_555
O13 P1 1.523269 1_555
O13 W0 2.181897 1_566
O14 P2 1.523269 1_555
O14 W1 2.181897 1_655
O15 P3 1.523269 1_555
O15 W0 2.181897 1_555
O16 P4 1.502923 1_555
O16 W1 2.730664 1_655
O17 P5 1.502923 1_556
O17 W0 2.730664 1_556
O18 P6 1.502923 1_555
O18 W1 2.730664 1_555
O19 P7 1.502923 1_554
O19 W0 2.730664 1_565
O20 P4 1.479446 1_555
O21 P5 1.479446 1_555
O22 P6 1.479446 1_555
O23 P7 1.479446 1_555
