# generated using pymatgen
data_Nd2Fe15Co2
_symmetry_space_group_name_H-M   'P 1'
_cell_length_a   6.45293822
_cell_length_b   6.45293822
_cell_length_c   6.45293785
_cell_angle_alpha   83.08031945
_cell_angle_beta   83.08031945
_cell_angle_gamma   83.08032652
_symmetry_Int_Tables_number   1
_chemical_formula_structural   Nd2Fe15Co2
_chemical_formula_sum   'Nd2 Fe15 Co2'
_cell_volume   263.26760634
_cell_formula_units_Z   1
loop_
 _symmetry_equiv_pos_site_id
 _symmetry_equiv_pos_as_xyz
  1  'x, y, z'
loop_
 _atom_site_type_symbol
 _atom_site_label
 _atom_site_symmetry_multiplicity
 _atom_site_fract_x
 _atom_site_fract_y
 _atom_site_fract_z
 _atom_site_occupancy
  Nd  Nd0  1  0.65820200  0.65820200  0.65820200  1
  Nd  Nd1  1  0.34179800  0.34179800  0.34179800  1
  Fe  Fe0  1  0.00000000  0.00000000  0.50000000  1
  Fe  Fe1  1  0.00000000  0.50000000  0.00000000  1
  Fe  Fe2  1  0.50000000  0.00000000  0.00000000  1
  Fe  Fe3  1  0.29033500  0.70966500  0.00000000  1
  Fe  Fe4  1  0.70966500  0.00000000  0.29033500  1
  Fe  Fe5  1  0.00000000  0.29033500  0.70966500  1
  Fe  Fe6  1  0.29033500  0.00000000  0.70966500  1
  Fe  Fe7  1  0.00000000  0.70966500  0.29033500  1
  Fe  Fe8  1  0.70966500  0.29033500  0.00000000  1
  Fe  Fe9  1  0.34113700  0.34113700  0.84614400  1
  Fe  Fe10  1  0.34113700  0.84614400  0.34113700  1
  Fe  Fe11  1  0.84614400  0.34113700  0.34113700  1
  Fe  Fe12  1  0.65886300  0.65886300  0.15385600  1
  Fe  Fe13  1  0.65886300  0.15385600  0.65886300  1
  Fe  Fe14  1  0.15385600  0.65886300  0.65886300  1
  Co  Co0  1  0.90630600  0.90630600  0.90630600  1
  Co  Co1  1  0.09369400  0.09369400  0.09369400  1
loop_
_geom_bond_atom_site_label_1
_geom_bond_atom_site_label_2
_geom_bond_distance
_geom_bond_site_symmetry_2
Fe0 Fe7 2.439531 1_545
Fe0 Fe6 2.439531 1_555
Fe0 Fe5 2.439531 1_555
Fe0 Fe4 2.439531 1_455
Fe0 Fe10 2.461167 1_545
Fe0 Fe13 2.461167 1_455
Fe0 Fe14 2.461167 1_545
Fe0 Fe11 2.461167 1_455
Fe0 Nd1 3.295241 1_555
Fe0 Nd0 3.295241 1_445
Fe1 Fe3 2.439531 1_555
Fe1 Fe8 2.439531 1_455
Fe1 Fe5 2.439531 1_554
Fe1 Fe7 2.439531 1_555
Fe1 Fe11 2.461167 1_455
Fe1 Fe14 2.461167 1_554
Fe1 Fe12 2.461167 1_455
Fe1 Fe9 2.461167 1_554
Fe1 Nd1 3.295241 1_555
Fe1 Nd0 3.295241 1_454
Fe2 Fe3 2.439531 1_545
Fe2 Fe8 2.439531 1_555
Fe2 Fe6 2.439531 1_554
Fe2 Fe4 2.439531 1_555
Fe2 Fe9 2.461167 1_554
Fe2 Nd1 3.295241 1_555
Fe2 Nd0 3.295241 1_544
Fe3 Fe6 2.484822 1_564
Fe3 Fe7 2.484822 1_555
Fe3 Fe9 2.655391 1_554
Fe3 Nd1 3.055317 1_555
Fe3 Nd0 3.055317 1_554
Fe4 Fe8 2.484822 1_555
Fe4 Fe7 2.484822 1_645
Fe4 Nd0 3.055317 1_545
Fe4 Nd1 3.055317 1_555
Fe5 Fe8 2.484822 1_456
Fe5 Fe6 2.484822 1_555
Fe5 Fe9 2.537628 1_555
Fe5 Nd1 3.055317 1_555
Fe5 Nd0 3.055317 1_455
Fe6 Fe9 2.537628 1_555
Fe6 Nd1 3.055317 1_555
Fe6 Nd0 3.055317 1_545
Fe7 Nd0 3.055317 1_455
Fe7 Nd1 3.055317 1_555
Fe8 Fe9 2.655391 1_554
Fe8 Nd1 3.055317 1_555
Fe8 Nd0 3.055317 1_554
Fe9 Nd0 3.107402 1_555
Fe9 Nd1 3.199458 1_556
Fe9 Nd1 3.253492 1_555
Fe10 Fe2 2.461167 1_565
Fe10 Fe14 2.506481 1_555
Fe10 Fe12 2.506481 1_555
Fe10 Fe3 2.537628 1_555
Fe10 Fe7 2.537628 1_555
Fe10 Fe6 2.655391 1_565
Fe10 Fe4 2.655391 1_565
Fe10 Nd0 3.107403 1_555
Fe10 Nd1 3.199459 1_565
Fe10 Nd1 3.253492 1_555
Fe11 Fe13 2.506481 1_555
Fe11 Fe12 2.506481 1_555
Fe11 Fe8 2.537628 1_555
Fe11 Fe4 2.537628 1_555
Fe11 Fe5 2.655391 1_655
Fe11 Fe7 2.655391 1_655
Fe11 Nd0 3.107403 1_555
Fe11 Nd1 3.199459 1_655
Fe11 Nd1 3.253492 1_555
Fe12 Fe2 2.461167 1_565
Fe12 Fe4 2.537628 1_565
Fe12 Fe7 2.537628 1_655
Fe12 Fe3 2.655391 1_555
Fe12 Fe8 2.655391 1_555
Fe12 Nd1 3.107402 1_555
Fe12 Nd0 3.199458 1_554
Fe12 Nd0 3.253492 1_555
Fe13 Fe2 2.461167 1_556
Fe13 Fe9 2.506481 1_555
Fe13 Fe8 2.537628 1_556
Fe13 Fe5 2.537628 1_655
Fe13 Fe4 2.655391 1_555
Fe13 Fe6 2.655391 1_555
Fe13 Nd1 3.107403 1_555
Fe13 Nd0 3.199459 1_545
Fe13 Nd0 3.253492 1_555
Fe14 Fe9 2.506481 1_555
Fe14 Fe3 2.537628 1_556
Fe14 Fe6 2.537628 1_565
Fe14 Fe7 2.655391 1_555
Fe14 Fe5 2.655391 1_555
Fe14 Nd1 3.107403 1_555
Fe14 Nd0 3.199459 1_455
Fe14 Nd0 3.253492 1_555
Co0 Co1 2.333125 1_666
Co0 Fe0 2.632382 1_665
Co0 Fe2 2.632382 1_566
Co0 Fe1 2.632382 1_656
Co0 Fe12 2.652551 1_556
Co0 Fe13 2.652551 1_565
Co0 Fe14 2.652551 1_655
Co0 Fe4 2.745033 1_566
Co0 Fe5 2.745033 1_665
Co0 Fe7 2.745033 1_656
Co0 Fe6 2.745033 1_665
Co0 Fe3 2.745034 1_656
Co0 Fe8 2.745034 1_566
Co0 Nd0 3.089086 1_555
Co1 Fe0 2.632382 1_555
Co1 Fe2 2.632382 1_555
Co1 Fe1 2.632382 1_555
Co1 Fe9 2.652551 1_554
Co1 Fe10 2.652551 1_545
Co1 Fe11 2.652551 1_455
Co1 Fe5 2.745033 1_554
Co1 Fe7 2.745033 1_545
Co1 Fe4 2.745033 1_455
Co1 Fe6 2.745033 1_554
Co1 Fe8 2.745034 1_455
Co1 Fe3 2.745034 1_545
Co1 Nd1 3.089086 1_555
