# generated using pymatgen
data_Zn15Te5As2P8(Pb3O14)5
_symmetry_space_group_name_H-M   'P 1'
_cell_length_a   5.27891469
_cell_length_b   8.58063550
_cell_length_c   37.39790673
_cell_angle_alpha   96.58404109
_cell_angle_beta   89.99905073
_cell_angle_gamma   90.00275490
_symmetry_Int_Tables_number   1
_chemical_formula_structural   Zn15Te5As2P8(Pb3O14)5
_chemical_formula_sum   'Zn15 Te5 As2 P8 Pb15 O70'
_cell_volume   1682.81982522
_cell_formula_units_Z   1
loop_
 _symmetry_equiv_pos_site_id
 _symmetry_equiv_pos_as_xyz
  1  'x, y, z'
loop_
 _atom_site_type_symbol
 _atom_site_label
 _atom_site_symmetry_multiplicity
 _atom_site_fract_x
 _atom_site_fract_y
 _atom_site_fract_z
 _atom_site_occupancy
  Zn  Zn0  1  0.50027226  0.74952676  0.00012454  1
  Zn  Zn1  1  0.49998359  0.34943460  0.19999970  1
  Zn  Zn2  1  0.50002561  0.94939473  0.39998698  1
  Zn  Zn3  1  0.50326048  0.55378380  0.59857420  1
  Zn  Zn4  1  0.50365751  0.15387081  0.79869742  1
  Zn  Zn5  1  0.50002678  0.70026992  0.14988313  1
  Zn  Zn6  1  0.50009452  0.30022376  0.34986996  1
  Zn  Zn7  1  0.50002507  0.90021507  0.54977620  1
  Zn  Zn8  1  0.50361341  0.50335424  0.75154103  1
  Zn  Zn9  1  0.50358902  0.10342145  0.95165658  1
  Zn  Zn10  1  0.49961821  0.15042252  0.05022141  1
  Zn  Zn11  1  0.49997508  0.75038416  0.25012737  1
  Zn  Zn12  1  0.49993292  0.35039664  0.45009384  1
  Zn  Zn13  1  0.50391299  0.94275419  0.64965628  1
  Zn  Zn14  1  0.50363927  0.54277200  0.84977736  1
  Te  Te0  1  0.00006404  0.99989906  0.00019505  1
  Te  Te1  1  -0.00000464  0.60000644  0.20001505  1
  Te  Te2  1  0.00000998  0.19998381  0.39994092  1
  Te  Te3  1  0.00016304  0.80010033  0.59982794  1
  Te  Te4  1  0.00020527  0.39983728  0.79997933  1
  As  As0  1  0.46208865  0.33334508  0.66660670  1
  As  As1  1  0.46224402  0.93329350  0.86669290  1
  P  P0  1  0.54096681  0.06668766  0.13333883  1
  P  P1  1  0.54074488  0.66670017  0.33333558  1
  P  P2  1  0.54106153  0.26642419  0.53316979  1
  P  P3  1  0.54111455  0.86660303  0.73332419  1
  P  P4  1  0.54093957  0.46693211  0.93348523  1
  P  P5  1  0.45914000  0.53330806  0.06668938  1
  P  P6  1  0.45906785  0.13331803  0.26664584  1
  P  P7  1  0.45899271  0.73336770  0.46664510  1
  Pb  Pb0  1  0.99984789  0.35865673  0.11955199  1
  Pb  Pb1  1  0.00021580  0.95862511  0.31953217  1
  Pb  Pb2  1  0.99968158  0.55879883  0.51932747  1
  Pb  Pb3  1  0.00191108  0.15695702  0.71967850  1
  Pb  Pb4  1  0.00205627  0.75695091  0.91991629  1
  Pb  Pb5  1  0.99992934  0.00216513  0.20000000  1
  Pb  Pb6  1  0.00008705  0.60223316  0.40001487  1
  Pb  Pb7  1  0.00212529  0.20185245  0.59939202  1
  Pb  Pb8  1  0.00196262  0.80235748  0.79959273  1
  Pb  Pb9  1  0.99986239  0.40274290  0.00020284  1
  Pb  Pb10  1  0.00005010  0.83904938  0.08051211  1
  Pb  Pb11  1  0.00006808  0.43902126  0.28046447  1
  Pb  Pb12  1  0.00009894  0.03895814  0.48040509  1
  Pb  Pb13  1  0.00177083  0.64087318  0.68069837  1
  Pb  Pb14  1  0.00201736  0.24091813  0.88079579  1
  O  O0  1  0.24925544  0.06671177  0.13334761  1
  O  O1  1  0.24945465  0.66671023  0.33333603  1
  O  O2  1  0.24937348  0.26690764  0.53325747  1
  O  O3  1  0.24982061  0.86669930  0.73333238  1
  O  O4  1  0.24973583  0.46649102  0.93341411  1
  O  O5  1  0.75069546  0.53322486  0.06668311  1
  O  O6  1  0.75069214  0.13330661  0.26665279  1
  O  O7  1  0.75074789  0.73341760  0.46664368  1
  O  O8  1  0.78617723  0.33336277  0.66663555  1
  O  O9  1  0.78613383  0.93319376  0.86668981  1
  O  O10  1  0.78864777  0.85840466  0.02477523  1
  O  O11  1  0.78873219  0.45846875  0.22464370  1
  O  O12  1  0.78876828  0.05840693  0.42462356  1
  O  O13  1  0.78774160  0.65955232  0.62454877  1
  O  O14  1  0.78769595  0.25950044  0.82469738  1
  O  O15  1  0.78871471  0.56302307  0.15692052  1
  O  O16  1  0.78881918  0.16297239  0.35690065  1
  O  O17  1  0.78711303  0.76244110  0.55686784  1
  O  O18  1  0.78771115  0.36237502  0.75708855  1
  O  O19  1  0.78928848  0.96305485  0.95713934  1
  O  O20  1  0.78723896  0.17835689  0.01840638  1
  O  O21  1  0.78871039  0.77850966  0.21845656  1
  O  O22  1  0.78874569  0.37847982  0.41843946  1
  O  O23  1  0.78917421  0.97820367  0.61828138  1
  O  O24  1  0.78766533  0.57805350  0.81823820  1
  O  O25  1  0.21102836  0.00610775  0.04326646  1
  O  O26  1  0.21125371  0.60612809  0.24309705  1
  O  O27  1  0.21125878  0.20609123  0.44308030  1
  O  O28  1  0.21036491  0.80456743  0.64284239  1
  O  O29  1  0.21021368  0.40461437  0.84302466  1
  O  O30  1  0.21123269  0.43388159  0.17536736  1
  O  O31  1  0.21127265  0.03380958  0.37536583  1
  O  O32  1  0.21006332  0.63485742  0.57473359  1
  O  O33  1  0.21014774  0.23471026  0.77511516  1
  O  O34  1  0.21128477  0.83373553  0.97574010  1
  O  O35  1  0.21127650  0.76006761  0.18154839  1
  O  O36  1  0.21128012  0.36002123  0.38153466  1
  O  O37  1  0.21115574  0.95937301  0.58123760  1
  O  O38  1  0.21019556  0.56065150  0.78188168  1
  O  O39  1  0.21034060  0.16138114  0.98219919  1
  O  O40  1  0.65525364  0.08744605  0.09544961  1
  O  O41  1  0.65525717  0.68742125  0.29541270  1
  O  O42  1  0.65516594  0.28705569  0.49528810  1
  O  O43  1  0.65578121  0.88691827  0.69547416  1
  O  O44  1  0.65582762  0.48732328  0.89562961  1
  O  O45  1  0.65526032  0.20246374  0.16023996  1
  O  O46  1  0.65530612  0.80241521  0.36023104  1
  O  O47  1  0.65648417  0.40207585  0.55997795  1
  O  O48  1  0.65588488  0.00234918  0.76009684  1
  O  O49  1  0.65456133  0.60278048  0.96035488  1
  O  O50  1  0.65516574  0.91019544  0.14435876  1
  O  O51  1  0.65524855  0.51012579  0.34433910  1
  O  O52  1  0.65450779  0.10997611  0.54421924  1
  O  O53  1  0.65573102  0.71073568  0.74440601  1
  O  O54  1  0.65642399  0.31092509  0.94455271  1
  O  O55  1  0.34479111  0.64205459  0.03979609  1
  O  O56  1  0.34478192  0.24216503  0.23976205  1
  O  O57  1  0.34473219  0.84218446  0.43974102  1
  O  O58  1  0.32762261  0.45203840  0.63735866  1
  O  O59  1  0.32764318  0.05190193  0.83740966  1
  O  O60  1  0.34483386  0.59199802  0.10460571  1
  O  O61  1  0.34474938  0.19197504  0.30456901  1
  O  O62  1  0.34466835  0.79195037  0.50451549  1
  O  O63  1  0.32761845  0.39710177  0.70793036  1
  O  O64  1  0.32778775  0.99713424  0.90802792  1
  O  O65  1  0.34467355  0.36583572  0.05568583  1
  O  O66  1  0.34475429  0.96579027  0.25564143  1
  O  O67  1  0.34487427  0.56578519  0.45562893  1
  O  O68  1  0.32772823  0.15090094  0.65460800  1
  O  O69  1  0.32754910  0.75095969  0.85467211  1
loop_
_geom_bond_atom_site_label_1
_geom_bond_atom_site_label_2
_geom_bond_distance
_geom_bond_site_symmetry_2
As0 O8 1.710836 1_555
As0 O58 1.730066 1_555
As0 O68 1.730315 1_555
As0 O63 1.731365 1_555
As1 O9 1.709787 1_555
As1 O69 1.730340 1_555
As1 O59 1.730798 1_565
As1 O64 1.731852 1_555
O0 P0 1.539919 1_555
O1 P1 1.537696 1_555
O2 P2 1.539805 1_555
O3 P3 1.537716 1_555
O4 P4 1.537246 1_555
O5 P5 1.539097 1_555
O6 P6 1.539460 1_555
O7 P7 1.540151 1_555
O10 Te0 1.954590 1_655
O10 Zn0 1.960232 1_555
O10 Pb10 2.386916 1_655
O11 Te1 1.955362 1_655
O11 Zn1 1.962224 1_555
O11 Pb11 2.389652 1_655
O12 Te2 1.956620 1_655
O12 Zn2 1.962005 1_545
O12 Pb12 2.388347 1_655
O13 Zn3 1.954554 1_555
O13 Te3 1.955014 1_655
O13 Pb13 2.406033 1_655
O14 Zn4 1.952695 1_555
O14 Te4 1.954009 1_655
O14 Pb14 2.404935 1_655
O15 Te1 1.955713 1_655
O15 Zn5 1.962110 1_555
O15 Pb0 2.389244 1_555
O16 Te2 1.953825 1_655
O16 Zn6 1.962233 1_555
O16 Pb1 2.389784 1_645
O17 Te3 1.957422 1_655
O17 Zn7 1.958768 1_555
O17 Pb2 2.391883 1_555
O18 Zn8 1.952771 1_555
O18 Te4 1.953537 1_655
O18 Pb3 2.403621 1_655
O19 Te0 1.952943 1_656
O19 Zn9 1.955541 1_565
O19 Pb4 2.400534 1_655
O20 Te0 1.957517 1_645
O20 Zn10 1.960544 1_555
O20 Pb9 2.393888 1_555
O21 Te1 1.955397 1_655
O21 Zn11 1.962082 1_555
O21 Pb5 2.388759 1_565
O22 Te2 1.955851 1_655
O22 Zn12 1.961950 1_555
O22 Pb6 2.389308 1_655
O23 Te3 1.952075 1_655
O23 Zn13 1.954143 1_555
O23 Pb7 2.399196 1_665
O24 Zn14 1.952613 1_555
O24 Te4 1.955575 1_655
O24 Pb8 2.403718 1_655
O25 Te0 1.953989 1_545
O25 Zn10 1.961610 1_555
O25 Pb10 2.386024 1_545
O26 Te1 1.955249 1_555
O26 Zn11 1.962011 1_555
O26 Pb11 2.389786 1_555
O27 Te2 1.956991 1_555
O27 Zn12 1.962039 1_555
O27 Pb12 2.388832 1_555
O28 Zn13 1.950063 1_555
O28 Te3 1.951009 1_555
O28 Pb13 2.376037 1_555
O29 Zn14 1.949263 1_555
O29 Te4 1.951181 1_555
O29 Pb14 2.372971 1_555
O30 Te1 1.955467 1_555
O30 Zn1 1.962232 1_555
O30 Pb0 2.389563 1_455
O31 Te2 1.954778 1_555
O31 Zn2 1.961910 1_545
O31 Pb1 2.389273 1_545
O32 Te3 1.952916 1_555
O32 Zn3 1.953671 1_555
O32 Pb2 2.375440 1_455
O33 Te4 1.948970 1_555
O33 Zn4 1.949376 1_555
O33 Pb3 2.373716 1_555
O34 Te0 1.952857 1_556
O34 Zn0 1.957611 1_556
O34 Pb4 2.386851 1_555
O35 Te1 1.955649 1_555
O35 Zn5 1.962082 1_555
O35 Pb5 2.389095 1_465
O36 Te2 1.954485 1_555
O36 Zn6 1.962333 1_555
O36 Pb6 2.389739 1_555
O37 Te3 1.951773 1_555
O37 Zn7 1.957156 1_555
O37 Pb7 2.384079 1_565
O38 Zn8 1.949480 1_555
O38 Te4 1.950637 1_555
O38 Pb8 2.373534 1_555
O39 Zn9 1.954016 1_555
O39 Te0 1.954156 1_546
O39 Pb9 2.378547 1_456
O40 P0 1.568877 1_555
O40 Zn10 2.009396 1_555
O41 P1 1.570419 1_555
O41 Zn11 2.010457 1_555
O42 P2 1.568013 1_555
O42 Zn12 2.008567 1_555
O43 P3 1.567486 1_555
O43 Zn13 1.999166 1_555
O44 P4 1.568269 1_555
O44 Zn14 1.999862 1_555
O45 P0 1.569921 1_555
O45 Zn1 2.010792 1_555
O46 P1 1.569997 1_555
O46 Zn2 2.010745 1_555
O47 P2 1.569581 1_555
O47 Zn3 2.000359 1_555
O48 P3 1.568055 1_545
O48 Zn4 1.997434 1_555
O49 P4 1.568323 1_555
O49 Zn0 2.007875 1_556
O50 P0 1.569516 1_565
O50 Zn5 2.010782 1_555
O51 P1 1.570538 1_555
O51 Zn6 2.010681 1_555
O52 P2 1.568057 1_555
O52 Zn7 2.008343 1_545
O53 P3 1.566457 1_555
O53 Zn8 1.997817 1_555
O54 P4 1.569097 1_555
O54 Zn9 2.000017 1_555
O55 P5 1.569047 1_555
O55 Zn0 2.009698 1_555
O56 P6 1.569243 1_555
O56 Zn1 2.010840 1_555
O57 P7 1.569556 1_555
O57 Zn2 2.010515 1_555
O58 Zn3 2.003984 1_555
O59 Zn4 2.003812 1_555
O60 P5 1.569923 1_555
O60 Zn5 2.010152 1_555
O61 P6 1.570109 1_555
O61 Zn6 2.011101 1_555
O62 P7 1.568272 1_555
O62 Zn7 2.009989 1_555
O63 Zn8 2.003334 1_555
O64 Zn9 2.003481 1_565
O65 P5 1.569653 1_555
O65 Zn10 2.010180 1_555
O66 P6 1.569768 1_565
O66 Zn11 2.010712 1_555
O67 P7 1.569858 1_555
O67 Zn12 2.010224 1_555
O68 Zn13 2.003379 1_545
O69 Zn14 2.003479 1_555
