# generated using pymatgen
data_VRu3
_symmetry_space_group_name_H-M   'P 1'
_cell_length_a   5.45163937
_cell_length_b   5.45163937
_cell_length_c   17.30442200
_cell_angle_alpha   90.00000000
_cell_angle_beta   90.00000000
_cell_angle_gamma   119.99999230
_symmetry_Int_Tables_number   1
_chemical_formula_structural   VRu3
_chemical_formula_sum   'V8 Ru24'
_cell_volume   445.39157815
_cell_formula_units_Z   8
loop_
 _symmetry_equiv_pos_site_id
 _symmetry_equiv_pos_as_xyz
  1  'x, y, z'
loop_
 _atom_site_type_symbol
 _atom_site_label
 _atom_site_symmetry_multiplicity
 _atom_site_fract_x
 _atom_site_fract_y
 _atom_site_fract_z
 _atom_site_occupancy
  V  V0_0  1  0.16666650  0.33333350  0.25000000  1
  V  V0_1  1  0.16666650  0.33333350  0.75000000  1
  V  V0_2  1  0.16666650  0.83333350  0.25000000  1
  V  V0_3  1  0.16666650  0.83333350  0.75000000  1
  V  V0_4  1  0.66666650  0.33333350  0.25000000  1
  V  V0_5  1  0.66666650  0.33333350  0.75000000  1
  V  V0_6  1  0.66666650  0.83333350  0.25000000  1
  V  V0_7  1  0.66666650  0.83333350  0.75000000  1
  Ru  Ru0_0  1  0.16666650  0.33333350  0.00000000  1
  Ru  Ru0_1  1  0.16666650  0.33333350  0.50000000  1
  Ru  Ru0_2  1  0.16666650  0.83333350  0.00000000  1
  Ru  Ru0_3  1  0.16666650  0.83333350  0.50000000  1
  Ru  Ru0_4  1  0.66666650  0.33333350  0.00000000  1
  Ru  Ru0_5  1  0.66666650  0.33333350  0.50000000  1
  Ru  Ru0_6  1  0.66666650  0.83333350  0.00000000  1
  Ru  Ru0_7  1  0.66666650  0.83333350  0.50000000  1
  Ru  Ru1_0  1  0.33333350  0.16666650  0.37478550  1
  Ru  Ru1_1  1  0.33333350  0.16666650  0.87478550  1
  Ru  Ru1_2  1  0.33333350  0.66666650  0.37478550  1
  Ru  Ru1_3  1  0.33333350  0.66666650  0.87478550  1
  Ru  Ru1_4  1  0.83333350  0.16666650  0.37478550  1
  Ru  Ru1_5  1  0.83333350  0.16666650  0.87478550  1
  Ru  Ru1_6  1  0.83333350  0.66666650  0.37478550  1
  Ru  Ru1_7  1  0.83333350  0.66666650  0.87478550  1
  Ru  Ru2_0  1  0.33333350  0.16666650  0.12521450  1
  Ru  Ru2_1  1  0.33333350  0.16666650  0.62521450  1
  Ru  Ru2_2  1  0.33333350  0.66666650  0.12521450  1
  Ru  Ru2_3  1  0.33333350  0.66666650  0.62521450  1
  Ru  Ru2_4  1  0.83333350  0.16666650  0.12521450  1
  Ru  Ru2_5  1  0.83333350  0.16666650  0.62521450  1
  Ru  Ru2_6  1  0.83333350  0.66666650  0.12521450  1
  Ru  Ru2_7  1  0.83333350  0.66666650  0.62521450  1
loop_
_geom_bond_atom_site_label_1
_geom_bond_atom_site_label_2
_geom_bond_distance
_geom_bond_site_symmetry_2
V0_0 V0_4 2.725820 1_555
V0_0 V0_2 2.725820 1_545
V0_0 V0_4 2.725820 1_455
V0_0 V0_2 2.725820 1_555
V0_0 V0_6 2.725820 1_555
V0_0 V0_6 2.725820 1_445
V0_1 V0_5 2.725820 1_555
V0_1 V0_5 2.725820 1_455
V0_1 V0_3 2.725820 1_545
V0_1 V0_3 2.725820 1_555
V0_1 V0_7 2.725820 1_555
V0_1 V0_7 2.725820 1_445
V0_2 V0_6 2.725820 1_455
V0_2 V0_6 2.725820 1_555
V0_2 V0_4 2.725820 1_455
V0_2 V0_4 2.725820 1_565
V0_3 V0_7 2.725820 1_455
V0_3 V0_7 2.725820 1_555
V0_3 V0_5 2.725820 1_565
V0_3 V0_5 2.725820 1_455
V0_4 V0_6 2.725820 1_555
V0_4 V0_6 2.725820 1_545
V0_5 V0_7 2.725820 1_555
V0_5 V0_7 2.725820 1_545
Ru0_0 Ru2_4 2.677977 1_455
Ru0_0 Ru2_2 2.677977 1_555
Ru0_0 Ru1_3 2.677977 1_554
Ru0_0 Ru1_5 2.677977 1_454
Ru0_0 Ru1_1 2.677980 1_554
Ru0_0 Ru2_0 2.677980 1_555
Ru0_0 Ru0_4 2.725820 1_555
Ru0_0 Ru0_4 2.725820 1_455
Ru0_0 Ru0_2 2.725820 1_545
Ru0_0 Ru0_2 2.725820 1_555
Ru0_0 Ru0_6 2.725820 1_555
Ru0_0 Ru0_6 2.725820 1_445
Ru0_1 Ru1_4 2.677977 1_455
Ru0_1 Ru2_3 2.677977 1_555
Ru0_1 Ru1_2 2.677977 1_555
Ru0_1 Ru2_5 2.677977 1_455
Ru0_1 Ru1_0 2.677980 1_555
Ru0_1 Ru2_1 2.677980 1_555
Ru0_1 Ru0_5 2.725820 1_555
Ru0_1 Ru0_3 2.725820 1_545
Ru0_1 Ru0_5 2.725820 1_455
Ru0_1 Ru0_3 2.725820 1_555
Ru0_1 Ru0_7 2.725820 1_555
Ru0_1 Ru0_7 2.725820 1_445
Ru0_2 Ru1_1 2.677977 1_564
Ru0_2 Ru2_0 2.677977 1_565
Ru0_2 Ru1_7 2.677977 1_454
Ru0_2 Ru2_6 2.677977 1_455
Ru0_2 Ru2_2 2.677980 1_555
Ru0_2 Ru1_3 2.677980 1_554
Ru0_2 Ru0_6 2.725820 1_455
Ru0_2 Ru0_6 2.725820 1_555
Ru0_2 Ru0_4 2.725820 1_455
Ru0_2 Ru0_4 2.725820 1_565
Ru0_3 Ru1_0 2.677977 1_565
Ru0_3 Ru2_1 2.677977 1_565
Ru0_3 Ru1_6 2.677977 1_455
Ru0_3 Ru2_7 2.677977 1_455
Ru0_3 Ru1_2 2.677980 1_555
Ru0_3 Ru2_3 2.677980 1_555
Ru0_3 Ru0_7 2.725820 1_455
Ru0_3 Ru0_7 2.725820 1_555
Ru0_3 Ru0_5 2.725820 1_565
Ru0_3 Ru0_5 2.725820 1_455
Ru0_4 Ru2_6 2.677977 1_555
Ru0_4 Ru1_7 2.677977 1_554
Ru0_4 Ru1_1 2.677977 1_554
Ru0_4 Ru2_0 2.677977 1_555
Ru0_4 Ru1_5 2.677980 1_554
Ru0_4 Ru2_4 2.677980 1_555
Ru0_4 Ru0_6 2.725820 1_555
Ru0_4 Ru0_6 2.725820 1_545
Ru0_5 Ru2_7 2.677977 1_555
Ru0_5 Ru1_6 2.677977 1_555
Ru0_5 Ru1_0 2.677977 1_555
Ru0_5 Ru2_1 2.677977 1_555
Ru0_5 Ru1_4 2.677980 1_555
Ru0_5 Ru2_5 2.677980 1_555
Ru0_5 Ru0_7 2.725820 1_555
Ru0_5 Ru0_7 2.725820 1_545
Ru0_6 Ru1_3 2.677977 1_554
Ru0_6 Ru2_2 2.677977 1_555
Ru0_6 Ru2_4 2.677977 1_565
Ru0_6 Ru1_5 2.677977 1_564
Ru0_6 Ru2_6 2.677980 1_555
Ru0_6 Ru1_7 2.677980 1_554
Ru0_7 Ru1_2 2.677977 1_555
Ru0_7 Ru2_3 2.677977 1_555
Ru0_7 Ru2_5 2.677977 1_565
Ru0_7 Ru1_4 2.677977 1_565
Ru0_7 Ru1_6 2.677980 1_555
Ru0_7 Ru2_7 2.677980 1_555
Ru1_0 V0_2 2.671974 1_545
Ru1_0 V0_4 2.671974 1_555
Ru1_0 V0_0 2.671977 1_555
Ru1_0 Ru1_2 2.725820 1_555
Ru1_0 Ru1_4 2.725820 1_455
Ru1_0 Ru1_4 2.725820 1_555
Ru1_0 Ru1_2 2.725820 1_545
Ru1_0 Ru1_6 2.725820 1_555
Ru1_0 Ru1_6 2.725820 1_445
Ru1_1 V0_3 2.671974 1_545
Ru1_1 V0_5 2.671974 1_555
Ru1_1 V0_1 2.671977 1_555
Ru1_1 Ru1_3 2.725820 1_555
Ru1_1 Ru1_5 2.725820 1_455
Ru1_1 Ru1_3 2.725820 1_545
Ru1_1 Ru1_5 2.725820 1_555
Ru1_1 Ru1_7 2.725820 1_555
Ru1_1 Ru1_7 2.725820 1_445
Ru1_2 V0_0 2.671974 1_555
Ru1_2 V0_6 2.671974 1_555
Ru1_2 V0_2 2.671977 1_555
Ru1_2 Ru1_6 2.725820 1_555
Ru1_2 Ru1_6 2.725820 1_455
Ru1_2 Ru1_4 2.725820 1_565
Ru1_2 Ru1_4 2.725820 1_455
Ru1_3 V0_7 2.671974 1_555
Ru1_3 V0_1 2.671974 1_555
Ru1_3 V0_3 2.671977 1_555
Ru1_3 Ru1_7 2.725820 1_555
Ru1_3 Ru1_7 2.725820 1_455
Ru1_3 Ru1_5 2.725820 1_565
Ru1_3 Ru1_5 2.725820 1_455
Ru1_4 V0_6 2.671974 1_545
Ru1_4 V0_0 2.671974 1_655
Ru1_4 V0_4 2.671977 1_555
Ru1_4 Ru1_6 2.725820 1_555
Ru1_4 Ru1_6 2.725820 1_545
Ru1_5 V0_7 2.671974 1_545
Ru1_5 V0_1 2.671974 1_655
Ru1_5 V0_5 2.671977 1_555
Ru1_5 Ru1_7 2.725820 1_555
Ru1_5 Ru1_7 2.725820 1_545
Ru1_6 V0_4 2.671974 1_555
Ru1_6 V0_2 2.671974 1_655
Ru1_6 V0_6 2.671977 1_555
Ru1_7 V0_5 2.671974 1_555
Ru1_7 V0_3 2.671974 1_655
Ru1_7 V0_7 2.671977 1_555
Ru2_0 V0_2 2.671974 1_545
Ru2_0 V0_4 2.671974 1_555
Ru2_0 V0_0 2.671977 1_555
Ru2_0 Ru2_2 2.725820 1_555
Ru2_0 Ru2_4 2.725820 1_455
Ru2_0 Ru2_2 2.725820 1_545
Ru2_0 Ru2_4 2.725820 1_555
Ru2_0 Ru2_6 2.725820 1_555
Ru2_0 Ru2_6 2.725820 1_445
Ru2_1 V0_3 2.671974 1_545
Ru2_1 V0_5 2.671974 1_555
Ru2_1 V0_1 2.671977 1_555
Ru2_1 Ru2_5 2.725820 1_455
Ru2_1 Ru2_3 2.725820 1_555
Ru2_1 Ru2_5 2.725820 1_555
Ru2_1 Ru2_3 2.725820 1_545
Ru2_1 Ru2_7 2.725820 1_555
Ru2_1 Ru2_7 2.725820 1_445
Ru2_2 V0_0 2.671974 1_555
Ru2_2 V0_6 2.671974 1_555
Ru2_2 V0_2 2.671977 1_555
Ru2_2 Ru2_6 2.725820 1_555
Ru2_2 Ru2_6 2.725820 1_455
Ru2_2 Ru2_4 2.725820 1_565
Ru2_2 Ru2_4 2.725820 1_455
Ru2_3 V0_7 2.671974 1_555
Ru2_3 V0_1 2.671974 1_555
Ru2_3 V0_3 2.671977 1_555
Ru2_3 Ru2_7 2.725820 1_555
Ru2_3 Ru2_7 2.725820 1_455
Ru2_3 Ru2_5 2.725820 1_565
Ru2_3 Ru2_5 2.725820 1_455
Ru2_4 V0_6 2.671974 1_545
Ru2_4 V0_0 2.671974 1_655
Ru2_4 V0_4 2.671977 1_555
Ru2_4 Ru2_6 2.725820 1_555
Ru2_4 Ru2_6 2.725820 1_545
Ru2_5 V0_1 2.671974 1_655
Ru2_5 V0_7 2.671974 1_545
Ru2_5 V0_5 2.671977 1_555
Ru2_5 Ru2_7 2.725820 1_555
Ru2_5 Ru2_7 2.725820 1_545
Ru2_6 V0_4 2.671974 1_555
Ru2_6 V0_2 2.671974 1_655
Ru2_6 V0_6 2.671977 1_555
Ru2_7 V0_5 2.671974 1_555
Ru2_7 V0_3 2.671974 1_655
Ru2_7 V0_7 2.671977 1_555
