# generated using pymatgen
data_NaCa2Al2As2O11F4
_symmetry_space_group_name_H-M   'P 1'
_cell_length_a   10.92795800
_cell_length_b   5.62028100
_cell_length_c   9.70648510
_cell_angle_alpha   74.90914094
_cell_angle_beta   90.00000000
_cell_angle_gamma   90.00000000
_symmetry_Int_Tables_number   1
_chemical_formula_structural   NaCa2Al2As2O11F4
_chemical_formula_sum   'Na2 Ca4 Al4 As4 O22 F8'
_cell_volume   575.59590491
_cell_formula_units_Z   2
loop_
 _symmetry_equiv_pos_site_id
 _symmetry_equiv_pos_as_xyz
  1  'x, y, z'
loop_
 _atom_site_type_symbol
 _atom_site_label
 _atom_site_symmetry_multiplicity
 _atom_site_fract_x
 _atom_site_fract_y
 _atom_site_fract_z
 _atom_site_occupancy
  Na  Na0  1  0.75000000  0.49837700  0.82907400  1
  Na  Na1  1  0.25000000  0.50162300  0.17092600  1
  Ca  Ca0  1  0.91384200  0.10742700  0.64156800  1
  Ca  Ca1  1  0.41384200  0.89257300  0.35843200  1
  Ca  Ca2  1  0.08615800  0.89257300  0.35843200  1
  Ca  Ca3  1  0.58615800  0.10742700  0.64156800  1
  Al  Al0  1  0.90944900  0.48454400  0.23722200  1
  Al  Al1  1  0.40944900  0.51545600  0.76277800  1
  Al  Al2  1  0.09055100  0.51545600  0.76277800  1
  Al  Al3  1  0.59055100  0.48454400  0.23722200  1
  As  As0  1  0.75000000  0.87502900  0.00274400  1
  As  As1  1  0.25000000  0.12497100  0.99725600  1
  As  As2  1  0.75000000  0.67689800  0.46041600  1
  As  As3  1  0.25000000  0.32310200  0.53958400  1
  O  O0  1  0.75000000  0.36671600  0.27556600  1
  O  O1  1  0.25000000  0.63328400  0.72443400  1
  O  O2  1  0.06873400  0.79671400  0.84490300  1
  O  O3  1  0.56873400  0.20328600  0.15509700  1
  O  O4  1  0.93126600  0.20328600  0.15509700  1
  O  O5  1  0.43126600  0.79671400  0.84490300  1
  O  O6  1  0.75000000  0.95308100  0.82024700  1
  O  O7  1  0.25000000  0.04691900  0.17975300  1
  O  O8  1  0.87732000  0.69798600  0.05762500  1
  O  O9  1  0.37732000  0.30201400  0.94237500  1
  O  O10  1  0.12268000  0.30201400  0.94237500  1
  O  O11  1  0.62268000  0.69798600  0.05762500  1
  O  O12  1  0.75000000  0.38597200  0.57271300  1
  O  O13  1  0.25000000  0.61402800  0.42728700  1
  O  O14  1  0.75000000  0.88516200  0.55808800  1
  O  O15  1  0.25000000  0.11483800  0.44191200  1
  O  O16  1  0.12013800  0.29545700  0.64680600  1
  O  O17  1  0.62013800  0.70454300  0.35319400  1
  O  O18  1  0.87986200  0.70454300  0.35319400  1
  O  O19  1  0.37986200  0.29545700  0.64680600  1
  O  O20  1  0.75000000  0.15930100  0.04820100  1
  O  O21  1  0.25000000  0.84069900  0.95179900  1
  F  F0  1  0.93614000  0.40218000  0.78082500  1
  F  F1  1  0.43614000  0.59782000  0.21917500  1
  F  F2  1  0.06386000  0.59782000  0.21917500  1
  F  F3  1  0.56386000  0.40218000  0.78082500  1
  F  F4  1  0.03126700  0.76989300  0.60460800  1
  F  F5  1  0.53126700  0.23010700  0.39539200  1
  F  F6  1  0.96873300  0.23010700  0.39539200  1
  F  F7  1  0.46873300  0.76989300  0.60460800  1
loop_
_geom_bond_atom_site_label_1
_geom_bond_atom_site_label_2
_geom_bond_distance
_geom_bond_site_symmetry_2
Na0 O20 2.458669 1_556
Na0 O6 2.534608 1_555
Na0 O12 2.722060 1_555
Na1 O21 2.458669 1_554
Na1 O7 2.534608 1_555
Na1 O13 2.722060 1_555
Ca0 O12 2.357628 1_555
Ca0 F6 2.384757 1_555
Ca0 F4 2.393420 1_645
Ca0 F0 2.407639 1_555
Ca0 O14 2.439235 1_545
Ca0 O6 2.486525 1_545
Ca0 O16 2.495925 1_655
Ca0 O2 2.831137 1_645
Ca1 O13 2.357628 1_555
Ca1 F7 2.384757 1_555
Ca1 F5 2.393420 1_565
Ca1 F1 2.407639 1_555
Ca1 O15 2.439235 1_565
Ca1 O7 2.486525 1_565
Ca1 O17 2.495925 1_555
Ca1 O3 2.831137 1_565
Ca2 O13 2.357628 1_555
Ca2 F4 2.384757 1_555
Ca2 F6 2.393420 1_465
Ca2 F2 2.407639 1_555
Ca2 O15 2.439235 1_565
Ca2 O7 2.486525 1_565
Ca2 O18 2.495925 1_455
Ca2 O4 2.831137 1_465
Ca3 O12 2.357628 1_555
Ca3 F5 2.384757 1_555
Ca3 F7 2.393420 1_545
Ca3 F3 2.407639 1_555
Ca3 O14 2.439235 1_545
Ca3 O6 2.486525 1_545
Ca3 O19 2.495925 1_555
Ca3 O5 2.831137 1_545
Al0 F2 1.795895 1_655
Al0 O0 1.866780 1_555
Al0 O8 1.874131 1_555
Al0 O18 1.904012 1_555
Al0 F6 1.917949 1_555
Al0 O4 1.961422 1_555
Al1 F3 1.795895 1_555
Al1 O1 1.866780 1_555
Al1 O9 1.874131 1_555
Al1 O19 1.904012 1_555
Al1 F7 1.917949 1_555
Al1 O5 1.961422 1_555
Al2 F0 1.795895 1_455
Al2 O1 1.866780 1_555
Al2 O10 1.874131 1_555
Al2 O16 1.904012 1_555
Al2 F4 1.917949 1_555
Al2 O2 1.961422 1_555
Al3 F1 1.795895 1_555
Al3 O0 1.866780 1_555
Al3 O11 1.874131 1_555
Al3 O17 1.904012 1_555
Al3 F5 1.917949 1_555
Al3 O3 1.961422 1_555
As0 O6 1.710464 1_554
As0 O11 1.712807 1_555
As0 O8 1.712807 1_555
As0 O20 1.764754 1_565
As1 O7 1.710464 1_556
As1 O10 1.712807 1_555
As1 O9 1.712807 1_555
As1 O21 1.764754 1_545
As2 O14 1.687216 1_555
As2 O12 1.712776 1_555
As2 O18 1.742705 1_555
As2 O17 1.742705 1_555
As3 O15 1.687216 1_555
As3 O13 1.712776 1_555
As3 O19 1.742705 1_555
As3 O16 1.742705 1_555
F0 Na0 2.186588 1_555
F1 Na1 2.186588 1_555
F2 Na1 2.186588 1_555
F3 Na0 2.186588 1_555
