# generated using pymatgen
data_CaNiH3
_symmetry_space_group_name_H-M   'P 1'
_cell_length_a   3.50426521
_cell_length_b   3.50426521
_cell_length_c   3.50426521
_cell_angle_alpha   90.00000000
_cell_angle_beta   90.00000000
_cell_angle_gamma   90.00000000
_symmetry_Int_Tables_number   1
_chemical_formula_structural   CaNiH3
_chemical_formula_sum   'Ca1 Ni1 H3'
_cell_volume   43.03193756
_cell_formula_units_Z   1
loop_
 _symmetry_equiv_pos_site_id
 _symmetry_equiv_pos_as_xyz
  1  'x, y, z'
loop_
 _atom_site_type_symbol
 _atom_site_label
 _atom_site_symmetry_multiplicity
 _atom_site_fract_x
 _atom_site_fract_y
 _atom_site_fract_z
 _atom_site_occupancy
  Ca  Ca0  1  0.50000000  0.50000000  0.50000000  1
  Ni  Ni0  1  0.00000000  0.00000000  0.00000000  1
  H  H0  1  0.50000000  -0.00000000  -0.00000000  1
  H  H1  1  -0.00000000  0.50000000  -0.00000000  1
  H  H2  1  -0.00000000  -0.00000000  0.50000000  1
loop_
_geom_bond_atom_site_label_1
_geom_bond_atom_site_label_2
_geom_bond_distance
_geom_bond_site_symmetry_2
Ca0 H1 2.477890 1_656
Ca0 H0 2.477890 1_556
Ca0 H2 2.477890 1_565
Ca0 H0 2.477890 1_566
Ca0 H1 2.477890 1_555
Ca0 H1 2.477890 1_556
Ca0 H2 2.477890 1_665
Ca0 H2 2.477890 1_555
Ca0 H1 2.477890 1_655
Ca0 H2 2.477890 1_655
Ca0 H0 2.477890 1_565
Ca0 H0 2.477890 1_555
H0 Ni0 1.752133 1_655
H0 Ni0 1.752133 1_555
H1 Ni0 1.752133 1_565
H1 Ni0 1.752133 1_555
H2 Ni0 1.752133 1_556
H2 Ni0 1.752133 1_555
