# generated using pymatgen
data_K2Be2Cu(O3F4)2
_symmetry_space_group_name_H-M   'P 1'
_cell_length_a   5.94834774
_cell_length_b   7.47742045
_cell_length_c   13.52415400
_cell_angle_alpha   90.00000000
_cell_angle_beta   90.00000000
_cell_angle_gamma   107.73733836
_symmetry_Int_Tables_number   1
_chemical_formula_structural   K2Be2Cu(O3F4)2
_chemical_formula_sum   'K4 Be4 Cu2 O12 F16'
_cell_volume   572.93643202
_cell_formula_units_Z   2
loop_
 _symmetry_equiv_pos_site_id
 _symmetry_equiv_pos_as_xyz
  1  'x, y, z'
loop_
 _atom_site_type_symbol
 _atom_site_label
 _atom_site_symmetry_multiplicity
 _atom_site_fract_x
 _atom_site_fract_y
 _atom_site_fract_z
 _atom_site_occupancy
  K  K0  1  0.87268100  0.60886400  0.11956200  1
  K  K1  1  0.12731900  0.39113600  0.88043800  1
  K  K2  1  0.12731900  0.89113600  0.61956200  1
  K  K3  1  0.87268100  0.10886400  0.38043800  1
  Be  Be0  1  0.73522200  0.61210200  0.85545000  1
  Be  Be1  1  0.26477800  0.38789800  0.14455000  1
  Be  Be2  1  0.26477800  0.88789800  0.35545000  1
  Be  Be3  1  0.73522200  0.11210200  0.64455000  1
  Cu  Cu0  1  0.50000000  0.00000000  0.00000000  1
  Cu  Cu1  1  0.50000000  0.50000000  0.50000000  1
  O  O0  1  0.33551300  0.93148700  0.86799400  1
  O  O1  1  0.66448700  0.06851300  0.13200600  1
  O  O2  1  0.66448700  0.56851300  0.36799400  1
  O  O3  1  0.33551300  0.43148700  0.63200600  1
  O  O4  1  0.25006700  0.54568900  0.66997600  1
  O  O5  1  0.74993300  0.45431100  0.33002400  1
  O  O6  1  0.74993300  0.95431100  0.16997600  1
  O  O7  1  0.25006700  0.04568900  0.83002400  1
  O  O8  1  0.78123200  0.02905600  0.93847900  1
  O  O9  1  0.21876800  0.97094400  0.06152100  1
  O  O10  1  0.21876800  0.47094400  0.43847900  1
  O  O11  1  0.78123200  0.52905600  0.56152100  1
  F  F0  1  0.50357200  0.64609800  0.82779900  1
  F  F1  1  0.49642800  0.35390200  0.17220100  1
  F  F2  1  0.49642800  0.85390200  0.32779900  1
  F  F3  1  0.50357200  0.14609800  0.67220100  1
  F  F4  1  0.70836600  0.93102900  0.58283200  1
  F  F5  1  0.29163400  0.06897100  0.41716800  1
  F  F6  1  0.29163400  0.56897100  0.08283200  1
  F  F7  1  0.70836600  0.43102900  0.91716800  1
  F  F8  1  0.85844000  0.77460100  0.94398800  1
  F  F9  1  0.14156000  0.22539900  0.05601200  1
  F  F10  1  0.14156000  0.72539900  0.44398800  1
  F  F11  1  0.85844000  0.27460100  0.55601200  1
  F  F12  1  0.91767200  0.63813500  0.77241900  1
  F  F13  1  0.08232800  0.36186500  0.22758100  1
  F  F14  1  0.08232800  0.86186500  0.27241900  1
  F  F15  1  0.91767200  0.13813500  0.72758100  1
loop_
_geom_bond_atom_site_label_1
_geom_bond_atom_site_label_2
_geom_bond_distance
_geom_bond_site_symmetry_2
K0 O9 2.964502 1_655
K0 O6 2.969730 1_555
K0 O5 3.075072 1_555
K1 O8 2.964502 1_455
K1 O7 2.969730 1_555
K1 O4 3.075072 1_555
K2 O11 2.964502 1_455
K2 O4 2.969730 1_555
K2 O7 3.075072 1_565
K3 O10 2.964502 1_655
K3 O5 2.969730 1_555
K3 O6 3.075072 1_545
Be0 F0 1.522035 1_555
Be0 F12 1.532303 1_555
Be0 F7 1.556802 1_555
Be0 F8 1.704331 1_555
Be1 F1 1.522035 1_555
Be1 F13 1.532303 1_555
Be1 F6 1.556802 1_555
Be1 F9 1.704331 1_555
Be2 F2 1.522035 1_555
Be2 F14 1.532303 1_555
Be2 F5 1.556802 1_565
Be2 F10 1.704331 1_555
Be3 F3 1.522035 1_555
Be3 F15 1.532303 1_555
Be3 F4 1.556802 1_545
Be3 F11 1.704331 1_555
Cu0 O9 1.821122 1_545
Cu0 O8 1.821122 1_554
Cu0 O0 2.025226 1_544
Cu0 O1 2.025226 1_555
Cu1 O10 1.821122 1_555
Cu1 O11 1.821122 1_555
Cu1 O3 2.025226 1_555
Cu1 O2 2.025226 1_555
O0 O7 1.231132 1_565
O1 O6 1.231132 1_545
O2 O5 1.231132 1_555
O3 O4 1.231132 1_555
F0 K1 2.559414 1_555
F1 K0 2.559414 1_555
F2 K3 2.559414 1_565
F3 K2 2.559414 1_545
F4 K2 2.645588 1_655
F4 K3 3.069842 1_565
F5 K3 2.645588 1_455
F5 K2 3.069842 1_545
F6 K0 2.645588 1_455
F6 K1 3.069842 1_554
F7 K1 2.645588 1_655
F7 K0 3.069842 1_556
F8 K0 2.691686 1_556
F9 K1 2.691686 1_554
F10 K2 2.691686 1_555
F11 K3 2.691686 1_555
F12 K2 2.823144 1_655
F12 K1 2.916115 1_655
F13 K3 2.823144 1_455
F13 K0 2.916115 1_455
F14 K0 2.823144 1_455
F14 K3 2.916115 1_465
F15 K1 2.823144 1_655
F15 K2 2.916115 1_645
