# generated using pymatgen
data_LaU3C8
_symmetry_space_group_name_H-M   'P 1'
_cell_length_a   5.52559938
_cell_length_b   5.52559938
_cell_length_c   5.52559925
_cell_angle_alpha   91.09779123
_cell_angle_beta   91.09779123
_cell_angle_gamma   91.09779312
_symmetry_Int_Tables_number   1
_chemical_formula_structural   LaU3C8
_chemical_formula_sum   'La1 U3 C8'
_cell_volume   168.61486657
_cell_formula_units_Z   1
loop_
 _symmetry_equiv_pos_site_id
 _symmetry_equiv_pos_as_xyz
  1  'x, y, z'
loop_
 _atom_site_type_symbol
 _atom_site_label
 _atom_site_symmetry_multiplicity
 _atom_site_fract_x
 _atom_site_fract_y
 _atom_site_fract_z
 _atom_site_occupancy
  La  La0  1  0.00000000  0.00000000  0.00000000  1
  U  U0  1  0.50000000  0.50000000  0.00000000  1
  U  U1  1  0.00000000  0.50000000  0.50000000  1
  U  U2  1  0.50000000  0.00000000  0.50000000  1
  C  C0  1  0.92081100  0.09320800  0.48493400  1
  C  C1  1  0.48493400  0.92081100  0.09320800  1
  C  C2  1  0.09320800  0.48493400  0.92081100  1
  C  C3  1  0.57674500  0.57674500  0.57674500  1
  C  C4  1  0.07918900  0.90679200  0.51506600  1
  C  C5  1  0.51506600  0.07918900  0.90679200  1
  C  C6  1  0.90679200  0.51506600  0.07918900  1
  C  C7  1  0.42325500  0.42325500  0.42325500  1
loop_
_geom_bond_atom_site_label_1
_geom_bond_atom_site_label_2
_geom_bond_distance
_geom_bond_site_symmetry_2
C0 C4 1.374821 1_645
C0 U1 2.281361 1_655
C0 U2 2.375304 1_555
C0 La0 2.763584 1_655
C0 La0 2.928104 1_656
C1 C5 1.374821 1_564
C1 U2 2.281361 1_565
C1 U0 2.375304 1_555
C1 La0 2.763584 1_565
C1 La0 2.928104 1_665
C2 C6 1.374821 1_456
C2 U0 2.281361 1_556
C2 U1 2.375303 1_555
C2 La0 2.763584 1_556
C2 La0 2.928104 1_566
C3 C7 1.440575 1_555
C3 U0 2.428676 1_556
C3 U2 2.428676 1_565
C3 U1 2.428676 1_655
C4 U1 2.281361 1_555
C4 U2 2.375304 1_565
C4 La0 2.763584 1_566
C4 La0 2.928104 1_565
C5 U2 2.281361 1_555
C5 U0 2.375304 1_556
C5 La0 2.763584 1_656
C5 La0 2.928104 1_556
C6 U0 2.281361 1_555
C6 U1 2.375303 1_655
C6 La0 2.763584 1_665
C6 La0 2.928104 1_655
C7 U0 2.428676 1_555
C7 U1 2.428676 1_555
C7 U2 2.428676 1_555
