# generated using pymatgen
data_Ba(YbS2)2
_symmetry_space_group_name_H-M   'P 1'
_cell_length_a   4.32199300
_cell_length_b   11.77071200
_cell_length_c   14.98040600
_cell_angle_alpha   90.00000000
_cell_angle_beta   90.00000000
_cell_angle_gamma   90.00000000
_symmetry_Int_Tables_number   1
_chemical_formula_structural   Ba(YbS2)2
_chemical_formula_sum   'Ba4 Yb8 S16'
_cell_volume   762.09721875
_cell_formula_units_Z   4
loop_
 _symmetry_equiv_pos_site_id
 _symmetry_equiv_pos_as_xyz
  1  'x, y, z'
loop_
 _atom_site_type_symbol
 _atom_site_label
 _atom_site_symmetry_multiplicity
 _atom_site_fract_x
 _atom_site_fract_y
 _atom_site_fract_z
 _atom_site_occupancy
  Ba  Ba0  1  0.25000000  0.78933100  0.32247200  1
  Ba  Ba1  1  0.25000000  0.28933100  0.17752800  1
  Ba  Ba2  1  0.75000000  0.21066900  0.67752800  1
  Ba  Ba3  1  0.75000000  0.71066900  0.82247200  1
  Yb  Yb0  1  0.25000000  0.47253800  0.37827300  1
  Yb  Yb1  1  0.25000000  0.97253800  0.12172700  1
  Yb  Yb2  1  0.75000000  0.52746200  0.62172700  1
  Yb  Yb3  1  0.75000000  0.02746200  0.87827300  1
  Yb  Yb4  1  0.25000000  0.35932100  0.88932700  1
  Yb  Yb5  1  0.25000000  0.85932100  0.61067300  1
  Yb  Yb6  1  0.75000000  0.64067900  0.11067300  1
  Yb  Yb7  1  0.75000000  0.14067900  0.38932700  1
  S  S0  1  0.25000000  0.15070800  0.82433700  1
  S  S1  1  0.25000000  0.65070800  0.67566300  1
  S  S2  1  0.75000000  0.84929200  0.17566300  1
  S  S3  1  0.75000000  0.34929200  0.32433700  1
  S  S4  1  0.25000000  0.20196500  0.51666300  1
  S  S5  1  0.25000000  0.70196500  0.98333700  1
  S  S6  1  0.75000000  0.79803500  0.48333700  1
  S  S7  1  0.75000000  0.29803500  0.01666300  1
  S  S8  1  0.25000000  0.55868400  0.20128400  1
  S  S9  1  0.25000000  0.05868400  0.29871600  1
  S  S10  1  0.75000000  0.44131600  0.79871600  1
  S  S11  1  0.75000000  0.94131600  0.70128400  1
  S  S12  1  0.25000000  0.37270900  0.56208000  1
  S  S13  1  0.25000000  0.87270900  0.93792000  1
  S  S14  1  0.75000000  0.62729100  0.43792000  1
  S  S15  1  0.75000000  0.12729100  0.06208000  1
loop_
_geom_bond_atom_site_label_1
_geom_bond_atom_site_label_2
_geom_bond_distance
_geom_bond_site_symmetry_2
Ba0 S2 3.163032 1_555
Ba0 S2 3.163032 1_455
Ba0 S9 3.190387 1_565
Ba0 S6 3.238464 1_555
Ba0 S6 3.238464 1_455
Ba0 S8 3.265947 1_555
Ba0 S14 3.361372 1_455
Ba0 S14 3.361372 1_555
Ba1 S3 3.163032 1_555
Ba1 S3 3.163032 1_455
Ba1 S8 3.190387 1_555
Ba1 S7 3.238464 1_455
Ba1 S7 3.238464 1_555
Ba1 S9 3.265947 1_555
Ba1 S15 3.361372 1_555
Ba1 S15 3.361372 1_455
Ba2 S0 3.163032 1_555
Ba2 S0 3.163032 1_655
Ba2 S11 3.190387 1_545
Ba2 S4 3.238464 1_555
Ba2 S4 3.238464 1_655
Ba2 S10 3.265947 1_555
Ba2 S12 3.361372 1_655
Ba2 S12 3.361372 1_555
Ba3 S1 3.163032 1_555
Ba3 S1 3.163032 1_655
Ba3 S10 3.190387 1_555
Ba3 S5 3.238464 1_555
Ba3 S5 3.238464 1_655
Ba3 S11 3.265947 1_555
Ba3 S13 3.361372 1_555
Ba3 S13 3.361372 1_655
S0 Yb4 2.641486 1_555
S0 Yb3 2.725299 1_555
S0 Yb3 2.725299 1_455
S1 Yb5 2.641486 1_555
S1 Yb2 2.725299 1_555
S1 Yb2 2.725299 1_455
S2 Yb6 2.641486 1_555
S2 Yb1 2.725299 1_555
S2 Yb1 2.725299 1_655
S3 Yb7 2.641486 1_555
S3 Yb0 2.725299 1_555
S3 Yb0 2.725299 1_655
S4 Yb7 2.971367 1_455
S4 Yb7 2.971367 1_555
S5 Yb6 2.971367 1_456
S5 Yb6 2.971367 1_556
S6 Yb5 2.971367 1_555
S6 Yb5 2.971367 1_655
S7 Yb4 2.971367 1_554
S7 Yb4 2.971367 1_654
S8 Yb6 2.728352 1_455
S8 Yb6 2.728352 1_555
S8 Yb0 2.838652 1_555
S9 Yb7 2.728352 1_455
S9 Yb7 2.728352 1_555
S9 Yb1 2.838652 1_545
S10 Yb4 2.728352 1_555
S10 Yb4 2.728352 1_655
S10 Yb2 2.838652 1_555
S11 Yb5 2.728352 1_555
S11 Yb5 2.728352 1_655
S11 Yb3 2.838652 1_565
S12 S4 2.121817 1_555
S12 Yb2 2.964181 1_555
S12 Yb2 2.964181 1_455
S12 Yb0 2.993751 1_555
S13 S5 2.121817 1_555
S13 Yb3 2.964181 1_565
S13 Yb3 2.964181 1_465
S13 Yb1 2.993751 1_556
S14 S6 2.121817 1_555
S14 Yb0 2.964181 1_655
S14 Yb0 2.964181 1_555
S14 Yb2 2.993751 1_555
S15 S7 2.121817 1_555
S15 Yb1 2.964181 1_645
S15 Yb1 2.964181 1_545
S15 Yb3 2.993751 1_554
