# generated using pymatgen
data_Ba4Ga2Fe(S3F2)2
_symmetry_space_group_name_H-M   'P 1'
_cell_length_a   6.19338800
_cell_length_b   12.87266600
_cell_length_c   19.06479000
_cell_angle_alpha   90.00000000
_cell_angle_beta   90.00000000
_cell_angle_gamma   90.00000000
_symmetry_Int_Tables_number   1
_chemical_formula_structural   Ba4Ga2Fe(S3F2)2
_chemical_formula_sum   'Ba16 Ga8 Fe4 S24 F16'
_cell_volume   1519.94829716
_cell_formula_units_Z   4
loop_
 _symmetry_equiv_pos_site_id
 _symmetry_equiv_pos_as_xyz
  1  'x, y, z'
loop_
 _atom_site_type_symbol
 _atom_site_label
 _atom_site_symmetry_multiplicity
 _atom_site_fract_x
 _atom_site_fract_y
 _atom_site_fract_z
 _atom_site_occupancy
  Ba  Ba0  1  0.26594800  0.75088300  0.07896500  1
  Ba  Ba1  1  0.23405200  0.25088300  0.42103500  1
  Ba  Ba2  1  0.73405200  0.24911700  0.57896500  1
  Ba  Ba3  1  0.76594800  0.74911700  0.92103500  1
  Ba  Ba4  1  0.73405200  0.24911700  0.92103500  1
  Ba  Ba5  1  0.76594800  0.74911700  0.57896500  1
  Ba  Ba6  1  0.26594800  0.75088300  0.42103500  1
  Ba  Ba7  1  0.23405200  0.25088300  0.07896500  1
  Ba  Ba8  1  0.75656200  0.99793600  0.07852700  1
  Ba  Ba9  1  0.74343800  0.49793600  0.42147300  1
  Ba  Ba10  1  0.24343800  0.00206400  0.57852700  1
  Ba  Ba11  1  0.25656200  0.50206400  0.92147300  1
  Ba  Ba12  1  0.24343800  0.00206400  0.92147300  1
  Ba  Ba13  1  0.25656200  0.50206400  0.57852700  1
  Ba  Ba14  1  0.75656200  0.99793600  0.42147300  1
  Ba  Ba15  1  0.74343800  0.49793600  0.07852700  1
  Ga  Ga0  1  0.64188000  0.79591200  0.25000000  1
  Ga  Ga1  1  0.85812000  0.29591200  0.25000000  1
  Ga  Ga2  1  0.35812000  0.20408800  0.75000000  1
  Ga  Ga3  1  0.14188000  0.70408800  0.75000000  1
  Ga  Ga4  1  0.13949300  0.95137900  0.25000000  1
  Ga  Ga5  1  0.36050700  0.45137900  0.25000000  1
  Ga  Ga6  1  0.86050700  0.04862100  0.75000000  1
  Ga  Ga7  1  0.63949300  0.54862100  0.75000000  1
  Fe  Fe0  1  0.49845100  0.12423400  0.25000000  1
  Fe  Fe1  1  0.00154900  0.62423400  0.25000000  1
  Fe  Fe2  1  0.50154900  0.87576600  0.75000000  1
  Fe  Fe3  1  0.99845100  0.37576600  0.75000000  1
  S  S0  1  0.27346400  0.02181400  0.34906600  1
  S  S1  1  0.22653600  0.52181400  0.15093400  1
  S  S2  1  0.72653600  0.97818600  0.84906600  1
  S  S3  1  0.77346400  0.47818600  0.65093400  1
  S  S4  1  0.72653600  0.97818600  0.65093400  1
  S  S5  1  0.77346400  0.47818600  0.84906600  1
  S  S6  1  0.27346400  0.02181400  0.15093400  1
  S  S7  1  0.22653600  0.52181400  0.34906600  1
  S  S8  1  0.77746400  0.72584700  0.15100000  1
  S  S9  1  0.72253600  0.22584700  0.34900000  1
  S  S10  1  0.22253600  0.27415300  0.65100000  1
  S  S11  1  0.27746400  0.77415300  0.84900000  1
  S  S12  1  0.22253600  0.27415300  0.84900000  1
  S  S13  1  0.27746400  0.77415300  0.65100000  1
  S  S14  1  0.77746400  0.72584700  0.34900000  1
  S  S15  1  0.72253600  0.22584700  0.15100000  1
  S  S16  1  0.26446000  0.77983200  0.25000000  1
  S  S17  1  0.23554000  0.27983200  0.25000000  1
  S  S18  1  0.73554000  0.22016800  0.75000000  1
  S  S19  1  0.76446000  0.72016800  0.75000000  1
  S  S20  1  0.76213400  0.96765200  0.25000000  1
  S  S21  1  0.73786600  0.46765200  0.25000000  1
  S  S22  1  0.23786600  0.03234800  0.75000000  1
  S  S23  1  0.26213400  0.53234800  0.75000000  1
  F  F0  1  0.01183800  0.87477900  0.00204800  1
  F  F1  1  0.48816200  0.37477900  0.49795200  1
  F  F2  1  0.98816200  0.12522100  0.50204800  1
  F  F3  1  0.51183800  0.62522100  0.99795200  1
  F  F4  1  0.98816200  0.12522100  0.99795200  1
  F  F5  1  0.51183800  0.62522100  0.50204800  1
  F  F6  1  0.01183800  0.87477900  0.49795200  1
  F  F7  1  0.48816200  0.37477900  0.00204800  1
  F  F8  1  0.00702200  0.62442800  0.00041000  1
  F  F9  1  0.49297800  0.12442800  0.49959000  1
  F  F10  1  0.99297800  0.37557200  0.50041000  1
  F  F11  1  0.50702200  0.87557200  0.99959000  1
  F  F12  1  0.99297800  0.37557200  0.99959000  1
  F  F13  1  0.50702200  0.87557200  0.50041000  1
  F  F14  1  0.00702200  0.62442800  0.49959000  1
  F  F15  1  0.49297800  0.12442800  0.00041000  1
loop_
_geom_bond_atom_site_label_1
_geom_bond_atom_site_label_2
_geom_bond_distance
_geom_bond_site_symmetry_2
Ba0 F11 2.663739 1_554
Ba0 F0 2.677838 1_555
Ba0 F3 2.705793 1_554
Ba0 F8 2.732089 1_555
Ba0 S1 3.261467 1_555
Ba0 S16 3.281984 1_555
Ba0 S8 3.338080 1_455
Ba0 S8 3.467887 1_555
Ba0 S6 3.748084 1_565
Ba1 F10 2.663739 1_455
Ba1 F1 2.677838 1_555
Ba1 F2 2.705793 1_455
Ba1 F9 2.732089 1_555
Ba1 S0 3.261467 1_555
Ba1 S17 3.281984 1_555
Ba1 S9 3.338080 1_555
Ba1 S9 3.467887 1_455
Ba1 S7 3.748084 1_555
Ba2 F9 2.663739 1_555
Ba2 F2 2.677838 1_555
Ba2 F1 2.705793 1_555
Ba2 F10 2.732089 1_555
Ba2 S3 3.261467 1_555
Ba2 S18 3.281984 1_555
Ba2 S10 3.338080 1_655
Ba2 S10 3.467887 1_555
Ba2 S4 3.748084 1_545
Ba3 F8 2.663739 1_656
Ba3 F3 2.677838 1_555
Ba3 F0 2.705793 1_656
Ba3 F11 2.732089 1_555
Ba3 S2 3.261467 1_555
Ba3 S19 3.281984 1_555
Ba3 S11 3.338080 1_555
Ba3 S11 3.467887 1_655
Ba3 S5 3.748084 1_555
Ba4 F15 2.663739 1_556
Ba4 F4 2.677838 1_555
Ba4 F7 2.705793 1_556
Ba4 F12 2.732089 1_555
Ba4 S5 3.261467 1_555
Ba4 S18 3.281984 1_555
Ba4 S12 3.338080 1_655
Ba4 S12 3.467887 1_555
Ba4 S2 3.748084 1_545
Ba5 F14 2.663739 1_655
Ba5 F5 2.677838 1_555
Ba5 F6 2.705793 1_655
Ba5 F13 2.732089 1_555
Ba5 S4 3.261467 1_555
Ba5 S19 3.281984 1_555
Ba5 S13 3.338080 1_555
Ba5 S13 3.467887 1_655
Ba5 S3 3.748084 1_555
Ba6 F13 2.663739 1_555
Ba6 F6 2.677838 1_555
Ba6 F5 2.705793 1_555
Ba6 F14 2.732089 1_555
Ba6 S7 3.261467 1_555
Ba6 S16 3.281984 1_555
Ba6 S14 3.338080 1_455
Ba6 S14 3.467887 1_555
Ba6 S0 3.748084 1_565
Ba7 F12 2.663739 1_454
Ba7 F7 2.677838 1_555
Ba7 F4 2.705793 1_454
Ba7 F15 2.732089 1_555
Ba7 S6 3.261467 1_555
Ba7 S17 3.281984 1_555
Ba7 S15 3.338080 1_555
Ba7 S15 3.467887 1_455
Ba7 S1 3.748084 1_555
Ba8 F4 2.664937 1_564
Ba8 F11 2.671037 1_554
Ba8 F0 2.671877 1_655
Ba8 F15 2.744864 1_565
Ba8 S15 3.249734 1_565
Ba8 S20 3.292439 1_555
Ba8 S6 3.309410 1_565
Ba8 S6 3.499836 1_665
Ba8 S8 3.767411 1_555
Ba9 F5 2.664937 1_555
Ba9 F10 2.671037 1_555
Ba9 F1 2.671877 1_555
Ba9 F14 2.744864 1_655
Ba9 S14 3.249734 1_555
Ba9 S21 3.292439 1_555
Ba9 S7 3.309410 1_655
Ba9 S7 3.499836 1_555
Ba9 S9 3.767411 1_555
Ba10 F6 2.664937 1_545
Ba10 F9 2.671037 1_555
Ba10 F2 2.671877 1_455
Ba10 F13 2.744864 1_545
Ba10 S13 3.249734 1_545
Ba10 S22 3.292439 1_555
Ba10 S4 3.309410 1_545
Ba10 S4 3.499836 1_445
Ba10 S10 3.767411 1_555
Ba11 F7 2.664937 1_556
Ba11 F8 2.671037 1_556
Ba11 F3 2.671877 1_555
Ba11 F12 2.744864 1_455
Ba11 S12 3.249734 1_555
Ba11 S23 3.292439 1_555
Ba11 S5 3.309410 1_455
Ba11 S5 3.499836 1_555
Ba11 S11 3.767411 1_555
Ba12 F0 2.664937 1_546
Ba12 F15 2.671037 1_556
Ba12 F4 2.671877 1_455
Ba12 F11 2.744864 1_545
Ba12 S11 3.249734 1_545
Ba12 S22 3.292439 1_555
Ba12 S2 3.309410 1_545
Ba12 S2 3.499836 1_445
Ba12 S12 3.767411 1_555
Ba13 F1 2.664937 1_555
Ba13 F14 2.671037 1_555
Ba13 F5 2.671877 1_555
Ba13 F10 2.744864 1_455
Ba13 S10 3.249734 1_555
Ba13 S23 3.292439 1_555
Ba13 S3 3.309410 1_455
Ba13 S3 3.499836 1_555
Ba13 S13 3.767411 1_555
Ba14 F2 2.664937 1_565
Ba14 F13 2.671037 1_555
Ba14 F6 2.671877 1_655
Ba14 F9 2.744864 1_565
Ba14 S9 3.249734 1_565
Ba14 S20 3.292439 1_555
Ba14 S0 3.309410 1_565
Ba14 S0 3.499836 1_665
Ba14 S14 3.767411 1_555
Ba15 F3 2.664937 1_554
Ba15 F12 2.671037 1_554
Ba15 F7 2.671877 1_555
Ba15 F8 2.744864 1_655
Ba15 S8 3.249734 1_555
Ba15 S21 3.292439 1_555
Ba15 S1 3.309410 1_655
Ba15 S1 3.499836 1_555
Ba15 S15 3.767411 1_555
Ga0 S14 2.254093 1_555
Ga0 S8 2.254093 1_555
Ga0 S20 2.332835 1_555
Ga0 S16 2.346655 1_555
Ga1 S9 2.254093 1_555
Ga1 S15 2.254093 1_555
Ga1 S21 2.332835 1_555
Ga1 S17 2.346655 1_655
Ga2 S10 2.254093 1_555
Ga2 S12 2.254093 1_555
Ga2 S22 2.332835 1_555
Ga2 S18 2.346655 1_555
Ga3 S13 2.254093 1_555
Ga3 S11 2.254093 1_555
Ga3 S23 2.332835 1_555
Ga3 S19 2.346655 1_455
Ga4 S0 2.253358 1_565
Ga4 S6 2.253358 1_565
Ga4 S16 2.339973 1_555
Ga4 S20 2.346500 1_455
Ga5 S1 2.253358 1_555
Ga5 S7 2.253358 1_555
Ga5 S17 2.339973 1_555
Ga5 S21 2.346500 1_555
Ga6 S2 2.253358 1_545
Ga6 S4 2.253358 1_545
Ga6 S18 2.339973 1_555
Ga6 S22 2.346500 1_655
Ga7 S3 2.253358 1_555
Ga7 S5 2.253358 1_555
Ga7 S19 2.339973 1_555
Ga7 S23 2.346500 1_555
Fe0 S17 2.581326 1_555
Fe0 S20 2.594175 1_545
Fe0 S9 2.683168 1_555
Fe0 S15 2.683168 1_555
Fe0 S0 2.692018 1_555
Fe0 S6 2.692018 1_555
Fe1 S16 2.581326 1_555
Fe1 S21 2.594175 1_455
Fe1 S14 2.683168 1_455
Fe1 S8 2.683168 1_455
Fe1 S7 2.692018 1_555
Fe1 S1 2.692018 1_555
Fe2 S19 2.581326 1_555
Fe2 S22 2.594175 1_565
Fe2 S13 2.683168 1_555
Fe2 S11 2.683168 1_555
Fe2 S2 2.692018 1_555
Fe2 S4 2.692018 1_555
Fe3 S18 2.581326 1_555
Fe3 S23 2.594175 1_655
Fe3 S10 2.683168 1_655
Fe3 S12 2.683168 1_655
Fe3 S5 2.692018 1_555
Fe3 S3 2.692018 1_555
