# generated using pymatgen
data_Fe3Ni2
_symmetry_space_group_name_H-M   'P 1'
_cell_length_a   5.00363800
_cell_length_b   5.00363800
_cell_length_c   36.35359800
_cell_angle_alpha   90.00000000
_cell_angle_beta   90.00000000
_cell_angle_gamma   90.00000000
_symmetry_Int_Tables_number   1
_chemical_formula_structural   Fe3Ni2
_chemical_formula_sum   'Fe48 Ni32'
_cell_volume   910.16297504
_cell_formula_units_Z   16
loop_
 _symmetry_equiv_pos_site_id
 _symmetry_equiv_pos_as_xyz
  1  'x, y, z'
loop_
 _atom_site_type_symbol
 _atom_site_label
 _atom_site_symmetry_multiplicity
 _atom_site_fract_x
 _atom_site_fract_y
 _atom_site_fract_z
 _atom_site_occupancy
  Fe  Fe0_0  1  0.00000000  0.00000000  0.44780200  1
  Fe  Fe0_1  1  0.00000000  0.00000000  0.94780200  1
  Fe  Fe0_2  1  0.00000000  0.50000000  0.44780200  1
  Fe  Fe0_3  1  0.00000000  0.50000000  0.94780200  1
  Fe  Fe0_4  1  0.50000000  0.00000000  0.44780200  1
  Fe  Fe0_5  1  0.50000000  0.00000000  0.94780200  1
  Fe  Fe0_6  1  0.50000000  0.50000000  0.44780200  1
  Fe  Fe0_7  1  0.50000000  0.50000000  0.94780200  1
  Fe  Fe1_0  1  0.00000000  0.00000000  0.05219800  1
  Fe  Fe1_1  1  0.00000000  0.00000000  0.55219800  1
  Fe  Fe1_2  1  0.00000000  0.50000000  0.05219800  1
  Fe  Fe1_3  1  0.00000000  0.50000000  0.55219800  1
  Fe  Fe1_4  1  0.50000000  0.00000000  0.05219800  1
  Fe  Fe1_5  1  0.50000000  0.00000000  0.55219800  1
  Fe  Fe1_6  1  0.50000000  0.50000000  0.05219800  1
  Fe  Fe1_7  1  0.50000000  0.50000000  0.55219800  1
  Fe  Fe2_0  1  0.00000000  0.00000000  0.15064600  1
  Fe  Fe2_1  1  0.00000000  0.00000000  0.65064600  1
  Fe  Fe2_2  1  0.00000000  0.50000000  0.15064600  1
  Fe  Fe2_3  1  0.00000000  0.50000000  0.65064600  1
  Fe  Fe2_4  1  0.50000000  0.00000000  0.15064600  1
  Fe  Fe2_5  1  0.50000000  0.00000000  0.65064600  1
  Fe  Fe2_6  1  0.50000000  0.50000000  0.15064600  1
  Fe  Fe2_7  1  0.50000000  0.50000000  0.65064600  1
  Fe  Fe3_0  1  0.00000000  0.00000000  0.25000000  1
  Fe  Fe3_1  1  0.00000000  0.00000000  0.75000000  1
  Fe  Fe3_2  1  0.00000000  0.50000000  0.25000000  1
  Fe  Fe3_3  1  0.00000000  0.50000000  0.75000000  1
  Fe  Fe3_4  1  0.50000000  0.00000000  0.25000000  1
  Fe  Fe3_5  1  0.50000000  0.00000000  0.75000000  1
  Fe  Fe3_6  1  0.50000000  0.50000000  0.25000000  1
  Fe  Fe3_7  1  0.50000000  0.50000000  0.75000000  1
  Fe  Fe4_0  1  0.00000000  0.00000000  0.34935400  1
  Fe  Fe4_1  1  0.00000000  0.00000000  0.84935400  1
  Fe  Fe4_2  1  0.00000000  0.50000000  0.34935400  1
  Fe  Fe4_3  1  0.00000000  0.50000000  0.84935400  1
  Fe  Fe4_4  1  0.50000000  0.00000000  0.34935400  1
  Fe  Fe4_5  1  0.50000000  0.00000000  0.84935400  1
  Fe  Fe4_6  1  0.50000000  0.50000000  0.34935400  1
  Fe  Fe4_7  1  0.50000000  0.50000000  0.84935400  1
  Fe  Fe5_0  1  0.25000000  0.25000000  0.00000000  1
  Fe  Fe5_1  1  0.25000000  0.25000000  0.50000000  1
  Fe  Fe5_2  1  0.25000000  0.75000000  0.00000000  1
  Fe  Fe5_3  1  0.25000000  0.75000000  0.50000000  1
  Fe  Fe5_4  1  0.75000000  0.25000000  0.00000000  1
  Fe  Fe5_5  1  0.75000000  0.25000000  0.50000000  1
  Fe  Fe5_6  1  0.75000000  0.75000000  0.00000000  1
  Fe  Fe5_7  1  0.75000000  0.75000000  0.50000000  1
  Ni  Ni0_0  1  0.25000000  0.25000000  0.10144300  1
  Ni  Ni0_1  1  0.25000000  0.25000000  0.60144300  1
  Ni  Ni0_2  1  0.25000000  0.75000000  0.10144300  1
  Ni  Ni0_3  1  0.25000000  0.75000000  0.60144300  1
  Ni  Ni0_4  1  0.75000000  0.25000000  0.10144300  1
  Ni  Ni0_5  1  0.75000000  0.25000000  0.60144300  1
  Ni  Ni0_6  1  0.75000000  0.75000000  0.10144300  1
  Ni  Ni0_7  1  0.75000000  0.75000000  0.60144300  1
  Ni  Ni1_0  1  0.25000000  0.25000000  0.20008700  1
  Ni  Ni1_1  1  0.25000000  0.25000000  0.70008700  1
  Ni  Ni1_2  1  0.25000000  0.75000000  0.20008700  1
  Ni  Ni1_3  1  0.25000000  0.75000000  0.70008700  1
  Ni  Ni1_4  1  0.75000000  0.25000000  0.20008700  1
  Ni  Ni1_5  1  0.75000000  0.25000000  0.70008700  1
  Ni  Ni1_6  1  0.75000000  0.75000000  0.20008700  1
  Ni  Ni1_7  1  0.75000000  0.75000000  0.70008700  1
  Ni  Ni2_0  1  0.25000000  0.25000000  0.29991300  1
  Ni  Ni2_1  1  0.25000000  0.25000000  0.79991300  1
  Ni  Ni2_2  1  0.25000000  0.75000000  0.29991300  1
  Ni  Ni2_3  1  0.25000000  0.75000000  0.79991300  1
  Ni  Ni2_4  1  0.75000000  0.25000000  0.29991300  1
  Ni  Ni2_5  1  0.75000000  0.25000000  0.79991300  1
  Ni  Ni2_6  1  0.75000000  0.75000000  0.29991300  1
  Ni  Ni2_7  1  0.75000000  0.75000000  0.79991300  1
  Ni  Ni3_0  1  0.25000000  0.25000000  0.39855700  1
  Ni  Ni3_1  1  0.25000000  0.25000000  0.89855700  1
  Ni  Ni3_2  1  0.25000000  0.75000000  0.39855700  1
  Ni  Ni3_3  1  0.25000000  0.75000000  0.89855700  1
  Ni  Ni3_4  1  0.75000000  0.25000000  0.39855700  1
  Ni  Ni3_5  1  0.75000000  0.25000000  0.89855700  1
  Ni  Ni3_6  1  0.75000000  0.75000000  0.39855700  1
  Ni  Ni3_7  1  0.75000000  0.75000000  0.89855700  1
loop_
_geom_bond_atom_site_label_1
_geom_bond_atom_site_label_2
_geom_bond_distance
_geom_bond_site_symmetry_2
Fe0_0 Fe0_4 2.501819 1_455
Fe0_0 Fe0_2 2.501819 1_545
Fe0_0 Fe0_2 2.501819 1_555
Fe0_0 Fe0_4 2.501819 1_555
Fe0_0 Ni3_6 2.516840 1_445
Fe0_0 Ni3_4 2.516840 1_455
Fe0_0 Ni3_2 2.516840 1_545
Fe0_0 Ni3_0 2.516840 1_555
Fe0_0 Fe5_1 2.594297 1_555
Fe0_0 Fe5_5 2.594297 1_455
Fe0_0 Fe5_7 2.594297 1_445
Fe0_0 Fe5_3 2.594297 1_545
Fe0_1 Fe0_3 2.501819 1_555
Fe0_1 Fe0_5 2.501819 1_455
Fe0_1 Fe0_3 2.501819 1_545
Fe0_1 Fe0_5 2.501819 1_555
Fe0_1 Ni3_5 2.516840 1_455
Fe0_1 Ni3_3 2.516840 1_545
Fe0_1 Ni3_7 2.516840 1_445
Fe0_1 Ni3_1 2.516840 1_555
Fe0_1 Fe5_2 2.594297 1_546
Fe0_1 Fe5_0 2.594297 1_556
Fe0_1 Fe5_4 2.594297 1_456
Fe0_1 Fe5_6 2.594297 1_446
Fe0_2 Fe0_6 2.501819 1_555
Fe0_2 Fe0_6 2.501819 1_455
Fe0_2 Ni3_2 2.516840 1_555
Fe0_2 Ni3_6 2.516840 1_455
Fe0_2 Ni3_4 2.516840 1_455
Fe0_2 Ni3_0 2.516840 1_555
Fe0_2 Fe5_1 2.594297 1_555
Fe0_2 Fe5_5 2.594297 1_455
Fe0_2 Fe5_3 2.594297 1_555
Fe0_2 Fe5_7 2.594297 1_455
Fe0_3 Fe0_7 2.501819 1_555
Fe0_3 Fe0_7 2.501819 1_455
Fe0_3 Ni3_5 2.516840 1_455
Fe0_3 Ni3_3 2.516840 1_555
Fe0_3 Ni3_7 2.516840 1_455
Fe0_3 Ni3_1 2.516840 1_555
Fe0_3 Fe5_6 2.594297 1_456
Fe0_3 Fe5_0 2.594297 1_556
Fe0_3 Fe5_4 2.594297 1_456
Fe0_3 Fe5_2 2.594297 1_556
Fe0_4 Fe0_6 2.501819 1_545
Fe0_4 Fe0_6 2.501819 1_555
Fe0_4 Ni3_4 2.516840 1_555
Fe0_4 Ni3_2 2.516840 1_545
Fe0_4 Ni3_0 2.516840 1_555
Fe0_4 Ni3_6 2.516840 1_545
Fe0_4 Fe5_1 2.594297 1_555
Fe0_4 Fe5_7 2.594297 1_545
Fe0_4 Fe5_5 2.594297 1_555
Fe0_4 Fe5_3 2.594297 1_545
Fe0_5 Fe0_7 2.501819 1_555
Fe0_5 Fe0_7 2.501819 1_545
Fe0_5 Ni3_5 2.516840 1_555
Fe0_5 Ni3_3 2.516840 1_545
Fe0_5 Ni3_1 2.516840 1_555
Fe0_5 Ni3_7 2.516840 1_545
Fe0_5 Fe5_0 2.594297 1_556
Fe0_5 Fe5_2 2.594297 1_546
Fe0_5 Fe5_6 2.594297 1_546
Fe0_5 Fe5_4 2.594297 1_556
Fe0_6 Ni3_4 2.516840 1_555
Fe0_6 Ni3_2 2.516840 1_555
Fe0_6 Ni3_6 2.516840 1_555
Fe0_6 Ni3_0 2.516840 1_555
Fe0_6 Fe5_1 2.594297 1_555
Fe0_6 Fe5_7 2.594297 1_555
Fe0_6 Fe5_5 2.594297 1_555
Fe0_6 Fe5_3 2.594297 1_555
Fe0_7 Ni3_5 2.516840 1_555
Fe0_7 Ni3_7 2.516840 1_555
Fe0_7 Ni3_3 2.516840 1_555
Fe0_7 Ni3_1 2.516840 1_555
Fe0_7 Fe5_6 2.594297 1_556
Fe0_7 Fe5_0 2.594297 1_556
Fe0_7 Fe5_4 2.594297 1_556
Fe0_7 Fe5_2 2.594297 1_556
Fe1_0 Fe1_2 2.501819 1_555
Fe1_0 Fe1_4 2.501819 1_455
Fe1_0 Fe1_4 2.501819 1_555
Fe1_0 Fe1_2 2.501819 1_545
Fe1_0 Ni0_0 2.516840 1_555
Fe1_0 Ni0_4 2.516840 1_455
Fe1_0 Ni0_2 2.516840 1_545
Fe1_0 Ni0_6 2.516840 1_445
Fe1_0 Fe5_0 2.594297 1_555
Fe1_0 Fe5_4 2.594297 1_455
Fe1_0 Fe5_6 2.594297 1_445
Fe1_0 Fe5_2 2.594297 1_545
Fe1_1 Fe1_5 2.501819 1_455
Fe1_1 Fe1_3 2.501819 1_555
Fe1_1 Fe1_3 2.501819 1_545
Fe1_1 Fe1_5 2.501819 1_555
Fe1_1 Ni0_5 2.516840 1_455
Fe1_1 Ni0_3 2.516840 1_545
Fe1_1 Ni0_1 2.516840 1_555
Fe1_1 Ni0_7 2.516840 1_445
Fe1_1 Fe5_3 2.594297 1_545
Fe1_1 Fe5_1 2.594297 1_555
Fe1_1 Fe5_7 2.594297 1_445
Fe1_1 Fe5_5 2.594297 1_455
Fe1_2 Fe1_6 2.501819 1_455
Fe1_2 Fe1_6 2.501819 1_555
Fe1_2 Ni0_6 2.516840 1_455
Fe1_2 Ni0_2 2.516840 1_555
Fe1_2 Ni0_0 2.516840 1_555
Fe1_2 Ni0_4 2.516840 1_455
Fe1_2 Fe5_4 2.594297 1_455
Fe1_2 Fe5_0 2.594297 1_555
Fe1_2 Fe5_2 2.594297 1_555
Fe1_2 Fe5_6 2.594297 1_455
Fe1_3 Fe1_7 2.501819 1_455
Fe1_3 Fe1_7 2.501819 1_555
Fe1_3 Ni0_5 2.516840 1_455
Fe1_3 Ni0_3 2.516840 1_555
Fe1_3 Ni0_1 2.516840 1_555
Fe1_3 Ni0_7 2.516840 1_455
Fe1_3 Fe5_7 2.594297 1_455
Fe1_3 Fe5_1 2.594297 1_555
Fe1_3 Fe5_5 2.594297 1_455
Fe1_3 Fe5_3 2.594297 1_555
Fe1_4 Fe1_6 2.501819 1_555
Fe1_4 Fe1_6 2.501819 1_545
Fe1_4 Ni0_4 2.516840 1_555
Fe1_4 Ni0_0 2.516840 1_555
Fe1_4 Ni0_2 2.516840 1_545
Fe1_4 Ni0_6 2.516840 1_545
Fe1_4 Fe5_0 2.594297 1_555
Fe1_4 Fe5_6 2.594297 1_545
Fe1_4 Fe5_4 2.594297 1_555
Fe1_4 Fe5_2 2.594297 1_545
Fe1_5 Fe1_7 2.501819 1_545
Fe1_5 Fe1_7 2.501819 1_555
Fe1_5 Ni0_5 2.516840 1_555
Fe1_5 Ni0_3 2.516840 1_545
Fe1_5 Ni0_1 2.516840 1_555
Fe1_5 Ni0_7 2.516840 1_545
Fe1_5 Fe5_1 2.594297 1_555
Fe1_5 Fe5_7 2.594297 1_545
Fe1_5 Fe5_5 2.594297 1_555
Fe1_5 Fe5_3 2.594297 1_545
Fe1_6 Ni0_4 2.516840 1_555
Fe1_6 Ni0_2 2.516840 1_555
Fe1_6 Ni0_0 2.516840 1_555
Fe1_6 Ni0_6 2.516840 1_555
Fe1_6 Fe5_0 2.594297 1_555
Fe1_6 Fe5_2 2.594297 1_555
Fe1_6 Fe5_4 2.594297 1_555
Fe1_6 Fe5_6 2.594297 1_555
Fe1_7 Ni0_5 2.516840 1_555
Fe1_7 Ni0_3 2.516840 1_555
Fe1_7 Ni0_7 2.516840 1_555
Fe1_7 Ni0_1 2.516840 1_555
Fe1_7 Fe5_7 2.594297 1_555
Fe1_7 Fe5_1 2.594297 1_555
Fe1_7 Fe5_5 2.594297 1_555
Fe1_7 Fe5_3 2.594297 1_555
Fe2_0 Fe2_2 2.501819 1_555
Fe2_0 Fe2_4 2.501819 1_455
Fe2_0 Fe2_2 2.501819 1_545
Fe2_0 Fe2_4 2.501819 1_555
Fe2_0 Ni0_0 2.515754 1_555
Fe2_0 Ni0_4 2.515754 1_455
Fe2_0 Ni0_2 2.515754 1_545
Fe2_0 Ni0_6 2.515754 1_445
Fe2_0 Ni1_6 2.521913 1_445
Fe2_0 Ni1_0 2.521913 1_555
Fe2_0 Ni1_4 2.521913 1_455
Fe2_0 Ni1_2 2.521913 1_545
Fe2_1 Fe2_5 2.501819 1_455
Fe2_1 Fe2_3 2.501819 1_545
Fe2_1 Fe2_5 2.501819 1_555
Fe2_1 Fe2_3 2.501819 1_555
Fe2_1 Ni0_5 2.515754 1_455
Fe2_1 Ni0_3 2.515754 1_545
Fe2_1 Ni0_7 2.515754 1_445
Fe2_1 Ni0_1 2.515754 1_555
Fe2_1 Ni1_1 2.521913 1_555
Fe2_1 Ni1_5 2.521913 1_455
Fe2_1 Ni1_3 2.521913 1_545
Fe2_1 Ni1_7 2.521913 1_445
Fe2_2 Fe2_6 2.501819 1_555
Fe2_2 Fe2_6 2.501819 1_455
Fe2_2 Ni0_0 2.515754 1_555
Fe2_2 Ni0_2 2.515754 1_555
Fe2_2 Ni0_4 2.515754 1_455
Fe2_2 Ni0_6 2.515754 1_455
Fe2_2 Ni1_2 2.521913 1_555
Fe2_2 Ni1_6 2.521913 1_455
Fe2_2 Ni1_0 2.521913 1_555
Fe2_2 Ni1_4 2.521913 1_455
Fe2_3 Fe2_7 2.501819 1_455
Fe2_3 Fe2_7 2.501819 1_555
Fe2_3 Ni0_5 2.515754 1_455
Fe2_3 Ni0_3 2.515754 1_555
Fe2_3 Ni0_1 2.515754 1_555
Fe2_3 Ni0_7 2.515754 1_455
Fe2_3 Ni1_1 2.521913 1_555
Fe2_3 Ni1_5 2.521913 1_455
Fe2_3 Ni1_3 2.521913 1_555
Fe2_3 Ni1_7 2.521913 1_455
Fe2_4 Fe2_6 2.501819 1_555
Fe2_4 Fe2_6 2.501819 1_545
Fe2_4 Ni0_0 2.515754 1_555
Fe2_4 Ni0_2 2.515754 1_545
Fe2_4 Ni0_6 2.515754 1_545
Fe2_4 Ni0_4 2.515754 1_555
Fe2_4 Ni1_6 2.521913 1_545
Fe2_4 Ni1_0 2.521913 1_555
Fe2_4 Ni1_4 2.521913 1_555
Fe2_4 Ni1_2 2.521913 1_545
Fe2_5 Fe2_7 2.501819 1_555
Fe2_5 Fe2_7 2.501819 1_545
Fe2_5 Ni0_3 2.515754 1_545
Fe2_5 Ni0_1 2.515754 1_555
Fe2_5 Ni0_7 2.515754 1_545
Fe2_5 Ni0_5 2.515754 1_555
Fe2_5 Ni1_7 2.521913 1_545
Fe2_5 Ni1_1 2.521913 1_555
Fe2_5 Ni1_5 2.521913 1_555
Fe2_5 Ni1_3 2.521913 1_545
Fe2_6 Ni0_0 2.515754 1_555
Fe2_6 Ni0_2 2.515754 1_555
Fe2_6 Ni0_6 2.515754 1_555
Fe2_6 Ni0_4 2.515754 1_555
Fe2_6 Ni1_2 2.521913 1_555
Fe2_6 Ni1_0 2.521913 1_555
Fe2_6 Ni1_4 2.521913 1_555
Fe2_6 Ni1_6 2.521913 1_555
Fe2_7 Ni0_3 2.515754 1_555
Fe2_7 Ni0_7 2.515754 1_555
Fe2_7 Ni0_1 2.515754 1_555
Fe2_7 Ni0_5 2.515754 1_555
Fe2_7 Ni1_1 2.521913 1_555
Fe2_7 Ni1_5 2.521913 1_555
Fe2_7 Ni1_3 2.521913 1_555
Fe2_7 Ni1_7 2.521913 1_555
Fe3_0 Fe3_2 2.501819 1_555
Fe3_0 Fe3_4 2.501819 1_455
Fe3_0 Fe3_2 2.501819 1_545
Fe3_0 Fe3_4 2.501819 1_555
Fe3_0 Ni2_4 2.534171 1_455
Fe3_0 Ni2_2 2.534171 1_545
Fe3_0 Ni2_0 2.534171 1_555
Fe3_0 Ni2_6 2.534171 1_445
Fe3_0 Ni1_0 2.534171 1_555
Fe3_0 Ni1_4 2.534171 1_455
Fe3_0 Ni1_2 2.534171 1_545
Fe3_0 Ni1_6 2.534171 1_445
Fe3_1 Fe3_5 2.501819 1_455
Fe3_1 Fe3_3 2.501819 1_545
Fe3_1 Fe3_5 2.501819 1_555
Fe3_1 Fe3_3 2.501819 1_555
Fe3_1 Ni1_5 2.534171 1_455
Fe3_1 Ni1_1 2.534171 1_555
Fe3_1 Ni2_1 2.534171 1_555
Fe3_1 Ni1_3 2.534171 1_545
Fe3_1 Ni1_7 2.534171 1_445
Fe3_1 Ni2_5 2.534171 1_455
Fe3_1 Ni2_3 2.534171 1_545
Fe3_1 Ni2_7 2.534171 1_445
Fe3_2 Fe3_6 2.501819 1_455
Fe3_2 Fe3_6 2.501819 1_555
Fe3_2 Ni2_6 2.534171 1_455
Fe3_2 Ni2_4 2.534171 1_455
Fe3_2 Ni2_2 2.534171 1_555
Fe3_2 Ni2_0 2.534171 1_555
Fe3_2 Ni1_0 2.534171 1_555
Fe3_2 Ni1_6 2.534171 1_455
Fe3_2 Ni1_4 2.534171 1_455
Fe3_2 Ni1_2 2.534171 1_555
Fe3_3 Fe3_7 2.501819 1_455
Fe3_3 Fe3_7 2.501819 1_555
Fe3_3 Ni1_5 2.534171 1_455
Fe3_3 Ni1_1 2.534171 1_555
Fe3_3 Ni1_3 2.534171 1_555
Fe3_3 Ni1_7 2.534171 1_455
Fe3_3 Ni2_1 2.534171 1_555
Fe3_3 Ni2_3 2.534171 1_555
Fe3_3 Ni2_7 2.534171 1_455
Fe3_3 Ni2_5 2.534171 1_455
Fe3_4 Fe3_6 2.501819 1_545
Fe3_4 Fe3_6 2.501819 1_555
Fe3_4 Ni2_4 2.534171 1_555
Fe3_4 Ni2_2 2.534171 1_545
Fe3_4 Ni2_0 2.534171 1_555
Fe3_4 Ni2_6 2.534171 1_545
Fe3_4 Ni1_0 2.534171 1_555
Fe3_4 Ni1_4 2.534171 1_555
Fe3_4 Ni1_2 2.534171 1_545
Fe3_4 Ni1_6 2.534171 1_545
Fe3_5 Fe3_7 2.501819 1_545
Fe3_5 Fe3_7 2.501819 1_555
Fe3_5 Ni2_7 2.534171 1_545
Fe3_5 Ni1_1 2.534171 1_555
Fe3_5 Ni1_5 2.534171 1_555
Fe3_5 Ni2_1 2.534171 1_555
Fe3_5 Ni1_3 2.534171 1_545
Fe3_5 Ni1_7 2.534171 1_545
Fe3_5 Ni2_5 2.534171 1_555
Fe3_5 Ni2_3 2.534171 1_545
Fe3_6 Ni2_4 2.534171 1_555
Fe3_6 Ni2_2 2.534171 1_555
Fe3_6 Ni2_6 2.534171 1_555
Fe3_6 Ni2_0 2.534171 1_555
Fe3_6 Ni1_0 2.534171 1_555
Fe3_6 Ni1_4 2.534171 1_555
Fe3_6 Ni1_6 2.534171 1_555
Fe3_6 Ni1_2 2.534171 1_555
Fe3_7 Ni1_3 2.534171 1_555
Fe3_7 Ni1_1 2.534171 1_555
Fe3_7 Ni2_7 2.534171 1_555
Fe3_7 Ni1_5 2.534171 1_555
Fe3_7 Ni2_1 2.534171 1_555
Fe3_7 Ni1_7 2.534171 1_555
Fe3_7 Ni2_3 2.534171 1_555
Fe3_7 Ni2_5 2.534171 1_555
Fe4_0 Fe4_4 2.501819 1_455
Fe4_0 Fe4_2 2.501819 1_545
Fe4_0 Fe4_2 2.501819 1_555
Fe4_0 Fe4_4 2.501819 1_555
Fe4_0 Ni3_0 2.515754 1_555
Fe4_0 Ni3_4 2.515754 1_455
Fe4_0 Ni3_2 2.515754 1_545
Fe4_0 Ni3_6 2.515754 1_445
Fe4_0 Ni2_0 2.521913 1_555
Fe4_0 Ni2_6 2.521913 1_445
Fe4_0 Ni2_4 2.521913 1_455
Fe4_0 Ni2_2 2.521913 1_545
Fe4_1 Fe4_3 2.501819 1_555
Fe4_1 Fe4_5 2.501819 1_455
Fe4_1 Fe4_3 2.501819 1_545
Fe4_1 Fe4_5 2.501819 1_555
Fe4_1 Ni3_7 2.515754 1_445
Fe4_1 Ni3_3 2.515754 1_545
Fe4_1 Ni3_1 2.515754 1_555
Fe4_1 Ni3_5 2.515754 1_455
Fe4_1 Ni2_5 2.521913 1_455
Fe4_1 Ni2_3 2.521913 1_545
Fe4_1 Ni2_7 2.521913 1_445
Fe4_1 Ni2_1 2.521913 1_555
Fe4_2 Fe4_6 2.501819 1_555
Fe4_2 Fe4_6 2.501819 1_455
Fe4_2 Ni3_2 2.515754 1_555
Fe4_2 Ni3_6 2.515754 1_455
Fe4_2 Ni3_4 2.515754 1_455
Fe4_2 Ni3_0 2.515754 1_555
Fe4_2 Ni2_2 2.521913 1_555
Fe4_2 Ni2_0 2.521913 1_555
Fe4_2 Ni2_6 2.521913 1_455
Fe4_2 Ni2_4 2.521913 1_455
Fe4_3 Fe4_7 2.501819 1_455
Fe4_3 Fe4_7 2.501819 1_555
Fe4_3 Ni3_1 2.515754 1_555
Fe4_3 Ni3_7 2.515754 1_455
Fe4_3 Ni3_5 2.515754 1_455
Fe4_3 Ni3_3 2.515754 1_555
Fe4_3 Ni2_5 2.521913 1_455
Fe4_3 Ni2_3 2.521913 1_555
Fe4_3 Ni2_1 2.521913 1_555
Fe4_3 Ni2_7 2.521913 1_455
Fe4_4 Fe4_6 2.501819 1_555
Fe4_4 Fe4_6 2.501819 1_545
Fe4_4 Ni3_4 2.515754 1_555
Fe4_4 Ni3_2 2.515754 1_545
Fe4_4 Ni3_0 2.515754 1_555
Fe4_4 Ni3_6 2.515754 1_545
Fe4_4 Ni2_0 2.521913 1_555
Fe4_4 Ni2_6 2.521913 1_545
Fe4_4 Ni2_4 2.521913 1_555
Fe4_4 Ni2_2 2.521913 1_545
Fe4_5 Fe4_7 2.501819 1_555
Fe4_5 Fe4_7 2.501819 1_545
Fe4_5 Ni3_3 2.515754 1_545
Fe4_5 Ni3_1 2.515754 1_555
Fe4_5 Ni3_7 2.515754 1_545
Fe4_5 Ni3_5 2.515754 1_555
Fe4_5 Ni2_5 2.521913 1_555
Fe4_5 Ni2_3 2.521913 1_545
Fe4_5 Ni2_7 2.521913 1_545
Fe4_5 Ni2_1 2.521913 1_555
Fe4_6 Ni3_2 2.515754 1_555
Fe4_6 Ni3_4 2.515754 1_555
Fe4_6 Ni3_6 2.515754 1_555
Fe4_6 Ni3_0 2.515754 1_555
Fe4_6 Ni2_6 2.521913 1_555
Fe4_6 Ni2_2 2.521913 1_555
Fe4_6 Ni2_0 2.521913 1_555
Fe4_6 Ni2_4 2.521913 1_555
Fe4_7 Ni3_1 2.515754 1_555
Fe4_7 Ni3_7 2.515754 1_555
Fe4_7 Ni3_5 2.515754 1_555
Fe4_7 Ni3_3 2.515754 1_555
Fe4_7 Ni2_5 2.521913 1_555
Fe4_7 Ni2_7 2.521913 1_555
Fe4_7 Ni2_3 2.521913 1_555
Fe4_7 Ni2_1 2.521913 1_555
Fe5_0 Fe5_4 2.501819 1_555
Fe5_0 Fe5_2 2.501819 1_545
Fe5_0 Fe5_2 2.501819 1_555
Fe5_0 Fe5_4 2.501819 1_455
Fe5_1 Fe5_5 2.501819 1_555
Fe5_1 Fe5_3 2.501819 1_545
Fe5_1 Fe5_3 2.501819 1_555
Fe5_1 Fe5_5 2.501819 1_455
Fe5_2 Fe5_6 2.501819 1_455
Fe5_2 Fe5_6 2.501819 1_555
Fe5_3 Fe5_7 2.501819 1_455
Fe5_3 Fe5_7 2.501819 1_555
Fe5_4 Fe5_6 2.501819 1_555
Fe5_4 Fe5_6 2.501819 1_545
Fe5_5 Fe5_7 2.501819 1_555
Fe5_5 Fe5_7 2.501819 1_545
Ni0_0 Ni0_4 2.501819 1_455
Ni0_0 Ni0_2 2.501819 1_545
Ni0_0 Ni0_2 2.501819 1_555
Ni0_0 Ni0_4 2.501819 1_555
Ni0_1 Ni0_5 2.501819 1_555
Ni0_1 Ni0_5 2.501819 1_455
Ni0_1 Ni0_3 2.501819 1_555
Ni0_1 Ni0_3 2.501819 1_545
Ni0_2 Ni0_6 2.501819 1_555
Ni0_2 Ni0_6 2.501819 1_455
Ni0_3 Ni0_7 2.501819 1_555
Ni0_3 Ni0_7 2.501819 1_455
Ni0_4 Ni0_6 2.501819 1_545
Ni0_4 Ni0_6 2.501819 1_555
Ni0_5 Ni0_7 2.501819 1_555
Ni0_5 Ni0_7 2.501819 1_545
Ni1_0 Ni1_4 2.501819 1_555
Ni1_0 Ni1_4 2.501819 1_455
Ni1_0 Ni1_2 2.501819 1_545
Ni1_0 Ni1_2 2.501819 1_555
Ni1_1 Ni1_3 2.501819 1_545
Ni1_1 Ni1_5 2.501819 1_555
Ni1_1 Ni1_5 2.501819 1_455
Ni1_1 Ni1_3 2.501819 1_555
Ni1_2 Ni1_6 2.501819 1_455
Ni1_2 Ni1_6 2.501819 1_555
Ni1_3 Ni1_7 2.501819 1_455
Ni1_3 Ni1_7 2.501819 1_555
Ni1_4 Ni1_6 2.501819 1_555
Ni1_4 Ni1_6 2.501819 1_545
Ni1_5 Ni1_7 2.501819 1_545
Ni1_5 Ni1_7 2.501819 1_555
Ni2_0 Ni2_4 2.501819 1_455
Ni2_0 Ni2_2 2.501819 1_545
Ni2_0 Ni2_4 2.501819 1_555
Ni2_0 Ni2_2 2.501819 1_555
Ni2_1 Ni2_5 2.501819 1_455
Ni2_1 Ni2_3 2.501819 1_545
Ni2_1 Ni2_5 2.501819 1_555
Ni2_1 Ni2_3 2.501819 1_555
Ni2_2 Ni2_6 2.501819 1_555
Ni2_2 Ni2_6 2.501819 1_455
Ni2_3 Ni2_7 2.501819 1_455
Ni2_3 Ni2_7 2.501819 1_555
Ni2_4 Ni2_6 2.501819 1_555
Ni2_4 Ni2_6 2.501819 1_545
Ni2_5 Ni2_7 2.501819 1_555
Ni2_5 Ni2_7 2.501819 1_545
Ni3_0 Ni3_2 2.501819 1_555
Ni3_0 Ni3_4 2.501819 1_555
Ni3_0 Ni3_4 2.501819 1_455
Ni3_0 Ni3_2 2.501819 1_545
Ni3_1 Ni3_3 2.501819 1_545
Ni3_1 Ni3_5 2.501819 1_555
Ni3_1 Ni3_5 2.501819 1_455
Ni3_1 Ni3_3 2.501819 1_555
Ni3_2 Ni3_6 2.501819 1_455
Ni3_2 Ni3_6 2.501819 1_555
Ni3_3 Ni3_7 2.501819 1_455
Ni3_3 Ni3_7 2.501819 1_555
Ni3_4 Ni3_6 2.501819 1_555
Ni3_4 Ni3_6 2.501819 1_545
Ni3_5 Ni3_7 2.501819 1_545
Ni3_5 Ni3_7 2.501819 1_555
