# generated using pymatgen
data_Mg4Si7
_symmetry_space_group_name_H-M   'P 1'
_cell_length_a   3.95051500
_cell_length_b   6.85905300
_cell_length_c   14.93747589
_cell_angle_alpha   77.51700546
_cell_angle_beta   90.00000000
_cell_angle_gamma   90.00000000
_symmetry_Int_Tables_number   1
_chemical_formula_structural   Mg4Si7
_chemical_formula_sum   'Mg8 Si14'
_cell_volume   395.18928462
_cell_formula_units_Z   2
loop_
 _symmetry_equiv_pos_site_id
 _symmetry_equiv_pos_as_xyz
  1  'x, y, z'
loop_
 _atom_site_type_symbol
 _atom_site_label
 _atom_site_symmetry_multiplicity
 _atom_site_fract_x
 _atom_site_fract_y
 _atom_site_fract_z
 _atom_site_occupancy
  Mg  Mg0  1  0.50000000  0.21580800  0.07282300  1
  Mg  Mg1  1  0.50000000  0.38284000  0.49796900  1
  Mg  Mg2  1  0.00000000  0.15063700  0.64883500  1
  Mg  Mg3  1  0.00000000  0.62235300  0.34451100  1
  Mg  Mg4  1  0.50000000  0.71096900  0.15500700  1
  Mg  Mg5  1  0.00000000  0.28083300  0.90226600  1
  Mg  Mg6  1  0.00000000  0.66157500  0.58086600  1
  Mg  Mg7  1  0.00000000  0.10256500  0.42275500  1
  Si  Si0  1  0.00000000  0.58023400  0.04007000  1
  Si  Si1  1  0.00000000  0.93891400  0.04258800  1
  Si  Si2  1  0.50000000  0.57909800  0.93424100  1
  Si  Si3  1  0.00000000  0.89070200  0.87307500  1
  Si  Si4  1  0.50000000  0.77597100  0.44597700  1
  Si  Si5  1  0.50000000  0.98343900  0.55658900  1
  Si  Si6  1  0.50000000  0.08992400  0.79838200  1
  Si  Si7  1  0.00000000  0.99232600  0.20126800  1
  Si  Si8  1  0.50000000  0.34723500  0.30288400  1
  Si  Si9  1  0.00000000  0.62278300  0.77722800  1
  Si  Si10  1  0.50000000  0.40934700  0.69014000  1
  Si  Si11  1  0.00000000  0.36841000  0.19632800  1
  Si  Si12  1  0.50000000  0.98488600  0.29831400  1
  Si  Si13  1  0.50000000  0.81276900  0.71429500  1
loop_
_geom_bond_atom_site_label_1
_geom_bond_atom_site_label_2
_geom_bond_distance
_geom_bond_site_symmetry_2
Mg0 Si1 2.843150 1_645
Mg0 Si1 2.843150 1_545
Mg0 Si2 2.874797 1_554
Mg0 Si7 2.942980 1_545
Mg0 Si7 2.942980 1_645
Mg0 Si11 3.038996 1_655
Mg0 Si11 3.038996 1_555
Mg0 Si0 3.140130 1_655
Mg0 Si0 3.140130 1_555
Mg1 Si4 2.639883 1_555
Mg1 Si5 2.689732 1_545
Mg1 Si10 2.915258 1_555
Mg1 Si8 2.976431 1_555
Mg2 Si5 2.792605 1_445
Mg2 Si5 2.792605 1_545
Mg2 Si10 2.811494 1_455
Mg2 Si10 2.811494 1_555
Mg2 Si6 2.943301 1_555
Mg2 Si6 2.943301 1_455
Mg2 Si13 3.041175 1_445
Mg2 Si13 3.041175 1_545
Mg3 Si4 2.828327 1_455
Mg3 Si4 2.828327 1_555
Mg3 Si8 2.890758 1_455
Mg3 Si8 2.890758 1_555
Mg3 Si7 2.944606 1_555
Mg3 Si11 3.098403 1_555
Mg3 Si12 3.133588 1_455
Mg3 Si12 3.133588 1_555
Mg4 Si1 2.833908 1_555
Mg4 Si1 2.833908 1_655
Mg4 Si0 2.884256 1_555
Mg4 Si0 2.884256 1_655
Mg4 Si7 2.946175 1_655
Mg4 Si7 2.946175 1_555
Mg4 Si8 2.953181 1_555
Mg4 Si11 3.029262 1_655
Mg4 Si11 3.029262 1_555
Mg4 Si12 3.138621 1_555
Mg5 Si9 2.663806 1_555
Mg5 Si1 2.787208 1_546
Mg5 Si3 2.802702 1_545
Mg5 Si2 2.955934 1_555
Mg5 Si2 2.955934 1_455
Mg5 Si6 2.983740 1_555
Mg5 Si6 2.983740 1_455
Mg5 Si0 3.206544 1_556
Mg6 Si4 2.809570 1_555
Mg6 Si4 2.809570 1_455
Mg6 Si9 2.887351 1_555
Mg6 Si10 2.887603 1_455
Mg6 Si10 2.887603 1_555
Mg6 Si5 2.925904 1_455
Mg6 Si5 2.925904 1_555
Mg6 Si13 3.137365 1_555
Mg6 Si13 3.137365 1_455
Mg7 Si5 2.803515 1_545
Mg7 Si5 2.803515 1_445
Mg7 Si8 2.936855 1_455
Mg7 Si8 2.936855 1_555
Mg7 Si12 2.942285 1_545
Mg7 Si12 2.942285 1_445
Mg7 Si4 2.950290 1_545
Mg7 Si4 2.950290 1_445
Si0 Si11 2.468389 1_555
Si0 Si1 2.468608 1_555
Si0 Si2 2.531010 1_554
Si0 Si2 2.531010 1_454
Si0 Si3 2.908762 1_554
Si1 Si7 2.475446 1_555
Si1 Si3 2.623518 1_554
Si3 Si6 2.520843 1_465
Si3 Si6 2.520843 1_565
Si3 Si9 2.562073 1_555
Si4 Si5 2.402382 1_555
Si10 Si6 2.425502 1_555
Si10 Si13 2.866810 1_555
Si11 Si8 2.521158 1_555
Si11 Si8 2.521158 1_455
Si11 Si7 2.564642 1_545
Si12 Si4 2.356305 1_555
Si12 Si7 2.444110 1_555
Si12 Si7 2.444110 1_655
Si12 Si8 2.501015 1_565
Si13 Si5 2.393260 1_555
Si13 Si9 2.440064 1_655
Si13 Si9 2.440064 1_555
Si13 Si6 2.494748 1_565
