# generated using pymatgen
data_CuAgAs2H3O8
_symmetry_space_group_name_H-M   'P 1'
_cell_length_a   7.87073200
_cell_length_b   9.39603500
_cell_length_c   9.86840164
_cell_angle_alpha   75.89617339
_cell_angle_beta   90.00000000
_cell_angle_gamma   90.00000000
_symmetry_Int_Tables_number   1
_chemical_formula_structural   CuAgAs2H3O8
_chemical_formula_sum   'Cu4 Ag4 As8 H12 O32'
_cell_volume   707.80513504
_cell_formula_units_Z   4
loop_
 _symmetry_equiv_pos_site_id
 _symmetry_equiv_pos_as_xyz
  1  'x, y, z'
loop_
 _atom_site_type_symbol
 _atom_site_label
 _atom_site_symmetry_multiplicity
 _atom_site_fract_x
 _atom_site_fract_y
 _atom_site_fract_z
 _atom_site_occupancy
  Cu  Cu0  1  0.81785000  0.90575400  0.50452300  1
  Cu  Cu1  1  0.18215000  0.09424600  0.49547700  1
  Cu  Cu2  1  0.31785000  0.09424600  0.99547700  1
  Cu  Cu3  1  0.68215000  0.90575400  0.00452300  1
  Ag  Ag0  1  0.23317100  0.73278600  0.50802000  1
  Ag  Ag1  1  0.76682900  0.26721400  0.49198000  1
  Ag  Ag2  1  0.73317100  0.26721400  0.99198000  1
  Ag  Ag3  1  0.26682900  0.73278600  0.00802000  1
  As  As0  1  0.49340200  0.97061100  0.70356300  1
  As  As1  1  0.50659800  0.02938900  0.29643700  1
  As  As2  1  0.99340200  0.02938900  0.79643700  1
  As  As3  1  0.00659800  0.97061100  0.20356300  1
  As  As4  1  0.31387000  0.43133500  0.82559200  1
  As  As5  1  0.68613000  0.56866500  0.17440800  1
  As  As6  1  0.81387000  0.56866500  0.67440800  1
  As  As7  1  0.18613000  0.43133500  0.32559200  1
  H  H0  1  0.05750800  0.43453500  0.65469500  1
  H  H1  1  0.94249200  0.56546500  0.34530500  1
  H  H2  1  0.55750800  0.56546500  0.84530500  1
  H  H3  1  0.44249200  0.43453500  0.15469500  1
  H  H4  1  0.99422900  0.79370500  0.76633800  1
  H  H5  1  0.00577100  0.20629500  0.23366200  1
  H  H6  1  0.49422900  0.20629500  0.73366200  1
  H  H7  1  0.50577100  0.79370500  0.26633800  1
  H  H8  1  0.33775000  0.43391500  0.52350500  1
  H  H9  1  0.66225000  0.56608500  0.47649500  1
  H  H10  1  0.83775000  0.56608500  0.97649500  1
  H  H11  1  0.16225000  0.43391500  0.02350500  1
  O  O0  1  0.02403300  0.83536500  0.84803700  1
  O  O1  1  0.97596700  0.16463500  0.15196300  1
  O  O2  1  0.52403300  0.16463500  0.65196300  1
  O  O3  1  0.47596700  0.83536500  0.34803700  1
  O  O4  1  0.93732300  0.72381200  0.62309000  1
  O  O5  1  0.06267700  0.27618800  0.37691000  1
  O  O6  1  0.43732300  0.27618800  0.87691000  1
  O  O7  1  0.56267700  0.72381200  0.12309000  1
  O  O8  1  0.66350700  0.87909400  0.66134100  1
  O  O9  1  0.33649300  0.12090600  0.33865900  1
  O  O10  1  0.16350700  0.12090600  0.83865900  1
  O  O11  1  0.83649300  0.87909400  0.16134100  1
  O  O12  1  0.42700500  0.58223700  0.85142600  1
  O  O13  1  0.57299500  0.41776300  0.14857400  1
  O  O14  1  0.92700500  0.41776300  0.64857400  1
  O  O15  1  0.07299500  0.58223700  0.35142600  1
  O  O16  1  0.12993300  0.43015900  0.92463800  1
  O  O17  1  0.87006700  0.56984100  0.07536200  1
  O  O18  1  0.62993300  0.56984100  0.57536200  1
  O  O19  1  0.37006700  0.43015900  0.42463800  1
  O  O20  1  0.47707700  0.92398400  0.88394700  1
  O  O21  1  0.52292300  0.07601600  0.11605300  1
  O  O22  1  0.97707700  0.07601600  0.61605300  1
  O  O23  1  0.02292300  0.92398400  0.38394700  1
  O  O24  1  0.24348600  0.46694100  0.65757100  1
  O  O25  1  0.75651400  0.53305900  0.34242900  1
  O  O26  1  0.74348600  0.53305900  0.84242900  1
  O  O27  1  0.25651400  0.46694100  0.15757100  1
  O  O28  1  0.30950500  0.93594100  0.62217500  1
  O  O29  1  0.69049500  0.06405900  0.37782500  1
  O  O30  1  0.80950500  0.06405900  0.87782500  1
  O  O31  1  0.19049500  0.93594100  0.12217500  1
loop_
_geom_bond_atom_site_label_1
_geom_bond_atom_site_label_2
_geom_bond_distance
_geom_bond_site_symmetry_2
Cu0 O8 1.935053 1_555
Cu0 O29 1.968282 1_565
Cu0 O23 1.987735 1_655
Cu0 O4 2.049622 1_555
Cu0 O22 2.489861 1_565
Cu1 O9 1.935053 1_555
Cu1 O28 1.968282 1_545
Cu1 O22 1.987735 1_455
Cu1 O5 2.049622 1_555
Cu1 O23 2.489861 1_545
Cu2 O10 1.935053 1_555
Cu2 O31 1.968282 1_546
Cu2 O21 1.987735 1_556
Cu2 O6 2.049622 1_555
Cu2 O20 2.489861 1_545
Cu3 O11 1.935053 1_555
Cu3 O30 1.968282 1_564
Cu3 O20 1.987735 1_554
Cu3 O7 2.049622 1_555
Cu3 O21 2.489861 1_565
Ag0 O28 2.514309 1_555
Ag0 O3 2.516299 1_555
Ag0 O23 2.528428 1_555
Ag0 O24 2.574390 1_555
Ag0 O4 2.583028 1_455
Ag0 O15 2.654010 1_555
Ag1 O29 2.514309 1_555
Ag1 O2 2.516299 1_555
Ag1 O22 2.528428 1_555
Ag1 O25 2.574390 1_555
Ag1 O5 2.583028 1_655
Ag1 O14 2.654010 1_555
Ag2 O30 2.514309 1_555
Ag2 O1 2.516299 1_556
Ag2 O21 2.528428 1_556
Ag2 O26 2.574390 1_555
Ag2 O6 2.583028 1_555
Ag2 O13 2.654010 1_556
Ag3 O31 2.514309 1_555
Ag3 O0 2.516299 1_554
Ag3 O20 2.528428 1_554
Ag3 O27 2.574390 1_555
Ag3 O7 2.583028 1_555
Ag3 O12 2.654010 1_554
As0 O8 1.697106 1_555
As0 O28 1.724440 1_555
As0 O20 1.731222 1_555
As0 O2 1.785645 1_565
As1 O9 1.697106 1_555
As1 O29 1.724440 1_555
As1 O21 1.731222 1_555
As1 O3 1.785645 1_545
As2 O10 1.697106 1_655
As2 O30 1.724440 1_555
As2 O22 1.731222 1_555
As2 O0 1.785645 1_645
As3 O11 1.697106 1_455
As3 O31 1.724440 1_555
As3 O23 1.731222 1_555
As3 O1 1.785645 1_465
As4 O24 1.702279 1_555
As4 O6 1.722176 1_555
As4 O12 1.744838 1_555
As4 O16 1.745311 1_555
As5 O25 1.702279 1_555
As5 O7 1.722176 1_555
As5 O13 1.744838 1_555
As5 O17 1.745311 1_555
As6 O26 1.702279 1_555
As6 O4 1.722176 1_555
As6 O14 1.744838 1_555
As6 O18 1.745311 1_555
As7 O27 1.702279 1_555
As7 O5 1.722176 1_555
As7 O15 1.744838 1_555
As7 O19 1.745311 1_555
H0 O14 1.043153 1_455
H0 O24 1.496793 1_555
H1 O15 1.043153 1_655
H1 O25 1.496793 1_555
H2 O12 1.043153 1_555
H2 O26 1.496793 1_555
H3 O13 1.043153 1_555
H3 O27 1.496793 1_555
H4 O0 1.006022 1_655
H4 O4 1.755754 1_555
H5 O1 1.006022 1_455
H5 O5 1.755754 1_555
H6 O2 1.006022 1_555
H6 O6 1.755754 1_555
H7 O3 1.006022 1_555
H7 O7 1.755754 1_555
H8 O19 1.017170 1_555
H8 O24 1.611586 1_555
H9 O18 1.017170 1_555
H9 O25 1.611586 1_555
H10 O17 1.017170 1_556
H10 O26 1.611586 1_555
H11 O16 1.017170 1_554
H11 O27 1.611586 1_555
