# generated using pymatgen
data_Na2CuAs
_symmetry_space_group_name_H-M   'P 1'
_cell_length_a   5.26473690
_cell_length_b   5.65008250
_cell_length_c   5.65008191
_cell_angle_alpha   101.77724596
_cell_angle_beta   90.00000000
_cell_angle_gamma   90.00000000
_symmetry_Int_Tables_number   1
_chemical_formula_structural   Na2CuAs
_chemical_formula_sum   'Na4 Cu2 As2'
_cell_volume   164.53036534
_cell_formula_units_Z   2
loop_
 _symmetry_equiv_pos_site_id
 _symmetry_equiv_pos_as_xyz
  1  'x, y, z'
loop_
 _atom_site_type_symbol
 _atom_site_label
 _atom_site_symmetry_multiplicity
 _atom_site_fract_x
 _atom_site_fract_y
 _atom_site_fract_z
 _atom_site_occupancy
  Na  Na0  1  0.25000000  0.02872372  0.67968926  1
  Na  Na1  1  0.75000000  0.97127628  0.32031074  1
  Na  Na2  1  0.75000000  0.32031074  0.97127628  1
  Na  Na3  1  0.25000000  0.67968926  0.02872372  1
  Cu  Cu0  1  0.50000000  0.50000000  0.50000000  1
  Cu  Cu1  1  -0.00000000  0.50000000  0.50000000  1
  As  As0  1  0.25000000  0.23175157  0.23175157  1
  As  As1  1  0.75000000  0.76824843  0.76824843  1
loop_
_geom_bond_atom_site_label_1
_geom_bond_atom_site_label_2
_geom_bond_distance
_geom_bond_site_symmetry_2
As0 Cu0 2.321393 1_555
As0 Cu1 2.321393 1_555
As0 Na0 2.984362 1_555
As0 Na3 2.984362 1_555
As0 Na0 3.095909 1_554
As0 Na3 3.095909 1_545
As0 Na2 3.105842 1_454
As0 Na2 3.105842 1_554
As0 Na1 3.105843 1_545
As0 Na1 3.105843 1_445
As1 Cu0 2.321393 1_555
As1 Cu1 2.321393 1_655
As1 Na1 2.984362 1_555
As1 Na2 2.984362 1_555
As1 Na1 3.095909 1_556
As1 Na2 3.095909 1_565
As1 Na3 3.105842 1_556
As1 Na3 3.105842 1_656
As1 Na0 3.105843 1_665
As1 Na0 3.105843 1_565
