# generated using pymatgen
data_Ba5Y2ZrAl2O13
_symmetry_space_group_name_H-M   'P 1'
_cell_length_a   6.04825570
_cell_length_b   6.04825570
_cell_length_c   25.33382400
_cell_angle_alpha   90.00000000
_cell_angle_beta   90.00000000
_cell_angle_gamma   119.99999674
_symmetry_Int_Tables_number   1
_chemical_formula_structural   Ba5Y2ZrAl2O13
_chemical_formula_sum   'Ba10 Y4 Zr2 Al4 O26'
_cell_volume   802.58618902
_cell_formula_units_Z   2
loop_
 _symmetry_equiv_pos_site_id
 _symmetry_equiv_pos_as_xyz
  1  'x, y, z'
loop_
 _atom_site_type_symbol
 _atom_site_label
 _atom_site_symmetry_multiplicity
 _atom_site_fract_x
 _atom_site_fract_y
 _atom_site_fract_z
 _atom_site_occupancy
  Ba  Ba0  1  0.33333300  0.66666700  0.54140000  1
  Ba  Ba1  1  0.66666700  0.33333300  0.45860000  1
  Ba  Ba2  1  0.66666700  0.33333300  0.04140000  1
  Ba  Ba3  1  0.33333300  0.66666700  0.95860000  1
  Ba  Ba4  1  0.00000000  0.00000000  0.13676000  1
  Ba  Ba5  1  0.00000000  0.00000000  0.86324000  1
  Ba  Ba6  1  0.00000000  0.00000000  0.63676000  1
  Ba  Ba7  1  0.00000000  0.00000000  0.36324000  1
  Ba  Ba8  1  0.33333300  0.66666700  0.25000000  1
  Ba  Ba9  1  0.66666700  0.33333300  0.75000000  1
  Y  Y0  1  0.33333300  0.66666700  0.10420600  1
  Y  Y1  1  0.66666700  0.33333300  0.89579400  1
  Y  Y2  1  0.66666700  0.33333300  0.60420600  1
  Y  Y3  1  0.33333300  0.66666700  0.39579400  1
  Zr  Zr0  1  0.00000000  0.00000000  0.00000000  1
  Zr  Zr1  1  0.00000000  0.00000000  0.50000000  1
  Al  Al0  1  0.33333300  0.66666700  0.68130900  1
  Al  Al1  1  0.66666700  0.33333300  0.31869100  1
  Al  Al2  1  0.66666700  0.33333300  0.18130900  1
  Al  Al3  1  0.33333300  0.66666700  0.81869100  1
  O  O0  1  0.50575500  0.01151100  0.15869700  1
  O  O1  1  0.49424500  0.98848900  0.84130300  1
  O  O2  1  0.98848900  0.49424500  0.15869700  1
  O  O3  1  0.49424500  0.98848900  0.65869700  1
  O  O4  1  0.01151100  0.50575500  0.84130300  1
  O  O5  1  0.50575500  0.01151100  0.34130300  1
  O  O6  1  0.50575500  0.49424500  0.15869700  1
  O  O7  1  0.01151100  0.50575500  0.65869700  1
  O  O8  1  0.49424500  0.50575500  0.84130300  1
  O  O9  1  0.98848900  0.49424500  0.34130300  1
  O  O10  1  0.49424500  0.50575500  0.65869700  1
  O  O11  1  0.50575500  0.49424500  0.34130300  1
  O  O12  1  0.16221600  0.32443200  0.05007100  1
  O  O13  1  0.83778400  0.67556800  0.94992900  1
  O  O14  1  0.67556800  0.83778400  0.05007100  1
  O  O15  1  0.83778400  0.67556800  0.55007100  1
  O  O16  1  0.32443200  0.16221600  0.94992900  1
  O  O17  1  0.16221600  0.32443200  0.44992900  1
  O  O18  1  0.16221600  0.83778400  0.05007100  1
  O  O19  1  0.32443200  0.16221600  0.55007100  1
  O  O20  1  0.83778400  0.16221600  0.94992900  1
  O  O21  1  0.67556800  0.83778400  0.44992900  1
  O  O22  1  0.83778400  0.16221600  0.55007100  1
  O  O23  1  0.16221600  0.83778400  0.44992900  1
  O  O24  1  0.33333300  0.66666700  0.75000000  1
  O  O25  1  0.66666700  0.33333300  0.25000000  1
loop_
_geom_bond_atom_site_label_1
_geom_bond_atom_site_label_2
_geom_bond_distance
_geom_bond_site_symmetry_2
Ba0 O23 2.929735 1_555
Ba0 O17 2.929739 1_555
Ba0 O21 2.929739 1_555
Ba0 O19 3.032451 1_565
Ba0 O15 3.032451 1_455
Ba0 O22 3.032454 1_565
Ba0 O22 3.032454 1_455
Ba0 O19 3.032457 1_555
Ba0 O15 3.032457 1_555
Ba0 O3 3.416406 1_555
Ba0 O7 3.416406 1_555
Ba0 O10 3.416411 1_555
Ba1 O22 2.929735 1_555
Ba1 O15 2.929739 1_555
Ba1 O19 2.929739 1_555
Ba1 O17 3.032451 1_655
Ba1 O21 3.032451 1_545
Ba1 O23 3.032454 1_655
Ba1 O23 3.032454 1_545
Ba1 O17 3.032457 1_555
Ba1 O21 3.032457 1_555
Ba1 O5 3.416406 1_555
Ba1 O9 3.416406 1_555
Ba1 O11 3.416411 1_555
Ba2 O20 2.929735 1_554
Ba2 O13 2.929739 1_554
Ba2 O16 2.929739 1_554
Ba2 O12 3.032451 1_655
Ba2 O14 3.032451 1_545
Ba2 O18 3.032454 1_655
Ba2 O18 3.032454 1_545
Ba2 O12 3.032457 1_555
Ba2 O14 3.032457 1_555
Ba2 O2 3.416406 1_555
Ba2 O0 3.416406 1_555
Ba2 O6 3.416411 1_555
Ba3 O18 2.929735 1_556
Ba3 O14 2.929739 1_556
Ba3 O12 2.929739 1_556
Ba3 O16 3.032451 1_565
Ba3 O13 3.032451 1_455
Ba3 O20 3.032454 1_565
Ba3 O20 3.032454 1_455
Ba3 O16 3.032457 1_555
Ba3 O13 3.032457 1_555
Ba3 O1 3.416406 1_555
Ba3 O4 3.416406 1_555
Ba3 O8 3.416411 1_555
Ba4 O18 2.776859 1_545
Ba4 O12 2.776859 1_555
Ba4 O14 2.776859 1_445
Ba4 O0 3.075357 1_555
Ba4 O2 3.075357 1_445
Ba4 O6 3.075360 1_555
Ba4 O6 3.075360 1_445
Ba4 O2 3.075363 1_455
Ba4 O0 3.075363 1_455
Ba5 O20 2.776859 1_455
Ba5 O13 2.776859 1_445
Ba5 O16 2.776859 1_555
Ba5 O4 3.075357 1_555
Ba5 O1 3.075357 1_445
Ba5 O8 3.075360 1_555
Ba5 O8 3.075360 1_445
Ba5 O1 3.075363 1_545
Ba5 O4 3.075363 1_545
Ba6 O22 2.776859 1_455
Ba6 O15 2.776859 1_445
Ba6 O19 2.776859 1_555
Ba6 O7 3.075357 1_555
Ba6 O3 3.075357 1_445
Ba6 O10 3.075360 1_555
Ba6 O10 3.075360 1_445
Ba6 O3 3.075363 1_545
Ba6 O7 3.075363 1_545
Ba7 O23 2.776859 1_545
Ba7 O21 2.776859 1_445
Ba7 O17 2.776859 1_555
Ba7 O5 3.075357 1_555
Ba7 O9 3.075357 1_445
Ba7 O11 3.075360 1_445
Ba7 O11 3.075360 1_555
Ba7 O9 3.075363 1_455
Ba7 O5 3.075363 1_455
Ba8 O6 2.934764 1_555
Ba8 O11 2.934764 1_555
Ba8 O0 2.934765 1_565
Ba8 O2 2.934765 1_455
Ba8 O5 2.934765 1_565
Ba8 O9 2.934765 1_455
Ba9 O10 2.934764 1_555
Ba9 O8 2.934764 1_555
Ba9 O3 2.934765 1_545
Ba9 O4 2.934765 1_655
Ba9 O1 2.934765 1_545
Ba9 O7 2.934765 1_655
Al0 O24 1.740206 1_555
Al0 O3 1.780362 1_555
Al0 O7 1.780362 1_555
Al0 O10 1.780372 1_555
Al1 O25 1.740206 1_555
Al1 O9 1.780362 1_555
Al1 O5 1.780362 1_555
Al1 O11 1.780372 1_555
Al2 O25 1.740206 1_555
Al2 O0 1.780362 1_555
Al2 O2 1.780362 1_555
Al2 O6 1.780372 1_555
Al3 O24 1.740206 1_555
Al3 O1 1.780362 1_555
Al3 O4 1.780362 1_555
Al3 O8 1.780372 1_555
O0 Y0 2.273391 1_545
O1 Y1 2.273391 1_565
O2 Y0 2.273391 1_655
O3 Y2 2.273391 1_565
O4 Y1 2.273391 1_455
O5 Y3 2.273391 1_545
O6 Y0 2.273391 1_555
O7 Y2 2.273391 1_455
O8 Y1 2.273391 1_555
O9 Y3 2.273391 1_655
O10 Y2 2.273391 1_555
O11 Y3 2.273391 1_555
O12 Zr0 2.120585 1_555
O12 Y0 2.257057 1_555
O13 Zr0 2.120585 1_666
O13 Y1 2.257057 1_555
O14 Zr0 2.120585 1_665
O14 Y0 2.257057 1_555
O15 Zr1 2.120585 1_665
O15 Y2 2.257057 1_555
O16 Zr0 2.120585 1_556
O16 Y1 2.257057 1_555
O17 Zr1 2.120585 1_555
O17 Y3 2.257057 1_555
O18 Zr0 2.120584 1_565
O18 Y0 2.257053 1_555
O19 Zr1 2.120585 1_555
O19 Y2 2.257057 1_555
O20 Zr0 2.120584 1_656
O20 Y1 2.257053 1_555
O21 Zr1 2.120585 1_665
O21 Y3 2.257057 1_555
O22 Zr1 2.120584 1_655
O22 Y2 2.257053 1_555
O23 Zr1 2.120584 1_565
O23 Y3 2.257053 1_555
