# generated using pymatgen
data_BaBi2(IO)2
_symmetry_space_group_name_H-M   'P 1'
_cell_length_a   13.07454034
_cell_length_b   13.07454034
_cell_length_c   13.07454034
_cell_angle_alpha   158.69044350
_cell_angle_beta   158.69044350
_cell_angle_gamma   30.31524766
_symmetry_Int_Tables_number   1
_chemical_formula_structural   BaBi2(IO)2
_chemical_formula_sum   'Ba1 Bi2 I2 O2'
_cell_volume   294.98012761
_cell_formula_units_Z   1
loop_
 _symmetry_equiv_pos_site_id
 _symmetry_equiv_pos_as_xyz
  1  'x, y, z'
loop_
 _atom_site_type_symbol
 _atom_site_label
 _atom_site_symmetry_multiplicity
 _atom_site_fract_x
 _atom_site_fract_y
 _atom_site_fract_z
 _atom_site_occupancy
  Ba  Ba0  1  0.59066600  0.59066600  0.00000000  1
  Bi  Bi0  1  0.97751900  0.97751900  0.00000000  1
  Bi  Bi1  1  0.43934000  0.43934000  0.00000000  1
  I  I0  1  0.71429700  0.71429700  0.00000000  1
  I  I1  1  0.11316600  0.11316600  0.00000000  1
  O  O0  1  0.46445600  0.96445600  0.50000000  1
  O  O1  1  0.96445600  0.46445600  0.50000000  1
loop_
_geom_bond_atom_site_label_1
_geom_bond_atom_site_label_2
_geom_bond_distance
_geom_bond_site_symmetry_2
Ba0 I0 3.120367 1_555
Ba0 I1 3.465516 1_554
Ba0 I1 3.465516 1_666
Ba0 I1 3.465516 1_565
Ba0 I1 3.465516 1_655
Bi0 O1 2.439745 1_565
Bi0 O0 2.439745 1_554
Bi0 O1 2.439745 1_554
Bi0 O0 2.439745 1_655
Bi0 I1 3.423643 1_665
Bi1 O1 2.499099 1_555
Bi1 O0 2.499099 1_544
Bi1 O1 2.499099 1_454
Bi1 O0 2.499099 1_555
