# generated using pymatgen
data_UB4Os
_symmetry_space_group_name_H-M   'P 1'
_cell_length_a   5.99298701
_cell_length_b   5.99298701
_cell_length_c   3.54850921
_cell_angle_alpha   90.00000000
_cell_angle_beta   90.00000000
_cell_angle_gamma   104.20693823
_symmetry_Int_Tables_number   1
_chemical_formula_structural   UB4Os
_chemical_formula_sum   'U2 B8 Os2'
_cell_volume   123.54996598
_cell_formula_units_Z   2
loop_
 _symmetry_equiv_pos_site_id
 _symmetry_equiv_pos_as_xyz
  1  'x, y, z'
loop_
 _atom_site_type_symbol
 _atom_site_label
 _atom_site_symmetry_multiplicity
 _atom_site_fract_x
 _atom_site_fract_y
 _atom_site_fract_z
 _atom_site_occupancy
  U  U0  1  0.29992131  0.70007869  -0.00000000  1
  U  U1  1  0.70007869  0.29992131  -0.00000000  1
  B  B0  1  0.38144965  0.06370542  0.50000000  1
  B  B1  1  0.61855035  0.93629458  0.50000000  1
  B  B2  1  0.06370542  0.38144965  0.50000000  1
  B  B3  1  0.93629458  0.61855035  0.50000000  1
  B  B4  1  0.37921301  0.37921301  0.50000000  1
  B  B5  1  0.62078699  0.62078699  0.50000000  1
  B  B6  1  0.09228783  0.90771217  0.50000000  1
  B  B7  1  0.90771217  0.09228783  0.50000000  1
  Os  Os0  1  0.19059284  0.19059284  0.00000000  1
  Os  Os1  1  0.80940716  0.80940716  0.00000000  1
loop_
_geom_bond_atom_site_label_1
_geom_bond_atom_site_label_2
_geom_bond_distance
_geom_bond_site_symmetry_2
B0 B6 1.755521 1_545
B0 B1 1.770504 1_545
B0 B4 1.894167 1_555
B0 Os0 2.336976 1_556
B0 Os0 2.336976 1_555
B0 U1 2.733401 1_556
B0 U1 2.733401 1_555
B0 U0 2.759172 1_545
B0 U0 2.759172 1_546
B1 B7 1.755521 1_565
B1 B5 1.894167 1_555
B1 Os1 2.336976 1_556
B1 Os1 2.336976 1_555
B1 U0 2.733401 1_556
B1 U0 2.733401 1_555
B1 U1 2.759172 1_566
B1 U1 2.759172 1_565
B2 B7 1.755521 1_455
B2 B3 1.770504 1_455
B2 B4 1.894167 1_555
B2 Os0 2.336976 1_556
B2 Os0 2.336976 1_555
B2 U0 2.733401 1_556
B2 U0 2.733401 1_555
B2 U1 2.759172 1_456
B2 U1 2.759172 1_455
B3 B6 1.755521 1_655
B3 B5 1.894167 1_555
B3 Os1 2.336976 1_556
B3 Os1 2.336976 1_555
B3 U1 2.733401 1_556
B3 U1 2.733401 1_555
B3 U0 2.759172 1_655
B3 U0 2.759172 1_656
B4 B5 1.778524 1_555
B4 Os0 2.253081 1_555
B4 Os0 2.253081 1_556
B4 U0 2.742267 1_555
B4 U1 2.742267 1_556
B4 U1 2.742267 1_555
B4 U0 2.742267 1_556
B5 Os1 2.253081 1_555
B5 Os1 2.253081 1_556
B5 U0 2.742267 1_555
B5 U1 2.742267 1_556
B5 U1 2.742267 1_555
B5 U0 2.742267 1_556
B6 B7 1.745788 1_465
B6 Os1 2.424637 1_456
B6 Os1 2.424637 1_455
B6 Os0 2.424637 1_565
B6 Os0 2.424637 1_566
B6 U0 2.646657 1_555
B6 U0 2.646657 1_556
B7 Os1 2.424637 1_545
B7 Os0 2.424637 1_655
B7 Os1 2.424637 1_546
B7 Os0 2.424637 1_656
B7 U1 2.646657 1_556
B7 U1 2.646657 1_555
Os0 Os1 2.806378 1_445
Os0 U1 2.961455 1_555
Os0 U0 2.961455 1_555
Os0 U0 3.164840 1_545
Os0 U1 3.164840 1_455
Os1 U1 2.961455 1_555
Os1 U0 2.961455 1_555
Os1 U1 3.164840 1_565
Os1 U0 3.164840 1_655
