# generated using pymatgen
data_ZrNp3
_symmetry_space_group_name_H-M   'P 1'
_cell_length_a   5.58486621
_cell_length_b   5.58486621
_cell_length_c   5.58486621
_cell_angle_alpha   134.34556882
_cell_angle_beta   134.34556882
_cell_angle_gamma   66.54875619
_symmetry_Int_Tables_number   1
_chemical_formula_structural   ZrNp3
_chemical_formula_sum   'Zr1 Np3'
_cell_volume   87.67811536
_cell_formula_units_Z   1
loop_
 _symmetry_equiv_pos_site_id
 _symmetry_equiv_pos_as_xyz
  1  'x, y, z'
loop_
 _atom_site_type_symbol
 _atom_site_label
 _atom_site_symmetry_multiplicity
 _atom_site_fract_x
 _atom_site_fract_y
 _atom_site_fract_z
 _atom_site_occupancy
  Zr  Zr0  1  0.00000000  0.00000000  0.00000000  1
  Np  Np0  1  0.75000000  0.25000000  0.50000000  1
  Np  Np1  1  0.25000000  0.75000000  0.50000000  1
  Np  Np2  1  0.50000000  0.50000000  0.00000000  1
loop_
_geom_bond_atom_site_label_1
_geom_bond_atom_site_label_2
_geom_bond_distance
_geom_bond_site_symmetry_2
Np0 Np1 3.064131 1_656
Np0 Np1 3.064131 1_645
Np0 Np1 3.064131 1_544
Np0 Np1 3.064131 1_555
Np0 Np2 3.185107 1_556
Np0 Zr0 3.185107 1_666
Np0 Zr0 3.185107 1_655
Np0 Zr0 3.185107 1_656
Np0 Np2 3.185107 1_555
Np0 Np2 3.185107 1_545
Np0 Np2 3.185107 1_656
Np0 Zr0 3.185107 1_555
Np1 Np2 3.185107 1_566
Np1 Zr0 3.185107 1_555
Np1 Np2 3.185107 1_556
Np1 Zr0 3.185107 1_566
Np1 Zr0 3.185107 1_565
Np1 Np2 3.185107 1_555
Np1 Np2 3.185107 1_455
Np1 Zr0 3.185107 1_666
Np2 Zr0 3.064131 1_554
Np2 Zr0 3.064131 1_655
Np2 Zr0 3.064131 1_565
Np2 Zr0 3.064131 1_666
