# generated using pymatgen
data_La4MgGa2(FeO6)2
_symmetry_space_group_name_H-M   'P 1'
_cell_length_a   6.15925947
_cell_length_b   5.60490771
_cell_length_c   8.01795169
_cell_angle_alpha   89.94996281
_cell_angle_beta   89.08849707
_cell_angle_gamma   92.88977112
_symmetry_Int_Tables_number   1
_chemical_formula_structural   La4MgGa2(FeO6)2
_chemical_formula_sum   'La4 Mg1 Ga2 Fe2 O12'
_cell_volume   276.40902417
_cell_formula_units_Z   1
loop_
 _symmetry_equiv_pos_site_id
 _symmetry_equiv_pos_as_xyz
  1  'x, y, z'
loop_
 _atom_site_type_symbol
 _atom_site_label
 _atom_site_symmetry_multiplicity
 _atom_site_fract_x
 _atom_site_fract_y
 _atom_site_fract_z
 _atom_site_occupancy
  La  La0  1  0.43332200  0.48075900  0.74113600  1
  La  La1  1  0.92686200  0.02271500  0.74514200  1
  La  La2  1  0.57562000  0.55720200  0.25973100  1
  La  La3  1  0.11834100  0.96149600  0.29346500  1
  Mg  Mg0  1  0.74812700  0.11680600  0.12347000  1
  Ga  Ga0  1  0.00539800  0.52025000  0.99676700  1
  Ga  Ga1  1  0.52207700  0.00921200  0.50698600  1
  Fe  Fe0  1  0.99681700  0.48774800  0.50839200  1
  Fe  Fe1  1  0.38932200  0.98378700  0.95011200  1
  O  O0  1  0.53559400  0.90158600  0.74360100  1
  O  O1  1  0.04152700  0.61748000  0.75667800  1
  O  O2  1  0.48815200  0.10465200  0.26248800  1
  O  O3  1  0.94517200  0.36274900  0.24224200  1
  O  O4  1  0.68729800  0.30298600  0.55543000  1
  O  O5  1  0.17058500  0.22566200  0.94166700  1
  O  O6  1  0.29268000  0.68962800  0.06719600  1
  O  O7  1  0.79940400  0.82001500  0.45253200  1
  O  O8  1  0.32830300  0.70479000  0.45906600  1
  O  O9  1  0.84391300  0.80344800  0.07214700  1
  O  O10  1  0.70316000  0.33091000  0.94212000  1
  O  O11  1  0.21023300  0.18659500  0.55463300  1
loop_
_geom_bond_atom_site_label_1
_geom_bond_atom_site_label_2
_geom_bond_distance
_geom_bond_site_symmetry_2
La0 O4 2.396367 1_555
La0 O0 2.410665 1_555
La0 O10 2.507614 1_555
La0 O1 2.569667 1_555
La0 O11 2.585315 1_555
La0 O5 2.632143 1_555
La0 O8 2.689523 1_555
La0 O6 2.998532 1_556
La1 O1 2.414462 1_645
La1 O5 2.436494 1_655
La1 O11 2.444234 1_655
La1 O0 2.470788 1_545
La1 O4 2.694367 1_555
La1 O7 2.717484 1_545
La1 O10 2.748137 1_555
La1 O9 2.921344 1_546
La2 O8 2.368762 1_555
La2 O6 2.486977 1_555
La2 O7 2.515243 1_555
La2 O9 2.566143 1_555
La2 O2 2.566379 1_555
La2 O3 2.574628 1_555
La2 O4 2.875646 1_555
La2 O10 2.958609 1_554
La3 O2 2.385596 1_565
La3 O8 2.396766 1_555
La3 O7 2.424012 1_455
La3 O11 2.503481 1_565
La3 O3 2.572630 1_465
La3 O9 2.595738 1_455
La3 O6 2.621869 1_555
Mg0 O10 1.916858 1_554
Mg0 O9 1.923580 1_545
Mg0 O2 1.934724 1_555
Mg0 O3 2.037264 1_555
Ga0 O9 2.003953 1_456
Ga0 O1 2.006122 1_555
Ga0 O5 2.028043 1_555
Ga0 O6 2.052907 1_556
Ga0 O10 2.147366 1_455
Ga0 O3 2.175191 1_456
Ga1 O4 1.934532 1_555
Ga1 O0 1.994532 1_545
Ga1 O2 2.048255 1_555
Ga1 O8 2.072147 1_545
Ga1 O7 2.095845 1_545
Ga1 O11 2.234608 1_555
Fe0 O1 2.137149 1_655
Fe0 O4 2.150913 1_555
Fe0 O11 2.225440 1_655
Fe0 O3 2.268840 1_555
Fe0 O7 2.321961 1_555
Fe0 O8 2.351148 1_655
Fe1 O0 1.939413 1_555
Fe1 O6 1.958188 1_556
Fe1 O5 1.960734 1_565
Fe1 O10 2.672564 1_565
