# generated using pymatgen
data_Ca2La5Mn7NiO24
_symmetry_space_group_name_H-M   'P 1'
_cell_length_a   5.47763900
_cell_length_b   7.69200801
_cell_length_c   10.98225388
_cell_angle_alpha   89.89745800
_cell_angle_beta   89.88456062
_cell_angle_gamma   89.99772069
_symmetry_Int_Tables_number   1
_chemical_formula_structural   Ca2La5Mn7NiO24
_chemical_formula_sum   'Ca2 La5 Mn7 Ni1 O24'
_cell_volume   462.72507701
_cell_formula_units_Z   1
loop_
 _symmetry_equiv_pos_site_id
 _symmetry_equiv_pos_as_xyz
  1  'x, y, z'
loop_
 _atom_site_type_symbol
 _atom_site_label
 _atom_site_symmetry_multiplicity
 _atom_site_fract_x
 _atom_site_fract_y
 _atom_site_fract_z
 _atom_site_occupancy
  Ca  Ca0  1  0.99651000  0.75019500  0.51647200  1
  Ca  Ca1  1  0.51269400  0.75192300  0.27310500  1
  La  La0  1  0.00394200  0.24616000  0.97775400  1
  La  La1  1  0.50478100  0.75500700  0.76006100  1
  La  La2  1  0.00270600  0.24859600  0.49943200  1
  La  La3  1  0.49418900  0.24782800  0.24029700  1
  La  La4  1  0.00393100  0.75419700  0.00938300  1
  Mn  Mn0  1  0.00420400  0.49373100  0.74732400  1
  Mn  Mn1  1  0.50203300  0.50093700  0.50474600  1
  Mn  Mn2  1  0.99924500  0.50567400  0.25294700  1
  Mn  Mn3  1  0.00583100  0.00467700  0.74897000  1
  Mn  Mn4  1  0.50204800  0.99870800  0.50416000  1
  Mn  Mn5  1  0.99730900  0.99547100  0.25233800  1
  Mn  Mn6  1  0.50092500  0.49865400  0.99882900  1
  Ni  Ni0  1  0.50148600  0.00246600  0.99926100  1
  O  O0  1  0.44694400  0.74382300  0.99007300  1
  O  O1  1  0.78523000  0.96822700  0.88334100  1
  O  O2  1  0.77860200  0.53220400  0.88882000  1
  O  O3  1  0.25986800  0.47507200  0.86815300  1
  O  O4  1  0.25398100  0.01880200  0.86330600  1
  O  O5  1  0.93861700  0.24912000  0.74433400  1
  O  O6  1  0.05687400  0.74867300  0.74784800  1
  O  O7  1  0.73104900  0.95853300  0.63086300  1
  O  O8  1  0.73184800  0.54165800  0.63239000  1
  O  O9  1  0.21478800  0.48232300  0.60577800  1
  O  O10  1  0.21619700  0.01621100  0.60447700  1
  O  O11  1  0.55918900  0.24963400  0.48770800  1
  O  O12  1  0.43119600  0.75014900  0.49520100  1
  O  O13  1  0.78000300  0.53776000  0.38921200  1
  O  O14  1  0.78044300  0.96238700  0.39163300  1
  O  O15  1  0.27598200  0.46728600  0.36210100  1
  O  O16  1  0.27801000  0.03354500  0.36286300  1
  O  O17  1  0.93837200  0.25037000  0.26060800  1
  O  O18  1  0.08109200  0.75050200  0.24252700  1
  O  O19  1  0.72980200  0.96418400  0.14604100  1
  O  O20  1  0.72344000  0.54071200  0.14258600  1
  O  O21  1  0.21674300  0.46454800  0.11251600  1
  O  O22  1  0.21043000  0.03468800  0.11619900  1
  O  O23  1  0.56307200  0.25742700  0.01628400  1
loop_
_geom_bond_atom_site_label_1
_geom_bond_atom_site_label_2
_geom_bond_distance
_geom_bond_site_symmetry_2
Ca0 O12 2.392016 1_655
Ca0 O14 2.437793 1_555
Ca0 O13 2.458637 1_555
Ca0 O7 2.502081 1_555
Ca0 O8 2.506153 1_555
Ca0 O6 2.563119 1_655
Ca0 O10 2.565362 1_665
Ca0 O9 2.575724 1_655
Ca1 O18 2.388589 1_555
Ca1 O19 2.452067 1_555
Ca1 O20 2.455238 1_555
Ca1 O12 2.478759 1_555
Ca1 O14 2.545914 1_555
Ca1 O13 2.546257 1_555
Ca1 O16 2.705392 1_565
Ca1 O15 2.723520 1_555
La0 O23 2.452434 1_456
La0 O22 2.496988 1_556
La0 O21 2.527248 1_556
La0 O3 2.549560 1_555
La0 O4 2.552418 1_555
La0 O5 2.589105 1_455
La0 O1 2.663449 1_445
La0 O2 2.704731 1_455
La1 O7 2.446501 1_555
La1 O6 2.457896 1_555
La1 O8 2.491413 1_555
La1 O0 2.546507 1_555
La1 O1 2.626662 1_555
La1 O2 2.680679 1_555
La1 O4 2.700368 1_565
La1 O3 2.798238 1_555
La1 O12 2.937663 1_555
La1 O6 3.027263 1_655
La1 O10 3.074653 1_565
La1 O9 3.133281 1_555
La2 O10 2.427240 1_555
La2 O11 2.433107 1_455
La2 O9 2.441095 1_555
La2 O17 2.647108 1_455
La2 O16 2.694342 1_555
La2 O15 2.706864 1_555
La2 O5 2.711699 1_455
La2 O14 2.783139 1_445
La2 O13 2.810114 1_455
La2 O7 3.042347 1_445
La2 O11 3.050682 1_555
La2 O8 3.068833 1_455
La3 O16 2.432414 1_555
La3 O17 2.443807 1_555
La3 O15 2.463556 1_555
La3 O23 2.489148 1_555
La3 O22 2.641587 1_555
La3 O21 2.656671 1_555
La3 O19 2.738589 1_545
La3 O11 2.741130 1_555
La3 O20 2.791054 1_555
La4 O0 2.436804 1_554
La4 O1 2.461694 1_454
La4 O2 2.491423 1_454
La4 O18 2.596042 1_555
La4 O19 2.667494 1_455
La4 O20 2.679502 1_455
La4 O22 2.706500 1_565
La4 O21 2.757121 1_555
La4 O6 2.886654 1_554
La4 O4 2.927793 1_564
La4 O3 2.997290 1_554
La4 O0 3.059815 1_454
Mn0 O5 1.915907 1_455
Mn0 O9 1.935969 1_555
Mn0 O3 1.936355 1_555
Mn0 O6 1.982157 1_555
Mn0 O8 1.990148 1_455
Mn0 O2 2.005821 1_455
Mn1 O8 1.912226 1_555
Mn1 O9 1.928652 1_555
Mn1 O12 1.958467 1_555
Mn1 O11 1.967391 1_555
Mn1 O13 1.999868 1_555
Mn1 O15 2.015842 1_555
Mn2 O13 1.933055 1_555
Mn2 O18 1.938994 1_655
Mn2 O15 1.956547 1_655
Mn2 O20 1.957086 1_555
Mn2 O21 1.972889 1_655
Mn2 O17 1.993520 1_555
Mn3 O4 1.855671 1_555
Mn3 O5 1.916557 1_455
Mn3 O1 1.925569 1_445
Mn3 O10 1.961108 1_555
Mn3 O6 1.988980 1_545
Mn3 O7 2.020756 1_445
Mn4 O7 1.900177 1_555
Mn4 O10 1.917587 1_565
Mn4 O12 1.953617 1_555
Mn4 O11 1.963305 1_565
Mn4 O14 1.980992 1_555
Mn4 O16 1.997984 1_565
Mn5 O19 1.890964 1_555
Mn5 O22 1.918479 1_665
Mn5 O18 1.942495 1_655
Mn5 O14 1.951259 1_555
Mn5 O16 1.982950 1_665
Mn5 O17 1.989278 1_565
Mn6 O23 1.895924 1_556
Mn6 O0 1.911151 1_555
Mn6 O2 1.957348 1_555
Mn6 O3 1.960757 1_555
Mn6 O21 2.010436 1_556
Mn6 O20 2.022973 1_556
Ni0 O23 1.999132 1_556
Ni0 O0 2.014541 1_545
Ni0 O4 2.022529 1_555
Ni0 O1 2.024581 1_545
Ni0 O22 2.060427 1_556
Ni0 O19 2.062923 1_546
