# generated using pymatgen
data_Be4InCu
_symmetry_space_group_name_H-M   'P 1'
_cell_length_a   4.51422626
_cell_length_b   4.51422626
_cell_length_c   4.51422626
_cell_angle_alpha   60.00000000
_cell_angle_beta   60.00000000
_cell_angle_gamma   60.00000000
_symmetry_Int_Tables_number   1
_chemical_formula_structural   Be4InCu
_chemical_formula_sum   'Be4 In1 Cu1'
_cell_volume   65.04815313
_cell_formula_units_Z   1
loop_
 _symmetry_equiv_pos_site_id
 _symmetry_equiv_pos_as_xyz
  1  'x, y, z'
loop_
 _atom_site_type_symbol
 _atom_site_label
 _atom_site_symmetry_multiplicity
 _atom_site_fract_x
 _atom_site_fract_y
 _atom_site_fract_z
 _atom_site_occupancy
  Be  Be0  1  0.62369900  0.62369900  0.12890400  1
  Be  Be1  1  0.62369900  0.12890400  0.62369900  1
  Be  Be2  1  0.12890400  0.62369900  0.62369900  1
  Be  Be3  1  0.62369900  0.62369900  0.62369900  1
  In  In0  1  0.00000000  0.00000000  0.00000000  1
  Cu  Cu0  1  0.25000000  0.25000000  0.25000000  1
loop_
_geom_bond_atom_site_label_1
_geom_bond_atom_site_label_2
_geom_bond_distance
_geom_bond_site_symmetry_2
Be0 Be3 2.233617 1_555
Be0 Be2 2.233617 1_555
Be0 Be1 2.233617 1_555
Be0 Be1 2.280610 1_564
Be0 Be2 2.280610 1_654
Be0 Be3 2.280610 1_554
Be0 Cu0 2.644232 1_655
Be0 Cu0 2.644232 1_565
Be0 Cu0 2.644235 1_555
Be0 In0 2.649240 1_665
Be0 In0 2.649244 1_655
Be0 In0 2.649244 1_565
Be1 Be3 2.233617 1_555
Be1 Be2 2.233617 1_555
Be1 Be2 2.280610 1_645
Be1 Be3 2.280610 1_545
Be1 Cu0 2.644232 1_556
Be1 Cu0 2.644232 1_655
Be1 Cu0 2.644235 1_555
Be1 In0 2.649240 1_656
Be1 In0 2.649244 1_556
Be1 In0 2.649244 1_655
Be2 Be3 2.233617 1_555
Be2 Be3 2.280610 1_455
Be2 Cu0 2.644232 1_556
Be2 Cu0 2.644232 1_565
Be2 Cu0 2.644235 1_555
Be2 In0 2.649240 1_566
Be2 In0 2.649244 1_556
Be2 In0 2.649244 1_565
Be3 Cu0 2.644233 1_655
Be3 Cu0 2.644233 1_565
Be3 Cu0 2.644233 1_556
Be3 In0 2.649242 1_665
Be3 In0 2.649242 1_656
Be3 In0 2.649242 1_566
Cu0 In0 2.764388 1_555
Cu0 In0 2.764388 1_655
Cu0 In0 2.764388 1_556
Cu0 In0 2.764388 1_565
