# generated using pymatgen
data_Li3Mn2O5
_symmetry_space_group_name_H-M   'P 1'
_cell_length_a   5.07701300
_cell_length_b   5.23200084
_cell_length_c   7.64468496
_cell_angle_alpha   109.97016715
_cell_angle_beta   102.77908407
_cell_angle_gamma   97.81890169
_symmetry_Int_Tables_number   1
_chemical_formula_structural   Li3Mn2O5
_chemical_formula_sum   'Li6 Mn4 O10'
_cell_volume   181.10060770
_cell_formula_units_Z   2
loop_
 _symmetry_equiv_pos_site_id
 _symmetry_equiv_pos_as_xyz
  1  'x, y, z'
loop_
 _atom_site_type_symbol
 _atom_site_label
 _atom_site_symmetry_multiplicity
 _atom_site_fract_x
 _atom_site_fract_y
 _atom_site_fract_z
 _atom_site_occupancy
  Li  Li0  1  0.50074300  0.39456600  0.70422000  1
  Li  Li1  1  0.51166900  0.79483500  0.90451600  1
  Li  Li2  1  0.50000000  0.00000000  0.50000000  1
  Li  Li3  1  0.49925700  0.60543400  0.29578000  1
  Li  Li4  1  0.48833100  0.20516500  0.09548400  1
  Li  Li5  1  0.00000000  0.50000000  0.00000000  1
  Mn  Mn0  1  0.99981500  0.09868600  0.80125200  1
  Mn  Mn1  1  0.00018500  0.90131400  0.19874800  1
  Mn  Mn2  1  0.99915400  0.30154300  0.39678400  1
  Mn  Mn3  1  0.00084600  0.69845700  0.60321600  1
  O  O0  1  0.23104600  0.06829600  0.65047700  1
  O  O1  1  0.21966600  0.43285900  0.83387800  1
  O  O2  1  0.23345200  0.67099700  0.44299900  1
  O  O3  1  0.21621000  0.22169000  0.25301800  1
  O  O4  1  0.22827700  0.87363800  0.04565500  1
  O  O5  1  0.78379000  0.77831000  0.74698200  1
  O  O6  1  0.77172300  0.12636200  0.95434500  1
  O  O7  1  0.76654800  0.32900300  0.55700100  1
  O  O8  1  0.76895400  0.93170400  0.34952300  1
  O  O9  1  0.78033400  0.56714100  0.16612200  1
loop_
_geom_bond_atom_site_label_1
_geom_bond_atom_site_label_2
_geom_bond_distance
_geom_bond_site_symmetry_2
Li0 O0 1.895724 1_555
Li0 O1 1.904444 1_555
Li0 O7 1.933795 1_555
Li0 O5 2.182161 1_555
Li1 O6 1.897375 1_565
Li1 O4 1.987096 1_556
Li1 O5 2.015923 1_555
Li1 O1 2.063852 1_555
Li2 O7 1.891352 1_555
Li2 O2 1.891352 1_545
Li2 O8 1.965300 1_545
Li2 O0 1.965300 1_555
Li3 O8 1.895724 1_555
Li3 O9 1.904444 1_555
Li3 O2 1.933795 1_555
Li3 O3 2.182161 1_555
Li4 O4 1.897375 1_545
Li4 O6 1.987096 1_554
Li4 O3 2.015923 1_555
Li4 O9 2.063852 1_555
Li5 O1 1.846179 1_554
Li5 O9 1.846179 1_455
Li5 O4 2.006269 1_555
Li5 O6 2.006269 1_454
Mn0 O5 1.734408 1_545
Mn0 O0 1.804504 1_655
Mn0 O6 1.805861 1_555
Mn0 O1 1.847418 1_655
Mn1 O3 1.734408 1_565
Mn1 O8 1.804504 1_455
Mn1 O4 1.805861 1_555
Mn1 O9 1.847418 1_455
Mn2 O3 1.715886 1_655
Mn2 O7 1.865816 1_555
Mn2 O8 1.990233 1_545
Mn2 O2 1.999556 1_655
Mn3 O5 1.715886 1_455
Mn3 O2 1.865816 1_555
Mn3 O0 1.990233 1_565
Mn3 O7 1.999556 1_455
