# generated using pymatgen
data_MgCr4(CuO4)3
_symmetry_space_group_name_H-M   'P 1'
_cell_length_a   6.34356174
_cell_length_b   6.35495103
_cell_length_c   6.35483135
_cell_angle_alpha   109.50438499
_cell_angle_beta   109.43267513
_cell_angle_gamma   109.43538860
_symmetry_Int_Tables_number   1
_chemical_formula_structural   MgCr4(CuO4)3
_chemical_formula_sum   'Mg1 Cr4 Cu3 O12'
_cell_volume   197.30952476
_cell_formula_units_Z   1
loop_
 _symmetry_equiv_pos_site_id
 _symmetry_equiv_pos_as_xyz
  1  'x, y, z'
loop_
 _atom_site_type_symbol
 _atom_site_label
 _atom_site_symmetry_multiplicity
 _atom_site_fract_x
 _atom_site_fract_y
 _atom_site_fract_z
 _atom_site_occupancy
  Mg  Mg0  1  0.00000700  0.00000000  0.00000100  1
  Cr  Cr0  1  0.99999900  0.00000000  0.50000100  1
  Cr  Cr1  1  0.99999500  0.50000300  0.99999800  1
  Cr  Cr2  1  0.49999400  0.49999900  0.49999900  1
  Cr  Cr3  1  0.50000200  0.99999900  0.99999400  1
  Cu  Cu0  1  0.49999700  0.49999500  0.00000300  1
  Cu  Cu1  1  0.00000400  0.50000400  0.50000300  1
  Cu  Cu2  1  0.49999900  0.99999700  0.49999700  1
  O  O0  1  0.83226000  0.30895600  0.13992900  1
  O  O1  1  0.16774000  0.69104900  0.86007500  1
  O  O2  1  0.83125200  0.69121400  0.52234300  1
  O  O3  1  0.30883700  0.47767900  0.16881400  1
  O  O4  1  0.47669100  0.16901700  0.30893700  1
  O  O5  1  0.14005600  0.83123800  0.30888400  1
  O  O6  1  0.69234600  0.86003000  0.16901800  1
  O  O7  1  0.52331400  0.83098500  0.69106700  1
  O  O8  1  0.16874700  0.30878000  0.47765800  1
  O  O9  1  0.69116200  0.52232200  0.83118600  1
  O  O10  1  0.85994400  0.16876300  0.69111400  1
  O  O11  1  0.30765500  0.13997000  0.83097900  1
loop_
_geom_bond_atom_site_label_1
_geom_bond_atom_site_label_2
_geom_bond_distance
_geom_bond_site_symmetry_2
Mg0 O11 2.575103 1_554
Mg0 O6 2.575143 1_445
Mg0 O1 2.575201 1_544
Mg0 O4 2.575276 1_555
Mg0 O0 2.575299 1_455
Mg0 O7 2.575321 1_444
Mg0 O5 2.583002 1_545
Mg0 O10 2.583047 1_454
Mg0 O2 2.583196 1_444
Mg0 O8 2.583204 1_555
Mg0 O3 2.583249 1_555
Mg0 O9 2.583263 1_444
Cr0 O11 1.971810 1_655
Cr0 O6 1.971819 1_545
Cr0 O10 1.974045 1_555
Cr0 O5 1.974067 1_645
Cr0 O8 1.976334 1_655
Cr0 O2 1.976360 1_545
Cr1 O1 1.971723 1_655
Cr1 O0 1.971738 1_556
Cr1 O9 1.974111 1_555
Cr1 O3 1.974183 1_656
Cr1 O5 1.977168 1_656
Cr1 O10 1.977196 1_555
Cr2 O7 1.971915 1_555
Cr2 O4 1.971938 1_555
Cr2 O8 1.974648 1_555
Cr2 O2 1.974691 1_555
Cr2 O3 1.976874 1_555
Cr2 O9 1.976892 1_555
Cr3 O7 1.980006 1_555
Cr3 O4 1.980093 1_566
Cr3 O0 1.980185 1_566
Cr3 O1 1.980202 1_555
Cr3 O11 1.980370 1_565
Cr3 O6 1.980376 1_556
Cu0 O3 1.869269 1_555
Cu0 O9 1.869329 1_554
Cu0 O11 1.872507 1_554
Cu0 O6 1.872564 1_555
Cu1 O2 1.869285 1_455
Cu1 O8 1.869313 1_555
Cu1 O1 1.872748 1_555
Cu1 O0 1.872757 1_455
Cu2 O5 1.869262 1_555
Cu2 O10 1.869271 1_565
Cu2 O4 1.872655 1_565
Cu2 O7 1.872668 1_555
