# generated using pymatgen
data_CeSe2
_symmetry_space_group_name_H-M   'P 1'
_cell_length_a   12.52710735
_cell_length_b   12.52710729
_cell_length_c   18.49796336
_cell_angle_alpha   70.20792701
_cell_angle_beta   70.20792777
_cell_angle_gamma   60.00000018
_symmetry_Int_Tables_number   1
_chemical_formula_structural   CeSe2
_chemical_formula_sum   'Ce12 Se24'
_cell_volume   2313.82362761
_cell_formula_units_Z   12
loop_
 _symmetry_equiv_pos_site_id
 _symmetry_equiv_pos_as_xyz
  1  'x, y, z'
loop_
 _atom_site_type_symbol
 _atom_site_label
 _atom_site_symmetry_multiplicity
 _atom_site_fract_x
 _atom_site_fract_y
 _atom_site_fract_z
 _atom_site_occupancy
  Ce  Ce0  1  0.37440505  0.02900498  0.64930675  1
  Ce  Ce1  1  0.02900498  0.94728321  0.64930675  1
  Ce  Ce2  1  0.94728321  0.37440505  0.64930675  1
  Ce  Ce3  1  0.52900498  0.87440505  0.14930675  1
  Ce  Ce4  1  0.87440505  0.44728321  0.14930675  1
  Ce  Ce5  1  0.44728321  0.52900498  0.14930675  1
  Ce  Ce6  1  0.62561952  0.97099754  0.35064265  1
  Ce  Ce7  1  0.97099754  0.05274030  0.35064265  1
  Ce  Ce8  1  0.05274030  0.62561952  0.35064265  1
  Ce  Ce9  1  0.47099754  0.12561952  0.85064265  1
  Ce  Ce10  1  0.12561952  0.55274030  0.85064265  1
  Ce  Ce11  1  0.55274030  0.47099754  0.85064265  1
  Se  Se0  1  0.49996685  0.00000560  0.49994228  1
  Se  Se1  1  0.00000560  0.00008527  0.49994228  1
  Se  Se2  1  0.00008527  0.49996685  0.49994228  1
  Se  Se3  1  0.50000560  0.99996685  0.99994228  1
  Se  Se4  1  0.99996685  0.50008527  0.99994228  1
  Se  Se5  1  0.50008527  0.50000560  0.99994228  1
  Se  Se6  1  0.74998904  0.52150223  0.74990767  1
  Se  Se7  1  0.52150223  0.97860105  0.74990767  1
  Se  Se8  1  0.97860105  0.74998904  0.74990767  1
  Se  Se9  1  0.02150223  0.24998904  0.24990767  1
  Se  Se10  1  0.24998904  0.47860105  0.24990767  1
  Se  Se11  1  0.47860105  0.02150223  0.24990767  1
  Se  Se12  1  0.26002665  0.88150170  0.67099667  1
  Se  Se13  1  0.88150170  0.18747497  0.67099667  1
  Se  Se14  1  0.18747497  0.26002665  0.67099667  1
  Se  Se15  1  0.38150170  0.76002665  0.17099667  1
  Se  Se16  1  0.76002665  0.68747497  0.17099667  1
  Se  Se17  1  0.68747497  0.38150170  0.17099667  1
  Se  Se18  1  0.73997052  0.11849856  0.32900397  1
  Se  Se19  1  0.11849856  0.81252695  0.32900397  1
  Se  Se20  1  0.81252695  0.73997052  0.32900397  1
  Se  Se21  1  0.61849856  0.23997052  0.82900397  1
  Se  Se22  1  0.23997052  0.31252695  0.82900397  1
  Se  Se23  1  0.31252695  0.61849856  0.82900397  1
loop_
_geom_bond_atom_site_label_1
_geom_bond_atom_site_label_2
_geom_bond_distance
_geom_bond_site_symmetry_2
Ce0 Se12 2.717442 1_545
Ce0 Se14 2.719020 1_555
Ce0 Se0 2.721233 1_555
Ce0 Se7 2.760476 1_545
Ce1 Se13 2.717442 1_465
Ce1 Se12 2.719020 1_555
Ce1 Se1 2.721233 1_565
Ce1 Se8 2.760476 1_455
Ce2 Se14 2.717442 1_655
Ce2 Se13 2.719020 1_555
Ce2 Se2 2.721233 1_655
Ce2 Se6 2.760476 1_555
Ce3 Se15 2.717442 1_555
Ce3 Se16 2.719020 1_555
Ce3 Se3 2.721233 1_554
Ce3 Se11 2.760476 1_565
Ce4 Se16 2.717442 1_555
Ce4 Se17 2.719020 1_555
Ce4 Se4 2.721233 1_554
Ce4 Se9 2.760476 1_655
Ce5 Se17 2.717442 1_555
Ce5 Se15 2.719020 1_555
Ce5 Se5 2.721233 1_554
Ce5 Se10 2.760476 1_555
Ce6 Se18 2.717384 1_565
Ce6 Se20 2.718782 1_555
Ce6 Se0 2.720407 1_565
Ce6 Se11 2.761326 1_565
Ce7 Se19 2.717384 1_645
Ce7 Se18 2.718782 1_555
Ce7 Se1 2.720407 1_655
Ce7 Se9 2.761326 1_655
Ce8 Se20 2.717384 1_455
Ce8 Se19 2.718782 1_555
Ce8 Se2 2.720407 1_555
Ce8 Se10 2.761326 1_555
Ce9 Se21 2.717384 1_555
Ce9 Se22 2.718782 1_555
Ce9 Se3 2.720407 1_545
Ce9 Se7 2.761326 1_545
Ce10 Se22 2.717384 1_555
Ce10 Se23 2.718782 1_555
Ce10 Se4 2.720407 1_455
Ce10 Se8 2.761326 1_455
Ce11 Se23 2.717384 1_555
Ce11 Se21 2.718782 1_555
Ce11 Se5 2.720407 1_555
Ce11 Se6 2.761326 1_555
