# generated using pymatgen
data_BaLa3Mn4O10
_symmetry_space_group_name_H-M   'P 1'
_cell_length_a   9.17297802
_cell_length_b   9.17297802
_cell_length_c   11.57164880
_cell_angle_alpha   71.73287275
_cell_angle_beta   71.73287275
_cell_angle_gamma   35.85554133
_symmetry_Int_Tables_number   1
_chemical_formula_structural   BaLa3Mn4O10
_chemical_formula_sum   'Ba2 La6 Mn8 O20'
_cell_volume   538.48811062
_cell_formula_units_Z   2
loop_
 _symmetry_equiv_pos_site_id
 _symmetry_equiv_pos_as_xyz
  1  'x, y, z'
loop_
 _atom_site_type_symbol
 _atom_site_label
 _atom_site_symmetry_multiplicity
 _atom_site_fract_x
 _atom_site_fract_y
 _atom_site_fract_z
 _atom_site_occupancy
  Ba  Ba0  1  0.61267800  0.61996600  0.18889500  1
  Ba  Ba1  1  0.61996600  0.61267800  0.68889500  1
  La  La0  1  0.37742400  0.40091600  0.31812400  1
  La  La1  1  0.40091600  0.37742400  0.81812400  1
  La  La2  1  0.88033900  0.90404500  0.04409900  1
  La  La3  1  0.09135800  0.13524800  0.45382200  1
  La  La4  1  0.13524800  0.09135800  0.95382200  1
  La  La5  1  0.90404500  0.88033900  0.54409900  1
  Mn  Mn0  1  0.50229700  0.49817900  0.00189000  1
  Mn  Mn1  1  0.49817900  0.50229700  0.50189000  1
  Mn  Mn2  1  0.99650200  0.99673000  0.25251500  1
  Mn  Mn3  1  0.99673000  0.99650200  0.75251500  1
  Mn  Mn4  1  0.71433600  0.78699500  0.34756000  1
  Mn  Mn5  1  0.21356300  0.29185500  0.15053500  1
  Mn  Mn6  1  0.29185500  0.21356300  0.65053500  1
  Mn  Mn7  1  0.78699500  0.71433600  0.84756000  1
  O  O0  1  0.14300200  0.13623100  0.13564200  1
  O  O1  1  0.88374000  0.83896800  0.35984100  1
  O  O2  1  0.83896800  0.88374000  0.85984100  1
  O  O3  1  0.13623100  0.14300200  0.63564200  1
  O  O4  1  0.40917200  0.31910900  0.02849300  1
  O  O5  1  0.69357300  0.57414600  0.44519200  1
  O  O6  1  0.57414600  0.69357300  0.94519200  1
  O  O7  1  0.31910900  0.40917200  0.52849300  1
  O  O8  1  0.86214700  0.66949300  0.17247000  1
  O  O9  1  0.33134400  0.16771100  0.32764200  1
  O  O10  1  0.16771100  0.33134400  0.82764200  1
  O  O11  1  0.66949300  0.86214700  0.67247000  1
  O  O12  1  0.22477300  0.74539200  0.63629800  1
  O  O13  1  0.24131800  0.75692200  0.87413500  1
  O  O14  1  0.75692200  0.24131800  0.37413500  1
  O  O15  1  0.74539200  0.22477300  0.13629800  1
  O  O16  1  0.22499700  0.73089500  0.14203900  1
  O  O17  1  0.24356000  0.78107500  0.37081000  1
  O  O18  1  0.78107500  0.24356000  0.87081000  1
  O  O19  1  0.73089500  0.22499700  0.64203900  1
loop_
_geom_bond_atom_site_label_1
_geom_bond_atom_site_label_2
_geom_bond_distance
_geom_bond_site_symmetry_2
Ba0 O8 2.614884 1_555
Ba0 O17 2.729559 1_555
Ba0 O6 2.752785 1_554
Ba0 O14 2.840859 1_555
Ba0 O0 2.851337 1_565
Ba0 O0 2.928904 1_655
Ba0 O15 2.959526 1_555
Ba0 O16 2.995504 1_555
Ba0 O5 3.100929 1_555
Ba1 O11 2.614884 1_555
Ba1 O18 2.729559 1_555
Ba1 O5 2.752785 1_555
Ba1 O13 2.840859 1_555
Ba1 O3 2.851337 1_655
Ba1 O3 2.928904 1_565
Ba1 O12 2.959526 1_555
Ba1 O19 2.995504 1_555
Ba1 O6 3.100929 1_555
La0 O7 2.334813 1_555
La0 O9 2.460842 1_555
La0 O16 2.515557 1_555
La0 O1 2.689934 1_455
La0 O14 2.690738 1_555
La0 O15 2.696151 1_555
La0 O17 2.821762 1_555
La0 O1 3.068021 1_545
La1 O4 2.334813 1_556
La1 O10 2.460842 1_555
La1 O19 2.515557 1_555
La1 O2 2.689934 1_545
La1 O13 2.690738 1_555
La1 O12 2.696151 1_555
La1 O18 2.821762 1_555
La1 O2 3.068021 1_455
La2 O8 2.299260 1_555
La2 O2 2.365511 1_554
La2 O15 2.561742 1_565
La2 O4 2.567580 1_565
La2 O16 2.603928 1_655
La2 O13 2.644127 1_654
La2 O18 2.679964 1_564
La3 O3 2.298980 1_555
La3 O5 2.386702 1_455
La3 O9 2.416968 1_555
La3 O17 2.681399 1_545
La3 O14 2.753303 1_455
La3 O12 2.921813 1_545
La3 O19 2.924262 1_455
La3 O5 3.302225 1_545
La4 O0 2.298980 1_556
La4 O6 2.386702 1_545
La4 O10 2.416968 1_555
La4 O18 2.681399 1_455
La4 O13 2.753303 1_545
La4 O15 2.921813 1_456
La4 O16 2.924262 1_546
La4 O6 3.302225 1_455
La5 O11 2.299260 1_555
La5 O1 2.365511 1_555
La5 O12 2.561742 1_655
La5 O7 2.567580 1_655
La5 O19 2.603928 1_565
La5 O14 2.644127 1_565
La5 O17 2.679964 1_655
Mn0 O15 2.084425 1_555
Mn0 O13 2.087677 1_554
Mn0 O18 2.098284 1_554
Mn0 O16 2.107025 1_555
Mn0 O6 2.232466 1_554
Mn0 O4 2.305495 1_555
Mn1 O12 2.084425 1_555
Mn1 O14 2.087677 1_555
Mn1 O17 2.098284 1_555
Mn1 O19 2.107025 1_555
Mn1 O5 2.232466 1_555
Mn1 O7 2.305495 1_555
Mn2 O15 1.964156 1_565
Mn2 O14 1.972820 1_565
Mn2 O17 1.975627 1_655
Mn2 O16 1.990784 1_655
Mn2 O1 2.280562 1_555
Mn2 O0 2.415715 1_665
Mn3 O12 1.964156 1_655
Mn3 O13 1.972820 1_655
Mn3 O18 1.975627 1_565
Mn3 O19 1.990784 1_565
Mn3 O2 2.280562 1_555
Mn3 O3 2.415715 1_665
Mn4 O1 2.010973 1_555
Mn4 O5 2.051784 1_555
Mn4 O8 2.093574 1_555
Mn4 O9 2.169479 1_565
Mn5 O4 2.047860 1_555
Mn5 O0 2.051442 1_555
Mn5 O8 2.095889 1_455
Mn5 O9 2.143559 1_555
Mn6 O7 2.047860 1_555
Mn6 O3 2.051442 1_555
Mn6 O11 2.095889 1_545
Mn6 O10 2.143559 1_555
Mn7 O2 2.010973 1_555
Mn7 O6 2.051784 1_555
Mn7 O11 2.093574 1_555
Mn7 O10 2.169479 1_655
