# generated using pymatgen
data_LuMgTl2
_symmetry_space_group_name_H-M   'P 1'
_cell_length_a   5.23503253
_cell_length_b   5.23503253
_cell_length_c   5.23503253
_cell_angle_alpha   60.00000000
_cell_angle_beta   60.00000000
_cell_angle_gamma   60.00000000
_symmetry_Int_Tables_number   1
_chemical_formula_structural   LuMgTl2
_chemical_formula_sum   'Lu1 Mg1 Tl2'
_cell_volume   101.44792200
_cell_formula_units_Z   1
loop_
 _symmetry_equiv_pos_site_id
 _symmetry_equiv_pos_as_xyz
  1  'x, y, z'
loop_
 _atom_site_type_symbol
 _atom_site_label
 _atom_site_symmetry_multiplicity
 _atom_site_fract_x
 _atom_site_fract_y
 _atom_site_fract_z
 _atom_site_occupancy
  Lu  Lu0  1  0.50000000  0.50000000  0.50000000  1
  Mg  Mg0  1  0.00000000  0.00000000  0.00000000  1
  Tl  Tl0  1  0.25000000  0.25000000  0.25000000  1
  Tl  Tl1  1  0.75000000  0.75000000  0.75000000  1
loop_
_geom_bond_atom_site_label_1
_geom_bond_atom_site_label_2
_geom_bond_distance
_geom_bond_site_symmetry_2
Lu0 Tl0 3.205790 1_556
Lu0 Tl0 3.205790 1_555
Lu0 Tl0 3.205790 1_565
Lu0 Tl1 3.205790 1_455
Lu0 Tl1 3.205790 1_555
Lu0 Tl1 3.205790 1_545
Lu0 Tl1 3.205790 1_554
Lu0 Tl0 3.205790 1_655
Mg0 Tl1 3.205790 1_444
Mg0 Tl0 3.205790 1_455
Mg0 Tl0 3.205790 1_555
Mg0 Tl0 3.205790 1_545
Mg0 Tl1 3.205790 1_454
Mg0 Tl1 3.205790 1_445
Mg0 Tl1 3.205790 1_544
Mg0 Tl0 3.205790 1_554
