# generated using pymatgen
data_CsMnAs
_symmetry_space_group_name_H-M   'P 1'
_cell_length_a   4.49959300
_cell_length_b   4.49959300
_cell_length_c   9.03108800
_cell_angle_alpha   90.00000000
_cell_angle_beta   90.00000000
_cell_angle_gamma   90.00000000
_symmetry_Int_Tables_number   1
_chemical_formula_structural   CsMnAs
_chemical_formula_sum   'Cs2 Mn2 As2'
_cell_volume   182.84645262
_cell_formula_units_Z   2
loop_
 _symmetry_equiv_pos_site_id
 _symmetry_equiv_pos_as_xyz
  1  'x, y, z'
loop_
 _atom_site_type_symbol
 _atom_site_label
 _atom_site_symmetry_multiplicity
 _atom_site_fract_x
 _atom_site_fract_y
 _atom_site_fract_z
 _atom_site_occupancy
  Cs  Cs0  1  0.00000000  0.50000000  0.66009800  1
  Cs  Cs1  1  0.50000000  0.00000000  0.33990200  1
  Mn  Mn0  1  0.50000000  0.50000000  0.00000000  1
  Mn  Mn1  1  0.00000000  0.00000000  0.00000000  1
  As  As0  1  0.00000000  0.50000000  0.14757500  1
  As  As1  1  0.50000000  0.00000000  0.85242500  1
loop_
_geom_bond_atom_site_label_1
_geom_bond_atom_site_label_2
_geom_bond_distance
_geom_bond_site_symmetry_2
As0 Mn0 2.614927 1_555
As0 Mn0 2.614927 1_455
As0 Mn1 2.614927 1_565
As0 Mn1 2.614927 1_555
As0 Cs1 3.624923 1_465
As0 Cs1 3.624923 1_455
As0 Cs1 3.624923 1_565
As0 Cs1 3.624923 1_555
As1 Mn0 2.614927 1_556
As1 Mn1 2.614927 1_656
As1 Mn1 2.614927 1_556
As1 Mn0 2.614927 1_546
As1 Cs0 3.624923 1_655
As1 Cs0 3.624923 1_555
As1 Cs0 3.624923 1_545
As1 Cs0 3.624923 1_645
