# generated using pymatgen
data_Cs2NpO4
_symmetry_space_group_name_H-M   'P 1'
_cell_length_a   4.36611097
_cell_length_b   4.36611359
_cell_length_c   8.06986666
_cell_angle_alpha   105.70041394
_cell_angle_beta   105.69517277
_cell_angle_gamma   90.00000000
_symmetry_Int_Tables_number   1
_chemical_formula_structural   Cs2NpO4
_chemical_formula_sum   'Cs2 Np1 O4'
_cell_volume   142.12846086
_cell_formula_units_Z   1
loop_
 _symmetry_equiv_pos_site_id
 _symmetry_equiv_pos_as_xyz
  1  'x, y, z'
loop_
 _atom_site_type_symbol
 _atom_site_label
 _atom_site_symmetry_multiplicity
 _atom_site_fract_x
 _atom_site_fract_y
 _atom_site_fract_z
 _atom_site_occupancy
  Cs  Cs0  1  0.34419159  0.34415744  0.68838319  1
  Cs  Cs1  1  0.65580841  0.65584256  0.31161681  1
  Np  Np0  1  0.00000000  0.00000000  0.00000000  1
  O  O0  1  0.12786621  0.12789786  0.25573342  1
  O  O1  1  0.87213379  0.87210214  0.74426658  1
  O  O2  1  0.00000000  0.50000000  0.00000000  1
  O  O3  1  0.50000000  0.00000000  0.00000000  1
loop_
_geom_bond_atom_site_label_1
_geom_bond_atom_site_label_2
_geom_bond_distance
_geom_bond_site_symmetry_2
Cs0 O1 3.115276 1_455
Cs0 O1 3.115279 1_555
Cs0 O1 3.115313 1_445
Cs0 O1 3.115316 1_545
Cs0 O3 3.187996 1_566
Cs0 O2 3.188044 1_556
Cs0 O2 3.188044 1_656
Cs0 O3 3.188094 1_556
Cs0 O0 3.225728 1_555
Cs1 O0 3.115276 1_655
Cs1 O0 3.115279 1_555
Cs1 O0 3.115313 1_665
Cs1 O0 3.115316 1_565
Cs1 O3 3.187996 1_555
Cs1 O2 3.188044 1_655
Cs1 O2 3.188044 1_555
Cs1 O3 3.188094 1_565
Cs1 O1 3.225728 1_555
Np0 O1 1.906684 1_444
Np0 O0 1.906684 1_555
Np0 O3 2.183055 1_455
Np0 O3 2.183055 1_555
Np0 O2 2.183057 1_555
Np0 O2 2.183057 1_545
