# generated using pymatgen
data_RbMg6Al
_symmetry_space_group_name_H-M   'P 1'
_cell_length_a   5.13536800
_cell_length_b   7.06712300
_cell_length_c   12.09744300
_cell_angle_alpha   90.00000000
_cell_angle_beta   90.00000000
_cell_angle_gamma   90.00000000
_symmetry_Int_Tables_number   1
_chemical_formula_structural   RbMg6Al
_chemical_formula_sum   'Rb2 Mg12 Al2'
_cell_volume   439.04375605
_cell_formula_units_Z   2
loop_
 _symmetry_equiv_pos_site_id
 _symmetry_equiv_pos_as_xyz
  1  'x, y, z'
loop_
 _atom_site_type_symbol
 _atom_site_label
 _atom_site_symmetry_multiplicity
 _atom_site_fract_x
 _atom_site_fract_y
 _atom_site_fract_z
 _atom_site_occupancy
  Rb  Rb0  1  0.50000000  0.50000000  0.16606000  1
  Rb  Rb1  1  0.50000000  0.00000000  0.66606000  1
  Mg  Mg0  1  0.00000000  0.21480800  0.07027100  1
  Mg  Mg1  1  0.00000000  0.78519200  0.07027100  1
  Mg  Mg2  1  0.00000000  0.50000000  0.83361200  1
  Mg  Mg3  1  0.50000000  0.23283000  0.91668300  1
  Mg  Mg4  1  0.50000000  0.76717000  0.91668300  1
  Mg  Mg5  1  0.50000000  0.50000000  0.66376800  1
  Mg  Mg6  1  0.00000000  0.71480800  0.57027100  1
  Mg  Mg7  1  0.00000000  0.28519200  0.57027100  1
  Mg  Mg8  1  0.00000000  0.00000000  0.33361200  1
  Mg  Mg9  1  0.50000000  0.73283000  0.41668300  1
  Mg  Mg10  1  0.50000000  0.26717000  0.41668300  1
  Mg  Mg11  1  0.50000000  0.00000000  0.16376800  1
  Al  Al0  1  0.00000000  0.50000000  0.36265300  1
  Al  Al1  1  0.00000000  0.00000000  0.86265300  1
loop_
_geom_bond_atom_site_label_1
_geom_bond_atom_site_label_2
_geom_bond_distance
_geom_bond_site_symmetry_2
Mg0 Mg3 3.171982 1_554
Mg0 Mg3 3.171982 1_454
Mg0 Mg11 3.190122 1_455
Mg0 Mg11 3.190122 1_555
Mg0 Rb0 3.463814 1_455
Mg0 Rb0 3.463814 1_555
Mg0 Mg2 3.501254 1_554
Mg0 Mg8 3.528962 1_555
Mg1 Mg4 3.171982 1_554
Mg1 Mg4 3.171982 1_454
Mg1 Mg11 3.190122 1_465
Mg1 Mg11 3.190122 1_565
Mg1 Rb0 3.463814 1_455
Mg1 Rb0 3.463814 1_555
Mg1 Mg2 3.501254 1_554
Mg1 Mg8 3.528962 1_565
Mg2 Mg5 3.288572 1_555
Mg2 Mg5 3.288572 1_455
Mg2 Mg3 3.341845 1_455
Mg2 Mg4 3.341845 1_455
Mg2 Mg3 3.341845 1_555
Mg2 Mg4 3.341845 1_555
Mg2 Mg7 3.528962 1_555
Mg2 Mg6 3.528962 1_555
Mg3 Mg4 3.290876 1_545
Mg3 Rb1 3.449619 1_555
Mg3 Rb0 3.558966 1_556
Mg4 Rb1 3.449619 1_565
Mg4 Rb0 3.558966 1_556
Mg5 Mg6 3.190122 1_655
Mg5 Mg7 3.190122 1_555
Mg5 Mg7 3.190122 1_655
Mg5 Mg6 3.190122 1_555
Mg5 Mg9 3.412062 1_555
Mg5 Rb1 3.533670 1_555
Mg5 Rb1 3.533670 1_565
Mg6 Mg9 3.171982 1_555
Mg6 Mg9 3.171982 1_455
Mg6 Rb1 3.463814 1_565
Mg6 Rb1 3.463814 1_465
Mg6 Mg8 3.501254 1_565
Mg7 Rb1 3.463814 1_555
Mg7 Rb1 3.463814 1_455
Mg7 Mg8 3.501254 1_555
Mg8 Mg9 3.341845 1_445
Mg8 Mg9 3.341845 1_545
Mg9 Rb0 3.449619 1_555
Mg9 Rb1 3.558966 1_565
Mg10 Mg7 3.171982 1_555
Mg10 Mg7 3.171982 1_655
Mg10 Mg9 3.290876 1_555
Mg10 Mg8 3.341845 1_655
Mg10 Mg8 3.341845 1_555
Mg10 Mg5 3.412062 1_555
Mg10 Rb0 3.449619 1_555
Mg10 Rb1 3.558966 1_555
Mg11 Mg8 3.288572 1_555
Mg11 Mg8 3.288572 1_655
Mg11 Mg4 3.412062 1_544
Mg11 Mg3 3.412062 1_554
Mg11 Rb0 3.533670 1_545
Mg11 Rb0 3.533670 1_555
Al0 Mg6 2.934778 1_555
Al0 Mg7 2.934778 1_555
Al0 Mg9 3.118925 1_455
Al0 Mg9 3.118925 1_555
Al0 Mg10 3.118925 1_555
Al0 Mg10 3.118925 1_455
Al0 Rb0 3.499883 1_455
Al0 Rb0 3.499883 1_555
Al1 Mg0 2.934778 1_556
Al1 Mg1 2.934778 1_546
Al1 Mg3 3.118925 1_455
Al1 Mg4 3.118925 1_445
Al1 Mg3 3.118925 1_555
Al1 Mg4 3.118925 1_545
Al1 Rb1 3.499883 1_555
Al1 Rb1 3.499883 1_455
