# generated using pymatgen
data_Ca(Sb3Os)4
_symmetry_space_group_name_H-M   'P 1'
_cell_length_a   8.17494899
_cell_length_b   8.17494899
_cell_length_c   8.17494899
_cell_angle_alpha   109.47122063
_cell_angle_beta   109.47122063
_cell_angle_gamma   109.47122063
_symmetry_Int_Tables_number   1
_chemical_formula_structural   Ca(Sb3Os)4
_chemical_formula_sum   'Ca1 Sb12 Os4'
_cell_volume   420.56513197
_cell_formula_units_Z   1
loop_
 _symmetry_equiv_pos_site_id
 _symmetry_equiv_pos_as_xyz
  1  'x, y, z'
loop_
 _atom_site_type_symbol
 _atom_site_label
 _atom_site_symmetry_multiplicity
 _atom_site_fract_x
 _atom_site_fract_y
 _atom_site_fract_z
 _atom_site_occupancy
  Ca  Ca0  1  0.00000000  0.00000000  0.00000000  1
  Sb  Sb0  1  0.84336700  0.66159200  0.50495900  1
  Sb  Sb1  1  0.15663300  0.33840800  0.49504100  1
  Sb  Sb2  1  0.15663300  0.66159200  0.81822500  1
  Sb  Sb3  1  0.84336700  0.33840800  0.18177500  1
  Sb  Sb4  1  0.66159200  0.50495900  0.84336700  1
  Sb  Sb5  1  0.33840800  0.49504100  0.15663300  1
  Sb  Sb6  1  0.66159200  0.81822500  0.15663300  1
  Sb  Sb7  1  0.33840800  0.18177500  0.84336700  1
  Sb  Sb8  1  0.50495900  0.84336700  0.66159200  1
  Sb  Sb9  1  0.49504100  0.15663300  0.33840800  1
  Sb  Sb10  1  0.18177500  0.84336700  0.33840800  1
  Sb  Sb11  1  0.81822500  0.15663300  0.66159200  1
  Os  Os0  1  0.50000000  0.50000000  0.50000000  1
  Os  Os1  1  0.50000000  0.00000000  0.00000000  1
  Os  Os2  1  0.00000000  0.50000000  0.00000000  1
  Os  Os3  1  0.00000000  0.00000000  0.50000000  1
loop_
_geom_bond_atom_site_label_1
_geom_bond_atom_site_label_2
_geom_bond_distance
_geom_bond_site_symmetry_2
Ca0 Sb9 3.520027 1_555
Ca0 Sb1 3.520027 1_555
Ca0 Sb5 3.520027 1_555
Ca0 Sb6 3.520027 1_445
Ca0 Sb3 3.520027 1_455
Ca0 Sb7 3.520027 1_554
Ca0 Sb10 3.520027 1_545
Ca0 Sb2 3.520027 1_544
Ca0 Sb11 3.520027 1_454
Ca0 Sb4 3.520027 1_444
Ca0 Sb0 3.520027 1_444
Ca0 Sb8 3.520027 1_444
Sb0 Sb2 2.957111 1_655
Sb0 Sb3 3.050734 1_555
Sb1 Sb3 2.957111 1_455
Sb1 Sb2 3.050734 1_555
Sb4 Sb6 2.957111 1_556
Sb4 Sb7 3.050734 1_555
Sb5 Sb7 2.957111 1_554
Sb5 Sb6 3.050734 1_555
Sb10 Sb9 2.957111 1_565
Sb10 Sb8 3.050734 1_555
Sb11 Sb8 2.957111 1_545
Sb11 Sb9 3.050734 1_555
Os0 Sb1 2.653748 1_555
Os0 Sb5 2.653748 1_555
Os0 Sb9 2.653748 1_555
Os0 Sb0 2.653748 1_555
Os0 Sb4 2.653748 1_555
Os0 Sb8 2.653748 1_555
Os1 Sb8 2.653748 1_544
Os1 Sb6 2.653748 1_545
Os1 Sb7 2.653748 1_554
Os1 Sb3 2.653748 1_555
Os1 Sb2 2.653748 1_544
Os1 Sb9 2.653748 1_555
Os2 Sb4 2.653748 1_454
Os2 Sb11 2.653748 1_454
Os2 Sb3 2.653748 1_455
Os2 Sb2 2.653748 1_554
Os2 Sb10 2.653748 1_555
Os2 Sb5 2.653748 1_555
Os3 Sb0 2.653748 1_445
Os3 Sb7 2.653748 1_555
Os3 Sb6 2.653748 1_445
Os3 Sb10 2.653748 1_545
Os3 Sb11 2.653748 1_455
Os3 Sb1 2.653748 1_555
