# generated using pymatgen
data_Ca4Mn3AlO10
_symmetry_space_group_name_H-M   'P 1'
_cell_length_a   7.94919861
_cell_length_b   7.55016300
_cell_length_c   7.60501582
_cell_angle_alpha   90.00000000
_cell_angle_beta   92.03821266
_cell_angle_gamma   90.00000000
_symmetry_Int_Tables_number   1
_chemical_formula_structural   Ca4Mn3AlO10
_chemical_formula_sum   'Ca8 Mn6 Al2 O20'
_cell_volume   456.14712809
_cell_formula_units_Z   2
loop_
 _symmetry_equiv_pos_site_id
 _symmetry_equiv_pos_as_xyz
  1  'x, y, z'
loop_
 _atom_site_type_symbol
 _atom_site_label
 _atom_site_symmetry_multiplicity
 _atom_site_fract_x
 _atom_site_fract_y
 _atom_site_fract_z
 _atom_site_occupancy
  Ca  Ca0  1  0.29358200  0.25780300  0.22143900  1
  Ca  Ca1  1  0.22959500  0.26610100  0.74047700  1
  Ca  Ca2  1  0.29358200  0.74219700  0.22143900  1
  Ca  Ca3  1  0.22959500  0.73389900  0.74047700  1
  Ca  Ca4  1  0.74261700  0.26942300  0.26431900  1
  Ca  Ca5  1  0.77742900  0.26483400  0.72600000  1
  Ca  Ca6  1  0.74261700  0.73057700  0.26431900  1
  Ca  Ca7  1  0.77742900  0.73516600  0.72600000  1
  Mn  Mn0  1  0.99595100  0.50000000  0.97703100  1
  Mn  Mn1  1  0.99785200  0.50000000  0.47373700  1
  Mn  Mn2  1  0.55081800  0.00000000  0.99843100  1
  Mn  Mn3  1  0.49025300  0.00000000  0.53250100  1
  Mn  Mn4  1  0.49737000  0.50000000  0.98185300  1
  Mn  Mn5  1  0.49882700  0.50000000  0.49088600  1
  Al  Al0  1  0.98726500  0.00000000  0.03952900  1
  Al  Al1  1  0.05090200  0.00000000  0.45125000  1
  O  O0  1  0.95140700  0.50000000  0.22346300  1
  O  O1  1  0.02409500  0.50000000  0.72382700  1
  O  O2  1  0.48177200  0.00000000  0.25745800  1
  O  O3  1  0.63359000  0.00000000  0.75987100  1
  O  O4  1  0.52325300  0.50000000  0.23893400  1
  O  O5  1  0.12587000  0.00000000  0.23138900  1
  O  O6  1  0.23526100  0.00000000  0.59340300  1
  O  O7  1  0.25254800  0.50000000  0.99720800  1
  O  O8  1  0.25123200  0.50000000  0.46525500  1
  O  O9  1  0.78465000  0.00000000  0.12434800  1
  O  O10  1  0.73274800  0.50000000  0.92899500  1
  O  O11  1  0.74054800  0.50000000  0.51083500  1
  O  O12  1  0.01794000  0.20216300  0.92938400  1
  O  O13  1  0.94390400  0.20128000  0.48495000  1
  O  O14  1  0.01794000  0.79783700  0.92938400  1
  O  O15  1  0.94390400  0.79872000  0.48495000  1
  O  O16  1  0.46656700  0.24250000  0.96914500  1
  O  O17  1  0.50025900  0.25352900  0.53918700  1
  O  O18  1  0.46656700  0.75750000  0.96914500  1
  O  O19  1  0.50025900  0.74647100  0.53918700  1
loop_
_geom_bond_atom_site_label_1
_geom_bond_atom_site_label_2
_geom_bond_distance
_geom_bond_site_symmetry_2
Ca0 O5 2.361979 1_555
Ca0 O16 2.402772 1_554
Ca0 O2 2.464238 1_555
Ca0 O7 2.513700 1_554
Ca0 O4 2.584082 1_555
Ca0 O8 2.634342 1_555
Ca1 O6 2.300687 1_555
Ca1 O12 2.302103 1_555
Ca1 O1 2.405932 1_555
Ca1 O16 2.524164 1_555
Ca1 O7 2.634133 1_555
Ca1 O17 2.686243 1_555
Ca1 O8 2.748598 1_555
Ca1 O13 2.976486 1_455
Ca2 O5 2.361979 1_565
Ca2 O18 2.402772 1_554
Ca2 O2 2.464238 1_565
Ca2 O7 2.513700 1_554
Ca2 O4 2.584082 1_555
Ca2 O8 2.634342 1_555
Ca3 O6 2.300687 1_565
Ca3 O14 2.302103 1_555
Ca3 O1 2.405932 1_555
Ca3 O18 2.524164 1_555
Ca3 O7 2.634133 1_555
Ca3 O19 2.686243 1_555
Ca3 O8 2.748598 1_555
Ca3 O15 2.976486 1_455
Ca4 O9 2.325507 1_555
Ca4 O13 2.334376 1_555
Ca4 O0 2.432814 1_555
Ca4 O4 2.466731 1_555
Ca4 O11 2.558885 1_555
Ca4 O17 2.895192 1_555
Ca4 O2 2.903857 1_555
Ca4 O10 3.086401 1_554
Ca4 O16 3.089556 1_554
Ca5 O3 2.322248 1_555
Ca5 O13 2.348325 1_555
Ca5 O10 2.387668 1_555
Ca5 O11 2.425276 1_555
Ca5 O12 2.461949 1_655
Ca5 O17 2.580213 1_555
Ca5 O1 2.645723 1_655
Ca6 O9 2.325507 1_565
Ca6 O15 2.334376 1_555
Ca6 O0 2.432814 1_555
Ca6 O4 2.466731 1_555
Ca6 O11 2.558885 1_555
Ca6 O19 2.895192 1_555
Ca6 O2 2.903857 1_565
Ca6 O10 3.086401 1_554
Ca6 O18 3.089556 1_554
Ca7 O3 2.322248 1_565
Ca7 O15 2.348325 1_555
Ca7 O10 2.387668 1_555
Ca7 O11 2.425276 1_555
Ca7 O14 2.461949 1_655
Ca7 O19 2.580213 1_555
Ca7 O1 2.645723 1_655
Mn0 O0 1.919611 1_556
Mn0 O1 1.946461 1_655
Mn0 O7 2.040055 1_655
Mn0 O10 2.111068 1_555
Mn0 O14 2.285409 1_655
Mn0 O12 2.285409 1_655
Mn1 O1 1.905955 1_655
Mn1 O0 1.925881 1_555
Mn1 O8 2.017492 1_655
Mn1 O11 2.074643 1_555
Mn1 O15 2.297943 1_555
Mn1 O13 2.297943 1_555
Mn2 O3 1.951756 1_555
Mn2 O16 1.959535 1_555
Mn2 O18 1.959535 1_545
Mn2 O9 2.060446 1_556
Mn2 O2 2.063657 1_556
Mn3 O19 1.916437 1_545
Mn3 O17 1.916437 1_555
Mn3 O3 2.036685 1_555
Mn3 O2 2.090395 1_555
Mn3 O6 2.095222 1_555
Mn4 O10 1.927689 1_555
Mn4 O7 1.953780 1_555
Mn4 O4 1.958610 1_556
Mn4 O18 1.961479 1_555
Mn4 O16 1.961479 1_555
Mn5 O19 1.896760 1_555
Mn5 O17 1.896760 1_555
Mn5 O11 1.922082 1_555
Mn5 O4 1.932770 1_555
Mn5 O8 1.970900 1_555
Al0 O9 1.756163 1_555
Al0 O14 1.762225 1_644
Al0 O12 1.762225 1_654
Al0 O5 1.796823 1_655
Al1 O13 1.764681 1_455
Al1 O15 1.764681 1_445
Al1 O6 1.789899 1_555
Al1 O5 1.794925 1_555
