# generated using pymatgen
data_CaBi3P3O13
_symmetry_space_group_name_H-M   'P 1'
_cell_length_a   7.13093900
_cell_length_b   8.47222500
_cell_length_c   11.11193413
_cell_angle_alpha   79.99474906
_cell_angle_beta   90.00000000
_cell_angle_gamma   90.00000000
_symmetry_Int_Tables_number   1
_chemical_formula_structural   CaBi3P3O13
_chemical_formula_sum   'Ca2 Bi6 P6 O26'
_cell_volume   661.11696188
_cell_formula_units_Z   2
loop_
 _symmetry_equiv_pos_site_id
 _symmetry_equiv_pos_as_xyz
  1  'x, y, z'
loop_
 _atom_site_type_symbol
 _atom_site_label
 _atom_site_symmetry_multiplicity
 _atom_site_fract_x
 _atom_site_fract_y
 _atom_site_fract_z
 _atom_site_occupancy
  Ca  Ca0  1  0.75000000  0.38166500  0.18228000  1
  Ca  Ca1  1  0.25000000  0.61833500  0.81772000  1
  Bi  Bi0  1  0.25000000  0.64276200  0.22241700  1
  Bi  Bi1  1  0.75000000  0.35723800  0.77758300  1
  Bi  Bi2  1  0.25000000  0.20266100  0.44035500  1
  Bi  Bi3  1  0.50000000  0.00000000  0.00000000  1
  Bi  Bi4  1  0.75000000  0.79733900  0.55964500  1
  Bi  Bi5  1  0.00000000  0.00000000  0.00000000  1
  P  P0  1  0.25000000  0.77639300  0.51477900  1
  P  P1  1  0.75000000  0.22360700  0.48522100  1
  P  P2  1  0.25000000  0.27208800  0.76576200  1
  P  P3  1  0.75000000  0.72791200  0.23423800  1
  P  P4  1  0.75000000  0.67774500  0.89090900  1
  P  P5  1  0.25000000  0.32225500  0.10909100  1
  O  O0  1  0.75000000  0.65035500  0.75371900  1
  O  O1  1  0.57757800  0.24484300  0.39699700  1
  O  O2  1  0.25000000  0.21818300  0.64172600  1
  O  O3  1  0.56460200  0.76862900  0.90780900  1
  O  O4  1  0.75000000  0.34939600  0.57048500  1
  O  O5  1  0.75000000  0.12596700  0.89706300  1
  O  O6  1  0.25000000  0.65060400  0.42951500  1
  O  O7  1  0.06460200  0.23137100  0.09219100  1
  O  O8  1  0.25000000  0.94542900  0.43034600  1
  O  O9  1  0.75000000  0.05457100  0.56965400  1
  O  O10  1  0.08065100  0.38093900  0.78476000  1
  O  O11  1  0.25000000  0.87403300  0.10293700  1
  O  O12  1  0.58065100  0.61906100  0.21524000  1
  O  O13  1  0.75000000  0.50583700  0.96745000  1
  O  O14  1  0.75000000  0.78181700  0.35827400  1
  O  O15  1  0.43539800  0.23137100  0.09219100  1
  O  O16  1  0.92242200  0.24484300  0.39699700  1
  O  O17  1  0.42242200  0.75515700  0.60300300  1
  O  O18  1  0.41934900  0.38093900  0.78476000  1
  O  O19  1  0.25000000  0.34964500  0.24628100  1
  O  O20  1  0.75000000  0.88526400  0.13519800  1
  O  O21  1  0.25000000  0.11473600  0.86480200  1
  O  O22  1  0.91934900  0.61906100  0.21524000  1
  O  O23  1  0.93539800  0.76862900  0.90780900  1
  O  O24  1  0.07757800  0.75515700  0.60300300  1
  O  O25  1  0.25000000  0.49416300  0.03255000  1
loop_
_geom_bond_atom_site_label_1
_geom_bond_atom_site_label_2
_geom_bond_distance
_geom_bond_site_symmetry_2
Ca0 O12 2.427685 1_555
Ca0 O22 2.427685 1_555
Ca0 O13 2.435716 1_554
Ca0 O16 2.754461 1_555
Ca0 O1 2.754461 1_555
Ca0 O15 2.845924 1_555
Ca0 O7 2.845924 1_655
Ca1 O18 2.427685 1_555
Ca1 O10 2.427685 1_555
Ca1 O25 2.435716 1_556
Ca1 O17 2.754461 1_555
Ca1 O24 2.754461 1_555
Ca1 O3 2.845924 1_555
Ca1 O23 2.845924 1_455
Bi0 O11 2.167468 1_555
Bi0 O6 2.313728 1_555
Bi0 O12 2.368905 1_555
Bi0 O22 2.368905 1_455
Bi0 O19 2.451232 1_555
Bi0 O25 2.638021 1_555
Bi1 O5 2.167468 1_555
Bi1 O4 2.313728 1_555
Bi1 O18 2.368905 1_555
Bi1 O10 2.368905 1_655
Bi1 O0 2.451232 1_555
Bi1 O13 2.638021 1_555
Bi2 O8 2.201377 1_545
Bi2 O2 2.264176 1_555
Bi2 O19 2.295263 1_555
Bi2 O16 2.399296 1_455
Bi2 O1 2.399296 1_555
Bi3 O5 2.280631 1_554
Bi3 O11 2.280631 1_545
Bi3 O3 2.408716 1_544
Bi3 O15 2.408716 1_555
Bi3 O21 2.423337 1_554
Bi3 O20 2.423337 1_545
Bi4 O9 2.201377 1_565
Bi4 O14 2.264176 1_555
Bi4 O0 2.295263 1_555
Bi4 O17 2.399296 1_555
Bi4 O24 2.399296 1_655
Bi5 O5 2.280631 1_454
Bi5 O11 2.280631 1_545
Bi5 O23 2.408716 1_444
Bi5 O7 2.408716 1_555
Bi5 O21 2.423337 1_554
Bi5 O20 2.423337 1_445
O0 P4 1.581362 1_555
O1 P1 1.563296 1_555
O2 P2 1.525433 1_555
O3 P4 1.557640 1_555
O4 P1 1.544102 1_555
O6 P0 1.544102 1_555
O7 P5 1.557640 1_555
O8 P0 1.569812 1_555
O9 P1 1.569812 1_555
O10 P2 1.555964 1_555
O12 P3 1.555964 1_555
O13 P4 1.553763 1_555
O14 P3 1.525433 1_555
O15 P5 1.557640 1_555
O16 P1 1.563296 1_555
O17 P0 1.563296 1_555
O18 P2 1.555964 1_555
O19 P5 1.581362 1_555
O20 P3 1.574349 1_555
O21 P2 1.574349 1_555
O22 P3 1.555964 1_555
O23 P4 1.557640 1_555
O24 P0 1.563296 1_555
O25 P5 1.553763 1_555
