# generated using pymatgen
data_Sr3FeRuO7
_symmetry_space_group_name_H-M   'P 1'
_cell_length_a   10.95442378
_cell_length_b   10.95442378
_cell_length_c   10.95442378
_cell_angle_alpha   159.51488246
_cell_angle_beta   159.51488246
_cell_angle_gamma   29.12896564
_symmetry_Int_Tables_number   1
_chemical_formula_structural   Sr3FeRuO7
_chemical_formula_sum   'Sr3 Fe1 Ru1 O7'
_cell_volume   160.91032570
_cell_formula_units_Z   1
loop_
 _symmetry_equiv_pos_site_id
 _symmetry_equiv_pos_as_xyz
  1  'x, y, z'
loop_
 _atom_site_type_symbol
 _atom_site_label
 _atom_site_symmetry_multiplicity
 _atom_site_fract_x
 _atom_site_fract_y
 _atom_site_fract_z
 _atom_site_occupancy
  Sr  Sr0  1  0.68896700  0.68896700  0.00000000  1
  Sr  Sr1  1  0.31703300  0.31703300  0.00000000  1
  Sr  Sr2  1  0.48897600  0.48897600  0.00000000  1
  Fe  Fe0  1  0.89768200  0.89768200  0.00000000  1
  Ru  Ru0  1  0.09695900  0.09695900  0.00000000  1
  O  O0  1  0.90529900  0.40529900  0.50000000  1
  O  O1  1  0.40529900  0.90529900  0.50000000  1
  O  O2  1  0.09875600  0.59875600  0.50000000  1
  O  O3  1  0.59875600  0.09875600  0.50000000  1
  O  O4  1  0.80298700  0.80298700  0.00000000  1
  O  O5  1  0.19520600  0.19520600  0.00000000  1
  O  O6  1  0.00408000  0.00408000  0.00000000  1
loop_
_geom_bond_atom_site_label_1
_geom_bond_atom_site_label_2
_geom_bond_distance
_geom_bond_site_symmetry_2
Fe0 O0 1.954554 1_565
Fe0 O1 1.954554 1_655
Fe0 O1 1.954554 1_554
Fe0 O0 1.954554 1_554
Fe0 O4 2.007990 1_555
Fe0 O6 2.256150 1_665
O0 Sr2 2.634868 1_656
O0 Sr2 2.634868 1_555
O0 Sr1 2.701355 1_656
O0 Sr1 2.701355 1_555
O1 Sr2 2.634868 1_566
O1 Sr2 2.634868 1_555
O1 Sr1 2.701355 1_566
O1 Sr1 2.701355 1_555
O2 Ru0 1.948242 1_555
O2 Ru0 1.948242 1_566
O2 Sr0 2.730093 1_455
O2 Sr0 2.730093 1_556
O2 Sr2 3.035316 1_556
O2 Sr2 3.035316 1_455
O3 Ru0 1.948242 1_555
O3 Ru0 1.948242 1_656
O3 Sr0 2.730093 1_545
O3 Sr0 2.730093 1_556
O3 Sr2 3.035316 1_556
O3 Sr2 3.035316 1_545
O4 Sr0 2.417773 1_555
O4 Sr1 2.770758 1_655
O4 Sr1 2.770758 1_565
O4 Sr1 2.770758 1_554
O4 Sr1 2.770758 1_666
O5 Ru0 2.083309 1_555
O5 Sr1 2.583319 1_555
O5 Sr0 2.757878 1_545
O5 Sr0 2.757878 1_455
O5 Sr0 2.757878 1_556
O5 Sr0 2.757878 1_444
O6 Ru0 1.969482 1_555
O6 Sr2 2.773259 1_455
O6 Sr2 2.773259 1_556
O6 Sr2 2.773259 1_444
O6 Sr2 2.773259 1_545
