# generated using pymatgen
data_LiMg6Al
_symmetry_space_group_name_H-M   'P 1'
_cell_length_a   5.04970000
_cell_length_b   6.27326800
_cell_length_c   10.84063700
_cell_angle_alpha   90.00000000
_cell_angle_beta   90.00000000
_cell_angle_gamma   90.00000000
_symmetry_Int_Tables_number   1
_chemical_formula_structural   LiMg6Al
_chemical_formula_sum   'Li2 Mg12 Al2'
_cell_volume   343.41101515
_cell_formula_units_Z   2
loop_
 _symmetry_equiv_pos_site_id
 _symmetry_equiv_pos_as_xyz
  1  'x, y, z'
loop_
 _atom_site_type_symbol
 _atom_site_label
 _atom_site_symmetry_multiplicity
 _atom_site_fract_x
 _atom_site_fract_y
 _atom_site_fract_z
 _atom_site_occupancy
  Li  Li0  1  0.50000000  0.50000000  0.16901100  1
  Li  Li1  1  0.50000000  0.00000000  0.66901100  1
  Mg  Mg0  1  0.00000000  0.25202300  0.08491100  1
  Mg  Mg1  1  0.00000000  0.74797700  0.08491100  1
  Mg  Mg2  1  0.00000000  0.50000000  0.83279400  1
  Mg  Mg3  1  0.50000000  0.24549500  0.91496600  1
  Mg  Mg4  1  0.50000000  0.75450500  0.91496600  1
  Mg  Mg5  1  0.50000000  0.50000000  0.66627300  1
  Mg  Mg6  1  0.00000000  0.75202300  0.58491100  1
  Mg  Mg7  1  0.00000000  0.24797700  0.58491100  1
  Mg  Mg8  1  0.00000000  0.00000000  0.33279400  1
  Mg  Mg9  1  0.50000000  0.74549500  0.41496600  1
  Mg  Mg10  1  0.50000000  0.25450500  0.41496600  1
  Mg  Mg11  1  0.50000000  0.00000000  0.16627300  1
  Al  Al0  1  0.00000000  0.50000000  0.33216800  1
  Al  Al1  1  0.00000000  0.00000000  0.83216800  1
loop_
_geom_bond_atom_site_label_1
_geom_bond_atom_site_label_2
_geom_bond_distance
_geom_bond_site_symmetry_2
Li0 Mg9 3.079119 1_555
Li0 Mg10 3.079119 1_555
Li0 Mg0 3.102585 1_555
Li0 Mg1 3.102585 1_655
Li0 Mg0 3.102585 1_655
Li0 Mg1 3.102585 1_555
Li0 Mg11 3.136774 1_565
Li0 Mg11 3.136774 1_555
Li0 Mg4 3.183336 1_554
Li0 Mg3 3.183336 1_554
Li1 Mg3 3.079119 1_555
Li1 Mg4 3.079119 1_545
Li1 Mg7 3.102585 1_555
Li1 Mg7 3.102585 1_655
Li1 Mg6 3.102585 1_545
Li1 Mg6 3.102585 1_645
Li1 Mg5 3.136774 1_555
Li1 Mg5 3.136774 1_545
Li1 Mg9 3.183336 1_545
Li1 Mg10 3.183336 1_555
Mg0 Mg11 3.106832 1_455
Mg0 Mg11 3.106832 1_555
Mg0 Mg1 3.111252 1_555
Mg0 Mg8 3.117801 1_555
Mg0 Mg3 3.125805 1_454
Mg0 Mg3 3.125805 1_554
Mg0 Mg2 3.144814 1_554
Mg0 Mg1 3.162016 1_545
Mg1 Mg11 3.106832 1_565
Mg1 Mg11 3.106832 1_465
Mg1 Mg8 3.117801 1_565
Mg1 Mg4 3.125805 1_454
Mg1 Mg4 3.125805 1_554
Mg1 Mg2 3.144814 1_554
Mg2 Mg5 3.103803 1_455
Mg2 Mg5 3.103803 1_555
Mg2 Mg3 3.117282 1_455
Mg2 Mg4 3.117282 1_455
Mg2 Mg4 3.117282 1_555
Mg2 Mg3 3.117282 1_555
Mg2 Mg6 3.117801 1_555
Mg2 Mg7 3.117801 1_555
Mg3 Mg4 3.080112 1_545
Mg3 Mg5 3.133277 1_555
Mg3 Mg4 3.193156 1_555
Mg4 Mg5 3.133277 1_555
Mg5 Mg6 3.106832 1_555
Mg5 Mg6 3.106832 1_655
Mg5 Mg7 3.106832 1_655
Mg5 Mg7 3.106832 1_555
Mg5 Mg9 3.129494 1_555
Mg6 Mg7 3.111252 1_565
Mg6 Mg9 3.125805 1_455
Mg6 Mg9 3.125805 1_555
Mg6 Mg8 3.144814 1_565
Mg6 Mg7 3.162016 1_555
Mg7 Mg8 3.144814 1_555
Mg8 Mg9 3.117282 1_445
Mg8 Mg9 3.117282 1_545
Mg10 Mg9 3.080112 1_555
Mg10 Mg8 3.117282 1_555
Mg10 Mg8 3.117282 1_655
Mg10 Mg7 3.125805 1_655
Mg10 Mg7 3.125805 1_555
Mg10 Mg5 3.129494 1_555
Mg10 Mg11 3.133277 1_555
Mg10 Mg9 3.193156 1_545
Mg11 Mg8 3.103803 1_655
Mg11 Mg8 3.103803 1_555
Mg11 Mg3 3.129494 1_554
Mg11 Mg4 3.129494 1_544
Mg11 Mg9 3.133277 1_545
Al0 Li0 3.082736 1_555
Al0 Li0 3.082736 1_455
Al0 Mg9 3.090679 1_555
Al0 Mg10 3.090679 1_455
Al0 Mg10 3.090679 1_555
Al0 Mg9 3.090679 1_455
Al0 Mg0 3.099136 1_555
Al0 Mg1 3.099136 1_555
Al0 Mg8 3.136641 1_565
Al0 Mg8 3.136641 1_555
Al0 Mg6 3.163323 1_555
Al0 Mg7 3.163323 1_555
Al1 Li1 3.082736 1_455
Al1 Li1 3.082736 1_555
Al1 Mg3 3.090679 1_455
Al1 Mg4 3.090679 1_445
Al1 Mg3 3.090679 1_555
Al1 Mg4 3.090679 1_545
Al1 Mg7 3.099136 1_555
Al1 Mg6 3.099136 1_545
Al1 Mg2 3.136641 1_555
Al1 Mg2 3.136641 1_545
Al1 Mg0 3.163323 1_556
Al1 Mg1 3.163323 1_546
