# generated using pymatgen
data_Mg2Si3
_symmetry_space_group_name_H-M   'P 1'
_cell_length_a   3.95522400
_cell_length_b   5.87568081
_cell_length_c   16.42587660
_cell_angle_alpha   94.81267352
_cell_angle_beta   94.35922214
_cell_angle_gamma   97.50287941
_symmetry_Int_Tables_number   1
_chemical_formula_structural   Mg2Si3
_chemical_formula_sum   'Mg8 Si12'
_cell_volume   375.66480806
_cell_formula_units_Z   4
loop_
 _symmetry_equiv_pos_site_id
 _symmetry_equiv_pos_as_xyz
  1  'x, y, z'
loop_
 _atom_site_type_symbol
 _atom_site_label
 _atom_site_symmetry_multiplicity
 _atom_site_fract_x
 _atom_site_fract_y
 _atom_site_fract_z
 _atom_site_occupancy
  Mg  Mg0  1  0.41630300  0.95941400  0.77041100  1
  Mg  Mg1  1  0.55246000  0.00560300  0.22012500  1
  Mg  Mg2  1  0.96908600  0.97257900  0.94395600  1
  Mg  Mg3  1  0.41531100  0.69335200  0.05665100  1
  Mg  Mg4  1  0.52503000  0.49604300  0.27893400  1
  Mg  Mg5  1  0.62274800  0.49752600  0.72868300  1
  Mg  Mg6  1  0.65055900  0.81384300  0.44531100  1
  Mg  Mg7  1  0.11523200  0.52857600  0.55031500  1
  Si  Si0  1  0.81328000  0.46815100  0.95009000  1
  Si  Si1  1  0.52525000  0.20689800  0.05396500  1
  Si  Si2  1  0.34947500  0.62335200  0.87536600  1
  Si  Si3  1  0.05741800  0.27998900  0.14340800  1
  Si  Si4  1  0.10304000  0.80821500  0.32762600  1
  Si  Si5  1  0.04991800  0.19602500  0.66354500  1
  Si  Si6  1  0.56883000  0.30456900  0.44059800  1
  Si  Si7  1  0.51339700  0.15846700  0.57386300  1
  Si  Si8  1  0.03650000  0.20981000  0.35558000  1
  Si  Si9  1  0.73025300  0.82402300  0.62198100  1
  Si  Si10  1  0.00613700  0.26870500  0.82434300  1
  Si  Si11  1  0.97964000  0.68483800  0.17528800  1
loop_
_geom_bond_atom_site_label_1
_geom_bond_atom_site_label_2
_geom_bond_distance
_geom_bond_site_symmetry_2
Mg0 Si10 2.727171 1_565
Mg0 Si2 2.728582 1_555
Mg0 Si5 2.768217 1_565
Mg0 Si10 2.799713 1_665
Mg0 Si9 2.917503 1_555
Mg1 Si11 2.761509 1_445
Mg1 Si11 2.781572 1_545
Mg1 Si4 2.811631 1_545
Mg1 Si3 2.838779 1_655
Mg1 Si8 2.891365 1_655
Mg1 Si3 2.968354 1_555
Mg1 Si1 3.064299 1_555
Mg1 Si4 3.102264 1_645
Mg2 Si10 2.731284 1_665
Mg2 Si1 2.861300 1_666
Mg2 Si2 2.901623 1_655
Mg2 Si0 2.959211 1_555
Mg2 Si1 2.989714 1_566
Mg2 Si0 3.049172 1_565
Mg2 Si2 3.060204 1_555
Mg3 Si11 2.696972 1_455
Mg3 Si0 2.804714 1_554
Mg3 Si11 2.857679 1_555
Mg3 Si0 2.939308 1_454
Mg3 Si1 2.943967 1_555
Mg3 Si2 2.958497 1_554
Mg3 Si1 2.996419 1_565
Mg3 Si3 3.150104 1_555
Mg4 Si4 2.747020 1_555
Mg4 Si4 2.758871 1_655
Mg4 Si11 2.761057 1_555
Mg4 Si8 2.832584 1_555
Mg4 Si3 2.876569 1_555
Mg4 Si6 2.971451 1_555
Mg4 Si11 3.027498 1_455
Mg4 Si8 3.059834 1_655
Mg5 Si10 2.664721 1_655
Mg5 Si9 2.719806 1_555
Mg5 Si5 2.771571 1_555
Mg5 Si2 2.797446 1_555
Mg5 Si5 2.806437 1_655
Mg5 Si7 3.062798 1_555
Mg5 Si10 3.210180 1_555
Mg6 Si4 2.733392 1_655
Mg6 Si4 2.785988 1_555
Mg6 Si9 2.889844 1_555
Mg6 Si7 2.932043 1_565
Mg6 Si6 2.949788 1_565
Mg6 Si6 2.961292 1_555
Mg6 Si8 3.147296 1_665
Mg7 Si9 2.708822 1_455
Mg7 Si5 2.809798 1_555
Mg7 Si6 2.813871 1_455
Mg7 Si7 2.881264 1_555
Mg7 Si9 2.904403 1_555
Mg7 Si6 2.984826 1_555
Mg7 Si7 3.078019 1_455
Si0 Si2 2.446574 1_555
Si0 Si10 2.507642 1_655
Si0 Si1 2.616048 1_556
Si0 Si2 2.629496 1_655
Si1 Si3 2.441567 1_655
Si1 Si3 2.506343 1_555
Si4 Si8 2.418009 1_565
Si5 Si9 2.395605 1_445
Si5 Si7 2.457813 1_555
Si5 Si7 2.463701 1_455
Si6 Si8 2.410326 1_555
Si6 Si7 2.432246 1_555
Si6 Si8 2.492571 1_655
Si7 Si9 2.412398 1_545
Si10 Si2 2.384041 1_555
Si10 Si5 2.662353 1_555
Si11 Si3 2.456409 1_655
Si11 Si4 2.538252 1_655
