# generated using pymatgen
data_Mn3V3(AgO6)2
_symmetry_space_group_name_H-M   'P 1'
_cell_length_a   9.02590276
_cell_length_b   9.02590276
_cell_length_c   6.93180775
_cell_angle_alpha   75.75381636
_cell_angle_beta   75.75381636
_cell_angle_gamma   96.10925261
_symmetry_Int_Tables_number   1
_chemical_formula_structural   Mn3V3(AgO6)2
_chemical_formula_sum   'Mn6 V6 Ag4 O24'
_cell_volume   522.06624302
_cell_formula_units_Z   2
loop_
 _symmetry_equiv_pos_site_id
 _symmetry_equiv_pos_as_xyz
  1  'x, y, z'
loop_
 _atom_site_type_symbol
 _atom_site_label
 _atom_site_symmetry_multiplicity
 _atom_site_fract_x
 _atom_site_fract_y
 _atom_site_fract_z
 _atom_site_occupancy
  Mn  Mn0  1  0.26994000  0.73006000  0.75000000  1
  Mn  Mn1  1  0.73006000  0.26994000  0.25000000  1
  Mn  Mn2  1  0.95268300  0.63055300  0.61735100  1
  Mn  Mn3  1  0.36944700  0.04731700  0.88264900  1
  Mn  Mn4  1  0.04731700  0.36944700  0.38264900  1
  Mn  Mn5  1  0.63055300  0.95268300  0.11735100  1
  V  V0  1  0.29310700  0.70689300  0.25000000  1
  V  V1  1  0.70689300  0.29310700  0.75000000  1
  V  V2  1  0.66081900  0.88390200  0.61862900  1
  V  V3  1  0.11609800  0.33918100  0.88137100  1
  V  V4  1  0.33918100  0.11609800  0.38137100  1
  V  V5  1  0.88390200  0.66081900  0.11862900  1
  Ag  Ag0  1  0.50000000  0.50000000  0.50000000  1
  Ag  Ag1  1  0.50000000  0.50000000  0.00000000  1
  Ag  Ag2  1  0.99302000  0.00698000  0.75000000  1
  Ag  Ag3  1  0.00698000  0.99302000  0.25000000  1
  O  O0  1  0.84794000  0.83726200  0.59839800  1
  O  O1  1  0.16273800  0.15206000  0.90160200  1
  O  O2  1  0.15206000  0.16273800  0.40160200  1
  O  O3  1  0.83726200  0.84794000  0.09839800  1
  O  O4  1  0.01218300  0.66472800  0.87818500  1
  O  O5  1  0.33527200  0.98781700  0.62181500  1
  O  O6  1  0.98781700  0.33527200  0.12181500  1
  O  O7  1  0.66472800  0.01218300  0.37818500  1
  O  O8  1  0.60471100  0.96717100  0.82579000  1
  O  O9  1  0.03282900  0.39528900  0.67421000  1
  O  O10  1  0.39528900  0.03282900  0.17421000  1
  O  O11  1  0.96717100  0.60471100  0.32579000  1
  O  O12  1  0.52228200  0.72117700  0.67363400  1
  O  O13  1  0.27882300  0.47771800  0.82636600  1
  O  O14  1  0.47771800  0.27882300  0.32636600  1
  O  O15  1  0.72117700  0.52228200  0.17363400  1
  O  O16  1  0.18254500  0.73871900  0.48248600  1
  O  O17  1  0.26128100  0.81745500  0.01751400  1
  O  O18  1  0.81745500  0.26128100  0.51751400  1
  O  O19  1  0.73871900  0.18254500  0.98248600  1
  O  O20  1  0.25867900  0.51163000  0.25820100  1
  O  O21  1  0.48837000  0.74132100  0.24179900  1
  O  O22  1  0.74132100  0.48837000  0.74179900  1
  O  O23  1  0.51163000  0.25867900  0.75820100  1
loop_
_geom_bond_atom_site_label_1
_geom_bond_atom_site_label_2
_geom_bond_distance
_geom_bond_site_symmetry_2
Mn0 O16 2.174558 1_555
Mn0 O17 2.174558 1_556
Mn0 O13 2.222730 1_555
Mn0 O12 2.222730 1_555
Mn0 O5 2.232148 1_555
Mn0 O4 2.232148 1_555
Mn1 O18 2.174558 1_555
Mn1 O19 2.174558 1_554
Mn1 O15 2.222730 1_555
Mn1 O14 2.222730 1_555
Mn1 O6 2.232148 1_555
Mn1 O7 2.232148 1_555
Mn2 O22 2.038280 1_555
Mn2 O11 2.065080 1_555
Mn2 O16 2.072822 1_655
Mn2 O4 2.090394 1_655
Mn2 O0 2.169778 1_555
Mn2 O9 2.289787 1_655
Mn3 O23 2.038280 1_555
Mn3 O10 2.065080 1_556
Mn3 O17 2.072822 1_546
Mn3 O5 2.090394 1_545
Mn3 O1 2.169778 1_555
Mn3 O8 2.289787 1_545
Mn4 O20 2.038280 1_555
Mn4 O9 2.065080 1_555
Mn4 O18 2.072822 1_455
Mn4 O6 2.090394 1_455
Mn4 O2 2.169778 1_555
Mn4 O11 2.289787 1_455
Mn5 O21 2.038280 1_555
Mn5 O8 2.065080 1_554
Mn5 O19 2.072822 1_564
Mn5 O7 2.090394 1_565
Mn5 O3 2.169778 1_555
Mn5 O10 2.289787 1_565
Ag0 O21 2.486184 1_555
Ag0 O23 2.486184 1_555
Ag0 O15 2.571298 1_555
Ag0 O13 2.571298 1_555
Ag0 O12 2.586632 1_555
Ag0 O14 2.586632 1_555
Ag1 O22 2.486184 1_554
Ag1 O20 2.486184 1_555
Ag1 O12 2.571298 1_554
Ag1 O14 2.571298 1_555
Ag1 O15 2.586632 1_555
Ag1 O13 2.586632 1_554
Ag2 O2 2.462229 1_655
Ag2 O3 2.462229 1_546
Ag2 O1 2.491644 1_655
Ag2 O0 2.491644 1_545
Ag3 O0 2.462229 1_455
Ag3 O1 2.462229 1_564
Ag3 O2 2.491644 1_565
Ag3 O3 2.491644 1_455
O0 V2 1.764427 1_555
O1 V3 1.764427 1_555
O2 V4 1.764427 1_555
O3 V5 1.764427 1_555
O4 V5 1.769844 1_456
O5 V4 1.769844 1_565
O6 V3 1.769844 1_654
O7 V2 1.769844 1_545
O8 V2 1.771359 1_555
O9 V3 1.771359 1_555
O10 V4 1.771359 1_555
O11 V5 1.771359 1_555
O12 V2 1.721902 1_555
O13 V3 1.721902 1_555
O14 V4 1.721902 1_555
O15 V5 1.721902 1_555
O16 V0 1.781234 1_555
O17 V0 1.781234 1_555
O18 V1 1.781234 1_555
O19 V1 1.781234 1_555
O20 V0 1.741080 1_555
O21 V0 1.741080 1_555
O22 V1 1.741080 1_555
O23 V1 1.741080 1_555
