# generated using pymatgen
data_Yb9(Ni13P6)2
_symmetry_space_group_name_H-M   'P 1'
_cell_length_a   3.75423700
_cell_length_b   14.02399754
_cell_length_c   14.02399754
_cell_angle_alpha   119.99999783
_cell_angle_beta   90.00000000
_cell_angle_gamma   90.00000000
_symmetry_Int_Tables_number   1
_chemical_formula_structural   Yb9(Ni13P6)2
_chemical_formula_sum   'Yb9 Ni26 P12'
_cell_volume   639.43437654
_cell_formula_units_Z   1
loop_
 _symmetry_equiv_pos_site_id
 _symmetry_equiv_pos_as_xyz
  1  'x, y, z'
loop_
 _atom_site_type_symbol
 _atom_site_label
 _atom_site_symmetry_multiplicity
 _atom_site_fract_x
 _atom_site_fract_y
 _atom_site_fract_z
 _atom_site_occupancy
  Yb  Yb0  1  0.50000000  0.81023400  0.62046700  1
  Yb  Yb1  1  0.50000000  0.81023400  0.18976600  1
  Yb  Yb2  1  0.50000000  0.37953300  0.18976600  1
  Yb  Yb3  1  0.50000000  0.08906500  0.17813100  1
  Yb  Yb4  1  0.50000000  0.08906500  0.91093500  1
  Yb  Yb5  1  0.50000000  0.82186900  0.91093500  1
  Yb  Yb6  1  0.00000000  0.42497900  0.84995700  1
  Yb  Yb7  1  0.00000000  0.42497900  0.57502100  1
  Yb  Yb8  1  0.00000000  0.15004300  0.57502100  1
  Ni  Ni0  1  0.00000000  0.19078400  0.38156800  1
  Ni  Ni1  1  0.00000000  0.19078400  0.80921600  1
  Ni  Ni2  1  0.00000000  0.61843200  0.80921600  1
  Ni  Ni3  1  0.50000000  0.60088000  0.20176100  1
  Ni  Ni4  1  0.50000000  0.60088000  0.39912000  1
  Ni  Ni5  1  0.50000000  0.79823900  0.39912000  1
  Ni  Ni6  1  0.00000000  0.72301000  0.44602000  1
  Ni  Ni7  1  0.00000000  0.72301000  0.27699000  1
  Ni  Ni8  1  0.00000000  0.55398000  0.27699000  1
  Ni  Ni9  1  0.00000000  0.90662600  0.81325300  1
  Ni  Ni10  1  0.00000000  0.90662600  0.09337400  1
  Ni  Ni11  1  0.00000000  0.18674700  0.09337400  1
  Ni  Ni12  1  0.50000000  0.62223300  0.67634300  1
  Ni  Ni13  1  0.50000000  0.05410900  0.37776700  1
  Ni  Ni14  1  0.50000000  0.05410900  0.67634300  1
  Ni  Ni15  1  0.50000000  0.32365700  0.94589100  1
  Ni  Ni16  1  0.50000000  0.32365700  0.37776700  1
  Ni  Ni17  1  0.50000000  0.62223300  0.94589100  1
  Ni  Ni18  1  0.00000000  0.92503900  0.37590600  1
  Ni  Ni19  1  0.00000000  0.45086700  0.07496100  1
  Ni  Ni20  1  0.00000000  0.45086700  0.37590600  1
  Ni  Ni21  1  0.00000000  0.62409400  0.54913300  1
  Ni  Ni22  1  0.00000000  0.62409400  0.07496100  1
  Ni  Ni23  1  0.00000000  0.92503900  0.54913300  1
  Ni  Ni24  1  0.50000000  0.33333300  0.66666700  1
  Ni  Ni25  1  0.00000000  0.00000000  0.00000000  1
  P  P0  1  0.50000000  0.51295000  0.02590100  1
  P  P1  1  0.50000000  0.51295000  0.48705000  1
  P  P2  1  0.50000000  0.97409900  0.48705000  1
  P  P3  1  0.00000000  0.00194300  0.27481500  1
  P  P4  1  0.00000000  0.27287300  0.99805700  1
  P  P5  1  0.00000000  0.27287300  0.27481500  1
  P  P6  1  0.00000000  0.72518500  0.72712700  1
  P  P7  1  0.00000000  0.72518500  0.99805700  1
  P  P8  1  0.00000000  0.00194300  0.72712700  1
  P  P9  1  0.50000000  0.24209700  0.48419300  1
  P  P10  1  0.50000000  0.24209700  0.75790300  1
  P  P11  1  0.50000000  0.51580700  0.75790300  1
loop_
_geom_bond_atom_site_label_1
_geom_bond_atom_site_label_2
_geom_bond_distance
_geom_bond_site_symmetry_2
Ni0 P9 2.253236 1_455
Ni0 P9 2.253236 1_555
Ni0 P3 2.300012 1_555
Ni0 P5 2.300023 1_555
Ni0 Yb8 3.039210 1_555
Ni0 Yb7 3.039219 1_555
Ni0 Yb3 3.102947 1_555
Ni0 Yb3 3.102947 1_455
Ni1 P10 2.253243 1_555
Ni1 P10 2.253243 1_455
Ni1 P4 2.300011 1_555
Ni1 P8 2.300011 1_555
Ni1 Yb6 3.039224 1_555
Ni1 Yb8 3.039224 1_555
Ni1 Yb4 3.102957 1_455
Ni1 Yb4 3.102957 1_555
Ni2 P11 2.253236 1_555
Ni2 P11 2.253236 1_455
Ni2 P7 2.300012 1_555
Ni2 P6 2.300023 1_555
Ni2 Yb6 3.039210 1_555
Ni2 Yb7 3.039219 1_555
Ni2 Yb5 3.102947 1_455
Ni2 Yb5 3.102947 1_555
Ni3 P0 2.135844 1_555
Ni3 Ni8 2.400653 1_555
Ni3 Ni8 2.400653 1_655
Ni3 Ni7 2.400660 1_555
Ni3 Ni7 2.400660 1_655
Ni3 Yb2 3.023572 1_555
Ni3 Yb1 3.023600 1_555
Ni4 P1 2.135844 1_555
Ni4 Ni8 2.400661 1_555
Ni4 Ni8 2.400661 1_655
Ni4 Ni6 2.400661 1_655
Ni4 Ni6 2.400661 1_555
Ni4 Yb2 3.023585 1_555
Ni4 Yb0 3.023585 1_555
Ni5 P2 2.135844 1_555
Ni5 Ni6 2.400653 1_655
Ni5 Ni6 2.400653 1_555
Ni5 Ni7 2.400660 1_555
Ni5 Ni7 2.400660 1_655
Ni5 Yb0 3.023572 1_555
Ni5 Yb1 3.023600 1_555
Ni6 Ni7 2.370476 1_555
Ni6 Ni8 2.370476 1_555
Ni6 Yb0 2.830617 1_555
Ni6 Yb0 2.830617 1_455
Ni7 Ni8 2.370476 1_555
Ni7 Yb1 2.830626 1_555
Ni7 Yb1 2.830626 1_455
Ni8 Yb2 2.830617 1_555
Ni8 Yb2 2.830617 1_455
Ni9 P6 2.204568 1_555
Ni9 P8 2.204592 1_565
Ni9 Yb5 2.905395 1_455
Ni9 Yb5 2.905395 1_555
Ni9 Yb4 2.905395 1_465
Ni9 Yb4 2.905395 1_565
Ni9 Yb0 3.000964 1_455
Ni9 Yb0 3.000964 1_555
Ni10 P3 2.204569 1_565
Ni10 P7 2.204569 1_554
Ni10 Ni25 2.268080 1_565
Ni10 Yb3 2.905395 1_565
Ni10 Yb3 2.905395 1_465
Ni10 Yb5 2.905395 1_554
Ni10 Yb5 2.905395 1_454
Ni10 Yb1 3.000945 1_555
Ni10 Yb1 3.000945 1_455
Ni11 P5 2.204568 1_555
Ni11 P4 2.204592 1_554
Ni11 Ni25 2.268068 1_555
Ni11 Yb3 2.905395 1_555
Ni11 Yb3 2.905395 1_455
Ni11 Yb4 2.905395 1_454
Ni11 Yb4 2.905395 1_554
Ni11 Yb2 3.000964 1_455
Ni11 Yb2 3.000964 1_555
Ni12 P6 2.255456 1_655
Ni12 P6 2.255456 1_555
Ni12 P11 2.289764 1_555
Ni12 P1 2.308135 1_555
Ni12 Yb7 3.043727 1_555
Ni12 Yb7 3.043727 1_655
Ni12 Yb5 3.074262 1_555
Ni12 Yb0 3.103433 1_555
Ni13 P3 2.255456 1_555
Ni13 P3 2.255456 1_655
Ni13 P9 2.289787 1_555
Ni13 P2 2.308135 1_545
Ni13 Yb8 3.043726 1_555
Ni13 Yb8 3.043726 1_655
Ni13 Yb3 3.074261 1_555
Ni13 Yb1 3.103414 1_545
Ni14 P8 2.255443 1_555
Ni14 P8 2.255443 1_655
Ni14 P10 2.289789 1_555
Ni14 P2 2.308135 1_545
Ni14 Yb8 3.043745 1_655
Ni14 Yb8 3.043745 1_555
Ni14 Yb4 3.074261 1_555
Ni14 Yb0 3.103406 1_545
Ni15 P4 2.255443 1_655
Ni15 P4 2.255443 1_555
Ni15 P10 2.289789 1_555
Ni15 P0 2.308135 1_556
Ni15 Yb6 3.043745 1_555
Ni15 Yb6 3.043745 1_655
Ni15 Yb4 3.074261 1_555
Ni15 Yb2 3.103406 1_556
Ni16 P5 2.255456 1_555
Ni16 P5 2.255456 1_655
Ni16 P9 2.289764 1_555
Ni16 P1 2.308135 1_555
Ni16 Yb7 3.043727 1_655
Ni16 Yb7 3.043727 1_555
Ni16 Yb3 3.074262 1_555
Ni16 Yb2 3.103433 1_555
Ni17 P7 2.255456 1_655
Ni17 P7 2.255456 1_555
Ni17 P11 2.289787 1_555
Ni17 P0 2.308135 1_556
Ni17 Yb6 3.043726 1_655
Ni17 Yb6 3.043726 1_555
Ni17 Yb5 3.074261 1_555
Ni17 Yb1 3.103414 1_556
Ni18 P3 2.168416 1_565
Ni18 P2 2.313879 1_555
Ni18 P2 2.313879 1_455
Ni18 Ni7 2.453847 1_555
Ni18 Yb1 2.954189 1_555
Ni18 Yb1 2.954189 1_455
Ni18 Yb8 2.990498 1_565
Ni19 P4 2.168404 1_554
Ni19 P0 2.313871 1_555
Ni19 P0 2.313871 1_455
Ni19 Ni8 2.453847 1_555
Ni19 Yb2 2.954180 1_455
Ni19 Yb2 2.954180 1_555
Ni19 Yb6 2.990503 1_554
Ni20 P5 2.168405 1_555
Ni20 P1 2.313878 1_455
Ni20 P1 2.313878 1_555
Ni20 Ni8 2.453847 1_555
Ni20 Yb2 2.954190 1_455
Ni20 Yb2 2.954190 1_555
Ni20 Yb7 2.990489 1_555
Ni21 P6 2.168405 1_555
Ni21 P1 2.313878 1_455
Ni21 P1 2.313878 1_555
Ni21 Ni6 2.453847 1_555
Ni21 Yb0 2.954190 1_455
Ni21 Yb0 2.954190 1_555
Ni21 Yb7 2.990489 1_555
Ni22 P7 2.168416 1_554
Ni22 P0 2.313879 1_455
Ni22 P0 2.313879 1_555
Ni22 Ni7 2.453847 1_555
Ni22 Yb1 2.954189 1_555
Ni22 Yb1 2.954189 1_455
Ni22 Yb6 2.990498 1_554
Ni23 P8 2.168404 1_565
Ni23 P2 2.313871 1_555
Ni23 P2 2.313871 1_455
Ni23 Ni6 2.453847 1_555
Ni23 Yb0 2.954180 1_455
Ni23 Yb0 2.954180 1_555
Ni23 Yb8 2.990503 1_565
Ni24 P10 2.216148 1_555
Ni24 P9 2.216172 1_555
Ni24 P11 2.216172 1_555
Ni24 Yb6 2.911875 1_655
Ni24 Yb6 2.911875 1_555
Ni24 Yb8 2.911875 1_655
Ni24 Yb8 2.911875 1_555
Ni24 Yb7 2.911894 1_655
Ni24 Yb7 2.911894 1_555
Ni25 Ni9 2.268068 1_544
Ni25 Yb4 2.864251 1_554
Ni25 Yb4 2.864251 1_454
Ni25 Yb5 2.864260 1_444
Ni25 Yb3 2.864260 1_555
Ni25 Yb5 2.864260 1_544
Ni25 Yb3 2.864260 1_455
P0 Yb6 2.844251 1_554
P0 Yb6 2.844251 1_654
P1 Yb7 2.844232 1_555
P1 Yb7 2.844232 1_655
P2 Yb8 2.844251 1_665
P2 Yb8 2.844251 1_565
P3 Yb3 2.917439 1_455
P3 Yb3 2.917439 1_555
P3 Yb1 2.994607 1_445
P3 Yb1 2.994607 1_545
P4 Yb4 2.917458 1_455
P4 Yb4 2.917458 1_555
P4 Yb2 2.994607 1_556
P4 Yb2 2.994607 1_456
P5 Yb3 2.917458 1_555
P5 Yb3 2.917458 1_455
P5 Yb2 2.994607 1_455
P5 Yb2 2.994607 1_555
P6 Yb5 2.917458 1_555
P6 Yb5 2.917458 1_455
P6 Yb0 2.994607 1_455
P6 Yb0 2.994607 1_555
P7 Yb5 2.917439 1_455
P7 Yb5 2.917439 1_555
P7 Yb1 2.994607 1_456
P7 Yb1 2.994607 1_556
P8 Yb4 2.917458 1_455
P8 Yb4 2.917458 1_555
P8 Yb0 2.994607 1_545
P8 Yb0 2.994607 1_445
P9 Yb8 2.908101 1_555
P9 Yb8 2.908101 1_655
P9 Yb7 2.908101 1_655
P9 Yb7 2.908101 1_555
P10 Yb6 2.908101 1_555
P10 Yb6 2.908101 1_655
P10 Yb8 2.908101 1_555
P10 Yb8 2.908101 1_655
P11 Yb6 2.908101 1_555
P11 Yb6 2.908101 1_655
P11 Yb7 2.908101 1_555
P11 Yb7 2.908101 1_655
