# generated using pymatgen
data_DyMg2
_symmetry_space_group_name_H-M   'P 1'
_cell_length_a   10.42457932
_cell_length_b   10.42457932
_cell_length_c   6.52346704
_cell_angle_alpha   90.00000000
_cell_angle_beta   90.00000000
_cell_angle_gamma   120.00000406
_symmetry_Int_Tables_number   1
_chemical_formula_structural   DyMg2
_chemical_formula_sum   'Dy8 Mg16'
_cell_volume   613.94032928
_cell_formula_units_Z   8
loop_
 _symmetry_equiv_pos_site_id
 _symmetry_equiv_pos_as_xyz
  1  'x, y, z'
loop_
 _atom_site_type_symbol
 _atom_site_label
 _atom_site_symmetry_multiplicity
 _atom_site_fract_x
 _atom_site_fract_y
 _atom_site_fract_z
 _atom_site_occupancy
  Dy  Dy0_0  1  0.00000000  0.00000000  0.00000000  1
  Dy  Dy0_1  1  0.00000000  0.00000000  0.50000000  1
  Dy  Dy0_2  1  0.00000000  0.50000000  0.00000000  1
  Dy  Dy0_3  1  0.00000000  0.50000000  0.50000000  1
  Dy  Dy0_4  1  0.50000000  0.00000000  0.00000000  1
  Dy  Dy0_5  1  0.50000000  0.00000000  0.50000000  1
  Dy  Dy0_6  1  0.50000000  0.50000000  0.00000000  1
  Dy  Dy0_7  1  0.50000000  0.50000000  0.50000000  1
  Mg  Mg0_0  1  0.16666650  0.33333350  0.25000000  1
  Mg  Mg0_1  1  0.16666650  0.33333350  0.75000000  1
  Mg  Mg0_2  1  0.16666650  0.83333350  0.25000000  1
  Mg  Mg0_3  1  0.16666650  0.83333350  0.75000000  1
  Mg  Mg0_4  1  0.66666650  0.33333350  0.25000000  1
  Mg  Mg0_5  1  0.66666650  0.33333350  0.75000000  1
  Mg  Mg0_6  1  0.66666650  0.83333350  0.25000000  1
  Mg  Mg0_7  1  0.66666650  0.83333350  0.75000000  1
  Mg  Mg1_0  1  0.33333350  0.16666650  0.25000000  1
  Mg  Mg1_1  1  0.33333350  0.16666650  0.75000000  1
  Mg  Mg1_2  1  0.33333350  0.66666650  0.25000000  1
  Mg  Mg1_3  1  0.33333350  0.66666650  0.75000000  1
  Mg  Mg1_4  1  0.83333350  0.16666650  0.25000000  1
  Mg  Mg1_5  1  0.83333350  0.16666650  0.75000000  1
  Mg  Mg1_6  1  0.83333350  0.66666650  0.25000000  1
  Mg  Mg1_7  1  0.83333350  0.66666650  0.75000000  1
loop_
_geom_bond_atom_site_label_1
_geom_bond_atom_site_label_2
_geom_bond_distance
_geom_bond_site_symmetry_2
Dy0_0 Dy0_1 3.261734 1_555
Dy0_0 Dy0_1 3.261734 1_554
Dy0_0 Mg0_2 3.422820 1_545
Dy0_0 Mg0_3 3.422820 1_544
Dy0_0 Mg1_4 3.422820 1_455
Dy0_0 Mg1_5 3.422820 1_454
Dy0_0 Mg1_6 3.422824 1_445
Dy0_0 Mg1_7 3.422824 1_444
Dy0_0 Mg1_1 3.422824 1_554
Dy0_0 Mg1_0 3.422824 1_555
Dy0_0 Mg0_1 3.422824 1_554
Dy0_0 Mg0_0 3.422824 1_555
Dy0_0 Mg0_6 3.422824 1_445
Dy0_0 Mg0_7 3.422824 1_444
Dy0_1 Mg0_2 3.422820 1_545
Dy0_1 Mg0_3 3.422820 1_545
Dy0_1 Mg1_5 3.422820 1_455
Dy0_1 Mg1_4 3.422820 1_455
Dy0_1 Mg1_6 3.422824 1_445
Dy0_1 Mg1_0 3.422824 1_555
Dy0_1 Mg1_7 3.422824 1_445
Dy0_1 Mg1_1 3.422824 1_555
Dy0_1 Mg0_0 3.422824 1_555
Dy0_1 Mg0_1 3.422824 1_555
Dy0_1 Mg0_7 3.422824 1_445
Dy0_1 Mg0_6 3.422824 1_445
Dy0_2 Dy0_3 3.261734 1_555
Dy0_2 Dy0_3 3.261734 1_554
Dy0_2 Mg0_0 3.422820 1_555
Dy0_2 Mg0_1 3.422820 1_554
Dy0_2 Mg1_6 3.422820 1_455
Dy0_2 Mg1_7 3.422820 1_454
Dy0_2 Mg1_4 3.422824 1_455
Dy0_2 Mg1_5 3.422824 1_454
Dy0_2 Mg1_3 3.422824 1_554
Dy0_2 Mg0_3 3.422824 1_554
Dy0_2 Mg1_2 3.422824 1_555
Dy0_2 Mg0_2 3.422824 1_555
Dy0_2 Mg0_5 3.422824 1_454
Dy0_2 Mg0_4 3.422824 1_455
Dy0_3 Mg0_1 3.422820 1_555
Dy0_3 Mg0_0 3.422820 1_555
Dy0_3 Mg1_7 3.422820 1_455
Dy0_3 Mg1_6 3.422820 1_455
Dy0_3 Mg1_4 3.422824 1_455
Dy0_3 Mg1_5 3.422824 1_455
Dy0_3 Mg0_3 3.422824 1_555
Dy0_3 Mg1_3 3.422824 1_555
Dy0_3 Mg1_2 3.422824 1_555
Dy0_3 Mg0_2 3.422824 1_555
Dy0_3 Mg0_5 3.422824 1_455
Dy0_3 Mg0_4 3.422824 1_455
Dy0_4 Dy0_5 3.261734 1_555
Dy0_4 Dy0_5 3.261734 1_554
Dy0_4 Mg0_6 3.422820 1_545
Dy0_4 Mg0_7 3.422820 1_544
Dy0_4 Mg1_0 3.422820 1_555
Dy0_4 Mg1_1 3.422820 1_554
Dy0_4 Mg1_4 3.422824 1_555
Dy0_4 Mg1_5 3.422824 1_554
Dy0_4 Mg1_2 3.422824 1_545
Dy0_4 Mg1_3 3.422824 1_544
Dy0_4 Mg0_4 3.422824 1_555
Dy0_4 Mg0_5 3.422824 1_554
Dy0_4 Mg0_2 3.422824 1_545
Dy0_4 Mg0_3 3.422824 1_544
Dy0_5 Mg0_6 3.422820 1_545
Dy0_5 Mg0_7 3.422820 1_545
Dy0_5 Mg1_0 3.422820 1_555
Dy0_5 Mg1_1 3.422820 1_555
Dy0_5 Mg1_5 3.422824 1_555
Dy0_5 Mg1_4 3.422824 1_555
Dy0_5 Mg1_2 3.422824 1_545
Dy0_5 Mg1_3 3.422824 1_545
Dy0_5 Mg0_5 3.422824 1_555
Dy0_5 Mg0_4 3.422824 1_555
Dy0_5 Mg0_3 3.422824 1_545
Dy0_5 Mg0_2 3.422824 1_545
Dy0_6 Dy0_7 3.261734 1_554
Dy0_6 Dy0_7 3.261734 1_555
Dy0_6 Mg0_4 3.422820 1_555
Dy0_6 Mg0_5 3.422820 1_554
Dy0_6 Mg1_3 3.422820 1_554
Dy0_6 Mg1_2 3.422820 1_555
Dy0_6 Mg1_7 3.422824 1_554
Dy0_6 Mg1_6 3.422824 1_555
Dy0_6 Mg1_1 3.422824 1_554
Dy0_6 Mg1_0 3.422824 1_555
Dy0_6 Mg0_1 3.422824 1_554
Dy0_6 Mg0_0 3.422824 1_555
Dy0_6 Mg0_6 3.422824 1_555
Dy0_6 Mg0_7 3.422824 1_554
Dy0_7 Mg0_4 3.422820 1_555
Dy0_7 Mg0_5 3.422820 1_555
Dy0_7 Mg1_2 3.422820 1_555
Dy0_7 Mg1_3 3.422820 1_555
Dy0_7 Mg1_7 3.422824 1_555
Dy0_7 Mg1_6 3.422824 1_555
Dy0_7 Mg1_0 3.422824 1_555
Dy0_7 Mg1_1 3.422824 1_555
Dy0_7 Mg0_0 3.422824 1_555
Dy0_7 Mg0_1 3.422824 1_555
Dy0_7 Mg0_6 3.422824 1_555
Dy0_7 Mg0_7 3.422824 1_555
Mg0_0 Mg1_4 3.009314 1_455
Mg0_0 Mg1_2 3.009314 1_555
Mg0_0 Mg1_0 3.009323 1_555
Mg0_0 Mg0_1 3.261734 1_555
Mg0_0 Mg0_1 3.261734 1_554
Mg0_1 Mg1_5 3.009314 1_455
Mg0_1 Mg1_3 3.009314 1_555
Mg0_1 Mg1_1 3.009323 1_555
Mg0_2 Mg1_0 3.009314 1_565
Mg0_2 Mg1_6 3.009314 1_455
Mg0_2 Mg1_2 3.009323 1_555
Mg0_2 Mg0_3 3.261734 1_555
Mg0_2 Mg0_3 3.261734 1_554
Mg0_3 Mg1_7 3.009314 1_455
Mg0_3 Mg1_1 3.009314 1_565
Mg0_3 Mg1_3 3.009323 1_555
Mg0_4 Mg1_0 3.009314 1_555
Mg0_4 Mg1_6 3.009314 1_555
Mg0_4 Mg1_4 3.009323 1_555
Mg0_4 Mg0_5 3.261734 1_554
Mg0_4 Mg0_5 3.261734 1_555
Mg0_5 Mg1_1 3.009314 1_555
Mg0_5 Mg1_7 3.009314 1_555
Mg0_5 Mg1_5 3.009323 1_555
Mg0_6 Mg1_2 3.009314 1_555
Mg0_6 Mg1_4 3.009314 1_565
Mg0_6 Mg1_6 3.009323 1_555
Mg0_6 Mg0_7 3.261734 1_554
Mg0_6 Mg0_7 3.261734 1_555
Mg0_7 Mg1_3 3.009314 1_555
Mg0_7 Mg1_5 3.009314 1_565
Mg0_7 Mg1_7 3.009323 1_555
Mg1_0 Mg1_1 3.261734 1_554
Mg1_0 Mg1_1 3.261734 1_555
Mg1_2 Mg1_3 3.261734 1_554
Mg1_2 Mg1_3 3.261734 1_555
Mg1_4 Mg1_5 3.261734 1_555
Mg1_4 Mg1_5 3.261734 1_554
Mg1_6 Mg1_7 3.261734 1_555
Mg1_6 Mg1_7 3.261734 1_554
