# generated using pymatgen
data_Li2La3Nd(SbO6)2
_symmetry_space_group_name_H-M   'P 1'
_cell_length_a   5.65100800
_cell_length_b   5.78503246
_cell_length_c   8.07210135
_cell_angle_alpha   90.00611685
_cell_angle_beta   90.38187525
_cell_angle_gamma   90.16318085
_symmetry_Int_Tables_number   1
_chemical_formula_structural   Li2La3Nd(SbO6)2
_chemical_formula_sum   'Li2 La3 Nd1 Sb2 O12'
_cell_volume   263.88026872
_cell_formula_units_Z   1
loop_
 _symmetry_equiv_pos_site_id
 _symmetry_equiv_pos_as_xyz
  1  'x, y, z'
loop_
 _atom_site_type_symbol
 _atom_site_label
 _atom_site_symmetry_multiplicity
 _atom_site_fract_x
 _atom_site_fract_y
 _atom_site_fract_z
 _atom_site_occupancy
  Li  Li0  1  0.50101000  0.99995700  0.49855900  1
  Li  Li1  1  0.99920600  0.49899700  0.00127400  1
  La  La0  1  0.51393800  0.54585300  0.74861600  1
  La  La1  1  0.98730200  0.04384000  0.75069500  1
  La  La2  1  0.48724700  0.45407000  0.25121900  1
  Nd  Nd0  1  0.01658500  0.94678600  0.24792400  1
  Sb  Sb0  1  0.99884600  0.49955200  0.49826200  1
  Sb  Sb1  1  0.50133300  0.00031500  0.00161500  1
  O  O0  1  0.90286700  0.53716300  0.26007400  1
  O  O1  1  0.40386000  0.96853000  0.76235200  1
  O  O2  1  0.09699100  0.46784200  0.73783600  1
  O  O3  1  0.60595300  0.03250700  0.23924700  1
  O  O4  1  0.71412800  0.30388800  0.54832100  1
  O  O5  1  0.21628700  0.19494100  0.05287300  1
  O  O6  1  0.28037700  0.69993300  0.44894100  1
  O  O7  1  0.78334000  0.80323400  0.95244700  1
  O  O8  1  0.80593700  0.78197900  0.55284600  1
  O  O9  1  0.30271600  0.72061600  0.05679700  1
  O  O10  1  0.18965800  0.21552400  0.44358300  1
  O  O11  1  0.69241800  0.28447400  0.94651700  1
loop_
_geom_bond_atom_site_label_1
_geom_bond_atom_site_label_2
_geom_bond_distance
_geom_bond_site_symmetry_2
Li0 O4 2.164382 1_565
Li0 O6 2.169855 1_555
Li0 O8 2.180328 1_555
Li0 O3 2.187372 1_565
Li0 O10 2.202267 1_565
Li0 O1 2.209918 1_555
Li1 O11 2.172211 1_554
Li1 O0 2.173718 1_555
Li1 O7 2.178772 1_554
Li1 O9 2.182518 1_655
Li1 O5 2.185856 1_655
Li1 O2 2.208161 1_654
La0 O2 2.398746 1_555
La0 O11 2.417296 1_555
La0 O4 2.426133 1_555
La0 O1 2.527404 1_555
La0 O8 2.666156 1_555
La0 O7 2.682351 1_555
La0 O6 2.890110 1_555
La0 O9 2.946400 1_556
La1 O1 2.396403 1_645
La1 O8 2.421707 1_545
La1 O7 2.436077 1_545
La1 O2 2.530572 1_655
La1 O11 2.694659 1_555
La1 O4 2.700916 1_555
La1 O5 2.887785 1_656
La1 O10 2.910592 1_655
La2 O0 2.396615 1_555
La2 O9 2.432274 1_555
La2 O6 2.443523 1_555
La2 O3 2.533177 1_555
La2 O5 2.666258 1_555
La2 O10 2.676865 1_555
La2 O4 2.848854 1_555
La2 O11 2.898343 1_554
Nd0 O3 2.374840 1_465
Nd0 O5 2.414199 1_565
Nd0 O10 2.416233 1_565
Nd0 O0 2.455645 1_455
Nd0 O9 2.598358 1_555
Nd0 O6 2.621984 1_555
Nd0 O7 2.840281 1_454
Nd0 O8 2.901272 1_455
O0 Sb0 2.006257 1_555
O1 Sb1 2.013086 1_566
O2 Sb0 2.016791 1_455
O3 Sb1 2.011925 1_555
O4 Sb0 2.007890 1_555
O5 Sb1 2.013125 1_555
O6 Sb0 2.007830 1_455
O7 Sb1 2.003925 1_566
O8 Sb0 2.017022 1_555
O9 Sb1 2.018113 1_565
O10 Sb0 2.018315 1_455
O11 Sb1 2.015584 1_556
