# generated using pymatgen
data_KIO2
_symmetry_space_group_name_H-M   'P 1'
_cell_length_a   4.29561500
_cell_length_b   4.29561500
_cell_length_c   4.12954600
_cell_angle_alpha   90.00000000
_cell_angle_beta   90.00000000
_cell_angle_gamma   90.00000000
_symmetry_Int_Tables_number   1
_chemical_formula_structural   KIO2
_chemical_formula_sum   'K1 I1 O2'
_cell_volume   76.19965563
_cell_formula_units_Z   1
loop_
 _symmetry_equiv_pos_site_id
 _symmetry_equiv_pos_as_xyz
  1  'x, y, z'
loop_
 _atom_site_type_symbol
 _atom_site_label
 _atom_site_symmetry_multiplicity
 _atom_site_fract_x
 _atom_site_fract_y
 _atom_site_fract_z
 _atom_site_occupancy
  K  K0  1  0.50000000  0.50000000  0.50000000  1
  I  I0  1  0.00000000  0.00000000  0.00000000  1
  O  O0  1  0.00000000  0.50000000  0.00000000  1
  O  O1  1  0.50000000  0.00000000  0.00000000  1
loop_
_geom_bond_atom_site_label_1
_geom_bond_atom_site_label_2
_geom_bond_distance
_geom_bond_site_symmetry_2
K0 O0 2.979323 1_556
K0 O1 2.979323 1_555
K0 O1 2.979323 1_566
K0 O0 2.979323 1_656
K0 O0 2.979323 1_655
K0 O0 2.979323 1_555
K0 O1 2.979323 1_556
K0 O1 2.979323 1_565
I0 O0 2.147807 1_545
I0 O1 2.147807 1_555
I0 O0 2.147807 1_555
I0 O1 2.147807 1_455
