# generated using pymatgen
data_CeCu(WO4)2
_symmetry_space_group_name_H-M   'P 1'
_cell_length_a   7.26944100
_cell_length_b   7.46893402
_cell_length_c   7.62736943
_cell_angle_alpha   113.96416325
_cell_angle_beta   116.23496476
_cell_angle_gamma   91.22248511
_symmetry_Int_Tables_number   1
_chemical_formula_structural   CeCu(WO4)2
_chemical_formula_sum   'Ce2 Cu2 W4 O16'
_cell_volume   329.09547656
_cell_formula_units_Z   2
loop_
 _symmetry_equiv_pos_site_id
 _symmetry_equiv_pos_as_xyz
  1  'x, y, z'
loop_
 _atom_site_type_symbol
 _atom_site_label
 _atom_site_symmetry_multiplicity
 _atom_site_fract_x
 _atom_site_fract_y
 _atom_site_fract_z
 _atom_site_occupancy
  Ce  Ce0  1  0.18500400  0.28814200  0.46517900  1
  Ce  Ce1  1  0.81499600  0.71185800  0.53482100  1
  Cu  Cu0  1  0.24244500  0.67636800  0.99131000  1
  Cu  Cu1  1  0.75755500  0.32363200  0.00869000  1
  W  W0  1  0.26422700  0.29367200  0.03262300  1
  W  W1  1  0.73577300  0.70632800  0.96737700  1
  W  W2  1  0.64966400  0.10413000  0.28845300  1
  W  W3  1  0.35033600  0.89587000  0.71154700  1
  O  O0  1  0.19019600  0.35627300  0.80226800  1
  O  O1  1  0.80980400  0.64372700  0.19773200  1
  O  O2  1  0.45697700  0.53754100  0.25577400  1
  O  O3  1  0.54302300  0.46245900  0.74422600  1
  O  O4  1  0.86208800  0.01059300  0.19897600  1
  O  O5  1  0.13791200  0.98940700  0.80102400  1
  O  O6  1  0.70807500  0.00642200  0.48091400  1
  O  O7  1  0.29192500  0.99357800  0.51908600  1
  O  O8  1  0.17519800  0.63684500  0.55397400  1
  O  O9  1  0.82480200  0.36315500  0.44602600  1
  O  O10  1  0.47916600  0.82684000  0.00653500  1
  O  O11  1  0.52083400  0.17316000  0.99346500  1
  O  O12  1  0.04166400  0.30756500  0.08782000  1
  O  O13  1  0.95833600  0.69243500  0.91218000  1
  O  O14  1  0.38572000  0.17565700  0.25816500  1
  O  O15  1  0.61428000  0.82434300  0.74183500  1
loop_
_geom_bond_atom_site_label_1
_geom_bond_atom_site_label_2
_geom_bond_distance
_geom_bond_site_symmetry_2
Ce0 O3 2.388656 1_555
Ce0 O0 2.391968 1_555
Ce0 O8 2.421696 1_555
Ce0 O4 2.467720 1_455
Ce0 O7 2.477658 1_545
Ce0 O14 2.517838 1_555
Ce0 O9 2.642443 1_455
Ce0 O12 2.661812 1_555
Ce1 O2 2.388656 1_555
Ce1 O1 2.391968 1_555
Ce1 O9 2.421696 1_555
Ce1 O5 2.467720 1_655
Ce1 O6 2.477658 1_565
Ce1 O15 2.517838 1_555
Ce1 O8 2.642443 1_655
Ce1 O13 2.661812 1_555
Cu0 O13 1.900407 1_455
Cu0 O10 1.967892 1_556
Cu0 O0 2.148456 1_555
Cu0 O2 2.561841 1_556
Cu1 O12 1.900407 1_655
Cu1 O11 1.967892 1_554
Cu1 O1 2.148456 1_555
Cu1 O3 2.561841 1_554
O0 W0 1.854021 1_556
O1 W1 1.854021 1_554
O2 W0 1.855311 1_555
O3 W1 1.855311 1_555
O4 W2 1.982138 1_555
O4 W1 2.084209 1_544
O5 W3 1.982138 1_555
O5 W0 2.084209 1_566
O6 W2 1.788906 1_555
O7 W3 1.788906 1_555
O8 W3 1.860511 1_555
O9 W2 1.860511 1_555
O10 W2 2.089454 1_565
O10 W1 2.173681 1_554
O10 W3 2.303326 1_554
O11 W3 2.089454 1_545
O11 W0 2.173681 1_556
O11 W2 2.303326 1_556
O12 W0 1.838350 1_555
O13 W1 1.838350 1_555
O14 W2 1.942262 1_555
O14 W0 2.106681 1_555
O15 W3 1.942262 1_555
O15 W1 2.106681 1_555
