# generated using pymatgen
data_La4MnS6O
_symmetry_space_group_name_H-M   'P 1'
_cell_length_a   9.50805460
_cell_length_b   9.50805460
_cell_length_c   6.86594100
_cell_angle_alpha   90.00000000
_cell_angle_beta   90.00000000
_cell_angle_gamma   120.00000419
_symmetry_Int_Tables_number   1
_chemical_formula_structural   La4MnS6O
_chemical_formula_sum   'La8 Mn2 S12 O2'
_cell_volume   537.54399509
_cell_formula_units_Z   2
loop_
 _symmetry_equiv_pos_site_id
 _symmetry_equiv_pos_as_xyz
  1  'x, y, z'
loop_
 _atom_site_type_symbol
 _atom_site_label
 _atom_site_symmetry_multiplicity
 _atom_site_fract_x
 _atom_site_fract_y
 _atom_site_fract_z
 _atom_site_occupancy
  La  La0  1  0.66666700  0.33333300  0.71487400  1
  La  La1  1  0.33333300  0.66666700  0.21487400  1
  La  La2  1  0.19727300  0.80272700  0.68298500  1
  La  La3  1  0.39454600  0.19727300  0.18298500  1
  La  La4  1  0.80272700  0.60545400  0.18298500  1
  La  La5  1  0.19727300  0.39454600  0.68298500  1
  La  La6  1  0.60545400  0.80272700  0.68298500  1
  La  La7  1  0.80272700  0.19727300  0.18298500  1
  Mn  Mn0  1  0.00000000  0.00000000  0.48448700  1
  Mn  Mn1  1  0.00000000  0.00000000  0.98448700  1
  S  S0  1  0.53086200  0.06172500  0.46086400  1
  S  S1  1  0.46913800  0.93827500  0.96086400  1
  S  S2  1  0.06172500  0.53086200  0.96086400  1
  S  S3  1  0.53086200  0.46913800  0.46086400  1
  S  S4  1  0.87649000  0.12351000  0.78524000  1
  S  S5  1  0.75298100  0.87649000  0.28524000  1
  S  S6  1  0.12351000  0.24701900  0.28524000  1
  S  S7  1  0.87649000  0.75298100  0.78524000  1
  S  S8  1  0.46913800  0.53086200  0.96086400  1
  S  S9  1  0.93827500  0.46913800  0.46086400  1
  S  S10  1  0.12351000  0.87649000  0.28524000  1
  S  S11  1  0.24701900  0.12351000  0.78524000  1
  O  O0  1  0.33333300  0.66666700  0.56084500  1
  O  O1  1  0.66666700  0.33333300  0.06084500  1
loop_
_geom_bond_atom_site_label_1
_geom_bond_atom_site_label_2
_geom_bond_distance
_geom_bond_site_symmetry_2
La0 O1 2.375416 1_556
La0 S9 2.836095 1_555
La0 S0 2.836095 1_555
La0 S3 2.836108 1_555
La0 S4 3.489067 1_555
La0 S7 3.489083 1_555
La0 S11 3.489083 1_555
La1 O0 2.375416 1_555
La1 S1 2.836095 1_554
La1 S2 2.836095 1_554
La1 S8 2.836108 1_554
La1 S10 3.489067 1_555
La1 S5 3.489083 1_555
La1 S6 3.489083 1_555
La2 O0 2.392483 1_555
La2 S7 2.928590 1_455
La2 S11 2.928590 1_565
La2 S2 2.941328 1_555
La2 S1 2.941328 1_555
La2 S10 2.988884 1_555
La2 S0 3.261832 1_565
La2 S9 3.261832 1_455
La3 O1 2.392491 1_555
La3 S6 2.928581 1_555
La3 S10 2.928587 1_545
La3 S0 2.941321 1_555
La3 S3 2.941328 1_555
La3 S11 2.988887 1_554
La3 S8 3.261830 1_554
La3 S1 3.261838 1_544
La4 O1 2.392491 1_555
La4 S5 2.928581 1_555
La4 S10 2.928587 1_655
La4 S9 2.941321 1_555
La4 S3 2.941328 1_555
La4 S7 2.988887 1_554
La4 S8 3.261830 1_554
La4 S2 3.261838 1_654
La5 O0 2.392491 1_555
La5 S11 2.928581 1_555
La5 S4 2.928587 1_455
La5 S2 2.941321 1_555
La5 S8 2.941328 1_555
La5 S6 2.988887 1_555
La5 S3 3.261830 1_555
La5 S9 3.261838 1_455
La6 O0 2.392491 1_555
La6 S7 2.928581 1_555
La6 S4 2.928587 1_565
La6 S1 2.941321 1_555
La6 S8 2.941328 1_555
La6 S5 2.988887 1_555
La6 S3 3.261830 1_555
La6 S0 3.261838 1_565
La7 O1 2.392483 1_555
La7 S5 2.928590 1_545
La7 S6 2.928590 1_655
La7 S0 2.941328 1_555
La7 S9 2.941328 1_555
La7 S4 2.988884 1_554
La7 S2 3.261832 1_654
La7 S1 3.261832 1_544
Mn0 S5 2.451257 1_445
Mn0 S6 2.451257 1_555
Mn0 S10 2.451264 1_545
Mn0 S7 2.898485 1_445
Mn0 S11 2.898485 1_555
Mn0 S4 2.898491 1_455
Mn1 S7 2.451257 1_445
Mn1 S11 2.451257 1_555
Mn1 S4 2.451264 1_455
Mn1 S5 2.898485 1_446
Mn1 S6 2.898485 1_556
Mn1 S10 2.898491 1_546
