# generated using pymatgen
data_Tm2V2O7
_symmetry_space_group_name_H-M   'P 1'
_cell_length_a   7.00681118
_cell_length_b   7.00681118
_cell_length_c   7.00681118
_cell_angle_alpha   60.00000000
_cell_angle_beta   60.00000000
_cell_angle_gamma   60.00000000
_symmetry_Int_Tables_number   1
_chemical_formula_structural   Tm2V2O7
_chemical_formula_sum   'Tm4 V4 O14'
_cell_volume   243.24630112
_cell_formula_units_Z   2
loop_
 _symmetry_equiv_pos_site_id
 _symmetry_equiv_pos_as_xyz
  1  'x, y, z'
loop_
 _atom_site_type_symbol
 _atom_site_label
 _atom_site_symmetry_multiplicity
 _atom_site_fract_x
 _atom_site_fract_y
 _atom_site_fract_z
 _atom_site_occupancy
  Tm  Tm0  1  0.62500000  0.62500000  0.62500000  1
  Tm  Tm1  1  0.12500000  0.62500000  0.62500000  1
  Tm  Tm2  1  0.62500000  0.62500000  0.12500000  1
  Tm  Tm3  1  0.62500000  0.12500000  0.62500000  1
  V  V0  1  0.12500000  0.12500000  0.12500000  1
  V  V1  1  0.62500000  0.12500000  0.12500000  1
  V  V2  1  0.12500000  0.12500000  0.62500000  1
  V  V3  1  0.12500000  0.62500000  0.12500000  1
  O  O0  1  0.75000000  0.75000000  0.75000000  1
  O  O1  1  0.50000000  0.50000000  0.50000000  1
  O  O2  1  0.79234795  0.20765205  0.20765205  1
  O  O3  1  0.04234795  0.45765205  0.45765205  1
  O  O4  1  0.20765205  0.20765205  0.79234795  1
  O  O5  1  0.79234795  0.20765205  0.79234795  1
  O  O6  1  0.20765205  0.79234795  0.20765205  1
  O  O7  1  0.79234795  0.79234795  0.20765205  1
  O  O8  1  0.20765205  0.79234795  0.79234795  1
  O  O9  1  0.04234795  0.04234795  0.45765205  1
  O  O10  1  0.45765205  0.45765205  0.04234795  1
  O  O11  1  0.04234795  0.45765205  0.04234795  1
  O  O12  1  0.45765205  0.04234795  0.45765205  1
  O  O13  1  0.45765205  0.04234795  0.04234795  1
loop_
_geom_bond_atom_site_label_1
_geom_bond_atom_site_label_2
_geom_bond_distance
_geom_bond_site_symmetry_2
O0 Tm2 2.145389 1_556
O0 Tm1 2.145389 1_655
O0 Tm3 2.145389 1_565
O0 Tm0 2.145389 1_555
O1 Tm2 2.145389 1_555
O1 Tm3 2.145389 1_555
O1 Tm1 2.145389 1_555
O1 Tm0 2.145389 1_555
O2 V0 1.933711 1_655
O2 V1 1.933711 1_555
O2 Tm2 2.412121 1_555
O2 Tm3 2.412121 1_555
O3 V3 1.933711 1_555
O3 V2 1.933711 1_555
O3 Tm1 2.412121 1_555
O3 Tm0 2.412121 1_455
O4 V0 1.933711 1_556
O4 V2 1.933711 1_555
O4 Tm1 2.412121 1_555
O4 Tm3 2.412121 1_555
O5 V2 1.933711 1_655
O5 V1 1.933711 1_556
O5 Tm0 2.412121 1_555
O5 Tm3 2.412121 1_555
O6 V0 1.933711 1_565
O6 V3 1.933711 1_555
O6 Tm2 2.412121 1_555
O6 Tm1 2.412121 1_555
O7 V1 1.933711 1_565
O7 V3 1.933711 1_655
O7 Tm0 2.412121 1_555
O7 Tm2 2.412121 1_555
O8 V2 1.933711 1_565
O8 V3 1.933711 1_556
O8 Tm0 2.412121 1_555
O8 Tm1 2.412121 1_555
O9 V2 1.933711 1_555
O9 V0 1.933711 1_555
O9 Tm1 2.412121 1_545
O9 Tm3 2.412121 1_455
O10 V1 1.933711 1_555
O10 V3 1.933711 1_555
O10 Tm2 2.412121 1_555
O10 Tm0 2.412121 1_554
O11 V3 1.933711 1_555
O11 V0 1.933711 1_555
O11 Tm1 2.412121 1_554
O11 Tm2 2.412121 1_455
O12 V2 1.933711 1_555
O12 V1 1.933711 1_555
O12 Tm3 2.412121 1_555
O12 Tm0 2.412121 1_545
O13 V1 1.933711 1_555
O13 V0 1.933711 1_555
O13 Tm3 2.412121 1_554
O13 Tm2 2.412121 1_545
