# generated using pymatgen
data_AlF3
_symmetry_space_group_name_H-M   'P 1'
_cell_length_a   10.32658400
_cell_length_b   10.32658400
_cell_length_c   7.27578700
_cell_angle_alpha   90.00000000
_cell_angle_beta   90.00000000
_cell_angle_gamma   90.00000000
_symmetry_Int_Tables_number   1
_chemical_formula_structural   AlF3
_chemical_formula_sum   'Al16 F48'
_cell_volume   775.87782684
_cell_formula_units_Z   16
loop_
 _symmetry_equiv_pos_site_id
 _symmetry_equiv_pos_as_xyz
  1  'x, y, z'
loop_
 _atom_site_type_symbol
 _atom_site_label
 _atom_site_symmetry_multiplicity
 _atom_site_fract_x
 _atom_site_fract_y
 _atom_site_fract_z
 _atom_site_occupancy
  Al  Al0  1  0.50000000  0.33644400  0.67159700  1
  Al  Al1  1  0.50000000  0.66355600  0.67159700  1
  Al  Al2  1  0.16355600  0.00000000  0.67159700  1
  Al  Al3  1  0.83644400  0.00000000  0.67159700  1
  Al  Al4  1  0.33644400  0.50000000  0.32840300  1
  Al  Al5  1  0.00000000  0.16355600  0.32840300  1
  Al  Al6  1  0.00000000  0.83644400  0.32840300  1
  Al  Al7  1  0.66355600  0.50000000  0.32840300  1
  Al  Al8  1  0.50000000  0.00000000  0.58773400  1
  Al  Al9  1  0.00000000  0.50000000  0.41226600  1
  Al  Al10  1  0.50000000  0.00000000  0.09069900  1
  Al  Al11  1  0.00000000  0.50000000  0.90930100  1
  Al  Al12  1  0.25000000  0.75000000  0.00000000  1
  Al  Al13  1  0.25000000  0.25000000  0.00000000  1
  Al  Al14  1  0.75000000  0.75000000  0.00000000  1
  Al  Al15  1  0.75000000  0.25000000  0.00000000  1
  F  F0  1  0.50000000  0.50000000  0.75506300  1
  F  F1  1  0.00000000  0.00000000  0.75506300  1
  F  F2  1  0.00000000  0.00000000  0.24493700  1
  F  F3  1  0.50000000  0.50000000  0.24493700  1
  F  F4  1  0.12343200  0.87656800  0.50000000  1
  F  F5  1  0.37656800  0.37656800  0.50000000  1
  F  F6  1  0.62343200  0.62343200  0.50000000  1
  F  F7  1  0.87656800  0.12343200  0.50000000  1
  F  F8  1  0.37656800  0.62343200  0.50000000  1
  F  F9  1  0.12343200  0.12343200  0.50000000  1
  F  F10  1  0.87656800  0.87656800  0.50000000  1
  F  F11  1  0.62343200  0.37656800  0.50000000  1
  F  F12  1  0.50000000  0.17359400  0.58919500  1
  F  F13  1  0.50000000  0.82640600  0.58919500  1
  F  F14  1  0.32640600  0.00000000  0.58919500  1
  F  F15  1  0.17359400  0.50000000  0.41080500  1
  F  F16  1  0.67359400  0.00000000  0.58919500  1
  F  F17  1  0.87125100  0.62874900  0.90925400  1
  F  F18  1  0.12874900  0.37125100  0.90925400  1
  F  F19  1  0.12874900  0.62874900  0.90925400  1
  F  F20  1  0.62874900  0.87125100  0.09074600  1
  F  F21  1  0.37125100  0.12874900  0.09074600  1
  F  F22  1  0.37125100  0.87125100  0.09074600  1
  F  F23  1  0.62874900  0.12874900  0.09074600  1
  F  F24  1  0.69806300  0.37221100  0.16298700  1
  F  F25  1  0.87221100  0.80193700  0.16298700  1
  F  F26  1  0.12778900  0.19806300  0.16298700  1
  F  F27  1  0.30193700  0.62778900  0.16298700  1
  F  F28  1  0.80193700  0.87221100  0.83701300  1
  F  F29  1  0.19806300  0.12778900  0.83701300  1
  F  F30  1  0.37221100  0.69806300  0.83701300  1
  F  F31  1  0.62778900  0.30193700  0.83701300  1
  F  F32  1  0.80193700  0.12778900  0.83701300  1
  F  F33  1  0.62778900  0.69806300  0.83701300  1
  F  F34  1  0.37221100  0.30193700  0.83701300  1
  F  F35  1  0.19806300  0.87221100  0.83701300  1
  F  F36  1  0.69806300  0.62778900  0.16298700  1
  F  F37  1  0.30193700  0.37221100  0.16298700  1
  F  F38  1  0.12778900  0.80193700  0.16298700  1
  F  F39  1  0.87221100  0.19806300  0.16298700  1
  F  F40  1  0.00000000  0.50000000  0.15861300  1
  F  F41  1  0.50000000  0.00000000  0.84138700  1
  F  F42  1  0.00000000  0.50000000  0.66211000  1
  F  F43  1  0.50000000  0.00000000  0.33789000  1
  F  F44  1  0.82640600  0.50000000  0.41080500  1
  F  F45  1  0.00000000  0.67359400  0.41080500  1
  F  F46  1  0.00000000  0.32640600  0.41080500  1
  F  F47  1  0.87125100  0.37125100  0.90925400  1
loop_
_geom_bond_atom_site_label_1
_geom_bond_atom_site_label_2
_geom_bond_distance
_geom_bond_site_symmetry_2
Al0 F12 1.785360 1_555
Al0 F0 1.794833 1_555
Al0 F31 1.821228 1_555
Al0 F34 1.821228 1_555
Al0 F11 1.831700 1_555
Al0 F5 1.831700 1_555
Al1 F13 1.785360 1_555
Al1 F0 1.794833 1_555
Al1 F33 1.821228 1_555
Al1 F30 1.821228 1_555
Al1 F6 1.831700 1_555
Al1 F8 1.831700 1_555
Al2 F14 1.785360 1_555
Al2 F1 1.794833 1_555
Al2 F29 1.821228 1_555
Al2 F35 1.821228 1_545
Al2 F4 1.831700 1_545
Al2 F9 1.831700 1_555
Al3 F16 1.785360 1_555
Al3 F1 1.794833 1_655
Al3 F32 1.821228 1_555
Al3 F28 1.821228 1_545
Al3 F10 1.831700 1_545
Al3 F7 1.831700 1_555
Al4 F15 1.785360 1_555
Al4 F3 1.794833 1_555
Al4 F27 1.821228 1_555
Al4 F37 1.821228 1_555
Al4 F8 1.831700 1_555
Al4 F5 1.831700 1_555
Al5 F46 1.785360 1_555
Al5 F2 1.794833 1_555
Al5 F26 1.821228 1_555
Al5 F39 1.821228 1_455
Al5 F7 1.831700 1_455
Al5 F9 1.831700 1_555
Al6 F45 1.785360 1_555
Al6 F2 1.794833 1_565
Al6 F38 1.821228 1_555
Al6 F25 1.821228 1_455
Al6 F10 1.831700 1_455
Al6 F4 1.831700 1_555
Al7 F44 1.785360 1_555
Al7 F3 1.794833 1_555
Al7 F36 1.821228 1_555
Al7 F24 1.821228 1_555
Al7 F6 1.831700 1_555
Al7 F11 1.831700 1_555
Al8 F16 1.792665 1_555
Al8 F12 1.792665 1_555
Al8 F14 1.792665 1_555
Al8 F13 1.792665 1_545
Al8 F43 1.817812 1_555
Al8 F41 1.845525 1_555
Al9 F45 1.792665 1_555
Al9 F15 1.792665 1_555
Al9 F46 1.792665 1_555
Al9 F44 1.792665 1_455
Al9 F42 1.817812 1_555
Al9 F40 1.845525 1_555
Al10 F43 1.798509 1_555
Al10 F41 1.813941 1_554
Al10 F20 1.880250 1_545
Al10 F23 1.880250 1_555
Al10 F22 1.880250 1_545
Al10 F21 1.880250 1_555
Al11 F42 1.798509 1_555
Al11 F40 1.813941 1_556
Al11 F17 1.880250 1_455
Al11 F18 1.880250 1_555
Al11 F47 1.880250 1_455
Al11 F19 1.880250 1_555
Al12 F30 1.812902 1_554
Al12 F35 1.812902 1_554
Al12 F27 1.812902 1_555
Al12 F38 1.812902 1_555
Al12 F19 1.889836 1_554
Al12 F22 1.889836 1_555
Al13 F37 1.812902 1_555
Al13 F34 1.812902 1_554
Al13 F29 1.812902 1_554
Al13 F26 1.812902 1_555
Al13 F21 1.889836 1_555
Al13 F18 1.889836 1_554
Al14 F28 1.812902 1_554
Al14 F25 1.812902 1_555
Al14 F33 1.812902 1_554
Al14 F36 1.812902 1_555
Al14 F17 1.889836 1_554
Al14 F20 1.889836 1_555
Al15 F24 1.812902 1_555
Al15 F39 1.812902 1_555
Al15 F31 1.812902 1_554
Al15 F32 1.812902 1_554
Al15 F23 1.889836 1_555
Al15 F47 1.889836 1_554
