# generated using pymatgen
data_Cr2CuO7
_symmetry_space_group_name_H-M   'P 1'
_cell_length_a   9.21364900
_cell_length_b   11.20929100
_cell_length_c   10.15508373
_cell_angle_alpha   94.24236840
_cell_angle_beta   90.00000000
_cell_angle_gamma   90.00000000
_symmetry_Int_Tables_number   1
_chemical_formula_structural   Cr2CuO7
_chemical_formula_sum   'Cr12 Cu6 O42'
_cell_volume   1045.92787277
_cell_formula_units_Z   6
loop_
 _symmetry_equiv_pos_site_id
 _symmetry_equiv_pos_as_xyz
  1  'x, y, z'
loop_
 _atom_site_type_symbol
 _atom_site_label
 _atom_site_symmetry_multiplicity
 _atom_site_fract_x
 _atom_site_fract_y
 _atom_site_fract_z
 _atom_site_occupancy
  Cr  Cr0  1  0.20790800  0.15391000  0.29123000  1
  Cr  Cr1  1  0.75773300  0.17398200  0.37824400  1
  Cr  Cr2  1  0.24226700  0.17398200  0.87824400  1
  Cr  Cr3  1  0.79209200  0.15391000  0.79123000  1
  Cr  Cr4  1  0.29145700  0.46511800  0.95876700  1
  Cr  Cr5  1  0.75773300  0.82601800  0.12175600  1
  Cr  Cr6  1  0.70854300  0.46511800  0.45876700  1
  Cr  Cr7  1  0.24226700  0.82601800  0.62175600  1
  Cr  Cr8  1  0.29145700  0.53488200  0.54123300  1
  Cr  Cr9  1  0.70854300  0.53488200  0.04123300  1
  Cr  Cr10  1  0.79209200  0.84609000  0.70877000  1
  Cr  Cr11  1  0.20790800  0.84609000  0.20877000  1
  Cu  Cu0  1  0.93788800  0.80987100  0.41197000  1
  Cu  Cu1  1  0.06211200  0.19012900  0.58803000  1
  Cu  Cu2  1  0.43839000  0.50000000  0.25000000  1
  Cu  Cu3  1  0.93788800  0.19012900  0.08803000  1
  Cu  Cu4  1  0.56161000  0.50000000  0.75000000  1
  Cu  Cu5  1  0.06211200  0.80987100  0.91197000  1
  O  O0  1  0.79065400  0.18418900  0.95522400  1
  O  O1  1  0.78868900  0.82990800  0.28419000  1
  O  O2  1  0.82619400  0.00000000  0.75000000  1
  O  O3  1  0.86503300  0.50530600  0.09846500  1
  O  O4  1  0.35182400  0.93080900  0.59240400  1
  O  O5  1  0.92377200  0.23068100  0.72201100  1
  O  O6  1  0.32781400  0.31093200  0.93395600  1
  O  O7  1  0.13496700  0.50530600  0.59846500  1
  O  O8  1  0.71095900  0.49467400  0.87879400  1
  O  O9  1  0.35182400  0.06919100  0.90759600  1
  O  O10  1  0.71095900  0.50532600  0.62120600  1
  O  O11  1  0.41896800  0.53961100  0.88052700  1
  O  O12  1  0.91136200  0.84168900  0.03829000  1
  O  O13  1  0.07622800  0.23068100  0.22201100  1
  O  O14  1  0.67218600  0.68906800  0.06604400  1
  O  O15  1  0.32781400  0.68906800  0.56604400  1
  O  O16  1  0.92377200  0.76931900  0.77798900  1
  O  O17  1  0.64817600  0.06919100  0.40759600  1
  O  O18  1  0.20934600  0.18418900  0.45522400  1
  O  O19  1  0.58103200  0.46038900  0.11947300  1
  O  O20  1  0.36164300  0.80836600  0.26522100  1
  O  O21  1  0.28904100  0.50532600  0.12120600  1
  O  O22  1  0.08863800  0.84168900  0.53829000  1
  O  O23  1  0.28904100  0.49467400  0.37879400  1
  O  O24  1  0.86503300  0.49469400  0.40153500  1
  O  O25  1  0.58103200  0.53961100  0.38052700  1
  O  O26  1  0.13496700  0.49469400  0.90153500  1
  O  O27  1  0.63835700  0.80836600  0.76522100  1
  O  O28  1  0.63835700  0.19163400  0.73477900  1
  O  O29  1  0.08863800  0.15831100  0.96171000  1
  O  O30  1  0.07622800  0.76931900  0.27798900  1
  O  O31  1  0.79065400  0.81581100  0.54477600  1
  O  O32  1  0.17380600  0.00000000  0.25000000  1
  O  O33  1  0.21131100  0.82990800  0.78419000  1
  O  O34  1  0.64817600  0.93080900  0.09240400  1
  O  O35  1  0.91136200  0.15831100  0.46171000  1
  O  O36  1  0.20934600  0.81581100  0.04477600  1
  O  O37  1  0.78868900  0.17009200  0.21581000  1
  O  O38  1  0.41896800  0.46038900  0.61947300  1
  O  O39  1  0.67218600  0.31093200  0.43395600  1
  O  O40  1  0.21131100  0.17009200  0.71581000  1
  O  O41  1  0.36164300  0.19163400  0.23477900  1
loop_
_geom_bond_atom_site_label_1
_geom_bond_atom_site_label_2
_geom_bond_distance
_geom_bond_site_symmetry_2
Cr0 O41 1.596768 1_555
Cr0 O13 1.672162 1_555
Cr0 O18 1.674876 1_555
Cr0 O32 1.773005 1_555
Cr1 O17 1.593530 1_555
Cr1 O35 1.665807 1_555
Cr1 O37 1.671395 1_555
Cr1 O39 1.780286 1_555
Cr2 O9 1.593530 1_555
Cr2 O29 1.665807 1_555
Cr2 O40 1.671395 1_555
Cr2 O6 1.780286 1_555
Cr3 O28 1.596768 1_555
Cr3 O5 1.672162 1_555
Cr3 O0 1.674876 1_555
Cr3 O2 1.773005 1_555
Cr4 O26 1.598474 1_555
Cr4 O11 1.675393 1_555
Cr4 O21 1.677722 1_556
Cr4 O6 1.760211 1_555
Cr5 O34 1.593530 1_555
Cr5 O12 1.665807 1_555
Cr5 O1 1.671395 1_555
Cr5 O14 1.780286 1_555
Cr6 O24 1.598474 1_555
Cr6 O25 1.675393 1_555
Cr6 O10 1.677722 1_555
Cr6 O39 1.760211 1_555
Cr7 O4 1.593530 1_555
Cr7 O22 1.665807 1_555
Cr7 O33 1.671395 1_555
Cr7 O15 1.780286 1_555
Cr8 O7 1.598474 1_555
Cr8 O38 1.675393 1_555
Cr8 O23 1.677722 1_555
Cr8 O15 1.760211 1_555
Cr9 O3 1.598474 1_555
Cr9 O19 1.675393 1_555
Cr9 O8 1.677722 1_554
Cr9 O14 1.760211 1_555
Cr10 O27 1.596768 1_555
Cr10 O16 1.672162 1_555
Cr10 O31 1.674876 1_555
Cr10 O2 1.773005 1_565
Cr11 O20 1.596768 1_555
Cr11 O30 1.672162 1_555
Cr11 O36 1.674876 1_555
Cr11 O32 1.773005 1_565
Cu0 O30 1.894985 1_655
Cu0 O22 1.906376 1_655
Cu0 O31 1.910571 1_555
Cu0 O1 1.914963 1_555
Cu1 O5 1.894985 1_455
Cu1 O35 1.906376 1_455
Cu1 O18 1.910571 1_555
Cu1 O40 1.914963 1_555
Cu2 O25 1.895868 1_555
Cu2 O19 1.895868 1_555
Cu2 O23 1.902437 1_555
Cu2 O21 1.902437 1_555
Cu3 O13 1.894985 1_655
Cu3 O29 1.906376 1_654
Cu3 O0 1.910571 1_554
Cu3 O37 1.914963 1_555
Cu4 O11 1.895868 1_555
Cu4 O38 1.895868 1_555
Cu4 O8 1.902437 1_555
Cu4 O10 1.902437 1_555
Cu5 O16 1.894985 1_455
Cu5 O12 1.906376 1_456
Cu5 O36 1.910571 1_556
Cu5 O33 1.914963 1_555
