# generated using pymatgen
data_NaCe(GaS2)4
_symmetry_space_group_name_H-M   'P 1'
_cell_length_a   12.17799346
_cell_length_b   12.17799346
_cell_length_c   12.06487879
_cell_angle_alpha   105.07094500
_cell_angle_beta   105.07094500
_cell_angle_gamma   118.99940335
_symmetry_Int_Tables_number   1
_chemical_formula_structural   NaCe(GaS2)4
_chemical_formula_sum   'Na4 Ce4 Ga16 S32'
_cell_volume   1343.97488598
_cell_formula_units_Z   4
loop_
 _symmetry_equiv_pos_site_id
 _symmetry_equiv_pos_as_xyz
  1  'x, y, z'
loop_
 _atom_site_type_symbol
 _atom_site_label
 _atom_site_symmetry_multiplicity
 _atom_site_fract_x
 _atom_site_fract_y
 _atom_site_fract_z
 _atom_site_occupancy
  Na  Na0  1  0.12103319  0.37896681  0.25000000  1
  Na  Na1  1  0.62896681  0.87103319  0.25000000  1
  Na  Na2  1  0.87896681  0.62103319  0.75000000  1
  Na  Na3  1  0.37103319  0.12896681  0.75000000  1
  Ce  Ce0  1  0.87500000  0.62500000  0.25000000  1
  Ce  Ce1  1  0.12500000  0.37500000  0.75000000  1
  Ce  Ce2  1  0.37500000  0.12500000  0.25000000  1
  Ce  Ce3  1  0.62500000  0.87500000  0.75000000  1
  Ga  Ga0  1  0.38207857  0.39012103  0.52176441  1
  Ga  Ga1  1  0.10987897  0.11792143  0.97823559  1
  Ga  Ga2  1  0.63968584  0.13164338  0.52176441  1
  Ga  Ga3  1  0.36835662  0.86031416  0.97823559  1
  Ga  Ga4  1  0.61792143  0.60987897  0.47823559  1
  Ga  Ga5  1  0.89012103  0.88207857  0.02176441  1
  Ga  Ga6  1  0.36031416  0.86835662  0.47823559  1
  Ga  Ga7  1  0.63164338  0.13968584  0.02176441  1
  Ga  Ga8  1  0.47052911  0.46970943  0.10995945  1
  Ga  Ga9  1  0.03029057  0.02947089  0.39004055  1
  Ga  Ga10  1  0.13943035  0.64025002  0.10995945  1
  Ga  Ga11  1  0.85974998  0.36056965  0.39004055  1
  Ga  Ga12  1  0.52947089  0.53029057  0.89004055  1
  Ga  Ga13  1  0.96970943  0.97052911  0.60995945  1
  Ga  Ga14  1  0.86056965  0.35974998  0.89004055  1
  Ga  Ga15  1  0.14025002  0.63943035  0.60995945  1
  S  S0  1  0.15378028  0.66304619  0.31243368  1
  S  S1  1  0.83695381  0.34621972  0.18756632  1
  S  S2  1  0.65865340  0.64938749  0.31243368  1
  S  S3  1  0.85061251  0.84134660  0.18756632  1
  S  S4  1  0.84621972  0.33695381  0.68756632  1
  S  S5  1  0.16304619  0.65378028  0.81243368  1
  S  S6  1  0.34134660  0.35061251  0.68756632  1
  S  S7  1  0.14938749  0.15865340  0.81243368  1
  S  S8  1  0.18430597  0.18508212  0.33862313  1
  S  S9  1  0.31491788  0.31569403  0.16137687  1
  S  S10  1  0.65431715  0.15354100  0.33862313  1
  S  S11  1  0.34645900  0.84568285  0.16137687  1
  S  S12  1  0.81569403  0.81491788  0.66137687  1
  S  S13  1  0.68508212  0.68430597  0.83862313  1
  S  S14  1  0.34568285  0.84645900  0.66137687  1
  S  S15  1  0.65354100  0.15431715  0.83862313  1
  S  S16  1  0.41218153  0.07784870  0.00571918  1
  S  S17  1  0.42215130  0.08781847  0.49428082  1
  S  S18  1  0.09353765  0.92787048  0.00571918  1
  S  S19  1  0.57212952  0.40646235  0.49428082  1
  S  S20  1  0.58781847  0.92215130  0.99428082  1
  S  S21  1  0.57784870  0.91218153  0.50571918  1
  S  S22  1  0.90646235  0.07212952  0.99428082  1
  S  S23  1  0.42787048  0.59353765  0.50571918  1
  S  S24  1  0.08179082  0.41529951  0.50500666  1
  S  S25  1  0.08470049  0.41820918  0.99499334  1
  S  S26  1  0.92321584  0.08970716  0.50500666  1
  S  S27  1  0.41029284  0.57678416  0.99499334  1
  S  S28  1  0.91820918  0.58470049  0.49499334  1
  S  S29  1  0.91529951  0.58179082  0.00500666  1
  S  S30  1  0.07678416  0.91029284  0.49499334  1
  S  S31  1  0.58970716  0.42321584  0.00500666  1
loop_
_geom_bond_atom_site_label_1
_geom_bond_atom_site_label_2
_geom_bond_distance
_geom_bond_site_symmetry_2
Na0 S0 3.137775 1_555
Na0 S1 3.137775 1_455
Na0 S9 3.155999 1_555
Na0 S8 3.155999 1_555
Na0 S25 3.186139 1_554
Na0 S24 3.186139 1_555
Na0 S22 3.264120 1_454
Na0 S23 3.264120 1_555
Na1 S2 3.137775 1_555
Na1 S3 3.137775 1_555
Na1 S10 3.155999 1_565
Na1 S11 3.155999 1_555
Na1 S26 3.186139 1_565
Na1 S27 3.186139 1_554
Na1 S20 3.264120 1_554
Na1 S21 3.264120 1_555
Na2 S5 3.137775 1_655
Na2 S4 3.137775 1_555
Na2 S12 3.155999 1_555
Na2 S13 3.155999 1_555
Na2 S28 3.186139 1_555
Na2 S29 3.186139 1_556
Na2 S19 3.264120 1_555
Na2 S18 3.264120 1_656
Na3 S6 3.137775 1_555
Na3 S7 3.137775 1_555
Na3 S15 3.155999 1_555
Na3 S14 3.155999 1_545
Na3 S31 3.186139 1_556
Na3 S30 3.186139 1_545
Na3 S17 3.264120 1_555
Na3 S16 3.264120 1_556
Ce0 S0 3.044907 1_655
Ce0 S3 3.044907 1_555
Ce0 S1 3.044907 1_555
Ce0 S2 3.044907 1_555
Ce0 S31 3.074168 1_555
Ce0 S30 3.074168 1_655
Ce0 S28 3.074168 1_555
Ce0 S29 3.074168 1_555
Ce1 S6 3.044907 1_555
Ce1 S4 3.044907 1_455
Ce1 S5 3.044907 1_555
Ce1 S7 3.044907 1_555
Ce1 S26 3.074168 1_455
Ce1 S27 3.074168 1_555
Ce1 S24 3.074168 1_555
Ce1 S25 3.074168 1_555
Ce2 S17 3.047434 1_555
Ce2 S18 3.047434 1_545
Ce2 S19 3.047434 1_555
Ce2 S16 3.047434 1_555
Ce2 S11 3.098946 1_545
Ce2 S10 3.098946 1_555
Ce2 S8 3.098946 1_555
Ce2 S9 3.098946 1_555
Ce3 S21 3.047434 1_555
Ce3 S22 3.047434 1_565
Ce3 S23 3.047434 1_555
Ce3 S20 3.047434 1_555
Ce3 S14 3.098946 1_555
Ce3 S15 3.098946 1_565
Ce3 S13 3.098946 1_555
Ce3 S12 3.098946 1_555
Ga0 S6 2.294376 1_555
Ga0 S8 2.334561 1_555
Ga0 S23 2.334757 1_555
Ga0 S19 2.343716 1_555
Ga1 S7 2.294376 1_555
Ga1 S9 2.334561 1_556
Ga1 S22 2.334757 1_455
Ga1 S18 2.343716 1_546
Ga2 S4 2.294376 1_555
Ga2 S10 2.334561 1_555
Ga2 S21 2.334757 1_545
Ga2 S17 2.343716 1_555
Ga3 S5 2.294376 1_555
Ga3 S11 2.334561 1_556
Ga3 S20 2.334757 1_555
Ga3 S16 2.343716 1_566
Ga4 S2 2.294376 1_555
Ga4 S12 2.334561 1_555
Ga4 S19 2.334757 1_555
Ga4 S23 2.343716 1_555
Ga5 S3 2.294376 1_555
Ga5 S13 2.334561 1_554
Ga5 S18 2.334757 1_655
Ga5 S22 2.343716 1_564
Ga6 S0 2.294376 1_555
Ga6 S14 2.334561 1_555
Ga6 S17 2.334757 1_565
Ga6 S21 2.343716 1_555
Ga7 S1 2.294376 1_555
Ga7 S15 2.334561 1_554
Ga7 S16 2.334757 1_555
Ga7 S20 2.343716 1_544
Ga8 S9 2.294335 1_555
Ga8 S31 2.325940 1_555
Ga8 S2 2.335233 1_555
Ga8 S27 2.345464 1_554
Ga9 S8 2.294335 1_555
Ga9 S30 2.325940 1_545
Ga9 S3 2.335233 1_445
Ga9 S26 2.345464 1_455
Ga10 S11 2.294335 1_555
Ga10 S29 2.325940 1_455
Ga10 S0 2.335233 1_555
Ga10 S25 2.345464 1_554
Ga11 S10 2.294335 1_555
Ga11 S28 2.325940 1_555
Ga11 S1 2.335233 1_555
Ga11 S24 2.345464 1_655
Ga12 S13 2.294335 1_555
Ga12 S27 2.325940 1_555
Ga12 S6 2.335233 1_555
Ga12 S31 2.345464 1_556
Ga13 S12 2.294335 1_555
Ga13 S26 2.325940 1_565
Ga13 S7 2.335233 1_665
Ga13 S30 2.345464 1_655
Ga14 S15 2.294335 1_555
Ga14 S25 2.325940 1_655
Ga14 S4 2.335233 1_555
Ga14 S29 2.345464 1_556
Ga15 S14 2.294335 1_555
Ga15 S24 2.325940 1_555
Ga15 S5 2.335233 1_555
Ga15 S28 2.345464 1_455
