# generated using pymatgen
data_TmAgS2
_symmetry_space_group_name_H-M   'P 1'
_cell_length_a   6.59794355
_cell_length_b   6.59794355
_cell_length_c   6.59794378
_cell_angle_alpha   35.07498471
_cell_angle_beta   35.07498471
_cell_angle_gamma   35.07498284
_symmetry_Int_Tables_number   1
_chemical_formula_structural   TmAgS2
_chemical_formula_sum   'Tm1 Ag1 S2'
_cell_volume   84.69908106
_cell_formula_units_Z   1
loop_
 _symmetry_equiv_pos_site_id
 _symmetry_equiv_pos_as_xyz
  1  'x, y, z'
loop_
 _atom_site_type_symbol
 _atom_site_label
 _atom_site_symmetry_multiplicity
 _atom_site_fract_x
 _atom_site_fract_y
 _atom_site_fract_z
 _atom_site_occupancy
  Tm  Tm0  1  0.50000000  0.50000000  0.50000000  1
  Ag  Ag0  1  0.00000000  0.00000000  0.00000000  1
  S  S0  1  0.24544100  0.24544100  0.24544100  1
  S  S1  1  0.75455900  0.75455900  0.75455900  1
loop_
_geom_bond_atom_site_label_1
_geom_bond_atom_site_label_2
_geom_bond_distance
_geom_bond_site_symmetry_2
Ag0 S1 2.816128 1_544
Ag0 S0 2.816128 1_545
Ag0 S0 2.816128 1_455
Ag0 S1 2.816128 1_454
Ag0 S0 2.816129 1_554
Ag0 S1 2.816129 1_445
S0 Tm0 2.721629 1_545
S0 Tm0 2.721629 1_455
S0 Tm0 2.721629 1_554
S1 Tm0 2.721629 1_565
S1 Tm0 2.721629 1_655
S1 Tm0 2.721629 1_556
