# generated using pymatgen
data_La3Lu2(GaO4)3
_symmetry_space_group_name_H-M   'P 1'
_cell_length_a   11.33052732
_cell_length_b   11.33052732
_cell_length_c   11.33052732
_cell_angle_alpha   109.47122063
_cell_angle_beta   109.47122063
_cell_angle_gamma   109.47122063
_symmetry_Int_Tables_number   1
_chemical_formula_structural   La3Lu2(GaO4)3
_chemical_formula_sum   'La12 Lu8 Ga12 O48'
_cell_volume   1119.76909355
_cell_formula_units_Z   4
loop_
 _symmetry_equiv_pos_site_id
 _symmetry_equiv_pos_as_xyz
  1  'x, y, z'
loop_
 _atom_site_type_symbol
 _atom_site_label
 _atom_site_symmetry_multiplicity
 _atom_site_fract_x
 _atom_site_fract_y
 _atom_site_fract_z
 _atom_site_occupancy
  La  La0  1  0.25000000  0.37500000  0.12500000  1
  La  La1  1  0.75000000  0.62500000  0.87500000  1
  La  La2  1  0.75000000  0.12500000  0.37500000  1
  La  La3  1  0.12500000  0.25000000  0.37500000  1
  La  La4  1  0.37500000  0.75000000  0.12500000  1
  La  La5  1  0.25000000  0.87500000  0.62500000  1
  La  La6  1  0.87500000  0.75000000  0.62500000  1
  La  La7  1  0.62500000  0.25000000  0.87500000  1
  La  La8  1  0.37500000  0.12500000  0.25000000  1
  La  La9  1  0.62500000  0.87500000  0.75000000  1
  La  La10  1  0.12500000  0.37500000  0.75000000  1
  La  La11  1  0.87500000  0.62500000  0.25000000  1
  Lu  Lu0  1  0.00000000  0.00000000  0.00000000  1
  Lu  Lu1  1  0.50000000  0.00000000  0.50000000  1
  Lu  Lu2  1  0.00000000  0.50000000  0.50000000  1
  Lu  Lu3  1  0.50000000  0.00000000  0.00000000  1
  Lu  Lu4  1  0.50000000  0.50000000  0.00000000  1
  Lu  Lu5  1  0.50000000  0.50000000  0.50000000  1
  Lu  Lu6  1  0.00000000  0.00000000  0.50000000  1
  Lu  Lu7  1  0.00000000  0.50000000  0.00000000  1
  Ga  Ga0  1  0.25000000  0.62500000  0.37500000  1
  Ga  Ga1  1  0.75000000  0.37500000  0.62500000  1
  Ga  Ga2  1  0.75000000  0.87500000  0.12500000  1
  Ga  Ga3  1  0.37500000  0.25000000  0.62500000  1
  Ga  Ga4  1  0.62500000  0.75000000  0.37500000  1
  Ga  Ga5  1  0.25000000  0.12500000  0.87500000  1
  Ga  Ga6  1  0.12500000  0.75000000  0.87500000  1
  Ga  Ga7  1  0.87500000  0.25000000  0.12500000  1
  Ga  Ga8  1  0.62500000  0.37500000  0.25000000  1
  Ga  Ga9  1  0.37500000  0.62500000  0.75000000  1
  Ga  Ga10  1  0.87500000  0.12500000  0.75000000  1
  Ga  Ga11  1  0.12500000  0.87500000  0.25000000  1
  O  O0  1  0.47605400  0.37484300  0.28992700  1
  O  O1  1  0.52394600  0.62515700  0.71007300  1
  O  O2  1  0.58491600  0.18612700  0.21007300  1
  O  O3  1  0.91508400  0.12515700  0.60121100  1
  O  O4  1  0.28992700  0.47605400  0.37484300  1
  O  O5  1  0.31387300  0.91508400  0.28992700  1
  O  O6  1  0.41508400  0.81387300  0.78992700  1
  O  O7  1  0.08491600  0.87484300  0.39878900  1
  O  O8  1  0.71007300  0.52394600  0.62515700  1
  O  O9  1  0.68612700  0.08491600  0.71007300  1
  O  O10  1  0.02394600  0.31387300  0.89878900  1
  O  O11  1  0.21007300  0.58491600  0.18612700  1
  O  O12  1  0.12515700  0.02394600  0.21007300  1
  O  O13  1  0.97605400  0.68612700  0.10121100  1
  O  O14  1  0.78992700  0.41508400  0.81387300  1
  O  O15  1  0.87484300  0.97605400  0.78992700  1
  O  O16  1  0.60121100  0.91508400  0.12515700  1
  O  O17  1  0.18612700  0.47605400  0.60121100  1
  O  O18  1  0.39878900  0.08491600  0.87484300  1
  O  O19  1  0.81387300  0.52394600  0.39878900  1
  O  O20  1  0.89878900  0.02394600  0.31387300  1
  O  O21  1  0.37484300  0.58491600  0.89878900  1
  O  O22  1  0.10121100  0.97605400  0.68612700  1
  O  O23  1  0.62515700  0.41508400  0.10121100  1
  O  O24  1  0.37484300  0.28992700  0.47605400  1
  O  O25  1  0.58491600  0.89878900  0.37484300  1
  O  O26  1  0.62515700  0.71007300  0.52394600  1
  O  O27  1  0.41508400  0.10121100  0.62515700  1
  O  O28  1  0.12515700  0.60121100  0.91508400  1
  O  O29  1  0.02394600  0.21007300  0.12515700  1
  O  O30  1  0.87484300  0.39878900  0.08491600  1
  O  O31  1  0.97605400  0.78992700  0.87484300  1
  O  O32  1  0.31387300  0.89878900  0.02394600  1
  O  O33  1  0.91508400  0.28992700  0.31387300  1
  O  O34  1  0.68612700  0.10121100  0.97605400  1
  O  O35  1  0.08491600  0.71007300  0.68612700  1
  O  O36  1  0.18612700  0.21007300  0.58491600  1
  O  O37  1  0.47605400  0.60121100  0.18612700  1
  O  O38  1  0.81387300  0.78992700  0.41508400  1
  O  O39  1  0.52394600  0.39878900  0.81387300  1
  O  O40  1  0.28992700  0.31387300  0.91508400  1
  O  O41  1  0.71007300  0.68612700  0.08491600  1
  O  O42  1  0.21007300  0.12515700  0.02394600  1
  O  O43  1  0.78992700  0.87484300  0.97605400  1
  O  O44  1  0.89878900  0.37484300  0.58491600  1
  O  O45  1  0.10121100  0.62515700  0.41508400  1
  O  O46  1  0.60121100  0.18612700  0.47605400  1
  O  O47  1  0.39878900  0.81387300  0.52394600  1
loop_
_geom_bond_atom_site_label_1
_geom_bond_atom_site_label_2
_geom_bond_distance
_geom_bond_site_symmetry_2
La0 O42 2.483833 1_555
La0 O40 2.483833 1_554
La0 O4 2.483833 1_555
La0 O11 2.483833 1_555
La0 O37 2.620448 1_555
La0 O0 2.620448 1_555
La0 O10 2.620448 1_554
La0 O29 2.620448 1_555
La1 O41 2.483833 1_556
La1 O14 2.483833 1_555
La1 O43 2.483833 1_555
La1 O8 2.483833 1_555
La1 O1 2.620448 1_555
La1 O39 2.620448 1_555
La1 O31 2.620448 1_555
La1 O13 2.620448 1_556
La2 O20 2.483833 1_555
La2 O16 2.483833 1_545
La2 O44 2.483833 1_555
La2 O46 2.483833 1_555
La2 O3 2.620448 1_555
La2 O33 2.620448 1_555
La2 O25 2.620448 1_545
La2 O2 2.620448 1_555
La3 O29 2.483833 1_555
La3 O24 2.483833 1_555
La3 O33 2.483833 1_455
La3 O36 2.483833 1_555
La3 O17 2.620448 1_555
La3 O4 2.620448 1_555
La3 O20 2.620448 1_455
La3 O12 2.620448 1_555
La4 O32 2.483833 1_555
La4 O25 2.483833 1_555
La4 O28 2.483833 1_554
La4 O37 2.483833 1_555
La4 O16 2.620448 1_555
La4 O5 2.620448 1_555
La4 O21 2.620448 1_554
La4 O11 2.620448 1_555
La5 O18 2.483833 1_565
La5 O22 2.483833 1_555
La5 O47 2.483833 1_555
La5 O45 2.483833 1_555
La5 O6 2.620448 1_555
La5 O7 2.620448 1_555
La5 O35 2.620448 1_555
La5 O27 2.620448 1_565
La6 O35 2.483833 1_655
La6 O38 2.483833 1_555
La6 O31 2.483833 1_555
La6 O26 2.483833 1_555
La6 O8 2.620448 1_555
La6 O19 2.620448 1_555
La6 O15 2.620448 1_555
La6 O22 2.620448 1_655
La7 O30 2.483833 1_556
La7 O34 2.483833 1_555
La7 O39 2.483833 1_555
La7 O27 2.483833 1_555
La7 O14 2.620448 1_555
La7 O18 2.620448 1_555
La7 O9 2.620448 1_555
La7 O23 2.620448 1_556
La8 O12 2.483833 1_555
La8 O0 2.483833 1_555
La8 O5 2.483833 1_545
La8 O2 2.483833 1_555
La8 O46 2.620448 1_555
La8 O24 2.620448 1_555
La8 O32 2.620448 1_545
La8 O42 2.620448 1_555
La9 O9 2.483833 1_565
La9 O6 2.483833 1_555
La9 O15 2.483833 1_555
La9 O1 2.483833 1_555
La9 O47 2.620448 1_555
La9 O26 2.620448 1_555
La9 O43 2.620448 1_555
La9 O34 2.620448 1_565
La10 O10 2.483833 1_555
La10 O3 2.483833 1_455
La10 O21 2.483833 1_555
La10 O17 2.483833 1_555
La10 O28 2.620448 1_555
La10 O40 2.620448 1_555
La10 O44 2.620448 1_455
La10 O36 2.620448 1_555
La11 O7 2.483833 1_655
La11 O13 2.483833 1_555
La11 O19 2.483833 1_555
La11 O23 2.483833 1_555
La11 O38 2.620448 1_555
La11 O30 2.620448 1_555
La11 O41 2.620448 1_555
La11 O45 2.620448 1_655
Lu0 O29 2.193816 1_555
Lu0 O42 2.193816 1_555
Lu0 O12 2.193816 1_555
Lu0 O15 2.193816 1_444
Lu0 O43 2.193816 1_444
Lu0 O31 2.193816 1_444
Lu1 O46 2.193816 1_555
Lu1 O9 2.193816 1_555
Lu1 O27 2.193816 1_555
Lu1 O47 2.193816 1_545
Lu1 O25 2.193816 1_545
Lu1 O5 2.193816 1_545
Lu2 O17 2.193816 1_555
Lu2 O35 2.193816 1_555
Lu2 O45 2.193816 1_555
Lu2 O33 2.193816 1_455
Lu2 O19 2.193816 1_455
Lu2 O44 2.193816 1_455
Lu3 O34 2.193816 1_554
Lu3 O2 2.193816 1_555
Lu3 O16 2.193816 1_545
Lu3 O18 2.193816 1_554
Lu3 O32 2.193816 1_545
Lu3 O6 2.193816 1_544
Lu4 O37 2.193816 1_555
Lu4 O41 2.193816 1_555
Lu4 O23 2.193816 1_555
Lu4 O39 2.193816 1_554
Lu4 O40 2.193816 1_554
Lu4 O21 2.193816 1_554
Lu5 O1 2.193816 1_555
Lu5 O8 2.193816 1_555
Lu5 O26 2.193816 1_555
Lu5 O4 2.193816 1_555
Lu5 O24 2.193816 1_555
Lu5 O0 2.193816 1_555
Lu6 O22 2.193816 1_545
Lu6 O36 2.193816 1_555
Lu6 O3 2.193816 1_455
Lu6 O7 2.193816 1_545
Lu6 O20 2.193816 1_455
Lu6 O38 2.193816 1_445
Lu7 O13 2.193816 1_455
Lu7 O11 2.193816 1_555
Lu7 O28 2.193816 1_554
Lu7 O30 2.193816 1_455
Lu7 O10 2.193816 1_554
Lu7 O14 2.193816 1_454
Ga0 O11 1.886876 1_555
Ga0 O47 1.886876 1_555
Ga0 O45 1.886876 1_555
Ga0 O4 1.886876 1_555
Ga1 O44 1.886876 1_555
Ga1 O8 1.886876 1_555
Ga1 O14 1.886876 1_555
Ga1 O46 1.886876 1_555
Ga2 O43 1.886876 1_554
Ga2 O20 1.886876 1_565
Ga2 O41 1.886876 1_555
Ga2 O16 1.886876 1_555
Ga3 O36 1.886876 1_555
Ga3 O39 1.886876 1_555
Ga3 O27 1.886876 1_555
Ga3 O24 1.886876 1_555
Ga4 O25 1.886876 1_555
Ga4 O26 1.886876 1_555
Ga4 O38 1.886876 1_555
Ga4 O37 1.886876 1_555
Ga5 O40 1.886876 1_555
Ga5 O22 1.886876 1_545
Ga5 O42 1.886876 1_556
Ga5 O18 1.886876 1_555
Ga6 O31 1.886876 1_455
Ga6 O32 1.886876 1_556
Ga6 O35 1.886876 1_555
Ga6 O28 1.886876 1_555
Ga7 O33 1.886876 1_555
Ga7 O34 1.886876 1_554
Ga7 O29 1.886876 1_655
Ga7 O30 1.886876 1_555
Ga8 O2 1.886876 1_555
Ga8 O19 1.886876 1_555
Ga8 O23 1.886876 1_555
Ga8 O0 1.886876 1_555
Ga9 O21 1.886876 1_555
Ga9 O1 1.886876 1_555
Ga9 O6 1.886876 1_555
Ga9 O17 1.886876 1_555
Ga10 O15 1.886876 1_545
Ga10 O10 1.886876 1_655
Ga10 O9 1.886876 1_555
Ga10 O3 1.886876 1_555
Ga11 O5 1.886876 1_555
Ga11 O13 1.886876 1_455
Ga11 O12 1.886876 1_565
Ga11 O7 1.886876 1_555
