# generated using pymatgen
data_Zn3(PO6)2
_symmetry_space_group_name_H-M   'P 1'
_cell_length_a   4.95423800
_cell_length_b   10.97606100
_cell_length_c   17.54147900
_cell_angle_alpha   90.00000000
_cell_angle_beta   90.00000000
_cell_angle_gamma   90.00000000
_symmetry_Int_Tables_number   1
_chemical_formula_structural   Zn3(PO6)2
_chemical_formula_sum   'Zn12 P8 O48'
_cell_volume   953.87086952
_cell_formula_units_Z   4
loop_
 _symmetry_equiv_pos_site_id
 _symmetry_equiv_pos_as_xyz
  1  'x, y, z'
loop_
 _atom_site_type_symbol
 _atom_site_label
 _atom_site_symmetry_multiplicity
 _atom_site_fract_x
 _atom_site_fract_y
 _atom_site_fract_z
 _atom_site_occupancy
  Zn  Zn0  1  0.33014300  0.64680300  0.99263000  1
  Zn  Zn1  1  0.16985700  0.14680300  0.50737000  1
  Zn  Zn2  1  0.66985700  0.35319700  0.49263000  1
  Zn  Zn3  1  0.83014300  0.85319700  0.00737000  1
  Zn  Zn4  1  0.66985700  0.35319700  0.00737000  1
  Zn  Zn5  1  0.83014300  0.85319700  0.49263000  1
  Zn  Zn6  1  0.33014300  0.64680300  0.50737000  1
  Zn  Zn7  1  0.16985700  0.14680300  0.99263000  1
  Zn  Zn8  1  0.48317800  0.66818100  0.25000000  1
  Zn  Zn9  1  0.01682200  0.16818100  0.25000000  1
  Zn  Zn10  1  0.51682200  0.33181900  0.75000000  1
  Zn  Zn11  1  0.98317800  0.83181900  0.75000000  1
  P  P0  1  0.83436200  0.59866900  0.09424100  1
  P  P1  1  0.66563800  0.09866900  0.40575900  1
  P  P2  1  0.16563800  0.40133100  0.59424100  1
  P  P3  1  0.33436200  0.90133100  0.90575900  1
  P  P4  1  0.16563800  0.40133100  0.90575900  1
  P  P5  1  0.33436200  0.90133100  0.59424100  1
  P  P6  1  0.83436200  0.59866900  0.40575900  1
  P  P7  1  0.66563800  0.09866900  0.09424100  1
  O  O0  1  0.75177800  0.65855400  0.17075000  1
  O  O1  1  0.74822200  0.15855400  0.32925000  1
  O  O2  1  0.24822200  0.34144600  0.67075000  1
  O  O3  1  0.25177800  0.84144600  0.82925000  1
  O  O4  1  0.24822200  0.34144600  0.82925000  1
  O  O5  1  0.25177800  0.84144600  0.67075000  1
  O  O6  1  0.75177800  0.65855400  0.32925000  1
  O  O7  1  0.74822200  0.15855400  0.17075000  1
  O  O8  1  0.14381200  0.60703400  0.08769700  1
  O  O9  1  0.35618800  0.10703400  0.41230300  1
  O  O10  1  0.85618800  0.39296600  0.58769700  1
  O  O11  1  0.64381200  0.89296600  0.91230300  1
  O  O12  1  0.85618800  0.39296600  0.91230300  1
  O  O13  1  0.64381200  0.89296600  0.58769700  1
  O  O14  1  0.14381200  0.60703400  0.41230300  1
  O  O15  1  0.35618800  0.10703400  0.08769700  1
  O  O16  1  0.70816400  0.67988700  0.02786900  1
  O  O17  1  0.79183600  0.17988700  0.47213100  1
  O  O18  1  0.29183600  0.32011300  0.52786900  1
  O  O19  1  0.20816400  0.82011300  0.97213100  1
  O  O20  1  0.29183600  0.32011300  0.97213100  1
  O  O21  1  0.20816400  0.82011300  0.52786900  1
  O  O22  1  0.70816400  0.67988700  0.47213100  1
  O  O23  1  0.79183600  0.17988700  0.02786900  1
  O  O24  1  0.77535500  0.96872400  0.08807700  1
  O  O25  1  0.72464500  0.46872400  0.41192300  1
  O  O26  1  0.22464500  0.03127600  0.58807700  1
  O  O27  1  0.27535500  0.53127600  0.91192300  1
  O  O28  1  0.22464500  0.03127600  0.91192300  1
  O  O29  1  0.27535500  0.53127600  0.58807700  1
  O  O30  1  0.77535500  0.96872400  0.41192300  1
  O  O31  1  0.72464500  0.46872400  0.08807700  1
  O  O32  1  0.12480400  0.87050400  0.25000000  1
  O  O33  1  0.37519600  0.37050400  0.25000000  1
  O  O34  1  0.87519600  0.12949600  0.75000000  1
  O  O35  1  0.62480400  0.62949600  0.75000000  1
  O  O36  1  0.13439800  0.58972100  0.25000000  1
  O  O37  1  0.36560200  0.08972100  0.25000000  1
  O  O38  1  0.86560200  0.41027900  0.75000000  1
  O  O39  1  0.63439800  0.91027900  0.75000000  1
  O  O40  1  0.23266200  0.83024400  0.18792600  1
  O  O41  1  0.26733800  0.33024400  0.31207400  1
  O  O42  1  0.76733800  0.16975600  0.68792600  1
  O  O43  1  0.73266200  0.66975600  0.81207400  1
  O  O44  1  0.76733800  0.16975600  0.81207400  1
  O  O45  1  0.73266200  0.66975600  0.68792600  1
  O  O46  1  0.23266200  0.83024400  0.31207400  1
  O  O47  1  0.26733800  0.33024400  0.18792600  1
loop_
_geom_bond_atom_site_label_1
_geom_bond_atom_site_label_2
_geom_bond_distance
_geom_bond_site_symmetry_2
O0 P0 1.549394 1_555
O0 Zn8 1.927304 1_555
O1 P1 1.549394 1_555
O1 Zn9 1.927304 1_655
O2 P2 1.549394 1_555
O2 Zn10 1.927304 1_555
O3 P3 1.549394 1_555
O3 Zn11 1.927304 1_455
O4 P4 1.549394 1_555
O4 Zn10 1.927304 1_555
O5 P5 1.549394 1_555
O5 Zn11 1.927304 1_455
O6 P6 1.549394 1_555
O6 Zn8 1.927304 1_555
O7 P7 1.549394 1_555
O7 Zn9 1.927304 1_655
O8 P0 1.540120 1_455
O8 Zn0 1.955415 1_554
O9 P1 1.540120 1_555
O9 Zn1 1.955415 1_555
O10 P2 1.540120 1_655
O10 Zn2 1.955415 1_555
O11 P3 1.540120 1_555
O11 Zn3 1.955415 1_556
O12 P4 1.540120 1_655
O12 Zn4 1.955415 1_556
O13 P5 1.540120 1_555
O13 Zn5 1.955415 1_555
O14 P6 1.540120 1_455
O14 Zn6 1.955415 1_555
O15 P7 1.540120 1_555
O15 Zn7 1.955415 1_554
O16 P0 1.594080 1_555
O16 Zn0 2.005335 1_554
O16 Zn3 2.028076 1_555
O17 P1 1.594080 1_555
O17 Zn1 2.005335 1_655
O17 Zn2 2.028076 1_555
O18 P2 1.594080 1_555
O18 Zn2 2.005335 1_555
O18 Zn1 2.028076 1_555
O19 P3 1.594080 1_555
O19 Zn3 2.005335 1_456
O19 Zn0 2.028076 1_555
O20 P4 1.594080 1_555
O20 Zn4 2.005335 1_556
O20 Zn7 2.028076 1_555
O21 P5 1.594080 1_555
O21 Zn5 2.005335 1_455
O21 Zn6 2.028076 1_555
O22 P6 1.594080 1_555
O22 Zn6 2.005335 1_555
O22 Zn5 2.028076 1_555
O23 P7 1.594080 1_555
O23 Zn7 2.005335 1_654
O23 Zn4 2.028076 1_555
O24 P7 1.530176 1_565
O24 Zn3 1.919855 1_555
O25 P6 1.530176 1_555
O25 Zn2 1.919855 1_555
O26 P5 1.530176 1_545
O26 Zn1 1.919855 1_555
O27 P4 1.530176 1_555
O27 Zn0 1.919855 1_555
O28 P3 1.530176 1_545
O28 Zn7 1.919855 1_555
O29 P2 1.530176 1_555
O29 Zn6 1.919855 1_555
O30 P1 1.530176 1_565
O30 Zn5 1.919855 1_555
O31 P0 1.530176 1_555
O31 Zn4 1.919855 1_555
O32 O46 1.290908 1_555
O32 O40 1.290908 1_555
O33 O41 1.290908 1_555
O33 O47 1.290908 1_555
O34 O44 1.290908 1_555
O34 O42 1.290908 1_555
O35 O43 1.290908 1_555
O35 O45 1.290908 1_555
O36 Zn8 1.930650 1_555
O37 Zn9 1.930650 1_555
O38 Zn10 1.930650 1_555
O39 Zn11 1.930650 1_555
O40 Zn8 2.426970 1_555
O41 Zn9 2.426970 1_555
O42 Zn10 2.426970 1_555
O43 Zn11 2.426970 1_555
O44 Zn10 2.426970 1_555
O45 Zn11 2.426970 1_555
O46 Zn8 2.426970 1_555
O47 Zn9 2.426970 1_555
