# generated using pymatgen
data_Hf2Cd
_symmetry_space_group_name_H-M   'P 1'
_cell_length_a   6.12498020
_cell_length_b   6.12498020
_cell_length_c   14.43173429
_cell_angle_alpha   102.25162235
_cell_angle_beta   102.25162235
_cell_angle_gamma   90.00000000
_symmetry_Int_Tables_number   1
_chemical_formula_structural   Hf2Cd
_chemical_formula_sum   'Hf16 Cd8'
_cell_volume   516.45650516
_cell_formula_units_Z   8
loop_
 _symmetry_equiv_pos_site_id
 _symmetry_equiv_pos_as_xyz
  1  'x, y, z'
loop_
 _atom_site_type_symbol
 _atom_site_label
 _atom_site_symmetry_multiplicity
 _atom_site_fract_x
 _atom_site_fract_y
 _atom_site_fract_z
 _atom_site_occupancy
  Hf  Hf0_0  1  0.33602158  0.33602158  0.17204316  1
  Hf  Hf0_1  1  0.33602158  0.33602158  0.67204316  1
  Hf  Hf0_2  1  0.33602158  0.83602158  0.17204316  1
  Hf  Hf0_3  1  0.33602158  0.83602158  0.67204316  1
  Hf  Hf0_4  1  0.83602158  0.33602158  0.17204316  1
  Hf  Hf0_5  1  0.83602158  0.33602158  0.67204316  1
  Hf  Hf0_6  1  0.83602158  0.83602158  0.17204316  1
  Hf  Hf0_7  1  0.83602158  0.83602158  0.67204316  1
  Hf  Hf1_0  1  0.16397843  0.16397843  0.32795685  1
  Hf  Hf1_1  1  0.16397843  0.16397843  0.82795685  1
  Hf  Hf1_2  1  0.16397843  0.66397843  0.32795685  1
  Hf  Hf1_3  1  0.16397843  0.66397843  0.82795685  1
  Hf  Hf1_4  1  0.66397843  0.16397843  0.32795685  1
  Hf  Hf1_5  1  0.66397843  0.16397843  0.82795685  1
  Hf  Hf1_6  1  0.66397843  0.66397843  0.32795685  1
  Hf  Hf1_7  1  0.66397843  0.66397843  0.82795685  1
  Cd  Cd0_0  1  0.00000000  0.00000000  0.00000000  1
  Cd  Cd0_1  1  0.00000000  0.00000000  0.50000000  1
  Cd  Cd0_2  1  0.00000000  0.50000000  0.00000000  1
  Cd  Cd0_3  1  0.00000000  0.50000000  0.50000000  1
  Cd  Cd0_4  1  0.50000000  0.00000000  0.00000000  1
  Cd  Cd0_5  1  0.50000000  0.00000000  0.50000000  1
  Cd  Cd0_6  1  0.50000000  0.50000000  0.00000000  1
  Cd  Cd0_7  1  0.50000000  0.50000000  0.50000000  1
loop_
_geom_bond_atom_site_label_1
_geom_bond_atom_site_label_2
_geom_bond_distance
_geom_bond_site_symmetry_2
Hf0_0 Hf1_6 3.049002 1_555
Hf0_0 Hf1_4 3.049002 1_555
Hf0_0 Hf1_2 3.049002 1_555
Hf0_0 Hf1_0 3.049002 1_555
Hf0_0 Hf0_2 3.062490 1_545
Hf0_0 Hf0_4 3.062490 1_455
Hf0_0 Hf0_2 3.062490 1_555
Hf0_0 Hf0_4 3.062490 1_555
Hf0_1 Hf1_7 3.049002 1_555
Hf0_1 Hf1_5 3.049002 1_555
Hf0_1 Hf1_3 3.049002 1_555
Hf0_1 Hf1_1 3.049002 1_555
Hf0_1 Hf0_5 3.062490 1_455
Hf0_1 Hf0_3 3.062490 1_545
Hf0_1 Hf0_3 3.062490 1_555
Hf0_1 Hf0_5 3.062490 1_555
Hf0_2 Hf1_4 3.049002 1_565
Hf0_2 Hf1_0 3.049002 1_565
Hf0_2 Hf1_6 3.049002 1_555
Hf0_2 Hf1_2 3.049002 1_555
Hf0_2 Hf0_6 3.062490 1_455
Hf0_2 Hf0_6 3.062490 1_555
Hf0_3 Hf1_5 3.049002 1_565
Hf0_3 Hf1_1 3.049002 1_565
Hf0_3 Hf1_7 3.049002 1_555
Hf0_3 Hf1_3 3.049002 1_555
Hf0_3 Hf0_7 3.062490 1_455
Hf0_3 Hf0_7 3.062490 1_555
Hf0_4 Hf1_2 3.049002 1_655
Hf0_4 Hf1_0 3.049002 1_655
Hf0_4 Hf1_6 3.049002 1_555
Hf0_4 Hf1_4 3.049002 1_555
Hf0_4 Hf0_6 3.062490 1_545
Hf0_4 Hf0_6 3.062490 1_555
Hf0_5 Hf1_3 3.049002 1_655
Hf0_5 Hf1_1 3.049002 1_655
Hf0_5 Hf1_7 3.049002 1_555
Hf0_5 Hf1_5 3.049002 1_555
Hf0_5 Hf0_7 3.062490 1_545
Hf0_5 Hf0_7 3.062490 1_555
Hf0_6 Hf1_0 3.049002 1_665
Hf0_6 Hf1_4 3.049002 1_565
Hf0_6 Hf1_2 3.049002 1_655
Hf0_6 Hf1_6 3.049002 1_555
Hf0_7 Hf1_1 3.049002 1_665
Hf0_7 Hf1_5 3.049002 1_565
Hf0_7 Hf1_3 3.049002 1_655
Hf0_7 Hf1_7 3.049002 1_555
Hf1_0 Hf1_2 3.062490 1_555
Hf1_0 Hf1_2 3.062490 1_545
Hf1_0 Hf1_4 3.062490 1_455
Hf1_0 Hf1_4 3.062490 1_555
Hf1_1 Hf1_3 3.062490 1_545
Hf1_1 Hf1_5 3.062490 1_455
Hf1_1 Hf1_5 3.062490 1_555
Hf1_1 Hf1_3 3.062490 1_555
Hf1_2 Hf1_6 3.062490 1_455
Hf1_2 Hf1_6 3.062490 1_555
Hf1_3 Hf1_7 3.062490 1_555
Hf1_3 Hf1_7 3.062490 1_455
Hf1_4 Hf1_6 3.062490 1_555
Hf1_4 Hf1_6 3.062490 1_545
Hf1_5 Hf1_7 3.062490 1_545
Hf1_5 Hf1_7 3.062490 1_555
Cd0_0 Cd0_4 3.062490 1_555
Cd0_0 Cd0_2 3.062490 1_545
Cd0_0 Cd0_2 3.062490 1_555
Cd0_0 Cd0_4 3.062490 1_455
Cd0_0 Hf1_7 3.209192 1_444
Cd0_0 Hf0_0 3.209192 1_555
Cd0_0 Hf1_5 3.209192 1_454
Cd0_0 Hf1_3 3.209192 1_544
Cd0_0 Hf0_4 3.209192 1_455
Cd0_0 Hf0_2 3.209192 1_545
Cd0_0 Hf1_1 3.209192 1_554
Cd0_0 Hf0_6 3.209192 1_445
Cd0_1 Cd0_3 3.062490 1_555
Cd0_1 Cd0_3 3.062490 1_545
Cd0_1 Cd0_5 3.062490 1_455
Cd0_1 Cd0_5 3.062490 1_555
Cd0_1 Hf1_6 3.209192 1_445
Cd0_1 Hf0_1 3.209192 1_555
Cd0_1 Hf1_2 3.209192 1_545
Cd0_1 Hf1_4 3.209192 1_455
Cd0_1 Hf0_3 3.209192 1_545
Cd0_1 Hf0_5 3.209192 1_455
Cd0_1 Hf1_0 3.209192 1_555
Cd0_1 Hf0_7 3.209192 1_445
Cd0_2 Cd0_6 3.062490 1_455
Cd0_2 Cd0_6 3.062490 1_555
Cd0_2 Hf1_5 3.209192 1_454
Cd0_2 Hf0_2 3.209192 1_555
Cd0_2 Hf1_7 3.209192 1_454
Cd0_2 Hf1_1 3.209192 1_554
Cd0_2 Hf0_0 3.209192 1_555
Cd0_2 Hf0_6 3.209192 1_455
Cd0_2 Hf1_3 3.209192 1_554
Cd0_2 Hf0_4 3.209192 1_455
Cd0_3 Cd0_7 3.062490 1_455
Cd0_3 Cd0_7 3.062490 1_555
Cd0_3 Hf1_4 3.209192 1_455
Cd0_3 Hf0_3 3.209192 1_555
Cd0_3 Hf1_0 3.209192 1_555
Cd0_3 Hf1_6 3.209192 1_455
Cd0_3 Hf0_1 3.209192 1_555
Cd0_3 Hf0_7 3.209192 1_455
Cd0_3 Hf1_2 3.209192 1_555
Cd0_3 Hf0_5 3.209192 1_455
Cd0_4 Cd0_6 3.062490 1_545
Cd0_4 Cd0_6 3.062490 1_555
Cd0_4 Hf1_3 3.209192 1_544
Cd0_4 Hf0_4 3.209192 1_555
Cd0_4 Hf1_1 3.209192 1_554
Cd0_4 Hf1_7 3.209192 1_544
Cd0_4 Hf0_0 3.209192 1_555
Cd0_4 Hf0_6 3.209192 1_545
Cd0_4 Hf1_5 3.209192 1_554
Cd0_4 Hf0_2 3.209192 1_545
Cd0_5 Cd0_7 3.062490 1_555
Cd0_5 Cd0_7 3.062490 1_545
Cd0_5 Hf1_2 3.209192 1_545
Cd0_5 Hf0_5 3.209192 1_555
Cd0_5 Hf1_0 3.209192 1_555
Cd0_5 Hf1_6 3.209192 1_545
Cd0_5 Hf0_1 3.209192 1_555
Cd0_5 Hf0_7 3.209192 1_545
Cd0_5 Hf1_4 3.209192 1_555
Cd0_5 Hf0_3 3.209192 1_545
Cd0_6 Hf1_1 3.209192 1_554
Cd0_6 Hf0_6 3.209192 1_555
Cd0_6 Hf1_3 3.209192 1_554
Cd0_6 Hf1_5 3.209192 1_554
Cd0_6 Hf0_2 3.209192 1_555
Cd0_6 Hf0_4 3.209192 1_555
Cd0_6 Hf1_7 3.209192 1_554
Cd0_6 Hf0_0 3.209192 1_555
Cd0_7 Hf1_0 3.209192 1_555
Cd0_7 Hf0_7 3.209192 1_555
Cd0_7 Hf1_4 3.209192 1_555
Cd0_7 Hf1_2 3.209192 1_555
Cd0_7 Hf0_5 3.209192 1_555
Cd0_7 Hf0_3 3.209192 1_555
Cd0_7 Hf1_6 3.209192 1_555
Cd0_7 Hf0_1 3.209192 1_555
