# generated using pymatgen
data_Ba4Co(ReO6)2
_symmetry_space_group_name_H-M   'P 1'
_cell_length_a   9.87676875
_cell_length_b   9.87676823
_cell_length_c   9.87676876
_cell_angle_alpha   33.75258022
_cell_angle_beta   33.75260162
_cell_angle_gamma   33.75258103
_symmetry_Int_Tables_number   1
_chemical_formula_structural   Ba4Co(ReO6)2
_chemical_formula_sum   'Ba4 Co1 Re2 O12'
_cell_volume   265.01108765
_cell_formula_units_Z   1
loop_
 _symmetry_equiv_pos_site_id
 _symmetry_equiv_pos_as_xyz
  1  'x, y, z'
loop_
 _atom_site_type_symbol
 _atom_site_label
 _atom_site_symmetry_multiplicity
 _atom_site_fract_x
 _atom_site_fract_y
 _atom_site_fract_z
 _atom_site_occupancy
  Ba  Ba0  1  0.70825030  0.70824961  0.70825030  1
  Ba  Ba1  1  0.29174970  0.29175039  0.29174970  1
  Ba  Ba2  1  0.86917427  0.86917511  0.86917427  1
  Ba  Ba3  1  0.13082573  0.13082489  0.13082573  1
  Co  Co0  1  0.00000000  0.00000000  -0.00000000  1
  Re  Re0  1  0.58129146  0.58128586  0.58129146  1
  Re  Re1  1  0.41870854  0.41871414  0.41870854  1
  O  O0  1  0.21846493  0.69264254  0.21846493  1
  O  O1  1  0.21846466  0.21846486  0.69264291  1
  O  O2  1  0.69264291  0.21846486  0.21846466  1
  O  O3  1  0.78153507  0.30735746  0.78153507  1
  O  O4  1  0.78153534  0.78153514  0.30735709  1
  O  O5  1  0.30735709  0.78153514  0.78153534  1
  O  O6  1  0.38950801  0.85916080  0.38950801  1
  O  O7  1  0.38950825  0.38950771  0.85916146  1
  O  O8  1  0.85916146  0.38950771  0.38950825  1
  O  O9  1  0.61049199  0.14083920  0.61049199  1
  O  O10  1  0.61049175  0.61049229  0.14083854  1
  O  O11  1  0.14083854  0.61049229  0.61049175  1
loop_
_geom_bond_atom_site_label_1
_geom_bond_atom_site_label_2
_geom_bond_distance
_geom_bond_site_symmetry_2
Ba0 O10 2.819533 1_556
Ba0 O11 2.819533 1_655
Ba0 O9 2.819540 1_565
Ba0 O3 2.839938 1_555
Ba0 O4 2.839942 1_555
Ba0 O5 2.839942 1_555
Ba0 O2 2.868910 1_556
Ba0 O1 2.868910 1_655
Ba0 O0 2.868914 1_556
Ba0 O0 2.868914 1_655
Ba0 O2 2.868915 1_565
Ba0 O1 2.868915 1_565
Ba1 O7 2.819533 1_554
Ba1 O8 2.819533 1_455
Ba1 O6 2.819540 1_545
Ba1 O0 2.839938 1_555
Ba1 O1 2.839942 1_555
Ba1 O2 2.839942 1_555
Ba1 O5 2.868910 1_554
Ba1 O4 2.868910 1_455
Ba1 O3 2.868914 1_554
Ba1 O3 2.868914 1_455
Ba1 O5 2.868915 1_545
Ba1 O4 2.868915 1_545
Ba2 O9 2.882784 1_565
Ba2 O10 2.882790 1_556
Ba2 O11 2.882790 1_655
Ba2 O8 2.883188 1_565
Ba2 O7 2.883188 1_565
Ba2 O6 2.883193 1_556
Ba2 O6 2.883193 1_655
Ba2 O8 2.883196 1_556
Ba2 O7 2.883196 1_655
Ba2 O3 3.002614 1_565
Ba2 O4 3.002615 1_556
Ba2 O5 3.002615 1_655
Ba3 O6 2.882784 1_545
Ba3 O7 2.882790 1_554
Ba3 O8 2.882790 1_455
Ba3 O11 2.883188 1_545
Ba3 O10 2.883188 1_545
Ba3 O9 2.883193 1_554
Ba3 O9 2.883193 1_455
Ba3 O11 2.883196 1_554
Ba3 O10 2.883196 1_455
Ba3 O0 3.002614 1_545
Ba3 O1 3.002615 1_554
Ba3 O2 3.002615 1_455
Co0 O4 2.117676 1_445
Co0 O1 2.117676 1_554
Co0 O5 2.117676 1_544
Co0 O2 2.117676 1_455
Co0 O0 2.117676 1_545
Co0 O3 2.117676 1_454
O0 Re1 1.962534 1_555
O1 Re1 1.962558 1_555
O2 Re1 1.962558 1_555
O3 Re0 1.962534 1_555
O4 Re0 1.962558 1_555
O5 Re0 1.962558 1_555
O6 Re0 1.839892 1_555
O7 Re0 1.839868 1_555
O8 Re0 1.839868 1_555
O9 Re1 1.839892 1_555
O10 Re1 1.839868 1_555
O11 Re1 1.839868 1_555
