# generated using pymatgen
data_Ba4MgTl8O16
_symmetry_space_group_name_H-M   'P 1'
_cell_length_a   10.59886138
_cell_length_b   12.55078923
_cell_length_c   3.58206639
_cell_angle_alpha   90.00000000
_cell_angle_beta   90.00000000
_cell_angle_gamma   89.52951908
_symmetry_Int_Tables_number   1
_chemical_formula_structural   Ba4MgTl8O16
_chemical_formula_sum   'Ba4 Mg1 Tl8 O16'
_cell_volume   476.48500456
_cell_formula_units_Z   1
loop_
 _symmetry_equiv_pos_site_id
 _symmetry_equiv_pos_as_xyz
  1  'x, y, z'
loop_
 _atom_site_type_symbol
 _atom_site_label
 _atom_site_symmetry_multiplicity
 _atom_site_fract_x
 _atom_site_fract_y
 _atom_site_fract_z
 _atom_site_occupancy
  Ba  Ba0  1  0.24351006  0.32756532  0.75000000  1
  Ba  Ba1  1  0.25519662  0.86067965  0.25000000  1
  Ba  Ba2  1  0.75121429  0.16773275  0.75000000  1
  Ba  Ba3  1  0.75135376  0.64269630  0.25000000  1
  Mg  Mg0  1  0.48603959  0.70787458  0.75000000  1
  Tl  Tl0  1  0.06615423  0.61601141  0.75000000  1
  Tl  Tl1  1  0.06914790  0.10336010  0.75000000  1
  Tl  Tl2  1  0.33818286  0.56793845  0.25000000  1
  Tl  Tl3  1  0.42914694  0.11155675  0.25000000  1
  Tl  Tl4  1  0.59991856  0.91848639  0.75000000  1
  Tl  Tl5  1  0.57083595  0.39658507  0.75000000  1
  Tl  Tl6  1  0.92355031  0.89234856  0.25000000  1
  Tl  Tl7  1  0.92480200  0.39375130  0.25000000  1
  O  O0  1  0.01527864  0.72027996  0.25000000  1
  O  O1  1  0.07491469  0.92437719  0.75000000  1
  O  O2  1  0.13131650  0.49044733  0.25000000  1
  O  O3  1  0.21108142  0.15363510  0.25000000  1
  O  O4  1  0.29603977  0.69354359  0.75000000  1
  O  O5  1  0.40032317  0.97671335  0.75000000  1
  O  O6  1  0.42134988  0.39986052  0.25000000  1
  O  O7  1  0.48206621  0.21513039  0.75000000  1
  O  O8  1  0.52598494  0.77729022  0.25000000  1
  O  O9  1  0.58466205  0.57510094  0.75000000  1
  O  O10  1  0.63249951  0.03450189  0.25000000  1
  O  O11  1  0.70977057  0.34417934  0.25000000  1
  O  O12  1  0.78721759  0.83767337  0.75000000  1
  O  O13  1  0.88611185  0.51689943  0.75000000  1
  O  O14  1  0.92240474  0.07465481  0.25000000  1
  O  O15  1  0.98492538  0.28308394  0.75000000  1
loop_
_geom_bond_atom_site_label_1
_geom_bond_atom_site_label_2
_geom_bond_distance
_geom_bond_site_symmetry_2
Ba0 O6 2.758992 1_556
Ba0 O6 2.758992 1_555
Ba0 O15 2.801474 1_455
Ba0 O3 2.846678 1_555
Ba0 O3 2.846678 1_556
Ba0 O7 2.885423 1_555
Ba0 O2 2.959907 1_556
Ba0 O2 2.959907 1_555
Ba1 O1 2.733667 1_555
Ba1 O1 2.733667 1_554
Ba1 O5 2.780544 1_554
Ba1 O5 2.780544 1_555
Ba1 O4 2.789370 1_554
Ba1 O4 2.789370 1_555
Ba1 O8 3.046838 1_555
Ba1 O0 3.105608 1_555
Ba2 O10 2.760728 1_556
Ba2 O10 2.760728 1_555
Ba2 O14 2.798181 1_556
Ba2 O14 2.798181 1_555
Ba2 O11 2.879058 1_555
Ba2 O11 2.879058 1_556
Ba2 O15 2.879367 1_555
Ba2 O7 2.909244 1_555
Ba3 O9 2.659612 1_554
Ba3 O9 2.659612 1_555
Ba3 O13 2.775522 1_555
Ba3 O13 2.775522 1_554
Ba3 O8 2.914274 1_555
Ba3 O0 2.969478 1_655
Ba3 O12 3.058748 1_555
Ba3 O12 3.058748 1_554
Mg0 O9 1.959835 1_555
Mg0 O4 2.023269 1_555
Mg0 O8 2.037678 1_555
Mg0 O8 2.037678 1_556
O0 Tl0 2.280251 1_555
O0 Tl0 2.280251 1_554
O0 Tl6 2.361055 1_455
O1 Tl1 2.246706 1_565
O1 Tl6 2.440026 1_455
O1 Tl6 2.440026 1_456
O2 Tl2 2.405865 1_555
O2 Tl0 2.480014 1_555
O2 Tl0 2.480014 1_554
O2 Tl7 2.511455 1_455
O3 Tl3 2.366584 1_555
O3 Tl1 2.425811 1_554
O3 Tl1 2.425811 1_555
O4 Tl2 2.425062 1_556
O4 Tl2 2.425062 1_555
O4 Tl0 2.631064 1_555
O5 Tl4 2.232475 1_555
O5 Tl3 2.484715 1_565
O5 Tl3 2.484715 1_566
O6 Tl2 2.279583 1_555
O6 Tl5 2.391378 1_555
O6 Tl5 2.391378 1_554
O7 Tl3 2.285648 1_555
O7 Tl3 2.285648 1_556
O7 Tl5 2.471225 1_555
O8 Tl4 2.642929 1_555
O8 Tl4 2.642929 1_554
O9 Tl5 2.246503 1_555
O10 Tl4 2.335699 1_545
O10 Tl4 2.335699 1_544
O10 Tl3 2.355078 1_555
O11 Tl7 2.367408 1_555
O11 Tl5 2.406846 1_554
O11 Tl5 2.406846 1_555
O12 Tl4 2.221827 1_555
O12 Tl6 2.404770 1_556
O12 Tl6 2.404770 1_555
O13 Tl0 2.286427 1_655
O13 Tl7 2.398843 1_556
O13 Tl7 2.398843 1_555
O14 Tl6 2.288020 1_545
O14 Tl1 2.401206 1_655
O14 Tl1 2.401206 1_654
O15 Tl7 2.351288 1_555
O15 Tl7 2.351288 1_556
O15 Tl1 2.419060 1_655
