# generated using pymatgen
data_RbEuPO4
_symmetry_space_group_name_H-M   'P 1'
_cell_length_a   5.52972000
_cell_length_b   7.70994500
_cell_length_c   10.42869800
_cell_angle_alpha   90.00000000
_cell_angle_beta   90.00000000
_cell_angle_gamma   90.00000000
_symmetry_Int_Tables_number   1
_chemical_formula_structural   RbEuPO4
_chemical_formula_sum   'Rb4 Eu4 P4 O16'
_cell_volume   444.61541134
_cell_formula_units_Z   4
loop_
 _symmetry_equiv_pos_site_id
 _symmetry_equiv_pos_as_xyz
  1  'x, y, z'
loop_
 _atom_site_type_symbol
 _atom_site_label
 _atom_site_symmetry_multiplicity
 _atom_site_fract_x
 _atom_site_fract_y
 _atom_site_fract_z
 _atom_site_occupancy
  Rb  Rb0  1  0.25000000  0.14229200  0.43074000  1
  Rb  Rb1  1  0.25000000  0.64229200  0.06926000  1
  Rb  Rb2  1  0.75000000  0.85770800  0.56926000  1
  Rb  Rb3  1  0.75000000  0.35770800  0.93074000  1
  Eu  Eu0  1  0.25000000  0.03413100  0.82634500  1
  Eu  Eu1  1  0.75000000  0.96586900  0.17365500  1
  Eu  Eu2  1  0.25000000  0.53413100  0.67365500  1
  Eu  Eu3  1  0.75000000  0.46586900  0.32634500  1
  P  P0  1  0.25000000  0.70282600  0.39314400  1
  P  P1  1  0.75000000  0.29717400  0.60685600  1
  P  P2  1  0.75000000  0.79717400  0.89314400  1
  P  P3  1  0.25000000  0.20282600  0.10685600  1
  O  O0  1  0.25000000  0.29336300  0.97274800  1
  O  O1  1  0.75000000  0.70663700  0.02725200  1
  O  O2  1  0.25000000  0.79336300  0.52725200  1
  O  O3  1  0.75000000  0.20663700  0.47274800  1
  O  O4  1  0.25000000  0.00286000  0.08260700  1
  O  O5  1  0.75000000  0.99714000  0.91739300  1
  O  O6  1  0.25000000  0.50286000  0.41739300  1
  O  O7  1  0.75000000  0.49714000  0.58260700  1
  O  O8  1  0.48309300  0.75278800  0.31705000  1
  O  O9  1  0.98309300  0.24721200  0.68295000  1
  O  O10  1  0.01690700  0.25278800  0.18295000  1
  O  O11  1  0.51690700  0.74721200  0.81705000  1
  O  O12  1  0.48309300  0.25278800  0.18295000  1
  O  O13  1  0.98309300  0.74721200  0.81705000  1
  O  O14  1  0.01690700  0.75278800  0.31705000  1
  O  O15  1  0.51690700  0.24721200  0.68295000  1
loop_
_geom_bond_atom_site_label_1
_geom_bond_atom_site_label_2
_geom_bond_distance
_geom_bond_site_symmetry_2
Eu0 O0 2.515105 1_555
Eu0 O11 2.661063 1_545
Eu0 O13 2.661063 1_445
Eu0 O15 2.667127 1_555
Eu0 O9 2.667127 1_455
Eu0 O4 2.683332 1_556
Eu0 O5 2.937237 1_445
Eu0 O5 2.937237 1_545
Eu1 O1 2.515105 1_555
Eu1 O12 2.661063 1_565
Eu1 O10 2.661063 1_665
Eu1 O8 2.667127 1_555
Eu1 O14 2.667127 1_655
Eu1 O5 2.683332 1_554
Eu1 O4 2.937237 1_565
Eu1 O4 2.937237 1_665
Eu2 O2 2.515105 1_555
Eu2 O15 2.661063 1_555
Eu2 O9 2.661063 1_455
Eu2 O13 2.667127 1_455
Eu2 O11 2.667127 1_555
Eu2 O6 2.683332 1_555
Eu2 O7 2.937237 1_455
Eu2 O7 2.937237 1_555
Eu3 O3 2.515105 1_555
Eu3 O8 2.661063 1_555
Eu3 O14 2.661063 1_655
Eu3 O12 2.667127 1_555
Eu3 O10 2.667127 1_655
Eu3 O7 2.683332 1_555
Eu3 O6 2.937237 1_655
Eu3 O6 2.937237 1_555
O0 P3 1.563092 1_556
O0 Rb3 2.842971 1_555
O0 Rb3 2.842971 1_455
O0 Rb1 2.872339 1_556
O1 P2 1.563092 1_554
O1 Rb1 2.842971 1_655
O1 Rb1 2.842971 1_555
O1 Rb3 2.872339 1_554
O2 P0 1.563092 1_555
O2 Rb2 2.842971 1_555
O2 Rb2 2.842971 1_455
O2 Rb0 2.872339 1_565
O3 P1 1.563092 1_555
O3 Rb0 2.842971 1_655
O3 Rb0 2.842971 1_555
O3 Rb2 2.872339 1_545
O4 P3 1.562329 1_555
O4 Rb1 2.783442 1_545
O5 P2 1.562329 1_555
O5 Rb3 2.783442 1_565
O6 P0 1.562329 1_555
O6 Rb0 2.783442 1_555
O7 P1 1.562329 1_555
O7 Rb2 2.783442 1_555
O8 P0 1.561885 1_555
O8 Rb1 3.010787 1_555
O8 Rb2 3.122623 1_555
O9 P1 1.561885 1_555
O9 Rb3 3.010787 1_555
O9 Rb0 3.122623 1_655
O10 P3 1.561885 1_555
O10 Rb0 3.010787 1_555
O10 Rb3 3.122623 1_454
O11 P2 1.561885 1_555
O11 Rb2 3.010787 1_555
O11 Rb1 3.122623 1_556
O12 P3 1.561885 1_555
O12 Rb0 3.010787 1_555
O12 Rb3 3.122623 1_554
O13 P2 1.561885 1_555
O13 Rb2 3.010787 1_555
O13 Rb1 3.122623 1_656
O14 P0 1.561885 1_555
O14 Rb1 3.010787 1_555
O14 Rb2 3.122623 1_455
O15 P1 1.561885 1_555
O15 Rb3 3.010787 1_555
O15 Rb0 3.122623 1_555
