# generated using pymatgen
data_Li9Mn2Co5O16
_symmetry_space_group_name_H-M   'P 1'
_cell_length_a   8.95948265
_cell_length_b   8.95948265
_cell_length_c   5.86492744
_cell_angle_alpha   89.45129037
_cell_angle_beta   89.45129037
_cell_angle_gamma   37.78267622
_symmetry_Int_Tables_number   1
_chemical_formula_structural   Li9Mn2Co5O16
_chemical_formula_sum   'Li9 Mn2 Co5 O16'
_cell_volume   288.42409671
_cell_formula_units_Z   1
loop_
 _symmetry_equiv_pos_site_id
 _symmetry_equiv_pos_as_xyz
  1  'x, y, z'
loop_
 _atom_site_type_symbol
 _atom_site_label
 _atom_site_symmetry_multiplicity
 _atom_site_fract_x
 _atom_site_fract_y
 _atom_site_fract_z
 _atom_site_occupancy
  Li  Li0  1  0.87818800  0.87818800  0.25124100  1
  Li  Li1  1  0.12130600  0.12130600  0.74625500  1
  Li  Li2  1  0.75503700  0.23861100  0.99483300  1
  Li  Li3  1  0.00178400  0.50568100  0.50181500  1
  Li  Li4  1  0.62187600  0.62187600  0.74981100  1
  Li  Li5  1  0.50568100  0.00178400  0.50181500  1
  Li  Li6  1  0.37612400  0.37612400  0.24915100  1
  Li  Li7  1  0.23861100  0.75503700  0.99483300  1
  Li  Li8  1  0.87721400  0.87721400  0.75105800  1
  Mn  Mn0  1  0.00295100  0.50078300  0.99756500  1
  Mn  Mn1  1  0.50078300  0.00295100  0.99756500  1
  Co  Co0  1  0.23731800  0.75110100  0.50943900  1
  Co  Co1  1  0.75110100  0.23731800  0.50943900  1
  Co  Co2  1  0.12506700  0.12506700  0.25317300  1
  Co  Co3  1  0.37668800  0.37668800  0.74843500  1
  Co  Co4  1  0.61627300  0.61627300  0.25584900  1
  O  O0  1  0.75141100  0.75141100  0.22402500  1
  O  O1  1  0.00192000  0.00192000  0.74118400  1
  O  O2  1  0.60138500  0.12805700  0.97979100  1
  O  O3  1  0.88421100  0.36204800  0.47871600  1
  O  O4  1  0.50433200  0.50433200  0.74138000  1
  O  O5  1  0.36204800  0.88421100  0.47871600  1
  O  O6  1  0.25377800  0.25377800  0.22367900  1
  O  O7  1  0.12805700  0.60138500  0.97979100  1
  O  O8  1  0.99602300  0.99602300  0.26196300  1
  O  O9  1  0.24612100  0.24612100  0.77416100  1
  O  O10  1  0.89543000  0.37526800  0.02377800  1
  O  O11  1  0.14650000  0.61458600  0.51422200  1
  O  O12  1  0.74583200  0.74583100  0.77718300  1
  O  O13  1  0.61458600  0.14650000  0.51422200  1
  O  O14  1  0.50709500  0.50709500  0.25113300  1
  O  O15  1  0.37526800  0.89543000  0.02377800  1
loop_
_geom_bond_atom_site_label_1
_geom_bond_atom_site_label_2
_geom_bond_distance
_geom_bond_site_symmetry_2
Li0 O8 1.999370 1_555
Li0 O0 2.156875 1_555
Li0 O13 2.182335 1_565
Li0 O11 2.182335 1_655
Li0 O2 2.219960 1_564
Li0 O7 2.219960 1_654
Li1 O1 2.024560 1_555
Li1 O3 2.093658 1_455
Li1 O5 2.093658 1_545
Li1 O9 2.124053 1_555
Li1 O15 2.156681 1_546
Li1 O10 2.156681 1_456
Li2 O1 2.045897 1_655
Li2 O8 2.102874 1_546
Li2 O4 2.113347 1_555
Li2 O14 2.130587 1_556
Li2 O2 2.245753 1_555
Li2 O10 2.356384 1_556
Li3 O11 2.154386 1_555
Li3 O12 2.166308 1_455
Li3 O9 2.168056 1_555
Li3 O0 2.174458 1_455
Li3 O6 2.190342 1_555
Li3 O3 2.221006 1_455
Li4 O4 1.993925 1_555
Li4 O12 2.109253 1_555
Li4 O5 2.195924 1_555
Li4 O3 2.195924 1_555
Li4 O15 2.217705 1_556
Li4 O10 2.217705 1_556
Li5 O13 2.154386 1_555
Li5 O12 2.166312 1_545
Li5 O9 2.168056 1_555
Li5 O0 2.174458 1_545
Li5 O6 2.190342 1_555
Li5 O5 2.221006 1_545
Li6 O13 2.066052 1_555
Li6 O11 2.066052 1_555
Li6 O6 2.081104 1_555
Li6 O7 2.103456 1_554
Li6 O2 2.103456 1_554
Li6 O14 2.220597 1_555
Li7 O1 2.045897 1_565
Li7 O8 2.102874 1_456
Li7 O4 2.113347 1_555
Li7 O14 2.130587 1_556
Li7 O7 2.245753 1_555
Li7 O15 2.356384 1_556
Li8 O7 2.042768 1_655
Li8 O2 2.042768 1_565
Li8 O11 2.076500 1_655
Li8 O13 2.076500 1_565
Li8 O1 2.114441 1_665
Li8 O12 2.231142 1_555
Mn0 O7 1.916401 1_555
Mn0 O12 1.950840 1_455
Mn0 O9 1.953037 1_555
Mn0 O6 1.961148 1_556
Mn0 O0 1.971271 1_456
Mn0 O10 1.980526 1_456
Mn1 O2 1.916401 1_555
Mn1 O12 1.950844 1_545
Mn1 O9 1.953037 1_555
Mn1 O6 1.961148 1_556
Mn1 O0 1.971271 1_546
Mn1 O15 1.980526 1_546
Co0 O11 1.931548 1_555
Co0 O1 1.964019 1_565
Co0 O8 2.023867 1_455
Co0 O4 2.026316 1_555
Co0 O14 2.134807 1_555
Co0 O5 2.191408 1_555
Co1 O13 1.931548 1_555
Co1 O1 1.964019 1_655
Co1 O8 2.023867 1_545
Co1 O4 2.026316 1_555
Co1 O14 2.134807 1_555
Co1 O3 2.191408 1_555
Co2 O3 1.916076 1_455
Co2 O5 1.916076 1_545
Co2 O15 1.942471 1_545
Co2 O10 1.942471 1_455
Co2 O6 2.187233 1_555
Co2 O8 2.187865 1_445
Co3 O11 1.932123 1_555
Co3 O13 1.932123 1_555
Co3 O2 1.939589 1_555
Co3 O7 1.939589 1_555
Co3 O4 2.164021 1_555
Co3 O9 2.217212 1_555
Co4 O14 1.851463 1_555
Co4 O5 2.004860 1_555
Co4 O3 2.004860 1_555
Co4 O10 2.055490 1_555
Co4 O15 2.055490 1_555
Co4 O0 2.296802 1_555
