# generated using pymatgen
data_Na2CeFeO6
_symmetry_space_group_name_H-M   'P 1'
_cell_length_a   5.73601318
_cell_length_b   5.73601318
_cell_length_c   5.73601318
_cell_angle_alpha   60.00000000
_cell_angle_beta   60.00000000
_cell_angle_gamma   60.00000000
_symmetry_Int_Tables_number   1
_chemical_formula_structural   Na2CeFeO6
_chemical_formula_sum   'Na2 Ce1 Fe1 O6'
_cell_volume   133.44903110
_cell_formula_units_Z   1
loop_
 _symmetry_equiv_pos_site_id
 _symmetry_equiv_pos_as_xyz
  1  'x, y, z'
loop_
 _atom_site_type_symbol
 _atom_site_label
 _atom_site_symmetry_multiplicity
 _atom_site_fract_x
 _atom_site_fract_y
 _atom_site_fract_z
 _atom_site_occupancy
  Na  Na0  1  0.25000000  0.25000000  0.25000000  1
  Na  Na1  1  0.75000000  0.75000000  0.75000000  1
  Ce  Ce0  1  0.00000000  -0.00000000  0.00000000  1
  Fe  Fe0  1  0.50000000  0.50000000  0.50000000  1
  O  O0  1  0.73054192  0.26945808  0.26945808  1
  O  O1  1  0.26945808  0.73054192  0.73054192  1
  O  O2  1  0.73054192  0.26945808  0.73054192  1
  O  O3  1  0.26945808  0.73054192  0.26945808  1
  O  O4  1  0.73054192  0.73054192  0.26945808  1
  O  O5  1  0.26945808  0.26945808  0.73054192  1
loop_
_geom_bond_atom_site_label_1
_geom_bond_atom_site_label_2
_geom_bond_distance
_geom_bond_site_symmetry_2
Na0 O5 2.872347 1_554
Na0 O1 2.872347 1_545
Na0 O0 2.872347 1_455
Na0 O1 2.872347 1_554
Na0 O3 2.872347 1_545
Na0 O2 2.872347 1_554
Na0 O2 2.872347 1_455
Na0 O4 2.872347 1_545
Na0 O4 2.872347 1_455
Na0 O3 2.872347 1_555
Na0 O0 2.872347 1_555
Na0 O5 2.872347 1_555
Na1 O5 2.872347 1_565
Na1 O1 2.872347 1_655
Na1 O5 2.872347 1_655
Na1 O3 2.872347 1_556
Na1 O0 2.872347 1_556
Na1 O2 2.872347 1_555
Na1 O2 2.872347 1_565
Na1 O4 2.872347 1_555
Na1 O1 2.872347 1_555
Na1 O4 2.872347 1_556
Na1 O0 2.872347 1_565
Na1 O3 2.872347 1_655
Ce0 O2 2.185830 1_454
Ce0 O4 2.185830 1_445
Ce0 O1 2.185830 1_544
Ce0 O0 2.185830 1_455
Ce0 O3 2.185830 1_545
Ce0 O5 2.185830 1_554
Fe0 O5 1.870144 1_555
Fe0 O0 1.870144 1_555
Fe0 O3 1.870144 1_555
Fe0 O2 1.870144 1_555
Fe0 O4 1.870144 1_555
Fe0 O1 1.870144 1_555
