# generated using pymatgen
data_NaCaAlSi2O7
_symmetry_space_group_name_H-M   'P 1'
_cell_length_a   7.70878839
_cell_length_b   7.70878839
_cell_length_c   5.10815900
_cell_angle_alpha   90.00000000
_cell_angle_beta   90.00000000
_cell_angle_gamma   90.16342789
_symmetry_Int_Tables_number   1
_chemical_formula_structural   NaCaAlSi2O7
_chemical_formula_sum   'Na2 Ca2 Al2 Si4 O14'
_cell_volume   303.55325100
_cell_formula_units_Z   2
loop_
 _symmetry_equiv_pos_site_id
 _symmetry_equiv_pos_as_xyz
  1  'x, y, z'
loop_
 _atom_site_type_symbol
 _atom_site_label
 _atom_site_symmetry_multiplicity
 _atom_site_fract_x
 _atom_site_fract_y
 _atom_site_fract_z
 _atom_site_occupancy
  Na  Na0  1  0.34136900  0.34136900  0.48509100  1
  Na  Na1  1  0.65863100  0.65863100  0.48509100  1
  Ca  Ca0  1  0.83554700  0.16445300  0.51266000  1
  Ca  Ca1  1  0.16445300  0.83554700  0.51266000  1
  Al  Al0  1  0.50000000  0.00000000  0.99924500  1
  Al  Al1  1  0.00000000  0.50000000  0.99924500  1
  Si  Si0  1  0.14172500  0.14172500  0.04599400  1
  Si  Si1  1  0.64281300  0.35718700  0.95452700  1
  Si  Si2  1  0.85827500  0.85827500  0.04599400  1
  Si  Si3  1  0.35718700  0.64281300  0.95452700  1
  O  O0  1  0.13478400  0.13478400  0.73252300  1
  O  O1  1  0.65361500  0.34638500  0.26727000  1
  O  O2  1  0.86521600  0.86521600  0.73252300  1
  O  O3  1  0.34638500  0.65361500  0.26727000  1
  O  O4  1  0.50000000  0.50000000  0.84305500  1
  O  O5  1  0.00000000  0.00000000  0.18223900  1
  O  O6  1  0.41070100  0.82828600  0.80894100  1
  O  O7  1  0.91796000  0.67504600  0.18608000  1
  O  O8  1  0.58929900  0.17171400  0.80894100  1
  O  O9  1  0.08204000  0.32495400  0.18608000  1
  O  O10  1  0.32495400  0.08204000  0.18608000  1
  O  O11  1  0.82828600  0.41070100  0.80894100  1
  O  O12  1  0.67504600  0.91796000  0.18608000  1
  O  O13  1  0.17171400  0.58929900  0.80894100  1
loop_
_geom_bond_atom_site_label_1
_geom_bond_atom_site_label_2
_geom_bond_distance
_geom_bond_site_symmetry_2
Na0 O4 2.515105 1_555
Na0 O9 2.518721 1_555
Na0 O10 2.518721 1_555
Na0 O0 2.579781 1_555
Na0 O1 2.651946 1_555
Na0 O3 2.651946 1_555
Na0 O13 2.848537 1_555
Na0 O8 2.848537 1_555
Na1 O4 2.515105 1_555
Na1 O7 2.518721 1_555
Na1 O12 2.518721 1_555
Na1 O2 2.579781 1_555
Na1 O1 2.651946 1_555
Na1 O3 2.651946 1_555
Na1 O11 2.848537 1_555
Na1 O6 2.848537 1_555
Ca0 O1 2.348688 1_555
Ca0 O8 2.428521 1_555
Ca0 O11 2.428521 1_555
Ca0 O5 2.464199 1_655
Ca0 O2 2.576389 1_545
Ca0 O0 2.576389 1_655
Ca0 O12 2.812651 1_545
Ca0 O9 2.812651 1_655
Ca1 O3 2.348688 1_555
Ca1 O13 2.428521 1_555
Ca1 O6 2.428521 1_555
Ca1 O5 2.464199 1_565
Ca1 O2 2.576389 1_455
Ca1 O0 2.576389 1_565
Ca1 O7 2.812651 1_455
Ca1 O10 2.812651 1_565
Al0 O12 1.771028 1_546
Al0 O10 1.771028 1_556
Al0 O6 1.779287 1_545
Al0 O8 1.779287 1_555
Al1 O7 1.771028 1_456
Al1 O9 1.771028 1_556
Al1 O13 1.779287 1_555
Al1 O11 1.779287 1_455
O0 Si0 1.603042 1_556
O1 Si1 1.601888 1_554
O2 Si2 1.603042 1_556
O3 Si3 1.601888 1_554
O4 Si1 1.659873 1_555
O4 Si3 1.659873 1_555
O5 Si0 1.692568 1_555
O5 Si2 1.692568 1_445
O6 Si3 1.662564 1_555
O7 Si2 1.650011 1_555
O8 Si1 1.662564 1_555
O9 Si0 1.650011 1_555
O10 Si0 1.650011 1_555
O11 Si1 1.662564 1_555
O12 Si2 1.650011 1_555
O13 Si3 1.662564 1_555
