# generated using pymatgen
data_Tm2Ge5Rh3
_symmetry_space_group_name_H-M   'P 1'
_cell_length_a   8.33572963
_cell_length_b   8.33572963
_cell_length_c   5.90121030
_cell_angle_alpha   70.70525277
_cell_angle_beta   70.70525277
_cell_angle_gamma   92.60070323
_symmetry_Int_Tables_number   1
_chemical_formula_structural   Tm2Ge5Rh3
_chemical_formula_sum   'Tm4 Ge10 Rh6'
_cell_volume   359.73270531
_cell_formula_units_Z   2
loop_
 _symmetry_equiv_pos_site_id
 _symmetry_equiv_pos_as_xyz
  1  'x, y, z'
loop_
 _atom_site_type_symbol
 _atom_site_label
 _atom_site_symmetry_multiplicity
 _atom_site_fract_x
 _atom_site_fract_y
 _atom_site_fract_z
 _atom_site_occupancy
  Tm  Tm0  1  0.86577000  0.59134600  0.76739400  1
  Tm  Tm1  1  0.40865400  0.13423000  0.73260600  1
  Tm  Tm2  1  0.13423000  0.40865400  0.23260600  1
  Tm  Tm3  1  0.59134600  0.86577000  0.26739400  1
  Ge  Ge0  1  0.07202900  0.26296000  0.83293700  1
  Ge  Ge1  1  0.73704000  0.92797100  0.66706300  1
  Ge  Ge2  1  0.92797100  0.73704000  0.16706300  1
  Ge  Ge3  1  0.26296000  0.07202900  0.33293700  1
  Ge  Ge4  1  0.21219500  0.78780500  0.75000000  1
  Ge  Ge5  1  0.78780500  0.21219500  0.25000000  1
  Ge  Ge6  1  0.50791400  0.49208600  0.75000000  1
  Ge  Ge7  1  0.49208600  0.50791400  0.25000000  1
  Ge  Ge8  1  0.77821400  0.22178600  0.75000000  1
  Ge  Ge9  1  0.22178600  0.77821400  0.25000000  1
  Rh  Rh0  1  0.25299000  0.53993700  0.61826700  1
  Rh  Rh1  1  0.46006300  0.74701000  0.88173300  1
  Rh  Rh2  1  0.74701000  0.46006300  0.38173300  1
  Rh  Rh3  1  0.53993700  0.25299000  0.11826700  1
  Rh  Rh4  1  0.00199000  0.99801000  0.75000000  1
  Rh  Rh5  1  0.99801000  0.00199000  0.25000000  1
loop_
_geom_bond_atom_site_label_1
_geom_bond_atom_site_label_2
_geom_bond_distance
_geom_bond_site_symmetry_2
Ge0 Rh0 2.387260 1_555
Ge0 Rh4 2.498850 1_545
Ge0 Rh5 2.550839 1_456
Ge0 Ge8 2.680041 1_455
Ge0 Ge5 2.686428 1_456
Ge0 Tm1 2.995148 1_555
Ge0 Tm2 3.154418 1_556
Ge0 Tm2 3.190610 1_555
Ge0 Tm0 3.281092 1_455
Ge1 Rh1 2.387260 1_555
Ge1 Rh4 2.498850 1_655
Ge1 Rh5 2.550839 1_565
Ge1 Ge8 2.680041 1_565
Ge1 Ge5 2.686428 1_565
Ge1 Tm0 2.995148 1_555
Ge1 Tm3 3.154418 1_555
Ge1 Tm3 3.190610 1_556
Ge1 Tm1 3.281092 1_565
Ge2 Rh2 2.387260 1_555
Ge2 Rh5 2.498850 1_565
Ge2 Rh4 2.550839 1_654
Ge2 Ge9 2.680041 1_655
Ge2 Ge4 2.686428 1_654
Ge2 Tm3 2.995148 1_555
Ge2 Tm0 3.154418 1_554
Ge2 Tm0 3.190610 1_555
Ge2 Tm2 3.281092 1_655
Ge3 Rh3 2.387260 1_555
Ge3 Rh5 2.498850 1_455
Ge3 Rh4 2.550839 1_545
Ge3 Ge9 2.680041 1_545
Ge3 Ge4 2.686428 1_545
Ge3 Tm2 2.995148 1_555
Ge3 Tm1 3.154418 1_555
Ge3 Tm1 3.190610 1_554
Ge3 Tm3 3.281092 1_545
Ge4 Rh1 2.437112 1_555
Ge4 Rh0 2.437112 1_555
Ge4 Rh4 2.533598 1_555
Ge4 Ge9 2.952869 1_556
Ge4 Ge9 2.952869 1_555
Ge5 Rh3 2.437112 1_555
Ge5 Rh2 2.437112 1_555
Ge5 Rh5 2.533598 1_555
Ge5 Ge8 2.952869 1_555
Ge5 Ge8 2.952869 1_554
Ge6 Rh0 2.498528 1_555
Ge6 Rh1 2.498528 1_555
Ge6 Rh3 2.517067 1_556
Ge6 Rh2 2.517067 1_555
Ge7 Rh3 2.498528 1_555
Ge7 Rh2 2.498528 1_555
Ge7 Rh0 2.517067 1_555
Ge7 Rh1 2.517067 1_554
Ge8 Rh3 2.510670 1_556
Ge8 Rh2 2.510670 1_555
Ge8 Rh4 2.697169 1_645
Ge8 Tm0 3.176074 1_555
Ge8 Tm1 3.176074 1_555
Ge8 Tm3 3.317399 1_546
Ge8 Tm2 3.317399 1_655
Ge9 Rh0 2.510670 1_555
Ge9 Rh1 2.510670 1_554
Ge9 Rh5 2.697169 1_465
Ge9 Tm3 3.176074 1_555
Ge9 Tm2 3.176074 1_555
Ge9 Tm0 3.317399 1_455
Ge9 Tm1 3.317399 1_564
