# generated using pymatgen
data_VAs2H4O9
_symmetry_space_group_name_H-M   'P 1'
_cell_length_a   7.84187788
_cell_length_b   7.84187788
_cell_length_c   7.84187788
_cell_angle_alpha   105.91827963
_cell_angle_beta   105.91827963
_cell_angle_gamma   116.83790345
_symmetry_Int_Tables_number   1
_chemical_formula_structural   VAs2H4O9
_chemical_formula_sum   'V2 As4 H8 O18'
_cell_volume   366.56726835
_cell_formula_units_Z   2
loop_
 _symmetry_equiv_pos_site_id
 _symmetry_equiv_pos_as_xyz
  1  'x, y, z'
loop_
 _atom_site_type_symbol
 _atom_site_label
 _atom_site_symmetry_multiplicity
 _atom_site_fract_x
 _atom_site_fract_y
 _atom_site_fract_z
 _atom_site_occupancy
  V  V0  1  0.54214300  0.54214300  0.00000000  1
  V  V1  1  0.04214300  0.04214300  0.00000000  1
  As  As0  1  0.29950100  0.20376600  0.50000000  1
  As  As1  1  0.70376600  0.79950100  0.50000000  1
  As  As2  1  0.20376600  0.70376600  0.90426500  1
  As  As3  1  0.79950100  0.29950100  0.09573500  1
  H  H0  1  0.90401200  0.13216100  0.50000000  1
  H  H1  1  0.63216100  0.40401200  0.50000000  1
  H  H2  1  0.13216100  0.63216100  0.22814900  1
  H  H3  1  0.40401200  0.90401200  0.77185100  1
  H  H4  1  0.09636400  0.87160100  0.50000000  1
  H  H5  1  0.37160100  0.59636400  0.50000000  1
  H  H6  1  0.87160100  0.37160100  0.77523700  1
  H  H7  1  0.59636400  0.09636400  0.22476300  1
  O  O0  1  0.32328800  0.38239600  0.70294700  1
  O  O1  1  0.67944900  0.62034100  0.29705300  1
  O  O2  1  0.17944900  0.88239600  0.05910800  1
  O  O3  1  0.82328800  0.12034100  0.94089200  1
  O  O4  1  0.38239600  0.67944900  0.05910800  1
  O  O5  1  0.62034100  0.32328800  0.94089200  1
  O  O6  1  0.88239600  0.82328800  0.70294700  1
  O  O7  1  0.12034100  0.17944900  0.29705300  1
  O  O8  1  0.54269500  0.26693400  0.50000000  1
  O  O9  1  0.76693400  0.04269500  0.50000000  1
  O  O10  1  0.26693400  0.76693400  0.72423900  1
  O  O11  1  0.04269500  0.54269500  0.27576100  1
  O  O12  1  0.46005100  0.73380000  0.50000000  1
  O  O13  1  0.23380000  0.96005100  0.50000000  1
  O  O14  1  0.73380000  0.23380000  0.27374900  1
  O  O15  1  0.96005100  0.46005100  0.72625100  1
  O  O16  1  0.74359900  0.74359900  0.00000000  1
  O  O17  1  0.24359900  0.24359900  0.00000000  1
loop_
_geom_bond_atom_site_label_1
_geom_bond_atom_site_label_2
_geom_bond_distance
_geom_bond_site_symmetry_2
As0 O0 1.705346 1_555
As0 O7 1.705346 1_555
As0 O13 1.740394 1_545
As0 O8 1.740518 1_555
As1 O6 1.705346 1_555
As1 O1 1.705346 1_555
As1 O12 1.740394 1_555
As1 O9 1.740518 1_565
As2 O4 1.705346 1_556
As2 O2 1.705346 1_556
As2 O15 1.740394 1_455
As2 O10 1.740518 1_555
As3 O3 1.705346 1_554
As3 O5 1.705346 1_554
As3 O14 1.740394 1_555
As3 O11 1.740518 1_655
H0 O9 0.983245 1_555
H1 O8 0.983245 1_555
H2 O11 0.983245 1_555
H3 O10 0.983245 1_555
H4 O13 0.983703 1_555
H5 O12 0.983703 1_555
H6 O15 0.983703 1_555
H7 O14 0.983703 1_555
O0 V0 2.050896 1_556
O1 V0 2.050896 1_555
O2 V1 2.050896 1_565
O3 V1 2.050896 1_656
O4 V0 2.050896 1_555
O5 V0 2.050896 1_556
O6 V1 2.050896 1_666
O7 V1 2.050896 1_555
O16 V0 1.654689 1_555
O16 V1 2.452135 1_665
O17 V1 1.654689 1_555
O17 V0 2.452135 1_555
