# generated using pymatgen
data_CaLaCrCoO6
_symmetry_space_group_name_H-M   'P 1'
_cell_length_a   5.52243400
_cell_length_b   5.47474700
_cell_length_c   9.47076202
_cell_angle_alpha   54.96016037
_cell_angle_beta   90.00000000
_cell_angle_gamma   90.00000000
_symmetry_Int_Tables_number   1
_chemical_formula_structural   CaLaCrCoO6
_chemical_formula_sum   'Ca2 La2 Cr2 Co2 O12'
_cell_volume   234.44038556
_cell_formula_units_Z   2
loop_
 _symmetry_equiv_pos_site_id
 _symmetry_equiv_pos_as_xyz
  1  'x, y, z'
loop_
 _atom_site_type_symbol
 _atom_site_label
 _atom_site_symmetry_multiplicity
 _atom_site_fract_x
 _atom_site_fract_y
 _atom_site_fract_z
 _atom_site_occupancy
  Ca  Ca0  1  0.70753900  0.25938900  0.24999600  1
  Ca  Ca1  1  0.29246100  0.25938900  0.74999600  1
  La  La0  1  0.21721000  0.74321400  0.25019300  1
  La  La1  1  0.78279000  0.74321400  0.75019300  1
  Cr  Cr0  1  0.25029900  0.99934500  0.50040900  1
  Cr  Cr1  1  0.74970100  0.99934500  0.00040900  1
  Co  Co0  1  0.24958000  0.50066300  0.99913600  1
  Co  Co1  1  0.75042000  0.50066300  0.49913600  1
  O  O0  1  0.73180300  0.18241500  0.74656300  1
  O  O1  1  0.46223600  0.74302900  0.03739800  1
  O  O2  1  0.46877200  0.32647500  0.46064400  1
  O  O3  1  0.96381000  0.66393600  0.04270100  1
  O  O4  1  0.95822300  0.25572900  0.45902200  1
  O  O5  1  0.23491200  0.82580900  0.75393800  1
  O  O6  1  0.26819700  0.18241500  0.24656300  1
  O  O7  1  0.53776400  0.74302900  0.53739800  1
  O  O8  1  0.53122800  0.32647500  0.96064400  1
  O  O9  1  0.03619000  0.66393600  0.54270100  1
  O  O10  1  0.04177700  0.25572900  0.95902200  1
  O  O11  1  0.76508800  0.82580900  0.25393800  1
loop_
_geom_bond_atom_site_label_1
_geom_bond_atom_site_label_2
_geom_bond_distance
_geom_bond_site_symmetry_2
Ca0 O11 2.373875 1_545
Ca0 O3 2.401990 1_555
Ca0 O4 2.406311 1_555
Ca0 O6 2.465970 1_555
Ca0 O2 2.587455 1_555
Ca0 O1 2.603498 1_555
Ca0 O8 2.727065 1_554
Ca0 O7 2.728315 1_545
Ca1 O5 2.373875 1_545
Ca1 O9 2.401990 1_555
Ca1 O10 2.406311 1_555
Ca1 O0 2.465970 1_555
Ca1 O8 2.587455 1_555
Ca1 O7 2.603498 1_555
Ca1 O2 2.727065 1_555
Ca1 O1 2.728315 1_546
La0 O6 2.401506 1_565
La0 O2 2.426153 1_555
La0 O1 2.427940 1_555
La0 O11 2.541304 1_455
La0 O3 2.643425 1_455
La0 O4 2.649307 1_455
La0 O9 2.735226 1_555
La0 O10 2.744281 1_564
La1 O0 2.401506 1_565
La1 O8 2.426153 1_555
La1 O7 2.427940 1_555
La1 O5 2.541304 1_655
La1 O9 2.643425 1_655
La1 O10 2.649307 1_655
La1 O3 2.735226 1_556
La1 O4 2.744281 1_565
Cr0 O6 2.006788 1_565
Cr0 O2 2.007609 1_565
Cr0 O7 2.011857 1_555
Cr0 O5 2.013874 1_555
Cr0 O9 2.021351 1_555
Cr0 O4 2.023300 1_465
Cr1 O0 2.006788 1_564
Cr1 O8 2.007609 1_564
Cr1 O1 2.011857 1_555
Cr1 O11 2.013874 1_555
Cr1 O3 2.021351 1_555
Cr1 O10 2.023300 1_664
Co0 O5 1.954790 1_555
Co0 O1 1.955313 1_556
Co0 O10 1.960716 1_555
Co0 O6 1.961925 1_556
Co0 O8 1.964874 1_555
Co0 O3 1.970608 1_456
Co1 O11 1.954790 1_555
Co1 O7 1.955313 1_555
Co1 O4 1.960716 1_555
Co1 O0 1.961925 1_555
Co1 O2 1.964874 1_555
Co1 O9 1.970608 1_655
