# generated using pymatgen
data_Zr6MnBi2
_symmetry_space_group_name_H-M   'P 1'
_cell_length_a   3.84040785
_cell_length_b   7.85167911
_cell_length_c   7.85161230
_cell_angle_alpha   120.00129078
_cell_angle_beta   90.00000000
_cell_angle_gamma   90.00000000
_symmetry_Int_Tables_number   1
_chemical_formula_structural   Zr6MnBi2
_chemical_formula_sum   'Zr6 Mn1 Bi2'
_cell_volume   205.03297845
_cell_formula_units_Z   1
loop_
 _symmetry_equiv_pos_site_id
 _symmetry_equiv_pos_as_xyz
  1  'x, y, z'
loop_
 _atom_site_type_symbol
 _atom_site_label
 _atom_site_symmetry_multiplicity
 _atom_site_fract_x
 _atom_site_fract_y
 _atom_site_fract_z
 _atom_site_occupancy
  Zr  Zr0  1  0.50000000  0.76238323  0.76231136  1
  Zr  Zr1  1  0.50000000  0.00002958  0.23770304  1
  Zr  Zr2  1  0.50000000  0.23763175  -0.00003572  1
  Zr  Zr3  1  0.00000000  0.39337851  0.39334706  1
  Zr  Zr4  1  0.00000000  0.00000644  0.60668633  1
  Zr  Zr5  1  -0.00000000  0.60655267  0.99998801  1
  Mn  Mn0  1  0.00000000  0.00002468  -0.00001230  1
  Bi  Bi0  1  0.50000000  0.66668188  0.33333861  1
  Bi  Bi1  1  0.50000000  0.33330926  0.66667360  1
loop_
_geom_bond_atom_site_label_1
_geom_bond_atom_site_label_2
_geom_bond_distance
_geom_bond_site_symmetry_2
Mn0 Zr2 2.677320 1_555
Mn0 Zr2 2.677320 1_455
Mn0 Zr0 2.677509 1_444
Mn0 Zr0 2.677509 1_544
Mn0 Zr1 2.677824 1_555
Mn0 Zr1 2.677824 1_455
Mn0 Zr4 3.087978 1_554
Mn0 Zr3 3.088436 1_555
Mn0 Zr5 3.089417 1_544
Bi0 Zr0 3.062343 1_555
Bi0 Zr1 3.062634 1_565
Bi0 Zr2 3.062979 1_555
Bi0 Zr5 3.086229 1_554
Bi0 Zr5 3.086229 1_654
Bi0 Zr3 3.086280 1_655
Bi0 Zr3 3.086280 1_555
Bi0 Zr4 3.086380 1_565
Bi0 Zr4 3.086380 1_665
Bi1 Zr1 3.062320 1_555
Bi1 Zr2 3.062400 1_556
Bi1 Zr0 3.063302 1_555
Bi1 Zr5 3.086112 1_555
Bi1 Zr5 3.086112 1_655
Bi1 Zr4 3.086260 1_655
Bi1 Zr4 3.086260 1_555
Bi1 Zr3 3.086648 1_555
Bi1 Zr3 3.086648 1_655
