# generated using pymatgen
data_SmMn5Co7
_symmetry_space_group_name_H-M   'P 1'
_cell_length_a   6.34837552
_cell_length_b   6.34837552
_cell_length_c   6.34837552
_cell_angle_alpha   137.60390249
_cell_angle_beta   97.53482762
_cell_angle_gamma   97.49096846
_symmetry_Int_Tables_number   1
_chemical_formula_structural   SmMn5Co7
_chemical_formula_sum   'Sm1 Mn5 Co7'
_cell_volume   160.83575122
_cell_formula_units_Z   1
loop_
 _symmetry_equiv_pos_site_id
 _symmetry_equiv_pos_as_xyz
  1  'x, y, z'
loop_
 _atom_site_type_symbol
 _atom_site_label
 _atom_site_symmetry_multiplicity
 _atom_site_fract_x
 _atom_site_fract_y
 _atom_site_fract_z
 _atom_site_occupancy
  Sm  Sm0  1  0.99786700  0.00000000  0.99786700  1
  Mn  Mn0  1  0.50077500  0.49842100  0.49705400  1
  Mn  Mn1  1  0.50077500  0.00372100  0.00235500  1
  Mn  Mn2  1  0.99863400  0.99627900  0.49705400  1
  Mn  Mn3  1  0.99863400  0.50157900  0.00235500  1
  Mn  Mn4  1  0.22820800  0.50000000  0.72820800  1
  Co  Co0  1  0.64213200  0.00000000  0.64213200  1
  Co  Co1  1  0.35989000  0.00000000  0.35989000  1
  Co  Co2  1  0.35692300  0.35888400  0.99803900  1
  Co  Co3  1  0.63915600  0.64111600  0.99803900  1
  Co  Co4  1  0.77373400  0.50000000  0.27373400  1
  Co  Co5  1  0.77110100  0.26946500  0.50163600  1
  Co  Co6  1  0.23217100  0.73053500  0.50163600  1
loop_
_geom_bond_atom_site_label_1
_geom_bond_atom_site_label_2
_geom_bond_distance
_geom_bond_site_symmetry_2
Mn0 Mn1 2.271192 1_555
Mn0 Mn1 2.319862 1_566
Mn0 Mn4 2.407567 1_555
Mn0 Sm0 3.162594 1_565
Mn0 Sm0 3.185886 1_454
Mn1 Mn4 2.407565 1_544
Mn1 Sm0 3.162594 1_554
Mn1 Sm0 3.185885 1_454
Mn2 Mn3 2.271192 1_555
Mn2 Mn3 2.319862 1_566
Mn2 Mn4 2.407565 1_665
Mn2 Sm0 3.162594 1_565
Mn2 Sm0 3.185885 1_564
Mn3 Mn4 2.407568 1_654
Mn3 Sm0 3.162588 1_554
Mn3 Sm0 3.185891 1_564
Mn4 Sm0 2.997541 1_465
Mn4 Sm0 2.997541 1_454
Co0 Co1 2.361984 1_555
Co0 Co6 2.544041 1_545
Co0 Co5 2.544041 1_555
Co0 Co4 2.546051 1_556
Co0 Co4 2.546051 1_545
Co0 Mn0 2.549385 1_545
Co0 Mn3 2.549388 1_556
Co0 Mn2 2.549391 1_545
Co0 Mn1 2.549391 1_556
Co0 Co3 2.849456 1_555
Co0 Co2 2.849458 1_555
Co0 Co2 2.849458 1_544
Co0 Co3 2.849460 1_544
Co0 Sm0 2.977021 1_555
Co1 Mn4 2.546340 1_544
Co1 Mn4 2.546340 1_555
Co1 Co6 2.548892 1_545
Co1 Co5 2.548892 1_555
Co1 Mn1 2.560940 1_555
Co1 Mn2 2.560940 1_445
Co1 Mn3 2.560943 1_445
Co1 Mn0 2.560946 1_555
Co1 Co2 2.828766 1_544
Co1 Co2 2.828766 1_555
Co1 Co3 2.828768 1_555
Co1 Co3 2.828772 1_544
Co1 Sm0 3.029643 1_454
Co2 Co3 2.362936 1_555
Co2 Co6 2.534771 1_545
Co2 Co6 2.534771 1_556
Co2 Mn4 2.548523 1_555
Co2 Mn3 2.551842 1_456
Co2 Mn2 2.551845 1_445
Co2 Mn0 2.557339 1_556
Co2 Mn1 2.557343 1_556
Co2 Co4 2.592105 1_556
Co2 Sm0 3.004686 1_455
Co3 Co5 2.534767 1_555
Co3 Co5 2.534771 1_566
Co3 Mn4 2.548529 1_555
Co3 Mn1 2.551848 1_566
Co3 Mn0 2.551849 1_555
Co3 Mn2 2.557339 1_556
Co3 Mn3 2.557340 1_556
Co3 Co4 2.592103 1_556
Co3 Sm0 3.004681 1_565
Co4 Mn3 2.381917 1_555
Co4 Mn0 2.381918 1_555
Co4 Mn1 2.381920 1_555
Co4 Mn2 2.381920 1_555
Co4 Co6 2.713458 1_655
Co4 Co5 2.713458 1_555
Co4 Sm0 2.964398 1_565
Co4 Sm0 2.964398 1_554
Co5 Mn2 2.384276 1_545
Co5 Mn3 2.384278 1_556
Co5 Mn1 2.399652 1_555
Co5 Mn0 2.399657 1_555
Co5 Mn4 2.705646 1_655
Co5 Sm0 2.999293 1_565
Co5 Sm0 2.999293 1_554
Co6 Mn0 2.384271 1_555
Co6 Mn1 2.384276 1_566
Co6 Mn3 2.399650 1_455
Co6 Mn2 2.399652 1_455
Co6 Mn4 2.705646 1_555
Co6 Sm0 2.999293 1_454
Co6 Sm0 2.999293 1_465
