# generated using pymatgen
data_Cs4K3U3Si4O20F
_symmetry_space_group_name_H-M   'P 1'
_cell_length_a   11.83984190
_cell_length_b   11.83984190
_cell_length_c   14.20683919
_cell_angle_alpha   90.00000000
_cell_angle_beta   90.00000000
_cell_angle_gamma   141.48009159
_symmetry_Int_Tables_number   1
_chemical_formula_structural   Cs4K3U3Si4O20F
_chemical_formula_sum   'Cs8 K6 U6 Si8 O40 F2'
_cell_volume   1240.30496462
_cell_formula_units_Z   2
loop_
 _symmetry_equiv_pos_site_id
 _symmetry_equiv_pos_as_xyz
  1  'x, y, z'
loop_
 _atom_site_type_symbol
 _atom_site_label
 _atom_site_symmetry_multiplicity
 _atom_site_fract_x
 _atom_site_fract_y
 _atom_site_fract_z
 _atom_site_occupancy
  Cs  Cs0  1  0.70743529  0.78477642  0.66824262  1
  Cs  Cs1  1  0.21522358  0.29256471  0.66824262  1
  Cs  Cs2  1  0.29256471  0.21522358  0.16824262  1
  Cs  Cs3  1  0.78477642  0.70743529  0.16824262  1
  Cs  Cs4  1  0.53196461  0.95725476  0.78264434  1
  Cs  Cs5  1  0.04274524  0.46803539  0.78264434  1
  Cs  Cs6  1  0.46803539  0.04274524  0.28264434  1
  Cs  Cs7  1  0.95725476  0.53196461  0.28264434  1
  K  K0  1  0.38088209  0.61911791  0.23081367  1
  K  K1  1  0.61911791  0.38088209  0.73081367  1
  K  K2  1  0.83222985  0.16777015  0.52067906  1
  K  K3  1  0.16777015  0.83222985  0.02067906  1
  K  K4  1  0.08536456  0.91463444  0.43737686  1
  K  K5  1  0.91463544  0.08536456  0.93737686  1
  U  U0  1  0.12532595  0.87467405  0.72021420  1
  U  U1  1  0.87467405  0.12532595  0.22021420  1
  U  U2  1  0.32517122  0.67482878  0.49455553  1
  U  U3  1  0.67482878  0.32517122  0.99455553  1
  U  U4  1  0.42602718  0.57397282  0.94764357  1
  U  U5  1  0.57397282  0.42602718  0.44764357  1
  Si  Si0  1  0.50236135  0.89862580  0.05428406  1
  Si  Si1  1  0.10137420  0.49763865  0.05428406  1
  Si  Si2  1  0.49763865  0.10137420  0.55428406  1
  Si  Si3  1  0.89862580  0.50236135  0.55428406  1
  Si  Si4  1  0.74387112  0.85329656  0.40772118  1
  Si  Si5  1  0.14670344  0.25612888  0.40772118  1
  Si  Si6  1  0.25612888  0.14670344  0.90772118  1
  Si  Si7  1  0.85329656  0.74387112  0.90772118  1
  O  O0  1  0.47063459  0.95265789  0.51578320  1
  O  O1  1  0.04734211  0.52936541  0.51578320  1
  O  O2  1  0.52936541  0.04734211  0.01578320  1
  O  O3  1  0.95265789  0.47063459  0.01578320  1
  O  O4  1  0.38414540  0.03264536  0.65048784  1
  O  O5  1  0.96735464  0.61585460  0.65048784  1
  O  O6  1  0.61585460  0.96735464  0.15048784  1
  O  O7  1  0.03264536  0.38414540  0.15048784  1
  O  O8  1  0.54818252  0.84135926  0.97365284  1
  O  O9  1  0.15864074  0.45181748  0.97365284  1
  O  O10  1  0.45181748  0.15864074  0.47365284  1
  O  O11  1  0.84135926  0.54818252  0.47365284  1
  O  O12  1  0.71495909  0.28504091  0.58396367  1
  O  O13  1  0.28504091  0.71495909  0.08396367  1
  O  O14  1  0.70379682  0.72589847  0.92168631  1
  O  O15  1  0.27410153  0.29620318  0.92168631  1
  O  O16  1  0.29620318  0.27410153  0.42168631  1
  O  O17  1  0.72589847  0.70379682  0.42168631  1
  O  O18  1  0.94910800  0.05089200  0.44625553  1
  O  O19  1  0.05089200  0.94910800  0.94625553  1
  O  O20  1  0.26932387  0.12661313  0.79647551  1
  O  O21  1  0.87338687  0.73067613  0.79647551  1
  O  O22  1  0.73067613  0.87338687  0.29647551  1
  O  O23  1  0.12661313  0.26932387  0.29647551  1
  O  O24  1  0.59823368  0.80785938  0.47144495  1
  O  O25  1  0.19214062  0.40176632  0.47144495  1
  O  O26  1  0.40176632  0.19214062  0.97144495  1
  O  O27  1  0.80785938  0.59823368  0.97144495  1
  O  O28  1  0.18030212  0.81969788  0.81865496  1
  O  O29  1  0.81969788  0.18030212  0.31865496  1
  O  O30  1  0.06847223  0.93152777  0.62476087  1
  O  O31  1  0.93152777  0.06847223  0.12476087  1
  O  O32  1  0.30488053  0.69511947  0.36813270  1
  O  O33  1  0.69511947  0.30488053  0.86813270  1
  O  O34  1  0.34398416  0.65601584  0.62158899  1
  O  O35  1  0.65601584  0.34398416  0.12158899  1
  O  O36  1  0.40522297  0.59477703  0.82103864  1
  O  O37  1  0.59477703  0.40522297  0.32103864  1
  O  O38  1  0.44610947  0.55389053  0.07459901  1
  O  O39  1  0.55389053  0.44610947  0.57459901  1
  F  F0  1  0.87501701  0.12498299  0.72769501  1
  F  F1  1  0.12498299  0.87501701  0.22769501  1
loop_
_geom_bond_atom_site_label_1
_geom_bond_atom_site_label_2
_geom_bond_distance
_geom_bond_site_symmetry_2
Cs0 F0 2.892926 1_565
Cs0 O21 3.091788 1_555
Cs0 O39 3.121938 1_555
Cs0 O36 3.159186 1_555
Cs0 O30 3.170324 1_655
Cs0 O24 3.180596 1_555
Cs0 O34 3.318976 1_555
Cs1 F0 2.892926 1_455
Cs1 O20 3.091788 1_555
Cs1 O39 3.121938 1_555
Cs1 O36 3.159186 1_555
Cs1 O30 3.170324 1_545
Cs1 O25 3.180596 1_555
Cs1 O34 3.318976 1_555
Cs2 F1 2.892926 1_545
Cs2 O23 3.091788 1_555
Cs2 O38 3.121938 1_555
Cs2 O37 3.159186 1_555
Cs2 O31 3.170324 1_455
Cs2 O26 3.180596 1_554
Cs2 O35 3.318976 1_555
Cs3 F1 2.892926 1_655
Cs3 O22 3.091788 1_555
Cs3 O38 3.121938 1_555
Cs3 O37 3.159186 1_555
Cs3 O31 3.170324 1_565
Cs3 O27 3.180596 1_554
Cs3 O35 3.318976 1_555
Cs4 F0 2.903252 1_565
Cs4 O28 3.104687 1_555
Cs4 O8 3.113812 1_555
Cs4 O33 3.115388 1_565
Cs4 O4 3.135192 1_565
Cs4 O34 3.238566 1_555
Cs4 O36 3.300073 1_555
Cs4 O2 3.487181 1_566
Cs5 F0 2.903252 1_455
Cs5 O28 3.104687 1_555
Cs5 O9 3.113812 1_555
Cs5 O33 3.115388 1_455
Cs5 O5 3.135192 1_455
Cs5 O34 3.238566 1_555
Cs5 O36 3.300073 1_555
Cs5 O3 3.487181 1_456
Cs6 F1 2.903252 1_545
Cs6 O29 3.104687 1_555
Cs6 O10 3.113812 1_555
Cs6 O32 3.115388 1_545
Cs6 O6 3.135192 1_545
Cs6 O35 3.238566 1_555
Cs6 O37 3.300073 1_555
Cs6 O0 3.487181 1_545
Cs7 F1 2.903252 1_655
Cs7 O29 3.104687 1_555
Cs7 O11 3.113812 1_555
Cs7 O32 3.115388 1_655
Cs7 O7 3.135192 1_655
Cs7 O35 3.238566 1_555
Cs7 O37 3.300073 1_555
Cs7 O1 3.487181 1_655
K0 O32 2.586964 1_555
K0 O38 2.655461 1_555
K0 O22 2.752391 1_555
K0 O23 2.752391 1_555
K0 O6 2.844786 1_555
K0 O7 2.844786 1_555
K0 O13 2.990437 1_555
K1 O33 2.586964 1_555
K1 O39 2.655461 1_555
K1 O21 2.752391 1_555
K1 O20 2.752391 1_555
K1 O4 2.844786 1_555
K1 O5 2.844786 1_555
K1 O12 2.990437 1_555
K2 O12 2.771402 1_555
K2 O0 2.785371 1_545
K2 O1 2.785371 1_655
K2 O25 2.801756 1_655
K2 O24 2.801756 1_545
K2 O18 2.818569 1_555
K2 O29 2.883764 1_555
K3 O13 2.771402 1_555
K3 O3 2.785371 1_455
K3 O2 2.785371 1_565
K3 O26 2.801756 1_564
K3 O27 2.801756 1_454
K3 O19 2.818569 1_554
K3 O28 2.883764 1_554
K4 O30 2.688785 1_555
K4 O17 2.787510 1_455
K4 O16 2.787516 1_565
K4 O11 2.796892 1_455
K4 O10 2.796899 1_565
K4 O18 3.048552 1_465
K5 O31 2.688783 1_556
K5 O14 2.787506 1_545
K5 O15 2.787506 1_655
K5 O9 2.796901 1_655
K5 O8 2.796901 1_545
K5 O19 3.048541 1_645
O0 Si2 1.618897 1_565
O0 U2 2.238898 1_555
O1 Si3 1.618897 1_455
O1 U2 2.238898 1_555
O2 Si0 1.618897 1_545
O2 U3 2.238898 1_554
O3 Si1 1.618897 1_655
O3 U3 2.238898 1_554
O4 Si2 1.620124 1_555
O4 U0 2.213911 1_545
O5 Si3 1.620124 1_555
O5 U0 2.213911 1_655
O6 Si0 1.620124 1_555
O6 U1 2.213911 1_565
O7 Si1 1.620124 1_555
O7 U1 2.213911 1_455
O8 Si0 1.625373 1_556
O8 U4 2.255215 1_555
O9 Si1 1.625373 1_556
O9 U4 2.255215 1_555
O10 Si2 1.625373 1_555
O10 U5 2.255215 1_555
O11 Si3 1.625373 1_555
O11 U5 2.255215 1_555
O12 Si2 1.664849 1_555
O12 Si3 1.664849 1_555
O13 Si1 1.664849 1_555
O13 Si0 1.664849 1_555
O14 Si7 1.621218 1_555
O14 U4 2.220502 1_555
O15 Si6 1.621218 1_555
O15 U4 2.220502 1_555
O16 Si5 1.621218 1_555
O16 U5 2.220502 1_555
O17 Si4 1.621218 1_555
O17 U5 2.220502 1_555
O18 Si4 1.667950 1_545
O18 Si5 1.667950 1_655
O19 Si6 1.667950 1_565
O19 Si7 1.667950 1_455
O20 Si6 1.623871 1_555
O20 U0 2.240640 1_545
O21 Si7 1.623871 1_555
O21 U0 2.240640 1_655
O22 Si4 1.623871 1_555
O22 U1 2.240640 1_565
O23 Si5 1.623871 1_555
O23 U1 2.240640 1_455
O24 Si4 1.621959 1_555
O24 U2 2.252293 1_555
O25 Si5 1.621959 1_555
O25 U2 2.252293 1_555
O26 Si6 1.621959 1_555
O26 U3 2.252293 1_555
O27 Si7 1.621959 1_555
O27 U3 2.252293 1_555
O28 U0 1.861781 1_555
O29 U1 1.861781 1_555
O30 U0 1.858559 1_555
O31 U1 1.858559 1_555
O32 U2 1.852459 1_555
O33 U3 1.852459 1_555
O34 U2 1.853096 1_555
O35 U3 1.853096 1_554
O36 U4 1.857807 1_555
O37 U5 1.857807 1_555
O38 U4 1.858665 1_554
O39 U5 1.858665 1_555
F0 K2 3.092666 1_555
F0 K5 3.107782 1_555
F1 K3 3.092666 1_555
F1 K4 3.107779 1_555
