# generated using pymatgen
data_KEuSnBiO6
_symmetry_space_group_name_H-M   'P 1'
_cell_length_a   8.42096166
_cell_length_b   8.34371133
_cell_length_c   8.41698465
_cell_angle_alpha   90.00000000
_cell_angle_beta   90.00000000
_cell_angle_gamma   90.00000000
_symmetry_Int_Tables_number   1
_chemical_formula_structural   KEuSnBiO6
_chemical_formula_sum   'K4 Eu4 Sn4 Bi4 O24'
_cell_volume   591.39479170
_cell_formula_units_Z   4
loop_
 _symmetry_equiv_pos_site_id
 _symmetry_equiv_pos_as_xyz
  1  'x, y, z'
loop_
 _atom_site_type_symbol
 _atom_site_label
 _atom_site_symmetry_multiplicity
 _atom_site_fract_x
 _atom_site_fract_y
 _atom_site_fract_z
 _atom_site_occupancy
  K  K0  1  0.00000000  0.50000000  0.50000000  1
  K  K1  1  0.50000000  0.50000000  -0.00000000  1
  K  K2  1  0.50000000  -0.00000000  -0.00000000  1
  K  K3  1  0.00000000  -0.00000000  0.50000000  1
  Eu  Eu0  1  0.50000000  -0.00000000  0.50000000  1
  Eu  Eu1  1  0.00000000  0.50000000  -0.00000000  1
  Eu  Eu2  1  -0.00000000  -0.00000000  0.00000000  1
  Eu  Eu3  1  0.50000000  0.50000000  0.50000000  1
  Sn  Sn0  1  0.25000000  0.25000000  0.25000000  1
  Sn  Sn1  1  0.75000000  0.75000000  0.25000000  1
  Sn  Sn2  1  0.75000000  0.25000000  0.75000000  1
  Sn  Sn3  1  0.25000000  0.75000000  0.75000000  1
  Bi  Bi0  1  0.75000000  0.75000000  0.75000000  1
  Bi  Bi1  1  0.25000000  0.25000000  0.75000000  1
  Bi  Bi2  1  0.25000000  0.75000000  0.25000000  1
  Bi  Bi3  1  0.75000000  0.25000000  0.25000000  1
  O  O0  1  0.00447224  0.23001751  0.24768888  1
  O  O1  1  0.99552776  0.76998249  0.24768888  1
  O  O2  1  0.99552776  0.23001751  0.75231112  1
  O  O3  1  0.00447224  0.76998249  0.75231112  1
  O  O4  1  0.26548055  0.00480144  0.23323157  1
  O  O5  1  0.26548055  0.99519856  0.76676843  1
  O  O6  1  0.73451945  0.99519856  0.23323157  1
  O  O7  1  0.73451945  0.00480144  0.76676843  1
  O  O8  1  0.21009886  0.26751279  0.00396982  1
  O  O9  1  0.78990114  0.26751279  0.99603018  1
  O  O10  1  0.21009886  0.73248721  0.99603018  1
  O  O11  1  0.78990114  0.73248721  0.00396982  1
  O  O12  1  0.49552776  0.26998249  0.25231112  1
  O  O13  1  0.50447224  0.73001751  0.25231112  1
  O  O14  1  0.50447224  0.26998249  0.74768888  1
  O  O15  1  0.49552776  0.73001751  0.74768888  1
  O  O16  1  0.23451945  0.49519856  0.26676843  1
  O  O17  1  0.23451945  0.50480144  0.73323157  1
  O  O18  1  0.76548055  0.50480144  0.26676843  1
  O  O19  1  0.76548055  0.49519856  0.73323157  1
  O  O20  1  0.28990114  0.23248721  0.49603018  1
  O  O21  1  0.71009886  0.23248721  0.50396982  1
  O  O22  1  0.28990114  0.76751279  0.50396982  1
  O  O23  1  0.71009886  0.76751279  0.49603018  1
loop_
_geom_bond_atom_site_label_1
_geom_bond_atom_site_label_2
_geom_bond_distance
_geom_bond_site_symmetry_2
K0 O16 2.784877 1_555
K0 O18 2.784877 1_455
K0 O19 2.784877 1_455
K0 O17 2.784877 1_555
K0 O0 3.096122 1_555
K0 O1 3.096122 1_455
K0 O2 3.096122 1_455
K0 O3 3.096122 1_555
K0 O21 3.307997 1_455
K0 O20 3.307997 1_555
K0 O22 3.307997 1_555
K0 O23 3.307997 1_455
K1 O12 2.862664 1_555
K1 O14 2.862664 1_554
K1 O15 2.862664 1_554
K1 O13 2.862664 1_555
K1 O11 3.118277 1_555
K1 O9 3.118277 1_554
K1 O8 3.118277 1_555
K1 O10 3.118277 1_554
K1 O17 3.168797 1_554
K1 O19 3.168797 1_554
K1 O16 3.168797 1_555
K1 O18 3.168797 1_555
K2 O7 2.784877 1_554
K2 O5 2.784877 1_544
K2 O6 2.784877 1_545
K2 O4 2.784877 1_555
K2 O13 3.096122 1_545
K2 O12 3.096122 1_555
K2 O15 3.096122 1_544
K2 O14 3.096122 1_554
K2 O8 3.307997 1_555
K2 O9 3.307997 1_554
K2 O10 3.307997 1_544
K2 O11 3.307997 1_545
K3 O0 2.862664 1_555
K3 O2 2.862664 1_455
K3 O3 2.862664 1_545
K3 O1 2.862664 1_445
K3 O23 3.118277 1_445
K3 O22 3.118277 1_545
K3 O21 3.118277 1_455
K3 O20 3.118277 1_555
K3 O4 3.168797 1_555
K3 O6 3.168797 1_445
K3 O5 3.168797 1_545
K3 O7 3.168797 1_455
Eu0 O23 2.625672 1_545
Eu0 O22 2.625672 1_545
Eu0 O21 2.625672 1_555
Eu0 O20 2.625672 1_555
Eu0 O6 2.990570 1_545
Eu0 O4 2.990570 1_555
Eu0 O7 2.990570 1_555
Eu0 O5 2.990570 1_545
Eu0 O15 3.069567 1_545
Eu0 O13 3.069567 1_545
Eu0 O12 3.069567 1_555
Eu0 O14 3.069567 1_555
Eu1 O9 2.625672 1_454
Eu1 O8 2.625672 1_555
Eu1 O10 2.625672 1_554
Eu1 O11 2.625672 1_455
Eu1 O19 2.990570 1_454
Eu1 O17 2.990570 1_554
Eu1 O18 2.990570 1_455
Eu1 O16 2.990570 1_555
Eu1 O3 3.069567 1_554
Eu1 O1 3.069567 1_455
Eu1 O0 3.069567 1_555
Eu1 O2 3.069567 1_454
Eu2 O0 2.833921 1_555
Eu2 O2 2.833921 1_454
Eu2 O3 2.833921 1_544
Eu2 O1 2.833921 1_445
Eu2 O11 2.848395 1_445
Eu2 O10 2.848395 1_544
Eu2 O9 2.848395 1_454
Eu2 O8 2.848395 1_555
Eu2 O5 2.975451 1_544
Eu2 O7 2.975451 1_454
Eu2 O6 2.975451 1_445
Eu2 O4 2.975451 1_555
Eu3 O14 2.833921 1_555
Eu3 O12 2.833921 1_555
Eu3 O13 2.833921 1_555
Eu3 O15 2.833921 1_555
Eu3 O20 2.848395 1_555
Eu3 O21 2.848395 1_555
Eu3 O22 2.848395 1_555
Eu3 O23 2.848395 1_555
Eu3 O18 2.975451 1_555
Eu3 O16 2.975451 1_555
Eu3 O17 2.975451 1_555
Eu3 O19 2.975451 1_555
Bi0 O19 2.134654 1_555
Bi0 O7 2.134654 1_565
Bi0 O3 2.149465 1_655
Bi0 O15 2.149465 1_555
Bi0 O23 2.168834 1_555
Bi0 O11 2.168834 1_556
Bi1 O5 2.134654 1_545
Bi1 O17 2.134654 1_555
Bi1 O14 2.149465 1_555
Bi1 O2 2.149465 1_455
Bi1 O20 2.168834 1_555
Bi1 O8 2.168834 1_556
Bi2 O16 2.134654 1_555
Bi2 O4 2.134654 1_565
Bi2 O13 2.149465 1_555
Bi2 O1 2.149465 1_455
Bi2 O22 2.168834 1_555
Bi2 O10 2.168834 1_554
Bi3 O6 2.134654 1_545
Bi3 O18 2.134654 1_555
Bi3 O0 2.149465 1_655
Bi3 O12 2.149465 1_555
Bi3 O9 2.168834 1_554
Bi3 O21 2.168834 1_555
O0 Sn0 2.074383 1_555
O1 Sn1 2.074383 1_555
O2 Sn2 2.074383 1_555
O3 Sn3 2.074383 1_555
O4 Sn0 2.054868 1_555
O5 Sn3 2.054868 1_555
O6 Sn1 2.054868 1_555
O7 Sn2 2.054868 1_555
O8 Sn0 2.102997 1_555
O9 Sn2 2.102997 1_555
O10 Sn3 2.102997 1_555
O11 Sn1 2.102997 1_555
O12 Sn0 2.074383 1_555
O13 Sn1 2.074383 1_555
O14 Sn2 2.074383 1_555
O15 Sn3 2.074383 1_555
O16 Sn0 2.054868 1_555
O17 Sn3 2.054868 1_555
O18 Sn1 2.054868 1_555
O19 Sn2 2.054868 1_555
O20 Sn0 2.102997 1_555
O21 Sn2 2.102997 1_555
O22 Sn3 2.102997 1_555
O23 Sn1 2.102997 1_555
