# generated using pymatgen
data_Mg30MnFeO32
_symmetry_space_group_name_H-M   'P 1'
_cell_length_a   8.54763000
_cell_length_b   8.54763000
_cell_length_c   8.52598800
_cell_angle_alpha   90.00000000
_cell_angle_beta   90.00000000
_cell_angle_gamma   90.00000000
_symmetry_Int_Tables_number   1
_chemical_formula_structural   Mg30MnFeO32
_chemical_formula_sum   'Mg30 Mn1 Fe1 O32'
_cell_volume   622.92555294
_cell_formula_units_Z   1
loop_
 _symmetry_equiv_pos_site_id
 _symmetry_equiv_pos_as_xyz
  1  'x, y, z'
loop_
 _atom_site_type_symbol
 _atom_site_label
 _atom_site_symmetry_multiplicity
 _atom_site_fract_x
 _atom_site_fract_y
 _atom_site_fract_z
 _atom_site_occupancy
  Mg  Mg0  1  0.50000000  0.00000000  0.00000000  1
  Mg  Mg1  1  0.00000000  0.50000000  0.00000000  1
  Mg  Mg2  1  0.00000000  0.00000000  0.50000000  1
  Mg  Mg3  1  0.50000000  0.00000000  0.50000000  1
  Mg  Mg4  1  0.00000000  0.50000000  0.50000000  1
  Mg  Mg5  1  0.50000000  0.50000000  0.50000000  1
  Mg  Mg6  1  0.25125300  0.25125300  0.00000000  1
  Mg  Mg7  1  0.74874700  0.25125300  0.00000000  1
  Mg  Mg8  1  0.25125300  0.74874700  0.00000000  1
  Mg  Mg9  1  0.74874700  0.74874700  0.00000000  1
  Mg  Mg10  1  0.24996500  0.24996500  0.50000000  1
  Mg  Mg11  1  0.75003500  0.24996500  0.50000000  1
  Mg  Mg12  1  0.24996500  0.75003500  0.50000000  1
  Mg  Mg13  1  0.75003500  0.75003500  0.50000000  1
  Mg  Mg14  1  0.25071300  0.00000000  0.25047500  1
  Mg  Mg15  1  0.74928700  0.00000000  0.25047500  1
  Mg  Mg16  1  0.24878800  0.50000000  0.24988200  1
  Mg  Mg17  1  0.75121200  0.50000000  0.24988200  1
  Mg  Mg18  1  0.25071300  0.00000000  0.74952500  1
  Mg  Mg19  1  0.74928700  0.00000000  0.74952500  1
  Mg  Mg20  1  0.24878800  0.50000000  0.75011800  1
  Mg  Mg21  1  0.75121200  0.50000000  0.75011800  1
  Mg  Mg22  1  0.00000000  0.25071300  0.25047500  1
  Mg  Mg23  1  0.50000000  0.24878800  0.24988200  1
  Mg  Mg24  1  0.00000000  0.74928700  0.25047500  1
  Mg  Mg25  1  0.50000000  0.75121200  0.24988200  1
  Mg  Mg26  1  0.00000000  0.25071300  0.74952500  1
  Mg  Mg27  1  0.50000000  0.24878800  0.75011800  1
  Mg  Mg28  1  0.00000000  0.74928700  0.74952500  1
  Mg  Mg29  1  0.50000000  0.75121200  0.75011800  1
  Mn  Mn0  1  0.00000000  0.00000000  0.00000000  1
  Fe  Fe0  1  0.50000000  0.50000000  0.00000000  1
  O  O0  1  0.00000000  0.00000000  0.25660000  1
  O  O1  1  0.50000000  0.00000000  0.25148900  1
  O  O2  1  0.00000000  0.50000000  0.25148900  1
  O  O3  1  0.50000000  0.50000000  0.25026400  1
  O  O4  1  0.00000000  0.00000000  0.74340000  1
  O  O5  1  0.50000000  0.00000000  0.74851100  1
  O  O6  1  0.00000000  0.50000000  0.74851100  1
  O  O7  1  0.50000000  0.50000000  0.74973600  1
  O  O8  1  0.25013600  0.25013600  0.24977200  1
  O  O9  1  0.74986400  0.25013600  0.24977200  1
  O  O10  1  0.25013600  0.74986400  0.24977200  1
  O  O11  1  0.74986400  0.74986400  0.24977200  1
  O  O12  1  0.25013600  0.25013600  0.75022800  1
  O  O13  1  0.74986400  0.25013600  0.75022800  1
  O  O14  1  0.25013600  0.74986400  0.75022800  1
  O  O15  1  0.74986400  0.74986400  0.75022800  1
  O  O16  1  0.25573400  0.00000000  0.00000000  1
  O  O17  1  0.74426600  0.00000000  0.00000000  1
  O  O18  1  0.24457000  0.50000000  0.00000000  1
  O  O19  1  0.75543000  0.50000000  0.00000000  1
  O  O20  1  0.25075200  0.00000000  0.50000000  1
  O  O21  1  0.74924800  0.00000000  0.50000000  1
  O  O22  1  0.25060700  0.50000000  0.50000000  1
  O  O23  1  0.74939300  0.50000000  0.50000000  1
  O  O24  1  0.00000000  0.25573400  0.00000000  1
  O  O25  1  0.50000000  0.24457000  0.00000000  1
  O  O26  1  0.00000000  0.74426600  0.00000000  1
  O  O27  1  0.50000000  0.75543000  0.00000000  1
  O  O28  1  0.00000000  0.25075200  0.50000000  1
  O  O29  1  0.50000000  0.25060700  0.50000000  1
  O  O30  1  0.00000000  0.74924800  0.50000000  1
  O  O31  1  0.50000000  0.74939300  0.50000000  1
loop_
_geom_bond_atom_site_label_1
_geom_bond_atom_site_label_2
_geom_bond_distance
_geom_bond_site_symmetry_2
Mg0 O17 2.087895 1_555
Mg0 O16 2.087895 1_555
Mg0 O27 2.090494 1_545
Mg0 O25 2.090494 1_555
Mg0 O1 2.144192 1_555
Mg0 O5 2.144192 1_554
Mg1 O26 2.087895 1_555
Mg1 O24 2.087895 1_555
Mg1 O19 2.090494 1_455
Mg1 O18 2.090494 1_555
Mg1 O2 2.144192 1_555
Mg1 O6 2.144192 1_554
Mg2 O0 2.075225 1_555
Mg2 O4 2.075225 1_555
Mg2 O20 2.143335 1_555
Mg2 O28 2.143335 1_555
Mg2 O30 2.143335 1_545
Mg2 O21 2.143335 1_455
Mg3 O5 2.118802 1_555
Mg3 O1 2.118802 1_555
Mg3 O21 2.130480 1_555
Mg3 O20 2.130480 1_555
Mg3 O29 2.142096 1_555
Mg3 O31 2.142096 1_545
Mg4 O6 2.118802 1_555
Mg4 O2 2.118802 1_555
Mg4 O30 2.130480 1_555
Mg4 O28 2.130480 1_555
Mg4 O22 2.142096 1_555
Mg4 O23 2.142096 1_455
Mg5 O7 2.129246 1_555
Mg5 O3 2.129246 1_555
Mg5 O23 2.131719 1_555
Mg5 O31 2.131719 1_555
Mg5 O29 2.131719 1_555
Mg5 O22 2.131719 1_555
Mg6 O25 2.126965 1_555
Mg6 O18 2.126965 1_555
Mg6 O8 2.129596 1_555
Mg6 O12 2.129596 1_554
Mg6 O24 2.147959 1_555
Mg6 O16 2.147959 1_555
Mg7 O25 2.126965 1_555
Mg7 O19 2.126965 1_555
Mg7 O9 2.129596 1_555
Mg7 O13 2.129596 1_554
Mg7 O17 2.147959 1_555
Mg7 O24 2.147959 1_655
Mg8 O18 2.126965 1_555
Mg8 O27 2.126965 1_555
Mg8 O10 2.129596 1_555
Mg8 O14 2.129596 1_554
Mg8 O26 2.147959 1_555
Mg8 O16 2.147959 1_565
Mg9 O27 2.126965 1_555
Mg9 O19 2.126965 1_555
Mg9 O15 2.129596 1_554
Mg9 O11 2.129596 1_555
Mg9 O26 2.147959 1_655
Mg9 O17 2.147959 1_565
Mg10 O12 2.133442 1_555
Mg10 O8 2.133442 1_555
Mg10 O20 2.136619 1_555
Mg10 O28 2.136619 1_555
Mg10 O22 2.137214 1_555
Mg10 O29 2.137214 1_555
Mg11 O9 2.133442 1_555
Mg11 O13 2.133442 1_555
Mg11 O21 2.136619 1_555
Mg11 O28 2.136619 1_655
Mg11 O29 2.137214 1_555
Mg11 O23 2.137214 1_555
Mg12 O10 2.133442 1_555
Mg12 O14 2.133442 1_555
Mg12 O30 2.136619 1_555
Mg12 O20 2.136619 1_565
Mg12 O31 2.137214 1_555
Mg12 O22 2.137214 1_555
Mg13 O11 2.133442 1_555
Mg13 O15 2.133442 1_555
Mg13 O21 2.136619 1_565
Mg13 O30 2.136619 1_655
Mg13 O31 2.137214 1_555
Mg13 O23 2.137214 1_555
Mg14 O20 2.127447 1_555
Mg14 O1 2.130831 1_555
Mg14 O16 2.135978 1_555
Mg14 O8 2.138084 1_555
Mg14 O10 2.138084 1_545
Mg14 O0 2.143638 1_555
Mg15 O21 2.127447 1_555
Mg15 O1 2.130831 1_555
Mg15 O17 2.135978 1_555
Mg15 O9 2.138084 1_555
Mg15 O11 2.138084 1_545
Mg15 O0 2.143638 1_655
Mg16 O2 2.126592 1_555
Mg16 O18 2.130796 1_555
Mg16 O22 2.132560 1_555
Mg16 O10 2.135776 1_555
Mg16 O8 2.135776 1_555
Mg16 O3 2.147270 1_555
Mg17 O2 2.126592 1_655
Mg17 O19 2.130796 1_555
Mg17 O23 2.132560 1_555
Mg17 O11 2.135776 1_555
Mg17 O9 2.135776 1_555
Mg17 O3 2.147270 1_555
Mg18 O20 2.127447 1_555
Mg18 O5 2.130831 1_555
Mg18 O16 2.135978 1_556
Mg18 O12 2.138084 1_555
Mg18 O14 2.138084 1_545
Mg18 O4 2.143638 1_555
Mg19 O21 2.127447 1_555
Mg19 O5 2.130831 1_555
Mg19 O17 2.135978 1_556
Mg19 O13 2.138084 1_555
Mg19 O15 2.138084 1_545
Mg19 O4 2.143638 1_655
Mg20 O6 2.126592 1_555
Mg20 O18 2.130796 1_556
Mg20 O22 2.132560 1_555
Mg20 O14 2.135776 1_555
Mg20 O12 2.135776 1_555
Mg20 O7 2.147270 1_555
Mg21 O6 2.126592 1_655
Mg21 O19 2.130796 1_556
Mg21 O23 2.132560 1_555
Mg21 O15 2.135776 1_555
Mg21 O13 2.135776 1_555
Mg21 O7 2.147270 1_555
Mg22 O28 2.127447 1_555
Mg22 O2 2.130831 1_555
Mg22 O24 2.135978 1_555
Mg22 O8 2.138084 1_555
Mg22 O9 2.138084 1_455
Mg22 O0 2.143638 1_555
Mg23 O1 2.126592 1_555
Mg23 O25 2.130796 1_555
Mg23 O29 2.132560 1_555
Mg23 O9 2.135776 1_555
Mg23 O8 2.135776 1_555
Mg23 O3 2.147270 1_555
Mg24 O30 2.127447 1_555
Mg24 O2 2.130831 1_555
Mg24 O26 2.135978 1_555
Mg24 O10 2.138084 1_555
Mg24 O11 2.138084 1_455
Mg24 O0 2.143638 1_565
Mg25 O1 2.126592 1_565
Mg25 O27 2.130796 1_555
Mg25 O31 2.132560 1_555
Mg25 O11 2.135776 1_555
Mg25 O10 2.135776 1_555
Mg25 O3 2.147270 1_555
Mg26 O28 2.127447 1_555
Mg26 O6 2.130831 1_555
Mg26 O24 2.135978 1_556
Mg26 O12 2.138084 1_555
Mg26 O13 2.138084 1_455
Mg26 O4 2.143638 1_555
Mg27 O5 2.126592 1_555
Mg27 O25 2.130796 1_556
Mg27 O29 2.132560 1_555
Mg27 O13 2.135776 1_555
Mg27 O12 2.135776 1_555
Mg27 O7 2.147270 1_555
Mg28 O30 2.127447 1_555
Mg28 O6 2.130831 1_555
Mg28 O26 2.135978 1_556
Mg28 O14 2.138084 1_555
Mg28 O15 2.138084 1_455
Mg28 O4 2.143638 1_565
Mg29 O5 2.126592 1_565
Mg29 O27 2.130796 1_556
Mg29 O31 2.132560 1_555
Mg29 O15 2.135776 1_555
Mg29 O14 2.135776 1_555
Mg29 O7 2.147270 1_555
Mn0 O24 2.185920 1_555
Mn0 O16 2.185920 1_555
Mn0 O26 2.185920 1_545
Mn0 O17 2.185920 1_455
Mn0 O4 2.187769 1_554
Mn0 O0 2.187769 1_555
Fe0 O3 2.133748 1_555
Fe0 O7 2.133748 1_554
Fe0 O25 2.183321 1_555
Fe0 O18 2.183321 1_555
Fe0 O19 2.183321 1_555
Fe0 O27 2.183321 1_555
