# generated using pymatgen
data_KTb(PO3)4
_symmetry_space_group_name_H-M   'P 1'
_cell_length_a   8.45038900
_cell_length_b   7.35640300
_cell_length_c   7.97634631
_cell_angle_alpha   88.49533940
_cell_angle_beta   90.00000000
_cell_angle_gamma   90.00000000
_symmetry_Int_Tables_number   1
_chemical_formula_structural   KTb(PO3)4
_chemical_formula_sum   'K2 Tb2 P8 O24'
_cell_volume   495.67434534
_cell_formula_units_Z   2
loop_
 _symmetry_equiv_pos_site_id
 _symmetry_equiv_pos_as_xyz
  1  'x, y, z'
loop_
 _atom_site_type_symbol
 _atom_site_label
 _atom_site_symmetry_multiplicity
 _atom_site_fract_x
 _atom_site_fract_y
 _atom_site_fract_z
 _atom_site_occupancy
  K  K0  1  0.93831700  0.73277600  0.71676200  1
  K  K1  1  0.43831700  0.26722400  0.28323800  1
  Tb  Tb0  1  0.25031900  0.76184900  0.24206700  1
  Tb  Tb1  1  0.75031900  0.23815100  0.75793300  1
  P  P0  1  0.90205600  0.00484300  0.38168700  1
  P  P1  1  0.40205600  0.99515700  0.61831300  1
  P  P2  1  0.99874900  0.38662100  0.39739700  1
  P  P3  1  0.49874900  0.61337900  0.60260300  1
  P  P4  1  0.87612600  0.56606600  0.09213300  1
  P  P5  1  0.37612600  0.43393400  0.90786700  1
  P  P6  1  0.66893900  0.90229000  0.09915800  1
  P  P7  1  0.16893900  0.09771000  0.90084200  1
  O  O0  1  0.93929300  0.39172500  0.57404500  1
  O  O1  1  0.43929300  0.60827500  0.42595500  1
  O  O2  1  0.70006100  0.98053300  0.92646500  1
  O  O3  1  0.20006100  0.01946700  0.07353500  1
  O  O4  1  0.15294300  0.47602500  0.35317100  1
  O  O5  1  0.65294300  0.52397500  0.64682900  1
  O  O6  1  0.86083400  0.46478000  0.27370300  1
  O  O7  1  0.36083400  0.53522000  0.72629700  1
  O  O8  1  0.01161400  0.17911300  0.33902200  1
  O  O9  1  0.51161400  0.82088700  0.66097800  1
  O  O10  1  0.80622200  0.03508900  0.53717600  1
  O  O11  1  0.30622200  0.96491100  0.46282400  1
  O  O12  1  0.00599200  0.09088300  0.82816200  1
  O  O13  1  0.50599300  0.90911700  0.17183800  1
  O  O14  1  0.22129800  0.30776900  0.89260500  1
  O  O15  1  0.72129800  0.69223100  0.10739500  1
  O  O16  1  0.28822600  0.99020000  0.77914200  1
  O  O17  1  0.78822600  0.00980000  0.22085800  1
  O  O18  1  0.50656300  0.16024400  0.61713400  1
  O  O19  1  0.00656300  0.83975600  0.38286600  1
  O  O20  1  0.52277800  0.32094400  0.92810300  1
  O  O21  1  0.02277800  0.67905600  0.07189700  1
  O  O22  1  0.34627000  0.56810700  0.04293100  1
  O  O23  1  0.84627000  0.43189300  0.95706900  1
loop_
_geom_bond_atom_site_label_1
_geom_bond_atom_site_label_2
_geom_bond_distance
_geom_bond_site_symmetry_2
K0 O0 2.782183 1_555
K0 O19 2.816891 1_655
K0 O10 2.841919 1_565
K0 O12 2.859979 1_665
K0 O5 2.920780 1_555
K0 O21 2.937834 1_656
K0 O23 2.992565 1_555
K0 O2 3.214557 1_555
K1 O1 2.782183 1_555
K1 O18 2.816891 1_555
K1 O11 2.841919 1_545
K1 O13 2.859981 1_545
K1 O4 2.920780 1_555
K1 O20 2.937834 1_554
K1 O22 2.992565 1_555
K1 O3 3.214557 1_555
O0 P2 1.497303 1_555
O0 Tb1 2.427094 1_555
O1 P3 1.497303 1_555
O1 Tb0 2.427094 1_555
O2 P6 1.502073 1_556
O2 Tb1 2.333496 1_565
O3 P7 1.502073 1_554
O3 Tb0 2.333496 1_545
O4 P2 1.497539 1_455
O4 Tb0 2.405346 1_555
O5 P3 1.497539 1_555
O5 Tb1 2.405346 1_555
O6 P4 1.616377 1_555
O6 P2 1.622488 1_555
O7 P5 1.616377 1_555
O7 P3 1.622488 1_555
O8 P0 1.610449 1_455
O8 P2 1.611269 1_455
O9 P1 1.610449 1_555
O9 P3 1.611269 1_555
O10 P0 1.502668 1_555
O10 Tb1 2.386062 1_555
O11 P1 1.502668 1_555
O11 Tb0 2.386062 1_555
O12 P7 1.495380 1_555
O12 Tb1 2.474573 1_455
O13 P6 1.495372 1_555
O13 Tb0 2.474581 1_555
O14 P7 1.607058 1_555
O14 P5 1.610577 1_555
O15 P6 1.607058 1_555
O15 P4 1.610577 1_555
O16 P1 1.603055 1_555
O16 P7 1.619947 1_565
O17 P0 1.603055 1_555
O17 P6 1.619947 1_545
O18 P1 1.501425 1_545
O18 Tb1 2.422074 1_555
O19 P0 1.501425 1_465
O19 Tb0 2.422074 1_555
O20 P5 1.498560 1_555
O20 Tb1 2.440066 1_555
O21 P4 1.498560 1_455
O21 Tb0 2.440066 1_555
O22 P5 1.501445 1_554
O22 Tb0 2.308807 1_555
O23 P4 1.501445 1_556
O23 Tb1 2.308807 1_555
