# generated using pymatgen
data_TiAl3Ge
_symmetry_space_group_name_H-M   'P 1'
_cell_length_a   4.00530500
_cell_length_b   4.00530500
_cell_length_c   10.59106200
_cell_angle_alpha   90.00000000
_cell_angle_beta   90.00000000
_cell_angle_gamma   90.00000000
_symmetry_Int_Tables_number   1
_chemical_formula_structural   TiAl3Ge
_chemical_formula_sum   'Ti2 Al6 Ge2'
_cell_volume   169.90677474
_cell_formula_units_Z   2
loop_
 _symmetry_equiv_pos_site_id
 _symmetry_equiv_pos_as_xyz
  1  'x, y, z'
loop_
 _atom_site_type_symbol
 _atom_site_label
 _atom_site_symmetry_multiplicity
 _atom_site_fract_x
 _atom_site_fract_y
 _atom_site_fract_z
 _atom_site_occupancy
  Ti  Ti0  1  0.50000000  0.00000000  0.19471000  1
  Ti  Ti1  1  0.00000000  0.50000000  0.19471000  1
  Al  Al0  1  0.50000000  0.50000000  0.60937200  1
  Al  Al1  1  0.00000000  0.00000000  0.38306400  1
  Al  Al2  1  0.50000000  0.50000000  0.00339300  1
  Al  Al3  1  0.00000000  0.00000000  0.00342000  1
  Al  Al4  1  0.00000000  0.50000000  0.80816000  1
  Al  Al5  1  0.50000000  0.00000000  0.80816000  1
  Ge  Ge0  1  0.50000000  0.50000000  0.36945900  1
  Ge  Ge1  1  0.00000000  0.00000000  0.62555400  1
loop_
_geom_bond_atom_site_label_1
_geom_bond_atom_site_label_2
_geom_bond_distance
_geom_bond_site_symmetry_2
Ti0 Ti1 2.832178 1_555
Ti0 Ti1 2.832178 1_655
Ti0 Ti1 2.832178 1_545
Ti0 Ti1 2.832178 1_645
Al0 Ge0 2.540933 1_555
Al0 Ge1 2.837359 1_565
Al0 Ge1 2.837359 1_655
Al0 Ge1 2.837359 1_555
Al0 Ge1 2.837359 1_665
Al0 Al5 2.905723 1_565
Al0 Al4 2.905723 1_555
Al0 Al5 2.905723 1_555
Al0 Al4 2.905723 1_655
Al1 Ge1 2.568227 1_555
Al1 Ti0 2.826680 1_555
Al1 Ti1 2.826680 1_545
Al1 Ti1 2.826680 1_555
Al1 Ti0 2.826680 1_455
Al1 Ge0 2.835841 1_455
Al1 Ge0 2.835841 1_445
Al1 Ge0 2.835841 1_555
Al1 Ge0 2.835841 1_545
Al2 Al3 2.832178 1_665
Al2 Al3 2.832178 1_555
Al2 Al3 2.832178 1_565
Al2 Al3 2.832178 1_655
Al2 Ti0 2.848913 1_555
Al2 Ti0 2.848913 1_565
Al2 Ti1 2.848913 1_555
Al2 Ti1 2.848913 1_655
Al2 Al4 2.878559 1_654
Al2 Al5 2.878559 1_564
Al2 Al5 2.878559 1_554
Al2 Al4 2.878559 1_554
Al3 Ti0 2.848710 1_555
Al3 Ti1 2.848710 1_545
Al3 Ti1 2.848710 1_555
Al3 Ti0 2.848710 1_455
Al3 Al4 2.878765 1_554
Al3 Al5 2.878765 1_554
Al3 Al4 2.878765 1_544
Al3 Al5 2.878765 1_454
Al4 Ge1 2.784051 1_565
Al4 Ge1 2.784051 1_555
Al4 Al5 2.832178 1_455
Al4 Al5 2.832178 1_565
Al4 Al5 2.832178 1_555
Al4 Al5 2.832178 1_465
Al5 Ge1 2.784051 1_655
Al5 Ge1 2.784051 1_555
Ge0 Ti0 2.726902 1_555
Ge0 Ti0 2.726902 1_565
Ge0 Ti1 2.726902 1_555
Ge0 Ti1 2.726902 1_655
