# generated using pymatgen
data_BaGd2PtO5
_symmetry_space_group_name_H-M   'P 1'
_cell_length_a   6.68901900
_cell_length_b   6.68901900
_cell_length_c   5.96272100
_cell_angle_alpha   90.00000000
_cell_angle_beta   90.00000000
_cell_angle_gamma   90.00000000
_symmetry_Int_Tables_number   1
_chemical_formula_structural   BaGd2PtO5
_chemical_formula_sum   'Ba2 Gd4 Pt2 O10'
_cell_volume   266.78987772
_cell_formula_units_Z   2
loop_
 _symmetry_equiv_pos_site_id
 _symmetry_equiv_pos_as_xyz
  1  'x, y, z'
loop_
 _atom_site_type_symbol
 _atom_site_label
 _atom_site_symmetry_multiplicity
 _atom_site_fract_x
 _atom_site_fract_y
 _atom_site_fract_z
 _atom_site_occupancy
  Ba  Ba0  1  0.00000000  0.00000000  0.00000000  1
  Ba  Ba1  1  0.50000000  0.50000000  0.00000000  1
  Gd  Gd0  1  0.82450300  0.67549700  0.50000000  1
  Gd  Gd1  1  0.67549700  0.17549700  0.50000000  1
  Gd  Gd2  1  0.32450300  0.82450300  0.50000000  1
  Gd  Gd3  1  0.17549700  0.32450300  0.50000000  1
  Pt  Pt0  1  0.50000000  0.00000000  0.00000000  1
  Pt  Pt1  1  0.00000000  0.50000000  0.00000000  1
  O  O0  1  0.50000000  0.50000000  0.50000000  1
  O  O1  1  0.00000000  0.00000000  0.50000000  1
  O  O2  1  0.13994300  0.63994300  0.25805100  1
  O  O3  1  0.86005700  0.36005700  0.25805100  1
  O  O4  1  0.36005700  0.13994300  0.25805100  1
  O  O5  1  0.63994300  0.86005700  0.25805100  1
  O  O6  1  0.13994300  0.63994300  0.74194900  1
  O  O7  1  0.63994300  0.86005700  0.74194900  1
  O  O8  1  0.86005700  0.36005700  0.74194900  1
  O  O9  1  0.36005700  0.13994300  0.74194900  1
loop_
_geom_bond_atom_site_label_1
_geom_bond_atom_site_label_2
_geom_bond_distance
_geom_bond_site_symmetry_2
Ba0 O1 2.981361 1_555
Ba0 O1 2.981361 1_554
Ba0 O2 3.007379 1_545
Ba0 O7 3.007379 1_444
Ba0 O6 3.007379 1_544
Ba0 O5 3.007379 1_445
Ba0 O3 3.007379 1_455
Ba0 O8 3.007379 1_454
Ba0 O4 3.007379 1_555
Ba0 O9 3.007379 1_554
Ba1 O0 2.981361 1_555
Ba1 O0 2.981361 1_554
Ba1 O4 3.007379 1_555
Ba1 O7 3.007379 1_554
Ba1 O8 3.007379 1_554
Ba1 O9 3.007379 1_554
Ba1 O5 3.007379 1_555
Ba1 O2 3.007379 1_555
Ba1 O3 3.007379 1_555
Ba1 O6 3.007379 1_554
Gd0 O7 2.264821 1_555
Gd0 O5 2.264821 1_555
Gd0 O1 2.467708 1_665
Gd0 O0 2.467708 1_555
Gd0 O2 2.567080 1_655
Gd0 O6 2.567080 1_655
Gd0 O8 2.567080 1_555
Gd0 O3 2.567080 1_555
Gd1 O3 2.264821 1_555
Gd1 O8 2.264821 1_555
Gd1 O1 2.467708 1_655
Gd1 O0 2.467708 1_555
Gd1 O9 2.567080 1_555
Gd1 O4 2.567080 1_555
Gd1 O5 2.567080 1_545
Gd1 O7 2.567080 1_545
Gd2 O6 2.264821 1_555
Gd2 O2 2.264821 1_555
Gd2 O1 2.467708 1_565
Gd2 O0 2.467708 1_555
Gd2 O9 2.567080 1_565
Gd2 O4 2.567080 1_565
Gd2 O7 2.567080 1_555
Gd2 O5 2.567080 1_555
Gd3 O9 2.264821 1_555
Gd3 O4 2.264821 1_555
Gd3 O1 2.467708 1_555
Gd3 O0 2.467708 1_555
Gd3 O6 2.567080 1_555
Gd3 O8 2.567080 1_455
Gd3 O3 2.567080 1_455
Gd3 O2 2.567080 1_555
O2 Pt1 2.029791 1_555
O3 Pt1 2.029791 1_655
O4 Pt0 2.029791 1_555
O5 Pt0 2.029791 1_565
O6 Pt1 2.029791 1_556
O7 Pt0 2.029791 1_566
O8 Pt1 2.029791 1_656
O9 Pt0 2.029791 1_556
