# generated using pymatgen
data_LiVAsO5
_symmetry_space_group_name_H-M   'P 1'
_cell_length_a   6.49105087
_cell_length_b   7.46567577
_cell_length_c   7.47721074
_cell_angle_alpha   90.00000000
_cell_angle_beta   90.00000000
_cell_angle_gamma   90.00000000
_symmetry_Int_Tables_number   1
_chemical_formula_structural   LiVAsO5
_chemical_formula_sum   'Li4 V4 As4 O20'
_cell_volume   362.34623962
_cell_formula_units_Z   4
loop_
 _symmetry_equiv_pos_site_id
 _symmetry_equiv_pos_as_xyz
  1  'x, y, z'
loop_
 _atom_site_type_symbol
 _atom_site_label
 _atom_site_symmetry_multiplicity
 _atom_site_fract_x
 _atom_site_fract_y
 _atom_site_fract_z
 _atom_site_occupancy
  Li  Li0  1  0.00000000  0.00000000  -0.00000000  1
  Li  Li1  1  0.50000000  0.00000000  -0.00000000  1
  Li  Li2  1  0.00000000  0.50000000  0.50000000  1
  Li  Li3  1  0.50000000  0.50000000  0.50000000  1
  V  V0  1  0.75000000  0.22773499  0.33062404  1
  V  V1  1  0.25000000  0.72773399  0.16937496  1
  V  V2  1  0.75000000  0.27226501  0.83062404  1
  V  V3  1  0.25000000  0.77226501  0.66937496  1
  As  As0  1  0.75000000  0.87275156  0.62442449  1
  As  As1  1  0.75000000  0.62724744  0.12442449  1
  As  As2  1  0.25000000  0.37275156  0.87557651  1
  As  As3  1  0.25000000  0.12724844  0.37557651  1
  O  O0  1  0.75000000  -0.00081660  0.81430659  1
  O  O1  1  0.95510504  0.73286408  0.62663744  1
  O  O2  1  0.45510504  0.26713592  0.37336356  1
  O  O3  1  0.04489496  0.23286408  0.87336356  1
  O  O4  1  0.54489496  0.76713592  0.12663744  1
  O  O5  1  0.04489496  0.26713592  0.37336356  1
  O  O6  1  0.54489496  0.73286408  0.62663744  1
  O  O7  1  0.95510504  0.76713592  0.12663744  1
  O  O8  1  0.75000000  0.17267726  0.11539709  1
  O  O9  1  0.25000000  0.82732374  0.88460291  1
  O  O10  1  0.25000000  0.67267626  0.38460291  1
  O  O11  1  0.75000000  0.32732274  0.61539709  1
  O  O12  1  0.45510504  0.23286408  0.87336356  1
  O  O13  1  0.25000000  0.00081760  0.18569341  1
  O  O14  1  0.25000000  0.00592530  0.56453038  1
  O  O15  1  0.75000000  0.50081760  0.31430659  1
  O  O16  1  0.25000000  0.49407370  0.06453038  1
  O  O17  1  0.75000000  0.50592530  0.93546862  1
  O  O18  1  0.75000000  0.99407370  0.43546862  1
  O  O19  1  0.25000000  0.49918340  0.68569441  1
loop_
_geom_bond_atom_site_label_1
_geom_bond_atom_site_label_2
_geom_bond_distance
_geom_bond_site_symmetry_2
Li0 O3 2.000964 1_554
Li0 O7 2.000968 1_445
Li0 O0 2.135706 1_454
Li0 O13 2.135706 1_555
Li0 O9 2.244941 1_544
Li0 O8 2.244945 1_455
Li1 O12 2.000964 1_554
Li1 O4 2.000968 1_545
Li1 O0 2.135706 1_554
Li1 O13 2.135706 1_555
Li1 O9 2.244941 1_544
Li1 O8 2.244945 1_555
Li2 O5 2.000964 1_555
Li2 O1 2.000968 1_455
Li2 O15 2.135706 1_455
Li2 O19 2.135711 1_555
Li2 O10 2.244941 1_555
Li2 O11 2.244945 1_455
Li3 O2 2.000964 1_555
Li3 O6 2.000968 1_555
Li3 O15 2.135706 1_555
Li3 O19 2.135711 1_555
Li3 O10 2.244941 1_555
Li3 O11 2.244945 1_555
As0 O18 1.678263 1_555
As0 O1 1.692169 1_555
As0 O6 1.692169 1_555
As0 O0 1.704918 1_565
As1 O17 1.678263 1_554
As1 O4 1.692174 1_555
As1 O7 1.692174 1_555
As1 O15 1.704910 1_555
As2 O16 1.678251 1_556
As2 O12 1.692169 1_555
As2 O3 1.692169 1_555
As2 O19 1.704918 1_555
As3 O14 1.678255 1_555
As3 O2 1.692169 1_555
As3 O5 1.692169 1_555
As3 O13 1.704920 1_555
O0 V2 2.042386 1_555
O1 V3 1.962835 1_655
O2 V0 1.962838 1_555
O3 V2 1.962838 1_455
O4 V1 1.962836 1_555
O5 V0 1.962838 1_455
O6 V3 1.962835 1_555
O7 V1 1.962836 1_655
O8 V0 1.660962 1_555
O8 V2 2.255378 1_554
O9 V3 1.660971 1_555
O9 V1 2.255376 1_556
O10 V1 1.660969 1_555
O10 V3 2.255373 1_555
O11 V2 1.660962 1_555
O11 V0 2.255378 1_555
O12 V2 1.962838 1_555
O13 V1 2.042402 1_545
O14 V3 1.912489 1_545
O15 V0 2.042394 1_555
O16 V1 1.912489 1_555
O17 V2 1.912489 1_555
O18 V0 1.912495 1_565
O19 V3 2.042387 1_555
