# generated using pymatgen
data_ZnP2H4O9
_symmetry_space_group_name_H-M   'P 1'
_cell_length_a   11.28521720
_cell_length_b   9.99412444
_cell_length_c   9.17613121
_cell_angle_alpha   71.98374329
_cell_angle_beta   57.37025513
_cell_angle_gamma   50.64600158
_symmetry_Int_Tables_number   1
_chemical_formula_structural   ZnP2H4O9
_chemical_formula_sum   'Zn2 P4 H8 O18'
_cell_volume   673.10908886
_cell_formula_units_Z   2
loop_
 _symmetry_equiv_pos_site_id
 _symmetry_equiv_pos_as_xyz
  1  'x, y, z'
loop_
 _atom_site_type_symbol
 _atom_site_label
 _atom_site_symmetry_multiplicity
 _atom_site_fract_x
 _atom_site_fract_y
 _atom_site_fract_z
 _atom_site_occupancy
  Zn  Zn0  1  0.28870100  0.71129900  0.28870100  1
  Zn  Zn1  1  0.53870100  0.96129900  0.53870100  1
  P  P0  1  0.31165600  0.95645100  0.96028900  1
  P  P1  1  0.96028900  0.77160400  0.31165600  1
  P  P2  1  0.47839600  0.28971100  0.29354900  1
  P  P3  1  0.29354900  0.93834400  0.47839600  1
  H  H0  1  0.05142000  0.06043000  0.02624100  1
  H  H1  1  0.02624100  0.86191000  0.05142000  1
  H  H2  1  0.38809000  0.22375900  0.18957000  1
  H  H3  1  0.18957000  0.19858000  0.38809000  1
  H  H4  1  0.21894600  0.10772500  0.17381200  1
  H  H5  1  0.17381200  0.49951800  0.21894600  1
  H  H6  1  0.75048200  0.07618800  0.14227500  1
  H  H7  1  0.14227500  0.03105400  0.75048200  1
  O  O0  1  0.37545800  0.79222900  0.05624000  1
  O  O1  1  0.05624000  0.77607300  0.37545800  1
  O  O2  1  0.47392700  0.19376000  0.45777100  1
  O  O3  1  0.45777100  0.87454200  0.47392700  1
  O  O4  1  0.44283400  0.46166700  0.29429200  1
  O  O5  1  0.29429200  0.80120700  0.44283400  1
  O  O6  1  0.44879300  0.95570800  0.78833300  1
  O  O7  1  0.78833300  0.80716600  0.44879300  1
  O  O8  1  0.16457600  0.99363600  0.92578700  1
  O  O9  1  0.92578700  0.91600100  0.16457600  1
  O  O10  1  0.33399900  0.32421300  0.25636400  1
  O  O11  1  0.25636400  0.08542400  0.33399900  1
  O  O12  1  0.19320900  0.12459700  0.07883900  1
  O  O13  1  0.07883900  0.60335500  0.19320900  1
  O  O14  1  0.64664500  0.17116100  0.12540300  1
  O  O15  1  0.12540300  0.05679100  0.64664500  1
  O  O16  1  0.89829600  0.60170400  0.89829600  1
  O  O17  1  0.64829600  0.35170400  0.64829600  1
loop_
_geom_bond_atom_site_label_1
_geom_bond_atom_site_label_2
_geom_bond_distance
_geom_bond_site_symmetry_2
H0 O8 0.977817 1_544
H1 O9 0.977815 1_455
H2 O10 0.977821 1_555
H3 O11 0.977812 1_555
H4 O12 0.996111 1_555
H4 O11 1.654068 1_555
H5 O13 0.996108 1_555
H5 O10 1.654071 1_555
H6 O14 0.996103 1_555
H6 O9 1.654075 1_545
H7 O15 0.996102 1_555
H7 O8 1.654077 1_545
O0 P0 1.509450 1_554
O0 Zn0 1.961561 1_555
O1 P1 1.509450 1_455
O1 Zn0 1.961561 1_555
O2 P2 1.509450 1_555
O2 Zn1 1.961561 1_545
O3 P3 1.509450 1_555
O3 Zn1 1.961561 1_555
O4 P2 1.498042 1_555
O4 Zn0 1.940620 1_555
O5 P3 1.498042 1_555
O5 Zn0 1.940620 1_555
O6 P0 1.498042 1_555
O6 Zn1 1.940620 1_555
O7 P1 1.498042 1_555
O7 Zn1 1.940620 1_555
O8 P0 1.644689 1_555
O9 P1 1.644689 1_555
O10 P2 1.644689 1_555
O11 P3 1.644689 1_545
O12 P0 1.583670 1_544
O13 P1 1.583670 1_455
O14 P2 1.583670 1_555
O15 P3 1.583670 1_545
