# generated using pymatgen
data_Mg3Si4
_symmetry_space_group_name_H-M   'P 1'
_cell_length_a   5.22820100
_cell_length_b   7.34703469
_cell_length_c   7.47332205
_cell_angle_alpha   114.11528146
_cell_angle_beta   99.10943258
_cell_angle_gamma   98.57134418
_symmetry_Int_Tables_number   1
_chemical_formula_structural   Mg3Si4
_chemical_formula_sum   'Mg6 Si8'
_cell_volume   251.32527943
_cell_formula_units_Z   2
loop_
 _symmetry_equiv_pos_site_id
 _symmetry_equiv_pos_as_xyz
  1  'x, y, z'
loop_
 _atom_site_type_symbol
 _atom_site_label
 _atom_site_symmetry_multiplicity
 _atom_site_fract_x
 _atom_site_fract_y
 _atom_site_fract_z
 _atom_site_occupancy
  Mg  Mg0  1  0.62629600  0.02262400  0.43447300  1
  Mg  Mg1  1  0.11714100  0.82936500  0.62274200  1
  Mg  Mg2  1  0.41893200  0.65962300  0.90880700  1
  Mg  Mg3  1  0.10720300  0.26401300  0.96469000  1
  Mg  Mg4  1  0.46047500  0.47037800  0.45860300  1
  Mg  Mg5  1  0.02401600  0.92898400  0.13133800  1
  Si  Si0  1  0.57769700  0.26464300  0.84089100  1
  Si  Si1  1  0.67509300  0.92583700  0.77723100  1
  Si  Si2  1  0.24852800  0.65721000  0.24647500  1
  Si  Si3  1  0.72101400  0.59968400  0.19635300  1
  Si  Si4  1  0.92039500  0.46217900  0.68802300  1
  Si  Si5  1  0.90385600  0.37052900  0.32371000  1
  Si  Si6  1  0.18652200  0.20208600  0.57201500  1
  Si  Si7  1  0.51291500  0.08923500  0.08129000  1
loop_
_geom_bond_atom_site_label_1
_geom_bond_atom_site_label_2
_geom_bond_distance
_geom_bond_site_symmetry_2
Mg0 Si2 2.746086 1_545
Mg0 Si6 2.856921 1_655
Mg0 Si7 2.864294 1_555
Mg0 Si0 2.901259 1_555
Mg0 Si1 2.909953 1_545
Mg0 Si6 2.937007 1_555
Mg0 Si4 2.996805 1_555
Mg0 Si3 3.047428 1_545
Mg1 Si1 2.800194 1_455
Mg1 Si2 2.818348 1_555
Mg1 Si1 2.827246 1_555
Mg1 Si6 2.893069 1_565
Mg1 Si4 2.996838 1_455
Mg1 Si5 3.088073 1_455
Mg1 Si3 3.124969 1_455
Mg2 Si4 2.678753 1_455
Mg2 Si3 2.685535 1_556
Mg2 Si1 2.791729 1_555
Mg2 Si7 2.806810 1_566
Mg2 Si2 2.811728 1_556
Mg2 Si0 3.002607 1_555
Mg3 Si2 2.688106 1_556
Mg3 Si0 2.761796 1_555
Mg3 Si0 2.777797 1_455
Mg3 Si1 2.778491 1_445
Mg3 Si7 2.836983 1_556
Mg3 Si6 2.888135 1_555
Mg3 Si5 2.894306 1_456
Mg3 Si4 3.097257 1_455
Mg4 Si2 2.701964 1_555
Mg4 Si4 2.747232 1_555
Mg4 Si6 2.750136 1_555
Mg4 Si5 2.751450 1_555
Mg4 Si5 2.802429 1_455
Mg4 Si3 2.929190 1_555
Mg4 Si1 3.106495 1_555
Mg4 Si7 3.144705 1_555
Mg5 Si7 2.797330 1_565
Mg5 Si2 2.808538 1_555
Mg5 Si3 2.942935 1_455
Mg5 Si1 2.956417 1_454
Mg5 Si6 2.966472 1_565
Mg5 Si7 3.106057 1_465
Mg5 Si5 3.172977 1_465
Si0 Si6 2.468893 1_555
Si0 Si1 2.483681 1_545
Si0 Si7 2.637753 1_556
Si0 Si3 2.674724 1_556
Si0 Si4 2.801691 1_555
Si1 Si7 2.451118 1_566
Si2 Si3 2.626007 1_555
Si2 Si3 2.668575 1_455
Si3 Si5 2.480988 1_555
Si4 Si6 2.481901 1_655
Si4 Si5 2.506714 1_555
Si5 Si7 2.497955 1_555
