# generated using pymatgen
data_Li(CeGe)4
_symmetry_space_group_name_H-M   'P 1'
_cell_length_a   7.38649500
_cell_length_b   7.99648900
_cell_length_c   15.02967300
_cell_angle_alpha   90.00000000
_cell_angle_beta   90.00000000
_cell_angle_gamma   90.00000000
_symmetry_Int_Tables_number   1
_chemical_formula_structural   Li(CeGe)4
_chemical_formula_sum   'Li4 Ce16 Ge16'
_cell_volume   887.74305643
_cell_formula_units_Z   4
loop_
 _symmetry_equiv_pos_site_id
 _symmetry_equiv_pos_as_xyz
  1  'x, y, z'
loop_
 _atom_site_type_symbol
 _atom_site_label
 _atom_site_symmetry_multiplicity
 _atom_site_fract_x
 _atom_site_fract_y
 _atom_site_fract_z
 _atom_site_occupancy
  Li  Li0  1  0.65761200  0.97054700  0.75000000  1
  Li  Li1  1  0.15761200  0.52945300  0.75000000  1
  Li  Li2  1  0.34238800  0.02945300  0.25000000  1
  Li  Li3  1  0.84238800  0.47054700  0.25000000  1
  Ce  Ce0  1  0.51988100  0.31402100  0.09749800  1
  Ce  Ce1  1  0.01988100  0.18597900  0.40250200  1
  Ce  Ce2  1  0.48011900  0.68597900  0.59749800  1
  Ce  Ce3  1  0.98011900  0.81402100  0.90250200  1
  Ce  Ce4  1  0.48011900  0.68597900  0.90250200  1
  Ce  Ce5  1  0.98011900  0.81402100  0.59749800  1
  Ce  Ce6  1  0.51988100  0.31402100  0.40250200  1
  Ce  Ce7  1  0.01988100  0.18597900  0.09749800  1
  Ce  Ce8  1  0.82487900  0.31973300  0.62810800  1
  Ce  Ce9  1  0.32487900  0.18026700  0.87189200  1
  Ce  Ce10  1  0.17512100  0.68026700  0.12810800  1
  Ce  Ce11  1  0.67512100  0.81973300  0.37189200  1
  Ce  Ce12  1  0.17512100  0.68026700  0.37189200  1
  Ce  Ce13  1  0.67512100  0.81973300  0.12810800  1
  Ce  Ce14  1  0.82487900  0.31973300  0.87189200  1
  Ce  Ce15  1  0.32487900  0.18026700  0.62810800  1
  Ge  Ge0  1  0.66211700  0.03076700  0.53581500  1
  Ge  Ge1  1  0.16211700  0.46923300  0.96418500  1
  Ge  Ge2  1  0.33788300  0.96923300  0.03581500  1
  Ge  Ge3  1  0.83788300  0.53076700  0.46418500  1
  Ge  Ge4  1  0.33788300  0.96923300  0.46418500  1
  Ge  Ge5  1  0.83788300  0.53076700  0.03581500  1
  Ge  Ge6  1  0.66211700  0.03076700  0.96418500  1
  Ge  Ge7  1  0.16211700  0.46923300  0.53581500  1
  Ge  Ge8  1  0.51246400  0.42215600  0.75000000  1
  Ge  Ge9  1  0.01246400  0.07784400  0.75000000  1
  Ge  Ge10  1  0.48753600  0.57784400  0.25000000  1
  Ge  Ge11  1  0.98753600  0.92215600  0.25000000  1
  Ge  Ge12  1  0.77553500  0.63557400  0.75000000  1
  Ge  Ge13  1  0.27553500  0.86442600  0.75000000  1
  Ge  Ge14  1  0.22446500  0.36442600  0.25000000  1
  Ge  Ge15  1  0.72446500  0.13557400  0.25000000  1
loop_
_geom_bond_atom_site_label_1
_geom_bond_atom_site_label_2
_geom_bond_distance
_geom_bond_site_symmetry_2
Ce0 Ge5 3.062826 1_555
Ce0 Ge15 3.094075 1_555
Ce0 Ge10 3.124301 1_555
Ce0 Ge14 3.190218 1_555
Ce0 Ge6 3.201379 1_554
Ce0 Ge2 3.204411 1_545
Ce0 Ge1 3.540978 1_554
Ce1 Ge4 3.062826 1_545
Ce1 Ge14 3.094075 1_555
Ce1 Ge11 3.124301 1_445
Ce1 Ge15 3.190218 1_455
Ce1 Ge7 3.201379 1_555
Ce1 Ge3 3.204411 1_455
Ce1 Ge0 3.540978 1_455
Ce2 Ge7 3.062826 1_555
Ce2 Ge13 3.094075 1_555
Ce2 Ge8 3.124301 1_555
Ce2 Ge12 3.190218 1_555
Ce2 Ge4 3.201379 1_555
Ce2 Ge0 3.204411 1_565
Ce2 Ge3 3.540978 1_555
Ce3 Ge6 3.062826 1_565
Ce3 Ge12 3.094075 1_555
Ce3 Ge9 3.124301 1_665
Ce3 Ge13 3.190218 1_655
Ce3 Ge5 3.201379 1_556
Ce3 Ge1 3.204411 1_655
Ce3 Ge2 3.540978 1_656
Ce4 Ge1 3.062826 1_555
Ce4 Ge13 3.094075 1_555
Ce4 Ge8 3.124301 1_555
Ce4 Ge12 3.190218 1_555
Ce4 Ge2 3.201379 1_556
Ce4 Ge6 3.204411 1_565
Ce4 Ge5 3.540978 1_556
Ce5 Ge0 3.062826 1_565
Ce5 Ge12 3.094075 1_555
Ce5 Ge9 3.124301 1_665
Ce5 Ge13 3.190218 1_655
Ce5 Ge3 3.201379 1_555
Ce5 Ge7 3.204411 1_655
Ce5 Ge4 3.540978 1_655
Ce6 Ge3 3.062826 1_555
Ce6 Ge15 3.094075 1_555
Ce6 Ge10 3.124301 1_555
Ce6 Ge14 3.190218 1_555
Ce6 Ge0 3.201379 1_555
Ce6 Ge4 3.204411 1_545
Ce6 Ge7 3.540978 1_555
Ce7 Ge2 3.062826 1_545
Ce7 Ge14 3.094075 1_555
Ce7 Ge11 3.124301 1_445
Ce7 Ge15 3.190218 1_455
Ce7 Ge1 3.201379 1_554
Ce7 Ge5 3.204411 1_455
Ce7 Ge6 3.540978 1_454
Ce8 Ge0 2.951088 1_555
Ce8 Ge3 2.987783 1_555
Ce8 Ge9 3.002909 1_655
Ce8 Ge8 3.058148 1_555
Ce8 Ge7 3.091669 1_655
Ce8 Ge12 3.141307 1_555
Ce9 Ge1 2.951088 1_555
Ce9 Ge2 2.987783 1_546
Ce9 Ge8 3.002909 1_555
Ce9 Ge9 3.058148 1_555
Ce9 Ge6 3.091669 1_555
Ce9 Ge13 3.141307 1_545
Ce10 Ge2 2.951088 1_555
Ce10 Ge1 2.987783 1_554
Ce10 Ge11 3.002909 1_455
Ce10 Ge10 3.058148 1_555
Ce10 Ge5 3.091669 1_455
Ce10 Ge14 3.141307 1_555
Ce11 Ge3 2.951088 1_555
Ce11 Ge0 2.987783 1_565
Ce11 Ge10 3.002909 1_555
Ce11 Ge11 3.058148 1_555
Ce11 Ge4 3.091669 1_555
Ce11 Ge15 3.141307 1_565
Ce12 Ge4 2.951088 1_555
Ce12 Ge7 2.987783 1_555
Ce12 Ge11 3.002909 1_455
Ce12 Ge10 3.058148 1_555
Ce12 Ge3 3.091669 1_455
Ce12 Ge14 3.141307 1_555
Ce13 Ge5 2.951088 1_555
Ce13 Ge6 2.987783 1_564
Ce13 Ge10 3.002909 1_555
Ce13 Ge11 3.058148 1_555
Ce13 Ge2 3.091669 1_555
Ce13 Ge15 3.141307 1_565
Ce14 Ge6 2.951088 1_555
Ce14 Ge5 2.987783 1_556
Ce14 Ge9 3.002909 1_655
Ce14 Ge8 3.058148 1_555
Ce14 Ge1 3.091669 1_655
Ce14 Ge12 3.141307 1_555
Ce15 Ge7 2.951088 1_555
Ce15 Ge4 2.987783 1_545
Ce15 Ge8 3.002909 1_555
Ce15 Ge9 3.058148 1_555
Ce15 Ge0 3.091669 1_555
Ce15 Ge13 3.141307 1_545
Ge0 Ge4 2.671504 1_545
Ge0 Li0 3.255119 1_545
Ge1 Ge5 2.671504 1_456
Ge1 Li1 3.255119 1_555
Ge2 Ge6 2.671504 1_564
Ge2 Li2 3.255119 1_565
Ge3 Ge7 2.671504 1_655
Ge3 Li3 3.255119 1_555
Ge4 Li2 3.255119 1_565
Ge5 Li3 3.255119 1_555
Ge6 Li0 3.255119 1_545
Ge7 Li1 3.255119 1_555
Ge8 Li1 2.757969 1_555
Ge9 Li0 2.757969 1_445
Ge10 Ge14 2.586191 1_555
Ge10 Li3 2.757969 1_555
Ge11 Ge15 2.586191 1_565
Ge11 Li2 2.757969 1_665
Ge12 Ge8 2.586191 1_555
Ge12 Li0 2.816673 1_555
Ge12 Li1 2.947029 1_655
Ge13 Ge9 2.586191 1_565
Ge13 Li1 2.816673 1_555
Ge13 Li0 2.947029 1_555
Ge14 Li2 2.816673 1_555
Ge14 Li3 2.947029 1_455
Ge15 Li3 2.816673 1_555
Ge15 Li2 2.947029 1_555
