# generated using pymatgen
data_Zn3(PO6)2
_symmetry_space_group_name_H-M   'P 1'
_cell_length_a   5.37339500
_cell_length_b   5.87264328
_cell_length_c   7.74224801
_cell_angle_alpha   98.43142182
_cell_angle_beta   104.91893225
_cell_angle_gamma   91.50218736
_symmetry_Int_Tables_number   1
_chemical_formula_structural   Zn3(PO6)2
_chemical_formula_sum   'Zn3 P2 O12'
_cell_volume   233.00404452
_cell_formula_units_Z   1
loop_
 _symmetry_equiv_pos_site_id
 _symmetry_equiv_pos_as_xyz
  1  'x, y, z'
loop_
 _atom_site_type_symbol
 _atom_site_label
 _atom_site_symmetry_multiplicity
 _atom_site_fract_x
 _atom_site_fract_y
 _atom_site_fract_z
 _atom_site_occupancy
  Zn  Zn0  1  0.00000000  0.00000000  0.00000000  1
  Zn  Zn1  1  0.13061600  0.72511100  0.39564300  1
  Zn  Zn2  1  0.86938400  0.27488900  0.60435700  1
  P  P0  1  0.72176500  0.76580600  0.63085700  1
  P  P1  1  0.27823500  0.23419400  0.36914300  1
  O  O0  1  0.83327700  0.57759400  0.74420800  1
  O  O1  1  0.16672300  0.42240600  0.25579200  1
  O  O2  1  0.43148000  0.77856700  0.60296200  1
  O  O3  1  0.56852000  0.22143300  0.39703800  1
  O  O4  1  0.85437700  0.00941500  0.75759300  1
  O  O5  1  0.14562300  0.99058500  0.24240700  1
  O  O6  1  0.80229300  0.75676700  0.45413700  1
  O  O7  1  0.19770700  0.24323300  0.54586300  1
  O  O8  1  0.59397300  0.75166400  0.04532300  1
  O  O9  1  0.40602700  0.24833600  0.95467700  1
  O  O10  1  0.36861200  0.73933700  0.95241800  1
  O  O11  1  0.63138800  0.26066300  0.04758200  1
loop_
_geom_bond_atom_site_label_1
_geom_bond_atom_site_label_2
_geom_bond_distance
_geom_bond_site_symmetry_2
O0 P0 1.548972 1_555
O0 Zn2 1.982916 1_555
O1 P1 1.548972 1_555
O1 Zn1 1.982916 1_555
O2 P0 1.524041 1_555
O2 Zn1 1.943714 1_555
O3 P1 1.524041 1_555
O3 Zn2 1.943714 1_555
O4 P0 1.640773 1_545
O4 Zn0 1.847746 1_656
O4 Zn2 2.104682 1_555
O5 P1 1.640773 1_565
O5 Zn0 1.847746 1_565
O5 Zn1 2.104682 1_555
O6 P0 1.531927 1_555
O6 Zn1 1.938037 1_655
O7 P1 1.531927 1_555
O7 Zn2 1.938037 1_455
O10 O8 1.233154 1_556
O10 Zn0 2.602206 1_566
O11 O9 1.233154 1_554
O11 Zn0 2.602206 1_655
