# generated using pymatgen
data_CaAl2(Si3O10)2
_symmetry_space_group_name_H-M   'P 1'
_cell_length_a   14.14068300
_cell_length_b   6.87486900
_cell_length_c   10.13479751
_cell_angle_alpha   68.81171342
_cell_angle_beta   90.00000000
_cell_angle_gamma   90.00000000
_symmetry_Int_Tables_number   1
_chemical_formula_structural   CaAl2(Si3O10)2
_chemical_formula_sum   'Ca2 Al4 Si12 O40'
_cell_volume   918.65213441
_cell_formula_units_Z   2
loop_
 _symmetry_equiv_pos_site_id
 _symmetry_equiv_pos_as_xyz
  1  'x, y, z'
loop_
 _atom_site_type_symbol
 _atom_site_label
 _atom_site_symmetry_multiplicity
 _atom_site_fract_x
 _atom_site_fract_y
 _atom_site_fract_z
 _atom_site_occupancy
  Ca  Ca0  1  0.21620800  0.95493300  0.92655500  1
  Ca  Ca1  1  0.78379200  0.95493300  0.42655500  1
  Al  Al0  1  0.00758400  0.00122700  0.50050500  1
  Al  Al1  1  0.99241600  0.00122700  0.00050500  1
  Al  Al2  1  0.35596200  0.60577700  0.15030800  1
  Al  Al3  1  0.64403800  0.60577700  0.65030800  1
  Si  Si0  1  0.15015600  0.65811700  0.48356500  1
  Si  Si1  1  0.84984400  0.65811700  0.98356500  1
  Si  Si2  1  0.03758300  0.29125400  0.69211200  1
  Si  Si3  1  0.96241700  0.29125400  0.19211200  1
  Si  Si4  1  0.12476800  0.59184300  0.19293400  1
  Si  Si5  1  0.87523200  0.59184300  0.69293400  1
  Si  Si6  1  0.47521000  0.97547800  0.93905300  1
  Si  Si7  1  0.52479000  0.97547800  0.43905300  1
  Si  Si8  1  0.37285200  0.64200000  0.46197300  1
  Si  Si9  1  0.62714800  0.64200000  0.96197300  1
  Si  Si10  1  0.49987700  0.26055300  0.12170900  1
  Si  Si11  1  0.50012300  0.26055300  0.62170900  1
  O  O0  1  0.10248100  0.88220500  0.45289300  1
  O  O1  1  0.89751900  0.88220500  0.95289300  1
  O  O2  1  0.04445100  0.14605700  0.59858800  1
  O  O3  1  0.95554900  0.14605700  0.09858800  1
  O  O4  1  0.07871900  0.81172600  0.08857900  1
  O  O5  1  0.92128100  0.81172600  0.58857900  1
  O  O6  1  0.11209700  0.48649400  0.63378200  1
  O  O7  1  0.88790300  0.48649400  0.13378200  1
  O  O8  1  0.12417800  0.57188500  0.35717800  1
  O  O9  1  0.87582200  0.57188500  0.85717800  1
  O  O10  1  0.06916100  0.38917900  0.18388300  1
  O  O11  1  0.93083900  0.38917900  0.68388300  1
  O  O12  1  0.06529800  0.15046400  0.85562900  1
  O  O13  1  0.93470200  0.15046400  0.35562900  1
  O  O14  1  0.26359800  0.66986000  0.49864000  1
  O  O15  1  0.73640200  0.66986000  0.99864000  1
  O  O16  1  0.23160200  0.60609300  0.12893400  1
  O  O17  1  0.76839800  0.60609300  0.62893400  1
  O  O18  1  0.43153100  0.82952200  0.48853100  1
  O  O19  1  0.56846900  0.82952200  0.98853100  1
  O  O20  1  0.48257000  0.16572400  0.99787000  1
  O  O21  1  0.51743000  0.16572400  0.49787000  1
  O  O22  1  0.37956100  0.83776100  0.99977600  1
  O  O23  1  0.62043900  0.83776100  0.49977600  1
  O  O24  1  0.41009800  0.42072600  0.57892400  1
  O  O25  1  0.58990200  0.42072600  0.07892400  1
  O  O26  1  0.38672900  0.64574800  0.30367900  1
  O  O27  1  0.61327100  0.64574800  0.80367900  1
  O  O28  1  0.40546300  0.38053300  0.13901800  1
  O  O29  1  0.59453700  0.38053300  0.63901800  1
  O  O30  1  0.46862700  0.07178200  0.76683400  1
  O  O31  1  0.53137300  0.07178200  0.26683400  1
  O  O32  1  0.24940400  0.02291700  0.67778100  1
  O  O33  1  0.75059600  0.02291700  0.17778100  1
  O  O34  1  0.23557200  0.10120300  0.11571000  1
  O  O35  1  0.76442800  0.10120300  0.61571000  1
  O  O36  1  0.28455900  0.30466000  0.84029400  1
  O  O37  1  0.71544100  0.30466000  0.34029400  1
  O  O38  1  0.15374000  0.66148000  0.86846200  1
  O  O39  1  0.84626000  0.66148000  0.36846200  1
loop_
_geom_bond_atom_site_label_1
_geom_bond_atom_site_label_2
_geom_bond_distance
_geom_bond_site_symmetry_2
Ca0 O32 2.437990 1_565
Ca0 O36 2.441276 1_565
Ca0 O38 2.460824 1_555
Ca0 O22 2.470468 1_555
Ca0 O34 2.480881 1_566
Ca0 O12 2.485770 1_565
Ca0 O4 2.505384 1_556
Ca0 O16 2.539692 1_556
Ca1 O33 2.437990 1_565
Ca1 O37 2.441276 1_565
Ca1 O39 2.460824 1_555
Ca1 O23 2.470468 1_555
Ca1 O35 2.480881 1_565
Ca1 O13 2.485770 1_565
Ca1 O5 2.505384 1_555
Ca1 O17 2.539692 1_555
Al0 O2 1.722434 1_555
Al0 O0 1.728737 1_545
Al0 O5 1.772780 1_445
Al0 O13 1.783731 1_455
Al1 O3 1.722434 1_555
Al1 O1 1.728737 1_544
Al1 O4 1.772780 1_645
Al1 O12 1.783731 1_654
Al2 O26 1.729066 1_555
Al2 O28 1.740421 1_555
Al2 O16 1.771732 1_555
Al2 O22 1.795436 1_554
Al3 O27 1.729066 1_555
Al3 O29 1.740421 1_555
Al3 O17 1.771732 1_555
Al3 O23 1.795436 1_555
O0 Si0 1.605713 1_555
O1 Si1 1.605713 1_555
O2 Si2 1.608792 1_555
O3 Si3 1.608792 1_555
O4 Si4 1.634628 1_555
O5 Si5 1.634628 1_555
O6 Si2 1.639439 1_555
O6 Si0 1.643488 1_555
O7 Si3 1.639439 1_555
O7 Si1 1.643488 1_554
O8 Si4 1.620069 1_555
O8 Si0 1.635860 1_555
O9 Si5 1.620069 1_555
O9 Si1 1.635860 1_555
O10 Si4 1.631059 1_555
O10 Si3 1.642554 1_455
O11 Si5 1.631059 1_555
O11 Si2 1.642554 1_655
O12 Si2 1.636243 1_555
O13 Si3 1.636243 1_555
O14 Si0 1.616188 1_555
O14 Si8 1.616487 1_555
O15 Si1 1.616188 1_555
O15 Si9 1.616487 1_555
O16 Si4 1.632977 1_555
O17 Si5 1.632977 1_555
O18 Si7 1.622864 1_555
O18 Si8 1.635174 1_555
O19 Si6 1.622864 1_555
O19 Si9 1.635174 1_555
O20 Si6 1.624928 1_545
O20 Si10 1.628381 1_556
O21 Si7 1.624928 1_545
O21 Si11 1.628381 1_555
O22 Si6 1.638084 1_555
O23 Si7 1.638084 1_555
O24 Si11 1.635850 1_555
O24 Si8 1.641044 1_555
O25 Si10 1.635850 1_555
O25 Si9 1.641044 1_554
O26 Si8 1.607170 1_555
O27 Si9 1.607170 1_555
O28 Si10 1.611886 1_555
O29 Si11 1.611886 1_555
O30 Si6 1.630371 1_545
O30 Si11 1.632811 1_555
O31 Si7 1.630371 1_545
O31 Si10 1.632811 1_555
