# generated using pymatgen
data_NdMoClO4
_symmetry_space_group_name_H-M   'P 1'
_cell_length_a   7.03452900
_cell_length_b   7.55326200
_cell_length_c   20.17651300
_cell_angle_alpha   90.00000000
_cell_angle_beta   90.00000000
_cell_angle_gamma   90.00000000
_symmetry_Int_Tables_number   1
_chemical_formula_structural   NdMoClO4
_chemical_formula_sum   'Nd8 Mo8 Cl8 O32'
_cell_volume   1072.05158997
_cell_formula_units_Z   8
loop_
 _symmetry_equiv_pos_site_id
 _symmetry_equiv_pos_as_xyz
  1  'x, y, z'
loop_
 _atom_site_type_symbol
 _atom_site_label
 _atom_site_symmetry_multiplicity
 _atom_site_fract_x
 _atom_site_fract_y
 _atom_site_fract_z
 _atom_site_occupancy
  Nd  Nd0  1  0.47279500  0.00000000  0.61108000  1
  Nd  Nd1  1  0.52720500  0.00000000  0.38892000  1
  Nd  Nd2  1  0.02720500  0.00000000  0.11108000  1
  Nd  Nd3  1  0.97279500  0.00000000  0.88892000  1
  Nd  Nd4  1  0.23054000  0.50000000  0.85977200  1
  Nd  Nd5  1  0.76946000  0.50000000  0.14022800  1
  Nd  Nd6  1  0.26946000  0.50000000  0.35977200  1
  Nd  Nd7  1  0.73054000  0.50000000  0.64022800  1
  Mo  Mo0  1  0.41750600  0.00000000  0.81785500  1
  Mo  Mo1  1  0.58249400  0.00000000  0.18214500  1
  Mo  Mo2  1  0.08249400  0.00000000  0.31785500  1
  Mo  Mo3  1  0.91750600  0.00000000  0.68214500  1
  Mo  Mo4  1  0.28821100  0.50000000  0.56781700  1
  Mo  Mo5  1  0.71178900  0.50000000  0.43218300  1
  Mo  Mo6  1  0.21178900  0.50000000  0.06781700  1
  Mo  Mo7  1  0.78821100  0.50000000  0.93218300  1
  Cl  Cl0  1  0.24140300  0.00000000  0.99162200  1
  Cl  Cl1  1  0.75859700  0.00000000  0.00837800  1
  Cl  Cl2  1  0.25859700  0.00000000  0.49162200  1
  Cl  Cl3  1  0.74140300  0.00000000  0.50837800  1
  Cl  Cl4  1  0.46519100  0.50000000  0.74478100  1
  Cl  Cl5  1  0.53480900  0.50000000  0.25521900  1
  Cl  Cl6  1  0.03480900  0.50000000  0.24478100  1
  Cl  Cl7  1  0.96519100  0.50000000  0.75521900  1
  O  O0  1  0.14095300  0.00000000  0.64197300  1
  O  O1  1  0.85904700  0.00000000  0.35802700  1
  O  O2  1  0.35904700  0.00000000  0.14197300  1
  O  O3  1  0.64095300  0.00000000  0.85802700  1
  O  O4  1  0.45818500  0.00000000  0.73099400  1
  O  O5  1  0.54181500  0.00000000  0.26900600  1
  O  O6  1  0.04181500  0.00000000  0.23099400  1
  O  O7  1  0.95818500  0.00000000  0.76900600  1
  O  O8  1  0.27047600  0.81457400  0.84396400  1
  O  O9  1  0.72952400  0.81457400  0.15603600  1
  O  O10  1  0.22952400  0.18542600  0.34396400  1
  O  O11  1  0.77047600  0.18542600  0.65603600  1
  O  O12  1  0.72952400  0.18542600  0.15603600  1
  O  O13  1  0.27047600  0.18542600  0.84396400  1
  O  O14  1  0.77047600  0.81457400  0.65603600  1
  O  O15  1  0.22952400  0.81457400  0.34396400  1
  O  O16  1  0.05519900  0.50000000  0.60109600  1
  O  O17  1  0.94480100  0.50000000  0.39890400  1
  O  O18  1  0.44480100  0.50000000  0.10109600  1
  O  O19  1  0.55519900  0.50000000  0.89890400  1
  O  O20  1  0.22349400  0.50000000  0.97978300  1
  O  O21  1  0.77650600  0.50000000  0.02021700  1
  O  O22  1  0.27650600  0.50000000  0.47978300  1
  O  O23  1  0.72349400  0.50000000  0.52021700  1
  O  O24  1  0.42891900  0.68547900  0.59752300  1
  O  O25  1  0.57108100  0.68547900  0.40247700  1
  O  O26  1  0.07108100  0.31452100  0.09752300  1
  O  O27  1  0.92891900  0.31452100  0.90247700  1
  O  O28  1  0.57108100  0.31452100  0.40247700  1
  O  O29  1  0.42891900  0.31452100  0.59752300  1
  O  O30  1  0.92891900  0.68547900  0.90247700  1
  O  O31  1  0.07108100  0.68547900  0.09752300  1
loop_
_geom_bond_atom_site_label_1
_geom_bond_atom_site_label_2
_geom_bond_distance
_geom_bond_site_symmetry_2
Nd0 O29 2.411191 1_555
Nd0 O24 2.411191 1_545
Nd0 O0 2.416137 1_555
Nd0 O4 2.421628 1_555
Nd0 O11 2.677569 1_555
Nd0 O14 2.677569 1_545
Nd1 O28 2.411191 1_555
Nd1 O25 2.411191 1_545
Nd1 O1 2.416137 1_555
Nd1 O5 2.421628 1_555
Nd1 O15 2.677569 1_545
Nd1 O10 2.677569 1_555
Nd2 O26 2.411191 1_555
Nd2 O31 2.411191 1_545
Nd2 O2 2.416137 1_555
Nd2 O6 2.421628 1_555
Nd2 O12 2.677569 1_455
Nd2 O9 2.677569 1_445
Nd3 O27 2.411191 1_555
Nd3 O30 2.411191 1_545
Nd3 O3 2.416137 1_555
Nd3 O7 2.421628 1_555
Nd3 O13 2.677569 1_655
Nd3 O8 2.677569 1_645
Nd4 O13 2.413775 1_555
Nd4 O8 2.413775 1_555
Nd4 O19 2.416451 1_555
Nd4 O20 2.421911 1_555
Nd4 O30 2.684588 1_455
Nd4 O27 2.684588 1_455
Nd5 O9 2.413775 1_555
Nd5 O12 2.413775 1_555
Nd5 O18 2.416451 1_555
Nd5 O21 2.421911 1_555
Nd5 O26 2.684588 1_655
Nd5 O31 2.684588 1_655
Nd6 O15 2.413775 1_555
Nd6 O10 2.413775 1_555
Nd6 O17 2.416451 1_455
Nd6 O22 2.421911 1_555
Nd6 O25 2.684588 1_555
Nd6 O28 2.684588 1_555
Nd7 O14 2.413775 1_555
Nd7 O11 2.413775 1_555
Nd7 O16 2.416451 1_655
Nd7 O23 2.421911 1_555
Nd7 O24 2.684588 1_555
Nd7 O29 2.684588 1_555
Mo0 O3 1.768518 1_555
Mo0 O4 1.775760 1_555
Mo0 O13 1.819026 1_555
Mo0 O8 1.819026 1_545
Mo1 O2 1.768518 1_555
Mo1 O5 1.775760 1_555
Mo1 O12 1.819026 1_555
Mo1 O9 1.819026 1_545
Mo2 O1 1.768518 1_455
Mo2 O6 1.775760 1_555
Mo2 O10 1.819026 1_555
Mo2 O15 1.819026 1_545
Mo3 O0 1.768518 1_655
Mo3 O7 1.775760 1_555
Mo3 O14 1.819026 1_545
Mo3 O11 1.819026 1_555
Mo4 O16 1.771326 1_555
Mo4 O22 1.778127 1_555
Mo4 O24 1.817055 1_555
Mo4 O29 1.817055 1_555
Mo5 O17 1.771326 1_555
Mo5 O23 1.778127 1_555
Mo5 O25 1.817055 1_555
Mo5 O28 1.817055 1_555
Mo6 O18 1.771326 1_555
Mo6 O20 1.778127 1_554
Mo6 O31 1.817055 1_555
Mo6 O26 1.817055 1_555
Mo7 O19 1.771326 1_555
Mo7 O21 1.778127 1_556
Mo7 O30 1.817055 1_555
Mo7 O27 1.817055 1_555
Cl0 Nd3 2.804319 1_455
Cl0 Nd2 2.842477 1_556
Cl1 Nd2 2.804319 1_655
Cl1 Nd3 2.842477 1_554
Cl2 Nd1 2.804319 1_555
Cl2 Nd0 2.842477 1_555
Cl3 Nd0 2.804319 1_555
Cl3 Nd1 2.842477 1_555
Cl4 Nd7 2.816783 1_555
Cl4 Nd4 2.847388 1_555
Cl5 Nd6 2.816783 1_555
Cl5 Nd5 2.847388 1_555
Cl6 Nd5 2.816783 1_455
Cl6 Nd6 2.847388 1_555
Cl7 Nd4 2.816783 1_655
Cl7 Nd7 2.847388 1_555
