# generated using pymatgen
data_BiIrSe
_symmetry_space_group_name_H-M   'P 1'
_cell_length_a   6.34719879
_cell_length_b   6.34719879
_cell_length_c   6.34719879
_cell_angle_alpha   90.00000000
_cell_angle_beta   90.00000000
_cell_angle_gamma   90.00000000
_symmetry_Int_Tables_number   1
_chemical_formula_structural   BiIrSe
_chemical_formula_sum   'Bi4 Ir4 Se4'
_cell_volume   255.70916909
_cell_formula_units_Z   4
loop_
 _symmetry_equiv_pos_site_id
 _symmetry_equiv_pos_as_xyz
  1  'x, y, z'
loop_
 _atom_site_type_symbol
 _atom_site_label
 _atom_site_symmetry_multiplicity
 _atom_site_fract_x
 _atom_site_fract_y
 _atom_site_fract_z
 _atom_site_occupancy
  Bi  Bi0  1  0.13010371  0.63010371  0.86989629  1
  Bi  Bi1  1  0.63010371  0.86989629  0.13010371  1
  Bi  Bi2  1  0.86989629  0.13010371  0.63010371  1
  Bi  Bi3  1  0.36989629  0.36989629  0.36989629  1
  Ir  Ir0  1  0.48675610  0.98675610  0.51324390  1
  Ir  Ir1  1  0.98675610  0.51324390  0.48675610  1
  Ir  Ir2  1  0.51324390  0.48675610  0.98675610  1
  Ir  Ir3  1  0.01324390  0.01324390  0.01324390  1
  Se  Se0  1  0.87940459  0.37940459  0.12059541  1
  Se  Se1  1  0.37940459  0.12059541  0.87940459  1
  Se  Se2  1  0.12059541  0.87940459  0.37940459  1
  Se  Se3  1  0.62059541  0.62059541  0.62059541  1
loop_
_geom_bond_atom_site_label_1
_geom_bond_atom_site_label_2
_geom_bond_distance
_geom_bond_site_symmetry_2
Bi0 Ir2 2.700367 1_555
Bi0 Ir3 2.700367 1_566
Bi0 Ir1 2.700367 1_455
Bi0 Se0 2.756104 1_456
Bi1 Ir3 2.700367 1_665
Bi1 Ir0 2.700367 1_555
Bi1 Ir2 2.700367 1_554
Bi1 Se1 2.756104 1_564
Bi2 Ir1 2.700367 1_555
Bi2 Ir0 2.700367 1_545
Bi2 Ir3 2.700367 1_656
Bi2 Se2 2.756104 1_645
Bi3 Ir0 2.700367 1_545
Bi3 Ir2 2.700367 1_554
Bi3 Ir1 2.700367 1_455
Bi3 Se3 2.756104 1_555
Ir0 Se2 2.566584 1_555
Ir0 Se3 2.566584 1_555
Ir0 Se1 2.566584 1_565
Ir1 Se2 2.566584 1_655
Ir1 Se3 2.566584 1_555
Ir1 Se0 2.566584 1_555
Ir2 Se3 2.566584 1_555
Ir2 Se0 2.566584 1_556
Ir2 Se1 2.566584 1_555
Ir3 Se2 2.566584 1_545
Ir3 Se1 2.566584 1_554
Ir3 Se0 2.566584 1_455
