# generated using pymatgen
data_BaSnHg2
_symmetry_space_group_name_H-M   'P 1'
_cell_length_a   13.36348185
_cell_length_b   13.36348185
_cell_length_c   13.36348185
_cell_angle_alpha   123.84940120
_cell_angle_beta   118.57540862
_cell_angle_gamma   87.97549776
_symmetry_Int_Tables_number   1
_chemical_formula_structural   BaSnHg2
_chemical_formula_sum   'Ba1 Sn1 Hg2'
_cell_volume   1650.86986852
_cell_formula_units_Z   1
loop_
 _symmetry_equiv_pos_site_id
 _symmetry_equiv_pos_as_xyz
  1  'x, y, z'
loop_
 _atom_site_type_symbol
 _atom_site_label
 _atom_site_symmetry_multiplicity
 _atom_site_fract_x
 _atom_site_fract_y
 _atom_site_fract_z
 _atom_site_occupancy
  Ba  Ba0  1  -0.00000000  0.50000000  0.50000000  1
  Sn  Sn0  1  -0.00000000  -0.00000000  -0.00000000  1
  Hg  Hg0  1  0.00000000  0.22675224  0.22675224  1
  Hg  Hg1  1  -0.00000000  0.77324776  0.77324776  1
loop_
_geom_bond_atom_site_label_1
_geom_bond_atom_site_label_2
_geom_bond_distance
_geom_bond_site_symmetry_2
Ba0 Hg0 3.437061 1_555
Ba0 Hg1 3.437061 1_555
Hg0 Sn0 2.852215 1_555
Hg1 Sn0 2.852215 1_566
