# generated using pymatgen
data_Li7Mn2(CoO4)3
_symmetry_space_group_name_H-M   'P 1'
_cell_length_a   5.02522195
_cell_length_b   5.02522195
_cell_length_c   9.79976054
_cell_angle_alpha   85.16048855
_cell_angle_beta   85.16048855
_cell_angle_gamma   119.54355264
_symmetry_Int_Tables_number   1
_chemical_formula_structural   Li7Mn2(CoO4)3
_chemical_formula_sum   'Li7 Mn2 Co3 O12'
_cell_volume   212.25148129
_cell_formula_units_Z   1
loop_
 _symmetry_equiv_pos_site_id
 _symmetry_equiv_pos_as_xyz
  1  'x, y, z'
loop_
 _atom_site_type_symbol
 _atom_site_label
 _atom_site_symmetry_multiplicity
 _atom_site_fract_x
 _atom_site_fract_y
 _atom_site_fract_z
 _atom_site_occupancy
  Li  Li0  1  0.75579100  0.75710400  0.74651400  1
  Li  Li1  1  0.58332400  0.92239600  0.25321900  1
  Li  Li2  1  0.24289600  0.24420900  0.25348600  1
  Li  Li3  1  0.07760400  0.41667600  0.74678100  1
  Li  Li4  1  0.92132100  0.58008800  0.25290500  1
  Li  Li5  1  0.41991200  0.07867900  0.74709500  1
  Li  Li6  1  0.83258300  0.16741700  0.50000000  1
  Mn  Mn0  1  0.00001100  0.99998900  0.00000000  1
  Mn  Mn1  1  0.50039200  0.49960800  0.50000000  1
  Co  Co0  1  0.66494700  0.33505300  0.00000000  1
  Co  Co1  1  0.33772900  0.66227100  0.00000000  1
  Co  Co2  1  0.16506800  0.83493200  0.50000000  1
  O  O0  1  0.64085300  0.65498000  0.11566200  1
  O  O1  1  0.43311900  0.76996900  0.61022000  1
  O  O2  1  0.15632500  0.12433400  0.60872800  1
  O  O3  1  0.96773300  0.27970400  0.11765600  1
  O  O4  1  0.79693100  0.48887600  0.61188900  1
  O  O5  1  0.27367700  0.95235500  0.11431700  1
  O  O6  1  0.87566600  0.84367500  0.39127200  1
  O  O7  1  0.72029600  0.03226700  0.88234400  1
  O  O8  1  0.34502000  0.35914700  0.88433800  1
  O  O9  1  0.23003100  0.56688100  0.38978000  1
  O  O10  1  0.04764500  0.72632300  0.88568300  1
  O  O11  1  0.51112400  0.20306900  0.38811100  1
loop_
_geom_bond_atom_site_label_1
_geom_bond_atom_site_label_2
_geom_bond_distance
_geom_bond_site_symmetry_2
Li0 O4 2.031984 1_555
Li0 O7 2.056548 1_565
Li0 O10 2.135550 1_655
Li0 O2 2.176692 1_665
Li0 O1 2.207177 1_555
Li0 O8 2.255519 1_555
Li1 O9 2.049982 1_555
Li1 O0 2.080778 1_555
Li1 O3 2.112922 1_565
Li1 O11 2.146338 1_565
Li1 O5 2.202421 1_555
Li1 O6 2.227817 1_555
Li2 O11 2.031984 1_555
Li2 O3 2.056548 1_455
Li2 O5 2.135550 1_545
Li2 O6 2.176692 1_445
Li2 O9 2.207177 1_555
Li2 O0 2.255519 1_555
Li3 O1 2.049982 1_555
Li3 O8 2.080778 1_555
Li3 O7 2.112922 1_455
Li3 O4 2.146338 1_455
Li3 O10 2.202421 1_555
Li3 O2 2.227817 1_555
Li4 O6 2.048426 1_555
Li4 O5 2.092443 1_655
Li4 O9 2.155892 1_655
Li4 O0 2.166681 1_555
Li4 O3 2.173084 1_555
Li4 O11 2.204177 1_555
Li5 O2 2.048426 1_555
Li5 O10 2.092443 1_545
Li5 O1 2.155892 1_545
Li5 O8 2.166681 1_555
Li5 O7 2.173084 1_555
Li5 O4 2.204177 1_555
Li6 O11 2.096434 1_555
Li6 O4 2.096434 1_555
Li6 O2 2.104713 1_655
Li6 O6 2.104713 1_545
Li6 O1 2.121716 1_545
Li6 O9 2.121716 1_655
Mn0 O5 1.934666 1_555
Mn0 O10 1.934666 1_554
Mn0 O0 1.945626 1_455
Mn0 O8 1.945626 1_564
Mn0 O3 1.948914 1_465
Mn0 O7 1.948914 1_464
Mn1 O1 1.940559 1_555
Mn1 O9 1.940559 1_555
Mn1 O4 1.941850 1_555
Mn1 O11 1.941850 1_555
Mn1 O2 1.953392 1_555
Mn1 O6 1.953392 1_555
Co0 O5 2.086938 1_545
Co0 O10 2.086938 1_654
Co0 O8 2.088153 1_554
Co0 O0 2.088153 1_555
Co0 O3 2.093131 1_555
Co0 O7 2.093131 1_554
Co1 O8 1.986395 1_554
Co1 O0 1.986395 1_555
Co1 O5 2.039866 1_555
Co1 O10 2.039866 1_554
Co1 O3 2.054654 1_455
Co1 O7 2.054654 1_564
Co2 O2 1.889134 1_565
Co2 O6 1.889134 1_455
Co2 O9 1.925450 1_555
Co2 O1 1.925450 1_555
Co2 O11 1.952486 1_565
Co2 O4 1.952486 1_455
