# generated using pymatgen
data_Ta2Al
_symmetry_space_group_name_H-M   'P 1'
_cell_length_a   5.19544959
_cell_length_b   9.90459850
_cell_length_c   9.90459850
_cell_angle_alpha   90.00000000
_cell_angle_beta   90.00000000
_cell_angle_gamma   90.00000000
_symmetry_Int_Tables_number   1
_chemical_formula_structural   Ta2Al
_chemical_formula_sum   'Ta20 Al10'
_cell_volume   509.67917142
_cell_formula_units_Z   10
loop_
 _symmetry_equiv_pos_site_id
 _symmetry_equiv_pos_as_xyz
  1  'x, y, z'
loop_
 _atom_site_type_symbol
 _atom_site_label
 _atom_site_symmetry_multiplicity
 _atom_site_fract_x
 _atom_site_fract_y
 _atom_site_fract_z
 _atom_site_occupancy
  Ta  Ta0  1  0.50000000  0.10201661  0.89798339  1
  Ta  Ta1  1  0.50000000  0.89798339  0.10201661  1
  Ta  Ta2  1  0.00000000  0.39798339  0.39798339  1
  Ta  Ta3  1  0.00000000  0.60201661  0.60201661  1
  Ta  Ta4  1  0.50000000  0.37077103  0.96421372  1
  Ta  Ta5  1  0.50000000  0.62922897  0.03578628  1
  Ta  Ta6  1  0.00000000  0.12922897  0.46421372  1
  Ta  Ta7  1  0.00000000  0.87077103  0.53578628  1
  Ta  Ta8  1  0.50000000  0.96421372  0.37077103  1
  Ta  Ta9  1  0.50000000  0.03578628  0.62922897  1
  Ta  Ta10  1  0.00000000  0.46421372  0.12922897  1
  Ta  Ta11  1  0.00000000  0.53578628  0.87077103  1
  Ta  Ta12  1  0.24823262  0.31855080  0.68144920  1
  Ta  Ta13  1  0.24823262  0.68144920  0.31855080  1
  Ta  Ta14  1  0.74823262  0.18144920  0.18144920  1
  Ta  Ta15  1  0.74823262  0.81855080  0.81855080  1
  Ta  Ta16  1  0.75176738  0.68144920  0.31855080  1
  Ta  Ta17  1  0.75176738  0.31855080  0.68144920  1
  Ta  Ta18  1  0.25176738  0.81855080  0.81855080  1
  Ta  Ta19  1  0.25176738  0.18144920  0.18144920  1
  Al  Al0  1  0.50000000  0.50000000  0.50000000  1
  Al  Al1  1  0.00000000  -0.00000000  -0.00000000  1
  Al  Al2  1  0.50000000  0.43361443  0.23763676  1
  Al  Al3  1  0.50000000  0.56638557  0.76236324  1
  Al  Al4  1  0.00000000  0.06638557  0.73763676  1
  Al  Al5  1  0.00000000  0.93361443  0.26236324  1
  Al  Al6  1  0.50000000  0.23763676  0.43361443  1
  Al  Al7  1  0.50000000  0.76236324  0.56638557  1
  Al  Al8  1  0.00000000  0.73763676  0.06638557  1
  Al  Al9  1  0.00000000  0.26236324  0.93361443  1
loop_
_geom_bond_atom_site_label_1
_geom_bond_atom_site_label_2
_geom_bond_distance
_geom_bond_site_symmetry_2
Ta0 Ta4 2.741542 1_555
Ta0 Ta9 2.741542 1_555
Ta0 Ta1 2.857938 1_546
Ta0 Ta18 3.188252 1_545
Ta0 Ta15 3.188252 1_545
Ta0 Ta14 3.188252 1_556
Ta0 Ta19 3.188252 1_556
Ta0 Ta17 3.303078 1_555
Ta0 Ta12 3.303078 1_555
Ta1 Ta5 2.741542 1_555
Ta1 Ta8 2.741542 1_555
Ta1 Ta19 3.188252 1_565
Ta1 Ta18 3.188252 1_554
Ta1 Ta15 3.188252 1_554
Ta1 Ta14 3.188252 1_565
Ta1 Ta16 3.303078 1_555
Ta1 Ta13 3.303078 1_555
Ta2 Ta6 2.741542 1_555
Ta2 Ta3 2.857938 1_555
Ta3 Ta7 2.741542 1_555
Ta4 Ta5 2.656264 1_556
Ta6 Ta7 2.656264 1_545
Ta8 Ta9 2.656264 1_565
Ta10 Ta11 2.656264 1_554
Ta10 Ta2 2.741542 1_555
Ta11 Ta3 2.741542 1_555
Ta12 Ta17 2.579360 1_455
Ta12 Ta17 2.616089 1_555
Ta12 Ta3 3.188252 1_555
Ta12 Ta2 3.188252 1_555
Ta13 Ta16 2.579360 1_455
Ta13 Ta16 2.616089 1_555
Ta13 Ta3 3.188252 1_555
Ta13 Ta2 3.188252 1_555
Ta14 Ta19 2.579360 1_555
Ta14 Ta19 2.616089 1_655
Ta14 Ta2 3.303078 1_655
Ta15 Ta18 2.579360 1_555
Ta15 Ta18 2.616089 1_655
Ta15 Ta3 3.303078 1_655
Ta16 Ta3 3.188252 1_655
Ta16 Ta2 3.188252 1_655
Ta17 Ta3 3.188252 1_655
Ta17 Ta2 3.188252 1_655
Ta18 Ta3 3.303078 1_555
Ta19 Ta2 3.303078 1_555
Al0 Al2 2.680498 1_555
Al0 Al6 2.680498 1_555
Al0 Al3 2.680498 1_555
Al0 Al7 2.680498 1_555
Al0 Ta17 2.858444 1_555
Al0 Ta12 2.858444 1_555
Al0 Ta16 2.858444 1_555
Al0 Ta13 2.858444 1_555
Al0 Ta3 2.964815 1_555
Al0 Ta3 2.964815 1_655
Al0 Ta2 2.964815 1_555
Al0 Ta2 2.964815 1_655
Al1 Al9 2.680498 1_554
Al1 Al8 2.680498 1_545
Al1 Al5 2.680498 1_545
Al1 Al4 2.680498 1_554
Al1 Ta18 2.858444 1_544
Al1 Ta15 2.858444 1_444
Al1 Ta19 2.858444 1_555
Al1 Ta14 2.858444 1_455
Al1 Ta1 2.964815 1_545
Al1 Ta0 2.964815 1_454
Al1 Ta1 2.964815 1_445
Al1 Ta0 2.964815 1_554
Al2 Al6 2.745102 1_555
Al2 Ta4 2.778755 1_554
Al2 Ta5 2.784032 1_555
Al2 Ta10 2.827178 1_555
Al2 Ta10 2.827178 1_655
Al2 Ta19 2.865478 1_555
Al2 Ta14 2.865478 1_555
Al2 Ta16 2.894621 1_555
Al2 Ta13 2.894621 1_555
Al2 Ta2 3.065127 1_555
Al2 Ta2 3.065127 1_655
Al3 Al7 2.745102 1_555
Al3 Ta5 2.778755 1_556
Al3 Ta4 2.784032 1_555
Al3 Ta11 2.827178 1_555
Al3 Ta11 2.827178 1_655
Al3 Ta15 2.865478 1_555
Al3 Ta18 2.865478 1_555
Al3 Ta17 2.894621 1_555
Al3 Ta12 2.894621 1_555
Al3 Ta3 3.065127 1_555
Al3 Ta3 3.065127 1_655
Al4 Al9 2.745102 1_555
Al4 Ta6 2.778755 1_555
Al4 Ta7 2.784032 1_545
Al4 Ta9 2.827178 1_555
Al4 Ta9 2.827178 1_455
Al4 Ta12 2.865478 1_555
Al4 Ta17 2.865478 1_455
Al4 Ta15 2.894621 1_445
Al4 Ta18 2.894621 1_545
Al4 Ta0 3.065127 1_455
Al4 Ta0 3.065127 1_555
Al5 Al8 2.745102 1_555
Al5 Ta7 2.778755 1_555
Al5 Ta6 2.784032 1_565
Al5 Ta8 2.827178 1_555
Al5 Ta8 2.827178 1_455
Al5 Ta16 2.865478 1_455
Al5 Ta13 2.865478 1_555
Al5 Ta19 2.894621 1_565
Al5 Ta14 2.894621 1_465
Al5 Ta1 3.065127 1_555
Al5 Ta1 3.065127 1_455
Al6 Ta8 2.778755 1_545
Al6 Ta9 2.784032 1_555
Al6 Ta6 2.827178 1_555
Al6 Ta6 2.827178 1_655
Al6 Ta19 2.865478 1_555
Al6 Ta14 2.865478 1_555
Al6 Ta17 2.894621 1_555
Al6 Ta12 2.894621 1_555
Al6 Ta2 3.065127 1_555
Al6 Ta2 3.065127 1_655
Al7 Ta9 2.778755 1_565
Al7 Ta8 2.784032 1_555
Al7 Ta7 2.827178 1_555
Al7 Ta7 2.827178 1_655
Al7 Ta15 2.865478 1_555
Al7 Ta18 2.865478 1_555
Al7 Ta13 2.894621 1_555
Al7 Ta16 2.894621 1_555
Al7 Ta3 3.065127 1_555
Al7 Ta3 3.065127 1_655
Al8 Ta10 2.778755 1_555
Al8 Ta11 2.784032 1_554
Al8 Ta5 2.827178 1_455
Al8 Ta5 2.827178 1_555
Al8 Ta16 2.865478 1_455
Al8 Ta13 2.865478 1_555
Al8 Ta18 2.894621 1_554
Al8 Ta15 2.894621 1_454
Al8 Ta1 3.065127 1_555
Al8 Ta1 3.065127 1_455
Al9 Ta11 2.778755 1_555
Al9 Ta10 2.784032 1_556
Al9 Ta4 2.827178 1_455
Al9 Ta4 2.827178 1_555
Al9 Ta12 2.865478 1_555
Al9 Ta17 2.865478 1_455
Al9 Ta14 2.894621 1_456
Al9 Ta19 2.894621 1_556
Al9 Ta0 3.065127 1_455
Al9 Ta0 3.065127 1_555
