# generated using pymatgen
data_Pr2Se2O
_symmetry_space_group_name_H-M   'P 1'
_cell_length_a   7.38782041
_cell_length_b   7.39591000
_cell_length_c   8.91985259
_cell_angle_alpha   80.18413018
_cell_angle_beta   90.00000000
_cell_angle_gamma   90.00000000
_symmetry_Int_Tables_number   1
_chemical_formula_structural   Pr2Se2O
_chemical_formula_sum   'Pr8 Se8 O4'
_cell_volume   480.24280677
_cell_formula_units_Z   4
loop_
 _symmetry_equiv_pos_site_id
 _symmetry_equiv_pos_as_xyz
  1  'x, y, z'
loop_
 _atom_site_type_symbol
 _atom_site_label
 _atom_site_symmetry_multiplicity
 _atom_site_fract_x
 _atom_site_fract_y
 _atom_site_fract_z
 _atom_site_occupancy
  Pr  Pr0  1  0.05243309  0.74636798  0.14254853  1
  Pr  Pr1  1  0.55243309  0.75363202  0.85745147  1
  Pr  Pr2  1  0.94756691  0.25363202  0.85745147  1
  Pr  Pr3  1  0.44756691  0.24636798  0.14254853  1
  Pr  Pr4  1  0.14742288  0.67362464  0.57481302  1
  Pr  Pr5  1  0.64742288  0.82637536  0.42518698  1
  Pr  Pr6  1  0.85257712  0.32637536  0.42518698  1
  Pr  Pr7  1  0.35257712  0.17362464  0.57481302  1
  Se  Se0  1  0.72187767  0.97108855  0.07766565  1
  Se  Se1  1  0.62949455  0.43119521  0.67972523  1
  Se  Se2  1  0.37050545  0.56880479  0.32027477  1
  Se  Se3  1  0.87050545  0.93119521  0.67972523  1
  Se  Se4  1  0.22187767  0.52891145  0.92233435  1
  Se  Se5  1  0.27812233  0.02891145  0.92233435  1
  Se  Se6  1  0.77812233  0.47108855  0.07766565  1
  Se  Se7  1  0.12949455  0.06880479  0.32027477  1
  O  O0  1  0.08478129  0.35065594  0.61420200  1
  O  O1  1  0.41521871  0.85065594  0.61420200  1
  O  O2  1  0.91521871  0.64934406  0.38579800  1
  O  O3  1  0.58478129  0.14934406  0.38579800  1
loop_
_geom_bond_atom_site_label_1
_geom_bond_atom_site_label_2
_geom_bond_distance
_geom_bond_site_symmetry_2
Pr0 Se0 2.955172 1_455
Pr0 Se6 2.998116 1_455
Pr0 Se2 3.008281 1_555
Pr0 Se4 3.014830 1_554
Pr0 Se5 3.099290 1_564
Pr0 Se7 3.132593 1_565
Pr1 Se4 2.955172 1_555
Pr1 Se5 2.998116 1_565
Pr1 Se3 3.008281 1_555
Pr1 Se0 3.014830 1_556
Pr1 Se6 3.099290 1_556
Pr1 Se1 3.132593 1_555
Pr2 Se5 2.955172 1_655
Pr2 Se4 2.998116 1_655
Pr2 Se1 3.008281 1_555
Pr2 Se6 3.014830 1_556
Pr2 Se0 3.099290 1_546
Pr2 Se3 3.132593 1_545
Pr3 Se6 2.955172 1_555
Pr3 Se0 2.998116 1_545
Pr3 Se7 3.008281 1_555
Pr3 Se5 3.014830 1_554
Pr3 Se4 3.099290 1_554
Pr3 Se2 3.132593 1_555
Pr4 Se2 3.012020 1_555
Pr4 Se3 3.049233 1_455
Pr4 Se4 3.150532 1_555
Pr4 Se7 3.384100 1_565
Pr5 Se3 3.012020 1_555
Pr5 Se2 3.049233 1_555
Pr5 Se0 3.150532 1_555
Pr5 Se1 3.384100 1_555
Pr6 Se1 3.012020 1_555
Pr6 Se7 3.049233 1_655
Pr6 Se6 3.150532 1_555
Pr6 Se3 3.384100 1_545
Pr7 Se7 3.012020 1_555
Pr7 Se1 3.049233 1_555
Pr7 Se5 3.150532 1_555
Pr7 Se2 3.384100 1_555
O0 Pr2 2.391544 1_455
O0 Pr4 2.399395 1_555
O0 Pr7 2.430793 1_555
O0 Pr6 2.433292 1_455
O1 Pr1 2.391544 1_555
O1 Pr7 2.399395 1_565
O1 Pr4 2.430793 1_555
O1 Pr5 2.433292 1_555
O2 Pr0 2.391544 1_655
O2 Pr6 2.399395 1_555
O2 Pr5 2.430793 1_555
O2 Pr4 2.433292 1_655
O3 Pr3 2.391544 1_555
O3 Pr5 2.399395 1_545
O3 Pr6 2.430793 1_555
O3 Pr7 2.433292 1_555
