# generated using pymatgen
data_Sr11Hg54
_symmetry_space_group_name_H-M   'P 1'
_cell_length_a   13.64454870
_cell_length_b   13.64454870
_cell_length_c   11.21432000
_cell_angle_alpha   90.00000000
_cell_angle_beta   90.00000000
_cell_angle_gamma   120.00000340
_symmetry_Int_Tables_number   1
_chemical_formula_structural   Sr11Hg54
_chemical_formula_sum   'Sr11 Hg54'
_cell_volume   1808.09777960
_cell_formula_units_Z   1
loop_
 _symmetry_equiv_pos_site_id
 _symmetry_equiv_pos_as_xyz
  1  'x, y, z'
loop_
 _atom_site_type_symbol
 _atom_site_label
 _atom_site_symmetry_multiplicity
 _atom_site_fract_x
 _atom_site_fract_y
 _atom_site_fract_z
 _atom_site_occupancy
  Sr  Sr0  1  0.57050400  0.69570100  0.00000000  1
  Sr  Sr1  1  0.12519700  0.42949600  0.00000000  1
  Sr  Sr2  1  0.30429900  0.87480300  0.00000000  1
  Sr  Sr3  1  0.66666700  0.33333300  0.81630200  1
  Sr  Sr4  1  0.66666700  0.33333300  0.18369800  1
  Sr  Sr5  1  0.53801000  0.95018800  0.50000000  1
  Sr  Sr6  1  0.41217800  0.46199000  0.50000000  1
  Sr  Sr7  1  0.04981200  0.58782200  0.50000000  1
  Sr  Sr8  1  0.79567100  0.75054200  0.50000000  1
  Sr  Sr9  1  0.95487000  0.20432900  0.50000000  1
  Sr  Sr10  1  0.24945800  0.04513000  0.50000000  1
  Hg  Hg0  1  0.75858400  0.95258400  0.64617900  1
  Hg  Hg1  1  0.19400000  0.24141600  0.64617900  1
  Hg  Hg2  1  0.75858400  0.95258400  0.35382100  1
  Hg  Hg3  1  0.04741600  0.80600000  0.64617900  1
  Hg  Hg4  1  0.19400000  0.24141600  0.35382100  1
  Hg  Hg5  1  0.04741600  0.80600000  0.35382100  1
  Hg  Hg6  1  0.89251800  0.49211800  0.00000000  1
  Hg  Hg7  1  0.59960000  0.10748200  0.00000000  1
  Hg  Hg8  1  0.50788200  0.40040000  0.00000000  1
  Hg  Hg9  1  0.65283700  0.45410800  0.50000000  1
  Hg  Hg10  1  0.80127000  0.34716300  0.50000000  1
  Hg  Hg11  1  0.54589200  0.19873000  0.50000000  1
  Hg  Hg12  1  0.60988800  0.54958600  0.73781300  1
  Hg  Hg13  1  0.93969800  0.39011200  0.73781300  1
  Hg  Hg14  1  0.60988800  0.54958600  0.26218700  1
  Hg  Hg15  1  0.45041400  0.06030200  0.73781300  1
  Hg  Hg16  1  0.93969800  0.39011200  0.26218700  1
  Hg  Hg17  1  0.45041400  0.06030200  0.26218700  1
  Hg  Hg18  1  0.54077500  0.90069300  0.82525000  1
  Hg  Hg19  1  0.35991800  0.45922500  0.82525000  1
  Hg  Hg20  1  0.54077500  0.90069300  0.17475000  1
  Hg  Hg21  1  0.09930700  0.64008200  0.82525000  1
  Hg  Hg22  1  0.35991800  0.45922500  0.17475000  1
  Hg  Hg23  1  0.09930700  0.64008200  0.17475000  1
  Hg  Hg24  1  0.33333300  0.66666700  0.50000000  1
  Hg  Hg25  1  0.85203100  0.58379700  0.71813600  1
  Hg  Hg26  1  0.73176600  0.14796900  0.71813600  1
  Hg  Hg27  1  0.85203100  0.58379700  0.28186400  1
  Hg  Hg28  1  0.41620300  0.26823400  0.71813600  1
  Hg  Hg29  1  0.73176600  0.14796900  0.28186400  1
  Hg  Hg30  1  0.41620300  0.26823400  0.28186400  1
  Hg  Hg31  1  0.82401400  0.80503700  0.81565100  1
  Hg  Hg32  1  0.98102400  0.17598600  0.81565100  1
  Hg  Hg33  1  0.82401400  0.80503700  0.18434900  1
  Hg  Hg34  1  0.19496300  0.01897600  0.81565100  1
  Hg  Hg35  1  0.98102400  0.17598600  0.18434900  1
  Hg  Hg36  1  0.19496300  0.01897600  0.18434900  1
  Hg  Hg37  1  0.00000000  0.00000000  0.64513300  1
  Hg  Hg38  1  0.00000000  0.00000000  0.35486700  1
  Hg  Hg39  1  0.76832600  0.98879100  0.00000000  1
  Hg  Hg40  1  0.22046500  0.23167400  0.00000000  1
  Hg  Hg41  1  0.01120900  0.77953500  0.00000000  1
  Hg  Hg42  1  0.33333300  0.66666700  0.84625000  1
  Hg  Hg43  1  0.33333300  0.66666700  0.15375000  1
  Hg  Hg44  1  0.75048700  0.59883600  0.00000000  1
  Hg  Hg45  1  0.84834900  0.24951300  0.00000000  1
  Hg  Hg46  1  0.40116400  0.15165100  0.00000000  1
  Hg  Hg47  1  0.00000000  0.00000000  0.00000000  1
  Hg  Hg48  1  0.54801400  0.72211900  0.64801500  1
  Hg  Hg49  1  0.17410500  0.45198600  0.64801500  1
  Hg  Hg50  1  0.54801400  0.72211900  0.35198500  1
  Hg  Hg51  1  0.27788100  0.82589500  0.64801500  1
  Hg  Hg52  1  0.17410500  0.45198600  0.35198500  1
  Hg  Hg53  1  0.27788100  0.82589500  0.35198500  1
loop_
_geom_bond_atom_site_label_1
_geom_bond_atom_site_label_2
_geom_bond_distance
_geom_bond_site_symmetry_2
Hg0 Hg26 2.977889 1_565
Hg0 Hg48 3.018102 1_555
Hg0 Hg37 3.022929 1_665
Hg0 Hg31 3.203017 1_555
Hg0 Hg2 3.278596 1_555
Hg0 Hg18 3.355896 1_555
Hg0 Sr5 3.412897 1_555
Hg0 Sr8 3.455168 1_555
Hg0 Sr9 3.529802 1_565
Hg1 Hg28 2.977888 1_555
Hg1 Hg49 3.018102 1_555
Hg1 Hg37 3.022929 1_555
Hg1 Hg32 3.203007 1_455
Hg1 Hg4 3.278596 1_555
Hg1 Hg19 3.355896 1_555
Hg1 Sr6 3.412897 1_555
Hg1 Sr9 3.455180 1_455
Hg1 Sr10 3.529794 1_555
Hg2 Hg29 2.977889 1_565
Hg2 Hg50 3.018102 1_555
Hg2 Hg38 3.022929 1_665
Hg2 Hg33 3.203017 1_555
Hg2 Hg20 3.355896 1_555
Hg2 Sr5 3.412897 1_555
Hg2 Sr8 3.455168 1_555
Hg2 Sr9 3.529802 1_565
Hg3 Hg51 3.018102 1_555
Hg3 Hg37 3.022929 1_565
Hg3 Hg34 3.203009 1_565
Hg3 Hg5 3.278596 1_555
Hg3 Sr7 3.412897 1_555
Hg3 Sr10 3.455175 1_565
Hg3 Sr8 3.529806 1_455
Hg4 Hg52 3.018102 1_555
Hg4 Sr6 3.412897 1_555
Hg4 Sr9 3.455180 1_455
Hg4 Sr10 3.529794 1_555
Hg5 Hg53 3.018102 1_555
Hg5 Sr7 3.412897 1_555
Hg5 Sr10 3.455175 1_565
Hg5 Sr8 3.529806 1_455
Hg6 Sr4 3.428949 1_555
Hg6 Sr3 3.428949 1_554
Hg6 Sr1 3.677247 1_655
Hg7 Sr3 3.428947 1_554
Hg7 Sr4 3.428947 1_555
Hg7 Sr2 3.677246 1_545
Hg8 Sr3 3.428957 1_554
Hg8 Sr4 3.428957 1_555
Hg8 Sr0 3.677246 1_555
Hg9 Sr6 3.338756 1_555
Hg9 Sr8 3.503590 1_555
Hg10 Hg11 3.030925 1_555
Hg10 Hg9 3.030926 1_555
Hg10 Hg13 3.149045 1_555
Hg10 Hg16 3.149045 1_555
Hg10 Sr7 3.338763 1_655
Hg10 Sr9 3.503590 1_555
Hg11 Hg9 3.030926 1_555
Hg11 Hg15 3.149044 1_555
Hg11 Hg17 3.149044 1_555
Hg11 Sr5 3.338770 1_545
Hg11 Sr10 3.503590 1_555
Hg12 Hg48 3.042409 1_555
Hg12 Hg25 3.104883 1_555
Hg12 Hg19 3.147929 1_555
Hg12 Hg9 3.149038 1_555
Hg12 Hg31 3.356092 1_555
Hg12 Sr3 3.516730 1_555
Hg12 Sr6 3.548811 1_555
Hg12 Sr0 3.738974 1_556
Hg12 Sr8 3.755785 1_555
Hg13 Hg49 3.042409 1_655
Hg13 Hg26 3.104883 1_555
Hg13 Hg21 3.147929 1_655
Hg13 Hg32 3.356100 1_555
Hg13 Sr3 3.516717 1_555
Hg13 Sr7 3.548811 1_655
Hg13 Sr1 3.738974 1_656
Hg13 Sr9 3.755780 1_555
Hg14 Hg50 3.042409 1_555
Hg14 Hg27 3.104883 1_555
Hg14 Hg22 3.147929 1_555
Hg14 Hg9 3.149038 1_555
Hg14 Hg33 3.356092 1_555
Hg14 Sr4 3.516730 1_555
Hg14 Sr6 3.548811 1_555
Hg14 Sr0 3.738974 1_555
Hg14 Sr8 3.755785 1_555
Hg15 Hg51 3.042409 1_545
Hg15 Hg28 3.104883 1_555
Hg15 Hg18 3.147929 1_545
Hg15 Hg34 3.356087 1_555
Hg15 Sr3 3.516721 1_555
Hg15 Sr5 3.548811 1_545
Hg15 Sr2 3.738974 1_546
Hg15 Sr10 3.755790 1_555
Hg16 Hg52 3.042409 1_655
Hg16 Hg29 3.104883 1_555
Hg16 Hg23 3.147929 1_655
Hg16 Hg35 3.356100 1_555
Hg16 Sr4 3.516717 1_555
Hg16 Sr7 3.548811 1_655
Hg16 Sr1 3.738974 1_655
Hg16 Sr9 3.755780 1_555
Hg17 Hg53 3.042409 1_545
Hg17 Hg30 3.104883 1_555
Hg17 Hg20 3.147929 1_545
Hg17 Hg36 3.356087 1_555
Hg17 Sr4 3.516721 1_555
Hg17 Sr5 3.548811 1_545
Hg17 Sr2 3.738974 1_545
Hg17 Sr10 3.755790 1_555
Hg18 Hg42 3.037297 1_555
Hg18 Hg48 3.183974 1_555
Hg18 Hg7 3.190781 1_566
Hg18 Hg26 3.290170 1_565
Hg18 Hg39 3.345619 1_556
Hg18 Sr0 3.600402 1_556
Hg18 Sr2 3.638187 1_556
Hg18 Sr5 3.713075 1_555
Hg19 Hg42 3.037305 1_555
Hg19 Hg49 3.183974 1_555
Hg19 Hg8 3.190781 1_556
Hg19 Hg28 3.290171 1_555
Hg19 Hg40 3.345619 1_556
Hg19 Sr1 3.600402 1_556
Hg19 Sr0 3.638187 1_556
Hg19 Sr6 3.713075 1_555
Hg20 Hg43 3.037297 1_555
Hg20 Hg50 3.183974 1_555
Hg20 Hg7 3.190781 1_565
Hg20 Hg29 3.290170 1_565
Hg20 Hg39 3.345619 1_555
Hg20 Sr0 3.600402 1_555
Hg20 Sr2 3.638187 1_555
Hg20 Sr5 3.713075 1_555
Hg21 Hg42 3.037291 1_555
Hg21 Hg51 3.183974 1_555
Hg21 Hg6 3.190781 1_456
Hg21 Hg25 3.290171 1_455
Hg21 Hg41 3.345619 1_556
Hg21 Hg3 3.355896 1_555
Hg21 Sr2 3.600402 1_556
Hg21 Sr1 3.638187 1_556
Hg21 Sr7 3.713075 1_555
Hg22 Hg43 3.037305 1_555
Hg22 Hg52 3.183974 1_555
Hg22 Hg8 3.190781 1_555
Hg22 Hg30 3.290171 1_555
Hg22 Hg40 3.345619 1_555
Hg22 Hg4 3.355896 1_555
Hg22 Sr1 3.600402 1_555
Hg22 Sr0 3.638187 1_555
Hg22 Sr6 3.713075 1_555
Hg23 Hg43 3.037291 1_555
Hg23 Hg53 3.183974 1_555
Hg23 Hg6 3.190781 1_455
Hg23 Hg27 3.290171 1_455
Hg23 Hg41 3.345619 1_555
Hg23 Hg5 3.355896 1_555
Hg23 Sr2 3.600402 1_555
Hg23 Sr1 3.638187 1_555
Hg23 Sr7 3.713075 1_555
Hg24 Hg51 3.113147 1_555
Hg24 Hg53 3.113147 1_555
Hg24 Hg52 3.113155 1_555
Hg24 Hg49 3.113155 1_555
Hg24 Hg48 3.113158 1_555
Hg24 Hg50 3.113158 1_555
Hg24 Sr7 3.458469 1_555
Hg24 Sr5 3.458472 1_555
Hg24 Sr6 3.458482 1_555
Hg25 Hg3 2.977888 1_655
Hg25 Sr3 3.262575 1_555
Hg25 Hg31 3.407152 1_555
Hg25 Sr7 3.622368 1_655
Hg25 Sr8 3.674434 1_555
Hg26 Sr3 3.262566 1_555
Hg26 Hg32 3.407165 1_555
Hg26 Sr5 3.622368 1_545
Hg26 Sr9 3.674424 1_555
Hg27 Hg5 2.977888 1_655
Hg27 Sr4 3.262575 1_555
Hg27 Hg33 3.407152 1_555
Hg27 Sr7 3.622368 1_655
Hg27 Sr8 3.674434 1_555
Hg28 Sr3 3.262579 1_555
Hg28 Hg34 3.407159 1_555
Hg28 Sr6 3.622368 1_555
Hg28 Sr10 3.674427 1_555
Hg29 Sr4 3.262566 1_555
Hg29 Hg35 3.407165 1_555
Hg29 Sr5 3.622368 1_545
Hg29 Sr9 3.674424 1_555
Hg30 Hg4 2.977888 1_555
Hg30 Sr4 3.262579 1_555
Hg30 Hg36 3.407159 1_555
Hg30 Sr6 3.622368 1_555
Hg30 Sr10 3.674427 1_555
Hg31 Hg37 3.179856 1_665
Hg31 Hg44 3.220819 1_556
Hg31 Hg47 3.275475 1_666
Hg31 Hg41 3.436229 1_656
Hg31 Sr8 3.597937 1_555
Hg31 Sr0 3.647476 1_556
Hg32 Hg37 3.179849 1_655
Hg32 Hg45 3.220829 1_556
Hg32 Hg47 3.275469 1_656
Hg32 Hg39 3.436235 1_546
Hg32 Sr9 3.597941 1_555
Hg32 Sr1 3.647475 1_656
Hg33 Hg38 3.179856 1_665
Hg33 Hg44 3.220819 1_555
Hg33 Hg47 3.275475 1_665
Hg33 Hg41 3.436229 1_655
Hg33 Sr8 3.597937 1_555
Hg33 Sr0 3.647476 1_555
Hg34 Hg37 3.179860 1_555
Hg34 Hg46 3.220821 1_556
Hg34 Hg47 3.275480 1_556
Hg34 Hg40 3.436239 1_556
Hg34 Sr10 3.597937 1_555
Hg34 Sr2 3.647466 1_546
Hg35 Hg38 3.179849 1_655
Hg35 Hg4 3.203007 1_655
Hg35 Hg45 3.220829 1_555
Hg35 Hg47 3.275469 1_655
Hg35 Hg39 3.436235 1_545
Hg35 Sr9 3.597941 1_555
Hg35 Sr1 3.647475 1_655
Hg36 Hg38 3.179860 1_555
Hg36 Hg5 3.203009 1_545
Hg36 Hg46 3.220821 1_555
Hg36 Hg47 3.275480 1_555
Hg36 Hg40 3.436239 1_555
Hg36 Sr10 3.597937 1_555
Hg36 Sr2 3.647466 1_545
Hg37 Hg38 3.255136 1_555
Hg37 Sr10 3.538032 1_555
Hg37 Sr8 3.538036 1_445
Hg37 Sr9 3.538044 1_455
Hg38 Hg4 3.022929 1_555
Hg38 Hg5 3.022929 1_545
Hg38 Sr10 3.538032 1_555
Hg38 Sr8 3.538036 1_445
Hg38 Sr9 3.538044 1_455
Hg39 Hg47 3.087459 1_665
Hg39 Hg45 3.156462 1_565
Hg39 Sr0 3.533270 1_555
Hg40 Hg47 3.087459 1_555
Hg40 Hg46 3.156462 1_555
Hg40 Sr1 3.533270 1_555
Hg41 Hg47 3.087459 1_565
Hg41 Hg44 3.156462 1_455
Hg41 Sr2 3.533270 1_555
Hg42 Sr2 3.509988 1_556
Hg42 Sr1 3.509995 1_556
Hg42 Sr0 3.510000 1_556
Hg43 Sr2 3.509988 1_555
Hg43 Sr1 3.509995 1_555
Hg43 Sr0 3.510000 1_555
Hg44 Hg6 2.949205 1_555
Hg44 Hg8 3.053834 1_555
Hg44 Sr0 3.320164 1_555
Hg45 Hg7 2.949205 1_555
Hg45 Hg6 3.053834 1_555
Hg45 Sr1 3.320164 1_655
Hg46 Hg8 2.949205 1_555
Hg46 Hg7 3.053834 1_555
Hg46 Sr2 3.320164 1_545
Hg48 Hg50 3.319775 1_555
Hg48 Sr6 3.494253 1_555
Hg48 Sr5 3.589226 1_555
Hg48 Sr8 3.607478 1_555
Hg49 Hg52 3.319775 1_555
Hg49 Sr7 3.494253 1_555
Hg49 Sr6 3.589226 1_555
Hg49 Sr9 3.607483 1_455
Hg50 Sr6 3.494253 1_555
Hg50 Sr5 3.589226 1_555
Hg50 Sr8 3.607478 1_555
Hg51 Hg53 3.319775 1_555
Hg51 Sr5 3.494253 1_555
Hg51 Sr7 3.589226 1_555
Hg51 Sr10 3.607491 1_565
Hg52 Sr7 3.494253 1_555
Hg52 Sr6 3.589226 1_555
Hg52 Sr9 3.607483 1_455
Hg53 Sr5 3.494253 1_555
Hg53 Sr7 3.589226 1_555
Hg53 Sr10 3.607491 1_565
