# generated using pymatgen
data_Cs4Ge(PS3)4
_symmetry_space_group_name_H-M   'P 1'
_cell_length_a   7.70322434
_cell_length_b   7.70322434
_cell_length_c   24.57029296
_cell_angle_alpha   79.73644267
_cell_angle_beta   79.73644267
_cell_angle_gamma   66.51662979
_symmetry_Int_Tables_number   1
_chemical_formula_structural   Cs4Ge(PS3)4
_chemical_formula_sum   'Cs8 Ge2 P8 S24'
_cell_volume   1306.52674541
_cell_formula_units_Z   2
loop_
 _symmetry_equiv_pos_site_id
 _symmetry_equiv_pos_as_xyz
  1  'x, y, z'
loop_
 _atom_site_type_symbol
 _atom_site_label
 _atom_site_symmetry_multiplicity
 _atom_site_fract_x
 _atom_site_fract_y
 _atom_site_fract_z
 _atom_site_occupancy
  Cs  Cs0  1  0.82258577  0.79437087  0.05014316  1
  Cs  Cs1  1  0.20562913  0.17741423  0.44985684  1
  Cs  Cs2  1  0.17741423  0.20562913  0.94985684  1
  Cs  Cs3  1  0.79437087  0.82258577  0.55014316  1
  Cs  Cs4  1  0.64977943  0.53835076  0.31324017  1
  Cs  Cs5  1  0.46164924  0.35022057  0.18675983  1
  Cs  Cs6  1  0.35022057  0.46164924  0.68675983  1
  Cs  Cs7  1  0.53835076  0.64977943  0.81324017  1
  Ge  Ge0  1  0.00539572  0.99460428  0.25000000  1
  Ge  Ge1  1  0.99460428  0.00539572  0.75000000  1
  P  P0  1  0.09912054  0.73261928  0.36834712  1
  P  P1  1  0.26738072  0.90087946  0.13165288  1
  P  P2  1  0.90087946  0.26738072  0.63165288  1
  P  P3  1  0.73261928  0.09912054  0.86834712  1
  P  P4  1  0.07390163  0.21057083  0.11616442  1
  P  P5  1  0.78942917  0.92609837  0.38383558  1
  P  P6  1  0.92609837  0.78942917  0.88383558  1
  P  P7  1  0.21057083  0.07390163  0.61616442  1
  S  S0  1  0.21330006  0.67333887  0.43780514  1
  S  S1  1  0.32666113  0.78669994  0.06219486  1
  S  S2  1  0.78669994  0.32666113  0.56219486  1
  S  S3  1  0.67333887  0.21330006  0.93780514  1
  S  S4  1  0.12770332  0.52360301  0.32662376  1
  S  S5  1  0.47639699  0.87229668  0.17337624  1
  S  S6  1  0.87229668  0.47639699  0.67337624  1
  S  S7  1  0.52360301  0.12770332  0.82662376  1
  S  S8  1  0.06703137  0.80001374  0.18601266  1
  S  S9  1  0.19998626  0.93296863  0.31398734  1
  S  S10  1  0.93296863  0.19998626  0.81398734  1
  S  S11  1  0.80001374  0.06703137  0.68601266  1
  S  S12  1  0.23052115  0.35534482  0.07867409  1
  S  S13  1  0.64465518  0.76947885  0.42132591  1
  S  S14  1  0.76947885  0.64465518  0.92132591  1
  S  S15  1  0.35534482  0.23052115  0.57867409  1
  S  S16  1  0.85099863  0.24057591  0.08147816  1
  S  S17  1  0.75942409  0.14900137  0.41852184  1
  S  S18  1  0.14900137  0.75942409  0.91852184  1
  S  S19  1  0.24057591  0.85099863  0.58147816  1
  S  S20  1  0.99232335  0.27606334  0.20275909  1
  S  S21  1  0.72393666  0.00767665  0.29724091  1
  S  S22  1  0.00767665  0.72393666  0.79724091  1
  S  S23  1  0.27606334  0.99232335  0.70275909  1
loop_
_geom_bond_atom_site_label_1
_geom_bond_atom_site_label_2
_geom_bond_distance
_geom_bond_site_symmetry_2
Cs0 S5 3.624155 1_555
Cs0 S12 3.643360 1_655
Cs0 S14 3.695046 1_554
Cs0 S18 3.704938 1_654
Cs0 S16 3.749370 1_565
Cs0 S3 3.788714 1_564
Cs0 S1 3.802079 1_555
Cs0 S1 3.922951 1_655
Cs0 S16 4.121284 1_555
Cs0 S8 4.129080 1_655
Cs1 S4 3.624155 1_555
Cs1 S13 3.643360 1_545
Cs1 S15 3.695046 1_555
Cs1 S19 3.704938 1_545
Cs1 S17 3.749370 1_455
Cs1 S2 3.788714 1_455
Cs1 S0 3.802079 1_555
Cs1 S0 3.922951 1_545
Cs1 S17 4.121284 1_555
Cs1 S9 4.129080 1_545
Cs2 S7 3.624155 1_555
Cs2 S14 3.643360 1_455
Cs2 S12 3.695046 1_556
Cs2 S16 3.704938 1_456
Cs2 S18 3.749370 1_545
Cs2 S1 3.788714 1_546
Cs2 S3 3.802079 1_555
Cs2 S3 3.922951 1_455
Cs2 S18 4.121284 1_555
Cs2 S10 4.129080 1_455
Cs3 S6 3.624155 1_555
Cs3 S15 3.643360 1_565
Cs3 S13 3.695046 1_555
Cs3 S17 3.704938 1_565
Cs3 S19 3.749370 1_655
Cs3 S0 3.788714 1_655
Cs3 S2 3.802079 1_555
Cs3 S2 3.922951 1_565
Cs3 S19 4.121284 1_555
Cs3 S11 4.129080 1_565
Cs4 S13 3.437412 1_555
Cs4 S17 3.520702 1_555
Cs4 S9 3.584586 1_555
Cs4 S20 3.683312 1_555
Cs4 S4 3.709402 1_655
Cs4 S21 3.822418 1_565
Cs4 S21 3.977857 1_555
Cs4 S5 3.994752 1_555
Cs4 S4 4.021741 1_555
Cs4 S0 4.053911 1_555
Cs5 S12 3.437412 1_555
Cs5 S16 3.520702 1_555
Cs5 S8 3.584586 1_555
Cs5 S21 3.683312 1_555
Cs5 S5 3.709402 1_545
Cs5 S20 3.822418 1_455
Cs5 S20 3.977857 1_555
Cs5 S4 3.994752 1_555
Cs5 S5 4.021741 1_555
Cs5 S1 4.053911 1_555
Cs6 S15 3.437412 1_555
Cs6 S19 3.520702 1_555
Cs6 S11 3.584586 1_555
Cs6 S22 3.683312 1_555
Cs6 S6 3.709402 1_455
Cs6 S23 3.822418 1_545
Cs6 S23 3.977857 1_555
Cs6 S7 3.994752 1_555
Cs6 S6 4.021741 1_555
Cs6 S2 4.053911 1_555
Cs7 S14 3.437412 1_555
Cs7 S18 3.520702 1_555
Cs7 S10 3.584586 1_555
Cs7 S23 3.683312 1_555
Cs7 S7 3.709402 1_565
Cs7 S22 3.822418 1_655
Cs7 S22 3.977857 1_555
Cs7 S6 3.994752 1_555
Cs7 S7 4.021741 1_555
Cs7 S3 4.053911 1_555
Ge0 S8 2.225023 1_555
Ge0 S9 2.225023 1_555
Ge0 S20 2.242567 1_465
Ge0 S21 2.242567 1_465
Ge1 S11 2.225023 1_555
Ge1 S10 2.225023 1_555
Ge1 S23 2.242567 1_645
Ge1 S22 2.242567 1_645
P0 S0 1.957479 1_555
P0 S4 1.979159 1_555
P0 S9 2.149613 1_555
P0 P5 2.258824 1_455
P1 S1 1.957479 1_555
P1 S5 1.979159 1_555
P1 S8 2.149613 1_555
P1 P4 2.258824 1_565
P2 S2 1.957479 1_555
P2 S6 1.979159 1_555
P2 S11 2.149613 1_555
P2 P7 2.258824 1_655
P3 S3 1.957479 1_555
P3 S7 1.979159 1_555
P3 S10 2.149613 1_555
P3 P6 2.258824 1_545
P4 S12 1.964187 1_555
P4 S16 1.965471 1_455
P4 S20 2.197666 1_455
P5 S13 1.964187 1_555
P5 S17 1.965471 1_565
P5 S21 2.197666 1_565
P6 S14 1.964187 1_555
P6 S18 1.965471 1_655
P6 S22 2.197666 1_655
P7 S15 1.964187 1_555
P7 S19 1.965471 1_545
P7 S23 2.197666 1_545
