# generated using pymatgen
data_Mg5Pb
_symmetry_space_group_name_H-M   'P 1'
_cell_length_a   16.81569491
_cell_length_b   16.81569491
_cell_length_c   10.54863640
_cell_angle_alpha   90.00000000
_cell_angle_beta   90.00000000
_cell_angle_gamma   157.74746752
_symmetry_Int_Tables_number   1
_chemical_formula_structural   Mg5Pb
_chemical_formula_sum   'Mg40 Pb8'
_cell_volume   1129.55987077
_cell_formula_units_Z   8
loop_
 _symmetry_equiv_pos_site_id
 _symmetry_equiv_pos_as_xyz
  1  'x, y, z'
loop_
 _atom_site_type_symbol
 _atom_site_label
 _atom_site_symmetry_multiplicity
 _atom_site_fract_x
 _atom_site_fract_y
 _atom_site_fract_z
 _atom_site_occupancy
  Mg  Mg0_0  1  0.00004877  0.99995124  0.00000000  1
  Mg  Mg0_1  1  0.00004877  0.99995124  0.50000000  1
  Mg  Mg0_2  1  0.00004876  0.49995123  0.00000000  1
  Mg  Mg0_3  1  0.00004876  0.49995123  0.50000000  1
  Mg  Mg0_4  1  0.50004876  0.99995124  0.00000000  1
  Mg  Mg0_5  1  0.50004876  0.99995124  0.50000000  1
  Mg  Mg0_6  1  0.50004876  0.49995123  0.00000000  1
  Mg  Mg0_7  1  0.50004876  0.49995123  0.50000000  1
  Mg  Mg1_0  1  0.16688418  0.33311581  0.00000000  1
  Mg  Mg1_1  1  0.16688418  0.33311581  0.50000000  1
  Mg  Mg1_2  1  0.16688418  0.83311581  0.00000000  1
  Mg  Mg1_3  1  0.16688418  0.83311581  0.50000000  1
  Mg  Mg1_4  1  0.66688419  0.33311581  0.00000000  1
  Mg  Mg1_5  1  0.66688419  0.33311581  0.50000000  1
  Mg  Mg1_6  1  0.66688418  0.83311581  0.00000000  1
  Mg  Mg1_7  1  0.66688418  0.83311581  0.50000000  1
  Mg  Mg2_0  1  0.33172152  0.16827848  0.00000000  1
  Mg  Mg2_1  1  0.33172152  0.16827848  0.50000000  1
  Mg  Mg2_2  1  0.33172152  0.66827848  0.00000000  1
  Mg  Mg2_3  1  0.33172152  0.66827848  0.50000000  1
  Mg  Mg2_4  1  0.83172152  0.16827848  0.00000000  1
  Mg  Mg2_5  1  0.83172152  0.16827848  0.50000000  1
  Mg  Mg2_6  1  0.83172152  0.66827848  0.00000000  1
  Mg  Mg2_7  1  0.83172152  0.66827848  0.50000000  1
  Mg  Mg3_0  1  0.22395361  0.27604639  0.25000000  1
  Mg  Mg3_1  1  0.22395361  0.27604639  0.75000000  1
  Mg  Mg3_2  1  0.22395361  0.77604639  0.25000000  1
  Mg  Mg3_3  1  0.22395361  0.77604639  0.75000000  1
  Mg  Mg3_4  1  0.72395361  0.27604639  0.25000000  1
  Mg  Mg3_5  1  0.72395361  0.27604639  0.75000000  1
  Mg  Mg3_6  1  0.72395361  0.77604639  0.25000000  1
  Mg  Mg3_7  1  0.72395361  0.77604639  0.75000000  1
  Mg  Mg4_0  1  0.05538515  0.44461485  0.25000000  1
  Mg  Mg4_1  1  0.05538515  0.44461485  0.75000000  1
  Mg  Mg4_2  1  0.05538515  0.94461485  0.25000000  1
  Mg  Mg4_3  1  0.05538515  0.94461485  0.75000000  1
  Mg  Mg4_4  1  0.55538515  0.44461485  0.25000000  1
  Mg  Mg4_5  1  0.55538515  0.44461485  0.75000000  1
  Mg  Mg4_6  1  0.55538515  0.94461485  0.25000000  1
  Mg  Mg4_7  1  0.55538515  0.94461485  0.75000000  1
  Pb  Pb0_0  1  0.38867627  0.11132373  0.25000000  1
  Pb  Pb0_1  1  0.38867627  0.11132373  0.75000000  1
  Pb  Pb0_2  1  0.38867627  0.61132373  0.25000000  1
  Pb  Pb0_3  1  0.38867627  0.61132373  0.75000000  1
  Pb  Pb0_4  1  0.88867627  0.11132373  0.25000000  1
  Pb  Pb0_5  1  0.88867627  0.11132373  0.75000000  1
  Pb  Pb0_6  1  0.88867627  0.61132373  0.25000000  1
  Pb  Pb0_7  1  0.88867627  0.61132373  0.75000000  1
loop_
_geom_bond_atom_site_label_1
_geom_bond_atom_site_label_2
_geom_bond_distance
_geom_bond_site_symmetry_2
Mg0_0 Mg2_0 3.145825 1_565
Mg0_0 Mg2_6 3.145825 1_455
Mg0_0 Mg1_0 3.188103 1_565
Mg0_0 Mg1_6 3.188103 1_455
Mg0_0 Mg4_2 3.207663 1_555
Mg0_0 Mg4_3 3.207663 1_554
Mg0_0 Mg3_1 3.213809 1_564
Mg0_0 Mg3_7 3.213809 1_454
Mg0_0 Mg3_6 3.213809 1_455
Mg0_0 Mg3_0 3.213809 1_565
Mg0_0 Mg0_6 3.244955 1_565
Mg0_0 Mg0_6 3.244955 1_455
Mg0_1 Mg2_1 3.145825 1_565
Mg0_1 Mg2_7 3.145825 1_455
Mg0_1 Mg1_1 3.188103 1_565
Mg0_1 Mg1_7 3.188103 1_455
Mg0_1 Mg4_2 3.207663 1_555
Mg0_1 Mg4_3 3.207663 1_555
Mg0_1 Mg3_1 3.213809 1_565
Mg0_1 Mg3_7 3.213809 1_455
Mg0_1 Mg3_6 3.213809 1_455
Mg0_1 Mg3_0 3.213809 1_565
Mg0_1 Mg0_7 3.244955 1_565
Mg0_1 Mg0_7 3.244955 1_455
Mg0_2 Mg2_4 3.145825 1_455
Mg0_2 Mg2_2 3.145825 1_555
Mg0_2 Mg1_4 3.188103 1_455
Mg0_2 Mg1_2 3.188103 1_555
Mg0_2 Mg4_0 3.207663 1_555
Mg0_2 Mg4_1 3.207663 1_554
Mg0_2 Mg3_2 3.213809 1_555
Mg0_2 Mg3_3 3.213809 1_554
Mg0_2 Mg3_5 3.213809 1_454
Mg0_2 Mg3_4 3.213809 1_455
Mg0_2 Mg0_4 3.244955 1_445
Mg0_2 Mg0_4 3.244955 1_555
Mg0_3 Mg2_5 3.145825 1_455
Mg0_3 Mg2_3 3.145825 1_555
Mg0_3 Mg1_5 3.188103 1_455
Mg0_3 Mg1_3 3.188103 1_555
Mg0_3 Mg4_0 3.207663 1_555
Mg0_3 Mg4_1 3.207663 1_555
Mg0_3 Mg3_2 3.213809 1_555
Mg0_3 Mg3_3 3.213809 1_555
Mg0_3 Mg3_4 3.213809 1_455
Mg0_3 Mg3_5 3.213809 1_455
Mg0_3 Mg0_5 3.244955 1_555
Mg0_3 Mg0_5 3.244955 1_445
Mg0_4 Mg2_4 3.145825 1_565
Mg0_4 Mg2_2 3.145825 1_555
Mg0_4 Mg1_4 3.188103 1_565
Mg0_4 Mg1_2 3.188103 1_555
Mg0_4 Mg4_7 3.207663 1_554
Mg0_4 Mg4_6 3.207663 1_555
Mg0_4 Mg3_3 3.213809 1_554
Mg0_4 Mg3_2 3.213809 1_555
Mg0_4 Mg3_4 3.213809 1_565
Mg0_4 Mg3_5 3.213809 1_564
Mg0_5 Mg2_5 3.145825 1_565
Mg0_5 Mg2_3 3.145825 1_555
Mg0_5 Mg1_3 3.188103 1_555
Mg0_5 Mg1_5 3.188103 1_565
Mg0_5 Mg4_6 3.207663 1_555
Mg0_5 Mg4_7 3.207663 1_555
Mg0_5 Mg3_3 3.213809 1_555
Mg0_5 Mg3_2 3.213809 1_555
Mg0_5 Mg3_4 3.213809 1_565
Mg0_5 Mg3_5 3.213809 1_565
Mg0_6 Mg2_0 3.145825 1_555
Mg0_6 Mg2_6 3.145825 1_555
Mg0_6 Mg1_0 3.188103 1_555
Mg0_6 Mg1_6 3.188103 1_555
Mg0_6 Mg4_5 3.207663 1_554
Mg0_6 Mg4_4 3.207663 1_555
Mg0_6 Mg3_6 3.213809 1_555
Mg0_6 Mg3_7 3.213809 1_554
Mg0_6 Mg3_1 3.213809 1_554
Mg0_6 Mg3_0 3.213809 1_555
Mg0_7 Mg2_1 3.145825 1_555
Mg0_7 Mg2_7 3.145825 1_555
Mg0_7 Mg1_1 3.188103 1_555
Mg0_7 Mg1_7 3.188103 1_555
Mg0_7 Mg4_5 3.207663 1_555
Mg0_7 Mg4_4 3.207663 1_555
Mg0_7 Mg3_7 3.213809 1_555
Mg0_7 Mg3_6 3.213809 1_555
Mg0_7 Mg3_0 3.213809 1_555
Mg0_7 Mg3_1 3.213809 1_555
Mg1_0 Pb0_3 3.233188 1_554
Mg1_0 Pb0_2 3.233188 1_555
Mg1_0 Pb0_4 3.233188 1_455
Mg1_0 Pb0_5 3.233188 1_454
Mg1_1 Pb0_3 3.233188 1_555
Mg1_1 Pb0_2 3.233188 1_555
Mg1_1 Pb0_5 3.233188 1_455
Mg1_1 Pb0_4 3.233188 1_455
Mg1_2 Pb0_6 3.233188 1_455
Mg1_2 Pb0_0 3.233188 1_565
Mg1_2 Pb0_1 3.233188 1_564
Mg1_2 Pb0_7 3.233188 1_454
Mg1_3 Pb0_1 3.233188 1_565
Mg1_3 Pb0_7 3.233188 1_455
Mg1_3 Pb0_6 3.233188 1_455
Mg1_3 Pb0_0 3.233188 1_565
Mg1_4 Pb0_7 3.233188 1_554
Mg1_4 Pb0_6 3.233188 1_555
Mg1_4 Pb0_1 3.233188 1_554
Mg1_4 Pb0_0 3.233188 1_555
Mg1_5 Pb0_6 3.233188 1_555
Mg1_5 Pb0_7 3.233188 1_555
Mg1_5 Pb0_1 3.233188 1_555
Mg1_5 Pb0_0 3.233188 1_555
Mg1_6 Pb0_3 3.233188 1_554
Mg1_6 Pb0_2 3.233188 1_555
Mg1_6 Pb0_5 3.233188 1_564
Mg1_6 Pb0_4 3.233188 1_565
Mg1_7 Pb0_3 3.233188 1_555
Mg1_7 Pb0_2 3.233188 1_555
Mg1_7 Pb0_5 3.233188 1_565
Mg1_7 Pb0_4 3.233188 1_565
Mg2_0 Pb0_0 3.238363 1_555
Mg2_0 Pb0_1 3.238363 1_554
Mg2_1 Pb0_0 3.238363 1_555
Mg2_1 Pb0_1 3.238363 1_555
Mg2_2 Pb0_2 3.238363 1_555
Mg2_2 Pb0_3 3.238363 1_554
Mg2_3 Pb0_3 3.238363 1_555
Mg2_3 Pb0_2 3.238363 1_555
Mg2_4 Pb0_5 3.238363 1_554
Mg2_4 Pb0_4 3.238363 1_555
Mg2_5 Pb0_5 3.238363 1_555
Mg2_5 Pb0_4 3.238363 1_555
Mg2_6 Pb0_7 3.238363 1_554
Mg2_6 Pb0_6 3.238363 1_555
Mg2_7 Pb0_7 3.238363 1_555
Mg2_7 Pb0_6 3.238363 1_555
Mg3_0 Pb0_2 3.248312 1_555
Mg3_0 Pb0_4 3.248312 1_455
Mg3_1 Pb0_3 3.248312 1_555
Mg3_1 Pb0_5 3.248312 1_455
Mg3_2 Pb0_6 3.248312 1_455
Mg3_2 Pb0_0 3.248312 1_565
Mg3_3 Pb0_7 3.248312 1_455
Mg3_3 Pb0_1 3.248312 1_565
Mg3_4 Pb0_6 3.248312 1_555
Mg3_4 Pb0_0 3.248312 1_555
Mg3_5 Pb0_7 3.248312 1_555
Mg3_5 Pb0_1 3.248312 1_555
Mg3_6 Pb0_2 3.248312 1_555
Mg3_6 Pb0_4 3.248312 1_565
Mg3_7 Pb0_3 3.248312 1_555
Mg3_7 Pb0_5 3.248312 1_565
Mg4_0 Pb0_4 3.191698 1_455
Mg4_0 Pb0_2 3.191698 1_555
Mg4_1 Pb0_5 3.191698 1_455
Mg4_1 Pb0_3 3.191698 1_555
Mg4_2 Pb0_0 3.191698 1_565
Mg4_2 Pb0_6 3.191698 1_455
Mg4_3 Pb0_1 3.191698 1_565
Mg4_3 Pb0_7 3.191698 1_455
Mg4_4 Pb0_0 3.191698 1_555
Mg4_4 Pb0_6 3.191698 1_555
Mg4_5 Pb0_1 3.191698 1_555
Mg4_5 Pb0_7 3.191698 1_555
Mg4_6 Pb0_2 3.191698 1_555
Mg4_6 Pb0_4 3.191698 1_565
Mg4_7 Pb0_3 3.191698 1_555
Mg4_7 Pb0_5 3.191698 1_565
