# generated using pymatgen
data_Li9Mn2Co5O16
_symmetry_space_group_name_H-M   'P 1'
_cell_length_a   4.99290900
_cell_length_b   6.02211104
_cell_length_c   9.87380292
_cell_angle_alpha   86.08014423
_cell_angle_beta   77.94844840
_cell_angle_gamma   86.18907057
_symmetry_Int_Tables_number   1
_chemical_formula_structural   Li9Mn2Co5O16
_chemical_formula_sum   'Li9 Mn2 Co5 O16'
_cell_volume   289.24683589
_cell_formula_units_Z   1
loop_
 _symmetry_equiv_pos_site_id
 _symmetry_equiv_pos_as_xyz
  1  'x, y, z'
loop_
 _atom_site_type_symbol
 _atom_site_label
 _atom_site_symmetry_multiplicity
 _atom_site_fract_x
 _atom_site_fract_y
 _atom_site_fract_z
 _atom_site_occupancy
  Li  Li0  1  0.25202200  0.00462100  0.25533100  1
  Li  Li1  1  0.25041400  0.25119300  0.74684400  1
  Li  Li2  1  0.24541700  0.49616800  0.25493800  1
  Li  Li3  1  0.74925100  0.25047800  0.25287100  1
  Li  Li4  1  0.75259700  0.49479800  0.74593100  1
  Li  Li5  1  0.74752100  0.75116800  0.25303000  1
  Li  Li6  1  0.25257400  0.74710500  0.74693300  1
  Li  Li7  1  0.75064600  0.00508000  0.74380500  1
  Li  Li8  1  0.00055500  0.24974900  0.49994000  1
  Mn  Mn0  1  0.99919900  0.00348800  0.00017700  1
  Mn  Mn1  1  0.50128900  0.74668200  0.99947500  1
  Co  Co0  1  0.00035300  0.49778700  0.99985400  1
  Co  Co1  1  0.99956900  0.74925800  0.49971000  1
  Co  Co2  1  0.50476000  0.49139900  0.49546800  1
  Co  Co3  1  0.49418300  0.00883000  0.50471300  1
  Co  Co4  1  0.49945300  0.25214400  0.00060500  1
  O  O0  1  0.13158400  0.76004900  0.11736800  1
  O  O1  1  0.15976400  0.99887100  0.61447900  1
  O  O2  1  0.13689800  0.26560500  0.11649500  1
  O  O3  1  0.63180000  0.01572400  0.11574100  1
  O  O4  1  0.61145600  0.26180600  0.61371600  1
  O  O5  1  0.63833800  0.50598300  0.11373000  1
  O  O6  1  0.15128900  0.51880500  0.60813300  1
  O  O7  1  0.63933200  0.76250900  0.61504700  1
  O  O8  1  0.38839000  0.23923800  0.38585200  1
  O  O9  1  0.36107400  0.48348900  0.88615200  1
  O  O10  1  0.36092800  0.73778400  0.38566500  1
  O  O11  1  0.83973900  0.50175100  0.38625500  1
  O  O12  1  0.87021700  0.73414400  0.88283500  1
  O  O13  1  0.84890700  0.98037000  0.39128400  1
  O  O14  1  0.36825400  0.99091800  0.88446700  1
  O  O15  1  0.86222700  0.24300500  0.88315500  1
loop_
_geom_bond_atom_site_label_1
_geom_bond_atom_site_label_2
_geom_bond_distance
_geom_bond_site_symmetry_2
Li0 O3 2.100619 1_555
Li0 O10 2.104112 1_545
Li0 O2 2.143395 1_555
Li0 O13 2.181366 1_445
Li0 O8 2.205433 1_555
Li0 O0 2.262876 1_545
Li1 O4 1.998958 1_555
Li1 O15 2.117727 1_455
Li1 O14 2.137641 1_545
Li1 O6 2.143185 1_555
Li1 O1 2.198142 1_545
Li1 O9 2.199411 1_555
Li2 O8 2.130614 1_555
Li2 O0 2.144906 1_555
Li2 O5 2.158269 1_555
Li2 O11 2.164537 1_455
Li2 O2 2.181468 1_555
Li2 O10 2.189760 1_555
Li3 O8 1.997768 1_555
Li3 O5 2.115913 1_555
Li3 O2 2.118006 1_655
Li3 O13 2.152598 1_545
Li3 O11 2.200047 1_555
Li3 O3 2.208904 1_555
Li4 O15 2.086420 1_555
Li4 O7 2.118535 1_555
Li4 O9 2.148843 1_555
Li4 O6 2.171426 1_655
Li4 O4 2.221616 1_555
Li4 O12 2.227126 1_555
Li5 O11 2.022198 1_555
Li5 O10 2.097142 1_555
Li5 O0 2.098930 1_655
Li5 O3 2.149199 1_565
Li5 O13 2.159619 1_555
Li5 O5 2.250970 1_555
Li6 O1 2.027921 1_555
Li6 O12 2.094522 1_455
Li6 O7 2.095362 1_555
Li6 O9 2.145128 1_555
Li6 O6 2.159541 1_555
Li6 O14 2.246419 1_555
Li7 O14 2.116508 1_545
Li7 O4 2.116953 1_555
Li7 O1 2.170646 1_645
Li7 O7 2.171629 1_545
Li7 O12 2.193064 1_545
Li7 O15 2.225355 1_555
Li8 O8 2.026147 1_555
Li8 O4 2.030410 1_455
Li8 O1 2.043435 1_545
Li8 O11 2.046772 1_455
Li8 O6 2.251095 1_555
Li8 O13 2.257515 1_445
Mn0 O3 1.947278 1_555
Mn0 O14 1.954634 1_644
Mn0 O15 1.963230 1_554
Mn0 O0 1.970706 1_645
Mn0 O2 2.237241 1_655
Mn0 O12 2.257306 1_544
Mn1 O5 1.951650 1_556
Mn1 O12 1.957716 1_555
Mn1 O14 1.962338 1_555
Mn1 O0 1.965870 1_556
Mn1 O9 2.229653 1_555
Mn1 O3 2.252680 1_566
Co0 O9 1.913068 1_555
Co0 O5 1.918549 1_456
Co0 O2 1.930599 1_556
Co0 O12 1.936200 1_455
Co0 O15 2.207191 1_455
Co0 O0 2.230613 1_556
Co1 O6 1.908326 1_655
Co1 O13 1.908525 1_555
Co1 O10 1.916693 1_655
Co1 O7 1.917380 1_555
Co1 O11 2.207508 1_555
Co1 O1 2.225918 1_655
Co2 O11 1.793202 1_555
Co2 O4 1.870768 1_555
Co2 O6 1.883079 1_555
Co2 O10 1.963731 1_555
Co2 O8 2.102281 1_555
Co2 O7 2.291664 1_555
Co3 O1 1.793029 1_545
Co3 O8 1.876285 1_555
Co3 O13 1.891589 1_545
Co3 O7 1.969334 1_545
Co3 O4 2.104287 1_555
Co3 O10 2.285153 1_545
Co4 O9 1.917878 1_554
Co4 O2 1.928985 1_555
Co4 O3 1.929620 1_555
Co4 O15 1.935720 1_554
Co4 O5 2.182440 1_555
Co4 O14 2.217235 1_544
