# generated using pymatgen
data_CsNaEuNb5O15
_symmetry_space_group_name_H-M   'P 1'
_cell_length_a   7.74324000
_cell_length_b   7.94272500
_cell_length_c   10.72505400
_cell_angle_alpha   90.00000000
_cell_angle_beta   90.00000000
_cell_angle_gamma   90.00000000
_symmetry_Int_Tables_number   1
_chemical_formula_structural   CsNaEuNb5O15
_chemical_formula_sum   'Cs2 Na2 Eu2 Nb10 O30'
_cell_volume   659.61683922
_cell_formula_units_Z   2
loop_
 _symmetry_equiv_pos_site_id
 _symmetry_equiv_pos_as_xyz
  1  'x, y, z'
loop_
 _atom_site_type_symbol
 _atom_site_label
 _atom_site_symmetry_multiplicity
 _atom_site_fract_x
 _atom_site_fract_y
 _atom_site_fract_z
 _atom_site_occupancy
  Cs  Cs0  1  0.00000000  0.27270900  0.49667500  1
  Cs  Cs1  1  0.00000000  0.77270900  0.50332500  1
  Na  Na0  1  0.50000000  0.27844000  0.00802500  1
  Na  Na1  1  0.50000000  0.77844000  0.99197500  1
  Eu  Eu0  1  0.00000000  0.77707600  0.98643200  1
  Eu  Eu1  1  0.00000000  0.27707600  0.01356800  1
  Nb  Nb0  1  0.74516200  0.52721300  0.80502400  1
  Nb  Nb1  1  0.25483800  0.52721300  0.80502400  1
  Nb  Nb2  1  0.25483800  0.02721300  0.19497600  1
  Nb  Nb3  1  0.74516200  0.02721300  0.19497600  1
  Nb  Nb4  1  0.74593300  0.03016700  0.80649900  1
  Nb  Nb5  1  0.25406700  0.03016700  0.80649900  1
  Nb  Nb6  1  0.25406700  0.53016700  0.19350100  1
  Nb  Nb7  1  0.74593300  0.53016700  0.19350100  1
  Nb  Nb8  1  0.50000000  0.50018700  0.49924300  1
  Nb  Nb9  1  0.50000000  0.00018700  0.50075700  1
  O  O0  1  0.50000000  0.27041900  0.49525300  1
  O  O1  1  0.50000000  0.77041900  0.50474700  1
  O  O2  1  0.68513000  0.02804400  0.63357000  1
  O  O3  1  0.31487000  0.02804400  0.63357000  1
  O  O4  1  0.31487000  0.52804400  0.36643000  1
  O  O5  1  0.68513000  0.52804400  0.36643000  1
  O  O6  1  0.73372800  0.77623700  0.83635300  1
  O  O7  1  0.26627200  0.77623700  0.83635300  1
  O  O8  1  0.26627200  0.27623700  0.16364700  1
  O  O9  1  0.73372800  0.27623700  0.16364700  1
  O  O10  1  0.79032400  0.27629300  0.82836900  1
  O  O11  1  0.20967600  0.27629300  0.82836900  1
  O  O12  1  0.20967600  0.77629300  0.17163100  1
  O  O13  1  0.79032400  0.77629300  0.17163100  1
  O  O14  1  0.50000000  0.05174200  0.85838200  1
  O  O15  1  0.50000000  0.55174200  0.14161800  1
  O  O16  1  0.68794900  0.51953100  0.63194900  1
  O  O17  1  0.31205100  0.51953100  0.63194900  1
  O  O18  1  0.31205100  0.01953100  0.36805100  1
  O  O19  1  0.68794900  0.01953100  0.36805100  1
  O  O20  1  0.81423000  0.52586400  0.00005600  1
  O  O21  1  0.18577000  0.52586400  0.00005600  1
  O  O22  1  0.18577000  0.02586400  0.99994400  1
  O  O23  1  0.81423000  0.02586400  0.99994400  1
  O  O24  1  0.00000000  0.99175600  0.77963900  1
  O  O25  1  0.00000000  0.49175600  0.22036100  1
  O  O26  1  0.50000000  0.50348100  0.85739300  1
  O  O27  1  0.50000000  0.00348100  0.14260700  1
  O  O28  1  0.00000000  0.56130200  0.78048300  1
  O  O29  1  0.00000000  0.06130200  0.21951700  1
loop_
_geom_bond_atom_site_label_1
_geom_bond_atom_site_label_2
_geom_bond_distance
_geom_bond_site_symmetry_2
Cs0 O29 3.414015 1_555
Cs0 O19 3.432968 1_455
Cs0 O18 3.432968 1_555
Cs0 O16 3.433168 1_455
Cs0 O17 3.433168 1_555
Cs0 O25 3.436457 1_555
Cs0 O3 3.446226 1_555
Cs0 O2 3.446226 1_455
Cs0 O5 3.465357 1_455
Cs0 O4 3.465357 1_555
Cs1 O28 3.414015 1_555
Cs1 O17 3.432968 1_555
Cs1 O16 3.432968 1_455
Cs1 O19 3.433168 1_465
Cs1 O18 3.433168 1_565
Cs1 O24 3.436457 1_555
Cs1 O4 3.446226 1_555
Cs1 O5 3.446226 1_455
Cs1 O2 3.465357 1_465
Cs1 O3 3.465357 1_565
Na0 O26 2.409335 1_554
Na0 O14 2.412044 1_554
Na0 O8 2.462005 1_555
Na0 O9 2.462005 1_555
Na0 O15 2.600981 1_555
Na0 O27 2.617809 1_555
Na1 O27 2.409335 1_566
Na1 O15 2.412044 1_556
Na1 O7 2.462005 1_555
Na1 O6 2.462005 1_555
Na1 O14 2.600981 1_565
Na1 O26 2.617809 1_555
Eu0 O23 2.448462 1_465
Eu0 O22 2.448462 1_565
Eu0 O20 2.464097 1_456
Eu0 O21 2.464097 1_556
Eu0 O12 2.565402 1_556
Eu0 O13 2.565402 1_456
Eu0 O6 2.615708 1_455
Eu0 O7 2.615708 1_555
Eu0 O28 2.795726 1_555
Eu0 O24 2.797579 1_555
Eu1 O20 2.448462 1_455
Eu1 O21 2.448462 1_555
Eu1 O22 2.464097 1_554
Eu1 O23 2.464097 1_454
Eu1 O10 2.565402 1_454
Eu1 O11 2.565402 1_554
Eu1 O9 2.615708 1_455
Eu1 O8 2.615708 1_555
Eu1 O29 2.795726 1_555
Eu1 O25 2.797579 1_555
Nb0 O16 1.909347 1_555
Nb0 O26 1.988648 1_555
Nb0 O6 2.008219 1_555
Nb0 O28 2.009077 1_655
Nb0 O10 2.038868 1_555
Nb0 O20 2.159043 1_556
Nb1 O17 1.909347 1_555
Nb1 O26 1.988648 1_555
Nb1 O7 2.008219 1_555
Nb1 O28 2.009077 1_555
Nb1 O11 2.038868 1_555
Nb1 O21 2.159043 1_556
Nb2 O18 1.909347 1_555
Nb2 O27 1.988648 1_555
Nb2 O8 2.008219 1_555
Nb2 O29 2.009077 1_555
Nb2 O12 2.038868 1_545
Nb2 O22 2.159043 1_554
Nb3 O19 1.909347 1_555
Nb3 O27 1.988648 1_555
Nb3 O9 2.008219 1_555
Nb3 O29 2.009077 1_655
Nb3 O13 2.038868 1_545
Nb3 O23 2.159043 1_554
Nb4 O2 1.913573 1_555
Nb4 O14 1.991338 1_555
Nb4 O10 1.998711 1_555
Nb4 O24 2.011552 1_645
Nb4 O6 2.044339 1_545
Nb4 O23 2.141321 1_555
Nb5 O3 1.913573 1_555
Nb5 O14 1.991338 1_555
Nb5 O11 1.998711 1_555
Nb5 O24 2.011552 1_545
Nb5 O7 2.044339 1_545
Nb5 O22 2.141321 1_555
Nb6 O4 1.913573 1_555
Nb6 O15 1.991338 1_555
Nb6 O12 1.998711 1_555
Nb6 O25 2.011552 1_555
Nb6 O8 2.044339 1_555
Nb6 O21 2.141321 1_555
Nb7 O5 1.913573 1_555
Nb7 O15 1.991338 1_555
Nb7 O13 1.998711 1_555
Nb7 O25 2.011552 1_655
Nb7 O9 2.044339 1_555
Nb7 O20 2.141321 1_555
Nb8 O0 1.825486 1_555
Nb8 O4 2.032950 1_555
Nb8 O5 2.032950 1_555
Nb8 O16 2.041403 1_555
Nb8 O17 2.041403 1_555
Nb8 O1 2.147190 1_555
Nb9 O1 1.825486 1_545
Nb9 O2 2.032950 1_555
Nb9 O3 2.032950 1_555
Nb9 O19 2.041403 1_555
Nb9 O18 2.041403 1_555
Nb9 O0 2.147190 1_555
