# generated using pymatgen
data_Na9Mg9Al(Si2O7)5
_symmetry_space_group_name_H-M   'P 1'
_cell_length_a   25.12591308
_cell_length_b   8.70348242
_cell_length_c   6.49278501
_cell_angle_alpha   90.00000080
_cell_angle_beta   90.00306439
_cell_angle_gamma   30.00444055
_symmetry_Int_Tables_number   1
_chemical_formula_structural   Na9Mg9Al(Si2O7)5
_chemical_formula_sum   'Na9 Mg9 Al1 Si10 O35'
_cell_volume   710.02595985
_cell_formula_units_Z   1
loop_
 _symmetry_equiv_pos_site_id
 _symmetry_equiv_pos_as_xyz
  1  'x, y, z'
loop_
 _atom_site_type_symbol
 _atom_site_label
 _atom_site_symmetry_multiplicity
 _atom_site_fract_x
 _atom_site_fract_y
 _atom_site_fract_z
 _atom_site_occupancy
  Na  Na0  1  0.20024200  0.33178500  0.49968800  1
  Na  Na1  1  0.19555500  0.68570400  0.50044800  1
  Na  Na2  1  0.39975800  0.33299600  0.50031200  1
  Na  Na3  1  0.40444500  0.66347700  0.49955200  1
  Na  Na4  1  0.63331700  0.22245400  0.50035900  1
  Na  Na5  1  0.60463100  0.64699700  0.50116900  1
  Na  Na6  1  0.80000000  0.38826100  0.50000000  1
  Na  Na7  1  0.96668300  0.38904100  0.49964100  1
  Na  Na8  1  0.99536900  0.67015100  0.49883100  1
  Mg  Mg0  1  0.19885600  0.33769000  0.00032800  1
  Mg  Mg1  1  0.20089200  0.66583400  0.00023500  1
  Mg  Mg2  1  0.40114400  0.33197000  0.99967200  1
  Mg  Mg3  1  0.39910800  0.67029600  0.99976500  1
  Mg  Mg4  1  0.59746900  0.34149000  0.00051300  1
  Mg  Mg5  1  0.59977500  0.66630900  0.00097700  1
  Mg  Mg6  1  0.80000000  0.32625500  0.00000000  1
  Mg  Mg7  1  0.00253100  0.32883600  0.99948700  1
  Mg  Mg8  1  0.00022500  0.66518500  0.99902300  1
  Al  Al0  1  0.80000000  0.66595800  0.00000000  1
  Si  Si0  1  0.99398900  0.01538100  0.24430000  1
  Si  Si1  1  0.20026600  0.99994100  0.24483600  1
  Si  Si2  1  0.40005100  0.00098600  0.24744200  1
  Si  Si3  1  0.19994900  0.00124400  0.75255800  1
  Si  Si4  1  0.60385600  0.99622300  0.24552700  1
  Si  Si5  1  0.39973400  0.00126900  0.75516400  1
  Si  Si6  1  0.80191000  0.98755700  0.24507400  1
  Si  Si7  1  0.60601100  0.98532600  0.75570000  1
  Si  Si8  1  0.79809000  0.99710900  0.75492600  1
  Si  Si9  1  0.99614400  0.01550000  0.75447300  1
  O  O0  1  0.98433600  0.05123300  0.49928800  1
  O  O1  1  0.06392700  0.00185300  0.80772700  1
  O  O2  1  0.07252100  0.31969100  0.81005200  1
  O  O3  1  0.20343100  0.99445800  0.49804000  1
  O  O4  1  0.13612900  0.31928600  0.18635700  1
  O  O5  1  0.26271000  0.00411100  0.81217100  1
  O  O6  1  0.05915100  0.69705700  0.80555800  1
  O  O7  1  0.12216600  0.69697500  0.19395400  1
  O  O8  1  0.27245100  0.31937500  0.81542300  1
  O  O9  1  0.39656900  0.01161100  0.50196000  1
  O  O10  1  0.33729000  0.31766300  0.18782900  1
  O  O11  1  0.13685800  0.99879400  0.18756700  1
  O  O12  1  0.46387100  0.99992900  0.81364300  1
  O  O13  1  0.26435200  0.68162900  0.81064600  1
  O  O14  1  0.32754900  0.68162800  0.18457700  1
  O  O15  1  0.47783400  0.30780800  0.80604600  1
  O  O16  1  0.61566400  0.97291400  0.50071200  1
  O  O17  1  0.53607300  0.32149000  0.19227300  1
  O  O18  1  0.33564800  0.00339100  0.18935400  1
  O  O19  1  0.67059300  0.97954200  0.83340100  1
  O  O20  1  0.46314200  0.68308400  0.81243300  1
  O  O21  1  0.52747900  0.68229400  0.18994800  1
  O  O22  1  0.67076500  0.32161500  0.80849000  1
  O  O23  1  0.80000000  0.97372500  0.50000000  1
  O  O24  1  0.73674700  0.30935400  0.19252400  1
  O  O25  1  0.54084900  0.99281100  0.19444200  1
  O  O26  1  0.86325300  0.99309100  0.80747600  1
  O  O27  1  0.66562600  0.67367300  0.80977500  1
  O  O28  1  0.72956000  0.68399500  0.16778300  1
  O  O29  1  0.87044000  0.33179600  0.83221700  1
  O  O30  1  0.92940700  0.33250600  0.16659900  1
  O  O31  1  0.74110200  0.98048800  0.16754700  1
  O  O32  1  0.85889800  0.68599600  0.83245300  1
  O  O33  1  0.92923500  0.67543900  0.19151000  1
  O  O34  1  0.93437400  0.00180400  0.19022500  1
loop_
_geom_bond_atom_site_label_1
_geom_bond_atom_site_label_2
_geom_bond_distance
_geom_bond_site_symmetry_2
Na0 O5 2.638216 1_555
Na0 O18 2.638742 1_555
Na0 O4 2.654945 1_555
Na0 O7 2.663009 1_555
Na0 O6 2.664458 1_555
Na0 O8 2.676959 1_555
Na0 O3 2.866831 1_545
Na0 O9 2.879410 1_555
Na1 O1 2.594034 1_565
Na1 O11 2.601268 1_555
Na1 O13 2.634219 1_555
Na1 O7 2.656360 1_555
Na1 O10 2.703032 1_555
Na1 O8 2.722338 1_555
Na2 O10 2.638211 1_555
Na2 O13 2.638741 1_555
Na2 O12 2.654960 1_545
Na2 O15 2.663018 1_555
Na2 O25 2.664457 1_545
Na2 O14 2.676944 1_555
Na2 O9 2.866857 1_555
Na2 O3 2.879415 1_555
Na3 O17 2.594032 1_555
Na3 O20 2.601278 1_555
Na3 O18 2.634239 1_565
Na3 O15 2.656335 1_555
Na3 O5 2.703032 1_565
Na3 O14 2.722338 1_555
Na4 O23 2.554132 1_545
Na4 O31 2.561515 1_545
Na4 O16 2.565580 1_545
Na4 O19 2.567697 1_545
Na4 O22 2.653099 1_555
Na4 O17 2.658211 1_555
Na4 O21 2.952535 1_555
Na4 O20 2.961790 1_555
Na5 O22 2.571376 1_555
Na5 O24 2.603124 1_555
Na5 O21 2.627462 1_555
Na5 O27 2.652062 1_555
Na5 O25 2.690504 1_555
Na5 O12 2.691640 1_555
Na6 O28 2.553387 1_555
Na6 O29 2.553390 1_555
Na6 O0 2.554531 1_555
Na6 O16 2.554535 1_555
Na6 O34 2.662701 1_555
Na6 O27 2.662703 1_555
Na6 O26 2.978756 1_545
Na6 O24 2.978768 1_555
Na7 O23 2.554122 1_555
Na7 O32 2.561512 1_555
Na7 O0 2.565606 1_555
Na7 O30 2.567710 1_555
Na7 O33 2.653083 1_555
Na7 O1 2.658227 1_655
Na7 O2 2.952535 1_655
Na7 O11 2.961788 1_645
Na8 O33 2.571376 1_555
Na8 O26 2.603123 1_555
Na8 O2 2.627448 1_655
Na8 O34 2.652073 1_565
Na8 O6 2.690515 1_655
Na8 O4 2.691640 1_655
Mg0 O8 2.091834 1_554
Mg0 O4 2.099048 1_555
Mg0 O5 2.104355 1_554
Mg0 O18 2.112906 1_555
Mg0 O7 2.153145 1_555
Mg0 O6 2.165110 1_554
Mg1 O8 2.091732 1_554
Mg1 O11 2.095423 1_555
Mg1 O10 2.103350 1_555
Mg1 O13 2.111022 1_554
Mg1 O1 2.127551 1_564
Mg1 O7 2.154044 1_555
Mg2 O14 2.091822 1_556
Mg2 O12 2.099061 1_545
Mg2 O10 2.104342 1_556
Mg2 O13 2.112906 1_555
Mg2 O15 2.153162 1_555
Mg2 O25 2.165110 1_546
Mg3 O14 2.091756 1_556
Mg3 O20 2.095411 1_555
Mg3 O5 2.103351 1_565
Mg3 O18 2.111022 1_566
Mg3 O17 2.127551 1_556
Mg3 O15 2.154038 1_555
Mg4 O20 2.083722 1_554
Mg4 O21 2.090326 1_555
Mg4 O22 2.103434 1_554
Mg4 O17 2.103677 1_555
Mg4 O31 2.105461 1_545
Mg4 O19 2.110096 1_544
Mg5 O21 2.094510 1_555
Mg5 O12 2.097067 1_554
Mg5 O27 2.113467 1_554
Mg5 O22 2.115640 1_554
Mg5 O24 2.126994 1_555
Mg5 O25 2.135046 1_555
Mg6 O27 2.094171 1_554
Mg6 O34 2.094172 1_555
Mg6 O28 2.114124 1_555
Mg6 O29 2.114130 1_554
Mg6 O26 2.124872 1_544
Mg6 O24 2.124885 1_555
Mg7 O11 2.083722 1_546
Mg7 O2 2.090332 1_555
Mg7 O33 2.103422 1_456
Mg7 O1 2.103696 1_555
Mg7 O32 2.105462 1_455
Mg7 O30 2.110109 1_456
Mg8 O2 2.094504 1_555
Mg8 O4 2.097067 1_556
Mg8 O34 2.113467 1_466
Mg8 O33 2.115652 1_456
Mg8 O26 2.126993 1_455
Mg8 O6 2.135046 1_555
Al0 O19 1.954706 1_554
Al0 O30 1.954707 1_555
Al0 O32 1.962398 1_554
Al0 O31 1.962411 1_555
Al0 O29 1.965399 1_554
Al0 O28 1.965405 1_555
O0 Si0 1.663163 1_555
O0 Si9 1.664354 1_555
O1 Si9 1.638238 1_455
O2 Si3 1.644068 1_555
O3 Si1 1.644612 1_555
O3 Si3 1.653199 1_565
O4 Si1 1.645788 1_545
O5 Si3 1.644755 1_555
O6 Si9 1.642680 1_465
O7 Si0 1.643468 1_465
O8 Si5 1.646469 1_555
O9 Si5 1.644612 1_555
O9 Si2 1.653199 1_555
O10 Si2 1.644792 1_555
O11 Si1 1.644408 1_555
O12 Si5 1.645788 1_565
O13 Si3 1.643956 1_565
O14 Si1 1.646469 1_555
O15 Si7 1.643468 1_545
O16 Si7 1.663163 1_555
O16 Si4 1.664353 1_555
O17 Si4 1.638231 1_545
O18 Si2 1.643920 1_555
O19 Si7 1.657884 1_555
O20 Si5 1.644394 1_565
O21 Si2 1.644068 1_565
O22 Si8 1.638082 1_545
O23 Si6 1.663259 1_555
O23 Si8 1.663261 1_555
O24 Si6 1.642893 1_545
O25 Si4 1.642710 1_555
O26 Si8 1.642893 1_555
O27 Si7 1.639332 1_555
O28 Si4 1.658272 1_555
O29 Si9 1.658273 1_555
O30 Si0 1.657877 1_555
O31 Si6 1.659588 1_555
O32 Si8 1.659618 1_555
O33 Si6 1.638083 1_555
O34 Si0 1.639325 1_555
