# generated using pymatgen
data_Na6RuN4
_symmetry_space_group_name_H-M   'P 1'
_cell_length_a   7.54157800
_cell_length_b   7.54157800
_cell_length_c   5.89386700
_cell_angle_alpha   90.00000000
_cell_angle_beta   90.00000000
_cell_angle_gamma   90.00000000
_symmetry_Int_Tables_number   1
_chemical_formula_structural   Na6RuN4
_chemical_formula_sum   'Na12 Ru2 N8'
_cell_volume   335.21603569
_cell_formula_units_Z   2
loop_
 _symmetry_equiv_pos_site_id
 _symmetry_equiv_pos_as_xyz
  1  'x, y, z'
loop_
 _atom_site_type_symbol
 _atom_site_label
 _atom_site_symmetry_multiplicity
 _atom_site_fract_x
 _atom_site_fract_y
 _atom_site_fract_z
 _atom_site_occupancy
  Na  Na0  1  0.00000000  0.50000000  0.66794800  1
  Na  Na1  1  0.50000000  0.00000000  0.83205200  1
  Na  Na2  1  0.50000000  0.00000000  0.33205200  1
  Na  Na3  1  0.00000000  0.50000000  0.16794800  1
  Na  Na4  1  0.20726100  0.20726100  0.50000000  1
  Na  Na5  1  0.79273900  0.79273900  0.50000000  1
  Na  Na6  1  0.70726100  0.70726100  0.00000000  1
  Na  Na7  1  0.29273900  0.29273900  0.00000000  1
  Na  Na8  1  0.79273900  0.20726100  0.50000000  1
  Na  Na9  1  0.20726100  0.79273900  0.50000000  1
  Na  Na10  1  0.29273900  0.70726100  0.00000000  1
  Na  Na11  1  0.70726100  0.29273900  0.00000000  1
  Ru  Ru0  1  0.50000000  0.50000000  0.50000000  1
  Ru  Ru1  1  0.00000000  0.00000000  0.00000000  1
  N  N0  1  0.28677500  0.50000000  0.33061400  1
  N  N1  1  0.71322500  0.50000000  0.33061400  1
  N  N2  1  0.78677500  0.00000000  0.16938600  1
  N  N3  1  0.21322500  0.00000000  0.16938600  1
  N  N4  1  0.50000000  0.28677500  0.66938600  1
  N  N5  1  0.50000000  0.71322500  0.66938600  1
  N  N6  1  0.00000000  0.78677500  0.83061400  1
  N  N7  1  0.00000000  0.21322500  0.83061400  1
loop_
_geom_bond_atom_site_label_1
_geom_bond_atom_site_label_2
_geom_bond_distance
_geom_bond_site_symmetry_2
N0 Ru0 1.892753 1_555
N0 Na3 2.365712 1_555
N0 Na9 2.496052 1_555
N0 Na4 2.496052 1_555
N0 Na10 2.498449 1_555
N0 Na7 2.498449 1_555
N1 Ru0 1.892753 1_555
N1 Na3 2.365712 1_655
N1 Na8 2.496052 1_555
N1 Na5 2.496052 1_555
N1 Na6 2.498449 1_555
N1 Na11 2.498449 1_555
N2 Ru1 1.892753 1_655
N2 Na2 2.365712 1_555
N2 Na11 2.496052 1_555
N2 Na6 2.496052 1_545
N2 Na8 2.498449 1_555
N2 Na5 2.498449 1_545
N3 Ru1 1.892753 1_555
N3 Na2 2.365712 1_555
N3 Na10 2.496052 1_545
N3 Na7 2.496052 1_555
N3 Na4 2.498449 1_555
N3 Na9 2.498449 1_545
N4 Ru0 1.892753 1_555
N4 Na1 2.365712 1_555
N4 Na8 2.496052 1_555
N4 Na4 2.496052 1_555
N4 Na7 2.498449 1_556
N4 Na11 2.498449 1_556
N5 Ru0 1.892753 1_555
N5 Na1 2.365712 1_565
N5 Na5 2.496052 1_555
N5 Na9 2.496052 1_555
N5 Na10 2.498449 1_556
N5 Na6 2.498449 1_556
N6 Ru1 1.892753 1_566
N6 Na0 2.365712 1_555
N6 Na10 2.496052 1_556
N6 Na6 2.496052 1_456
N6 Na9 2.498449 1_555
N6 Na5 2.498449 1_455
N7 Ru1 1.892753 1_556
N7 Na0 2.365712 1_555
N7 Na11 2.496052 1_456
N7 Na7 2.496052 1_556
N7 Na4 2.498449 1_555
N7 Na8 2.498449 1_455
