# generated using pymatgen
data_Sm2(Ga3Rh)3
_symmetry_space_group_name_H-M   'P 1'
_cell_length_a   7.51699682
_cell_length_b   7.51699682
_cell_length_c   9.55295577
_cell_angle_alpha   90.00000000
_cell_angle_beta   90.00000000
_cell_angle_gamma   119.64219345
_symmetry_Int_Tables_number   1
_chemical_formula_structural   Sm2(Ga3Rh)3
_chemical_formula_sum   'Sm4 Ga18 Rh6'
_cell_volume   469.14999287
_cell_formula_units_Z   2
loop_
 _symmetry_equiv_pos_site_id
 _symmetry_equiv_pos_as_xyz
  1  'x, y, z'
loop_
 _atom_site_type_symbol
 _atom_site_label
 _atom_site_symmetry_multiplicity
 _atom_site_fract_x
 _atom_site_fract_y
 _atom_site_fract_z
 _atom_site_occupancy
  Sm  Sm0  1  0.99770157  0.66932827  0.25000000  1
  Sm  Sm1  1  0.00229843  0.33067173  0.75000000  1
  Sm  Sm2  1  0.66932827  0.99770157  0.25000000  1
  Sm  Sm3  1  0.33067173  0.00229843  0.75000000  1
  Ga  Ga0  1  0.12955558  0.12955558  0.25000000  1
  Ga  Ga1  1  0.87044442  0.87044442  0.75000000  1
  Ga  Ga2  1  0.00349052  0.33474463  0.07671462  1
  Ga  Ga3  1  0.99650948  0.66525537  0.92328538  1
  Ga  Ga4  1  0.99650948  0.66525537  0.57671462  1
  Ga  Ga5  1  0.33474463  0.00349052  0.42328538  1
  Ga  Ga6  1  0.00349052  0.33474463  0.42328538  1
  Ga  Ga7  1  0.66525537  0.99650948  0.57671462  1
  Ga  Ga8  1  0.66525537  0.99650948  0.92328538  1
  Ga  Ga9  1  0.33474463  0.00349052  0.07671462  1
  Ga  Ga10  1  0.33543308  0.33543308  0.56163786  1
  Ga  Ga11  1  0.66456692  0.66456692  0.43836214  1
  Ga  Ga12  1  0.66456692  0.66456692  0.06163786  1
  Ga  Ga13  1  0.33543308  0.33543308  0.93836214  1
  Ga  Ga14  1  0.33819040  0.54420365  0.25000000  1
  Ga  Ga15  1  0.66180960  0.45579635  0.75000000  1
  Ga  Ga16  1  0.54420365  0.33819040  0.25000000  1
  Ga  Ga17  1  0.45579635  0.66180960  0.75000000  1
  Rh  Rh0  1  0.67107406  0.32892594  -0.00000000  1
  Rh  Rh1  1  0.32892594  0.67107406  -0.00000000  1
  Rh  Rh2  1  0.32892594  0.67107406  0.50000000  1
  Rh  Rh3  1  0.67107406  0.32892594  0.50000000  1
  Rh  Rh4  1  -0.00000000  -0.00000000  -0.00000000  1
  Rh  Rh5  1  -0.00000000  -0.00000000  0.50000000  1
loop_
_geom_bond_atom_site_label_1
_geom_bond_atom_site_label_2
_geom_bond_distance
_geom_bond_site_symmetry_2
Ga0 Rh4 2.581159 1_555
Ga0 Rh5 2.581159 1_555
Ga0 Ga14 2.709133 1_555
Ga0 Ga16 2.709133 1_555
Ga0 Ga2 2.731871 1_555
Ga0 Ga5 2.731871 1_555
Ga0 Ga6 2.731871 1_555
Ga0 Ga9 2.731871 1_555
Ga0 Sm0 3.091756 1_445
Ga0 Sm2 3.091756 1_445
Ga1 Rh5 2.581159 1_665
Ga1 Rh4 2.581159 1_666
Ga1 Ga15 2.709133 1_555
Ga1 Ga17 2.709133 1_555
Ga1 Ga7 2.731871 1_555
Ga1 Ga4 2.731871 1_555
Ga1 Ga3 2.731871 1_555
Ga1 Ga8 2.731871 1_555
Ga1 Sm3 3.091756 1_665
Ga1 Sm1 3.091756 1_665
Ga2 Rh0 2.583552 1_455
Ga2 Rh1 2.606816 1_555
Ga2 Rh4 2.608465 1_555
Ga2 Ga3 2.907315 1_454
Ga2 Ga8 2.946642 1_444
Ga2 Sm2 3.028821 1_445
Ga2 Sm0 3.029193 1_455
Ga2 Sm1 3.121210 1_554
Ga3 Rh1 2.583552 1_656
Ga3 Rh0 2.606816 1_556
Ga3 Rh4 2.608465 1_666
Ga3 Ga9 2.946642 1_666
Ga3 Sm3 3.028821 1_665
Ga3 Sm1 3.029193 1_655
Ga3 Sm0 3.121210 1_556
Ga4 Rh2 2.583552 1_655
Ga4 Rh3 2.606816 1_555
Ga4 Rh5 2.608465 1_665
Ga4 Ga6 2.907315 1_655
Ga4 Ga5 2.946642 1_665
Ga4 Sm3 3.028821 1_665
Ga4 Sm1 3.029193 1_655
Ga4 Sm0 3.121210 1_555
Ga5 Rh2 2.583552 1_545
Ga5 Rh3 2.606816 1_555
Ga5 Rh5 2.608465 1_555
Ga5 Ga7 2.907315 1_545
Ga5 Sm0 3.028821 1_445
Ga5 Sm2 3.029193 1_545
Ga5 Sm3 3.121210 1_555
Ga6 Rh3 2.583552 1_455
Ga6 Rh2 2.606816 1_555
Ga6 Rh5 2.608465 1_555
Ga6 Ga7 2.946642 1_445
Ga6 Sm2 3.028821 1_445
Ga6 Sm0 3.029193 1_455
Ga6 Sm1 3.121210 1_555
Ga7 Rh3 2.583552 1_565
Ga7 Rh2 2.606816 1_555
Ga7 Rh5 2.608465 1_665
Ga7 Sm1 3.028821 1_665
Ga7 Sm3 3.029193 1_565
Ga7 Sm2 3.121210 1_555
Ga8 Rh0 2.583552 1_566
Ga8 Rh1 2.606816 1_556
Ga8 Rh4 2.608465 1_666
Ga8 Ga9 2.907315 1_566
Ga8 Sm1 3.028821 1_665
Ga8 Sm3 3.029193 1_565
Ga8 Sm2 3.121210 1_556
Ga9 Rh1 2.583552 1_545
Ga9 Rh0 2.606816 1_555
Ga9 Rh4 2.608465 1_555
Ga9 Sm0 3.028821 1_445
Ga9 Sm2 3.029193 1_545
Ga9 Sm3 3.121210 1_554
Ga10 Rh5 2.602559 1_555
Ga10 Rh3 2.614722 1_555
Ga10 Rh2 2.614722 1_555
Ga10 Ga11 2.752152 1_555
Ga10 Ga15 2.807107 1_555
Ga10 Ga17 2.807107 1_555
Ga10 Ga5 2.821375 1_555
Ga10 Ga6 2.821375 1_555
Ga10 Sm1 3.069430 1_555
Ga10 Sm3 3.069430 1_555
Ga11 Rh5 2.602559 1_665
Ga11 Rh2 2.614722 1_555
Ga11 Rh3 2.614722 1_555
Ga11 Ga16 2.807107 1_555
Ga11 Ga14 2.807107 1_555
Ga11 Ga7 2.821375 1_555
Ga11 Ga4 2.821375 1_555
Ga11 Sm0 3.069430 1_555
Ga11 Sm2 3.069430 1_555
Ga12 Rh4 2.602559 1_665
Ga12 Rh1 2.614722 1_555
Ga12 Rh0 2.614722 1_555
Ga12 Ga13 2.752152 1_554
Ga12 Ga16 2.807107 1_555
Ga12 Ga14 2.807107 1_555
Ga12 Ga8 2.821375 1_554
Ga12 Ga3 2.821375 1_554
Ga12 Sm0 3.069430 1_555
Ga12 Sm2 3.069430 1_555
Ga13 Rh4 2.602559 1_556
Ga13 Rh0 2.614722 1_556
Ga13 Rh1 2.614722 1_556
Ga13 Ga17 2.807107 1_555
Ga13 Ga15 2.807107 1_555
Ga13 Ga9 2.821375 1_556
Ga13 Ga2 2.821375 1_556
Ga13 Sm1 3.069430 1_555
Ga13 Sm3 3.069430 1_555
Ga14 Rh2 2.585294 1_555
Ga14 Rh1 2.585294 1_555
Ga14 Ga16 2.677407 1_555
Ga14 Ga6 2.762406 1_555
Ga14 Ga2 2.762406 1_555
Ga14 Sm2 3.069748 1_555
Ga14 Sm0 3.133161 1_455
Ga15 Rh3 2.585294 1_555
Ga15 Rh0 2.585294 1_556
Ga15 Ga17 2.677407 1_555
Ga15 Ga4 2.762406 1_555
Ga15 Ga3 2.762406 1_555
Ga15 Sm3 3.069748 1_555
Ga15 Sm1 3.133161 1_655
Ga16 Rh3 2.585294 1_555
Ga16 Rh0 2.585294 1_555
Ga16 Ga9 2.762406 1_555
Ga16 Ga5 2.762406 1_555
Ga16 Sm0 3.069748 1_555
Ga16 Sm2 3.133161 1_545
Ga17 Rh2 2.585294 1_555
Ga17 Rh1 2.585294 1_556
Ga17 Ga7 2.762406 1_555
Ga17 Ga8 2.762406 1_555
Ga17 Sm1 3.069748 1_555
Ga17 Sm3 3.133161 1_565
