# generated using pymatgen
data_KPr(WO4)2
_symmetry_space_group_name_H-M   'P 1'
_cell_length_a   7.57343242
_cell_length_b   7.57343242
_cell_length_c   7.62776449
_cell_angle_alpha   66.25004041
_cell_angle_beta   66.25004041
_cell_angle_gamma   93.14434003
_symmetry_Int_Tables_number   1
_chemical_formula_structural   KPr(WO4)2
_chemical_formula_sum   'K2 Pr2 W4 O16'
_cell_volume   354.02441907
_cell_formula_units_Z   2
loop_
 _symmetry_equiv_pos_site_id
 _symmetry_equiv_pos_as_xyz
  1  'x, y, z'
loop_
 _atom_site_type_symbol
 _atom_site_label
 _atom_site_symmetry_multiplicity
 _atom_site_fract_x
 _atom_site_fract_y
 _atom_site_fract_z
 _atom_site_occupancy
  K  K0  1  0.69005100  0.69005100  0.47234300  1
  K  K1  1  0.30994900  0.30994900  0.52765700  1
  Pr  Pr0  1  0.69980500  0.30019500  0.00000000  1
  Pr  Pr1  1  0.30019500  0.69980500  0.00000000  1
  W  W0  1  0.20475100  0.20475100  0.05629500  1
  W  W1  1  0.79524900  0.79524900  0.94370500  1
  W  W2  1  0.83929200  0.16070800  0.50000000  1
  W  W3  1  0.16070800  0.83929200  0.50000000  1
  O  O0  1  0.34537800  0.09470100  0.25986800  1
  O  O1  1  0.65462200  0.90529900  0.74013200  1
  O  O2  1  0.90529900  0.65462200  0.74013200  1
  O  O3  1  0.09470100  0.34537800  0.25986800  1
  O  O4  1  0.69287100  0.21465800  0.35459200  1
  O  O5  1  0.30712900  0.78534200  0.64540800  1
  O  O6  1  0.78534200  0.30712900  0.64540800  1
  O  O7  1  0.21465800  0.69287100  0.35459200  1
  O  O8  1  0.70576400  0.95864900  0.06374200  1
  O  O9  1  0.29423600  0.04135100  0.93625800  1
  O  O10  1  0.04135100  0.29423600  0.93625800  1
  O  O11  1  0.95864900  0.70576400  0.06374200  1
  O  O12  1  0.98380100  0.98380100  0.34424100  1
  O  O13  1  0.01619900  0.01619900  0.65575900  1
  O  O14  1  0.57336000  0.57336000  0.11011700  1
  O  O15  1  0.42664000  0.42664000  0.88988300  1
loop_
_geom_bond_atom_site_label_1
_geom_bond_atom_site_label_2
_geom_bond_distance
_geom_bond_site_symmetry_2
K0 O12 2.609289 1_555
K0 O15 2.725956 1_555
K0 O8 2.904118 1_555
K0 O11 2.904118 1_555
K0 O5 2.930353 1_555
K0 O6 2.930353 1_555
K0 O1 3.031574 1_555
K0 O2 3.031574 1_555
K1 O13 2.609289 1_555
K1 O14 2.725956 1_555
K1 O9 2.904118 1_555
K1 O10 2.904118 1_555
K1 O7 2.930353 1_555
K1 O4 2.930353 1_555
K1 O3 3.031574 1_555
K1 O0 3.031574 1_555
O0 W3 1.959215 1_545
O0 W0 2.151086 1_555
O0 Pr0 2.515426 1_555
O1 W2 1.959215 1_565
O1 W1 2.151086 1_555
O1 Pr1 2.515426 1_556
O2 W3 1.959215 1_655
O2 W1 2.151086 1_555
O2 Pr0 2.515426 1_556
O3 W2 1.959215 1_455
O3 W0 2.151086 1_555
O3 Pr1 2.515426 1_555
O4 W2 1.817192 1_555
O4 Pr0 2.491699 1_555
O5 W3 1.817192 1_555
O5 Pr1 2.491699 1_556
O6 W2 1.817192 1_555
O6 Pr0 2.491699 1_556
O7 W3 1.817192 1_555
O7 Pr1 2.491699 1_555
O8 W1 1.825898 1_554
O8 Pr0 2.438600 1_565
O9 W0 1.825898 1_556
O9 Pr1 2.438600 1_546
O10 W0 1.825898 1_556
O10 Pr0 2.438600 1_456
O11 W1 1.825898 1_554
O11 Pr1 2.438600 1_655
O12 W0 2.048473 1_665
O12 W3 2.190903 1_655
O12 W2 2.190903 1_565
O13 W1 2.048473 1_445
O13 W2 2.190903 1_455
O13 W3 2.190903 1_545
O14 W1 1.874293 1_554
O14 Pr1 2.621373 1_555
O14 Pr0 2.621373 1_555
O15 W0 1.874293 1_556
O15 Pr0 2.621373 1_556
O15 Pr1 2.621373 1_556
