# generated using pymatgen
data_YbAgSn
_symmetry_space_group_name_H-M   'P 1'
_cell_length_a   4.71343933
_cell_length_b   4.71343933
_cell_length_c   8.30814700
_cell_angle_alpha   90.00000000
_cell_angle_beta   90.00000000
_cell_angle_gamma   119.99999053
_symmetry_Int_Tables_number   1
_chemical_formula_structural   YbAgSn
_chemical_formula_sum   'Yb2 Ag2 Sn2'
_cell_volume   159.84928096
_cell_formula_units_Z   2
loop_
 _symmetry_equiv_pos_site_id
 _symmetry_equiv_pos_as_xyz
  1  'x, y, z'
loop_
 _atom_site_type_symbol
 _atom_site_label
 _atom_site_symmetry_multiplicity
 _atom_site_fract_x
 _atom_site_fract_y
 _atom_site_fract_z
 _atom_site_occupancy
  Yb  Yb0  1  0.00000000  0.00000000  0.28508200  1
  Yb  Yb1  1  0.00000000  0.00000000  0.71491800  1
  Ag  Ag0  1  0.66666700  0.33333300  0.46793800  1
  Ag  Ag1  1  0.33333300  0.66666700  0.53206200  1
  Sn  Sn0  1  0.33333300  0.66666700  0.92442100  1
  Sn  Sn1  1  0.66666700  0.33333300  0.07557900  1
loop_
_geom_bond_atom_site_label_1
_geom_bond_atom_site_label_2
_geom_bond_distance
_geom_bond_site_symmetry_2
Ag0 Ag1 2.772961 1_545
Ag0 Ag1 2.772961 1_655
Ag0 Ag1 2.772969 1_555
Ag0 Yb0 3.116639 1_655
Ag0 Yb0 3.116643 1_665
Ag0 Yb0 3.116643 1_555
Ag0 Sn1 3.259776 1_555
Ag0 Yb1 3.408221 1_655
Ag0 Yb1 3.408225 1_555
Ag0 Yb1 3.408225 1_665
Ag1 Yb1 3.116639 1_565
Ag1 Yb1 3.116643 1_665
Ag1 Yb1 3.116643 1_555
Ag1 Sn0 3.259776 1_555
Ag1 Yb0 3.408221 1_565
Ag1 Yb0 3.408225 1_555
Ag1 Yb0 3.408225 1_665
Sn0 Sn1 2.997104 1_456
Sn0 Sn1 2.997104 1_566
Sn0 Sn1 2.997111 1_556
Sn0 Yb1 3.230342 1_565
Sn0 Yb1 3.230346 1_555
Sn0 Yb1 3.230346 1_665
Sn1 Yb0 3.230342 1_655
Sn1 Yb0 3.230346 1_665
Sn1 Yb0 3.230346 1_555
