# generated using pymatgen
data_ErTaO3
_symmetry_space_group_name_H-M   'P 1'
_cell_length_a   4.02290200
_cell_length_b   4.02290200
_cell_length_c   4.02290200
_cell_angle_alpha   90.00000000
_cell_angle_beta   90.00000000
_cell_angle_gamma   90.00000000
_symmetry_Int_Tables_number   1
_chemical_formula_structural   ErTaO3
_chemical_formula_sum   'Er1 Ta1 O3'
_cell_volume   65.10560203
_cell_formula_units_Z   1
loop_
 _symmetry_equiv_pos_site_id
 _symmetry_equiv_pos_as_xyz
  1  'x, y, z'
loop_
 _atom_site_type_symbol
 _atom_site_label
 _atom_site_symmetry_multiplicity
 _atom_site_fract_x
 _atom_site_fract_y
 _atom_site_fract_z
 _atom_site_occupancy
  Er  Er0  1  0.00000000  0.00000000  0.00000000  1
  Ta  Ta0  1  0.50000000  0.50000000  0.50000000  1
  O  O0  1  0.50000000  0.50000000  0.00000000  1
  O  O1  1  0.50000000  0.00000000  0.50000000  1
  O  O2  1  0.00000000  0.50000000  0.50000000  1
loop_
_geom_bond_atom_site_label_1
_geom_bond_atom_site_label_2
_geom_bond_distance
_geom_bond_site_symmetry_2
Er0 O2 2.844621 1_545
Er0 O1 2.844621 1_555
Er0 O1 2.844621 1_455
Er0 O1 2.844621 1_454
Er0 O1 2.844621 1_554
Er0 O0 2.844621 1_545
Er0 O0 2.844621 1_555
Er0 O0 2.844621 1_445
Er0 O2 2.844621 1_555
Er0 O0 2.844621 1_455
Er0 O2 2.844621 1_554
Er0 O2 2.844621 1_544
O0 Ta0 2.011451 1_554
O0 Ta0 2.011451 1_555
O1 Ta0 2.011451 1_555
O1 Ta0 2.011451 1_545
O2 Ta0 2.011451 1_555
O2 Ta0 2.011451 1_455
