# generated using pymatgen
data_CaTlI3
_symmetry_space_group_name_H-M   'P 1'
_cell_length_a   7.92533980
_cell_length_b   7.92533980
_cell_length_c   11.65178533
_cell_angle_alpha   90.00000000
_cell_angle_beta   90.00000000
_cell_angle_gamma   146.41985098
_symmetry_Int_Tables_number   1
_chemical_formula_structural   CaTlI3
_chemical_formula_sum   'Ca2 Tl2 I6'
_cell_volume   404.79414615
_cell_formula_units_Z   2
loop_
 _symmetry_equiv_pos_site_id
 _symmetry_equiv_pos_as_xyz
  1  'x, y, z'
loop_
 _atom_site_type_symbol
 _atom_site_label
 _atom_site_symmetry_multiplicity
 _atom_site_fract_x
 _atom_site_fract_y
 _atom_site_fract_z
 _atom_site_occupancy
  Ca  Ca0  1  -0.00000000  0.00000000  -0.00000000  1
  Ca  Ca1  1  -0.00000000  0.00000000  0.50000000  1
  Tl  Tl0  1  0.25535893  0.74464107  0.25000000  1
  Tl  Tl1  1  0.74464107  0.25535893  0.75000000  1
  I  I0  1  0.63682255  0.36317745  0.05550289  1
  I  I1  1  0.36317745  0.63682255  0.94449711  1
  I  I2  1  0.36317745  0.63682255  0.55550289  1
  I  I3  1  0.63682255  0.36317745  0.44449711  1
  I  I4  1  0.92511651  0.07488349  0.25000000  1
  I  I5  1  0.07488349  0.92511651  0.75000000  1
loop_
_geom_bond_atom_site_label_1
_geom_bond_atom_site_label_2
_geom_bond_distance
_geom_bond_site_symmetry_2
Ca0 I4 3.126749 1_455
Ca0 I5 3.126749 1_544
Ca0 I1 3.157583 1_444
Ca0 I1 3.157583 1_554
Ca0 I0 3.157583 1_555
Ca0 I0 3.157583 1_445
Ca1 I4 3.126749 1_455
Ca1 I5 3.126749 1_545
Ca1 I2 3.157583 1_445
Ca1 I2 3.157583 1_555
Ca1 I3 3.157583 1_555
Ca1 I3 3.157583 1_445
I4 Tl0 3.446343 1_655
I4 Tl0 3.446343 1_545
I5 Tl1 3.446343 1_565
I5 Tl1 3.446343 1_455
