# generated using pymatgen
data_SrThF6
_symmetry_space_group_name_H-M   'P 1'
_cell_length_a   4.18422016
_cell_length_b   4.18422016
_cell_length_c   7.53618900
_cell_angle_alpha   90.00000000
_cell_angle_beta   90.00000000
_cell_angle_gamma   120.00000253
_symmetry_Int_Tables_number   1
_chemical_formula_structural   SrThF6
_chemical_formula_sum   'Sr1 Th1 F6'
_cell_volume   114.26453523
_cell_formula_units_Z   1
loop_
 _symmetry_equiv_pos_site_id
 _symmetry_equiv_pos_as_xyz
  1  'x, y, z'
loop_
 _atom_site_type_symbol
 _atom_site_label
 _atom_site_symmetry_multiplicity
 _atom_site_fract_x
 _atom_site_fract_y
 _atom_site_fract_z
 _atom_site_occupancy
  Sr  Sr0  1  0.66666700  0.33333300  0.00000000  1
  Th  Th0  1  0.33333300  0.66666700  0.50000000  1
  F  F0  1  0.00000000  0.00000000  0.00000000  1
  F  F1  1  0.00000000  0.00000000  0.50000000  1
  F  F2  1  0.66666700  0.33333300  0.34569400  1
  F  F3  1  0.33333300  0.66666700  0.79367300  1
  F  F4  1  0.33333300  0.66666700  0.20632700  1
  F  F5  1  0.66666700  0.33333300  0.65430600  1
loop_
_geom_bond_atom_site_label_1
_geom_bond_atom_site_label_2
_geom_bond_distance
_geom_bond_site_symmetry_2
F0 Sr0 2.415758 1_455
F0 Sr0 2.415762 1_555
F0 Sr0 2.415762 1_445
F1 Th0 2.415758 1_545
F1 Th0 2.415762 1_445
F1 Th0 2.415762 1_555
F2 Sr0 2.605215 1_555
F2 Th0 2.681077 1_545
F2 Th0 2.681077 1_655
F2 Th0 2.681084 1_555
F3 Th0 2.213175 1_555
F3 Sr0 2.872919 1_566
F3 Sr0 2.872919 1_456
F3 Sr0 2.872925 1_556
F4 Th0 2.213175 1_555
F4 Sr0 2.872919 1_565
F4 Sr0 2.872919 1_455
F4 Sr0 2.872925 1_555
F5 Sr0 2.605215 1_556
F5 Th0 2.681077 1_545
F5 Th0 2.681077 1_655
F5 Th0 2.681084 1_555
