# generated using pymatgen
data_Sr4MgMn2Cu3(SO)4
_symmetry_space_group_name_H-M   'P 1'
_cell_length_a   6.11627491
_cell_length_b   6.16738407
_cell_length_c   9.13344952
_cell_angle_alpha   92.13051591
_cell_angle_beta   70.45403350
_cell_angle_gamma   96.36476624
_symmetry_Int_Tables_number   1
_chemical_formula_structural   Sr4MgMn2Cu3(SO)4
_chemical_formula_sum   'Sr4 Mg1 Mn2 Cu3 S4 O4'
_cell_volume   322.67155469
_cell_formula_units_Z   1
loop_
 _symmetry_equiv_pos_site_id
 _symmetry_equiv_pos_as_xyz
  1  'x, y, z'
loop_
 _atom_site_type_symbol
 _atom_site_label
 _atom_site_symmetry_multiplicity
 _atom_site_fract_x
 _atom_site_fract_y
 _atom_site_fract_z
 _atom_site_occupancy
  Sr  Sr0  1  0.33698200  0.05946200  0.19141500  1
  Sr  Sr1  1  0.97293100  0.44305900  0.19165300  1
  Sr  Sr2  1  0.09172100  0.50523600  0.80361100  1
  Sr  Sr3  1  0.60414000  0.99433000  0.80370800  1
  Mg  Mg0  1  0.64036400  0.74900300  0.21606500  1
  Mn  Mn0  1  0.52233000  0.49792900  0.95620000  1
  Mn  Mn1  1  0.02066300  0.00212300  0.95706700  1
  Cu  Cu0  1  0.49369700  0.24946300  0.51293000  1
  Cu  Cu1  1  0.48794400  0.75051600  0.52346900  1
  Cu  Cu2  1  0.99340600  0.24964900  0.51123400  1
  S  S0  1  0.18548200  0.99215900  0.65862800  1
  S  S1  1  0.65555000  0.50777000  0.65825400  1
  S  S2  1  0.32603200  0.47999600  0.37391000  1
  S  S3  1  0.79951100  0.01947000  0.37247200  1
  O  O0  1  0.24949200  0.25046700  0.00008500  1
  O  O1  1  0.75409800  0.74930900  0.99280500  1
  O  O2  1  0.75420100  0.24970700  0.99017100  1
  O  O3  1  0.24686900  0.75034900  0.00775100  1
loop_
_geom_bond_atom_site_label_1
_geom_bond_atom_site_label_2
_geom_bond_distance
_geom_bond_site_symmetry_2
Mg0 O1 1.921672 1_554
Mg0 S2 2.478535 1_555
Mg0 S3 2.482726 1_565
Mn0 O0 2.075550 1_556
Mn0 O1 2.077538 1_555
Mn0 O2 2.293954 1_555
Mn0 O3 2.340938 1_556
Mn0 S1 2.567213 1_555
Mn1 O0 2.075338 1_556
Mn1 O1 2.077001 1_445
Mn1 O2 2.294948 1_455
Mn1 O3 2.344768 1_546
Mn1 S0 2.571482 1_545
Cu0 S1 2.377383 1_555
Cu0 S0 2.378645 1_545
Cu0 S3 2.450240 1_555
Cu0 S2 2.452360 1_555
Cu1 S3 2.448583 1_565
Cu1 S2 2.449400 1_555
Cu1 S0 2.472570 1_555
Cu1 S1 2.475768 1_555
Cu1 Mg0 2.645885 1_555
Cu1 Sr3 3.164100 1_555
Cu1 Sr2 3.167645 1_555
Cu2 S2 2.348306 1_655
Cu2 S3 2.350865 1_555
Cu2 S1 2.705769 1_555
Cu2 S0 2.710189 1_645
S0 Sr2 3.241347 1_555
S0 Sr3 3.251812 1_555
S0 Sr3 3.354889 1_455
S0 Sr2 3.417322 1_565
S1 Sr3 3.240659 1_555
S1 Sr2 3.252891 1_555
S1 Sr2 3.355635 1_655
S1 Sr3 3.421041 1_545
S2 Sr0 3.025204 1_555
S2 Sr1 3.123350 1_455
S3 Sr1 3.035066 1_555
S3 Sr0 3.132895 1_655
O0 Sr1 2.375720 1_455
O0 Sr0 2.376200 1_555
O0 Sr2 2.885253 1_554
O0 Sr3 2.891943 1_544
O1 Sr2 2.761198 1_655
O1 Sr3 2.769289 1_555
O2 Sr3 2.597956 1_545
O2 Sr2 2.602551 1_655
O2 Sr0 2.761334 1_556
O2 Sr1 2.780039 1_556
O3 Sr1 2.621023 1_455
O3 Sr0 2.626798 1_565
O3 Sr3 2.695702 1_554
O3 Sr2 2.705243 1_554
