# generated using pymatgen
data_MnAs2O7
_symmetry_space_group_name_H-M   'P 1'
_cell_length_a   9.31318500
_cell_length_b   6.94237600
_cell_length_c   9.63071261
_cell_angle_alpha   74.29205336
_cell_angle_beta   90.00000000
_cell_angle_gamma   90.00000000
_symmetry_Int_Tables_number   1
_chemical_formula_structural   MnAs2O7
_chemical_formula_sum   'Mn4 As8 O28'
_cell_volume   599.42533869
_cell_formula_units_Z   4
loop_
 _symmetry_equiv_pos_site_id
 _symmetry_equiv_pos_as_xyz
  1  'x, y, z'
loop_
 _atom_site_type_symbol
 _atom_site_label
 _atom_site_symmetry_multiplicity
 _atom_site_fract_x
 _atom_site_fract_y
 _atom_site_fract_z
 _atom_site_occupancy
  Mn  Mn0  1  0.93387500  0.20043200  0.69736800  1
  Mn  Mn1  1  0.43387500  0.79956800  0.80263200  1
  Mn  Mn2  1  0.06612500  0.79956800  0.30263200  1
  Mn  Mn3  1  0.56612500  0.20043200  0.19736800  1
  As  As0  1  0.74866400  0.58980900  0.75071200  1
  As  As1  1  0.24866400  0.41019100  0.74928800  1
  As  As2  1  0.25133600  0.41019100  0.24928800  1
  As  As3  1  0.75133600  0.58980900  0.25071200  1
  As  As4  1  0.70438100  0.96882400  0.96396600  1
  As  As5  1  0.20438100  0.03117600  0.53603400  1
  As  As6  1  0.29561900  0.03117600  0.03603400  1
  As  As7  1  0.79561900  0.96882400  0.46396600  1
  O  O0  1  0.68593400  0.16132700  0.03983800  1
  O  O1  1  0.18593400  0.83867300  0.46016200  1
  O  O2  1  0.31406600  0.83867300  0.96016200  1
  O  O3  1  0.81406600  0.16132700  0.53983800  1
  O  O4  1  0.56602600  0.62231100  0.74331800  1
  O  O5  1  0.06602600  0.37768900  0.75668200  1
  O  O6  1  0.43397400  0.37768900  0.25668200  1
  O  O7  1  0.93397400  0.62231100  0.24331800  1
  O  O8  1  0.83826200  0.62691500  0.89742800  1
  O  O9  1  0.33826200  0.37308500  0.60257200  1
  O  O10  1  0.16173800  0.37308500  0.10257200  1
  O  O11  1  0.66173800  0.62691500  0.39742800  1
  O  O12  1  0.83913000  0.74640000  0.59856600  1
  O  O13  1  0.33913000  0.25360000  0.90143400  1
  O  O14  1  0.16087000  0.25360000  0.40143400  1
  O  O15  1  0.66087000  0.74640000  0.09856600  1
  O  O16  1  0.91908100  0.97222300  0.33151200  1
  O  O17  1  0.41908100  0.02777700  0.16848800  1
  O  O18  1  0.08091900  0.02777700  0.66848800  1
  O  O19  1  0.58091900  0.97222300  0.83151200  1
  O  O20  1  0.72697300  0.35378100  0.23396200  1
  O  O21  1  0.22697300  0.64621900  0.26603800  1
  O  O22  1  0.27302700  0.64621900  0.76603800  1
  O  O23  1  0.77302700  0.35378100  0.73396200  1
  O  O24  1  0.62781400  0.96657800  0.38792100  1
  O  O25  1  0.12781400  0.03342200  0.11207900  1
  O  O26  1  0.37218600  0.03342200  0.61207900  1
  O  O27  1  0.87218600  0.96657800  0.88792100  1
loop_
_geom_bond_atom_site_label_1
_geom_bond_atom_site_label_2
_geom_bond_distance
_geom_bond_site_symmetry_2
Mn0 O18 1.889442 1_655
Mn0 O23 1.924779 1_555
Mn0 O5 1.932877 1_655
Mn0 O3 1.960461 1_555
Mn0 O27 2.172650 1_545
Mn1 O19 1.889442 1_555
Mn1 O22 1.924779 1_555
Mn1 O4 1.932877 1_555
Mn1 O2 1.960461 1_555
Mn1 O26 2.172650 1_565
Mn2 O16 1.889442 1_455
Mn2 O21 1.924779 1_555
Mn2 O7 1.932877 1_455
Mn2 O1 1.960461 1_555
Mn2 O25 2.172650 1_565
Mn3 O17 1.889442 1_555
Mn3 O20 1.924779 1_555
Mn3 O6 1.932877 1_555
Mn3 O0 1.960461 1_555
Mn3 O24 2.172650 1_545
As0 O23 1.704589 1_555
As0 O4 1.714785 1_555
As0 O8 1.719376 1_555
As0 O12 1.782184 1_555
As1 O22 1.704589 1_555
As1 O5 1.714785 1_555
As1 O9 1.719376 1_555
As1 O13 1.782184 1_555
As2 O21 1.704589 1_555
As2 O6 1.714785 1_555
As2 O10 1.719376 1_555
As2 O14 1.782184 1_555
As3 O20 1.704589 1_555
As3 O7 1.714785 1_555
As3 O11 1.719376 1_555
As3 O15 1.782184 1_555
As4 O0 1.696538 1_566
As4 O19 1.712769 1_555
As4 O27 1.727753 1_555
As4 O15 1.773456 1_556
As5 O1 1.696538 1_545
As5 O18 1.712769 1_555
As5 O26 1.727753 1_555
As5 O14 1.773456 1_555
As6 O2 1.696538 1_544
As6 O17 1.712769 1_555
As6 O25 1.727753 1_555
As6 O13 1.773456 1_554
As7 O3 1.696538 1_565
As7 O16 1.712769 1_555
As7 O24 1.727753 1_555
As7 O12 1.773456 1_555
