# generated using pymatgen
data_Er12In3Fe2
_symmetry_space_group_name_H-M   'P 1'
_cell_length_a   8.37439029
_cell_length_b   8.37440062
_cell_length_c   8.37439695
_cell_angle_alpha   109.91067318
_cell_angle_beta   109.91064150
_cell_angle_gamma   108.59593600
_symmetry_Int_Tables_number   1
_chemical_formula_structural   Er12In3Fe2
_chemical_formula_sum   'Er12 In3 Fe2'
_cell_volume   452.02492409
_cell_formula_units_Z   1
loop_
 _symmetry_equiv_pos_site_id
 _symmetry_equiv_pos_as_xyz
  1  'x, y, z'
loop_
 _atom_site_type_symbol
 _atom_site_label
 _atom_site_symmetry_multiplicity
 _atom_site_fract_x
 _atom_site_fract_y
 _atom_site_fract_z
 _atom_site_occupancy
  Er  Er0  1  0.30636313  0.30636313  0.61272525  1
  Er  Er1  1  0.69363687  0.69363687  0.38727475  1
  Er  Er2  1  0.30636213  0.69363787  0.00000000  1
  Er  Er3  1  0.69363787  0.30636213  -0.00000000  1
  Er  Er4  1  0.45439251  0.20620800  0.24818351  1
  Er  Er5  1  0.54560749  0.79379200  0.75181649  1
  Er  Er6  1  0.95802349  0.20620700  0.75181549  1
  Er  Er7  1  0.20620700  0.95802449  0.75181649  1
  Er  Er8  1  0.04197651  0.79379300  0.24818451  1
  Er  Er9  1  0.79379300  0.04197551  0.24818351  1
  Er  Er10  1  0.20620600  0.45438951  0.24818351  1
  Er  Er11  1  0.79379400  0.54561049  0.75181649  1
  In  In0  1  0.00000000  0.00000000  -0.00000000  1
  In  In1  1  0.50000000  0.00000000  0.50000000  1
  In  In2  1  0.00000000  0.50000000  0.50000000  1
  Fe  Fe0  1  0.38374774  0.38374774  0.00000000  1
  Fe  Fe1  1  0.61625226  0.61625226  -0.00000000  1
loop_
_geom_bond_atom_site_label_1
_geom_bond_atom_site_label_2
_geom_bond_distance
_geom_bond_site_symmetry_2
Er0 Fe1 2.868329 1_556
Er0 Fe0 2.868335 1_556
Er0 Er5 3.462527 1_555
Er0 Er6 3.462536 1_455
Er0 Er7 3.462538 1_545
Er0 Er11 3.462540 1_555
Er0 In2 3.485611 1_555
Er0 In1 3.485611 1_555
Er0 Er10 3.613388 1_555
Er0 Er9 3.613393 1_455
Er0 Er8 3.613394 1_545
Er0 Er4 3.613403 1_555
Er1 Fe0 2.868329 1_555
Er1 Fe1 2.868335 1_555
Er1 Er4 3.462527 1_555
Er1 Er8 3.462536 1_655
Er1 Er9 3.462538 1_565
Er1 Er10 3.462540 1_555
Er1 In2 3.485611 1_655
Er1 In1 3.485611 1_565
Er1 Er11 3.613388 1_555
Er1 Er7 3.613393 1_655
Er1 Er6 3.613394 1_565
Er1 Er5 3.613403 1_555
Er2 Fe1 2.868338 1_555
Er2 Fe0 2.868341 1_555
Er2 Er5 3.462527 1_554
Er2 Er9 3.462536 1_565
Er2 Er6 3.462539 1_454
Er2 In2 3.485607 1_554
Er2 In1 3.485608 1_565
Er2 Er4 3.613394 1_565
Er2 Er8 3.613395 1_555
Er2 Er7 3.613400 1_554
Er3 Fe0 2.868338 1_555
Er3 Fe1 2.868341 1_555
Er3 Er4 3.462527 1_555
Er3 Er7 3.462536 1_544
Er3 Er8 3.462539 1_655
Er3 In2 3.485607 1_655
Er3 In1 3.485608 1_554
Er3 Er5 3.613394 1_544
Er3 Er6 3.613395 1_554
Er3 Er9 3.613400 1_555
Er4 Fe0 2.951009 1_555
Er4 In0 3.124012 1_555
Er4 In1 3.150787 1_555
Er4 Er7 3.375560 1_544
Er4 Er9 3.530335 1_555
Er4 In2 3.756453 1_655
Er5 Fe1 2.951009 1_556
Er5 In0 3.124012 1_666
Er5 In1 3.150787 1_565
Er5 Er9 3.375560 1_566
Er5 Er7 3.530335 1_555
Er5 In2 3.756453 1_555
Er6 Fe0 2.951010 1_656
Er6 In0 3.124011 1_656
Er6 In1 3.150775 1_555
Er6 Er7 3.375555 1_645
Er6 Er9 3.530331 1_555
Er6 In2 3.756467 1_655
Er7 Fe0 2.951005 1_566
Er7 In0 3.124002 1_566
Er7 In2 3.150786 1_555
Er7 Er8 3.530331 1_555
Er7 In1 3.756471 1_565
Er8 Fe1 2.951010 1_455
Er8 In0 3.124011 1_565
Er8 In1 3.150775 1_565
Er8 Er9 3.375555 1_465
Er8 In2 3.756467 1_555
Er9 Fe1 2.951005 1_545
Er9 In0 3.124002 1_655
Er9 In2 3.150786 1_655
Er9 In1 3.756471 1_555
Er10 Fe0 2.951017 1_555
Er10 In0 3.123996 1_555
Er10 In2 3.150772 1_555
Er10 Er6 3.375566 1_454
Er10 Er4 3.375568 1_555
Er10 Er2 3.462551 1_555
Er10 Er5 3.530337 1_555
Er10 Er8 3.530343 1_555
Er10 Er3 3.613381 1_455
Er10 In1 3.756479 1_565
Er11 Fe1 2.951017 1_556
Er11 In0 3.123996 1_666
Er11 In2 3.150772 1_655
Er11 Er8 3.375566 1_656
Er11 Er5 3.375568 1_555
Er11 Er3 3.462551 1_556
Er11 Er4 3.530337 1_555
Er11 Er6 3.530343 1_555
Er11 Er2 3.613381 1_656
Er11 In1 3.756479 1_555
Fe0 Fe1 2.272521 1_555
