# generated using pymatgen
data_Sr2SmS3
_symmetry_space_group_name_H-M   'P 1'
_cell_length_a   4.12527900
_cell_length_b   4.12527900
_cell_length_c   14.14093400
_cell_angle_alpha   90.00000000
_cell_angle_beta   90.00000000
_cell_angle_gamma   90.00000000
_symmetry_Int_Tables_number   1
_chemical_formula_structural   Sr2SmS3
_chemical_formula_sum   'Sr2 Sm1 S3'
_cell_volume   240.64938009
_cell_formula_units_Z   1
loop_
 _symmetry_equiv_pos_site_id
 _symmetry_equiv_pos_as_xyz
  1  'x, y, z'
loop_
 _atom_site_type_symbol
 _atom_site_label
 _atom_site_symmetry_multiplicity
 _atom_site_fract_x
 _atom_site_fract_y
 _atom_site_fract_z
 _atom_site_occupancy
  Sr  Sr0  1  0.00000000  0.00000000  0.20455500  1
  Sr  Sr1  1  0.00000000  0.00000000  0.79544500  1
  Sm  Sm0  1  0.50000000  0.50000000  0.00000000  1
  S  S0  1  0.50000000  0.50000000  0.20655100  1
  S  S1  1  0.50000000  0.50000000  0.79344900  1
  S  S2  1  0.00000000  0.00000000  0.00000000  1
loop_
_geom_bond_atom_site_label_1
_geom_bond_atom_site_label_2
_geom_bond_distance
_geom_bond_site_symmetry_2
S0 Sr0 2.917149 1_565
S0 Sr0 2.917149 1_655
S0 Sr0 2.917149 1_555
S0 Sr0 2.917149 1_665
S0 Sm0 2.920824 1_555
S1 Sr1 2.917149 1_565
S1 Sr1 2.917149 1_665
S1 Sr1 2.917149 1_655
S1 Sr1 2.917149 1_555
S1 Sm0 2.920824 1_556
S2 Sr0 2.892599 1_555
S2 Sr1 2.892599 1_554
S2 Sm0 2.917013 1_455
S2 Sm0 2.917013 1_555
S2 Sm0 2.917013 1_445
S2 Sm0 2.917013 1_545
