# generated using pymatgen
data_CuC4(NO2)4
_symmetry_space_group_name_H-M   'P 1'
_cell_length_a   10.16235200
_cell_length_b   7.53402300
_cell_length_c   11.10823476
_cell_angle_alpha   81.98270421
_cell_angle_beta   90.00000000
_cell_angle_gamma   90.00000000
_symmetry_Int_Tables_number   1
_chemical_formula_structural   CuC4(NO2)4
_chemical_formula_sum   'Cu2 C8 N8 O16'
_cell_volume   842.17152886
_cell_formula_units_Z   2
loop_
 _symmetry_equiv_pos_site_id
 _symmetry_equiv_pos_as_xyz
  1  'x, y, z'
loop_
 _atom_site_type_symbol
 _atom_site_label
 _atom_site_symmetry_multiplicity
 _atom_site_fract_x
 _atom_site_fract_y
 _atom_site_fract_z
 _atom_site_occupancy
  Cu  Cu0  1  0.50000000  0.00000000  0.50000000  1
  Cu  Cu1  1  0.00000000  0.00000000  0.00000000  1
  C  C0  1  0.81514000  0.06560700  0.69194000  1
  C  C1  1  0.31514000  0.93439300  0.80806000  1
  C  C2  1  0.18486000  0.93439300  0.30806000  1
  C  C3  1  0.68486000  0.06560700  0.19194000  1
  C  C4  1  0.52682100  0.38702900  0.83398000  1
  C  C5  1  0.02682100  0.61297100  0.66602000  1
  C  C6  1  0.47317900  0.61297100  0.16602000  1
  C  C7  1  0.97317900  0.38702900  0.33398000  1
  N  N0  1  0.64289800  0.34070200  0.89816100  1
  N  N1  1  0.14289800  0.65929800  0.60183900  1
  N  N2  1  0.35710200  0.65929800  0.10183900  1
  N  N3  1  0.85710200  0.34070200  0.39816100  1
  N  N4  1  0.53004900  0.28117800  0.94800700  1
  N  N5  1  0.03004900  0.71882200  0.55199300  1
  N  N6  1  0.46995100  0.71882200  0.05199300  1
  N  N7  1  0.96995100  0.28117800  0.44800700  1
  O  O0  1  0.71936000  0.09435900  0.63306500  1
  O  O1  1  0.21936000  0.90564100  0.86693500  1
  O  O2  1  0.28064000  0.90564100  0.36693500  1
  O  O3  1  0.78064000  0.09435900  0.13306500  1
  O  O4  1  0.91107000  0.03731200  0.75073400  1
  O  O5  1  0.41107000  0.96268800  0.74926600  1
  O  O6  1  0.08893000  0.96268800  0.24926600  1
  O  O7  1  0.58893000  0.03731200  0.25073400  1
  O  O8  1  0.46812700  0.46095800  0.74785200  1
  O  O9  1  0.96812700  0.53904200  0.75214800  1
  O  O10  1  0.53187300  0.53904200  0.25214800  1
  O  O11  1  0.03187300  0.46095800  0.24785200  1
  O  O12  1  0.57668400  0.79119100  0.51110000  1
  O  O13  1  0.07668400  0.20880900  0.98890000  1
  O  O14  1  0.42331600  0.20880900  0.48890000  1
  O  O15  1  0.92331600  0.79119100  0.01110000  1
loop_
_geom_bond_atom_site_label_1
_geom_bond_atom_site_label_2
_geom_bond_distance
_geom_bond_site_symmetry_2
Cu0 O14 1.744493 1_555
Cu0 O12 1.744493 1_545
Cu1 O13 1.744493 1_554
Cu1 O15 1.744493 1_445
C0 O0 1.175810 1_555
C0 O4 1.176233 1_555
C1 O1 1.175810 1_555
C1 O5 1.176233 1_555
C2 O2 1.175810 1_555
C2 O6 1.176233 1_555
C3 O3 1.175810 1_555
C3 O7 1.176233 1_555
C4 O8 1.196952 1_555
C4 N0 1.397205 1_555
C4 N4 1.399879 1_555
C5 O9 1.196952 1_455
C5 N1 1.397205 1_555
C5 N5 1.399879 1_555
C6 O10 1.196952 1_555
C6 N2 1.397205 1_555
C6 N6 1.399879 1_555
C7 O11 1.196952 1_655
C7 N3 1.397205 1_555
C7 N7 1.399879 1_555
N0 N4 1.324239 1_555
N1 N5 1.324239 1_555
N2 N6 1.324239 1_555
N3 N7 1.324239 1_555
