# generated using pymatgen
data_H2Pd(PbO2)2
_symmetry_space_group_name_H-M   'P 1'
_cell_length_a   6.46785400
_cell_length_b   6.66478185
_cell_length_c   8.98170824
_cell_angle_alpha   74.38423803
_cell_angle_beta   73.58702989
_cell_angle_gamma   78.44466194
_symmetry_Int_Tables_number   1
_chemical_formula_structural   H2Pd(PbO2)2
_chemical_formula_sum   'H4 Pd2 Pb4 O8'
_cell_volume   354.43705251
_cell_formula_units_Z   2
loop_
 _symmetry_equiv_pos_site_id
 _symmetry_equiv_pos_as_xyz
  1  'x, y, z'
loop_
 _atom_site_type_symbol
 _atom_site_label
 _atom_site_symmetry_multiplicity
 _atom_site_fract_x
 _atom_site_fract_y
 _atom_site_fract_z
 _atom_site_occupancy
  H  H0  1  0.62431200  0.94362500  0.18759000  1
  H  H1  1  0.37568800  0.05637500  0.81241000  1
  H  H2  1  0.41346300  0.43098200  0.26215400  1
  H  H3  1  0.58653700  0.56901800  0.73784600  1
  Pd  Pd0  1  0.00000000  0.00000000  0.00000000  1
  Pd  Pd1  1  0.50000000  0.50000000  0.50000000  1
  Pb  Pb0  1  0.98232200  0.23843400  0.65801500  1
  Pb  Pb1  1  0.01767800  0.76156600  0.34198500  1
  Pb  Pb2  1  0.13101400  0.62679700  0.80664900  1
  Pb  Pb3  1  0.86898600  0.37320300  0.19335100  1
  O  O0  1  0.17304100  0.51292200  0.55758400  1
  O  O1  1  0.82695900  0.48707800  0.44241600  1
  O  O2  1  0.96385500  0.32043300  0.90109100  1
  O  O3  1  0.03614500  0.67956700  0.09890900  1
  O  O4  1  0.73017100  0.02911800  0.18832900  1
  O  O5  1  0.26982900  0.97088200  0.81167100  1
  O  O6  1  0.49999500  0.46631400  0.73484200  1
  O  O7  1  0.50000500  0.53368600  0.26515800  1
loop_
_geom_bond_atom_site_label_1
_geom_bond_atom_site_label_2
_geom_bond_distance
_geom_bond_site_symmetry_2
H0 O4 0.976931 1_565
H1 O5 0.976931 1_545
H2 O7 0.977012 1_555
H3 O6 0.977012 1_555
O0 Pd1 2.019875 1_555
O0 Pb0 2.251416 1_455
O0 Pb2 2.478296 1_555
O0 Pb1 2.492115 1_555
O1 Pd1 2.019875 1_555
O1 Pb1 2.251416 1_655
O1 Pb3 2.478296 1_555
O1 Pb0 2.492115 1_555
O2 Pd0 2.073802 1_656
O2 Pb2 2.343347 1_655
O2 Pb0 2.355483 1_555
O2 Pb3 2.625097 1_556
O3 Pd0 2.073802 1_565
O3 Pb3 2.343347 1_455
O3 Pb1 2.355483 1_555
O3 Pb2 2.625097 1_554
O4 Pd0 2.077846 1_655
O4 Pb3 2.640189 1_555
O4 Pb1 2.709106 1_645
O5 Pd0 2.077846 1_566
O5 Pb2 2.640189 1_555
O5 Pb0 2.709106 1_465
O6 Pd1 2.060217 1_555
O6 Pb2 2.394651 1_555
O7 Pd1 2.060217 1_555
O7 Pb3 2.394651 1_555
