# generated using pymatgen
data_Li5Mn2CoO8
_symmetry_space_group_name_H-M   'P 1'
_cell_length_a   2.87898775
_cell_length_b   10.11967369
_cell_length_c   9.79667770
_cell_angle_alpha   100.76088487
_cell_angle_beta   89.99617617
_cell_angle_gamma   90.00236804
_symmetry_Int_Tables_number   1
_chemical_formula_structural   Li5Mn2CoO8
_chemical_formula_sum   'Li10 Mn4 Co2 O16'
_cell_volume   280.40135351
_cell_formula_units_Z   2
loop_
 _symmetry_equiv_pos_site_id
 _symmetry_equiv_pos_as_xyz
  1  'x, y, z'
loop_
 _atom_site_type_symbol
 _atom_site_label
 _atom_site_symmetry_multiplicity
 _atom_site_fract_x
 _atom_site_fract_y
 _atom_site_fract_z
 _atom_site_occupancy
  Li  Li0  1  0.49998400  0.25016500  0.99974500  1
  Li  Li1  1  0.00000700  0.24979600  0.50025000  1
  Li  Li2  1  0.50007900  0.13794000  0.25505500  1
  Li  Li3  1  0.99998400  0.14039800  0.75668400  1
  Li  Li4  1  0.00005500  0.35979600  0.24302000  1
  Li  Li5  1  0.49990700  0.36190900  0.74508700  1
  Li  Li6  1  0.49989700  0.62504300  0.24541800  1
  Li  Li7  1  0.00001900  0.62652400  0.74599500  1
  Li  Li8  1  0.00000500  0.87339900  0.25398400  1
  Li  Li9  1  0.50009200  0.87500700  0.75455000  1
  Mn  Mn0  1  0.50004800  0.00469200  0.50602800  1
  Mn  Mn1  1  0.49982500  0.49525600  0.49396200  1
  Mn  Mn2  1  0.00020900  0.00924900  0.00686700  1
  Mn  Mn3  1  0.00002000  0.49083100  0.99312600  1
  Co  Co0  1  0.99998600  0.74994700  0.49998800  1
  Co  Co1  1  0.49997300  0.75009400  0.99999600  1
  O  O0  1  0.00006300  0.17336800  0.12148600  1
  O  O1  1  0.50002000  0.16884000  0.62102300  1
  O  O2  1  0.49999500  0.33108700  0.37907200  1
  O  O3  1  0.99991500  0.32678700  0.87852500  1
  O  O4  1  0.49991700  0.44566300  0.10673300  1
  O  O5  1  0.99995200  0.44949800  0.60703500  1
  O  O6  1  0.00006800  0.05034600  0.39304600  1
  O  O7  1  0.50008300  0.05447400  0.89324800  1
  O  O8  1  0.99989300  0.68168700  0.11383700  1
  O  O9  1  0.49997700  0.68766000  0.60625700  1
  O  O10  1  0.50000600  0.81214900  0.39375500  1
  O  O11  1  0.00005900  0.81846500  0.88618000  1
  O  O12  1  0.50004100  0.94170700  0.11456200  1
  O  O13  1  0.00003800  0.93117300  0.60940800  1
  O  O14  1  0.99996100  0.56859800  0.39065400  1
  O  O15  1  0.49992400  0.55845200  0.88542300  1
loop_
_geom_bond_atom_site_label_1
_geom_bond_atom_site_label_2
_geom_bond_distance
_geom_bond_site_symmetry_2
Li0 O4 2.058694 1_556
Li0 O7 2.058806 1_555
Li0 O3 2.103952 1_555
Li0 O3 2.104376 1_455
Li0 O0 2.108007 1_556
Li0 O0 2.108471 1_656
Li1 O6 2.094100 1_555
Li1 O5 2.095005 1_455
Li1 O1 2.122438 1_455
Li1 O1 2.122641 1_555
Li1 O2 2.126602 1_555
Li1 O2 2.126802 1_455
Li2 O0 2.021805 1_655
Li2 O0 2.022016 1_555
Li2 O2 2.099938 1_555
Li2 O12 2.194812 1_545
Li2 O6 2.265524 1_555
Li2 O6 2.265645 1_655
Li3 O1 2.015969 1_555
Li3 O1 2.015974 1_655
Li3 O3 2.035134 1_555
Li3 O7 2.247519 1_555
Li3 O7 2.248045 1_655
Li3 O13 2.328922 1_645
Li4 O2 2.019270 1_555
Li4 O2 2.019372 1_455
Li4 O0 2.034215 1_555
Li4 O4 2.245350 1_555
Li4 O4 2.246019 1_455
Li4 O14 2.327110 1_455
Li5 O3 2.020027 1_455
Li5 O3 2.020205 1_555
Li5 O1 2.099475 1_555
Li5 O15 2.196581 1_555
Li5 O5 2.265957 1_455
Li5 O5 2.265961 1_555
Li6 O4 2.054302 1_555
Li6 O8 2.082778 1_555
Li6 O8 2.082946 1_455
Li6 O10 2.160898 1_555
Li6 O14 2.173817 1_455
Li6 O14 2.174218 1_555
Li7 O5 2.037609 1_455
Li7 O9 2.155124 1_555
Li7 O9 2.155442 1_455
Li7 O11 2.159352 1_555
Li7 O15 2.182515 1_555
Li7 O15 2.182718 1_455
Li8 O6 2.037509 1_565
Li8 O10 2.155894 1_455
Li8 O10 2.156054 1_555
Li8 O8 2.157368 1_455
Li8 O12 2.183600 1_555
Li8 O12 2.183621 1_455
Li9 O7 2.055034 1_565
Li9 O11 2.082771 1_555
Li9 O11 2.082791 1_655
Li9 O9 2.162510 1_555
Li9 O13 2.172103 1_655
Li9 O13 2.172466 1_555
Mn0 O1 1.824741 1_555
Mn0 O6 1.923943 1_655
Mn0 O6 1.923996 1_555
Mn0 O13 1.983068 1_545
Mn0 O13 1.983169 1_645
Mn0 O10 2.050863 1_545
Mn1 O2 1.824451 1_555
Mn1 O5 1.924545 1_455
Mn1 O5 1.925232 1_555
Mn1 O14 1.981653 1_455
Mn1 O14 1.982079 1_555
Mn1 O9 2.049745 1_555
Mn2 O0 1.822863 1_555
Mn2 O7 1.926001 1_554
Mn2 O7 1.926682 1_454
Mn2 O12 1.980059 1_545
Mn2 O12 1.980619 1_445
Mn2 O11 2.067122 1_544
Mn3 O3 1.822180 1_455
Mn3 O4 1.925917 1_556
Mn3 O4 1.926221 1_456
Mn3 O15 1.980469 1_555
Mn3 O15 1.981014 1_455
Mn3 O8 2.067819 1_456
Co0 O13 1.943794 1_655
Co0 O14 1.944525 1_555
Co0 O10 1.948335 1_655
Co0 O10 1.948391 1_555
Co0 O9 1.948885 1_555
Co0 O9 1.948987 1_655
Co1 O11 2.020345 1_555
Co1 O11 2.020551 1_655
Co1 O8 2.020670 1_556
Co1 O8 2.020851 1_456
Co1 O12 2.051091 1_556
Co1 O15 2.051364 1_555
