# generated using pymatgen
data_CeMg6Fe
_symmetry_space_group_name_H-M   'P 1'
_cell_length_a   6.70492197
_cell_length_b   6.70492142
_cell_length_c   4.87948439
_cell_angle_alpha   90.00000000
_cell_angle_beta   90.00000000
_cell_angle_gamma   123.96050672
_symmetry_Int_Tables_number   1
_chemical_formula_structural   CeMg6Fe
_chemical_formula_sum   'Ce1 Mg6 Fe1'
_cell_volume   181.94383061
_cell_formula_units_Z   1
loop_
 _symmetry_equiv_pos_site_id
 _symmetry_equiv_pos_as_xyz
  1  'x, y, z'
loop_
 _atom_site_type_symbol
 _atom_site_label
 _atom_site_symmetry_multiplicity
 _atom_site_fract_x
 _atom_site_fract_y
 _atom_site_fract_z
 _atom_site_occupancy
  Ce  Ce0  1  0.29229914  0.20770086  0.75000000  1
  Mg  Mg0  1  0.17625734  0.83126774  0.25000000  1
  Mg  Mg1  1  0.66873226  0.32374266  0.25000000  1
  Mg  Mg2  1  0.68032143  0.81967857  0.25000000  1
  Mg  Mg3  1  0.31933595  0.69019838  0.75000000  1
  Mg  Mg4  1  0.80980162  0.18066405  0.75000000  1
  Mg  Mg5  1  0.83887378  0.66112622  0.75000000  1
  Fe  Fe0  1  0.21437848  0.28562152  0.25000000  1
loop_
_geom_bond_atom_site_label_1
_geom_bond_atom_site_label_2
_geom_bond_distance
_geom_bond_site_symmetry_2
Ce0 Fe0 2.608297 1_556
Ce0 Fe0 2.608297 1_555
Ce0 Mg3 3.137446 1_555
Ce0 Mg4 3.137446 1_455
Ce0 Mg5 3.197701 1_445
Ce0 Mg5 3.197701 1_555
Ce0 Mg0 3.276286 1_546
Ce0 Mg0 3.276286 1_545
Ce0 Mg1 3.276286 1_556
Ce0 Mg1 3.276286 1_555
Mg0 Mg3 2.963289 1_555
Mg0 Mg3 2.963289 1_554
Mg0 Mg5 3.080228 1_454
Mg0 Mg5 3.080228 1_455
Mg0 Mg1 3.102405 1_565
Mg0 Mg1 3.197215 1_455
Mg0 Mg2 3.282437 1_455
Mg0 Mg2 3.423724 1_555
Mg1 Mg4 2.963289 1_555
Mg1 Mg4 2.963289 1_554
Mg1 Mg5 3.080228 1_554
Mg1 Mg5 3.080228 1_555
Mg1 Mg2 3.282437 1_555
Mg1 Mg2 3.423724 1_545
Mg2 Mg5 3.078192 1_554
Mg2 Mg5 3.078192 1_555
Mg2 Mg4 3.196349 1_565
Mg2 Mg4 3.196349 1_564
Mg2 Mg3 3.196349 1_554
Mg2 Mg3 3.196349 1_555
Mg3 Mg4 3.089748 1_565
Mg3 Mg5 3.116767 1_455
Mg3 Mg4 3.209873 1_455
Mg4 Mg5 3.116767 1_555
Fe0 Mg0 2.911352 1_545
Fe0 Mg1 2.911352 1_555
Fe0 Mg2 3.175508 1_555
Fe0 Mg2 3.175508 1_445
Fe0 Mg3 3.416619 1_554
Fe0 Mg3 3.416619 1_555
Fe0 Mg4 3.416619 1_455
Fe0 Mg4 3.416619 1_454
