# generated using pymatgen
data_LiErO2
_symmetry_space_group_name_H-M   'P 1'
_cell_length_a   6.10398005
_cell_length_b   6.05581173
_cell_length_c   6.12872990
_cell_angle_alpha   61.18603200
_cell_angle_beta   90.00000000
_cell_angle_gamma   90.00000000
_symmetry_Int_Tables_number   1
_chemical_formula_structural   LiErO2
_chemical_formula_sum   'Li4 Er4 O8'
_cell_volume   198.49695642
_cell_formula_units_Z   4
loop_
 _symmetry_equiv_pos_site_id
 _symmetry_equiv_pos_as_xyz
  1  'x, y, z'
loop_
 _atom_site_type_symbol
 _atom_site_label
 _atom_site_symmetry_multiplicity
 _atom_site_fract_x
 _atom_site_fract_y
 _atom_site_fract_z
 _atom_site_occupancy
  Li  Li0  1  0.34829403  0.71655252  0.05428796  1
  Li  Li1  1  0.84829403  0.28344748  0.44571204  1
  Li  Li2  1  0.65170597  0.28344748  0.94571204  1
  Li  Li3  1  0.15170597  0.71655252  0.55428796  1
  Er  Er0  1  0.87044553  0.76338210  0.98261454  1
  Er  Er1  1  0.62955447  0.76338210  0.48261454  1
  Er  Er2  1  0.12955447  0.23661790  0.01738546  1
  Er  Er3  1  0.37044553  0.23661790  0.51738546  1
  O  O0  1  0.66624930  0.00710086  0.66523798  1
  O  O1  1  0.61063168  0.54325614  0.26441952  1
  O  O2  1  0.16624930  0.99289914  0.83476202  1
  O  O3  1  0.33375070  0.99289914  0.33476202  1
  O  O4  1  0.38936832  0.45674386  0.73558048  1
  O  O5  1  0.11063168  0.45674386  0.23558048  1
  O  O6  1  0.88936832  0.54325614  0.76441952  1
  O  O7  1  0.83375070  0.00710086  0.16523798  1
loop_
_geom_bond_atom_site_label_1
_geom_bond_atom_site_label_2
_geom_bond_distance
_geom_bond_site_symmetry_2
Li0 O2 1.917071 1_554
Li0 O1 2.005310 1_555
Li0 O5 2.032083 1_555
Li1 O0 1.917071 1_555
Li1 O5 2.005310 1_655
Li1 O1 2.032083 1_555
Li2 O7 1.917071 1_556
Li2 O4 2.005310 1_555
Li2 O6 2.032083 1_555
Li3 O3 1.917071 1_555
Li3 O6 2.005310 1_455
Li3 O4 2.032083 1_555
Er0 O0 2.179002 1_565
Er0 O2 2.190670 1_655
Er0 O1 2.248488 1_556
Er0 O7 2.252455 1_566
Er0 O5 2.286084 1_656
Er0 O6 2.301506 1_555
Er1 O7 2.179002 1_565
Er1 O3 2.190670 1_555
Er1 O6 2.248488 1_555
Er1 O0 2.252455 1_565
Er1 O4 2.286084 1_555
Er1 O1 2.301506 1_555
Er2 O3 2.179002 1_545
Er2 O7 2.190670 1_455
Er2 O4 2.248488 1_554
Er2 O2 2.252455 1_544
Er2 O6 2.286084 1_454
Er2 O5 2.301506 1_555
Er3 O2 2.179002 1_545
Er3 O0 2.190670 1_555
Er3 O5 2.248488 1_555
Er3 O3 2.252455 1_545
Er3 O1 2.286084 1_555
Er3 O4 2.301506 1_555
