# generated using pymatgen
data_Ba2Sr2Y2Cu6O13
_symmetry_space_group_name_H-M   'P 1'
_cell_length_a   12.40091246
_cell_length_b   12.37274741
_cell_length_c   5.46917834
_cell_angle_alpha   77.53392580
_cell_angle_beta   76.95836211
_cell_angle_gamma   25.50771209
_symmetry_Int_Tables_number   1
_chemical_formula_structural   Ba2Sr2Y2Cu6O13
_chemical_formula_sum   'Ba2 Sr2 Y2 Cu6 O13'
_cell_volume   351.89739639
_cell_formula_units_Z   1
loop_
 _symmetry_equiv_pos_site_id
 _symmetry_equiv_pos_as_xyz
  1  'x, y, z'
loop_
 _atom_site_type_symbol
 _atom_site_label
 _atom_site_symmetry_multiplicity
 _atom_site_fract_x
 _atom_site_fract_y
 _atom_site_fract_z
 _atom_site_occupancy
  Ba  Ba0  1  0.39801200  0.91430900  0.60198800  1
  Ba  Ba1  1  0.91430900  0.39801200  0.08569100  1
  Sr  Sr0  1  0.10372600  0.59127300  0.89627400  1
  Sr  Sr1  1  0.59127300  0.10372600  0.40872700  1
  Y  Y0  1  0.74904900  0.24841700  0.25095100  1
  Y  Y1  1  0.24841700  0.74904900  0.75158300  1
  Cu  Cu0  1  0.32075900  0.81796500  0.18203500  1
  Cu  Cu1  1  0.81796500  0.32075900  0.67924100  1
  Cu  Cu2  1  0.17539400  0.67848000  0.32152000  1
  Cu  Cu3  1  0.67848000  0.17539400  0.82460600  1
  Cu  Cu4  1  0.00755800  0.49723000  0.50277000  1
  Cu  Cu5  1  0.49723000  0.00755800  0.99244200  1
  O  O0  1  0.44750800  0.90228500  0.09771500  1
  O  O1  1  0.90228500  0.44750800  0.55249200  1
  O  O2  1  0.05081000  0.60785100  0.39214900  1
  O  O3  1  0.60785100  0.05081000  0.94919000  1
  O  O4  1  0.06116300  0.06116300  0.93883700  1
  O  O5  1  0.55904400  0.55904400  0.44095600  1
  O  O6  1  0.05907500  0.05907500  0.44092500  1
  O  O7  1  0.55907500  0.55907500  0.94092500  1
  O  O8  1  0.93708800  0.93708800  0.06291200  1
  O  O9  1  0.43333900  0.43333900  0.56666100  1
  O  O10  1  0.93702800  0.93702800  0.56297200  1
  O  O11  1  0.43702800  0.43702800  0.06297200  1
  O  O12  1  0.25653300  0.25653300  0.74346700  1
loop_
_geom_bond_atom_site_label_1
_geom_bond_atom_site_label_2
_geom_bond_distance
_geom_bond_site_symmetry_2
Ba0 O1 2.693236 1_555
Ba0 O0 2.693236 1_555
Ba0 O1 2.856865 1_465
Ba0 O0 2.856865 1_556
Ba0 O4 2.901100 1_565
Ba0 O12 2.999676 1_565
Ba0 O6 3.008493 1_565
Ba0 O7 3.008493 1_555
Ba0 O5 3.019599 1_555
Ba1 O0 2.693236 1_555
Ba1 O1 2.693236 1_555
Ba1 O1 2.856865 1_554
Ba1 O0 2.856865 1_645
Ba1 O4 2.901100 1_654
Ba1 O12 2.999676 1_654
Ba1 O6 3.008493 1_655
Ba1 O7 3.008493 1_554
Ba1 O5 3.019599 1_555
Cu0 O6 1.926267 1_565
Cu0 O7 1.926267 1_554
Cu0 O5 1.960239 1_555
Cu0 O4 1.976443 1_564
Cu0 O0 2.489328 1_555
Cu1 O7 1.926267 1_555
Cu1 O6 1.926267 1_655
Cu1 O5 1.960239 1_555
Cu1 O4 1.976443 1_655
Cu1 O1 2.489328 1_555
Cu2 O10 1.925700 1_455
Cu2 O11 1.925700 1_555
Cu2 O8 1.958622 1_455
Cu2 O9 1.973901 1_555
Cu2 O2 2.306877 1_555
Cu3 O10 1.925700 1_545
Cu3 O11 1.925700 1_556
Cu3 O8 1.958622 1_546
Cu3 O9 1.973901 1_555
Cu3 O3 2.306877 1_555
Cu4 O2 1.829805 1_555
Cu4 O1 1.836830 1_455
Cu4 O12 1.918140 1_555
Cu5 O3 1.829805 1_555
Cu5 O0 1.836830 1_546
Cu5 O12 1.918140 1_555
O2 Sr1 2.649866 1_465
O2 Sr0 2.649866 1_554
O2 Sr0 2.898964 1_555
O2 Sr1 2.898964 1_555
O3 Sr0 2.649866 1_645
O3 Sr1 2.649866 1_556
O3 Sr0 2.898964 1_555
O3 Sr1 2.898964 1_555
O4 Y0 2.408613 1_456
O4 Y1 2.408613 1_545
O5 Y1 2.382397 1_555
O5 Y0 2.382397 1_555
O6 Y1 2.417249 1_545
O6 Y0 2.417249 1_455
O7 Y1 2.417249 1_555
O7 Y0 2.417249 1_556
O8 Y0 2.397387 1_565
O8 Y1 2.397387 1_654
O8 Sr0 2.877791 1_654
O8 Sr1 2.877791 1_565
O9 Y0 2.455553 1_555
O9 Y1 2.455553 1_555
O9 Sr1 2.748378 1_555
O9 Sr0 2.748378 1_555
O10 Y1 2.436234 1_655
O10 Y0 2.436234 1_565
O10 Sr0 2.875459 1_655
O10 Sr1 2.875459 1_565
O11 Y0 2.436234 1_555
O11 Y1 2.436234 1_554
O11 Sr0 2.875459 1_554
O11 Sr1 2.875459 1_555
O12 Sr0 2.838256 1_555
O12 Sr1 2.838256 1_555
