# generated using pymatgen
data_MgV2O4
_symmetry_space_group_name_H-M   'P 1'
_cell_length_a   6.06013041
_cell_length_b   6.06013041
_cell_length_c   14.83950800
_cell_angle_alpha   90.00000000
_cell_angle_beta   90.00000000
_cell_angle_gamma   120.00000444
_symmetry_Int_Tables_number   1
_chemical_formula_structural   MgV2O4
_chemical_formula_sum   'Mg6 V12 O24'
_cell_volume   471.96963025
_cell_formula_units_Z   6
loop_
 _symmetry_equiv_pos_site_id
 _symmetry_equiv_pos_as_xyz
  1  'x, y, z'
loop_
 _atom_site_type_symbol
 _atom_site_label
 _atom_site_symmetry_multiplicity
 _atom_site_fract_x
 _atom_site_fract_y
 _atom_site_fract_z
 _atom_site_occupancy
  Mg  Mg0  1  0.00000000  0.00000000  0.04661500  1
  Mg  Mg1  1  0.66666700  0.33333300  0.37513600  1
  Mg  Mg2  1  0.66666700  0.33333300  0.00291300  1
  Mg  Mg3  1  0.33333300  0.66666700  0.70788900  1
  Mg  Mg4  1  0.00000000  0.00000000  0.28966500  1
  Mg  Mg5  1  0.66666700  0.33333300  0.62439700  1
  V  V0  1  0.50183000  0.49817000  0.16657500  1
  V  V1  1  0.99634000  0.49817000  0.16657500  1
  V  V2  1  0.16725500  0.83274500  0.49908900  1
  V  V3  1  0.50183000  0.00366000  0.16657500  1
  V  V4  1  0.33333300  0.66666700  0.33241300  1
  V  V5  1  0.66549000  0.83274500  0.49908900  1
  V  V6  1  0.83430700  0.16569300  0.83348200  1
  V  V7  1  0.16725500  0.33451000  0.49908900  1
  V  V8  1  0.83430700  0.66861300  0.83348200  1
  V  V9  1  0.00000000  0.00000000  0.66554200  1
  V  V10  1  0.33138700  0.16569300  0.83348200  1
  V  V11  1  0.33333300  0.66666700  0.95776000  1
  O  O0  1  0.35818700  0.17909300  0.09096600  1
  O  O1  1  0.66666700  0.33333300  0.24158900  1
  O  O2  1  0.82090700  0.64181300  0.09096600  1
  O  O3  1  0.82090700  0.17909300  0.09096600  1
  O  O4  1  0.18067100  0.81932900  0.24640200  1
  O  O5  1  0.02846700  0.51423400  0.41961400  1
  O  O6  1  0.18067100  0.36134200  0.24640200  1
  O  O7  1  0.33333300  0.66666700  0.08852800  1
  O  O8  1  0.48576600  0.97153300  0.41961400  1
  O  O9  1  0.33333300  0.66666700  0.57255400  1
  O  O10  1  0.63865800  0.81932900  0.24640200  1
  O  O11  1  0.48576600  0.51423400  0.41961400  1
  O  O12  1  0.84671300  0.15328700  0.58041000  1
  O  O13  1  0.69513700  0.84756800  0.75315500  1
  O  O14  1  0.84671300  0.69342500  0.58041000  1
  O  O15  1  0.00000000  0.00000000  0.42625400  1
  O  O16  1  0.00000000  0.00000000  0.90702300  1
  O  O17  1  0.15243200  0.30486300  0.75315500  1
  O  O18  1  0.30657500  0.15328700  0.58041000  1
  O  O19  1  0.15243200  0.84756800  0.75315500  1
  O  O20  1  0.50923000  0.49077000  0.91240500  1
  O  O21  1  0.66666700  0.33333300  0.76133200  1
  O  O22  1  0.50923000  0.01846000  0.91240500  1
  O  O23  1  0.98154000  0.49077000  0.91240500  1
loop_
_geom_bond_atom_site_label_1
_geom_bond_atom_site_label_2
_geom_bond_distance
_geom_bond_site_symmetry_2
Mg0 O3 1.991723 1_455
Mg0 O0 1.991728 1_555
Mg0 O2 1.991728 1_445
Mg0 O16 2.071477 1_554
Mg1 O1 1.981772 1_555
Mg1 O8 2.010252 1_545
Mg1 O5 2.010252 1_655
Mg1 O11 2.010263 1_555
Mg2 O2 2.080491 1_555
Mg2 O0 2.080491 1_555
Mg2 O3 2.080491 1_555
Mg2 O22 2.129493 1_554
Mg2 O23 2.129493 1_554
Mg2 O20 2.129497 1_554
Mg3 O9 2.008305 1_555
Mg3 O19 2.014132 1_555
Mg3 O13 2.014142 1_555
Mg3 O17 2.014142 1_555
Mg4 O6 2.002128 1_555
Mg4 O10 2.002128 1_445
Mg4 O4 2.002128 1_545
Mg4 O15 2.026914 1_555
Mg5 O14 1.999397 1_555
Mg5 O18 1.999397 1_555
Mg5 O12 1.999397 1_555
Mg5 O21 2.032048 1_555
O0 V3 2.018017 1_555
O0 V0 2.018021 1_555
O1 V3 2.057362 1_555
O1 V1 2.057362 1_555
O1 V0 2.057366 1_555
O2 V1 2.018017 1_555
O2 V0 2.018021 1_555
O3 V3 2.018021 1_555
O3 V1 2.018021 1_555
O4 V4 2.048613 1_555
O4 V1 2.065173 1_455
O4 V3 2.065173 1_565
O5 V2 2.049538 1_555
O5 V7 2.049542 1_555
O5 V4 2.057792 1_555
O6 V4 2.048617 1_555
O6 V0 2.065173 1_555
O6 V1 2.065173 1_455
O7 V11 1.940533 1_554
O7 V1 2.114091 1_455
O7 V3 2.114091 1_565
O7 V0 2.114095 1_555
O8 V2 2.049538 1_555
O8 V5 2.049542 1_555
O8 V4 2.057792 1_555
O9 V2 2.056053 1_555
O9 V7 2.056057 1_555
O9 V5 2.056057 1_555
O10 V4 2.048617 1_555
O10 V0 2.065173 1_555
O10 V3 2.065173 1_565
O11 V7 2.049538 1_555
O11 V5 2.049538 1_555
O11 V4 2.057792 1_555
O12 V9 2.045667 1_655
O12 V5 2.074236 1_545
O12 V7 2.074236 1_655
O13 V6 2.054986 1_565
O13 V8 2.054986 1_555
O13 V9 2.061630 1_665
O14 V9 2.045671 1_665
O14 V2 2.074236 1_655
O14 V5 2.074241 1_555
O15 V5 2.061621 1_445
O15 V7 2.061621 1_555
O15 V2 2.061621 1_545
O16 V6 2.053227 1_455
O16 V10 2.053231 1_555
O16 V8 2.053231 1_445
O17 V6 2.054986 1_455
O17 V10 2.054986 1_555
O17 V9 2.061630 1_555
O18 V9 2.045671 1_555
O18 V2 2.074236 1_545
O18 V7 2.074241 1_555
O19 V10 2.054986 1_565
O19 V8 2.054986 1_455
O19 V9 2.061634 1_565
O20 V11 1.965145 1_555
O20 V8 2.071464 1_555
O20 V10 2.071464 1_555
O21 V10 2.059761 1_555
O21 V8 2.059761 1_555
O21 V6 2.059761 1_555
O22 V11 1.965140 1_545
O22 V10 2.071460 1_555
O22 V6 2.071464 1_555
O23 V11 1.965140 1_655
O23 V8 2.071460 1_555
O23 V6 2.071464 1_555
