# generated using pymatgen
data_K2Ce(PO4)2
_symmetry_space_group_name_H-M   'P 1'
_cell_length_a   7.58280852
_cell_length_b   9.10283460
_cell_length_c   10.85885407
_cell_angle_alpha   90.00000000
_cell_angle_beta   90.00000000
_cell_angle_gamma   110.91740002
_symmetry_Int_Tables_number   1
_chemical_formula_structural   K2Ce(PO4)2
_chemical_formula_sum   'K8 Ce4 P8 O32'
_cell_volume   700.13581484
_cell_formula_units_Z   4
loop_
 _symmetry_equiv_pos_site_id
 _symmetry_equiv_pos_as_xyz
  1  'x, y, z'
loop_
 _atom_site_type_symbol
 _atom_site_label
 _atom_site_symmetry_multiplicity
 _atom_site_fract_x
 _atom_site_fract_y
 _atom_site_fract_z
 _atom_site_occupancy
  K  K0  1  0.89794233  0.04606590  0.62727571  1
  K  K1  1  0.39794233  0.54606590  0.87272429  1
  K  K2  1  0.10205767  0.95393410  0.37272429  1
  K  K3  1  0.60205767  0.45393410  0.12727571  1
  K  K4  1  0.12235904  0.45577827  0.61541399  1
  K  K5  1  0.62235904  0.95577827  0.88458601  1
  K  K6  1  0.87764096  0.54422173  0.38458601  1
  K  K7  1  0.37764096  0.04422173  0.11541399  1
  Ce  Ce0  1  0.47639863  0.22035730  0.63918860  1
  Ce  Ce1  1  0.97639863  0.72035730  0.86081140  1
  Ce  Ce2  1  0.52360137  0.77964270  0.36081140  1
  Ce  Ce3  1  0.02360137  0.27964270  0.13918860  1
  P  P0  1  0.71084875  0.64628763  0.63830939  1
  P  P1  1  0.21084875  0.14628763  0.86169061  1
  P  P2  1  0.28915125  0.35371237  0.36169061  1
  P  P3  1  0.78915125  0.85371237  0.13830939  1
  P  P4  1  0.67358064  0.13727622  0.36939655  1
  P  P5  1  0.17358064  0.63727622  0.13060345  1
  P  P6  1  0.32641936  0.86272378  0.63060345  1
  P  P7  1  0.82641936  0.36272378  0.86939655  1
  O  O0  1  0.71075011  0.74595282  0.75336283  1
  O  O1  1  0.21075011  0.24595282  0.74663717  1
  O  O2  1  0.28924989  0.25404718  0.24663717  1
  O  O3  1  0.78924989  0.75404718  0.25336283  1
  O  O4  1  0.54274685  0.48965797  0.64257598  1
  O  O5  1  0.04274685  0.98965797  0.85742402  1
  O  O6  1  0.45725315  0.51034203  0.35742402  1
  O  O7  1  0.95725315  0.01034203  0.14257598  1
  O  O8  1  0.70750469  0.73736344  0.52043704  1
  O  O9  1  0.20750469  0.23736344  0.97956296  1
  O  O10  1  0.29249531  0.26263656  0.47956296  1
  O  O11  1  0.79249531  0.76263656  0.02043704  1
  O  O12  1  0.89854690  0.61902370  0.64806579  1
  O  O13  1  0.39854690  0.11902370  0.85193421  1
  O  O14  1  0.10145310  0.38097630  0.35193421  1
  O  O15  1  0.60145310  0.88097630  0.14806579  1
  O  O16  1  0.46898272  0.02114218  0.35677543  1
  O  O17  1  0.96898272  0.52114218  0.14322457  1
  O  O18  1  0.53101728  0.97885782  0.64322457  1
  O  O19  1  0.03101728  0.47885782  0.85677543  1
  O  O20  1  0.73815463  0.23174011  0.25022137  1
  O  O21  1  0.23815463  0.73174011  0.24977863  1
  O  O22  1  0.26184537  0.76825989  0.74977863  1
  O  O23  1  0.76184537  0.26825989  0.75022137  1
  O  O24  1  0.68880358  0.24993308  0.47826394  1
  O  O25  1  0.18880358  0.74993308  0.02173606  1
  O  O26  1  0.31119642  0.75006692  0.52173606  1
  O  O27  1  0.81119642  0.25006692  0.97826394  1
  O  O28  1  0.78497457  0.02847987  0.39373730  1
  O  O29  1  0.28497457  0.52847987  0.10626270  1
  O  O30  1  0.21502543  0.97152013  0.60626270  1
  O  O31  1  0.71502543  0.47152013  0.89373730  1
loop_
_geom_bond_atom_site_label_1
_geom_bond_atom_site_label_2
_geom_bond_distance
_geom_bond_site_symmetry_2
K0 O18 2.632520 1_545
K0 O28 2.663191 1_555
K0 O30 2.731040 1_645
K0 O1 2.745022 1_655
K0 O5 2.849145 1_645
K0 O23 2.903222 1_555
K0 O8 2.903480 1_545
K0 O0 2.929797 1_545
K1 O19 2.632520 1_555
K1 O29 2.663191 1_556
K1 O31 2.731040 1_555
K1 O0 2.745022 1_555
K1 O4 2.849145 1_555
K1 O22 2.903222 1_555
K1 O9 2.903480 1_555
K1 O1 2.929797 1_555
K2 O16 2.632520 1_565
K2 O30 2.663191 1_555
K2 O28 2.731040 1_465
K2 O3 2.745022 1_455
K2 O7 2.849145 1_465
K2 O21 2.903222 1_555
K2 O10 2.903480 1_565
K2 O2 2.929797 1_565
K3 O17 2.632520 1_555
K3 O31 2.663191 1_554
K3 O29 2.731040 1_555
K3 O2 2.745022 1_555
K3 O6 2.849145 1_555
K3 O20 2.903222 1_555
K3 O11 2.903480 1_555
K3 O3 2.929797 1_555
K4 O12 2.648564 1_455
K4 O1 2.653659 1_555
K4 O19 2.738053 1_555
K4 O26 2.742708 1_555
K4 O10 2.924242 1_555
K4 O14 2.932153 1_555
K4 O22 3.031547 1_555
K4 O23 3.032780 1_455
K4 O4 3.105107 1_555
K5 O13 2.648564 1_565
K5 O0 2.653659 1_555
K5 O18 2.738053 1_555
K5 O27 2.742708 1_565
K5 O11 2.924242 1_556
K5 O15 2.932153 1_556
K5 O23 3.031547 1_565
K5 O22 3.032780 1_555
K5 O5 3.105107 1_655
K6 O14 2.648564 1_655
K6 O3 2.653659 1_555
K6 O17 2.738053 1_555
K6 O24 2.742708 1_555
K6 O8 2.924242 1_555
K6 O12 2.932153 1_555
K6 O20 3.031547 1_555
K6 O21 3.032780 1_655
K6 O6 3.105107 1_555
K7 O15 2.648564 1_545
K7 O2 2.653659 1_555
K7 O16 2.738053 1_555
K7 O25 2.742708 1_545
K7 O9 2.924242 1_554
K7 O13 2.932153 1_554
K7 O21 3.031547 1_545
K7 O20 3.032780 1_555
K7 O7 3.105107 1_455
Ce0 O4 2.320170 1_555
Ce0 O24 2.326066 1_555
Ce0 O10 2.341044 1_555
Ce0 O23 2.378004 1_555
Ce0 O18 2.378280 1_545
Ce0 O1 2.410064 1_555
Ce0 O30 2.445635 1_545
Ce0 O13 2.479403 1_555
Ce1 O5 2.320170 1_655
Ce1 O25 2.326066 1_656
Ce1 O11 2.341044 1_556
Ce1 O22 2.378004 1_655
Ce1 O19 2.378280 1_655
Ce1 O0 2.410064 1_555
Ce1 O31 2.445635 1_555
Ce1 O12 2.479403 1_555
Ce2 O6 2.320170 1_555
Ce2 O26 2.326066 1_555
Ce2 O8 2.341044 1_555
Ce2 O21 2.378004 1_555
Ce2 O16 2.378280 1_565
Ce2 O3 2.410064 1_555
Ce2 O28 2.445635 1_565
Ce2 O15 2.479403 1_555
Ce3 O7 2.320170 1_455
Ce3 O27 2.326066 1_454
Ce3 O9 2.341044 1_554
Ce3 O20 2.378004 1_455
Ce3 O17 2.378280 1_455
Ce3 O2 2.410064 1_555
Ce3 O29 2.445635 1_555
Ce3 O14 2.479403 1_555
O0 P0 1.544161 1_555
O1 P1 1.544161 1_555
O2 P2 1.544161 1_555
O3 P3 1.544161 1_555
O4 P0 1.536908 1_555
O5 P1 1.536908 1_565
O6 P2 1.536908 1_555
O7 P3 1.536908 1_545
O8 P0 1.530120 1_555
O9 P1 1.530120 1_555
O10 P2 1.530120 1_555
O11 P3 1.530120 1_555
O12 P0 1.533219 1_555
O13 P1 1.533219 1_555
O14 P2 1.533219 1_555
O15 P3 1.533219 1_555
O16 P4 1.540187 1_555
O17 P5 1.540187 1_655
O18 P6 1.540187 1_555
O19 P7 1.540187 1_455
O20 P4 1.534025 1_555
O21 P5 1.534025 1_555
O22 P6 1.534025 1_555
O23 P7 1.534025 1_555
O24 P4 1.542070 1_555
O25 P5 1.542070 1_555
O26 P6 1.542070 1_555
O27 P7 1.542070 1_555
O28 P4 1.536707 1_555
O29 P5 1.536707 1_555
O30 P6 1.536707 1_555
O31 P7 1.536707 1_555
