# generated using pymatgen
data_Li9Mn2Co5O16
_symmetry_space_group_name_H-M   'P 1'
_cell_length_a   5.19267800
_cell_length_b   5.92136908
_cell_length_c   10.23960555
_cell_angle_alpha   103.84531258
_cell_angle_beta   95.59059726
_cell_angle_gamma   109.56130720
_symmetry_Int_Tables_number   1
_chemical_formula_structural   Li9Mn2Co5O16
_chemical_formula_sum   'Li9 Mn2 Co5 O16'
_cell_volume   282.57789194
_cell_formula_units_Z   1
loop_
 _symmetry_equiv_pos_site_id
 _symmetry_equiv_pos_as_xyz
  1  'x, y, z'
loop_
 _atom_site_type_symbol
 _atom_site_label
 _atom_site_symmetry_multiplicity
 _atom_site_fract_x
 _atom_site_fract_y
 _atom_site_fract_z
 _atom_site_occupancy
  Li  Li0  1  0.62294400  0.93515700  0.87485200  1
  Li  Li1  1  0.37705600  0.06484300  0.12514800  1
  Li  Li2  1  0.11437700  0.18997800  0.38176800  1
  Li  Li3  1  0.87668500  0.31384800  0.61731500  1
  Li  Li4  1  0.62534200  0.44290900  0.87480800  1
  Li  Li5  1  0.37465800  0.55709100  0.12519200  1
  Li  Li6  1  0.12331500  0.68615200  0.38268500  1
  Li  Li7  1  0.88562300  0.81002200  0.61823200  1
  Li  Li8  1  0.50000000  0.00000000  0.50000000  1
  Mn  Mn0  1  0.25535500  0.12108600  0.74726400  1
  Mn  Mn1  1  0.74464500  0.87891400  0.25273600  1
  Co  Co0  1  0.00283000  0.24858700  0.99982000  1
  Co  Co1  1  0.74753200  0.37359900  0.25303200  1
  Co  Co2  1  0.50000000  0.50000000  0.50000000  1
  Co  Co3  1  0.25246800  0.62640100  0.74696800  1
  Co  Co4  1  0.99717000  0.75141300  0.00018000  1
  O  O0  1  0.94651300  0.79568700  0.81898800  1
  O  O1  1  0.70250800  0.92224400  0.06704900  1
  O  O2  1  0.48231900  0.03369900  0.30238400  1
  O  O3  1  0.19937200  0.17275100  0.56954500  1
  O  O4  1  0.97864300  0.27948100  0.81448200  1
  O  O5  1  0.70869100  0.42373300  0.06745200  1
  O  O6  1  0.44731900  0.55128400  0.31766500  1
  O  O7  1  0.19662700  0.65335700  0.57624000  1
  O  O8  1  0.29749200  0.07775600  0.93295100  1
  O  O9  1  0.05348700  0.20431300  0.18101200  1
  O  O10  1  0.80337300  0.34664300  0.42376000  1
  O  O11  1  0.55268100  0.44871600  0.68233500  1
  O  O12  1  0.29130900  0.57626700  0.93254800  1
  O  O13  1  0.02135700  0.72051900  0.18551800  1
  O  O14  1  0.80062800  0.82724900  0.43045500  1
  O  O15  1  0.51768100  0.96630100  0.69761600  1
loop_
_geom_bond_atom_site_label_1
_geom_bond_atom_site_label_2
_geom_bond_distance
_geom_bond_site_symmetry_2
Li0 O15 1.913315 1_555
Li0 O1 1.996096 1_556
Li0 O0 2.173160 1_555
Li0 O8 2.198615 1_565
Li0 O12 2.485803 1_555
Li0 O4 2.500916 1_565
Li1 O2 1.913315 1_555
Li1 O8 1.996096 1_554
Li1 O9 2.173160 1_555
Li1 O1 2.198615 1_545
Li1 O5 2.485803 1_555
Li1 O13 2.500916 1_545
Li2 O3 1.964914 1_555
Li2 O9 2.075516 1_555
Li2 O10 2.145015 1_455
Li2 Mn1 2.190290 1_445
Li2 O14 2.417354 1_445
Li2 O2 2.508787 1_555
Li2 O6 2.532458 1_555
Li3 O10 2.048747 1_555
Li3 O4 2.111454 1_555
Li3 O3 2.155579 1_655
Li3 O11 2.185214 1_555
Li3 O7 2.298445 1_655
Li4 O11 1.980914 1_555
Li4 O5 2.016215 1_556
Li4 O12 2.207997 1_555
Li4 Mn0 2.212816 1_555
Li4 O4 2.409826 1_555
Li4 O0 2.428166 1_555
Li4 O8 2.505296 1_555
Li5 O6 1.980914 1_555
Li5 O12 2.016215 1_554
Li5 O5 2.207997 1_555
Li5 Mn1 2.212816 1_555
Li5 O13 2.409826 1_555
Li5 O9 2.428166 1_555
Li5 O1 2.505296 1_555
Li6 O7 2.048747 1_555
Li6 O13 2.111454 1_555
Li6 O14 2.155579 1_455
Li6 O6 2.185214 1_555
Li6 O10 2.298445 1_455
Li7 O14 1.964914 1_555
Li7 O0 2.075516 1_555
Li7 O7 2.145015 1_655
Li7 Mn0 2.190290 1_665
Li7 O3 2.417354 1_665
Li7 O15 2.508787 1_555
Li7 O11 2.532458 1_555
Li8 O2 2.076574 1_555
Li8 O15 2.076574 1_545
Li8 O14 2.219833 1_545
Li8 O3 2.219833 1_555
Li8 O10 2.479015 1_555
Li8 O7 2.479015 1_545
Mn0 O15 1.924047 1_545
Mn0 O3 1.926810 1_555
Mn0 O8 1.979620 1_555
Mn0 O4 2.050416 1_455
Mn1 O2 1.924047 1_565
Mn1 O14 1.926810 1_555
Mn1 O1 1.979620 1_555
Mn1 O13 2.050416 1_655
Co0 O9 1.940121 1_556
Co0 O4 1.945749 1_455
Co0 O8 2.177681 1_555
Co0 Li5 2.178500 1_556
Co0 O5 2.193422 1_456
Co0 Li0 2.212051 1_445
Co0 O12 2.318981 1_555
Co0 O1 2.338354 1_446
Co1 O10 1.797635 1_555
Co1 O5 1.993796 1_555
Co1 Li1 2.183190 1_555
Co1 Li6 2.212786 1_655
Co1 O6 2.222897 1_555
Co1 O2 2.229153 1_555
Co1 O9 2.239108 1_655
Co1 O13 2.373787 1_655
Co2 O11 1.969860 1_555
Co2 O6 1.969860 1_555
Co2 O10 2.184933 1_555
Co2 O7 2.184933 1_555
Co2 Li7 2.201773 1_555
Co2 Li2 2.201773 1_555
Co2 O3 2.355920 1_555
Co2 O14 2.355920 1_555
Co3 O7 1.797635 1_555
Co3 O12 1.993796 1_555
Co3 Li0 2.183190 1_555
Co3 Li3 2.212786 1_455
Co3 O11 2.222897 1_555
Co3 O15 2.229153 1_555
Co3 O0 2.239108 1_455
Co3 O4 2.373787 1_455
Co4 O0 1.940121 1_554
Co4 O13 1.945749 1_655
Co4 O1 2.177681 1_555
Co4 Li4 2.178500 1_554
Co4 O12 2.193422 1_654
Co4 Li1 2.212051 1_665
Co4 O5 2.318981 1_555
Co4 O8 2.338354 1_664
O12 O4 1.968770 1_455
O13 O5 1.968770 1_455
