# generated using pymatgen
data_UCoP2
_symmetry_space_group_name_H-M   'P 1'
_cell_length_a   3.70589800
_cell_length_b   3.70589800
_cell_length_c   9.17084000
_cell_angle_alpha   90.00000000
_cell_angle_beta   90.00000000
_cell_angle_gamma   90.00000000
_symmetry_Int_Tables_number   1
_chemical_formula_structural   UCoP2
_chemical_formula_sum   'U2 Co2 P4'
_cell_volume   125.94938177
_cell_formula_units_Z   2
loop_
 _symmetry_equiv_pos_site_id
 _symmetry_equiv_pos_as_xyz
  1  'x, y, z'
loop_
 _atom_site_type_symbol
 _atom_site_label
 _atom_site_symmetry_multiplicity
 _atom_site_fract_x
 _atom_site_fract_y
 _atom_site_fract_z
 _atom_site_occupancy
  U  U0  1  0.00000000  0.50000000  0.76367700  1
  U  U1  1  0.50000000  0.00000000  0.23632300  1
  Co  Co0  1  0.50000000  0.50000000  0.50000000  1
  Co  Co1  1  0.00000000  0.00000000  0.50000000  1
  P  P0  1  0.50000000  0.50000000  0.00000000  1
  P  P1  1  0.00000000  0.00000000  0.00000000  1
  P  P2  1  0.00000000  0.50000000  0.36118500  1
  P  P3  1  0.50000000  0.00000000  0.63881500  1
loop_
_geom_bond_atom_site_label_1
_geom_bond_atom_site_label_2
_geom_bond_distance
_geom_bond_site_symmetry_2
Co0 P2 2.248127 1_655
Co0 P3 2.248127 1_555
Co0 P3 2.248127 1_565
Co0 P2 2.248127 1_555
Co0 U0 3.046444 1_655
Co0 U0 3.046444 1_555
Co0 U1 3.046444 1_555
Co0 U1 3.046444 1_565
Co1 P3 2.248127 1_455
Co1 P2 2.248127 1_545
Co1 P3 2.248127 1_555
Co1 P2 2.248127 1_555
Co1 U0 3.046444 1_555
Co1 U0 3.046444 1_545
Co1 U1 3.046444 1_455
Co1 U1 3.046444 1_555
P0 P1 2.620466 1_665
P0 P1 2.620466 1_655
P0 P1 2.620466 1_565
P0 P1 2.620466 1_555
P0 U1 2.851407 1_565
P0 U1 2.851407 1_555
P0 U0 2.851407 1_654
P0 U0 2.851407 1_554
P1 U1 2.851407 1_455
P1 U1 2.851407 1_555
P1 U0 2.851407 1_544
P1 U0 2.851407 1_554
P2 U1 2.859732 1_565
P2 U1 2.859732 1_465
P2 U1 2.859732 1_555
P2 U1 2.859732 1_455
P3 U0 2.859732 1_645
P3 U0 2.859732 1_545
P3 U0 2.859732 1_655
P3 U0 2.859732 1_555
