# generated using pymatgen
data_Na2SnS3O7
_symmetry_space_group_name_H-M   'P 1'
_cell_length_a   7.68058877
_cell_length_b   7.63944277
_cell_length_c   9.14508177
_cell_angle_alpha   104.05633885
_cell_angle_beta   66.88159776
_cell_angle_gamma   104.67823871
_symmetry_Int_Tables_number   1
_chemical_formula_structural   Na2SnS3O7
_chemical_formula_sum   'Na4 Sn2 S6 O14'
_cell_volume   471.15403565
_cell_formula_units_Z   2
loop_
 _symmetry_equiv_pos_site_id
 _symmetry_equiv_pos_as_xyz
  1  'x, y, z'
loop_
 _atom_site_type_symbol
 _atom_site_label
 _atom_site_symmetry_multiplicity
 _atom_site_fract_x
 _atom_site_fract_y
 _atom_site_fract_z
 _atom_site_occupancy
  Na  Na0  1  0.84706600  0.31931200  0.44008500  1
  Na  Na1  1  0.15293400  0.68068800  0.55991500  1
  Na  Na2  1  0.52027800  0.50987000  0.27089900  1
  Na  Na3  1  0.47972200  0.49013000  0.72910100  1
  Sn  Sn0  1  0.84788200  0.01544400  0.89327300  1
  Sn  Sn1  1  0.15211800  0.98455600  0.10672700  1
  S  S0  1  0.86387300  0.51699700  0.84805500  1
  S  S1  1  0.13612700  0.48300300  0.15194500  1
  S  S2  1  0.65215300  0.87927200  0.52249900  1
  S  S3  1  0.34784700  0.12072800  0.47750100  1
  S  S4  1  0.50202900  0.01256600  0.13037500  1
  S  S5  1  0.49797100  0.98743400  0.86962500  1
  O  O0  1  0.90383000  0.75253800  0.83577000  1
  O  O1  1  0.09617000  0.24746200  0.16423000  1
  O  O2  1  0.80064300  0.74093700  0.47901000  1
  O  O3  1  0.19935700  0.25906300  0.52099000  1
  O  O4  1  0.69927500  0.48903100  0.99964600  1
  O  O5  1  0.30072500  0.51096900  0.00035400  1
  O  O6  1  0.71555400  0.55061300  0.43590000  1
  O  O7  1  0.28444600  0.44938700  0.56410000  1
  O  O8  1  0.52028100  0.17892300  0.30535300  1
  O  O9  1  0.47971900  0.82107700  0.69464700  1
  O  O10  1  0.80052300  0.43589700  0.70558400  1
  O  O11  1  0.19947700  0.56410300  0.29441600  1
  O  O12  1  0.45616200  0.18430700  0.58823500  1
  O  O13  1  0.54383800  0.81569300  0.41176500  1
loop_
_geom_bond_atom_site_label_1
_geom_bond_atom_site_label_2
_geom_bond_distance
_geom_bond_site_symmetry_2
Na0 O6 2.260930 1_555
Na0 O10 2.290330 1_555
Na0 O1 2.528908 1_655
Na0 O12 2.797997 1_555
Na0 O11 2.900270 1_655
Na1 O7 2.260930 1_555
Na1 O11 2.290330 1_555
Na1 O0 2.528908 1_455
Na1 O13 2.797997 1_555
Na1 O10 2.900270 1_455
Na2 O4 2.304342 1_554
Na2 O13 2.378548 1_555
Na2 O6 2.436345 1_555
Na2 O11 2.519295 1_555
Na2 O8 2.622655 1_555
Na2 O7 2.654774 1_555
Na3 O5 2.304342 1_556
Na3 O12 2.378548 1_555
Na3 O7 2.436345 1_555
Na3 O10 2.519295 1_555
Na3 O9 2.622655 1_555
Na3 O6 2.654774 1_555
S4 Sn0 2.688657 1_554
S4 Sn1 2.730901 1_545
S5 Sn1 2.688657 1_556
S5 Sn0 2.730901 1_565
O0 S0 1.770853 1_555
O0 Sn0 2.059606 1_565
O1 S1 1.770853 1_555
O1 Sn1 2.059606 1_545
O2 O6 1.462495 1_555
O2 S2 1.620551 1_555
O3 O7 1.462495 1_555
O3 S3 1.620551 1_555
O4 S0 1.482051 1_555
O5 S1 1.482051 1_555
O8 S3 1.683574 1_555
O8 S4 1.814773 1_555
O9 S2 1.683574 1_555
O9 S5 1.814773 1_555
O10 S0 1.507019 1_555
O11 S1 1.507019 1_555
O12 S3 1.473557 1_555
O13 S2 1.473557 1_555
