# generated using pymatgen
data_SmEuHfFeO6
_symmetry_space_group_name_H-M   'P 1'
_cell_length_a   5.69896916
_cell_length_b   5.69896916
_cell_length_c   5.69896916
_cell_angle_alpha   60.00000000
_cell_angle_beta   60.00000000
_cell_angle_gamma   60.00000000
_symmetry_Int_Tables_number   1
_chemical_formula_structural   SmEuHfFeO6
_chemical_formula_sum   'Sm1 Eu1 Hf1 Fe1 O6'
_cell_volume   130.88019185
_cell_formula_units_Z   1
loop_
 _symmetry_equiv_pos_site_id
 _symmetry_equiv_pos_as_xyz
  1  'x, y, z'
loop_
 _atom_site_type_symbol
 _atom_site_label
 _atom_site_symmetry_multiplicity
 _atom_site_fract_x
 _atom_site_fract_y
 _atom_site_fract_z
 _atom_site_occupancy
  Sm  Sm0  1  0.75000000  0.75000000  0.75000000  1
  Eu  Eu0  1  0.25000000  0.25000000  0.25000000  1
  Hf  Hf0  1  0.50000000  0.50000000  0.50000000  1
  Fe  Fe0  1  -0.00000000  -0.00000000  0.00000000  1
  O  O0  1  0.75346433  0.24653567  0.24653567  1
  O  O1  1  0.24653567  0.75346433  0.75346433  1
  O  O2  1  0.75346433  0.24653567  0.75346433  1
  O  O3  1  0.24653567  0.75346433  0.24653567  1
  O  O4  1  0.75346433  0.75346433  0.24653567  1
  O  O5  1  0.24653567  0.24653567  0.75346433  1
loop_
_geom_bond_atom_site_label_1
_geom_bond_atom_site_label_2
_geom_bond_distance
_geom_bond_site_symmetry_2
Eu0 O4 2.849621 1_455
Eu0 O1 2.849621 1_554
Eu0 O3 2.849621 1_545
Eu0 O2 2.849621 1_455
Eu0 O2 2.849621 1_554
Eu0 O5 2.849621 1_555
Eu0 O5 2.849621 1_554
Eu0 O1 2.849621 1_545
Eu0 O0 2.849621 1_455
Eu0 O4 2.849621 1_545
Eu0 O3 2.849621 1_555
Eu0 O0 2.849621 1_555
Hf0 O3 2.042811 1_555
Hf0 O0 2.042811 1_555
Hf0 O2 2.042811 1_555
Hf0 O4 2.042811 1_555
Hf0 O1 2.042811 1_555
Hf0 O5 2.042811 1_555
Fe0 O4 1.986969 1_445
Fe0 O2 1.986969 1_454
Fe0 O1 1.986969 1_544
Fe0 O0 1.986969 1_455
Fe0 O3 1.986969 1_545
Fe0 O5 1.986969 1_554
O0 Sm0 2.849621 1_554
O0 Sm0 2.849621 1_545
O1 Sm0 2.849621 1_455
O1 Sm0 2.849621 1_555
O2 Sm0 2.849621 1_555
O2 Sm0 2.849621 1_545
O3 Sm0 2.849621 1_554
O3 Sm0 2.849621 1_455
O4 Sm0 2.849621 1_554
O4 Sm0 2.849621 1_555
O5 Sm0 2.849621 1_455
O5 Sm0 2.849621 1_545
