# generated using pymatgen
data_K2NdH4N5O17
_symmetry_space_group_name_H-M   'P 1'
_cell_length_a   8.44388902
_cell_length_b   8.44388902
_cell_length_c   12.25199886
_cell_angle_alpha   108.44720221
_cell_angle_beta   108.44720221
_cell_angle_gamma   94.68770088
_symmetry_Int_Tables_number   1
_chemical_formula_structural   K2NdH4N5O17
_chemical_formula_sum   'K4 Nd2 H8 N10 O34'
_cell_volume   769.87144652
_cell_formula_units_Z   2
loop_
 _symmetry_equiv_pos_site_id
 _symmetry_equiv_pos_as_xyz
  1  'x, y, z'
loop_
 _atom_site_type_symbol
 _atom_site_label
 _atom_site_symmetry_multiplicity
 _atom_site_fract_x
 _atom_site_fract_y
 _atom_site_fract_z
 _atom_site_occupancy
  K  K0  1  0.19425600  0.72055200  0.29837100  1
  K  K1  1  0.27944800  0.80574400  0.70162900  1
  K  K2  1  0.32781900  0.35411500  0.79837100  1
  K  K3  1  0.64588500  0.67218100  0.20162900  1
  Nd  Nd0  1  0.74922400  0.25077600  0.50000000  1
  Nd  Nd1  1  0.99922400  0.00077600  0.00000000  1
  H  H0  1  0.52791000  0.10689000  0.21417400  1
  H  H1  1  0.89311000  0.47209000  0.78582600  1
  H  H2  1  0.85728300  0.93626300  0.71417400  1
  H  H3  1  0.06373700  0.14271700  0.28582600  1
  H  H4  1  0.71398700  0.13602500  0.22185400  1
  H  H5  1  0.86397500  0.28601300  0.77814600  1
  H  H6  1  0.83583000  0.75786700  0.72185400  1
  H  H7  1  0.24213300  0.16417000  0.27814600  1
  N  N0  1  0.05711500  0.43919500  0.48200600  1
  N  N1  1  0.56080500  0.94288500  0.51799400  1
  N  N2  1  0.79281200  0.67489100  0.98200600  1
  N  N3  1  0.32510900  0.20718800  0.01799400  1
  N  N4  1  0.52786100  0.43861800  0.35312600  1
  N  N5  1  0.56138200  0.47213900  0.64687400  1
  N  N6  1  0.66450800  0.07526500  0.85312600  1
  N  N7  1  0.92473500  0.33549200  0.14687400  1
  N  N8  1  0.00199500  0.99800500  0.50000000  1
  N  N9  1  0.25199500  0.74800500  0.00000000  1
  O  O0  1  0.97581700  0.29104000  0.40259900  1
  O  O1  1  0.70896000  0.02418300  0.59740100  1
  O  O2  1  0.86156000  0.67678200  0.90259900  1
  O  O3  1  0.32321800  0.13844000  0.09740100  1
  O  O4  1  0.01491400  0.49397400  0.57716500  1
  O  O5  1  0.50602600  0.98508600  0.42283500  1
  O  O6  1  0.83319100  0.81225100  0.07716500  1
  O  O7  1  0.18774900  0.16680900  0.92283500  1
  O  O8  1  0.16992700  0.52521000  0.46817600  1
  O  O9  1  0.47479000  0.83007300  0.53182400  1
  O  O10  1  0.69296600  0.54824800  0.96817600  1
  O  O11  1  0.45175200  0.30703400  0.03182400  1
  O  O12  1  0.68935900  0.47123000  0.38666300  1
  O  O13  1  0.52877000  0.31064100  0.61333700  1
  O  O14  1  0.66543300  0.94730400  0.88666300  1
  O  O15  1  0.05269600  0.33456700  0.11333700  1
  O  O16  1  0.46176000  0.31774300  0.37751400  1
  O  O17  1  0.68225700  0.53824000  0.62248600  1
  O  O18  1  0.80977000  0.16575400  0.87751400  1
  O  O19  1  0.83424600  0.19023000  0.12248600  1
  O  O20  1  0.43789600  0.51992900  0.29810300  1
  O  O21  1  0.48007100  0.56210400  0.70189700  1
  O  O22  1  0.52817400  0.11020700  0.79810300  1
  O  O23  1  0.88979300  0.47182600  0.20189700  1
  O  O24  1  0.03634200  0.13926100  0.58961700  1
  O  O25  1  0.86073900  0.96365800  0.41038300  1
  O  O26  1  0.20035700  0.80327600  0.08961700  1
  O  O27  1  0.19672400  0.79964300  0.91038300  1
  O  O28  1  0.10285200  0.89714800  0.50000000  1
  O  O29  1  0.35285200  0.64714800  0.00000000  1
  O  O30  1  0.64155900  0.09314800  0.25987700  1
  O  O31  1  0.90685200  0.35844100  0.74012300  1
  O  O32  1  0.91672900  0.86831800  0.75987700  1
  O  O33  1  0.13168200  0.08327100  0.24012300  1
loop_
_geom_bond_atom_site_label_1
_geom_bond_atom_site_label_2
_geom_bond_distance
_geom_bond_site_symmetry_2
K0 O20 2.769932 1_555
K0 O28 2.825842 1_555
K0 O23 2.835601 1_455
K0 O26 2.870594 1_555
K0 O9 2.885760 1_555
K0 O5 2.930484 1_555
K0 O8 3.078630 1_555
K0 O15 3.187938 1_555
K0 O33 3.402663 1_565
K1 O21 2.769932 1_555
K1 O28 2.825842 1_555
K1 O22 2.835601 1_565
K1 O27 2.870594 1_555
K1 O8 2.885760 1_555
K1 O4 2.930484 1_555
K1 O9 3.078630 1_555
K1 O14 3.187938 1_555
K1 O32 3.402663 1_455
K2 O22 2.769932 1_555
K2 O29 2.825842 1_556
K2 O21 2.835601 1_555
K2 O24 2.870587 1_555
K2 O11 2.885761 1_556
K2 O7 2.930484 1_555
K2 O10 3.078628 1_555
K2 O13 3.187938 1_555
K2 O31 3.402663 1_455
K3 O23 2.769932 1_555
K3 O29 2.825842 1_555
K3 O20 2.835601 1_555
K3 O25 2.870587 1_555
K3 O10 2.885761 1_554
K3 O6 2.930484 1_555
K3 O11 3.078628 1_555
K3 O12 3.187938 1_555
K3 O30 3.402663 1_565
Nd0 O1 2.606904 1_555
Nd0 O0 2.606904 1_555
Nd0 O5 2.611501 1_545
Nd0 O4 2.611501 1_655
Nd0 O30 2.623881 1_555
Nd0 O31 2.623881 1_555
Nd0 O16 2.630547 1_555
Nd0 O17 2.630547 1_555
Nd0 O12 2.644680 1_555
Nd0 O13 2.644680 1_555
Nd0 O25 2.704200 1_545
Nd0 O24 2.704200 1_655
Nd1 O3 2.606902 1_655
Nd1 O2 2.606902 1_544
Nd1 O7 2.611501 1_654
Nd1 O6 2.611501 1_545
Nd1 O32 2.623881 1_544
Nd1 O33 2.623881 1_655
Nd1 O19 2.630551 1_555
Nd1 O18 2.630551 1_554
Nd1 O14 2.644680 1_544
Nd1 O15 2.644680 1_655
Nd1 O26 2.704198 1_645
Nd1 O27 2.704198 1_644
H0 O30 0.983448 1_555
H1 O31 0.983448 1_555
H2 O32 0.983445 1_555
H3 O33 0.983445 1_555
H4 O30 0.986398 1_555
H5 O31 0.986398 1_555
H6 O32 0.986394 1_555
H7 O33 0.986394 1_555
N0 O8 1.237162 1_555
N0 O4 1.284056 1_555
N0 O0 1.284326 1_455
N1 O9 1.237162 1_555
N1 O5 1.284056 1_555
N1 O1 1.284326 1_565
N2 O10 1.237173 1_555
N2 O6 1.284057 1_556
N2 O2 1.284326 1_555
N3 O11 1.237173 1_555
N3 O7 1.284057 1_554
N3 O3 1.284326 1_555
N4 O20 1.247802 1_555
N4 O12 1.271483 1_555
N4 O16 1.283740 1_555
N5 O21 1.247802 1_555
N5 O13 1.271483 1_555
N5 O17 1.283740 1_555
N6 O22 1.247802 1_555
N6 O14 1.271483 1_545
N6 O18 1.283733 1_555
N7 O23 1.247802 1_555
N7 O15 1.271483 1_655
N7 O19 1.283733 1_555
N8 O28 1.252627 1_555
N8 O25 1.274936 1_455
N8 O24 1.274936 1_565
N9 O29 1.252627 1_555
N9 O27 1.274931 1_554
N9 O26 1.274931 1_555
