# generated using pymatgen
data_K5Sm(MoO4)4
_symmetry_space_group_name_H-M   'P 1'
_cell_length_a   6.25406000
_cell_length_b   7.88891300
_cell_length_c   9.83756167
_cell_angle_alpha   73.76545805
_cell_angle_beta   90.00000000
_cell_angle_gamma   90.00000000
_symmetry_Int_Tables_number   1
_chemical_formula_structural   K5Sm(MoO4)4
_chemical_formula_sum   'K5 Sm1 Mo4 O16'
_cell_volume   466.00931593
_cell_formula_units_Z   1
loop_
 _symmetry_equiv_pos_site_id
 _symmetry_equiv_pos_as_xyz
  1  'x, y, z'
loop_
 _atom_site_type_symbol
 _atom_site_label
 _atom_site_symmetry_multiplicity
 _atom_site_fract_x
 _atom_site_fract_y
 _atom_site_fract_z
 _atom_site_occupancy
  K  K0  1  0.50000000  0.15973400  0.28280800  1
  K  K1  1  0.00000000  0.59241600  0.81632200  1
  K  K2  1  0.50000000  0.84026600  0.71719200  1
  K  K3  1  0.00000000  0.40758400  0.18367800  1
  K  K4  1  0.00000000  0.00000000  0.00000000  1
  Sm  Sm0  1  0.50000000  0.50000000  0.50000000  1
  Mo  Mo0  1  0.00000000  0.20006000  0.60106200  1
  Mo  Mo1  1  0.50000000  0.71542000  0.09850400  1
  Mo  Mo2  1  0.00000000  0.79994000  0.39893800  1
  Mo  Mo3  1  0.50000000  0.28458000  0.90149600  1
  O  O0  1  0.24122200  0.71644500  0.50180800  1
  O  O1  1  0.72900400  0.28688300  0.00997100  1
  O  O2  1  0.00000000  0.03454000  0.33095800  1
  O  O3  1  0.50000000  0.47898200  0.74319500  1
  O  O4  1  0.75877800  0.71644500  0.50180800  1
  O  O5  1  0.27099600  0.28688300  0.00997100  1
  O  O6  1  0.75877800  0.28355500  0.49819200  1
  O  O7  1  0.27099600  0.71311700  0.99002900  1
  O  O8  1  0.00000000  0.96546000  0.66904200  1
  O  O9  1  0.50000000  0.52101800  0.25680500  1
  O  O10  1  0.24122200  0.28355500  0.49819200  1
  O  O11  1  0.72900400  0.71311700  0.99002900  1
  O  O12  1  0.50000000  0.90722000  0.15954100  1
  O  O13  1  0.00000000  0.28765700  0.74714500  1
  O  O14  1  0.50000000  0.09278000  0.84045900  1
  O  O15  1  0.00000000  0.71234300  0.25285500  1
loop_
_geom_bond_atom_site_label_1
_geom_bond_atom_site_label_2
_geom_bond_distance
_geom_bond_site_symmetry_2
K0 O12 2.605670 1_545
K0 O9 2.789456 1_555
K0 O1 2.959074 1_555
K0 O5 2.959074 1_555
K0 O6 3.036483 1_555
K0 O10 3.036483 1_555
K0 O2 3.273614 1_555
K0 O2 3.273614 1_655
K1 O13 2.675485 1_555
K1 O7 2.758462 1_555
K1 O11 2.758462 1_455
K1 O8 2.894105 1_555
K1 O1 3.121509 1_456
K1 O5 3.121509 1_556
K2 O14 2.605670 1_565
K2 O3 2.789456 1_555
K2 O7 2.959074 1_555
K2 O11 2.959074 1_555
K2 O4 3.036483 1_555
K2 O0 3.036483 1_555
K2 O8 3.273614 1_655
K2 O8 3.273614 1_555
K3 O15 2.675485 1_555
K3 O1 2.758462 1_455
K3 O5 2.758462 1_555
K3 O2 2.894105 1_555
K3 O11 3.121509 1_454
K3 O7 3.121509 1_554
K4 O7 2.851006 1_544
K4 O5 2.851006 1_555
K4 O11 2.851006 1_444
K4 O1 2.851006 1_455
K4 O13 2.860247 1_554
K4 O15 2.860247 1_545
Mo0 O13 1.760137 1_555
Mo0 O8 1.783375 1_545
Mo0 O10 1.833358 1_555
Mo0 O6 1.833358 1_455
Mo1 O12 1.777077 1_555
Mo1 O7 1.789175 1_554
Mo1 O11 1.789175 1_554
Mo1 O9 1.855200 1_555
Mo2 O15 1.760137 1_555
Mo2 O2 1.783375 1_565
Mo2 O0 1.833358 1_555
Mo2 O4 1.833358 1_455
Mo3 O14 1.777077 1_555
Mo3 O5 1.789175 1_556
Mo3 O1 1.789175 1_556
Mo3 O3 1.855200 1_555
O0 Sm0 2.356304 1_555
O3 Sm0 2.351486 1_555
O4 Sm0 2.356304 1_555
O6 Sm0 2.356304 1_555
O9 Sm0 2.351486 1_555
O10 Sm0 2.356304 1_555
