# generated using pymatgen
data_KSb(SO4)2
_symmetry_space_group_name_H-M   'P 1'
_cell_length_a   7.42402600
_cell_length_b   9.03115700
_cell_length_c   10.92923955
_cell_angle_alpha   88.19839350
_cell_angle_beta   90.00000000
_cell_angle_gamma   90.00000000
_symmetry_Int_Tables_number   1
_chemical_formula_structural   KSb(SO4)2
_chemical_formula_sum   'K4 Sb4 S8 O32'
_cell_volume   732.41644604
_cell_formula_units_Z   4
loop_
 _symmetry_equiv_pos_site_id
 _symmetry_equiv_pos_as_xyz
  1  'x, y, z'
loop_
 _atom_site_type_symbol
 _atom_site_label
 _atom_site_symmetry_multiplicity
 _atom_site_fract_x
 _atom_site_fract_y
 _atom_site_fract_z
 _atom_site_occupancy
  K  K0  1  0.66736300  0.31670700  0.88742000  1
  K  K1  1  0.16736300  0.18329300  0.11258000  1
  K  K2  1  0.33263700  0.68329300  0.11258000  1
  K  K3  1  0.83263700  0.81670700  0.88742000  1
  Sb  Sb0  1  0.71474200  0.79606600  0.36835200  1
  Sb  Sb1  1  0.21474200  0.70393400  0.63164800  1
  Sb  Sb2  1  0.28525800  0.20393400  0.63164800  1
  Sb  Sb3  1  0.78525800  0.29606600  0.36835200  1
  S  S0  1  0.70054100  0.07766000  0.61737500  1
  S  S1  1  0.20054100  0.42234000  0.38262500  1
  S  S2  1  0.29945900  0.92234000  0.38262500  1
  S  S3  1  0.79945900  0.57766000  0.61737500  1
  S  S4  1  0.69432500  0.06860600  0.14742100  1
  S  S5  1  0.19432500  0.43139400  0.85257900  1
  S  S6  1  0.30567500  0.93139400  0.85257900  1
  S  S7  1  0.80567500  0.56860600  0.14742100  1
  O  O0  1  0.80563500  0.08360800  0.72892600  1
  O  O1  1  0.30563500  0.41639200  0.27107400  1
  O  O2  1  0.19436500  0.91639200  0.27107400  1
  O  O3  1  0.69436500  0.58360800  0.72892600  1
  O  O4  1  0.60855500  0.93767700  0.59796400  1
  O  O5  1  0.10855500  0.56232300  0.40203600  1
  O  O6  1  0.39144500  0.06232300  0.40203600  1
  O  O7  1  0.89144500  0.43767700  0.59796400  1
  O  O8  1  0.81727000  0.11747800  0.50666900  1
  O  O9  1  0.31727000  0.38252200  0.49333100  1
  O  O10  1  0.18273000  0.88252200  0.49333100  1
  O  O11  1  0.68273000  0.61747800  0.50666900  1
  O  O12  1  0.56117400  0.20932600  0.61859700  1
  O  O13  1  0.06117400  0.29067400  0.38140300  1
  O  O14  1  0.43882600  0.79067400  0.38140300  1
  O  O15  1  0.93882600  0.70932600  0.61859700  1
  O  O16  1  0.54125400  0.16799600  0.13457500  1
  O  O17  1  0.04125400  0.33200400  0.86542500  1
  O  O18  1  0.45874600  0.83200400  0.86542500  1
  O  O19  1  0.95874600  0.66799600  0.13457500  1
  O  O20  1  0.81234400  0.06739200  0.04066800  1
  O  O21  1  0.31234400  0.43260800  0.95933200  1
  O  O22  1  0.18765600  0.93260800  0.95933200  1
  O  O23  1  0.68765600  0.56739200  0.04066800  1
  O  O24  1  0.63780200  0.91279200  0.18466300  1
  O  O25  1  0.13780200  0.58720800  0.81533700  1
  O  O26  1  0.36219800  0.08720800  0.81533700  1
  O  O27  1  0.86219800  0.41279200  0.18466300  1
  O  O28  1  0.81510200  0.11520700  0.25874600  1
  O  O29  1  0.31510200  0.38479300  0.74125400  1
  O  O30  1  0.18489800  0.88479300  0.74125400  1
  O  O31  1  0.68489800  0.61520700  0.25874600  1
loop_
_geom_bond_atom_site_label_1
_geom_bond_atom_site_label_2
_geom_bond_distance
_geom_bond_site_symmetry_2
K0 O17 2.789215 1_655
K0 O23 2.862157 1_556
K0 O3 2.930593 1_555
K0 O21 2.951578 1_555
K0 O0 2.952172 1_555
K0 O20 2.965863 1_556
K0 O29 3.115691 1_555
K0 O16 3.122296 1_556
K0 O26 3.186203 1_555
K0 O12 3.220735 1_555
K1 O16 2.789215 1_555
K1 O22 2.862157 1_544
K1 O2 2.930593 1_545
K1 O20 2.951578 1_455
K1 O1 2.952172 1_555
K1 O21 2.965863 1_554
K1 O28 3.115691 1_455
K1 O17 3.122296 1_554
K1 O27 3.186203 1_455
K1 O13 3.220735 1_555
K2 O19 2.789215 1_455
K2 O21 2.862157 1_554
K2 O1 2.930593 1_555
K2 O23 2.951578 1_555
K2 O2 2.952172 1_555
K2 O22 2.965863 1_554
K2 O31 3.115691 1_555
K2 O18 3.122296 1_554
K2 O24 3.186203 1_555
K2 O14 3.220735 1_555
K3 O18 2.789215 1_555
K3 O20 2.862157 1_566
K3 O0 2.930593 1_565
K3 O22 2.951578 1_655
K3 O3 2.952172 1_555
K3 O23 2.965863 1_556
K3 O30 3.115691 1_655
K3 O19 3.122296 1_556
K3 O25 3.186203 1_655
K3 O15 3.220735 1_555
O0 S0 1.449868 1_555
O1 S1 1.449868 1_555
O2 S2 1.449868 1_555
O3 S3 1.449868 1_555
O4 S0 1.458237 1_565
O5 S1 1.458237 1_555
O6 S2 1.458237 1_545
O7 S3 1.458237 1_555
O8 S0 1.522132 1_555
O8 Sb3 2.188542 1_555
O9 S1 1.522132 1_555
O9 Sb2 2.188542 1_555
O10 S2 1.522132 1_555
O10 Sb1 2.188542 1_555
O11 S3 1.522132 1_555
O11 Sb0 2.188542 1_555
O12 S0 1.576597 1_555
O12 Sb2 2.053839 1_555
O13 S1 1.576597 1_555
O13 Sb3 2.053839 1_455
O14 S2 1.576597 1_555
O14 Sb0 2.053839 1_555
O15 S3 1.576597 1_555
O15 Sb1 2.053839 1_655
O16 S4 1.452204 1_555
O17 S5 1.452204 1_555
O18 S6 1.452204 1_555
O19 S7 1.452204 1_555
O20 S4 1.459406 1_555
O21 S5 1.459406 1_555
O22 S6 1.459406 1_555
O23 S7 1.459406 1_555
O24 S4 1.511920 1_565
O24 Sb0 2.309732 1_555
O25 S5 1.511920 1_555
O25 Sb1 2.309732 1_555
O26 S6 1.511920 1_545
O26 Sb2 2.309732 1_555
O27 S7 1.511920 1_555
O27 Sb3 2.309732 1_555
O28 S4 1.579132 1_555
O28 Sb3 2.067605 1_555
O29 S5 1.579132 1_555
O29 Sb2 2.067605 1_555
O30 S6 1.579132 1_555
O30 Sb1 2.067605 1_555
O31 S7 1.579132 1_555
O31 Sb0 2.067605 1_555
