# generated using pymatgen
data_Mn(CdN)4
_symmetry_space_group_name_H-M   'P 1'
_cell_length_a   6.28069360
_cell_length_b   6.25389607
_cell_length_c   9.01557833
_cell_angle_alpha   66.61432496
_cell_angle_beta   89.05917999
_cell_angle_gamma   62.84511176
_symmetry_Int_Tables_number   1
_chemical_formula_structural   Mn(CdN)4
_chemical_formula_sum   'Mn2 Cd8 N8'
_cell_volume   283.26070494
_cell_formula_units_Z   2
loop_
 _symmetry_equiv_pos_site_id
 _symmetry_equiv_pos_as_xyz
  1  'x, y, z'
loop_
 _atom_site_type_symbol
 _atom_site_label
 _atom_site_symmetry_multiplicity
 _atom_site_fract_x
 _atom_site_fract_y
 _atom_site_fract_z
 _atom_site_occupancy
  Mn  Mn0  1  0.69326100  0.92163400  0.77295600  1
  Mn  Mn1  1  0.30673900  0.07836600  0.22704400  1
  Cd  Cd0  1  0.82722500  0.61634700  0.20918500  1
  Cd  Cd1  1  0.17277500  0.38365300  0.79081500  1
  Cd  Cd2  1  0.74287800  0.25779600  0.00145900  1
  Cd  Cd3  1  0.25712200  0.74220400  0.99854100  1
  Cd  Cd4  1  0.67058200  0.52655400  0.62143300  1
  Cd  Cd5  1  0.32941800  0.47344600  0.37856700  1
  Cd  Cd6  1  0.14733400  0.05152600  0.62072300  1
  Cd  Cd7  1  0.85266600  0.94847400  0.37927700  1
  N  N0  1  0.91420800  0.82800000  0.65876400  1
  N  N1  1  0.08579200  0.17200000  0.34123600  1
  N  N2  1  0.83187300  0.87952900  0.95330000  1
  N  N3  1  0.16812700  0.12047100  0.04670000  1
  N  N4  1  0.53608000  0.72790800  0.80604900  1
  N  N5  1  0.46392000  0.27209200  0.19395100  1
  N  N6  1  0.51756800  0.74195000  0.34112000  1
  N  N7  1  0.48243200  0.25805000  0.65888000  1
loop_
_geom_bond_atom_site_label_1
_geom_bond_atom_site_label_2
_geom_bond_distance
_geom_bond_site_symmetry_2
Mn0 N2 1.722841 1_555
Mn0 N0 1.737357 1_555
Mn0 N7 1.738282 1_565
Mn0 N4 1.823882 1_555
Mn1 N3 1.722841 1_555
Mn1 N1 1.737357 1_555
Mn1 N6 1.738282 1_545
Mn1 N5 1.823882 1_555
Cd0 N2 2.249294 1_554
Cd0 N6 2.255129 1_555
Cd0 N1 2.257169 1_655
Cd1 N3 2.249294 1_556
Cd1 N7 2.255129 1_555
Cd1 N0 2.257169 1_455
Cd2 N2 2.386971 1_544
Cd2 N3 2.387753 1_655
Cd2 N4 2.431517 1_554
Cd2 N5 2.443300 1_555
Cd3 N3 2.386971 1_566
Cd3 N2 2.387753 1_455
Cd3 N5 2.431517 1_556
Cd3 N4 2.443300 1_555
Cd4 N6 2.306612 1_555
Cd4 N7 2.382913 1_555
Cd4 N4 2.390871 1_555
Cd5 N7 2.306612 1_555
Cd5 N6 2.382913 1_555
Cd5 N5 2.390871 1_555
Cd6 N1 2.307647 1_555
Cd6 N0 2.384716 1_445
Cd6 N4 2.405851 1_545
Cd7 N0 2.307647 1_555
Cd7 N1 2.384716 1_665
Cd7 N5 2.405851 1_565
