# generated using pymatgen
data_KH3(SeO4)2
_symmetry_space_group_name_H-M   'P 1'
_cell_length_a   12.16240500
_cell_length_b   7.94058000
_cell_length_c   9.00752136
_cell_angle_alpha   69.31724483
_cell_angle_beta   90.00000000
_cell_angle_gamma   90.00000000
_symmetry_Int_Tables_number   1
_chemical_formula_structural   KH3(SeO4)2
_chemical_formula_sum   'K4 H12 Se8 O32'
_cell_volume   813.84962020
_cell_formula_units_Z   4
loop_
 _symmetry_equiv_pos_site_id
 _symmetry_equiv_pos_as_xyz
  1  'x, y, z'
loop_
 _atom_site_type_symbol
 _atom_site_label
 _atom_site_symmetry_multiplicity
 _atom_site_fract_x
 _atom_site_fract_y
 _atom_site_fract_z
 _atom_site_occupancy
  K  K0  1  0.24908300  0.13295700  0.95145600  1
  K  K1  1  0.74908300  0.86704300  0.54854400  1
  K  K2  1  0.75091700  0.86704300  0.04854400  1
  K  K3  1  0.25091700  0.13295700  0.45145600  1
  H  H0  1  0.42463200  0.76792200  0.49815800  1
  H  H1  1  0.92463200  0.23207800  0.00184200  1
  H  H2  1  0.57536800  0.23207800  0.50184200  1
  H  H3  1  0.07536800  0.76792200  0.99815800  1
  H  H4  1  0.43524000  0.65429800  0.19642200  1
  H  H5  1  0.93524000  0.34570200  0.30357800  1
  H  H6  1  0.56476000  0.34570200  0.80357800  1
  H  H7  1  0.06476000  0.65429800  0.69642200  1
  H  H8  1  0.37483900  0.72522000  0.84538500  1
  H  H9  1  0.87483900  0.27478000  0.65461500  1
  H  H10  1  0.62516100  0.27478000  0.15461500  1
  H  H11  1  0.12516100  0.72522000  0.34538500  1
  Se  Se0  1  0.50072700  0.93904300  0.25905400  1
  Se  Se1  1  0.00072700  0.06095700  0.24094600  1
  Se  Se2  1  0.49927300  0.06095700  0.74094600  1
  Se  Se3  1  0.99927300  0.93904300  0.75905400  1
  Se  Se4  1  0.28702000  0.56428000  0.07626000  1
  Se  Se5  1  0.78702000  0.43572000  0.42374000  1
  Se  Se6  1  0.71298000  0.43572000  0.92374000  1
  Se  Se7  1  0.21298000  0.56428000  0.57626000  1
  O  O0  1  0.61813700  0.05107200  0.23860700  1
  O  O1  1  0.11813700  0.94892800  0.26139300  1
  O  O2  1  0.38186300  0.94892800  0.76139300  1
  O  O3  1  0.88186300  0.05107200  0.73860700  1
  O  O4  1  0.38738400  0.05827500  0.22571500  1
  O  O5  1  0.88738400  0.94172500  0.27428500  1
  O  O6  1  0.61261600  0.94172500  0.77428500  1
  O  O7  1  0.11261600  0.05827500  0.72571500  1
  O  O8  1  0.51048800  0.80073100  0.15514100  1
  O  O9  1  0.01048800  0.19926900  0.34485900  1
  O  O10  1  0.48951200  0.19926900  0.84485900  1
  O  O11  1  0.98951200  0.80073100  0.65514100  1
  O  O12  1  0.50299000  0.80194800  0.46300100  1
  O  O13  1  0.00299000  0.19805200  0.03699900  1
  O  O14  1  0.49701000  0.19805200  0.53699900  1
  O  O15  1  0.99701000  0.80194800  0.96300100  1
  O  O16  1  0.21209100  0.74686500  0.04389300  1
  O  O17  1  0.71209100  0.25313500  0.45610700  1
  O  O18  1  0.78790900  0.25313500  0.95610700  1
  O  O19  1  0.28790900  0.74686500  0.54389300  1
  O  O20  1  0.22452000  0.37123900  0.12497900  1
  O  O21  1  0.72452000  0.62876100  0.37502100  1
  O  O22  1  0.77548000  0.62876100  0.87502100  1
  O  O23  1  0.27548000  0.37123900  0.62497900  1
  O  O24  1  0.38046400  0.54096500  0.22621700  1
  O  O25  1  0.88046400  0.45903500  0.27378300  1
  O  O26  1  0.61953600  0.45903500  0.77378300  1
  O  O27  1  0.11953600  0.54096500  0.72621700  1
  O  O28  1  0.36528000  0.59016200  0.90608400  1
  O  O29  1  0.86528000  0.40983800  0.59391600  1
  O  O30  1  0.63472000  0.40983800  0.09391600  1
  O  O31  1  0.13472000  0.59016200  0.40608400  1
loop_
_geom_bond_atom_site_label_1
_geom_bond_atom_site_label_2
_geom_bond_distance
_geom_bond_site_symmetry_2
K0 O7 2.844795 1_555
K0 O20 2.863797 1_556
K0 O4 2.872114 1_556
K0 O23 2.898386 1_555
K0 O16 2.914038 1_546
K0 O10 3.064796 1_555
K0 O2 3.072701 1_545
K0 O1 3.095803 1_546
K0 O13 3.178172 1_556
K1 O6 2.844795 1_555
K1 O21 2.863797 1_555
K1 O5 2.872114 1_555
K1 O22 2.898386 1_555
K1 O17 2.914038 1_565
K1 O11 3.064796 1_555
K1 O3 3.072701 1_565
K1 O0 3.095803 1_565
K1 O12 3.178172 1_555
K2 O5 2.844795 1_555
K2 O22 2.863797 1_554
K2 O6 2.872114 1_554
K2 O21 2.898386 1_555
K2 O18 2.914038 1_564
K2 O8 3.064796 1_555
K2 O0 3.072701 1_565
K2 O3 3.095803 1_564
K2 O15 3.178172 1_554
K3 O4 2.844795 1_555
K3 O23 2.863797 1_555
K3 O7 2.872114 1_555
K3 O20 2.898386 1_555
K3 O19 2.914038 1_545
K3 O9 3.064796 1_555
K3 O1 3.072701 1_545
K3 O2 3.095803 1_545
K3 O14 3.178172 1_555
H0 O12 1.010493 1_555
H0 O19 1.707098 1_555
H1 O13 1.010493 1_655
H1 O18 1.707098 1_554
H2 O14 1.010493 1_555
H2 O17 1.707098 1_555
H3 O15 1.010493 1_455
H3 O16 1.707098 1_556
H4 O24 1.074768 1_555
H4 O8 1.422130 1_555
H5 O25 1.074768 1_555
H5 O9 1.422130 1_655
H6 O26 1.074768 1_555
H6 O10 1.422130 1_555
H7 O27 1.074768 1_555
H7 O11 1.422130 1_455
H8 O28 1.023905 1_555
H8 O2 1.669084 1_555
H9 O29 1.023905 1_555
H9 O3 1.669084 1_555
H10 O30 1.023905 1_555
H10 O0 1.669084 1_555
H11 O31 1.023905 1_555
H11 O1 1.669084 1_555
O0 Se0 1.657915 1_545
O1 Se1 1.657915 1_565
O2 Se2 1.657915 1_565
O3 Se3 1.657915 1_545
O4 Se0 1.638916 1_545
O5 Se1 1.638916 1_665
O6 Se2 1.638916 1_565
O7 Se3 1.638916 1_445
O8 Se0 1.680046 1_555
O9 Se1 1.680046 1_555
O10 Se2 1.680046 1_555
O11 Se3 1.680046 1_555
O12 Se0 1.774247 1_555
O13 Se1 1.774247 1_555
O14 Se2 1.774247 1_555
O15 Se3 1.774247 1_555
O16 Se4 1.648916 1_555
O17 Se5 1.648916 1_555
O18 Se6 1.648916 1_555
O19 Se7 1.648916 1_555
O20 Se4 1.626312 1_555
O21 Se5 1.626312 1_555
O22 Se6 1.626312 1_555
O23 Se7 1.626312 1_555
O24 Se4 1.724463 1_555
O25 Se5 1.724463 1_555
O26 Se6 1.724463 1_555
O27 Se7 1.724463 1_555
O28 Se4 1.753669 1_556
O29 Se5 1.753669 1_555
O30 Se6 1.753669 1_554
O31 Se7 1.753669 1_555
