# generated using pymatgen
data_CoP2H13C2NO9
_symmetry_space_group_name_H-M   'P 1'
_cell_length_a   7.28174300
_cell_length_b   9.04295682
_cell_length_c   15.88929491
_cell_angle_alpha   89.39336453
_cell_angle_beta   90.00000000
_cell_angle_gamma   90.00000000
_symmetry_Int_Tables_number   1
_chemical_formula_structural   CoP2H13C2NO9
_chemical_formula_sum   'Co4 P8 H52 C8 N4 O36'
_cell_volume   1046.22739335
_cell_formula_units_Z   4
loop_
 _symmetry_equiv_pos_site_id
 _symmetry_equiv_pos_as_xyz
  1  'x, y, z'
loop_
 _atom_site_type_symbol
 _atom_site_label
 _atom_site_symmetry_multiplicity
 _atom_site_fract_x
 _atom_site_fract_y
 _atom_site_fract_z
 _atom_site_occupancy
  Co  Co0  1  0.75915400  0.48124800  0.62599300  1
  Co  Co1  1  0.25915400  0.51875200  0.87400700  1
  Co  Co2  1  0.24084600  0.51875200  0.37400700  1
  Co  Co3  1  0.74084600  0.48124800  0.12599300  1
  P  P0  1  0.60907900  0.69290800  0.46587200  1
  P  P1  1  0.10907900  0.30709200  0.03412800  1
  P  P2  1  0.39092100  0.30709200  0.53412800  1
  P  P3  1  0.89092100  0.69290800  0.96587200  1
  P  P4  1  0.07215000  0.70472400  0.71499200  1
  P  P5  1  0.57215000  0.29527600  0.78500800  1
  P  P6  1  0.92785000  0.29527600  0.28500800  1
  P  P7  1  0.42785000  0.70472400  0.21499200  1
  H  H0  1  0.27627000  0.63402500  0.55778800  1
  H  H1  1  0.77627000  0.36597500  0.94221200  1
  H  H2  1  0.72373000  0.36597500  0.44221200  1
  H  H3  1  0.22373000  0.63402500  0.05778800  1
  H  H4  1  0.42342300  0.67239600  0.63733000  1
  H  H5  1  0.92342300  0.32760400  0.86267000  1
  H  H6  1  0.57657700  0.32760400  0.36267000  1
  H  H7  1  0.07657700  0.67239600  0.13733000  1
  H  H8  1  0.64109300  0.80751300  0.34283000  1
  H  H9  1  0.14109300  0.19248700  0.15717000  1
  H  H10  1  0.35890700  0.19248700  0.65717000  1
  H  H11  1  0.85890700  0.80751300  0.84283000  1
  H  H12  1  0.02988900  0.34965100  0.53132900  1
  H  H13  1  0.52988900  0.65034900  0.96867100  1
  H  H14  1  0.97011100  0.65034900  0.46867100  1
  H  H15  1  0.47011100  0.34965100  0.03132900  1
  H  H16  1  0.91080000  0.22694000  0.57935900  1
  H  H17  1  0.41080000  0.77306000  0.92064100  1
  H  H18  1  0.08920000  0.77306000  0.42064100  1
  H  H19  1  0.58920000  0.22694000  0.07935900  1
  H  H20  1  0.57070600  0.57774500  0.75220400  1
  H  H21  1  0.07070600  0.42225500  0.74779600  1
  H  H22  1  0.42929400  0.42225500  0.24779600  1
  H  H23  1  0.92929400  0.57774500  0.25220400  1
  H  H24  1  0.71170500  0.70748400  0.72200100  1
  H  H25  1  0.21170500  0.29251600  0.77799900  1
  H  H26  1  0.28829500  0.29251600  0.27799900  1
  H  H27  1  0.78829500  0.70748400  0.22200100  1
  H  H28  1  0.27228700  0.86461000  0.82697600  1
  H  H29  1  0.77228700  0.13539000  0.67302400  1
  H  H30  1  0.72771300  0.13539000  0.17302400  1
  H  H31  1  0.22771300  0.86461000  0.32697600  1
  H  H32  1  0.34925200  0.02699300  0.83394400  1
  H  H33  1  0.84925200  0.97300700  0.66605600  1
  H  H34  1  0.65074800  0.97300700  0.16605600  1
  H  H35  1  0.15074800  0.02699300  0.33394400  1
  H  H36  1  0.36545300  0.86903200  0.48954600  1
  H  H37  1  0.86545300  0.13096700  0.01045400  1
  H  H38  1  0.63454700  0.13096700  0.51045400  1
  H  H39  1  0.13454700  0.86903200  0.98954600  1
  H  H40  1  0.53721900  0.88279100  0.56975000  1
  H  H41  1  0.03721900  0.11720900  0.93025000  1
  H  H42  1  0.46278100  0.11720900  0.43025000  1
  H  H43  1  0.96278100  0.88279100  0.06975000  1
  H  H44  1  0.25250900  0.90666100  0.65809000  1
  H  H45  1  0.75250900  0.09333900  0.84191000  1
  H  H46  1  0.74749100  0.09333900  0.34191000  1
  H  H47  1  0.24749100  0.90666100  0.15809000  1
  H  H48  1  0.09294900  0.84426900  0.58137700  1
  H  H49  1  0.59294900  0.15573100  0.91862300  1
  H  H50  1  0.90705100  0.15573100  0.41862300  1
  H  H51  1  0.40705100  0.84426900  0.08137700  1
  C  C0  1  0.45602400  0.80582600  0.53184600  1
  C  C1  1  0.95602400  0.19417400  0.96815400  1
  C  C2  1  0.54397600  0.19417400  0.46815400  1
  C  C3  1  0.04397600  0.80582600  0.03184600  1
  C  C4  1  0.18908700  0.80851000  0.63060500  1
  C  C5  1  0.68908700  0.19149000  0.86939500  1
  C  C6  1  0.81091300  0.19149000  0.36939500  1
  C  C7  1  0.31091300  0.80851000  0.13060500  1
  N  N0  1  0.33721200  0.71848400  0.59076500  1
  N  N1  1  0.83721200  0.28151600  0.90923500  1
  N  N2  1  0.66278800  0.28151600  0.40923500  1
  N  N3  1  0.16278800  0.71848400  0.09076500  1
  O  O0  1  0.68964200  0.81438700  0.40286700  1
  O  O1  1  0.18964200  0.18561300  0.09713300  1
  O  O2  1  0.31035800  0.18561300  0.59713300  1
  O  O3  1  0.81035800  0.81438700  0.90286700  1
  O  O4  1  0.49907400  0.57856000  0.41922900  1
  O  O5  1  0.99907400  0.42144000  0.08077100  1
  O  O6  1  0.50092600  0.42144000  0.58077100  1
  O  O7  1  0.00092600  0.57856000  0.91922900  1
  O  O8  1  0.76891500  0.63387100  0.51926800  1
  O  O9  1  0.26891500  0.36612900  0.98073200  1
  O  O10  1  0.23108500  0.36612900  0.48073200  1
  O  O11  1  0.73108500  0.63387100  0.01926800  1
  O  O12  1  0.90885900  0.80269200  0.74184900  1
  O  O13  1  0.40885900  0.19730800  0.75815100  1
  O  O14  1  0.09114100  0.19730800  0.25815100  1
  O  O15  1  0.59114100  0.80269200  0.24184900  1
  O  O16  1  0.01094700  0.55457000  0.67848800  1
  O  O17  1  0.51094700  0.44543000  0.82151200  1
  O  O18  1  0.98905300  0.44543000  0.32151200  1
  O  O19  1  0.48905300  0.55457000  0.17848800  1
  O  O20  1  0.22268600  0.68712400  0.78216400  1
  O  O21  1  0.72268600  0.31287600  0.71783600  1
  O  O22  1  0.77731400  0.31287600  0.21783600  1
  O  O23  1  0.27731400  0.68712400  0.28216400  1
  O  O24  1  0.90367800  0.32628800  0.55293400  1
  O  O25  1  0.40367800  0.67371200  0.94706600  1
  O  O26  1  0.09632200  0.67371200  0.44706600  1
  O  O27  1  0.59632200  0.32628800  0.05293400  1
  O  O28  1  0.61479400  0.63708200  0.70217900  1
  O  O29  1  0.11479400  0.36291800  0.79782100  1
  O  O30  1  0.38520600  0.36291800  0.29782100  1
  O  O31  1  0.88520600  0.63708200  0.20217900  1
  O  O32  1  0.30681400  0.94173800  0.86792700  1
  O  O33  1  0.80681400  0.05826200  0.63207300  1
  O  O34  1  0.69318600  0.05826200  0.13207300  1
  O  O35  1  0.19318600  0.94173800  0.36792700  1
loop_
_geom_bond_atom_site_label_1
_geom_bond_atom_site_label_2
_geom_bond_distance
_geom_bond_site_symmetry_2
Co0 O6 2.086327 1_555
Co0 O24 2.110256 1_555
Co0 O21 2.114553 1_555
Co0 O16 2.123387 1_655
Co0 O28 2.142985 1_555
Co0 O8 2.176242 1_555
Co1 O7 2.086327 1_555
Co1 O25 2.110256 1_555
Co1 O20 2.114553 1_555
Co1 O17 2.123387 1_555
Co1 O29 2.142985 1_555
Co1 O9 2.176242 1_555
Co2 O4 2.086327 1_555
Co2 O26 2.110256 1_555
Co2 O23 2.114553 1_555
Co2 O18 2.123387 1_455
Co2 O30 2.142985 1_555
Co2 O10 2.176242 1_555
Co3 O5 2.086327 1_555
Co3 O27 2.110256 1_555
Co3 O22 2.114553 1_555
Co3 O19 2.123387 1_555
Co3 O31 2.142985 1_555
Co3 O11 2.176242 1_555
H0 N0 1.031157 1_555
H1 N1 1.031157 1_555
H2 N2 1.031157 1_555
H3 N3 1.031157 1_555
H4 N0 1.052943 1_555
H5 N1 1.052943 1_555
H6 N2 1.052943 1_555
H7 N3 1.052943 1_555
H8 O0 1.019857 1_555
H8 O15 1.646257 1_555
H9 O1 1.019857 1_555
H9 O14 1.646257 1_555
H10 O2 1.019857 1_555
H10 O13 1.646257 1_555
H11 O3 1.019857 1_555
H11 O12 1.646257 1_555
H12 O24 1.002783 1_455
H12 O10 1.677020 1_555
H13 O25 1.002783 1_555
H13 O11 1.677020 1_556
H14 O26 1.002783 1_655
H14 O8 1.677020 1_555
H15 O27 1.002783 1_555
H15 O9 1.677020 1_554
H16 O24 0.988999 1_555
H17 O25 0.988999 1_555
H18 O26 0.988999 1_555
H19 O27 0.988999 1_555
H20 O28 1.006856 1_555
H20 O17 1.675074 1_555
H21 O29 1.006856 1_555
H21 O16 1.675074 1_555
H22 O30 1.006856 1_555
H22 O19 1.675074 1_555
H23 O31 1.006856 1_555
H23 O18 1.675074 1_555
H24 O28 1.003366 1_555
H24 O12 1.705134 1_555
H25 O29 1.003366 1_555
H25 O13 1.705134 1_555
H26 O30 1.003366 1_555
H26 O14 1.705134 1_555
H27 O31 1.003366 1_555
H27 O15 1.705134 1_555
H28 O32 0.991295 1_555
H29 O33 0.991295 1_555
H30 O34 0.991295 1_555
H31 O35 0.991295 1_555
H32 O32 0.986214 1_545
H33 O33 0.986214 1_565
H34 O34 0.986214 1_565
H35 O35 0.986214 1_545
C0 H36 1.097842 1_555
C0 H40 1.097986 1_555
C0 N0 1.494359 1_555
C0 P0 1.845631 1_555
C1 H37 1.097847 1_556
C1 H41 1.097986 1_655
C1 N1 1.494359 1_555
C1 P1 1.845631 1_656
C2 H38 1.097847 1_555
C2 H42 1.097986 1_555
C2 N2 1.494359 1_555
C2 P2 1.845631 1_555
C3 H39 1.097842 1_554
C3 H43 1.097986 1_455
C3 N3 1.494359 1_555
C3 P3 1.845631 1_454
C4 H44 1.095445 1_555
C4 H48 1.095955 1_555
C4 N0 1.495926 1_555
C4 P4 1.837698 1_555
C5 H45 1.095445 1_555
C5 H49 1.095955 1_555
C5 N1 1.495926 1_555
C5 P5 1.837698 1_555
C6 H46 1.095445 1_555
C6 H50 1.095955 1_555
C6 N2 1.495926 1_555
C6 P6 1.837698 1_555
C7 H47 1.095445 1_555
C7 H51 1.095955 1_555
C7 N3 1.495926 1_555
C7 P7 1.837698 1_555
O0 P0 1.590546 1_555
O1 P1 1.590546 1_555
O2 P2 1.590546 1_555
O3 P3 1.590546 1_555
O4 P0 1.508770 1_555
O5 P1 1.508770 1_655
O6 P2 1.508770 1_555
O7 P3 1.508770 1_455
O8 P0 1.532931 1_555
O9 P1 1.532931 1_556
O10 P2 1.532931 1_555
O11 P3 1.532931 1_554
O12 P4 1.545571 1_655
O13 P5 1.545571 1_555
O14 P6 1.545571 1_455
O15 P7 1.545571 1_555
O16 P4 1.547721 1_555
O17 P5 1.547721 1_555
O18 P6 1.547721 1_555
O19 P7 1.547721 1_555
O20 P4 1.537034 1_555
O21 P5 1.537034 1_555
O22 P6 1.537034 1_555
O23 P7 1.537034 1_555
