# generated using pymatgen
data_PrP2H2CO6
_symmetry_space_group_name_H-M   'P 1'
_cell_length_a   5.39389654
_cell_length_b   8.24011609
_cell_length_c   8.31816991
_cell_angle_alpha   113.65475136
_cell_angle_beta   100.39856429
_cell_angle_gamma   106.86881140
_symmetry_Int_Tables_number   1
_chemical_formula_structural   PrP2H2CO6
_chemical_formula_sum   'Pr2 P4 H4 C2 O12'
_cell_volume   304.91868548
_cell_formula_units_Z   2
loop_
 _symmetry_equiv_pos_site_id
 _symmetry_equiv_pos_as_xyz
  1  'x, y, z'
loop_
 _atom_site_type_symbol
 _atom_site_label
 _atom_site_symmetry_multiplicity
 _atom_site_fract_x
 _atom_site_fract_y
 _atom_site_fract_z
 _atom_site_occupancy
  Pr  Pr0  1  0.27126400  0.77126400  0.54252700  1
  Pr  Pr1  1  0.72873600  0.22873600  0.45747300  1
  P  P0  1  0.24079700  0.36654800  0.22228500  1
  P  P1  1  0.01851200  0.14426300  0.77771500  1
  P  P2  1  0.75920300  0.63345200  0.77771500  1
  P  P3  1  0.98148800  0.85573700  0.22228500  1
  H  H0  1  0.84048500  0.31456700  0.00000000  1
  H  H1  1  0.15951500  0.68543300  0.00000000  1
  H  H2  1  0.83206900  0.09696500  0.00000000  1
  H  H3  1  0.16793100  0.90303500  0.00000000  1
  C  C0  1  0.96197900  0.22778300  0.00000000  1
  C  C1  1  0.03802100  0.77221700  0.00000000  1
  O  O0  1  0.90037900  0.60498900  0.62661100  1
  O  O1  1  0.27376800  0.97837800  0.37338900  1
  O  O2  1  0.09962100  0.39501100  0.37338900  1
  O  O3  1  0.72623200  0.02162200  0.62661100  1
  O  O4  1  0.38616300  0.57867100  0.26078000  1
  O  O5  1  0.12538400  0.31789200  0.73922000  1
  O  O6  1  0.61383700  0.42132900  0.73922000  1
  O  O7  1  0.87461600  0.68210800  0.26078000  1
  O  O8  1  0.56875700  0.73564900  0.76699900  1
  O  O9  1  0.80175800  0.96865000  0.23300100  1
  O  O10  1  0.43124300  0.26435100  0.23300100  1
  O  O11  1  0.19824200  0.03135000  0.76699900  1
loop_
_geom_bond_atom_site_label_1
_geom_bond_atom_site_label_2
_geom_bond_distance
_geom_bond_site_symmetry_2
C0 H0 1.101277 1_555
C0 H2 1.102100 1_555
C0 P1 1.813737 1_654
C0 P0 1.813738 1_655
C1 H1 1.101277 1_555
C1 H3 1.102100 1_555
C1 P3 1.813737 1_455
C1 P2 1.813738 1_454
O0 P2 1.557979 1_555
O0 Pr0 2.460048 1_655
O0 Pr1 2.610080 1_555
O1 P3 1.557979 1_455
O1 Pr1 2.460041 1_565
O1 Pr0 2.610073 1_555
O2 P0 1.557979 1_555
O2 Pr1 2.460048 1_455
O2 Pr0 2.610080 1_555
O3 P1 1.557979 1_655
O3 Pr0 2.460041 1_545
O3 Pr1 2.610073 1_555
O4 P0 1.561212 1_555
O4 Pr0 2.550641 1_555
O5 P1 1.561220 1_555
O5 Pr1 2.550642 1_455
O6 P2 1.561212 1_555
O6 Pr1 2.550641 1_555
O7 P3 1.561220 1_555
O7 Pr0 2.550642 1_655
O8 P2 1.517092 1_555
O8 Pr0 2.403927 1_555
O9 P3 1.517092 1_555
O9 Pr1 2.403925 1_565
O10 P0 1.517092 1_555
O10 Pr1 2.403927 1_555
O11 P1 1.517092 1_555
O11 Pr0 2.403925 1_545
