# generated using pymatgen
data_TmMnGe
_symmetry_space_group_name_H-M   'P 1'
_cell_length_a   6.80864205
_cell_length_b   6.80864205
_cell_length_c   4.09334300
_cell_angle_alpha   90.00000000
_cell_angle_beta   90.00000000
_cell_angle_gamma   120.00000053
_symmetry_Int_Tables_number   1
_chemical_formula_structural   TmMnGe
_chemical_formula_sum   'Tm3 Mn3 Ge3'
_cell_volume   164.33488792
_cell_formula_units_Z   3
loop_
 _symmetry_equiv_pos_site_id
 _symmetry_equiv_pos_as_xyz
  1  'x, y, z'
loop_
 _atom_site_type_symbol
 _atom_site_label
 _atom_site_symmetry_multiplicity
 _atom_site_fract_x
 _atom_site_fract_y
 _atom_site_fract_z
 _atom_site_occupancy
  Tm  Tm0  1  0.00000000  0.58238600  0.50000000  1
  Tm  Tm1  1  0.41761400  0.41761400  0.50000000  1
  Tm  Tm2  1  0.58238600  0.00000000  0.50000000  1
  Mn  Mn0  1  0.77684500  0.77684500  0.00000000  1
  Mn  Mn1  1  0.22315500  0.00000000  0.00000000  1
  Mn  Mn2  1  0.00000000  0.22315500  0.00000000  1
  Ge  Ge0  1  0.33333300  0.66666700  0.00000000  1
  Ge  Ge1  1  0.66666700  0.33333300  0.00000000  1
  Ge  Ge2  1  0.00000000  0.00000000  0.50000000  1
loop_
_geom_bond_atom_site_label_1
_geom_bond_atom_site_label_2
_geom_bond_distance
_geom_bond_site_symmetry_2
Ge0 Mn1 2.723253 1_565
Ge0 Mn2 2.723258 1_555
Ge0 Mn0 2.723260 1_555
Ge0 Tm0 2.892514 1_555
Ge0 Tm0 2.892514 1_554
Ge0 Tm2 2.892515 1_564
Ge0 Tm2 2.892515 1_565
Ge0 Tm1 2.892519 1_555
Ge0 Tm1 2.892519 1_554
Ge1 Mn2 2.723253 1_655
Ge1 Mn1 2.723258 1_555
Ge1 Mn0 2.723260 1_555
Ge1 Tm2 2.892514 1_554
Ge1 Tm2 2.892514 1_555
Ge1 Tm0 2.892515 1_655
Ge1 Tm0 2.892515 1_654
Ge1 Tm1 2.892519 1_555
Ge1 Tm1 2.892519 1_554
Ge2 Mn0 2.548997 1_446
Ge2 Mn0 2.548997 1_445
Ge2 Mn1 2.548997 1_555
Ge2 Mn1 2.548997 1_556
Ge2 Mn2 2.548997 1_555
Ge2 Mn2 2.548997 1_556
Ge2 Tm1 2.843384 1_555
Ge2 Tm0 2.843384 1_545
Ge2 Tm2 2.843384 1_455
