# generated using pymatgen
data_ZnAgAsO5
_symmetry_space_group_name_H-M   'P 1'
_cell_length_a   6.28579600
_cell_length_b   8.00271100
_cell_length_c   9.28925600
_cell_angle_alpha   90.00000000
_cell_angle_beta   90.00000000
_cell_angle_gamma   90.00000000
_symmetry_Int_Tables_number   1
_chemical_formula_structural   ZnAgAsO5
_chemical_formula_sum   'Zn4 Ag4 As4 O20'
_cell_volume   467.28124195
_cell_formula_units_Z   4
loop_
 _symmetry_equiv_pos_site_id
 _symmetry_equiv_pos_as_xyz
  1  'x, y, z'
loop_
 _atom_site_type_symbol
 _atom_site_label
 _atom_site_symmetry_multiplicity
 _atom_site_fract_x
 _atom_site_fract_y
 _atom_site_fract_z
 _atom_site_occupancy
  Zn  Zn0  1  0.01787000  0.71644900  0.69394500  1
  Zn  Zn1  1  0.48213000  0.28355100  0.19394500  1
  Zn  Zn2  1  0.98213000  0.21644900  0.80605500  1
  Zn  Zn3  1  0.51787000  0.78355100  0.30605500  1
  Ag  Ag0  1  0.25076200  0.75066000  0.00327100  1
  Ag  Ag1  1  0.24923800  0.24934000  0.50327100  1
  Ag  Ag2  1  0.74923800  0.25066000  0.49672900  1
  Ag  Ag3  1  0.75076200  0.74934000  0.99672900  1
  As  As0  1  0.47896600  0.11404000  0.86197300  1
  As  As1  1  0.02103400  0.88596000  0.36197300  1
  As  As2  1  0.52103400  0.61404000  0.63802700  1
  As  As3  1  0.97896600  0.38596000  0.13802700  1
  O  O0  1  0.49832500  0.92167500  0.95960500  1
  O  O1  1  0.00167500  0.07832500  0.45960500  1
  O  O2  1  0.50167500  0.42167500  0.54039500  1
  O  O3  1  0.99832500  0.57832500  0.04039500  1
  O  O4  1  0.45746000  0.26879500  0.98573700  1
  O  O5  1  0.04254000  0.73120500  0.48573700  1
  O  O6  1  0.54254000  0.76879500  0.51426300  1
  O  O7  1  0.95746000  0.23120500  0.01426300  1
  O  O8  1  0.69766500  0.12209400  0.75295200  1
  O  O9  1  0.80233500  0.87790600  0.25295200  1
  O  O10  1  0.30233500  0.62209400  0.74704800  1
  O  O11  1  0.19766500  0.37790600  0.24704800  1
  O  O12  1  0.25615800  0.10176900  0.75579100  1
  O  O13  1  0.24384200  0.89823100  0.25579100  1
  O  O14  1  0.74384200  0.60176900  0.74420900  1
  O  O15  1  0.75615800  0.39823100  0.24420900  1
  O  O16  1  0.00194600  0.84862600  0.88479400  1
  O  O17  1  0.49805400  0.15137400  0.38479400  1
  O  O18  1  0.99805400  0.34862600  0.61520600  1
  O  O19  1  0.50194600  0.65137400  0.11520600  1
loop_
_geom_bond_atom_site_label_1
_geom_bond_atom_site_label_2
_geom_bond_distance
_geom_bond_site_symmetry_2
Ag0 O19 2.050704 1_555
Ag0 O16 2.066882 1_554
Ag0 O0 2.111657 1_554
Ag0 O3 2.130447 1_455
Ag0 O10 2.613169 1_554
Ag0 O13 2.626594 1_555
Ag1 O18 2.050704 1_455
Ag1 O17 2.066882 1_555
Ag1 O1 2.111657 1_555
Ag1 O2 2.130447 1_555
Ag1 O11 2.613169 1_555
Ag1 O12 2.626594 1_555
Ag2 O17 2.050704 1_555
Ag2 O18 2.066882 1_555
Ag2 O2 2.111657 1_555
Ag2 O1 2.130447 1_655
Ag2 O8 2.613169 1_555
Ag2 O15 2.626594 1_555
Ag3 O16 2.050704 1_655
Ag3 O19 2.066882 1_556
Ag3 O3 2.111657 1_556
Ag3 O0 2.130447 1_555
Ag3 O9 2.613169 1_556
Ag3 O14 2.626594 1_555
As0 O4 1.695232 1_555
As0 O8 1.708671 1_555
As0 O12 1.715810 1_555
As0 O0 1.790868 1_545
As1 O5 1.695232 1_555
As1 O9 1.708671 1_455
As1 O13 1.715810 1_555
As1 O1 1.790868 1_565
As2 O6 1.695232 1_555
As2 O10 1.708671 1_555
As2 O14 1.715810 1_555
As2 O2 1.790868 1_555
As3 O7 1.695232 1_555
As3 O11 1.708671 1_655
As3 O15 1.715810 1_555
As3 O3 1.790868 1_555
O4 Zn1 1.943894 1_556
O5 Zn0 1.943894 1_555
O6 Zn3 1.943894 1_555
O7 Zn2 1.943894 1_554
O8 Zn2 2.002689 1_555
O9 Zn3 2.002689 1_555
O10 Zn0 2.002689 1_555
O11 Zn1 2.002689 1_555
O12 Zn2 2.006795 1_455
O13 Zn3 2.006795 1_555
O14 Zn0 2.006795 1_655
O15 Zn1 2.006795 1_555
O16 Zn0 2.066854 1_555
O17 Zn1 2.066854 1_555
O18 Zn2 2.066854 1_555
O19 Zn3 2.066854 1_555
