# generated using pymatgen
data_BiO2
_symmetry_space_group_name_H-M   'P 1'
_cell_length_a   8.46995634
_cell_length_b   8.46995634
_cell_length_c   8.46995634
_cell_angle_alpha   92.54768198
_cell_angle_beta   92.54768198
_cell_angle_gamma   155.65758977
_symmetry_Int_Tables_number   1
_chemical_formula_structural   BiO2
_chemical_formula_sum   'Bi4 O8'
_cell_volume   244.83094007
_cell_formula_units_Z   4
loop_
 _symmetry_equiv_pos_site_id
 _symmetry_equiv_pos_as_xyz
  1  'x, y, z'
loop_
 _atom_site_type_symbol
 _atom_site_label
 _atom_site_symmetry_multiplicity
 _atom_site_fract_x
 _atom_site_fract_y
 _atom_site_fract_z
 _atom_site_occupancy
  Bi  Bi0  1  0.65055400  0.83738600  0.48794000  1
  Bi  Bi1  1  0.16261400  0.65055400  0.81316800  1
  Bi  Bi2  1  0.83738600  0.34944600  0.18683200  1
  Bi  Bi3  1  0.34944600  0.16261400  0.51206000  1
  O  O0  1  0.83485900  0.53992000  0.37477900  1
  O  O1  1  0.46008000  0.83485900  0.29493900  1
  O  O2  1  0.53992000  0.16514100  0.70506100  1
  O  O3  1  0.16514100  0.46008000  0.62522100  1
  O  O4  1  0.16205800  0.21814200  0.38020000  1
  O  O5  1  0.78185800  0.16205800  0.94391500  1
  O  O6  1  0.83794200  0.78185800  0.61980000  1
  O  O7  1  0.21814200  0.83794200  0.05608500  1
loop_
_geom_bond_atom_site_label_1
_geom_bond_atom_site_label_2
_geom_bond_distance
_geom_bond_site_symmetry_2
Bi0 O1 2.230471 1_555
Bi0 O4 2.270799 1_555
Bi0 O4 2.270799 1_665
Bi0 O6 2.288447 1_555
Bi0 O3 2.298259 1_665
Bi0 O3 2.298259 1_555
Bi1 O3 2.230471 1_555
Bi1 O5 2.270794 1_455
Bi1 O5 2.270797 1_565
Bi1 O7 2.288454 1_556
Bi1 O2 2.298259 1_565
Bi1 O2 2.298259 1_455
Bi2 O0 2.230471 1_555
Bi2 O7 2.270794 1_655
Bi2 O7 2.270797 1_545
Bi2 O5 2.288454 1_554
Bi2 O1 2.298259 1_545
Bi2 O1 2.298259 1_655
Bi3 O2 2.230471 1_555
Bi3 O6 2.270799 1_445
Bi3 O6 2.270799 1_555
Bi3 O4 2.288447 1_555
Bi3 O0 2.298259 1_555
Bi3 O0 2.298259 1_445
