# generated using pymatgen
data_Zn3(SnPt)2
_symmetry_space_group_name_H-M   'P 1'
_cell_length_a   4.33998589
_cell_length_b   4.33998589
_cell_length_c   15.61043769
_cell_angle_alpha   90.00000000
_cell_angle_beta   90.00000000
_cell_angle_gamma   119.99999016
_symmetry_Int_Tables_number   1
_chemical_formula_structural   Zn3(SnPt)2
_chemical_formula_sum   'Zn6 Sn4 Pt4'
_cell_volume   254.63751703
_cell_formula_units_Z   2
loop_
 _symmetry_equiv_pos_site_id
 _symmetry_equiv_pos_as_xyz
  1  'x, y, z'
loop_
 _atom_site_type_symbol
 _atom_site_label
 _atom_site_symmetry_multiplicity
 _atom_site_fract_x
 _atom_site_fract_y
 _atom_site_fract_z
 _atom_site_occupancy
  Zn  Zn0  1  -0.00000000  0.00000000  0.16900217  1
  Zn  Zn1  1  0.00000000  0.00000000  0.83099783  1
  Zn  Zn2  1  0.00000000  -0.00000000  0.66900217  1
  Zn  Zn3  1  -0.00000000  0.00000000  0.33099783  1
  Zn  Zn4  1  0.33333300  0.66666700  0.75000000  1
  Zn  Zn5  1  0.66666700  0.33333300  0.25000000  1
  Sn  Sn0  1  0.33333300  0.66666700  0.07277098  1
  Sn  Sn1  1  0.66666700  0.33333300  0.92722902  1
  Sn  Sn2  1  0.66666700  0.33333300  0.57277098  1
  Sn  Sn3  1  0.33333300  0.66666700  0.42722902  1
  Pt  Pt0  1  0.00000000  -0.00000000  0.00000000  1
  Pt  Pt1  1  -0.00000000  0.00000000  0.50000000  1
  Pt  Pt2  1  0.33333300  0.66666700  0.25000000  1
  Pt  Pt3  1  0.66666700  0.33333300  0.75000000  1
loop_
_geom_bond_atom_site_label_1
_geom_bond_atom_site_label_2
_geom_bond_distance
_geom_bond_site_symmetry_2
Zn0 Zn3 2.528823 1_555
Zn0 Zn5 2.806638 1_455
Zn0 Zn5 2.806642 1_445
Zn0 Zn5 2.806642 1_555
Zn1 Zn2 2.528823 1_555
Zn1 Zn4 2.806638 1_545
Zn1 Zn4 2.806642 1_555
Zn1 Zn4 2.806642 1_445
Zn2 Zn4 2.806638 1_545
Zn2 Zn4 2.806642 1_555
Zn2 Zn4 2.806642 1_445
Zn3 Zn5 2.806638 1_455
Zn3 Zn5 2.806642 1_445
Zn3 Zn5 2.806642 1_555
Sn0 Zn0 2.921492 1_565
Sn0 Zn0 2.921496 1_665
Sn0 Zn0 2.921496 1_555
Sn1 Zn1 2.921492 1_655
Sn1 Zn1 2.921496 1_665
Sn1 Zn1 2.921496 1_555
Sn2 Zn2 2.921492 1_655
Sn2 Zn2 2.921496 1_555
Sn2 Zn2 2.921496 1_665
Sn3 Zn3 2.921492 1_565
Sn3 Zn3 2.921496 1_665
Sn3 Zn3 2.921496 1_555
Pt0 Zn1 2.638198 1_554
Pt0 Zn0 2.638198 1_555
Pt0 Sn0 2.751172 1_545
Pt0 Sn1 2.751172 1_454
Pt0 Sn1 2.751175 1_444
Pt0 Sn1 2.751175 1_554
Pt0 Sn0 2.751175 1_445
Pt0 Sn0 2.751175 1_555
Pt1 Zn3 2.638198 1_555
Pt1 Zn2 2.638198 1_555
Pt1 Sn3 2.751172 1_545
Pt1 Sn2 2.751172 1_455
Pt1 Sn3 2.751175 1_555
Pt1 Sn3 2.751175 1_445
Pt1 Sn2 2.751175 1_555
Pt1 Sn2 2.751175 1_445
Pt2 Zn5 2.505690 1_565
Pt2 Zn5 2.505690 1_455
Pt2 Zn5 2.505697 1_555
Pt2 Sn0 2.766623 1_555
Pt2 Sn3 2.766623 1_555
Pt2 Zn3 2.806638 1_565
Pt2 Zn0 2.806638 1_565
Pt2 Zn3 2.806642 1_555
Pt2 Zn0 2.806642 1_555
Pt2 Zn0 2.806642 1_665
Pt2 Zn3 2.806642 1_665
Pt3 Zn4 2.505690 1_655
Pt3 Zn4 2.505690 1_545
Pt3 Zn4 2.505697 1_555
Pt3 Sn2 2.766623 1_555
Pt3 Sn1 2.766623 1_555
Pt3 Zn2 2.806638 1_655
Pt3 Zn1 2.806638 1_655
Pt3 Zn2 2.806642 1_555
Pt3 Zn2 2.806642 1_665
Pt3 Zn1 2.806642 1_665
Pt3 Zn1 2.806642 1_555
