# generated using pymatgen
data_Hf2Sb3Te
_symmetry_space_group_name_H-M   'P 1'
_cell_length_a   3.69228900
_cell_length_b   5.64196542
_cell_length_c   7.94313739
_cell_angle_alpha   86.98888758
_cell_angle_beta   76.56040328
_cell_angle_gamma   109.09992403
_symmetry_Int_Tables_number   1
_chemical_formula_structural   Hf2Sb3Te
_chemical_formula_sum   'Hf2 Sb3 Te1'
_cell_volume   150.58285550
_cell_formula_units_Z   1
loop_
 _symmetry_equiv_pos_site_id
 _symmetry_equiv_pos_as_xyz
  1  'x, y, z'
loop_
 _atom_site_type_symbol
 _atom_site_label
 _atom_site_symmetry_multiplicity
 _atom_site_fract_x
 _atom_site_fract_y
 _atom_site_fract_z
 _atom_site_occupancy
  Hf  Hf0  1  0.03446300  0.87971000  0.81078500  1
  Hf  Hf1  1  0.96815000  0.12316600  0.18686600  1
  Sb  Sb0  1  0.61735100  0.76322000  0.52851700  1
  Sb  Sb1  1  0.38376700  0.23820100  0.47066700  1
  Sb  Sb2  1  0.29149300  0.69893000  0.11594400  1
  Te  Te0  1  0.70477700  0.29677400  0.88722100  1
loop_
_geom_bond_atom_site_label_1
_geom_bond_atom_site_label_2
_geom_bond_distance
_geom_bond_site_symmetry_2
Hf0 Sb0 2.988029 1_555
Hf0 Sb0 2.988034 1_455
Hf0 Te0 3.011379 1_565
Hf0 Te0 3.011380 1_465
Hf0 Sb1 3.025238 1_565
Hf0 Sb2 3.042924 1_556
Hf0 Sb2 3.042926 1_456
Hf0 Te0 3.081220 1_455
Hf1 Sb1 2.994637 1_555
Hf1 Sb1 2.994637 1_655
Hf1 Te0 3.004057 1_554
Hf1 Te0 3.004059 1_654
Hf1 Sb2 3.028328 1_545
Hf1 Sb2 3.028328 1_645
Hf1 Sb0 3.038437 1_545
Hf1 Sb2 3.041730 1_655
Sb0 Sb1 2.895613 1_555
Sb0 Sb1 3.115102 1_565
Sb0 Sb1 3.115104 1_665
