# generated using pymatgen
data_Sb3IO4
_symmetry_space_group_name_H-M   'P 1'
_cell_length_a   14.55605100
_cell_length_b   11.46937900
_cell_length_c   16.21338214
_cell_angle_alpha   69.96188223
_cell_angle_beta   90.00000000
_cell_angle_gamma   90.00000000
_symmetry_Int_Tables_number   1
_chemical_formula_structural   Sb3IO4
_chemical_formula_sum   'Sb24 I8 O32'
_cell_volume   2542.94892773
_cell_formula_units_Z   8
loop_
 _symmetry_equiv_pos_site_id
 _symmetry_equiv_pos_as_xyz
  1  'x, y, z'
loop_
 _atom_site_type_symbol
 _atom_site_label
 _atom_site_symmetry_multiplicity
 _atom_site_fract_x
 _atom_site_fract_y
 _atom_site_fract_z
 _atom_site_occupancy
  Sb  Sb0  1  0.09749400  0.56903000  0.41708500  1
  Sb  Sb1  1  0.05752800  0.96140400  0.10207800  1
  Sb  Sb2  1  0.08137900  0.76312900  0.51105600  1
  Sb  Sb3  1  0.11119700  0.24440200  0.00046200  1
  Sb  Sb4  1  0.18467900  0.66292400  0.72091100  1
  Sb  Sb5  1  0.13714200  0.35001800  0.77255400  1
  Sb  Sb6  1  0.36285800  0.85001800  0.77255400  1
  Sb  Sb7  1  0.31532100  0.16292400  0.72091100  1
  Sb  Sb8  1  0.38880300  0.74440200  0.00046200  1
  Sb  Sb9  1  0.41862100  0.26312900  0.51105600  1
  Sb  Sb10  1  0.44247200  0.46140400  0.10207800  1
  Sb  Sb11  1  0.40250600  0.06903000  0.41708500  1
  Sb  Sb12  1  0.59749400  0.93097000  0.58291500  1
  Sb  Sb13  1  0.55752800  0.53859600  0.89792200  1
  Sb  Sb14  1  0.58137900  0.73687100  0.48894400  1
  Sb  Sb15  1  0.61119700  0.25559800  0.99953800  1
  Sb  Sb16  1  0.68467900  0.83707600  0.27908900  1
  Sb  Sb17  1  0.63714200  0.14998200  0.22744600  1
  Sb  Sb18  1  0.86285800  0.64998200  0.22744600  1
  Sb  Sb19  1  0.81532100  0.33707600  0.27908900  1
  Sb  Sb20  1  0.88880300  0.75559800  0.99953800  1
  Sb  Sb21  1  0.91862100  0.23687100  0.48894400  1
  Sb  Sb22  1  0.94247200  0.03859600  0.89792200  1
  Sb  Sb23  1  0.90250600  0.43097000  0.58291500  1
  I  I0  1  0.19239800  0.78483800  0.09937700  1
  I  I1  1  0.29191900  0.51456500  0.45208900  1
  I  I2  1  0.20808100  0.01456500  0.45208900  1
  I  I3  1  0.30760200  0.28483800  0.09937700  1
  I  I4  1  0.69239800  0.71516200  0.90062300  1
  I  I5  1  0.79191900  0.98543500  0.54791100  1
  I  I6  1  0.70808100  0.48543500  0.54791100  1
  I  I7  1  0.80760200  0.21516200  0.90062300  1
  O  O0  1  0.04457400  0.57923900  0.52890600  1
  O  O1  1  0.01800500  0.11048400  0.99063100  1
  O  O2  1  0.34089800  0.59108500  0.08802700  1
  O  O3  1  0.37244900  0.24697900  0.39951600  1
  O  O4  1  0.31953700  0.75217600  0.89318600  1
  O  O5  1  0.31518700  0.19753300  0.59287000  1
  O  O6  1  0.30592700  0.74102900  0.71683200  1
  O  O7  1  0.27192600  0.98743300  0.75152100  1
  O  O8  1  0.22807400  0.48743300  0.75152100  1
  O  O9  1  0.19407300  0.24102900  0.71683200  1
  O  O10  1  0.18481300  0.69753300  0.59287000  1
  O  O11  1  0.18046300  0.25217600  0.89318600  1
  O  O12  1  0.12755100  0.74697900  0.39951600  1
  O  O13  1  0.15910200  0.09108500  0.08802700  1
  O  O14  1  0.48199500  0.61048400  0.99063100  1
  O  O15  1  0.45542600  0.07923900  0.52890600  1
  O  O16  1  0.54457400  0.92076100  0.47109400  1
  O  O17  1  0.51800500  0.38951600  0.00936900  1
  O  O18  1  0.84089800  0.90891500  0.91197300  1
  O  O19  1  0.87244900  0.25302100  0.60048400  1
  O  O20  1  0.81953700  0.74782400  0.10681400  1
  O  O21  1  0.81518700  0.30246700  0.40713000  1
  O  O22  1  0.80592700  0.75897100  0.28316800  1
  O  O23  1  0.77192600  0.51256700  0.24847900  1
  O  O24  1  0.72807400  0.01256700  0.24847900  1
  O  O25  1  0.69407300  0.25897100  0.28316800  1
  O  O26  1  0.68481300  0.80246700  0.40713000  1
  O  O27  1  0.68046300  0.24782400  0.10681400  1
  O  O28  1  0.62755100  0.75302100  0.60048400  1
  O  O29  1  0.65910200  0.40891500  0.91197300  1
  O  O30  1  0.98199500  0.88951600  0.00936900  1
  O  O31  1  0.95542600  0.42076100  0.47109400  1
loop_
_geom_bond_atom_site_label_1
_geom_bond_atom_site_label_2
_geom_bond_distance
_geom_bond_site_symmetry_2
I0 Sb1 2.831570 1_555
I1 Sb0 2.911805 1_555
I1 Sb9 3.277559 1_555
I2 Sb11 2.911805 1_555
I2 Sb2 3.277559 1_545
I3 Sb10 2.831570 1_555
I4 Sb13 2.831570 1_555
I5 Sb12 2.911805 1_555
I5 Sb21 3.277559 1_565
I6 Sb23 2.911805 1_555
I6 Sb14 3.277559 1_555
I7 Sb22 2.831570 1_555
O0 Sb0 2.009855 1_555
O0 Sb2 2.097807 1_555
O0 Sb23 2.629565 1_455
O1 Sb3 2.095818 1_556
O1 Sb1 2.098168 1_546
O1 Sb22 2.235472 1_455
O2 Sb8 1.970575 1_555
O2 Sb10 2.053764 1_555
O3 Sb9 1.996502 1_555
O3 Sb11 2.009896 1_555
O4 Sb8 1.985802 1_556
O4 Sb6 1.994543 1_555
O5 Sb7 1.975485 1_555
O5 Sb9 1.976987 1_555
O6 Sb6 1.959451 1_555
O6 Sb4 1.970052 1_555
O7 Sb6 1.995971 1_555
O7 Sb7 2.002998 1_565
O8 Sb5 1.995971 1_555
O8 Sb4 2.002998 1_555
O9 Sb5 1.959451 1_555
O9 Sb7 1.970052 1_555
O10 Sb4 1.975485 1_555
O10 Sb2 1.976987 1_555
O11 Sb3 1.985802 1_556
O11 Sb5 1.994543 1_555
O12 Sb2 1.996502 1_555
O12 Sb0 2.009896 1_555
O13 Sb3 1.970575 1_555
O13 Sb1 2.053764 1_545
O14 Sb8 2.095818 1_556
O14 Sb10 2.098168 1_556
O14 Sb13 2.235472 1_555
O15 Sb11 2.009855 1_555
O15 Sb9 2.097807 1_555
O15 Sb12 2.629565 1_545
O16 Sb12 2.009855 1_555
O16 Sb14 2.097807 1_555
O16 Sb11 2.629565 1_565
O17 Sb15 2.095818 1_554
O17 Sb13 2.098168 1_554
O17 Sb10 2.235472 1_555
O18 Sb20 1.970575 1_555
O18 Sb22 2.053764 1_565
O19 Sb21 1.996502 1_555
O19 Sb23 2.009896 1_555
O20 Sb20 1.985802 1_554
O20 Sb18 1.994543 1_555
O21 Sb19 1.975485 1_555
O21 Sb21 1.976987 1_555
O22 Sb18 1.959451 1_555
O22 Sb16 1.970052 1_555
O23 Sb18 1.995971 1_555
O23 Sb19 2.002998 1_555
O24 Sb17 1.995971 1_555
O24 Sb16 2.002998 1_545
O25 Sb17 1.959451 1_555
O25 Sb19 1.970052 1_555
O26 Sb16 1.975485 1_555
O26 Sb14 1.976987 1_555
O27 Sb15 1.985802 1_554
O27 Sb17 1.994543 1_555
O28 Sb14 1.996502 1_555
O28 Sb12 2.009896 1_555
O29 Sb15 1.970575 1_555
O29 Sb13 2.053764 1_555
O30 Sb20 2.095818 1_554
O30 Sb22 2.098168 1_564
O30 Sb1 2.235472 1_655
O31 Sb23 2.009855 1_555
O31 Sb21 2.097807 1_555
O31 Sb0 2.629565 1_655
