# generated using pymatgen
data_YMg5
_symmetry_space_group_name_H-M   'P 1'
_cell_length_a   12.93455467
_cell_length_b   12.93455467
_cell_length_c   15.19128098
_cell_angle_alpha   76.11792398
_cell_angle_beta   76.11792398
_cell_angle_gamma   29.04209710
_symmetry_Int_Tables_number   1
_chemical_formula_structural   YMg5
_chemical_formula_sum   'Y8 Mg40'
_cell_volume   1195.30335527
_cell_formula_units_Z   8
loop_
 _symmetry_equiv_pos_site_id
 _symmetry_equiv_pos_as_xyz
  1  'x, y, z'
loop_
 _atom_site_type_symbol
 _atom_site_label
 _atom_site_symmetry_multiplicity
 _atom_site_fract_x
 _atom_site_fract_y
 _atom_site_fract_z
 _atom_site_occupancy
  Y  Y0_0  1  0.30628100  0.30628100  0.13667750  1
  Y  Y0_1  1  0.30628100  0.30628100  0.63667750  1
  Y  Y0_2  1  0.30628100  0.80628100  0.13667750  1
  Y  Y0_3  1  0.30628100  0.80628100  0.63667750  1
  Y  Y0_4  1  0.80628100  0.30628100  0.13667750  1
  Y  Y0_5  1  0.80628100  0.30628100  0.63667750  1
  Y  Y0_6  1  0.80628100  0.80628100  0.13667750  1
  Y  Y0_7  1  0.80628100  0.80628100  0.63667750  1
  Mg  Mg0_0  1  0.49794650  0.49794650  0.49894200  1
  Mg  Mg0_1  1  0.49794650  0.49794650  0.99894200  1
  Mg  Mg0_2  1  0.49794650  0.99794650  0.49894200  1
  Mg  Mg0_3  1  0.49794650  0.99794650  0.99894200  1
  Mg  Mg0_4  1  0.99794650  0.49794650  0.49894200  1
  Mg  Mg0_5  1  0.99794650  0.49794650  0.99894200  1
  Mg  Mg0_6  1  0.99794650  0.99794650  0.49894200  1
  Mg  Mg0_7  1  0.99794650  0.99794650  0.99894200  1
  Mg  Mg1_0  1  0.16786300  0.16786300  0.16740900  1
  Mg  Mg1_1  1  0.16786300  0.16786300  0.66740900  1
  Mg  Mg1_2  1  0.16786300  0.66786300  0.16740900  1
  Mg  Mg1_3  1  0.16786300  0.66786300  0.66740900  1
  Mg  Mg1_4  1  0.66786300  0.16786300  0.16740900  1
  Mg  Mg1_5  1  0.66786300  0.16786300  0.66740900  1
  Mg  Mg1_6  1  0.66786300  0.66786300  0.16740900  1
  Mg  Mg1_7  1  0.66786300  0.66786300  0.66740900  1
  Mg  Mg2_0  1  0.47049350  0.47049350  0.30856600  1
  Mg  Mg2_1  1  0.47049350  0.47049350  0.80856600  1
  Mg  Mg2_2  1  0.47049350  0.97049350  0.30856600  1
  Mg  Mg2_3  1  0.47049350  0.97049350  0.80856600  1
  Mg  Mg2_4  1  0.97049350  0.47049350  0.30856600  1
  Mg  Mg2_5  1  0.97049350  0.47049350  0.80856600  1
  Mg  Mg2_6  1  0.97049350  0.97049350  0.30856600  1
  Mg  Mg2_7  1  0.97049350  0.97049350  0.80856600  1
  Mg  Mg3_0  1  0.33328250  0.33328250  0.33497950  1
  Mg  Mg3_1  1  0.33328250  0.33328250  0.83497950  1
  Mg  Mg3_2  1  0.33328250  0.83328250  0.33497950  1
  Mg  Mg3_3  1  0.33328250  0.83328250  0.83497950  1
  Mg  Mg3_4  1  0.83328250  0.33328250  0.33497950  1
  Mg  Mg3_5  1  0.83328250  0.33328250  0.83497950  1
  Mg  Mg3_6  1  0.83328250  0.83328250  0.33497950  1
  Mg  Mg3_7  1  0.83328250  0.83328250  0.83497950  1
  Mg  Mg4_0  1  0.14080050  0.14080050  0.47009200  1
  Mg  Mg4_1  1  0.14080050  0.14080050  0.97009200  1
  Mg  Mg4_2  1  0.14080050  0.64080050  0.47009200  1
  Mg  Mg4_3  1  0.14080050  0.64080050  0.97009200  1
  Mg  Mg4_4  1  0.64080050  0.14080050  0.47009200  1
  Mg  Mg4_5  1  0.64080050  0.14080050  0.97009200  1
  Mg  Mg4_6  1  0.64080050  0.64080050  0.47009200  1
  Mg  Mg4_7  1  0.64080050  0.64080050  0.97009200  1
loop_
_geom_bond_atom_site_label_1
_geom_bond_atom_site_label_2
_geom_bond_distance
_geom_bond_site_symmetry_2
Y0_0 Y0_6 3.243154 1_455
Y0_0 Y0_6 3.243154 1_545
Y0_1 Y0_7 3.243154 1_455
Y0_1 Y0_7 3.243154 1_545
Y0_2 Y0_4 3.243154 1_555
Y0_2 Y0_4 3.243154 1_465
Y0_3 Y0_5 3.243154 1_465
Y0_3 Y0_5 3.243154 1_555
Mg0_0 Mg2_0 3.134038 1_555
Mg0_0 Mg0_6 3.243154 1_545
Mg0_0 Mg0_6 3.243154 1_455
Mg0_0 Mg4_2 3.256412 1_555
Mg0_0 Mg4_4 3.256412 1_555
Mg0_0 Y0_5 3.264475 1_555
Mg0_0 Y0_3 3.264475 1_555
Mg0_0 Mg1_3 3.264524 1_555
Mg0_0 Mg1_5 3.264524 1_555
Mg0_0 Mg3_2 3.280559 1_555
Mg0_0 Mg3_4 3.280559 1_555
Mg0_0 Mg4_6 3.494723 1_555
Mg0_1 Mg2_1 3.134038 1_555
Mg0_1 Mg0_7 3.243154 1_545
Mg0_1 Mg0_7 3.243154 1_455
Mg0_1 Mg4_5 3.256412 1_555
Mg0_1 Mg4_3 3.256412 1_555
Mg0_1 Y0_2 3.264475 1_556
Mg0_1 Y0_4 3.264475 1_556
Mg0_1 Mg1_4 3.264524 1_556
Mg0_1 Mg1_2 3.264524 1_556
Mg0_1 Mg3_5 3.280559 1_555
Mg0_1 Mg3_3 3.280559 1_555
Mg0_1 Mg4_7 3.494723 1_555
Mg0_2 Mg2_2 3.134038 1_555
Mg0_2 Mg0_4 3.243154 1_465
Mg0_2 Mg0_4 3.243154 1_555
Mg0_2 Mg4_0 3.256412 1_565
Mg0_2 Mg4_6 3.256412 1_555
Mg0_2 Y0_1 3.264475 1_565
Mg0_2 Y0_7 3.264475 1_555
Mg0_2 Mg1_1 3.264524 1_565
Mg0_2 Mg1_7 3.264524 1_555
Mg0_2 Mg3_6 3.280559 1_555
Mg0_2 Mg3_0 3.280559 1_565
Mg0_2 Mg4_4 3.494723 1_565
Mg0_3 Mg2_3 3.134038 1_555
Mg0_3 Mg0_5 3.243154 1_465
Mg0_3 Mg0_5 3.243154 1_555
Mg0_3 Mg4_7 3.256412 1_555
Mg0_3 Mg4_1 3.256412 1_565
Mg0_3 Y0_0 3.264475 1_566
Mg0_3 Y0_6 3.264475 1_556
Mg0_3 Mg1_0 3.264524 1_566
Mg0_3 Mg1_6 3.264524 1_556
Mg0_3 Mg3_1 3.280559 1_565
Mg0_3 Mg3_7 3.280559 1_555
Mg0_3 Mg4_5 3.494723 1_565
Mg0_4 Mg2_4 3.134038 1_555
Mg0_4 Mg4_0 3.256412 1_655
Mg0_4 Mg4_6 3.256412 1_555
Mg0_4 Y0_1 3.264475 1_655
Mg0_4 Y0_7 3.264475 1_555
Mg0_4 Mg1_1 3.264524 1_655
Mg0_4 Mg1_7 3.264524 1_555
Mg0_4 Mg3_6 3.280559 1_555
Mg0_4 Mg3_0 3.280559 1_655
Mg0_4 Mg4_2 3.494723 1_655
Mg0_5 Mg2_5 3.134038 1_555
Mg0_5 Mg4_7 3.256412 1_555
Mg0_5 Mg4_1 3.256412 1_655
Mg0_5 Y0_0 3.264475 1_656
Mg0_5 Y0_6 3.264475 1_556
Mg0_5 Mg1_0 3.264524 1_656
Mg0_5 Mg1_6 3.264524 1_556
Mg0_5 Mg3_7 3.280559 1_555
Mg0_5 Mg3_1 3.280559 1_655
Mg0_5 Mg4_3 3.494723 1_655
Mg0_6 Mg2_6 3.134038 1_555
Mg0_6 Mg4_4 3.256412 1_565
Mg0_6 Mg4_2 3.256412 1_655
Mg0_6 Y0_5 3.264475 1_565
Mg0_6 Y0_3 3.264475 1_655
Mg0_6 Mg1_3 3.264524 1_655
Mg0_6 Mg1_5 3.264524 1_565
Mg0_6 Mg3_2 3.280559 1_655
Mg0_6 Mg3_4 3.280559 1_565
Mg0_6 Mg4_0 3.494723 1_665
Mg0_7 Mg2_7 3.134038 1_555
Mg0_7 Mg4_3 3.256412 1_655
Mg0_7 Mg4_5 3.256412 1_565
Mg0_7 Y0_2 3.264475 1_656
Mg0_7 Y0_4 3.264475 1_566
Mg0_7 Mg1_2 3.264524 1_656
Mg0_7 Mg1_4 3.264524 1_566
Mg0_7 Mg3_3 3.280559 1_655
Mg0_7 Mg3_5 3.280559 1_565
Mg0_7 Mg4_1 3.494723 1_665
Mg1_0 Mg2_4 3.219607 1_455
Mg1_0 Mg2_2 3.219607 1_545
Mg1_0 Mg4_1 3.232841 1_554
Mg1_0 Mg1_6 3.243154 1_455
Mg1_0 Mg1_6 3.243154 1_545
Mg1_0 Mg3_4 3.305060 1_455
Mg1_0 Mg3_2 3.305060 1_545
Mg1_0 Y0_4 3.361891 1_455
Mg1_0 Y0_2 3.361891 1_545
Mg1_0 Y0_0 3.381048 1_555
Mg1_1 Mg2_5 3.219607 1_455
Mg1_1 Mg2_3 3.219607 1_545
Mg1_1 Mg4_0 3.232841 1_555
Mg1_1 Mg1_7 3.243154 1_545
Mg1_1 Mg1_7 3.243154 1_455
Mg1_1 Mg3_5 3.305060 1_455
Mg1_1 Mg3_3 3.305060 1_545
Mg1_1 Y0_5 3.361891 1_455
Mg1_1 Y0_3 3.361891 1_545
Mg1_1 Y0_1 3.381048 1_555
Mg1_2 Mg2_6 3.219607 1_455
Mg1_2 Mg2_0 3.219607 1_555
Mg1_2 Mg4_3 3.232841 1_554
Mg1_2 Mg1_4 3.243154 1_465
Mg1_2 Mg1_4 3.243154 1_555
Mg1_2 Mg3_6 3.305060 1_455
Mg1_2 Mg3_0 3.305060 1_555
Mg1_2 Y0_6 3.361891 1_455
Mg1_2 Y0_0 3.361891 1_555
Mg1_2 Y0_2 3.381048 1_555
Mg1_3 Mg2_7 3.219607 1_455
Mg1_3 Mg2_1 3.219607 1_555
Mg1_3 Mg4_2 3.232841 1_555
Mg1_3 Mg1_5 3.243154 1_555
Mg1_3 Mg1_5 3.243154 1_465
Mg1_3 Mg3_7 3.305060 1_455
Mg1_3 Mg3_1 3.305060 1_555
Mg1_3 Y0_7 3.361891 1_455
Mg1_3 Y0_1 3.361891 1_555
Mg1_3 Y0_3 3.381048 1_555
Mg1_4 Mg2_6 3.219607 1_545
Mg1_4 Mg2_0 3.219607 1_555
Mg1_4 Mg4_5 3.232841 1_554
Mg1_4 Mg3_0 3.305060 1_555
Mg1_4 Mg3_6 3.305060 1_545
Mg1_4 Y0_6 3.361891 1_545
Mg1_4 Y0_0 3.361891 1_555
Mg1_4 Y0_4 3.381048 1_555
Mg1_5 Mg2_7 3.219607 1_545
Mg1_5 Mg2_1 3.219607 1_555
Mg1_5 Mg4_4 3.232841 1_555
Mg1_5 Mg3_7 3.305060 1_545
Mg1_5 Mg3_1 3.305060 1_555
Mg1_5 Y0_7 3.361891 1_545
Mg1_5 Y0_1 3.361891 1_555
Mg1_5 Y0_5 3.381048 1_555
Mg1_6 Mg2_4 3.219607 1_555
Mg1_6 Mg2_2 3.219607 1_555
Mg1_6 Mg4_7 3.232841 1_554
Mg1_6 Mg3_2 3.305060 1_555
Mg1_6 Mg3_4 3.305060 1_555
Mg1_6 Y0_4 3.361891 1_555
Mg1_6 Y0_2 3.361891 1_555
Mg1_6 Y0_6 3.381048 1_555
Mg1_7 Mg2_5 3.219607 1_555
Mg1_7 Mg2_3 3.219607 1_555
Mg1_7 Mg4_6 3.232841 1_555
Mg1_7 Mg3_5 3.305060 1_555
Mg1_7 Mg3_3 3.305060 1_555
Mg1_7 Y0_3 3.361891 1_555
Mg1_7 Y0_5 3.361891 1_555
Mg1_7 Y0_7 3.381048 1_555
Mg2_0 Mg4_4 3.194701 1_555
Mg2_0 Mg4_2 3.194701 1_555
Mg2_0 Mg2_6 3.243154 1_455
Mg2_0 Mg2_6 3.243154 1_545
Mg2_0 Y0_2 3.358966 1_555
Mg2_0 Y0_4 3.358966 1_555
Mg2_0 Mg3_0 3.359259 1_555
Mg2_0 Mg3_4 3.366060 1_555
Mg2_0 Mg3_2 3.366060 1_555
Mg2_1 Mg4_5 3.194701 1_555
Mg2_1 Mg4_3 3.194701 1_555
Mg2_1 Mg2_7 3.243154 1_545
Mg2_1 Mg2_7 3.243154 1_455
Mg2_1 Y0_3 3.358966 1_555
Mg2_1 Y0_5 3.358966 1_555
Mg2_1 Mg3_1 3.359259 1_555
Mg2_1 Mg3_5 3.366060 1_555
Mg2_1 Mg3_3 3.366060 1_555
Mg2_2 Mg4_0 3.194701 1_565
Mg2_2 Mg4_6 3.194701 1_555
Mg2_2 Mg2_4 3.243154 1_465
Mg2_2 Mg2_4 3.243154 1_555
Mg2_2 Y0_0 3.358966 1_565
Mg2_2 Y0_6 3.358966 1_555
Mg2_2 Mg3_2 3.359259 1_555
Mg2_2 Mg3_6 3.366060 1_555
Mg2_2 Mg3_0 3.366060 1_565
Mg2_3 Mg4_7 3.194701 1_555
Mg2_3 Mg4_1 3.194701 1_565
Mg2_3 Mg2_5 3.243154 1_555
Mg2_3 Mg2_5 3.243154 1_465
Mg2_3 Y0_1 3.358966 1_565
Mg2_3 Y0_7 3.358966 1_555
Mg2_3 Mg3_3 3.359259 1_555
Mg2_3 Mg3_1 3.366060 1_565
Mg2_3 Mg3_7 3.366060 1_555
Mg2_4 Mg4_0 3.194701 1_655
Mg2_4 Mg4_6 3.194701 1_555
Mg2_4 Y0_0 3.358966 1_655
Mg2_4 Y0_6 3.358966 1_555
Mg2_4 Mg3_4 3.359259 1_555
Mg2_4 Mg3_6 3.366060 1_555
Mg2_4 Mg3_0 3.366060 1_655
Mg2_5 Mg4_7 3.194701 1_555
Mg2_5 Mg4_1 3.194701 1_655
Mg2_5 Y0_1 3.358966 1_655
Mg2_5 Y0_7 3.358966 1_555
Mg2_5 Mg3_5 3.359259 1_555
Mg2_5 Mg3_7 3.366060 1_555
Mg2_5 Mg3_1 3.366060 1_655
Mg2_6 Mg4_2 3.194701 1_655
Mg2_6 Mg4_4 3.194701 1_565
Mg2_6 Y0_2 3.358966 1_655
Mg2_6 Y0_4 3.358966 1_565
Mg2_6 Mg3_6 3.359259 1_555
Mg2_6 Mg3_2 3.366060 1_655
Mg2_6 Mg3_4 3.366060 1_565
Mg2_7 Mg4_5 3.194701 1_565
Mg2_7 Mg4_3 3.194701 1_655
Mg2_7 Y0_5 3.358966 1_565
Mg2_7 Y0_3 3.358966 1_655
Mg2_7 Mg3_7 3.359259 1_555
Mg2_7 Mg3_3 3.366060 1_655
Mg2_7 Mg3_5 3.366060 1_565
Mg3_0 Mg4_4 3.222213 1_555
Mg3_0 Mg4_2 3.222213 1_555
Mg3_0 Mg3_6 3.243154 1_545
Mg3_0 Mg3_6 3.243154 1_455
Mg3_0 Y0_0 3.246824 1_555
Mg3_1 Mg4_5 3.222213 1_555
Mg3_1 Mg4_3 3.222213 1_555
Mg3_1 Mg3_7 3.243154 1_455
Mg3_1 Mg3_7 3.243154 1_545
Mg3_1 Y0_1 3.246824 1_555
Mg3_2 Mg4_6 3.222213 1_555
Mg3_2 Mg4_0 3.222213 1_565
Mg3_2 Mg3_4 3.243154 1_465
Mg3_2 Mg3_4 3.243154 1_555
Mg3_2 Y0_2 3.246824 1_555
Mg3_3 Mg4_1 3.222213 1_565
Mg3_3 Mg4_7 3.222213 1_555
Mg3_3 Mg3_5 3.243154 1_465
Mg3_3 Mg3_5 3.243154 1_555
Mg3_3 Y0_3 3.246824 1_555
Mg3_4 Mg4_6 3.222213 1_555
Mg3_4 Mg4_0 3.222213 1_655
Mg3_4 Y0_4 3.246824 1_555
Mg3_5 Mg4_1 3.222213 1_655
Mg3_5 Mg4_7 3.222213 1_555
Mg3_5 Y0_5 3.246824 1_555
Mg3_6 Mg4_4 3.222213 1_565
Mg3_6 Mg4_2 3.222213 1_655
Mg3_6 Y0_6 3.246824 1_555
Mg3_7 Mg4_3 3.222213 1_655
Mg3_7 Mg4_5 3.222213 1_565
Mg3_7 Y0_7 3.246824 1_555
Mg4_0 Mg4_6 3.243154 1_545
Mg4_0 Mg4_6 3.243154 1_455
Mg4_0 Y0_5 3.295242 1_455
Mg4_0 Y0_3 3.295242 1_545
Mg4_1 Mg4_7 3.243154 1_545
Mg4_1 Mg4_7 3.243154 1_455
Mg4_1 Y0_2 3.295242 1_546
Mg4_1 Y0_4 3.295242 1_456
Mg4_2 Mg4_4 3.243154 1_465
Mg4_2 Mg4_4 3.243154 1_555
Mg4_2 Y0_7 3.295242 1_455
Mg4_2 Y0_1 3.295242 1_555
Mg4_3 Mg4_5 3.243154 1_555
Mg4_3 Mg4_5 3.243154 1_465
Mg4_3 Y0_6 3.295242 1_456
Mg4_3 Y0_0 3.295242 1_556
Mg4_4 Y0_7 3.295242 1_545
Mg4_4 Y0_1 3.295242 1_555
Mg4_5 Y0_0 3.295242 1_556
Mg4_5 Y0_6 3.295242 1_546
Mg4_6 Y0_3 3.295242 1_555
Mg4_6 Y0_5 3.295242 1_555
Mg4_7 Y0_4 3.295242 1_556
Mg4_7 Y0_2 3.295242 1_556
