# generated using pymatgen
data_LiBeAsO5
_symmetry_space_group_name_H-M   'P 1'
_cell_length_a   4.93470800
_cell_length_b   7.84687300
_cell_length_c   10.50567100
_cell_angle_alpha   90.00000000
_cell_angle_beta   90.00000000
_cell_angle_gamma   90.00000000
_symmetry_Int_Tables_number   1
_chemical_formula_structural   LiBeAsO5
_chemical_formula_sum   'Li4 Be4 As4 O20'
_cell_volume   406.80087578
_cell_formula_units_Z   4
loop_
 _symmetry_equiv_pos_site_id
 _symmetry_equiv_pos_as_xyz
  1  'x, y, z'
loop_
 _atom_site_type_symbol
 _atom_site_label
 _atom_site_symmetry_multiplicity
 _atom_site_fract_x
 _atom_site_fract_y
 _atom_site_fract_z
 _atom_site_occupancy
  Li  Li0  1  0.16888600  0.80173400  0.68654000  1
  Li  Li1  1  0.66888600  0.19826600  0.31346000  1
  Li  Li2  1  0.66888600  0.30173400  0.81346000  1
  Li  Li3  1  0.16888600  0.69826600  0.18654000  1
  Be  Be0  1  0.67908200  0.61358500  0.64296500  1
  Be  Be1  1  0.17908200  0.38641500  0.35703500  1
  Be  Be2  1  0.17908200  0.11358500  0.85703500  1
  Be  Be3  1  0.67908200  0.88641500  0.14296500  1
  As  As0  1  0.67982200  0.89527900  0.85300100  1
  As  As1  1  0.17982200  0.10472100  0.14699900  1
  As  As2  1  0.17982200  0.39527900  0.64699900  1
  As  As3  1  0.67982200  0.60472100  0.35300100  1
  O  O0  1  0.74097100  0.69313800  0.50039800  1
  O  O1  1  0.24097100  0.30686200  0.49960200  1
  O  O2  1  0.24097100  0.19313800  0.99960200  1
  O  O3  1  0.74097100  0.80686200  0.00039800  1
  O  O4  1  0.79494700  0.76003000  0.73866600  1
  O  O5  1  0.29494700  0.23997000  0.26133400  1
  O  O6  1  0.29494700  0.26003000  0.76133400  1
  O  O7  1  0.79494700  0.73997000  0.23866600  1
  O  O8  1  0.35534000  0.58359900  0.66384900  1
  O  O9  1  0.85534000  0.41640100  0.33615100  1
  O  O10  1  0.85534000  0.08359900  0.83615100  1
  O  O11  1  0.35534000  0.91640100  0.16384900  1
  O  O12  1  0.83995100  0.43209800  0.67052800  1
  O  O13  1  0.33995100  0.56790200  0.32947200  1
  O  O14  1  0.33995100  0.93209800  0.82947200  1
  O  O15  1  0.83995100  0.06790200  0.17052800  1
  O  O16  1  0.10100200  0.62835600  0.00212700  1
  O  O17  1  0.60100200  0.37164400  0.99787300  1
  O  O18  1  0.60100200  0.12835600  0.49787300  1
  O  O19  1  0.10100200  0.87164400  0.50212700  1
loop_
_geom_bond_atom_site_label_1
_geom_bond_atom_site_label_2
_geom_bond_distance
_geom_bond_site_symmetry_2
Li0 O4 1.952443 1_455
Li0 O8 1.957867 1_555
Li0 O14 2.003451 1_555
Li0 O19 2.041225 1_555
Li1 O5 1.952443 1_555
Li1 O9 1.957867 1_555
Li1 O15 2.003451 1_555
Li1 O18 2.041225 1_555
Li2 O6 1.952443 1_555
Li2 O10 1.957867 1_555
Li2 O12 2.003451 1_555
Li2 O17 2.041225 1_555
Li3 O7 1.952443 1_455
Li3 O11 1.957867 1_555
Li3 O13 2.003451 1_555
Li3 O16 2.041225 1_555
Be0 O8 1.629644 1_555
Be0 O4 1.630416 1_555
Be0 O0 1.651133 1_555
Be0 O12 1.655932 1_555
Be1 O9 1.629644 1_455
Be1 O5 1.630416 1_555
Be1 O1 1.651133 1_555
Be1 O13 1.655932 1_555
Be2 O10 1.629644 1_455
Be2 O6 1.630416 1_555
Be2 O2 1.651133 1_555
Be2 O14 1.655932 1_545
Be3 O11 1.629644 1_555
Be3 O7 1.630416 1_555
Be3 O3 1.651133 1_555
Be3 O15 1.655932 1_565
As0 O4 1.700549 1_555
As0 O14 1.719725 1_555
As0 O10 1.721971 1_565
As0 O3 1.723448 1_556
As1 O5 1.700549 1_555
As1 O15 1.719725 1_455
As1 O11 1.721971 1_545
As1 O2 1.723448 1_554
As2 O6 1.700549 1_555
As2 O12 1.719725 1_455
As2 O8 1.721971 1_555
As2 O1 1.723448 1_555
As3 O7 1.700549 1_555
As3 O13 1.719725 1_555
As3 O9 1.721971 1_555
As3 O0 1.723448 1_555
