# generated using pymatgen
data_Sr4IBrN2
_symmetry_space_group_name_H-M   'P 1'
_cell_length_a   3.99625804
_cell_length_b   3.99625800
_cell_length_c   15.38848084
_cell_angle_alpha   82.53932049
_cell_angle_beta   90.00000096
_cell_angle_gamma   119.99999963
_symmetry_Int_Tables_number   1
_chemical_formula_structural   Sr4IBrN2
_chemical_formula_sum   'Sr4 I1 Br1 N2'
_cell_volume   210.42448529
_cell_formula_units_Z   1
loop_
 _symmetry_equiv_pos_site_id
 _symmetry_equiv_pos_as_xyz
  1  'x, y, z'
loop_
 _atom_site_type_symbol
 _atom_site_label
 _atom_site_symmetry_multiplicity
 _atom_site_fract_x
 _atom_site_fract_y
 _atom_site_fract_z
 _atom_site_occupancy
  Sr  Sr0  1  0.61539500  0.23078900  0.15381600  1
  Sr  Sr1  1  0.10967600  0.21935200  0.67097200  1
  Sr  Sr2  1  0.89032400  0.78064800  0.32902800  1
  Sr  Sr3  1  0.38460500  0.76921100  0.84618400  1
  I  I0  1  0.50000000  0.00000000  0.50000000  1
  Br  Br0  1  0.00000000  0.00000000  0.00000000  1
  N  N0  1  0.25293600  0.50587200  0.24119200  1
  N  N1  1  0.74706400  0.49412800  0.75880800  1
loop_
_geom_bond_atom_site_label_1
_geom_bond_atom_site_label_2
_geom_bond_distance
_geom_bond_site_symmetry_2
I0 Sr2 3.477054 1_445
I0 Sr1 3.477054 1_655
I0 Sr2 3.477054 1_545
I0 Sr1 3.477054 1_545
I0 Sr2 3.477054 1_555
I0 Sr1 3.477054 1_555
Br0 Sr3 3.286345 1_544
Br0 Sr0 3.286345 1_455
Br0 Sr3 3.286348 1_444
Br0 Sr0 3.286348 1_555
Br0 Sr3 3.286348 1_554
Br0 Sr0 3.286348 1_445
N0 Sr0 2.662822 1_455
N0 Sr0 2.662822 1_565
N0 Sr0 2.662825 1_555
N0 Sr2 2.666323 1_555
N0 Sr2 2.666323 1_445
N0 Sr2 2.666323 1_455
N1 Sr3 2.662822 1_655
N1 Sr3 2.662822 1_545
N1 Sr3 2.662825 1_555
N1 Sr1 2.666323 1_555
N1 Sr1 2.666323 1_665
N1 Sr1 2.666323 1_655
