# generated using pymatgen
data_SiPdN2
_symmetry_space_group_name_H-M   'P 1'
_cell_length_a   5.33350861
_cell_length_b   10.51170982
_cell_length_c   12.74011144
_cell_angle_alpha   90.00000000
_cell_angle_beta   90.00000000
_cell_angle_gamma   90.00000000
_symmetry_Int_Tables_number   1
_chemical_formula_structural   SiPdN2
_chemical_formula_sum   'Si16 Pd16 N32'
_cell_volume   714.26536395
_cell_formula_units_Z   16
loop_
 _symmetry_equiv_pos_site_id
 _symmetry_equiv_pos_as_xyz
  1  'x, y, z'
loop_
 _atom_site_type_symbol
 _atom_site_label
 _atom_site_symmetry_multiplicity
 _atom_site_fract_x
 _atom_site_fract_y
 _atom_site_fract_z
 _atom_site_occupancy
  Si  Si0  1  0.74553274  0.02142126  0.19376386  1
  Si  Si1  1  0.24553274  0.47857874  0.80623614  1
  Si  Si2  1  0.25446726  0.52142126  0.30623614  1
  Si  Si3  1  0.75446726  0.97857874  0.69376386  1
  Si  Si4  1  0.25446726  0.97857874  0.80623614  1
  Si  Si5  1  0.75446726  0.52142126  0.19376386  1
  Si  Si6  1  0.74553274  0.47857874  0.69376386  1
  Si  Si7  1  0.24553274  0.02142126  0.30623614  1
  Si  Si8  1  0.66126270  0.27586769  0.07050198  1
  Si  Si9  1  0.16126270  0.22413231  0.92949802  1
  Si  Si10  1  0.33873730  0.77586769  0.42949802  1
  Si  Si11  1  0.83873730  0.72413231  0.57050198  1
  Si  Si12  1  0.33873730  0.72413231  0.92949802  1
  Si  Si13  1  0.83873730  0.77586769  0.07050198  1
  Si  Si14  1  0.66126270  0.22413231  0.57050198  1
  Si  Si15  1  0.16126270  0.27586769  0.42949802  1
  Pd  Pd0  1  0.75561445  0.03145630  0.44507216  1
  Pd  Pd1  1  0.25561445  0.46854370  0.55492784  1
  Pd  Pd2  1  0.24438555  0.53145630  0.05492784  1
  Pd  Pd3  1  0.74438555  0.96854370  0.94507216  1
  Pd  Pd4  1  0.24438555  0.96854370  0.55492784  1
  Pd  Pd5  1  0.74438555  0.53145630  0.44507216  1
  Pd  Pd6  1  0.75561445  0.46854370  0.94507216  1
  Pd  Pd7  1  0.25561445  0.03145630  0.05492784  1
  Pd  Pd8  1  0.61435259  0.26364955  0.33024550  1
  Pd  Pd9  1  0.11435259  0.23635045  0.66975450  1
  Pd  Pd10  1  0.38564741  0.76364955  0.16975450  1
  Pd  Pd11  1  0.88564741  0.73635045  0.83024550  1
  Pd  Pd12  1  0.38564741  0.73635045  0.66975450  1
  Pd  Pd13  1  0.88564741  0.76364955  0.33024550  1
  Pd  Pd14  1  0.61435259  0.23635045  0.83024550  1
  Pd  Pd15  1  0.11435259  0.26364955  0.16975450  1
  N  N0  1  0.57393375  0.48064265  0.30268915  1
  N  N1  1  0.07393375  0.01935735  0.69731085  1
  N  N2  1  0.42606625  0.98064265  0.19731085  1
  N  N3  1  0.92606625  0.51935735  0.80268915  1
  N  N4  1  0.42606625  0.51935735  0.69731085  1
  N  N5  1  0.92606625  0.98064265  0.30268915  1
  N  N6  1  0.57393375  0.01935735  0.80268915  1
  N  N7  1  0.07393375  0.48064265  0.19731085  1
  N  N8  1  0.45690919  0.30131155  0.48750121  1
  N  N9  1  0.95690919  0.19868845  0.51249879  1
  N  N10  1  0.54309081  0.80131155  0.01249879  1
  N  N11  1  0.04309081  0.69868845  0.98750121  1
  N  N12  1  0.54309081  0.69868845  0.51249879  1
  N  N13  1  0.04309081  0.80131155  0.48750121  1
  N  N14  1  0.45690919  0.19868845  0.98750121  1
  N  N15  1  0.95690919  0.30131155  0.01249879  1
  N  N16  1  0.59271328  0.43752273  0.09276137  1
  N  N17  1  0.09271328  0.06247727  0.90723863  1
  N  N18  1  0.40728672  0.93752273  0.40723863  1
  N  N19  1  0.90728672  0.56247727  0.59276137  1
  N  N20  1  0.40728672  0.56247727  0.90723863  1
  N  N21  1  0.90728672  0.93752273  0.09276137  1
  N  N22  1  0.59271328  0.06247727  0.59276137  1
  N  N23  1  0.09271328  0.43752273  0.40723863  1
  N  N24  1  0.73550067  0.18829720  0.18251533  1
  N  N25  1  0.23550067  0.31170280  0.81748467  1
  N  N26  1  0.26449933  0.68829720  0.31748467  1
  N  N27  1  0.76449933  0.81170280  0.68251533  1
  N  N28  1  0.26449933  0.81170280  0.81748467  1
  N  N29  1  0.76449933  0.68829720  0.18251533  1
  N  N30  1  0.73550067  0.31170280  0.68251533  1
  N  N31  1  0.23550067  0.18829720  0.31748467  1
loop_
_geom_bond_atom_site_label_1
_geom_bond_atom_site_label_2
_geom_bond_distance
_geom_bond_site_symmetry_2
N0 Si5 1.742597 1_555
N0 Si2 1.757550 1_555
N0 Pd5 2.098162 1_555
N0 Pd8 2.317874 1_555
N1 Si4 1.742597 1_545
N1 Si3 1.757550 1_445
N1 Pd4 2.098162 1_545
N1 Pd9 2.317874 1_555
N2 Si7 1.742597 1_565
N2 Si0 1.757550 1_565
N2 Pd7 2.098162 1_565
N2 Pd10 2.317874 1_555
N3 Si6 1.742597 1_555
N3 Si1 1.757550 1_655
N3 Pd6 2.098162 1_555
N3 Pd11 2.317874 1_555
N4 Si1 1.742597 1_555
N4 Si6 1.757550 1_555
N4 Pd1 2.098162 1_555
N4 Pd12 2.317874 1_555
N5 Si0 1.742597 1_565
N5 Si7 1.757550 1_665
N5 Pd0 2.098162 1_565
N5 Pd13 2.317874 1_555
N6 Si3 1.742597 1_545
N6 Si4 1.757550 1_545
N6 Pd3 2.098162 1_545
N6 Pd14 2.317874 1_555
N7 Si2 1.742597 1_555
N7 Si5 1.757550 1_455
N7 Pd2 2.098162 1_555
N7 Pd15 2.317874 1_555
N8 Si14 1.721711 1_555
N8 Si15 1.761820 1_555
N8 Pd8 2.208099 1_555
N8 Pd1 2.231759 1_555
N9 Si15 1.721711 1_655
N9 Si14 1.761820 1_555
N9 Pd9 2.208099 1_655
N9 Pd0 2.231759 1_555
N10 Si12 1.721711 1_554
N10 Si13 1.761820 1_555
N10 Pd10 2.208099 1_555
N10 Pd3 2.231759 1_554
N11 Si13 1.721711 1_456
N11 Si12 1.761820 1_555
N11 Pd11 2.208099 1_455
N11 Pd2 2.231759 1_556
N12 Si10 1.721711 1_555
N12 Si11 1.761820 1_555
N12 Pd12 2.208099 1_555
N12 Pd5 2.231759 1_555
N13 Si11 1.721711 1_455
N13 Si10 1.761820 1_555
N13 Pd13 2.208099 1_455
N13 Pd4 2.231759 1_555
N14 Si8 1.721711 1_556
N14 Si9 1.761820 1_555
N14 Pd14 2.208099 1_555
N14 Pd7 2.231759 1_556
N15 Si9 1.721711 1_654
N15 Si8 1.761820 1_555
N15 Pd15 2.208099 1_655
N15 Pd6 2.231759 1_554
N16 Si8 1.761140 1_555
N16 Si5 1.782657 1_555
N16 Pd6 2.097984 1_554
N16 Pd2 2.158413 1_555
N17 Si9 1.761140 1_555
N17 Si4 1.782657 1_545
N17 Pd7 2.097984 1_556
N17 Pd3 2.158413 1_445
N18 Si10 1.761140 1_555
N18 Si7 1.782657 1_565
N18 Pd4 2.097984 1_555
N18 Pd0 2.158413 1_565
N19 Si11 1.761140 1_555
N19 Si6 1.782657 1_555
N19 Pd5 2.097984 1_555
N19 Pd1 2.158413 1_655
N20 Si12 1.761140 1_555
N20 Si1 1.782657 1_555
N20 Pd2 2.097984 1_556
N20 Pd6 2.158413 1_555
N21 Si13 1.761140 1_555
N21 Si0 1.782657 1_565
N21 Pd3 2.097984 1_554
N21 Pd7 2.158413 1_665
N22 Si14 1.761140 1_555
N22 Si3 1.782657 1_545
N22 Pd0 2.097984 1_555
N22 Pd4 2.158413 1_545
N23 Si15 1.761140 1_555
N23 Si2 1.782657 1_555
N23 Pd1 2.097984 1_555
N23 Pd5 2.158413 1_455
N24 Si8 1.743741 1_555
N24 Si0 1.760809 1_555
N24 Pd8 2.141773 1_555
N24 Pd15 2.176394 1_655
N25 Si9 1.743741 1_555
N25 Si1 1.760809 1_555
N25 Pd9 2.141773 1_555
N25 Pd14 2.176394 1_555
N26 Si10 1.743741 1_555
N26 Si2 1.760809 1_555
N26 Pd10 2.141773 1_555
N26 Pd13 2.176394 1_455
N27 Si11 1.743741 1_555
N27 Si3 1.760809 1_555
N27 Pd11 2.141773 1_555
N27 Pd12 2.176394 1_555
N28 Si12 1.743741 1_555
N28 Si4 1.760809 1_555
N28 Pd12 2.141773 1_555
N28 Pd11 2.176394 1_455
N29 Si13 1.743741 1_555
N29 Si5 1.760809 1_555
N29 Pd13 2.141773 1_555
N29 Pd10 2.176394 1_555
N30 Si14 1.743741 1_555
N30 Si6 1.760809 1_555
N30 Pd14 2.141773 1_555
N30 Pd9 2.176394 1_655
N31 Si15 1.743741 1_555
N31 Si7 1.760809 1_555
N31 Pd15 2.141773 1_555
N31 Pd8 2.176394 1_555
