# generated using pymatgen
data_Ti2CoO5
_symmetry_space_group_name_H-M   'P 1'
_cell_length_a   11.28110531
_cell_length_b   5.25280081
_cell_length_c   10.19453114
_cell_angle_alpha   90.13748591
_cell_angle_beta   89.84910796
_cell_angle_gamma   69.07203347
_symmetry_Int_Tables_number   1
_chemical_formula_structural   Ti2CoO5
_chemical_formula_sum   'Ti12 Co6 O30'
_cell_volume   564.24340889
_cell_formula_units_Z   6
loop_
 _symmetry_equiv_pos_site_id
 _symmetry_equiv_pos_as_xyz
  1  'x, y, z'
loop_
 _atom_site_type_symbol
 _atom_site_label
 _atom_site_symmetry_multiplicity
 _atom_site_fract_x
 _atom_site_fract_y
 _atom_site_fract_z
 _atom_site_occupancy
  Ti  Ti0  1  0.04642400  0.73474300  0.93558100  1
  Ti  Ti1  1  0.04565400  0.73364300  0.55172500  1
  Ti  Ti2  1  0.28716800  0.26421100  0.06788900  1
  Ti  Ti3  1  0.28799100  0.26339400  0.43634700  1
  Ti  Ti4  1  0.37905800  0.73247000  0.92810200  1
  Ti  Ti5  1  0.37864700  0.72957300  0.56852000  1
  Ti  Ti6  1  0.62267200  0.27581800  0.43566200  1
  Ti  Ti7  1  0.61769000  0.27318300  0.06925100  1
  Ti  Ti8  1  0.71018500  0.73584700  0.93741200  1
  Ti  Ti9  1  0.71209800  0.73372000  0.55764300  1
  Ti  Ti10  1  0.95136900  0.28292000  0.07413600  1
  Ti  Ti11  1  0.93790400  0.37866000  0.74710600  1
  Co  Co0  1  0.06532100  0.62304400  0.24876700  1
  Co  Co1  1  0.27110100  0.37916300  0.74988100  1
  Co  Co2  1  0.39234900  0.62354200  0.24956000  1
  Co  Co3  1  0.60623600  0.37350000  0.75030000  1
  Co  Co4  1  0.72854500  0.61797500  0.24976400  1
  Co  Co5  1  0.95371300  0.28025600  0.43502400  1
  O  O0  1  0.11165100  0.37234600  0.44614200  1
  O  O1  1  0.10538100  0.37503900  0.05379000  1
  O  O2  1  0.06788100  0.53609800  0.75653800  1
  O  O3  1  0.01605500  0.88890600  0.39240200  1
  O  O4  1  0.01177800  0.91086700  0.10754100  1
  O  O5  1  0.32578700  0.09083700  0.61250700  1
  O  O6  1  0.32451200  0.09137600  0.88685700  1
  O  O7  1  0.26324900  0.42490000  0.24780600  1
  O  O8  1  0.22757200  0.63667900  0.57356200  1
  O  O9  1  0.22508400  0.63905800  0.93103500  1
  O  O10  1  0.43582000  0.37292100  0.05342200  1
  O  O11  1  0.43670300  0.38235500  0.44214600  1
  O  O12  1  0.40889100  0.56608600  0.75115700  1
  O  O13  1  0.34130400  0.90648800  0.11061800  1
  O  O14  1  0.34561700  0.90455600  0.38945300  1
  O  O15  1  0.65203000  0.09159100  0.61037100  1
  O  O16  1  0.65578100  0.08589700  0.88637400  1
  O  O17  1  0.58930900  0.43036800  0.24644900  1
  O  O18  1  0.56403100  0.62899200  0.56720600  1
  O  O19  1  0.56375100  0.62676400  0.93799000  1
  O  O20  1  0.76329100  0.38790800  0.43276500  1
  O  O21  1  0.76973500  0.36694100  0.06094900  1
  O  O22  1  0.75180200  0.53744900  0.75173700  1
  O  O23  1  0.68330500  0.90971100  0.38746500  1
  O  O24  1  0.67647600  0.90646800  0.11130400  1
  O  O25  1  0.98587300  0.09692600  0.88045500  1
  O  O26  1  0.98506300  0.09585200  0.62856500  1
  O  O27  1  0.92767100  0.44814100  0.23844600  1
  O  O28  1  0.89467000  0.63265400  0.57635100  1
  O  O29  1  0.89579900  0.62016200  0.93592600  1
loop_
_geom_bond_atom_site_label_1
_geom_bond_atom_site_label_2
_geom_bond_distance
_geom_bond_site_symmetry_2
Co0 O3 1.958247 1_555
Co0 O4 2.021407 1_555
Co0 O27 2.070275 1_455
Co0 O7 2.099668 1_555
Co0 O1 2.326913 1_555
Co0 O0 2.362753 1_555
Co1 O5 1.988328 1_555
Co1 O6 1.990493 1_555
Co1 O12 2.114437 1_555
Co1 O2 2.142136 1_555
Co1 O8 2.200827 1_555
Co1 O9 2.240616 1_555
Co2 O14 1.980082 1_555
Co2 O13 1.987430 1_555
Co2 O7 2.072629 1_555
Co2 O17 2.087200 1_555
Co2 O11 2.296586 1_555
Co2 O10 2.343652 1_555
Co3 O16 1.982412 1_555
Co3 O15 1.983455 1_555
Co3 O12 2.090617 1_555
Co3 O22 2.109232 1_555
Co3 O18 2.252121 1_555
Co3 O19 2.277746 1_555
Co4 O23 2.001660 1_555
Co4 O24 2.003152 1_555
Co4 O27 2.102812 1_555
Co4 O17 2.131997 1_555
Co4 O20 2.184233 1_555
Co4 O21 2.281503 1_555
Co5 O3 1.967368 1_645
Co5 O0 2.009443 1_655
Co5 O20 2.016794 1_555
Co5 O27 2.169469 1_555
Co5 O26 2.173573 1_555
Co5 O28 2.246614 1_555
O0 Ti3 1.865533 1_555
O0 Ti1 2.071515 1_555
O1 Ti2 1.927238 1_555
O1 Ti10 1.973573 1_455
O1 Ti0 2.140565 1_554
O2 Ti11 1.926078 1_455
O2 Ti0 2.070515 1_555
O2 Ti1 2.307928 1_555
O3 Ti1 1.797057 1_555
O4 Ti10 1.858152 1_465
O4 Ti0 1.952469 1_554
O5 Ti5 1.828621 1_545
O5 Ti3 1.991048 1_555
O6 Ti4 1.812754 1_545
O6 Ti2 2.030355 1_556
O7 Ti2 1.994165 1_555
O7 Ti3 2.081713 1_555
O8 Ti5 1.933678 1_555
O8 Ti1 1.943418 1_555
O8 Ti3 2.300673 1_555
O9 Ti0 1.895429 1_555
O9 Ti4 1.966592 1_555
O9 Ti2 2.312383 1_556
O10 Ti7 1.935000 1_555
O10 Ti2 1.960413 1_555
O10 Ti4 2.182001 1_554
O11 Ti6 1.969580 1_555
O11 Ti3 1.989392 1_555
O11 Ti5 2.132168 1_555
O12 Ti4 1.977415 1_555
O12 Ti5 2.030334 1_555
O13 Ti2 1.810819 1_565
O13 Ti4 2.046597 1_554
O14 Ti3 1.822823 1_565
O14 Ti5 2.020671 1_555
O15 Ti9 1.834420 1_545
O15 Ti6 2.000200 1_555
O16 Ti8 1.796790 1_545
O16 Ti7 2.076831 1_556
O17 Ti7 1.961743 1_555
O17 Ti6 2.077154 1_555
O18 Ti9 1.938576 1_555
O18 Ti5 1.965574 1_555
O18 Ti6 2.187290 1_555
O19 Ti8 1.932205 1_555
O19 Ti4 1.958192 1_555
O19 Ti7 2.195285 1_556
O20 Ti6 1.879121 1_555
O20 Ti9 2.118832 1_555
O21 Ti10 1.940898 1_555
O21 Ti7 1.947987 1_555
O21 Ti8 2.208758 1_554
O22 Ti11 1.963130 1_555
O22 Ti8 2.127384 1_555
O22 Ti9 2.205297 1_555
O23 Ti6 1.860520 1_565
O23 Ti9 1.940640 1_555
O24 Ti7 1.851218 1_565
O24 Ti8 1.958529 1_554
O25 Ti0 1.865640 1_645
O25 Ti11 1.942265 1_555
O25 Ti10 2.172473 1_556
O26 Ti11 1.836750 1_555
O26 Ti1 1.939523 1_645
O27 Ti10 1.858878 1_555
O28 Ti9 1.944648 1_555
O28 Ti1 1.972159 1_655
O28 Ti11 2.144514 1_555
O29 Ti8 1.960823 1_555
O29 Ti0 1.995041 1_655
O29 Ti10 2.177066 1_556
O29 Ti11 2.256819 1_555
