# generated using pymatgen
data_HfCrAgS4
_symmetry_space_group_name_H-M   'P 1'
_cell_length_a   7.38803192
_cell_length_b   7.38803192
_cell_length_c   7.38803192
_cell_angle_alpha   119.60327372
_cell_angle_beta   118.67281434
_cell_angle_gamma   91.50138989
_symmetry_Int_Tables_number   1
_chemical_formula_structural   HfCrAgS4
_chemical_formula_sum   'Hf2 Cr2 Ag2 S8'
_cell_volume   288.73334083
_cell_formula_units_Z   2
loop_
 _symmetry_equiv_pos_site_id
 _symmetry_equiv_pos_as_xyz
  1  'x, y, z'
loop_
 _atom_site_type_symbol
 _atom_site_label
 _atom_site_symmetry_multiplicity
 _atom_site_fract_x
 _atom_site_fract_y
 _atom_site_fract_z
 _atom_site_occupancy
  Hf  Hf0  1  0.75000000  0.75909400  0.00909400  1
  Hf  Hf1  1  0.25000000  0.74090600  0.49090600  1
  Cr  Cr0  1  0.25163700  0.25000000  0.50163700  1
  Cr  Cr1  1  0.24836300  0.75000000  0.99836300  1
  Ag  Ag0  1  0.85845300  0.10845300  0.75000000  1
  Ag  Ag1  1  0.64154700  0.39154700  0.25000000  1
  S  S0  1  0.46477500  0.50513900  0.96154600  1
  S  S1  1  0.49331700  0.50524200  0.52089600  1
  S  S2  1  0.04359300  0.50322900  0.53845400  1
  S  S3  1  0.48434600  0.97242100  0.97910400  1
  S  S4  1  0.03522500  0.99677100  0.04036300  1
  S  S5  1  0.00668300  0.52757900  0.01192500  1
  S  S6  1  0.45640700  0.99486100  0.45963700  1
  S  S7  1  0.01565400  0.99475800  0.48807500  1
loop_
_geom_bond_atom_site_label_1
_geom_bond_atom_site_label_2
_geom_bond_distance
_geom_bond_site_symmetry_2
Hf0 S3 2.544586 1_554
Hf0 S7 2.544586 1_655
Hf0 S0 2.552535 1_554
Hf0 S4 2.552539 1_655
Hf0 S1 2.586420 1_554
Hf0 S5 2.586420 1_655
Hf1 S1 2.544586 1_555
Hf1 S5 2.544586 1_555
Hf1 S6 2.552529 1_555
Hf1 S2 2.552535 1_555
Hf1 S3 2.586420 1_555
Hf1 S7 2.586420 1_555
Cr0 S6 2.441343 1_545
Cr0 S0 2.441344 1_555
Cr0 S2 2.446572 1_555
Cr0 S4 2.446577 1_545
Cr0 S7 2.465577 1_545
Cr0 S1 2.465577 1_555
Cr1 S4 2.441343 1_556
Cr1 S2 2.441344 1_555
Cr1 S0 2.446572 1_555
Cr1 S6 2.446577 1_556
Cr1 S5 2.465577 1_556
Cr1 S3 2.465577 1_555
Ag0 S4 2.470851 1_646
Ag0 S6 2.470856 1_545
Ag0 S7 2.530013 1_645
Ag0 S5 2.530013 1_656
Ag1 S2 2.470857 1_655
Ag1 S0 2.470857 1_554
Ag1 S1 2.530013 1_555
Ag1 S3 2.530013 1_544
