# generated using pymatgen
data_Si5H6C4(NCl5)2
_symmetry_space_group_name_H-M   'P 1'
_cell_length_a   13.55205500
_cell_length_b   13.65940200
_cell_length_c   14.06753000
_cell_angle_alpha   90.00000000
_cell_angle_beta   90.00000000
_cell_angle_gamma   90.00000000
_symmetry_Int_Tables_number   1
_chemical_formula_structural   Si5H6C4(NCl5)2
_chemical_formula_sum   'Si20 H24 C16 N8 Cl40'
_cell_volume   2604.08221907
_cell_formula_units_Z   4
loop_
 _symmetry_equiv_pos_site_id
 _symmetry_equiv_pos_as_xyz
  1  'x, y, z'
loop_
 _atom_site_type_symbol
 _atom_site_label
 _atom_site_symmetry_multiplicity
 _atom_site_fract_x
 _atom_site_fract_y
 _atom_site_fract_z
 _atom_site_occupancy
  Si  Si0  1  0.89035000  0.03030600  0.83032100  1
  Si  Si1  1  0.39035000  0.46969400  0.66967900  1
  Si  Si2  1  0.10965000  0.53030600  0.66967900  1
  Si  Si3  1  0.60965000  0.96969400  0.83032100  1
  Si  Si4  1  0.10965000  0.96969400  0.16967900  1
  Si  Si5  1  0.60965000  0.53030600  0.33032100  1
  Si  Si6  1  0.89035000  0.46969400  0.33032100  1
  Si  Si7  1  0.39035000  0.03030600  0.16967900  1
  Si  Si8  1  0.83652500  0.01849600  0.66820600  1
  Si  Si9  1  0.33652500  0.48150300  0.83179400  1
  Si  Si10  1  0.16347500  0.51849700  0.83179400  1
  Si  Si11  1  0.66347500  0.98150300  0.66820600  1
  Si  Si12  1  0.16347500  0.98150300  0.33179400  1
  Si  Si13  1  0.66347500  0.51849700  0.16820600  1
  Si  Si14  1  0.83652500  0.48150300  0.16820600  1
  Si  Si15  1  0.33652500  0.01849600  0.33179400  1
  Si  Si16  1  0.75000000  0.00000000  0.93109200  1
  Si  Si17  1  0.25000000  0.50000000  0.56890800  1
  Si  Si18  1  0.25000000  0.00000000  0.06890800  1
  Si  Si19  1  0.75000000  0.50000000  0.43109200  1
  H  H0  1  0.72059100  0.61798400  0.83596600  1
  H  H1  1  0.22059100  0.88201600  0.66403400  1
  H  H2  1  0.27940900  0.11798400  0.66403400  1
  H  H3  1  0.77940900  0.38201600  0.83596600  1
  H  H4  1  0.27940900  0.38201600  0.16403400  1
  H  H5  1  0.77940900  0.11798400  0.33596600  1
  H  H6  1  0.72059100  0.88201600  0.33596600  1
  H  H7  1  0.22059100  0.61798400  0.16403400  1
  H  H8  1  0.81904000  0.60172100  0.75268200  1
  H  H9  1  0.31904000  0.89827900  0.74731800  1
  H  H10  1  0.18096000  0.10172100  0.74731800  1
  H  H11  1  0.68096000  0.39827900  0.75268200  1
  H  H12  1  0.18096000  0.39827900  0.24731800  1
  H  H13  1  0.68096000  0.10172100  0.25268200  1
  H  H14  1  0.81904000  0.89827900  0.25268200  1
  H  H15  1  0.31904000  0.60172100  0.24731800  1
  H  H16  1  0.84579800  0.62577800  0.87495100  1
  H  H17  1  0.34579800  0.87422200  0.62504900  1
  H  H18  1  0.15420200  0.12577800  0.62504900  1
  H  H19  1  0.65420200  0.37422200  0.87495100  1
  H  H20  1  0.15420200  0.37422200  0.12504900  1
  H  H21  1  0.65420200  0.12577800  0.37495100  1
  H  H22  1  0.84579800  0.87422200  0.37495100  1
  H  H23  1  0.34579800  0.62577800  0.12504900  1
  C  C0  1  0.79406700  0.74659800  0.79760500  1
  C  C1  1  0.29406700  0.75340200  0.70239500  1
  C  C2  1  0.20593300  0.24659800  0.70239500  1
  C  C3  1  0.70593300  0.25340200  0.79760500  1
  C  C4  1  0.20593300  0.25340200  0.20239500  1
  C  C5  1  0.70593300  0.24659800  0.29760500  1
  C  C6  1  0.79406700  0.75340200  0.29760500  1
  C  C7  1  0.29406700  0.74659800  0.20239500  1
  C  C8  1  0.79517300  0.64242200  0.81612300  1
  C  C9  1  0.29517300  0.85757800  0.68387700  1
  C  C10  1  0.20482700  0.14242200  0.68387700  1
  C  C11  1  0.70482700  0.35757800  0.81612300  1
  C  C12  1  0.20482700  0.35757800  0.18387700  1
  C  C13  1  0.70482700  0.14242200  0.31612300  1
  C  C14  1  0.79517300  0.85757800  0.31612300  1
  C  C15  1  0.29517300  0.64242200  0.18387700  1
  N  N0  1  0.79170100  0.83055500  0.78377800  1
  N  N1  1  0.29170100  0.66944500  0.71622200  1
  N  N2  1  0.20829900  0.33055500  0.71622200  1
  N  N3  1  0.70829900  0.16944500  0.78377800  1
  N  N4  1  0.20829900  0.16944500  0.21622200  1
  N  N5  1  0.70829900  0.33055500  0.28377800  1
  N  N6  1  0.79170100  0.66944500  0.28377800  1
  N  N7  1  0.29170100  0.83055500  0.21622200  1
  Cl  Cl0  1  0.77561300  0.88384600  0.02242700  1
  Cl  Cl1  1  0.27561300  0.61615400  0.47757300  1
  Cl  Cl2  1  0.22438700  0.38384600  0.47757300  1
  Cl  Cl3  1  0.72438700  0.11615400  0.02242700  1
  Cl  Cl4  1  0.22438700  0.11615400  0.97757300  1
  Cl  Cl5  1  0.72438700  0.38384600  0.52242700  1
  Cl  Cl6  1  0.77561300  0.61615400  0.52242700  1
  Cl  Cl7  1  0.27561300  0.88384600  0.97757300  1
  Cl  Cl8  1  0.95227400  0.16647000  0.85695300  1
  Cl  Cl9  1  0.45227400  0.33353000  0.64304700  1
  Cl  Cl10  1  0.04772600  0.66647000  0.64304700  1
  Cl  Cl11  1  0.54772600  0.83353000  0.85695300  1
  Cl  Cl12  1  0.04772600  0.83353000  0.14304700  1
  Cl  Cl13  1  0.54772600  0.66647000  0.35695300  1
  Cl  Cl14  1  0.95227400  0.33353000  0.35695300  1
  Cl  Cl15  1  0.45227400  0.16647000  0.14304700  1
  Cl  Cl16  1  0.00582500  0.93532500  0.85775600  1
  Cl  Cl17  1  0.50582500  0.56467500  0.64224400  1
  Cl  Cl18  1  0.99417500  0.43532500  0.64224400  1
  Cl  Cl19  1  0.49417500  0.06467500  0.85775600  1
  Cl  Cl20  1  0.99417500  0.06467500  0.14224400  1
  Cl  Cl21  1  0.49417500  0.43532500  0.35775600  1
  Cl  Cl22  1  0.00582500  0.56467500  0.35775600  1
  Cl  Cl23  1  0.50582500  0.93532500  0.14224400  1
  Cl  Cl24  1  0.91702500  0.91514600  0.59312500  1
  Cl  Cl25  1  0.41702500  0.58485400  0.90687500  1
  Cl  Cl26  1  0.08297500  0.41514600  0.90687500  1
  Cl  Cl27  1  0.58297500  0.08485400  0.59312500  1
  Cl  Cl28  1  0.08297500  0.08485400  0.40687500  1
  Cl  Cl29  1  0.58297500  0.41514600  0.09312500  1
  Cl  Cl30  1  0.91702500  0.58485400  0.09312500  1
  Cl  Cl31  1  0.41702500  0.91514600  0.40687500  1
  Cl  Cl32  1  0.86645200  0.14649600  0.59421600  1
  Cl  Cl33  1  0.36645200  0.35350400  0.90578400  1
  Cl  Cl34  1  0.13354800  0.64649600  0.90578400  1
  Cl  Cl35  1  0.63354800  0.85350400  0.59421600  1
  Cl  Cl36  1  0.13354800  0.85350400  0.40578400  1
  Cl  Cl37  1  0.63354800  0.64649600  0.09421600  1
  Cl  Cl38  1  0.86645200  0.35350400  0.09421600  1
  Cl  Cl39  1  0.36645200  0.14649600  0.40578400  1
loop_
_geom_bond_atom_site_label_1
_geom_bond_atom_site_label_2
_geom_bond_distance
_geom_bond_site_symmetry_2
C0 N0 1.163623 1_555
C0 C8 1.446708 1_555
C1 N1 1.163623 1_555
C1 C9 1.446708 1_555
C2 N2 1.163623 1_555
C3 N3 1.163623 1_555
C4 N4 1.163623 1_555
C5 N5 1.163623 1_555
C6 N6 1.163623 1_555
C7 N7 1.163623 1_555
C8 H16 1.098747 1_555
C8 H8 1.100082 1_555
C8 H0 1.100428 1_555
C9 H17 1.098747 1_555
C9 H9 1.100082 1_555
C9 H1 1.100428 1_555
C10 H18 1.098747 1_555
C10 H10 1.100082 1_555
C10 H2 1.100428 1_555
C10 C2 1.446708 1_555
C11 H19 1.098747 1_555
C11 H11 1.100082 1_555
C11 H3 1.100428 1_555
C11 C3 1.446708 1_555
C12 H20 1.098747 1_555
C12 H12 1.100082 1_555
C12 H4 1.100428 1_555
C12 C4 1.446708 1_555
C13 H21 1.098747 1_555
C13 H13 1.100082 1_555
C13 H5 1.100428 1_555
C13 C5 1.446708 1_555
C14 H22 1.098747 1_555
C14 H14 1.100082 1_555
C14 H6 1.100428 1_555
C14 C6 1.446708 1_555
C15 H23 1.098747 1_555
C15 H15 1.100082 1_555
C15 H7 1.100428 1_555
C15 C7 1.446708 1_555
Cl0 Si16 2.070900 1_564
Cl1 Si17 2.070900 1_555
Cl2 Si17 2.070900 1_555
Cl3 Si16 2.070900 1_554
Cl4 Si18 2.070900 1_556
Cl5 Si19 2.070900 1_555
Cl6 Si19 2.070900 1_555
Cl7 Si18 2.070900 1_566
Cl8 Si0 2.074587 1_555
Cl9 Si1 2.074587 1_555
Cl10 Si2 2.074587 1_555
Cl11 Si3 2.074587 1_555
Cl12 Si4 2.074587 1_555
Cl13 Si5 2.074587 1_555
Cl14 Si6 2.074587 1_555
Cl15 Si7 2.074587 1_555
Cl16 Si0 2.069092 1_465
Cl17 Si1 2.069092 1_555
Cl18 Si2 2.069092 1_655
Cl19 Si3 2.069092 1_545
Cl20 Si4 2.069092 1_645
Cl21 Si5 2.069092 1_555
Cl22 Si6 2.069092 1_455
Cl23 Si7 2.069092 1_565
Cl24 Si8 2.073310 1_565
Cl25 Si9 2.073319 1_555
Cl26 Si10 2.073319 1_555
Cl27 Si11 2.073319 1_545
Cl28 Si12 2.073319 1_545
Cl29 Si13 2.073319 1_555
Cl30 Si14 2.073319 1_555
Cl31 Si15 2.073310 1_565
Cl32 Si8 2.074798 1_555
Cl33 Si9 2.074786 1_555
Cl34 Si10 2.074786 1_555
Cl35 Si11 2.074786 1_555
Cl36 Si12 2.074786 1_555
Cl37 Si13 2.074786 1_555
Cl38 Si14 2.074786 1_555
Cl39 Si15 2.074798 1_555
