# generated using pymatgen
data_CdH6C2O7
_symmetry_space_group_name_H-M   'P 1'
_cell_length_a   6.15928339
_cell_length_b   6.75815938
_cell_length_c   8.63278301
_cell_angle_alpha   72.66820549
_cell_angle_beta   73.14751027
_cell_angle_gamma   78.90456815
_symmetry_Int_Tables_number   1
_chemical_formula_structural   CdH6C2O7
_chemical_formula_sum   'Cd2 H12 C4 O14'
_cell_volume   326.07541031
_cell_formula_units_Z   2
loop_
 _symmetry_equiv_pos_site_id
 _symmetry_equiv_pos_as_xyz
  1  'x, y, z'
loop_
 _atom_site_type_symbol
 _atom_site_label
 _atom_site_symmetry_multiplicity
 _atom_site_fract_x
 _atom_site_fract_y
 _atom_site_fract_z
 _atom_site_occupancy
  Cd  Cd0  1  0.72839600  0.05305000  0.34520300  1
  Cd  Cd1  1  0.62468700  0.43376300  0.92520200  1
  H  H0  1  0.96639100  0.65483600  0.32289600  1
  H  H1  1  0.73412400  0.65721700  0.27692100  1
  H  H2  1  0.29165200  0.91747300  0.45236900  1
  H  H3  1  0.44463300  0.74135600  0.56459700  1
  H  H4  1  0.89607200  0.75765300  0.70602100  1
  H  H5  1  0.05312500  0.58057500  0.81764600  1
  H  H6  1  0.38301700  0.75544000  0.08434500  1
  H  H7  1  0.62458100  0.82294900  0.00948000  1
  H  H8  1  0.29395800  0.46963500  0.41856800  1
  H  H9  1  0.07305800  0.52665600  0.55280500  1
  H  H10  1  0.09117600  0.98922100  0.88445000  1
  H  H11  1  0.29024000  0.97108400  0.72896200  1
  C  C0  1  0.61717900  0.34617900  0.58942100  1
  C  C1  1  0.72445700  0.13536800  0.68976200  1
  C  C2  1  0.24682800  0.16648600  0.19286800  1
  C  C3  1  0.10997000  0.32367500  0.07238600  1
  O  O0  1  0.59346100  0.35541700  0.44560900  1
  O  O1  1  0.55884100  0.49682400  0.65703500  1
  O  O2  1  0.79244300  0.98979400  0.61595000  1
  O  O3  1  0.73719900  0.12083700  0.83661500  1
  O  O4  1  0.45271100  0.19602600  0.17224700  1
  O  O5  1  0.14562200  0.02071300  0.30211700  1
  O  O6  1  0.20967100  0.47093200  0.96397100  1
  O  O7  1  0.90508900  0.29086400  0.09356800  1
  O  O8  1  0.85082900  0.74624400  0.26183900  1
  O  O9  1  0.39854600  0.89422800  0.52579800  1
  O  O10  1  0.94266900  0.60350400  0.74693300  1
  O  O11  1  0.54409800  0.70028500  0.07434200  1
  O  O12  1  0.12674800  0.50044500  0.43993900  1
  O  O13  1  0.25566800  0.99376900  0.84190600  1
loop_
_geom_bond_atom_site_label_1
_geom_bond_atom_site_label_2
_geom_bond_distance
_geom_bond_site_symmetry_2
Cd0 O8 2.314808 1_545
Cd0 O0 2.366785 1_555
Cd0 O2 2.382377 1_545
Cd0 O7 2.389282 1_555
Cd0 O9 2.390815 1_545
Cd0 O4 2.454626 1_555
Cd0 O5 2.463353 1_655
Cd1 O4 2.356984 1_556
Cd1 O10 2.363357 1_555
Cd1 O1 2.365479 1_555
Cd1 O3 2.372705 1_555
Cd1 O11 2.411510 1_556
Cd1 O7 2.450554 1_556
Cd1 O6 2.452791 1_555
H0 O8 1.010131 1_555
H0 O12 1.624493 1_655
H1 O8 0.980390 1_555
H2 O9 1.001414 1_555
H2 O5 1.695273 1_565
H3 O9 0.998102 1_555
H3 O1 1.719007 1_555
H4 O10 1.008394 1_555
H4 O2 1.627521 1_555
H5 O10 1.001687 1_455
H6 O11 0.978728 1_555
H7 O11 0.983434 1_555
H8 O12 0.984000 1_555
H9 O12 0.991743 1_555
H10 O13 0.975613 1_555
H11 O13 0.987739 1_555
C0 O1 1.264105 1_555
C0 O0 1.273587 1_555
C1 O3 1.266310 1_555
C1 O2 1.268659 1_545
C2 O5 1.261148 1_555
C2 O4 1.274745 1_555
C3 O6 1.261141 1_554
C3 O7 1.274674 1_455
