# generated using pymatgen
data_AlCo2Si
_symmetry_space_group_name_H-M   'P 1'
_cell_length_a   11.06939918
_cell_length_b   11.06939918
_cell_length_c   11.06939918
_cell_angle_alpha   153.30155536
_cell_angle_beta   133.23391099
_cell_angle_gamma   54.66458204
_symmetry_Int_Tables_number   1
_chemical_formula_structural   AlCo2Si
_chemical_formula_sum   'Al8 Co16 Si8'
_cell_volume   441.64430753
_cell_formula_units_Z   8
loop_
 _symmetry_equiv_pos_site_id
 _symmetry_equiv_pos_as_xyz
  1  'x, y, z'
loop_
 _atom_site_type_symbol
 _atom_site_label
 _atom_site_symmetry_multiplicity
 _atom_site_fract_x
 _atom_site_fract_y
 _atom_site_fract_z
 _atom_site_occupancy
  Al  Al0_0  1  0.00000000  0.00000000  0.00000000  1
  Al  Al0_1  1  0.00000000  0.00000000  0.50000000  1
  Al  Al0_2  1  0.00000000  0.50000000  0.00000000  1
  Al  Al0_3  1  0.00000000  0.50000000  0.50000000  1
  Al  Al0_4  1  0.50000000  0.00000000  0.00000000  1
  Al  Al0_5  1  0.50000000  0.00000000  0.50000000  1
  Al  Al0_6  1  0.50000000  0.50000000  0.00000000  1
  Al  Al0_7  1  0.50000000  0.50000000  0.50000000  1
  Co  Co0_0  1  0.13415850  0.13415850  0.00000000  1
  Co  Co0_1  1  0.13415850  0.13415850  0.50000000  1
  Co  Co0_2  1  0.13415850  0.63415850  0.00000000  1
  Co  Co0_3  1  0.13415850  0.63415850  0.50000000  1
  Co  Co0_4  1  0.63415850  0.13415850  0.00000000  1
  Co  Co0_5  1  0.63415850  0.13415850  0.50000000  1
  Co  Co0_6  1  0.63415850  0.63415850  0.00000000  1
  Co  Co0_7  1  0.63415850  0.63415850  0.50000000  1
  Co  Co1_0  1  0.36584150  0.36584150  0.00000000  1
  Co  Co1_1  1  0.36584150  0.36584150  0.50000000  1
  Co  Co1_2  1  0.36584150  0.86584150  0.00000000  1
  Co  Co1_3  1  0.36584150  0.86584150  0.50000000  1
  Co  Co1_4  1  0.86584150  0.36584150  0.00000000  1
  Co  Co1_5  1  0.86584150  0.36584150  0.50000000  1
  Co  Co1_6  1  0.86584150  0.86584150  0.00000000  1
  Co  Co1_7  1  0.86584150  0.86584150  0.50000000  1
  Si  Si0_0  1  0.25000000  0.25000000  0.00000000  1
  Si  Si0_1  1  0.25000000  0.25000000  0.50000000  1
  Si  Si0_2  1  0.25000000  0.75000000  0.00000000  1
  Si  Si0_3  1  0.25000000  0.75000000  0.50000000  1
  Si  Si0_4  1  0.75000000  0.25000000  0.00000000  1
  Si  Si0_5  1  0.75000000  0.25000000  0.50000000  1
  Si  Si0_6  1  0.75000000  0.75000000  0.00000000  1
  Si  Si0_7  1  0.75000000  0.75000000  0.50000000  1
loop_
_geom_bond_atom_site_label_1
_geom_bond_atom_site_label_2
_geom_bond_distance
_geom_bond_site_symmetry_2
Al0_0 Si0_2 2.541259 1_545
Al0_0 Si0_4 2.541259 1_455
Al0_0 Si0_7 2.541259 1_444
Al0_0 Si0_1 2.541259 1_555
Al0_0 Al0_3 2.555766 1_555
Al0_0 Al0_3 2.555766 1_544
Al0_0 Co0_0 2.638521 1_555
Al0_0 Co1_6 2.638521 1_445
Al0_1 Si0_3 2.541259 1_545
Al0_1 Si0_0 2.541259 1_556
Al0_1 Si0_6 2.541259 1_445
Al0_1 Si0_5 2.541259 1_455
Al0_1 Al0_2 2.555766 1_556
Al0_1 Al0_2 2.555766 1_545
Al0_1 Co1_7 2.638521 1_445
Al0_1 Co0_1 2.638521 1_555
Al0_2 Si0_3 2.541259 1_555
Al0_2 Si0_0 2.541259 1_555
Al0_2 Si0_5 2.541259 1_454
Al0_2 Si0_6 2.541259 1_455
Al0_2 Co0_2 2.638521 1_555
Al0_2 Co1_4 2.638521 1_455
Al0_3 Si0_4 2.541259 1_455
Al0_3 Si0_7 2.541259 1_455
Al0_3 Si0_1 2.541259 1_555
Al0_3 Si0_2 2.541259 1_556
Al0_3 Co1_5 2.638521 1_455
Al0_3 Co0_3 2.638521 1_555
Al0_4 Si0_5 2.541259 1_555
Al0_4 Si0_0 2.541259 1_555
Al0_4 Si0_3 2.541259 1_544
Al0_4 Si0_6 2.541259 1_545
Al0_4 Al0_7 2.555766 1_555
Al0_4 Al0_7 2.555766 1_544
Al0_4 Co0_4 2.638521 1_555
Al0_4 Co1_2 2.638521 1_545
Al0_5 Si0_1 2.541259 1_555
Al0_5 Si0_2 2.541259 1_545
Al0_5 Si0_4 2.541259 1_556
Al0_5 Si0_7 2.541259 1_545
Al0_5 Al0_6 2.555766 1_545
Al0_5 Al0_6 2.555766 1_556
Al0_5 Co0_5 2.638521 1_555
Al0_5 Co1_3 2.638521 1_545
Al0_6 Si0_1 2.541259 1_554
Al0_6 Si0_4 2.541259 1_555
Al0_6 Si0_2 2.541259 1_555
Al0_6 Si0_7 2.541259 1_555
Al0_6 Co1_0 2.638521 1_555
Al0_6 Co0_6 2.638521 1_555
Al0_7 Si0_5 2.541259 1_555
Al0_7 Si0_0 2.541259 1_555
Al0_7 Si0_6 2.541259 1_556
Al0_7 Si0_3 2.541259 1_555
Al0_7 Co1_1 2.638521 1_555
Al0_7 Co0_7 2.638521 1_555
Co0_0 Si0_0 2.278277 1_555
Co0_0 Co0_3 2.555766 1_555
Co0_0 Co0_3 2.555766 1_544
Co0_0 Co1_2 2.566666 1_545
Co0_0 Co1_1 2.566666 1_555
Co0_0 Co1_7 2.566666 1_444
Co0_0 Co1_4 2.566666 1_455
Co0_1 Si0_1 2.278277 1_555
Co0_1 Co0_2 2.555766 1_545
Co0_1 Co0_2 2.555766 1_556
Co0_1 Co1_0 2.566666 1_556
Co0_1 Co1_3 2.566666 1_545
Co0_1 Co1_6 2.566666 1_445
Co0_1 Co1_5 2.566666 1_455
Co0_2 Si0_2 2.278277 1_555
Co0_2 Co1_3 2.566666 1_555
Co0_2 Co1_0 2.566666 1_555
Co0_2 Co1_5 2.566666 1_454
Co0_2 Co1_6 2.566666 1_455
Co0_3 Si0_3 2.278277 1_555
Co0_3 Co1_4 2.566666 1_455
Co0_3 Co1_1 2.566666 1_555
Co0_3 Co1_2 2.566666 1_556
Co0_3 Co1_7 2.566666 1_455
Co0_4 Si0_4 2.278277 1_555
Co0_4 Co0_7 2.555766 1_544
Co0_4 Co0_7 2.555766 1_555
Co0_4 Co1_5 2.566666 1_555
Co0_4 Co1_0 2.566666 1_555
Co0_4 Co1_3 2.566666 1_544
Co0_4 Co1_6 2.566666 1_545
Co0_5 Si0_5 2.278277 1_555
Co0_5 Co0_6 2.555766 1_545
Co0_5 Co0_6 2.555766 1_556
Co0_5 Co1_1 2.566666 1_555
Co0_5 Co1_2 2.566666 1_545
Co0_5 Co1_4 2.566666 1_556
Co0_5 Co1_7 2.566666 1_545
Co0_6 Si0_6 2.278277 1_555
Co0_6 Co1_7 2.566666 1_555
Co0_6 Co1_1 2.566666 1_554
Co0_6 Co1_4 2.566666 1_555
Co0_6 Co1_2 2.566666 1_555
Co0_7 Si0_7 2.278277 1_555
Co0_7 Co1_3 2.566666 1_555
Co0_7 Co1_5 2.566666 1_555
Co0_7 Co1_6 2.566666 1_556
Co0_7 Co1_0 2.566666 1_555
Co1_0 Si0_0 2.278277 1_555
Co1_0 Co1_3 2.555766 1_555
Co1_0 Co1_3 2.555766 1_544
Co1_1 Si0_1 2.278277 1_555
Co1_1 Co1_2 2.555766 1_556
Co1_1 Co1_2 2.555766 1_545
Co1_2 Si0_2 2.278277 1_555
Co1_3 Si0_3 2.278277 1_555
Co1_4 Si0_4 2.278277 1_555
Co1_4 Co1_7 2.555766 1_555
Co1_4 Co1_7 2.555766 1_544
Co1_5 Si0_5 2.278277 1_555
Co1_5 Co1_6 2.555766 1_556
Co1_5 Co1_6 2.555766 1_545
Co1_6 Si0_6 2.278277 1_555
Co1_7 Si0_7 2.278277 1_555
Si0_0 Si0_3 2.555766 1_544
Si0_0 Si0_3 2.555766 1_555
Si0_1 Si0_2 2.555766 1_545
Si0_1 Si0_2 2.555766 1_556
Si0_4 Si0_7 2.555766 1_555
Si0_4 Si0_7 2.555766 1_544
Si0_5 Si0_6 2.555766 1_545
Si0_5 Si0_6 2.555766 1_556
