# generated using pymatgen
data_NaTl
_symmetry_space_group_name_H-M   'P 1'
_cell_length_a   5.28824196
_cell_length_b   5.28824299
_cell_length_c   5.28824366
_cell_angle_alpha   60.00000206
_cell_angle_beta   59.99999564
_cell_angle_gamma   59.99999987
_symmetry_Int_Tables_number   1
_chemical_formula_structural   NaTl
_chemical_formula_sum   'Na2 Tl2'
_cell_volume   104.57290480
_cell_formula_units_Z   2
loop_
 _symmetry_equiv_pos_site_id
 _symmetry_equiv_pos_as_xyz
  1  'x, y, z'
loop_
 _atom_site_type_symbol
 _atom_site_label
 _atom_site_symmetry_multiplicity
 _atom_site_fract_x
 _atom_site_fract_y
 _atom_site_fract_z
 _atom_site_occupancy
  Na  Na0  1  0.87500000  0.87500000  0.87500000  1
  Na  Na1  1  0.12500000  0.12500000  0.12500000  1
  Tl  Tl0  1  0.37500000  0.37500000  0.37500000  1
  Tl  Tl1  1  0.62500000  0.62500000  0.62500000  1
loop_
_geom_bond_atom_site_label_1
_geom_bond_atom_site_label_2
_geom_bond_distance
_geom_bond_site_symmetry_2
Na0 Na1 3.238373 1_566
Na0 Tl1 3.238373 1_655
Na0 Na1 3.238374 1_666
Na0 Tl1 3.238374 1_555
Na0 Na1 3.238374 1_656
Na0 Tl1 3.238374 1_565
Na0 Na1 3.238375 1_665
Na0 Tl1 3.238375 1_556
Na1 Tl0 3.238373 1_455
Na1 Tl0 3.238374 1_555
Na1 Tl0 3.238374 1_545
Na1 Tl0 3.238375 1_554
Tl0 Tl1 3.238373 1_455
Tl0 Tl1 3.238374 1_555
Tl0 Tl1 3.238374 1_545
Tl0 Tl1 3.238375 1_554
