# generated using pymatgen
data_Na4Si23
_symmetry_space_group_name_H-M   'P 1'
_cell_length_a   10.18521647
_cell_length_b   10.18521647
_cell_length_c   10.18521647
_cell_angle_alpha   90.00000000
_cell_angle_beta   90.00000000
_cell_angle_gamma   90.00000000
_symmetry_Int_Tables_number   1
_chemical_formula_structural   Na4Si23
_chemical_formula_sum   'Na8 Si46'
_cell_volume   1056.60044910
_cell_formula_units_Z   2
loop_
 _symmetry_equiv_pos_site_id
 _symmetry_equiv_pos_as_xyz
  1  'x, y, z'
loop_
 _atom_site_type_symbol
 _atom_site_label
 _atom_site_symmetry_multiplicity
 _atom_site_fract_x
 _atom_site_fract_y
 _atom_site_fract_z
 _atom_site_occupancy
  Na  Na0  1  -0.00000000  0.25000000  0.50000000  1
  Na  Na1  1  -0.00000000  0.75000000  0.50000000  1
  Na  Na2  1  0.50000000  -0.00000000  0.75000000  1
  Na  Na3  1  0.50000000  -0.00000000  0.25000000  1
  Na  Na4  1  0.75000000  0.50000000  0.00000000  1
  Na  Na5  1  0.25000000  0.50000000  0.00000000  1
  Na  Na6  1  0.50000000  0.50000000  0.50000000  1
  Na  Na7  1  -0.00000000  -0.00000000  0.00000000  1
  Si  Si0  1  0.68424642  0.68424642  0.31575358  1
  Si  Si1  1  0.31575358  0.68424642  0.68424642  1
  Si  Si2  1  0.81575358  0.81575358  0.18424642  1
  Si  Si3  1  0.18424642  0.81575358  0.81575358  1
  Si  Si4  1  0.81575358  0.18424642  0.81575358  1
  Si  Si5  1  0.31575358  0.31575358  0.31575358  1
  Si  Si6  1  0.81575358  0.81575358  0.81575358  1
  Si  Si7  1  0.31575358  0.68424642  0.31575358  1
  Si  Si8  1  0.31575358  0.31575358  0.68424642  1
  Si  Si9  1  0.68424642  0.31575358  0.31575358  1
  Si  Si10  1  0.18424642  0.18424642  0.81575358  1
  Si  Si11  1  0.81575358  0.18424642  0.18424642  1
  Si  Si12  1  0.18424642  0.81575358  0.18424642  1
  Si  Si13  1  0.68424642  0.68424642  0.68424642  1
  Si  Si14  1  -0.00000000  0.30774147  0.11707783  1
  Si  Si15  1  0.50000000  0.38292217  0.80774147  1
  Si  Si16  1  0.50000000  0.61707783  0.19225853  1
  Si  Si17  1  0.61707783  0.80774147  0.50000000  1
  Si  Si18  1  0.38292217  0.80774147  0.50000000  1
  Si  Si19  1  0.19225853  0.50000000  0.61707783  1
  Si  Si20  1  0.80774147  0.50000000  0.61707783  1
  Si  Si21  1  0.11707783  -0.00000000  0.30774147  1
  Si  Si22  1  0.30774147  0.11707783  0.00000000  1
  Si  Si23  1  0.69225853  0.88292217  0.00000000  1
  Si  Si24  1  0.11707783  -0.00000000  0.69225853  1
  Si  Si25  1  0.69225853  0.11707783  0.00000000  1
  Si  Si26  1  0.88292217  -0.00000000  0.30774147  1
  Si  Si27  1  0.88292217  -0.00000000  0.69225853  1
  Si  Si28  1  0.30774147  0.88292217  0.00000000  1
  Si  Si29  1  -0.00000000  0.69225853  0.88292217  1
  Si  Si30  1  0.00000000  0.30774147  0.88292217  1
  Si  Si31  1  -0.00000000  0.69225853  0.11707783  1
  Si  Si32  1  0.80774147  0.50000000  0.38292217  1
  Si  Si33  1  0.19225853  0.50000000  0.38292217  1
  Si  Si34  1  0.61707783  0.19225853  0.50000000  1
  Si  Si35  1  0.38292217  0.19225853  0.50000000  1
  Si  Si36  1  0.50000000  0.61707783  0.80774147  1
  Si  Si37  1  0.50000000  0.38292217  0.19225853  1
  Si  Si38  1  0.68424642  0.31575358  0.68424642  1
  Si  Si39  1  0.18424642  0.18424642  0.18424642  1
  Si  Si40  1  0.50000000  0.25000000  0.00000000  1
  Si  Si41  1  0.50000000  0.75000000  0.00000000  1
  Si  Si42  1  -0.00000000  0.50000000  0.75000000  1
  Si  Si43  1  -0.00000000  0.50000000  0.25000000  1
  Si  Si44  1  0.75000000  -0.00000000  0.50000000  1
  Si  Si45  1  0.25000000  -0.00000000  0.50000000  1
loop_
_geom_bond_atom_site_label_1
_geom_bond_atom_site_label_2
_geom_bond_distance
_geom_bond_site_symmetry_2
Na0 Si26 3.426392 1_455
Na0 Si24 3.426392 1_555
Na0 Si27 3.426392 1_455
Na0 Si21 3.426392 1_555
Na0 Si19 3.426392 1_555
Na0 Si32 3.426392 1_455
Na0 Si33 3.426392 1_555
Na0 Si20 3.426392 1_455
Na1 Si26 3.426392 1_465
Na1 Si27 3.426392 1_465
Na1 Si21 3.426392 1_565
Na1 Si24 3.426392 1_565
Na1 Si19 3.426392 1_555
Na1 Si32 3.426392 1_455
Na1 Si33 3.426392 1_555
Na1 Si20 3.426392 1_455
Na2 Si28 3.426392 1_546
Na2 Si34 3.426392 1_555
Na2 Si18 3.426392 1_545
Na2 Si35 3.426392 1_555
Na2 Si25 3.426392 1_556
Na2 Si23 3.426392 1_546
Na2 Si22 3.426392 1_556
Na2 Si17 3.426392 1_545
Na3 Si28 3.426392 1_545
Na3 Si18 3.426392 1_545
Na3 Si34 3.426392 1_555
Na3 Si35 3.426392 1_555
Na3 Si25 3.426392 1_555
Na3 Si22 3.426392 1_555
Na3 Si23 3.426392 1_545
Na3 Si17 3.426392 1_545
Na4 Si29 3.426392 1_654
Na4 Si30 3.426392 1_654
Na4 Si14 3.426392 1_655
Na4 Si16 3.426392 1_555
Na4 Si36 3.426392 1_554
Na4 Si37 3.426392 1_555
Na4 Si31 3.426392 1_655
Na4 Si15 3.426392 1_554
Na5 Si14 3.426392 1_555
Na5 Si29 3.426392 1_554
Na5 Si30 3.426392 1_554
Na5 Si31 3.426392 1_555
Na5 Si16 3.426392 1_555
Na5 Si36 3.426392 1_554
Na5 Si37 3.426392 1_555
Na5 Si15 3.426392 1_554
Na6 Si8 3.250349 1_555
Na6 Si9 3.250349 1_555
Na6 Si5 3.250349 1_555
Na6 Si7 3.250349 1_555
Na6 Si38 3.250349 1_555
Na6 Si0 3.250349 1_555
Na6 Si1 3.250349 1_555
Na6 Si13 3.250349 1_555
Na6 Si33 3.353583 1_555
Na6 Si32 3.353583 1_555
Na6 Si17 3.353583 1_555
Na6 Si18 3.353583 1_555
Na6 Si19 3.353583 1_555
Na6 Si20 3.353583 1_555
Na6 Si15 3.353583 1_555
Na6 Si16 3.353583 1_555
Na6 Si34 3.353583 1_555
Na6 Si35 3.353583 1_555
Na6 Si37 3.353583 1_555
Na6 Si36 3.353583 1_555
Na7 Si2 3.250349 1_445
Na7 Si39 3.250349 1_555
Na7 Si12 3.250349 1_545
Na7 Si3 3.250349 1_544
Na7 Si4 3.250349 1_454
Na7 Si10 3.250349 1_554
Na7 Si6 3.250349 1_444
Na7 Si11 3.250349 1_455
Na7 Si23 3.353583 1_445
Na7 Si29 3.353583 1_544
Na7 Si27 3.353583 1_454
Na7 Si25 3.353583 1_455
Na7 Si31 3.353583 1_545
Na7 Si26 3.353583 1_455
Na7 Si28 3.353583 1_545
Na7 Si14 3.353583 1_555
Na7 Si24 3.353583 1_554
Na7 Si22 3.353583 1_555
Na7 Si21 3.353583 1_555
Na7 Si30 3.353583 1_554
Si0 Si2 2.319959 1_555
Si0 Si17 2.360453 1_555
Si0 Si32 2.360453 1_555
Si0 Si16 2.360453 1_555
Si1 Si3 2.319959 1_555
Si1 Si36 2.360453 1_555
Si1 Si18 2.360453 1_555
Si1 Si19 2.360453 1_555
Si2 Si31 2.360453 1_655
Si2 Si23 2.360453 1_555
Si2 Si26 2.360453 1_565
Si10 Si8 2.319959 1_555
Si10 Si24 2.360453 1_555
Si10 Si22 2.360453 1_556
Si10 Si30 2.360453 1_555
Si11 Si9 2.319959 1_555
Si11 Si25 2.360453 1_555
Si11 Si14 2.360453 1_655
Si11 Si26 2.360453 1_555
Si12 Si7 2.319959 1_555
Si12 Si31 2.360453 1_555
Si12 Si21 2.360453 1_565
Si12 Si28 2.360453 1_555
Si13 Si6 2.319959 1_555
Si13 Si20 2.360453 1_555
Si13 Si36 2.360453 1_555
Si13 Si17 2.360453 1_555
Si14 Si39 2.360453 1_555
Si14 Si43 2.380633 1_555
Si14 Si30 2.384926 1_554
Si15 Si8 2.360453 1_555
Si15 Si38 2.360453 1_555
Si15 Si40 2.380633 1_556
Si15 Si36 2.384926 1_555
Si16 Si7 2.360453 1_555
Si16 Si41 2.380633 1_555
Si16 Si37 2.384926 1_555
Si17 Si44 2.380633 1_565
Si17 Si18 2.384926 1_555
Si18 Si7 2.360453 1_555
Si18 Si45 2.380633 1_565
Si19 Si8 2.360453 1_555
Si19 Si42 2.380633 1_555
Si19 Si33 2.384926 1_555
Si20 Si38 2.360453 1_555
Si20 Si42 2.380633 1_655
Si20 Si32 2.384926 1_555
Si21 Si39 2.360453 1_555
Si21 Si45 2.380633 1_555
Si21 Si26 2.384926 1_455
Si22 Si39 2.360453 1_555
Si22 Si40 2.380633 1_555
Si22 Si28 2.384926 1_545
Si23 Si6 2.360453 1_554
Si23 Si41 2.380633 1_555
Si23 Si25 2.384926 1_565
Si24 Si3 2.360453 1_545
Si24 Si45 2.380633 1_555
Si24 Si27 2.384926 1_455
Si25 Si4 2.360453 1_554
Si25 Si40 2.380633 1_555
Si26 Si44 2.380633 1_555
Si27 Si4 2.360453 1_555
Si27 Si6 2.360453 1_545
Si27 Si44 2.380633 1_555
Si28 Si3 2.360453 1_554
Si28 Si41 2.380633 1_555
Si29 Si6 2.360453 1_455
Si29 Si3 2.360453 1_555
Si29 Si42 2.380633 1_555
Si29 Si31 2.384926 1_556
Si30 Si4 2.360453 1_455
Si30 Si42 2.380633 1_555
Si31 Si43 2.380633 1_555
Si32 Si9 2.360453 1_555
Si32 Si43 2.380633 1_655
Si33 Si5 2.360453 1_555
Si33 Si7 2.360453 1_555
Si33 Si43 2.380633 1_555
Si34 Si9 2.360453 1_555
Si34 Si38 2.360453 1_555
Si34 Si44 2.380633 1_555
Si34 Si35 2.384926 1_555
Si35 Si5 2.360453 1_555
Si35 Si8 2.360453 1_555
Si35 Si45 2.380633 1_555
Si36 Si41 2.380633 1_556
Si37 Si5 2.360453 1_555
Si37 Si9 2.360453 1_555
Si37 Si40 2.380633 1_555
Si38 Si4 2.319959 1_555
Si39 Si5 2.319959 1_555
