# generated using pymatgen
data_Li7Mn4CoO12
_symmetry_space_group_name_H-M   'P 1'
_cell_length_a   5.04405000
_cell_length_b   5.83170973
_cell_length_c   7.93857253
_cell_angle_alpha   79.33127804
_cell_angle_beta   80.37405576
_cell_angle_gamma   73.22580474
_symmetry_Int_Tables_number   1
_chemical_formula_structural   Li7Mn4CoO12
_chemical_formula_sum   'Li7 Mn4 Co1 O12'
_cell_volume   218.10294412
_cell_formula_units_Z   1
loop_
 _symmetry_equiv_pos_site_id
 _symmetry_equiv_pos_as_xyz
  1  'x, y, z'
loop_
 _atom_site_type_symbol
 _atom_site_label
 _atom_site_symmetry_multiplicity
 _atom_site_fract_x
 _atom_site_fract_y
 _atom_site_fract_z
 _atom_site_occupancy
  Li  Li0  1  0.49884600  0.33274400  0.16713400  1
  Li  Li1  1  0.99021000  0.83807900  0.66476400  1
  Li  Li2  1  0.99689800  0.16720000  0.34583000  1
  Li  Li3  1  0.51085200  0.66527900  0.82309400  1
  Li  Li4  1  0.48576800  0.00297700  0.51032400  1
  Li  Li5  1  0.01106100  0.49605700  0.98755400  1
  Li  Li6  1  0.99874500  0.33408300  0.66602400  1
  Mn  Mn0  1  0.00633100  0.00446900  0.99131800  1
  Mn  Mn1  1  0.49763900  0.49516800  0.51092700  1
  Mn  Mn2  1  0.49828800  0.83494300  0.16342300  1
  Mn  Mn3  1  0.99687900  0.66131900  0.34371300  1
  Co  Co0  1  0.51625400  0.16805800  0.82291300  1
  O  O0  1  0.74805000  0.30730000  0.92207000  1
  O  O1  1  0.24201100  0.81059300  0.42571600  1
  O  O2  1  0.24189900  0.14890000  0.08524700  1
  O  O3  1  0.72539500  0.66082300  0.57948600  1
  O  O4  1  0.76895200  0.97934100  0.22686300  1
  O  O5  1  0.28779900  0.47903100  0.73492600  1
  O  O6  1  0.25555800  0.35355400  0.41341400  1
  O  O7  1  0.76718300  0.85437500  0.90963000  1
  O  O8  1  0.72934600  0.18276000  0.57911700  1
  O  O9  1  0.25168800  0.69060000  0.07884900  1
  O  O10  1  0.24563100  0.01376900  0.77795000  1
  O  O11  1  0.72872000  0.51857900  0.26971500  1
loop_
_geom_bond_atom_site_label_1
_geom_bond_atom_site_label_2
_geom_bond_distance
_geom_bond_site_symmetry_2
Li0 O6 2.131342 1_555
Li0 O11 2.133056 1_555
Li0 O4 2.135892 1_545
Li0 O0 2.137350 1_554
Li0 O2 2.143280 1_555
Li0 O9 2.156282 1_555
Li1 O7 2.080534 1_555
Li1 O1 2.104556 1_655
Li1 O8 2.121461 1_565
Li1 O3 2.160917 1_555
Li1 O5 2.231884 1_655
Li1 O10 2.237612 1_665
Li2 O8 2.101185 1_555
Li2 O6 2.107019 1_655
Li2 O1 2.132005 1_645
Li2 O11 2.146826 1_555
Li2 O4 2.210751 1_545
Li2 O2 2.229034 1_655
Li3 O5 2.045879 1_555
Li3 O3 2.052853 1_555
Li3 O10 2.090385 1_565
Li3 O0 2.161572 1_555
Li3 O7 2.181793 1_555
Li3 O9 2.228201 1_556
Li4 O8 2.021606 1_555
Li4 O3 2.041572 1_545
Li4 O6 2.113331 1_555
Li4 O1 2.138455 1_545
Li4 O10 2.264904 1_555
Li4 O4 2.459532 1_545
Li5 O2 2.101406 1_556
Li5 O0 2.127757 1_455
Li5 O7 2.134137 1_455
Li5 O9 2.163096 1_556
Li5 O5 2.244528 1_555
Li5 O11 2.448869 1_456
Li6 O10 2.059717 1_655
Li6 O5 2.070931 1_655
Li6 O3 2.078324 1_555
Li6 O8 2.081432 1_555
Li6 O6 2.200958 1_655
Li6 O0 2.211761 1_555
Mn0 O10 1.910234 1_555
Mn0 O0 1.915813 1_455
Mn0 O7 1.929510 1_445
Mn0 O2 1.945206 1_556
Mn0 O9 1.968240 1_546
Mn0 O4 2.050043 1_446
Mn1 O3 1.895683 1_555
Mn1 O8 1.896208 1_555
Mn1 O5 1.912420 1_555
Mn1 O6 1.976659 1_555
Mn1 O1 1.991418 1_555
Mn1 O11 2.071861 1_555
Mn2 O9 1.949215 1_555
Mn2 O4 1.969057 1_555
Mn2 O2 1.972520 1_565
Mn2 O11 1.995151 1_555
Mn2 O7 2.236510 1_554
Mn2 O1 2.263441 1_555
Mn3 O6 1.937001 1_655
Mn3 O1 1.952106 1_655
Mn3 O11 1.991037 1_555
Mn3 O4 2.027506 1_555
Mn3 O3 2.126402 1_555
Mn3 O9 2.278625 1_655
Co0 O5 1.923154 1_555
Co0 O0 1.933512 1_555
Co0 O10 1.947076 1_555
Co0 O7 1.977616 1_545
Co0 O8 2.050474 1_555
Co0 O2 2.303014 1_556
