# generated using pymatgen
data_Yb2Sn5Pd3
_symmetry_space_group_name_H-M   'P 1'
_cell_length_a   4.52183900
_cell_length_b   7.41532400
_cell_length_c   26.78728700
_cell_angle_alpha   90.00000000
_cell_angle_beta   90.00000000
_cell_angle_gamma   90.00000000
_symmetry_Int_Tables_number   1
_chemical_formula_structural   Yb2Sn5Pd3
_chemical_formula_sum   'Yb8 Sn20 Pd12'
_cell_volume   898.20187544
_cell_formula_units_Z   4
loop_
 _symmetry_equiv_pos_site_id
 _symmetry_equiv_pos_as_xyz
  1  'x, y, z'
loop_
 _atom_site_type_symbol
 _atom_site_label
 _atom_site_symmetry_multiplicity
 _atom_site_fract_x
 _atom_site_fract_y
 _atom_site_fract_z
 _atom_site_occupancy
  Yb  Yb0  1  0.25000000  0.71692500  0.22708900  1
  Yb  Yb1  1  0.75000000  0.28307500  0.77291100  1
  Yb  Yb2  1  0.75000000  0.78307500  0.72708900  1
  Yb  Yb3  1  0.25000000  0.21692500  0.27291100  1
  Yb  Yb4  1  0.25000000  0.74878200  0.92308600  1
  Yb  Yb5  1  0.75000000  0.25121800  0.07691400  1
  Yb  Yb6  1  0.75000000  0.75121800  0.42308600  1
  Yb  Yb7  1  0.25000000  0.24878200  0.57691400  1
  Sn  Sn0  1  0.25000000  0.53894000  0.04334500  1
  Sn  Sn1  1  0.75000000  0.46106000  0.95665500  1
  Sn  Sn2  1  0.75000000  0.96106000  0.54334500  1
  Sn  Sn3  1  0.25000000  0.03894000  0.45665500  1
  Sn  Sn4  1  0.25000000  0.96353500  0.04334300  1
  Sn  Sn5  1  0.75000000  0.03646500  0.95665700  1
  Sn  Sn6  1  0.75000000  0.53646500  0.54334300  1
  Sn  Sn7  1  0.25000000  0.46353500  0.45665700  1
  Sn  Sn8  1  0.25000000  0.61982600  0.79858400  1
  Sn  Sn9  1  0.75000000  0.38017400  0.20141600  1
  Sn  Sn10  1  0.75000000  0.88017400  0.29858400  1
  Sn  Sn11  1  0.25000000  0.11982600  0.70141600  1
  Sn  Sn12  1  0.25000000  0.78440400  0.63103700  1
  Sn  Sn13  1  0.75000000  0.21559600  0.36896300  1
  Sn  Sn14  1  0.75000000  0.71559600  0.13103700  1
  Sn  Sn15  1  0.25000000  0.28440400  0.86896300  1
  Sn  Sn16  1  0.25000000  0.59342100  0.34650500  1
  Sn  Sn17  1  0.75000000  0.40657900  0.65349500  1
  Sn  Sn18  1  0.75000000  0.90657900  0.84650500  1
  Sn  Sn19  1  0.25000000  0.09342100  0.15349500  1
  Pd  Pd0  1  0.25000000  0.74276800  0.52794100  1
  Pd  Pd1  1  0.75000000  0.25723200  0.47205900  1
  Pd  Pd2  1  0.75000000  0.75723200  0.02794100  1
  Pd  Pd3  1  0.25000000  0.24276800  0.97205900  1
  Pd  Pd4  1  0.25000000  0.96523000  0.35660600  1
  Pd  Pd5  1  0.75000000  0.03477000  0.64339400  1
  Pd  Pd6  1  0.75000000  0.53477000  0.85660600  1
  Pd  Pd7  1  0.25000000  0.46523000  0.14339400  1
  Pd  Pd8  1  0.25000000  0.50125200  0.70116300  1
  Pd  Pd9  1  0.75000000  0.49874800  0.29883700  1
  Pd  Pd10  1  0.75000000  0.99874800  0.20116300  1
  Pd  Pd11  1  0.25000000  0.00125200  0.79883700  1
loop_
_geom_bond_atom_site_label_1
_geom_bond_atom_site_label_2
_geom_bond_distance
_geom_bond_site_symmetry_2
Sn0 Yb5 3.236109 1_455
Sn0 Yb5 3.236109 1_555
Sn1 Yb4 3.236109 1_555
Sn1 Yb4 3.236109 1_655
Sn2 Yb7 3.236109 1_565
Sn2 Yb7 3.236109 1_665
Sn3 Yb6 3.236109 1_545
Sn3 Yb6 3.236109 1_445
Sn4 Yb5 3.235933 1_565
Sn4 Yb5 3.235933 1_465
Sn5 Yb4 3.235933 1_545
Sn5 Yb4 3.235933 1_645
Sn6 Yb7 3.235933 1_555
Sn6 Yb7 3.235933 1_655
Sn7 Yb6 3.235933 1_555
Sn7 Yb6 3.235933 1_455
Sn8 Yb2 3.200781 1_455
Sn8 Yb2 3.200781 1_555
Sn8 Yb1 3.438066 1_455
Sn8 Yb1 3.438066 1_555
Sn9 Yb3 3.200781 1_555
Sn9 Yb3 3.200781 1_655
Sn9 Yb0 3.438066 1_655
Sn9 Yb0 3.438066 1_555
Sn10 Yb0 3.200781 1_655
Sn10 Yb0 3.200781 1_555
Sn10 Yb3 3.438066 1_565
Sn10 Yb3 3.438066 1_665
Sn11 Yb1 3.200781 1_555
Sn11 Yb1 3.200781 1_455
Sn11 Yb2 3.438066 1_445
Sn11 Yb2 3.438066 1_545
Sn12 Yb2 3.425207 1_455
Sn12 Yb2 3.425207 1_555
Sn13 Yb3 3.425207 1_555
Sn13 Yb3 3.425207 1_655
Sn14 Yb0 3.425207 1_555
Sn14 Yb0 3.425207 1_655
Sn15 Yb1 3.425207 1_455
Sn15 Yb1 3.425207 1_555
Sn16 Sn7 3.103889 1_555
Sn16 Yb6 3.269428 1_555
Sn16 Yb6 3.269428 1_455
Sn16 Yb0 3.327348 1_555
Sn16 Yb3 3.417707 1_555
Sn17 Sn6 3.103889 1_555
Sn17 Yb7 3.269428 1_555
Sn17 Yb7 3.269428 1_655
Sn17 Yb1 3.327348 1_555
Sn17 Yb2 3.417707 1_555
Sn18 Sn5 3.103889 1_565
Sn18 Yb4 3.269428 1_555
Sn18 Yb4 3.269428 1_655
Sn18 Yb2 3.327348 1_555
Sn18 Yb1 3.417707 1_565
Sn19 Sn4 3.103889 1_545
Sn19 Yb5 3.269428 1_455
Sn19 Yb5 3.269428 1_555
Sn19 Yb3 3.327348 1_555
Sn19 Yb0 3.417707 1_545
Pd0 Sn6 2.760847 1_555
Pd0 Sn6 2.760847 1_455
Pd0 Sn12 2.778867 1_555
Pd0 Sn2 2.811091 1_555
Pd0 Sn2 2.811091 1_455
Pd0 Sn7 2.816666 1_555
Pd0 Sn3 2.910285 1_565
Pd1 Sn7 2.760847 1_555
Pd1 Sn7 2.760847 1_655
Pd1 Sn13 2.778867 1_555
Pd1 Sn3 2.811091 1_555
Pd1 Sn3 2.811091 1_655
Pd1 Sn6 2.816666 1_555
Pd1 Sn2 2.910285 1_545
Pd2 Sn4 2.760847 1_655
Pd2 Sn4 2.760847 1_555
Pd2 Sn14 2.778867 1_555
Pd2 Sn0 2.811091 1_555
Pd2 Sn0 2.811091 1_655
Pd2 Sn5 2.816666 1_564
Pd2 Sn1 2.910285 1_554
Pd3 Sn5 2.760847 1_555
Pd3 Sn5 2.760847 1_455
Pd3 Sn15 2.778867 1_555
Pd3 Sn1 2.811091 1_455
Pd3 Sn1 2.811091 1_555
Pd3 Sn4 2.816666 1_546
Pd3 Sn0 2.910285 1_556
Pd4 Sn3 2.735210 1_565
Pd4 Sn16 2.770330 1_555
Pd4 Sn10 2.815184 1_455
Pd4 Sn10 2.815184 1_555
Pd4 Yb3 2.917163 1_565
Pd4 Sn13 2.944161 1_565
Pd4 Sn13 2.944161 1_465
Pd4 Yb6 3.286570 1_555
Pd4 Yb6 3.286570 1_455
Pd5 Sn2 2.735210 1_545
Pd5 Sn17 2.770330 1_555
Pd5 Sn11 2.815184 1_555
Pd5 Sn11 2.815184 1_655
Pd5 Yb2 2.917163 1_545
Pd5 Sn12 2.944161 1_645
Pd5 Sn12 2.944161 1_545
Pd5 Yb7 3.286570 1_555
Pd5 Yb7 3.286570 1_655
Pd6 Sn1 2.735210 1_555
Pd6 Sn18 2.770330 1_555
Pd6 Sn8 2.815184 1_655
Pd6 Sn8 2.815184 1_555
Pd6 Yb1 2.917163 1_555
Pd6 Sn15 2.944161 1_655
Pd6 Sn15 2.944161 1_555
Pd6 Yb4 3.286570 1_555
Pd6 Yb4 3.286570 1_655
Pd7 Sn0 2.735210 1_555
Pd7 Sn19 2.770330 1_555
Pd7 Sn9 2.815184 1_455
Pd7 Sn9 2.815184 1_555
Pd7 Yb0 2.917163 1_555
Pd7 Sn14 2.944161 1_555
Pd7 Sn14 2.944161 1_455
Pd7 Yb5 3.286570 1_455
Pd7 Yb5 3.286570 1_555
Pd8 Sn17 2.689808 1_555
Pd8 Sn17 2.689808 1_455
Pd8 Sn8 2.753788 1_555
Pd8 Sn12 2.817321 1_555
Pd8 Sn11 2.828405 1_555
Pd8 Yb2 3.156164 1_455
Pd8 Yb2 3.156164 1_555
Pd8 Yb1 3.379798 1_455
Pd8 Yb1 3.379798 1_555
Pd9 Sn16 2.689808 1_655
Pd9 Sn16 2.689808 1_555
Pd9 Sn9 2.753788 1_555
Pd9 Sn13 2.817321 1_555
Pd9 Sn10 2.828405 1_555
Pd9 Yb3 3.156164 1_555
Pd9 Yb3 3.156164 1_655
Pd9 Yb0 3.379798 1_555
Pd9 Yb0 3.379798 1_655
Pd10 Sn19 2.689808 1_665
Pd10 Sn19 2.689808 1_565
Pd10 Sn10 2.753788 1_555
Pd10 Sn14 2.817321 1_555
Pd10 Sn9 2.828405 1_565
Pd10 Yb0 3.156164 1_555
Pd10 Yb0 3.156164 1_655
Pd10 Yb3 3.379798 1_665
Pd10 Yb3 3.379798 1_565
Pd11 Sn18 2.689808 1_545
Pd11 Sn18 2.689808 1_445
Pd11 Sn11 2.753788 1_555
Pd11 Sn15 2.817321 1_555
Pd11 Sn8 2.828405 1_545
Pd11 Yb1 3.156164 1_455
Pd11 Yb1 3.156164 1_555
Pd11 Yb2 3.379798 1_445
Pd11 Yb2 3.379798 1_545
