# generated using pymatgen
data_Dy3GaNiS7
_symmetry_space_group_name_H-M   'P 1'
_cell_length_a   9.54718994
_cell_length_b   9.54718994
_cell_length_c   6.16238400
_cell_angle_alpha   90.00000000
_cell_angle_beta   90.00000000
_cell_angle_gamma   119.99999955
_symmetry_Int_Tables_number   1
_chemical_formula_structural   Dy3GaNiS7
_chemical_formula_sum   'Dy6 Ga2 Ni2 S14'
_cell_volume   486.44138490
_cell_formula_units_Z   2
loop_
 _symmetry_equiv_pos_site_id
 _symmetry_equiv_pos_as_xyz
  1  'x, y, z'
loop_
 _atom_site_type_symbol
 _atom_site_label
 _atom_site_symmetry_multiplicity
 _atom_site_fract_x
 _atom_site_fract_y
 _atom_site_fract_z
 _atom_site_occupancy
  Dy  Dy0  1  0.15616700  0.78122600  0.82109200  1
  Dy  Dy1  1  0.21877400  0.37494100  0.82109200  1
  Dy  Dy2  1  0.62505900  0.84383300  0.82109200  1
  Dy  Dy3  1  0.84383300  0.21877400  0.32109200  1
  Dy  Dy4  1  0.78122600  0.62505900  0.32109200  1
  Dy  Dy5  1  0.37494100  0.15616700  0.32109200  1
  Ga  Ga0  1  0.66666700  0.33333300  0.89198500  1
  Ga  Ga1  1  0.33333300  0.66666700  0.39198500  1
  Ni  Ni0  1  0.00000000  0.00000000  0.49750100  1
  Ni  Ni1  1  0.00000000  0.00000000  0.99750100  1
  S  S0  1  0.43430900  0.91430300  0.55241300  1
  S  S1  1  0.08569700  0.52000700  0.55241300  1
  S  S2  1  0.47999300  0.56569100  0.55241300  1
  S  S3  1  0.56569100  0.08569700  0.05241300  1
  S  S4  1  0.91430300  0.47999300  0.05241300  1
  S  S5  1  0.52000700  0.43430900  0.05241300  1
  S  S6  1  0.66666700  0.33333300  0.52627600  1
  S  S7  1  0.33333300  0.66666700  0.02627600  1
  S  S8  1  0.86893900  0.76824200  0.73229500  1
  S  S9  1  0.23175800  0.10069700  0.73229500  1
  S  S10  1  0.89930300  0.13106100  0.73229500  1
  S  S11  1  0.13106100  0.23175800  0.23229500  1
  S  S12  1  0.76824200  0.89930300  0.23229500  1
  S  S13  1  0.10069700  0.86893900  0.23229500  1
loop_
_geom_bond_atom_site_label_1
_geom_bond_atom_site_label_2
_geom_bond_distance
_geom_bond_site_symmetry_2
Dy0 S8 2.737634 1_455
Dy0 S7 2.739689 1_556
Dy0 S1 2.781312 1_555
Dy0 S13 2.801126 1_556
Dy0 S9 2.814586 1_565
Dy0 S0 2.834305 1_555
Dy0 S4 2.999026 1_456
Dy1 S9 2.737634 1_555
Dy1 S7 2.739696 1_556
Dy1 S2 2.781314 1_555
Dy1 S11 2.801126 1_556
Dy1 S10 2.814586 1_455
Dy1 S1 2.834312 1_555
Dy1 S5 2.999029 1_556
Dy2 S10 2.737634 1_565
Dy2 S7 2.739695 1_556
Dy2 S0 2.781320 1_555
Dy2 S12 2.801126 1_556
Dy2 S8 2.814586 1_555
Dy2 S2 2.834305 1_555
Dy2 S3 2.999021 1_566
Dy3 S11 2.737634 1_655
Dy3 S6 2.739689 1_555
Dy3 S4 2.781312 1_555
Dy3 S10 2.801126 1_555
Dy3 S12 2.814586 1_545
Dy3 S3 2.834305 1_555
Dy3 S1 2.999026 1_655
Dy4 S12 2.737634 1_555
Dy4 S6 2.739696 1_555
Dy4 S5 2.781314 1_555
Dy4 S8 2.801126 1_555
Dy4 S13 2.814586 1_655
Dy4 S4 2.834312 1_555
Dy4 S2 2.999029 1_555
Dy5 S13 2.737634 1_545
Dy5 S6 2.739695 1_555
Dy5 S3 2.781320 1_555
Dy5 S9 2.801126 1_555
Dy5 S11 2.814586 1_555
Dy5 S5 2.834305 1_555
Dy5 S0 2.999021 1_545
Ga0 S6 2.253639 1_555
Ga0 S5 2.284098 1_556
Ga0 S3 2.284098 1_556
Ga0 S4 2.284098 1_556
Ga1 S7 2.253639 1_555
Ga1 S2 2.284098 1_555
Ga1 S0 2.284098 1_555
Ga1 S1 2.284098 1_555
Ni0 S10 2.405478 1_455
Ni0 S9 2.405478 1_555
Ni0 S8 2.405478 1_445
Ni0 S13 2.522652 1_545
Ni0 S12 2.522652 1_445
Ni0 S11 2.522652 1_555
Ni1 S13 2.405478 1_546
Ni1 S12 2.405478 1_446
Ni1 S11 2.405478 1_556
Ni1 S10 2.522652 1_455
Ni1 S9 2.522652 1_555
Ni1 S8 2.522652 1_445
