# generated using pymatgen
data_Ni21(GeB3)2
_symmetry_space_group_name_H-M   'P 1'
_cell_length_a   7.33519791
_cell_length_b   7.33520658
_cell_length_c   7.33513626
_cell_angle_alpha   60.00891715
_cell_angle_beta   60.00888077
_cell_angle_gamma   60.00801912
_symmetry_Int_Tables_number   1
_chemical_formula_structural   Ni21(GeB3)2
_chemical_formula_sum   'Ni21 Ge2 B6'
_cell_volume   279.12715996
_cell_formula_units_Z   1
loop_
 _symmetry_equiv_pos_site_id
 _symmetry_equiv_pos_as_xyz
  1  'x, y, z'
loop_
 _atom_site_type_symbol
 _atom_site_label
 _atom_site_symmetry_multiplicity
 _atom_site_fract_x
 _atom_site_fract_y
 _atom_site_fract_z
 _atom_site_occupancy
  Ni  Ni0  1  0.33675098  0.99996993  -0.00001208  1
  Ni  Ni1  1  0.66327125  0.00000833  0.00000565  1
  Ni  Ni2  1  0.99997535  0.33676359  0.66326898  1
  Ni  Ni3  1  0.99998513  0.66328012  0.33675465  1
  Ni  Ni4  1  0.99995759  0.33676250  -0.00001923  1
  Ni  Ni5  1  0.66327266  -0.00000221  0.33674248  1
  Ni  Ni6  1  -0.00000136  0.66327429  -0.00000442  1
  Ni  Ni7  1  0.33675864  0.99998611  0.66325356  1
  Ni  Ni8  1  0.99996080  -0.00003229  0.33677646  1
  Ni  Ni9  1  -0.00000740  -0.00000660  0.66325968  1
  Ni  Ni10  1  0.66324453  0.33675993  0.00000018  1
  Ni  Ni11  1  0.33676237  0.66324140  -0.00000284  1
  Ni  Ni12  1  0.38085411  0.38083875  0.38081951  1
  Ni  Ni13  1  0.61918351  0.61917552  0.61917996  1
  Ni  Ni14  1  0.38083667  0.38082977  0.85750961  1
  Ni  Ni15  1  0.38082497  0.85750911  0.38082705  1
  Ni  Ni16  1  0.61919580  0.61917962  0.14245072  1
  Ni  Ni17  1  0.61921596  0.14244496  0.61917461  1
  Ni  Ni18  1  0.85751636  0.38081469  0.38082419  1
  Ni  Ni19  1  0.14245393  0.61920399  0.61918076  1
  Ni  Ni20  1  0.99996840  0.00000212  0.00001491  1
  Ge  Ge0  1  0.25000172  0.24999448  0.24999826  1
  Ge  Ge1  1  0.75000983  0.75000436  0.74999700  1
  B  B0  1  0.72641296  0.27358751  0.27358734  1
  B  B1  1  0.27359171  0.72641399  0.72641395  1
  B  B2  1  0.27358765  0.72641273  0.27358294  1
  B  B3  1  0.72641424  0.27359163  0.72640957  1
  B  B4  1  0.27359145  0.27358661  0.72640862  1
  B  B5  1  0.72641020  0.72640506  0.27359594  1
loop_
_geom_bond_atom_site_label_1
_geom_bond_atom_site_label_2
_geom_bond_distance
_geom_bond_site_symmetry_2
Ni0 Ni20 2.470150 1_465
Ni1 Ni20 2.469751 1_555
Ni2 Ni20 2.470479 1_556
Ni10 Ni20 2.470362 1_555
Ni11 Ni20 2.470629 1_465
Ni20 Ni6 2.469928 1_645
Ni20 Ni8 2.470038 1_555
Ni20 Ni4 2.470042 1_555
Ni20 Ni9 2.470089 1_654
Ni20 Ni5 2.470168 1_555
Ni20 Ni3 2.470312 1_545
Ni20 Ni7 2.470638 1_644
Ge0 Ni12 2.350696 1_555
Ge0 Ni18 2.350907 1_455
Ge0 Ni15 2.350910 1_545
Ge0 Ni14 2.350928 1_554
Ge1 Ni13 2.350422 1_555
Ge1 Ni17 2.350642 1_565
Ge1 Ni19 2.350659 1_655
Ge1 Ni16 2.350719 1_556
B0 Ni5 2.059568 1_555
B0 Ni10 2.059598 1_555
B0 Ni4 2.059753 1_555
B0 Ni8 2.059801 1_555
B0 Ni18 2.071990 1_555
B0 Ni12 2.072274 1_555
B0 Ni17 2.072483 1_555
B0 Ni16 2.072511 1_555
B1 Ni7 2.059545 1_555
B1 Ni11 2.059580 1_556
B1 Ni6 2.059839 1_556
B1 Ni9 2.059858 1_565
B1 Ni19 2.072080 1_555
B1 Ni14 2.072452 1_555
B1 Ni15 2.072466 1_555
B1 Ni13 2.072482 1_555
B2 Ni3 2.059578 1_455
B2 Ni11 2.059595 1_555
B2 Ni0 2.059759 1_555
B2 Ni8 2.059859 1_465
B2 Ni15 2.072049 1_555
B2 Ni12 2.072365 1_555
B2 Ni19 2.072542 1_555
B2 Ni16 2.072601 1_555
B3 Ni2 2.059541 1_555
B3 Ni10 2.059630 1_556
B3 Ni1 2.059843 1_556
B3 Ni9 2.059844 1_655
B3 Ni17 2.072077 1_555
B3 Ni14 2.072411 1_555
B3 Ni13 2.072440 1_555
B3 Ni18 2.072459 1_555
B4 Ni7 2.059661 1_545
B4 Ni2 2.059676 1_455
B4 Ni0 2.059893 1_546
B4 Ni4 2.059934 1_456
B4 Ni14 2.072115 1_555
B4 Ni12 2.072451 1_555
B4 Ni19 2.072658 1_555
B4 Ni17 2.072698 1_555
B5 Ni3 2.059608 1_555
B5 Ni5 2.059649 1_565
B5 Ni6 2.059859 1_655
B5 Ni1 2.059871 1_565
B5 Ni16 2.072104 1_555
B5 Ni13 2.072437 1_555
B5 Ni15 2.072455 1_555
B5 Ni18 2.072489 1_555
