# generated using pymatgen
data_Sm2Ni7
_symmetry_space_group_name_H-M   'P 1'
_cell_length_a   4.92880613
_cell_length_b   4.92880943
_cell_length_c   24.13106167
_cell_angle_alpha   90.00000000
_cell_angle_beta   90.00000000
_cell_angle_gamma   119.99676768
_symmetry_Int_Tables_number   1
_chemical_formula_structural   Sm2Ni7
_chemical_formula_sum   'Sm8 Ni28'
_cell_volume   507.69743346
_cell_formula_units_Z   4
loop_
 _symmetry_equiv_pos_site_id
 _symmetry_equiv_pos_as_xyz
  1  'x, y, z'
loop_
 _atom_site_type_symbol
 _atom_site_label
 _atom_site_symmetry_multiplicity
 _atom_site_fract_x
 _atom_site_fract_y
 _atom_site_fract_z
 _atom_site_occupancy
  Sm  Sm0  1  0.66666952  0.33333048  0.52965627  1
  Sm  Sm1  1  0.33333048  0.66666952  0.47034373  1
  Sm  Sm2  1  0.33333048  0.66666952  0.02965627  1
  Sm  Sm3  1  0.66666952  0.33333048  0.97034373  1
  Sm  Sm4  1  0.66667120  0.33332880  0.67410442  1
  Sm  Sm5  1  0.33332880  0.66667120  0.32589558  1
  Sm  Sm6  1  0.33332880  0.66667120  0.17410442  1
  Sm  Sm7  1  0.66667120  0.33332880  0.82589558  1
  Ni  Ni0  1  -0.00000000  -0.00000000  0.50000000  1
  Ni  Ni1  1  -0.00000000  -0.00000000  0.00000000  1
  Ni  Ni2  1  0.16697503  0.33394177  0.75000000  1
  Ni  Ni3  1  0.16697575  0.83302425  0.75000000  1
  Ni  Ni4  1  0.66605723  0.83302497  0.75000000  1
  Ni  Ni5  1  0.83302497  0.66605823  0.25000000  1
  Ni  Ni6  1  0.83302425  0.16697575  0.25000000  1
  Ni  Ni7  1  0.33394277  0.16697503  0.25000000  1
  Ni  Ni8  1  0.16643231  0.33285576  0.58689562  1
  Ni  Ni9  1  0.16643673  0.83356327  0.58689246  1
  Ni  Ni10  1  0.66714424  0.83356769  0.58689562  1
  Ni  Ni11  1  0.83356769  0.66714424  0.41310438  1
  Ni  Ni12  1  0.83356327  0.16643673  0.41310754  1
  Ni  Ni13  1  0.33285576  0.16643231  0.41310438  1
  Ni  Ni14  1  0.83356769  0.66714424  0.08689562  1
  Ni  Ni15  1  0.83356327  0.16643673  0.08689246  1
  Ni  Ni16  1  0.33285576  0.16643231  0.08689562  1
  Ni  Ni17  1  0.16643231  0.33285576  0.91310438  1
  Ni  Ni18  1  0.16643673  0.83356327  0.91310754  1
  Ni  Ni19  1  0.66714424  0.83356769  0.91310438  1
  Ni  Ni20  1  0.00001149  0.99998851  0.66852293  1
  Ni  Ni21  1  0.99998851  0.00001149  0.33147707  1
  Ni  Ni22  1  0.99998851  0.00001149  0.16852293  1
  Ni  Ni23  1  0.00001149  0.99998851  0.83147707  1
  Ni  Ni24  1  0.66666867  0.33333133  0.33217569  1
  Ni  Ni25  1  0.33333133  0.66666867  0.66782431  1
  Ni  Ni26  1  0.33333133  0.66666867  0.83217569  1
  Ni  Ni27  1  0.66666867  0.33333133  0.16782431  1
loop_
_geom_bond_atom_site_label_1
_geom_bond_atom_site_label_2
_geom_bond_distance
_geom_bond_site_symmetry_2
Ni0 Ni9 2.532860 1_545
Ni0 Ni12 2.532860 1_455
Ni0 Ni10 2.532920 1_445
Ni0 Ni13 2.532920 1_555
Ni0 Ni8 2.532920 1_555
Ni0 Ni11 2.532920 1_445
Ni0 Sm1 2.934186 1_545
Ni0 Sm0 2.934186 1_455
Ni0 Sm1 2.934356 1_445
Ni0 Sm0 2.934356 1_555
Ni0 Sm1 2.934358 1_555
Ni0 Sm0 2.934358 1_445
Ni1 Ni18 2.532860 1_544
Ni1 Ni15 2.532860 1_455
Ni1 Ni19 2.532920 1_444
Ni1 Ni16 2.532920 1_555
Ni1 Ni17 2.532920 1_554
Ni1 Ni14 2.532920 1_445
Ni1 Sm2 2.934186 1_545
Ni1 Sm3 2.934186 1_454
Ni1 Sm2 2.934356 1_445
Ni1 Sm3 2.934356 1_554
Ni1 Sm2 2.934358 1_555
Ni1 Sm3 2.934358 1_444
Ni2 Ni23 2.428530 1_545
Ni2 Ni20 2.428530 1_545
Ni2 Ni25 2.439147 1_555
Ni2 Ni26 2.439147 1_555
Ni2 Ni3 2.459881 1_555
Ni2 Ni4 2.460003 1_555
Ni2 Ni3 2.468929 1_545
Ni2 Ni4 2.469046 1_445
Ni2 Sm4 3.070407 1_455
Ni2 Sm7 3.070407 1_455
Ni2 Sm4 3.070428 1_555
Ni2 Sm7 3.070428 1_555
Ni3 Ni4 2.459874 1_555
Ni3 Ni4 2.468932 1_455
Ni3 Sm4 3.070515 1_455
Ni3 Sm7 3.070515 1_455
Ni3 Sm4 3.070515 1_565
Ni3 Sm7 3.070515 1_565
Ni4 Sm7 3.070407 1_565
Ni4 Sm4 3.070407 1_565
Ni4 Sm7 3.070431 1_555
Ni4 Sm4 3.070431 1_555
Ni5 Ni6 2.459881 1_555
Ni5 Ni7 2.460003 1_555
Ni5 Ni6 2.468929 1_565
Ni5 Ni7 2.469046 1_665
Ni5 Sm6 3.070407 1_655
Ni5 Sm5 3.070407 1_655
Ni5 Sm6 3.070428 1_555
Ni5 Sm5 3.070428 1_555
Ni6 Ni7 2.459874 1_555
Ni6 Ni7 2.468932 1_655
Ni6 Sm6 3.070515 1_655
Ni6 Sm5 3.070515 1_655
Ni6 Sm6 3.070515 1_545
Ni6 Sm5 3.070515 1_545
Ni7 Sm6 3.070407 1_545
Ni7 Sm5 3.070407 1_545
Ni7 Sm6 3.070431 1_555
Ni7 Sm5 3.070431 1_555
Ni8 Ni9 2.460928 1_545
Ni8 Ni9 2.467881 1_555
Ni8 Sm0 2.825088 1_555
Ni8 Sm0 2.825090 1_455
Ni8 Sm1 3.152884 1_555
Ni8 Sm4 3.240664 1_455
Ni8 Sm4 3.240681 1_555
Ni9 Sm0 2.825157 1_565
Ni9 Sm0 2.825157 1_455
Ni9 Sm1 3.152733 1_555
Ni9 Sm4 3.240814 1_565
Ni9 Sm4 3.240814 1_455
Ni10 Ni25 2.417476 1_555
Ni10 Ni20 2.428751 1_655
Ni10 Ni9 2.460927 1_655
Ni10 Ni8 2.461015 1_665
Ni10 Ni9 2.467879 1_555
Ni10 Ni8 2.468033 1_555
Ni10 Sm0 2.825090 1_555
Ni10 Sm0 2.825091 1_565
Ni10 Sm1 3.152883 1_555
Ni10 Sm4 3.240665 1_565
Ni10 Sm4 3.240683 1_555
Ni11 Ni24 2.417476 1_555
Ni11 Ni21 2.428751 1_565
Ni11 Ni12 2.460928 1_565
Ni11 Ni13 2.461015 1_665
Ni11 Ni12 2.467881 1_555
Ni11 Ni13 2.468033 1_555
Ni11 Sm1 2.825088 1_555
Ni11 Sm1 2.825090 1_655
Ni11 Sm0 3.152884 1_555
Ni11 Sm5 3.240664 1_655
Ni11 Sm5 3.240681 1_555
Ni12 Ni24 2.417437 1_555
Ni12 Ni21 2.428731 1_555
Ni12 Ni13 2.460927 1_655
Ni12 Ni13 2.467879 1_555
Ni12 Sm1 2.825157 1_545
Ni12 Sm1 2.825157 1_655
Ni12 Sm0 3.152733 1_555
Ni12 Sm5 3.240814 1_545
Ni12 Sm5 3.240814 1_655
Ni13 Ni24 2.417476 1_555
Ni13 Ni21 2.428751 1_455
Ni13 Sm1 2.825090 1_555
Ni13 Sm1 2.825091 1_545
Ni13 Sm0 3.152883 1_555
Ni13 Sm5 3.240665 1_545
Ni13 Sm5 3.240683 1_555
Ni14 Ni27 2.417476 1_555
Ni14 Ni22 2.428751 1_565
Ni14 Ni15 2.460928 1_565
Ni14 Ni16 2.461015 1_665
Ni14 Ni15 2.467881 1_555
Ni14 Ni16 2.468033 1_555
Ni14 Sm2 2.825088 1_555
Ni14 Sm2 2.825090 1_655
Ni14 Sm3 3.152884 1_554
Ni14 Sm6 3.240664 1_655
Ni14 Sm6 3.240681 1_555
Ni15 Ni27 2.417437 1_555
Ni15 Ni22 2.428731 1_555
Ni15 Ni16 2.460927 1_655
Ni15 Ni16 2.467879 1_555
Ni15 Sm2 2.825157 1_545
Ni15 Sm2 2.825157 1_655
Ni15 Sm3 3.152733 1_554
Ni15 Sm6 3.240814 1_545
Ni15 Sm6 3.240814 1_655
Ni16 Ni27 2.417476 1_555
Ni16 Ni22 2.428751 1_455
Ni16 Sm2 2.825090 1_555
Ni16 Sm2 2.825091 1_545
Ni16 Sm3 3.152883 1_554
Ni16 Sm6 3.240665 1_545
Ni16 Sm6 3.240683 1_555
Ni17 Ni26 2.417476 1_555
Ni17 Ni23 2.428751 1_545
Ni17 Ni18 2.460928 1_545
Ni17 Ni19 2.461015 1_445
Ni17 Ni18 2.467881 1_555
Ni17 Ni19 2.468033 1_555
Ni17 Sm3 2.825088 1_555
Ni17 Sm3 2.825090 1_455
Ni17 Sm2 3.152884 1_556
Ni17 Sm7 3.240664 1_455
Ni17 Sm7 3.240681 1_555
Ni18 Ni26 2.417437 1_555
Ni18 Ni23 2.428731 1_555
Ni18 Ni19 2.460927 1_455
Ni18 Ni19 2.467879 1_555
Ni18 Sm3 2.825157 1_565
Ni18 Sm3 2.825157 1_455
Ni18 Sm2 3.152733 1_556
Ni18 Sm7 3.240814 1_565
Ni18 Sm7 3.240814 1_455
Ni19 Ni26 2.417476 1_555
Ni19 Ni23 2.428751 1_655
Ni19 Sm3 2.825090 1_555
Ni19 Sm3 2.825091 1_565
Ni19 Sm2 3.152883 1_556
Ni19 Sm7 3.240665 1_565
Ni19 Sm7 3.240683 1_555
Ni20 Ni3 2.428427 1_555
Ni20 Ni4 2.428532 1_455
Ni20 Ni9 2.428731 1_555
Ni20 Ni8 2.428751 1_565
Ni20 Sm4 2.848847 1_465
Ni20 Sm4 2.848896 1_565
Ni20 Sm4 2.848898 1_455
Ni21 Ni6 2.428427 1_555
Ni21 Ni5 2.428530 1_545
Ni21 Ni7 2.428532 1_655
Ni21 Sm5 2.848847 1_645
Ni21 Sm5 2.848896 1_545
Ni21 Sm5 2.848898 1_655
Ni22 Ni6 2.428427 1_555
Ni22 Ni5 2.428530 1_545
Ni22 Ni7 2.428532 1_655
Ni22 Sm6 2.848847 1_645
Ni22 Sm6 2.848896 1_545
Ni22 Sm6 2.848898 1_655
Ni23 Ni3 2.428427 1_555
Ni23 Ni4 2.428532 1_455
Ni23 Sm7 2.848847 1_465
Ni23 Sm7 2.848896 1_565
Ni23 Sm7 2.848898 1_455
Ni24 Ni6 2.439067 1_555
Ni24 Ni7 2.439144 1_555
Ni24 Ni5 2.439147 1_555
Ni24 Sm5 2.849690 1_555
Ni24 Sm5 2.849745 1_655
Ni24 Sm5 2.849747 1_545
Ni25 Ni9 2.417437 1_555
Ni25 Ni8 2.417476 1_555
Ni25 Ni3 2.439067 1_555
Ni25 Ni4 2.439144 1_555
Ni25 Sm4 2.849690 1_555
Ni25 Sm4 2.849745 1_455
Ni25 Sm4 2.849747 1_565
Ni26 Ni3 2.439067 1_555
Ni26 Ni4 2.439144 1_555
Ni26 Sm7 2.849690 1_555
Ni26 Sm7 2.849745 1_455
Ni26 Sm7 2.849747 1_565
Ni27 Ni6 2.439067 1_555
Ni27 Ni7 2.439144 1_555
Ni27 Ni5 2.439147 1_555
Ni27 Sm6 2.849690 1_555
Ni27 Sm6 2.849745 1_655
Ni27 Sm6 2.849747 1_545
