# generated using pymatgen
data_MgSiO3
_symmetry_space_group_name_H-M   'P 1'
_cell_length_a   8.92151500
_cell_length_b   5.33700900
_cell_length_c   18.77323364
_cell_angle_alpha   85.55034329
_cell_angle_beta   90.00000000
_cell_angle_gamma   90.00000000
_symmetry_Int_Tables_number   1
_chemical_formula_structural   MgSiO3
_chemical_formula_sum   'Mg16 Si16 O48'
_cell_volume   891.17837828
_cell_formula_units_Z   16
loop_
 _symmetry_equiv_pos_site_id
 _symmetry_equiv_pos_as_xyz
  1  'x, y, z'
loop_
 _atom_site_type_symbol
 _atom_site_label
 _atom_site_symmetry_multiplicity
 _atom_site_fract_x
 _atom_site_fract_y
 _atom_site_fract_z
 _atom_site_occupancy
  Mg  Mg0  1  0.09999800  0.24916600  0.81381500  1
  Mg  Mg1  1  0.90000200  0.74916600  0.81381500  1
  Mg  Mg2  1  0.74426200  0.25259500  0.81388200  1
  Mg  Mg3  1  0.25573800  0.75259500  0.81388200  1
  Mg  Mg4  1  0.60128500  0.36859400  0.56399500  1
  Mg  Mg5  1  0.39871500  0.86859400  0.56399500  1
  Mg  Mg6  1  0.24128000  0.36720500  0.56265300  1
  Mg  Mg7  1  0.75872000  0.86720500  0.56265300  1
  Mg  Mg8  1  0.10014400  0.81041600  0.31132000  1
  Mg  Mg9  1  0.89985600  0.31041600  0.31132000  1
  Mg  Mg10  1  0.74011800  0.81100000  0.31119400  1
  Mg  Mg11  1  0.25988200  0.31100000  0.31119400  1
  Mg  Mg12  1  0.40085800  0.73970500  0.06119500  1
  Mg  Mg13  1  0.59914200  0.23970500  0.06119500  1
  Mg  Mg14  1  0.24166100  0.24090300  0.06223100  1
  Mg  Mg15  1  0.75833900  0.74090300  0.06223100  1
  Si  Si0  1  0.91193600  0.37247000  0.96132400  1
  Si  Si1  1  0.08806400  0.87247000  0.96132400  1
  Si  Si2  1  0.41194100  0.43298200  0.91486600  1
  Si  Si3  1  0.58805900  0.93298200  0.91486600  1
  Si  Si4  1  0.58955100  0.66128200  0.71066800  1
  Si  Si5  1  0.41044900  0.16128200  0.71066800  1
  Si  Si6  1  0.91173800  0.12638400  0.66740100  1
  Si  Si7  1  0.08826200  0.62638400  0.66740100  1
  Si  Si8  1  0.58954700  0.07945800  0.41624100  1
  Si  Si9  1  0.41045300  0.57945800  0.41624100  1
  Si  Si10  1  0.08933800  0.10274100  0.45806200  1
  Si  Si11  1  0.91066200  0.60274100  0.45806200  1
  Si  Si12  1  0.08962400  0.51722500  0.16388100  1
  Si  Si13  1  0.91037600  0.01722500  0.16388100  1
  Si  Si14  1  0.41062800  0.03728500  0.20776500  1
  Si  Si15  1  0.58937200  0.53728500  0.20776500  1
  O  O0  1  0.90882400  0.40225400  0.87382800  1
  O  O1  1  0.09117600  0.90225400  0.87382800  1
  O  O2  1  0.76062300  0.44256600  0.00261400  1
  O  O3  1  0.23937700  0.94256600  0.00261400  1
  O  O4  1  0.03985900  0.57653400  0.98798500  1
  O  O5  1  0.96014100  0.07653400  0.98798500  1
  O  O6  1  0.41149900  0.41635900  0.00216100  1
  O  O7  1  0.58850100  0.91635900  0.00216100  1
  O  O8  1  0.53601400  0.22816000  0.88636200  1
  O  O9  1  0.46398600  0.72816000  0.88636200  1
  O  O10  1  0.74398100  0.91603100  0.87351000  1
  O  O11  1  0.25601900  0.41603100  0.87351000  1
  O  O12  1  0.40670500  0.18151400  0.62303800  1
  O  O13  1  0.59329500  0.68151400  0.62303800  1
  O  O14  1  0.74147100  0.57840800  0.75318800  1
  O  O15  1  0.25852900  0.07840800  0.75318800  1
  O  O16  1  0.46618100  0.43718300  0.73731600  1
  O  O17  1  0.53381900  0.93718300  0.73731600  1
  O  O18  1  0.09016700  0.60080000  0.75468800  1
  O  O19  1  0.90983300  0.10080000  0.75468800  1
  O  O20  1  0.75842600  0.16749500  0.62349100  1
  O  O21  1  0.24157400  0.66749500  0.62349100  1
  O  O22  1  0.03626700  0.34600800  0.64010400  1
  O  O23  1  0.96373300  0.84600800  0.64010400  1
  O  O24  1  0.40700000  0.55995200  0.50338500  1
  O  O25  1  0.59300000  0.05995200  0.50338500  1
  O  O26  1  0.74338700  0.11245000  0.37170300  1
  O  O27  1  0.25661300  0.61245000  0.37170300  1
  O  O28  1  0.46852000  0.30397000  0.38840200  1
  O  O29  1  0.53148000  0.80397000  0.38840200  1
  O  O30  1  0.09235600  0.12215100  0.37075600  1
  O  O31  1  0.90764400  0.62215100  0.37075600  1
  O  O32  1  0.75647000  0.56704500  0.50186400  1
  O  O33  1  0.24353000  0.06704500  0.50186400  1
  O  O34  1  0.03259200  0.37932700  0.48578500  1
  O  O35  1  0.96740800  0.87932700  0.48578500  1
  O  O36  1  0.09072200  0.49920500  0.25106900  1
  O  O37  1  0.90927800  0.99920500  0.25106900  1
  O  O38  1  0.75249300  0.04340000  0.12293100  1
  O  O39  1  0.24750700  0.54340000  0.12293100  1
  O  O40  1  0.02935700  0.24426700  0.13428300  1
  O  O41  1  0.97064300  0.74426700  0.13428300  1
  O  O42  1  0.40849300  0.05315100  0.12067300  1
  O  O43  1  0.59150700  0.55315100  0.12067300  1
  O  O44  1  0.25467500  0.00914200  0.25029900  1
  O  O45  1  0.74532500  0.50914200  0.25029900  1
  O  O46  1  0.46999300  0.31121600  0.23607000  1
  O  O47  1  0.53000700  0.81121600  0.23607000  1
loop_
_geom_bond_atom_site_label_1
_geom_bond_atom_site_label_2
_geom_bond_distance
_geom_bond_site_symmetry_2
Mg0 O11 2.035033 1_555
Mg0 O15 2.070567 1_555
Mg0 O1 2.092795 1_545
Mg0 O18 2.106770 1_555
Mg0 O19 2.207669 1_455
Mg0 O0 2.233523 1_455
Mg1 O10 2.035033 1_555
Mg1 O14 2.070567 1_555
Mg1 O0 2.092795 1_555
Mg1 O19 2.106770 1_565
Mg1 O18 2.207669 1_655
Mg1 O1 2.233523 1_655
Mg2 O14 2.003779 1_555
Mg2 O10 2.041466 1_545
Mg2 O0 2.049236 1_555
Mg2 O19 2.052526 1_555
Mg2 O8 2.300583 1_555
Mg3 O15 2.003779 1_565
Mg3 O11 2.041466 1_555
Mg3 O1 2.049236 1_555
Mg3 O18 2.052526 1_555
Mg3 O9 2.300583 1_555
Mg4 O20 2.044225 1_555
Mg4 O32 2.051186 1_555
Mg4 O25 2.074689 1_555
Mg4 O13 2.076058 1_555
Mg4 O12 2.251067 1_555
Mg4 O24 2.271955 1_555
Mg5 O21 2.044225 1_555
Mg5 O33 2.051186 1_565
Mg5 O24 2.074689 1_555
Mg5 O12 2.076058 1_565
Mg5 O13 2.251067 1_555
Mg5 O25 2.271955 1_565
Mg6 O33 2.037815 1_555
Mg6 O21 2.038864 1_555
Mg6 O12 2.066648 1_555
Mg6 O24 2.074726 1_555
Mg6 O22 2.333826 1_555
Mg6 O34 2.353396 1_555
Mg7 O32 2.037815 1_555
Mg7 O20 2.038864 1_565
Mg7 O13 2.066648 1_555
Mg7 O25 2.074726 1_565
Mg7 O23 2.333826 1_555
Mg7 O35 2.353396 1_555
Mg8 O44 2.036993 1_565
Mg8 O27 2.040616 1_555
Mg8 O30 2.075068 1_565
Mg8 O36 2.082471 1_555
Mg8 O37 2.239940 1_455
Mg8 O31 2.242780 1_455
Mg9 O45 2.036993 1_555
Mg9 O26 2.040616 1_555
Mg9 O31 2.075068 1_555
Mg9 O37 2.082471 1_545
Mg9 O36 2.239940 1_655
Mg9 O30 2.242780 1_655
Mg10 O26 2.040387 1_565
Mg10 O45 2.047000 1_555
Mg10 O31 2.079678 1_555
Mg10 O37 2.093951 1_555
Mg10 O47 2.345748 1_555
Mg10 O29 2.357656 1_555
Mg11 O27 2.040387 1_555
Mg11 O44 2.047000 1_555
Mg11 O30 2.079678 1_555
Mg11 O36 2.093951 1_555
Mg11 O46 2.345748 1_555
Mg11 O28 2.357656 1_555
Mg12 O39 2.030821 1_555
Mg12 O3 2.066972 1_555
Mg12 O42 2.083203 1_565
Mg12 O6 2.124159 1_555
Mg12 O7 2.181161 1_555
Mg12 O43 2.226784 1_555
Mg13 O38 2.030821 1_555
Mg13 O2 2.066972 1_555
Mg13 O43 2.083203 1_555
Mg13 O7 2.124159 1_545
Mg13 O6 2.181161 1_555
Mg13 O42 2.226784 1_555
Mg14 O3 2.016118 1_545
Mg14 O39 2.047706 1_555
Mg14 O42 2.062167 1_555
Mg14 O6 2.068962 1_555
Mg14 O40 2.328361 1_555
Mg15 O2 2.016118 1_555
Mg15 O38 2.047706 1_565
Mg15 O43 2.062167 1_555
Mg15 O7 2.068962 1_555
Mg15 O41 2.328361 1_555
O0 Si0 1.638171 1_555
O1 Si1 1.638171 1_555
O2 Si0 1.614975 1_554
O3 Si1 1.614975 1_554
O4 Si1 1.675515 1_555
O4 Si0 1.680389 1_455
O5 Si0 1.675515 1_555
O5 Si1 1.680389 1_645
O6 Si2 1.634326 1_554
O7 Si3 1.634326 1_554
O8 Si2 1.672521 1_555
O8 Si3 1.689058 1_545
O9 Si3 1.672521 1_555
O9 Si2 1.689058 1_555
O10 Si3 1.599033 1_555
O11 Si2 1.599033 1_555
O12 Si5 1.640598 1_555
O13 Si4 1.640598 1_555
O14 Si4 1.617103 1_555
O15 Si5 1.617103 1_555
O16 Si5 1.667336 1_555
O16 Si4 1.673115 1_555
O17 Si4 1.667336 1_555
O17 Si5 1.673115 1_565
O18 Si7 1.633836 1_555
O19 Si6 1.633836 1_555
O20 Si6 1.603250 1_555
O21 Si7 1.603250 1_555
O22 Si6 1.666613 1_455
O22 Si7 1.684011 1_555
O23 Si7 1.666613 1_655
O23 Si6 1.684011 1_565
O24 Si9 1.631494 1_555
O25 Si8 1.631494 1_555
O26 Si8 1.609651 1_555
O27 Si9 1.609651 1_555
O28 Si8 1.666600 1_555
O28 Si9 1.680021 1_555
O29 Si9 1.666600 1_555
O29 Si8 1.680021 1_565
O30 Si10 1.634468 1_555
O31 Si11 1.634468 1_555
O32 Si11 1.606400 1_555
O33 Si10 1.606400 1_555
O34 Si11 1.667218 1_455
O34 Si10 1.680884 1_555
O35 Si10 1.667218 1_665
O35 Si11 1.680884 1_555
O36 Si12 1.632188 1_555
O37 Si13 1.632188 1_565
O38 Si13 1.605577 1_555
O39 Si12 1.605577 1_555
O40 Si13 1.673115 1_455
O40 Si12 1.686904 1_555
O41 Si12 1.673115 1_655
O41 Si13 1.686904 1_565
O42 Si14 1.630727 1_555
O43 Si15 1.630727 1_555
O44 Si14 1.605420 1_555
O45 Si15 1.605420 1_555
O46 Si15 1.665207 1_555
O46 Si14 1.679515 1_555
O47 Si14 1.665207 1_565
O47 Si15 1.679515 1_555
