# generated using pymatgen
data_Mg2SnN2
_symmetry_space_group_name_H-M   'P 1'
_cell_length_a   5.55652525
_cell_length_b   5.55652525
_cell_length_c   6.72067717
_cell_angle_alpha   73.71252323
_cell_angle_beta   73.71252323
_cell_angle_gamma   44.81030181
_symmetry_Int_Tables_number   1
_chemical_formula_structural   Mg2SnN2
_chemical_formula_sum   'Mg4 Sn2 N4'
_cell_volume   139.34738616
_cell_formula_units_Z   2
loop_
 _symmetry_equiv_pos_site_id
 _symmetry_equiv_pos_as_xyz
  1  'x, y, z'
loop_
 _atom_site_type_symbol
 _atom_site_label
 _atom_site_symmetry_multiplicity
 _atom_site_fract_x
 _atom_site_fract_y
 _atom_site_fract_z
 _atom_site_occupancy
  Mg  Mg0  1  0.66072700  0.66716000  0.95897600  1
  Mg  Mg1  1  0.33284000  0.33927300  0.04102400  1
  Mg  Mg2  1  0.99643800  0.00516300  0.79257900  1
  Mg  Mg3  1  0.99483700  0.00356200  0.20742100  1
  Sn  Sn0  1  0.34674400  0.30346500  0.57802900  1
  Sn  Sn1  1  0.69653500  0.65325600  0.42197100  1
  N  N0  1  0.16251500  0.17323800  0.91062800  1
  N  N1  1  0.82676200  0.83748500  0.08937200  1
  N  N2  1  0.50588400  0.51867900  0.27287400  1
  N  N3  1  0.48132100  0.49411600  0.72712600  1
loop_
_geom_bond_atom_site_label_1
_geom_bond_atom_site_label_2
_geom_bond_distance
_geom_bond_site_symmetry_2
Mg0 N0 2.132205 1_655
Mg0 N0 2.150179 1_565
Mg0 N1 2.161584 1_556
Mg0 N2 2.210028 1_556
Mg0 N3 2.723587 1_555
Mg1 N1 2.132205 1_545
Mg1 N1 2.150179 1_455
Mg1 N0 2.161584 1_554
Mg1 N3 2.210028 1_554
Mg1 N2 2.723587 1_555
Mg2 N0 2.098167 1_655
Mg2 N3 2.167131 1_645
Mg2 N3 2.183913 1_555
Mg2 N1 2.210140 1_546
Mg3 N1 2.098167 1_545
Mg3 N2 2.167131 1_645
Mg3 N2 2.183913 1_555
Mg3 N0 2.210140 1_654
N0 Sn0 2.329875 1_555
N1 Sn1 2.329875 1_555
N2 Sn1 2.196631 1_555
N2 Sn0 2.350635 1_555
N3 Sn0 2.196631 1_555
N3 Sn1 2.350635 1_555
