# generated using pymatgen
data_Ba4InAgS6
_symmetry_space_group_name_H-M   'P 1'
_cell_length_a   9.00526600
_cell_length_b   8.83255200
_cell_length_c   18.00228567
_cell_angle_alpha   76.06118947
_cell_angle_beta   90.00000000
_cell_angle_gamma   90.00000000
_symmetry_Int_Tables_number   1
_chemical_formula_structural   Ba4InAgS6
_chemical_formula_sum   'Ba16 In4 Ag4 S24'
_cell_volume   1389.72827457
_cell_formula_units_Z   4
loop_
 _symmetry_equiv_pos_site_id
 _symmetry_equiv_pos_as_xyz
  1  'x, y, z'
loop_
 _atom_site_type_symbol
 _atom_site_label
 _atom_site_symmetry_multiplicity
 _atom_site_fract_x
 _atom_site_fract_y
 _atom_site_fract_z
 _atom_site_occupancy
  Ba  Ba0  1  0.58042300  0.78261300  0.71432000  1
  Ba  Ba1  1  0.08042300  0.21738700  0.78568000  1
  Ba  Ba2  1  0.41957700  0.21738700  0.28568000  1
  Ba  Ba3  1  0.91957700  0.78261300  0.21432000  1
  Ba  Ba4  1  0.57710100  0.25423200  0.71463200  1
  Ba  Ba5  1  0.07710100  0.74576800  0.78536800  1
  Ba  Ba6  1  0.42289900  0.74576800  0.28536800  1
  Ba  Ba7  1  0.92289900  0.25423200  0.21463200  1
  Ba  Ba8  1  0.75829400  0.90324500  0.95884800  1
  Ba  Ba9  1  0.25829400  0.09675500  0.54115200  1
  Ba  Ba10  1  0.24170600  0.09675500  0.04115200  1
  Ba  Ba11  1  0.74170600  0.90324500  0.45884800  1
  Ba  Ba12  1  0.26559200  0.60990700  0.54025500  1
  Ba  Ba13  1  0.76559200  0.39009300  0.95974500  1
  Ba  Ba14  1  0.73440800  0.39009300  0.45974500  1
  Ba  Ba15  1  0.23440800  0.60990700  0.04025500  1
  In  In0  1  0.88067600  0.55637800  0.63230700  1
  In  In1  1  0.38067600  0.44362200  0.86769300  1
  In  In2  1  0.11932400  0.44362200  0.36769300  1
  In  In3  1  0.61932400  0.55637800  0.13230700  1
  Ag  Ag0  1  0.37189600  0.93815300  0.86649400  1
  Ag  Ag1  1  0.87189600  0.06184700  0.63350600  1
  Ag  Ag2  1  0.62810400  0.06184700  0.13350600  1
  Ag  Ag3  1  0.12810400  0.93815300  0.36649400  1
  S  S0  1  0.01431000  0.33611800  0.59734900  1
  S  S1  1  0.51431000  0.66388200  0.90265100  1
  S  S2  1  0.98569000  0.66388200  0.40265100  1
  S  S3  1  0.48569000  0.33611800  0.09734900  1
  S  S4  1  0.82021700  0.48769000  0.77142400  1
  S  S5  1  0.32021700  0.51231000  0.72857600  1
  S  S6  1  0.17978300  0.51231000  0.22857600  1
  S  S7  1  0.67978300  0.48769000  0.27142400  1
  S  S8  1  0.62911800  0.58983500  0.57354700  1
  S  S9  1  0.12911800  0.41016500  0.92645300  1
  S  S10  1  0.37088200  0.41016500  0.42645300  1
  S  S11  1  0.87088200  0.58983500  0.07354700  1
  S  S12  1  0.00963900  0.81503000  0.59813300  1
  S  S13  1  0.50963900  0.18497000  0.90186700  1
  S  S14  1  0.99036100  0.18497000  0.40186700  1
  S  S15  1  0.49036100  0.81503000  0.09813300  1
  S  S16  1  0.81174000  0.98721800  0.77896600  1
  S  S17  1  0.31174000  0.01278200  0.72103400  1
  S  S18  1  0.18826000  0.01278200  0.22103400  1
  S  S19  1  0.68826000  0.98721800  0.27896600  1
  S  S20  1  0.61421800  0.09491900  0.56973100  1
  S  S21  1  0.11421800  0.90508100  0.93026900  1
  S  S22  1  0.38578200  0.90508100  0.43026900  1
  S  S23  1  0.88578200  0.09491900  0.06973100  1
loop_
_geom_bond_atom_site_label_1
_geom_bond_atom_site_label_2
_geom_bond_distance
_geom_bond_site_symmetry_2
Ba0 S16 3.157961 1_555
Ba0 S17 3.181238 1_565
Ba0 S5 3.310795 1_555
Ba0 S20 3.319310 1_565
Ba0 S4 3.348931 1_555
Ba0 S1 3.352018 1_555
Ba0 S8 3.404819 1_555
Ba1 S17 3.157961 1_555
Ba1 S16 3.181238 1_445
Ba1 S4 3.310795 1_455
Ba1 S21 3.319310 1_545
Ba1 S5 3.348931 1_555
Ba1 S0 3.352018 1_555
Ba1 S9 3.404819 1_555
Ba2 S18 3.157961 1_555
Ba2 S19 3.181238 1_545
Ba2 S7 3.310795 1_555
Ba2 S22 3.319310 1_545
Ba2 S6 3.348931 1_555
Ba2 S3 3.352018 1_555
Ba2 S10 3.404819 1_555
Ba3 S19 3.157961 1_555
Ba3 S18 3.181238 1_665
Ba3 S6 3.310795 1_655
Ba3 S23 3.319310 1_565
Ba3 S7 3.348931 1_555
Ba3 S2 3.352018 1_555
Ba3 S11 3.404819 1_555
Ba4 S16 3.170528 1_545
Ba4 S17 3.186432 1_555
Ba4 S20 3.265682 1_555
Ba4 S5 3.299416 1_555
Ba4 S4 3.332573 1_555
Ba4 S13 3.333351 1_555
Ba4 S8 3.439451 1_555
Ba5 S17 3.170528 1_565
Ba5 S16 3.186432 1_455
Ba5 S21 3.265682 1_555
Ba5 S4 3.299416 1_455
Ba5 S5 3.332573 1_555
Ba5 S12 3.333351 1_555
Ba5 S9 3.439451 1_555
Ba6 S18 3.170528 1_565
Ba6 S19 3.186432 1_555
Ba6 S22 3.265682 1_555
Ba6 S7 3.299416 1_555
Ba6 S6 3.332573 1_555
Ba6 S15 3.333351 1_555
Ba6 S10 3.439451 1_555
Ba7 S19 3.170528 1_545
Ba7 S18 3.186432 1_655
Ba7 S23 3.265682 1_555
Ba7 S6 3.299416 1_655
Ba7 S7 3.332573 1_555
Ba7 S14 3.333351 1_555
Ba7 S11 3.439451 1_555
Ba8 S23 3.130002 1_566
Ba8 S16 3.179801 1_555
Ba8 S11 3.193864 1_556
Ba8 S21 3.245641 1_655
Ba8 S13 3.320909 1_565
Ba8 S1 3.369145 1_555
Ba8 S15 3.431442 1_556
Ba9 S22 3.130002 1_545
Ba9 S17 3.179801 1_555
Ba9 S10 3.193864 1_555
Ba9 S20 3.245641 1_555
Ba9 S12 3.320909 1_545
Ba9 S0 3.369145 1_555
Ba9 S14 3.431442 1_455
Ba10 S21 3.130002 1_544
Ba10 S18 3.179801 1_555
Ba10 S9 3.193864 1_554
Ba10 S23 3.245641 1_455
Ba10 S15 3.320909 1_545
Ba10 S3 3.369145 1_555
Ba10 S13 3.431442 1_554
Ba11 S20 3.130002 1_565
Ba11 S19 3.179801 1_555
Ba11 S8 3.193864 1_555
Ba11 S22 3.245641 1_555
Ba11 S14 3.320909 1_565
Ba11 S2 3.369145 1_555
Ba11 S12 3.431442 1_655
Ba12 S22 3.066280 1_555
Ba12 S10 3.154360 1_555
Ba12 S12 3.254265 1_555
Ba12 S0 3.290511 1_555
Ba12 S8 3.325088 1_555
Ba12 S5 3.327256 1_555
Ba12 S2 3.485421 1_455
Ba13 S23 3.066280 1_556
Ba13 S11 3.154360 1_556
Ba13 S13 3.254265 1_555
Ba13 S1 3.290511 1_555
Ba13 S9 3.325088 1_655
Ba13 S4 3.327256 1_555
Ba13 S3 3.485421 1_556
Ba14 S20 3.066280 1_555
Ba14 S8 3.154360 1_555
Ba14 S14 3.254265 1_555
Ba14 S2 3.290511 1_555
Ba14 S10 3.325088 1_555
Ba14 S7 3.327256 1_555
Ba14 S0 3.485421 1_655
Ba15 S21 3.066280 1_554
Ba15 S9 3.154360 1_554
Ba15 S15 3.254265 1_555
Ba15 S3 3.290511 1_555
Ba15 S11 3.325088 1_455
Ba15 S6 3.327256 1_555
Ba15 S1 3.485421 1_554
In0 S8 2.487467 1_555
In0 S4 2.490909 1_555
In0 S0 2.493771 1_655
In0 S12 2.503855 1_655
In1 S9 2.487467 1_555
In1 S5 2.490909 1_555
In1 S1 2.493771 1_555
In1 S13 2.503855 1_555
In2 S10 2.487467 1_555
In2 S6 2.490909 1_555
In2 S2 2.493771 1_455
In2 S14 2.503855 1_455
In3 S11 2.487467 1_555
In3 S7 2.490909 1_555
In3 S3 2.493771 1_555
In3 S15 2.503855 1_555
Ag0 S21 2.574181 1_555
Ag0 S17 2.598751 1_565
Ag0 S1 2.679052 1_555
Ag0 S13 2.713935 1_565
Ag1 S20 2.574181 1_555
Ag1 S16 2.598751 1_545
Ag1 S0 2.679052 1_655
Ag1 S12 2.713935 1_645
Ag2 S23 2.574181 1_555
Ag2 S19 2.598751 1_545
Ag2 S3 2.679052 1_555
Ag2 S15 2.713935 1_545
Ag3 S22 2.574181 1_555
Ag3 S18 2.598751 1_565
Ag3 S2 2.679052 1_455
Ag3 S14 2.713935 1_465
