# generated using pymatgen
data_Rb(CrS2)2
_symmetry_space_group_name_H-M   'P 1'
_cell_length_a   3.58828400
_cell_length_b   11.73998800
_cell_length_c   13.08945500
_cell_angle_alpha   90.00000000
_cell_angle_beta   90.00000000
_cell_angle_gamma   90.00000000
_symmetry_Int_Tables_number   1
_chemical_formula_structural   Rb(CrS2)2
_chemical_formula_sum   'Rb4 Cr8 S16'
_cell_volume   551.41176241
_cell_formula_units_Z   4
loop_
 _symmetry_equiv_pos_site_id
 _symmetry_equiv_pos_as_xyz
  1  'x, y, z'
loop_
 _atom_site_type_symbol
 _atom_site_label
 _atom_site_symmetry_multiplicity
 _atom_site_fract_x
 _atom_site_fract_y
 _atom_site_fract_z
 _atom_site_occupancy
  Rb  Rb0  1  0.25000000  0.24608400  0.33571400  1
  Rb  Rb1  1  0.75000000  0.75391600  0.66428600  1
  Rb  Rb2  1  0.75000000  0.25391600  0.83571400  1
  Rb  Rb3  1  0.25000000  0.74608400  0.16428600  1
  Cr  Cr0  1  0.25000000  0.06898400  0.10548800  1
  Cr  Cr1  1  0.75000000  0.93101600  0.89451200  1
  Cr  Cr2  1  0.75000000  0.43101600  0.60548800  1
  Cr  Cr3  1  0.25000000  0.56898400  0.39451200  1
  Cr  Cr4  1  0.25000000  0.07318900  0.60371000  1
  Cr  Cr5  1  0.75000000  0.92681100  0.39629000  1
  Cr  Cr6  1  0.75000000  0.42681100  0.10371000  1
  Cr  Cr7  1  0.25000000  0.57318900  0.89629000  1
  S  S0  1  0.75000000  0.01800900  0.71495000  1
  S  S1  1  0.25000000  0.98199100  0.28505000  1
  S  S2  1  0.25000000  0.48199100  0.21495000  1
  S  S3  1  0.75000000  0.51800900  0.78505000  1
  S  S4  1  0.25000000  0.05997500  0.92485100  1
  S  S5  1  0.75000000  0.94002500  0.07514900  1
  S  S6  1  0.75000000  0.44002500  0.42485100  1
  S  S7  1  0.25000000  0.55997500  0.57514900  1
  S  S8  1  0.75000000  0.10378700  0.48703500  1
  S  S9  1  0.25000000  0.89621300  0.51296500  1
  S  S10  1  0.25000000  0.39621300  0.98703500  1
  S  S11  1  0.75000000  0.60378700  0.01296500  1
  S  S12  1  0.75000000  0.20447800  0.12721900  1
  S  S13  1  0.25000000  0.79552200  0.87278100  1
  S  S14  1  0.25000000  0.29552200  0.62721900  1
  S  S15  1  0.75000000  0.70447800  0.37278100  1
loop_
_geom_bond_atom_site_label_1
_geom_bond_atom_site_label_2
_geom_bond_distance
_geom_bond_site_symmetry_2
Rb0 S6 3.124800 1_555
Rb0 S6 3.124800 1_455
Rb0 S8 3.151657 1_455
Rb0 S8 3.151657 1_555
Rb0 S1 3.170579 1_545
Rb0 S2 3.188903 1_555
Rb0 S12 3.302339 1_455
Rb0 S12 3.302339 1_555
Rb1 S7 3.124800 1_555
Rb1 S7 3.124800 1_655
Rb1 S9 3.151657 1_555
Rb1 S9 3.151657 1_655
Rb1 S0 3.170579 1_565
Rb1 S3 3.188903 1_555
Rb1 S13 3.302339 1_555
Rb1 S13 3.302339 1_655
Rb2 S4 3.124800 1_655
Rb2 S4 3.124800 1_555
Rb2 S10 3.151657 1_655
Rb2 S10 3.151657 1_555
Rb2 S3 3.170579 1_555
Rb2 S0 3.188903 1_555
Rb2 S14 3.302339 1_655
Rb2 S14 3.302339 1_555
Rb3 S5 3.124800 1_455
Rb3 S5 3.124800 1_555
Rb3 S11 3.151657 1_455
Rb3 S11 3.151657 1_555
Rb3 S2 3.170579 1_555
Rb3 S1 3.188903 1_555
Rb3 S15 3.302339 1_455
Rb3 S15 3.302339 1_555
Cr0 S4 2.366804 1_554
Cr0 S5 2.380919 1_545
Cr0 S5 2.380919 1_445
Cr0 S12 2.414576 1_455
Cr0 S12 2.414576 1_555
Cr0 S1 2.562671 1_545
Cr1 S5 2.366804 1_556
Cr1 S4 2.380919 1_565
Cr1 S4 2.380919 1_665
Cr1 S13 2.414576 1_555
Cr1 S13 2.414576 1_655
Cr1 S0 2.562671 1_565
Cr2 S6 2.366804 1_555
Cr2 S7 2.380919 1_555
Cr2 S7 2.380919 1_655
Cr2 S14 2.414576 1_555
Cr2 S14 2.414576 1_655
Cr2 S3 2.562671 1_555
Cr3 S7 2.366804 1_555
Cr3 S6 2.380919 1_555
Cr3 S6 2.380919 1_455
Cr3 S15 2.414576 1_455
Cr3 S15 2.414576 1_555
Cr3 S2 2.562671 1_555
Cr4 S8 2.383351 1_455
Cr4 S8 2.383351 1_555
Cr4 S9 2.393261 1_545
Cr4 S0 2.399739 1_455
Cr4 S0 2.399739 1_555
Cr4 S14 2.628263 1_555
Cr5 S9 2.383351 1_555
Cr5 S9 2.383351 1_655
Cr5 S8 2.393261 1_565
Cr5 S1 2.399739 1_555
Cr5 S1 2.399739 1_655
Cr5 S15 2.628263 1_555
Cr6 S10 2.383351 1_654
Cr6 S10 2.383351 1_554
Cr6 S11 2.393261 1_555
Cr6 S2 2.399739 1_655
Cr6 S2 2.399739 1_555
Cr6 S12 2.628263 1_555
Cr7 S11 2.383351 1_456
Cr7 S11 2.383351 1_556
Cr7 S10 2.393261 1_555
Cr7 S3 2.399739 1_455
Cr7 S3 2.399739 1_555
Cr7 S13 2.628263 1_555
