# generated using pymatgen
data_ErGaAg
_symmetry_space_group_name_H-M   'P 1'
_cell_length_a   5.69908267
_cell_length_b   5.69908267
_cell_length_c   7.09211372
_cell_angle_alpha   52.21713752
_cell_angle_beta   52.21713752
_cell_angle_gamma   47.00147106
_symmetry_Int_Tables_number   1
_chemical_formula_structural   ErGaAg
_chemical_formula_sum   'Er2 Ga2 Ag2'
_cell_volume   125.35624629
_cell_formula_units_Z   2
loop_
 _symmetry_equiv_pos_site_id
 _symmetry_equiv_pos_as_xyz
  1  'x, y, z'
loop_
 _atom_site_type_symbol
 _atom_site_label
 _atom_site_symmetry_multiplicity
 _atom_site_fract_x
 _atom_site_fract_y
 _atom_site_fract_z
 _atom_site_occupancy
  Er  Er0  1  0.53701500  0.53701500  0.70989500  1
  Er  Er1  1  0.46298500  0.46298500  0.29010500  1
  Ga  Ga0  1  0.83970900  0.83970900  0.11498000  1
  Ga  Ga1  1  0.16029100  0.16029100  0.88502000  1
  Ag  Ag0  1  0.17206900  0.17206900  0.27862500  1
  Ag  Ag1  1  0.82793100  0.82793100  0.72137500  1
loop_
_geom_bond_atom_site_label_1
_geom_bond_atom_site_label_2
_geom_bond_distance
_geom_bond_site_symmetry_2
Er0 Ga0 3.123260 1_546
Er0 Ga0 3.123260 1_456
Er0 Ga0 3.158368 1_555
Er0 Ga1 3.241297 1_565
Er0 Ga1 3.241297 1_655
Er0 Ga1 3.242521 1_555
Er0 Er1 3.541296 1_555
Er0 Er1 3.643721 1_556
Er1 Ga1 3.123260 1_564
Er1 Ga1 3.123260 1_654
Er1 Ga1 3.158368 1_555
Er1 Ga0 3.241297 1_545
Er1 Ga0 3.241297 1_455
Er1 Ga0 3.242521 1_555
Ga0 Ga1 2.566417 1_664
Ag0 Ga0 2.620063 1_545
Ag0 Ga0 2.620063 1_455
Ag0 Ag1 2.776173 1_445
Ag0 Ga1 2.875201 1_554
Ag0 Er1 3.095857 1_555
Ag0 Er1 3.116066 1_455
Ag0 Er1 3.116066 1_545
Ag0 Er0 3.203423 1_554
Ag0 Er0 3.277689 1_545
Ag0 Er0 3.277689 1_455
Ag1 Ga1 2.620063 1_655
Ag1 Ga1 2.620063 1_565
Ag1 Ga0 2.875201 1_556
Ag1 Er0 3.095857 1_555
Ag1 Er0 3.116066 1_655
Ag1 Er0 3.116066 1_565
Ag1 Er1 3.203423 1_556
Ag1 Er1 3.277689 1_655
Ag1 Er1 3.277689 1_565
