# generated using pymatgen
data_Na3Os
_symmetry_space_group_name_H-M   'P 1'
_cell_length_a   4.94968900
_cell_length_b   9.34181500
_cell_length_c   9.34181500
_cell_angle_alpha   90.00000000
_cell_angle_beta   90.00000000
_cell_angle_gamma   90.00000000
_symmetry_Int_Tables_number   1
_chemical_formula_structural   Na3Os
_chemical_formula_sum   'Na12 Os4'
_cell_volume   431.95692128
_cell_formula_units_Z   4
loop_
 _symmetry_equiv_pos_site_id
 _symmetry_equiv_pos_as_xyz
  1  'x, y, z'
loop_
 _atom_site_type_symbol
 _atom_site_label
 _atom_site_symmetry_multiplicity
 _atom_site_fract_x
 _atom_site_fract_y
 _atom_site_fract_z
 _atom_site_occupancy
  Na  Na0  1  0.50000000  0.96656900  0.70251500  1
  Na  Na1  1  0.50000000  0.03343100  0.29748500  1
  Na  Na2  1  0.00000000  0.53343100  0.20251500  1
  Na  Na3  1  0.00000000  0.46656900  0.79748500  1
  Na  Na4  1  0.50000000  0.70251500  0.96656900  1
  Na  Na5  1  0.50000000  0.29748500  0.03343100  1
  Na  Na6  1  0.00000000  0.20251500  0.53343100  1
  Na  Na7  1  0.00000000  0.79748500  0.46656900  1
  Na  Na8  1  0.50000000  0.37663000  0.37663000  1
  Na  Na9  1  0.50000000  0.62337000  0.62337000  1
  Na  Na10  1  0.00000000  0.12337000  0.87663000  1
  Na  Na11  1  0.00000000  0.87663000  0.12337000  1
  Os  Os0  1  0.50000000  0.29405800  0.70594200  1
  Os  Os1  1  0.50000000  0.70594200  0.29405800  1
  Os  Os2  1  0.00000000  0.20594200  0.20594200  1
  Os  Os3  1  0.00000000  0.79405800  0.79405800  1
loop_
_geom_bond_atom_site_label_1
_geom_bond_atom_site_label_2
_geom_bond_distance
_geom_bond_site_symmetry_2
Na0 Os0 3.059509 1_565
Na0 Os3 3.074627 1_555
Na0 Os3 3.074627 1_655
Na1 Os1 3.059509 1_545
Na1 Os2 3.074627 1_555
Na1 Os2 3.074627 1_655
Na2 Os2 3.059509 1_555
Na2 Os1 3.074627 1_555
Na2 Os1 3.074627 1_455
Na3 Os3 3.059509 1_555
Na3 Os0 3.074627 1_555
Na3 Os0 3.074627 1_455
Na4 Os1 3.059509 1_556
Na4 Os3 3.074627 1_555
Na4 Os3 3.074627 1_655
Na5 Os0 3.059509 1_554
Na5 Os2 3.074627 1_555
Na5 Os2 3.074627 1_655
Na6 Os2 3.059509 1_555
Na6 Os0 3.074627 1_455
Na6 Os0 3.074627 1_555
Na7 Os3 3.059509 1_555
Na7 Os1 3.074627 1_455
Na7 Os1 3.074627 1_555
Na8 Os0 3.171605 1_555
Na8 Os1 3.171605 1_555
Na8 Os2 3.348125 1_655
Na8 Os2 3.348125 1_555
Na9 Os0 3.171605 1_555
Na9 Os1 3.171605 1_555
Na9 Os3 3.348125 1_555
Na9 Os3 3.348125 1_655
Na10 Os2 3.171605 1_556
Na10 Os3 3.171605 1_545
Na10 Os0 3.348125 1_455
Na10 Os0 3.348125 1_555
Na11 Os2 3.171605 1_565
Na11 Os3 3.171605 1_554
Na11 Os1 3.348125 1_455
Na11 Os1 3.348125 1_555
