# generated using pymatgen
data_Sr2DyBiO6
_symmetry_space_group_name_H-M   'P 1'
_cell_length_a   5.93815296
_cell_length_b   6.10078800
_cell_length_c   8.48832362
_cell_angle_alpha   90.00000000
_cell_angle_beta   89.94245078
_cell_angle_gamma   90.00000000
_symmetry_Int_Tables_number   1
_chemical_formula_structural   Sr2DyBiO6
_chemical_formula_sum   'Sr4 Dy2 Bi2 O12'
_cell_volume   307.50984472
_cell_formula_units_Z   2
loop_
 _symmetry_equiv_pos_site_id
 _symmetry_equiv_pos_as_xyz
  1  'x, y, z'
loop_
 _atom_site_type_symbol
 _atom_site_label
 _atom_site_symmetry_multiplicity
 _atom_site_fract_x
 _atom_site_fract_y
 _atom_site_fract_z
 _atom_site_occupancy
  Sr  Sr0  1  0.01263800  0.45322900  0.25210600  1
  Sr  Sr1  1  0.98736200  0.54677100  0.74789400  1
  Sr  Sr2  1  0.48736200  0.95322900  0.24789400  1
  Sr  Sr3  1  0.51263800  0.04677100  0.75210600  1
  Dy  Dy0  1  0.00000000  0.00000000  0.50000000  1
  Dy  Dy1  1  0.50000000  0.50000000  0.00000000  1
  Bi  Bi0  1  0.00000000  0.00000000  0.00000000  1
  Bi  Bi1  1  0.50000000  0.50000000  0.50000000  1
  O  O0  1  0.90742300  0.03548100  0.24322200  1
  O  O1  1  0.09257700  0.96451900  0.75677800  1
  O  O2  1  0.59257700  0.53548100  0.25677800  1
  O  O3  1  0.40742300  0.46451900  0.74322200  1
  O  O4  1  0.19915100  0.71441600  0.05173400  1
  O  O5  1  0.80084900  0.28558400  0.94826600  1
  O  O6  1  0.30084900  0.21441600  0.44826600  1
  O  O7  1  0.69915100  0.78558400  0.55173400  1
  O  O8  1  0.28934700  0.20014200  0.04611900  1
  O  O9  1  0.71065300  0.79985800  0.95388100  1
  O  O10  1  0.21065300  0.70014200  0.45388100  1
  O  O11  1  0.78934700  0.29985800  0.54611900  1
loop_
_geom_bond_atom_site_label_1
_geom_bond_atom_site_label_2
_geom_bond_distance
_geom_bond_site_symmetry_2
Dy0 O10 2.250242 1_545
Dy0 O11 2.250242 1_455
Dy0 O6 2.256977 1_555
Dy0 O7 2.256977 1_445
Dy0 O1 2.258804 1_545
Dy0 O0 2.258804 1_455
Dy1 O9 2.250242 1_554
Dy1 O8 2.250242 1_555
Dy1 O4 2.256977 1_555
Dy1 O5 2.256977 1_554
Dy1 O2 2.258804 1_555
Dy1 O3 2.258804 1_554
Bi0 O8 2.144217 1_555
Bi0 O9 2.144217 1_444
Bi0 O1 2.146891 1_544
Bi0 O0 2.146891 1_455
Bi0 O4 2.151271 1_545
Bi0 O5 2.151271 1_454
Bi1 O11 2.144217 1_555
Bi1 O10 2.144217 1_555
Bi1 O3 2.146891 1_555
Bi1 O2 2.146891 1_555
Bi1 O7 2.151271 1_555
Bi1 O6 2.151271 1_555
O0 Sr2 2.544630 1_545
O0 Sr0 2.625158 1_655
O1 Sr3 2.544630 1_565
O1 Sr1 2.625158 1_455
O2 Sr0 2.544630 1_655
O2 Sr2 2.625158 1_555
O3 Sr1 2.544630 1_455
O3 Sr3 2.625158 1_555
O4 Sr0 2.579677 1_555
O4 Sr2 2.798197 1_555
O4 Sr1 3.047283 1_454
O5 Sr1 2.579677 1_555
O5 Sr3 2.798197 1_555
O5 Sr0 3.047283 1_656
O6 Sr2 2.579677 1_545
O6 Sr0 2.798197 1_555
O6 Sr3 3.047283 1_555
O7 Sr3 2.579677 1_565
O7 Sr1 2.798197 1_555
O7 Sr2 3.047283 1_555
O8 Sr2 2.566950 1_545
O8 Sr0 2.852256 1_555
O8 Sr3 2.975797 1_554
O9 Sr3 2.566950 1_565
O9 Sr1 2.852256 1_555
O9 Sr2 2.975797 1_556
O10 Sr0 2.566950 1_555
O10 Sr2 2.852256 1_555
O10 Sr1 2.975797 1_455
O11 Sr1 2.566950 1_555
O11 Sr3 2.852256 1_555
O11 Sr0 2.975797 1_655
