# generated using pymatgen
data_La3Zn
_symmetry_space_group_name_H-M   'P 1'
_cell_length_a   4.96366300
_cell_length_b   4.96366300
_cell_length_c   4.96366300
_cell_angle_alpha   90.00000000
_cell_angle_beta   90.00000000
_cell_angle_gamma   90.00000000
_symmetry_Int_Tables_number   1
_chemical_formula_structural   La3Zn
_chemical_formula_sum   'La3 Zn1'
_cell_volume   122.29448268
_cell_formula_units_Z   1
loop_
 _symmetry_equiv_pos_site_id
 _symmetry_equiv_pos_as_xyz
  1  'x, y, z'
loop_
 _atom_site_type_symbol
 _atom_site_label
 _atom_site_symmetry_multiplicity
 _atom_site_fract_x
 _atom_site_fract_y
 _atom_site_fract_z
 _atom_site_occupancy
  La  La0  1  0.00000000  0.50000000  0.50000000  1
  La  La1  1  0.50000000  0.00000000  0.50000000  1
  La  La2  1  0.50000000  0.50000000  0.00000000  1
  Zn  Zn0  1  0.00000000  0.00000000  0.00000000  1
loop_
_geom_bond_atom_site_label_1
_geom_bond_atom_site_label_2
_geom_bond_distance
_geom_bond_site_symmetry_2
La0 La2 3.509840 1_556
La0 La1 3.509840 1_555
La0 La2 3.509840 1_456
La0 La1 3.509840 1_455
La0 Zn0 3.509840 1_565
La0 Zn0 3.509840 1_555
La0 Zn0 3.509840 1_566
La0 Zn0 3.509840 1_556
La0 La1 3.509840 1_465
La0 La1 3.509840 1_565
La0 La2 3.509840 1_455
La0 La2 3.509840 1_555
La1 La2 3.509840 1_545
La1 La2 3.509840 1_556
La1 La2 3.509840 1_546
La1 Zn0 3.509840 1_656
La1 Zn0 3.509840 1_555
La1 Zn0 3.509840 1_556
La1 Zn0 3.509840 1_655
La1 La2 3.509840 1_555
La2 Zn0 3.509840 1_665
La2 Zn0 3.509840 1_565
La2 Zn0 3.509840 1_555
La2 Zn0 3.509840 1_655
