# generated using pymatgen
data_K2NaCl3
_symmetry_space_group_name_H-M   'P 1'
_cell_length_a   4.27397264
_cell_length_b   4.27397264
_cell_length_c   10.57067409
_cell_angle_alpha   90.00000000
_cell_angle_beta   90.00000000
_cell_angle_gamma   119.99998724
_symmetry_Int_Tables_number   1
_chemical_formula_structural   K2NaCl3
_chemical_formula_sum   'K2 Na1 Cl3'
_cell_volume   167.22332139
_cell_formula_units_Z   1
loop_
 _symmetry_equiv_pos_site_id
 _symmetry_equiv_pos_as_xyz
  1  'x, y, z'
loop_
 _atom_site_type_symbol
 _atom_site_label
 _atom_site_symmetry_multiplicity
 _atom_site_fract_x
 _atom_site_fract_y
 _atom_site_fract_z
 _atom_site_occupancy
  K  K0  1  0.33333300  0.66666700  0.67902339  1
  K  K1  1  0.66666700  0.33333300  0.32097661  1
  Na  Na0  1  -0.00000000  -0.00000000  0.00000000  1
  Cl  Cl0  1  0.33333300  0.66666700  0.14299160  1
  Cl  Cl1  1  0.66666700  0.33333300  0.85700840  1
  Cl  Cl2  1  -0.00000000  -0.00000000  0.50000000  1
loop_
_geom_bond_atom_site_label_1
_geom_bond_atom_site_label_2
_geom_bond_distance
_geom_bond_site_symmetry_2
Cl0 Na0 2.893721 1_565
Cl0 Na0 2.893724 1_665
Cl0 Na0 2.893724 1_555
Cl0 K1 3.103012 1_455
Cl0 K1 3.103012 1_565
Cl0 K1 3.103018 1_555
Cl1 Na0 2.893721 1_656
Cl1 Na0 2.893724 1_666
Cl1 Na0 2.893724 1_556
Cl1 K0 3.103012 1_655
Cl1 K0 3.103012 1_545
Cl1 K0 3.103018 1_555
Cl2 K0 3.109679 1_545
Cl2 K1 3.109679 1_455
Cl2 K1 3.109682 1_555
Cl2 K0 3.109682 1_555
Cl2 K1 3.109682 1_445
Cl2 K0 3.109682 1_445
