# generated using pymatgen
data_Zn2BiN3
_symmetry_space_group_name_H-M   'P 1'
_cell_length_a   5.95831538
_cell_length_b   5.92041960
_cell_length_c   5.60066800
_cell_angle_alpha   90.00000000
_cell_angle_beta   90.00000000
_cell_angle_gamma   119.78983682
_symmetry_Int_Tables_number   1
_chemical_formula_structural   Zn2BiN3
_chemical_formula_sum   'Zn4 Bi2 N6'
_cell_volume   171.45978323
_cell_formula_units_Z   2
loop_
 _symmetry_equiv_pos_site_id
 _symmetry_equiv_pos_as_xyz
  1  'x, y, z'
loop_
 _atom_site_type_symbol
 _atom_site_label
 _atom_site_symmetry_multiplicity
 _atom_site_fract_x
 _atom_site_fract_y
 _atom_site_fract_z
 _atom_site_occupancy
  Zn  Zn0  1  0.34736800  0.33927800  0.49600600  1
  Zn  Zn1  1  0.65263200  0.99191000  0.49600600  1
  Zn  Zn2  1  0.65263200  0.66072200  0.99600600  1
  Zn  Zn3  1  0.34736800  0.00809000  0.99600600  1
  Bi  Bi0  1  0.00000000  0.68614400  0.48678300  1
  Bi  Bi1  1  0.00000000  0.31385600  0.98678300  1
  N  N0  1  0.34699400  0.33050600  0.86334600  1
  N  N1  1  0.65300600  0.98351200  0.86334600  1
  N  N2  1  0.65300600  0.66949400  0.36334600  1
  N  N3  1  0.34699400  0.01648800  0.36334600  1
  N  N4  1  0.00000000  0.67498700  0.88251500  1
  N  N5  1  0.00000000  0.32501300  0.38251500  1
loop_
_geom_bond_atom_site_label_1
_geom_bond_atom_site_label_2
_geom_bond_distance
_geom_bond_site_symmetry_2
Bi0 N3 2.135345 1_565
Bi0 N2 2.135346 1_455
Bi0 N5 2.216363 1_555
Bi0 N4 2.217348 1_555
Bi1 N1 2.135345 1_445
Bi1 N0 2.135346 1_555
Bi1 N4 2.216363 1_555
Bi1 N5 2.217348 1_556
N0 Zn2 2.037858 1_555
N0 Zn3 2.049371 1_555
N0 Zn0 2.057978 1_555
N1 Zn3 2.037858 1_565
N1 Zn2 2.049371 1_555
N1 Zn1 2.057978 1_555
N2 Zn0 2.037858 1_555
N2 Zn1 2.049371 1_555
N2 Zn2 2.057978 1_554
N3 Zn1 2.037858 1_545
N3 Zn0 2.049371 1_555
N3 Zn3 2.057978 1_554
N4 Zn3 2.126321 1_565
N4 Zn2 2.126321 1_455
N5 Zn1 2.126321 1_445
N5 Zn0 2.126321 1_555
