# generated using pymatgen
data_NdSi2Rh3
_symmetry_space_group_name_H-M   'P 1'
_cell_length_a   5.58455175
_cell_length_b   6.64453693
_cell_length_c   6.64453693
_cell_angle_alpha   65.11977287
_cell_angle_beta   65.15049533
_cell_angle_gamma   65.15049533
_symmetry_Int_Tables_number   1
_chemical_formula_structural   NdSi2Rh3
_chemical_formula_sum   'Nd2 Si4 Rh6'
_cell_volume   193.88765833
_cell_formula_units_Z   2
loop_
 _symmetry_equiv_pos_site_id
 _symmetry_equiv_pos_as_xyz
  1  'x, y, z'
loop_
 _atom_site_type_symbol
 _atom_site_label
 _atom_site_symmetry_multiplicity
 _atom_site_fract_x
 _atom_site_fract_y
 _atom_site_fract_z
 _atom_site_occupancy
  Nd  Nd0  1  0.96167013  0.75000000  0.75000000  1
  Nd  Nd1  1  0.03832987  0.25000000  0.25000000  1
  Si  Si0  1  0.61988609  0.57820559  0.57820559  1
  Si  Si1  1  0.38011391  0.42179441  0.42179441  1
  Si  Si2  1  0.72370373  0.07820559  0.07820559  1
  Si  Si3  1  0.27629627  0.92179441  0.92179441  1
  Rh  Rh0  1  0.50000000  0.78316692  0.21683308  1
  Rh  Rh1  1  -0.00000000  0.28316692  0.71683308  1
  Rh  Rh2  1  0.50000000  0.21683308  0.78316692  1
  Rh  Rh3  1  0.00000000  0.71683308  0.28316692  1
  Rh  Rh4  1  0.50000000  0.00000000  0.50000000  1
  Rh  Rh5  1  0.50000000  0.50000000  0.00000000  1
loop_
_geom_bond_atom_site_label_1
_geom_bond_atom_site_label_2
_geom_bond_distance
_geom_bond_site_symmetry_2
Nd0 Rh1 3.113456 1_655
Nd0 Rh3 3.113456 1_655
Nd0 Rh2 3.113456 1_565
Nd0 Rh0 3.113456 1_556
Nd0 Rh4 3.137531 1_565
Nd0 Rh5 3.137531 1_556
Nd0 Si3 3.187639 1_655
Nd0 Si0 3.187644 1_655
Nd0 Si1 3.226109 1_655
Nd0 Si2 3.226110 1_566
Nd0 Si0 3.317834 1_555
Nd0 Si3 3.317839 1_555
Nd0 Rh4 3.497843 1_665
Nd0 Rh5 3.497843 1_656
Nd0 Rh1 3.547605 1_665
Nd0 Rh3 3.547605 1_656
Nd0 Rh2 3.547605 1_655
Nd0 Rh0 3.547605 1_655
Nd0 Nd1 3.601498 1_665
Nd0 Nd1 3.601498 1_656
Nd1 Rh3 3.113456 1_555
Nd1 Rh1 3.113456 1_555
Nd1 Rh0 3.113456 1_545
Nd1 Rh2 3.113456 1_554
Nd1 Rh5 3.137531 1_555
Nd1 Rh4 3.137531 1_555
Nd1 Si2 3.187639 1_455
Nd1 Si1 3.187644 1_455
Nd1 Si0 3.226109 1_455
Nd1 Si3 3.226110 1_544
Nd1 Si1 3.317834 1_555
Nd1 Si2 3.317839 1_555
Nd1 Rh4 3.497843 1_455
Nd1 Rh5 3.497843 1_455
Nd1 Rh3 3.547605 1_545
Nd1 Rh1 3.547605 1_554
Nd1 Rh0 3.547605 1_455
Nd1 Rh2 3.547605 1_455
Rh0 Si2 2.413319 1_565
Rh0 Si3 2.413319 1_554
Rh0 Si1 2.429342 1_555
Rh0 Si0 2.429342 1_555
Rh1 Si1 2.413315 1_555
Rh1 Si0 2.413315 1_455
Rh1 Si3 2.429340 1_545
Rh1 Si2 2.429340 1_456
Rh2 Si2 2.413319 1_556
Rh2 Si3 2.413319 1_545
Rh2 Si0 2.429342 1_555
Rh2 Si1 2.429342 1_555
Rh3 Si1 2.413315 1_555
Rh3 Si0 2.413315 1_455
Rh3 Si2 2.429340 1_465
Rh3 Si3 2.429340 1_554
Rh4 Si0 2.462296 1_545
Rh4 Si1 2.462296 1_555
Rh4 Si3 2.462297 1_545
Rh4 Si2 2.462297 1_555
Rh5 Si0 2.462296 1_554
Rh5 Si1 2.462296 1_555
Rh5 Si2 2.462297 1_555
Rh5 Si3 2.462297 1_554
