# generated using pymatgen
data_Rb2U(PtSe2)3
_symmetry_space_group_name_H-M   'P 1'
_cell_length_a   11.76098402
_cell_length_b   10.19173471
_cell_length_c   9.27551992
_cell_angle_alpha   74.16639390
_cell_angle_beta   56.47991051
_cell_angle_gamma   49.35369559
_symmetry_Int_Tables_number   1
_chemical_formula_structural   Rb2U(PtSe2)3
_chemical_formula_sum   'Rb4 U2 Pt6 Se12'
_cell_volume   696.62198809
_cell_formula_units_Z   2
loop_
 _symmetry_equiv_pos_site_id
 _symmetry_equiv_pos_as_xyz
  1  'x, y, z'
loop_
 _atom_site_type_symbol
 _atom_site_label
 _atom_site_symmetry_multiplicity
 _atom_site_fract_x
 _atom_site_fract_y
 _atom_site_fract_z
 _atom_site_occupancy
  Rb  Rb0  1  0.75000000  0.75000000  0.75000000  1
  Rb  Rb1  1  0.25000000  0.25000000  0.25000000  1
  Rb  Rb2  1  0.32319500  0.67680500  0.32319500  1
  Rb  Rb3  1  0.67680500  0.32319500  0.67680500  1
  U  U0  1  0.83168900  0.83168900  0.16831100  1
  U  U1  1  0.16831100  0.16831100  0.83168900  1
  Pt  Pt0  1  0.50478300  0.16804800  0.49521700  1
  Pt  Pt1  1  0.83195200  0.49521700  0.16804800  1
  Pt  Pt2  1  0.49521700  0.83195200  0.50478300  1
  Pt  Pt3  1  0.16804800  0.50478300  0.83195200  1
  Pt  Pt4  1  0.83682500  0.16317500  0.16317500  1
  Pt  Pt5  1  0.16317500  0.83682500  0.83682500  1
  Se  Se0  1  0.82178700  0.97629300  0.40128500  1
  Se  Se1  1  0.80063500  0.40128500  0.97629300  1
  Se  Se2  1  0.40128500  0.80063500  0.82178700  1
  Se  Se3  1  0.97629300  0.82178700  0.80063500  1
  Se  Se4  1  0.17821300  0.02370700  0.59871500  1
  Se  Se5  1  0.19936500  0.59871500  0.02370700  1
  Se  Se6  1  0.59871500  0.19936500  0.17821300  1
  Se  Se7  1  0.02370700  0.17821300  0.19936500  1
  Se  Se8  1  0.81163600  0.59109500  0.40890500  1
  Se  Se9  1  0.18836400  0.40890500  0.59109500  1
  Se  Se10  1  0.40890500  0.18836400  0.81163600  1
  Se  Se11  1  0.59109500  0.81163600  0.18836400  1
loop_
_geom_bond_atom_site_label_1
_geom_bond_atom_site_label_2
_geom_bond_distance
_geom_bond_site_symmetry_2
Rb0 Se11 3.448439 1_556
Rb0 Se9 3.448439 1_655
Rb0 Se10 3.448439 1_565
Rb0 Se8 3.448439 1_555
Rb0 Se3 3.455994 1_555
Rb0 Se0 3.455994 1_555
Rb0 Se1 3.455994 1_555
Rb0 Se2 3.455994 1_555
Rb1 Se9 3.448439 1_555
Rb1 Se11 3.448439 1_545
Rb1 Se8 3.448439 1_455
Rb1 Se10 3.448439 1_554
Rb1 Se6 3.455994 1_555
Rb1 Se5 3.455994 1_555
Rb1 Se4 3.455994 1_555
Rb1 Se7 3.455994 1_555
Rb2 Se11 3.705463 1_555
Rb2 Se9 3.705463 1_555
Rb2 Se4 3.768603 1_565
Rb2 Se1 3.768603 1_554
Rb2 Se3 3.768603 1_455
Rb2 Se6 3.768603 1_555
Rb3 Se8 3.705463 1_555
Rb3 Se10 3.705463 1_555
Rb3 Se2 3.768603 1_555
Rb3 Se5 3.768603 1_556
Rb3 Se7 3.768603 1_655
Rb3 Se0 3.768603 1_545
Pt0 Se10 2.510092 1_555
Pt0 Se9 2.510092 1_555
Pt0 Se0 2.515494 1_545
Pt0 Se6 2.515494 1_555
Pt1 Se8 2.510092 1_555
Pt1 Se11 2.510092 1_555
Pt1 Se1 2.515494 1_554
Pt1 Se7 2.515494 1_655
Pt2 Se8 2.510092 1_555
Pt2 Se11 2.510092 1_555
Pt2 Se2 2.515494 1_555
Pt2 Se4 2.515494 1_565
Pt3 Se10 2.510092 1_555
Pt3 Se9 2.510092 1_555
Pt3 Se3 2.515494 1_455
Pt3 Se5 2.515494 1_556
Pt4 Se6 2.499761 1_555
Pt4 Se0 2.499761 1_545
Pt4 Se1 2.499761 1_554
Pt4 Se7 2.499761 1_655
Pt5 Se3 2.499761 1_455
Pt5 Se5 2.499761 1_556
Pt5 Se4 2.499761 1_565
Pt5 Se2 2.499761 1_555
Se0 U0 2.844575 1_555
Se1 U1 2.844575 1_655
Se2 U1 2.844575 1_565
Se3 U0 2.844575 1_556
Se4 U1 2.844575 1_555
Se5 U0 2.844575 1_455
Se6 U0 2.844575 1_545
Se7 U1 2.844575 1_554
Se8 U0 2.869580 1_555
Se9 U1 2.869580 1_555
Se10 U1 2.869580 1_555
Se11 U0 2.869580 1_555
