# generated using pymatgen
data_LaIn2Cu9
_symmetry_space_group_name_H-M   'P 1'
_cell_length_a   8.51858800
_cell_length_b   8.51858800
_cell_length_c   5.04648300
_cell_angle_alpha   90.00000000
_cell_angle_beta   90.00000000
_cell_angle_gamma   90.00000000
_symmetry_Int_Tables_number   1
_chemical_formula_structural   LaIn2Cu9
_chemical_formula_sum   'La2 In4 Cu18'
_cell_volume   366.20480882
_cell_formula_units_Z   2
loop_
 _symmetry_equiv_pos_site_id
 _symmetry_equiv_pos_as_xyz
  1  'x, y, z'
loop_
 _atom_site_type_symbol
 _atom_site_label
 _atom_site_symmetry_multiplicity
 _atom_site_fract_x
 _atom_site_fract_y
 _atom_site_fract_z
 _atom_site_occupancy
  La  La0  1  0.00000000  0.00000000  0.00000000  1
  La  La1  1  0.50000000  0.50000000  0.00000000  1
  In  In0  1  0.12249400  0.62249400  0.00000000  1
  In  In1  1  0.87750600  0.37750600  0.00000000  1
  In  In2  1  0.62249400  0.87750600  0.00000000  1
  In  In3  1  0.37750600  0.12249400  0.00000000  1
  Cu  Cu0  1  0.50000000  0.00000000  0.50000000  1
  Cu  Cu1  1  0.00000000  0.50000000  0.50000000  1
  Cu  Cu2  1  0.20761000  0.06434800  0.50000000  1
  Cu  Cu3  1  0.79239000  0.93565200  0.50000000  1
  Cu  Cu4  1  0.06434800  0.79239000  0.50000000  1
  Cu  Cu5  1  0.70761000  0.43565200  0.50000000  1
  Cu  Cu6  1  0.93565200  0.20761000  0.50000000  1
  Cu  Cu7  1  0.29239000  0.56434800  0.50000000  1
  Cu  Cu8  1  0.56434800  0.70761000  0.50000000  1
  Cu  Cu9  1  0.43565200  0.29239000  0.50000000  1
  Cu  Cu10  1  0.67655700  0.17655700  0.24657900  1
  Cu  Cu11  1  0.32344300  0.82344300  0.75342100  1
  Cu  Cu12  1  0.32344300  0.82344300  0.24657900  1
  Cu  Cu13  1  0.17655700  0.32344300  0.24657900  1
  Cu  Cu14  1  0.17655700  0.32344300  0.75342100  1
  Cu  Cu15  1  0.67655700  0.17655700  0.75342100  1
  Cu  Cu16  1  0.82344300  0.67655700  0.75342100  1
  Cu  Cu17  1  0.82344300  0.67655700  0.24657900  1
loop_
_geom_bond_atom_site_label_1
_geom_bond_atom_site_label_2
_geom_bond_distance
_geom_bond_site_symmetry_2
In0 In1 2.951396 1_455
In0 La1 3.380877 1_555
In0 La0 3.380877 1_565
In1 La1 3.380877 1_555
In1 La0 3.380877 1_655
In2 In3 2.951396 1_565
In2 La1 3.380877 1_555
In2 La0 3.380877 1_665
In3 La0 3.380877 1_555
In3 La1 3.380877 1_555
Cu0 Cu15 2.481870 1_555
Cu0 Cu10 2.481870 1_555
Cu0 Cu12 2.481870 1_545
Cu0 Cu11 2.481870 1_545
Cu0 Cu9 2.550355 1_555
Cu0 Cu3 2.550355 1_545
Cu0 Cu8 2.550355 1_545
Cu0 Cu2 2.550355 1_555
Cu0 In2 2.923086 1_546
Cu0 In2 2.923086 1_545
Cu0 In3 2.923086 1_555
Cu0 In3 2.923086 1_556
Cu1 Cu17 2.481870 1_455
Cu1 Cu16 2.481870 1_455
Cu1 Cu14 2.481870 1_555
Cu1 Cu13 2.481870 1_555
Cu1 Cu7 2.550355 1_555
Cu1 Cu5 2.550355 1_455
Cu1 Cu6 2.550355 1_455
Cu1 Cu4 2.550355 1_555
Cu1 In0 2.923086 1_555
Cu1 In0 2.923086 1_556
Cu1 In1 2.923086 1_456
Cu1 In1 2.923086 1_455
Cu2 Cu4 2.618481 1_545
Cu2 Cu6 2.618481 1_455
Cu2 Cu9 2.747245 1_555
Cu2 In3 2.950711 1_556
Cu2 In3 2.950711 1_555
Cu2 La0 3.129691 1_556
Cu2 La0 3.129691 1_555
Cu3 Cu6 2.618481 1_565
Cu3 Cu4 2.618481 1_655
Cu3 Cu8 2.747245 1_555
Cu3 In2 2.950711 1_556
Cu3 In2 2.950711 1_555
Cu3 La0 3.129691 1_666
Cu3 La0 3.129691 1_665
Cu4 Cu7 2.747245 1_555
Cu4 In0 2.950711 1_556
Cu4 In0 2.950711 1_555
Cu4 La0 3.129691 1_566
Cu4 La0 3.129691 1_565
Cu5 Cu9 2.618481 1_555
Cu5 Cu8 2.618481 1_555
Cu5 Cu6 2.747245 1_555
Cu5 In1 2.950711 1_555
Cu5 In1 2.950711 1_556
Cu5 La1 3.129691 1_556
Cu5 La1 3.129691 1_555
Cu6 In1 2.950711 1_555
Cu6 In1 2.950711 1_556
Cu6 La0 3.129691 1_655
Cu6 La0 3.129691 1_656
Cu7 Cu9 2.618481 1_555
Cu7 Cu8 2.618481 1_555
Cu7 In0 2.950711 1_555
Cu7 In0 2.950711 1_556
Cu7 La1 3.129691 1_556
Cu7 La1 3.129691 1_555
Cu8 In2 2.950711 1_555
Cu8 In2 2.950711 1_556
Cu8 La1 3.129691 1_556
Cu8 La1 3.129691 1_555
Cu9 In3 2.950711 1_556
Cu9 In3 2.950711 1_555
Cu9 La1 3.129691 1_555
Cu9 La1 3.129691 1_556
Cu10 Cu15 2.488713 1_554
Cu10 Cu15 2.557770 1_555
Cu10 Cu5 2.564550 1_555
Cu10 Cu6 2.564550 1_555
Cu10 Cu9 2.611627 1_555
Cu10 Cu3 2.611627 1_545
Cu10 In1 2.721939 1_555
Cu10 In2 2.872323 1_545
Cu10 In3 2.872323 1_555
Cu10 La1 3.376691 1_555
Cu10 La0 3.376691 1_655
Cu11 Cu12 2.488713 1_556
Cu11 Cu12 2.557770 1_555
Cu11 Cu4 2.564550 1_555
Cu11 Cu7 2.564550 1_555
Cu11 Cu8 2.611627 1_555
Cu11 Cu2 2.611627 1_565
Cu11 In0 2.721939 1_556
Cu11 In2 2.872323 1_556
Cu11 In3 2.872323 1_566
Cu11 La0 3.376691 1_566
Cu11 La1 3.376691 1_556
Cu12 Cu4 2.564550 1_555
Cu12 Cu7 2.564550 1_555
Cu12 Cu8 2.611627 1_555
Cu12 Cu2 2.611627 1_565
Cu12 In0 2.721939 1_555
Cu12 In2 2.872323 1_555
Cu12 In3 2.872323 1_565
Cu12 La0 3.376691 1_565
Cu12 La1 3.376691 1_555
Cu13 Cu14 2.488713 1_554
Cu13 Cu14 2.557770 1_555
Cu13 Cu9 2.564550 1_555
Cu13 Cu2 2.564550 1_555
Cu13 Cu6 2.611627 1_455
Cu13 Cu7 2.611627 1_555
Cu13 In3 2.721939 1_555
Cu13 In1 2.872323 1_455
Cu13 In0 2.872323 1_555
Cu13 La0 3.376691 1_555
Cu13 La1 3.376691 1_555
Cu14 Cu9 2.564550 1_555
Cu14 Cu2 2.564550 1_555
Cu14 Cu6 2.611627 1_455
Cu14 Cu7 2.611627 1_555
Cu14 In3 2.721939 1_556
Cu14 In1 2.872323 1_456
Cu14 In0 2.872323 1_556
Cu14 La0 3.376691 1_556
Cu14 La1 3.376691 1_556
Cu15 Cu5 2.564550 1_555
Cu15 Cu6 2.564550 1_555
Cu15 Cu9 2.611627 1_555
Cu15 Cu3 2.611627 1_545
Cu15 In1 2.721939 1_556
Cu15 In3 2.872323 1_556
Cu15 In2 2.872323 1_546
Cu15 La1 3.376691 1_556
Cu15 La0 3.376691 1_656
Cu16 Cu17 2.488713 1_556
Cu16 Cu17 2.557770 1_555
Cu16 Cu8 2.564550 1_555
Cu16 Cu3 2.564550 1_555
Cu16 Cu5 2.611627 1_555
Cu16 Cu4 2.611627 1_655
Cu16 In2 2.721939 1_556
Cu16 In1 2.872323 1_556
Cu16 In0 2.872323 1_656
Cu16 La1 3.376691 1_556
Cu16 La0 3.376691 1_666
Cu17 Cu8 2.564550 1_555
Cu17 Cu3 2.564550 1_555
Cu17 Cu5 2.611627 1_555
Cu17 Cu4 2.611627 1_655
Cu17 In2 2.721939 1_555
Cu17 In1 2.872323 1_555
Cu17 In0 2.872323 1_655
Cu17 La1 3.376691 1_555
Cu17 La0 3.376691 1_665
