# generated using pymatgen
data_BaReH9
_symmetry_space_group_name_H-M   'P 1'
_cell_length_a   7.16993264
_cell_length_b   7.16993264
_cell_length_c   7.48315700
_cell_angle_alpha   90.00000000
_cell_angle_beta   90.00000000
_cell_angle_gamma   120.00000595
_symmetry_Int_Tables_number   1
_chemical_formula_structural   BaReH9
_chemical_formula_sum   'Ba3 Re3 H27'
_cell_volume   333.15444680
_cell_formula_units_Z   3
loop_
 _symmetry_equiv_pos_site_id
 _symmetry_equiv_pos_as_xyz
  1  'x, y, z'
loop_
 _atom_site_type_symbol
 _atom_site_label
 _atom_site_symmetry_multiplicity
 _atom_site_fract_x
 _atom_site_fract_y
 _atom_site_fract_z
 _atom_site_occupancy
  Ba  Ba0  1  0.66666700  0.33333300  0.50737500  1
  Ba  Ba1  1  0.33333300  0.66666700  0.17939300  1
  Ba  Ba2  1  0.00000000  0.00000000  0.80753800  1
  Re  Re0  1  0.66666700  0.33333300  0.01624800  1
  Re  Re1  1  0.33333300  0.66666700  0.68769400  1
  Re  Re2  1  0.00000000  0.00000000  0.29308400  1
  H  H0  1  0.43666000  0.09675700  0.01169300  1
  H  H1  1  0.66009700  0.56334000  0.01169300  1
  H  H2  1  0.90324300  0.33990300  0.01169300  1
  H  H3  1  0.64165100  0.15306800  0.17970400  1
  H  H4  1  0.51141700  0.35834900  0.17970400  1
  H  H5  1  0.84693200  0.48858300  0.17970400  1
  H  H6  1  0.69104200  0.17512200  0.85533500  1
  H  H7  1  0.48408000  0.30895800  0.85533500  1
  H  H8  1  0.82487800  0.51592000  0.85533500  1
  H  H9  1  0.08376500  0.44866400  0.68919900  1
  H  H10  1  0.36489800  0.91623500  0.68919900  1
  H  H11  1  0.55133600  0.63510200  0.68919900  1
  H  H12  1  0.24245500  0.01787400  0.29185000  1
  H  H13  1  0.77541900  0.75754500  0.29185000  1
  H  H14  1  0.98212600  0.22458100  0.29185000  1
  H  H15  1  0.30114700  0.48257700  0.84865300  1
  H  H16  1  0.18143000  0.69885300  0.84865300  1
  H  H17  1  0.51742300  0.81857000  0.84865300  1
  H  H18  1  0.03118800  0.84899800  0.13061600  1
  H  H19  1  0.81781000  0.96881200  0.13061600  1
  H  H20  1  0.15100200  0.18219000  0.13061600  1
  H  H21  1  0.31932700  0.48968600  0.52751600  1
  H  H22  1  0.17035900  0.68067300  0.52751600  1
  H  H23  1  0.51031400  0.82964100  0.52751600  1
  H  H24  1  0.99929900  0.82714600  0.45266000  1
  H  H25  1  0.82784600  0.00070100  0.45266000  1
  H  H26  1  0.17285400  0.17215400  0.45266000  1
loop_
_geom_bond_atom_site_label_1
_geom_bond_atom_site_label_2
_geom_bond_distance
_geom_bond_site_symmetry_2
Ba0 H3 2.735551 1_555
Ba0 H5 2.735553 1_555
Ba0 H4 2.735555 1_555
Ba0 H6 2.880200 1_555
Ba0 H8 2.880201 1_555
Ba0 H7 2.880203 1_555
Ba0 H9 3.000933 1_655
Ba0 H10 3.000936 1_545
Ba0 H11 3.000946 1_555
Ba1 H16 2.759770 1_554
Ba1 H17 2.759772 1_554
Ba1 H15 2.759774 1_554
Ba1 H22 2.877357 1_555
Ba1 H23 2.877359 1_555
Ba1 H21 2.877360 1_555
Ba1 H12 3.019026 1_565
Ba1 H14 3.019030 1_455
Ba1 H13 3.019032 1_555
Ba1 H5 3.056105 1_455
Ba1 H3 3.056106 1_565
Ba1 H4 3.056112 1_555
Ba1 H0 3.057521 1_565
Ba1 H2 3.057523 1_455
Ba1 H1 3.057528 1_555
Ba1 H18 3.060631 1_555
Ba1 H19 3.060636 1_555
Ba1 H20 3.060637 1_555
Ba2 H20 2.703570 1_556
Ba2 H19 2.703570 1_446
Ba2 H18 2.703570 1_546
Ba2 H24 2.929512 1_445
Ba2 H26 2.929514 1_555
Ba2 H25 2.929515 1_455
Ba2 H15 3.042661 1_555
Ba2 H17 3.042661 1_445
Ba2 H16 3.042662 1_545
Ba2 H7 3.064814 1_555
Ba2 H8 3.064814 1_445
Ba2 H6 3.064814 1_455
Ba2 H10 3.092122 1_545
Ba2 H11 3.092126 1_445
Ba2 H9 3.092129 1_555
H0 Re0 1.673529 1_555
H1 Re0 1.673532 1_555
H2 Re0 1.673525 1_555
H3 Re0 1.722501 1_555
H4 Re0 1.722506 1_555
H5 Re0 1.722503 1_555
H6 Re0 1.722068 1_556
H7 Re0 1.722073 1_556
H8 Re0 1.722071 1_556
H9 Re1 1.687684 1_555
H10 Re1 1.687684 1_555
H11 Re1 1.687684 1_555
H12 Re2 1.678008 1_555
H13 Re2 1.678008 1_665
H14 Re2 1.678008 1_655
H15 Re1 1.715110 1_555
H16 Re1 1.715105 1_555
H17 Re1 1.715108 1_555
H18 Re2 1.715341 1_565
H19 Re2 1.715341 1_665
H20 Re2 1.715341 1_555
H21 Re1 1.711607 1_555
H22 Re1 1.711602 1_555
H23 Re1 1.711605 1_555
H24 Re2 1.719227 1_665
H25 Re2 1.719232 1_655
H26 Re2 1.719229 1_555
