# generated using pymatgen
data_Ho(CuTe)3
_symmetry_space_group_name_H-M   'P 1'
_cell_length_a   8.21804313
_cell_length_b   8.21804313
_cell_length_c   8.21804307
_cell_angle_alpha   53.74093858
_cell_angle_beta   53.74093858
_cell_angle_gamma   53.74093669
_symmetry_Int_Tables_number   1
_chemical_formula_structural   Ho(CuTe)3
_chemical_formula_sum   'Ho2 Cu6 Te6'
_cell_volume   335.02595093
_cell_formula_units_Z   2
loop_
 _symmetry_equiv_pos_site_id
 _symmetry_equiv_pos_as_xyz
  1  'x, y, z'
loop_
 _atom_site_type_symbol
 _atom_site_label
 _atom_site_symmetry_multiplicity
 _atom_site_fract_x
 _atom_site_fract_y
 _atom_site_fract_z
 _atom_site_occupancy
  Ho  Ho0  1  0.83355200  0.83355200  0.83355200  1
  Ho  Ho1  1  0.16644800  0.16644800  0.16644800  1
  Cu  Cu0  1  0.28276800  0.96634300  0.62664600  1
  Cu  Cu1  1  0.62664600  0.28276800  0.96634300  1
  Cu  Cu2  1  0.96634300  0.62664600  0.28276800  1
  Cu  Cu3  1  0.03365700  0.37335400  0.71723200  1
  Cu  Cu4  1  0.37335400  0.71723200  0.03365700  1
  Cu  Cu5  1  0.71723200  0.03365700  0.37335400  1
  Te  Te0  1  0.08855600  0.74485300  0.41823100  1
  Te  Te1  1  0.74485300  0.41823100  0.08855600  1
  Te  Te2  1  0.41823100  0.08855600  0.74485300  1
  Te  Te3  1  0.58176900  0.91144400  0.25514700  1
  Te  Te4  1  0.25514700  0.58176900  0.91144400  1
  Te  Te5  1  0.91144400  0.25514700  0.58176900  1
loop_
_geom_bond_atom_site_label_1
_geom_bond_atom_site_label_2
_geom_bond_distance
_geom_bond_site_symmetry_2
Ho0 Te2 3.041009 1_565
Ho0 Te0 3.041010 1_655
Ho0 Te1 3.041010 1_556
Ho0 Te4 3.044975 1_655
Ho0 Te3 3.044975 1_556
Ho0 Te5 3.044975 1_565
Ho1 Te3 3.041009 1_545
Ho1 Te5 3.041010 1_455
Ho1 Te4 3.041010 1_554
Ho1 Te1 3.044975 1_455
Ho1 Te2 3.044975 1_554
Ho1 Te0 3.044975 1_545
Cu0 Te5 2.609567 1_465
Cu0 Te2 2.635819 1_565
Cu0 Te4 2.643535 1_555
Cu0 Te3 2.646962 1_555
Cu1 Te3 2.609567 1_546
Cu1 Te1 2.635819 1_556
Cu1 Te5 2.643535 1_555
Cu1 Te4 2.646962 1_555
Cu2 Te4 2.609567 1_654
Cu2 Te0 2.635819 1_655
Cu2 Te3 2.643535 1_555
Cu2 Te5 2.646962 1_555
Cu3 Te1 2.609567 1_456
Cu3 Te5 2.635819 1_455
Cu3 Te2 2.643535 1_555
Cu3 Te0 2.646962 1_555
Cu4 Te2 2.609567 1_564
Cu4 Te4 2.635819 1_554
Cu4 Te0 2.643535 1_555
Cu4 Te1 2.646962 1_555
Cu5 Te0 2.609567 1_645
Cu5 Te3 2.635819 1_545
Cu5 Te1 2.643535 1_555
Cu5 Te2 2.646962 1_555
