# generated using pymatgen
data_La7SmCo6(AgO12)2
_symmetry_space_group_name_H-M   'P 1'
_cell_length_a   7.78697853
_cell_length_b   7.88537410
_cell_length_c   7.78697853
_cell_angle_alpha   89.98728162
_cell_angle_beta   89.92930603
_cell_angle_gamma   90.01271838
_symmetry_Int_Tables_number   1
_chemical_formula_structural   La7SmCo6(AgO12)2
_chemical_formula_sum   'La7 Sm1 Co6 Ag2 O24'
_cell_volume   478.14531461
_cell_formula_units_Z   1
loop_
 _symmetry_equiv_pos_site_id
 _symmetry_equiv_pos_as_xyz
  1  'x, y, z'
loop_
 _atom_site_type_symbol
 _atom_site_label
 _atom_site_symmetry_multiplicity
 _atom_site_fract_x
 _atom_site_fract_y
 _atom_site_fract_z
 _atom_site_occupancy
  La  La0  1  0.25034900  0.24409500  0.25032100  1
  La  La1  1  0.25021400  0.24262500  0.74978600  1
  La  La2  1  0.25031900  0.75733900  0.25034400  1
  La  La3  1  0.25015600  0.75649900  0.74984400  1
  La  La4  1  0.74967900  0.24409500  0.74965100  1
  La  La5  1  0.74980800  0.75757500  0.25019200  1
  La  La6  1  0.74965600  0.75733900  0.74968100  1
  Sm  Sm0  1  0.74981400  0.23927900  0.25018600  1
  Co  Co0  1  0.99943500  0.00094600  0.00056500  1
  Co  Co1  1  0.99997500  0.00073100  0.50000700  1
  Co  Co2  1  0.99918000  0.49964500  0.00082000  1
  Co  Co3  1  0.49999300  0.00073100  0.00002500  1
  Co  Co4  1  0.50064700  0.00080000  0.49935300  1
  Co  Co5  1  0.50082600  0.49962800  0.49917400  1
  Ag  Ag0  1  0.00013200  0.50020100  0.50012700  1
  Ag  Ag1  1  0.49987300  0.50020100  0.99986800  1
  O  O0  1  0.25261400  0.00057400  0.00059500  1
  O  O1  1  0.24686300  0.00038400  0.50051500  1
  O  O2  1  0.23620600  0.49943000  0.00034400  1
  O  O3  1  0.26373700  0.49941400  0.49965100  1
  O  O4  1  0.74723200  0.00224200  0.00188800  1
  O  O5  1  0.75331500  0.00242100  0.49702200  1
  O  O6  1  0.76311600  0.49683900  0.00200200  1
  O  O7  1  0.73694200  0.49685100  0.49799100  1
  O  O8  1  0.99753400  0.25464400  0.00246500  1
  O  O9  1  0.99514900  0.23745900  0.49522200  1
  O  O10  1  0.99983800  0.74548200  0.00016200  1
  O  O11  1  0.99889000  0.76333100  0.49880300  1
  O  O12  1  0.50477800  0.23745900  0.00485100  1
  O  O13  1  0.50221900  0.25508200  0.49778100  1
  O  O14  1  0.50119700  0.76333100  0.00111000  1
  O  O15  1  0.50032300  0.74517500  0.49967700  1
  O  O16  1  0.99811200  0.00224200  0.25276800  1
  O  O17  1  0.99940500  0.00057400  0.74738600  1
  O  O18  1  0.99799800  0.49683900  0.23688400  1
  O  O19  1  0.99965600  0.49943000  0.76379400  1
  O  O20  1  0.50297800  0.00242100  0.24668500  1
  O  O21  1  0.49948500  0.00038400  0.75313700  1
  O  O22  1  0.50200900  0.49685100  0.26305800  1
  O  O23  1  0.50034900  0.49941400  0.73626300  1
loop_
_geom_bond_atom_site_label_1
_geom_bond_atom_site_label_2
_geom_bond_distance
_geom_bond_site_symmetry_2
La0 O0 2.733274 1_555
La0 O1 2.736376 1_555
La0 O16 2.737438 1_455
La0 O20 2.739333 1_555
La0 O12 2.751815 1_555
La0 O13 2.752590 1_555
La0 O9 2.753035 1_455
La0 O8 2.759897 1_455
La0 O22 2.796664 1_555
La0 O3 2.799260 1_555
La0 O18 2.801161 1_455
La0 O2 2.802492 1_555
La1 O21 2.723764 1_555
La1 O1 2.723764 1_555
La1 O0 2.730600 1_556
La1 O17 2.730600 1_455
La1 O13 2.775188 1_555
La1 O8 2.782548 1_456
La1 O12 2.808160 1_556
La1 O9 2.808160 1_455
La1 O23 2.811187 1_555
La1 O3 2.811187 1_555
La1 O2 2.814359 1_556
La1 O19 2.814359 1_455
La2 O0 2.731207 1_565
La2 O1 2.733176 1_565
La2 O11 2.751267 1_455
La2 O14 2.752436 1_555
La2 O15 2.752832 1_555
La2 O16 2.754693 1_465
La2 O20 2.757648 1_565
La2 O10 2.760048 1_455
La2 O3 2.813375 1_555
La2 O2 2.817810 1_555
La2 O22 2.841180 1_555
La2 O18 2.844257 1_455
La3 O21 2.732590 1_565
La3 O1 2.732590 1_565
La3 O0 2.742061 1_566
La3 O17 2.742061 1_465
La3 O15 2.754727 1_555
La3 O10 2.756256 1_456
La3 O11 2.768046 1_455
La3 O14 2.768046 1_556
La3 O23 2.813855 1_555
La3 O3 2.813855 1_555
La3 O2 2.814869 1_556
La3 O19 2.814869 1_455
La4 O17 2.733274 1_555
La4 O21 2.736376 1_555
La4 O4 2.737438 1_556
La4 O5 2.739333 1_555
La4 O9 2.751815 1_555
La4 O13 2.752590 1_555
La4 O12 2.753035 1_556
La4 O8 2.759886 1_556
La4 O7 2.796664 1_555
La4 O23 2.799260 1_555
La4 O6 2.801161 1_556
La4 O19 2.802492 1_555
La5 O20 2.724780 1_565
La5 O5 2.724780 1_565
La5 O4 2.731225 1_565
La5 O16 2.731225 1_565
La5 O14 2.742477 1_555
La5 O11 2.742477 1_555
La5 O15 2.747456 1_555
La5 O10 2.753426 1_555
La5 O7 2.820964 1_555
La5 O22 2.820964 1_555
La5 O6 2.823894 1_555
La5 O18 2.823894 1_555
La6 O17 2.731207 1_565
La6 O21 2.733176 1_565
La6 O14 2.751267 1_556
La6 O11 2.752436 1_555
La6 O15 2.752832 1_555
La6 O4 2.754693 1_566
La6 O5 2.757648 1_565
La6 O10 2.760048 1_556
La6 O23 2.813375 1_555
La6 O19 2.817810 1_555
La6 O7 2.841180 1_555
La6 O6 2.844257 1_556
Co0 O4 1.963943 1_555
Co0 O16 1.963943 1_555
Co0 O0 1.971503 1_655
Co0 O17 1.971503 1_554
Co0 O8 2.000620 1_555
Co0 O10 2.014435 1_545
Co1 O9 1.867440 1_555
Co1 O11 1.872031 1_545
Co1 O5 1.920955 1_555
Co1 O1 1.922523 1_655
Co1 O16 1.925352 1_555
Co1 O17 1.926335 1_555
Co2 O18 1.838365 1_555
Co2 O6 1.838365 1_555
Co2 O2 1.845717 1_655
Co2 O19 1.845717 1_554
Co2 O8 1.932004 1_555
Co2 O10 1.938528 1_555
Co3 O12 1.867440 1_555
Co3 O14 1.872031 1_545
Co3 O20 1.920955 1_555
Co3 O21 1.922523 1_554
Co3 O4 1.925352 1_555
Co3 O0 1.926335 1_555
Co4 O20 1.967620 1_555
Co4 O5 1.967620 1_555
Co4 O1 1.976222 1_555
Co4 O21 1.976222 1_555
Co4 O13 2.005178 1_555
Co4 O15 2.015701 1_545
Co5 O22 1.838777 1_555
Co5 O7 1.838777 1_555
Co5 O3 1.846207 1_555
Co5 O23 1.846207 1_555
Co5 O13 1.928402 1_555
Co5 O15 1.936240 1_555
Ag0 O7 2.049707 1_455
Ag0 O18 2.050133 1_455
Ag0 O3 2.052696 1_555
Ag0 O19 2.053176 1_455
Ag0 O9 2.072535 1_455
Ag0 O11 2.074927 1_455
Ag1 O22 2.049707 1_556
Ag1 O6 2.050133 1_556
Ag1 O23 2.052696 1_555
Ag1 O2 2.053176 1_556
Ag1 O12 2.072535 1_556
Ag1 O14 2.074927 1_556
O4 Sm0 2.689629 1_555
O5 Sm0 2.679953 1_555
O6 Sm0 2.805021 1_555
O7 Sm0 2.803592 1_555
O8 Sm0 2.728979 1_555
O9 Sm0 2.701797 1_555
O12 Sm0 2.701797 1_555
O13 Sm0 2.727832 1_555
O16 Sm0 2.689629 1_555
O18 Sm0 2.805021 1_555
O20 Sm0 2.679953 1_555
O22 Sm0 2.803592 1_555
