# generated using pymatgen
data_CaSn2S5
_symmetry_space_group_name_H-M   'P 1'
_cell_length_a   4.12415800
_cell_length_b   15.72554000
_cell_length_c   6.36443900
_cell_angle_alpha   90.00000000
_cell_angle_beta   90.00000000
_cell_angle_gamma   90.00000000
_symmetry_Int_Tables_number   1
_chemical_formula_structural   CaSn2S5
_chemical_formula_sum   'Ca2 Sn4 S10'
_cell_volume   412.76321937
_cell_formula_units_Z   2
loop_
 _symmetry_equiv_pos_site_id
 _symmetry_equiv_pos_as_xyz
  1  'x, y, z'
loop_
 _atom_site_type_symbol
 _atom_site_label
 _atom_site_symmetry_multiplicity
 _atom_site_fract_x
 _atom_site_fract_y
 _atom_site_fract_z
 _atom_site_occupancy
  Ca  Ca0  1  0.25000000  0.75000000  0.11114200  1
  Ca  Ca1  1  0.75000000  0.25000000  0.88885800  1
  Sn  Sn0  1  0.25000000  0.10473100  0.38423600  1
  Sn  Sn1  1  0.25000000  0.39526900  0.38423600  1
  Sn  Sn2  1  0.75000000  0.89526900  0.61576400  1
  Sn  Sn3  1  0.75000000  0.60473100  0.61576400  1
  S  S0  1  0.25000000  0.12785600  0.02123600  1
  S  S1  1  0.25000000  0.37214400  0.02123600  1
  S  S2  1  0.75000000  0.87214400  0.97876400  1
  S  S3  1  0.75000000  0.62785600  0.97876400  1
  S  S4  1  0.25000000  0.92548100  0.39796400  1
  S  S5  1  0.25000000  0.57451900  0.39796400  1
  S  S6  1  0.75000000  0.07451900  0.60203600  1
  S  S7  1  0.75000000  0.42548100  0.60203600  1
  S  S8  1  0.25000000  0.25000000  0.56341000  1
  S  S9  1  0.75000000  0.75000000  0.43659000  1
loop_
_geom_bond_atom_site_label_1
_geom_bond_atom_site_label_2
_geom_bond_distance
_geom_bond_site_symmetry_2
Ca0 S9 2.922743 1_455
Ca0 S9 2.922743 1_555
Ca0 S3 2.941325 1_454
Ca0 S2 2.941325 1_454
Ca0 S2 2.941325 1_554
Ca0 S3 2.941325 1_554
Ca0 S4 3.308675 1_555
Ca0 S5 3.308675 1_555
Ca1 S8 2.922743 1_555
Ca1 S8 2.922743 1_655
Ca1 S1 2.941325 1_556
Ca1 S1 2.941325 1_656
Ca1 S0 2.941325 1_656
Ca1 S0 2.941325 1_556
Ca1 S6 3.308675 1_555
Ca1 S7 3.308675 1_555
S0 Sn0 2.338737 1_555
S1 Sn1 2.338737 1_555
S2 Sn2 2.338737 1_555
S3 Sn3 2.338737 1_555
S4 Sn2 2.529698 1_555
S4 Sn2 2.529698 1_455
S4 Sn0 2.820157 1_565
S5 Sn3 2.529698 1_555
S5 Sn3 2.529698 1_455
S5 Sn1 2.820157 1_555
S6 Sn0 2.529698 1_555
S6 Sn0 2.529698 1_655
S6 Sn2 2.820157 1_545
S7 Sn1 2.529698 1_655
S7 Sn1 2.529698 1_555
S7 Sn3 2.820157 1_555
S8 Sn1 2.553236 1_555
S8 Sn0 2.553236 1_555
S9 Sn3 2.553236 1_555
S9 Sn2 2.553236 1_555
