# generated using pymatgen
data_Li2MnV(P2O7)2
_symmetry_space_group_name_H-M   'P 1'
_cell_length_a   4.84682600
_cell_length_b   10.90753432
_cell_length_c   10.91248327
_cell_angle_alpha   99.44197936
_cell_angle_beta   101.98101029
_cell_angle_gamma   102.07461926
_symmetry_Int_Tables_number   1
_chemical_formula_structural   Li2MnV(P2O7)2
_chemical_formula_sum   'Li4 Mn2 V2 P8 O28'
_cell_volume   538.72017208
_cell_formula_units_Z   2
loop_
 _symmetry_equiv_pos_site_id
 _symmetry_equiv_pos_as_xyz
  1  'x, y, z'
loop_
 _atom_site_type_symbol
 _atom_site_label
 _atom_site_symmetry_multiplicity
 _atom_site_fract_x
 _atom_site_fract_y
 _atom_site_fract_z
 _atom_site_occupancy
  Li  Li0  1  0.17696500  0.76790300  0.90607600  1
  Li  Li1  1  0.17358200  0.26837900  0.40811500  1
  Li  Li2  1  0.82329500  0.34235200  0.98017100  1
  Li  Li3  1  0.82556500  0.84318400  0.48319100  1
  Mn  Mn0  1  0.21350300  0.11441500  0.61503900  1
  Mn  Mn1  1  0.78568900  0.13432100  0.13512900  1
  V  V0  1  0.21599800  0.61394100  0.11435800  1
  V  V1  1  0.78626300  0.63627100  0.63671800  1
  P  P0  1  0.39977600  0.84985700  0.66917800  1
  P  P1  1  0.21105500  0.43620200  0.64978500  1
  P  P2  1  0.21442900  0.93722600  0.15259900  1
  P  P3  1  0.59942000  0.57844600  0.89846900  1
  P  P4  1  0.40017400  0.34898700  0.17114900  1
  P  P5  1  0.78837700  0.09973500  0.81107000  1
  P  P6  1  0.78665900  0.59836400  0.31492200  1
  P  P7  1  0.60031100  0.08079800  0.40332100  1
  O  O0  1  0.19084000  0.76050600  0.72373300  1
  O  O1  1  0.24423000  0.91853400  0.57698400  1
  O  O2  1  0.39588100  0.64079400  0.96430200  1
  O  O3  1  0.05735500  0.08959300  0.76050900  1
  O  O4  1  0.05008700  0.58724900  0.26280100  1
  O  O5  1  0.12671400  0.29336100  0.59147500  1
  O  O6  1  0.13252700  0.79325000  0.09623100  1
  O  O7  1  0.59755700  0.95460300  0.79701000  1
  O  O8  1  0.40402600  0.45025400  0.79602800  1
  O  O9  1  0.40248500  0.95291600  0.29804400  1
  O  O10  1  0.39818300  0.51016700  0.57486800  1
  O  O11  1  0.60910300  0.78575900  0.60989700  1
  O  O12  1  0.18429900  0.25792000  0.22201300  1
  O  O13  1  0.25057200  0.42302500  0.08178700  1
  O  O14  1  0.75388400  0.66918100  0.82658200  1
  O  O15  1  0.81356100  0.52775900  0.98952200  1
  O  O16  1  0.39182700  0.14042100  0.46898500  1
  O  O17  1  0.60056200  0.17456600  0.73738200  1
  O  O18  1  0.60084200  0.67423500  0.24166400  1
  O  O19  1  0.59586900  0.45147600  0.29953200  1
  O  O20  1  0.87514300  0.15776200  0.95408900  1
  O  O21  1  0.86659200  0.65485400  0.45862300  1
  O  O22  1  0.40125400  0.01051400  0.07643700  1
  O  O23  1  0.94932400  0.48858100  0.66424700  1
  O  O24  1  0.94309000  0.98673600  0.15975200  1
  O  O25  1  0.60304200  0.28218900  0.10834800  1
  O  O26  1  0.74937000  0.17251500  0.33226400  1
  O  O27  1  0.81072300  0.02648000  0.49202000  1
loop_
_geom_bond_atom_site_label_1
_geom_bond_atom_site_label_2
_geom_bond_distance
_geom_bond_site_symmetry_2
Li0 O0 1.993878 1_555
Li0 O2 2.019001 1_555
Li0 O14 2.036708 1_455
Li0 O6 2.109728 1_556
Li1 O12 2.027379 1_555
Li1 O26 2.028782 1_455
Li1 O16 2.034275 1_555
Li1 O5 2.040888 1_555
Li2 O15 2.019079 1_555
Li2 O25 2.038308 1_556
Li2 O20 2.061889 1_555
Li2 O13 2.063187 1_656
Li3 O1 2.001172 1_655
Li3 O27 2.002882 1_565
Li3 O11 2.004081 1_555
Li3 O21 2.084121 1_555
Mn0 O3 1.928763 1_555
Mn0 O17 1.972330 1_555
Mn0 O16 1.996348 1_555
Mn0 O27 2.058963 1_455
Mn0 O5 2.125111 1_555
Mn0 O1 2.151114 1_545
Mn1 O24 1.953520 1_545
Mn1 O22 1.968185 1_555
Mn1 O25 2.028559 1_555
Mn1 O12 2.044378 1_655
Mn1 O20 2.152047 1_554
Mn1 O26 2.173983 1_555
O0 P0 1.535424 1_555
O0 V1 2.067895 1_455
O1 P0 1.519976 1_555
O2 P3 1.538322 1_555
O2 V0 2.042189 1_556
O3 P5 1.534672 1_455
O4 P6 1.520535 1_455
O4 V0 1.988222 1_555
O5 P1 1.516496 1_555
O6 P2 1.524154 1_555
O6 V0 2.110162 1_555
O7 P5 1.622892 1_565
O7 P0 1.622930 1_555
O8 P3 1.610989 1_555
O8 P1 1.638646 1_555
O9 P2 1.619930 1_555
O9 P7 1.625486 1_565
O10 P1 1.536217 1_555
O10 V1 1.992838 1_555
O11 P0 1.535421 1_555
O11 V1 2.029690 1_555
O12 P4 1.541659 1_555
O13 P4 1.529273 1_555
O13 V0 2.102089 1_555
O14 P3 1.530995 1_555
O14 V1 2.088241 1_555
O15 P3 1.536987 1_555
O15 V0 2.062426 1_656
O16 P7 1.542769 1_555
O17 P5 1.537457 1_555
O18 P6 1.537867 1_555
O18 V0 1.988186 1_555
O19 P4 1.613362 1_555
O19 P6 1.636371 1_555
O20 P5 1.518310 1_555
O21 P6 1.523050 1_555
O21 V1 2.092865 1_555
O22 P2 1.541857 1_545
O23 P1 1.522278 1_655
O23 V1 1.975560 1_555
O24 P2 1.534022 1_655
O25 P4 1.543694 1_555
O26 P7 1.519454 1_555
O27 P7 1.535930 1_555
