# generated using pymatgen
data_Co8RuS8
_symmetry_space_group_name_H-M   'P 1'
_cell_length_a   6.97229772
_cell_length_b   6.97229772
_cell_length_c   6.97229772
_cell_angle_alpha   60.00000000
_cell_angle_beta   60.00000000
_cell_angle_gamma   60.00000000
_symmetry_Int_Tables_number   1
_chemical_formula_structural   Co8RuS8
_chemical_formula_sum   'Co8 Ru1 S8'
_cell_volume   239.66950162
_cell_formula_units_Z   1
loop_
 _symmetry_equiv_pos_site_id
 _symmetry_equiv_pos_as_xyz
  1  'x, y, z'
loop_
 _atom_site_type_symbol
 _atom_site_label
 _atom_site_symmetry_multiplicity
 _atom_site_fract_x
 _atom_site_fract_y
 _atom_site_fract_z
 _atom_site_occupancy
  Co  Co0  1  0.62199500  0.12600200  0.12600200  1
  Co  Co1  1  0.12600200  0.62199500  0.12600200  1
  Co  Co2  1  0.12600200  0.12600200  0.62199500  1
  Co  Co3  1  0.12600200  0.12600200  0.12600200  1
  Co  Co4  1  0.37800500  0.87399800  0.87399800  1
  Co  Co5  1  0.87399800  0.37800500  0.87399800  1
  Co  Co6  1  0.87399800  0.87399800  0.37800500  1
  Co  Co7  1  0.87399800  0.87399800  0.87399800  1
  Ru  Ru0  1  0.50000000  0.50000000  0.50000000  1
  S  S0  1  0.25000000  0.25000000  0.25000000  1
  S  S1  1  0.75000000  0.75000000  0.75000000  1
  S  S2  1  0.74037300  0.25962700  0.25962700  1
  S  S3  1  0.74037300  0.25962700  0.74037300  1
  S  S4  1  0.74037300  0.74037300  0.25962700  1
  S  S5  1  0.25962700  0.74037300  0.74037300  1
  S  S6  1  0.25962700  0.74037300  0.25962700  1
  S  S7  1  0.25962700  0.25962700  0.74037300  1
loop_
_geom_bond_atom_site_label_1
_geom_bond_atom_site_label_2
_geom_bond_distance
_geom_bond_site_symmetry_2
Co0 S0 2.117714 1_555
Co0 S2 2.196183 1_555
Co0 S4 2.196189 1_545
Co0 S3 2.196189 1_554
Co1 S0 2.117714 1_555
Co1 S6 2.196183 1_555
Co1 S5 2.196189 1_554
Co1 S4 2.196189 1_455
Co2 S0 2.117714 1_555
Co2 S7 2.196183 1_555
Co2 S3 2.196189 1_455
Co2 S5 2.196189 1_545
Co3 S0 2.117709 1_555
Co3 S7 2.196189 1_554
Co3 S2 2.196189 1_455
Co3 S6 2.196189 1_545
Co4 S1 2.117714 1_555
Co4 S5 2.196183 1_555
Co4 S6 2.196189 1_556
Co4 S7 2.196189 1_565
Co5 S1 2.117714 1_555
Co5 S3 2.196183 1_555
Co5 S2 2.196189 1_556
Co5 S7 2.196189 1_655
Co6 S1 2.117714 1_555
Co6 S4 2.196183 1_555
Co6 S2 2.196189 1_565
Co6 S6 2.196189 1_655
Co7 S1 2.117709 1_555
Co7 S5 2.196189 1_655
Co7 S4 2.196189 1_556
Co7 S3 2.196189 1_565
Ru0 S4 2.370154 1_555
Ru0 S5 2.370154 1_555
Ru0 S3 2.370154 1_555
Ru0 S7 2.370154 1_555
Ru0 S2 2.370154 1_555
Ru0 S6 2.370154 1_555
