# generated using pymatgen
data_BaGe(S2O7)3
_symmetry_space_group_name_H-M   'P 1'
_cell_length_a   7.57818541
_cell_length_b   12.99827786
_cell_length_c   16.98386564
_cell_angle_alpha   90.00000000
_cell_angle_beta   90.00000000
_cell_angle_gamma   90.00000000
_symmetry_Int_Tables_number   1
_chemical_formula_structural   BaGe(S2O7)3
_chemical_formula_sum   'Ba4 Ge4 S24 O84'
_cell_volume   1672.96782511
_cell_formula_units_Z   4
loop_
 _symmetry_equiv_pos_site_id
 _symmetry_equiv_pos_as_xyz
  1  'x, y, z'
loop_
 _atom_site_type_symbol
 _atom_site_label
 _atom_site_symmetry_multiplicity
 _atom_site_fract_x
 _atom_site_fract_y
 _atom_site_fract_z
 _atom_site_occupancy
  Ba  Ba0  1  0.24955993  0.51331627  0.47861285  1
  Ba  Ba1  1  0.25044007  0.48668373  0.97861285  1
  Ba  Ba2  1  0.74955993  0.98668373  0.52138715  1
  Ba  Ba3  1  0.75044007  0.01331627  0.02138715  1
  Ge  Ge0  1  0.25342253  0.76725469  0.23210732  1
  Ge  Ge1  1  0.24657747  0.23274531  0.73210732  1
  Ge  Ge2  1  0.75342253  0.73274531  0.76789268  1
  Ge  Ge3  1  0.74657747  0.26725469  0.26789268  1
  S  S0  1  0.24561398  0.93647898  0.10588602  1
  S  S1  1  0.25438602  0.06352102  0.60588602  1
  S  S2  1  0.74561398  0.56352102  0.89411398  1
  S  S3  1  0.75438602  0.43647898  0.39411398  1
  S  S4  1  0.26905215  0.53353553  0.24864346  1
  S  S5  1  0.23094785  0.46646447  0.74864346  1
  S  S6  1  0.76905215  0.96646447  0.75135654  1
  S  S7  1  0.73094785  0.03353553  0.25135654  1
  S  S8  1  0.03511989  0.75822488  0.08066919  1
  S  S9  1  0.46488011  0.24177512  0.58066919  1
  S  S10  1  0.53511989  0.74177512  0.91933081  1
  S  S11  1  0.96488011  0.25822488  0.41933081  1
  S  S12  1  0.47669546  0.78083354  0.38308189  1
  S  S13  1  0.02330454  0.21916646  0.88308189  1
  S  S14  1  0.97669546  0.71916646  0.61691811  1
  S  S15  1  0.52330454  0.28083354  0.11691811  1
  S  S16  1  0.10681941  0.81407681  0.39744147  1
  S  S17  1  0.39318059  0.18592319  0.89744147  1
  S  S18  1  0.60681941  0.68592319  0.60255853  1
  S  S19  1  0.89318059  0.31407681  0.10255853  1
  S  S20  1  0.53591675  0.62237808  0.15311344  1
  S  S21  1  0.96408325  0.37762192  0.65311344  1
  S  S22  1  0.03591675  0.87762192  0.84688656  1
  S  S23  1  0.46408325  0.12237808  0.34688656  1
  O  O0  1  0.27357045  0.46538053  0.31387279  1
  O  O1  1  0.22642955  0.53461947  0.81387279  1
  O  O2  1  0.77357045  0.03461947  0.68612721  1
  O  O3  1  0.72642955  0.96538053  0.18612721  1
  O  O4  1  0.21260592  0.63862454  0.27812329  1
  O  O5  1  0.28739408  0.36137546  0.77812329  1
  O  O6  1  0.71260592  0.86137546  0.72187671  1
  O  O7  1  0.78739408  0.13862454  0.22187671  1
  O  O8  1  0.05256492  0.75058506  0.16869685  1
  O  O9  1  0.44743508  0.24941494  0.66869685  1
  O  O10  1  0.55256492  0.74941494  0.83130315  1
  O  O11  1  0.94743508  0.25058506  0.33130315  1
  O  O12  1  0.28636843  0.89775529  0.18786761  1
  O  O13  1  0.21363157  0.10224471  0.68786761  1
  O  O14  1  0.78636843  0.60224471  0.81213239  1
  O  O15  1  0.71363157  0.39775529  0.31213239  1
  O  O16  1  0.45375594  0.79442508  0.29540071  1
  O  O17  1  0.04624406  0.20557492  0.79540071  1
  O  O18  1  0.95375594  0.70557492  0.70459929  1
  O  O19  1  0.54624406  0.29442508  0.20459929  1
  O  O20  1  0.47735949  0.55302026  0.22920370  1
  O  O21  1  0.02264051  0.44697974  0.72920370  1
  O  O22  1  0.97735949  0.94697974  0.77079630  1
  O  O23  1  0.52264051  0.05302026  0.27079630  1
  O  O24  1  0.62554467  0.83756504  0.40842954  1
  O  O25  1  0.87445533  0.16243496  0.90842954  1
  O  O26  1  0.12554467  0.66243496  0.59157046  1
  O  O27  1  0.37445533  0.33756504  0.09157046  1
  O  O28  1  0.20299151  0.83191751  0.05709821  1
  O  O29  1  0.29700849  0.16808249  0.55709821  1
  O  O30  1  0.70299151  0.66808249  0.94290179  1
  O  O31  1  0.79700849  0.33191751  0.44290179  1
  O  O32  1  0.45851219  0.67646644  0.40644940  1
  O  O33  1  0.04148781  0.32353356  0.90644940  1
  O  O34  1  0.95851219  0.82353356  0.59355060  1
  O  O35  1  0.54148781  0.17646644  0.09355060  1
  O  O36  1  0.87881980  0.81207539  0.06055157  1
  O  O37  1  0.62118020  0.18792461  0.56055157  1
  O  O38  1  0.37881980  0.68792461  0.93944843  1
  O  O39  1  0.12118020  0.31207539  0.43944843  1
  O  O40  1  0.40452727  0.71014332  0.15520608  1
  O  O41  1  0.09547273  0.28985668  0.65520608  1
  O  O42  1  0.90452727  0.78985668  0.84479392  1
  O  O43  1  0.59547273  0.21014332  0.34479392  1
  O  O44  1  0.07416490  0.66463907  0.04186786  1
  O  O45  1  0.42583510  0.33536093  0.54186786  1
  O  O46  1  0.57416490  0.83536093  0.95813214  1
  O  O47  1  0.92583510  0.16463907  0.45813214  1
  O  O48  1  0.10420556  0.82443230  0.30903213  1
  O  O49  1  0.39579444  0.17556770  0.80903213  1
  O  O50  1  0.60420556  0.67556770  0.69096787  1
  O  O51  1  0.89579444  0.32443230  0.19096787  1
  O  O52  1  0.31111792  0.84496656  0.41910731  1
  O  O53  1  0.18888208  0.15503344  0.91910731  1
  O  O54  1  0.81111792  0.65503344  0.58089269  1
  O  O55  1  0.68888208  0.34496656  0.08089269  1
  O  O56  1  0.40066301  0.97403093  0.06978911  1
  O  O57  1  0.09933699  0.02596907  0.56978911  1
  O  O58  1  0.90066301  0.52596907  0.93021089  1
  O  O59  1  0.59933699  0.47403093  0.43021089  1
  O  O60  1  0.09084835  0.99840074  0.10538579  1
  O  O61  1  0.40915165  0.00159926  0.60538579  1
  O  O62  1  0.59084835  0.50159926  0.89461421  1
  O  O63  1  0.90915165  0.49840074  0.39461421  1
  O  O64  1  0.01037952  0.89539136  0.43149946  1
  O  O65  1  0.48962048  0.10460864  0.93149946  1
  O  O66  1  0.51037952  0.60460864  0.56850054  1
  O  O67  1  0.98962048  0.39539136  0.06850054  1
  O  O68  1  0.07761552  0.71174307  0.42368854  1
  O  O69  1  0.42238448  0.28825693  0.92368854  1
  O  O70  1  0.57761552  0.78825693  0.57631146  1
  O  O71  1  0.92238448  0.21174307  0.07631146  1
  O  O72  1  0.50372737  0.56311170  0.08393441  1
  O  O73  1  -0.00372737  0.43688830  0.58393441  1
  O  O74  1  0.00372737  0.93688830  0.91606559  1
  O  O75  1  0.49627263  0.06311170  0.41606559  1
  O  O76  1  0.18326494  0.50609022  0.17785318  1
  O  O77  1  0.31673506  0.49390978  0.67785318  1
  O  O78  1  0.68326494  0.99390978  0.82214682  1
  O  O79  1  0.81673506  0.00609022  0.32214682  1
  O  O80  1  0.70970620  0.65194181  0.17145276  1
  O  O81  1  0.79029380  0.34805819  0.67145276  1
  O  O82  1  0.20970620  0.84805819  0.82854724  1
  O  O83  1  0.29029380  0.15194181  0.32854724  1
loop_
_geom_bond_atom_site_label_1
_geom_bond_atom_site_label_2
_geom_bond_distance
_geom_bond_site_symmetry_2
Ba0 O66 2.765043 1_555
Ba0 O73 2.805515 1_555
Ba0 O59 2.821809 1_555
Ba0 O39 2.869021 1_555
Ba0 O0 2.872231 1_555
Ba0 O45 2.879085 1_555
Ba0 O26 2.884558 1_555
Ba0 O32 2.916639 1_555
Ba0 O63 2.954246 1_455
Ba0 O68 3.036503 1_555
Ba1 O67 2.765043 1_456
Ba1 O72 2.805515 1_556
Ba1 O58 2.821809 1_455
Ba1 O38 2.869021 1_555
Ba1 O1 2.872231 1_555
Ba1 O44 2.879085 1_556
Ba1 O27 2.884558 1_556
Ba1 O33 2.916639 1_555
Ba1 O62 2.954246 1_555
Ba1 O69 3.036503 1_555
Ba2 O64 2.765043 1_655
Ba2 O75 2.805515 1_565
Ba2 O57 2.821809 1_665
Ba2 O37 2.869021 1_565
Ba2 O2 2.872231 1_565
Ba2 O47 2.879085 1_565
Ba2 O24 2.884558 1_555
Ba2 O34 2.916639 1_555
Ba2 O61 2.954246 1_565
Ba2 O70 3.036503 1_555
Ba3 O65 2.765043 1_554
Ba3 O74 2.805515 1_644
Ba3 O56 2.821809 1_545
Ba3 O36 2.869021 1_545
Ba3 O3 2.872231 1_545
Ba3 O46 2.879085 1_544
Ba3 O25 2.884558 1_554
Ba3 O35 2.916639 1_555
Ba3 O60 2.954246 1_645
Ba3 O71 3.036503 1_555
Ge0 O4 1.871350 1_555
Ge0 O12 1.871966 1_555
Ge0 O8 1.877147 1_555
Ge0 O48 1.880943 1_555
Ge0 O40 1.888963 1_555
Ge0 O16 1.893436 1_555
Ge1 O5 1.871350 1_555
Ge1 O13 1.871966 1_555
Ge1 O9 1.877147 1_555
Ge1 O49 1.880943 1_555
Ge1 O41 1.888963 1_555
Ge1 O17 1.893436 1_555
Ge2 O6 1.871350 1_555
Ge2 O14 1.871966 1_555
Ge2 O10 1.877147 1_555
Ge2 O50 1.880943 1_555
Ge2 O42 1.888963 1_555
Ge2 O18 1.893436 1_555
Ge3 O7 1.871350 1_555
Ge3 O15 1.871966 1_555
Ge3 O11 1.877147 1_555
Ge3 O51 1.880943 1_555
Ge3 O43 1.888963 1_555
Ge3 O19 1.893436 1_555
O0 S4 1.418912 1_555
O1 S5 1.418912 1_555
O2 S6 1.418912 1_545
O3 S7 1.418912 1_565
O4 S4 1.516427 1_555
O5 S5 1.516427 1_555
O6 S6 1.516427 1_555
O7 S7 1.516427 1_555
O8 S8 1.504165 1_555
O9 S9 1.504165 1_555
O10 S10 1.504165 1_555
O11 S11 1.504165 1_555
O12 S0 1.512421 1_555
O13 S1 1.512421 1_555
O14 S2 1.512421 1_555
O15 S3 1.512421 1_555
O16 S12 1.509651 1_555
O17 S13 1.509651 1_555
O18 S14 1.509651 1_555
O19 S15 1.509651 1_555
O20 S4 1.632514 1_555
O20 S20 1.636991 1_555
O21 S5 1.632514 1_555
O21 S21 1.636991 1_455
O22 S6 1.632514 1_555
O22 S22 1.636991 1_655
O23 S7 1.632514 1_555
O23 S23 1.636991 1_555
O24 S12 1.414746 1_555
O25 S13 1.414746 1_655
O26 S14 1.414746 1_455
O27 S15 1.414746 1_555
O28 S0 1.624229 1_555
O28 S8 1.642007 1_555
O29 S1 1.624229 1_555
O29 S9 1.642007 1_555
O30 S2 1.624229 1_555
O30 S10 1.642007 1_555
O31 S3 1.624229 1_555
O31 S11 1.642007 1_555
O32 S12 1.420154 1_555
O33 S13 1.420154 1_555
O34 S14 1.420154 1_555
O35 S15 1.420154 1_555
O36 S8 1.417626 1_655
O37 S9 1.417626 1_555
O38 S10 1.417626 1_555
O39 S11 1.417626 1_455
O40 S20 1.514624 1_555
O41 S21 1.514624 1_455
O42 S22 1.514624 1_655
O43 S23 1.514624 1_555
O44 S8 1.414775 1_555
O45 S9 1.414775 1_555
O46 S10 1.414775 1_555
O47 S11 1.414775 1_555
O48 S16 1.507684 1_555
O49 S17 1.507684 1_555
O50 S18 1.507684 1_555
O51 S19 1.507684 1_555
O52 S12 1.625961 1_555
O52 S16 1.641212 1_555
O53 S13 1.625961 1_555
O53 S17 1.641212 1_555
O54 S14 1.625961 1_555
O54 S18 1.641212 1_555
O55 S15 1.625961 1_555
O55 S19 1.641212 1_555
O56 S0 1.412340 1_555
O57 S1 1.412340 1_555
O58 S2 1.412340 1_555
O59 S3 1.412340 1_555
O60 S0 1.422483 1_555
O61 S1 1.422483 1_555
O62 S2 1.422483 1_555
O63 S3 1.422483 1_555
O64 S16 1.409204 1_555
O65 S17 1.409204 1_555
O66 S18 1.409204 1_555
O67 S19 1.409204 1_555
O68 S16 1.420221 1_555
O69 S17 1.420221 1_555
O70 S18 1.420221 1_555
O71 S19 1.420221 1_555
O72 S20 1.425979 1_555
O73 S21 1.425979 1_455
O74 S22 1.425979 1_555
O75 S23 1.425979 1_555
O76 S4 1.412592 1_555
O77 S5 1.412592 1_555
O78 S6 1.412592 1_555
O79 S7 1.412592 1_555
O80 S20 1.406839 1_555
O81 S21 1.406839 1_555
O82 S22 1.406839 1_555
O83 S23 1.406839 1_555
