# generated using pymatgen
data_Mg14CuSiO16
_symmetry_space_group_name_H-M   'P 1'
_cell_length_a   4.25106400
_cell_length_b   8.55553200
_cell_length_c   8.59293700
_cell_angle_alpha   90.00000000
_cell_angle_beta   90.00000000
_cell_angle_gamma   90.00000000
_symmetry_Int_Tables_number   1
_chemical_formula_structural   Mg14CuSiO16
_chemical_formula_sum   'Mg14 Cu1 Si1 O16'
_cell_volume   312.52609902
_cell_formula_units_Z   1
loop_
 _symmetry_equiv_pos_site_id
 _symmetry_equiv_pos_as_xyz
  1  'x, y, z'
loop_
 _atom_site_type_symbol
 _atom_site_label
 _atom_site_symmetry_multiplicity
 _atom_site_fract_x
 _atom_site_fract_y
 _atom_site_fract_z
 _atom_site_occupancy
  Mg  Mg0  1  0.00000000  0.00000000  0.50000000  1
  Mg  Mg1  1  0.00000000  0.50000000  0.50000000  1
  Mg  Mg2  1  0.50000000  0.75661200  0.00000000  1
  Mg  Mg3  1  0.50000000  0.24338800  0.00000000  1
  Mg  Mg4  1  0.50000000  0.75271100  0.50000000  1
  Mg  Mg5  1  0.50000000  0.24728900  0.50000000  1
  Mg  Mg6  1  0.50000000  0.00000000  0.75191900  1
  Mg  Mg7  1  0.50000000  0.50000000  0.74881300  1
  Mg  Mg8  1  0.50000000  0.00000000  0.24808100  1
  Mg  Mg9  1  0.50000000  0.50000000  0.25118700  1
  Mg  Mg10  1  0.00000000  0.75606900  0.74948000  1
  Mg  Mg11  1  0.00000000  0.24393100  0.74948000  1
  Mg  Mg12  1  0.00000000  0.75606900  0.25052000  1
  Mg  Mg13  1  0.00000000  0.24393100  0.25052000  1
  Cu  Cu0  1  0.00000000  0.00000000  0.00000000  1
  Si  Si0  1  0.00000000  0.50000000  0.00000000  1
  O  O0  1  0.00000000  0.00000000  0.73375900  1
  O  O1  1  0.00000000  0.50000000  0.76028400  1
  O  O2  1  0.00000000  0.00000000  0.26624100  1
  O  O3  1  0.00000000  0.50000000  0.23971600  1
  O  O4  1  0.50000000  0.74934900  0.75240200  1
  O  O5  1  0.50000000  0.25065100  0.75240200  1
  O  O6  1  0.50000000  0.74934900  0.24759800  1
  O  O7  1  0.50000000  0.25065100  0.24759800  1
  O  O8  1  0.50000000  0.00000000  0.00000000  1
  O  O9  1  0.50000000  0.50000000  0.00000000  1
  O  O10  1  0.50000000  0.00000000  0.50000000  1
  O  O11  1  0.50000000  0.50000000  0.50000000  1
  O  O12  1  0.00000000  0.71057200  0.00000000  1
  O  O13  1  0.00000000  0.28942800  0.00000000  1
  O  O14  1  0.00000000  0.74421800  0.50000000  1
  O  O15  1  0.00000000  0.25578200  0.50000000  1
loop_
_geom_bond_atom_site_label_1
_geom_bond_atom_site_label_2
_geom_bond_distance
_geom_bond_site_symmetry_2
Mg0 O0 2.008676 1_555
Mg0 O2 2.008676 1_555
Mg0 O10 2.125532 1_455
Mg0 O10 2.125532 1_555
Mg0 O15 2.188351 1_555
Mg0 O14 2.188351 1_545
Mg1 O14 2.089415 1_555
Mg1 O15 2.089415 1_555
Mg1 O11 2.125532 1_455
Mg1 O11 2.125532 1_555
Mg1 O1 2.236604 1_555
Mg1 O3 2.236604 1_555
Mg2 O8 2.082314 1_565
Mg2 O6 2.128501 1_555
Mg2 O4 2.128501 1_554
Mg2 O12 2.161722 1_655
Mg2 O12 2.161722 1_555
Mg2 O9 2.195452 1_555
Mg3 O8 2.082314 1_555
Mg3 O7 2.128501 1_555
Mg3 O5 2.128501 1_554
Mg3 O13 2.161722 1_555
Mg3 O13 2.161722 1_655
Mg3 O9 2.195452 1_555
Mg4 O10 2.115689 1_565
Mg4 O14 2.126774 1_555
Mg4 O14 2.126774 1_655
Mg4 O11 2.162077 1_555
Mg4 O4 2.169065 1_555
Mg4 O6 2.169065 1_555
Mg5 O10 2.115689 1_555
Mg5 O15 2.126774 1_655
Mg5 O15 2.126774 1_555
Mg5 O11 2.162077 1_555
Mg5 O5 2.169065 1_555
Mg5 O7 2.169065 1_555
Mg6 O0 2.131252 1_555
Mg6 O0 2.131252 1_655
Mg6 O8 2.131744 1_556
Mg6 O5 2.144457 1_555
Mg6 O4 2.144457 1_545
Mg6 O10 2.164724 1_555
Mg7 O1 2.127816 1_555
Mg7 O1 2.127816 1_655
Mg7 O4 2.133536 1_555
Mg7 O5 2.133536 1_555
Mg7 O11 2.138034 1_555
Mg7 O9 2.158434 1_556
Mg8 O2 2.131252 1_555
Mg8 O2 2.131252 1_655
Mg8 O8 2.131744 1_555
Mg8 O7 2.144457 1_555
Mg8 O6 2.144457 1_545
Mg8 O10 2.164724 1_555
Mg9 O3 2.127816 1_655
Mg9 O3 2.127816 1_555
Mg9 O6 2.133536 1_555
Mg9 O7 2.133536 1_555
Mg9 O11 2.138034 1_555
Mg9 O9 2.158434 1_555
Mg10 O0 2.091327 1_565
Mg10 O4 2.126458 1_455
Mg10 O4 2.126458 1_555
Mg10 O14 2.146162 1_555
Mg10 O12 2.187612 1_556
Mg10 O1 2.192773 1_555
Mg11 O0 2.091327 1_555
Mg11 O5 2.126458 1_455
Mg11 O5 2.126458 1_555
Mg11 O15 2.146162 1_555
Mg11 O13 2.187612 1_556
Mg11 O1 2.192773 1_555
Mg12 O2 2.091327 1_565
Mg12 O6 2.126458 1_555
Mg12 O6 2.126458 1_455
Mg12 O14 2.146162 1_555
Mg12 O12 2.187612 1_555
Mg12 O3 2.192773 1_555
Mg13 O2 2.091327 1_555
Mg13 O7 2.126458 1_555
Mg13 O7 2.126458 1_455
Mg13 O15 2.146162 1_555
Mg13 O13 2.187612 1_555
Mg13 O3 2.192773 1_555
Cu0 O8 2.125532 1_555
Cu0 O8 2.125532 1_455
Cu0 O2 2.287792 1_555
Cu0 O0 2.287792 1_554
Cu0 O13 2.476211 1_555
Cu0 O12 2.476211 1_545
O1 Si0 2.059864 1_556
O3 Si0 2.059864 1_555
O9 Si0 2.125532 1_655
O9 Si0 2.125532 1_555
O12 Si0 1.801555 1_555
O13 Si0 1.801555 1_555
