# generated using pymatgen
data_RbMg(BrO2)3
_symmetry_space_group_name_H-M   'P 1'
_cell_length_a   6.83815017
_cell_length_b   6.83815017
_cell_length_c   14.92435781
_cell_angle_alpha   110.78934427
_cell_angle_beta   110.78934427
_cell_angle_gamma   51.08594904
_symmetry_Int_Tables_number   1
_chemical_formula_structural   RbMg(BrO2)3
_chemical_formula_sum   'Rb2 Mg2 Br6 O12'
_cell_volume   499.22363808
_cell_formula_units_Z   2
loop_
 _symmetry_equiv_pos_site_id
 _symmetry_equiv_pos_as_xyz
  1  'x, y, z'
loop_
 _atom_site_type_symbol
 _atom_site_label
 _atom_site_symmetry_multiplicity
 _atom_site_fract_x
 _atom_site_fract_y
 _atom_site_fract_z
 _atom_site_occupancy
  Rb  Rb0  1  0.27572700  0.72427300  0.75000000  1
  Rb  Rb1  1  0.72427300  0.27572700  0.25000000  1
  Mg  Mg0  1  0.00000000  0.00000000  0.00000000  1
  Mg  Mg1  1  0.00000000  0.00000000  0.50000000  1
  Br  Br0  1  0.50000000  0.50000000  0.00000000  1
  Br  Br1  1  0.50000000  0.50000000  0.50000000  1
  Br  Br2  1  0.53513700  0.09858400  0.80102700  1
  Br  Br3  1  0.90141600  0.46486300  0.69897300  1
  Br  Br4  1  0.46486300  0.90141600  0.19897300  1
  Br  Br5  1  0.09858400  0.53513700  0.30102700  1
  O  O0  1  0.35461300  0.78230100  0.95621500  1
  O  O1  1  0.21769900  0.64538700  0.54378500  1
  O  O2  1  0.64538700  0.21769900  0.04378500  1
  O  O3  1  0.78230100  0.35461300  0.45621500  1
  O  O4  1  0.20527200  0.61928200  0.02271900  1
  O  O5  1  0.38071800  0.79472800  0.47728100  1
  O  O6  1  0.79472800  0.38071800  0.97728100  1
  O  O7  1  0.61928200  0.20527200  0.52271900  1
  O  O8  1  0.13129600  0.07292500  0.15063300  1
  O  O9  1  0.92707500  0.86870400  0.34936700  1
  O  O10  1  0.86870400  0.92707500  0.84936700  1
  O  O11  1  0.07292500  0.13129600  0.65063300  1
loop_
_geom_bond_atom_site_label_1
_geom_bond_atom_site_label_2
_geom_bond_distance
_geom_bond_site_symmetry_2
Mg0 O0 2.102965 1_544
Mg0 O2 2.102965 1_455
Mg0 O8 2.107746 1_555
Mg0 O10 2.107746 1_444
Mg0 O4 2.135600 1_545
Mg0 O6 2.135600 1_454
Mg1 O1 2.102965 1_545
Mg1 O3 2.102965 1_455
Mg1 O9 2.107746 1_445
Mg1 O11 2.107746 1_555
Mg1 O7 2.135600 1_455
Mg1 O5 2.135600 1_545
Br0 O4 1.750892 1_555
Br0 O6 1.750892 1_554
Br0 O0 1.779081 1_554
Br0 O2 1.779081 1_555
Br1 O5 1.750892 1_555
Br1 O7 1.750892 1_555
Br1 O1 1.779081 1_555
Br1 O3 1.779081 1_555
Br2 O10 1.780588 1_545
Br2 Rb0 3.693191 1_545
Br2 Rb0 3.721789 1_555
Br3 O11 1.780588 1_655
Br3 Rb0 3.693191 1_655
Br3 Rb0 3.721789 1_555
Br4 O8 1.780588 1_565
Br4 Rb1 3.693191 1_565
Br4 Rb1 3.721789 1_555
Br5 O9 1.780588 1_455
Br5 Rb1 3.693191 1_455
Br5 Rb1 3.721789 1_555
O0 Rb0 2.853723 1_555
O1 Rb0 2.853723 1_555
O2 Rb1 2.853723 1_555
O3 Rb1 2.853723 1_555
O8 Rb1 2.913778 1_455
O9 Rb1 2.913778 1_565
O10 Rb0 2.913778 1_655
O11 Rb0 2.913778 1_545
