# generated using pymatgen
data_La6UO12
_symmetry_space_group_name_H-M   'P 1'
_cell_length_a   6.89807545
_cell_length_b   6.89807606
_cell_length_c   6.89807604
_cell_angle_alpha   98.69919577
_cell_angle_beta   98.69919372
_cell_angle_gamma   98.69919278
_symmetry_Int_Tables_number   1
_chemical_formula_structural   La6UO12
_chemical_formula_sum   'La6 U1 O12'
_cell_volume   315.59230278
_cell_formula_units_Z   1
loop_
 _symmetry_equiv_pos_site_id
 _symmetry_equiv_pos_as_xyz
  1  'x, y, z'
loop_
 _atom_site_type_symbol
 _atom_site_label
 _atom_site_symmetry_multiplicity
 _atom_site_fract_x
 _atom_site_fract_y
 _atom_site_fract_z
 _atom_site_occupancy
  La  La0  1  0.69022511  0.39349890  0.85593348  1
  La  La1  1  0.39349890  0.85593348  0.69022511  1
  La  La2  1  0.85593348  0.69022511  0.39349890  1
  La  La3  1  0.30977489  0.60650110  0.14406652  1
  La  La4  1  0.60650110  0.14406652  0.30977489  1
  La  La5  1  0.14406652  0.30977489  0.60650110  1
  U  U0  1  -0.00000000  0.00000000  -0.00000000  1
  O  O0  1  0.43750053  0.17708287  0.59268134  1
  O  O1  1  0.17708287  0.59268134  0.43750053  1
  O  O2  1  0.59268134  0.43750053  0.17708287  1
  O  O3  1  0.56249947  0.82291713  0.40731866  1
  O  O4  1  0.82291713  0.40731866  0.56249947  1
  O  O5  1  0.40731866  0.56249947  0.82291713  1
  O  O6  1  0.04264164  0.93329898  0.70419633  1
  O  O7  1  0.29580367  0.95735836  0.06670102  1
  O  O8  1  0.06670102  0.29580367  0.95735836  1
  O  O9  1  0.95735836  0.06670102  0.29580367  1
  O  O10  1  0.70419633  0.04264164  0.93329898  1
  O  O11  1  0.93329898  0.70419633  0.04264164  1
loop_
_geom_bond_atom_site_label_1
_geom_bond_atom_site_label_2
_geom_bond_distance
_geom_bond_site_symmetry_2
La0 O4 2.352958 1_555
La0 O2 2.400368 1_556
La0 O5 2.419370 1_555
La0 O0 2.449586 1_555
La0 O11 2.547219 1_556
La0 O10 2.568533 1_555
La0 O8 2.794683 1_655
La1 O5 2.352958 1_555
La1 O0 2.400368 1_565
La1 O3 2.419370 1_555
La1 O1 2.449586 1_555
La1 O10 2.547219 1_565
La1 O6 2.568533 1_555
La1 O7 2.794683 1_556
La2 O3 2.352958 1_555
La2 O1 2.400368 1_655
La2 O4 2.419370 1_555
La2 O2 2.449586 1_555
La2 O6 2.547219 1_655
La2 O11 2.568533 1_555
La2 O9 2.794684 1_565
La3 O1 2.352958 1_555
La3 O5 2.400368 1_554
La3 O2 2.419370 1_555
La3 O3 2.449586 1_555
La3 O8 2.547219 1_554
La3 O7 2.568533 1_555
La3 O11 2.794683 1_455
La4 O2 2.352958 1_555
La4 O3 2.400368 1_545
La4 O0 2.419370 1_555
La4 O4 2.449586 1_555
La4 O7 2.547219 1_545
La4 O9 2.568533 1_555
La4 O10 2.794683 1_554
La5 O0 2.352958 1_555
La5 O4 2.400368 1_455
La5 O1 2.419370 1_555
La5 O5 2.449586 1_555
La5 O9 2.547219 1_455
La5 O8 2.568533 1_555
La5 O6 2.794684 1_545
O6 U0 2.097681 1_566
O7 U0 2.097681 1_565
O8 U0 2.097681 1_556
O9 U0 2.097681 1_655
O10 U0 2.097681 1_656
O11 U0 2.097681 1_665
