# generated using pymatgen
data_Bi2P2O9
_symmetry_space_group_name_H-M   'P 1'
_cell_length_a   7.00643400
_cell_length_b   8.53367300
_cell_length_c   15.32957400
_cell_angle_alpha   90.00000000
_cell_angle_beta   90.00000000
_cell_angle_gamma   90.00000000
_symmetry_Int_Tables_number   1
_chemical_formula_structural   Bi2P2O9
_chemical_formula_sum   'Bi8 P8 O36'
_cell_volume   916.56468247
_cell_formula_units_Z   4
loop_
 _symmetry_equiv_pos_site_id
 _symmetry_equiv_pos_as_xyz
  1  'x, y, z'
loop_
 _atom_site_type_symbol
 _atom_site_label
 _atom_site_symmetry_multiplicity
 _atom_site_fract_x
 _atom_site_fract_y
 _atom_site_fract_z
 _atom_site_occupancy
  Bi  Bi0  1  0.25000000  0.86463900  0.37474700  1
  Bi  Bi1  1  0.75000000  0.13536100  0.62525300  1
  Bi  Bi2  1  0.75000000  0.36463900  0.12525300  1
  Bi  Bi3  1  0.25000000  0.63536100  0.87474700  1
  Bi  Bi4  1  0.00000000  0.50000000  0.50000000  1
  Bi  Bi5  1  0.00000000  0.00000000  0.00000000  1
  Bi  Bi6  1  0.50000000  0.00000000  0.00000000  1
  Bi  Bi7  1  0.50000000  0.50000000  0.50000000  1
  P  P0  1  0.75000000  0.85481700  0.43482300  1
  P  P1  1  0.25000000  0.14518300  0.56517700  1
  P  P2  1  0.25000000  0.35481700  0.06517700  1
  P  P3  1  0.75000000  0.64518300  0.93482300  1
  P  P4  1  0.25000000  0.89035800  0.18862400  1
  P  P5  1  0.25000000  0.60964200  0.68862400  1
  P  P6  1  0.75000000  0.39035800  0.31137600  1
  P  P7  1  0.75000000  0.10964200  0.81137600  1
  O  O0  1  0.56674400  0.09939400  0.86811600  1
  O  O1  1  0.06674400  0.90060600  0.13188400  1
  O  O2  1  0.43325600  0.59939400  0.63188400  1
  O  O3  1  0.93325600  0.40060600  0.36811600  1
  O  O4  1  0.43325600  0.90060600  0.13188400  1
  O  O5  1  0.93325600  0.09939400  0.86811600  1
  O  O6  1  0.56674400  0.40060600  0.36811600  1
  O  O7  1  0.06674400  0.59939400  0.63188400  1
  O  O8  1  0.75000000  0.81630200  0.98031600  1
  O  O9  1  0.25000000  0.18369800  0.01968400  1
  O  O10  1  0.25000000  0.31630200  0.51968400  1
  O  O11  1  0.75000000  0.68369800  0.48031600  1
  O  O12  1  0.25000000  0.63712900  0.44804900  1
  O  O13  1  0.75000000  0.36287100  0.55195100  1
  O  O14  1  0.75000000  0.13712900  0.05195100  1
  O  O15  1  0.25000000  0.86287100  0.94804900  1
  O  O16  1  0.25000000  0.73664700  0.24329300  1
  O  O17  1  0.75000000  0.26335300  0.75670700  1
  O  O18  1  0.75000000  0.23664700  0.25670700  1
  O  O19  1  0.25000000  0.76335300  0.74329300  1
  O  O20  1  0.92651000  0.63775500  0.87533200  1
  O  O21  1  0.42651000  0.36224500  0.12466800  1
  O  O22  1  0.07349000  0.13775500  0.62466800  1
  O  O23  1  0.57349000  0.86224500  0.37533200  1
  O  O24  1  0.07349000  0.36224500  0.12466800  1
  O  O25  1  0.57349000  0.63775500  0.87533200  1
  O  O26  1  0.92651000  0.86224500  0.37533200  1
  O  O27  1  0.42651000  0.13775500  0.62466800  1
  O  O28  1  0.25000000  0.01855300  0.49482800  1
  O  O29  1  0.75000000  0.52492400  0.23938700  1
  O  O30  1  0.75000000  0.97507600  0.73938700  1
  O  O31  1  0.25000000  0.02492400  0.26061300  1
  O  O32  1  0.25000000  0.48144700  0.99482800  1
  O  O33  1  0.75000000  0.51855300  0.00517200  1
  O  O34  1  0.75000000  0.98144700  0.50517200  1
  O  O35  1  0.25000000  0.47507600  0.76061300  1
loop_
_geom_bond_atom_site_label_1
_geom_bond_atom_site_label_2
_geom_bond_distance
_geom_bond_site_symmetry_2
Bi0 O31 2.220838 1_565
Bi0 O12 2.243230 1_555
Bi0 O28 2.261342 1_565
Bi0 O26 2.266621 1_455
Bi0 O23 2.266621 1_555
Bi0 O16 2.292107 1_555
Bi1 O30 2.220838 1_545
Bi1 O13 2.243230 1_555
Bi1 O34 2.261342 1_545
Bi1 O27 2.266621 1_555
Bi1 O22 2.266621 1_655
Bi1 O17 2.292107 1_555
Bi2 O29 2.220838 1_555
Bi2 O14 2.243230 1_555
Bi2 O33 2.261342 1_555
Bi2 O21 2.266621 1_555
Bi2 O24 2.266621 1_655
Bi2 O18 2.292107 1_555
Bi3 O35 2.220838 1_555
Bi3 O15 2.243230 1_555
Bi3 O32 2.261342 1_555
Bi3 O20 2.266621 1_455
Bi3 O25 2.266621 1_555
Bi3 O19 2.292107 1_555
Bi4 O7 2.241762 1_555
Bi4 O3 2.241762 1_455
Bi4 O12 2.252058 1_555
Bi4 O13 2.252058 1_455
Bi4 O11 2.369939 1_455
Bi4 O10 2.369939 1_555
Bi5 O5 2.241762 1_454
Bi5 O1 2.241762 1_545
Bi5 O14 2.252058 1_455
Bi5 O15 2.252058 1_544
Bi5 O9 2.369939 1_555
Bi5 O8 2.369939 1_444
Bi6 O0 2.241762 1_554
Bi6 O4 2.241762 1_545
Bi6 O14 2.252058 1_555
Bi6 O15 2.252058 1_544
Bi6 O9 2.369939 1_555
Bi6 O8 2.369939 1_544
Bi7 O2 2.241762 1_555
Bi7 O6 2.241762 1_555
Bi7 O12 2.252058 1_555
Bi7 O13 2.252058 1_555
Bi7 O11 2.369939 1_555
Bi7 O10 2.369939 1_555
O0 P7 1.553313 1_555
O1 P4 1.553313 1_555
O2 P5 1.553313 1_555
O3 P6 1.553313 1_555
O4 P4 1.553313 1_555
O5 P7 1.553313 1_555
O6 P6 1.553313 1_555
O7 P5 1.553313 1_555
O8 P3 1.618255 1_555
O9 P2 1.618255 1_555
O10 P1 1.618255 1_555
O11 P0 1.618255 1_555
O16 P4 1.556580 1_555
O17 P7 1.556580 1_555
O18 P6 1.556580 1_555
O19 P5 1.556580 1_555
O20 P3 1.537905 1_555
O21 P2 1.537905 1_555
O22 P1 1.537905 1_555
O23 P0 1.537905 1_555
O24 P2 1.537905 1_555
O25 P3 1.537905 1_555
O26 P0 1.537905 1_555
O27 P1 1.537905 1_555
O28 P1 1.526672 1_555
O29 P6 1.592651 1_555
O30 P7 1.592651 1_565
O31 P4 1.592651 1_545
O32 P2 1.526672 1_556
O33 P3 1.526672 1_554
O34 P0 1.526672 1_555
O35 P5 1.592651 1_555
