# generated using pymatgen
data_Mg14AlCd
_symmetry_space_group_name_H-M   'P 1'
_cell_length_a   6.28032240
_cell_length_b   6.28032190
_cell_length_c   10.39655630
_cell_angle_alpha   90.00000000
_cell_angle_beta   90.00000000
_cell_angle_gamma   120.00000261
_symmetry_Int_Tables_number   1
_chemical_formula_structural   Mg14AlCd
_chemical_formula_sum   'Mg14 Al1 Cd1'
_cell_volume   355.12722954
_cell_formula_units_Z   1
loop_
 _symmetry_equiv_pos_site_id
 _symmetry_equiv_pos_as_xyz
  1  'x, y, z'
loop_
 _atom_site_type_symbol
 _atom_site_label
 _atom_site_symmetry_multiplicity
 _atom_site_fract_x
 _atom_site_fract_y
 _atom_site_fract_z
 _atom_site_occupancy
  Mg  Mg0  1  0.16643534  0.83321717  0.12500000  1
  Mg  Mg1  1  0.16623876  0.83311888  0.62500000  1
  Mg  Mg2  1  0.66678283  0.33356466  0.12500000  1
  Mg  Mg3  1  0.66688112  0.33376124  0.62500000  1
  Mg  Mg4  1  0.66678283  0.83321717  0.12500000  1
  Mg  Mg5  1  0.66688112  0.83311888  0.62500000  1
  Mg  Mg6  1  0.33226671  0.16773329  0.37432374  1
  Mg  Mg7  1  0.33226671  0.16773329  0.87567626  1
  Mg  Mg8  1  0.33226671  0.66453442  0.37432374  1
  Mg  Mg9  1  0.33226671  0.66453442  0.87567626  1
  Mg  Mg10  1  0.83546558  0.16773329  0.37432374  1
  Mg  Mg11  1  0.83546558  0.16773329  0.87567626  1
  Mg  Mg12  1  0.83333300  0.66666700  0.37519152  1
  Mg  Mg13  1  0.83333300  0.66666700  0.87480848  1
  Al  Al0  1  0.16666700  0.33333300  0.12500000  1
  Cd  Cd0  1  0.16666700  0.33333300  0.62500000  1
loop_
_geom_bond_atom_site_label_1
_geom_bond_atom_site_label_2
_geom_bond_distance
_geom_bond_site_symmetry_2
Mg0 Mg2 3.137979 1_455
Mg0 Mg4 3.137979 1_455
Mg0 Mg2 3.142343 1_565
Mg0 Mg4 3.142344 1_555
Mg0 Mg8 3.166908 1_555
Mg0 Mg9 3.166908 1_554
Mg0 Mg7 3.166914 1_564
Mg0 Mg6 3.166914 1_565
Mg0 Mg12 3.169889 1_455
Mg0 Mg13 3.169889 1_454
Mg1 Mg3 3.136127 1_455
Mg1 Mg5 3.136127 1_455
Mg1 Mg3 3.144195 1_565
Mg1 Mg5 3.144195 1_555
Mg1 Mg12 3.166010 1_455
Mg1 Mg13 3.166010 1_455
Mg1 Mg8 3.178731 1_555
Mg1 Mg9 3.178731 1_555
Mg1 Mg6 3.178737 1_565
Mg1 Mg7 3.178737 1_565
Mg2 Mg4 3.137979 1_555
Mg2 Mg4 3.142343 1_545
Mg2 Mg7 3.166914 1_554
Mg2 Mg6 3.166914 1_555
Mg3 Mg5 3.136127 1_555
Mg3 Mg5 3.144195 1_545
Mg3 Mg6 3.178737 1_555
Mg3 Mg7 3.178737 1_555
Mg4 Mg9 3.166914 1_554
Mg4 Mg8 3.166914 1_555
Mg5 Mg8 3.178737 1_555
Mg5 Mg9 3.178737 1_555
Mg6 Mg8 3.120071 1_555
Mg6 Mg8 3.160251 1_545
Mg7 Mg9 3.120071 1_555
Mg7 Mg9 3.160251 1_545
Mg10 Mg8 3.120071 1_655
Mg10 Mg6 3.120071 1_655
Mg10 Mg12 3.140195 1_545
Mg10 Mg12 3.140195 1_555
Mg10 Mg8 3.160251 1_545
Mg10 Mg6 3.160251 1_555
Mg10 Mg2 3.166908 1_555
Mg10 Mg4 3.166914 1_545
Mg10 Mg3 3.178731 1_555
Mg10 Mg5 3.178737 1_545
Mg11 Mg9 3.120071 1_655
Mg11 Mg7 3.120071 1_655
Mg11 Mg13 3.140195 1_545
Mg11 Mg13 3.140195 1_555
Mg11 Mg9 3.160251 1_545
Mg11 Mg7 3.160251 1_555
Mg11 Mg2 3.166908 1_556
Mg11 Mg4 3.166914 1_546
Mg11 Mg3 3.178731 1_555
Mg11 Mg5 3.178737 1_545
Mg12 Mg6 3.140195 1_665
Mg12 Mg6 3.140195 1_555
Mg12 Mg8 3.140196 1_555
Mg12 Mg8 3.140196 1_655
Mg12 Mg5 3.166004 1_555
Mg12 Mg3 3.166010 1_555
Mg12 Mg4 3.169883 1_555
Mg12 Mg2 3.169889 1_555
Mg13 Mg7 3.140195 1_665
Mg13 Mg7 3.140195 1_555
Mg13 Mg9 3.140196 1_555
Mg13 Mg9 3.140196 1_655
Mg13 Mg5 3.166004 1_555
Mg13 Mg3 3.166010 1_555
Mg13 Mg4 3.169883 1_556
Mg13 Mg2 3.169889 1_556
Al0 Mg4 3.140161 1_445
Al0 Mg0 3.140161 1_545
Al0 Mg0 3.140161 1_555
Al0 Mg4 3.140161 1_555
Al0 Mg2 3.140161 1_455
Al0 Mg2 3.140161 1_555
Al0 Mg7 3.156572 1_554
Al0 Mg6 3.156572 1_555
Al0 Mg8 3.156578 1_555
Al0 Mg9 3.156578 1_554
Al0 Mg10 3.156578 1_455
Al0 Mg11 3.156578 1_454
Cd0 Mg5 3.140162 1_445
Cd0 Mg1 3.140162 1_545
Cd0 Mg1 3.140162 1_555
Cd0 Mg5 3.140162 1_555
Cd0 Mg3 3.140162 1_455
Cd0 Mg3 3.140162 1_555
Cd0 Mg7 3.168129 1_555
Cd0 Mg6 3.168129 1_555
Cd0 Mg9 3.168135 1_555
Cd0 Mg8 3.168135 1_555
Cd0 Mg11 3.168135 1_455
Cd0 Mg10 3.168135 1_455
