# generated using pymatgen
data_RbMnCl3O2
_symmetry_space_group_name_H-M   'P 1'
_cell_length_a   7.05034400
_cell_length_b   9.29169000
_cell_length_c   11.13483200
_cell_angle_alpha   90.00000000
_cell_angle_beta   90.00000000
_cell_angle_gamma   90.00000000
_symmetry_Int_Tables_number   1
_chemical_formula_structural   RbMnCl3O2
_chemical_formula_sum   'Rb4 Mn4 Cl12 O8'
_cell_volume   729.43851110
_cell_formula_units_Z   4
loop_
 _symmetry_equiv_pos_site_id
 _symmetry_equiv_pos_as_xyz
  1  'x, y, z'
loop_
 _atom_site_type_symbol
 _atom_site_label
 _atom_site_symmetry_multiplicity
 _atom_site_fract_x
 _atom_site_fract_y
 _atom_site_fract_z
 _atom_site_occupancy
  Rb  Rb0  1  0.00000000  0.75000000  0.63598700  1
  Rb  Rb1  1  0.00000000  0.25000000  0.86401300  1
  Rb  Rb2  1  0.00000000  0.25000000  0.36401300  1
  Rb  Rb3  1  0.00000000  0.75000000  0.13598700  1
  Mn  Mn0  1  0.55869500  0.50000000  0.75000000  1
  Mn  Mn1  1  0.44130500  0.00000000  0.75000000  1
  Mn  Mn2  1  0.44130500  0.50000000  0.25000000  1
  Mn  Mn3  1  0.55869500  0.00000000  0.25000000  1
  Cl  Cl0  1  0.77241300  0.57863000  0.89280200  1
  Cl  Cl1  1  0.22758700  0.92137000  0.89280200  1
  Cl  Cl2  1  0.22758700  0.07863000  0.60719800  1
  Cl  Cl3  1  0.77241300  0.42137000  0.60719800  1
  Cl  Cl4  1  0.22758700  0.42137000  0.10719800  1
  Cl  Cl5  1  0.77241300  0.07863000  0.10719800  1
  Cl  Cl6  1  0.77241300  0.92137000  0.39280200  1
  Cl  Cl7  1  0.22758700  0.57863000  0.39280200  1
  Cl  Cl8  1  0.50000000  0.75000000  0.65199300  1
  Cl  Cl9  1  0.50000000  0.25000000  0.84800700  1
  Cl  Cl10  1  0.50000000  0.25000000  0.34800700  1
  Cl  Cl11  1  0.50000000  0.75000000  0.15199300  1
  O  O0  1  0.27918000  0.52935100  0.80321700  1
  O  O1  1  0.72082000  0.97064900  0.80321700  1
  O  O2  1  0.72082000  0.02935100  0.69678300  1
  O  O3  1  0.27918000  0.47064900  0.69678300  1
  O  O4  1  0.72082000  0.47064900  0.19678300  1
  O  O5  1  0.27918000  0.02935100  0.19678300  1
  O  O6  1  0.27918000  0.97064900  0.30321700  1
  O  O7  1  0.72082000  0.52935100  0.30321700  1
loop_
_geom_bond_atom_site_label_1
_geom_bond_atom_site_label_2
_geom_bond_distance
_geom_bond_site_symmetry_2
Mn0 O0 2.075831 1_555
Mn0 O3 2.075831 1_555
Mn1 O2 2.075831 1_555
Mn1 O1 2.075831 1_545
Mn2 O7 2.075831 1_555
Mn2 O4 2.075831 1_555
Mn3 O6 2.075831 1_545
Mn3 O5 2.075831 1_555
Cl0 Mn0 2.309227 1_555
Cl0 Rb1 3.464308 1_655
Cl0 Rb3 3.527381 1_656
Cl0 Rb0 3.645185 1_655
Cl1 Mn1 2.309227 1_565
Cl1 Rb1 3.464308 1_565
Cl1 Rb3 3.527381 1_556
Cl1 Rb0 3.645185 1_555
Cl2 Mn1 2.309227 1_555
Cl2 Rb0 3.464308 1_545
Cl2 Rb2 3.527381 1_555
Cl2 Rb1 3.645185 1_555
Cl3 Mn0 2.309227 1_555
Cl3 Rb0 3.464308 1_655
Cl3 Rb2 3.527381 1_655
Cl3 Rb1 3.645185 1_655
Cl4 Mn2 2.309227 1_555
Cl4 Rb3 3.464308 1_555
Cl4 Rb1 3.527381 1_554
Cl4 Rb2 3.645185 1_555
Cl5 Mn3 2.309227 1_555
Cl5 Rb3 3.464308 1_645
Cl5 Rb1 3.527381 1_654
Cl5 Rb2 3.645185 1_655
Cl6 Mn3 2.309227 1_565
Cl6 Rb2 3.464308 1_665
Cl6 Rb0 3.527381 1_655
Cl6 Rb3 3.645185 1_655
Cl7 Mn2 2.309227 1_555
Cl7 Rb2 3.464308 1_555
Cl7 Rb0 3.527381 1_555
Cl7 Rb3 3.645185 1_555
Cl8 Mn1 2.599641 1_565
Cl8 Mn0 2.599641 1_555
Cl8 Rb0 3.529674 1_655
Cl8 Rb0 3.529674 1_555
Cl9 Mn1 2.599641 1_555
Cl9 Mn0 2.599641 1_555
Cl9 Rb1 3.529674 1_655
Cl9 Rb1 3.529674 1_555
Cl10 Mn3 2.599641 1_555
Cl10 Mn2 2.599641 1_555
Cl10 Rb2 3.529674 1_555
Cl10 Rb2 3.529674 1_655
Cl11 Mn3 2.599641 1_565
Cl11 Mn2 2.599641 1_555
Cl11 Rb3 3.529674 1_655
Cl11 Rb3 3.529674 1_555
O0 O3 1.304617 1_555
O0 Rb1 3.327145 1_555
O0 Rb0 3.397783 1_555
O1 O2 1.304617 1_565
O1 Rb1 3.327145 1_665
O1 Rb0 3.397783 1_655
O2 Rb0 3.327145 1_645
O2 Rb1 3.397783 1_655
O3 Rb0 3.327145 1_555
O3 Rb1 3.397783 1_555
O4 O7 1.304617 1_555
O4 Rb3 3.327145 1_655
O4 Rb2 3.397783 1_655
O5 O6 1.304617 1_545
O5 Rb3 3.327145 1_545
O5 Rb2 3.397783 1_555
O6 Rb2 3.327145 1_565
O6 Rb3 3.397783 1_555
O7 Rb2 3.327145 1_655
O7 Rb3 3.397783 1_655
