# generated using pymatgen
data_Ti2Nb2Ni2C
_symmetry_space_group_name_H-M   'P 1'
_cell_length_a   8.17212601
_cell_length_b   8.17212601
_cell_length_c   8.17212601
_cell_angle_alpha   119.63042449
_cell_angle_beta   119.63042449
_cell_angle_gamma   90.64132444
_symmetry_Int_Tables_number   1
_chemical_formula_structural   Ti2Nb2Ni2C
_chemical_formula_sum   'Ti8 Nb8 Ni8 C4'
_cell_volume   388.04311664
_cell_formula_units_Z   4
loop_
 _symmetry_equiv_pos_site_id
 _symmetry_equiv_pos_as_xyz
  1  'x, y, z'
loop_
 _atom_site_type_symbol
 _atom_site_label
 _atom_site_symmetry_multiplicity
 _atom_site_fract_x
 _atom_site_fract_y
 _atom_site_fract_z
 _atom_site_occupancy
  Ti  Ti0  1  0.87282300  0.12044600  0.24762300  1
  Ti  Ti1  1  0.87955400  0.12717700  0.75237700  1
  Ti  Ti2  1  0.37480000  0.12717700  0.24762300  1
  Ti  Ti3  1  0.87282300  0.62520000  0.75237700  1
  Ti  Ti4  1  0.31532500  0.68467500  0.00000000  1
  Ti  Ti5  1  0.68467500  0.31532500  0.00000000  1
  Ti  Ti6  1  0.68467500  0.68467500  0.36935000  1
  Ti  Ti7  1  0.31532500  0.31532500  0.63065000  1
  Nb  Nb0  1  0.68284600  0.68284600  0.00000000  1
  Nb  Nb1  1  0.31715400  0.31715400  0.00000000  1
  Nb  Nb2  1  0.43279800  0.56720200  0.50000000  1
  Nb  Nb3  1  0.06720200  0.93279800  0.50000000  1
  Nb  Nb4  1  0.06720200  0.56720200  0.13440300  1
  Nb  Nb5  1  0.43279800  0.93279800  0.86559700  1
  Nb  Nb6  1  0.06597100  0.56597100  0.50000000  1
  Nb  Nb7  1  0.43402900  0.93402900  0.50000000  1
  Ni  Ni0  1  0.07751100  0.91910800  0.84159700  1
  Ni  Ni1  1  0.08089200  0.92248900  0.15840300  1
  Ni  Ni2  1  0.76408500  0.92248900  0.84159700  1
  Ni  Ni3  1  0.07751100  0.23591500  0.15840300  1
  Ni  Ni4  1  0.66527600  0.32812400  0.66284800  1
  Ni  Ni5  1  0.67187600  0.33472400  0.33715200  1
  Ni  Ni6  1  0.99757200  0.33472400  0.66284800  1
  Ni  Ni7  1  0.66527600  0.00242800  0.33715200  1
  C  C0  1  0.37879000  0.62732400  0.24853300  1
  C  C1  1  0.37267600  0.62121000  0.75146700  1
  C  C2  1  0.86974300  0.62121000  0.24853300  1
  C  C3  1  0.37879000  0.13025700  0.75146700  1
loop_
_geom_bond_atom_site_label_1
_geom_bond_atom_site_label_2
_geom_bond_distance
_geom_bond_site_symmetry_2
Nb0 Ni7 2.777973 1_565
Nb0 Ni4 2.777973 1_554
Nb0 Ni2 3.046176 1_554
Nb0 Ni1 3.046179 1_655
Nb1 Ni6 2.777973 1_454
Nb1 Ni5 2.777973 1_555
Nb1 Ni3 3.046176 1_555
Nb1 Ni0 3.046179 1_544
Nb2 Ni3 2.808728 1_555
Nb2 Ni2 2.808728 1_555
Nb2 Ni5 3.058066 1_555
Nb2 Ni4 3.058066 1_555
Nb3 Ni0 2.808732 1_555
Nb3 Ni1 2.808732 1_555
Nb3 Ni6 3.058066 1_465
Nb3 Ni7 3.058066 1_465
Nb4 Ni3 2.808728 1_555
Nb4 Ni1 2.808728 1_555
Nb4 Ni6 3.058059 1_454
Nb4 Ni4 3.058062 1_454
Nb5 Ni2 2.808728 1_555
Nb5 Ni0 2.808728 1_555
Nb5 Ni7 3.058059 1_566
Nb5 Ni5 3.058062 1_566
Nb6 Ni3 2.810280 1_555
Nb6 Ni0 2.810284 1_555
Nb6 Ni5 2.975479 1_455
Nb6 Ni6 2.975479 1_455
Nb7 Ni2 2.810280 1_555
Nb7 Ni1 2.810284 1_555
Nb7 Ni4 2.975479 1_565
Nb7 Ni7 2.975479 1_565
Ni0 Ti3 2.463943 1_455
Ni0 Ti1 2.482148 1_465
Ni0 Ti2 2.482148 1_566
Ni0 Ni1 2.561807 1_556
Ni0 Ni2 2.561815 1_455
Ni0 Ni3 2.603432 1_566
Ni0 Ti4 3.028369 1_556
Ni0 Ti6 3.028369 1_455
Ni1 Ti2 2.463943 1_565
Ni1 Ti0 2.482148 1_465
Ni1 Ti3 2.482148 1_454
Ni1 Ni3 2.561815 1_565
Ni1 Ni2 2.603432 1_454
Ni1 Ti7 3.028369 1_565
Ni1 Ti4 3.028369 1_555
Ni2 Ti1 2.463948 1_565
Ni2 Ti0 2.482146 1_566
Ni2 Ti3 2.482153 1_555
Ni2 Ni3 2.561815 1_666
Ni2 Ti5 3.028365 1_566
Ni2 Ti6 3.028372 1_555
Ni3 Ti0 2.463948 1_455
Ni3 Ti1 2.482146 1_454
Ni3 Ti2 2.482153 1_555
Ni3 Ti5 3.028365 1_455
Ni3 Ti7 3.028372 1_555
Ni4 Ti3 2.496078 1_555
Ni4 Ti1 2.506778 1_555
Ni4 Ti2 2.506778 1_555
Ni4 Ni7 2.676483 1_555
Ni4 Ni6 2.715497 1_555
Ni4 Ni5 2.715497 1_555
Ni4 Ti5 2.735122 1_556
Ni4 Ti7 2.735122 1_555
Ni5 Ti2 2.496078 1_555
Ni5 Ti3 2.506778 1_555
Ni5 Ti0 2.506778 1_555
Ni5 Ni6 2.676483 1_555
Ni5 Ni7 2.715497 1_555
Ni5 Ti6 2.735122 1_555
Ni5 Ti5 2.735122 1_555
Ni6 Ti1 2.496078 1_555
Ni6 Ti3 2.506778 1_555
Ni6 Ti0 2.506778 1_555
Ni6 Ni7 2.715497 1_555
Ni6 Ti7 2.735122 1_655
Ni6 Ti4 2.735122 1_656
Ni7 Ti0 2.496078 1_555
Ni7 Ti2 2.506778 1_555
Ni7 Ti1 2.506778 1_555
Ni7 Ti4 2.735122 1_545
Ni7 Ti6 2.735122 1_545
C0 Ti4 2.125767 1_555
C0 Ti6 2.125773 1_555
C0 Nb1 2.161730 1_555
C0 Nb7 2.161793 1_555
C0 Nb4 2.183038 1_555
C0 Nb2 2.183046 1_555
C1 Ti4 2.125767 1_556
C1 Ti7 2.125773 1_555
C1 Nb0 2.161730 1_556
C1 Nb6 2.161793 1_555
C1 Nb5 2.183038 1_555
C1 Nb2 2.183046 1_555
C2 Ti6 2.125773 1_555
C2 Ti5 2.125773 1_555
C2 Nb0 2.161724 1_555
C2 Nb6 2.161799 1_655
C2 Nb3 2.183040 1_655
C2 Nb4 2.183046 1_655
C3 Ti5 2.125773 1_556
C3 Ti7 2.125773 1_555
C3 Nb1 2.161724 1_556
C3 Nb7 2.161799 1_545
C3 Nb3 2.183040 1_545
C3 Nb5 2.183046 1_545
