# generated using pymatgen
data_K3Ho(SiO3)3
_symmetry_space_group_name_H-M   'P 1'
_cell_length_a   13.89271400
_cell_length_b   15.68140500
_cell_length_c   5.59714900
_cell_angle_alpha   90.00000000
_cell_angle_beta   90.00000000
_cell_angle_gamma   90.00000000
_symmetry_Int_Tables_number   1
_chemical_formula_structural   K3Ho(SiO3)3
_chemical_formula_sum   'K12 Ho4 Si12 O36'
_cell_volume   1219.37962770
_cell_formula_units_Z   4
loop_
 _symmetry_equiv_pos_site_id
 _symmetry_equiv_pos_as_xyz
  1  'x, y, z'
loop_
 _atom_site_type_symbol
 _atom_site_label
 _atom_site_symmetry_multiplicity
 _atom_site_fract_x
 _atom_site_fract_y
 _atom_site_fract_z
 _atom_site_occupancy
  K  K0  1  0.76088300  0.64037000  0.58440600  1
  K  K1  1  0.23911700  0.64037000  0.58440600  1
  K  K2  1  0.73911700  0.14037000  0.41559400  1
  K  K3  1  0.26088300  0.14037000  0.41559400  1
  K  K4  1  0.00000000  0.01518300  0.43564400  1
  K  K5  1  0.50000000  0.51518300  0.56435600  1
  K  K6  1  0.00000000  0.24266300  0.07900200  1
  K  K7  1  0.50000000  0.74266300  0.92099800  1
  K  K8  1  0.00000000  0.61052000  0.93223600  1
  K  K9  1  0.50000000  0.11052000  0.06776400  1
  K  K10  1  0.00000000  0.81516000  0.43210000  1
  K  K11  1  0.50000000  0.31516000  0.56790000  1
  Ho  Ho0  1  0.74146900  0.91692000  0.43911900  1
  Ho  Ho1  1  0.25853100  0.91692000  0.43911900  1
  Ho  Ho2  1  0.75853100  0.41692000  0.56088100  1
  Ho  Ho3  1  0.24146900  0.41692000  0.56088100  1
  Si  Si0  1  0.88690300  0.86919000  0.93590400  1
  Si  Si1  1  0.11309700  0.86919000  0.93590400  1
  Si  Si2  1  0.61309700  0.36919000  0.06409600  1
  Si  Si3  1  0.38690300  0.36919000  0.06409600  1
  Si  Si4  1  0.71661000  0.76517800  0.05604100  1
  Si  Si5  1  0.28339000  0.76517800  0.05604100  1
  Si  Si6  1  0.78339000  0.26517800  0.94395900  1
  Si  Si7  1  0.21661000  0.26517800  0.94395900  1
  Si  Si8  1  0.62040800  0.94954100  0.93445200  1
  Si  Si9  1  0.37959200  0.94954100  0.93445200  1
  Si  Si10  1  0.87959200  0.44954100  0.06554800  1
  Si  Si11  1  0.12040800  0.44954100  0.06554800  1
  O  O0  1  0.00000000  0.83070900  0.93738400  1
  O  O1  1  0.50000000  0.33070900  0.06261600  1
  O  O2  1  0.86984300  0.91645200  0.68289300  1
  O  O3  1  0.13015700  0.91645200  0.68289300  1
  O  O4  1  0.63015700  0.41645200  0.31710700  1
  O  O5  1  0.36984300  0.41645200  0.31710700  1
  O  O6  1  0.86708400  0.92162600  0.17939100  1
  O  O7  1  0.13291600  0.92162600  0.17939100  1
  O  O8  1  0.63291600  0.42162600  0.82060900  1
  O  O9  1  0.36708400  0.42162600  0.82060900  1
  O  O10  1  0.82910600  0.77443000  0.94240300  1
  O  O11  1  0.17089400  0.77443000  0.94240300  1
  O  O12  1  0.67089400  0.27443000  0.05759700  1
  O  O13  1  0.32910600  0.27443000  0.05759700  1
  O  O14  1  0.72009500  0.78511400  0.34400500  1
  O  O15  1  0.27990500  0.78511400  0.34400500  1
  O  O16  1  0.77990500  0.28511400  0.65599500  1
  O  O17  1  0.22009500  0.28511400  0.65599500  1
  O  O18  1  0.66893400  0.67781700  0.97796900  1
  O  O19  1  0.33106600  0.67781700  0.97796900  1
  O  O20  1  0.83106600  0.17781700  0.02203100  1
  O  O21  1  0.16893400  0.17781700  0.02203100  1
  O  O22  1  0.65817300  0.84807900  0.92534900  1
  O  O23  1  0.34182700  0.84807900  0.92534900  1
  O  O24  1  0.84182700  0.34807900  0.07465100  1
  O  O25  1  0.15817300  0.34807900  0.07465100  1
  O  O26  1  0.65431000  0.99494300  0.18089400  1
  O  O27  1  0.34569000  0.99494300  0.18089400  1
  O  O28  1  0.84569000  0.49494300  0.81910600  1
  O  O29  1  0.15431000  0.49494300  0.81910600  1
  O  O30  1  0.65684400  0.99547200  0.69301300  1
  O  O31  1  0.34315600  0.99547200  0.69301300  1
  O  O32  1  0.84315600  0.49547200  0.30698700  1
  O  O33  1  0.15684400  0.49547200  0.30698700  1
  O  O34  1  0.50000000  0.94340100  0.93483800  1
  O  O35  1  0.00000000  0.44340100  0.06516200  1
loop_
_geom_bond_atom_site_label_1
_geom_bond_atom_site_label_2
_geom_bond_distance
_geom_bond_site_symmetry_2
K0 O18 2.613254 1_555
K0 O14 2.698810 1_555
K0 O28 2.883489 1_555
K0 O32 2.980000 1_555
K0 O10 3.054971 1_555
K1 O19 2.613254 1_555
K1 O15 2.698810 1_555
K1 O29 2.883489 1_555
K1 O33 2.980000 1_555
K1 O11 3.054971 1_555
K2 O20 2.613254 1_555
K2 O16 2.698810 1_555
K2 O26 2.883489 1_545
K2 O30 2.980000 1_545
K2 O12 3.054971 1_555
K3 O21 2.613254 1_555
K3 O17 2.698810 1_555
K3 O27 2.883489 1_545
K3 O31 2.980000 1_545
K3 O13 3.054971 1_555
K4 O2 2.753527 1_445
K4 O3 2.753527 1_545
K4 O6 2.760321 1_445
K4 O7 2.760321 1_545
K5 O4 2.753527 1_555
K5 O5 2.753527 1_555
K5 O9 2.760321 1_555
K5 O8 2.760321 1_555
K6 O21 2.577577 1_555
K6 O20 2.577577 1_455
K6 O24 2.749915 1_455
K6 O25 2.749915 1_555
K6 O35 3.148807 1_555
K7 O19 2.577577 1_555
K7 O18 2.577577 1_555
K7 O23 2.749915 1_555
K7 O22 2.749915 1_555
K7 O34 3.148807 1_555
K8 O35 2.724226 1_556
K8 O28 2.877775 1_455
K8 O29 2.877775 1_555
K9 O34 2.724226 1_544
K9 O26 2.877775 1_545
K9 O27 2.877775 1_545
K10 O0 2.779714 1_554
K10 O3 2.786247 1_555
K10 O2 2.786247 1_455
K10 O0 2.838641 1_555
K10 O7 2.863183 1_555
K10 O6 2.863183 1_455
K11 O1 2.779714 1_556
K11 O4 2.786247 1_555
K11 O5 2.786247 1_555
K11 O1 2.838641 1_555
K11 O9 2.863183 1_555
K11 O8 2.863183 1_555
Ho0 O14 2.154920 1_555
Ho0 O30 2.217887 1_555
Ho0 O2 2.245549 1_555
Ho0 O26 2.247700 1_555
Ho0 O6 2.272506 1_555
Ho1 O15 2.154920 1_555
Ho1 O31 2.217887 1_555
Ho1 O3 2.245549 1_555
Ho1 O27 2.247700 1_555
Ho1 O7 2.272506 1_555
Ho2 O16 2.154920 1_555
Ho2 O32 2.217887 1_555
Ho2 O4 2.245549 1_555
Ho2 O28 2.247700 1_555
Ho2 O8 2.272506 1_555
Ho3 O17 2.154920 1_555
Ho3 O33 2.217887 1_555
Ho3 O5 2.245549 1_555
Ho3 O29 2.247700 1_555
Ho3 O9 2.272506 1_555
O0 Si1 1.683137 1_555
O0 Si0 1.683137 1_455
O1 Si3 1.683137 1_555
O1 Si2 1.683137 1_555
O2 Si0 1.615830 1_555
O3 Si1 1.615830 1_555
O4 Si2 1.615830 1_555
O5 Si3 1.615830 1_555
O6 Si0 1.615319 1_554
O7 Si1 1.615319 1_554
O8 Si2 1.615319 1_556
O9 Si3 1.615319 1_556
O10 Si0 1.689429 1_555
O10 Si4 1.693572 1_556
O11 Si1 1.689429 1_555
O11 Si5 1.693572 1_556
O12 Si2 1.689429 1_555
O12 Si6 1.693572 1_554
O13 Si3 1.689429 1_555
O13 Si7 1.693572 1_554
O14 Si4 1.642530 1_555
O15 Si5 1.642530 1_555
O16 Si6 1.642530 1_555
O17 Si7 1.642530 1_555
O18 Si4 1.583162 1_556
O19 Si5 1.583162 1_556
O20 Si6 1.583162 1_554
O21 Si7 1.583162 1_554
O22 Si8 1.676113 1_555
O22 Si4 1.698295 1_556
O23 Si9 1.676113 1_555
O23 Si5 1.698295 1_556
O24 Si10 1.676113 1_555
O24 Si6 1.698295 1_554
O25 Si11 1.676113 1_555
O25 Si7 1.698295 1_554
O26 Si8 1.622159 1_554
O27 Si9 1.622159 1_554
O28 Si10 1.622159 1_556
O29 Si11 1.622159 1_556
O30 Si8 1.612828 1_555
O31 Si9 1.612828 1_555
O32 Si10 1.612828 1_555
O33 Si11 1.612828 1_555
O34 Si8 1.675564 1_555
O34 Si9 1.675564 1_555
O35 Si10 1.675564 1_455
O35 Si11 1.675564 1_555
