# generated using pymatgen
data_Ca2YBiO5
_symmetry_space_group_name_H-M   'P 1'
_cell_length_a   8.93127454
_cell_length_b   8.93127454
_cell_length_c   6.09899490
_cell_angle_alpha   70.66252556
_cell_angle_beta   70.66252556
_cell_angle_gamma   39.64555805
_symmetry_Int_Tables_number   1
_chemical_formula_structural   Ca2YBiO5
_chemical_formula_sum   'Ca4 Y2 Bi2 O10'
_cell_volume   290.54173526
_cell_formula_units_Z   2
loop_
 _symmetry_equiv_pos_site_id
 _symmetry_equiv_pos_as_xyz
  1  'x, y, z'
loop_
 _atom_site_type_symbol
 _atom_site_label
 _atom_site_symmetry_multiplicity
 _atom_site_fract_x
 _atom_site_fract_y
 _atom_site_fract_z
 _atom_site_occupancy
  Ca  Ca0  1  0.37612200  0.86977600  0.08351200  1
  Ca  Ca1  1  0.12276900  0.61584500  0.33703400  1
  Ca  Ca2  1  0.61584500  0.12276900  0.83703400  1
  Ca  Ca3  1  0.86977600  0.37612200  0.58351200  1
  Y  Y0  1  0.72631600  0.26271800  0.19006200  1
  Y  Y1  1  0.26271800  0.72631600  0.69006200  1
  Bi  Bi0  1  0.49725600  0.99761600  0.50248100  1
  Bi  Bi1  1  0.99761600  0.49725600  0.00248100  1
  O  O0  1  0.60277600  0.39312500  0.83036800  1
  O  O1  1  0.39312500  0.60277600  0.33036800  1
  O  O2  1  0.19932300  0.00076100  0.74787900  1
  O  O3  1  0.79271200  0.98877500  0.45716300  1
  O  O4  1  0.00076100  0.19932300  0.24787900  1
  O  O5  1  0.98877500  0.79271200  0.95716300  1
  O  O6  1  0.26208600  0.35514400  0.68733200  1
  O  O7  1  0.72830500  0.64986500  0.80826100  1
  O  O8  1  0.64986500  0.72830500  0.30826100  1
  O  O9  1  0.35514400  0.26208600  0.18733200  1
loop_
_geom_bond_atom_site_label_1
_geom_bond_atom_site_label_2
_geom_bond_distance
_geom_bond_site_symmetry_2
Ca0 O1 2.278684 1_555
Ca0 O4 2.332276 1_565
Ca0 O7 2.396285 1_554
Ca0 O2 2.400450 1_564
Ca0 O8 2.401653 1_555
Ca1 O1 2.312958 1_555
Ca1 O3 2.320686 1_455
Ca1 O6 2.353409 1_555
Ca1 O9 2.383427 1_555
Ca1 O5 2.407567 1_454
Ca2 O0 2.312958 1_555
Ca2 O5 2.320686 1_545
Ca2 O9 2.353409 1_556
Ca2 O6 2.383427 1_555
Ca2 O3 2.407567 1_545
Ca3 O0 2.278684 1_555
Ca3 O2 2.332276 1_655
Ca3 O8 2.396285 1_555
Ca3 O4 2.400450 1_655
Ca3 O7 2.401653 1_555
Bi0 O8 2.194361 1_555
Bi0 O9 2.208315 1_565
Bi0 O7 2.495039 1_555
Bi0 O3 2.501287 1_555
Bi0 O6 2.523151 1_565
Bi0 O2 2.568382 1_565
Bi1 O7 2.194361 1_554
Bi1 O6 2.208315 1_654
Bi1 O8 2.495039 1_555
Bi1 O5 2.501287 1_554
Bi1 O9 2.523151 1_655
Bi1 O4 2.568382 1_655
O0 Y1 2.219946 1_555
O0 Y0 2.306170 1_556
O1 Y0 2.219946 1_555
O1 Y1 2.306170 1_555
O2 Y1 2.180813 1_545
O3 Y0 2.181146 1_565
O4 Y0 2.180813 1_455
O5 Y1 2.181146 1_655
