# generated using pymatgen
data_Mg(NiO2)2
_symmetry_space_group_name_H-M   'P 1'
_cell_length_a   5.80392509
_cell_length_b   5.80392509
_cell_length_c   5.82268411
_cell_angle_alpha   59.74329523
_cell_angle_beta   59.74329523
_cell_angle_gamma   59.95344593
_symmetry_Int_Tables_number   1
_chemical_formula_structural   Mg(NiO2)2
_chemical_formula_sum   'Mg2 Ni4 O8'
_cell_volume   138.10326624
_cell_formula_units_Z   2
loop_
 _symmetry_equiv_pos_site_id
 _symmetry_equiv_pos_as_xyz
  1  'x, y, z'
loop_
 _atom_site_type_symbol
 _atom_site_label
 _atom_site_symmetry_multiplicity
 _atom_site_fract_x
 _atom_site_fract_y
 _atom_site_fract_z
 _atom_site_occupancy
  Mg  Mg0  1  0.87866780  0.87866780  0.36669240  1
  Mg  Mg1  1  0.12133220  0.12133220  0.63330760  1
  Ni  Ni0  1  0.50000000  0.50000000  0.50000000  1
  Ni  Ni1  1  -0.00000000  0.50000000  0.00000000  1
  Ni  Ni2  1  0.50000000  -0.00000000  0.00000000  1
  Ni  Ni3  1  0.50000000  0.50000000  0.00000000  1
  O  O0  1  0.70437905  0.26057820  0.75451504  1
  O  O1  1  0.26057820  0.70437905  0.75451504  1
  O  O2  1  0.24301782  0.24301782  0.80257943  1
  O  O3  1  0.72652331  0.72652331  0.77494252  1
  O  O4  1  0.75698218  0.75698218  0.19742057  1
  O  O5  1  0.73942180  0.29562095  0.24548496  1
  O  O6  1  0.27347669  0.27347669  0.22505748  1
  O  O7  1  0.29562095  0.73942180  0.24548496  1
loop_
_geom_bond_atom_site_label_1
_geom_bond_atom_site_label_2
_geom_bond_distance
_geom_bond_site_symmetry_2
Mg0 O3 1.939156 1_555
Mg0 O4 1.967615 1_555
Mg0 O5 1.975504 1_565
Mg0 O7 1.975504 1_655
Mg1 O6 1.939156 1_555
Mg1 O2 1.967615 1_555
Mg1 O1 1.975504 1_545
Mg1 O0 1.975504 1_455
Ni0 O5 1.892046 1_555
Ni0 O1 1.892046 1_555
Ni0 O7 1.892046 1_555
Ni0 O0 1.892046 1_555
Ni0 O4 2.117699 1_555
Ni0 O2 2.117699 1_555
Ni1 O4 1.876857 1_455
Ni1 O2 1.876857 1_554
Ni1 O5 1.909660 1_455
Ni1 O1 1.909660 1_554
Ni1 O3 2.057969 1_454
Ni1 O6 2.057969 1_555
Ni2 O4 1.876857 1_545
Ni2 O2 1.876857 1_554
Ni2 O0 1.909660 1_554
Ni2 O7 1.909660 1_545
Ni2 O3 2.057969 1_544
Ni2 O6 2.057969 1_555
Ni3 O6 1.852767 1_555
Ni3 O3 1.852767 1_554
Ni3 O7 2.005860 1_555
Ni3 O1 2.005860 1_554
Ni3 O5 2.005860 1_555
Ni3 O0 2.005860 1_554
