# generated using pymatgen
data_Rb5TiSb7O22
_symmetry_space_group_name_H-M   'P 1'
_cell_length_a   7.38764533
_cell_length_b   7.38764533
_cell_length_c   20.87946705
_cell_angle_alpha   83.80057862
_cell_angle_beta   83.80057862
_cell_angle_gamma   90.02384466
_symmetry_Int_Tables_number   1
_chemical_formula_structural   Rb5TiSb7O22
_chemical_formula_sum   'Rb10 Ti2 Sb14 O44'
_cell_volume   1126.17188961
_cell_formula_units_Z   2
loop_
 _symmetry_equiv_pos_site_id
 _symmetry_equiv_pos_as_xyz
  1  'x, y, z'
loop_
 _atom_site_type_symbol
 _atom_site_label
 _atom_site_symmetry_multiplicity
 _atom_site_fract_x
 _atom_site_fract_y
 _atom_site_fract_z
 _atom_site_occupancy
  Rb  Rb0  1  0.49203400  0.26738100  0.97536100  1
  Rb  Rb1  1  0.73248700  0.50740500  0.52517900  1
  Rb  Rb2  1  0.50740500  0.73248700  0.02517900  1
  Rb  Rb3  1  0.26738100  0.49203400  0.47536100  1
  Rb  Rb4  1  0.47172200  0.09458000  0.15329100  1
  Rb  Rb5  1  0.90595500  0.52926500  0.34660100  1
  Rb  Rb6  1  0.52926500  0.90595500  0.84660100  1
  Rb  Rb7  1  0.09458000  0.47172200  0.65329100  1
  Rb  Rb8  1  0.93761000  0.06270800  0.24933400  1
  Rb  Rb9  1  0.06270800  0.93761000  0.74933400  1
  Ti  Ti0  1  0.98756100  0.37201200  0.07462300  1
  Ti  Ti1  1  0.37201200  0.98756100  0.57462300  1
  Sb  Sb0  1  0.70389900  0.58686200  0.18834400  1
  Sb  Sb1  1  0.41141100  0.29853000  0.31062000  1
  Sb  Sb2  1  0.29853000  0.41141100  0.81062000  1
  Sb  Sb3  1  0.58686200  0.70389900  0.68834400  1
  Sb  Sb4  1  0.98909400  0.89618500  0.06753800  1
  Sb  Sb5  1  0.10437700  0.01066400  0.43226200  1
  Sb  Sb6  1  0.01066400  0.10437700  0.93226200  1
  Sb  Sb7  1  0.89618500  0.98909400  0.56753800  1
  Sb  Sb8  1  0.21211600  0.58854700  0.18390000  1
  Sb  Sb9  1  0.40990000  0.78501200  0.31457300  1
  Sb  Sb10  1  0.78501200  0.40990000  0.81457300  1
  Sb  Sb11  1  0.58854700  0.21211600  0.68390000  1
  Sb  Sb12  1  0.61635700  0.01137700  0.42902100  1
  Sb  Sb13  1  0.01137700  0.61635700  0.92902100  1
  O  O0  1  0.64207200  0.75043500  0.25841600  1
  O  O1  1  0.24839700  0.35570600  0.24106800  1
  O  O2  1  0.35570600  0.24839700  0.74106800  1
  O  O3  1  0.75043500  0.64207200  0.75841600  1
  O  O4  1  0.76871000  0.43108500  0.11491800  1
  O  O5  1  0.57402600  0.25132600  0.38700200  1
  O  O6  1  0.25132600  0.57402600  0.88700200  1
  O  O7  1  0.43108500  0.76871000  0.61491800  1
  O  O8  1  0.99098100  0.65355400  0.02132600  1
  O  O9  1  0.34950600  0.00826800  0.47853100  1
  O  O10  1  0.00826800  0.34950600  0.97853100  1
  O  O11  1  0.65355400  0.99098100  0.52132600  1
  O  O12  1  0.81774900  0.00239100  0.00304900  1
  O  O13  1  0.99804500  0.18202600  0.49583700  1
  O  O14  1  0.18202600  0.99804500  0.99583700  1
  O  O15  1  0.00239100  0.81774900  0.50304900  1
  O  O16  1  0.18511700  0.81020700  0.11935500  1
  O  O17  1  0.19195900  0.81581700  0.37982700  1
  O  O18  1  0.81581700  0.19195900  0.87982700  1
  O  O19  1  0.81020700  0.18511700  0.61935500  1
  O  O20  1  0.77341900  0.81356400  0.12705700  1
  O  O21  1  0.18782500  0.22631500  0.37248400  1
  O  O22  1  0.22631500  0.18782500  0.87248400  1
  O  O23  1  0.81356400  0.77341900  0.62705700  1
  O  O24  1  0.98690200  0.13094300  0.10445200  1
  O  O25  1  0.87042400  0.01350600  0.39104500  1
  O  O26  1  0.01350600  0.87042400  0.89104500  1
  O  O27  1  0.13094300  0.98690200  0.60445200  1
  O  O28  1  0.95098900  0.55434200  0.21594600  1
  O  O29  1  0.45163400  0.04780000  0.28735700  1
  O  O30  1  0.04780000  0.45163400  0.78735700  1
  O  O31  1  0.55434200  0.95098900  0.71594600  1
  O  O32  1  0.47116500  0.61545600  0.15085800  1
  O  O33  1  0.38300900  0.52846300  0.34923600  1
  O  O34  1  0.52846300  0.38300900  0.84923600  1
  O  O35  1  0.61545600  0.47116500  0.65085800  1
  O  O36  1  0.23409400  0.76524400  0.24963600  1
  O  O37  1  0.76524400  0.23409400  0.74963600  1
  O  O38  1  0.19047600  0.43888200  0.10877500  1
  O  O39  1  0.56562400  0.78899300  0.39319300  1
  O  O40  1  0.78899300  0.56562400  0.89319300  1
  O  O41  1  0.43888200  0.19047600  0.60877500  1
  O  O42  1  0.63678100  0.36172200  0.24998400  1
  O  O43  1  0.36172200  0.63678100  0.74998400  1
loop_
_geom_bond_atom_site_label_1
_geom_bond_atom_site_label_2
_geom_bond_distance
_geom_bond_site_symmetry_2
O0 Sb9 2.003171 1_555
O0 Sb0 2.011826 1_555
O0 Rb8 3.152280 1_565
O0 Rb5 3.160462 1_555
O1 Sb1 1.995821 1_555
O1 Sb8 2.020283 1_555
O1 Rb8 3.133092 1_455
O1 Rb4 3.148898 1_555
O2 Sb2 1.995821 1_555
O2 Sb11 2.020283 1_555
O2 Rb9 3.133092 1_545
O2 Rb7 3.148898 1_555
O3 Sb10 2.003171 1_555
O3 Sb3 2.011826 1_555
O3 Rb9 3.152280 1_655
O3 Rb6 3.160462 1_555
O4 Ti0 1.816156 1_555
O4 Sb0 2.031504 1_555
O4 Rb4 3.289599 1_555
O5 Sb12 1.932267 1_555
O5 Sb1 2.098165 1_555
O5 Rb5 3.180534 1_555
O5 Rb3 3.392207 1_555
O6 Sb13 1.932267 1_555
O6 Sb2 2.098165 1_555
O6 Rb6 3.180534 1_555
O6 Rb0 3.392207 1_555
O7 Ti1 1.816156 1_555
O7 Sb3 2.031504 1_555
O7 Rb7 3.289599 1_555
O8 Sb13 1.965788 1_654
O8 Sb4 2.124806 1_555
O8 Ti0 2.249243 1_555
O9 Ti1 2.020462 1_545
O9 Sb12 2.123737 1_555
O9 Sb5 2.141786 1_555
O10 Ti0 2.020462 1_456
O10 Sb13 2.123737 1_555
O10 Sb6 2.141786 1_555
O11 Sb12 1.965788 1_565
O11 Sb7 2.124806 1_555
O11 Ti1 2.249243 1_555
O12 Sb6 2.021621 1_654
O12 Sb4 2.042494 1_545
O12 Rb2 3.002380 1_545
O12 Rb0 3.164912 1_554
O13 Sb5 2.029857 1_655
O13 Sb7 2.033215 1_545
O13 Rb3 2.998012 1_655
O13 Rb1 3.172501 1_555
O14 Sb6 2.029857 1_565
O14 Sb4 2.033215 1_456
O14 Rb0 2.998012 1_565
O14 Rb2 3.172501 1_556
O15 Sb5 2.021621 1_565
O15 Sb7 2.042494 1_455
O15 Rb1 3.002380 1_455
O15 Rb3 3.164912 1_555
O16 Sb4 1.965158 1_455
O16 Sb8 2.029589 1_555
O16 Rb2 3.016441 1_555
O16 Rb4 3.168685 1_565
O17 Sb5 1.969126 1_565
O17 Sb9 2.023345 1_555
O17 Rb3 3.036705 1_555
O17 Rb5 3.171295 1_455
O18 Sb6 1.969126 1_655
O18 Sb10 2.023345 1_555
O18 Rb0 3.036705 1_555
O18 Rb6 3.171295 1_545
O19 Sb7 1.965158 1_545
O19 Sb11 2.029589 1_555
O19 Rb1 3.016441 1_555
O19 Rb7 3.168685 1_655
O20 Sb4 1.965537 1_555
O20 Sb0 2.025008 1_555
O20 Rb4 3.092485 1_565
O21 Sb5 1.969659 1_555
O21 Sb1 2.017687 1_555
O21 Rb5 3.102096 1_455
O21 Rb3 3.161539 1_555
O22 Sb6 1.969659 1_555
O22 Sb2 2.017687 1_555
O22 Rb6 3.102096 1_545
O22 Rb0 3.161539 1_555
O23 Sb7 1.965537 1_555
O23 Sb3 2.025008 1_555
O23 Rb7 3.092485 1_655
O24 Ti0 1.821927 1_555
O24 Sb4 1.971843 1_545
O24 Rb8 2.995043 1_555
O25 Sb12 1.956472 1_555
O25 Sb5 2.011384 1_655
O25 Rb8 2.929787 1_555
O26 Sb13 1.956472 1_555
O26 Sb6 2.011384 1_565
O26 Rb9 2.929787 1_555
O27 Ti1 1.821927 1_555
O27 Sb7 1.971843 1_455
O27 Rb9 2.995043 1_555
O28 Sb8 1.979225 1_655
O28 Sb0 1.979814 1_555
O28 Rb5 2.698481 1_555
O29 Sb9 1.977458 1_545
O29 Sb1 1.979610 1_555
O29 Rb4 2.770998 1_555
O30 Sb10 1.977458 1_455
O30 Sb2 1.979610 1_555
O30 Rb7 2.770998 1_555
O31 Sb11 1.979225 1_565
O31 Sb3 1.979814 1_555
O31 Rb6 2.698481 1_555
O32 Sb8 1.965419 1_555
O32 Sb0 1.966888 1_555
O32 Rb2 2.657669 1_555
O33 Sb9 1.956472 1_555
O33 Sb1 1.959371 1_555
O33 Rb3 2.664193 1_555
O34 Sb10 1.956472 1_555
O34 Sb2 1.959371 1_555
O34 Rb0 2.664193 1_555
O35 Sb11 1.965419 1_555
O35 Sb3 1.966888 1_555
O35 Rb1 2.657669 1_555
O36 Sb9 1.992350 1_555
O36 Sb8 2.012245 1_555
O36 Rb8 3.103352 1_465
O36 Rb5 3.344983 1_455
O36 Rb4 3.350331 1_565
O37 Sb10 1.992350 1_555
O37 Sb11 2.012245 1_555
O37 Rb9 3.103352 1_645
O37 Rb6 3.344983 1_545
O37 Rb7 3.350331 1_655
O38 Ti0 1.818255 1_455
O38 Sb8 2.033979 1_555
O38 Rb4 3.400240 1_555
O39 Sb12 1.929938 1_565
O39 Sb9 2.106490 1_555
O39 Rb5 3.290655 1_555
O39 Rb3 3.313232 1_555
O40 Sb13 1.929938 1_655
O40 Sb10 2.106490 1_555
O40 Rb6 3.290655 1_555
O40 Rb0 3.313232 1_555
O41 Ti1 1.818255 1_545
O41 Sb11 2.033979 1_555
O41 Rb7 3.400240 1_555
O42 Sb1 2.002329 1_555
O42 Sb0 2.016886 1_555
O42 Rb8 3.134182 1_555
O42 Rb4 3.293634 1_555
O42 Rb5 3.310527 1_555
O43 Sb2 2.002329 1_555
O43 Sb3 2.016886 1_555
O43 Rb9 3.134182 1_555
O43 Rb7 3.293634 1_555
O43 Rb6 3.310527 1_555
