# generated using pymatgen
data_Cr5Te8
_symmetry_space_group_name_H-M   'P 1'
_cell_length_a   7.87640471
_cell_length_b   7.87640471
_cell_length_c   6.27071411
_cell_angle_alpha   90.00000000
_cell_angle_beta   90.00000000
_cell_angle_gamma   120.00000730
_symmetry_Int_Tables_number   1
_chemical_formula_structural   Cr5Te8
_chemical_formula_sum   'Cr5 Te8'
_cell_volume   336.90204509
_cell_formula_units_Z   1
loop_
 _symmetry_equiv_pos_site_id
 _symmetry_equiv_pos_as_xyz
  1  'x, y, z'
loop_
 _atom_site_type_symbol
 _atom_site_label
 _atom_site_symmetry_multiplicity
 _atom_site_fract_x
 _atom_site_fract_y
 _atom_site_fract_z
 _atom_site_occupancy
  Cr  Cr0  1  0.50000000  0.50000000  0.00000000  1
  Cr  Cr1  1  0.50000000  0.00000000  0.00000000  1
  Cr  Cr2  1  0.00000000  0.50000000  0.00000000  1
  Cr  Cr3  1  0.00000000  0.00000000  0.50000000  1
  Cr  Cr4  1  0.00000000  0.00000000  0.00000000  1
  Te  Te0  1  0.66666700  0.33333300  0.23807122  1
  Te  Te1  1  0.33333300  0.66666700  0.76192878  1
  Te  Te2  1  0.16701699  0.33403299  0.24587164  1
  Te  Te3  1  0.83298301  0.66596701  0.75412836  1
  Te  Te4  1  0.66596701  0.83298301  0.24587164  1
  Te  Te5  1  0.83298301  0.16701699  0.75412836  1
  Te  Te6  1  0.33403299  0.16701699  0.75412836  1
  Te  Te7  1  0.16701699  0.83298301  0.24587164  1
loop_
_geom_bond_atom_site_label_1
_geom_bond_atom_site_label_2
_geom_bond_distance
_geom_bond_site_symmetry_2
Cr0 Te1 2.720021 1_554
Cr0 Te0 2.720021 1_555
Cr0 Te4 2.745193 1_555
Cr0 Te6 2.745193 1_554
Cr0 Te3 2.745193 1_554
Cr0 Te2 2.745193 1_555
Cr1 Te1 2.720015 1_544
Cr1 Te0 2.720015 1_555
Cr1 Te5 2.745193 1_554
Cr1 Te7 2.745193 1_545
Cr1 Te4 2.745199 1_545
Cr1 Te6 2.745199 1_554
Cr2 Te0 2.720015 1_455
Cr2 Te1 2.720015 1_554
Cr2 Te5 2.745193 1_454
Cr2 Te7 2.745193 1_555
Cr2 Te3 2.745199 1_454
Cr2 Te2 2.745199 1_555
Cr3 Te2 2.780466 1_555
Cr3 Te6 2.780466 1_555
Cr3 Te4 2.780466 1_445
Cr3 Te3 2.780466 1_445
Cr3 Te7 2.780472 1_545
Cr3 Te5 2.780472 1_455
Cr4 Te6 2.751119 1_554
Cr4 Te4 2.751119 1_445
Cr4 Te3 2.751119 1_444
Cr4 Te2 2.751119 1_555
Cr4 Te5 2.751125 1_454
Cr4 Te7 2.751125 1_545
