# generated using pymatgen
data_Nb2O5
_symmetry_space_group_name_H-M   'P 1'
_cell_length_a   3.86188500
_cell_length_b   14.71473807
_cell_length_c   15.43641314
_cell_angle_alpha   73.15199910
_cell_angle_beta   82.81351527
_cell_angle_gamma   82.47339414
_symmetry_Int_Tables_number   1
_chemical_formula_structural   Nb2O5
_chemical_formula_sum   'Nb16 O40'
_cell_volume   828.79677420
_cell_formula_units_Z   8
loop_
 _symmetry_equiv_pos_site_id
 _symmetry_equiv_pos_as_xyz
  1  'x, y, z'
loop_
 _atom_site_type_symbol
 _atom_site_label
 _atom_site_symmetry_multiplicity
 _atom_site_fract_x
 _atom_site_fract_y
 _atom_site_fract_z
 _atom_site_occupancy
  Nb  Nb0  1  0.83036300  0.24707400  0.90357200  1
  Nb  Nb1  1  0.69419700  0.51187300  0.90244300  1
  Nb  Nb2  1  0.03889700  0.02300300  0.10119700  1
  Nb  Nb3  1  0.67092100  0.32896400  0.62887800  1
  Nb  Nb4  1  0.36373900  0.67209000  0.37108200  1
  Nb  Nb5  1  0.17192400  0.75351300  0.09687600  1
  Nb  Nb6  1  0.46773400  0.40899800  0.36809800  1
  Nb  Nb7  1  0.21718000  0.93991200  0.37141400  1
  Nb  Nb8  1  0.30624200  0.48834800  0.09817600  1
  Nb  Nb9  1  0.96145200  0.97800400  0.89906400  1
  Nb  Nb10  1  0.78056500  0.06097500  0.62901800  1
  Nb  Nb11  1  0.44221600  0.21661200  0.10042600  1
  Nb  Nb12  1  0.38456000  0.86213900  0.63439400  1
  Nb  Nb13  1  0.61262100  0.13862400  0.36614700  1
  Nb  Nb14  1  0.53459200  0.59216100  0.63192900  1
  Nb  Nb15  1  0.55930200  0.78359800  0.90039400  1
  O  O0  1  0.35779300  0.23252500  0.94493300  1
  O  O1  1  0.37185600  0.34407100  0.08994500  1
  O  O2  1  0.70202500  0.09206900  0.49858400  1
  O  O3  1  0.87118400  0.89744400  0.64197200  1
  O  O4  1  0.51342600  0.06051000  0.08723200  1
  O  O5  1  0.61225100  0.54890900  0.77961700  1
  O  O6  1  0.47292700  0.83428100  0.77767500  1
  O  O7  1  0.94444000  0.18621600  0.07419300  1
  O  O8  1  0.87957700  0.01796200  0.77645400  1
  O  O9  1  0.24499600  0.72936500  0.21740400  1
  O  O10  1  0.75826600  0.27178300  0.78276000  1
  O  O11  1  0.22746100  0.62636200  0.08203800  1
  O  O12  1  0.05681700  0.81441200  0.92629600  1
  O  O13  1  0.54645500  0.26527200  0.35457800  1
  O  O14  1  0.92544800  0.09066700  0.93869000  1
  O  O15  1  0.41297400  0.54151600  0.36268500  1
  O  O16  1  0.98481900  0.39570200  0.35851600  1
  O  O17  1  0.69146700  0.97916700  0.36106400  1
  O  O18  1  0.52813900  0.16525000  0.22315900  1
  O  O19  1  0.38873500  0.45126000  0.22102500  1
  O  O20  1  0.72108700  0.18315100  0.63665000  1
  O  O21  1  0.58642400  0.45957500  0.63726100  1
  O  O22  1  0.16818600  0.31444100  0.64892200  1
  O  O23  1  0.62871900  0.65595800  0.91170200  1
  O  O24  1  0.01688700  0.60491700  0.64246000  1
  O  O25  1  0.11941700  0.98415700  0.22387000  1
  O  O26  1  0.78879000  0.48601800  0.06307200  1
  O  O27  1  0.27526200  0.81812200  0.36291500  1
  O  O28  1  0.57558700  0.35847600  0.49983700  1
  O  O29  1  0.21204900  0.51386500  0.93801000  1
  O  O30  1  0.43015600  0.64293300  0.50025600  1
  O  O31  1  0.29685800  0.90814600  0.50200300  1
  O  O32  1  0.30721100  0.02135800  0.63981100  1
  O  O33  1  0.12728200  0.10314600  0.35913700  1
  O  O34  1  0.48701100  0.94047900  0.91277700  1
  O  O35  1  0.64387900  0.76837400  0.05559900  1
  O  O36  1  0.77350500  0.37402800  0.91888200  1
  O  O37  1  0.45235500  0.73543900  0.64563800  1
  O  O38  1  0.83469000  0.68579700  0.35131300  1
  O  O39  1  0.07576300  0.91032500  0.06155200  1
loop_
_geom_bond_atom_site_label_1
_geom_bond_atom_site_label_2
_geom_bond_distance
_geom_bond_site_symmetry_2
Nb0 O10 1.843348 1_555
Nb0 O0 1.875027 1_555
Nb0 O36 1.931145 1_555
Nb0 O0 2.175829 1_655
Nb0 O14 2.197897 1_555
Nb0 O7 2.598571 1_556
Nb1 O5 1.870275 1_555
Nb1 O29 1.873123 1_555
Nb1 O36 1.957230 1_555
Nb1 O29 2.145048 1_655
Nb1 O23 2.146082 1_555
Nb1 O26 2.463673 1_556
Nb2 O25 1.866170 1_545
Nb2 O39 1.910071 1_545
Nb2 O4 1.951041 1_555
Nb2 O4 2.053349 1_455
Nb2 O7 2.302805 1_455
Nb2 O14 2.487749 1_454
Nb3 O21 1.945830 1_555
Nb3 O22 1.957271 1_555
Nb3 O22 1.957571 1_655
Nb3 O28 1.982952 1_555
Nb3 O20 2.098388 1_555
Nb3 O10 2.330615 1_555
Nb4 O38 1.833915 1_555
Nb4 O15 1.946042 1_555
Nb4 O30 1.956799 1_555
Nb4 O38 2.078589 1_455
Nb4 O27 2.100353 1_555
Nb4 O9 2.357985 1_555
Nb5 O9 1.841006 1_555
Nb5 O35 1.873203 1_555
Nb5 O11 1.931340 1_555
Nb5 O35 2.177118 1_455
Nb5 O39 2.203723 1_555
Nb5 O12 2.598998 1_554
Nb6 O15 1.912072 1_555
Nb6 O16 1.928631 1_455
Nb6 O16 1.971897 1_555
Nb6 O28 2.028807 1_555
Nb6 O13 2.163396 1_555
Nb6 O19 2.222425 1_555
Nb7 O27 1.817359 1_555
Nb7 O17 1.965845 1_555
Nb7 O31 1.986969 1_555
Nb7 O17 2.049757 1_455
Nb7 O25 2.246077 1_555
Nb7 O33 2.336649 1_565
Nb8 O19 1.871139 1_555
Nb8 O26 1.873229 1_555
Nb8 O11 1.960299 1_555
Nb8 O26 2.141920 1_455
Nb8 O1 2.143560 1_555
Nb8 O29 2.457057 1_554
Nb9 O8 1.866494 1_565
Nb9 O14 1.909963 1_565
Nb9 O34 1.951164 1_555
Nb9 O34 2.053124 1_655
Nb9 O12 2.308015 1_655
Nb9 O39 2.488333 1_656
Nb10 O20 1.818379 1_555
Nb10 O32 1.963668 1_555
Nb10 O2 1.984361 1_555
Nb10 O32 2.054750 1_655
Nb10 O8 2.246283 1_555
Nb10 O3 2.338972 1_545
Nb11 O1 1.821868 1_555
Nb11 O18 1.879426 1_555
Nb11 O7 1.951162 1_555
Nb11 O7 2.141138 1_455
Nb11 O4 2.342008 1_555
Nb11 O0 2.402571 1_554
Nb12 O37 1.808431 1_555
Nb12 O3 1.980314 1_455
Nb12 O31 2.015100 1_555
Nb12 O3 2.039920 1_555
Nb12 O6 2.191565 1_555
Nb12 O32 2.347171 1_565
Nb13 O13 1.806630 1_555
Nb13 O33 1.985386 1_655
Nb13 O2 2.017598 1_555
Nb13 O33 2.034001 1_555
Nb13 O18 2.185676 1_555
Nb13 O17 2.349019 1_545
Nb14 O21 1.913597 1_555
Nb14 O24 1.927653 1_655
Nb14 O24 1.974078 1_555
Nb14 O30 2.024364 1_555
Nb14 O37 2.157999 1_555
Nb14 O5 2.229881 1_555
Nb15 O23 1.822002 1_555
Nb15 O6 1.878825 1_555
Nb15 O12 1.952334 1_555
Nb15 O12 2.140689 1_655
Nb15 O34 2.348846 1_555
Nb15 O35 2.400475 1_556
