# generated using pymatgen
data_NaLaTa2O9
_symmetry_space_group_name_H-M   'P 1'
_cell_length_a   3.95073900
_cell_length_b   3.93148200
_cell_length_c   12.94380328
_cell_angle_alpha   81.26484270
_cell_angle_beta   81.22171722
_cell_angle_gamma   90.00000000
_symmetry_Int_Tables_number   1
_chemical_formula_structural   NaLaTa2O9
_chemical_formula_sum   'Na1 La1 Ta2 O9'
_cell_volume   196.33157805
_cell_formula_units_Z   1
loop_
 _symmetry_equiv_pos_site_id
 _symmetry_equiv_pos_as_xyz
  1  'x, y, z'
loop_
 _atom_site_type_symbol
 _atom_site_label
 _atom_site_symmetry_multiplicity
 _atom_site_fract_x
 _atom_site_fract_y
 _atom_site_fract_z
 _atom_site_occupancy
  Na  Na0  1  0.24258700  0.24258700  0.51482600  1
  La  La0  1  0.99760100  0.99760100  0.00479700  1
  Ta  Ta0  1  0.40852900  0.40852900  0.18294200  1
  Ta  Ta1  1  0.58649900  0.58649900  0.82700100  1
  O  O0  1  0.49717100  0.49717100  0.00565700  1
  O  O1  1  0.33670700  0.33670700  0.32658600  1
  O  O2  1  0.65806400  0.65806400  0.68387200  1
  O  O3  1  0.57008500  0.07008500  0.85983000  1
  O  O4  1  0.06971200  0.56971200  0.86057600  1
  O  O5  1  0.42459900  0.92459900  0.15080200  1
  O  O6  1  0.92521300  0.42521300  0.14957500  1
  O  O7  1  0.29040400  0.79040400  0.41919300  1
  O  O8  1  0.70282900  0.20282900  0.59434300  1
loop_
_geom_bond_atom_site_label_1
_geom_bond_atom_site_label_2
_geom_bond_distance
_geom_bond_site_symmetry_2
Na0 O8 2.216378 1_455
Na0 O8 2.216382 1_555
Na0 O7 2.307680 1_545
Na0 O7 2.307683 1_555
Na0 O1 2.379400 1_555
La0 O4 2.680936 1_654
La0 O4 2.680939 1_664
La0 O6 2.685727 1_555
La0 O6 2.685733 1_565
La0 O3 2.694408 1_564
La0 O3 2.694411 1_664
La0 O5 2.703348 1_555
La0 O5 2.703351 1_655
La0 O0 2.786815 1_555
La0 O0 2.786815 1_565
La0 O0 2.786815 1_655
La0 O0 2.786815 1_665
O0 Ta0 2.240926 1_555
O0 Ta1 2.258256 1_554
O1 Ta0 1.815695 1_555
O2 Ta1 1.809186 1_555
O3 Ta1 2.009061 1_555
O3 Ta1 2.009065 1_545
O4 Ta1 2.020443 1_555
O4 Ta1 2.020447 1_455
O5 Ta0 2.007282 1_565
O5 Ta0 2.007282 1_555
O6 Ta0 2.019892 1_655
O6 Ta0 2.019896 1_555
