# generated using pymatgen
data_EuFeGe2O7
_symmetry_space_group_name_H-M   'P 1'
_cell_length_a   6.60572801
_cell_length_b   7.25424944
_cell_length_c   12.92032293
_cell_angle_alpha   62.72388585
_cell_angle_beta   90.00000000
_cell_angle_gamma   90.00000000
_symmetry_Int_Tables_number   1
_chemical_formula_structural   EuFeGe2O7
_chemical_formula_sum   'Eu4 Fe4 Ge8 O28'
_cell_volume   550.29386641
_cell_formula_units_Z   4
loop_
 _symmetry_equiv_pos_site_id
 _symmetry_equiv_pos_as_xyz
  1  'x, y, z'
loop_
 _atom_site_type_symbol
 _atom_site_label
 _atom_site_symmetry_multiplicity
 _atom_site_fract_x
 _atom_site_fract_y
 _atom_site_fract_z
 _atom_site_occupancy
  Eu  Eu0  1  0.35436653  0.74123037  0.52324148  1
  Eu  Eu1  1  0.64563347  0.25876963  0.47675852  1
  Eu  Eu2  1  0.85436653  0.25876963  0.97675852  1
  Eu  Eu3  1  0.14563347  0.74123037  0.02324148  1
  Fe  Fe0  1  0.39973900  0.70903944  0.26917212  1
  Fe  Fe1  1  0.60026100  0.29096056  0.73082788  1
  Fe  Fe2  1  0.89973900  0.29096056  0.23082788  1
  Fe  Fe3  1  0.10026100  0.70903944  0.76917212  1
  Ge  Ge0  1  0.65828372  0.71602783  0.04142059  1
  Ge  Ge1  1  0.34171628  0.28397217  0.95857941  1
  Ge  Ge2  1  0.15828372  0.28397217  0.45857941  1
  Ge  Ge3  1  0.84171628  0.71602783  0.54142059  1
  Ge  Ge4  1  0.91132405  0.80055485  0.27735953  1
  Ge  Ge5  1  0.08867595  0.19944515  0.72264047  1
  Ge  Ge6  1  0.41132405  0.19944515  0.22264047  1
  Ge  Ge7  1  0.58867595  0.80055485  0.77735953  1
  O  O0  1  0.37741268  0.93030427  0.30725195  1
  O  O1  1  0.62258732  0.06969573  0.69274805  1
  O  O2  1  0.87741268  0.06969573  0.19274805  1
  O  O3  1  0.12258732  0.93030427  0.80725195  1
  O  O4  1  0.82631080  0.90814382  0.02390977  1
  O  O5  1  0.17368920  0.09185618  0.97609023  1
  O  O6  1  0.32631080  0.09185618  0.47609023  1
  O  O7  1  0.67368920  0.90814382  0.52390977  1
  O  O8  1  0.61364075  0.28053881  0.27958258  1
  O  O9  1  0.38635925  0.71946119  0.72041742  1
  O  O10  1  0.11364075  0.71946119  0.22041742  1
  O  O11  1  0.88635925  0.28053881  0.77958258  1
  O  O12  1  0.99420387  0.75751646  0.41913277  1
  O  O13  1  0.00579613  0.24248354  0.58086723  1
  O  O14  1  0.49420387  0.24248354  0.08086723  1
  O  O15  1  0.50579613  0.75751646  0.91913277  1
  O  O16  1  0.44849543  0.70274803  0.12663592  1
  O  O17  1  0.55150457  0.29725197  0.87336408  1
  O  O18  1  0.94849543  0.29725197  0.37336408  1
  O  O19  1  0.05150457  0.70274803  0.62663592  1
  O  O20  1  0.83420420  0.50982340  0.07585293  1
  O  O21  1  0.16579580  0.49017660  0.92414707  1
  O  O22  1  0.33420420  0.49017660  0.42414707  1
  O  O23  1  0.66579580  0.50982340  0.57585293  1
  O  O24  1  0.68599436  0.65743325  0.30826800  1
  O  O25  1  0.31400564  0.34256675  0.69173200  1
  O  O26  1  0.18599436  0.34256675  0.19173200  1
  O  O27  1  0.81400564  0.65743325  0.80826800  1
loop_
_geom_bond_atom_site_label_1
_geom_bond_atom_site_label_2
_geom_bond_distance
_geom_bond_site_symmetry_2
Eu0 O6 2.335545 1_565
Eu0 O19 2.350153 1_555
Eu0 O7 2.434166 1_555
Eu0 O0 2.486753 1_555
Eu0 O9 2.488173 1_555
Eu0 O23 2.542894 1_555
Eu0 O22 2.666639 1_555
Eu0 O12 2.708862 1_455
Eu0 O25 2.720932 1_555
Eu1 O7 2.335545 1_545
Eu1 O18 2.350153 1_555
Eu1 O6 2.434166 1_555
Eu1 O1 2.486753 1_555
Eu1 O8 2.488173 1_555
Eu1 O22 2.542894 1_555
Eu1 O23 2.666639 1_555
Eu1 O13 2.708862 1_655
Eu1 O24 2.720932 1_555
Eu2 O4 2.335545 1_546
Eu2 O17 2.350153 1_555
Eu2 O5 2.434166 1_655
Eu2 O2 2.486753 1_556
Eu2 O11 2.488173 1_555
Eu2 O21 2.542894 1_655
Eu2 O20 2.666639 1_556
Eu2 O14 2.708862 1_556
Eu2 O27 2.720932 1_555
Eu3 O5 2.335545 1_564
Eu3 O16 2.350153 1_555
Eu3 O4 2.434166 1_455
Eu3 O3 2.486753 1_554
Eu3 O10 2.488173 1_555
Eu3 O20 2.542894 1_455
Eu3 O21 2.666639 1_554
Eu3 O15 2.708862 1_554
Eu3 O26 2.720932 1_555
Fe0 O0 1.887862 1_555
Fe0 O16 1.890606 1_555
Fe0 O24 1.948738 1_555
Fe0 O22 1.950299 1_555
Fe0 O10 1.982561 1_555
Fe1 O1 1.887862 1_555
Fe1 O17 1.890606 1_555
Fe1 O25 1.948738 1_555
Fe1 O23 1.950299 1_555
Fe1 O11 1.982561 1_555
Fe2 O2 1.887862 1_555
Fe2 O18 1.890606 1_555
Fe2 O26 1.948738 1_655
Fe2 O20 1.950299 1_555
Fe2 O8 1.982561 1_555
Fe3 O3 1.887862 1_555
Fe3 O19 1.890606 1_555
Fe3 O27 1.948738 1_455
Fe3 O21 1.950299 1_555
Fe3 O9 1.982561 1_555
Ge0 O4 1.713604 1_555
Ge0 O16 1.744919 1_555
Ge0 O15 1.779259 1_554
Ge0 O20 1.782133 1_555
Ge1 O5 1.713604 1_555
Ge1 O17 1.744919 1_555
Ge1 O14 1.779259 1_556
Ge1 O21 1.782133 1_555
Ge2 O6 1.713604 1_555
Ge2 O18 1.744919 1_455
Ge2 O13 1.779259 1_555
Ge2 O22 1.782133 1_555
Ge3 O7 1.713604 1_555
Ge3 O19 1.744919 1_655
Ge3 O12 1.779259 1_555
Ge3 O23 1.782133 1_555
Ge4 O10 1.752175 1_655
Ge4 O24 1.752978 1_555
Ge4 O2 1.760940 1_565
Ge4 O12 1.796766 1_555
Ge5 O11 1.752175 1_455
Ge5 O25 1.752978 1_555
Ge5 O3 1.760940 1_545
Ge5 O13 1.796766 1_555
Ge6 O8 1.752175 1_555
Ge6 O26 1.752978 1_555
Ge6 O0 1.760940 1_545
Ge6 O14 1.796766 1_555
Ge7 O9 1.752175 1_555
Ge7 O27 1.752978 1_555
Ge7 O1 1.760940 1_565
Ge7 O15 1.796766 1_555
