# generated using pymatgen
data_Mg4Si7
_symmetry_space_group_name_H-M   'P 1'
_cell_length_a   14.74353194
_cell_length_b   3.94625211
_cell_length_c   7.09049546
_cell_angle_alpha   89.99497042
_cell_angle_beta   101.64484057
_cell_angle_gamma   89.99859988
_symmetry_Int_Tables_number   1
_chemical_formula_structural   Mg4Si7
_chemical_formula_sum   'Mg8 Si14'
_cell_volume   404.04602600
_cell_formula_units_Z   2
loop_
 _symmetry_equiv_pos_site_id
 _symmetry_equiv_pos_as_xyz
  1  'x, y, z'
loop_
 _atom_site_type_symbol
 _atom_site_label
 _atom_site_symmetry_multiplicity
 _atom_site_fract_x
 _atom_site_fract_y
 _atom_site_fract_z
 _atom_site_occupancy
  Mg  Mg0  1  0.92855200  0.72793500  0.72442900  1
  Mg  Mg1  1  0.51107300  0.72728300  0.15178800  1
  Mg  Mg2  1  0.34335000  0.22717600  0.23788900  1
  Mg  Mg3  1  0.65570300  0.22753500  0.03859900  1
  Mg  Mg4  1  0.84427600  0.72799700  0.11154900  1
  Mg  Mg5  1  0.09611200  0.22768300  0.78110900  1
  Mg  Mg6  1  0.42761600  0.22732900  0.80075200  1
  Mg  Mg7  1  0.57425600  0.22741200  0.48749800  1
  Si  Si0  1  0.95561200  0.22797300  0.34353200  1
  Si  Si1  1  0.96351400  0.22785700  0.00449300  1
  Si  Si2  1  0.04750600  0.72783400  0.47408500  1
  Si  Si3  1  0.13844300  0.22747700  0.18662800  1
  Si  Si4  1  0.55519000  0.72764900  0.78880700  1
  Si  Si5  1  0.43917100  0.72751900  0.48891300  1
  Si  Si6  1  0.19049100  0.72728100  0.03847100  1
  Si  Si7  1  0.79658700  0.22794700  0.79543100  1
  Si  Si8  1  0.70142800  0.72768900  0.34884400  1
  Si  Si9  1  0.19887100  0.22745700  0.52003600  1
  Si  Si10  1  0.33508100  0.72742000  0.94812100  1
  Si  Si11  1  0.80474200  0.22761400  0.43047900  1
  Si  Si12  1  0.70099800  0.72773800  0.70055100  1
  Si  Si13  1  0.29501600  0.72745700  0.59796700  1
loop_
_geom_bond_atom_site_label_1
_geom_bond_atom_site_label_2
_geom_bond_distance
_geom_bond_site_symmetry_2
Mg0 Si2 2.735580 1_655
Mg0 Si1 2.772834 1_566
Mg0 Si1 2.773006 1_556
Mg0 Si7 2.885723 1_555
Mg0 Si7 2.885783 1_565
Mg0 Si11 3.166645 1_565
Mg0 Si11 3.168506 1_555
Mg1 Si10 2.702863 1_554
Mg1 Si4 2.779007 1_554
Mg1 Si5 2.803690 1_555
Mg1 Si8 2.871536 1_555
Mg2 Si10 2.832891 1_544
Mg2 Si10 2.833977 1_554
Mg2 Si5 2.834762 1_545
Mg2 Si5 2.836911 1_555
Mg2 Si3 2.969107 1_555
Mg2 Si6 3.111958 1_545
Mg2 Si6 3.112256 1_555
Mg3 Si4 2.857568 1_544
Mg3 Si4 2.857924 1_554
Mg3 Si8 2.929999 1_545
Mg3 Si8 2.931099 1_555
Mg3 Si7 2.955167 1_554
Mg3 Si11 3.175589 1_555
Mg4 Si1 2.845415 1_565
Mg4 Si1 2.846214 1_555
Mg4 Si0 2.864085 1_555
Mg4 Si0 2.864209 1_565
Mg4 Si8 2.949073 1_555
Mg4 Si7 2.962057 1_564
Mg4 Si7 2.962605 1_554
Mg4 Si11 3.142233 1_565
Mg4 Si11 3.143899 1_555
Mg5 Si9 2.618050 1_555
Mg5 Si1 2.753296 1_456
Mg5 Si3 2.816489 1_556
Mg5 Si6 2.851120 1_556
Mg5 Si6 2.853046 1_546
Mg5 Si2 2.917977 1_545
Mg5 Si2 2.918501 1_555
Mg6 Si10 2.724008 1_545
Mg6 Si10 2.724613 1_555
Mg6 Si4 2.738125 1_545
Mg6 Si4 2.740000 1_555
Mg6 Si13 2.940503 1_545
Mg6 Si13 2.940947 1_555
Mg6 Si5 2.993499 1_545
Mg6 Si5 2.994237 1_555
Mg7 Si5 2.804729 1_545
Mg7 Si5 2.805256 1_555
Mg7 Si12 2.919199 1_545
Mg7 Si12 2.921179 1_555
Mg7 Si4 2.962197 1_545
Mg7 Si4 2.963683 1_555
Mg7 Si8 3.019144 1_545
Mg7 Si8 3.020520 1_555
Si0 Si11 2.425163 1_555
Si0 Si1 2.430150 1_555
Si0 Si2 2.465302 1_655
Si0 Si2 2.465997 1_645
Si1 Si7 2.604153 1_554
Si1 Si3 2.640991 1_655
Si3 Si9 2.352049 1_555
Si3 Si6 2.430583 1_555
Si3 Si6 2.431958 1_545
Si4 Si5 2.445231 1_555
Si10 Si6 2.346516 1_556
Si10 Si13 2.433313 1_555
Si11 Si8 2.488314 1_545
Si11 Si8 2.488643 1_555
Si11 Si7 2.614613 1_555
Si12 Si4 2.357113 1_555
Si12 Si7 2.438366 1_555
Si12 Si7 2.439852 1_565
Si12 Si8 2.495064 1_555
Si13 Si5 2.403845 1_555
Si13 Si9 2.427218 1_565
Si13 Si9 2.427353 1_555
