# generated using pymatgen
data_CaFeBP2(HO5)2
_symmetry_space_group_name_H-M   'P 1'
_cell_length_a   6.64857350
_cell_length_b   6.64857350
_cell_length_c   9.27647294
_cell_angle_alpha   69.20853562
_cell_angle_beta   69.20853562
_cell_angle_gamma   77.78105373
_symmetry_Int_Tables_number   1
_chemical_formula_structural   CaFeBP2(HO5)2
_chemical_formula_sum   'Ca2 Fe2 B2 P4 H4 O20'
_cell_volume   356.66046064
_cell_formula_units_Z   2
loop_
 _symmetry_equiv_pos_site_id
 _symmetry_equiv_pos_as_xyz
  1  'x, y, z'
loop_
 _atom_site_type_symbol
 _atom_site_label
 _atom_site_symmetry_multiplicity
 _atom_site_fract_x
 _atom_site_fract_y
 _atom_site_fract_z
 _atom_site_occupancy
  Ca  Ca0  1  0.14901300  0.85098700  0.25000000  1
  Ca  Ca1  1  0.85098700  0.14901300  0.75000000  1
  Fe  Fe0  1  0.00000000  0.50000000  0.00000000  1
  Fe  Fe1  1  0.50000000  0.00000000  0.50000000  1
  B  B0  1  0.52644500  0.47355500  0.25000000  1
  B  B1  1  0.47355500  0.52644500  0.75000000  1
  P  P0  1  0.14901300  0.27900000  0.32585700  1
  P  P1  1  0.72100000  0.85098700  0.17414300  1
  P  P2  1  0.85098700  0.72100000  0.67414300  1
  P  P3  1  0.27900000  0.14901300  0.82585700  1
  H  H0  1  0.66707600  0.29251100  0.08767700  1
  H  H1  1  0.70748900  0.33292400  0.41232300  1
  H  H2  1  0.33292400  0.70748900  0.91232300  1
  H  H3  1  0.29251100  0.66707600  0.58767700  1
  O  O0  1  0.05125600  0.68340700  0.53890400  1
  O  O1  1  0.31659300  0.94874400  0.96109600  1
  O  O2  1  0.94874400  0.31659300  0.46109600  1
  O  O3  1  0.68340700  0.05125600  0.03890400  1
  O  O4  1  0.08852300  0.26021900  0.18465800  1
  O  O5  1  0.73978100  0.91147700  0.31534200  1
  O  O6  1  0.91147700  0.73978100  0.81534200  1
  O  O7  1  0.26021900  0.08852300  0.68465800  1
  O  O8  1  0.93497900  0.70825400  0.12285300  1
  O  O9  1  0.29174600  0.06502100  0.37714700  1
  O  O10  1  0.06502100  0.29174600  0.87714700  1
  O  O11  1  0.70825400  0.93497900  0.62285300  1
  O  O12  1  0.29740400  0.47116300  0.26056900  1
  O  O13  1  0.52883700  0.70259600  0.23943100  1
  O  O14  1  0.70259600  0.52883700  0.73943100  1
  O  O15  1  0.47116300  0.29740400  0.76056900  1
  O  O16  1  0.68091400  0.43048400  0.10204300  1
  O  O17  1  0.56951600  0.31908600  0.39795700  1
  O  O18  1  0.31908600  0.56951600  0.89795700  1
  O  O19  1  0.43048400  0.68091400  0.60204300  1
loop_
_geom_bond_atom_site_label_1
_geom_bond_atom_site_label_2
_geom_bond_distance
_geom_bond_site_symmetry_2
Ca0 O0 2.407555 1_555
Ca0 O1 2.407555 1_554
Ca0 O12 2.489646 1_555
Ca0 O13 2.489646 1_555
Ca0 O5 2.543817 1_455
Ca0 O4 2.543817 1_565
Ca0 O9 2.621928 1_565
Ca0 O8 2.621928 1_455
Ca1 O3 2.407555 1_556
Ca1 O2 2.407555 1_555
Ca1 O15 2.489646 1_555
Ca1 O14 2.489646 1_555
Ca1 O6 2.543817 1_545
Ca1 O7 2.543817 1_655
Ca1 O11 2.621928 1_545
Ca1 O10 2.621928 1_655
Fe0 O8 1.979866 1_455
Fe0 O10 1.979866 1_554
Fe0 O4 2.049882 1_555
Fe0 O6 2.049882 1_454
Fe0 O18 2.071003 1_554
Fe0 O16 2.071003 1_455
Fe1 O11 1.979866 1_545
Fe1 O9 1.979866 1_555
Fe1 O7 2.049882 1_555
Fe1 O5 2.049882 1_545
Fe1 O17 2.071003 1_555
Fe1 O19 2.071003 1_545
B0 O16 1.474575 1_555
B0 O17 1.474575 1_555
B0 O12 1.493963 1_555
B0 O13 1.493963 1_555
B1 O19 1.474575 1_555
B1 O18 1.474575 1_555
B1 O15 1.493963 1_555
B1 O14 1.493963 1_555
H0 O16 0.999462 1_555
H1 O17 0.999462 1_555
H2 O18 0.999462 1_555
H3 O19 0.999462 1_555
O0 P2 1.518251 1_455
O1 P3 1.518251 1_565
O2 P0 1.518251 1_655
O3 P1 1.518251 1_545
O4 P0 1.550591 1_555
O5 P1 1.550591 1_555
O6 P2 1.550591 1_555
O7 P3 1.550591 1_555
O8 P1 1.555440 1_555
O9 P0 1.555440 1_555
O10 P3 1.555440 1_555
O11 P2 1.555440 1_555
O12 P0 1.591374 1_555
O13 P1 1.591374 1_555
O14 P2 1.591374 1_555
O15 P3 1.591374 1_555
