# generated using pymatgen
data_ErB4Rh7
_symmetry_space_group_name_H-M   'P 1'
_cell_length_a   5.82174800
_cell_length_b   11.09450820
_cell_length_c   19.24316944
_cell_angle_alpha   89.99999812
_cell_angle_beta   90.00000000
_cell_angle_gamma   90.00000000
_symmetry_Int_Tables_number   1
_chemical_formula_structural   ErB4Rh7
_chemical_formula_sum   'Er8 B32 Rh56'
_cell_volume   1242.90536317
_cell_formula_units_Z   8
loop_
 _symmetry_equiv_pos_site_id
 _symmetry_equiv_pos_as_xyz
  1  'x, y, z'
loop_
 _atom_site_type_symbol
 _atom_site_label
 _atom_site_symmetry_multiplicity
 _atom_site_fract_x
 _atom_site_fract_y
 _atom_site_fract_z
 _atom_site_occupancy
  Er  Er0_0  1  0.00000000  0.49998150  0.00000000  1
  Er  Er0_1  1  0.00000000  0.49998150  0.50000000  1
  Er  Er0_2  1  0.00000000  0.99998150  1.00000000  1
  Er  Er0_3  1  0.00000000  0.99998150  0.50000000  1
  Er  Er0_4  1  0.50000000  0.49998150  0.00000000  1
  Er  Er0_5  1  0.50000000  0.49998150  0.50000000  1
  Er  Er0_6  1  0.50000000  0.99998150  1.00000000  1
  Er  Er0_7  1  0.50000000  0.99998150  0.50000000  1
  B  B0_0  1  0.00000000  0.49985100  0.16700200  1
  B  B0_1  1  0.00000000  0.49985100  0.66700200  1
  B  B0_2  1  0.00000000  0.99985100  0.16700200  1
  B  B0_3  1  0.00000000  0.99985100  0.66700200  1
  B  B0_4  1  0.50000000  0.49985100  0.16700200  1
  B  B0_5  1  0.50000000  0.49985100  0.66700200  1
  B  B0_6  1  0.50000000  0.99985100  0.16700200  1
  B  B0_7  1  0.50000000  0.99985100  0.66700200  1
  B  B1_0  1  0.00000000  0.25017200  0.41644550  1
  B  B1_1  1  0.00000000  0.25017200  0.91644550  1
  B  B1_2  1  0.00000000  0.75017200  0.41644550  1
  B  B1_3  1  0.00000000  0.75017200  0.91644550  1
  B  B1_4  1  0.50000000  0.25017200  0.41644550  1
  B  B1_5  1  0.50000000  0.25017200  0.91644550  1
  B  B1_6  1  0.50000000  0.75017200  0.41644550  1
  B  B1_7  1  0.50000000  0.75017200  0.91644550  1
  B  B2_0  1  0.00000000  0.25017200  0.08355450  1
  B  B2_1  1  0.00000000  0.25017200  0.58355450  1
  B  B2_2  1  0.00000000  0.75017200  0.08355450  1
  B  B2_3  1  0.00000000  0.75017200  0.58355450  1
  B  B2_4  1  0.50000000  0.25017200  0.08355450  1
  B  B2_5  1  0.50000000  0.25017200  0.58355450  1
  B  B2_6  1  0.50000000  0.75017200  0.08355450  1
  B  B2_7  1  0.50000000  0.75017200  0.58355450  1
  B  B3_0  1  0.00000000  0.49985100  0.33299800  1
  B  B3_1  1  0.00000000  0.49985100  0.83299800  1
  B  B3_2  1  0.00000000  0.99985100  0.33299800  1
  B  B3_3  1  0.00000000  0.99985100  0.83299800  1
  B  B3_4  1  0.50000000  0.49985100  0.33299800  1
  B  B3_5  1  0.50000000  0.49985100  0.83299800  1
  B  B3_6  1  0.50000000  0.99985100  0.33299800  1
  B  B3_7  1  0.50000000  0.99985100  0.83299800  1
  Rh  Rh0_0  1  0.25000000  0.00288650  0.25000000  1
  Rh  Rh0_1  1  0.25000000  0.00288650  0.75000000  1
  Rh  Rh0_2  1  0.25000000  0.50288650  0.25000000  1
  Rh  Rh0_3  1  0.25000000  0.50288650  0.75000000  1
  Rh  Rh0_4  1  0.75000000  0.00288650  0.25000000  1
  Rh  Rh0_5  1  0.75000000  0.00288650  0.75000000  1
  Rh  Rh0_6  1  0.75000000  0.50288650  0.25000000  1
  Rh  Rh0_7  1  0.75000000  0.50288650  0.75000000  1
  Rh  Rh1_0  1  0.25000000  0.25184300  0.00000000  1
  Rh  Rh1_1  1  0.25000000  0.25184300  0.50000000  1
  Rh  Rh1_2  1  0.25000000  0.75184300  0.00000000  1
  Rh  Rh1_3  1  0.25000000  0.75184300  0.50000000  1
  Rh  Rh1_4  1  0.75000000  0.25184300  0.00000000  1
  Rh  Rh1_5  1  0.75000000  0.25184300  0.50000000  1
  Rh  Rh1_6  1  0.75000000  0.75184300  0.00000000  1
  Rh  Rh1_7  1  0.75000000  0.75184300  0.50000000  1
  Rh  Rh2_0  1  0.25000000  0.12386700  0.12416700  1
  Rh  Rh2_1  1  0.25000000  0.12386700  0.62416700  1
  Rh  Rh2_2  1  0.25000000  0.62386700  0.12416700  1
  Rh  Rh2_3  1  0.25000000  0.62386700  0.62416700  1
  Rh  Rh2_4  1  0.75000000  0.12386700  0.12416700  1
  Rh  Rh2_5  1  0.75000000  0.12386700  0.62416700  1
  Rh  Rh2_6  1  0.75000000  0.62386700  0.12416700  1
  Rh  Rh2_7  1  0.75000000  0.62386700  0.62416700  1
  Rh  Rh3_0  1  0.25000000  0.37364100  0.37350750  1
  Rh  Rh3_1  1  0.25000000  0.37364100  0.87350750  1
  Rh  Rh3_2  1  0.25000000  0.87364100  0.37350750  1
  Rh  Rh3_3  1  0.25000000  0.87364100  0.87350750  1
  Rh  Rh3_4  1  0.75000000  0.37364100  0.37350750  1
  Rh  Rh3_5  1  0.75000000  0.37364100  0.87350750  1
  Rh  Rh3_6  1  0.75000000  0.87364100  0.37350750  1
  Rh  Rh3_7  1  0.75000000  0.87364100  0.87350750  1
  Rh  Rh4_0  1  0.25000000  0.37364100  0.12649250  1
  Rh  Rh4_1  1  0.25000000  0.37364100  0.62649250  1
  Rh  Rh4_2  1  0.25000000  0.87364100  0.12649250  1
  Rh  Rh4_3  1  0.25000000  0.87364100  0.62649250  1
  Rh  Rh4_4  1  0.75000000  0.37364100  0.12649250  1
  Rh  Rh4_5  1  0.75000000  0.37364100  0.62649250  1
  Rh  Rh4_6  1  0.75000000  0.87364100  0.12649250  1
  Rh  Rh4_7  1  0.75000000  0.87364100  0.62649250  1
  Rh  Rh5_0  1  0.25000000  0.12386700  0.37583350  1
  Rh  Rh5_1  1  0.25000000  0.12386700  0.87583350  1
  Rh  Rh5_2  1  0.25000000  0.62386700  0.37583350  1
  Rh  Rh5_3  1  0.25000000  0.62386700  0.87583350  1
  Rh  Rh5_4  1  0.75000000  0.12386700  0.37583350  1
  Rh  Rh5_5  1  0.75000000  0.12386700  0.87583350  1
  Rh  Rh5_6  1  0.75000000  0.62386700  0.37583350  1
  Rh  Rh5_7  1  0.75000000  0.62386700  0.87583350  1
  Rh  Rh6_0  1  0.00000000  0.25012600  0.25000000  1
  Rh  Rh6_1  1  0.00000000  0.25012600  0.75000000  1
  Rh  Rh6_2  1  0.00000000  0.75012600  0.25000000  1
  Rh  Rh6_3  1  0.00000000  0.75012600  0.75000000  1
  Rh  Rh6_4  1  0.50000000  0.25012600  0.25000000  1
  Rh  Rh6_5  1  0.50000000  0.25012600  0.75000000  1
  Rh  Rh6_6  1  0.50000000  0.75012600  0.25000000  1
  Rh  Rh6_7  1  0.50000000  0.75012600  0.75000000  1
loop_
_geom_bond_atom_site_label_1
_geom_bond_atom_site_label_2
_geom_bond_distance
_geom_bond_site_symmetry_2
Er0_0 Er0_4 2.910874 1_555
Er0_0 Er0_4 2.910874 1_455
Er0_0 Rh1_0 3.114027 1_555
Er0_0 Rh1_4 3.114027 1_455
Er0_0 Rh5_3 3.117119 1_554
Er0_0 Rh5_7 3.117119 1_454
Er0_0 Rh2_2 3.117127 1_555
Er0_0 Rh2_6 3.117127 1_455
Er0_0 Rh1_6 3.150602 1_455
Er0_0 Rh1_2 3.150602 1_555
Er0_0 Rh4_4 3.163533 1_455
Er0_0 Rh4_0 3.163533 1_555
Er0_0 Rh3_1 3.163533 1_554
Er0_0 Rh3_5 3.163533 1_454
Er0_1 Er0_5 2.910874 1_455
Er0_1 Er0_5 2.910874 1_555
Er0_1 Rh1_1 3.114027 1_555
Er0_1 Rh1_5 3.114027 1_455
Er0_1 Rh5_2 3.117119 1_555
Er0_1 Rh5_6 3.117119 1_455
Er0_1 Rh2_3 3.117127 1_555
Er0_1 Rh2_7 3.117127 1_455
Er0_1 Rh1_3 3.150602 1_555
Er0_1 Rh1_7 3.150602 1_455
Er0_1 Rh4_1 3.163533 1_555
Er0_1 Rh4_5 3.163533 1_455
Er0_1 Rh3_4 3.163533 1_455
Er0_1 Rh3_0 3.163533 1_555
Er0_2 Er0_6 2.910874 1_455
Er0_2 Er0_6 2.910874 1_555
Er0_2 Rh1_2 3.114027 1_556
Er0_2 Rh1_6 3.114027 1_456
Er0_2 Rh5_5 3.117119 1_465
Er0_2 Rh5_1 3.117119 1_565
Er0_2 Rh2_0 3.117127 1_566
Er0_2 Rh2_4 3.117127 1_466
Er0_2 Rh1_0 3.150602 1_566
Er0_2 Rh1_4 3.150602 1_466
Er0_2 Rh4_2 3.163533 1_556
Er0_2 Rh4_6 3.163533 1_456
Er0_2 Rh3_3 3.163533 1_555
Er0_2 Rh3_7 3.163533 1_455
Er0_3 Er0_7 2.910874 1_455
Er0_3 Er0_7 2.910874 1_555
Er0_3 Rh1_7 3.114027 1_455
Er0_3 Rh1_3 3.114027 1_555
Er0_3 Rh5_4 3.117119 1_465
Er0_3 Rh5_0 3.117119 1_565
Er0_3 Rh2_1 3.117127 1_565
Er0_3 Rh2_5 3.117127 1_465
Er0_3 Rh1_1 3.150602 1_565
Er0_3 Rh1_5 3.150602 1_465
Er0_3 Rh4_3 3.163533 1_555
Er0_3 Rh4_7 3.163533 1_455
Er0_3 Rh3_2 3.163533 1_555
Er0_3 Rh3_6 3.163533 1_455
Er0_4 Rh1_4 3.114027 1_555
Er0_4 Rh1_0 3.114027 1_555
Er0_4 Rh5_7 3.117119 1_554
Er0_4 Rh5_3 3.117119 1_554
Er0_4 Rh2_6 3.117127 1_555
Er0_4 Rh2_2 3.117127 1_555
Er0_4 Rh1_6 3.150602 1_555
Er0_4 Rh1_2 3.150602 1_555
Er0_4 Rh4_4 3.163533 1_555
Er0_4 Rh4_0 3.163533 1_555
Er0_4 Rh3_5 3.163533 1_554
Er0_4 Rh3_1 3.163533 1_554
Er0_5 Rh1_5 3.114027 1_555
Er0_5 Rh1_1 3.114027 1_555
Er0_5 Rh5_6 3.117119 1_555
Er0_5 Rh5_2 3.117119 1_555
Er0_5 Rh2_7 3.117127 1_555
Er0_5 Rh2_3 3.117127 1_555
Er0_5 Rh1_7 3.150602 1_555
Er0_5 Rh1_3 3.150602 1_555
Er0_5 Rh4_1 3.163533 1_555
Er0_5 Rh4_5 3.163533 1_555
Er0_5 Rh3_4 3.163533 1_555
Er0_5 Rh3_0 3.163533 1_555
Er0_6 Rh1_6 3.114027 1_556
Er0_6 Rh1_2 3.114027 1_556
Er0_6 Rh5_5 3.117119 1_565
Er0_6 Rh5_1 3.117119 1_565
Er0_6 Rh2_4 3.117127 1_566
Er0_6 Rh2_0 3.117127 1_566
Er0_6 Rh1_4 3.150602 1_566
Er0_6 Rh1_0 3.150602 1_566
Er0_6 Rh4_6 3.163533 1_556
Er0_6 Rh4_2 3.163533 1_556
Er0_6 Rh3_7 3.163533 1_555
Er0_6 Rh3_3 3.163533 1_555
Er0_7 Rh1_7 3.114027 1_555
Er0_7 Rh1_3 3.114027 1_555
Er0_7 Rh5_4 3.117119 1_565
Er0_7 Rh5_0 3.117119 1_565
Er0_7 Rh2_1 3.117127 1_565
Er0_7 Rh2_5 3.117127 1_565
Er0_7 Rh1_5 3.150602 1_565
Er0_7 Rh1_1 3.150602 1_565
Er0_7 Rh4_7 3.163533 1_555
Er0_7 Rh4_3 3.163533 1_555
Er0_7 Rh3_6 3.163533 1_555
Er0_7 Rh3_2 3.163533 1_555
B0_0 Rh0_2 2.161088 1_555
B0_0 Rh0_6 2.161088 1_455
B0_0 Rh4_0 2.164863 1_555
B0_0 Rh4_4 2.164863 1_455
B0_0 Rh2_2 2.165832 1_555
B0_0 Rh2_6 2.165832 1_455
B0_0 Er0_0 3.213648 1_555
B0_1 Rh0_3 2.161088 1_555
B0_1 Rh0_7 2.161088 1_455
B0_1 Rh4_1 2.164863 1_555
B0_1 Rh4_5 2.164863 1_455
B0_1 Rh2_3 2.165832 1_555
B0_1 Rh2_7 2.165832 1_455
B0_1 Er0_1 3.213648 1_555
B0_2 Rh0_0 2.161088 1_565
B0_2 Rh0_4 2.161088 1_465
B0_2 Rh4_2 2.164863 1_555
B0_2 Rh4_6 2.164863 1_455
B0_2 Rh2_0 2.165832 1_565
B0_2 Rh2_4 2.165832 1_465
B0_2 Er0_2 3.213648 1_554
B0_3 Rh0_1 2.161088 1_565
B0_3 Rh0_5 2.161088 1_465
B0_3 Rh4_3 2.164863 1_555
B0_3 Rh4_7 2.164863 1_455
B0_3 Rh2_1 2.165832 1_565
B0_3 Rh2_5 2.165832 1_465
B0_3 Er0_3 3.213648 1_555
B0_4 Rh0_6 2.161088 1_555
B0_4 Rh0_2 2.161088 1_555
B0_4 Rh4_4 2.164863 1_555
B0_4 Rh4_0 2.164863 1_555
B0_4 Rh2_6 2.165832 1_555
B0_4 Rh2_2 2.165832 1_555
B0_4 Er0_4 3.213648 1_555
B0_5 Rh0_7 2.161088 1_555
B0_5 Rh0_3 2.161088 1_555
B0_5 Rh4_5 2.164863 1_555
B0_5 Rh4_1 2.164863 1_555
B0_5 Rh2_7 2.165832 1_555
B0_5 Rh2_3 2.165832 1_555
B0_5 Er0_5 3.213648 1_555
B0_6 Rh0_4 2.161088 1_565
B0_6 Rh0_0 2.161088 1_565
B0_6 Rh4_6 2.164863 1_555
B0_6 Rh4_2 2.164863 1_555
B0_6 Rh2_4 2.165832 1_565
B0_6 Rh2_0 2.165832 1_565
B0_6 Er0_6 3.213648 1_554
B0_7 Rh0_5 2.161088 1_565
B0_7 Rh0_1 2.161088 1_565
B0_7 Rh4_7 2.164863 1_555
B0_7 Rh4_3 2.164863 1_555
B0_7 Rh2_5 2.165832 1_565
B0_7 Rh2_1 2.165832 1_565
B0_7 Er0_7 3.213648 1_555
B1_0 Rh3_0 2.162738 1_555
B1_0 Rh3_4 2.162738 1_455
B1_0 Rh5_0 2.166256 1_555
B1_0 Rh5_4 2.166256 1_455
B1_0 Rh1_1 2.168832 1_555
B1_0 Rh1_5 2.168832 1_455
B1_0 Er0_1 3.204135 1_555
B1_0 Er0_3 3.207792 1_545
B1_1 Rh3_1 2.162738 1_555
B1_1 Rh3_5 2.162738 1_455
B1_1 Rh5_1 2.166256 1_555
B1_1 Rh5_5 2.166256 1_455
B1_1 Rh1_0 2.168832 1_556
B1_1 Rh1_4 2.168832 1_456
B1_1 Er0_0 3.204135 1_556
B1_1 Er0_2 3.207792 1_545
B1_2 Rh3_2 2.162738 1_555
B1_2 Rh3_6 2.162738 1_455
B1_2 Rh5_2 2.166256 1_555
B1_2 Rh5_6 2.166256 1_455
B1_2 Rh1_3 2.168832 1_555
B1_2 Rh1_7 2.168832 1_455
B1_2 Er0_3 3.204135 1_555
B1_2 Er0_1 3.207792 1_555
B1_3 Rh3_3 2.162738 1_555
B1_3 Rh3_7 2.162738 1_455
B1_3 Rh5_3 2.166256 1_555
B1_3 Rh5_7 2.166256 1_455
B1_3 Rh1_2 2.168832 1_556
B1_3 Rh1_6 2.168832 1_456
B1_3 Er0_2 3.204135 1_555
B1_3 Er0_0 3.207792 1_556
B1_4 Rh3_4 2.162738 1_555
B1_4 Rh3_0 2.162738 1_555
B1_4 Rh5_4 2.166256 1_555
B1_4 Rh5_0 2.166256 1_555
B1_4 Rh1_5 2.168832 1_555
B1_4 Rh1_1 2.168832 1_555
B1_4 Er0_5 3.204135 1_555
B1_4 Er0_7 3.207792 1_545
B1_5 Rh3_5 2.162738 1_555
B1_5 Rh3_1 2.162738 1_555
B1_5 Rh5_5 2.166256 1_555
B1_5 Rh5_1 2.166256 1_555
B1_5 Rh1_4 2.168832 1_556
B1_5 Rh1_0 2.168832 1_556
B1_5 Er0_4 3.204135 1_556
B1_5 Er0_6 3.207792 1_545
B1_6 Rh3_6 2.162738 1_555
B1_6 Rh3_2 2.162738 1_555
B1_6 Rh5_6 2.166256 1_555
B1_6 Rh5_2 2.166256 1_555
B1_6 Rh1_7 2.168832 1_555
B1_6 Rh1_3 2.168832 1_555
B1_6 Er0_7 3.204135 1_555
B1_6 Er0_5 3.207792 1_555
B1_7 Rh3_7 2.162738 1_555
B1_7 Rh3_3 2.162738 1_555
B1_7 Rh5_7 2.166256 1_555
B1_7 Rh5_3 2.166256 1_555
B1_7 Rh1_6 2.168832 1_556
B1_7 Rh1_2 2.168832 1_556
B1_7 Er0_6 3.204135 1_555
B1_7 Er0_4 3.207792 1_556
B2_0 Rh4_0 2.162738 1_555
B2_0 Rh4_4 2.162738 1_455
B2_0 Rh2_0 2.166259 1_555
B2_0 Rh2_4 2.166259 1_455
B2_0 Rh1_0 2.168832 1_555
B2_0 Rh1_4 2.168832 1_455
B2_0 Er0_0 3.204135 1_555
B2_0 Er0_2 3.207792 1_544
B2_1 Rh4_1 2.162738 1_555
B2_1 Rh4_5 2.162738 1_455
B2_1 Rh2_1 2.166259 1_555
B2_1 Rh2_5 2.166259 1_455
B2_1 Rh1_1 2.168832 1_555
B2_1 Rh1_5 2.168832 1_455
B2_1 Er0_1 3.204135 1_555
B2_1 Er0_3 3.207792 1_545
B2_2 Rh4_2 2.162738 1_555
B2_2 Rh4_6 2.162738 1_455
B2_2 Rh2_2 2.166259 1_555
B2_2 Rh2_6 2.166259 1_455
B2_2 Rh1_2 2.168832 1_555
B2_2 Rh1_6 2.168832 1_455
B2_2 Er0_2 3.204135 1_554
B2_2 Er0_0 3.207792 1_555
B2_3 Rh4_7 2.162738 1_455
B2_3 Rh4_3 2.162738 1_555
B2_3 Rh2_3 2.166259 1_555
B2_3 Rh2_7 2.166259 1_455
B2_3 Rh1_3 2.168832 1_555
B2_3 Rh1_7 2.168832 1_455
B2_3 Er0_3 3.204135 1_555
B2_3 Er0_1 3.207792 1_555
B2_4 Rh4_4 2.162738 1_555
B2_4 Rh4_0 2.162738 1_555
B2_4 Rh2_4 2.166259 1_555
B2_4 Rh2_0 2.166259 1_555
B2_4 Rh1_4 2.168832 1_555
B2_4 Rh1_0 2.168832 1_555
B2_4 Er0_4 3.204135 1_555
B2_4 Er0_6 3.207792 1_544
B2_5 Rh4_1 2.162738 1_555
B2_5 Rh4_5 2.162738 1_555
B2_5 Rh2_5 2.166259 1_555
B2_5 Rh2_1 2.166259 1_555
B2_5 Rh1_5 2.168832 1_555
B2_5 Rh1_1 2.168832 1_555
B2_5 Er0_5 3.204135 1_555
B2_5 Er0_7 3.207792 1_545
B2_6 Rh4_6 2.162738 1_555
B2_6 Rh4_2 2.162738 1_555
B2_6 Rh2_6 2.166259 1_555
B2_6 Rh2_2 2.166259 1_555
B2_6 Rh1_6 2.168832 1_555
B2_6 Rh1_2 2.168832 1_555
B2_6 Er0_6 3.204135 1_554
B2_6 Er0_4 3.207792 1_555
B2_7 Rh4_7 2.162738 1_555
B2_7 Rh4_3 2.162738 1_555
B2_7 Rh2_7 2.166259 1_555
B2_7 Rh2_3 2.166259 1_555
B2_7 Rh1_7 2.168832 1_555
B2_7 Rh1_3 2.168832 1_555
B2_7 Er0_7 3.204135 1_555
B2_7 Er0_5 3.207792 1_555
B3_0 Rh0_2 2.161088 1_555
B3_0 Rh0_6 2.161088 1_455
B3_0 Rh3_0 2.164863 1_555
B3_0 Rh3_4 2.164863 1_455
B3_0 Rh5_2 2.165836 1_555
B3_0 Rh5_6 2.165836 1_455
B3_0 Er0_1 3.213648 1_555
B3_1 Rh0_3 2.161088 1_555
B3_1 Rh0_7 2.161088 1_455
B3_1 Rh3_1 2.164863 1_555
B3_1 Rh3_5 2.164863 1_455
B3_1 Rh5_3 2.165836 1_555
B3_1 Rh5_7 2.165836 1_455
B3_1 Er0_0 3.213648 1_556
B3_2 Rh0_0 2.161088 1_565
B3_2 Rh0_4 2.161088 1_465
B3_2 Rh3_2 2.164863 1_555
B3_2 Rh3_6 2.164863 1_455
B3_2 Rh5_0 2.165836 1_565
B3_2 Rh5_4 2.165836 1_465
B3_2 Er0_3 3.213648 1_555
B3_3 Rh0_1 2.161088 1_565
B3_3 Rh0_5 2.161088 1_465
B3_3 Rh3_3 2.164863 1_555
B3_3 Rh3_7 2.164863 1_455
B3_3 Rh5_1 2.165836 1_565
B3_3 Rh5_5 2.165836 1_465
B3_3 Er0_2 3.213648 1_555
B3_4 Rh0_6 2.161088 1_555
B3_4 Rh0_2 2.161088 1_555
B3_4 Rh3_4 2.164863 1_555
B3_4 Rh3_0 2.164863 1_555
B3_4 Rh5_6 2.165836 1_555
B3_4 Rh5_2 2.165836 1_555
B3_4 Er0_5 3.213648 1_555
B3_5 Rh0_7 2.161088 1_555
B3_5 Rh0_3 2.161088 1_555
B3_5 Rh3_5 2.164863 1_555
B3_5 Rh3_1 2.164863 1_555
B3_5 Rh5_7 2.165836 1_555
B3_5 Rh5_3 2.165836 1_555
B3_5 Er0_4 3.213648 1_556
B3_6 Rh0_4 2.161088 1_565
B3_6 Rh0_0 2.161088 1_565
B3_6 Rh3_6 2.164863 1_555
B3_6 Rh3_2 2.164863 1_555
B3_6 Rh5_4 2.165836 1_565
B3_6 Rh5_0 2.165836 1_565
B3_6 Er0_7 3.213648 1_555
B3_7 Rh0_5 2.161088 1_565
B3_7 Rh0_1 2.161088 1_565
B3_7 Rh3_7 2.164863 1_555
B3_7 Rh3_3 2.164863 1_555
B3_7 Rh5_1 2.165836 1_565
B3_7 Rh5_5 2.165836 1_565
B3_7 Er0_6 3.213648 1_555
Rh0_0 Rh6_0 3.105213 1_555
Rh0_0 Rh6_4 3.105213 1_555
Rh0_0 Rh6_6 3.159452 1_545
Rh0_0 Rh6_2 3.159452 1_545
Rh0_1 Rh6_1 3.105213 1_555
Rh0_1 Rh6_5 3.105213 1_555
Rh0_1 Rh6_3 3.159452 1_545
Rh0_1 Rh6_7 3.159452 1_545
Rh0_2 Rh6_6 3.105213 1_555
Rh0_2 Rh6_2 3.105213 1_555
Rh0_2 Rh6_4 3.159452 1_555
Rh0_2 Rh6_0 3.159452 1_555
Rh0_3 Rh6_3 3.105213 1_555
Rh0_3 Rh6_7 3.105213 1_555
Rh0_3 Rh6_1 3.159452 1_555
Rh0_3 Rh6_5 3.159452 1_555
Rh0_4 Rh6_4 3.105213 1_555
Rh0_4 Rh6_0 3.105213 1_655
Rh0_4 Rh6_6 3.159452 1_545
Rh0_4 Rh6_2 3.159452 1_645
Rh0_5 Rh6_5 3.105213 1_555
Rh0_5 Rh6_1 3.105213 1_655
Rh0_5 Rh6_7 3.159452 1_545
Rh0_5 Rh6_3 3.159452 1_645
Rh0_6 Rh6_6 3.105213 1_555
Rh0_6 Rh6_2 3.105213 1_655
Rh0_6 Rh6_4 3.159452 1_555
Rh0_6 Rh6_0 3.159452 1_655
Rh0_7 Rh6_7 3.105213 1_555
Rh0_7 Rh6_3 3.105213 1_655
Rh0_7 Rh6_5 3.159452 1_555
Rh0_7 Rh6_1 3.159452 1_655
Rh2_0 Rh6_0 3.153377 1_555
Rh2_0 Rh6_4 3.153377 1_555
Rh2_1 Rh6_1 3.153377 1_555
Rh2_1 Rh6_5 3.153377 1_555
Rh2_2 Rh6_2 3.153377 1_555
Rh2_2 Rh6_6 3.153377 1_555
Rh2_3 Rh6_3 3.153377 1_555
Rh2_3 Rh6_7 3.153377 1_555
Rh2_4 Rh6_4 3.153377 1_555
Rh2_4 Rh6_0 3.153377 1_655
Rh2_5 Rh6_5 3.153377 1_555
Rh2_5 Rh6_1 3.153377 1_655
Rh2_6 Rh6_6 3.153377 1_555
Rh2_6 Rh6_2 3.153377 1_655
Rh2_7 Rh6_7 3.153377 1_555
Rh2_7 Rh6_3 3.153377 1_655
Rh3_0 Rh6_4 3.105594 1_555
Rh3_0 Rh6_0 3.105594 1_555
Rh3_1 Rh6_5 3.105594 1_555
Rh3_1 Rh6_1 3.105594 1_555
Rh3_2 Rh6_2 3.105594 1_555
Rh3_2 Rh6_6 3.105594 1_555
Rh3_3 Rh6_7 3.105594 1_555
Rh3_3 Rh6_3 3.105594 1_555
Rh3_4 Rh6_4 3.105594 1_555
Rh3_4 Rh6_0 3.105594 1_655
Rh3_5 Rh6_5 3.105594 1_555
Rh3_5 Rh6_1 3.105594 1_655
Rh3_6 Rh6_6 3.105594 1_555
Rh3_6 Rh6_2 3.105594 1_655
Rh3_7 Rh6_7 3.105594 1_555
Rh3_7 Rh6_3 3.105594 1_655
Rh4_0 Rh6_0 3.105594 1_555
Rh4_0 Rh6_4 3.105594 1_555
Rh4_1 Rh6_1 3.105594 1_555
Rh4_1 Rh6_5 3.105594 1_555
Rh4_2 Rh6_2 3.105594 1_555
Rh4_2 Rh6_6 3.105594 1_555
Rh4_3 Rh6_7 3.105594 1_555
Rh4_3 Rh6_3 3.105594 1_555
Rh4_4 Rh6_4 3.105594 1_555
Rh4_4 Rh6_0 3.105594 1_655
Rh4_5 Rh6_5 3.105594 1_555
Rh4_5 Rh6_1 3.105594 1_655
Rh4_6 Rh6_6 3.105594 1_555
Rh4_6 Rh6_2 3.105594 1_655
Rh4_7 Rh6_7 3.105594 1_555
Rh4_7 Rh6_3 3.105594 1_655
Rh5_0 Rh6_0 3.153385 1_555
Rh5_0 Rh6_4 3.153385 1_555
Rh5_1 Rh6_1 3.153385 1_555
Rh5_1 Rh6_5 3.153385 1_555
Rh5_2 Rh6_2 3.153385 1_555
Rh5_2 Rh6_6 3.153385 1_555
Rh5_3 Rh6_3 3.153385 1_555
Rh5_3 Rh6_7 3.153385 1_555
Rh5_4 Rh6_4 3.153385 1_555
Rh5_4 Rh6_0 3.153385 1_655
Rh5_5 Rh6_5 3.153385 1_555
Rh5_5 Rh6_1 3.153385 1_655
Rh5_6 Rh6_6 3.153385 1_555
Rh5_6 Rh6_2 3.153385 1_655
Rh5_7 Rh6_7 3.153385 1_555
Rh5_7 Rh6_3 3.153385 1_655
Rh6_0 Rh6_4 2.910874 1_555
Rh6_0 Rh6_4 2.910874 1_455
Rh6_1 Rh6_5 2.910874 1_455
Rh6_1 Rh6_5 2.910874 1_555
Rh6_2 Rh6_6 2.910874 1_555
Rh6_2 Rh6_6 2.910874 1_455
Rh6_3 Rh6_7 2.910874 1_555
Rh6_3 Rh6_7 2.910874 1_455
