# generated using pymatgen
data_Ba4Li(IrO4)3
_symmetry_space_group_name_H-M   'P 1'
_cell_length_a   5.85126800
_cell_length_b   15.59607762
_cell_length_c   10.12587937
_cell_angle_alpha   71.02884922
_cell_angle_beta   90.00000000
_cell_angle_gamma   79.18795527
_symmetry_Int_Tables_number   1
_chemical_formula_structural   Ba4Li(IrO4)3
_chemical_formula_sum   'Ba12 Li3 Ir9 O36'
_cell_volume   856.49839836
_cell_formula_units_Z   3
loop_
 _symmetry_equiv_pos_site_id
 _symmetry_equiv_pos_as_xyz
  1  'x, y, z'
loop_
 _atom_site_type_symbol
 _atom_site_label
 _atom_site_symmetry_multiplicity
 _atom_site_fract_x
 _atom_site_fract_y
 _atom_site_fract_z
 _atom_site_occupancy
  Ba  Ba0  1  0.12507700  0.74984500  0.12455200  1
  Ba  Ba1  1  0.62849000  0.74302000  0.62775200  1
  Ba  Ba2  1  0.37151000  0.25698000  0.37224800  1
  Ba  Ba3  1  0.87492300  0.25015500  0.87544800  1
  Ba  Ba4  1  0.71060300  0.57879400  0.04545600  1
  Ba  Ba5  1  0.20921700  0.58156500  0.54067800  1
  Ba  Ba6  1  0.79078300  0.41843500  0.45932200  1
  Ba  Ba7  1  0.28939700  0.42120600  0.95454400  1
  Ba  Ba8  1  0.95583600  0.08832900  0.63229700  1
  Ba  Ba9  1  0.45829400  0.08341300  0.11790600  1
  Ba  Ba10  1  0.54170600  0.91658700  0.88209400  1
  Ba  Ba11  1  0.04416400  0.91167100  0.36770300  1
  Li  Li0  1  0.75084800  0.49830400  0.74940800  1
  Li  Li1  1  0.24915200  0.50169600  0.25059200  1
  Li  Li2  1  0.00000000  0.00000000  0.00000000  1
  Ir  Ir0  1  0.32977300  0.34045500  0.66266400  1
  Ir  Ir1  1  0.82925400  0.34149200  0.16398300  1
  Ir  Ir2  1  0.17074600  0.65850800  0.83601700  1
  Ir  Ir3  1  0.67022700  0.65954500  0.33733600  1
  Ir  Ir4  1  0.07709200  0.84581700  0.74087500  1
  Ir  Ir5  1  0.57964800  0.84070400  0.24794800  1
  Ir  Ir6  1  0.42035200  0.15929600  0.75205200  1
  Ir  Ir7  1  0.92290800  0.15418300  0.25912500  1
  Ir  Ir8  1  0.50000000  0.00000000  0.50000000  1
  O  O0  1  0.94389300  0.58619700  0.29307700  1
  O  O1  1  0.44703200  0.58460800  0.79545600  1
  O  O2  1  0.70791100  0.58417800  0.53215800  1
  O  O3  1  0.20647000  0.58706000  0.03262800  1
  O  O4  1  0.46991100  0.58619700  0.29307700  1
  O  O5  1  0.96836100  0.58460800  0.79545600  1
  O  O6  1  0.55296800  0.41539200  0.20454400  1
  O  O7  1  0.05610700  0.41380300  0.70692300  1
  O  O8  1  0.79353000  0.41294000  0.96737200  1
  O  O9  1  0.29208900  0.41582200  0.46784200  1
  O  O10  1  0.03163900  0.41539200  0.20454400  1
  O  O11  1  0.53008900  0.41380300  0.70692300  1
  O  O12  1  0.69847500  0.08117000  0.37812900  1
  O  O13  1  0.22030600  0.08333500  0.86724400  1
  O  O14  1  0.95965400  0.08069200  0.13645600  1
  O  O15  1  0.45787600  0.08424700  0.61739200  1
  O  O16  1  0.22035500  0.08117000  0.37812900  1
  O  O17  1  0.69635900  0.08333500  0.86724400  1
  O  O18  1  0.77969400  0.91666500  0.13275600  1
  O  O19  1  0.30152500  0.91883000  0.62187100  1
  O  O20  1  0.54212400  0.91575300  0.38260800  1
  O  O21  1  0.04034600  0.91930800  0.86354400  1
  O  O22  1  0.30364100  0.91666500  0.13275600  1
  O  O23  1  0.77964500  0.91883000  0.62187100  1
  O  O24  1  0.39061400  0.74926800  0.37155800  1
  O  O25  1  0.89630500  0.75524200  0.86102400  1
  O  O26  1  0.62263400  0.75473200  0.13582200  1
  O  O27  1  0.12453800  0.75092400  0.63706700  1
  O  O28  1  0.86011800  0.74926800  0.37155800  1
  O  O29  1  0.34845200  0.75524200  0.86102400  1
  O  O30  1  0.10369500  0.24475800  0.13897600  1
  O  O31  1  0.60938600  0.25073200  0.62844200  1
  O  O32  1  0.87546200  0.24907600  0.36293300  1
  O  O33  1  0.37736600  0.24526800  0.86417800  1
  O  O34  1  0.65154800  0.24475800  0.13897600  1
  O  O35  1  0.13988200  0.25073200  0.62844200  1
loop_
_geom_bond_atom_site_label_1
_geom_bond_atom_site_label_2
_geom_bond_distance
_geom_bond_site_symmetry_2
Ba0 O26 2.929778 1_455
Ba0 O26 2.929784 1_555
Ba0 O3 2.936260 1_555
Ba0 O28 2.941092 1_455
Ba0 O24 2.941095 1_555
Ba0 O29 2.954874 1_554
Ba0 O25 2.954874 1_454
Ba0 O0 2.955230 1_455
Ba0 O4 2.955237 1_555
Ba0 O18 3.004659 1_455
Ba0 O22 3.004662 1_555
Ba0 O21 3.030328 1_554
Ba1 O1 2.893316 1_555
Ba1 O5 2.893319 1_555
Ba1 O2 2.901243 1_555
Ba1 O28 2.908847 1_555
Ba1 O24 2.908847 1_555
Ba1 O25 2.911401 1_555
Ba1 O29 2.911404 1_555
Ba1 O27 2.930947 1_655
Ba1 O27 2.930947 1_555
Ba1 O20 2.969161 1_555
Ba1 O19 3.017904 1_555
Ba1 O23 3.017904 1_555
Ba2 O6 2.893316 1_555
Ba2 O10 2.893319 1_555
Ba2 O9 2.901243 1_555
Ba2 O31 2.908847 1_555
Ba2 O35 2.908847 1_555
Ba2 O30 2.911401 1_555
Ba2 O34 2.911404 1_555
Ba2 O32 2.930947 1_455
Ba2 O32 2.930947 1_555
Ba2 O15 2.969161 1_555
Ba2 O12 3.017904 1_555
Ba2 O16 3.017904 1_555
Ba3 O33 2.929778 1_655
Ba3 O33 2.929784 1_555
Ba3 O8 2.936260 1_555
Ba3 O35 2.941092 1_655
Ba3 O31 2.941095 1_555
Ba3 O30 2.954874 1_656
Ba3 O34 2.954874 1_556
Ba3 O7 2.955230 1_655
Ba3 O11 2.955237 1_555
Ba3 O13 3.004659 1_655
Ba3 O17 3.004662 1_555
Ba3 O14 3.030328 1_556
Ba4 O10 2.855337 1_655
Ba4 O6 2.855340 1_555
Ba4 O8 2.900059 1_554
Ba4 O4 2.900167 1_555
Ba4 O0 2.900169 1_555
Ba4 O3 2.929395 1_655
Ba4 O3 2.929395 1_555
Ba4 O1 2.931434 1_554
Ba4 O5 2.931437 1_554
Ba4 O26 3.119944 1_555
Ba4 O25 3.165705 1_554
Ba4 O29 3.165708 1_554
Ba5 O9 2.868848 1_555
Ba5 O7 2.915099 1_555
Ba5 O11 2.915099 1_555
Ba5 O0 2.922588 1_455
Ba5 O4 2.922594 1_555
Ba5 O2 2.926786 1_455
Ba5 O2 2.926792 1_555
Ba5 O5 2.949332 1_455
Ba5 O1 2.949338 1_555
Ba5 O28 3.004895 1_455
Ba5 O24 3.004898 1_555
Ba5 O27 3.059404 1_555
Ba6 O2 2.868848 1_555
Ba6 O4 2.915099 1_555
Ba6 O0 2.915099 1_555
Ba6 O7 2.922588 1_655
Ba6 O11 2.922594 1_555
Ba6 O9 2.926786 1_655
Ba6 O9 2.926792 1_555
Ba6 O10 2.949332 1_655
Ba6 O6 2.949338 1_555
Ba6 O35 3.004895 1_655
Ba6 O31 3.004898 1_555
Ba6 O32 3.059404 1_555
Ba7 O5 2.855337 1_455
Ba7 O1 2.855340 1_555
Ba7 O3 2.900059 1_556
Ba7 O11 2.900167 1_555
Ba7 O7 2.900169 1_555
Ba7 O8 2.929395 1_555
Ba7 O8 2.929395 1_455
Ba7 O6 2.931434 1_556
Ba7 O10 2.931437 1_556
Ba7 O33 3.119944 1_555
Ba7 O30 3.165705 1_556
Ba7 O34 3.165708 1_556
Ba8 O13 2.809793 1_655
Ba8 O17 2.809796 1_555
Ba8 O21 2.859023 1_645
Ba8 O35 2.921580 1_655
Ba8 O31 2.921583 1_555
Ba8 O15 2.931252 1_655
Ba8 O15 2.931263 1_555
Ba8 O32 3.009574 1_555
Ba8 O16 3.025535 1_655
Ba8 O12 3.025538 1_555
Ba8 O19 3.044025 1_645
Ba8 O23 3.044028 1_545
Ba9 O18 2.869377 1_545
Ba9 O22 2.869380 1_545
Ba9 O17 2.895530 1_554
Ba9 O13 2.895533 1_554
Ba9 O33 2.920959 1_554
Ba9 O14 2.931067 1_555
Ba9 O14 2.931073 1_455
Ba9 O12 2.973390 1_555
Ba9 O16 2.973393 1_555
Ba9 O30 3.012109 1_555
Ba9 O34 3.012109 1_555
Ba9 O20 3.037118 1_545
Ba10 O13 2.869377 1_565
Ba10 O17 2.869380 1_565
Ba10 O22 2.895530 1_556
Ba10 O18 2.895533 1_556
Ba10 O26 2.920959 1_556
Ba10 O21 2.931067 1_555
Ba10 O21 2.931073 1_655
Ba10 O19 2.973390 1_555
Ba10 O23 2.973393 1_555
Ba10 O25 3.012109 1_555
Ba10 O29 3.012109 1_555
Ba10 O15 3.037118 1_565
Ba11 O18 2.809793 1_455
Ba11 O22 2.809796 1_555
Ba11 O14 2.859023 1_465
Ba11 O28 2.921580 1_455
Ba11 O24 2.921583 1_555
Ba11 O20 2.931252 1_455
Ba11 O20 2.931263 1_555
Ba11 O27 3.009574 1_555
Ba11 O23 3.025535 1_455
Ba11 O19 3.025538 1_555
Ba11 O12 3.044025 1_465
Ba11 O16 3.044028 1_565
Li0 O7 2.144227 1_655
Li0 O11 2.144231 1_555
Li0 O2 2.157388 1_555
Li0 O8 2.161205 1_555
Li0 O1 2.167886 1_555
Li0 O5 2.167890 1_555
Li1 O0 2.144227 1_455
Li1 O4 2.144231 1_555
Li1 O9 2.157388 1_555
Li1 O3 2.161205 1_555
Li1 O6 2.167886 1_555
Li1 O10 2.167890 1_555
Li2 O21 2.137248 1_544
Li2 O14 2.137248 1_455
Li2 O13 2.156522 1_554
Li2 O22 2.156522 1_545
Li2 O18 2.156522 1_445
Li2 O17 2.156522 1_454
Ir0 O9 1.927972 1_555
Ir0 O11 1.928638 1_555
Ir0 O7 1.928647 1_555
Ir0 O31 2.052153 1_555
Ir0 O35 2.052157 1_555
Ir0 O33 2.078565 1_555
Ir1 O8 1.928502 1_554
Ir1 O10 1.928536 1_655
Ir1 O6 1.928540 1_555
Ir1 O32 2.043238 1_555
Ir1 O34 2.063573 1_555
Ir1 O30 2.063577 1_655
Ir2 O3 1.928502 1_556
Ir2 O5 1.928536 1_455
Ir2 O1 1.928540 1_555
Ir2 O27 2.043238 1_555
Ir2 O29 2.063573 1_555
Ir2 O25 2.063577 1_455
Ir3 O2 1.927972 1_555
Ir3 O4 1.928638 1_555
Ir3 O0 1.928647 1_555
Ir3 O24 2.052153 1_555
Ir3 O28 2.052157 1_555
Ir3 O26 2.078565 1_555
Ir4 O21 1.932883 1_555
Ir4 O29 2.009435 1_555
Ir4 O25 2.009443 1_455
Ir4 O19 2.035228 1_555
Ir4 O23 2.035232 1_455
Ir4 O27 2.056593 1_555
Ir5 O18 1.938030 1_555
Ir5 O22 1.938030 1_555
Ir5 O26 2.003354 1_555
Ir5 O20 2.053960 1_555
Ir5 O28 2.062749 1_555
Ir5 O24 2.062749 1_555
Ir6 O17 1.938030 1_555
Ir6 O13 1.938030 1_555
Ir6 O33 2.003354 1_555
Ir6 O15 2.053960 1_555
Ir6 O35 2.062749 1_555
Ir6 O31 2.062749 1_555
Ir7 O14 1.932883 1_555
Ir7 O34 2.009435 1_555
Ir7 O30 2.009443 1_655
Ir7 O12 2.035228 1_555
Ir7 O16 2.035232 1_655
Ir7 O32 2.056593 1_555
Ir8 O19 2.002497 1_545
Ir8 O12 2.002497 1_555
Ir8 O16 2.002497 1_555
Ir8 O23 2.002497 1_545
Ir8 O20 2.023398 1_545
Ir8 O15 2.023398 1_555
