# generated using pymatgen
data_Ba2TiMnO6
_symmetry_space_group_name_H-M   'P 1'
_cell_length_a   5.76239755
_cell_length_b   9.98031874
_cell_length_c   9.98318844
_cell_angle_alpha   109.46031932
_cell_angle_beta   90.00012096
_cell_angle_gamma   89.99986984
_symmetry_Int_Tables_number   1
_chemical_formula_structural   Ba2TiMnO6
_chemical_formula_sum   'Ba8 Ti4 Mn4 O24'
_cell_volume   541.33965535
_cell_formula_units_Z   4
loop_
 _symmetry_equiv_pos_site_id
 _symmetry_equiv_pos_as_xyz
  1  'x, y, z'
loop_
 _atom_site_type_symbol
 _atom_site_label
 _atom_site_symmetry_multiplicity
 _atom_site_fract_x
 _atom_site_fract_y
 _atom_site_fract_z
 _atom_site_occupancy
  Ba  Ba0  1  0.49999800  0.21472300  0.14415600  1
  Ba  Ba1  1  0.00000100  0.71472000  0.14415700  1
  Ba  Ba2  1  0.50000000  0.78527500  0.85584400  1
  Ba  Ba3  1  0.00000000  0.28528000  0.85584400  1
  Ba  Ba4  1  0.50000100  0.37078900  0.61236300  1
  Ba  Ba5  1  0.00000000  0.87079000  0.61235400  1
  Ba  Ba6  1  0.49999800  0.62920900  0.38763600  1
  Ba  Ba7  1  0.00000200  0.12920600  0.38764300  1
  Ti  Ti0  1  0.00000000  0.59280800  0.77855500  1
  Ti  Ti1  1  0.50000000  0.09279300  0.77855300  1
  Ti  Ti2  1  0.00000000  0.40719400  0.22144900  1
  Ti  Ti3  1  0.49999900  0.90720400  0.22144500  1
  Mn  Mn0  1  0.50000000  0.00002500  0.49998500  1
  Mn  Mn1  1  0.49999600  0.50001000  0.99999500  1
  Mn  Mn2  1  0.00001000  0.49998500  0.50004500  1
  Mn  Mn3  1  0.00001000  0.00000500  0.99998100  1
  O  O0  1  0.74561200  0.45732000  0.11761300  1
  O  O1  1  0.24562400  0.95731800  0.11761800  1
  O  O2  1  0.25438800  0.45732000  0.11761400  1
  O  O3  1  0.75437400  0.95731900  0.11761700  1
  O  O4  1  0.99999900  0.20297900  0.11766200  1
  O  O5  1  0.49999800  0.70297600  0.11766100  1
  O  O6  1  0.25438600  0.54267900  0.88238500  1
  O  O7  1  0.75437500  0.04268100  0.88238200  1
  O  O8  1  0.74561100  0.54267900  0.88238500  1
  O  O9  1  0.24562500  0.04267900  0.88238100  1
  O  O10  1  0.00000000  0.79701800  0.88233700  1
  O  O11  1  0.49999900  0.29702200  0.88233800  1
  O  O12  1  0.77691400  0.61789200  0.63056500  1
  O  O13  1  0.27691500  0.11789100  0.63056400  1
  O  O14  1  0.22308500  0.61789100  0.63056500  1
  O  O15  1  0.72308400  0.11789100  0.63056300  1
  O  O16  1  0.00000000  0.39486100  0.63055500  1
  O  O17  1  0.50000000  0.89486100  0.63055400  1
  O  O18  1  0.22308500  0.38210500  0.36943400  1
  O  O19  1  0.72308400  0.88210800  0.36943700  1
  O  O20  1  0.77691400  0.38210700  0.36943500  1
  O  O21  1  0.27691600  0.88210900  0.36943700  1
  O  O22  1  0.99999800  0.60513700  0.36944600  1
  O  O23  1  0.49999900  0.10513900  0.36944600  1
loop_
_geom_bond_atom_site_label_1
_geom_bond_atom_site_label_2
_geom_bond_distance
_geom_bond_site_symmetry_2
Ba0 O18 2.809184 1_555
Ba0 O20 2.809205 1_555
Ba0 O23 2.809563 1_555
Ba0 O2 2.891874 1_555
Ba0 O0 2.891895 1_555
Ba0 O4 2.892112 1_455
Ba0 O4 2.892124 1_555
Ba0 O3 2.892216 1_545
Ba0 O1 2.892226 1_545
Ba0 O9 2.989403 1_554
Ba0 O7 2.989403 1_554
Ba0 O11 2.989477 1_554
Ba1 O21 2.809224 1_555
Ba1 O19 2.809228 1_455
Ba1 O22 2.809547 1_455
Ba1 O1 2.891914 1_555
Ba1 O3 2.891932 1_455
Ba1 O5 2.892102 1_555
Ba1 O5 2.892136 1_455
Ba1 O2 2.892205 1_555
Ba1 O0 2.892214 1_455
Ba1 O6 2.989410 1_554
Ba1 O8 2.989422 1_454
Ba1 O10 2.989490 1_554
Ba2 O12 2.809196 1_555
Ba2 O14 2.809202 1_555
Ba2 O17 2.809576 1_555
Ba2 O8 2.891864 1_555
Ba2 O6 2.891879 1_555
Ba2 O10 2.892117 1_655
Ba2 O10 2.892117 1_555
Ba2 O9 2.892217 1_565
Ba2 O7 2.892237 1_565
Ba2 O3 2.989392 1_556
Ba2 O1 2.989403 1_556
Ba2 O5 2.989467 1_556
Ba3 O13 2.809225 1_555
Ba3 O15 2.809233 1_455
Ba3 O16 2.809534 1_555
Ba3 O7 2.891925 1_455
Ba3 O9 2.891932 1_555
Ba3 O11 2.892112 1_555
Ba3 O11 2.892124 1_455
Ba3 O6 2.892203 1_555
Ba3 O8 2.892207 1_455
Ba3 O0 2.989395 1_456
Ba3 O2 2.989400 1_556
Ba3 O4 2.989488 1_456
Ba4 O15 2.891651 1_555
Ba4 O13 2.891668 1_555
Ba4 O14 2.891815 1_555
Ba4 O12 2.891820 1_555
Ba4 O16 2.891869 1_655
Ba4 O16 2.891880 1_555
Ba4 O20 2.936509 1_555
Ba4 O18 2.936515 1_555
Ba4 O23 2.937042 1_555
Ba4 O11 3.021310 1_555
Ba4 O8 3.021827 1_555
Ba4 O6 3.021842 1_555
Ba5 O12 2.891703 1_455
Ba5 O14 2.891704 1_555
Ba5 O15 2.891791 1_465
Ba5 O13 2.891792 1_565
Ba5 O17 2.891876 1_455
Ba5 O17 2.891876 1_555
Ba5 O19 2.936421 1_455
Ba5 O21 2.936430 1_555
Ba5 O22 2.937014 1_455
Ba5 O10 3.021414 1_555
Ba5 O9 3.021900 1_565
Ba5 O7 3.021914 1_465
Ba6 O21 2.891663 1_555
Ba6 O19 2.891669 1_555
Ba6 O20 2.891817 1_555
Ba6 O18 2.891828 1_555
Ba6 O22 2.891873 1_555
Ba6 O22 2.891874 1_455
Ba6 O14 2.936518 1_555
Ba6 O12 2.936518 1_555
Ba6 O17 2.937060 1_555
Ba6 O5 3.021310 1_555
Ba6 O2 3.021824 1_555
Ba6 O0 3.021843 1_555
Ba7 O18 2.891697 1_555
Ba7 O20 2.891719 1_455
Ba7 O21 2.891758 1_545
Ba7 O19 2.891785 1_445
Ba7 O23 2.891855 1_555
Ba7 O23 2.891890 1_455
Ba7 O13 2.936435 1_555
Ba7 O15 2.936449 1_455
Ba7 O16 2.937047 1_555
Ba7 O4 3.021400 1_455
Ba7 O1 3.021876 1_545
Ba7 O3 3.021895 1_445
Mn0 O23 1.926086 1_555
Mn0 O17 1.926728 1_545
Mn0 O15 1.927138 1_555
Mn0 O13 1.927147 1_555
Mn0 O21 1.927188 1_545
Mn0 O19 1.927192 1_545
Mn1 O6 1.973864 1_555
Mn1 O8 1.973889 1_555
Mn1 O2 1.974007 1_556
Mn1 O0 1.974029 1_556
Mn1 O5 1.974262 1_556
Mn1 O11 1.974421 1_555
Mn2 O16 1.925915 1_555
Mn2 O22 1.926892 1_455
Mn2 O14 1.926983 1_555
Mn2 O12 1.927068 1_455
Mn2 O18 1.927313 1_555
Mn2 O20 1.927381 1_455
Mn3 O9 1.973843 1_555
Mn3 O7 1.973923 1_455
Mn3 O1 1.974134 1_546
Mn3 O3 1.974219 1_446
Mn3 O4 1.974366 1_456
Mn3 O10 1.974380 1_545
O0 Ti2 1.954275 1_655
O1 Ti3 1.954112 1_555
O2 Ti2 1.954274 1_555
O3 Ti3 1.954128 1_555
O4 Ti2 1.954597 1_655
O5 Ti3 1.954704 1_555
O6 Ti0 1.954243 1_555
O7 Ti1 1.954116 1_555
O8 Ti0 1.954261 1_655
O9 Ti1 1.954123 1_555
O10 Ti0 1.954545 1_555
O11 Ti1 1.954715 1_555
O12 Ti0 2.035778 1_655
O13 Ti1 2.035817 1_555
O14 Ti0 2.035775 1_555
O15 Ti1 2.035826 1_555
O16 Ti0 2.034951 1_555
O17 Ti1 2.034838 1_565
O18 Ti2 2.035754 1_555
O19 Ti3 2.035833 1_555
O20 Ti2 2.035763 1_655
O21 Ti3 2.035827 1_555
O22 Ti2 2.034910 1_655
O23 Ti3 2.034868 1_545
