# generated using pymatgen
data_RbMg6Cu
_symmetry_space_group_name_H-M   'P 1'
_cell_length_a   5.26294800
_cell_length_b   6.52579800
_cell_length_c   11.74053300
_cell_angle_alpha   90.00000000
_cell_angle_beta   90.00000000
_cell_angle_gamma   90.00000000
_symmetry_Int_Tables_number   1
_chemical_formula_structural   RbMg6Cu
_chemical_formula_sum   'Rb2 Mg12 Cu2'
_cell_volume   403.22784900
_cell_formula_units_Z   2
loop_
 _symmetry_equiv_pos_site_id
 _symmetry_equiv_pos_as_xyz
  1  'x, y, z'
loop_
 _atom_site_type_symbol
 _atom_site_label
 _atom_site_symmetry_multiplicity
 _atom_site_fract_x
 _atom_site_fract_y
 _atom_site_fract_z
 _atom_site_occupancy
  Rb  Rb0  1  0.50000000  0.50000000  0.16741500  1
  Rb  Rb1  1  0.50000000  0.00000000  0.66741500  1
  Mg  Mg0  1  0.50000000  0.25460000  0.41784400  1
  Mg  Mg1  1  0.50000000  0.74540000  0.41784400  1
  Mg  Mg2  1  0.00000000  0.77452700  0.08166700  1
  Mg  Mg3  1  0.00000000  0.22547300  0.08166700  1
  Mg  Mg4  1  0.00000000  0.00000000  0.32645700  1
  Mg  Mg5  1  0.00000000  0.50000000  0.34615500  1
  Mg  Mg6  1  0.50000000  0.75460000  0.91784400  1
  Mg  Mg7  1  0.50000000  0.24540000  0.91784400  1
  Mg  Mg8  1  0.00000000  0.27452700  0.58166700  1
  Mg  Mg9  1  0.00000000  0.72547300  0.58166700  1
  Mg  Mg10  1  0.00000000  0.50000000  0.82645700  1
  Mg  Mg11  1  0.00000000  0.00000000  0.84615500  1
  Cu  Cu0  1  0.50000000  0.00000000  0.16094400  1
  Cu  Cu1  1  0.50000000  0.50000000  0.66094400  1
loop_
_geom_bond_atom_site_label_1
_geom_bond_atom_site_label_2
_geom_bond_distance
_geom_bond_site_symmetry_2
Mg0 Mg5 3.193374 1_555
Mg0 Mg5 3.193374 1_655
Mg0 Mg1 3.202862 1_555
Mg0 Mg8 3.262042 1_655
Mg0 Mg8 3.262042 1_555
Mg0 Mg4 3.291856 1_555
Mg0 Mg4 3.291856 1_655
Mg0 Mg1 3.322936 1_545
Mg0 Rb0 3.348011 1_555
Mg0 Rb1 3.368374 1_555
Mg1 Mg5 3.193374 1_655
Mg1 Mg5 3.193374 1_555
Mg1 Mg9 3.262042 1_555
Mg1 Mg9 3.262042 1_655
Mg1 Mg4 3.291856 1_665
Mg1 Mg4 3.291856 1_565
Mg1 Rb0 3.348011 1_555
Mg1 Rb1 3.368374 1_565
Mg2 Mg6 3.262042 1_554
Mg2 Mg6 3.262042 1_454
Mg2 Rb0 3.338810 1_455
Mg2 Rb0 3.338810 1_555
Mg3 Mg7 3.262042 1_554
Mg3 Mg7 3.262042 1_454
Mg3 Rb0 3.338810 1_455
Mg3 Rb0 3.338810 1_555
Mg4 Mg5 3.271084 1_555
Mg4 Mg5 3.271084 1_545
Mg5 Mg9 3.132159 1_555
Mg5 Mg8 3.132159 1_555
Mg5 Rb0 3.365764 1_455
Mg5 Rb0 3.365764 1_555
Mg6 Mg7 3.202862 1_565
Mg6 Mg7 3.322936 1_555
Mg6 Rb1 3.348011 1_565
Mg6 Rb0 3.368374 1_556
Mg7 Rb1 3.348011 1_555
Mg7 Rb0 3.368374 1_556
Mg8 Rb1 3.338810 1_555
Mg8 Rb1 3.338810 1_455
Mg9 Rb1 3.338810 1_565
Mg9 Rb1 3.338810 1_465
Mg10 Mg11 3.271084 1_565
Mg10 Mg11 3.271084 1_555
Mg10 Mg6 3.291856 1_555
Mg10 Mg7 3.291856 1_455
Mg10 Mg7 3.291856 1_555
Mg10 Mg6 3.291856 1_455
Mg11 Mg3 3.132159 1_556
Mg11 Mg2 3.132159 1_546
Mg11 Mg6 3.193374 1_545
Mg11 Mg6 3.193374 1_445
Mg11 Mg7 3.193374 1_455
Mg11 Mg7 3.193374 1_555
Mg11 Rb1 3.365764 1_555
Mg11 Rb1 3.365764 1_455
Cu0 Mg3 3.155305 1_655
Cu0 Mg3 3.155305 1_555
Cu0 Mg2 3.155305 1_645
Cu0 Mg2 3.155305 1_545
Cu0 Rb0 3.263783 1_545
Cu0 Rb0 3.263783 1_555
Cu0 Mg4 3.271196 1_555
Cu0 Mg4 3.271196 1_655
Cu0 Mg7 3.272706 1_554
Cu0 Mg6 3.272706 1_544
Cu0 Mg0 3.443486 1_555
Cu0 Mg1 3.443486 1_545
Cu1 Mg9 3.155305 1_655
Cu1 Mg8 3.155305 1_555
Cu1 Mg8 3.155305 1_655
Cu1 Mg9 3.155305 1_555
Cu1 Rb1 3.263783 1_555
Cu1 Rb1 3.263783 1_565
Cu1 Mg10 3.271196 1_555
Cu1 Mg10 3.271196 1_655
Cu1 Mg0 3.272706 1_555
Cu1 Mg1 3.272706 1_555
Cu1 Mg7 3.443486 1_555
Cu1 Mg6 3.443486 1_555
