# generated using pymatgen
data_CaSnS3
_symmetry_space_group_name_H-M   'P 1'
_cell_length_a   6.96436557
_cell_length_b   6.96436557
_cell_length_c   15.34578563
_cell_angle_alpha   86.94957343
_cell_angle_beta   86.94957343
_cell_angle_gamma   58.02128904
_symmetry_Int_Tables_number   1
_chemical_formula_structural   CaSnS3
_chemical_formula_sum   'Ca5 Sn5 S15'
_cell_volume   630.18491565
_cell_formula_units_Z   5
loop_
 _symmetry_equiv_pos_site_id
 _symmetry_equiv_pos_as_xyz
  1  'x, y, z'
loop_
 _atom_site_type_symbol
 _atom_site_label
 _atom_site_symmetry_multiplicity
 _atom_site_fract_x
 _atom_site_fract_y
 _atom_site_fract_z
 _atom_site_occupancy
  Ca  Ca0  1  0.00000000  0.00000000  0.00000000  1
  Ca  Ca1  1  0.66288300  0.66288300  0.13622000  1
  Ca  Ca2  1  0.33711700  0.33711700  0.86378000  1
  Ca  Ca3  1  0.73726600  0.73726600  0.61862100  1
  Ca  Ca4  1  0.26273400  0.26273400  0.38137900  1
  Sn  Sn0  1  0.96025400  0.96025400  0.29091200  1
  Sn  Sn1  1  0.03974600  0.03974600  0.70908800  1
  Sn  Sn2  1  0.68855000  0.68855000  0.88613100  1
  Sn  Sn3  1  0.31145000  0.31145000  0.11386900  1
  Sn  Sn4  1  0.00000000  0.00000000  0.50000000  1
  S  S0  1  0.00000000  0.50000000  0.00000000  1
  S  S1  1  0.50000000  0.00000000  0.00000000  1
  S  S2  1  0.50000000  0.50000000  0.00000000  1
  S  S3  1  0.91292200  0.91292200  0.84343700  1
  S  S4  1  0.42653100  0.94333100  0.76886100  1
  S  S5  1  0.94333100  0.42653100  0.76886100  1
  S  S6  1  0.08707800  0.08707800  0.15656300  1
  S  S7  1  0.57346900  0.05666900  0.23113900  1
  S  S8  1  0.05666900  0.57346900  0.23113900  1
  S  S9  1  0.81241500  0.81241500  0.43417600  1
  S  S10  1  0.31185700  0.81190200  0.37761000  1
  S  S11  1  0.81190200  0.31185700  0.37761000  1
  S  S12  1  0.18758500  0.18758500  0.56582400  1
  S  S13  1  0.68814300  0.18809800  0.62239000  1
  S  S14  1  0.18809800  0.68814300  0.62239000  1
loop_
_geom_bond_atom_site_label_1
_geom_bond_atom_site_label_2
_geom_bond_distance
_geom_bond_site_symmetry_2
Ca0 S6 2.684705 1_555
Ca0 S3 2.684705 1_444
Ca0 S2 3.377523 1_455
Ca0 S2 3.377523 1_545
Ca1 S1 2.842154 1_565
Ca1 S0 2.842154 1_655
Ca1 S8 2.924098 1_655
Ca1 S7 2.924098 1_565
Ca1 S2 2.968360 1_555
Ca2 S0 2.842154 1_556
Ca2 S1 2.842154 1_556
Ca2 S5 2.924098 1_455
Ca2 S4 2.924098 1_545
Ca2 S2 2.968360 1_556
Ca3 S9 2.921318 1_555
Ca3 S5 2.930850 1_555
Ca3 S4 2.930850 1_555
Ca3 S13 2.976231 1_565
Ca3 S14 2.976231 1_655
Ca4 S12 2.921318 1_555
Ca4 S7 2.930850 1_555
Ca4 S8 2.930850 1_555
Ca4 S11 2.976231 1_455
Ca4 S10 2.976231 1_545
S0 Sn2 2.573874 1_454
S0 Sn3 2.573874 1_555
S1 Sn2 2.573874 1_544
S1 Sn3 2.573874 1_555
S2 Sn3 2.800009 1_555
S2 Sn2 2.800009 1_554
S3 Sn1 2.499906 1_665
S3 Sn2 2.771487 1_555
S4 Sn2 2.509371 1_555
S4 Sn1 2.613410 1_565
S5 Sn2 2.509371 1_555
S5 Sn1 2.613410 1_655
S6 Sn0 2.499906 1_445
S6 Sn3 2.771487 1_555
S7 Sn3 2.509371 1_555
S7 Sn0 2.613410 1_545
S8 Sn3 2.509371 1_555
S8 Sn0 2.613410 1_455
S9 Sn4 2.553902 1_665
S9 Sn0 2.755829 1_555
S10 Sn0 2.520784 1_455
S10 Sn4 2.602843 1_565
S11 Sn0 2.520784 1_545
S11 Sn4 2.602843 1_655
S12 Sn4 2.553902 1_555
S12 Sn1 2.755829 1_555
S13 Sn1 2.520784 1_655
S13 Sn4 2.602843 1_655
S14 Sn1 2.520784 1_565
S14 Sn4 2.602843 1_565
