# generated using pymatgen
data_K3RhF6
_symmetry_space_group_name_H-M   'P 1'
_cell_length_a   6.72933104
_cell_length_b   8.07979644
_cell_length_c   6.64513193
_cell_angle_alpha   127.63617351
_cell_angle_beta   77.43924681
_cell_angle_gamma   111.50045689
_symmetry_Int_Tables_number   1
_chemical_formula_structural   K3RhF6
_chemical_formula_sum   'K3 Rh1 F6'
_cell_volume   266.20064661
_cell_formula_units_Z   1
loop_
 _symmetry_equiv_pos_site_id
 _symmetry_equiv_pos_as_xyz
  1  'x, y, z'
loop_
 _atom_site_type_symbol
 _atom_site_label
 _atom_site_symmetry_multiplicity
 _atom_site_fract_x
 _atom_site_fract_y
 _atom_site_fract_z
 _atom_site_occupancy
  K  K0  1  0.50000000  0.00000000  0.00000000  1
  K  K1  1  0.00000000  0.50000000  0.50000000  1
  K  K2  1  0.00000000  0.00000000  0.50000000  1
  Rh  Rh0  1  0.00000000  0.00000000  0.00000000  1
  F  F0  1  0.77702400  0.05357800  0.27716900  1
  F  F1  1  0.22297600  0.94642200  0.72283100  1
  F  F2  1  0.77860700  0.77862500  0.71522300  1
  F  F3  1  0.22139300  0.22137500  0.28477700  1
  F  F4  1  0.06169000  0.77071200  0.99764300  1
  F  F5  1  0.93831000  0.22928800  0.00235700  1
loop_
_geom_bond_atom_site_label_1
_geom_bond_atom_site_label_2
_geom_bond_distance
_geom_bond_site_symmetry_2
F0 Rh0 2.032608 1_655
F0 K2 2.618552 1_655
F0 K0 2.642536 1_555
F0 K1 2.816140 1_655
F1 Rh0 2.032608 1_566
F1 K2 2.618552 1_565
F1 K0 2.642536 1_566
F1 K1 2.816140 1_555
F2 Rh0 2.034468 1_666
F2 K1 2.632991 1_655
F2 K0 2.660181 1_566
F2 K2 2.776408 1_665
F3 Rh0 2.034468 1_555
F3 K1 2.632991 1_555
F3 K0 2.660181 1_555
F3 K2 2.776408 1_555
F4 Rh0 2.032286 1_566
F4 K1 2.643843 1_555
F4 K2 2.675120 1_566
F4 K0 2.848042 1_566
F5 Rh0 2.032286 1_655
F5 K1 2.643843 1_655
F5 K2 2.675120 1_654
F5 K0 2.848042 1_555
