# generated using pymatgen
data_LaCu5Sn
_symmetry_space_group_name_H-M   'P 1'
_cell_length_a   5.06093867
_cell_length_b   8.35088276
_cell_length_c   10.64654579
_cell_angle_alpha   90.00000000
_cell_angle_beta   90.00000000
_cell_angle_gamma   90.00000000
_symmetry_Int_Tables_number   1
_chemical_formula_structural   LaCu5Sn
_chemical_formula_sum   'La4 Cu20 Sn4'
_cell_volume   449.95821712
_cell_formula_units_Z   4
loop_
 _symmetry_equiv_pos_site_id
 _symmetry_equiv_pos_as_xyz
  1  'x, y, z'
loop_
 _atom_site_type_symbol
 _atom_site_label
 _atom_site_symmetry_multiplicity
 _atom_site_fract_x
 _atom_site_fract_y
 _atom_site_fract_z
 _atom_site_occupancy
  La  La0  1  0.25000000  0.75595059  0.05930925  1
  La  La1  1  0.75000000  0.24404941  0.94069075  1
  La  La2  1  0.75000000  0.74404941  0.55930925  1
  La  La3  1  0.25000000  0.25595059  0.44069075  1
  Cu  Cu0  1  0.25000000  0.82204195  0.74395552  1
  Cu  Cu1  1  0.75000000  0.17795805  0.25604448  1
  Cu  Cu2  1  0.75000000  0.67795805  0.24395552  1
  Cu  Cu3  1  0.25000000  0.32204195  0.75604448  1
  Cu  Cu4  1  0.49925808  0.56983276  0.81200139  1
  Cu  Cu5  1  0.50074192  0.43016724  0.18799861  1
  Cu  Cu6  1  0.50074192  0.93016724  0.31200139  1
  Cu  Cu7  1  -0.00074192  0.43016724  0.18799861  1
  Cu  Cu8  1  0.49925808  0.06983276  0.68799861  1
  Cu  Cu9  1  0.00074192  0.56983276  0.81200139  1
  Cu  Cu10  1  0.00074192  0.06983276  0.68799861  1
  Cu  Cu11  1  -0.00074192  0.93016724  0.31200139  1
  Cu  Cu12  1  0.25000000  0.92070119  0.51609184  1
  Cu  Cu13  1  0.75000000  0.07929881  0.48390816  1
  Cu  Cu14  1  0.75000000  0.57929881  0.01609184  1
  Cu  Cu15  1  0.25000000  0.42070119  0.98390816  1
  Cu  Cu16  1  0.25000000  0.56555417  0.60828063  1
  Cu  Cu17  1  0.75000000  0.43444583  0.39171937  1
  Cu  Cu18  1  0.75000000  0.93444583  0.10828063  1
  Cu  Cu19  1  0.25000000  0.06555417  0.89171937  1
  Sn  Sn0  1  0.25000000  0.64102728  0.36089706  1
  Sn  Sn1  1  0.75000000  0.35897272  0.63910294  1
  Sn  Sn2  1  0.75000000  0.85897272  0.86089706  1
  Sn  Sn3  1  0.25000000  0.14102728  0.13910294  1
loop_
_geom_bond_atom_site_label_1
_geom_bond_atom_site_label_2
_geom_bond_distance
_geom_bond_site_symmetry_2
La0 Sn3 3.326051 1_565
La0 Sn0 3.351227 1_555
La0 Sn2 3.406712 1_454
La0 Sn2 3.406712 1_554
La1 Sn2 3.326051 1_545
La1 Sn1 3.351227 1_555
La1 Sn3 3.406712 1_656
La1 Sn3 3.406712 1_556
La2 Sn1 3.326051 1_555
La2 Sn2 3.351227 1_555
La2 Sn0 3.406712 1_555
La2 Sn0 3.406712 1_655
La3 Sn0 3.326051 1_555
La3 Sn3 3.351227 1_555
La3 Sn1 3.406712 1_555
La3 Sn1 3.406712 1_455
Cu0 Cu10 2.495623 1_565
Cu0 Cu8 2.495623 1_565
Cu0 Cu9 2.559710 1_555
Cu0 Cu4 2.559710 1_555
Cu0 Cu12 2.562047 1_555
Cu0 Cu19 2.571025 1_565
Cu0 Cu16 2.583452 1_555
Cu0 Sn2 2.836983 1_455
Cu0 Sn2 2.836983 1_555
Cu0 La2 3.269866 1_455
Cu0 La2 3.269866 1_555
Cu0 La0 3.402490 1_556
Cu1 Cu6 2.495623 1_545
Cu1 Cu11 2.495623 1_645
Cu1 Cu5 2.559710 1_555
Cu1 Cu7 2.559710 1_655
Cu1 Cu13 2.562047 1_555
Cu1 Cu18 2.571025 1_545
Cu1 Cu17 2.583452 1_555
Cu1 Sn3 2.836983 1_555
Cu1 Sn3 2.836983 1_655
Cu1 La3 3.269866 1_555
Cu1 La3 3.269866 1_655
Cu1 La1 3.402490 1_554
Cu2 Cu5 2.495623 1_555
Cu2 Cu7 2.495623 1_655
Cu2 Cu6 2.559710 1_555
Cu2 Sn0 2.836983 1_555
Cu2 Sn0 2.836983 1_655
Cu2 La0 3.269866 1_555
Cu2 La0 3.269866 1_655
Cu2 La2 3.402490 1_555
Cu3 Cu9 2.495623 1_555
Cu3 Cu4 2.495623 1_555
Cu3 Cu8 2.559710 1_555
Cu3 Sn1 2.836983 1_455
Cu3 Sn1 2.836983 1_555
Cu3 La1 3.269866 1_455
Cu3 La1 3.269866 1_555
Cu3 La3 3.402490 1_555
Cu4 Cu9 2.522960 1_555
Cu4 Cu9 2.537979 1_655
Cu4 Sn2 2.776958 1_555
Cu4 Sn1 2.845949 1_555
Cu4 La1 3.299856 1_555
Cu4 La0 3.307503 1_556
Cu4 La2 3.311294 1_555
Cu5 Cu7 2.522960 1_655
Cu5 Cu7 2.537979 1_555
Cu5 Sn3 2.776958 1_555
Cu5 Sn0 2.845949 1_555
Cu5 La0 3.299856 1_555
Cu5 La1 3.307503 1_554
Cu5 La3 3.311294 1_555
Cu6 Sn0 2.776958 1_555
Cu6 Sn3 2.845949 1_565
Cu6 La3 3.299856 1_565
Cu6 La2 3.307503 1_555
Cu6 La0 3.311294 1_555
Cu7 Sn3 2.776958 1_555
Cu7 Sn0 2.845949 1_555
Cu7 La0 3.299856 1_555
Cu7 La1 3.307503 1_454
Cu7 La3 3.311294 1_555
Cu8 Sn1 2.776958 1_555
Cu8 Sn2 2.845949 1_545
Cu8 La2 3.299856 1_545
Cu8 La3 3.307503 1_555
Cu8 La1 3.311294 1_555
Cu9 Sn2 2.776958 1_455
Cu9 Sn1 2.845949 1_455
Cu9 La1 3.299856 1_455
Cu9 La0 3.307503 1_556
Cu9 La2 3.311294 1_455
Cu10 Cu19 2.509349 1_555
Cu10 Cu13 2.517518 1_455
Cu10 Cu8 2.522960 1_555
Cu10 Cu8 2.537979 1_455
Cu10 Cu12 2.547937 1_545
Cu10 Cu3 2.559710 1_555
Cu10 Sn1 2.776958 1_455
Cu10 Sn2 2.845949 1_445
Cu10 La2 3.299856 1_445
Cu10 La3 3.307503 1_555
Cu10 La1 3.311294 1_455
Cu11 Cu18 2.509349 1_455
Cu11 Cu12 2.517518 1_555
Cu11 Cu6 2.522960 1_455
Cu11 Cu6 2.537979 1_555
Cu11 Cu13 2.547937 1_465
Cu11 Cu2 2.559710 1_455
Cu11 Sn0 2.776958 1_555
Cu11 Sn3 2.845949 1_565
Cu11 La3 3.299856 1_565
Cu11 La2 3.307503 1_455
Cu11 La0 3.311294 1_555
Cu12 Cu6 2.517518 1_555
Cu12 Cu8 2.547937 1_565
Cu12 Sn0 2.860897 1_555
Cu12 Cu13 2.876594 1_565
Cu12 Cu13 2.876594 1_465
Cu12 La3 2.912447 1_565
Cu12 La2 2.964994 1_455
Cu12 La2 2.964994 1_555
Cu12 Cu16 3.123979 1_555
Cu13 Cu8 2.517518 1_555
Cu13 Cu6 2.547937 1_545
Cu13 Sn1 2.860897 1_555
Cu13 La2 2.912447 1_545
Cu13 La3 2.964994 1_555
Cu13 La3 2.964994 1_655
Cu13 Cu17 3.123979 1_555
Cu14 Cu4 2.517518 1_554
Cu14 Cu9 2.517518 1_654
Cu14 Cu7 2.547937 1_655
Cu14 Cu5 2.547937 1_555
Cu14 Cu2 2.562047 1_555
Cu14 Sn2 2.860897 1_554
Cu14 Cu15 2.876594 1_654
Cu14 Cu15 2.876594 1_554
Cu14 La1 2.912447 1_554
Cu14 La0 2.964994 1_555
Cu14 La0 2.964994 1_655
Cu14 Cu18 3.123979 1_555
Cu15 Cu7 2.517518 1_556
Cu15 Cu5 2.517518 1_556
Cu15 Cu4 2.547937 1_555
Cu15 Cu9 2.547937 1_555
Cu15 Cu3 2.562047 1_555
Cu15 Sn3 2.860897 1_556
Cu15 La0 2.912447 1_556
Cu15 La1 2.964994 1_455
Cu15 La1 2.964994 1_555
Cu15 Cu19 3.123979 1_555
Cu16 Cu9 2.509349 1_555
Cu16 Cu4 2.509349 1_555
Cu16 Cu3 2.571025 1_555
Cu16 Sn0 2.708143 1_555
Cu16 La2 2.982780 1_455
Cu16 La2 2.982780 1_555
Cu16 Sn1 3.080107 1_455
Cu16 Sn1 3.080107 1_555
Cu16 La3 3.141366 1_555
Cu17 Cu7 2.509349 1_655
Cu17 Cu5 2.509349 1_555
Cu17 Cu2 2.571025 1_555
Cu17 Sn1 2.708143 1_555
Cu17 La3 2.982780 1_555
Cu17 La3 2.982780 1_655
Cu17 Sn0 3.080107 1_555
Cu17 Sn0 3.080107 1_655
Cu17 La2 3.141366 1_555
Cu18 Cu6 2.509349 1_555
Cu18 Cu2 2.583452 1_555
Cu18 Sn2 2.708143 1_554
Cu18 La0 2.982780 1_655
Cu18 La0 2.982780 1_555
Cu18 Sn3 3.080107 1_665
Cu18 Sn3 3.080107 1_565
Cu18 La1 3.141366 1_564
Cu19 Cu8 2.509349 1_555
Cu19 Cu3 2.583452 1_555
Cu19 Sn3 2.708143 1_556
Cu19 La1 2.982780 1_455
Cu19 La1 2.982780 1_555
Cu19 Sn2 3.080107 1_445
Cu19 Sn2 3.080107 1_545
Cu19 La0 3.141366 1_546
