# generated using pymatgen
data_Li6MnV3(PO4)6
_symmetry_space_group_name_H-M   'P 1'
_cell_length_a   8.57405447
_cell_length_b   8.86595484
_cell_length_c   12.34469076
_cell_angle_alpha   90.00000000
_cell_angle_beta   87.59489739
_cell_angle_gamma   90.00000000
_symmetry_Int_Tables_number   1
_chemical_formula_structural   Li6MnV3(PO4)6
_chemical_formula_sum   'Li12 Mn2 V6 P12 O48'
_cell_volume   937.58192917
_cell_formula_units_Z   2
loop_
 _symmetry_equiv_pos_site_id
 _symmetry_equiv_pos_as_xyz
  1  'x, y, z'
loop_
 _atom_site_type_symbol
 _atom_site_label
 _atom_site_symmetry_multiplicity
 _atom_site_fract_x
 _atom_site_fract_y
 _atom_site_fract_z
 _atom_site_occupancy
  Li  Li0  1  0.99979949  0.00045350  0.00095160  1
  Li  Li1  1  0.99960313  0.10225872  0.24872858  1
  Li  Li2  1  0.99979949  0.99954650  0.50095160  1
  Li  Li3  1  0.99960313  0.89774128  0.74872858  1
  Li  Li4  1  0.29212093  0.80433346  0.04937066  1
  Li  Li5  1  0.29212093  0.19566654  0.54937066  1
  Li  Li6  1  0.50702964  0.50455350  0.99829488  1
  Li  Li7  1  0.50473395  0.40319947  0.25354916  1
  Li  Li8  1  0.50702964  0.49544650  0.49829488  1
  Li  Li9  1  0.50473395  0.59680053  0.75354916  1
  Li  Li10  1  0.71349662  0.80159519  0.44619989  1
  Li  Li11  1  0.71349662  0.19840481  0.94619989  1
  Mn  Mn0  1  0.79100923  0.49986536  0.35350579  1
  Mn  Mn1  1  0.79100923  0.50013464  0.85350579  1
  V  V0  1  0.21269543  0.50043844  0.14410770  1
  V  V1  1  0.21269543  0.49956156  0.64410770  1
  V  V2  1  0.28589153  0.99556386  0.35803415  1
  V  V3  1  0.28589153  0.00443614  0.85803415  1
  V  V4  1  0.71677369  0.99843344  0.14189240  1
  V  V5  1  0.71677369  0.00156656  0.64189240  1
  P  P0  1  0.00052939  0.80202397  0.24935194  1
  P  P1  1  0.00052939  0.19797603  0.74935194  1
  P  P2  1  0.15577784  0.35458405  0.39545925  1
  P  P3  1  0.15577784  0.64541595  0.89545925  1
  P  P4  1  0.35178163  0.14839435  0.10334367  1
  P  P5  1  0.35178163  0.85160565  0.60334367  1
  P  P6  1  0.50004613  0.70776648  0.24935867  1
  P  P7  1  0.50004613  0.29223352  0.74935867  1
  P  P8  1  0.64547935  0.14496658  0.39763178  1
  P  P9  1  0.64547935  0.85503342  0.89763178  1
  P  P10  1  0.84287976  0.35552626  0.10470985  1
  P  P11  1  0.84287976  0.64447374  0.60470985  1
  O  O0  1  0.01014407  0.41345818  0.10751327  1
  O  O1  1  0.01014407  0.58654182  0.60751327  1
  O  O2  1  0.07385538  0.91263120  0.33363534  1
  O  O3  1  0.07385538  0.08736880  0.83363534  1
  O  O4  1  0.12512649  0.70374107  0.18961912  1
  O  O5  1  0.12512649  0.29625893  0.68961912  1
  O  O6  1  0.15054610  0.17707226  0.40945872  1
  O  O7  1  0.15054610  0.82292774  0.90945872  1
  O  O8  1  0.24880436  0.40429396  0.29175314  1
  O  O9  1  0.25333890  0.06442831  0.01804412  1
  O  O10  1  0.25252492  0.40837068  0.49262765  1
  O  O11  1  0.24880436  0.59570604  0.79175314  1
  O  O12  1  0.25333890  0.93557169  0.51804412  1
  O  O13  1  0.27693030  0.09604227  0.21353522  1
  O  O14  1  0.25252492  0.59162932  0.99262765  1
  O  O15  1  0.27693030  0.90395773  0.71353522  1
  O  O16  1  0.34501961  0.32253672  0.08991656  1
  O  O17  1  0.34501961  0.67746328  0.58991656  1
  O  O18  1  0.37769853  0.80658280  0.31092139  1
  O  O19  1  0.37769853  0.19341720  0.81092139  1
  O  O20  1  0.42820790  0.60096096  0.16412786  1
  O  O21  1  0.42820790  0.39903904  0.66412786  1
  O  O22  1  0.47175114  0.09372818  0.40890085  1
  O  O23  1  0.47175114  0.90627182  0.90890085  1
  O  O24  1  0.52654784  0.10846455  0.09202740  1
  O  O25  1  0.52654784  0.89153545  0.59202740  1
  O  O26  1  0.57016888  0.60541815  0.33767979  1
  O  O27  1  0.57016888  0.39458185  0.83767979  1
  O  O28  1  0.61709829  0.80724928  0.18647880  1
  O  O29  1  0.61709829  0.19275072  0.68647880  1
  O  O30  1  0.63807869  0.31676408  0.41175809  1
  O  O31  1  0.63807869  0.68323592  0.91175809  1
  O  O32  1  0.72334073  0.09553712  0.28750885  1
  O  O33  1  0.74662039  0.40925929  0.00792910  1
  O  O34  1  0.72334073  0.90446288  0.78750885  1
  O  O35  1  0.74468665  0.06002437  0.48196995  1
  O  O36  1  0.74643524  0.40166845  0.20781018  1
  O  O37  1  0.74662039  0.59074071  0.50792910  1
  O  O38  1  0.74468665  0.93997563  0.98196995  1
  O  O39  1  0.74643524  0.59833155  0.70781018  1
  O  O40  1  0.85647113  0.17911067  0.09061110  1
  O  O41  1  0.85647113  0.82088933  0.59061110  1
  O  O42  1  0.87269456  0.71750047  0.31291563  1
  O  O43  1  0.87269456  0.28249953  0.81291563  1
  O  O44  1  0.93670859  0.91226131  0.16182137  1
  O  O45  1  0.93670859  0.08773869  0.66182137  1
  O  O46  1  0.98755556  0.40669806  0.39694457  1
  O  O47  1  0.98755556  0.59330194  0.89694457  1
loop_
_geom_bond_atom_site_label_1
_geom_bond_atom_site_label_2
_geom_bond_distance
_geom_bond_site_symmetry_2
Li0 O44 2.181190 1_545
Li0 O40 2.264961 1_555
Li0 O9 2.265039 1_655
Li0 O3 2.270036 1_654
Li0 O38 2.273749 1_544
Li0 O7 2.302388 1_644
Li1 O44 2.080365 1_545
Li1 O2 2.094389 1_645
Li1 O32 2.397551 1_555
Li1 O13 2.399813 1_655
Li1 O40 2.445677 1_555
Li1 O6 2.503462 1_655
Li2 O45 2.181190 1_565
Li2 O41 2.264961 1_555
Li2 O12 2.265039 1_655
Li2 O2 2.270036 1_655
Li2 O35 2.273749 1_565
Li2 O6 2.302388 1_665
Li3 O45 2.080365 1_565
Li3 O3 2.094389 1_665
Li3 O34 2.397551 1_555
Li3 O15 2.399813 1_655
Li3 O41 2.445677 1_555
Li3 O7 2.503462 1_655
Li4 O14 2.045048 1_554
Li4 O7 2.158642 1_554
Li4 O9 2.364000 1_565
Li4 O4 2.373800 1_555
Li4 O23 2.443708 1_554
Li4 O20 2.599655 1_555
Li5 O10 2.045048 1_555
Li5 O6 2.158642 1_555
Li5 O12 2.364000 1_545
Li5 O5 2.373800 1_555
Li5 O22 2.443708 1_555
Li5 O21 2.599655 1_555
Li6 O31 2.193774 1_555
Li6 O33 2.229005 1_556
Li6 O27 2.254969 1_555
Li6 O20 2.293917 1_556
Li6 O14 2.318497 1_555
Li6 O16 2.383514 1_556
Li7 O36 2.124962 1_555
Li7 O26 2.157926 1_555
Li7 O20 2.187252 1_555
Li7 O8 2.225050 1_555
Li7 O30 2.428206 1_555
Li7 O16 2.588288 1_555
Li8 O30 2.193774 1_555
Li8 O37 2.229005 1_555
Li8 O26 2.254969 1_555
Li8 O21 2.293917 1_555
Li8 O10 2.318497 1_555
Li8 O17 2.383514 1_555
Li9 O39 2.124962 1_555
Li9 O27 2.157926 1_555
Li9 O21 2.187252 1_555
Li9 O11 2.225050 1_555
Li9 O31 2.428206 1_555
Li9 O17 2.588288 1_555
Li10 O37 2.043102 1_555
Li10 O41 2.212126 1_555
Li10 O42 2.222100 1_555
Li10 O35 2.350767 1_565
Li10 O25 2.490722 1_555
Li10 O26 2.543261 1_555
Li11 O33 2.043102 1_556
Li11 O40 2.212126 1_556
Li11 O43 2.222100 1_555
Li11 O38 2.350767 1_545
Li11 O24 2.490722 1_556
Li11 O27 2.543261 1_555
Mn0 O46 1.971191 1_555
Mn0 O36 2.048550 1_555
Mn0 O37 2.089764 1_555
Mn0 O42 2.106011 1_555
Mn0 O26 2.128454 1_555
Mn0 O30 2.189209 1_555
Mn1 O47 1.971191 1_555
Mn1 O39 2.048550 1_555
Mn1 O33 2.089764 1_556
Mn1 O43 2.106011 1_555
Mn1 O27 2.128454 1_555
Mn1 O31 2.189209 1_555
O0 P10 1.525093 1_455
O0 V0 1.969948 1_555
O1 P11 1.525093 1_455
O1 V1 1.969948 1_555
O2 P0 1.579354 1_555
O2 V2 1.995612 1_555
O3 P1 1.579354 1_555
O3 V3 1.995612 1_555
O4 P0 1.542134 1_555
O4 V0 2.023087 1_555
O5 P1 1.542134 1_555
O5 V1 2.023087 1_555
O6 P2 1.583702 1_555
O6 V2 2.068213 1_545
O7 P3 1.583702 1_555
O7 V3 2.068213 1_565
O8 P2 1.543920 1_555
O8 V0 2.047395 1_555
O9 P4 1.565252 1_555
O9 V3 2.053349 1_554
O10 P2 1.561360 1_555
O10 V1 2.052679 1_555
O11 P3 1.543920 1_555
O11 V1 2.047395 1_555
O12 P5 1.565252 1_555
O12 V2 2.053349 1_555
O13 P4 1.550616 1_555
O13 V2 1.998229 1_545
O14 P3 1.561360 1_555
O14 V0 2.052679 1_556
O15 P5 1.550616 1_555
O15 V3 1.998229 1_565
O16 P4 1.554152 1_555
O16 V0 2.039317 1_555
O17 P5 1.554152 1_555
O17 V1 2.039317 1_555
O18 P6 1.542282 1_555
O18 V2 1.930476 1_555
O19 P7 1.542282 1_555
O19 V3 1.930476 1_555
O20 P6 1.561242 1_555
O20 V0 2.075601 1_555
O21 P7 1.561242 1_555
O21 V1 2.075601 1_555
O22 P8 1.557916 1_555
O22 V2 1.942990 1_545
O23 P9 1.557916 1_555
O23 V3 1.942990 1_565
O24 P4 1.540338 1_555
O24 V4 2.018671 1_545
O25 P5 1.540338 1_555
O25 V5 2.018671 1_565
O26 P6 1.558414 1_555
O27 P7 1.558414 1_555
O28 P6 1.523920 1_555
O28 V4 1.966462 1_555
O29 P7 1.523920 1_555
O29 V5 1.966462 1_555
O30 P8 1.534109 1_555
O31 P9 1.534109 1_555
O32 P8 1.552294 1_555
O32 V4 1.996039 1_545
O33 P10 1.555076 1_555
O34 P9 1.552294 1_555
O34 V5 1.996039 1_565
O35 P8 1.564916 1_555
O35 V5 2.045405 1_555
O36 P10 1.543598 1_555
O37 P11 1.555076 1_555
O38 P9 1.564916 1_555
O38 V4 2.045405 1_556
O39 P11 1.543598 1_555
O40 P10 1.577515 1_555
O40 V4 2.082735 1_545
O41 P11 1.577515 1_555
O41 V5 2.082735 1_565
O42 P0 1.518702 1_655
O43 P1 1.518702 1_655
O44 P0 1.572212 1_655
O44 V4 2.058919 1_555
O45 P1 1.572212 1_655
O45 V5 2.058919 1_555
O46 P2 1.513923 1_655
O47 P3 1.513923 1_655
