# generated using pymatgen
data_Na4AsP(H15O11)2
_symmetry_space_group_name_H-M   'P 1'
_cell_length_a   9.38133839
_cell_length_b   10.56005469
_cell_length_c   11.03902152
_cell_angle_alpha   90.00000000
_cell_angle_beta   90.00000000
_cell_angle_gamma   95.79285457
_symmetry_Int_Tables_number   1
_chemical_formula_structural   Na4AsP(H15O11)2
_chemical_formula_sum   'Na8 As2 P2 H60 O44'
_cell_volume   1088.02295218
_cell_formula_units_Z   2
loop_
 _symmetry_equiv_pos_site_id
 _symmetry_equiv_pos_as_xyz
  1  'x, y, z'
loop_
 _atom_site_type_symbol
 _atom_site_label
 _atom_site_symmetry_multiplicity
 _atom_site_fract_x
 _atom_site_fract_y
 _atom_site_fract_z
 _atom_site_occupancy
  Na  Na0  1  0.64395884  0.47699712  0.39642245  1
  Na  Na1  1  0.14395884  0.97699712  0.10357755  1
  Na  Na2  1  0.35592587  0.52295910  0.60385520  1
  Na  Na3  1  0.85592587  0.02295910  0.89614480  1
  Na  Na4  1  0.63315603  0.47701785  0.10426506  1
  Na  Na5  1  0.13315603  0.97701785  0.39573494  1
  Na  Na6  1  0.36743125  0.52279852  0.89468228  1
  Na  Na7  1  0.86743125  0.02279852  0.60531772  1
  As  As0  1  0.60490440  0.89415758  0.23668216  1
  As  As1  1  0.10490440  0.39415758  0.26331784  1
  P  P0  1  0.39553813  0.10539575  0.76393746  1
  P  P1  1  0.89553813  0.60539575  0.73606254  1
  H  H0  1  0.40675441  0.08343707  0.25225887  1
  H  H1  1  0.90675441  0.58343707  0.24774113  1
  H  H2  1  0.59407059  0.91771598  0.74887658  1
  H  H3  1  0.09407059  0.41771598  0.75112342  1
  H  H4  1  0.39321377  0.50120780  0.25574811  1
  H  H5  1  0.89321377  0.00120780  0.24425189  1
  H  H6  1  0.61225197  0.49543556  0.74371981  1
  H  H7  1  0.11225197  0.99543556  0.75628019  1
  H  H8  1  0.65012958  0.64663616  0.89196306  1
  H  H9  1  0.15012958  0.14663616  0.60803694  1
  H  H10  1  0.35555423  0.35088119  0.10774797  1
  H  H11  1  0.85555423  0.85088119  0.39225203  1
  H  H12  1  0.83504240  0.39569113  0.59278379  1
  H  H13  1  0.33504240  0.89569113  0.90721621  1
  H  H14  1  0.16257665  0.60907563  0.40819001  1
  H  H15  1  0.66257665  0.10907563  0.09180999  1
  H  H16  1  0.46203594  0.87022312  0.05524352  1
  H  H17  1  0.96203594  0.37022312  0.44475648  1
  H  H18  1  0.53348981  0.12670257  0.93269012  1
  H  H19  1  0.03348981  0.62670257  0.56730988  1
  H  H20  1  0.76768645  0.27896048  0.50960554  1
  H  H21  1  0.26768645  0.77896048  0.99039446  1
  H  H22  1  0.23158419  0.72184612  0.49330935  1
  H  H23  1  0.73158419  0.22184612  0.00669065  1
  H  H24  1  0.36335402  0.33161621  0.40956026  1
  H  H25  1  0.86335402  0.83161621  0.09043974  1
  H  H26  1  0.64115553  0.66760392  0.58979161  1
  H  H27  1  0.14115553  0.16760392  0.91020839  1
  H  H28  1  0.46738896  0.64467440  0.27583006  1
  H  H29  1  0.96738896  0.14467440  0.22416994  1
  H  H30  1  0.52967388  0.35458581  0.72785818  1
  H  H31  1  0.02967388  0.85458581  0.77214182  1
  H  H32  1  0.29221574  0.18377263  0.24961069  1
  H  H33  1  0.79221574  0.68377263  0.25038931  1
  H  H34  1  0.70816062  0.81538017  0.75016625  1
  H  H35  1  0.20816062  0.31538017  0.74983375  1
  H  H36  1  0.28995622  0.81223524  0.26649908  1
  H  H37  1  0.78995622  0.31223524  0.23350092  1
  H  H38  1  0.70851027  0.18800285  0.73641712  1
  H  H39  1  0.20851027  0.68800285  0.76358288  1
  H  H40  1  0.58825018  0.71682419  0.00583547  1
  H  H41  1  0.08825018  0.21682419  0.49416453  1
  H  H42  1  0.41079808  0.28200672  0.99030270  1
  H  H43  1  0.91079808  0.78200672  0.50969730  1
  H  H44  1  0.43219860  0.28062247  0.53080194  1
  H  H45  1  0.93219860  0.78062247  0.96919806  1
  H  H46  1  0.56496204  0.71786708  0.47141724  1
  H  H47  1  0.06496204  0.21786708  0.02858276  1
  H  H48  1  0.85258134  0.41425985  0.91701182  1
  H  H49  1  0.35258134  0.91425985  0.58298818  1
  H  H50  1  0.14606226  0.59288246  0.08116716  1
  H  H51  1  0.64606226  0.09288246  0.41883284  1
  H  H52  1  0.89346856  0.37378266  0.05277814  1
  H  H53  1  0.39346856  0.87378266  0.44722186  1
  H  H54  1  0.10260472  0.62388260  0.94353974  1
  H  H55  1  0.60260472  0.12388260  0.55646026  1
  H  H56  1  0.14860507  0.72514951  0.24271065  1
  H  H57  1  0.64860507  0.22514951  0.25728935  1
  H  H58  1  0.84984966  0.27700032  0.75737948  1
  H  H59  1  0.34984966  0.77700032  0.74262052  1
  O  O0  1  0.48252415  0.80636700  0.32628514  1
  O  O1  1  0.98252415  0.30636700  0.17371486  1
  O  O2  1  0.50711958  0.18347128  0.68348371  1
  O  O3  1  0.00711958  0.68347128  0.81651629  1
  O  O4  1  0.81312353  0.38222032  0.99558880  1
  O  O5  1  0.31312353  0.88222032  0.50441120  1
  O  O6  1  0.18408591  0.61904209  0.00013040  1
  O  O7  1  0.68408591  0.11904209  0.49986960  1
  O  O8  1  0.81328066  0.36886687  0.50852654  1
  O  O9  1  0.31328066  0.86886687  0.99147346  1
  O  O10  1  0.18663871  0.63194202  0.49284158  1
  O  O11  1  0.68663871  0.13194202  0.00715842  1
  O  O12  1  0.30264388  0.09115679  0.25146356  1
  O  O13  1  0.80264388  0.59115679  0.24853644  1
  O  O14  1  0.69750276  0.90773216  0.74770315  1
  O  O15  1  0.19750276  0.40773216  0.75229685  1
  O  O16  1  0.77554490  0.85170625  0.24945862  1
  O  O17  1  0.27554490  0.35170625  0.25054138  1
  O  O18  1  0.24188122  0.14413897  0.74981792  1
  O  O19  1  0.74188122  0.64413897  0.75018208  1
  O  O20  1  0.18716001  0.81524667  0.24955329  1
  O  O21  1  0.68716001  0.31524667  0.25044671  1
  O  O22  1  0.81223534  0.18687494  0.74913154  1
  O  O23  1  0.31223534  0.68687494  0.75086846  1
  O  O24  1  0.58722834  0.63403796  0.96386138  1
  O  O25  1  0.08722834  0.13403796  0.53613862  1
  O  O26  1  0.41315366  0.36446217  0.03268785  1
  O  O27  1  0.91315366  0.86446217  0.46731215  1
  O  O28  1  0.59818192  0.05453293  0.25627908  1
  O  O29  1  0.09818192  0.55453293  0.24372092  1
  O  O30  1  0.40099020  0.95990790  0.74940536  1
  O  O31  1  0.90099020  0.45990790  0.75059464  1
  O  O32  1  0.48446931  0.55620695  0.25451915  1
  O  O33  1  0.98446931  0.05620695  0.24548085  1
  O  O34  1  0.51797138  0.44520184  0.74361102  1
  O  O35  1  0.01797138  0.94520184  0.75638898  1
  O  O36  1  0.56443235  0.85773899  0.08275834  1
  O  O37  1  0.06443235  0.35773899  0.41724166  1
  O  O38  1  0.43386660  0.14097196  0.90372476  1
  O  O39  1  0.93386660  0.64097196  0.59627524  1
  O  O40  1  0.42690611  0.35533265  0.47860954  1
  O  O41  1  0.92690611  0.85533265  0.02139046  1
  O  O42  1  0.57395926  0.64355347  0.52350583  1
  O  O43  1  0.07395926  0.14355347  0.97649417  1
loop_
_geom_bond_atom_site_label_1
_geom_bond_atom_site_label_2
_geom_bond_distance
_geom_bond_site_symmetry_2
Na0 O32 2.375886 1_555
Na0 O8 2.392628 1_555
Na0 O42 2.392905 1_555
Na0 O21 2.412113 1_555
Na0 O13 2.443830 1_555
Na0 O40 2.468195 1_555
Na1 O33 2.375886 1_465
Na1 O9 2.392628 1_554
Na1 O43 2.392905 1_564
Na1 O20 2.412113 1_555
Na1 O12 2.443830 1_565
Na1 O41 2.468195 1_455
Na2 O34 2.370100 1_555
Na2 O10 2.391117 1_555
Na2 O40 2.392972 1_555
Na2 O23 2.437455 1_555
Na2 O15 2.451444 1_555
Na2 O42 2.463029 1_555
Na3 O35 2.370100 1_645
Na3 O11 2.391117 1_556
Na3 O41 2.392972 1_546
Na3 O22 2.437455 1_555
Na3 O14 2.451444 1_545
Na3 O43 2.463029 1_655
Na4 O24 2.341269 1_554
Na4 O32 2.373100 1_555
Na4 O4 2.373399 1_554
Na4 O26 2.408657 1_555
Na4 O21 2.440031 1_555
Na4 O13 2.475986 1_555
Na5 O25 2.341269 1_565
Na5 O33 2.373100 1_465
Na5 O5 2.373399 1_555
Na5 O27 2.408657 1_455
Na5 O20 2.440031 1_555
Na5 O12 2.475986 1_565
Na6 O26 2.333532 1_556
Na6 O34 2.383426 1_555
Na6 O6 2.387323 1_556
Na6 O24 2.392895 1_555
Na6 O23 2.443705 1_555
Na6 O15 2.469279 1_555
Na7 O27 2.333532 1_545
Na7 O35 2.383426 1_645
Na7 O7 2.387323 1_555
Na7 O25 2.392895 1_655
Na7 O22 2.443705 1_555
Na7 O14 2.469279 1_545
As0 O16 1.711256 1_555
As0 O28 1.714796 1_565
As0 O0 1.714962 1_555
As0 O36 1.774756 1_555
As1 O17 1.711256 1_555
As1 O29 1.714796 1_555
As1 O1 1.714962 1_455
As1 O37 1.774756 1_555
H0 O12 0.988297 1_555
H1 O13 0.988297 1_555
H2 O14 0.986650 1_555
H3 O15 0.986650 1_555
H4 O32 0.984907 1_555
H5 O33 0.984907 1_555
H6 O34 0.984373 1_555
H7 O35 0.984373 1_555
H8 O24 0.989953 1_555
H9 O25 0.989953 1_555
H10 O26 0.991703 1_555
H11 O27 0.991703 1_555
H12 O8 0.987605 1_555
H13 O9 0.987605 1_555
H14 O10 0.985645 1_555
H15 O11 0.985645 1_555
H16 O36 1.028583 1_555
H16 O9 1.561799 1_554
H17 O37 1.028583 1_655
H17 O8 1.561799 1_555
H18 O38 1.013336 1_555
H19 O39 1.013336 1_455
H20 O8 1.001256 1_555
H21 O9 1.001256 1_555
H22 O10 0.999175 1_555
H23 O11 0.999175 1_555
H24 O40 0.984401 1_555
H25 O41 0.984401 1_555
H26 O42 0.982347 1_555
H27 O43 0.982347 1_555
H28 O32 0.991971 1_555
H29 O33 0.991971 1_555
H30 O34 0.989533 1_555
H31 O35 0.989533 1_555
H32 O12 0.992896 1_555
H33 O13 0.992896 1_555
H34 O14 0.990715 1_555
H35 O15 0.990715 1_555
H36 O20 0.986001 1_555
H37 O21 0.986001 1_555
H38 O22 0.984411 1_555
H39 O23 0.984411 1_555
H40 O24 0.988620 1_554
H41 O25 0.988620 1_555
H42 O26 0.986764 1_556
H43 O27 0.986764 1_555
H44 O40 0.982220 1_555
H45 O41 0.982220 1_556
H46 O42 0.983346 1_555
H47 O43 0.983346 1_554
H48 O4 0.989252 1_555
H49 O5 0.989252 1_555
H50 O6 0.991924 1_555
H51 O7 0.991924 1_555
H52 O4 0.994075 1_554
H53 O5 0.994075 1_555
H54 O6 0.992506 1_556
H55 O7 0.992506 1_555
H56 O20 0.986044 1_555
H57 O21 0.986044 1_555
H58 O22 0.985293 1_555
H59 O23 0.985293 1_555
O2 P0 1.545989 1_555
O3 P1 1.545989 1_455
O18 P0 1.545535 1_555
O19 P1 1.545535 1_555
O30 P0 1.550682 1_565
O31 P1 1.550682 1_555
O38 P0 1.619990 1_555
O39 P1 1.619990 1_555
