# generated using pymatgen
data_Zn3Cu2(Si2O7)2
_symmetry_space_group_name_H-M   'P 1'
_cell_length_a   9.53205853
_cell_length_b   9.53205853
_cell_length_c   9.97651517
_cell_angle_alpha   58.79366050
_cell_angle_beta   58.79366050
_cell_angle_gamma   47.50249519
_symmetry_Int_Tables_number   1
_chemical_formula_structural   Zn3Cu2(Si2O7)2
_chemical_formula_sum   'Zn6 Cu4 Si8 O28'
_cell_volume   550.95660112
_cell_formula_units_Z   2
loop_
 _symmetry_equiv_pos_site_id
 _symmetry_equiv_pos_as_xyz
  1  'x, y, z'
loop_
 _atom_site_type_symbol
 _atom_site_label
 _atom_site_symmetry_multiplicity
 _atom_site_fract_x
 _atom_site_fract_y
 _atom_site_fract_z
 _atom_site_occupancy
  Zn  Zn0  1  0.23560100  0.06130900  0.56977400  1
  Zn  Zn1  1  0.93869100  0.76439900  0.93022600  1
  Zn  Zn2  1  0.06130900  0.23560100  0.06977400  1
  Zn  Zn3  1  0.61236700  0.38763300  0.25000000  1
  Zn  Zn4  1  0.76439900  0.93869100  0.43022600  1
  Zn  Zn5  1  0.38763300  0.61236700  0.75000000  1
  Cu  Cu0  1  0.22555700  0.77444300  0.25000000  1
  Cu  Cu1  1  0.77444300  0.22555700  0.75000000  1
  Cu  Cu2  1  0.00000000  0.00000000  0.00000000  1
  Cu  Cu3  1  0.00000000  0.00000000  0.50000000  1
  Si  Si0  1  0.06057400  0.57079800  0.67405900  1
  Si  Si1  1  0.57079800  0.06057400  0.17405900  1
  Si  Si2  1  0.25910300  0.50412900  0.13092000  1
  Si  Si3  1  0.50412900  0.25910300  0.63092000  1
  Si  Si4  1  0.42920200  0.93942600  0.82594100  1
  Si  Si5  1  0.74089700  0.49587100  0.86908000  1
  Si  Si6  1  0.49587100  0.74089700  0.36908000  1
  Si  Si7  1  0.93942600  0.42920200  0.32594100  1
  O  O0  1  0.33213800  0.80629100  0.53855900  1
  O  O1  1  0.88394500  0.99463900  0.71621000  1
  O  O2  1  0.63915900  0.45667200  0.81164500  1
  O  O3  1  0.99463900  0.88394500  0.21621000  1
  O  O4  1  0.02913800  0.20803600  0.45893900  1
  O  O5  1  0.50414200  0.07248400  0.78723200  1
  O  O6  1  0.45667200  0.63915900  0.31164500  1
  O  O7  1  0.79196400  0.97086200  0.04106100  1
  O  O8  1  0.49585800  0.92751600  0.21276800  1
  O  O9  1  0.71061000  0.58559200  0.41072900  1
  O  O10  1  0.11605500  0.00536100  0.28379000  1
  O  O11  1  0.97086200  0.79196400  0.54106100  1
  O  O12  1  0.92751600  0.49585800  0.71276800  1
  O  O13  1  0.80629100  0.33213800  0.03855900  1
  O  O14  1  0.58559200  0.71061000  0.91072900  1
  O  O15  1  0.20803600  0.02913800  0.95893900  1
  O  O16  1  0.43610000  0.94068600  0.66172400  1
  O  O17  1  0.28939000  0.41440800  0.58927100  1
  O  O18  1  0.05931400  0.56390000  0.83827600  1
  O  O19  1  0.41440800  0.28939000  0.08927100  1
  O  O20  1  0.07248400  0.50414200  0.28723200  1
  O  O21  1  0.00536100  0.11605500  0.78379000  1
  O  O22  1  0.94068600  0.43610000  0.16172400  1
  O  O23  1  0.36084100  0.54332800  0.18835500  1
  O  O24  1  0.56390000  0.05931400  0.33827600  1
  O  O25  1  0.54332800  0.36084100  0.68835500  1
  O  O26  1  0.19370900  0.66786200  0.96144100  1
  O  O27  1  0.66786200  0.19370900  0.46144100  1
loop_
_geom_bond_atom_site_label_1
_geom_bond_atom_site_label_2
_geom_bond_distance
_geom_bond_site_symmetry_2
Cu0 O10 1.829803 1_565
Cu0 O3 1.829803 1_455
Cu0 O23 1.907400 1_555
Cu0 O6 1.907400 1_555
Cu1 O1 1.829803 1_545
Cu1 O21 1.829803 1_655
Cu1 O25 1.907400 1_555
Cu1 O2 1.907400 1_555
Cu2 O3 1.835378 1_445
Cu2 O21 1.835378 1_554
Cu2 O15 1.990419 1_554
Cu2 O7 1.990419 1_445
Cu2 O13 2.491649 1_455
Cu2 O26 2.491649 1_544
Cu3 O1 1.835378 1_445
Cu3 O10 1.835378 1_555
Cu3 O11 1.990419 1_445
Cu3 O4 1.990419 1_555
Cu3 O0 2.491649 1_545
Cu3 O27 2.491649 1_455
O0 Si6 1.651185 1_555
O0 Zn5 1.985206 1_555
O0 Zn0 2.077979 1_565
O1 Zn1 2.097409 1_555
O2 Si5 1.641847 1_555
O2 Zn5 2.025748 1_555
O3 Zn4 2.097409 1_555
O4 Si7 1.666606 1_455
O4 Zn0 1.996343 1_555
O5 Si4 1.642782 1_545
O5 Si3 1.649712 1_555
O6 Si6 1.641847 1_555
O6 Zn3 2.025748 1_555
O7 Si1 1.666606 1_565
O7 Zn1 1.996343 1_554
O8 Si1 1.642782 1_565
O8 Si6 1.649712 1_555
O9 Si7 1.642184 1_555
O9 Si6 1.644316 1_555
O10 Zn2 2.097409 1_555
O11 Si0 1.666606 1_655
O11 Zn4 1.996343 1_555
O12 Si0 1.642782 1_655
O12 Si5 1.649712 1_555
O13 Si5 1.651185 1_554
O13 Zn3 1.985206 1_555
O13 Zn2 2.077979 1_655
O14 Si4 1.642184 1_555
O14 Si5 1.644316 1_555
O15 Si4 1.666606 1_545
O15 Zn2 1.996343 1_556
O16 Si4 1.599246 1_555
O16 Zn0 1.889671 1_565
O17 Si0 1.642184 1_555
O17 Si3 1.644316 1_555
O18 Si0 1.599246 1_555
O18 Zn1 1.889671 1_455
O19 Si1 1.642184 1_555
O19 Si2 1.644316 1_555
O20 Si7 1.642782 1_455
O20 Si2 1.649712 1_555
O21 Zn0 2.097409 1_555
O22 Si7 1.599246 1_555
O22 Zn2 1.889671 1_655
O23 Si2 1.641847 1_555
O23 Zn3 2.025748 1_555
O24 Si1 1.599246 1_555
O24 Zn4 1.889671 1_545
O25 Si3 1.641847 1_555
O25 Zn5 2.025748 1_555
O26 Si2 1.651185 1_556
O26 Zn5 1.985206 1_555
O26 Zn1 2.077979 1_455
O27 Si3 1.651185 1_555
O27 Zn3 1.985206 1_555
O27 Zn4 2.077979 1_545
