# generated using pymatgen
data_MgSi(HO)6
_symmetry_space_group_name_H-M   'P 1'
_cell_length_a   5.20257000
_cell_length_b   5.16175000
_cell_length_c   7.36403967
_cell_angle_alpha   89.91728567
_cell_angle_beta   90.00000000
_cell_angle_gamma   90.00000000
_symmetry_Int_Tables_number   1
_chemical_formula_structural   MgSi(HO)6
_chemical_formula_sum   'Mg2 Si2 H12 O12'
_cell_volume   197.75640834
_cell_formula_units_Z   2
loop_
 _symmetry_equiv_pos_site_id
 _symmetry_equiv_pos_as_xyz
  1  'x, y, z'
loop_
 _atom_site_type_symbol
 _atom_site_label
 _atom_site_symmetry_multiplicity
 _atom_site_fract_x
 _atom_site_fract_y
 _atom_site_fract_z
 _atom_site_occupancy
  Mg  Mg0  1  0.00814900  0.75279400  0.25121800  1
  Mg  Mg1  1  0.50814900  0.24720600  0.74878200  1
  Si  Si0  1  0.50783400  0.25204300  0.24920900  1
  Si  Si1  1  0.00783400  0.74795700  0.75079100  1
  H  H0  1  0.30104400  0.45848400  0.48961300  1
  H  H1  1  0.80104400  0.54151600  0.51038700  1
  H  H2  1  0.20122400  0.96460900  0.98557700  1
  H  H3  1  0.70122400  0.03539100  0.01442300  1
  H  H4  1  0.04469100  0.30358100  0.77377900  1
  H  H5  1  0.54469100  0.69641900  0.22622100  1
  H  H6  1  0.45395000  0.77373300  0.73128600  1
  H  H7  1  0.95395000  0.22626700  0.26871400  1
  H  H8  1  0.35189200  0.93416300  0.44717500  1
  H  H9  1  0.85189200  0.06583700  0.55282500  1
  H  H10  1  0.19190700  0.41225800  0.05106400  1
  H  H11  1  0.69190700  0.58774200  0.94893600  1
  O  O0  1  0.46723400  0.36721800  0.47932500  1
  O  O1  1  0.96723400  0.63278200  0.52067500  1
  O  O2  1  0.03828600  0.86691200  0.98008300  1
  O  O3  1  0.53828600  0.13308800  0.01991700  1
  O  O4  1  0.31085900  0.89076400  0.69081400  1
  O  O5  1  0.81085900  0.10923600  0.30918600  1
  O  O6  1  0.16857700  0.44179300  0.81159500  1
  O  O7  1  0.66857700  0.55820700  0.18840500  1
  O  O8  1  0.34940600  0.94895800  0.31204900  1
  O  O9  1  0.84940600  0.05104200  0.68795100  1
  O  O10  1  0.20594600  0.40217200  0.18685500  1
  O  O11  1  0.70594600  0.59782800  0.81314500  1
loop_
_geom_bond_atom_site_label_1
_geom_bond_atom_site_label_2
_geom_bond_distance
_geom_bond_site_symmetry_2
Mg0 O7 2.084510 1_455
Mg0 O2 2.086809 1_554
Mg0 O1 2.088761 1_455
Mg0 O8 2.092685 1_555
Mg0 O10 2.135775 1_555
Mg0 O5 2.150145 1_465
Mg1 O6 2.084510 1_555
Mg1 O3 2.086809 1_556
Mg1 O0 2.088761 1_555
Mg1 O9 2.092685 1_555
Mg1 O11 2.135775 1_555
Mg1 O4 2.150145 1_545
H0 O0 0.987588 1_555
H1 O1 0.987588 1_555
H2 O2 0.987214 1_555
H3 O3 0.987214 1_555
H4 O6 1.001249 1_555
H5 O7 1.001249 1_555
H6 O4 1.003702 1_555
H7 O5 1.003702 1_555
H8 O8 0.997973 1_555
H9 O9 0.997973 1_555
H10 O10 1.003910 1_555
H11 O11 1.003910 1_555
O0 Si0 1.809025 1_555
O1 Si1 1.809025 1_655
O2 Si1 1.804492 1_555
O3 Si0 1.804492 1_555
O4 Si1 1.795239 1_555
O5 Si0 1.795239 1_555
O6 Si1 1.842631 1_555
O7 Si0 1.842631 1_555
O8 Si0 1.827269 1_565
O9 Si1 1.827269 1_645
O10 Si0 1.810275 1_555
O11 Si1 1.810275 1_655
