# generated using pymatgen
data_Ca3Tl4O9
_symmetry_space_group_name_H-M   'P 1'
_cell_length_a   5.84089887
_cell_length_b   5.84089887
_cell_length_c   12.30824971
_cell_angle_alpha   77.62507103
_cell_angle_beta   77.62507103
_cell_angle_gamma   33.41303080
_symmetry_Int_Tables_number   1
_chemical_formula_structural   Ca3Tl4O9
_chemical_formula_sum   'Ca3 Tl4 O9'
_cell_volume   225.36914377
_cell_formula_units_Z   1
loop_
 _symmetry_equiv_pos_site_id
 _symmetry_equiv_pos_as_xyz
  1  'x, y, z'
loop_
 _atom_site_type_symbol
 _atom_site_label
 _atom_site_symmetry_multiplicity
 _atom_site_fract_x
 _atom_site_fract_y
 _atom_site_fract_z
 _atom_site_occupancy
  Ca  Ca0  1  0.45324141  0.45324141  0.28743484  1
  Ca  Ca1  1  0.55131369  0.55131369  0.70969309  1
  Ca  Ca2  1  0.75804265  0.75804265  0.87206408  1
  Tl  Tl0  1  0.85316309  0.85316309  0.56256557  1
  Tl  Tl1  1  0.15385033  0.15385033  0.43778674  1
  Tl  Tl2  1  0.99727604  0.99727604  0.99846382  1
  Tl  Tl3  1  0.23666274  0.23666274  0.12711382  1
  O  O0  1  0.81136377  0.81136377  0.39792015  1
  O  O1  1  0.19480405  0.19480405  0.60259411  1
  O  O2  1  0.90702966  0.90702966  0.71507064  1
  O  O3  1  0.10059984  0.10059984  0.27975213  1
  O  O4  1  0.87418163  0.87418163  0.16204036  1
  O  O5  1  0.11955497  0.11955497  0.83955388  1
  O  O6  1  0.62249557  0.62249557  0.06146265  1
  O  O7  1  0.36107178  0.36107178  0.95613831  1
  O  O8  1  0.50534779  0.50534779  0.49034683  1
loop_
_geom_bond_atom_site_label_1
_geom_bond_atom_site_label_2
_geom_bond_distance
_geom_bond_site_symmetry_2
Ca0 O3 2.340269 1_565
Ca0 O3 2.340269 1_655
Ca0 O0 2.494489 1_545
Ca0 O0 2.494489 1_455
Ca0 O4 2.568031 1_455
Ca0 O4 2.568031 1_545
Ca0 O8 2.688670 1_555
Ca0 O6 2.994150 1_555
Ca1 O2 2.319915 1_545
Ca1 O2 2.319915 1_455
Ca1 O1 2.487455 1_565
Ca1 O1 2.487455 1_655
Ca1 O5 2.550133 1_565
Ca1 O5 2.550133 1_655
Ca1 O8 2.859127 1_555
Ca2 O2 2.251926 1_555
Ca2 O5 2.378620 1_655
Ca2 O5 2.378620 1_565
Ca2 O7 2.398503 1_655
Ca2 O7 2.398503 1_565
Ca2 O6 2.480377 1_556
O0 Tl0 2.179344 1_555
O0 Tl1 2.403965 1_655
O0 Tl1 2.403965 1_565
O1 Tl1 2.177313 1_555
O1 Tl0 2.410557 1_455
O1 Tl0 2.410557 1_545
O2 Tl0 2.095925 1_555
O3 Tl3 2.137113 1_555
O3 Tl1 2.158039 1_555
O4 Tl2 2.170142 1_554
O4 Tl3 2.380668 1_565
O4 Tl3 2.380668 1_655
O5 Tl2 2.121289 1_445
O6 Tl3 2.359210 1_655
O6 Tl3 2.359210 1_565
O6 Tl2 2.422736 1_544
O6 Tl2 2.422736 1_454
O7 Tl3 2.248392 1_556
O7 Tl2 2.401749 1_545
O7 Tl2 2.401749 1_455
O8 Tl1 2.348947 1_565
O8 Tl1 2.348947 1_655
O8 Tl0 2.414842 1_545
O8 Tl0 2.414842 1_455
