# generated using pymatgen
data_Li9Co7O16
_symmetry_space_group_name_H-M   'P 1'
_cell_length_a   5.88608746
_cell_length_b   5.88608746
_cell_length_c   9.69806125
_cell_angle_alpha   81.29724287
_cell_angle_beta   81.29724287
_cell_angle_gamma   59.26256740
_symmetry_Int_Tables_number   1
_chemical_formula_structural   Li9Co7O16
_chemical_formula_sum   'Li9 Co7 O16'
_cell_volume   284.38847809
_cell_formula_units_Z   1
loop_
 _symmetry_equiv_pos_site_id
 _symmetry_equiv_pos_as_xyz
  1  'x, y, z'
loop_
 _atom_site_type_symbol
 _atom_site_label
 _atom_site_symmetry_multiplicity
 _atom_site_fract_x
 _atom_site_fract_y
 _atom_site_fract_z
 _atom_site_occupancy
  Li  Li0  1  0.50000000  0.00000000  0.00000000  1
  Li  Li1  1  0.00000000  0.50000000  0.00000000  1
  Li  Li2  1  0.12385900  0.12385900  0.24912200  1
  Li  Li3  1  0.62289500  0.62289500  0.24722200  1
  Li  Li4  1  0.74987400  0.25012600  0.50000000  1
  Li  Li5  1  0.25012600  0.74987400  0.50000000  1
  Li  Li6  1  0.37710500  0.37710500  0.75277800  1
  Li  Li7  1  0.87614100  0.87614100  0.75087800  1
  Li  Li8  1  0.50000000  0.50000000  0.00000000  1
  Co  Co0  1  0.00000000  0.00000000  0.00000000  1
  Co  Co1  1  0.62266600  0.13225700  0.24355000  1
  Co  Co2  1  0.13225700  0.62266600  0.24355000  1
  Co  Co3  1  0.25120100  0.25120100  0.49987400  1
  Co  Co4  1  0.74879900  0.74879900  0.50012600  1
  Co  Co5  1  0.86774300  0.37733400  0.75645000  1
  Co  Co6  1  0.37733400  0.86774300  0.75645000  1
  O  O0  1  0.72196000  0.17778600  0.88082200  1
  O  O1  1  0.17778600  0.72196000  0.88082200  1
  O  O2  1  0.31521300  0.31521300  0.13835200  1
  O  O3  1  0.82646500  0.82646500  0.11838100  1
  O  O4  1  0.94489000  0.44634300  0.37872200  1
  O  O5  1  0.44634300  0.94489000  0.37872200  1
  O  O6  1  0.56897400  0.56897400  0.62730400  1
  O  O7  1  0.07264400  0.07264400  0.63064800  1
  O  O8  1  0.27804000  0.82221400  0.11917800  1
  O  O9  1  0.82221400  0.27804000  0.11917800  1
  O  O10  1  0.92735600  0.92735600  0.36935200  1
  O  O11  1  0.43102600  0.43102600  0.37269600  1
  O  O12  1  0.55365700  0.05511000  0.62127800  1
  O  O13  1  0.05511000  0.55365700  0.62127800  1
  O  O14  1  0.17353500  0.17353500  0.88161900  1
  O  O15  1  0.68478700  0.68478700  0.86164800  1
loop_
_geom_bond_atom_site_label_1
_geom_bond_atom_site_label_2
_geom_bond_distance
_geom_bond_site_symmetry_2
Li0 O3 2.088131 1_545
Li0 O14 2.088131 1_554
Li0 O2 2.162076 1_555
Li0 O15 2.162076 1_544
Li0 O8 2.170807 1_545
Li0 O0 2.170807 1_554
Li1 O3 2.088131 1_455
Li1 O14 2.088131 1_554
Li1 O2 2.162076 1_555
Li1 O15 2.162076 1_454
Li1 O9 2.170807 1_455
Li1 O1 2.170807 1_554
Li2 O9 2.061082 1_455
Li2 O8 2.061082 1_545
Li2 O2 2.062940 1_555
Li2 O5 2.137704 1_545
Li2 O4 2.137704 1_455
Li2 O10 2.141595 1_445
Li3 O11 2.122182 1_555
Li3 O4 2.148371 1_555
Li3 O5 2.148371 1_555
Li3 O8 2.219526 1_555
Li3 O9 2.219526 1_555
Li3 O3 2.234787 1_555
Li4 O6 2.107343 1_555
Li4 O11 2.107343 1_555
Li4 O12 2.137861 1_555
Li4 O4 2.137861 1_555
Li4 O7 2.145984 1_655
Li4 O10 2.145984 1_545
Li5 O6 2.107343 1_555
Li5 O11 2.107343 1_555
Li5 O13 2.137861 1_555
Li5 O5 2.137861 1_555
Li5 O7 2.145984 1_565
Li5 O10 2.145984 1_455
Li6 O6 2.122182 1_555
Li6 O13 2.148371 1_555
Li6 O12 2.148371 1_555
Li6 O0 2.219526 1_555
Li6 O1 2.219526 1_555
Li6 O14 2.234787 1_555
Li7 O0 2.061082 1_565
Li7 O1 2.061082 1_655
Li7 O15 2.062940 1_555
Li7 O12 2.137704 1_565
Li7 O13 2.137704 1_655
Li7 O7 2.141595 1_665
Li8 O8 2.076846 1_555
Li8 O9 2.076846 1_555
Li8 O1 2.076846 1_554
Li8 O0 2.076846 1_554
Li8 O15 2.119525 1_554
Li8 O2 2.119525 1_555
Co0 O9 1.888136 1_455
Co0 O8 1.888136 1_545
Co0 O0 1.888136 1_454
Co0 O1 1.888136 1_544
Co0 O3 1.939462 1_445
Co0 O14 1.939462 1_554
Co1 O2 1.926045 1_555
Co1 O9 1.964453 1_555
Co1 O11 2.035909 1_555
Co1 O10 2.040907 1_545
Co1 O3 2.040999 1_545
Co1 O5 2.081516 1_545
Co2 O2 1.926045 1_555
Co2 O8 1.964453 1_555
Co2 O11 2.035909 1_555
Co2 O10 2.040907 1_455
Co2 O3 2.040999 1_455
Co2 O4 2.081516 1_455
Co3 O13 2.002611 1_555
Co3 O12 2.002611 1_555
Co3 O4 2.016497 1_455
Co3 O5 2.016497 1_545
Co3 O11 2.029047 1_555
Co3 O7 2.034718 1_555
Co4 O4 2.002611 1_555
Co4 O5 2.002611 1_555
Co4 O12 2.016497 1_565
Co4 O13 2.016497 1_655
Co4 O6 2.029047 1_555
Co4 O10 2.034718 1_555
Co5 O15 1.926045 1_555
Co5 O0 1.964453 1_555
Co5 O6 2.035909 1_555
Co5 O7 2.040907 1_655
Co5 O14 2.040999 1_655
Co5 O13 2.081516 1_655
Co6 O15 1.926045 1_555
Co6 O1 1.964453 1_555
Co6 O6 2.035909 1_555
Co6 O7 2.040907 1_565
Co6 O14 2.040999 1_565
Co6 O12 2.081516 1_565
