# generated using pymatgen
data_CsTb(MoO4)2
_symmetry_space_group_name_H-M   'P 1'
_cell_length_a   7.62993498
_cell_length_b   7.62993498
_cell_length_c   7.83568869
_cell_angle_alpha   62.02769684
_cell_angle_beta   62.02769684
_cell_angle_gamma   88.58337669
_symmetry_Int_Tables_number   1
_chemical_formula_structural   CsTb(MoO4)2
_chemical_formula_sum   'Cs2 Tb2 Mo4 O16'
_cell_volume   344.47335996
_cell_formula_units_Z   2
loop_
 _symmetry_equiv_pos_site_id
 _symmetry_equiv_pos_as_xyz
  1  'x, y, z'
loop_
 _atom_site_type_symbol
 _atom_site_label
 _atom_site_symmetry_multiplicity
 _atom_site_fract_x
 _atom_site_fract_y
 _atom_site_fract_z
 _atom_site_occupancy
  Cs  Cs0  1  0.19591800  0.80408200  0.75000000  1
  Cs  Cs1  1  0.80408200  0.19591800  0.25000000  1
  Tb  Tb0  1  0.77118700  0.22881300  0.75000000  1
  Tb  Tb1  1  0.22881300  0.77118700  0.25000000  1
  Mo  Mo0  1  0.69478600  0.69257800  0.76645900  1
  Mo  Mo1  1  0.30521400  0.30742200  0.23354100  1
  Mo  Mo2  1  0.30742200  0.30521400  0.73354100  1
  Mo  Mo3  1  0.69257800  0.69478600  0.26645900  1
  O  O0  1  0.61532700  0.75872000  0.56842400  1
  O  O1  1  0.38467300  0.24128000  0.43157600  1
  O  O2  1  0.24128000  0.38467300  0.93157600  1
  O  O3  1  0.75872000  0.61532700  0.06842400  1
  O  O4  1  0.37918400  0.06878000  0.87694500  1
  O  O5  1  0.62081600  0.93122000  0.12305500  1
  O  O6  1  0.93122000  0.62081600  0.62305500  1
  O  O7  1  0.06878000  0.37918400  0.37694500  1
  O  O8  1  0.58454700  0.37037800  0.96627700  1
  O  O9  1  0.41545300  0.62962200  0.03372300  1
  O  O10  1  0.62962200  0.41545300  0.53372300  1
  O  O11  1  0.37037800  0.58454700  0.46627700  1
  O  O12  1  0.78499000  0.94614200  0.70151500  1
  O  O13  1  0.21501000  0.05385800  0.29848500  1
  O  O14  1  0.05385800  0.21501000  0.79848500  1
  O  O15  1  0.94614200  0.78499000  0.20151500  1
loop_
_geom_bond_atom_site_label_1
_geom_bond_atom_site_label_2
_geom_bond_distance
_geom_bond_site_symmetry_2
Cs0 O3 2.913059 1_456
Cs0 O1 2.913059 1_565
Cs0 O2 2.919003 1_555
Cs0 O0 2.919003 1_555
Cs0 O13 3.061919 1_565
Cs0 O15 3.061919 1_456
Cs0 O9 3.182310 1_556
Cs0 O11 3.182310 1_555
Cs0 O6 3.217541 1_455
Cs0 O4 3.217541 1_565
Cs0 O12 3.422385 1_455
Cs0 O14 3.422385 1_565
Cs1 O0 2.913059 1_545
Cs1 O2 2.913059 1_654
Cs1 O1 2.919003 1_555
Cs1 O3 2.919003 1_555
Cs1 O14 3.061919 1_654
Cs1 O12 3.061919 1_545
Cs1 O10 3.182310 1_555
Cs1 O8 3.182310 1_554
Cs1 O5 3.217541 1_545
Cs1 O7 3.217541 1_655
Cs1 O15 3.422385 1_545
Cs1 O13 3.422385 1_655
Mo0 O0 1.778460 1_555
Mo0 O12 1.813653 1_555
Mo0 O6 1.855670 1_555
Mo0 O9 2.019589 1_556
Mo0 O8 2.111522 1_555
Mo0 O3 2.438048 1_556
Mo1 O1 1.778460 1_555
Mo1 O13 1.813653 1_555
Mo1 O7 1.855670 1_555
Mo1 O8 2.019589 1_554
Mo1 O9 2.111522 1_555
Mo1 O2 2.438048 1_554
Mo2 O2 1.778460 1_555
Mo2 O14 1.813653 1_555
Mo2 O4 1.855670 1_555
Mo2 O11 2.019589 1_555
Mo2 O10 2.111522 1_555
Mo2 O1 2.438048 1_555
Mo3 O3 1.778460 1_555
Mo3 O15 1.813653 1_555
Mo3 O5 1.855670 1_555
Mo3 O10 2.019589 1_555
Mo3 O11 2.111522 1_555
Mo3 O0 2.438048 1_555
O4 Tb1 2.402718 1_546
O4 Tb0 2.770646 1_555
O5 Tb0 2.402718 1_564
O5 Tb1 2.770646 1_555
O6 Tb1 2.402718 1_655
O6 Tb0 2.770646 1_555
O7 Tb0 2.402718 1_455
O7 Tb1 2.770646 1_555
O8 Tb0 2.333183 1_555
O9 Tb1 2.333183 1_555
O10 Tb0 2.333183 1_555
O11 Tb1 2.333183 1_555
O12 Tb0 2.350943 1_565
O13 Tb1 2.350943 1_545
O14 Tb0 2.350943 1_455
O15 Tb1 2.350943 1_655
