# generated using pymatgen
data_MgHOF
_symmetry_space_group_name_H-M   'P 1'
_cell_length_a   3.12726800
_cell_length_b   4.72566500
_cell_length_c   10.21859100
_cell_angle_alpha   90.00000000
_cell_angle_beta   90.00000000
_cell_angle_gamma   90.00000000
_symmetry_Int_Tables_number   1
_chemical_formula_structural   MgHOF
_chemical_formula_sum   'Mg4 H4 O4 F4'
_cell_volume   151.01463914
_cell_formula_units_Z   4
loop_
 _symmetry_equiv_pos_site_id
 _symmetry_equiv_pos_as_xyz
  1  'x, y, z'
loop_
 _atom_site_type_symbol
 _atom_site_label
 _atom_site_symmetry_multiplicity
 _atom_site_fract_x
 _atom_site_fract_y
 _atom_site_fract_z
 _atom_site_occupancy
  Mg  Mg0  1  0.75000000  0.98861000  0.63183200  1
  Mg  Mg1  1  0.75000000  0.51139000  0.13183200  1
  Mg  Mg2  1  0.25000000  0.01139000  0.36816800  1
  Mg  Mg3  1  0.25000000  0.48861000  0.86816800  1
  H  H0  1  0.75000000  0.58852200  0.42908300  1
  H  H1  1  0.75000000  0.91147800  0.92908300  1
  H  H2  1  0.25000000  0.41147800  0.57091700  1
  H  H3  1  0.25000000  0.08852200  0.07091700  1
  O  O0  1  0.75000000  0.71141000  0.95036900  1
  O  O1  1  0.75000000  0.78859000  0.45036900  1
  O  O2  1  0.25000000  0.28859000  0.04963100  1
  O  O3  1  0.25000000  0.21141000  0.54963100  1
  F  F0  1  0.25000000  0.74828400  0.70705800  1
  F  F1  1  0.25000000  0.75171600  0.20705800  1
  F  F2  1  0.75000000  0.25171600  0.29294200  1
  F  F3  1  0.75000000  0.24828400  0.79294200  1
loop_
_geom_bond_atom_site_label_1
_geom_bond_atom_site_label_2
_geom_bond_distance
_geom_bond_site_symmetry_2
Mg0 O3 2.063751 1_665
Mg0 O3 2.063751 1_565
Mg0 O1 2.081314 1_555
Mg1 O2 2.063751 1_655
Mg1 O2 2.063751 1_555
Mg1 O0 2.081314 1_554
Mg2 O1 2.063751 1_445
Mg2 O1 2.063751 1_545
Mg2 O3 2.081314 1_555
Mg3 O0 2.063751 1_455
Mg3 O0 2.063751 1_555
Mg3 O2 2.081314 1_556
H0 O1 0.970152 1_555
H1 O0 0.970152 1_555
H2 O3 0.970152 1_555
H3 O2 0.970152 1_555
F0 Mg3 2.053342 1_555
F0 Mg0 2.079825 1_555
F0 Mg0 2.079825 1_455
F1 Mg2 2.053342 1_565
F1 Mg1 2.079825 1_555
F1 Mg1 2.079825 1_455
F2 Mg1 2.053342 1_555
F2 Mg2 2.079825 1_555
F2 Mg2 2.079825 1_655
F3 Mg0 2.053342 1_545
F3 Mg3 2.079825 1_655
F3 Mg3 2.079825 1_555
