# generated using pymatgen
data_KLa(SeO4)2
_symmetry_space_group_name_H-M   'P 1'
_cell_length_a   7.56237000
_cell_length_b   8.94465000
_cell_length_c   11.27635836
_cell_angle_alpha   88.37009326
_cell_angle_beta   90.00000000
_cell_angle_gamma   90.00000000
_symmetry_Int_Tables_number   1
_chemical_formula_structural   KLa(SeO4)2
_chemical_formula_sum   'K4 La4 Se8 O32'
_cell_volume   762.45531067
_cell_formula_units_Z   4
loop_
 _symmetry_equiv_pos_site_id
 _symmetry_equiv_pos_as_xyz
  1  'x, y, z'
loop_
 _atom_site_type_symbol
 _atom_site_label
 _atom_site_symmetry_multiplicity
 _atom_site_fract_x
 _atom_site_fract_y
 _atom_site_fract_z
 _atom_site_occupancy
  K  K0  1  0.34767300  0.43320400  0.83723300  1
  K  K1  1  0.65232700  0.56679600  0.16276700  1
  K  K2  1  0.84767300  0.56679600  0.66276700  1
  K  K3  1  0.15232700  0.43320400  0.33723300  1
  La  La0  1  0.16211800  0.94105900  0.84733100  1
  La  La1  1  0.83788200  0.05894100  0.15266900  1
  La  La2  1  0.66211800  0.05894100  0.65266900  1
  La  La3  1  0.33788200  0.94105900  0.34733100  1
  Se  Se0  1  0.16280400  0.19376900  0.60568700  1
  Se  Se1  1  0.83719600  0.80623100  0.39431300  1
  Se  Se2  1  0.66280400  0.80623100  0.89431300  1
  Se  Se3  1  0.33719600  0.19376900  0.10568700  1
  Se  Se4  1  0.33744400  0.71572800  0.58894100  1
  Se  Se5  1  0.66255600  0.28427200  0.41105900  1
  Se  Se6  1  0.83744400  0.28427200  0.91105900  1
  Se  Se7  1  0.16255600  0.71572800  0.08894100  1
  O  O0  1  0.81524500  0.86346600  0.53275900  1
  O  O1  1  0.18475500  0.13653400  0.46724100  1
  O  O2  1  0.31524500  0.13653400  0.96724100  1
  O  O3  1  0.68475500  0.86346600  0.03275900  1
  O  O4  1  0.50119100  0.90710300  0.82286800  1
  O  O5  1  0.49880900  0.09289700  0.17713200  1
  O  O6  1  0.00119100  0.09289700  0.67713200  1
  O  O7  1  0.99880900  0.90710300  0.32286800  1
  O  O8  1  0.13177800  0.37485700  0.60644000  1
  O  O9  1  0.86822200  0.62514300  0.39356000  1
  O  O10  1  0.63177800  0.62514300  0.89356000  1
  O  O11  1  0.36822200  0.37485700  0.10644000  1
  O  O12  1  0.25282500  0.69401800  0.95451200  1
  O  O13  1  0.74717500  0.30598200  0.04548800  1
  O  O14  1  0.75282500  0.30598200  0.54548800  1
  O  O15  1  0.24717500  0.69401800  0.45451200  1
  O  O16  1  0.43568400  0.88536700  0.56108800  1
  O  O17  1  0.56431600  0.11463300  0.43891200  1
  O  O18  1  0.93568400  0.11463300  0.93891200  1
  O  O19  1  0.06431600  0.88536700  0.06108800  1
  O  O20  1  0.47950700  0.58629200  0.63067600  1
  O  O21  1  0.52049300  0.41370800  0.36932400  1
  O  O22  1  0.97950700  0.41370800  0.86932400  1
  O  O23  1  0.02049300  0.58629200  0.13067600  1
  O  O24  1  0.83779000  0.85485900  0.80588800  1
  O  O25  1  0.16221000  0.14514100  0.19411200  1
  O  O26  1  0.33779000  0.14514100  0.69411200  1
  O  O27  1  0.66221000  0.85485900  0.30588800  1
  O  O28  1  0.18096200  0.73928900  0.69277100  1
  O  O29  1  0.81903800  0.26071100  0.30722900  1
  O  O30  1  0.68096200  0.26071100  0.80722900  1
  O  O31  1  0.31903800  0.73928900  0.19277100  1
loop_
_geom_bond_atom_site_label_1
_geom_bond_atom_site_label_2
_geom_bond_distance
_geom_bond_site_symmetry_2
K0 O12 2.807369 1_555
K0 O22 2.812398 1_455
K0 O10 2.833557 1_555
K0 O20 2.848295 1_555
K0 O30 2.979491 1_555
K0 O2 3.004943 1_555
K0 O11 3.069481 1_556
K0 O26 3.079894 1_555
K0 O8 3.128627 1_555
K1 O13 2.807369 1_555
K1 O23 2.812398 1_655
K1 O11 2.833557 1_555
K1 O21 2.848295 1_555
K1 O31 2.979491 1_555
K1 O3 3.004943 1_555
K1 O10 3.069481 1_554
K1 O27 3.079894 1_555
K1 O9 3.128627 1_555
K2 O14 2.807369 1_555
K2 O20 2.812398 1_555
K2 O8 2.833557 1_655
K2 O22 2.848295 1_555
K2 O28 2.979491 1_655
K2 O0 3.004943 1_555
K2 O9 3.069481 1_555
K2 O24 3.079894 1_555
K2 O10 3.128627 1_555
K3 O15 2.807369 1_555
K3 O21 2.812398 1_555
K3 O9 2.833557 1_455
K3 O23 2.848295 1_555
K3 O29 2.979491 1_455
K3 O1 3.004943 1_555
K3 O8 3.069481 1_555
K3 O25 3.079894 1_555
K3 O11 3.128627 1_555
La0 O2 2.522075 1_565
La0 O28 2.548337 1_555
La0 O18 2.549579 1_465
La0 O19 2.556737 1_556
La0 O12 2.581106 1_555
La0 O4 2.597731 1_555
La0 O24 2.617070 1_455
La0 O6 2.619303 1_565
La0 O26 2.811202 1_565
La1 O3 2.522075 1_545
La1 O29 2.548337 1_555
La1 O19 2.549579 1_645
La1 O18 2.556737 1_554
La1 O13 2.581106 1_555
La1 O5 2.597731 1_555
La1 O25 2.617070 1_655
La1 O7 2.619303 1_545
La1 O27 2.811202 1_545
La2 O0 2.522075 1_545
La2 O30 2.548337 1_555
La2 O16 2.549579 1_545
La2 O17 2.556737 1_555
La2 O14 2.581106 1_555
La2 O6 2.597731 1_655
La2 O26 2.617070 1_555
La2 O4 2.619303 1_545
La2 O24 2.811202 1_545
La3 O1 2.522075 1_565
La3 O31 2.548337 1_555
La3 O17 2.549579 1_565
La3 O16 2.556737 1_555
La3 O15 2.581106 1_555
La3 O7 2.597731 1_455
La3 O27 2.617070 1_555
La3 O5 2.619303 1_565
La3 O25 2.811202 1_565
O0 Se1 1.665039 1_555
O1 Se0 1.665039 1_555
O2 Se3 1.665039 1_556
O3 Se2 1.665039 1_554
O4 Se2 1.707484 1_555
O5 Se3 1.707484 1_555
O6 Se0 1.707484 1_555
O7 Se1 1.707484 1_555
O8 Se0 1.636935 1_555
O9 Se1 1.636935 1_555
O10 Se2 1.636935 1_555
O11 Se3 1.636935 1_555
O12 Se7 1.678786 1_556
O13 Se6 1.678786 1_554
O14 Se5 1.678786 1_555
O15 Se4 1.678786 1_555
O16 Se4 1.710515 1_555
O17 Se5 1.710515 1_555
O18 Se6 1.710515 1_555
O19 Se7 1.710515 1_555
O20 Se4 1.638623 1_555
O21 Se5 1.638623 1_555
O22 Se6 1.638623 1_555
O23 Se7 1.638623 1_555
O24 Se2 1.705842 1_555
O25 Se3 1.705842 1_555
O26 Se0 1.705842 1_555
O27 Se1 1.705842 1_555
O28 Se4 1.682158 1_555
O29 Se5 1.682158 1_555
O30 Se6 1.682158 1_555
O31 Se7 1.682158 1_555
