# generated using pymatgen
data_Zn(CoO2)2
_symmetry_space_group_name_H-M   'P 1'
_cell_length_a   5.86164536
_cell_length_b   5.86164536
_cell_length_c   14.24648921
_cell_angle_alpha   89.70976120
_cell_angle_beta   89.70976120
_cell_angle_gamma   59.38235594
_symmetry_Int_Tables_number   1
_chemical_formula_structural   Zn(CoO2)2
_chemical_formula_sum   'Zn6 Co12 O24'
_cell_volume   421.24371720
_cell_formula_units_Z   6
loop_
 _symmetry_equiv_pos_site_id
 _symmetry_equiv_pos_as_xyz
  1  'x, y, z'
loop_
 _atom_site_type_symbol
 _atom_site_label
 _atom_site_symmetry_multiplicity
 _atom_site_fract_x
 _atom_site_fract_y
 _atom_site_fract_z
 _atom_site_occupancy
  Zn  Zn0  1  0.15980000  0.15980000  0.95827300  1
  Zn  Zn1  1  0.83406700  0.83406700  0.66789400  1
  Zn  Zn2  1  0.66685000  0.66685000  0.83309900  1
  Zn  Zn3  1  0.16672600  0.16672600  0.33236000  1
  Zn  Zn4  1  0.00026000  0.00026000  0.50024500  1
  Zn  Zn5  1  0.33333900  0.33333900  0.16605100  1
  Co  Co0  1  0.17091500  0.66513400  0.83496700  1
  Co  Co1  1  0.49577100  0.49577100  0.62217900  1
  Co  Co2  1  0.50023800  0.50023800  0.99873700  1
  Co  Co3  1  0.66513400  0.17091500  0.83496700  1
  Co  Co4  1  0.49922100  0.99964500  0.50045200  1
  Co  Co5  1  0.82867200  0.82867200  0.28943300  1
  Co  Co6  1  0.99964500  0.49922100  0.50045200  1
  Co  Co7  1  0.83084000  0.33385400  0.16527200  1
  Co  Co8  1  0.17172400  0.17172400  0.71232000  1
  Co  Co9  1  0.33385400  0.83084000  0.16527200  1
  Co  Co10  1  0.50473200  0.50473200  0.37727400  1
  Co  Co11  1  0.83839900  0.83839900  0.04127100  1
  O  O0  1  0.34098900  0.79246100  0.91529400  1
  O  O1  1  0.48918700  0.48918700  0.75697900  1
  O  O2  1  0.79246100  0.34098900  0.91529400  1
  O  O3  1  0.35182500  0.35182500  0.91326900  1
  O  O4  1  0.65740300  0.14901200  0.57698400  1
  O  O5  1  0.99477700  0.99477700  0.76168900  1
  O  O6  1  0.82229400  0.82229400  0.42385600  1
  O  O7  1  0.51688800  0.00975700  0.75833600  1
  O  O8  1  0.14901200  0.65740300  0.57698400  1
  O  O9  1  0.84731300  0.84731300  0.90877200  1
  O  O10  1  0.67327500  0.67327500  0.57435900  1
  O  O11  1  0.00975700  0.51688800  0.75833600  1
  O  O12  1  0.98720200  0.48442900  0.24228100  1
  O  O13  1  0.32668700  0.32668700  0.42575500  1
  O  O14  1  0.85113000  0.34175900  0.42325000  1
  O  O15  1  0.48442900  0.98720200  0.24228100  1
  O  O16  1  0.15772400  0.15772400  0.09636700  1
  O  O17  1  0.17741400  0.17741400  0.57628500  1
  O  O18  1  0.00467100  0.00467100  0.23913700  1
  O  O19  1  0.34175900  0.85113000  0.42325000  1
  O  O20  1  0.65124800  0.65124800  0.08556100  1
  O  O21  1  0.19740100  0.66849300  0.08231800  1
  O  O22  1  0.50794100  0.50794100  0.24155400  1
  O  O23  1  0.66849300  0.19740100  0.08231800  1
loop_
_geom_bond_atom_site_label_1
_geom_bond_atom_site_label_2
_geom_bond_distance
_geom_bond_site_symmetry_2
Co0 O0 1.907504 1_555
Co0 O11 1.922377 1_555
Co0 O3 1.936276 1_555
Co0 O9 1.942115 1_455
Co0 O1 1.951741 1_555
Co0 O5 1.961577 1_455
Co1 O4 1.867907 1_555
Co1 O8 1.867907 1_555
Co1 O1 1.921206 1_555
Co1 O10 1.928112 1_555
Co2 O0 1.892220 1_555
Co2 O2 1.892220 1_555
Co2 O23 1.936178 1_556
Co2 O21 1.936178 1_556
Co2 O3 1.946421 1_555
Co2 O20 1.979228 1_556
Co3 O2 1.907504 1_555
Co3 O7 1.922377 1_555
Co3 O3 1.936276 1_555
Co3 O9 1.942115 1_545
Co3 O1 1.951741 1_555
Co3 O5 1.961577 1_545
Co4 O19 1.912557 1_555
Co4 O4 1.913605 1_565
Co4 O17 1.949297 1_565
Co4 O10 1.952358 1_555
Co4 O6 1.960348 1_555
Co4 O13 1.961015 1_565
Co5 O12 1.866503 1_555
Co5 O15 1.866503 1_555
Co5 O6 1.915778 1_555
Co5 O18 1.926429 1_665
Co6 O14 1.912557 1_555
Co6 O8 1.913605 1_655
Co6 O17 1.949297 1_655
Co6 O10 1.952358 1_555
Co6 O6 1.960348 1_555
Co6 O13 1.961015 1_655
Co7 O12 1.914865 1_555
Co7 O16 1.917573 1_655
Co7 O23 1.933459 1_555
Co7 O22 1.956464 1_555
Co7 O20 1.963366 1_555
Co7 O18 1.963768 1_655
Co8 O7 1.864165 1_555
Co8 O11 1.864165 1_555
Co8 O5 1.930616 1_445
Co8 O17 1.938550 1_555
Co9 O15 1.914865 1_555
Co9 O16 1.917573 1_565
Co9 O21 1.933459 1_555
Co9 O22 1.956464 1_555
Co9 O20 1.963366 1_555
Co9 O18 1.963768 1_565
Co10 O19 1.869687 1_555
Co10 O14 1.869687 1_555
Co10 O22 1.933619 1_555
Co10 O13 1.936555 1_555
Co11 O9 1.889298 1_554
Co11 O23 1.906273 1_565
Co11 O21 1.906273 1_655
Co11 O20 2.004200 1_555
O0 Zn0 1.953603 1_565
O0 Zn2 2.028615 1_555
O1 Zn2 2.114855 1_555
O2 Zn0 1.953603 1_655
O2 Zn2 2.028615 1_555
O3 Zn0 2.054468 1_555
O4 Zn4 2.048624 1_655
O4 Zn1 2.049365 1_545
O5 Zn1 2.118919 1_555
O6 Zn4 2.119489 1_665
O7 Zn2 2.033547 1_545
O7 Zn1 2.053341 1_545
O8 Zn4 2.048624 1_565
O8 Zn1 2.049365 1_455
O9 Zn2 2.136133 1_555
O10 Zn1 2.117218 1_555
O11 Zn2 2.033547 1_455
O11 Zn1 2.053341 1_455
O12 Zn3 2.053187 1_655
O12 Zn5 2.058498 1_655
O13 Zn3 2.109380 1_555
O14 Zn4 2.044360 1_655
O14 Zn3 2.051188 1_655
O15 Zn3 2.053187 1_565
O15 Zn5 2.058498 1_565
O16 Zn0 1.967345 1_554
O16 Zn5 2.050594 1_555
O17 Zn4 2.109815 1_555
O18 Zn3 2.124427 1_555
O19 Zn4 2.044360 1_565
O19 Zn3 2.051188 1_565
O21 Zn5 2.075756 1_555
O22 Zn5 2.083558 1_555
O23 Zn5 2.075756 1_555
