# generated using pymatgen
data_CrAsO4
_symmetry_space_group_name_H-M   'P 1'
_cell_length_a   6.50290567
_cell_length_b   9.12512668
_cell_length_c   9.12512715
_cell_angle_alpha   70.94581541
_cell_angle_beta   69.14069642
_cell_angle_gamma   69.14070641
_symmetry_Int_Tables_number   1
_chemical_formula_structural   CrAsO4
_chemical_formula_sum   'Cr6 As6 O24'
_cell_volume   460.30187013
_cell_formula_units_Z   6
loop_
 _symmetry_equiv_pos_site_id
 _symmetry_equiv_pos_as_xyz
  1  'x, y, z'
loop_
 _atom_site_type_symbol
 _atom_site_label
 _atom_site_symmetry_multiplicity
 _atom_site_fract_x
 _atom_site_fract_y
 _atom_site_fract_z
 _atom_site_occupancy
  Cr  Cr0  1  0.50000005  0.00000052  -0.00000053  1
  Cr  Cr1  1  0.00000003  0.50000114  0.49999888  1
  Cr  Cr2  1  0.38546598  0.11448213  0.61445146  1
  Cr  Cr3  1  0.61453406  0.38554844  0.88551774  1
  Cr  Cr4  1  0.38546740  0.61445167  0.11448012  1
  Cr  Cr5  1  0.61453270  0.88551992  0.38554831  1
  As  As0  1  0.69134499  0.75003814  0.75003803  1
  As  As1  1  0.30865511  0.24996189  0.24996181  1
  As  As2  1  0.17587993  0.32415039  0.82413114  1
  As  As3  1  0.82412020  0.17586877  0.67584957  1
  As  As4  1  0.17588149  0.82413100  0.32414975  1
  As  As5  1  0.82411884  0.67585030  0.17586901  1
  O  O0  1  0.53140389  0.87943848  0.62059033  1
  O  O1  1  0.46859608  0.37940960  0.12056154  1
  O  O2  1  0.46859393  0.12056216  0.37941172  1
  O  O3  1  0.53140613  0.62058829  0.87943781  1
  O  O4  1  0.31121440  0.11629147  0.84605691  1
  O  O5  1  0.68878464  0.15394363  0.88370869  1
  O  O6  1  0.22638129  0.61625160  0.34609609  1
  O  O7  1  0.77361883  0.65390396  0.38374835  1
  O  O8  1  0.68878177  0.88370962  0.15394550  1
  O  O9  1  0.31121839  0.84605444  0.11629038  1
  O  O10  1  0.77362067  0.38374820  0.65390341  1
  O  O11  1  0.22637934  0.34609659  0.61625177  1
  O  O12  1  0.31421323  0.42790434  0.85515251  1
  O  O13  1  0.68578691  0.14484749  0.57209566  1
  O  O14  1  0.90287971  0.92790089  0.35528513  1
  O  O15  1  0.09712065  0.64471490  0.07209905  1
  O  O16  1  0.68578598  0.57209522  0.14484767  1
  O  O17  1  0.31421420  0.85515239  0.42790475  1
  O  O18  1  0.09712382  0.07209811  0.64471484  1
  O  O19  1  0.90287612  0.35528515  0.92790192  1
  O  O20  1  0.72100017  0.85667646  0.85667680  1
  O  O21  1  0.27899990  0.14332308  0.14332358  1
  O  O22  1  0.06579878  0.35662151  0.35662383  1
  O  O23  1  0.93420135  0.64337608  0.64337848  1
loop_
_geom_bond_atom_site_label_1
_geom_bond_atom_site_label_2
_geom_bond_distance
_geom_bond_site_symmetry_2
Cr0 O21 1.981423 1_555
Cr0 O20 1.981424 1_544
Cr0 O5 1.983332 1_554
Cr0 O4 1.983333 1_554
Cr0 O9 1.983339 1_545
Cr0 O8 1.983340 1_545
Cr1 O23 1.981632 1_455
Cr1 O22 1.981633 1_555
Cr1 O6 1.982892 1_555
Cr1 O7 1.982892 1_455
Cr1 O11 1.982900 1_555
Cr1 O10 1.982900 1_455
Cr2 O13 1.953999 1_555
Cr2 O18 1.954394 1_555
Cr2 O4 1.997593 1_555
Cr2 O11 1.997726 1_555
Cr2 O2 2.003328 1_555
Cr2 O0 2.003452 1_545
Cr3 O12 1.953997 1_555
Cr3 O19 1.954394 1_555
Cr3 O5 1.997588 1_555
Cr3 O10 1.997725 1_555
Cr3 O3 2.003329 1_555
Cr3 O1 2.003453 1_556
Cr4 O16 1.953991 1_555
Cr4 O15 1.954410 1_555
Cr4 O9 1.997574 1_555
Cr4 O6 1.997737 1_555
Cr4 O1 2.003345 1_555
Cr4 O3 2.003445 1_554
Cr5 O17 1.953991 1_555
Cr5 O14 1.954412 1_555
Cr5 O8 1.997574 1_555
Cr5 O7 1.997737 1_555
Cr5 O0 2.003344 1_555
Cr5 O2 2.003444 1_565
As0 O20 1.678253 1_555
As0 O23 1.678671 1_555
As0 O0 1.720748 1_555
As0 O3 1.720751 1_555
As1 O21 1.678253 1_555
As1 O22 1.678671 1_555
As1 O1 1.720747 1_555
As1 O2 1.720751 1_555
As2 O19 1.657832 1_455
As2 O12 1.657884 1_555
As2 O4 1.760973 1_555
As2 O11 1.761093 1_555
As3 O18 1.657831 1_655
As3 O13 1.657883 1_555
As3 O5 1.760975 1_555
As3 O10 1.761094 1_555
As4 O14 1.657820 1_455
As4 O17 1.657889 1_555
As4 O9 1.760980 1_555
As4 O6 1.761093 1_555
As5 O15 1.657820 1_655
As5 O16 1.657890 1_555
As5 O8 1.760980 1_555
As5 O7 1.761092 1_555
