# generated using pymatgen
data_Ba3Tm(BO2)9
_symmetry_space_group_name_H-M   'P 1'
_cell_length_a   7.25559201
_cell_length_b   7.25559201
_cell_length_c   17.32963000
_cell_angle_alpha   90.00000000
_cell_angle_beta   90.00000000
_cell_angle_gamma   120.00000007
_symmetry_Int_Tables_number   1
_chemical_formula_structural   Ba3Tm(BO2)9
_chemical_formula_sum   'Ba6 Tm2 B18 O36'
_cell_volume   790.07010512
_cell_formula_units_Z   2
loop_
 _symmetry_equiv_pos_site_id
 _symmetry_equiv_pos_as_xyz
  1  'x, y, z'
loop_
 _atom_site_type_symbol
 _atom_site_label
 _atom_site_symmetry_multiplicity
 _atom_site_fract_x
 _atom_site_fract_y
 _atom_site_fract_z
 _atom_site_occupancy
  Ba  Ba0  1  0.66666700  0.33333300  0.86820500  1
  Ba  Ba1  1  0.33333300  0.66666700  0.13179500  1
  Ba  Ba2  1  0.33333300  0.66666700  0.36820500  1
  Ba  Ba3  1  0.66666700  0.33333300  0.63179500  1
  Ba  Ba4  1  0.00000000  0.00000000  0.75000000  1
  Ba  Ba5  1  0.00000000  0.00000000  0.25000000  1
  Tm  Tm0  1  0.00000000  0.00000000  0.00000000  1
  Tm  Tm1  1  0.00000000  0.00000000  0.50000000  1
  B  B0  1  0.55157800  0.83470200  0.91857400  1
  B  B1  1  0.44842200  0.16529800  0.08142600  1
  B  B2  1  0.28312400  0.44842200  0.91857400  1
  B  B3  1  0.44842200  0.16529800  0.41857400  1
  B  B4  1  0.71687600  0.55157800  0.08142600  1
  B  B5  1  0.55157800  0.83470200  0.58142600  1
  B  B6  1  0.16529800  0.71687600  0.91857400  1
  B  B7  1  0.71687600  0.55157800  0.41857400  1
  B  B8  1  0.83470200  0.28312400  0.08142600  1
  B  B9  1  0.28312400  0.44842200  0.58142600  1
  B  B10  1  0.83470200  0.28312400  0.41857400  1
  B  B11  1  0.16529800  0.71687600  0.58142600  1
  B  B12  1  0.50522900  0.62192000  0.75000000  1
  B  B13  1  0.49477100  0.37808000  0.25000000  1
  B  B14  1  0.11669100  0.49477100  0.75000000  1
  B  B15  1  0.88330900  0.50522900  0.25000000  1
  B  B16  1  0.37808000  0.88330900  0.75000000  1
  B  B17  1  0.62192000  0.11669100  0.25000000  1
  O  O0  1  0.54243500  0.83326500  0.75000000  1
  O  O1  1  0.45756500  0.16673500  0.25000000  1
  O  O2  1  0.29083000  0.45756500  0.75000000  1
  O  O3  1  0.70917000  0.54243500  0.25000000  1
  O  O4  1  0.16673500  0.70917000  0.75000000  1
  O  O5  1  0.83326500  0.29083000  0.25000000  1
  O  O6  1  0.91864000  0.33188600  0.75000000  1
  O  O7  1  0.08136000  0.66811400  0.25000000  1
  O  O8  1  0.41324500  0.08136000  0.75000000  1
  O  O9  1  0.58675500  0.91864000  0.25000000  1
  O  O10  1  0.66811400  0.58675500  0.75000000  1
  O  O11  1  0.33188600  0.41324500  0.25000000  1
  O  O12  1  0.75214200  0.99449500  0.92035400  1
  O  O13  1  0.24785800  0.00550500  0.07964600  1
  O  O14  1  0.24235200  0.24785800  0.92035400  1
  O  O15  1  0.24785800  0.00550500  0.42035400  1
  O  O16  1  0.75764800  0.75214200  0.07964600  1
  O  O17  1  0.75214200  0.99449500  0.57964600  1
  O  O18  1  0.00550500  0.75764800  0.92035400  1
  O  O19  1  0.75764800  0.75214200  0.42035400  1
  O  O20  1  0.99449500  0.24235200  0.07964600  1
  O  O21  1  0.24235200  0.24785800  0.57964600  1
  O  O22  1  0.99449500  0.24235200  0.42035400  1
  O  O23  1  0.00550500  0.75764800  0.57964600  1
  O  O24  1  0.49597200  0.61841300  0.91800000  1
  O  O25  1  0.50402800  0.38158700  0.08200000  1
  O  O26  1  0.12244100  0.50402800  0.91800000  1
  O  O27  1  0.50402800  0.38158700  0.41800000  1
  O  O28  1  0.87755900  0.49597200  0.08200000  1
  O  O29  1  0.49597200  0.61841300  0.58200000  1
  O  O30  1  0.38158700  0.87755900  0.91800000  1
  O  O31  1  0.87755900  0.49597200  0.41800000  1
  O  O32  1  0.61841300  0.12244100  0.08200000  1
  O  O33  1  0.12244100  0.50402800  0.58200000  1
  O  O34  1  0.61841300  0.12244100  0.41800000  1
  O  O35  1  0.38158700  0.87755900  0.58200000  1
loop_
_geom_bond_atom_site_label_1
_geom_bond_atom_site_label_2
_geom_bond_distance
_geom_bond_site_symmetry_2
Ba0 O6 2.749147 1_555
Ba0 O8 2.749152 1_555
Ba0 O10 2.749157 1_555
Ba0 O12 2.961432 1_545
Ba0 O18 2.961441 1_655
Ba0 O14 2.961445 1_555
Ba0 O26 3.019699 1_655
Ba0 O30 3.019700 1_545
Ba0 O24 3.019705 1_555
Ba1 O7 2.749147 1_555
Ba1 O9 2.749152 1_555
Ba1 O11 2.749157 1_555
Ba1 O13 2.961432 1_565
Ba1 O20 2.961441 1_455
Ba1 O16 2.961445 1_555
Ba1 O28 3.019699 1_455
Ba1 O32 3.019700 1_565
Ba1 O25 3.019705 1_555
Ba2 O7 2.749147 1_555
Ba2 O9 2.749152 1_555
Ba2 O11 2.749157 1_555
Ba2 O15 2.961432 1_565
Ba2 O22 2.961441 1_455
Ba2 O19 2.961445 1_555
Ba2 O31 3.019699 1_455
Ba2 O34 3.019700 1_565
Ba2 O27 3.019705 1_555
Ba3 O6 2.749147 1_555
Ba3 O8 2.749152 1_555
Ba3 O10 2.749157 1_555
Ba3 O17 2.961432 1_545
Ba3 O23 2.961441 1_655
Ba3 O21 2.961445 1_555
Ba3 O33 3.019699 1_655
Ba3 O35 3.019700 1_545
Ba3 O29 3.019705 1_555
Ba4 O8 2.751097 1_555
Ba4 O10 2.751099 1_445
Ba4 O6 2.751104 1_455
Ba4 O2 2.910154 1_555
Ba4 O0 2.910154 1_445
Ba4 O4 2.910154 1_545
Ba5 O9 2.751097 1_445
Ba5 O11 2.751099 1_555
Ba5 O7 2.751104 1_545
Ba5 O3 2.910154 1_445
Ba5 O1 2.910154 1_555
Ba5 O5 2.910154 1_455
B0 O12 1.332524 1_555
B0 O24 1.411541 1_555
B0 O30 1.414763 1_555
B1 O13 1.332524 1_555
B1 O25 1.411541 1_555
B1 O32 1.414763 1_555
B2 O14 1.332522 1_555
B2 O26 1.411541 1_555
B2 O24 1.414763 1_555
B3 O15 1.332524 1_555
B3 O27 1.411541 1_555
B3 O34 1.414763 1_555
B4 O16 1.332522 1_555
B4 O28 1.411541 1_555
B4 O25 1.414763 1_555
B5 O17 1.332524 1_555
B5 O29 1.411541 1_555
B5 O35 1.414763 1_555
B6 O18 1.332529 1_555
B6 O30 1.411541 1_555
B6 O26 1.414763 1_555
B7 O19 1.332522 1_555
B7 O31 1.411541 1_555
B7 O27 1.414763 1_555
B8 O20 1.332529 1_555
B8 O32 1.411541 1_555
B8 O28 1.414763 1_555
B9 O21 1.332522 1_555
B9 O33 1.411541 1_555
B9 O29 1.414763 1_555
B10 O22 1.332529 1_555
B10 O34 1.411541 1_555
B10 O31 1.414763 1_555
B11 O23 1.332529 1_555
B11 O35 1.411541 1_555
B11 O33 1.414763 1_555
B12 O10 1.327911 1_555
B12 O2 1.409565 1_555
B12 O0 1.417864 1_555
B13 O11 1.327911 1_555
B13 O3 1.409565 1_555
B13 O1 1.417864 1_555
B14 O6 1.327916 1_455
B14 O4 1.409565 1_555
B14 O2 1.417864 1_555
B15 O7 1.327916 1_655
B15 O5 1.409565 1_555
B15 O3 1.417864 1_555
B16 O8 1.327918 1_565
B16 O0 1.409565 1_555
B16 O4 1.417864 1_555
B17 O9 1.327918 1_545
B17 O1 1.409565 1_555
B17 O5 1.417864 1_555
O12 Tm0 2.251422 1_666
O13 Tm0 2.251422 1_555
O14 Tm0 2.251419 1_556
O15 Tm1 2.251422 1_555
O16 Tm0 2.251419 1_665
O17 Tm1 2.251422 1_665
O18 Tm0 2.251417 1_566
O19 Tm1 2.251419 1_665
O20 Tm0 2.251417 1_655
O21 Tm1 2.251419 1_555
O22 Tm1 2.251417 1_655
O23 Tm1 2.251417 1_565
