# generated using pymatgen
data_Sr4MgTiFe2(AsO3)2
_symmetry_space_group_name_H-M   'P 1'
_cell_length_a   4.01536300
_cell_length_b   4.01536300
_cell_length_c   16.83734300
_cell_angle_alpha   90.00000000
_cell_angle_beta   90.00000000
_cell_angle_gamma   90.00000000
_symmetry_Int_Tables_number   1
_chemical_formula_structural   Sr4MgTiFe2(AsO3)2
_chemical_formula_sum   'Sr4 Mg1 Ti1 Fe2 As2 O6'
_cell_volume   271.47083878
_cell_formula_units_Z   1
loop_
 _symmetry_equiv_pos_site_id
 _symmetry_equiv_pos_as_xyz
  1  'x, y, z'
loop_
 _atom_site_type_symbol
 _atom_site_label
 _atom_site_symmetry_multiplicity
 _atom_site_fract_x
 _atom_site_fract_y
 _atom_site_fract_z
 _atom_site_occupancy
  Sr  Sr0  1  0.00000000  0.00000000  0.79111400  1
  Sr  Sr1  1  0.50000000  0.50000000  0.19486400  1
  Sr  Sr2  1  0.00000000  0.00000000  0.59948000  1
  Sr  Sr3  1  0.50000000  0.50000000  0.42632700  1
  Mg  Mg0  1  0.50000000  0.50000000  0.68346100  1
  Ti  Ti0  1  0.00000000  0.00000000  0.31136700  1
  Fe  Fe0  1  0.00000000  0.50000000  0.00418400  1
  Fe  Fe1  1  0.50000000  0.00000000  0.00418400  1
  As  As0  1  0.50000000  0.50000000  0.90858100  1
  As  As1  1  0.00000000  0.00000000  0.10511500  1
  O  O0  1  0.00000000  0.50000000  0.70352100  1
  O  O1  1  0.50000000  0.00000000  0.70352100  1
  O  O2  1  0.50000000  0.00000000  0.29338300  1
  O  O3  1  0.00000000  0.50000000  0.29338300  1
  O  O4  1  0.50000000  0.50000000  0.55950300  1
  O  O5  1  0.00000000  0.00000000  0.41801200  1
loop_
_geom_bond_atom_site_label_1
_geom_bond_atom_site_label_2
_geom_bond_distance
_geom_bond_site_symmetry_2
Mg0 O1 2.035894 1_565
Mg0 O0 2.035894 1_655
Mg0 O0 2.035894 1_555
Mg0 O1 2.035894 1_555
Mg0 O4 2.087123 1_555
As0 Fe1 2.573309 1_556
As0 Fe0 2.573309 1_656
As0 Fe1 2.573309 1_566
As0 Fe0 2.573309 1_556
As0 Sr0 3.460259 1_655
As0 Sr0 3.460259 1_555
As0 Sr0 3.460259 1_565
As0 Sr0 3.460259 1_665
As1 Fe0 2.630357 1_555
As1 Fe1 2.630357 1_455
As1 Fe1 2.630357 1_555
As1 Fe0 2.630357 1_545
As1 Sr1 3.216380 1_455
As1 Sr1 3.216380 1_555
As1 Sr1 3.216380 1_445
As1 Sr1 3.216380 1_545
O0 Sr0 2.491168 1_565
O0 Sr0 2.491168 1_555
O0 Sr2 2.664488 1_555
O0 Sr2 2.664488 1_565
O1 Sr0 2.491168 1_655
O1 Sr0 2.491168 1_555
O1 Sr2 2.664488 1_555
O1 Sr2 2.664488 1_655
O2 Ti0 2.030388 1_555
O2 Ti0 2.030388 1_655
O2 Sr1 2.604303 1_545
O2 Sr1 2.604303 1_555
O2 Sr3 3.006880 1_545
O2 Sr3 3.006880 1_555
O3 Ti0 2.030388 1_555
O3 Ti0 2.030388 1_565
O3 Sr1 2.604303 1_455
O3 Sr1 2.604303 1_555
O3 Sr3 3.006880 1_455
O3 Sr3 3.006880 1_555
O4 Sr3 2.242330 1_555
O4 Sr2 2.917986 1_665
O4 Sr2 2.917986 1_555
O4 Sr2 2.917986 1_655
O4 Sr2 2.917986 1_565
O5 Ti0 1.795618 1_555
O5 Sr3 2.842740 1_555
O5 Sr3 2.842740 1_545
O5 Sr3 2.842740 1_445
O5 Sr3 2.842740 1_455
O5 Sr2 3.055439 1_555
