# generated using pymatgen
data_NClO
_symmetry_space_group_name_H-M   'P 1'
_cell_length_a   6.10088300
_cell_length_b   6.33895100
_cell_length_c   7.64781194
_cell_angle_alpha   57.50740236
_cell_angle_beta   90.00000000
_cell_angle_gamma   90.00000000
_symmetry_Int_Tables_number   1
_chemical_formula_structural   NClO
_chemical_formula_sum   'N4 Cl4 O4'
_cell_volume   249.46649375
_cell_formula_units_Z   4
loop_
 _symmetry_equiv_pos_site_id
 _symmetry_equiv_pos_as_xyz
  1  'x, y, z'
loop_
 _atom_site_type_symbol
 _atom_site_label
 _atom_site_symmetry_multiplicity
 _atom_site_fract_x
 _atom_site_fract_y
 _atom_site_fract_z
 _atom_site_occupancy
  N  N0  1  0.15754200  0.76658300  0.64619100  1
  N  N1  1  0.65754200  0.23341700  0.85380900  1
  N  N2  1  0.84245800  0.23341700  0.35380900  1
  N  N3  1  0.34245800  0.76658300  0.14619100  1
  Cl  Cl0  1  0.62920400  0.81723300  0.91698300  1
  Cl  Cl1  1  0.12920400  0.18276700  0.58301700  1
  Cl  Cl2  1  0.37079600  0.18276700  0.08301700  1
  Cl  Cl3  1  0.87079600  0.81723300  0.41698300  1
  O  O0  1  0.32280500  0.73216000  0.59666700  1
  O  O1  1  0.82280500  0.26784000  0.90333300  1
  O  O2  1  0.67719500  0.26784000  0.40333300  1
  O  O3  1  0.17719500  0.73216000  0.09666700  1
loop_
_geom_bond_atom_site_label_1
_geom_bond_atom_site_label_2
_geom_bond_distance
_geom_bond_site_symmetry_2
N0 O0 1.138607 1_555
N1 O1 1.138607 1_555
N2 O2 1.138607 1_555
N3 O3 1.138607 1_555
Cl0 N3 2.373104 1_556
Cl0 N1 2.419470 1_565
Cl1 N2 2.373104 1_455
Cl1 N0 2.419470 1_545
Cl2 N1 2.373104 1_554
Cl2 N3 2.419470 1_545
Cl3 N0 2.373104 1_655
Cl3 N2 2.419470 1_565
