# generated using pymatgen
data_Li9Mn2Co5O16
_symmetry_space_group_name_H-M   'P 1'
_cell_length_a   5.15240900
_cell_length_b   5.92826388
_cell_length_c   10.09068280
_cell_angle_alpha   87.85052975
_cell_angle_beta   100.68842621
_cell_angle_gamma   109.02894100
_symmetry_Int_Tables_number   1
_chemical_formula_structural   Li9Mn2Co5O16
_chemical_formula_sum   'Li9 Mn2 Co5 O16'
_cell_volume   286.23261498
_cell_formula_units_Z   1
loop_
 _symmetry_equiv_pos_site_id
 _symmetry_equiv_pos_as_xyz
  1  'x, y, z'
loop_
 _atom_site_type_symbol
 _atom_site_label
 _atom_site_symmetry_multiplicity
 _atom_site_fract_x
 _atom_site_fract_y
 _atom_site_fract_z
 _atom_site_occupancy
  Li  Li0  1  0.00479400  0.49719600  0.99583700  1
  Li  Li1  1  0.99784000  0.24703600  0.25260500  1
  Li  Li2  1  0.49596400  0.60987800  0.86992600  1
  Li  Li3  1  0.49330100  0.37790500  0.12381200  1
  Li  Li4  1  0.98164900  0.75097100  0.74835900  1
  Li  Li5  1  0.51070200  0.88174800  0.63039200  1
  Li  Li6  1  0.01251800  0.00581300  0.50515200  1
  Li  Li7  1  0.50054100  0.12966700  0.37711700  1
  Li  Li8  1  0.00063400  0.25047500  0.75031600  1
  Mn  Mn0  1  0.00160500  0.00232100  0.99766200  1
  Mn  Mn1  1  0.50144400  0.62238300  0.37793100  1
  Co  Co0  1  0.99832400  0.75014800  0.25021000  1
  Co  Co1  1  0.99974200  0.49677700  0.50380300  1
  Co  Co2  1  0.50836100  0.13321600  0.86733600  1
  Co  Co3  1  0.49953500  0.87630600  0.12642300  1
  Co  Co4  1  0.49474800  0.37450600  0.62307200  1
  O  O0  1  0.24096600  0.29100900  0.94109700  1
  O  O1  1  0.23337900  0.05507300  0.17937100  1
  O  O2  1  0.71872800  0.42388500  0.80322900  1
  O  O3  1  0.75405000  0.15522800  0.05736700  1
  O  O4  1  0.25844200  0.53991600  0.66925500  1
  O  O5  1  0.72383000  0.67376300  0.56165000  1
  O  O6  1  0.22002100  0.79106600  0.43437700  1
  O  O7  1  0.73394700  0.91860200  0.30608200  1
  O  O8  1  0.77284400  0.70016900  0.06641600  1
  O  O9  1  0.77262500  0.44545500  0.32170300  1
  O  O10  1  0.24760900  0.83911800  0.94749500  1
  O  O11  1  0.26809400  0.58580100  0.19353100  1
  O  O12  1  0.75379200  0.94039300  0.82758900  1
  O  O13  1  0.27914700  0.08393300  0.68185500  1
  O  O14  1  0.74603200  0.22721600  0.56540300  1
  O  O15  1  0.27479200  0.32302800  0.44362900  1
loop_
_geom_bond_atom_site_label_1
_geom_bond_atom_site_label_2
_geom_bond_distance
_geom_bond_site_symmetry_2
Li0 O10 2.100104 1_555
Li0 O0 2.133032 1_555
Li0 O3 2.158625 1_456
Li0 O8 2.168200 1_456
Li0 O11 2.169311 1_556
Li0 O2 2.172962 1_455
Li1 O7 2.097125 1_545
Li1 O9 2.113772 1_555
Li1 O3 2.114700 1_555
Li1 O15 2.140174 1_655
Li1 O1 2.147161 1_655
Li1 O11 2.173026 1_655
Li2 O2 2.038026 1_555
Li2 O12 2.058350 1_555
Li2 O0 2.108072 1_555
Li2 O4 2.140742 1_555
Li2 O8 2.187538 1_556
Li2 O10 2.383754 1_555
Li3 O0 2.024934 1_554
Li3 O1 2.072982 1_555
Li3 O8 2.119414 1_555
Li3 O11 2.158871 1_555
Li3 O9 2.199367 1_555
Li3 O3 2.356723 1_555
Li4 O5 2.064827 1_555
Li4 O2 2.094376 1_555
Li4 O12 2.133934 1_555
Li4 O10 2.186107 1_655
Li4 O13 2.237262 1_665
Li4 O4 2.428433 1_655
Li5 O13 2.082964 1_565
Li5 O4 2.088449 1_555
Li5 O5 2.106398 1_555
Li5 O12 2.119575 1_555
Li5 O14 2.160913 1_565
Li5 O6 2.213640 1_555
Li6 O13 2.004865 1_555
Li6 O15 2.077120 1_555
Li6 O6 2.124338 1_545
Li6 O5 2.175651 1_445
Li6 O7 2.210664 1_445
Li6 O14 2.349962 1_455
Li7 O14 2.063513 1_555
Li7 O9 2.069660 1_555
Li7 O15 2.081846 1_555
Li7 O1 2.173101 1_555
Li7 O6 2.187026 1_545
Li7 O7 2.212225 1_545
Li8 O4 2.046763 1_555
Li8 O14 2.053010 1_455
Li8 O0 2.062417 1_555
Li8 O12 2.083383 1_445
Li8 O2 2.180411 1_455
Li8 O13 2.203186 1_555
Mn0 O0 1.893998 1_555
Mn0 O12 1.907628 1_445
Mn0 O1 1.968029 1_556
Mn0 O10 1.968083 1_545
Mn0 O3 1.972697 1_456
Mn0 O8 1.977998 1_446
Mn1 O15 1.949397 1_555
Mn1 O5 1.967049 1_555
Mn1 O7 1.974678 1_555
Mn1 O11 1.996314 1_555
Mn1 O9 2.160715 1_555
Mn1 O6 2.172912 1_555
Co0 O6 1.970505 1_655
Co0 O8 1.973470 1_555
Co0 O9 1.994788 1_555
Co0 O1 2.010473 1_665
Co0 O7 2.093998 1_555
Co0 O11 2.104309 1_655
Co1 O14 1.874453 1_555
Co1 O4 1.900970 1_655
Co1 O6 1.932535 1_655
Co1 O9 1.962283 1_555
Co1 O15 2.180826 1_655
Co1 O5 2.188370 1_555
Co2 O2 1.876464 1_555
Co2 O13 1.994800 1_555
Co2 O12 2.057135 1_545
Co2 O10 2.066125 1_545
Co2 O3 2.075360 1_556
Co2 O0 2.144800 1_555
Co3 O11 1.928566 1_555
Co3 O3 1.943689 1_565
Co3 O7 1.957699 1_555
Co3 O10 1.991797 1_554
Co3 O1 2.133336 1_565
Co3 O8 2.182330 1_555
Co4 O13 1.863636 1_555
Co4 O4 1.919491 1_555
Co4 O15 1.926365 1_555
Co4 O5 1.935989 1_555
Co4 O2 1.940028 1_555
Co4 O14 1.957586 1_555
