# generated using pymatgen
data_ZrInAu2
_symmetry_space_group_name_H-M   'P 1'
_cell_length_a   3.41401300
_cell_length_b   3.41401300
_cell_length_c   7.22756100
_cell_angle_alpha   90.00000000
_cell_angle_beta   90.00000000
_cell_angle_gamma   90.00000000
_symmetry_Int_Tables_number   1
_chemical_formula_structural   ZrInAu2
_chemical_formula_sum   'Zr1 In1 Au2'
_cell_volume   84.24072712
_cell_formula_units_Z   1
loop_
 _symmetry_equiv_pos_site_id
 _symmetry_equiv_pos_as_xyz
  1  'x, y, z'
loop_
 _atom_site_type_symbol
 _atom_site_label
 _atom_site_symmetry_multiplicity
 _atom_site_fract_x
 _atom_site_fract_y
 _atom_site_fract_z
 _atom_site_occupancy
  Zr  Zr0  1  0.50000000  0.50000000  0.50000000  1
  In  In0  1  0.50000000  0.50000000  0.00000000  1
  Au  Au0  1  0.00000000  0.00000000  0.73702300  1
  Au  Au1  1  0.00000000  0.00000000  0.26297700  1
loop_
_geom_bond_atom_site_label_1
_geom_bond_atom_site_label_2
_geom_bond_distance
_geom_bond_site_symmetry_2
Au0 Zr0 2.960143 1_445
Au0 Zr0 2.960143 1_545
Au0 Zr0 2.960143 1_455
Au0 Zr0 2.960143 1_555
Au0 In0 3.072513 1_556
Au0 In0 3.072513 1_546
Au0 In0 3.072513 1_456
Au0 In0 3.072513 1_446
Au1 Zr0 2.960143 1_445
Au1 Zr0 2.960143 1_545
Au1 Zr0 2.960143 1_455
Au1 Zr0 2.960143 1_555
Au1 In0 3.072513 1_445
Au1 In0 3.072513 1_455
Au1 In0 3.072513 1_555
Au1 In0 3.072513 1_545
