# generated using pymatgen
data_Li4CrFe3Sn2(PO4)6
_symmetry_space_group_name_H-M   'P 1'
_cell_length_a   8.52096800
_cell_length_b   8.56422185
_cell_length_c   9.23361755
_cell_angle_alpha   90.76547801
_cell_angle_beta   116.86113880
_cell_angle_gamma   119.69917625
_symmetry_Int_Tables_number   1
_chemical_formula_structural   Li4CrFe3Sn2(PO4)6
_chemical_formula_sum   'Li4 Cr1 Fe3 Sn2 P6 O24'
_cell_volume   497.09252309
_cell_formula_units_Z   1
loop_
 _symmetry_equiv_pos_site_id
 _symmetry_equiv_pos_as_xyz
  1  'x, y, z'
loop_
 _atom_site_type_symbol
 _atom_site_label
 _atom_site_symmetry_multiplicity
 _atom_site_fract_x
 _atom_site_fract_y
 _atom_site_fract_z
 _atom_site_occupancy
  Li  Li0  1  0.54813400  0.88841300  0.85179900  1
  Li  Li1  1  0.45710400  0.09545600  0.17148600  1
  Li  Li2  1  0.81707400  0.71858300  0.15818700  1
  Li  Li3  1  0.06673200  0.35517200  0.16825100  1
  Cr  Cr0  1  0.30403200  0.15626600  0.44856400  1
  Fe  Fe0  1  0.68634600  0.84257200  0.53188100  1
  Fe  Fe1  1  0.31364800  0.64860200  0.99139100  1
  Fe  Fe2  1  0.68560800  0.34511700  0.03917200  1
  Sn  Sn0  1  0.99325200  0.99726900  0.93731900  1
  Sn  Sn1  1  0.03583600  0.51354700  0.57986800  1
  P  P0  1  0.50901600  0.55043100  0.75371300  1
  P  P1  1  0.49546900  0.45219200  0.25900600  1
  P  P2  1  0.80419000  0.04268100  0.24841200  1
  P  P3  1  0.21810300  0.76333400  0.25934800  1
  P  P4  1  0.78577700  0.23722700  0.75079500  1
  P  P5  1  0.20444600  0.96524200  0.74811600  1
  O  O0  1  0.28692100  0.81814500  0.12639000  1
  O  O1  1  0.29941300  0.44929800  0.12153800  1
  O  O2  1  0.84982400  0.10017200  0.72123900  1
  O  O3  1  0.65923500  0.86064000  0.09097000  1
  O  O4  1  0.58563200  0.18969700  0.58964100  1
  O  O5  1  0.97502700  0.44300400  0.78889200  1
  O  O6  1  0.97502000  0.87231600  0.71724400  1
  O  O7  1  0.25138800  0.80664100  0.76524900  1
  O  O8  1  0.61599700  0.60452500  0.42788900  1
  O  O9  1  0.33268600  0.54312200  0.77911900  1
  O  O10  1  0.40816000  0.25326000  0.28720700  1
  O  O11  1  0.79607700  0.98572200  0.40274800  1
  O  O12  1  0.21088700  0.03159400  0.60013800  1
  O  O13  1  0.63303100  0.75776600  0.74041100  1
  O  O14  1  0.65067000  0.48810800  0.20159000  1
  O  O15  1  0.40247400  0.40315900  0.58968600  1
  O  O16  1  0.73212100  0.17834100  0.20716800  1
  O  O17  1  0.03566200  0.14856000  0.28473700  1
  O  O18  1  0.02973500  0.55680400  0.19375600  1
  O  O19  1  0.40785500  0.79630100  0.42856800  1
  O  O20  1  0.35540600  0.11807800  0.92415300  1
  O  O21  1  0.14593200  0.89087700  0.28872400  1
  O  O22  1  0.66979400  0.54421400  0.91617200  1
  O  O23  1  0.76628800  0.21055100  0.90946900  1
loop_
_geom_bond_atom_site_label_1
_geom_bond_atom_site_label_2
_geom_bond_distance
_geom_bond_site_symmetry_2
Li0 O7 1.981681 1_555
Li0 O3 2.043962 1_556
Li0 O13 2.068021 1_555
Li0 O23 2.309735 1_565
Li0 O9 2.453495 1_555
Li1 O16 1.936941 1_555
Li1 O0 1.982917 1_545
Li1 O10 2.016122 1_555
Li1 O20 2.096167 1_554
Li2 O14 1.956667 1_555
Li2 O21 2.070153 1_655
Li2 O22 2.078055 1_554
Li2 O3 2.135750 1_555
Li3 O18 1.931943 1_555
Li3 O1 1.991286 1_555
Li3 O17 2.049875 1_555
Li3 O23 2.246942 1_454
Cr0 O12 1.983127 1_555
Cr0 O4 2.005293 1_555
Cr0 O15 2.013366 1_555
Cr0 O10 2.048035 1_555
Cr0 O21 2.058788 1_545
Cr0 O17 2.060051 1_555
Fe0 O8 1.911599 1_555
Fe0 O11 1.926046 1_555
Fe0 O19 1.926317 1_555
Fe0 O2 2.124958 1_565
Fe0 O6 2.146595 1_555
Fe0 O13 2.223123 1_555
Fe1 O0 2.061518 1_556
Fe1 O1 2.086550 1_556
Fe1 O5 2.219095 1_455
Fe1 O3 2.241519 1_556
Fe1 O9 2.251520 1_555
Fe1 O7 2.501904 1_555
Fe2 O22 2.087241 1_554
Fe2 O14 2.133787 1_555
Fe2 O20 2.156084 1_554
Fe2 O16 2.160546 1_555
Fe2 O23 2.174230 1_554
Fe2 O18 2.191677 1_655
O0 P3 1.569908 1_555
O1 P1 1.563511 1_555
O2 P4 1.584557 1_555
O2 Sn0 2.271970 1_545
O3 P2 1.574269 1_565
O4 P4 1.513642 1_555
O5 P4 1.576315 1_555
O5 Sn1 2.232316 1_655
O6 P5 1.576416 1_655
O6 Sn0 2.188737 1_555
O7 P5 1.586474 1_555
O7 Sn1 2.253887 1_555
O8 P1 1.535988 1_555
O9 P0 1.594420 1_555
O9 Sn1 2.234839 1_555
O10 P1 1.566795 1_555
O11 P2 1.532245 1_565
O12 P5 1.500169 1_545
O13 P0 1.596419 1_555
O13 Sn0 2.356504 1_555
O14 P1 1.536046 1_555
O15 P0 1.510204 1_555
O16 P2 1.542543 1_555
O17 P2 1.564231 1_455
O18 P3 1.533424 1_555
O19 P3 1.545416 1_555
O20 P5 1.547701 1_545
O21 P3 1.566310 1_555
O22 P0 1.532075 1_555
O23 P4 1.554866 1_555
