# generated using pymatgen
data_LiVSe2
_symmetry_space_group_name_H-M   'P 1'
_cell_length_a   3.53422557
_cell_length_b   3.53422557
_cell_length_c   6.45915900
_cell_angle_alpha   90.00000000
_cell_angle_beta   90.00000000
_cell_angle_gamma   119.99999191
_symmetry_Int_Tables_number   1
_chemical_formula_structural   LiVSe2
_chemical_formula_sum   'Li1 V1 Se2'
_cell_volume   69.87071239
_cell_formula_units_Z   1
loop_
 _symmetry_equiv_pos_site_id
 _symmetry_equiv_pos_as_xyz
  1  'x, y, z'
loop_
 _atom_site_type_symbol
 _atom_site_label
 _atom_site_symmetry_multiplicity
 _atom_site_fract_x
 _atom_site_fract_y
 _atom_site_fract_z
 _atom_site_occupancy
  Li  Li0  1  0.00000000  0.00000000  0.50000000  1
  V  V0  1  0.00000000  0.00000000  0.00000000  1
  Se  Se0  1  0.33333300  0.66666700  0.23326900  1
  Se  Se1  1  0.66666700  0.33333300  0.76673100  1
loop_
_geom_bond_atom_site_label_1
_geom_bond_atom_site_label_2
_geom_bond_distance
_geom_bond_site_symmetry_2
Li0 Se0 2.670546 1_545
Li0 Se1 2.670546 1_455
Li0 Se0 2.670548 1_445
Li0 Se0 2.670548 1_555
Li0 Se1 2.670548 1_555
Li0 Se1 2.670548 1_445
Se0 V0 2.536491 1_565
Se0 V0 2.536493 1_665
Se0 V0 2.536493 1_555
Se1 V0 2.536491 1_656
Se1 V0 2.536493 1_666
Se1 V0 2.536493 1_556
