# generated using pymatgen
data_Rb5Nd2W(NO3)11
_symmetry_space_group_name_H-M   'P 1'
_cell_length_a   11.19167536
_cell_length_b   11.19167536
_cell_length_c   14.49124169
_cell_angle_alpha   76.48002875
_cell_angle_beta   76.48002875
_cell_angle_gamma   85.42615541
_symmetry_Int_Tables_number   1
_chemical_formula_structural   Rb5Nd2W(NO3)11
_chemical_formula_sum   'Rb10 Nd4 W2 N22 O66'
_cell_volume   1715.27239926
_cell_formula_units_Z   2
loop_
 _symmetry_equiv_pos_site_id
 _symmetry_equiv_pos_as_xyz
  1  'x, y, z'
loop_
 _atom_site_type_symbol
 _atom_site_label
 _atom_site_symmetry_multiplicity
 _atom_site_fract_x
 _atom_site_fract_y
 _atom_site_fract_z
 _atom_site_occupancy
  Rb  Rb0  1  0.38789800  0.61210200  0.25000000  1
  Rb  Rb1  1  0.61210200  0.38789800  0.75000000  1
  Rb  Rb2  1  0.27479200  0.13272800  0.23354200  1
  Rb  Rb3  1  0.72520800  0.86727200  0.76645800  1
  Rb  Rb4  1  0.86727200  0.72520800  0.26645800  1
  Rb  Rb5  1  0.13272800  0.27479200  0.73354200  1
  Rb  Rb6  1  0.55839600  0.78851800  0.52858700  1
  Rb  Rb7  1  0.44160400  0.21148200  0.47141300  1
  Rb  Rb8  1  0.21148200  0.44160400  0.97141300  1
  Rb  Rb9  1  0.78851800  0.55839600  0.02858700  1
  Nd  Nd0  1  0.70931300  0.11126500  0.11687100  1
  Nd  Nd1  1  0.29068700  0.88873500  0.88312900  1
  Nd  Nd2  1  0.88873500  0.29068700  0.38312900  1
  Nd  Nd3  1  0.11126500  0.70931300  0.61687100  1
  W  W0  1  0.14982100  0.85017900  0.25000000  1
  W  W1  1  0.85017900  0.14982100  0.75000000  1
  N  N0  1  0.73688200  0.07802000  0.52376200  1
  N  N1  1  0.26311800  0.92198000  0.47623800  1
  N  N2  1  0.92198000  0.26311800  0.97623800  1
  N  N3  1  0.07802000  0.73688200  0.02376200  1
  N  N4  1  0.46564200  0.74982000  0.00790000  1
  N  N5  1  0.53435800  0.25018000  0.99210000  1
  N  N6  1  0.25018000  0.53435800  0.49210000  1
  N  N7  1  0.74982000  0.46564200  0.50790000  1
  N  N8  1  0.22937000  0.08990500  0.99492700  1
  N  N9  1  0.77063000  0.91009500  0.00507300  1
  N  N10  1  0.91009500  0.77063000  0.50507300  1
  N  N11  1  0.08990500  0.22937000  0.49492700  1
  N  N12  1  0.53030200  0.28930700  0.21990900  1
  N  N13  1  0.46969800  0.71069300  0.78009100  1
  N  N14  1  0.71069300  0.46969800  0.28009100  1
  N  N15  1  0.28930700  0.53030200  0.71990900  1
  N  N16  1  0.57349000  0.89003800  0.26497200  1
  N  N17  1  0.42651000  0.10996200  0.73502800  1
  N  N18  1  0.10996200  0.42651000  0.23502800  1
  N  N19  1  0.89003800  0.57349000  0.76497200  1
  N  N20  1  0.89887200  0.10112800  0.25000000  1
  N  N21  1  0.10112800  0.89887200  0.75000000  1
  O  O0  1  0.79612700  0.90049900  0.08866600  1
  O  O1  1  0.20387300  0.09950100  0.91133400  1
  O  O2  1  0.09950100  0.20387300  0.41133400  1
  O  O3  1  0.90049900  0.79612700  0.58866600  1
  O  O4  1  0.29482400  0.99628100  0.02433500  1
  O  O5  1  0.70517600  0.00371900  0.97566500  1
  O  O6  1  0.00371900  0.70517600  0.47566500  1
  O  O7  1  0.99628100  0.29482400  0.52433500  1
  O  O8  1  0.90793400  0.02985200  0.19259100  1
  O  O9  1  0.09206600  0.97014800  0.80740900  1
  O  O10  1  0.97014800  0.09206600  0.30740900  1
  O  O11  1  0.02985200  0.90793400  0.69259100  1
  O  O12  1  0.53706000  0.17334500  0.25631900  1
  O  O13  1  0.46294000  0.82665500  0.74368100  1
  O  O14  1  0.82665500  0.46294000  0.24368100  1
  O  O15  1  0.17334500  0.53706000  0.75631900  1
  O  O16  1  0.49789400  0.17310400  0.07274900  1
  O  O17  1  0.50210600  0.82689600  0.92725100  1
  O  O18  1  0.82689600  0.50210600  0.42725100  1
  O  O19  1  0.17310400  0.49789400  0.57274900  1
  O  O20  1  0.19009800  0.16701700  0.04499200  1
  O  O21  1  0.80990200  0.83298300  0.95500800  1
  O  O22  1  0.83298300  0.80990200  0.45500800  1
  O  O23  1  0.16701700  0.19009800  0.54499200  1
  O  O24  1  0.34982700  0.73645500  0.03831000  1
  O  O25  1  0.65017300  0.26354500  0.96169000  1
  O  O26  1  0.26354500  0.65017300  0.46169000  1
  O  O27  1  0.73645500  0.34982700  0.53831000  1
  O  O28  1  0.33725500  0.99660600  0.41710600  1
  O  O29  1  0.66274500  0.00339400  0.58289400  1
  O  O30  1  0.00339400  0.66274500  0.08289400  1
  O  O31  1  0.99660600  0.33725500  0.91710600  1
  O  O32  1  0.70887200  0.14116700  0.44497400  1
  O  O33  1  0.29112800  0.85883300  0.55502600  1
  O  O34  1  0.85883300  0.29112800  0.05502600  1
  O  O35  1  0.14116700  0.70887200  0.94497400  1
  O  O36  1  0.54002200  0.69058000  0.05464200  1
  O  O37  1  0.45997800  0.30942000  0.94535800  1
  O  O38  1  0.30942000  0.45997800  0.44535800  1
  O  O39  1  0.69058000  0.54002200  0.55464200  1
  O  O40  1  0.66915500  0.93468800  0.27813900  1
  O  O41  1  0.33084500  0.06531200  0.72186100  1
  O  O42  1  0.06531200  0.33084500  0.22186100  1
  O  O43  1  0.93468800  0.66915500  0.77813900  1
  O  O44  1  0.81469500  0.18530500  0.25000000  1
  O  O45  1  0.18530500  0.81469500  0.75000000  1
  O  O46  1  0.61485000  0.33434300  0.14762800  1
  O  O47  1  0.38515000  0.66565700  0.85237200  1
  O  O48  1  0.66565700  0.38515000  0.35237200  1
  O  O49  1  0.33434300  0.61485000  0.64762800  1
  O  O50  1  0.52393300  0.79737000  0.32360100  1
  O  O51  1  0.47606700  0.20263000  0.67639900  1
  O  O52  1  0.20263000  0.47606700  0.17639900  1
  O  O53  1  0.79737000  0.52393300  0.82360100  1
  O  O54  1  0.44156100  0.35271700  0.25478000  1
  O  O55  1  0.55843900  0.64728300  0.74522000  1
  O  O56  1  0.64728300  0.55843900  0.24522000  1
  O  O57  1  0.35271700  0.44156100  0.75478000  1
  O  O58  1  0.53306700  0.94319300  0.19015900  1
  O  O59  1  0.46693300  0.05680700  0.80984100  1
  O  O60  1  0.05680700  0.46693300  0.30984100  1
  O  O61  1  0.94319300  0.53306700  0.69015900  1
  O  O62  1  0.84051500  0.09700900  0.53860700  1
  O  O63  1  0.15948500  0.90299100  0.46139300  1
  O  O64  1  0.90299100  0.15948500  0.96139300  1
  O  O65  1  0.09700900  0.84051500  0.03860700  1
loop_
_geom_bond_atom_site_label_1
_geom_bond_atom_site_label_2
_geom_bond_distance
_geom_bond_site_symmetry_2
Rb0 W0 3.614780 1_555
Rb1 W1 3.614780 1_555
Rb2 W0 3.494185 1_545
Rb3 W1 3.494185 1_565
Rb4 W0 3.494185 1_655
Rb5 W1 3.494185 1_455
Nd0 O0 2.564117 1_545
Nd0 O34 2.578359 1_555
Nd0 O16 2.593389 1_555
Nd0 O5 2.615865 1_554
Nd0 O12 2.627551 1_555
Nd0 O40 2.657057 1_545
Nd0 O25 2.669012 1_554
Nd0 O58 2.689798 1_545
Nd0 O8 2.706561 1_555
Nd0 O64 2.720394 1_554
Nd0 O46 2.725516 1_555
Nd0 O44 2.786867 1_555
Nd1 O1 2.564117 1_565
Nd1 O35 2.578359 1_555
Nd1 O17 2.593389 1_555
Nd1 O4 2.615865 1_556
Nd1 O13 2.627551 1_555
Nd1 O41 2.657057 1_565
Nd1 O24 2.669012 1_556
Nd1 O59 2.689798 1_565
Nd1 O9 2.706561 1_555
Nd1 O65 2.720394 1_556
Nd1 O47 2.725516 1_555
Nd1 O45 2.786867 1_555
Nd2 O2 2.564117 1_655
Nd2 O32 2.578359 1_555
Nd2 O18 2.593389 1_555
Nd2 O7 2.615865 1_555
Nd2 O14 2.627551 1_555
Nd2 O42 2.657057 1_655
Nd2 O27 2.669012 1_555
Nd2 O60 2.689798 1_655
Nd2 O10 2.706561 1_555
Nd2 O62 2.720394 1_555
Nd2 O48 2.725516 1_555
Nd2 O44 2.786867 1_555
Nd3 O3 2.564117 1_455
Nd3 O33 2.578359 1_555
Nd3 O19 2.593389 1_555
Nd3 O6 2.615865 1_555
Nd3 O15 2.627551 1_555
Nd3 O43 2.657057 1_455
Nd3 O26 2.669012 1_555
Nd3 O61 2.689798 1_455
Nd3 O11 2.706561 1_555
Nd3 O63 2.720394 1_555
Nd3 O49 2.725516 1_555
Nd3 O45 2.786867 1_555
N0 O29 1.250483 1_555
N0 O62 1.270428 1_555
N0 O32 1.286865 1_555
N1 O28 1.250483 1_555
N1 O63 1.270428 1_555
N1 O33 1.286865 1_555
N2 O31 1.250483 1_555
N2 O64 1.270428 1_555
N2 O34 1.286865 1_556
N3 O30 1.250483 1_555
N3 O65 1.270428 1_555
N3 O35 1.286865 1_554
N4 O36 1.247781 1_555
N4 O24 1.276574 1_555
N4 O17 1.279951 1_554
N5 O37 1.247781 1_555
N5 O25 1.276574 1_555
N5 O16 1.279951 1_556
N6 O38 1.247781 1_555
N6 O26 1.276574 1_555
N6 O19 1.279951 1_555
N7 O39 1.247781 1_555
N7 O27 1.276574 1_555
N7 O18 1.279951 1_555
N8 O20 1.243980 1_556
N8 O4 1.277064 1_546
N8 O1 1.286964 1_555
N9 O21 1.243980 1_554
N9 O5 1.277064 1_564
N9 O0 1.286964 1_555
N10 O22 1.243980 1_555
N10 O6 1.277064 1_655
N10 O3 1.286964 1_555
N11 O23 1.243980 1_555
N11 O7 1.277064 1_455
N11 O2 1.286964 1_555
N12 O54 1.251380 1_555
N12 O46 1.269777 1_555
N12 O12 1.285010 1_555
N13 O55 1.251380 1_555
N13 O47 1.269777 1_555
N13 O13 1.285010 1_555
N14 O56 1.251380 1_555
N14 O48 1.269777 1_555
N14 O14 1.285010 1_555
N15 O57 1.251380 1_555
N15 O49 1.269777 1_555
N15 O15 1.285010 1_555
N16 O50 1.250784 1_555
N16 O58 1.272304 1_555
N16 O40 1.287571 1_555
N17 O51 1.250784 1_555
N17 O59 1.272304 1_555
N17 O41 1.287571 1_555
N18 O52 1.250784 1_555
N18 O60 1.272304 1_555
N18 O42 1.287571 1_555
N19 O53 1.250784 1_555
N19 O61 1.272304 1_555
N19 O43 1.287571 1_555
N20 O10 1.263586 1_555
N20 O8 1.263586 1_555
N20 O44 1.278080 1_555
N21 O9 1.263586 1_555
N21 O11 1.263586 1_555
N21 O45 1.278080 1_555
O0 Rb4 3.076911 1_555
O1 Rb5 3.076911 1_555
O2 Rb2 3.076911 1_555
O3 Rb3 3.076911 1_555
O8 Rb4 3.360163 1_545
O9 Rb5 3.360163 1_565
O10 Rb2 3.360163 1_655
O11 Rb3 3.360163 1_455
O12 Rb2 3.109185 1_555
O12 Rb7 3.167236 1_555
O13 Rb3 3.109185 1_555
O13 Rb6 3.167236 1_555
O14 Rb4 3.109185 1_555
O14 Rb9 3.167236 1_555
O15 Rb5 3.109185 1_555
O15 Rb8 3.167236 1_555
O16 Rb2 2.972421 1_555
O17 Rb3 2.972421 1_555
O18 Rb4 2.972421 1_555
O19 Rb5 2.972421 1_555
O20 Rb8 3.017275 1_554
O20 Rb2 3.028859 1_555
O21 Rb9 3.017275 1_556
O21 Rb3 3.028859 1_555
O22 Rb6 3.017275 1_555
O22 Rb4 3.028859 1_555
O23 Rb7 3.017275 1_555
O23 Rb5 3.028859 1_555
O24 Rb0 3.170060 1_555
O25 Rb1 3.170060 1_555
O26 Rb0 3.170060 1_555
O27 Rb1 3.170060 1_555
O28 Rb2 2.947939 1_565
O28 Rb7 3.086889 1_565
O29 Rb3 2.947939 1_545
O29 Rb6 3.086889 1_545
O30 Rb4 2.947939 1_455
O30 Rb9 3.086889 1_455
O31 Rb5 2.947939 1_655
O31 Rb8 3.086889 1_655
O32 Rb7 2.990472 1_555
O33 Rb6 2.990472 1_555
O34 Rb9 2.990472 1_555
O35 Rb8 2.990472 1_555
O36 Rb0 2.916634 1_555
O36 Rb9 3.029774 1_555
O37 Rb1 2.916634 1_555
O37 Rb8 3.029774 1_555
O38 Rb0 2.916634 1_555
O38 Rb7 3.029774 1_555
O39 Rb1 2.916634 1_555
O39 Rb6 3.029774 1_555
O40 Rb4 3.101979 1_555
O41 Rb5 3.101979 1_555
O42 Rb2 3.101979 1_555
O43 Rb3 3.101979 1_555
O46 Rb9 3.198172 1_555
O47 Rb8 3.198172 1_555
O48 Rb7 3.198172 1_555
O49 Rb6 3.198172 1_555
O50 Rb6 3.061775 1_555
O50 Rb0 3.170397 1_555
O51 Rb7 3.061775 1_555
O51 Rb1 3.170397 1_555
O52 Rb8 3.061775 1_554
O52 Rb0 3.170397 1_555
O53 Rb9 3.061775 1_556
O53 Rb1 3.170397 1_555
O54 Rb0 2.905168 1_555
O54 Rb7 3.167651 1_555
O54 Rb2 3.315974 1_555
O55 Rb1 2.905168 1_555
O55 Rb6 3.167651 1_555
O55 Rb3 3.315974 1_555
O56 Rb0 2.905168 1_555
O56 Rb9 3.167651 1_555
O56 Rb4 3.315974 1_555
O57 Rb1 2.905168 1_555
O57 Rb8 3.167651 1_555
O57 Rb5 3.315974 1_555
O58 Rb2 3.470723 1_565
O59 Rb3 3.470723 1_545
O60 Rb4 3.470723 1_455
O61 Rb5 3.470723 1_655
