# generated using pymatgen
data_Er2Ge2O7
_symmetry_space_group_name_H-M   'P 1'
_cell_length_a   6.75820297
_cell_length_b   6.75820297
_cell_length_c   12.30430649
_cell_angle_alpha   90.00000000
_cell_angle_beta   90.00000000
_cell_angle_gamma   90.00000000
_symmetry_Int_Tables_number   1
_chemical_formula_structural   Er2Ge2O7
_chemical_formula_sum   'Er8 Ge8 O28'
_cell_volume   561.97837246
_cell_formula_units_Z   4
loop_
 _symmetry_equiv_pos_site_id
 _symmetry_equiv_pos_as_xyz
  1  'x, y, z'
loop_
 _atom_site_type_symbol
 _atom_site_label
 _atom_site_symmetry_multiplicity
 _atom_site_fract_x
 _atom_site_fract_y
 _atom_site_fract_z
 _atom_site_occupancy
  Er  Er0  1  0.64548086  0.12604231  0.36453750  1
  Er  Er1  1  0.35451914  0.87395769  0.86453750  1
  Er  Er2  1  0.12604231  0.64548086  0.63546250  1
  Er  Er3  1  0.62604231  0.85451914  0.11453750  1
  Er  Er4  1  0.37395769  0.14548086  0.61453750  1
  Er  Er5  1  0.85451914  0.62604231  0.88546250  1
  Er  Er6  1  0.14548086  0.37395769  0.38546250  1
  Er  Er7  1  0.87395769  0.35451914  0.13546250  1
  Ge  Ge0  1  0.84886880  0.10034933  0.88171926  1
  Ge  Ge1  1  0.15113120  0.89965067  0.38171926  1
  Ge  Ge2  1  0.10034933  0.84886880  0.11828074  1
  Ge  Ge3  1  0.60034933  0.65113120  0.63171926  1
  Ge  Ge4  1  0.39965067  0.34886880  0.13171926  1
  Ge  Ge5  1  0.65113120  0.60034933  0.36828074  1
  Ge  Ge6  1  0.34886880  0.39965067  0.86828074  1
  Ge  Ge7  1  0.89965067  0.15113120  0.61828074  1
  O  O0  1  0.85652170  0.31965419  0.95599417  1
  O  O1  1  0.14347830  0.68034581  0.45599417  1
  O  O2  1  0.31965419  0.85652170  0.04400583  1
  O  O3  1  0.81965419  0.64347830  0.70599417  1
  O  O4  1  0.18034581  0.35652170  0.20599417  1
  O  O5  1  0.64347830  0.81965419  0.29400583  1
  O  O6  1  0.35652170  0.18034581  0.79400583  1
  O  O7  1  0.68034581  0.14347830  0.54400583  1
  O  O8  1  0.66159200  0.93556379  0.92911050  1
  O  O9  1  0.33840800  0.06443621  0.42911050  1
  O  O10  1  0.93556379  0.66159200  0.07088950  1
  O  O11  1  0.43556379  0.83840800  0.67911050  1
  O  O12  1  0.56443621  0.16159200  0.17911050  1
  O  O13  1  0.83840800  0.43556379  0.32088950  1
  O  O14  1  0.16159200  0.56443621  0.82088950  1
  O  O15  1  0.06443621  0.33840800  0.57088950  1
  O  O16  1  0.80403507  0.19596493  0.75000000  1
  O  O17  1  0.30403507  0.30403507  -0.00000000  1
  O  O18  1  0.69596493  0.69596493  0.50000000  1
  O  O19  1  0.19596493  0.80403507  0.25000000  1
  O  O20  1  0.07802173  0.96550248  0.62172511  1
  O  O21  1  0.53449752  0.57802173  0.87172511  1
  O  O22  1  0.46550248  0.42197827  0.37172511  1
  O  O23  1  0.57802173  0.53449752  0.12827489  1
  O  O24  1  0.42197827  0.46550248  0.62827489  1
  O  O25  1  0.92197827  0.03449752  0.12172511  1
  O  O26  1  0.96550248  0.07802173  0.37827489  1
  O  O27  1  0.03449752  0.92197827  0.87827489  1
loop_
_geom_bond_atom_site_label_1
_geom_bond_atom_site_label_2
_geom_bond_distance
_geom_bond_site_symmetry_2
Er0 O26 2.193507 1_555
Er0 O7 2.223893 1_555
Er0 O5 2.245185 1_545
Er0 O9 2.260824 1_555
Er0 O22 2.342491 1_555
Er0 O12 2.358641 1_555
Er0 O13 2.522716 1_555
Er1 O27 2.193507 1_555
Er1 O2 2.223893 1_556
Er1 O6 2.245185 1_565
Er1 O8 2.260824 1_555
Er1 O21 2.342491 1_555
Er1 O11 2.358641 1_555
Er1 O14 2.522716 1_555
Er2 O20 2.193507 1_555
Er2 O1 2.223893 1_555
Er2 O3 2.245185 1_455
Er2 O15 2.260824 1_555
Er2 O24 2.342491 1_555
Er2 O14 2.358641 1_555
Er2 O11 2.522716 1_555
Er3 O23 2.193507 1_555
Er3 O5 2.223893 1_555
Er3 O2 2.245185 1_555
Er3 O12 2.260824 1_565
Er3 O25 2.342491 1_565
Er3 O8 2.358641 1_554
Er3 O10 2.522716 1_555
Er4 O24 2.193507 1_555
Er4 O6 2.223893 1_555
Er4 O7 2.245185 1_555
Er4 O11 2.260824 1_545
Er4 O20 2.342491 1_545
Er4 O9 2.358641 1_555
Er4 O15 2.522716 1_555
Er5 O21 2.193507 1_555
Er5 O3 2.223893 1_555
Er5 O0 2.245185 1_555
Er5 O14 2.260824 1_655
Er5 O27 2.342491 1_655
Er5 O10 2.358641 1_556
Er5 O8 2.522716 1_555
Er6 O22 2.193507 1_555
Er6 O4 2.223893 1_555
Er6 O1 2.245185 1_555
Er6 O13 2.260824 1_455
Er6 O26 2.342491 1_455
Er6 O15 2.358641 1_555
Er6 O9 2.522716 1_555
Er7 O25 2.193507 1_555
Er7 O0 2.223893 1_554
Er7 O4 2.245185 1_655
Er7 O10 2.260824 1_555
Er7 O23 2.342491 1_555
Er7 O13 2.358641 1_555
Er7 O12 2.522716 1_555
Ge0 O27 1.740333 1_645
Ge0 O0 1.741990 1_555
Ge0 O16 1.770899 1_555
Ge0 O8 1.783853 1_545
Ge1 O26 1.740333 1_465
Ge1 O1 1.741990 1_555
Ge1 O19 1.770899 1_555
Ge1 O9 1.783853 1_565
Ge2 O25 1.740333 1_465
Ge2 O2 1.741990 1_555
Ge2 O19 1.770899 1_555
Ge2 O10 1.783853 1_455
Ge3 O24 1.740333 1_555
Ge3 O3 1.741990 1_555
Ge3 O18 1.770899 1_555
Ge3 O11 1.783853 1_555
Ge4 O23 1.740333 1_555
Ge4 O4 1.741990 1_555
Ge4 O17 1.770899 1_555
Ge4 O12 1.783853 1_555
Ge5 O22 1.740333 1_555
Ge5 O5 1.741990 1_555
Ge5 O18 1.770899 1_555
Ge5 O13 1.783853 1_555
Ge6 O21 1.740333 1_555
Ge6 O6 1.741990 1_555
Ge6 O17 1.770899 1_556
Ge6 O14 1.783853 1_555
Ge7 O20 1.740333 1_645
Ge7 O7 1.741990 1_555
Ge7 O16 1.770899 1_555
Ge7 O15 1.783853 1_655
