# generated using pymatgen
data_NaClO5
_symmetry_space_group_name_H-M   'P 1'
_cell_length_a   4.78222164
_cell_length_b   6.36804990
_cell_length_c   9.75292901
_cell_angle_alpha   60.35602388
_cell_angle_beta   86.16607227
_cell_angle_gamma   72.35283832
_symmetry_Int_Tables_number   1
_chemical_formula_structural   NaClO5
_chemical_formula_sum   'Na2 Cl2 O10'
_cell_volume   244.74788841
_cell_formula_units_Z   2
loop_
 _symmetry_equiv_pos_site_id
 _symmetry_equiv_pos_as_xyz
  1  'x, y, z'
loop_
 _atom_site_type_symbol
 _atom_site_label
 _atom_site_symmetry_multiplicity
 _atom_site_fract_x
 _atom_site_fract_y
 _atom_site_fract_z
 _atom_site_occupancy
  Na  Na0  1  0.29722100  0.38193300  0.39045000  1
  Na  Na1  1  0.70277900  0.61806700  0.60955000  1
  Cl  Cl0  1  0.17286600  0.12335800  0.14105300  1
  Cl  Cl1  1  0.82713400  0.87664200  0.85894700  1
  O  O0  1  0.76640000  0.41288600  0.44274300  1
  O  O1  1  0.23360000  0.58711400  0.55725700  1
  O  O2  1  0.23283800  0.12610600  0.28966600  1
  O  O3  1  0.76716200  0.87389400  0.71033400  1
  O  O4  1  0.85841200  0.15016100  0.10814400  1
  O  O5  1  0.14158800  0.84983900  0.89185600  1
  O  O6  1  0.52158400  0.70193200  0.19562100  1
  O  O7  1  0.47841600  0.29806800  0.80437900  1
  O  O8  1  0.24793300  0.37359500  0.70340100  1
  O  O9  1  0.75206700  0.62640500  0.29659900  1
loop_
_geom_bond_atom_site_label_1
_geom_bond_atom_site_label_2
_geom_bond_distance
_geom_bond_site_symmetry_2
Na0 O2 2.375637 1_555
Na0 O0 2.419474 1_555
Na0 O6 2.477297 1_555
Na0 O1 2.498391 1_555
Na0 O0 2.523073 1_455
Na0 O9 2.550854 1_455
Na1 O3 2.375637 1_555
Na1 O1 2.419474 1_555
Na1 O7 2.477297 1_555
Na1 O0 2.498391 1_555
Na1 O1 2.523073 1_655
Na1 O8 2.550854 1_655
Cl0 O4 1.499420 1_455
Cl0 O2 1.505682 1_555
Cl1 O5 1.499420 1_655
Cl1 O3 1.505682 1_555
O0 O9 1.387257 1_555
O1 O8 1.387257 1_555
O6 O9 1.330899 1_555
O7 O8 1.330899 1_555
