# generated using pymatgen
data_DyMn2O4
_symmetry_space_group_name_H-M   'P 1'
_cell_length_a   6.48477036
_cell_length_b   6.48477036
_cell_length_c   6.28172477
_cell_angle_alpha   61.40553649
_cell_angle_beta   61.40553649
_cell_angle_gamma   57.38831368
_symmetry_Int_Tables_number   1
_chemical_formula_structural   DyMn2O4
_chemical_formula_sum   'Dy2 Mn4 O8'
_cell_volume   186.47513638
_cell_formula_units_Z   2
loop_
 _symmetry_equiv_pos_site_id
 _symmetry_equiv_pos_as_xyz
  1  'x, y, z'
loop_
 _atom_site_type_symbol
 _atom_site_label
 _atom_site_symmetry_multiplicity
 _atom_site_fract_x
 _atom_site_fract_y
 _atom_site_fract_z
 _atom_site_occupancy
  Dy  Dy0  1  0.12545300  0.12545300  0.61198300  1
  Dy  Dy1  1  0.87454700  0.87454700  0.38801700  1
  Mn  Mn0  1  0.50000000  0.50000000  0.50000000  1
  Mn  Mn1  1  0.50000000  0.50000000  0.00000000  1
  Mn  Mn2  1  0.50000000  0.00000000  0.00000000  1
  Mn  Mn3  1  0.00000000  0.50000000  0.00000000  1
  O  O0  1  0.73305700  0.73305700  0.79615600  1
  O  O1  1  0.75114100  0.75114100  0.22039500  1
  O  O2  1  0.73002700  0.28724600  0.26536300  1
  O  O3  1  0.28724600  0.73002700  0.26536300  1
  O  O4  1  0.26694300  0.26694300  0.20384400  1
  O  O5  1  0.24885900  0.24885900  0.77960500  1
  O  O6  1  0.26997300  0.71275400  0.73463700  1
  O  O7  1  0.71275400  0.26997300  0.73463700  1
loop_
_geom_bond_atom_site_label_1
_geom_bond_atom_site_label_2
_geom_bond_distance
_geom_bond_site_symmetry_2
Dy0 O6 2.155975 1_545
Dy0 O7 2.155975 1_455
Dy0 O4 2.158900 1_555
Dy0 O5 2.166335 1_555
Dy1 O3 2.155975 1_655
Dy1 O2 2.155975 1_565
Dy1 O0 2.158900 1_555
Dy1 O1 2.166335 1_555
Mn0 O2 1.981081 1_555
Mn0 O3 1.981081 1_555
Mn0 O6 1.981081 1_555
Mn0 O7 1.981081 1_555
Mn0 O1 2.402563 1_555
Mn0 O5 2.402563 1_555
Mn1 O3 2.206279 1_555
Mn1 O2 2.206279 1_555
Mn1 O6 2.206279 1_554
Mn1 O7 2.206279 1_554
Mn1 O0 2.228220 1_554
Mn1 O4 2.228220 1_555
Mn2 O1 2.088079 1_545
Mn2 O5 2.088079 1_554
Mn2 O4 2.090387 1_555
Mn2 O0 2.090387 1_544
Mn2 O7 2.314256 1_554
Mn2 O3 2.314256 1_545
Mn3 O1 2.088079 1_455
Mn3 O5 2.088079 1_554
Mn3 O4 2.090387 1_555
Mn3 O0 2.090387 1_454
Mn3 O6 2.314256 1_554
Mn3 O2 2.314256 1_455
