# generated using pymatgen
data_BaMgMn4O8
_symmetry_space_group_name_H-M   'P 1'
_cell_length_a   5.48806550
_cell_length_b   5.48806550
_cell_length_c   7.25706600
_cell_angle_alpha   90.00000000
_cell_angle_beta   90.00000000
_cell_angle_gamma   119.99999401
_symmetry_Int_Tables_number   1
_chemical_formula_structural   BaMgMn4O8
_chemical_formula_sum   'Ba1 Mg1 Mn4 O8'
_cell_volume   189.29114721
_cell_formula_units_Z   1
loop_
 _symmetry_equiv_pos_site_id
 _symmetry_equiv_pos_as_xyz
  1  'x, y, z'
loop_
 _atom_site_type_symbol
 _atom_site_label
 _atom_site_symmetry_multiplicity
 _atom_site_fract_x
 _atom_site_fract_y
 _atom_site_fract_z
 _atom_site_occupancy
  Ba  Ba0  1  0.00000000  0.00000000  0.00000000  1
  Mg  Mg0  1  0.00000000  0.00000000  0.50000000  1
  Mn  Mn0  1  0.33333300  0.66666700  0.73891800  1
  Mn  Mn1  1  0.66666700  0.33333300  0.73891800  1
  Mn  Mn2  1  0.33333300  0.66666700  0.26108200  1
  Mn  Mn3  1  0.66666700  0.33333300  0.26108200  1
  O  O0  1  0.31037900  0.31037900  0.68111400  1
  O  O1  1  0.68962100  0.00000000  0.68111400  1
  O  O2  1  0.00000000  0.68962100  0.68111400  1
  O  O3  1  0.68962100  0.68962100  0.31888600  1
  O  O4  1  0.00000000  0.31037900  0.31888600  1
  O  O5  1  0.31037900  0.00000000  0.31888600  1
  O  O6  1  0.33333300  0.66666700  0.00000000  1
  O  O7  1  0.66666700  0.33333300  0.00000000  1
loop_
_geom_bond_atom_site_label_1
_geom_bond_atom_site_label_2
_geom_bond_distance
_geom_bond_site_symmetry_2
Ba0 O4 2.873485 1_555
Ba0 O5 2.873485 1_555
Ba0 O1 2.873485 1_454
Ba0 O2 2.873485 1_544
Ba0 O0 2.873486 1_554
Ba0 O3 2.873486 1_445
Ba0 O6 3.168533 1_545
Ba0 O7 3.168533 1_455
Ba0 O6 3.168538 1_555
Ba0 O6 3.168538 1_445
Ba0 O7 3.168538 1_555
Ba0 O7 3.168538 1_445
Mg0 O4 2.151520 1_555
Mg0 O5 2.151520 1_555
Mg0 O2 2.151520 1_545
Mg0 O1 2.151520 1_455
Mg0 O0 2.151520 1_555
Mg0 O3 2.151520 1_445
Mn0 O6 1.894689 1_556
Mn0 O2 1.941345 1_555
Mn0 O1 1.941348 1_565
Mn0 O0 1.941351 1_555
Mn1 O7 1.894689 1_556
Mn1 O1 1.941345 1_555
Mn1 O2 1.941348 1_655
Mn1 O0 1.941351 1_555
Mn2 O6 1.894689 1_555
Mn2 O5 1.941345 1_565
Mn2 O4 1.941348 1_555
Mn2 O3 1.941351 1_555
Mn3 O7 1.894689 1_555
Mn3 O4 1.941345 1_655
Mn3 O5 1.941348 1_555
Mn3 O3 1.941351 1_555
