# generated using pymatgen
data_SmPS
_symmetry_space_group_name_H-M   'P 1'
_cell_length_a   5.44591165
_cell_length_b   5.50003892
_cell_length_c   17.00486523
_cell_angle_alpha   90.00000000
_cell_angle_beta   90.00000000
_cell_angle_gamma   90.00000000
_symmetry_Int_Tables_number   1
_chemical_formula_structural   SmPS
_chemical_formula_sum   'Sm8 P8 S8'
_cell_volume   509.34206941
_cell_formula_units_Z   8
loop_
 _symmetry_equiv_pos_site_id
 _symmetry_equiv_pos_as_xyz
  1  'x, y, z'
loop_
 _atom_site_type_symbol
 _atom_site_label
 _atom_site_symmetry_multiplicity
 _atom_site_fract_x
 _atom_site_fract_y
 _atom_site_fract_z
 _atom_site_occupancy
  Sm  Sm0  1  0.25000000  0.48336966  0.36221289  1
  Sm  Sm1  1  0.25000000  0.98336966  0.13778711  1
  Sm  Sm2  1  0.75000000  0.51663034  0.63778711  1
  Sm  Sm3  1  0.75000000  0.01663034  0.86221289  1
  Sm  Sm4  1  0.25000000  0.01559711  0.64758918  1
  Sm  Sm5  1  0.25000000  0.51559711  0.85241082  1
  Sm  Sm6  1  0.75000000  0.98440289  0.35241082  1
  Sm  Sm7  1  0.75000000  0.48440289  0.14758918  1
  P  P0  1  0.04342683  0.30211583  0.99719267  1
  P  P1  1  0.45657317  0.80211583  0.50280733  1
  P  P2  1  0.54342683  0.69788417  0.00280733  1
  P  P3  1  0.95657317  0.19788417  0.49719267  1
  P  P4  1  0.95657317  0.69788417  0.00280733  1
  P  P5  1  0.54342683  0.19788417  0.49719267  1
  P  P6  1  0.45657317  0.30211583  0.99719267  1
  P  P7  1  0.04342683  0.80211583  0.50280733  1
  S  S0  1  0.25000000  0.48498783  0.18904188  1
  S  S1  1  0.25000000  0.98498783  0.31095812  1
  S  S2  1  0.75000000  0.51501217  0.81095812  1
  S  S3  1  0.75000000  0.01501217  0.68904188  1
  S  S4  1  0.25000000  0.01162906  0.81683513  1
  S  S5  1  0.25000000  0.51162906  0.68316487  1
  S  S6  1  0.75000000  0.98837094  0.18316487  1
  S  S7  1  0.75000000  0.48837094  0.31683513  1
loop_
_geom_bond_atom_site_label_1
_geom_bond_atom_site_label_2
_geom_bond_distance
_geom_bond_site_symmetry_2
P0 P4 2.229584 1_456
P0 P6 2.249958 1_555
P0 Sm5 2.950533 1_555
P0 Sm1 3.170941 1_546
P0 Sm7 3.177951 1_456
P0 Sm3 3.207407 1_455
P1 P5 2.229584 1_565
P1 P7 2.249958 1_555
P1 Sm4 2.950533 1_565
P1 Sm0 3.170941 1_555
P1 Sm6 3.177951 1_555
P1 Sm2 3.207407 1_555
P2 P6 2.229584 1_554
P2 P4 2.249958 1_555
P2 Sm7 2.950533 1_555
P2 Sm3 3.170941 1_564
P2 Sm5 3.177951 1_554
P2 Sm1 3.207407 1_555
P3 P7 2.229584 1_645
P3 P5 2.249958 1_555
P3 Sm6 2.950533 1_545
P3 Sm2 3.170941 1_555
P3 Sm4 3.177951 1_655
P3 Sm0 3.207407 1_655
P4 Sm7 2.950533 1_555
P4 Sm3 3.170941 1_564
P4 Sm5 3.177951 1_654
P4 Sm1 3.207407 1_655
P5 Sm6 2.950533 1_545
P5 Sm2 3.170941 1_555
P5 Sm4 3.177951 1_555
P5 Sm0 3.207407 1_555
P6 Sm5 2.950533 1_555
P6 Sm1 3.170941 1_546
P6 Sm7 3.177951 1_556
P6 Sm3 3.207407 1_555
P7 Sm4 2.950533 1_565
P7 Sm0 3.170941 1_555
P7 Sm6 3.177951 1_455
P7 Sm2 3.207407 1_455
S0 Sm7 2.812717 1_555
S0 Sm7 2.812717 1_455
S0 Sm1 2.876350 1_555
S0 Sm1 2.893318 1_545
S0 Sm0 2.944763 1_555
S1 Sm6 2.812717 1_455
S1 Sm6 2.812717 1_555
S1 Sm0 2.876350 1_565
S1 Sm0 2.893318 1_555
S1 Sm1 2.944763 1_555
S2 Sm5 2.812717 1_555
S2 Sm5 2.812717 1_655
S2 Sm3 2.876350 1_555
S2 Sm3 2.893318 1_565
S2 Sm2 2.944763 1_555
S3 Sm4 2.812717 1_555
S3 Sm4 2.812717 1_655
S3 Sm2 2.876350 1_545
S3 Sm2 2.893318 1_555
S3 Sm3 2.944763 1_555
S4 Sm5 2.794463 1_545
S4 Sm3 2.830314 1_455
S4 Sm3 2.830314 1_555
S4 Sm5 2.837093 1_555
S4 Sm4 2.878087 1_555
S5 Sm4 2.794463 1_555
S5 Sm2 2.830314 1_555
S5 Sm2 2.830314 1_455
S5 Sm4 2.837093 1_565
S5 Sm5 2.878087 1_555
S6 Sm7 2.794463 1_565
S6 Sm1 2.830314 1_555
S6 Sm1 2.830314 1_655
S6 Sm7 2.837093 1_555
S6 Sm6 2.878087 1_555
S7 Sm6 2.794463 1_555
S7 Sm0 2.830314 1_555
S7 Sm0 2.830314 1_655
S7 Sm6 2.837093 1_545
S7 Sm7 2.878087 1_555
