# generated using pymatgen
data_SrCaGdNbO6
_symmetry_space_group_name_H-M   'P 1'
_cell_length_a   5.82160272
_cell_length_b   5.82160272
_cell_length_c   8.53137390
_cell_angle_alpha   90.00000000
_cell_angle_beta   90.00000000
_cell_angle_gamma   90.00000000
_symmetry_Int_Tables_number   1
_chemical_formula_structural   SrCaGdNbO6
_chemical_formula_sum   'Sr2 Ca2 Gd2 Nb2 O12'
_cell_volume   289.13728962
_cell_formula_units_Z   2
loop_
 _symmetry_equiv_pos_site_id
 _symmetry_equiv_pos_as_xyz
  1  'x, y, z'
loop_
 _atom_site_type_symbol
 _atom_site_label
 _atom_site_symmetry_multiplicity
 _atom_site_fract_x
 _atom_site_fract_y
 _atom_site_fract_z
 _atom_site_occupancy
  Sr  Sr0  1  0.50000000  -0.00000000  0.25000000  1
  Sr  Sr1  1  0.00000000  0.50000000  0.75000000  1
  Ca  Ca0  1  0.00000000  0.50000000  0.25000000  1
  Ca  Ca1  1  0.50000000  0.00000000  0.75000000  1
  Gd  Gd0  1  0.00000000  -0.00000000  -0.00000000  1
  Gd  Gd1  1  0.50000000  0.50000000  0.50000000  1
  Nb  Nb0  1  0.00000000  -0.00000000  0.50000000  1
  Nb  Nb1  1  0.50000000  0.50000000  0.00000000  1
  O  O0  1  0.00000000  0.00000000  0.26306386  1
  O  O1  1  0.50000000  0.50000000  0.23693614  1
  O  O2  1  0.00000000  -0.00000000  0.73693614  1
  O  O3  1  0.50000000  0.50000000  0.76306386  1
  O  O4  1  0.34036989  0.19252556  0.98534123  1
  O  O5  1  0.65963011  0.80747444  0.98534123  1
  O  O6  1  0.80747444  0.34036989  0.01465877  1
  O  O7  1  0.19252556  0.65963011  0.01465877  1
  O  O8  1  0.84036989  0.30747444  0.48534123  1
  O  O9  1  0.15963011  0.69252556  0.48534123  1
  O  O10  1  0.30747444  0.15963011  0.51465877  1
  O  O11  1  0.69252556  0.84036989  0.51465877  1
loop_
_geom_bond_atom_site_label_1
_geom_bond_atom_site_label_2
_geom_bond_distance
_geom_bond_site_symmetry_2
Ca0 O6 2.480123 1_455
Ca0 O9 2.480123 1_555
Ca0 O7 2.480123 1_555
Ca0 O8 2.480123 1_455
Ca0 O0 2.912934 1_555
Ca0 O1 2.912934 1_455
Ca0 O1 2.912934 1_555
Ca0 O0 2.912934 1_565
Ca1 O11 2.480123 1_545
Ca1 O10 2.480123 1_555
Ca1 O5 2.480123 1_545
Ca1 O4 2.480123 1_555
Ca1 O2 2.912934 1_655
Ca1 O3 2.912934 1_545
Ca1 O2 2.912934 1_555
Ca1 O3 2.912934 1_555
Gd0 O0 2.244296 1_555
Gd0 O2 2.244296 1_554
Gd0 O4 2.279953 1_554
Gd0 O5 2.279953 1_444
Gd0 O7 2.279953 1_545
Gd0 O6 2.279953 1_455
Gd1 O1 2.244296 1_555
Gd1 O3 2.244296 1_555
Gd1 O10 2.279953 1_555
Gd1 O9 2.279953 1_555
Gd1 O8 2.279953 1_555
Gd1 O11 2.279953 1_555
Nb0 O8 2.020723 1_455
Nb0 O11 2.020723 1_445
Nb0 O9 2.020723 1_545
Nb0 O10 2.020723 1_555
Nb0 O2 2.021391 1_555
Nb0 O0 2.021391 1_555
Nb1 O6 2.020723 1_555
Nb1 O4 2.020723 1_554
Nb1 O7 2.020723 1_555
Nb1 O5 2.020723 1_554
Nb1 O3 2.021391 1_554
Nb1 O1 2.021391 1_555
O0 Sr0 2.912934 1_455
O0 Sr0 2.912934 1_555
O1 Sr0 2.912934 1_565
O1 Sr0 2.912934 1_555
O2 Sr1 2.912934 1_555
O2 Sr1 2.912934 1_545
O3 Sr1 2.912934 1_655
O3 Sr1 2.912934 1_555
O4 Sr0 2.686622 1_556
O5 Sr0 2.686622 1_566
O6 Sr1 2.686622 1_654
O7 Sr1 2.686622 1_554
O8 Sr1 2.686622 1_655
O9 Sr1 2.686622 1_555
O10 Sr0 2.686622 1_555
O11 Sr0 2.686622 1_565
