# generated using pymatgen
data_LiNd(C2O5)2
_symmetry_space_group_name_H-M   'P 1'
_cell_length_a   7.57886200
_cell_length_b   9.61485500
_cell_length_c   12.69922706
_cell_angle_alpha   75.32081989
_cell_angle_beta   90.00000000
_cell_angle_gamma   90.00000000
_symmetry_Int_Tables_number   1
_chemical_formula_structural   LiNd(C2O5)2
_chemical_formula_sum   'Li4 Nd4 C16 O40'
_cell_volume   895.18357832
_cell_formula_units_Z   4
loop_
 _symmetry_equiv_pos_site_id
 _symmetry_equiv_pos_as_xyz
  1  'x, y, z'
loop_
 _atom_site_type_symbol
 _atom_site_label
 _atom_site_symmetry_multiplicity
 _atom_site_fract_x
 _atom_site_fract_y
 _atom_site_fract_z
 _atom_site_occupancy
  Li  Li0  1  0.30777100  0.58896500  0.29994300  1
  Li  Li1  1  0.69222900  0.41103500  0.70005700  1
  Li  Li2  1  0.30777100  0.91103500  0.70005700  1
  Li  Li3  1  0.69222900  0.08896500  0.29994300  1
  Nd  Nd0  1  0.77681200  0.71324400  0.25491000  1
  Nd  Nd1  1  0.22318800  0.28675600  0.74509000  1
  Nd  Nd2  1  0.77681200  0.78675600  0.74509000  1
  Nd  Nd3  1  0.22318800  0.21324400  0.25491000  1
  C  C0  1  0.83082500  0.36859000  0.27788100  1
  C  C1  1  0.16917500  0.63141000  0.72211900  1
  C  C2  1  0.83082500  0.13141000  0.72211900  1
  C  C3  1  0.16917500  0.86859000  0.27788100  1
  C  C4  1  0.87582000  0.75000000  0.00000000  1
  C  C5  1  0.12418000  0.25000000  0.00000000  1
  C  C6  1  0.67037400  0.75000000  0.00000000  1
  C  C7  1  0.32962600  0.25000000  0.00000000  1
  C  C8  1  0.37227800  0.88105800  0.28587100  1
  C  C9  1  0.62772200  0.11894200  0.71412900  1
  C  C10  1  0.37227800  0.61894200  0.71412900  1
  C  C11  1  0.62772200  0.38105800  0.28587100  1
  C  C12  1  0.77711300  0.83356900  0.47864500  1
  C  C13  1  0.22288700  0.16643100  0.52135500  1
  C  C14  1  0.77711300  0.66643100  0.52135500  1
  C  C15  1  0.22288700  0.33356900  0.47864500  1
  O  O0  1  0.56647000  0.50576900  0.27845400  1
  O  O1  1  0.43353000  0.49423100  0.72154600  1
  O  O2  1  0.56647000  0.99423100  0.72154600  1
  O  O3  1  0.43353000  0.00576900  0.27845400  1
  O  O4  1  0.95053500  0.76219900  0.08631600  1
  O  O5  1  0.04946500  0.23780100  0.91368400  1
  O  O6  1  0.95053500  0.73780100  0.91368400  1
  O  O7  1  0.04946500  0.26219900  0.08631600  1
  O  O8  1  0.59548100  0.74866800  0.08933900  1
  O  O9  1  0.40451900  0.25133200  0.91066100  1
  O  O10  1  0.59548100  0.75133200  0.91066100  1
  O  O11  1  0.40451900  0.24866800  0.08933900  1
  O  O12  1  0.77106900  0.88396000  0.37560500  1
  O  O13  1  0.22893100  0.11604000  0.62439500  1
  O  O14  1  0.77106900  0.61604000  0.62439500  1
  O  O15  1  0.22893100  0.38396000  0.37560500  1
  O  O16  1  0.25429900  0.52433500  0.12174900  1
  O  O17  1  0.74570100  0.47566500  0.87825100  1
  O  O18  1  0.25429900  0.97566500  0.87825100  1
  O  O19  1  0.74570100  0.02433500  0.12174900  1
  O  O20  1  0.77806200  0.90673300  0.54796100  1
  O  O21  1  0.22193800  0.09326700  0.45203900  1
  O  O22  1  0.77806200  0.59326700  0.45203900  1
  O  O23  1  0.22193800  0.40673300  0.54796100  1
  O  O24  1  0.45983300  0.76631000  0.29609900  1
  O  O25  1  0.54016700  0.23369000  0.70390100  1
  O  O26  1  0.45983300  0.73369000  0.70390100  1
  O  O27  1  0.54016700  0.26631000  0.29609900  1
  O  O28  1  0.89510000  0.24301600  0.29351100  1
  O  O29  1  0.10490000  0.75698400  0.70648900  1
  O  O30  1  0.89510000  0.25698400  0.70648900  1
  O  O31  1  0.10490000  0.74301600  0.29351100  1
  O  O32  1  0.73334000  0.42392600  0.97684100  1
  O  O33  1  0.26666000  0.57607400  0.02315900  1
  O  O34  1  0.73334000  0.07607400  0.02315900  1
  O  O35  1  0.26666000  0.92392600  0.97684100  1
  O  O36  1  0.91587900  0.48539900  0.25359400  1
  O  O37  1  0.08412100  0.51460100  0.74640600  1
  O  O38  1  0.91587900  0.01460100  0.74640600  1
  O  O39  1  0.08412100  0.98539900  0.25359400  1
loop_
_geom_bond_atom_site_label_1
_geom_bond_atom_site_label_2
_geom_bond_distance
_geom_bond_site_symmetry_2
Li0 O24 2.048384 1_555
Li0 O15 2.050757 1_555
Li0 O31 2.122085 1_555
Li0 O0 2.160809 1_555
Li0 O16 2.526637 1_555
Li1 O25 2.048384 1_555
Li1 O14 2.050757 1_555
Li1 O30 2.122085 1_555
Li1 O1 2.160809 1_555
Li1 O17 2.526637 1_555
Li2 O26 2.048384 1_555
Li2 O13 2.050757 1_565
Li2 O29 2.122085 1_555
Li2 O2 2.160809 1_555
Li2 O18 2.526637 1_555
Li3 O27 2.048384 1_555
Li3 O12 2.050757 1_545
Li3 O28 2.122085 1_555
Li3 O3 2.160809 1_555
Li3 O19 2.526637 1_555
Nd0 O36 2.434921 1_555
Nd0 O4 2.455247 1_555
Nd0 O8 2.462262 1_555
Nd0 O22 2.476723 1_555
Nd0 O0 2.511540 1_555
Nd0 O12 2.514051 1_555
Nd0 O24 2.537799 1_555
Nd0 O31 2.564412 1_655
Nd0 O19 3.049323 1_565
Nd1 O37 2.434921 1_555
Nd1 O5 2.455247 1_555
Nd1 O9 2.462262 1_555
Nd1 O23 2.476723 1_555
Nd1 O1 2.511540 1_555
Nd1 O13 2.514051 1_555
Nd1 O25 2.537799 1_555
Nd1 O30 2.564412 1_455
Nd1 O18 3.049323 1_545
Nd2 O38 2.434921 1_565
Nd2 O6 2.455247 1_555
Nd2 O10 2.462262 1_555
Nd2 O20 2.476723 1_555
Nd2 O2 2.511540 1_555
Nd2 O14 2.514051 1_555
Nd2 O26 2.537799 1_555
Nd2 O29 2.564412 1_655
Nd2 O17 3.049323 1_555
Nd3 O39 2.434921 1_545
Nd3 O7 2.455247 1_555
Nd3 O11 2.462262 1_555
Nd3 O21 2.476723 1_555
Nd3 O3 2.511540 1_555
Nd3 O15 2.514051 1_555
Nd3 O27 2.537799 1_555
Nd3 O28 2.564412 1_455
Nd3 O16 3.049323 1_555
C0 O36 1.263508 1_555
C0 O28 1.270037 1_555
C1 O37 1.263508 1_555
C1 O29 1.270037 1_555
C2 O38 1.263508 1_555
C2 O30 1.270037 1_555
C3 O39 1.263508 1_555
C3 O31 1.270037 1_555
C4 O4 1.265345 1_555
C4 O6 1.265345 1_554
C5 O7 1.265345 1_555
C5 O5 1.265345 1_554
C6 O8 1.265759 1_555
C6 O10 1.265759 1_554
C7 O11 1.265759 1_555
C7 O9 1.265759 1_554
C8 O24 1.265624 1_555
C8 O3 1.266855 1_565
C9 O25 1.265624 1_555
C9 O2 1.266855 1_545
C10 O26 1.265624 1_555
C10 O1 1.266855 1_555
C11 O27 1.265624 1_555
C11 O0 1.266855 1_555
C12 O20 1.258411 1_555
C12 O12 1.275843 1_555
C13 O21 1.258411 1_555
C13 O13 1.275843 1_555
C14 O22 1.258411 1_555
C14 O14 1.275843 1_555
C15 O23 1.258411 1_555
C15 O15 1.275843 1_555
O16 O33 1.228060 1_555
O17 O32 1.228060 1_555
O18 O35 1.228060 1_555
O19 O34 1.228060 1_555
