# generated using pymatgen
data_GdIr3
_symmetry_space_group_name_H-M   'P 1'
_cell_length_a   5.34003800
_cell_length_b   5.34083687
_cell_length_c   9.30124361
_cell_angle_alpha   73.45481318
_cell_angle_beta   73.31795010
_cell_angle_gamma   60.00494788
_symmetry_Int_Tables_number   1
_chemical_formula_structural   GdIr3
_chemical_formula_sum   'Gd3 Ir9'
_cell_volume   216.86221463
_cell_formula_units_Z   3
loop_
 _symmetry_equiv_pos_site_id
 _symmetry_equiv_pos_as_xyz
  1  'x, y, z'
loop_
 _atom_site_type_symbol
 _atom_site_label
 _atom_site_symmetry_multiplicity
 _atom_site_fract_x
 _atom_site_fract_y
 _atom_site_fract_z
 _atom_site_occupancy
  Gd  Gd0  1  0.86027200  0.36095800  0.91849800  1
  Gd  Gd1  1  0.13972800  0.63904200  0.08150200  1
  Gd  Gd2  1  0.00000000  0.50000000  0.50000000  1
  Ir  Ir0  1  0.91590400  0.91882600  0.74468000  1
  Ir  Ir1  1  0.41869400  0.41751200  0.74510000  1
  Ir  Ir2  1  0.42059000  0.91882600  0.74468000  1
  Ir  Ir3  1  0.08409600  0.08117400  0.25532000  1
  Ir  Ir4  1  0.58130600  0.58248800  0.25490000  1
  Ir  Ir5  1  0.57941000  0.08117400  0.25532000  1
  Ir  Ir6  1  0.66787400  0.16749300  0.49675800  1
  Ir  Ir7  1  0.33212600  0.83250700  0.50324200  1
  Ir  Ir8  1  0.50000000  0.00000000  0.00000000  1
loop_
_geom_bond_atom_site_label_1
_geom_bond_atom_site_label_2
_geom_bond_distance
_geom_bond_site_symmetry_2
Gd0 Ir2 3.073294 1_555
Gd0 Ir0 3.073294 1_555
Gd0 Ir1 3.073538 1_555
Gd0 Ir1 3.073538 1_655
Gd0 Ir0 3.078185 1_545
Gd0 Ir2 3.078185 1_645
Gd0 Ir8 3.161596 1_566
Gd0 Ir8 3.167186 1_556
Gd0 Ir8 3.167186 1_656
Gd0 Ir4 3.328592 1_556
Gd0 Ir5 3.342766 1_556
Gd0 Ir3 3.342766 1_656
Gd1 Ir3 3.073294 1_555
Gd1 Ir5 3.073294 1_555
Gd1 Ir4 3.073538 1_455
Gd1 Ir4 3.073538 1_555
Gd1 Ir5 3.078185 1_465
Gd1 Ir3 3.078185 1_565
Gd1 Ir8 3.161596 1_555
Gd1 Ir8 3.167186 1_465
Gd1 Ir8 3.167186 1_565
Gd1 Ir1 3.328592 1_554
Gd1 Ir2 3.342766 1_554
Gd1 Ir0 3.342766 1_454
Gd2 Ir6 3.082723 1_465
Gd2 Ir7 3.082723 1_545
Gd2 Ir6 3.083904 1_555
Gd2 Ir7 3.083904 1_455
Gd2 Ir7 3.083908 1_555
Gd2 Ir6 3.083908 1_455
Gd2 Ir0 3.419498 1_455
Gd2 Ir2 3.419498 1_455
Gd2 Ir5 3.419498 1_555
Gd2 Ir3 3.419498 1_555
Gd2 Ir1 3.429249 1_555
Gd2 Ir4 3.429249 1_555
Gd2 Ir4 3.429249 1_455
Gd2 Ir1 3.429249 1_455
Gd2 Ir3 3.435004 1_565
Gd2 Ir5 3.435004 1_465
Gd2 Ir2 3.435004 1_545
Gd2 Ir0 3.435004 1_445
Ir0 Ir7 2.625875 1_655
Ir0 Ir2 2.644996 1_555
Ir0 Ir1 2.659466 1_565
Ir0 Ir6 2.661978 1_565
Ir0 Ir1 2.681400 1_655
Ir0 Ir2 2.695042 1_655
Ir0 Ir8 2.712153 1_566
Ir1 Ir7 2.630528 1_555
Ir1 Ir2 2.659466 1_545
Ir1 Ir6 2.665477 1_555
Ir1 Ir2 2.681400 1_555
Ir1 Ir8 2.719164 1_556
Ir2 Ir7 2.625872 1_555
Ir2 Ir6 2.661976 1_565
Ir2 Ir8 2.712153 1_566
Ir3 Ir6 2.625875 1_455
Ir3 Ir5 2.644996 1_555
Ir3 Ir4 2.659466 1_545
Ir3 Ir7 2.661978 1_545
Ir3 Ir4 2.681400 1_455
Ir3 Ir5 2.695042 1_455
Ir3 Ir8 2.712153 1_555
Ir4 Ir6 2.630528 1_555
Ir4 Ir5 2.659466 1_565
Ir4 Ir7 2.665477 1_555
Ir4 Ir5 2.681400 1_555
Ir4 Ir8 2.719164 1_565
Ir5 Ir6 2.625872 1_555
Ir5 Ir7 2.661976 1_545
Ir5 Ir8 2.712153 1_555
