# generated using pymatgen
data_H3C3N5
_symmetry_space_group_name_H-M   'P 1'
_cell_length_a   8.45820355
_cell_length_b   7.56476595
_cell_length_c   13.58611054
_cell_angle_alpha   77.99241037
_cell_angle_beta   90.00000000
_cell_angle_gamma   90.00000000
_symmetry_Int_Tables_number   1
_chemical_formula_structural   H3C3N5
_chemical_formula_sum   'H24 C24 N40'
_cell_volume   850.27798345
_cell_formula_units_Z   8
loop_
 _symmetry_equiv_pos_site_id
 _symmetry_equiv_pos_as_xyz
  1  'x, y, z'
loop_
 _atom_site_type_symbol
 _atom_site_label
 _atom_site_symmetry_multiplicity
 _atom_site_fract_x
 _atom_site_fract_y
 _atom_site_fract_z
 _atom_site_occupancy
  H  H0  1  0.56169151  0.30754297  0.11601712  1
  H  H1  1  0.43830849  0.69245703  0.88398288  1
  H  H2  1  0.06169151  0.69245703  0.38398288  1
  H  H3  1  0.93830849  0.30754297  0.61601712  1
  H  H4  1  0.79212016  0.48191611  0.31311148  1
  H  H5  1  0.20787984  0.51808389  0.68688852  1
  H  H6  1  0.29212016  0.51808389  0.18688852  1
  H  H7  1  0.70787984  0.48191611  0.81311148  1
  H  H8  1  0.41378013  0.89451279  0.21053573  1
  H  H9  1  0.58621987  0.10548721  0.78946427  1
  H  H10  1  0.91378013  0.10548721  0.28946427  1
  H  H11  1  0.08621987  0.89451279  0.71053573  1
  H  H12  1  0.14408128  0.84584098  0.28140287  1
  H  H13  1  0.85591872  0.15415902  0.71859713  1
  H  H14  1  0.64408128  0.15415902  0.21859713  1
  H  H15  1  0.35591872  0.84584098  0.78140287  1
  H  H16  1  0.99147561  0.41510845  0.30971194  1
  H  H17  1  0.00852439  0.58489155  0.69028806  1
  H  H18  1  0.49147561  0.58489155  0.19028806  1
  H  H19  1  0.50852439  0.41510845  0.80971194  1
  H  H20  1  0.51562219  0.92384093  0.09272543  1
  H  H21  1  0.48437781  0.07615907  0.90727457  1
  H  H22  1  0.01562219  0.07615907  0.40727457  1
  H  H23  1  0.98437781  0.92384093  0.59272543  1
  C  C0  1  0.54294954  0.86737421  0.39946485  1
  C  C1  1  0.45705046  0.13262579  0.60053515  1
  C  C2  1  0.04294954  0.13262579  0.10053515  1
  C  C3  1  0.95705046  0.86737421  0.89946485  1
  C  C4  1  0.42937968  0.66779722  0.54560551  1
  C  C5  1  0.57062032  0.33220278  0.45439449  1
  C  C6  1  0.92937968  0.33220278  0.95439449  1
  C  C7  1  0.07062032  0.66779722  0.04560551  1
  C  C8  1  0.91448115  0.58786725  0.18530126  1
  C  C9  1  0.08551885  0.41213275  0.81469874  1
  C  C10  1  0.41448115  0.41213275  0.31469874  1
  C  C11  1  0.58551885  0.58786725  0.68530126  1
  C  C12  1  0.80208877  0.77872641  0.05203990  1
  C  C13  1  0.19791123  0.22127359  0.94796010  1
  C  C14  1  0.30208877  0.22127359  0.44796010  1
  C  C15  1  0.69791123  0.77872641  0.55203990  1
  C  C16  1  0.79549648  0.96817714  0.41065264  1
  C  C17  1  0.20450352  0.03182286  0.58934736  1
  C  C18  1  0.29549648  0.03182286  0.08934736  1
  C  C19  1  0.70450352  0.96817714  0.91065264  1
  C  C20  1  0.78963141  0.23919504  0.09901863  1
  C  C21  1  0.21036859  0.76080496  0.90098137  1
  C  C22  1  0.28963141  0.76080496  0.40098137  1
  C  C23  1  0.71036859  0.23919504  0.59901863  1
  N  N0  1  0.90079207  0.49587678  0.27996816  1
  N  N1  1  0.09920793  0.50412322  0.72003184  1
  N  N2  1  0.40079207  0.50412322  0.22003184  1
  N  N3  1  0.59920793  0.49587678  0.77996816  1
  N  N4  1  0.66250450  0.96531692  0.35522446  1
  N  N5  1  0.33749550  0.03468308  0.64477554  1
  N  N6  1  0.16250450  0.03468308  0.14477554  1
  N  N7  1  0.83749550  0.96531692  0.85522446  1
  N  N8  1  0.68465533  0.88064979  0.00754150  1
  N  N9  1  0.31534467  0.11935021  0.99245850  1
  N  N10  1  0.18465533  0.11935021  0.49245850  1
  N  N11  1  0.81534467  0.88064979  0.50754150  1
  N  N12  1  0.20438427  0.66140824  0.99569583  1
  N  N13  1  0.79561573  0.33859176  0.00430417  1
  N  N14  1  0.70438427  0.33859176  0.50430417  1
  N  N15  1  0.29561573  0.66140824  0.49569583  1
  N  N16  1  0.55537419  0.42354336  0.36047166  1
  N  N17  1  0.44462581  0.57645664  0.63952834  1
  N  N18  1  0.05537419  0.57645664  0.13952834  1
  N  N19  1  0.94462581  0.42354336  0.86047166  1
  N  N20  1  0.94370889  0.77235610  0.99927800  1
  N  N21  1  0.05629111  0.22764390  0.00072200  1
  N  N22  1  0.44370889  0.22764390  0.50072200  1
  N  N23  1  0.55629111  0.77235610  0.49927800  1
  N  N24  1  0.78702806  0.68363649  0.14491043  1
  N  N25  1  0.21297194  0.31636351  0.85508957  1
  N  N26  1  0.28702806  0.31636351  0.35508957  1
  N  N27  1  0.71297194  0.68363649  0.64491043  1
  N  N28  1  0.41556764  0.93501523  0.13362397  1
  N  N29  1  0.58443236  0.06498477  0.86637603  1
  N  N30  1  0.91556764  0.06498477  0.36637603  1
  N  N31  1  0.08443236  0.93501523  0.63362397  1
  N  N32  1  0.40833804  0.86033916  0.35097140  1
  N  N33  1  0.59166196  0.13966084  0.64902860  1
  N  N34  1  0.90833804  0.13966084  0.14902860  1
  N  N35  1  0.09166196  0.86033916  0.85097140  1
  N  N36  1  0.65554470  0.23905661  0.14999767  1
  N  N37  1  0.34445530  0.76094339  0.85000233  1
  N  N38  1  0.15554470  0.76094339  0.35000233  1
  N  N39  1  0.84445530  0.23905661  0.64999767  1
loop_
_geom_bond_atom_site_label_1
_geom_bond_atom_site_label_2
_geom_bond_distance
_geom_bond_site_symmetry_2
H0 N36 1.006076 1_555
H1 N37 1.006076 1_555
H2 N38 1.006076 1_555
H3 N39 1.006076 1_555
H4 N0 1.019313 1_555
H5 N1 1.019313 1_555
H6 N2 1.019313 1_555
H7 N3 1.019313 1_555
H8 N28 1.026048 1_555
H9 N29 1.026048 1_555
H10 N30 1.026048 1_555
H11 N31 1.026048 1_555
H12 N38 1.020507 1_555
H13 N39 1.020507 1_555
H14 N36 1.020507 1_555
H15 N37 1.020507 1_555
H16 N0 1.011038 1_555
H17 N1 1.011038 1_555
H18 N2 1.011038 1_555
H19 N3 1.011038 1_555
H20 N28 1.025491 1_555
H21 N29 1.025491 1_555
H22 N30 1.025491 1_455
H23 N31 1.025491 1_655
C0 N4 1.321928 1_555
C0 N32 1.322056 1_555
C0 N23 1.400984 1_555
C1 N5 1.321928 1_555
C1 N33 1.322056 1_555
C1 N22 1.400984 1_555
C2 N6 1.321928 1_555
C2 N34 1.322056 1_455
C2 N21 1.400984 1_555
C3 N7 1.321928 1_555
C3 N35 1.322056 1_655
C3 N20 1.400984 1_555
C4 N17 1.324952 1_555
C4 N15 1.325079 1_555
C4 N23 1.402468 1_555
C5 N16 1.324952 1_555
C5 N14 1.325079 1_555
C5 N22 1.402468 1_555
C6 N19 1.324952 1_555
C6 N13 1.325079 1_556
C6 N21 1.402468 1_656
C7 N18 1.324952 1_555
C7 N12 1.325079 1_554
C7 N20 1.402468 1_454
C8 N0 1.333963 1_555
C8 N24 1.350078 1_555
C8 N18 1.355238 1_655
C9 N1 1.333963 1_555
C9 N25 1.350078 1_555
C9 N19 1.355238 1_455
C10 N2 1.333963 1_555
C10 N26 1.350078 1_555
C10 N16 1.355238 1_555
C11 N3 1.333963 1_555
C11 N27 1.350078 1_555
C11 N17 1.355238 1_555
C12 N24 1.322133 1_555
C12 N8 1.323867 1_555
C12 N20 1.401923 1_554
C13 N25 1.322133 1_555
C13 N9 1.323867 1_555
C13 N21 1.401923 1_556
C14 N26 1.322133 1_555
C14 N10 1.323867 1_555
C14 N22 1.401923 1_555
C15 N27 1.322133 1_555
C15 N11 1.323867 1_555
C15 N23 1.401923 1_555
C16 N30 1.321469 1_565
C16 N11 1.355249 1_555
C16 N4 1.356347 1_555
C17 N31 1.321469 1_545
C17 N10 1.355249 1_555
C17 N5 1.356347 1_555
C18 N28 1.321469 1_545
C18 N9 1.355249 1_554
C18 N6 1.356347 1_555
C19 N29 1.321469 1_565
C19 N8 1.355249 1_556
C19 N7 1.356347 1_555
C20 N36 1.328782 1_555
C20 N13 1.349521 1_555
C20 N34 1.350489 1_555
C21 N37 1.328782 1_555
C21 N12 1.349521 1_555
C21 N35 1.350489 1_555
C22 N38 1.328782 1_555
C22 N15 1.349521 1_555
C22 N32 1.350489 1_555
C23 N39 1.328782 1_555
C23 N14 1.349521 1_555
C23 N33 1.350489 1_555
