# generated using pymatgen
data_Tl(TeMo)3
_symmetry_space_group_name_H-M   'P 1'
_cell_length_a   9.68044120
_cell_length_b   9.68044103
_cell_length_c   4.59850813
_cell_angle_alpha   90.00000000
_cell_angle_beta   90.00000000
_cell_angle_gamma   119.99999989
_symmetry_Int_Tables_number   1
_chemical_formula_structural   Tl(TeMo)3
_chemical_formula_sum   'Tl2 Te6 Mo6'
_cell_volume   373.19677846
_cell_formula_units_Z   2
loop_
 _symmetry_equiv_pos_site_id
 _symmetry_equiv_pos_as_xyz
  1  'x, y, z'
loop_
 _atom_site_type_symbol
 _atom_site_label
 _atom_site_symmetry_multiplicity
 _atom_site_fract_x
 _atom_site_fract_y
 _atom_site_fract_z
 _atom_site_occupancy
  Tl  Tl0  1  0.66666700  0.33333300  0.25000000  1
  Tl  Tl1  1  0.33333300  0.66666700  0.75000000  1
  Te  Te0  1  0.06066741  0.36383382  0.25000000  1
  Te  Te1  1  0.69683459  0.06066741  0.75000000  1
  Te  Te2  1  0.36383382  0.30316541  0.75000000  1
  Te  Te3  1  0.63616618  0.69683459  0.25000000  1
  Te  Te4  1  0.30316541  0.93933259  0.25000000  1
  Te  Te5  1  0.93933259  0.63616618  0.75000000  1
  Mo  Mo0  1  0.16963670  0.14140732  0.25000000  1
  Mo  Mo1  1  0.02822938  0.16963670  0.75000000  1
  Mo  Mo2  1  0.14140732  0.97177062  0.75000000  1
  Mo  Mo3  1  0.85859268  0.02822938  0.25000000  1
  Mo  Mo4  1  0.97177062  0.83036330  0.25000000  1
  Mo  Mo5  1  0.83036330  0.85859268  0.75000000  1
loop_
_geom_bond_atom_site_label_1
_geom_bond_atom_site_label_2
_geom_bond_distance
_geom_bond_site_symmetry_2
Mo0 Mo4 2.639661 1_445
Mo0 Mo3 2.639661 1_455
Mo0 Mo2 2.758473 1_544
Mo0 Mo2 2.758473 1_545
Mo0 Mo1 2.758473 1_555
Mo0 Mo1 2.758473 1_554
Mo0 Te0 2.832013 1_555
Mo0 Te4 2.833029 1_545
Mo0 Te2 2.885986 1_555
Mo0 Te2 2.885986 1_554
Mo1 Mo5 2.639661 1_445
Mo1 Mo2 2.639661 1_545
Mo1 Mo3 2.758473 1_456
Mo1 Mo3 2.758473 1_455
Mo1 Te1 2.832004 1_455
Mo1 Te2 2.833037 1_555
Mo1 Te0 2.885989 1_555
Mo1 Te0 2.885989 1_556
Mo2 Mo5 2.639661 1_455
Mo2 Mo4 2.758473 1_455
Mo2 Mo4 2.758473 1_456
Mo2 Te2 2.832006 1_565
Mo2 Te5 2.833036 1_455
Mo2 Te4 2.885983 1_555
Mo2 Te4 2.885983 1_556
Mo3 Mo4 2.639661 1_545
Mo3 Mo5 2.758473 1_545
Mo3 Mo5 2.758473 1_544
Mo3 Te3 2.832006 1_545
Mo3 Te0 2.833036 1_655
Mo3 Te1 2.885983 1_554
Mo3 Te1 2.885983 1_555
Mo4 Mo5 2.758473 1_554
Mo4 Mo5 2.758473 1_555
Mo4 Te4 2.832004 1_655
Mo4 Te3 2.833037 1_555
Mo4 Te5 2.885989 1_555
Mo4 Te5 2.885989 1_554
Mo5 Te5 2.832013 1_555
Mo5 Te1 2.833029 1_565
Mo5 Te3 2.885986 1_555
Mo5 Te3 2.885986 1_556
