# generated using pymatgen
data_ReN2
_symmetry_space_group_name_H-M   'P 1'
_cell_length_a   4.81278400
_cell_length_b   2.92016600
_cell_length_c   5.59856674
_cell_angle_alpha   59.88790195
_cell_angle_beta   90.00000000
_cell_angle_gamma   90.00000000
_symmetry_Int_Tables_number   1
_chemical_formula_structural   ReN2
_chemical_formula_sum   'Re2 N4'
_cell_volume   68.06435369
_cell_formula_units_Z   2
loop_
 _symmetry_equiv_pos_site_id
 _symmetry_equiv_pos_as_xyz
  1  'x, y, z'
loop_
 _atom_site_type_symbol
 _atom_site_label
 _atom_site_symmetry_multiplicity
 _atom_site_fract_x
 _atom_site_fract_y
 _atom_site_fract_z
 _atom_site_occupancy
  Re  Re0  1  0.75175000  0.11242500  0.01616700  1
  Re  Re1  1  0.24825000  0.11242500  0.51616700  1
  N  N0  1  0.95983500  0.92887500  0.79133400  1
  N  N1  1  0.04016500  0.92887500  0.29133400  1
  N  N2  1  0.45368200  0.48870000  0.70350000  1
  N  N3  1  0.54631800  0.48870000  0.20350000  1
loop_
_geom_bond_atom_site_label_1
_geom_bond_atom_site_label_2
_geom_bond_distance
_geom_bond_site_symmetry_2
N0 Re0 1.884577 1_566
N0 Re1 1.938763 1_665
N0 Re0 2.293560 1_556
N1 Re1 1.884577 1_565
N1 Re0 1.938763 1_465
N1 Re1 2.293560 1_555
N2 Re1 1.864994 1_565
N2 Re0 2.097500 1_556
N2 Re1 2.107400 1_555
N3 Re0 1.864994 1_565
N3 Re1 2.097500 1_555
N3 Re0 2.107400 1_555
