# generated using pymatgen
data_RbH4CN3
_symmetry_space_group_name_H-M   'P 1'
_cell_length_a   7.05487800
_cell_length_b   7.16173100
_cell_length_c   7.59511600
_cell_angle_alpha   90.00000000
_cell_angle_beta   90.00000000
_cell_angle_gamma   90.00000000
_symmetry_Int_Tables_number   1
_chemical_formula_structural   RbH4CN3
_chemical_formula_sum   'Rb4 H16 C4 N12'
_cell_volume   383.74428762
_cell_formula_units_Z   4
loop_
 _symmetry_equiv_pos_site_id
 _symmetry_equiv_pos_as_xyz
  1  'x, y, z'
loop_
 _atom_site_type_symbol
 _atom_site_label
 _atom_site_symmetry_multiplicity
 _atom_site_fract_x
 _atom_site_fract_y
 _atom_site_fract_z
 _atom_site_occupancy
  Rb  Rb0  1  0.52654500  0.25000000  0.92286800  1
  Rb  Rb1  1  0.02654500  0.25000000  0.57713200  1
  Rb  Rb2  1  0.47345500  0.75000000  0.07713200  1
  Rb  Rb3  1  0.97345500  0.75000000  0.42286800  1
  H  H0  1  0.95346200  0.12824200  0.94457700  1
  H  H1  1  0.45346200  0.37175800  0.55542300  1
  H  H2  1  0.04653800  0.62824200  0.05542300  1
  H  H3  1  0.54653800  0.87175800  0.44457700  1
  H  H4  1  0.04653800  0.87175800  0.05542300  1
  H  H5  1  0.54653800  0.62824200  0.44457700  1
  H  H6  1  0.95346200  0.37175800  0.94457700  1
  H  H7  1  0.45346200  0.12824200  0.55542300  1
  H  H8  1  0.29562800  0.09832500  0.28090500  1
  H  H9  1  0.79562800  0.40167500  0.21909500  1
  H  H10  1  0.70437200  0.59832500  0.71909500  1
  H  H11  1  0.20437200  0.90167500  0.78090500  1
  H  H12  1  0.70437200  0.90167500  0.71909500  1
  H  H13  1  0.20437200  0.59832500  0.78090500  1
  H  H14  1  0.29562800  0.40167500  0.28090500  1
  H  H15  1  0.79562800  0.09832500  0.21909500  1
  C  C0  1  0.85744600  0.75000000  0.87461200  1
  C  C1  1  0.35744600  0.75000000  0.62538800  1
  C  C2  1  0.14255400  0.25000000  0.12538800  1
  C  C3  1  0.64255400  0.25000000  0.37461200  1
  N  N0  1  0.01868000  0.25000000  0.98358300  1
  N  N1  1  0.51868000  0.25000000  0.51641700  1
  N  N2  1  0.98132000  0.75000000  0.01641700  1
  N  N3  1  0.48132000  0.75000000  0.48358300  1
  N  N4  1  0.80246100  0.57995100  0.81740400  1
  N  N5  1  0.30246100  0.92004900  0.68259600  1
  N  N6  1  0.19753900  0.07995100  0.18259600  1
  N  N7  1  0.69753900  0.42004900  0.31740400  1
  N  N8  1  0.19753900  0.42004900  0.18259600  1
  N  N9  1  0.69753900  0.07995100  0.31740400  1
  N  N10  1  0.80246100  0.92004900  0.81740400  1
  N  N11  1  0.30246100  0.57995100  0.68259600  1
loop_
_geom_bond_atom_site_label_1
_geom_bond_atom_site_label_2
_geom_bond_distance
_geom_bond_site_symmetry_2
H0 N0 1.029487 1_655
H0 Rb1 2.968958 1_655
H0 Rb0 3.139871 1_555
H1 N1 1.029487 1_555
H1 Rb0 2.968958 1_555
H1 Rb1 3.139871 1_555
H2 N2 1.029487 1_455
H2 Rb3 2.968958 1_455
H2 Rb2 3.139871 1_555
H3 N3 1.029487 1_555
H3 Rb2 2.968958 1_555
H3 Rb3 3.139871 1_555
H4 N2 1.029487 1_455
H4 Rb3 2.968958 1_455
H4 Rb2 3.139871 1_555
H5 N3 1.029487 1_555
H5 Rb2 2.968958 1_555
H5 Rb3 3.139871 1_555
H6 N0 1.029487 1_655
H6 Rb1 2.968958 1_655
H6 Rb0 3.139871 1_555
H7 N1 1.029487 1_555
H7 Rb0 2.968958 1_555
H7 Rb1 3.139871 1_555
H8 N6 1.026500 1_555
H8 Rb1 3.137774 1_555
H8 Rb2 3.192535 1_545
H9 N7 1.026500 1_555
H9 Rb0 3.137774 1_554
H9 Rb3 3.192535 1_555
H10 N4 1.026500 1_555
H10 Rb3 3.137774 1_555
H10 Rb0 3.192535 1_555
H11 N5 1.026500 1_555
H11 Rb2 3.137774 1_556
H11 Rb1 3.192535 1_565
H12 N10 1.026500 1_555
H12 Rb3 3.137774 1_555
H12 Rb0 3.192535 1_565
H13 N11 1.026500 1_555
H13 Rb2 3.137774 1_556
H13 Rb1 3.192535 1_555
H14 N8 1.026500 1_555
H14 Rb1 3.137774 1_555
H14 Rb2 3.192535 1_555
H15 N9 1.026500 1_555
H15 Rb0 3.137774 1_554
H15 Rb3 3.192535 1_545
C0 N4 1.349968 1_555
C0 N10 1.349968 1_555
C0 N2 1.386980 1_556
C0 Rb2 3.115233 1_556
C1 N5 1.349968 1_555
C1 N11 1.349968 1_555
C1 N3 1.386980 1_555
C1 Rb3 3.115233 1_455
C2 N6 1.349968 1_555
C2 N8 1.349968 1_555
C2 N0 1.386980 1_554
C2 Rb0 3.115233 1_554
C3 N7 1.349968 1_555
C3 N9 1.349968 1_555
C3 N1 1.386980 1_555
C3 Rb1 3.115233 1_655
N0 Rb1 3.087541 1_555
N1 Rb0 3.087541 1_555
N2 Rb3 3.087541 1_555
N3 Rb2 3.087541 1_555
N4 Rb0 3.164578 1_555
N4 Rb2 3.280555 1_556
N4 Rb1 3.378358 1_655
N5 Rb1 3.164578 1_565
N5 Rb3 3.280555 1_455
N5 Rb0 3.378358 1_565
N6 Rb2 3.164578 1_545
N6 Rb0 3.280555 1_554
N6 Rb3 3.378358 1_445
N7 Rb3 3.164578 1_555
N7 Rb1 3.280555 1_655
N7 Rb2 3.378358 1_555
N8 Rb2 3.164578 1_555
N8 Rb0 3.280555 1_554
N8 Rb3 3.378358 1_455
N9 Rb3 3.164578 1_545
N9 Rb1 3.280555 1_655
N9 Rb2 3.378358 1_545
N10 Rb0 3.164578 1_565
N10 Rb2 3.280555 1_556
N10 Rb1 3.378358 1_665
N11 Rb1 3.164578 1_555
N11 Rb3 3.280555 1_455
N11 Rb0 3.378358 1_555
