# generated using pymatgen
data_W3(Se2S)2
_symmetry_space_group_name_H-M   'P 1'
_cell_length_a   3.27518439
_cell_length_b   3.27518439
_cell_length_c   30.26800400
_cell_angle_alpha   90.00000000
_cell_angle_beta   90.00000000
_cell_angle_gamma   120.00000794
_symmetry_Int_Tables_number   1
_chemical_formula_structural   W3(Se2S)2
_chemical_formula_sum   'W3 Se4 S2'
_cell_volume   281.18094830
_cell_formula_units_Z   1
loop_
 _symmetry_equiv_pos_site_id
 _symmetry_equiv_pos_as_xyz
  1  'x, y, z'
loop_
 _atom_site_type_symbol
 _atom_site_label
 _atom_site_symmetry_multiplicity
 _atom_site_fract_x
 _atom_site_fract_y
 _atom_site_fract_z
 _atom_site_occupancy
  W  W0  1  0.00000000  0.00000000  0.11564300  1
  W  W1  1  0.00000000  0.00000000  0.57833800  1
  W  W2  1  0.33333300  0.66666700  0.34696900  1
  Se  Se0  1  0.00000000  0.00000000  0.40313100  1
  Se  Se1  1  0.33333300  0.66666700  0.52214000  1
  Se  Se2  1  0.33333300  0.66666700  0.63452200  1
  Se  Se3  1  0.00000000  0.00000000  0.29080700  1
  S  S0  1  0.33333300  0.66666700  0.06462000  1
  S  S1  1  0.33333300  0.66666700  0.16667000  1
loop_
_geom_bond_atom_site_label_1
_geom_bond_atom_site_label_2
_geom_bond_distance
_geom_bond_site_symmetry_2
Se0 W2 2.542696 1_545
Se0 W2 2.542698 1_445
Se0 W2 2.542698 1_555
Se1 W1 2.543425 1_565
Se1 W1 2.543427 1_665
Se1 W1 2.543427 1_555
Se2 W1 2.543141 1_565
Se2 W1 2.543143 1_665
Se2 W1 2.543143 1_555
Se3 W2 2.542696 1_545
Se3 W2 2.542698 1_445
Se3 W2 2.542698 1_555
S0 W0 2.441447 1_565
S0 W0 2.441449 1_555
S0 W0 2.441449 1_665
S1 W0 2.441524 1_565
S1 W0 2.441526 1_555
S1 W0 2.441526 1_665
