# generated using pymatgen
data_MgCu2(TeO4)2
_symmetry_space_group_name_H-M   'P 1'
_cell_length_a   6.28836106
_cell_length_b   8.74945500
_cell_length_c   13.39749789
_cell_angle_alpha   90.00000000
_cell_angle_beta   91.02886832
_cell_angle_gamma   90.00000000
_symmetry_Int_Tables_number   1
_chemical_formula_structural   MgCu2(TeO4)2
_chemical_formula_sum   'Mg4 Cu8 Te8 O32'
_cell_volume   737.00790216
_cell_formula_units_Z   4
loop_
 _symmetry_equiv_pos_site_id
 _symmetry_equiv_pos_as_xyz
  1  'x, y, z'
loop_
 _atom_site_type_symbol
 _atom_site_label
 _atom_site_symmetry_multiplicity
 _atom_site_fract_x
 _atom_site_fract_y
 _atom_site_fract_z
 _atom_site_occupancy
  Mg  Mg0  1  0.11908800  0.15590000  0.04685400  1
  Mg  Mg1  1  0.88091200  0.84410000  0.95314600  1
  Mg  Mg2  1  0.88091200  0.65590000  0.45314600  1
  Mg  Mg3  1  0.11908800  0.34410000  0.54685400  1
  Cu  Cu0  1  0.74625000  0.18276700  0.89063600  1
  Cu  Cu1  1  0.39393600  0.07427400  0.62224300  1
  Cu  Cu2  1  0.60606400  0.92572600  0.37775700  1
  Cu  Cu3  1  0.25375000  0.81723300  0.10936400  1
  Cu  Cu4  1  0.74625000  0.31723300  0.39063600  1
  Cu  Cu5  1  0.39393600  0.42572600  0.12224300  1
  Cu  Cu6  1  0.25375000  0.68276700  0.60936400  1
  Cu  Cu7  1  0.60606400  0.57427400  0.87775700  1
  Te  Te0  1  0.04684600  0.44538200  0.84143300  1
  Te  Te1  1  0.04684600  0.05461800  0.34143300  1
  Te  Te2  1  0.64712900  0.09762600  0.13665400  1
  Te  Te3  1  0.95315400  0.94538200  0.65856700  1
  Te  Te4  1  0.35287100  0.90237400  0.86334600  1
  Te  Te5  1  0.35287100  0.59762600  0.36334600  1
  Te  Te6  1  0.64712900  0.40237400  0.63665400  1
  Te  Te7  1  0.95315400  0.55461800  0.15856700  1
  O  O0  1  0.04275500  0.24923400  0.40714800  1
  O  O1  1  0.68936500  0.01408100  0.60714400  1
  O  O2  1  0.19432700  0.55794800  0.48583700  1
  O  O3  1  0.80567300  0.05794800  0.01416300  1
  O  O4  1  0.04275500  0.25076600  0.90714800  1
  O  O5  1  0.95724500  0.75076600  0.59285200  1
  O  O6  1  0.09227300  0.12793200  0.61584500  1
  O  O7  1  0.51874200  0.90623000  0.15642100  1
  O  O8  1  0.51874200  0.59377000  0.65642100  1
  O  O9  1  0.27731500  0.88475200  0.66478200  1
  O  O10  1  0.72268500  0.38475200  0.83521800  1
  O  O11  1  0.48125800  0.09377000  0.84357900  1
  O  O12  1  0.90772700  0.87206800  0.38415500  1
  O  O13  1  0.92798200  0.55520100  0.29696300  1
  O  O14  1  0.42555400  0.28590200  0.57295300  1
  O  O15  1  0.42555400  0.21409800  0.07295300  1
  O  O16  1  0.07201800  0.05520100  0.20303700  1
  O  O17  1  0.48125800  0.40623000  0.34357900  1
  O  O18  1  0.07201800  0.44479900  0.70303700  1
  O  O19  1  0.80567300  0.44205200  0.51416300  1
  O  O20  1  0.68936500  0.48591900  0.10714400  1
  O  O21  1  0.72268500  0.11524800  0.33521800  1
  O  O22  1  0.95724500  0.74923400  0.09285200  1
  O  O23  1  0.09227300  0.37206800  0.11584500  1
  O  O24  1  0.19432700  0.94205200  0.98583700  1
  O  O25  1  0.57444600  0.78590200  0.92704700  1
  O  O26  1  0.31063500  0.98591900  0.39285600  1
  O  O27  1  0.31063500  0.51408100  0.89285600  1
  O  O28  1  0.90772700  0.62793200  0.88415500  1
  O  O29  1  0.57444600  0.71409800  0.42704700  1
  O  O30  1  0.27731500  0.61524800  0.16478200  1
  O  O31  1  0.92798200  0.94479900  0.79696300  1
loop_
_geom_bond_atom_site_label_1
_geom_bond_atom_site_label_2
_geom_bond_distance
_geom_bond_site_symmetry_2
Mg0 O15 2.017753 1_555
Mg0 O4 2.095325 1_554
Mg0 O24 2.099250 1_544
Mg0 O23 2.113194 1_555
Mg0 O3 2.186238 1_455
Mg0 O16 2.294454 1_555
Mg1 O25 2.017753 1_555
Mg1 O22 2.095325 1_556
Mg1 O3 2.099250 1_566
Mg1 O28 2.113194 1_555
Mg1 O24 2.186238 1_655
Mg1 O31 2.294454 1_555
Mg2 O29 2.017753 1_555
Mg2 O5 2.095325 1_555
Mg2 O19 2.099250 1_555
Mg2 O12 2.113194 1_555
Mg2 O2 2.186238 1_655
Mg2 O13 2.294454 1_555
Mg3 O14 2.017753 1_555
Mg3 O0 2.095325 1_555
Mg3 O2 2.099250 1_555
Mg3 O6 2.113194 1_555
Mg3 O19 2.186238 1_455
Mg3 O18 2.294454 1_555
Cu0 O10 1.921578 1_555
Cu0 O11 1.934643 1_555
Cu0 O4 1.965851 1_655
Cu0 O3 2.012205 1_556
Cu1 O9 1.904547 1_545
Cu1 O1 1.945012 1_555
Cu1 O6 1.954584 1_555
Cu1 O14 1.977083 1_555
Cu2 O21 1.904547 1_565
Cu2 O26 1.945012 1_555
Cu2 O12 1.954584 1_555
Cu2 O29 1.977083 1_555
Cu3 O30 1.921578 1_555
Cu3 O7 1.934643 1_555
Cu3 O22 1.965851 1_455
Cu3 O24 2.012205 1_554
Cu4 O21 1.921578 1_555
Cu4 O17 1.934643 1_555
Cu4 O0 1.965851 1_655
Cu4 O19 2.012205 1_555
Cu5 O30 1.904547 1_555
Cu5 O20 1.945012 1_555
Cu5 O23 1.954584 1_555
Cu5 O15 1.977083 1_555
Cu6 O9 1.921578 1_555
Cu6 O8 1.934643 1_555
Cu6 O5 1.965851 1_455
Cu6 O2 2.012205 1_555
Cu7 O10 1.904547 1_555
Cu7 O27 1.945012 1_555
Cu7 O28 1.954584 1_555
Cu7 O25 1.977083 1_555
O0 Te1 1.917311 1_555
O1 Te3 1.883218 1_545
O2 Te5 1.966309 1_555
O3 Te2 1.966309 1_555
O4 Te0 1.917311 1_555
O5 Te3 1.917311 1_555
O6 Te3 1.913637 1_445
O7 Te2 1.879877 1_565
O8 Te6 1.879877 1_555
O9 Te3 2.106535 1_455
O9 Te4 2.698353 1_555
O10 Te0 2.106535 1_655
O10 Te6 2.698353 1_555
O11 Te4 1.879877 1_545
O12 Te1 1.913637 1_665
O13 Te7 1.863741 1_555
O14 Te6 1.914562 1_555
O15 Te2 1.914562 1_555
O16 Te1 1.863741 1_555
O17 Te5 1.879877 1_555
O18 Te0 1.863741 1_555
O19 Te6 1.966309 1_555
O20 Te7 1.883218 1_555
O21 Te1 2.106535 1_655
O21 Te2 2.698353 1_555
O22 Te7 1.917311 1_555
O23 Te7 1.913637 1_455
O24 Te4 1.966309 1_555
O25 Te4 1.914562 1_555
O26 Te1 1.883218 1_565
O27 Te0 1.883218 1_555
O28 Te0 1.913637 1_655
O29 Te5 1.914562 1_555
O30 Te7 2.106535 1_455
O30 Te5 2.698353 1_555
O31 Te3 1.863741 1_555
