# generated using pymatgen
data_SrMg14CrO16
_symmetry_space_group_name_H-M   'P 1'
_cell_length_a   8.63138317
_cell_length_b   8.63138317
_cell_length_c   4.46135518
_cell_angle_alpha   90.00000000
_cell_angle_beta   90.00000000
_cell_angle_gamma   90.00000000
_symmetry_Int_Tables_number   1
_chemical_formula_structural   SrMg14CrO16
_chemical_formula_sum   'Sr1 Mg14 Cr1 O16'
_cell_volume   332.37442037
_cell_formula_units_Z   1
loop_
 _symmetry_equiv_pos_site_id
 _symmetry_equiv_pos_as_xyz
  1  'x, y, z'
loop_
 _atom_site_type_symbol
 _atom_site_label
 _atom_site_symmetry_multiplicity
 _atom_site_fract_x
 _atom_site_fract_y
 _atom_site_fract_z
 _atom_site_occupancy
  Sr  Sr0  1  0.00000000  0.00000000  0.00000000  1
  Mg  Mg0  1  0.00000000  0.50000000  0.00000000  1
  Mg  Mg1  1  0.50000000  0.00000000  0.00000000  1
  Mg  Mg2  1  0.00000000  0.25940468  0.50000000  1
  Mg  Mg3  1  0.00000000  0.74059532  0.50000000  1
  Mg  Mg4  1  0.50000000  0.25206592  0.50000000  1
  Mg  Mg5  1  0.50000000  0.74793408  0.50000000  1
  Mg  Mg6  1  0.25940468  0.00000000  0.50000000  1
  Mg  Mg7  1  0.25206592  0.50000000  0.50000000  1
  Mg  Mg8  1  0.74059532  0.00000000  0.50000000  1
  Mg  Mg9  1  0.74793408  0.50000000  0.50000000  1
  Mg  Mg10  1  0.25493223  0.25493223  0.00000000  1
  Mg  Mg11  1  0.25493223  0.74506777  0.00000000  1
  Mg  Mg12  1  0.74506777  0.25493223  0.00000000  1
  Mg  Mg13  1  0.74506777  0.74506777  0.00000000  1
  Cr  Cr0  1  0.50000000  0.50000000  0.00000000  1
  O  O0  1  0.27146223  0.00000000  0.00000000  1
  O  O1  1  0.25067661  0.50000000  0.00000000  1
  O  O2  1  0.72853777  0.00000000  0.00000000  1
  O  O3  1  0.74932339  0.50000000  0.00000000  1
  O  O4  1  0.25024818  0.25024818  0.50000000  1
  O  O5  1  0.25024818  0.74975182  0.50000000  1
  O  O6  1  0.74975182  0.25024818  0.50000000  1
  O  O7  1  0.74975182  0.74975182  0.50000000  1
  O  O8  1  0.00000000  0.00000000  0.50000000  1
  O  O9  1  0.00000000  0.50000000  0.50000000  1
  O  O10  1  0.50000000  0.00000000  0.50000000  1
  O  O11  1  0.50000000  0.50000000  0.50000000  1
  O  O12  1  0.00000000  0.27146223  0.00000000  1
  O  O13  1  0.00000000  0.72853777  0.00000000  1
  O  O14  1  0.50000000  0.25067661  0.00000000  1
  O  O15  1  0.50000000  0.74932339  0.00000000  1
loop_
_geom_bond_atom_site_label_1
_geom_bond_atom_site_label_2
_geom_bond_distance
_geom_bond_site_symmetry_2
Mg0 O13 1.972597 1_555
Mg0 O12 1.972597 1_555
Mg0 O3 2.163686 1_455
Mg0 O1 2.163686 1_555
Mg0 O9 2.230678 1_554
Mg0 O9 2.230678 1_555
Mg1 O0 1.972597 1_555
Mg1 O2 1.972597 1_555
Mg1 O15 2.163686 1_545
Mg1 O14 2.163686 1_555
Mg1 O10 2.230678 1_555
Mg1 O10 2.230678 1_554
Mg2 O9 2.076670 1_555
Mg2 O6 2.161433 1_455
Mg2 O4 2.161433 1_555
Mg2 O12 2.233104 1_556
Mg2 O12 2.233104 1_555
Mg2 O8 2.239021 1_555
Mg3 O9 2.076670 1_555
Mg3 O7 2.161433 1_455
Mg3 O5 2.161433 1_555
Mg3 O13 2.233104 1_555
Mg3 O13 2.233104 1_556
Mg3 O8 2.239021 1_565
Mg4 O11 2.140014 1_555
Mg4 O4 2.155761 1_555
Mg4 O6 2.155761 1_555
Mg4 O10 2.175678 1_555
Mg4 O14 2.230710 1_556
Mg4 O14 2.230710 1_555
Mg5 O11 2.140014 1_555
Mg5 O5 2.155761 1_555
Mg5 O7 2.155761 1_555
Mg5 O10 2.175678 1_565
Mg5 O15 2.230710 1_556
Mg5 O15 2.230710 1_555
Mg6 O10 2.076670 1_555
Mg6 O5 2.161433 1_545
Mg6 O4 2.161433 1_555
Mg6 O0 2.233104 1_555
Mg6 O0 2.233104 1_556
Mg6 O8 2.239021 1_555
Mg7 O11 2.140014 1_555
Mg7 O4 2.155761 1_555
Mg7 O5 2.155761 1_555
Mg7 O9 2.175678 1_555
Mg7 O1 2.230710 1_555
Mg7 O1 2.230710 1_556
Mg8 O10 2.076670 1_555
Mg8 O7 2.161433 1_545
Mg8 O6 2.161433 1_555
Mg8 O2 2.233104 1_555
Mg8 O2 2.233104 1_556
Mg8 O8 2.239021 1_655
Mg9 O11 2.140014 1_555
Mg9 O6 2.155761 1_555
Mg9 O7 2.155761 1_555
Mg9 O9 2.175678 1_655
Mg9 O3 2.230710 1_555
Mg9 O3 2.230710 1_556
Mg10 O1 2.115593 1_555
Mg10 O14 2.115593 1_555
Mg10 O0 2.205039 1_555
Mg10 O12 2.205039 1_555
Mg10 O4 2.231410 1_554
Mg10 O4 2.231410 1_555
Mg11 O1 2.115593 1_555
Mg11 O15 2.115593 1_555
Mg11 O13 2.205039 1_555
Mg11 O0 2.205039 1_565
Mg11 O5 2.231410 1_554
Mg11 O5 2.231410 1_555
Mg12 O3 2.115593 1_555
Mg12 O14 2.115593 1_555
Mg12 O12 2.205039 1_655
Mg12 O2 2.205039 1_555
Mg12 O6 2.231410 1_555
Mg12 O6 2.231410 1_554
Mg13 O3 2.115593 1_555
Mg13 O15 2.115593 1_555
Mg13 O2 2.205039 1_565
Mg13 O13 2.205039 1_655
Mg13 O7 2.231410 1_555
Mg13 O7 2.231410 1_554
Cr0 O1 2.152006 1_555
Cr0 O14 2.152006 1_555
Cr0 O15 2.152006 1_555
Cr0 O3 2.152006 1_555
Cr0 O11 2.230678 1_554
Cr0 O11 2.230678 1_555
O0 Sr0 2.343095 1_555
O2 Sr0 2.343095 1_655
O8 Sr0 2.230678 1_555
O8 Sr0 2.230678 1_556
O12 Sr0 2.343095 1_555
O13 Sr0 2.343095 1_565
