# generated using pymatgen
data_CaMn4(CuO4)3
_symmetry_space_group_name_H-M   'P 1'
_cell_length_a   6.41090801
_cell_length_b   6.38532047
_cell_length_c   6.42492269
_cell_angle_alpha   70.44068961
_cell_angle_beta   110.92858237
_cell_angle_gamma   71.71372839
_symmetry_Int_Tables_number   1
_chemical_formula_structural   CaMn4(CuO4)3
_chemical_formula_sum   'Ca1 Mn4 Cu3 O12'
_cell_volume   201.47807095
_cell_formula_units_Z   1
loop_
 _symmetry_equiv_pos_site_id
 _symmetry_equiv_pos_as_xyz
  1  'x, y, z'
loop_
 _atom_site_type_symbol
 _atom_site_label
 _atom_site_symmetry_multiplicity
 _atom_site_fract_x
 _atom_site_fract_y
 _atom_site_fract_z
 _atom_site_occupancy
  Ca  Ca0  1  0.00009400  0.99994400  0.99995000  1
  Mn  Mn0  1  0.00005500  0.00000900  0.49999900  1
  Mn  Mn1  1  0.50001600  0.49995800  0.50001700  1
  Mn  Mn2  1  0.00001100  0.49996500  0.00007100  1
  Mn  Mn3  1  0.50004700  0.99996300  0.00003400  1
  Cu  Cu0  1  0.00033200  0.49988400  0.50007900  1
  Cu  Cu1  1  0.49972400  0.50014000  0.99989000  1
  Cu  Cu2  1  0.49992200  0.00017500  0.49994500  1
  O  O0  1  0.70297600  0.81709700  0.85988100  1
  O  O1  1  0.31420100  0.82359000  0.47990800  1
  O  O2  1  0.68571900  0.17630300  0.52008400  1
  O  O3  1  0.86210400  0.31431600  0.17328900  1
  O  O4  1  0.83192900  0.47356500  0.69447100  1
  O  O5  1  0.16808400  0.52635200  0.30563100  1
  O  O6  1  0.51552500  0.31731800  0.82052400  1
  O  O7  1  0.82366400  0.86848200  0.30580600  1
  O  O8  1  0.29710200  0.18276600  0.14028300  1
  O  O9  1  0.48428700  0.68283800  0.17939900  1
  O  O10  1  0.13784700  0.68579000  0.82668300  1
  O  O11  1  0.17635800  0.13154800  0.69405700  1
loop_
_geom_bond_atom_site_label_1
_geom_bond_atom_site_label_2
_geom_bond_distance
_geom_bond_site_symmetry_2
Ca0 O4 2.574571 1_465
Ca0 O5 2.574960 1_556
Ca0 O2 2.578278 1_465
Ca0 O1 2.578367 1_556
Ca0 O8 2.583485 1_566
Ca0 O0 2.583743 1_455
Ca0 O11 2.631031 1_565
Ca0 O7 2.631505 1_456
Ca0 O9 2.645873 1_556
Ca0 O6 2.648212 1_465
Ca0 O10 2.670015 1_555
Ca0 O3 2.671846 1_466
Mn0 O11 1.956435 1_555
Mn0 O7 1.957144 1_445
Mn0 O10 1.988686 1_545
Mn0 O3 1.988815 1_455
Mn0 O1 2.049655 1_545
Mn0 O2 2.050438 1_455
Mn1 O6 1.945092 1_555
Mn1 O9 1.945316 1_555
Mn1 O4 1.962614 1_555
Mn1 O5 1.962616 1_555
Mn1 O1 1.967903 1_555
Mn1 O2 1.967981 1_555
Mn2 O0 1.916161 1_454
Mn2 O8 1.916556 1_555
Mn2 O5 1.966655 1_555
Mn2 O4 1.966930 1_454
Mn2 O3 1.975534 1_455
Mn2 O10 1.976344 1_554
Mn3 O7 1.938932 1_555
Mn3 O11 1.939676 1_564
Mn3 O9 2.021818 1_555
Mn3 O6 2.022241 1_564
Mn3 O0 2.110551 1_554
Mn3 O8 2.110924 1_565
Cu0 O5 1.917932 1_555
Cu0 O4 1.921020 1_455
Cu0 O11 1.930134 1_555
Cu0 O7 1.931445 1_455
Cu1 O10 1.890070 1_555
Cu1 O3 1.892692 1_556
Cu1 O9 1.900225 1_556
Cu1 O6 1.900274 1_555
Cu2 O8 1.867625 1_555
Cu2 O0 1.869060 1_545
Cu2 O2 1.878373 1_555
Cu2 O1 1.880352 1_545
