# generated using pymatgen
data_V(BiO3)2
_symmetry_space_group_name_H-M   'P 1'
_cell_length_a   7.84380700
_cell_length_b   6.98296900
_cell_length_c   10.91055417
_cell_angle_alpha   72.33370038
_cell_angle_beta   90.00000000
_cell_angle_gamma   90.00000000
_symmetry_Int_Tables_number   1
_chemical_formula_structural   V(BiO3)2
_chemical_formula_sum   'V4 Bi8 O24'
_cell_volume   569.42151026
_cell_formula_units_Z   4
loop_
 _symmetry_equiv_pos_site_id
 _symmetry_equiv_pos_as_xyz
  1  'x, y, z'
loop_
 _atom_site_type_symbol
 _atom_site_label
 _atom_site_symmetry_multiplicity
 _atom_site_fract_x
 _atom_site_fract_y
 _atom_site_fract_z
 _atom_site_occupancy
  V  V0  1  0.05012800  0.87849300  0.33378600  1
  V  V1  1  0.55012800  0.12150700  0.16621400  1
  V  V2  1  0.94987200  0.12150700  0.66621400  1
  V  V3  1  0.44987200  0.87849300  0.83378600  1
  Bi  Bi0  1  0.89615600  0.73472200  0.98625100  1
  Bi  Bi1  1  0.39615600  0.26527800  0.51374900  1
  Bi  Bi2  1  0.10384400  0.26527800  0.01374900  1
  Bi  Bi3  1  0.60384400  0.73472200  0.48625100  1
  Bi  Bi4  1  0.33304000  0.62079200  0.16231100  1
  Bi  Bi5  1  0.83304000  0.37920800  0.33768900  1
  Bi  Bi6  1  0.66696000  0.37920800  0.83768900  1
  Bi  Bi7  1  0.16696000  0.62079200  0.66231100  1
  O  O0  1  0.09932100  0.51829700  0.09059000  1
  O  O1  1  0.59932100  0.48170300  0.40941000  1
  O  O2  1  0.90067900  0.48170300  0.90941000  1
  O  O3  1  0.40067900  0.51829700  0.59059000  1
  O  O4  1  0.75115900  0.58537500  0.15517100  1
  O  O5  1  0.25115900  0.41462500  0.34482900  1
  O  O6  1  0.24884100  0.41462500  0.84482900  1
  O  O7  1  0.74884100  0.58537500  0.65517100  1
  O  O8  1  0.12778200  0.82080700  0.19809000  1
  O  O9  1  0.62778200  0.17919300  0.30191000  1
  O  O10  1  0.87221800  0.17919300  0.80191000  1
  O  O11  1  0.37221800  0.82080700  0.69809000  1
  O  O12  1  0.19916200  0.85723000  0.45709200  1
  O  O13  1  0.69916200  0.14277000  0.04290800  1
  O  O14  1  0.80083800  0.14277000  0.54290800  1
  O  O15  1  0.30083800  0.85723000  0.95709200  1
  O  O16  1  0.88283000  0.71274300  0.40194400  1
  O  O17  1  0.38283000  0.28725700  0.09805600  1
  O  O18  1  0.11717000  0.28725700  0.59805600  1
  O  O19  1  0.61717000  0.71274300  0.90194400  1
  O  O20  1  0.98191700  0.12431200  0.27324400  1
  O  O21  1  0.48191700  0.87568800  0.22675600  1
  O  O22  1  0.01808300  0.87568800  0.72675600  1
  O  O23  1  0.51808300  0.12431200  0.77324400  1
loop_
_geom_bond_atom_site_label_1
_geom_bond_atom_site_label_2
_geom_bond_distance
_geom_bond_site_symmetry_2
Bi0 O4 2.147379 1_556
Bi0 O2 2.173672 1_555
Bi0 O0 2.252830 1_656
Bi0 O19 2.396675 1_555
Bi1 O5 2.147379 1_555
Bi1 O3 2.173672 1_555
Bi1 O1 2.252830 1_555
Bi1 O18 2.396675 1_555
Bi2 O6 2.147379 1_554
Bi2 O0 2.173672 1_555
Bi2 O2 2.252830 1_454
Bi2 O17 2.396675 1_555
Bi3 O7 2.147379 1_555
Bi3 O1 2.173672 1_555
Bi3 O3 2.252830 1_555
Bi3 O16 2.396675 1_555
Bi4 O5 2.170398 1_555
Bi4 O0 2.196658 1_555
Bi4 O8 2.241917 1_555
Bi4 O15 2.357828 1_554
Bi4 O21 2.405374 1_555
Bi4 O17 2.656986 1_555
Bi5 O4 2.170398 1_555
Bi5 O1 2.196658 1_555
Bi5 O9 2.241917 1_555
Bi5 O14 2.357828 1_555
Bi5 O20 2.405374 1_555
Bi5 O16 2.656986 1_555
Bi6 O7 2.170398 1_555
Bi6 O2 2.196658 1_555
Bi6 O10 2.241917 1_555
Bi6 O13 2.357828 1_556
Bi6 O23 2.405374 1_555
Bi6 O19 2.656986 1_555
Bi7 O6 2.170398 1_555
Bi7 O3 2.196658 1_555
Bi7 O11 2.241917 1_555
Bi7 O12 2.357828 1_555
Bi7 O22 2.405374 1_555
Bi7 O18 2.656986 1_555
O8 V0 1.757036 1_555
O9 V1 1.757036 1_555
O10 V2 1.757036 1_555
O11 V3 1.757036 1_555
O12 V0 1.754219 1_555
O13 V1 1.754219 1_555
O14 V2 1.754219 1_555
O15 V3 1.754219 1_555
O16 V0 1.758478 1_655
O17 V1 1.758478 1_555
O18 V2 1.758478 1_455
O19 V3 1.758478 1_555
O20 V0 1.726535 1_645
O21 V1 1.726535 1_565
O22 V2 1.726535 1_465
O23 V3 1.726535 1_545
