# generated using pymatgen
data_Li9Mn2Co5O16
_symmetry_space_group_name_H-M   'P 1'
_cell_length_a   7.73049252
_cell_length_b   7.73049252
_cell_length_c   5.16695160
_cell_angle_alpha   75.40960479
_cell_angle_beta   75.40960479
_cell_angle_gamma   95.49590616
_symmetry_Int_Tables_number   1
_chemical_formula_structural   Li9Mn2Co5O16
_chemical_formula_sum   'Li9 Mn2 Co5 O16'
_cell_volume   284.97498430
_cell_formula_units_Z   1
loop_
 _symmetry_equiv_pos_site_id
 _symmetry_equiv_pos_as_xyz
  1  'x, y, z'
loop_
 _atom_site_type_symbol
 _atom_site_label
 _atom_site_symmetry_multiplicity
 _atom_site_fract_x
 _atom_site_fract_y
 _atom_site_fract_z
 _atom_site_occupancy
  Li  Li0  1  0.37834000  0.13219900  0.99079100  1
  Li  Li1  1  0.86780100  0.62166000  0.00920900  1
  Li  Li2  1  0.50505200  0.00363500  0.50969200  1
  Li  Li3  1  0.99636500  0.49494800  0.49030800  1
  Li  Li4  1  0.62229500  0.86815400  0.99446900  1
  Li  Li5  1  0.13184600  0.37770500  0.00553100  1
  Li  Li6  1  0.73911800  0.74142700  0.51603400  1
  Li  Li7  1  0.25857300  0.26088200  0.48396600  1
  Li  Li8  1  0.49843200  0.50156800  0.00000000  1
  Mn  Mn0  1  0.99949600  0.00050400  0.00000000  1
  Mn  Mn1  1  0.25411100  0.74588900  0.00000000  1
  Co  Co0  1  0.12536800  0.87463200  0.50000000  1
  Co  Co1  1  0.62576900  0.37423100  0.50000000  1
  Co  Co2  1  0.74589300  0.25410700  0.00000000  1
  Co  Co3  1  0.38022300  0.61977700  0.50000000  1
  Co  Co4  1  0.87281300  0.12718700  0.50000000  1
  O  O0  1  0.24005000  0.98962700  0.77206400  1
  O  O1  1  0.73642200  0.47208200  0.74372700  1
  O  O2  1  0.35574300  0.85332700  0.25304900  1
  O  O3  1  0.86226100  0.37068900  0.27423700  1
  O  O4  1  0.48461400  0.75313600  0.76238500  1
  O  O5  1  0.98319400  0.23956800  0.76870000  1
  O  O6  1  0.61441900  0.60941000  0.28686500  1
  O  O7  1  0.12383300  0.11419100  0.27799800  1
  O  O8  1  0.52791800  0.26357800  0.25627300  1
  O  O9  1  0.01037300  0.75995000  0.22793600  1
  O  O10  1  0.62931100  0.13773900  0.72576300  1
  O  O11  1  0.14667300  0.64425700  0.74695100  1
  O  O12  1  0.76043200  0.01680600  0.23130000  1
  O  O13  1  0.24686400  0.51538600  0.23761500  1
  O  O14  1  0.88580900  0.87616700  0.72200200  1
  O  O15  1  0.39059000  0.38558100  0.71313500  1
loop_
_geom_bond_atom_site_label_1
_geom_bond_atom_site_label_2
_geom_bond_distance
_geom_bond_site_symmetry_2
Li0 O10 2.063290 1_555
Li0 O15 2.093839 1_555
Li0 O7 2.113050 1_556
Li0 O0 2.155321 1_545
Li0 O2 2.202523 1_546
Li0 O8 2.350802 1_556
Li1 O3 2.063290 1_555
Li1 O6 2.093839 1_555
Li1 O14 2.113050 1_554
Li1 O9 2.155321 1_655
Li1 O11 2.202523 1_654
Li1 O1 2.350802 1_554
Li2 O4 2.010792 1_545
Li2 O10 2.043654 1_555
Li2 O8 2.067250 1_555
Li2 O12 2.105700 1_555
Li2 O0 2.128531 1_545
Li2 O2 2.394024 1_545
Li3 O13 2.010792 1_655
Li3 O3 2.043654 1_555
Li3 O1 2.067250 1_555
Li3 O5 2.105700 1_555
Li3 O9 2.128531 1_655
Li3 O11 2.394024 1_655
Li4 O4 2.088144 1_555
Li4 O2 2.129500 1_556
Li4 O14 2.150017 1_555
Li4 O6 2.166778 1_556
Li4 O10 2.180914 1_565
Li4 O12 2.256122 1_566
Li5 O13 2.088144 1_555
Li5 O11 2.129500 1_554
Li5 O7 2.150017 1_555
Li5 O15 2.166778 1_554
Li5 O3 2.180914 1_455
Li5 O5 2.256122 1_454
Li6 O4 2.080792 1_555
Li6 O6 2.090066 1_555
Li6 O14 2.108011 1_555
Li6 O1 2.113089 1_555
Li6 O9 2.212688 1_655
Li6 O12 2.226258 1_565
Li7 O13 2.080792 1_555
Li7 O15 2.090066 1_555
Li7 O7 2.108011 1_555
Li7 O8 2.113089 1_555
Li7 O0 2.212688 1_545
Li7 O5 2.226258 1_455
Li8 O1 2.048207 1_554
Li8 O8 2.048207 1_555
Li8 O4 2.050301 1_554
Li8 O13 2.050301 1_555
Li8 O6 2.201109 1_555
Li8 O15 2.201109 1_554
Mn0 O9 1.956700 1_645
Mn0 O0 1.956700 1_644
Mn0 O5 1.966551 1_554
Mn0 O12 1.966551 1_555
Mn0 O14 2.220205 1_544
Mn0 O7 2.220205 1_655
Mn1 O13 1.878747 1_555
Mn1 O4 1.878747 1_554
Mn1 O0 1.983646 1_554
Mn1 O9 1.983646 1_555
Mn1 O2 1.989039 1_555
Mn1 O11 1.989039 1_554
Co0 O7 1.919977 1_565
Co0 O14 1.919977 1_455
Co0 O2 1.960636 1_555
Co0 O11 1.960636 1_555
Co0 O9 2.158439 1_555
Co0 O0 2.158439 1_555
Co1 O15 1.896392 1_555
Co1 O6 1.896392 1_555
Co1 O10 1.911817 1_555
Co1 O3 1.911817 1_555
Co1 O1 1.946413 1_555
Co1 O8 1.946413 1_555
Co2 O1 1.883209 1_554
Co2 O8 1.883209 1_555
Co2 O5 1.951606 1_554
Co2 O12 1.951606 1_555
Co2 O10 2.181643 1_554
Co2 O3 2.181643 1_555
Co3 O15 1.888038 1_555
Co3 O6 1.888038 1_555
Co3 O2 1.987478 1_555
Co3 O11 1.987478 1_555
Co3 O4 2.155939 1_555
Co3 O13 2.155939 1_555
Co4 O3 1.970242 1_555
Co4 O10 1.970242 1_555
Co4 O14 2.016285 1_545
Co4 O7 2.016285 1_655
Co4 O12 2.114935 1_555
Co4 O5 2.114935 1_555
