# generated using pymatgen
data_CaP2H10(NO4)2
_symmetry_space_group_name_H-M   'P 1'
_cell_length_a   17.19089500
_cell_length_b   10.95284300
_cell_length_c   9.67054900
_cell_angle_alpha   90.00000000
_cell_angle_beta   90.00000000
_cell_angle_gamma   90.00000000
_symmetry_Int_Tables_number   1
_chemical_formula_structural   CaP2H10(NO4)2
_chemical_formula_sum   'Ca8 P16 H80 N16 O64'
_cell_volume   1820.85968299
_cell_formula_units_Z   8
loop_
 _symmetry_equiv_pos_site_id
 _symmetry_equiv_pos_as_xyz
  1  'x, y, z'
loop_
 _atom_site_type_symbol
 _atom_site_label
 _atom_site_symmetry_multiplicity
 _atom_site_fract_x
 _atom_site_fract_y
 _atom_site_fract_z
 _atom_site_occupancy
  Ca  Ca0  1  0.85057500  0.22040400  0.50396800  1
  Ca  Ca1  1  0.64942500  0.27959600  0.00396800  1
  Ca  Ca2  1  0.35057500  0.27959600  0.49603200  1
  Ca  Ca3  1  0.14942500  0.22040400  0.99603200  1
  Ca  Ca4  1  0.14942500  0.77959600  0.49603200  1
  Ca  Ca5  1  0.35057500  0.72040400  0.99603200  1
  Ca  Ca6  1  0.64942500  0.72040400  0.50396800  1
  Ca  Ca7  1  0.85057500  0.77959600  0.00396800  1
  P  P0  1  0.88175300  0.94406600  0.69387400  1
  P  P1  1  0.61824700  0.55593400  0.19387400  1
  P  P2  1  0.38175300  0.55593400  0.30612600  1
  P  P3  1  0.11824700  0.94406600  0.80612600  1
  P  P4  1  0.11824700  0.05593400  0.30612600  1
  P  P5  1  0.38175300  0.44406600  0.80612600  1
  P  P6  1  0.61824700  0.44406600  0.69387400  1
  P  P7  1  0.88175300  0.05593400  0.19387400  1
  P  P8  1  0.00000000  0.13958000  0.75000000  1
  P  P9  1  0.50000000  0.36042000  0.25000000  1
  P  P10  1  0.00000000  0.86042000  0.25000000  1
  P  P11  1  0.50000000  0.63958000  0.75000000  1
  P  P12  1  0.00000000  0.25514400  0.25000000  1
  P  P13  1  0.50000000  0.24485600  0.75000000  1
  P  P14  1  0.00000000  0.74485600  0.75000000  1
  P  P15  1  0.50000000  0.75514400  0.25000000  1
  H  H0  1  0.96610800  0.83663800  0.54532000  1
  H  H1  1  0.53389200  0.66336200  0.04532000  1
  H  H2  1  0.46610800  0.66336200  0.45468000  1
  H  H3  1  0.03389200  0.83663800  0.95468000  1
  H  H4  1  0.03389200  0.16336200  0.45468000  1
  H  H5  1  0.46610800  0.33663800  0.95468000  1
  H  H6  1  0.53389200  0.33663800  0.54532000  1
  H  H7  1  0.96610800  0.16336200  0.04532000  1
  H  H8  1  0.90933300  0.04315900  0.89744100  1
  H  H9  1  0.59066700  0.45684100  0.39744100  1
  H  H10  1  0.40933300  0.45684100  0.10255900  1
  H  H11  1  0.09066700  0.04315900  0.60255900  1
  H  H12  1  0.09066700  0.95684100  0.10255900  1
  H  H13  1  0.40933300  0.54315900  0.60255900  1
  H  H14  1  0.59066700  0.54315900  0.89744100  1
  H  H15  1  0.90933300  0.95684100  0.39744100  1
  H  H16  1  0.73006500  0.42415200  0.44082600  1
  H  H17  1  0.76993500  0.07584800  0.94082600  1
  H  H18  1  0.23006500  0.07584800  0.55917400  1
  H  H19  1  0.26993500  0.42415200  0.05917400  1
  H  H20  1  0.26993500  0.57584800  0.55917400  1
  H  H21  1  0.23006500  0.92415200  0.05917400  1
  H  H22  1  0.76993500  0.92415200  0.44082600  1
  H  H23  1  0.73006500  0.57584800  0.94082600  1
  H  H24  1  0.77263900  0.38639600  0.30183900  1
  H  H25  1  0.72736100  0.11360400  0.80183900  1
  H  H26  1  0.27263900  0.11360400  0.69816100  1
  H  H27  1  0.22736100  0.38639600  0.19816100  1
  H  H28  1  0.22736100  0.61360400  0.69816100  1
  H  H29  1  0.27263900  0.88639600  0.19816100  1
  H  H30  1  0.72736100  0.88639600  0.30183900  1
  H  H31  1  0.77263900  0.61360400  0.80183900  1
  H  H32  1  0.06161600  0.50544800  0.61472300  1
  H  H33  1  0.43838400  0.99455200  0.11472300  1
  H  H34  1  0.56161600  0.99455200  0.38527700  1
  H  H35  1  0.93838400  0.50544800  0.88527700  1
  H  H36  1  0.93838400  0.49455200  0.38527700  1
  H  H37  1  0.56161600  0.00544800  0.88527700  1
  H  H38  1  0.43838400  0.00544800  0.61472300  1
  H  H39  1  0.06161600  0.49455200  0.11472300  1
  H  H40  1  0.03721400  0.36614200  0.59192600  1
  H  H41  1  0.46278600  0.13385800  0.09192600  1
  H  H42  1  0.53721400  0.13385800  0.40807400  1
  H  H43  1  0.96278600  0.36614200  0.90807400  1
  H  H44  1  0.96278600  0.63385800  0.40807400  1
  H  H45  1  0.53721400  0.86614200  0.90807400  1
  H  H46  1  0.46278600  0.86614200  0.59192600  1
  H  H47  1  0.03721400  0.63385800  0.09192600  1
  H  H48  1  0.67756400  0.10075000  0.54622400  1
  H  H49  1  0.82243600  0.39925000  0.04622400  1
  H  H50  1  0.17756400  0.39925000  0.45377600  1
  H  H51  1  0.32243600  0.10075000  0.95377600  1
  H  H52  1  0.32243600  0.89925000  0.45377600  1
  H  H53  1  0.17756400  0.60075000  0.95377600  1
  H  H54  1  0.82243600  0.60075000  0.54622400  1
  H  H55  1  0.67756400  0.89925000  0.04622400  1
  H  H56  1  0.68060900  0.22526400  0.62001800  1
  H  H57  1  0.81939100  0.27473600  0.12001800  1
  H  H58  1  0.18060900  0.27473600  0.37998200  1
  H  H59  1  0.31939100  0.22526400  0.87998200  1
  H  H60  1  0.31939100  0.77473600  0.37998200  1
  H  H61  1  0.18060900  0.72526400  0.87998200  1
  H  H62  1  0.81939100  0.72526400  0.62001800  1
  H  H63  1  0.68060900  0.77473600  0.12001800  1
  H  H64  1  0.86429500  0.37126500  0.76640100  1
  H  H65  1  0.63570500  0.12873500  0.26640100  1
  H  H66  1  0.36429500  0.12873500  0.23359900  1
  H  H67  1  0.13570500  0.37126500  0.73359900  1
  H  H68  1  0.13570500  0.62873500  0.23359900  1
  H  H69  1  0.36429500  0.87126500  0.73359900  1
  H  H70  1  0.63570500  0.87126500  0.76640100  1
  H  H71  1  0.86429500  0.62873500  0.26640100  1
  H  H72  1  0.77488700  0.35963500  0.72958200  1
  H  H73  1  0.72511300  0.14036500  0.22958200  1
  H  H74  1  0.27488700  0.14036500  0.27041800  1
  H  H75  1  0.22511300  0.35963500  0.77041800  1
  H  H76  1  0.22511300  0.64036500  0.27041800  1
  H  H77  1  0.27488700  0.85963500  0.77041800  1
  H  H78  1  0.72511300  0.85963500  0.72958200  1
  H  H79  1  0.77488700  0.64036500  0.22958200  1
  N  N0  1  0.94674800  0.83769100  0.64654100  1
  N  N1  1  0.55325200  0.66230900  0.14654100  1
  N  N2  1  0.44674800  0.66230900  0.35345900  1
  N  N3  1  0.05325200  0.83769100  0.85345900  1
  N  N4  1  0.05325200  0.16230900  0.35345900  1
  N  N5  1  0.44674800  0.33769100  0.85345900  1
  N  N6  1  0.55325200  0.33769100  0.64654100  1
  N  N7  1  0.94674800  0.16230900  0.14654100  1
  N  N8  1  0.92524200  0.04873400  0.79435900  1
  N  N9  1  0.57475800  0.45126600  0.29435900  1
  N  N10  1  0.42524200  0.45126600  0.20564100  1
  N  N11  1  0.07475800  0.04873400  0.70564100  1
  N  N12  1  0.07475800  0.95126600  0.20564100  1
  N  N13  1  0.42524200  0.54873400  0.70564100  1
  N  N14  1  0.57475800  0.54873400  0.79435900  1
  N  N15  1  0.92524200  0.95126600  0.29435900  1
  O  O0  1  0.82160300  0.88357800  0.78623700  1
  O  O1  1  0.67839700  0.61642200  0.28623700  1
  O  O2  1  0.32160300  0.61642200  0.21376300  1
  O  O3  1  0.17839700  0.88357800  0.71376300  1
  O  O4  1  0.17839700  0.11642200  0.21376300  1
  O  O5  1  0.32160300  0.38357800  0.71376300  1
  O  O6  1  0.67839700  0.38357800  0.78623700  1
  O  O7  1  0.82160300  0.11642200  0.28623700  1
  O  O8  1  0.94603800  0.32238200  0.34754900  1
  O  O9  1  0.55396200  0.17761800  0.84754900  1
  O  O10  1  0.44603800  0.17761800  0.65245100  1
  O  O11  1  0.05396200  0.32238200  0.15245100  1
  O  O12  1  0.05396200  0.67761800  0.65245100  1
  O  O13  1  0.44603800  0.82238200  0.15245100  1
  O  O14  1  0.55396200  0.82238200  0.34754900  1
  O  O15  1  0.94603800  0.67761800  0.84754900  1
  O  O16  1  0.97916300  0.20970500  0.61956600  1
  O  O17  1  0.52083700  0.29029500  0.11956600  1
  O  O18  1  0.47916300  0.29029500  0.38043400  1
  O  O19  1  0.02083700  0.20970500  0.88043400  1
  O  O20  1  0.02083700  0.79029500  0.38043400  1
  O  O21  1  0.47916300  0.70970500  0.88043400  1
  O  O22  1  0.52083700  0.70970500  0.61956600  1
  O  O23  1  0.97916300  0.79029500  0.11956600  1
  O  O24  1  0.85537400  0.00367100  0.55970600  1
  O  O25  1  0.64462600  0.49632900  0.05970600  1
  O  O26  1  0.35537400  0.49632900  0.44029400  1
  O  O27  1  0.14462600  0.00367100  0.94029400  1
  O  O28  1  0.14462600  0.99632900  0.44029400  1
  O  O29  1  0.35537400  0.50367100  0.94029400  1
  O  O30  1  0.64462600  0.50367100  0.55970600  1
  O  O31  1  0.85537400  0.99632900  0.05970600  1
  O  O32  1  0.77295000  0.37634200  0.40265300  1
  O  O33  1  0.72705000  0.12365800  0.90265300  1
  O  O34  1  0.27295000  0.12365800  0.59734700  1
  O  O35  1  0.22705000  0.37634200  0.09734700  1
  O  O36  1  0.22705000  0.62365800  0.59734700  1
  O  O37  1  0.27295000  0.87634200  0.09734700  1
  O  O38  1  0.72705000  0.87634200  0.40265300  1
  O  O39  1  0.77295000  0.62365800  0.90265300  1
  O  O40  1  0.08164400  0.42258200  0.59744300  1
  O  O41  1  0.41835600  0.07741800  0.09744300  1
  O  O42  1  0.58164400  0.07741800  0.40255700  1
  O  O43  1  0.91835600  0.42258200  0.90255700  1
  O  O44  1  0.91835600  0.57741800  0.40255700  1
  O  O45  1  0.58164400  0.92258200  0.90255700  1
  O  O46  1  0.41835600  0.92258200  0.59744300  1
  O  O47  1  0.08164400  0.57741800  0.09744300  1
  O  O48  1  0.71335400  0.15505400  0.59640500  1
  O  O49  1  0.78664600  0.34494600  0.09640500  1
  O  O50  1  0.21335400  0.34494600  0.40359500  1
  O  O51  1  0.28664600  0.15505400  0.90359500  1
  O  O52  1  0.28664600  0.84494600  0.40359500  1
  O  O53  1  0.21335400  0.65505400  0.90359500  1
  O  O54  1  0.78664600  0.65505400  0.59640500  1
  O  O55  1  0.71335400  0.84494600  0.09640500  1
  O  O56  1  0.82758600  0.34224400  0.69388000  1
  O  O57  1  0.67241400  0.15775600  0.19388000  1
  O  O58  1  0.32758600  0.15775600  0.30612000  1
  O  O59  1  0.17241400  0.34224400  0.80612000  1
  O  O60  1  0.17241400  0.65775600  0.30612000  1
  O  O61  1  0.32758600  0.84224400  0.80612000  1
  O  O62  1  0.67241400  0.84224400  0.69388000  1
  O  O63  1  0.82758600  0.65775600  0.19388000  1
loop_
_geom_bond_atom_site_label_1
_geom_bond_atom_site_label_2
_geom_bond_distance
_geom_bond_site_symmetry_2
Ca0 O56 2.304341 1_555
Ca0 O32 2.378620 1_555
Ca0 O24 2.435667 1_555
Ca0 O7 2.445119 1_555
Ca0 O16 2.479904 1_555
Ca0 O8 2.495776 1_555
Ca0 O48 2.622225 1_555
Ca1 O57 2.304341 1_555
Ca1 O33 2.378620 1_554
Ca1 O25 2.435667 1_555
Ca1 O6 2.445119 1_554
Ca1 O17 2.479904 1_555
Ca1 O9 2.495776 1_554
Ca1 O49 2.622225 1_555
Ca2 O58 2.304341 1_555
Ca2 O34 2.378620 1_555
Ca2 O26 2.435667 1_555
Ca2 O5 2.445119 1_555
Ca2 O18 2.479904 1_555
Ca2 O10 2.495776 1_555
Ca2 O50 2.622225 1_555
Ca3 O59 2.304341 1_555
Ca3 O35 2.378620 1_556
Ca3 O27 2.435667 1_555
Ca3 O4 2.445119 1_556
Ca3 O19 2.479904 1_555
Ca3 O11 2.495776 1_556
Ca3 O51 2.622225 1_555
Ca4 O60 2.304341 1_555
Ca4 O36 2.378620 1_555
Ca4 O28 2.435667 1_555
Ca4 O3 2.445119 1_555
Ca4 O20 2.479904 1_555
Ca4 O12 2.495776 1_555
Ca4 O52 2.622225 1_555
Ca5 O61 2.304341 1_555
Ca5 O37 2.378620 1_556
Ca5 O29 2.435667 1_555
Ca5 O2 2.445119 1_556
Ca5 O21 2.479904 1_555
Ca5 O13 2.495776 1_556
Ca5 O53 2.622225 1_555
Ca6 O62 2.304341 1_555
Ca6 O38 2.378620 1_555
Ca6 O30 2.435667 1_555
Ca6 O1 2.445119 1_555
Ca6 O22 2.479904 1_555
Ca6 O14 2.495776 1_555
Ca6 O54 2.622225 1_555
Ca7 O63 2.304341 1_555
Ca7 O39 2.378620 1_554
Ca7 O31 2.435667 1_555
Ca7 O0 2.445119 1_554
Ca7 O23 2.479904 1_555
Ca7 O15 2.495776 1_554
Ca7 O55 2.622225 1_555
H0 N0 1.033959 1_555
H1 N1 1.033959 1_555
H2 N2 1.033959 1_555
H3 N3 1.033959 1_555
H4 N4 1.033959 1_555
H5 N5 1.033959 1_555
H6 N6 1.033959 1_555
H7 N7 1.033959 1_555
H8 N8 1.035497 1_555
H9 N9 1.035497 1_555
H10 N10 1.035497 1_555
H11 N11 1.035497 1_555
H12 N12 1.035497 1_555
H13 N13 1.035497 1_555
H14 N14 1.035497 1_555
H15 N15 1.035497 1_555
H16 O32 0.976729 1_555
H17 O33 0.976729 1_555
H18 O34 0.976729 1_555
H19 O35 0.976729 1_555
H20 O36 0.976729 1_555
H21 O37 0.976729 1_555
H22 O38 0.976729 1_555
H23 O39 0.976729 1_555
H24 O32 0.981141 1_555
H25 O33 0.981141 1_555
H26 O34 0.981141 1_555
H27 O35 0.981141 1_555
H28 O36 0.981141 1_555
H29 O37 0.981141 1_555
H30 O38 0.981141 1_555
H31 O39 0.981141 1_555
H32 O40 0.985006 1_555
H33 O41 0.985006 1_565
H34 O42 0.985006 1_565
H35 O43 0.985006 1_555
H36 O44 0.985006 1_555
H37 O45 0.985006 1_545
H38 O46 0.985006 1_545
H39 O47 0.985006 1_555
H40 O40 0.984057 1_555
H41 O41 0.984057 1_555
H42 O42 0.984057 1_555
H43 O43 0.984057 1_555
H44 O44 0.984057 1_555
H45 O45 0.984057 1_555
H46 O46 0.984057 1_555
H47 O47 0.984057 1_555
H48 O48 0.983773 1_555
H49 O49 0.983773 1_555
H50 O50 0.983773 1_555
H51 O51 0.983773 1_555
H52 O52 0.983773 1_555
H53 O53 0.983773 1_555
H54 O54 0.983773 1_555
H55 O55 0.983773 1_555
H56 O48 0.979989 1_555
H57 O49 0.979989 1_555
H58 O50 0.979989 1_555
H59 O51 0.979989 1_555
H60 O52 0.979989 1_555
H61 O53 0.979989 1_555
H62 O54 0.979989 1_555
H63 O55 0.979989 1_555
H64 O56 0.995550 1_555
H65 O57 0.995550 1_555
H66 O58 0.995550 1_555
H67 O59 0.995550 1_555
H68 O60 0.995550 1_555
H69 O61 0.995550 1_555
H70 O62 0.995550 1_555
H71 O63 0.995550 1_555
H72 O56 0.988038 1_555
H73 O57 0.988038 1_555
H74 O58 0.988038 1_555
H75 O59 0.988038 1_555
H76 O60 0.988038 1_555
H77 O61 0.988038 1_555
H78 O62 0.988038 1_555
H79 O63 0.988038 1_555
N0 P0 1.677918 1_555
N0 P14 1.694980 1_655
N1 P1 1.677918 1_555
N1 P15 1.694980 1_555
N2 P2 1.677918 1_555
N2 P15 1.694980 1_555
N3 P3 1.677918 1_555
N3 P14 1.694980 1_555
N4 P4 1.677918 1_555
N4 P12 1.694980 1_555
N5 P5 1.677918 1_555
N5 P13 1.694980 1_555
N6 P6 1.677918 1_555
N6 P13 1.694980 1_555
N7 P7 1.677918 1_555
N7 P12 1.694980 1_655
N8 P0 1.678534 1_545
N8 P8 1.680987 1_655
N9 P1 1.678534 1_555
N9 P9 1.680987 1_555
N10 P2 1.678534 1_555
N10 P9 1.680987 1_555
N11 P3 1.678534 1_545
N11 P8 1.680987 1_555
N12 P4 1.678534 1_565
N12 P10 1.680987 1_555
N13 P5 1.678534 1_555
N13 P11 1.680987 1_555
N14 P6 1.678534 1_555
N14 P11 1.680987 1_555
N15 P7 1.678534 1_565
N15 P10 1.680987 1_655
O0 P0 1.518538 1_555
O1 P1 1.518538 1_555
O2 P2 1.518538 1_555
O3 P3 1.518538 1_555
O4 P4 1.518538 1_555
O5 P5 1.518538 1_555
O6 P6 1.518538 1_555
O7 P7 1.518538 1_555
O8 P12 1.514203 1_655
O9 P13 1.514203 1_555
O10 P13 1.514203 1_555
O11 P12 1.514203 1_555
O12 P14 1.514203 1_555
O13 P15 1.514203 1_555
O14 P15 1.514203 1_555
O15 P14 1.514203 1_655
O16 P8 1.519635 1_655
O17 P9 1.519635 1_555
O18 P9 1.519635 1_555
O19 P8 1.519635 1_555
O20 P10 1.519635 1_555
O21 P11 1.519635 1_555
O22 P11 1.519635 1_555
O23 P10 1.519635 1_655
O24 P0 1.521610 1_545
O25 P1 1.521610 1_555
O26 P2 1.521610 1_555
O27 P3 1.521610 1_545
O28 P4 1.521610 1_565
O29 P5 1.521610 1_555
O30 P6 1.521610 1_555
O31 P7 1.521610 1_565
