# generated using pymatgen
data_TiPb7N6
_symmetry_space_group_name_H-M   'P 1'
_cell_length_a   12.84325700
_cell_length_b   7.33128500
_cell_length_c   12.96864300
_cell_angle_alpha   90.00000000
_cell_angle_beta   90.00000000
_cell_angle_gamma   90.00000000
_symmetry_Int_Tables_number   1
_chemical_formula_structural   TiPb7N6
_chemical_formula_sum   'Ti4 Pb28 N24'
_cell_volume   1221.09600698
_cell_formula_units_Z   4
loop_
 _symmetry_equiv_pos_site_id
 _symmetry_equiv_pos_as_xyz
  1  'x, y, z'
loop_
 _atom_site_type_symbol
 _atom_site_label
 _atom_site_symmetry_multiplicity
 _atom_site_fract_x
 _atom_site_fract_y
 _atom_site_fract_z
 _atom_site_occupancy
  Ti  Ti0  1  0.00000000  0.83526800  0.75000000  1
  Ti  Ti1  1  0.50000000  0.66473200  0.25000000  1
  Ti  Ti2  1  0.00000000  0.16473200  0.25000000  1
  Ti  Ti3  1  0.50000000  0.33526800  0.75000000  1
  Pb  Pb0  1  0.00501100  0.76863600  0.02541100  1
  Pb  Pb1  1  0.49498900  0.73136400  0.52541100  1
  Pb  Pb2  1  0.50501100  0.73136400  0.97458900  1
  Pb  Pb3  1  0.99498900  0.76863600  0.47458900  1
  Pb  Pb4  1  0.99498900  0.23136400  0.97458900  1
  Pb  Pb5  1  0.50501100  0.26863600  0.47458900  1
  Pb  Pb6  1  0.49498900  0.26863600  0.02541100  1
  Pb  Pb7  1  0.00501100  0.23136400  0.52541100  1
  Pb  Pb8  1  0.20847800  0.82234500  0.62514000  1
  Pb  Pb9  1  0.29152300  0.67765500  0.12514000  1
  Pb  Pb10  1  0.70847700  0.67765500  0.37486000  1
  Pb  Pb11  1  0.79152300  0.82234500  0.87486000  1
  Pb  Pb12  1  0.79152300  0.17765500  0.37486000  1
  Pb  Pb13  1  0.70847700  0.32234500  0.87486000  1
  Pb  Pb14  1  0.29152300  0.32234500  0.62514000  1
  Pb  Pb15  1  0.20847800  0.17765500  0.12514000  1
  Pb  Pb16  1  0.25804500  0.52771000  0.86353500  1
  Pb  Pb17  1  0.24195500  0.97229000  0.36353500  1
  Pb  Pb18  1  0.75804500  0.97229000  0.13646500  1
  Pb  Pb19  1  0.74195500  0.52771000  0.63646500  1
  Pb  Pb20  1  0.74195500  0.47229000  0.13646500  1
  Pb  Pb21  1  0.75804500  0.02771000  0.63646500  1
  Pb  Pb22  1  0.24195500  0.02771000  0.86353500  1
  Pb  Pb23  1  0.25804500  0.47229000  0.36353500  1
  Pb  Pb24  1  0.00000000  0.43146400  0.75000000  1
  Pb  Pb25  1  0.50000000  0.06853600  0.25000000  1
  Pb  Pb26  1  0.00000000  0.56853600  0.25000000  1
  Pb  Pb27  1  0.50000000  0.93146400  0.75000000  1
  N  N0  1  0.11332900  0.66721500  0.77134800  1
  N  N1  1  0.38667100  0.83278500  0.27134800  1
  N  N2  1  0.61332900  0.83278500  0.22865200  1
  N  N3  1  0.88667100  0.66721500  0.72865200  1
  N  N4  1  0.88667100  0.33278500  0.22865200  1
  N  N5  1  0.61332900  0.16721500  0.72865200  1
  N  N6  1  0.38667100  0.16721500  0.77134800  1
  N  N7  1  0.11332900  0.33278500  0.27134800  1
  N  N8  1  0.17497300  0.71247300  0.46193800  1
  N  N9  1  0.32502700  0.78752700  0.96193800  1
  N  N10  1  0.67497300  0.78752700  0.53806200  1
  N  N11  1  0.82502700  0.71247300  0.03806200  1
  N  N12  1  0.82502700  0.28752700  0.53806200  1
  N  N13  1  0.67497300  0.21247300  0.03806200  1
  N  N14  1  0.32502700  0.21247300  0.46193800  1
  N  N15  1  0.17497300  0.28752700  0.96193800  1
  N  N16  1  0.46359900  0.45533900  0.61921000  1
  N  N17  1  0.03640100  0.04466100  0.11921000  1
  N  N18  1  0.96359900  0.04466100  0.38079000  1
  N  N19  1  0.53640100  0.45533900  0.88079000  1
  N  N20  1  0.53640100  0.54466100  0.38079000  1
  N  N21  1  0.96359900  0.95533900  0.88079000  1
  N  N22  1  0.03640100  0.95533900  0.61921000  1
  N  N23  1  0.46359900  0.54466100  0.11921000  1
loop_
_geom_bond_atom_site_label_1
_geom_bond_atom_site_label_2
_geom_bond_distance
_geom_bond_site_symmetry_2
N0 Ti0 1.926941 1_555
N0 Pb24 2.276486 1_555
N0 Pb16 2.435123 1_555
N0 Pb8 2.526275 1_555
N1 Ti1 1.926941 1_555
N1 Pb25 2.276486 1_565
N1 Pb17 2.435123 1_555
N1 Pb9 2.526269 1_555
N2 Ti1 1.926941 1_555
N2 Pb25 2.276486 1_565
N2 Pb18 2.435123 1_555
N2 Pb10 2.526269 1_555
N3 Ti0 1.926941 1_655
N3 Pb24 2.276486 1_655
N3 Pb19 2.435123 1_555
N3 Pb11 2.526269 1_555
N4 Ti2 1.926941 1_655
N4 Pb26 2.276486 1_655
N4 Pb20 2.435123 1_555
N4 Pb12 2.526269 1_555
N5 Ti3 1.926941 1_555
N5 Pb27 2.276486 1_545
N5 Pb21 2.435123 1_555
N5 Pb13 2.526269 1_555
N6 Ti3 1.926941 1_555
N6 Pb27 2.276486 1_545
N6 Pb22 2.435123 1_555
N6 Pb14 2.526269 1_555
N7 Ti2 1.926941 1_555
N7 Pb26 2.276486 1_555
N7 Pb23 2.435123 1_555
N7 Pb15 2.526275 1_555
N8 Pb8 2.305127 1_555
N8 Pb3 2.353690 1_455
N8 Pb23 2.422286 1_555
N8 Pb17 2.448849 1_555
N9 Pb9 2.305125 1_556
N9 Pb2 2.353690 1_555
N9 Pb22 2.422286 1_565
N9 Pb16 2.448849 1_555
N10 Pb10 2.305125 1_555
N10 Pb1 2.353690 1_555
N10 Pb21 2.422286 1_565
N10 Pb19 2.448849 1_555
N11 Pb11 2.305125 1_554
N11 Pb0 2.353690 1_655
N11 Pb20 2.422286 1_555
N11 Pb18 2.448849 1_555
N12 Pb12 2.305125 1_555
N12 Pb7 2.353690 1_655
N12 Pb19 2.422286 1_555
N12 Pb21 2.448849 1_555
N13 Pb13 2.305125 1_554
N13 Pb6 2.353690 1_555
N13 Pb18 2.422286 1_545
N13 Pb20 2.448849 1_555
N14 Pb14 2.305125 1_555
N14 Pb5 2.353690 1_555
N14 Pb17 2.422286 1_545
N14 Pb23 2.448849 1_555
N15 Pb15 2.305127 1_556
N15 Pb4 2.353690 1_455
N15 Pb16 2.422286 1_555
N15 Pb22 2.448849 1_555
N16 Ti3 1.967342 1_555
N16 Pb5 2.382029 1_555
N16 Pb1 2.395266 1_555
N16 Pb14 2.416763 1_555
N17 Ti2 1.967342 1_555
N17 Pb4 2.382029 1_454
N17 Pb0 2.395266 1_545
N17 Pb15 2.416775 1_555
N18 Ti2 1.967342 1_655
N18 Pb7 2.382029 1_655
N18 Pb3 2.395266 1_545
N18 Pb12 2.416763 1_555
N19 Ti3 1.967342 1_555
N19 Pb6 2.382029 1_556
N19 Pb2 2.395266 1_555
N19 Pb13 2.416763 1_555
N20 Ti1 1.967342 1_555
N20 Pb1 2.382029 1_555
N20 Pb5 2.395266 1_555
N20 Pb10 2.416763 1_555
N21 Ti0 1.967342 1_655
N21 Pb0 2.382029 1_656
N21 Pb4 2.395266 1_565
N21 Pb11 2.416763 1_555
N22 Ti0 1.967342 1_555
N22 Pb3 2.382029 1_455
N22 Pb7 2.395266 1_565
N22 Pb8 2.416775 1_555
N23 Ti1 1.967342 1_555
N23 Pb2 2.382029 1_554
N23 Pb6 2.395266 1_555
N23 Pb9 2.416763 1_555
