# generated using pymatgen
data_KMg6Ti
_symmetry_space_group_name_H-M   'P 1'
_cell_length_a   6.71283700
_cell_length_b   6.71283700
_cell_length_c   4.53106100
_cell_angle_alpha   90.00000000
_cell_angle_beta   90.00000000
_cell_angle_gamma   90.00000000
_symmetry_Int_Tables_number   1
_chemical_formula_structural   KMg6Ti
_chemical_formula_sum   'K1 Mg6 Ti1'
_cell_volume   204.17948904
_cell_formula_units_Z   1
loop_
 _symmetry_equiv_pos_site_id
 _symmetry_equiv_pos_as_xyz
  1  'x, y, z'
loop_
 _atom_site_type_symbol
 _atom_site_label
 _atom_site_symmetry_multiplicity
 _atom_site_fract_x
 _atom_site_fract_y
 _atom_site_fract_z
 _atom_site_occupancy
  K  K0  1  0.00000000  0.00000000  0.50000000  1
  Mg  Mg0  1  0.50000000  0.00000000  0.50000000  1
  Mg  Mg1  1  0.00000000  0.50000000  0.50000000  1
  Mg  Mg2  1  0.27936900  0.72063100  0.00000000  1
  Mg  Mg3  1  0.72063100  0.27936900  0.00000000  1
  Mg  Mg4  1  0.27936900  0.27936900  0.00000000  1
  Mg  Mg5  1  0.72063100  0.72063100  0.00000000  1
  Ti  Ti0  1  0.50000000  0.50000000  0.50000000  1
loop_
_geom_bond_atom_site_label_1
_geom_bond_atom_site_label_2
_geom_bond_distance
_geom_bond_site_symmetry_2
K0 Mg0 3.356419 1_555
K0 Mg1 3.356419 1_555
K0 Mg1 3.356419 1_545
K0 Mg0 3.356419 1_455
K0 Mg2 3.488061 1_546
K0 Mg4 3.488061 1_556
K0 Mg4 3.488061 1_555
K0 Mg5 3.488061 1_445
K0 Mg2 3.488061 1_545
K0 Mg5 3.488061 1_446
K0 Mg3 3.488061 1_456
K0 Mg3 3.488061 1_455
Mg0 Mg3 3.292892 1_555
Mg0 Mg5 3.292892 1_545
Mg0 Mg5 3.292892 1_546
Mg0 Mg3 3.292892 1_556
Mg0 Mg2 3.292892 1_546
Mg0 Mg4 3.292892 1_556
Mg0 Mg4 3.292892 1_555
Mg0 Mg2 3.292892 1_545
Mg0 Ti0 3.356419 1_545
Mg0 Ti0 3.356419 1_555
Mg1 Mg2 3.292892 1_555
Mg1 Mg5 3.292892 1_456
Mg1 Mg2 3.292892 1_556
Mg1 Mg4 3.292892 1_556
Mg1 Mg5 3.292892 1_455
Mg1 Mg3 3.292892 1_456
Mg1 Mg4 3.292892 1_555
Mg1 Mg3 3.292892 1_455
Mg1 Ti0 3.356419 1_455
Mg1 Ti0 3.356419 1_555
Mg2 Mg4 2.962120 1_555
Mg2 Mg5 2.962120 1_555
Mg2 Ti0 3.085402 1_555
Mg2 Ti0 3.085402 1_554
Mg3 Mg4 2.962120 1_555
Mg3 Mg5 2.962120 1_555
Mg3 Ti0 3.085402 1_555
Mg3 Ti0 3.085402 1_554
Mg4 Ti0 3.085402 1_555
Mg4 Ti0 3.085402 1_554
Mg5 Ti0 3.085402 1_555
Mg5 Ti0 3.085402 1_554
