# generated using pymatgen
data_BaLa2(CoO3)3
_symmetry_space_group_name_H-M   'P 1'
_cell_length_a   5.52209204
_cell_length_b   5.52209204
_cell_length_c   6.70102000
_cell_angle_alpha   90.00000000
_cell_angle_beta   90.00000000
_cell_angle_gamma   120.00000048
_symmetry_Int_Tables_number   1
_chemical_formula_structural   BaLa2(CoO3)3
_chemical_formula_sum   'Ba1 La2 Co3 O9'
_cell_volume   176.96151419
_cell_formula_units_Z   1
loop_
 _symmetry_equiv_pos_site_id
 _symmetry_equiv_pos_as_xyz
  1  'x, y, z'
loop_
 _atom_site_type_symbol
 _atom_site_label
 _atom_site_symmetry_multiplicity
 _atom_site_fract_x
 _atom_site_fract_y
 _atom_site_fract_z
 _atom_site_occupancy
  Ba  Ba0  1  0.00000000  0.00000000  0.00000000  1
  La  La0  1  0.66666700  0.33333300  0.33480600  1
  La  La1  1  0.33333300  0.66666700  0.66519400  1
  Co  Co0  1  0.00000000  0.00000000  0.50000000  1
  Co  Co1  1  0.66666700  0.33333300  0.83525800  1
  Co  Co2  1  0.33333300  0.66666700  0.16474200  1
  O  O0  1  0.65650000  0.82825000  0.34561200  1
  O  O1  1  0.34350000  0.17175000  0.65438800  1
  O  O2  1  0.00000000  0.50000000  0.00000000  1
  O  O3  1  0.82825000  0.65650000  0.65438800  1
  O  O4  1  0.50000000  0.00000000  0.00000000  1
  O  O5  1  0.17175000  0.34350000  0.34561200  1
  O  O6  1  0.82825000  0.17175000  0.65438800  1
  O  O7  1  0.50000000  0.50000000  0.00000000  1
  O  O8  1  0.17175000  0.82825000  0.34561200  1
loop_
_geom_bond_atom_site_label_1
_geom_bond_atom_site_label_2
_geom_bond_distance
_geom_bond_site_symmetry_2
Ba0 O7 2.761046 1_555
Ba0 O7 2.761046 1_445
Ba0 O4 2.761046 1_455
Ba0 O2 2.761046 1_545
Ba0 O4 2.761046 1_555
Ba0 O2 2.761046 1_555
Ba0 O0 2.839390 1_445
Ba0 O5 2.839390 1_555
Ba0 O3 2.839390 1_444
Ba0 O1 2.839390 1_554
Ba0 O8 2.839390 1_545
Ba0 O6 2.839390 1_454
La0 O6 2.640947 1_555
La0 O3 2.640950 1_555
La0 O1 2.640950 1_555
La0 O2 2.752199 1_655
La0 O4 2.752199 1_555
La0 O7 2.752202 1_555
La0 O0 2.762421 1_545
La0 O5 2.762421 1_655
La0 O8 2.762423 1_545
La0 O8 2.762423 1_655
La0 O5 2.762426 1_555
La0 O0 2.762426 1_555
La1 O8 2.640947 1_555
La1 O0 2.640950 1_555
La1 O5 2.640950 1_555
La1 O4 2.752199 1_566
La1 O2 2.752199 1_556
La1 O7 2.752202 1_556
La1 O3 2.762421 1_455
La1 O1 2.762421 1_565
La1 O6 2.762423 1_455
La1 O6 2.762423 1_565
La1 O1 2.762426 1_555
La1 O3 2.762426 1_555
Co0 O3 1.941341 1_445
Co0 O1 1.941341 1_555
Co0 O0 1.941341 1_445
Co0 O5 1.941341 1_555
Co0 O6 1.941341 1_455
Co0 O8 1.941341 1_545
Co1 O2 1.939021 1_656
Co1 O4 1.939021 1_556
Co1 O7 1.939025 1_556
Co1 O6 1.964038 1_555
Co1 O1 1.964042 1_555
Co1 O3 1.964042 1_555
Co2 O2 1.939021 1_555
Co2 O4 1.939021 1_565
Co2 O7 1.939025 1_555
Co2 O8 1.964038 1_555
Co2 O0 1.964042 1_555
Co2 O5 1.964042 1_555
