# generated using pymatgen
data_Co2AsO5
_symmetry_space_group_name_H-M   'P 1'
_cell_length_a   5.95827700
_cell_length_b   8.40891300
_cell_length_c   8.41697300
_cell_angle_alpha   90.00000000
_cell_angle_beta   90.00000000
_cell_angle_gamma   90.00000000
_symmetry_Int_Tables_number   1
_chemical_formula_structural   Co2AsO5
_chemical_formula_sum   'Co8 As4 O20'
_cell_volume   421.71250854
_cell_formula_units_Z   4
loop_
 _symmetry_equiv_pos_site_id
 _symmetry_equiv_pos_as_xyz
  1  'x, y, z'
loop_
 _atom_site_type_symbol
 _atom_site_label
 _atom_site_symmetry_multiplicity
 _atom_site_fract_x
 _atom_site_fract_y
 _atom_site_fract_z
 _atom_site_occupancy
  Co  Co0  1  0.74516200  0.50000000  0.50000000  1
  Co  Co1  1  0.75483800  0.00000000  0.00000000  1
  Co  Co2  1  0.25483800  0.50000000  0.50000000  1
  Co  Co3  1  0.24516200  0.00000000  0.00000000  1
  Co  Co4  1  0.00000000  0.87840900  0.34731900  1
  Co  Co5  1  0.00000000  0.12159100  0.65268100  1
  Co  Co6  1  0.50000000  0.37840900  0.15268100  1
  Co  Co7  1  0.50000000  0.62159100  0.84731900  1
  As  As0  1  0.50000000  0.74757700  0.24462600  1
  As  As1  1  0.50000000  0.25242300  0.75537400  1
  As  As2  1  0.00000000  0.24757700  0.25537400  1
  As  As3  1  0.00000000  0.75242300  0.74462600  1
  O  O0  1  0.00000000  0.93035200  0.12461500  1
  O  O1  1  0.00000000  0.06964800  0.87538500  1
  O  O2  1  0.50000000  0.43035200  0.37538500  1
  O  O3  1  0.50000000  0.56964800  0.62461500  1
  O  O4  1  0.50000000  0.92915600  0.14086800  1
  O  O5  1  0.50000000  0.07084400  0.85913200  1
  O  O6  1  0.00000000  0.42915600  0.35913200  1
  O  O7  1  0.00000000  0.57084400  0.64086800  1
  O  O8  1  0.50000000  0.60616500  0.09742200  1
  O  O9  1  0.50000000  0.39383500  0.90257800  1
  O  O10  1  0.00000000  0.10616500  0.40257800  1
  O  O11  1  0.00000000  0.89383500  0.59742200  1
  O  O12  1  0.73519800  0.73337700  0.36257600  1
  O  O13  1  0.73519800  0.26662300  0.63742400  1
  O  O14  1  0.76480200  0.23337700  0.13742400  1
  O  O15  1  0.76480200  0.76662300  0.86257600  1
  O  O16  1  0.26480200  0.26662300  0.63742400  1
  O  O17  1  0.26480200  0.73337700  0.36257600  1
  O  O18  1  0.23519800  0.76662300  0.86257600  1
  O  O19  1  0.23519800  0.23337700  0.13742400  1
loop_
_geom_bond_atom_site_label_1
_geom_bond_atom_site_label_2
_geom_bond_distance
_geom_bond_site_symmetry_2
Co0 O2 1.891276 1_555
Co0 O3 1.891276 1_555
Co0 O7 2.016495 1_655
Co0 O6 2.016495 1_655
Co0 O12 2.278742 1_555
Co0 O13 2.278742 1_555
Co1 O0 1.891276 1_645
Co1 O1 1.891276 1_654
Co1 O4 2.016495 1_545
Co1 O5 2.016495 1_554
Co1 O15 2.278742 1_544
Co1 O14 2.278742 1_555
Co2 O2 1.891276 1_555
Co2 O3 1.891276 1_555
Co2 O6 2.016495 1_555
Co2 O7 2.016495 1_555
Co2 O17 2.278742 1_555
Co2 O16 2.278742 1_555
Co3 O1 1.891276 1_554
Co3 O0 1.891276 1_545
Co3 O4 2.016495 1_545
Co3 O5 2.016495 1_554
Co3 O18 2.278742 1_544
Co3 O19 2.278742 1_555
Co4 O0 1.924709 1_555
Co4 O10 1.970849 1_565
Co4 O17 1.998289 1_555
Co4 O12 1.998289 1_455
Co4 O11 2.109103 1_555
Co5 O1 1.924709 1_555
Co5 O11 1.970849 1_545
Co5 O16 1.998289 1_555
Co5 O13 1.998289 1_455
Co5 O10 2.109103 1_555
Co6 O2 1.924709 1_555
Co6 O8 1.970849 1_555
Co6 O14 1.998289 1_555
Co6 O19 1.998289 1_555
Co6 O9 2.109103 1_554
Co7 O3 1.924709 1_555
Co7 O9 1.970849 1_555
Co7 O15 1.998289 1_555
Co7 O18 1.998289 1_555
Co7 O8 2.109103 1_556
As0 O8 1.717312 1_555
As0 O12 1.721547 1_555
As0 O17 1.721547 1_555
As0 O4 1.758997 1_555
As1 O9 1.717312 1_555
As1 O16 1.721547 1_555
As1 O13 1.721547 1_555
As1 O5 1.758997 1_555
As2 O10 1.717312 1_555
As2 O19 1.721547 1_555
As2 O14 1.721547 1_455
As2 O6 1.758997 1_555
As3 O11 1.717312 1_555
As3 O18 1.721547 1_555
As3 O15 1.721547 1_455
As3 O7 1.758997 1_555
