# generated using pymatgen
data_K3Na5V3(MoO4)5
_symmetry_space_group_name_H-M   'P 1'
_cell_length_a   11.38270709
_cell_length_b   11.72066849
_cell_length_c   17.00846803
_cell_angle_alpha   110.39521133
_cell_angle_beta   109.23206305
_cell_angle_gamma   89.86708833
_symmetry_Int_Tables_number   1
_chemical_formula_structural   K3Na5V3(MoO4)5
_chemical_formula_sum   'K12 Na20 V12 Mo20 O80'
_cell_volume   1991.91822020
_cell_formula_units_Z   4
loop_
 _symmetry_equiv_pos_site_id
 _symmetry_equiv_pos_as_xyz
  1  'x, y, z'
loop_
 _atom_site_type_symbol
 _atom_site_label
 _atom_site_symmetry_multiplicity
 _atom_site_fract_x
 _atom_site_fract_y
 _atom_site_fract_z
 _atom_site_occupancy
  K  K0  1  0.30442100  0.07076900  0.11382100  1
  K  K1  1  0.30625800  0.56745300  0.11491600  1
  K  K2  1  0.80311000  0.06642500  0.11257100  1
  K  K3  1  0.80282300  0.56880000  0.11248300  1
  K  K4  1  0.19846700  0.93226600  0.39264300  1
  K  K5  1  0.18719200  0.92265700  0.87622600  1
  K  K6  1  0.68659100  0.42462400  0.87631800  1
  K  K7  1  0.05905200  0.29703300  0.11317400  1
  K  K8  1  0.05550600  0.79417400  0.11117700  1
  K  K9  1  0.55190800  0.29645600  0.11205000  1
  K  K10  1  0.55692400  0.79297800  0.11407500  1
  K  K11  1  0.93573300  0.70083800  0.87616400  1
  Na  Na0  1  0.30686200  0.07213400  0.61062200  1
  Na  Na1  1  0.30839000  0.57112500  0.61017200  1
  Na  Na2  1  0.80582600  0.06932200  0.60792900  1
  Na  Na3  1  0.80612200  0.57029500  0.60702500  1
  Na  Na4  1  0.20313600  0.43471900  0.40070000  1
  Na  Na5  1  0.19813900  0.42903800  0.88828400  1
  Na  Na6  1  0.69547700  0.43728300  0.40183500  1
  Na  Na7  1  0.70258500  0.93192500  0.40040400  1
  Na  Na8  1  0.69753900  0.92884500  0.88774600  1
  Na  Na9  1  0.05704100  0.28814500  0.60871700  1
  Na  Na10  1  0.05630800  0.78790900  0.60706300  1
  Na  Na11  1  0.55755200  0.28747900  0.60721500  1
  Na  Na12  1  0.55719000  0.78765600  0.60799000  1
  Na  Na13  1  0.44525100  0.21615400  0.40002200  1
  Na  Na14  1  0.44650900  0.20910200  0.88832100  1
  Na  Na15  1  0.44709400  0.71418500  0.39779500  1
  Na  Na16  1  0.44810300  0.70949200  0.88935000  1
  Na  Na17  1  0.94738900  0.21507700  0.40233500  1
  Na  Na18  1  0.94769900  0.20927700  0.88827100  1
  Na  Na19  1  0.95091500  0.71883700  0.40366800  1
  V  V0  1  0.10026600  0.08663900  0.74413800  1
  V  V1  1  0.10554100  0.57819200  0.74320500  1
  V  V2  1  0.60148200  0.08072600  0.74497600  1
  V  V3  1  0.60488000  0.59266800  0.25833100  1
  V  V4  1  0.59929800  0.58627900  0.74421000  1
  V  V5  1  0.36260200  0.41600400  0.25867400  1
  V  V6  1  0.35225700  0.41213200  0.74819000  1
  V  V7  1  0.36184500  0.91395400  0.25510700  1
  V  V8  1  0.35401300  0.91291600  0.74452000  1
  V  V9  1  0.85295400  0.40703700  0.74041100  1
  V  V10  1  0.85658400  0.91344600  0.25895800  1
  V  V11  1  0.84898800  0.91539700  0.74487800  1
  Mo  Mo0  1  0.99958800  0.99775600  0.99353100  1
  Mo  Mo1  1  0.00762000  0.00137500  0.50299800  1
  Mo  Mo2  1  0.99939100  0.49571200  0.99189200  1
  Mo  Mo3  1  0.01174400  0.50065500  0.50356300  1
  Mo  Mo4  1  0.49903100  0.99604100  0.99157100  1
  Mo  Mo5  1  0.50885500  0.00126900  0.50256100  1
  Mo  Mo6  1  0.49887800  0.49561600  0.99392600  1
  Mo  Mo7  1  0.50832300  0.50086400  0.50267200  1
  Mo  Mo8  1  0.24918900  0.24707900  0.99249200  1
  Mo  Mo9  1  0.26117000  0.25497300  0.50637400  1
  Mo  Mo10  1  0.25094500  0.74635500  0.99427300  1
  Mo  Mo11  1  0.26184800  0.75127300  0.50418000  1
  Mo  Mo12  1  0.75044000  0.24470700  0.99214800  1
  Mo  Mo13  1  0.75925500  0.25168500  0.50161600  1
  Mo  Mo14  1  0.74913200  0.74837900  0.99451800  1
  Mo  Mo15  1  0.75714600  0.75054600  0.50144100  1
  Mo  Mo16  1  0.10398700  0.09642100  0.25810300  1
  Mo  Mo17  1  0.10291000  0.58581000  0.25611000  1
  Mo  Mo18  1  0.60851100  0.09281800  0.25853900  1
  Mo  Mo19  1  0.84997600  0.41243200  0.25983000  1
  O  O0  1  0.12499100  0.12500500  0.49105400  1
  O  O1  1  0.11767100  0.11911600  0.98137600  1
  O  O2  1  0.12667000  0.61726100  0.48612600  1
  O  O3  1  0.12067000  0.61303800  0.98082200  1
  O  O4  1  0.62386100  0.11674300  0.48198000  1
  O  O5  1  0.61714600  0.11203300  0.97573800  1
  O  O6  1  0.62549200  0.61923000  0.48643400  1
  O  O7  1  0.61739800  0.61878800  0.98422500  1
  O  O8  1  0.12765700  0.37484100  0.99873200  1
  O  O9  1  0.14643200  0.38835400  0.52422200  1
  O  O10  1  0.12985400  0.87675500  0.00473200  1
  O  O11  1  0.14105900  0.88322100  0.52048600  1
  O  O12  1  0.62868900  0.37448400  0.00454800  1
  O  O13  1  0.64211800  0.38445700  0.51805700  1
  O  O14  1  0.62687800  0.87495700  0.99960300  1
  O  O15  1  0.64117100  0.88414400  0.51720100  1
  O  O16  1  0.37993000  0.12291600  0.49221500  1
  O  O17  1  0.37016800  0.11747100  0.98099400  1
  O  O18  1  0.37766700  0.61790100  0.48941500  1
  O  O19  1  0.36814300  0.61374800  0.97929600  1
  O  O20  1  0.87414200  0.11638100  0.48458700  1
  O  O21  1  0.86782500  0.11375800  0.97784000  1
  O  O22  1  0.87499000  0.61650400  0.48418500  1
  O  O23  1  0.86949800  0.61772400  0.98589800  1
  O  O24  1  0.37731600  0.37657900  0.00075000  1
  O  O25  1  0.39495000  0.38712800  0.52294100  1
  O  O26  1  0.38128300  0.87549500  0.00374300  1
  O  O27  1  0.39626300  0.88715900  0.52471400  1
  O  O28  1  0.88113000  0.37482400  0.00303400  1
  O  O29  1  0.89494600  0.38586000  0.52166400  1
  O  O30  1  0.87745300  0.87994300  0.00430200  1
  O  O31  1  0.89020400  0.88435500  0.51782300  1
  O  O32  1  0.07156000  0.09204600  0.13854000  1
  O  O33  1  0.07704000  0.10997500  0.64271200  1
  O  O34  1  0.07540700  0.58739400  0.13969600  1
  O  O35  1  0.08758000  0.60874600  0.64445100  1
  O  O36  1  0.57660300  0.08911600  0.13919300  1
  O  O37  1  0.58570000  0.10531500  0.64429000  1
  O  O38  1  0.57181000  0.58244800  0.14531900  1
  O  O39  1  0.57867600  0.61046700  0.64317600  1
  O  O40  1  0.44859900  0.39168800  0.35945800  1
  O  O41  1  0.43239600  0.39586500  0.85241800  1
  O  O42  1  0.43970700  0.89288600  0.35851900  1
  O  O43  1  0.42831400  0.89682600  0.84917600  1
  O  O44  1  0.95756000  0.38406100  0.36234300  1
  O  O45  1  0.92832800  0.40027000  0.84870300  1
  O  O46  1  0.94274300  0.88974000  0.35948600  1
  O  O47  1  0.93073100  0.90594500  0.85025400  1
  O  O48  1  0.32533600  0.31305500  0.14402000  1
  O  O49  1  0.33514200  0.28871800  0.64654400  1
  O  O50  1  0.33152100  0.80642200  0.14315800  1
  O  O51  1  0.33603700  0.78715500  0.64451800  1
  O  O52  1  0.82616800  0.30156900  0.14049200  1
  O  O53  1  0.83058700  0.27925900  0.64055900  1
  O  O54  1  0.82288500  0.81115400  0.14524200  1
  O  O55  1  0.83170900  0.78979800  0.64324500  1
  O  O56  1  0.20596200  0.22556700  0.36481000  1
  O  O57  1  0.18391000  0.20209900  0.85032100  1
  O  O58  1  0.21372600  0.70934600  0.36403900  1
  O  O59  1  0.18244100  0.69144400  0.85089500  1
  O  O60  1  0.70758800  0.22906600  0.36164000  1
  O  O61  1  0.68624500  0.19463600  0.85009300  1
  O  O62  1  0.69133700  0.71654100  0.35843500  1
  O  O63  1  0.68031800  0.70192400  0.85161100  1
  O  O64  1  0.44531800  0.06101600  0.26800600  1
  O  O65  1  0.43820100  0.05223500  0.74600100  1
  O  O66  1  0.44962400  0.55933600  0.26785600  1
  O  O67  1  0.43845900  0.54934900  0.74755300  1
  O  O68  1  0.94384400  0.05823100  0.26937600  1
  O  O69  1  0.93741400  0.05193400  0.74529400  1
  O  O70  1  0.94152700  0.56625800  0.27048300  1
  O  O71  1  0.93988100  0.53552800  0.73219600  1
  O  O72  1  0.20702200  0.45117100  0.26928200  1
  O  O73  1  0.18743100  0.43932500  0.74504500  1
  O  O74  1  0.20379900  0.95656300  0.25401500  1
  O  O75  1  0.18844500  0.94935100  0.73434500  1
  O  O76  1  0.68724700  0.45641300  0.26915900  1
  O  O77  1  0.69047800  0.45067300  0.73394100  1
  O  O78  1  0.70029100  0.95110400  0.26843700  1
  O  O79  1  0.68392300  0.94117600  0.74390300  1
loop_
_geom_bond_atom_site_label_1
_geom_bond_atom_site_label_2
_geom_bond_distance
_geom_bond_site_symmetry_2
K0 O64 2.626741 1_555
K0 O10 2.685763 1_545
K0 O48 2.700121 1_555
K0 O26 2.755412 1_545
K0 O1 2.764749 1_554
K0 O32 2.814708 1_555
K0 O17 2.818023 1_554
K0 O36 2.981398 1_555
K1 O66 2.610356 1_555
K1 O50 2.670832 1_555
K1 O8 2.720253 1_554
K1 O24 2.725469 1_555
K1 O3 2.760408 1_554
K1 O34 2.791992 1_555
K1 O19 2.838316 1_554
K1 O38 2.888667 1_555
K1 O48 3.183983 1_555
K2 O52 2.626633 1_555
K2 O68 2.655482 1_555
K2 O30 2.664044 1_545
K2 O14 2.688553 1_544
K2 O36 2.757749 1_555
K2 O5 2.792721 1_554
K2 O21 2.846354 1_554
K2 O32 2.940264 1_655
K2 O54 3.222494 1_545
K3 O70 2.641176 1_555
K3 O12 2.682468 1_555
K3 O54 2.692098 1_555
K3 O7 2.721894 1_554
K3 O23 2.734826 1_554
K3 O28 2.750035 1_555
K3 O38 2.855752 1_555
K3 O34 2.979175 1_655
K4 O74 2.491304 1_555
K4 O58 2.502205 1_555
K4 O0 2.623434 1_565
K4 O16 2.684595 1_565
K4 O11 2.700838 1_555
K4 O46 2.787254 1_455
K4 O27 2.808009 1_555
K4 O42 2.991249 1_555
K5 O75 2.543709 1_555
K5 O59 2.589216 1_555
K5 O1 2.679640 1_565
K5 O10 2.693260 1_556
K5 O17 2.732775 1_565
K5 O26 2.750223 1_556
K5 O47 2.801456 1_455
K5 O43 2.926982 1_555
K6 O77 2.558389 1_555
K6 O61 2.574133 1_555
K6 O7 2.683388 1_555
K6 O12 2.716360 1_556
K6 O23 2.730593 1_555
K6 O28 2.759704 1_556
K6 O41 2.790152 1_555
K6 O45 2.937319 1_555
K7 O32 2.580550 1_555
K7 O72 2.622055 1_555
K7 O28 2.669214 1_455
K7 O8 2.733535 1_554
K7 O1 2.745842 1_554
K7 O21 2.815196 1_454
K7 O52 2.835361 1_455
K7 O48 2.895519 1_555
K8 O74 2.542543 1_555
K8 O34 2.627714 1_555
K8 O10 2.676820 1_555
K8 O30 2.694369 1_455
K8 O23 2.697593 1_454
K8 O3 2.787204 1_554
K8 O54 2.883456 1_455
K8 O50 3.001532 1_555
K9 O76 2.615021 1_555
K9 O36 2.625097 1_555
K9 O12 2.676824 1_555
K9 O24 2.677118 1_555
K9 O17 2.715166 1_554
K9 O48 2.798675 1_555
K9 O5 2.869293 1_554
K9 O52 2.994852 1_555
K9 O38 3.194463 1_555
K10 O78 2.605960 1_555
K10 O26 2.690426 1_555
K10 O38 2.693068 1_555
K10 O7 2.715150 1_554
K10 O50 2.762645 1_555
K10 O14 2.770711 1_554
K10 O19 2.775754 1_554
K10 O54 2.891077 1_555
K11 O71 2.553676 1_555
K11 O47 2.588022 1_555
K11 O23 2.683006 1_555
K11 O30 2.711822 1_556
K11 O3 2.730773 1_655
K11 O10 2.758796 1_656
K11 O63 2.798342 1_555
K11 O59 2.973811 1_655
Na0 O65 2.386675 1_555
Na0 O49 2.390431 1_555
Na0 O11 2.561667 1_545
Na0 O27 2.575325 1_545
Na0 O0 2.627611 1_555
Na0 O16 2.653889 1_555
Na0 O33 2.846853 1_555
Na1 O51 2.388105 1_555
Na1 O67 2.419062 1_555
Na1 O9 2.486934 1_555
Na1 O25 2.558501 1_555
Na1 O2 2.633876 1_555
Na1 O18 2.644749 1_555
Na1 O35 2.762731 1_555
Na1 O39 2.946445 1_555
Na2 O53 2.321718 1_555
Na2 O69 2.401806 1_555
Na2 O15 2.526620 1_545
Na2 O31 2.572056 1_545
Na2 O4 2.662608 1_555
Na2 O20 2.681998 1_555
Na2 O37 2.769970 1_555
Na2 O33 2.952063 1_655
Na3 O71 2.341588 1_555
Na3 O55 2.421538 1_555
Na3 O13 2.525807 1_555
Na3 O29 2.563690 1_555
Na3 O6 2.607582 1_555
Na3 O22 2.672591 1_555
Na3 O39 2.853717 1_555
Na4 O56 2.313573 1_555
Na4 O72 2.323990 1_555
Na4 O2 2.470632 1_555
Na4 O18 2.572969 1_555
Na4 O9 2.610842 1_555
Na4 O44 2.669884 1_455
Na4 O25 2.685721 1_555
Na5 O73 2.444151 1_555
Na5 O57 2.500830 1_555
Na5 O8 2.530428 1_555
Na5 O24 2.537822 1_556
Na5 O3 2.538794 1_555
Na5 O19 2.556954 1_555
Na5 O45 2.912655 1_455
Na5 O41 2.921454 1_555
Na6 O60 2.310802 1_555
Na6 O76 2.316172 1_555
Na6 O6 2.421014 1_555
Na6 O13 2.511093 1_555
Na6 O22 2.575526 1_555
Na6 O40 2.665732 1_555
Na6 O29 2.733782 1_555
Na7 O78 2.324280 1_555
Na7 O62 2.363063 1_555
Na7 O4 2.477038 1_565
Na7 O15 2.537859 1_555
Na7 O20 2.560769 1_565
Na7 O31 2.611698 1_555
Na7 O42 2.836431 1_555
Na8 O79 2.455006 1_555
Na8 O63 2.504738 1_555
Na8 O5 2.518067 1_565
Na8 O14 2.552134 1_555
Na8 O21 2.559374 1_565
Na8 O30 2.562115 1_556
Na8 O43 2.910626 1_555
Na8 O47 2.918352 1_555
Na9 O33 2.345138 1_555
Na9 O73 2.366522 1_555
Na9 O29 2.506124 1_455
Na9 O0 2.570062 1_555
Na9 O9 2.574009 1_555
Na9 O20 2.646875 1_455
Na9 O53 2.812247 1_455
Na10 O75 2.354216 1_555
Na10 O35 2.391412 1_555
Na10 O11 2.536607 1_555
Na10 O31 2.540044 1_455
Na10 O22 2.629588 1_455
Na10 O2 2.661453 1_555
Na10 O55 2.818128 1_455
Na11 O77 2.363297 1_555
Na11 O37 2.420951 1_555
Na11 O25 2.500676 1_555
Na11 O16 2.533207 1_555
Na11 O13 2.585774 1_555
Na11 O4 2.681900 1_555
Na11 O49 2.822324 1_555
Na11 O53 2.977474 1_555
Na12 O39 2.344875 1_555
Na12 O79 2.361889 1_555
Na12 O27 2.480705 1_555
Na12 O18 2.590148 1_555
Na12 O15 2.602285 1_555
Na12 O6 2.642541 1_555
Na12 O51 2.784936 1_555
Na12 O55 2.979909 1_555
Na13 O64 2.345954 1_555
Na13 O40 2.391083 1_555
Na13 O16 2.484371 1_555
Na13 O25 2.564693 1_555
Na13 O4 2.586148 1_555
Na13 O56 2.599943 1_555
Na13 O13 2.690678 1_555
Na14 O65 2.448852 1_555
Na14 O41 2.460851 1_555
Na14 O17 2.545499 1_555
Na14 O24 2.549301 1_556
Na14 O5 2.558100 1_555
Na14 O12 2.571523 1_556
Na14 O57 2.837349 1_555
Na15 O66 2.329202 1_555
Na15 O42 2.403669 1_555
Na15 O58 2.522374 1_555
Na15 O18 2.523400 1_555
Na15 O6 2.603306 1_555
Na15 O27 2.621454 1_555
Na15 O15 2.686632 1_555
Na16 O67 2.454193 1_555
Na16 O43 2.506122 1_555
Na16 O14 2.527492 1_555
Na16 O26 2.545429 1_556
Na16 O19 2.558655 1_555
Na16 O7 2.566172 1_555
Na16 O59 2.867121 1_555
Na16 O63 2.912651 1_555
Na17 O44 2.321812 1_555
Na17 O68 2.353262 1_555
Na17 O20 2.427193 1_555
Na17 O29 2.538387 1_555
Na17 O0 2.563027 1_655
Na17 O60 2.605564 1_555
Na17 O9 2.747381 1_655
Na18 O69 2.452770 1_555
Na18 O8 2.536416 1_655
Na18 O45 2.542184 1_555
Na18 O28 2.544973 1_556
Na18 O1 2.550709 1_655
Na18 O21 2.550840 1_555
Na18 O61 2.821275 1_555
Na18 O57 2.959283 1_655
Na19 O70 2.314925 1_555
Na19 O46 2.363893 1_555
Na19 O22 2.447507 1_555
Na19 O31 2.502658 1_555
Na19 O2 2.586682 1_655
Na19 O11 2.619633 1_655
Na19 O62 2.794863 1_555
Mo0 O21 2.036910 1_565
Mo0 O30 2.055733 1_556
Mo0 O10 2.058815 1_656
Mo0 O1 2.066284 1_665
Mo0 O47 2.151451 1_555
Mo0 O32 2.179180 1_666
Mo1 O20 2.048092 1_455
Mo1 O31 2.050016 1_445
Mo1 O11 2.071961 1_545
Mo1 O0 2.078171 1_555
Mo1 O33 2.133286 1_555
Mo1 O46 2.192347 1_445
Mo2 O8 2.036065 1_655
Mo2 O3 2.047607 1_655
Mo2 O28 2.054169 1_556
Mo2 O23 2.057678 1_555
Mo2 O45 2.155110 1_555
Mo2 O34 2.216226 1_656
Mo3 O9 2.040711 1_555
Mo3 O2 2.052689 1_555
Mo3 O29 2.058945 1_455
Mo3 O22 2.083158 1_455
Mo3 O35 2.149135 1_555
Mo3 O44 2.181137 1_455
Mo4 O14 2.035944 1_555
Mo4 O17 2.050473 1_565
Mo4 O5 2.056827 1_565
Mo4 O26 2.056921 1_556
Mo4 O43 2.150103 1_555
Mo4 O36 2.215579 1_566
Mo5 O15 2.048538 1_545
Mo5 O16 2.052429 1_555
Mo5 O27 2.061685 1_545
Mo5 O4 2.075650 1_555
Mo5 O37 2.151777 1_555
Mo5 O42 2.191008 1_545
Mo6 O24 2.025413 1_556
Mo6 O19 2.044535 1_555
Mo6 O12 2.055433 1_556
Mo6 O7 2.062302 1_555
Mo6 O41 2.139006 1_555
Mo6 O38 2.263737 1_556
Mo7 O18 2.032133 1_555
Mo7 O25 2.045154 1_555
Mo7 O13 2.055726 1_555
Mo7 O6 2.073166 1_555
Mo7 O39 2.146346 1_555
Mo7 O40 2.184853 1_555
Mo8 O8 2.035602 1_555
Mo8 O1 2.037792 1_555
Mo8 O24 2.043840 1_556
Mo8 O17 2.050086 1_555
Mo8 O57 2.146370 1_555
Mo8 O48 2.265812 1_556
Mo9 O9 2.040285 1_555
Mo9 O25 2.054639 1_555
Mo9 O16 2.055729 1_555
Mo9 O0 2.063820 1_555
Mo9 O49 2.138013 1_555
Mo9 O56 2.176447 1_555
Mo10 O19 2.049024 1_555
Mo10 O26 2.049655 1_556
Mo10 O10 2.056615 1_556
Mo10 O3 2.056934 1_555
Mo10 O59 2.150556 1_555
Mo10 O50 2.231535 1_556
Mo11 O18 2.044413 1_555
Mo11 O27 2.066662 1_555
Mo11 O2 2.071899 1_555
Mo11 O11 2.073982 1_555
Mo11 O58 2.132537 1_555
Mo11 O51 2.135770 1_555
Mo12 O21 2.035818 1_555
Mo12 O28 2.050687 1_556
Mo12 O5 2.056090 1_555
Mo12 O12 2.058621 1_556
Mo12 O61 2.136978 1_555
Mo12 O52 2.225107 1_556
Mo13 O13 2.051918 1_555
Mo13 O20 2.056387 1_555
Mo13 O29 2.065318 1_555
Mo13 O4 2.071771 1_555
Mo13 O53 2.133837 1_555
Mo13 O60 2.173167 1_555
Mo14 O14 2.031075 1_555
Mo14 O23 2.051788 1_555
Mo14 O30 2.051938 1_556
Mo14 O7 2.058748 1_555
Mo14 O63 2.154823 1_555
Mo14 O54 2.255767 1_556
Mo15 O6 2.040747 1_555
Mo15 O15 2.048764 1_555
Mo15 O31 2.063885 1_555
Mo15 O22 2.069272 1_555
Mo15 O55 2.151506 1_555
Mo15 O62 2.182089 1_555
Mo16 O56 1.907363 1_555
Mo16 O32 1.925420 1_555
Mo16 O68 1.963109 1_455
Mo16 O74 1.986621 1_545
Mo17 O34 1.906851 1_555
Mo17 O58 1.920379 1_555
Mo17 O70 1.955403 1_455
Mo17 O72 2.001923 1_555
Mo18 O60 1.910702 1_555
Mo18 O36 1.925422 1_555
Mo18 O64 1.964065 1_555
Mo18 O78 1.987359 1_545
Mo19 O44 1.909421 1_555
Mo19 O52 1.919051 1_555
Mo19 O76 1.963184 1_555
Mo19 O70 2.006499 1_555
O33 V0 1.774472 1_555
O35 V1 1.784365 1_555
O37 V2 1.785811 1_555
O38 V3 1.792710 1_555
O39 V4 1.778199 1_555
O40 V5 1.792101 1_555
O41 V6 1.783414 1_555
O42 V7 1.793005 1_555
O43 V8 1.777874 1_555
O45 V9 1.787556 1_555
O46 V10 1.785408 1_555
O47 V11 1.769065 1_555
O48 V5 1.804473 1_555
O49 V6 1.776407 1_555
O50 V7 1.797095 1_555
O51 V8 1.769817 1_555
O53 V9 1.770935 1_555
O54 V10 1.795156 1_555
O55 V11 1.788194 1_555
O57 V0 1.780235 1_555
O59 V1 1.771341 1_555
O61 V2 1.765152 1_555
O62 V3 1.776277 1_555
O63 V4 1.787416 1_555
O64 V7 1.878466 1_545
O65 V8 1.883624 1_545
O65 V2 1.895895 1_555
O66 V3 1.880935 1_555
O66 V5 1.884341 1_555
O67 V6 1.891008 1_555
O67 V4 1.905718 1_555
O68 V10 1.892083 1_545
O69 V11 1.889183 1_545
O69 V0 1.906599 1_655
O71 V9 1.873835 1_555
O71 V1 1.883435 1_655
O72 V5 1.869194 1_555
O73 V1 1.878355 1_555
O73 V6 1.888766 1_555
O74 V7 1.861829 1_555
O75 V0 1.881556 1_565
O75 V8 1.896573 1_555
O76 V3 1.883518 1_555
O77 V4 1.884713 1_555
O77 V9 1.895993 1_555
O78 V10 1.876565 1_555
O79 V2 1.881366 1_565
O79 V11 1.897924 1_555
