# generated using pymatgen
data_NaMg2In
_symmetry_space_group_name_H-M   'P 1'
_cell_length_a   12.25398089
_cell_length_b   12.42231478
_cell_length_c   12.42231512
_cell_angle_alpha   59.20260483
_cell_angle_beta   60.44725773
_cell_angle_gamma   60.44725923
_symmetry_Int_Tables_number   1
_chemical_formula_structural   NaMg2In
_chemical_formula_sum   'Na1 Mg2 In1'
_cell_volume   1337.67457158
_cell_formula_units_Z   1
loop_
 _symmetry_equiv_pos_site_id
 _symmetry_equiv_pos_as_xyz
  1  'x, y, z'
loop_
 _atom_site_type_symbol
 _atom_site_label
 _atom_site_symmetry_multiplicity
 _atom_site_fract_x
 _atom_site_fract_y
 _atom_site_fract_z
 _atom_site_occupancy
  Na  Na0  1  0.00000000  0.00000000  -0.00000000  1
  Mg  Mg0  1  0.74102796  0.00000000  1.00000000  1
  Mg  Mg1  1  0.25897204  1.00000000  0.00000000  1
  In  In0  1  0.50000000  0.00000000  -0.00000000  1
loop_
_geom_bond_atom_site_label_1
_geom_bond_atom_site_label_2
_geom_bond_distance
_geom_bond_site_symmetry_2
Mg0 Na0 3.173438 1_656
Mg1 Na0 3.173438 1_565
In0 Mg1 2.953552 1_545
In0 Mg0 2.953552 1_554
