# generated using pymatgen
data_Na3Pu
_symmetry_space_group_name_H-M   'P 1'
_cell_length_a   7.85846943
_cell_length_b   7.85846943
_cell_length_c   5.56458300
_cell_angle_alpha   90.00000000
_cell_angle_beta   90.00000000
_cell_angle_gamma   119.99999523
_symmetry_Int_Tables_number   1
_chemical_formula_structural   Na3Pu
_chemical_formula_sum   'Na6 Pu2'
_cell_volume   297.60430806
_cell_formula_units_Z   2
loop_
 _symmetry_equiv_pos_site_id
 _symmetry_equiv_pos_as_xyz
  1  'x, y, z'
loop_
 _atom_site_type_symbol
 _atom_site_label
 _atom_site_symmetry_multiplicity
 _atom_site_fract_x
 _atom_site_fract_y
 _atom_site_fract_z
 _atom_site_occupancy
  Na  Na0  1  0.16061100  0.32122100  0.25000000  1
  Na  Na1  1  0.67877900  0.83938900  0.25000000  1
  Na  Na2  1  0.16061100  0.83938900  0.25000000  1
  Na  Na3  1  0.83938900  0.67877900  0.75000000  1
  Na  Na4  1  0.32122100  0.16061100  0.75000000  1
  Na  Na5  1  0.83938900  0.16061100  0.75000000  1
  Pu  Pu0  1  0.33333300  0.66666700  0.75000000  1
  Pu  Pu1  1  0.66666700  0.33333300  0.25000000  1
loop_
_geom_bond_atom_site_label_1
_geom_bond_atom_site_label_2
_geom_bond_distance
_geom_bond_site_symmetry_2
Na0 Na4 3.538390 1_555
Na0 Na4 3.538390 1_554
Na0 Na5 3.538399 1_454
Na0 Na5 3.538399 1_455
Na0 Pu0 3.642561 1_555
Na0 Pu0 3.642561 1_554
Na0 Na2 3.786462 1_545
Na0 Na1 3.786462 1_445
Na0 Pu1 3.930099 1_455
Na0 Pu1 3.930099 1_555
Na1 Na3 3.538390 1_555
Na1 Na3 3.538390 1_554
Na1 Na5 3.538399 1_564
Na1 Na5 3.538399 1_565
Na1 Pu0 3.642561 1_555
Na1 Pu0 3.642561 1_554
Na1 Na2 3.786462 1_655
Na1 Pu1 3.930099 1_565
Na1 Pu1 3.930099 1_555
Na2 Na3 3.538399 1_455
Na2 Na3 3.538399 1_454
Na2 Na4 3.538399 1_564
Na2 Na4 3.538399 1_565
Na2 Pu0 3.642552 1_555
Na2 Pu0 3.642552 1_554
Na2 Pu1 3.930100 1_565
Na2 Pu1 3.930100 1_455
Na3 Pu1 3.642561 1_556
Na3 Pu1 3.642561 1_555
Na3 Na5 3.786462 1_565
Na3 Na4 3.786462 1_665
Na3 Pu0 3.930099 1_655
Na3 Pu0 3.930099 1_555
Na4 Pu1 3.642561 1_556
Na4 Pu1 3.642561 1_555
Na4 Na5 3.786462 1_455
Na4 Pu0 3.930099 1_545
Na4 Pu0 3.930099 1_555
Na5 Pu1 3.642552 1_556
Na5 Pu1 3.642552 1_555
Na5 Pu0 3.930100 1_545
Na5 Pu0 3.930100 1_655
