# generated using pymatgen
data_PuP2CO7
_symmetry_space_group_name_H-M   'P 1'
_cell_length_a   5.94257400
_cell_length_b   6.67266182
_cell_length_c   8.99388578
_cell_angle_alpha   102.73806406
_cell_angle_beta   90.00000000
_cell_angle_gamma   90.00000000
_symmetry_Int_Tables_number   1
_chemical_formula_structural   PuP2CO7
_chemical_formula_sum   'Pu2 P4 C2 O14'
_cell_volume   347.85529005
_cell_formula_units_Z   2
loop_
 _symmetry_equiv_pos_site_id
 _symmetry_equiv_pos_as_xyz
  1  'x, y, z'
loop_
 _atom_site_type_symbol
 _atom_site_label
 _atom_site_symmetry_multiplicity
 _atom_site_fract_x
 _atom_site_fract_y
 _atom_site_fract_z
 _atom_site_occupancy
  Pu  Pu0  1  0.25551500  0.62648000  0.28868200  1
  Pu  Pu1  1  0.75551500  0.37352000  0.71131800  1
  P  P0  1  0.75745700  0.98392500  0.32707900  1
  P  P1  1  0.25745700  0.01607500  0.67292100  1
  P  P2  1  0.75537600  0.31848100  0.09960300  1
  P  P3  1  0.25537600  0.68151900  0.90039700  1
  C  C0  1  0.76297300  0.08915100  0.16408600  1
  C  C1  1  0.26297300  0.91084900  0.83591400  1
  O  O0  1  0.54204700  0.85658800  0.31613700  1
  O  O1  1  0.04204700  0.14341200  0.68386300  1
  O  O2  1  0.46636000  0.15120100  0.67793100  1
  O  O3  1  0.96636000  0.84879900  0.32206900  1
  O  O4  1  0.75226300  0.25808400  0.92351500  1
  O  O5  1  0.25226300  0.74191600  0.07648500  1
  O  O6  1  0.25202600  0.43897700  0.40824400  1
  O  O7  1  0.75202600  0.56102300  0.59175600  1
  O  O8  1  0.97357100  0.42996900  0.15966700  1
  O  O9  1  0.47357100  0.57003100  0.84033300  1
  O  O10  1  0.03778200  0.57242200  0.83730200  1
  O  O11  1  0.53778200  0.42757800  0.16269800  1
  O  O12  1  0.76063100  0.17544100  0.45550000  1
  O  O13  1  0.26063100  0.82455900  0.54450000  1
loop_
_geom_bond_atom_site_label_1
_geom_bond_atom_site_label_2
_geom_bond_distance
_geom_bond_site_symmetry_2
C0 P2 1.752537 1_555
C0 P0 1.759818 1_545
C1 P3 1.752537 1_555
C1 P1 1.759818 1_565
O0 P0 1.527544 1_555
O0 Pu0 2.269503 1_555
O1 P1 1.527544 1_555
O1 Pu1 2.269503 1_455
O2 P1 1.529122 1_555
O2 Pu1 2.246558 1_555
O3 P0 1.529122 1_555
O3 Pu0 2.246558 1_655
O4 P2 1.545785 1_556
O4 Pu1 2.210029 1_555
O5 P3 1.545785 1_554
O5 Pu0 2.210029 1_555
O6 Pu0 1.820830 1_555
O7 Pu1 1.820830 1_555
O8 P2 1.532742 1_555
O8 Pu0 2.280795 1_655
O9 P3 1.532742 1_555
O9 Pu1 2.280795 1_555
O10 P3 1.530298 1_555
O10 Pu1 2.279436 1_455
O11 P2 1.530298 1_555
O11 Pu0 2.279436 1_555
O12 P0 1.522029 1_545
O12 Pu1 2.387568 1_555
O13 P1 1.522029 1_565
O13 Pu0 2.387568 1_555
