# generated using pymatgen
data_Re4As5S4
_symmetry_space_group_name_H-M   'P 1'
_cell_length_a   7.03663726
_cell_length_b   7.03663726
_cell_length_c   7.03663726
_cell_angle_alpha   60.00000000
_cell_angle_beta   60.00000000
_cell_angle_gamma   60.00000000
_symmetry_Int_Tables_number   1
_chemical_formula_structural   Re4As5S4
_chemical_formula_sum   'Re4 As5 S4'
_cell_volume   246.36584109
_cell_formula_units_Z   1
loop_
 _symmetry_equiv_pos_site_id
 _symmetry_equiv_pos_as_xyz
  1  'x, y, z'
loop_
 _atom_site_type_symbol
 _atom_site_label
 _atom_site_symmetry_multiplicity
 _atom_site_fract_x
 _atom_site_fract_y
 _atom_site_fract_z
 _atom_site_occupancy
  Re  Re0  1  0.40095319  0.40095319  0.40095319  1
  Re  Re1  1  0.40095319  0.40095319  0.79714142  1
  Re  Re2  1  0.40095319  0.79714142  0.40095319  1
  Re  Re3  1  0.79714142  0.40095319  0.40095319  1
  As  As0  1  -0.00000000  -0.00000000  -0.00000000  1
  As  As1  1  0.14413838  0.14413838  0.14413838  1
  As  As2  1  0.14413838  0.14413838  0.56758486  1
  As  As3  1  0.14413838  0.56758486  0.14413838  1
  As  As4  1  0.56758486  0.14413838  0.14413838  1
  S  S0  1  0.63102615  0.63102615  0.63102615  1
  S  S1  1  0.63102615  0.63102615  0.10692155  1
  S  S2  1  0.63102615  0.10692155  0.63102615  1
  S  S3  1  0.10692155  0.63102615  0.63102615  1
loop_
_geom_bond_atom_site_label_1
_geom_bond_atom_site_label_2
_geom_bond_distance
_geom_bond_site_symmetry_2
Re0 S3 2.333341 1_555
Re0 S2 2.333341 1_555
Re0 S1 2.333341 1_555
Re1 S0 2.333340 1_555
Re1 S2 2.333346 1_555
Re1 S3 2.333346 1_555
Re2 S0 2.333340 1_555
Re2 S1 2.333346 1_555
Re2 S3 2.333346 1_555
Re3 S0 2.333340 1_555
Re3 S1 2.333346 1_555
Re3 S2 2.333346 1_555
As0 As3 2.484394 1_545
As0 As1 2.484394 1_555
As0 As4 2.484394 1_455
As0 As2 2.484394 1_554
As1 Re3 2.633250 1_455
As1 Re1 2.633250 1_554
As1 Re2 2.633250 1_545
As2 Re3 2.633246 1_455
As2 Re2 2.633246 1_545
As2 Re0 2.633251 1_555
As3 Re1 2.633246 1_554
As3 Re3 2.633246 1_455
As3 Re0 2.633251 1_555
As4 Re1 2.633246 1_554
As4 Re2 2.633246 1_545
As4 Re0 2.633251 1_555
