# generated using pymatgen
data_ZrCrAgS4
_symmetry_space_group_name_H-M   'P 1'
_cell_length_a   14.04870098
_cell_length_b   3.63380900
_cell_length_c   6.14213430
_cell_angle_alpha   90.00000000
_cell_angle_beta   113.96300000
_cell_angle_gamma   90.00000000
_symmetry_Int_Tables_number   1
_chemical_formula_structural   ZrCrAgS4
_chemical_formula_sum   'Zr2 Cr2 Ag2 S8'
_cell_volume   286.53157942
_cell_formula_units_Z   2
loop_
 _symmetry_equiv_pos_site_id
 _symmetry_equiv_pos_as_xyz
  1  'x, y, z'
loop_
 _atom_site_type_symbol
 _atom_site_label
 _atom_site_symmetry_multiplicity
 _atom_site_fract_x
 _atom_site_fract_y
 _atom_site_fract_z
 _atom_site_occupancy
  Zr  Zr0  1  0.24723000  0.00000000  0.22693900  1
  Zr  Zr1  1  0.75277000  0.00000000  0.77306100  1
  Cr  Cr0  1  0.74434300  0.50000000  0.22880700  1
  Cr  Cr1  1  0.25565700  0.50000000  0.77119300  1
  Ag  Ag0  1  0.00000000  0.50000000  0.50000000  1
  Ag  Ag1  1  0.50000000  0.00000000  0.50000000  1
  S  S0  1  0.13093100  0.50000000  0.96430800  1
  S  S1  1  0.86906900  0.50000000  0.03569200  1
  S  S2  1  0.63401300  0.00000000  0.98693400  1
  S  S3  1  0.36598700  0.00000000  0.01306600  1
  S  S4  1  0.15277300  0.00000000  0.51762700  1
  S  S5  1  0.84722700  0.00000000  0.48237300  1
  S  S6  1  0.64198500  0.50000000  0.46702300  1
  S  S7  1  0.35801500  0.50000000  0.53297700  1
loop_
_geom_bond_atom_site_label_1
_geom_bond_atom_site_label_2
_geom_bond_distance
_geom_bond_site_symmetry_2
Cr0 S6 2.432639 1_555
Cr0 S5 2.446904 1_565
Cr0 S5 2.446904 1_555
Cr0 S2 2.457685 1_554
Cr0 S2 2.457685 1_564
Cr0 S1 2.483049 1_555
Cr1 S7 2.432639 1_555
Cr1 S4 2.446904 1_555
Cr1 S4 2.446904 1_565
Cr1 S3 2.457685 1_556
Cr1 S3 2.457685 1_566
Cr1 S0 2.483049 1_555
Ag0 S0 2.693581 1_555
Ag0 S1 2.693581 1_455
Ag0 S4 2.780387 1_555
Ag0 S4 2.780387 1_565
Ag0 S5 2.780387 1_465
Ag0 S5 2.780387 1_455
Ag1 S6 2.765719 1_545
Ag1 S6 2.765719 1_555
Ag1 S7 2.765719 1_555
Ag1 S7 2.765719 1_545
Ag1 S2 2.813481 1_555
Ag1 S3 2.813481 1_555
S0 Zr0 2.536115 1_566
S0 Zr0 2.536115 1_556
S1 Zr1 2.536115 1_564
S1 Zr1 2.536115 1_554
S2 Zr1 2.507867 1_555
S3 Zr0 2.507867 1_555
S4 Zr0 2.621696 1_555
S5 Zr1 2.621696 1_555
S6 Zr1 2.623056 1_555
S6 Zr1 2.623056 1_565
S7 Zr0 2.623056 1_565
S7 Zr0 2.623056 1_555
