# generated using pymatgen
data_CsK2PdF6
_symmetry_space_group_name_H-M   'P 1'
_cell_length_a   6.76650844
_cell_length_b   6.76650844
_cell_length_c   6.76650844
_cell_angle_alpha   60.00000000
_cell_angle_beta   60.00000000
_cell_angle_gamma   60.00000000
_symmetry_Int_Tables_number   1
_chemical_formula_structural   CsK2PdF6
_chemical_formula_sum   'Cs1 K2 Pd1 F6'
_cell_volume   219.06797055
_cell_formula_units_Z   1
loop_
 _symmetry_equiv_pos_site_id
 _symmetry_equiv_pos_as_xyz
  1  'x, y, z'
loop_
 _atom_site_type_symbol
 _atom_site_label
 _atom_site_symmetry_multiplicity
 _atom_site_fract_x
 _atom_site_fract_y
 _atom_site_fract_z
 _atom_site_occupancy
  Cs  Cs0  1  0.50000000  0.50000000  0.50000000  1
  K  K0  1  0.75000000  0.75000000  0.75000000  1
  K  K1  1  0.25000000  0.25000000  0.25000000  1
  Pd  Pd0  1  0.00000000  0.00000000  0.00000000  1
  F  F0  1  0.78494500  0.21505500  0.21505500  1
  F  F1  1  0.21505500  0.21505500  0.78494500  1
  F  F2  1  0.21505500  0.78494500  0.78494500  1
  F  F3  1  0.21505500  0.78494500  0.21505500  1
  F  F4  1  0.78494500  0.21505500  0.78494500  1
  F  F5  1  0.78494500  0.78494500  0.21505500  1
loop_
_geom_bond_atom_site_label_1
_geom_bond_atom_site_label_2
_geom_bond_distance
_geom_bond_site_symmetry_2
Cs0 F1 2.726721 1_555
Cs0 F4 2.726721 1_555
Cs0 F2 2.726721 1_555
Cs0 F5 2.726721 1_555
Cs0 F3 2.726721 1_555
Cs0 F0 2.726721 1_555
F0 Pd0 2.057923 1_655
F1 Pd0 2.057923 1_556
F2 Pd0 2.057923 1_566
F3 Pd0 2.057923 1_565
F4 Pd0 2.057923 1_656
F5 Pd0 2.057923 1_665
