# generated using pymatgen
data_Fe7Co
_symmetry_space_group_name_H-M   'P 1'
_cell_length_a   4.92440698
_cell_length_b   4.92435241
_cell_length_c   4.92390186
_cell_angle_alpha   109.46635240
_cell_angle_beta   109.46657693
_cell_angle_gamma   109.47291834
_symmetry_Int_Tables_number   1
_chemical_formula_structural   Fe7Co
_chemical_formula_sum   'Fe7 Co1'
_cell_volume   91.92474537
_cell_formula_units_Z   1
loop_
 _symmetry_equiv_pos_site_id
 _symmetry_equiv_pos_as_xyz
  1  'x, y, z'
loop_
 _atom_site_type_symbol
 _atom_site_label
 _atom_site_symmetry_multiplicity
 _atom_site_fract_x
 _atom_site_fract_y
 _atom_site_fract_z
 _atom_site_occupancy
  Fe  Fe0  1  0.00000000  0.50000000  0.50000000  1
  Fe  Fe1  1  0.50000000  0.50000000  -0.00000000  1
  Fe  Fe2  1  0.50000000  -0.00000000  0.50000000  1
  Fe  Fe3  1  -0.00000000  0.00000000  0.50000000  1
  Fe  Fe4  1  0.00000000  0.50000000  0.00000000  1
  Fe  Fe5  1  0.50000000  -0.00000000  -0.00000000  1
  Fe  Fe6  1  0.50000000  0.50000000  0.50000000  1
  Co  Co0  1  -0.00000000  0.00000000  0.00000000  1
loop_
_geom_bond_atom_site_label_1
_geom_bond_atom_site_label_2
_geom_bond_distance
_geom_bond_site_symmetry_2
Fe0 Fe4 2.461951 1_555
Fe0 Fe4 2.461951 1_556
Fe0 Fe3 2.462176 1_555
Fe0 Fe3 2.462176 1_565
Fe0 Fe6 2.462203 1_455
Fe0 Fe6 2.462203 1_555
Fe0 Fe5 2.462427 1_566
Fe0 Fe5 2.462427 1_455
Fe1 Fe6 2.461951 1_554
Fe1 Fe6 2.461951 1_555
Fe1 Fe5 2.462176 1_555
Fe1 Fe5 2.462176 1_565
Fe1 Fe4 2.462203 1_655
Fe1 Fe4 2.462203 1_555
Fe1 Fe3 2.462427 1_554
Fe1 Fe3 2.462427 1_665
Fe2 Fe5 2.461951 1_556
Fe2 Fe5 2.461951 1_555
Fe2 Fe6 2.462176 1_545
Fe2 Fe6 2.462176 1_555
Fe2 Fe3 2.462203 1_655
Fe2 Fe3 2.462203 1_555
Fe2 Fe4 2.462427 1_656
Fe2 Fe4 2.462427 1_545
Co0 Fe3 2.461951 1_555
Co0 Fe3 2.461951 1_554
Co0 Fe4 2.462176 1_545
Co0 Fe4 2.462176 1_555
Co0 Fe5 2.462203 1_455
Co0 Fe5 2.462203 1_555
Co0 Fe6 2.462427 1_555
Co0 Fe6 2.462427 1_444
