# generated using pymatgen
data_Zn(BrO6)2
_symmetry_space_group_name_H-M   'P 1'
_cell_length_a   9.57972400
_cell_length_b   9.57972400
_cell_length_c   9.57972400
_cell_angle_alpha   90.00000000
_cell_angle_beta   90.00000000
_cell_angle_gamma   90.00000000
_symmetry_Int_Tables_number   1
_chemical_formula_structural   Zn(BrO6)2
_chemical_formula_sum   'Zn4 Br8 O48'
_cell_volume   879.14192333
_cell_formula_units_Z   4
loop_
 _symmetry_equiv_pos_site_id
 _symmetry_equiv_pos_as_xyz
  1  'x, y, z'
loop_
 _atom_site_type_symbol
 _atom_site_label
 _atom_site_symmetry_multiplicity
 _atom_site_fract_x
 _atom_site_fract_y
 _atom_site_fract_z
 _atom_site_occupancy
  Zn  Zn0  1  0.50000000  0.50000000  0.00000000  1
  Zn  Zn1  1  0.50000000  0.00000000  0.50000000  1
  Zn  Zn2  1  0.00000000  0.50000000  0.50000000  1
  Zn  Zn3  1  0.00000000  0.00000000  0.00000000  1
  Br  Br0  1  0.24139200  0.75860800  0.25860800  1
  Br  Br1  1  0.75860800  0.25860800  0.24139200  1
  Br  Br2  1  0.25860800  0.24139200  0.75860800  1
  Br  Br3  1  0.74139200  0.74139200  0.74139200  1
  Br  Br4  1  0.75860800  0.24139200  0.74139200  1
  Br  Br5  1  0.24139200  0.74139200  0.75860800  1
  Br  Br6  1  0.74139200  0.75860800  0.24139200  1
  Br  Br7  1  0.25860800  0.25860800  0.25860800  1
  O  O0  1  0.53946700  0.69782200  0.04681200  1
  O  O1  1  0.46053300  0.19782200  0.45318800  1
  O  O2  1  0.96053300  0.30217800  0.54681200  1
  O  O3  1  0.03946700  0.80217800  0.95318800  1
  O  O4  1  0.04681200  0.53946700  0.69782200  1
  O  O5  1  0.45318800  0.46053300  0.19782200  1
  O  O6  1  0.54681200  0.96053300  0.30217800  1
  O  O7  1  0.95318800  0.03946700  0.80217800  1
  O  O8  1  0.69782200  0.04681200  0.53946700  1
  O  O9  1  0.19782200  0.45318800  0.46053300  1
  O  O10  1  0.30217800  0.54681200  0.96053300  1
  O  O11  1  0.80217800  0.95318800  0.03946700  1
  O  O12  1  0.46053300  0.30217800  0.95318800  1
  O  O13  1  0.53946700  0.80217800  0.54681200  1
  O  O14  1  0.03946700  0.69782200  0.45318800  1
  O  O15  1  0.96053300  0.19782200  0.04681200  1
  O  O16  1  0.95318800  0.46053300  0.30217800  1
  O  O17  1  0.54681200  0.53946700  0.80217800  1
  O  O18  1  0.45318800  0.03946700  0.69782200  1
  O  O19  1  0.04681200  0.96053300  0.19782200  1
  O  O20  1  0.30217800  0.95318800  0.46053300  1
  O  O21  1  0.80217800  0.54681200  0.53946700  1
  O  O22  1  0.69782200  0.45318800  0.03946700  1
  O  O23  1  0.19782200  0.04681200  0.96053300  1
  O  O24  1  0.15901200  0.68235900  0.12021300  1
  O  O25  1  0.84098800  0.18235900  0.37978700  1
  O  O26  1  0.34098800  0.31764100  0.62021300  1
  O  O27  1  0.65901200  0.81764100  0.87978700  1
  O  O28  1  0.12021300  0.15901200  0.68235900  1
  O  O29  1  0.37978700  0.84098800  0.18235900  1
  O  O30  1  0.62021300  0.34098800  0.31764100  1
  O  O31  1  0.87978700  0.65901200  0.81764100  1
  O  O32  1  0.68235900  0.12021300  0.15901200  1
  O  O33  1  0.18235900  0.37978700  0.84098800  1
  O  O34  1  0.31764100  0.62021300  0.34098800  1
  O  O35  1  0.81764100  0.87978700  0.65901200  1
  O  O36  1  0.84098800  0.31764100  0.87978700  1
  O  O37  1  0.15901200  0.81764100  0.62021300  1
  O  O38  1  0.65901200  0.68235900  0.37978700  1
  O  O39  1  0.34098800  0.18235900  0.12021300  1
  O  O40  1  0.87978700  0.84098800  0.31764100  1
  O  O41  1  0.62021300  0.15901200  0.81764100  1
  O  O42  1  0.37978700  0.65901200  0.68235900  1
  O  O43  1  0.12021300  0.34098800  0.18235900  1
  O  O44  1  0.31764100  0.87978700  0.84098800  1
  O  O45  1  0.81764100  0.62021300  0.15901200  1
  O  O46  1  0.68235900  0.37978700  0.65901200  1
  O  O47  1  0.18235900  0.12021300  0.34098800  1
loop_
_geom_bond_atom_site_label_1
_geom_bond_atom_site_label_2
_geom_bond_distance
_geom_bond_site_symmetry_2
Br0 O34 1.707061 1_555
Br0 O29 1.707061 1_555
Br0 O24 1.707061 1_555
Br1 O30 1.707061 1_555
Br1 O25 1.707061 1_555
Br1 O32 1.707061 1_555
Br2 O26 1.707061 1_555
Br2 O33 1.707061 1_555
Br2 O28 1.707061 1_555
Br3 O35 1.707061 1_555
Br3 O31 1.707061 1_555
Br3 O27 1.707061 1_555
Br4 O41 1.707061 1_555
Br4 O46 1.707061 1_555
Br4 O36 1.707061 1_555
Br5 O37 1.707061 1_555
Br5 O42 1.707061 1_555
Br5 O44 1.707061 1_555
Br6 O45 1.707061 1_555
Br6 O38 1.707061 1_555
Br6 O40 1.707061 1_555
Br7 O39 1.707061 1_555
Br7 O43 1.707061 1_555
Br7 O47 1.707061 1_555
O0 Zn0 1.983779 1_555
O1 Zn1 1.983779 1_555
O2 Zn2 1.983779 1_655
O3 Zn3 1.983779 1_566
O4 Zn2 1.983779 1_555
O5 Zn0 1.983779 1_555
O6 Zn1 1.983779 1_565
O7 Zn3 1.983779 1_656
O8 Zn1 1.983779 1_555
O9 Zn2 1.983779 1_555
O10 Zn0 1.983779 1_556
O11 Zn3 1.983779 1_665
O12 Zn0 1.983779 1_556
O13 Zn1 1.983779 1_565
O14 Zn2 1.983779 1_555
O15 Zn3 1.983779 1_655
O16 Zn2 1.983779 1_655
O17 Zn0 1.983779 1_556
O18 Zn1 1.983779 1_555
O19 Zn3 1.983779 1_565
O20 Zn1 1.983779 1_565
O21 Zn2 1.983779 1_655
O22 Zn0 1.983779 1_555
O23 Zn3 1.983779 1_556
