# generated using pymatgen
data_MgSi2
_symmetry_space_group_name_H-M   'P 1'
_cell_length_a   6.28585351
_cell_length_b   3.98452433
_cell_length_c   8.78696565
_cell_angle_alpha   89.96011608
_cell_angle_beta   79.21734983
_cell_angle_gamma   90.21863659
_symmetry_Int_Tables_number   1
_chemical_formula_structural   MgSi2
_chemical_formula_sum   'Mg4 Si8'
_cell_volume   216.19200633
_cell_formula_units_Z   4
loop_
 _symmetry_equiv_pos_site_id
 _symmetry_equiv_pos_as_xyz
  1  'x, y, z'
loop_
 _atom_site_type_symbol
 _atom_site_label
 _atom_site_symmetry_multiplicity
 _atom_site_fract_x
 _atom_site_fract_y
 _atom_site_fract_z
 _atom_site_occupancy
  Mg  Mg0  1  0.88733500  0.08229700  0.14876400  1
  Mg  Mg1  1  0.61268600  0.08440400  0.85118700  1
  Mg  Mg2  1  0.38731700  0.58454200  0.64877800  1
  Mg  Mg3  1  0.11268100  0.58215700  0.35118000  1
  Si  Si0  1  0.17567400  0.08519300  0.85397000  1
  Si  Si1  1  0.56700400  0.58251700  0.09486500  1
  Si  Si2  1  0.43300600  0.08169500  0.40507500  1
  Si  Si3  1  0.82433600  0.58507000  0.64597800  1
  Si  Si4  1  0.32431900  0.08156600  0.14598400  1
  Si  Si5  1  0.93300400  0.58423700  0.90508900  1
  Si  Si6  1  0.06701400  0.08504200  0.59487400  1
  Si  Si7  1  0.67569500  0.58170900  0.35397500  1
loop_
_geom_bond_atom_site_label_1
_geom_bond_atom_site_label_2
_geom_bond_distance
_geom_bond_site_symmetry_2
Mg0 Si4 2.742365 1_655
Mg0 Si7 2.841986 1_545
Mg0 Si7 2.847573 1_555
Mg0 Si0 2.870216 1_654
Mg0 Si5 2.895796 1_544
Mg0 Si5 2.902866 1_554
Mg0 Si1 2.927772 1_545
Mg0 Si1 2.938952 1_555
Mg1 Si0 2.742537 1_555
Mg1 Si3 2.842216 1_555
Mg1 Si3 2.847368 1_545
Mg1 Si4 2.870318 1_556
Mg1 Si1 2.895957 1_556
Mg1 Si1 2.902736 1_546
Mg1 Si5 2.927865 1_555
Mg1 Si5 2.938757 1_545
Mg2 Si3 2.742534 1_555
Mg2 Si0 2.838450 1_555
Mg2 Si0 2.850952 1_565
Mg2 Si7 2.870460 1_555
Mg2 Si2 2.889947 1_565
Mg2 Si2 2.909090 1_555
Mg2 Si6 2.926903 1_555
Mg2 Si6 2.939598 1_565
Mg3 Si7 2.742335 1_455
Mg3 Si4 2.838625 1_565
Mg3 Si4 2.850792 1_555
Mg3 Si3 2.870332 1_455
Mg3 Si6 2.889792 1_555
Mg3 Si6 2.909143 1_565
Mg3 Si2 2.927082 1_565
Mg3 Si2 2.939572 1_555
Si0 Si6 2.496311 1_555
Si0 Si5 2.496401 1_445
Si0 Si5 2.500108 1_455
Si1 Si4 2.496439 1_555
Si1 Si7 2.496519 1_555
Si1 Si4 2.500178 1_565
Si1 Si5 2.576442 1_554
Si2 Si7 2.493468 1_555
Si2 Si4 2.496344 1_555
Si2 Si7 2.503161 1_545
Si2 Si6 2.576603 1_555
Si3 Si6 2.493297 1_665
Si3 Si5 2.496464 1_555
Si3 Si6 2.503257 1_655
