# generated using pymatgen
data_ZnAs2S4(O2F3)4
_symmetry_space_group_name_H-M   'P 1'
_cell_length_a   14.04805700
_cell_length_b   8.82029500
_cell_length_c   15.34275379
_cell_angle_alpha   81.16908384
_cell_angle_beta   90.00000000
_cell_angle_gamma   90.00000000
_symmetry_Int_Tables_number   1
_chemical_formula_structural   ZnAs2S4(O2F3)4
_chemical_formula_sum   'Zn4 As8 S16 O32 F48'
_cell_volume   1878.55392827
_cell_formula_units_Z   4
loop_
 _symmetry_equiv_pos_site_id
 _symmetry_equiv_pos_as_xyz
  1  'x, y, z'
loop_
 _atom_site_type_symbol
 _atom_site_label
 _atom_site_symmetry_multiplicity
 _atom_site_fract_x
 _atom_site_fract_y
 _atom_site_fract_z
 _atom_site_occupancy
  Zn  Zn0  1  0.18698800  0.22552500  0.75789900  1
  Zn  Zn1  1  0.68698800  0.77447500  0.74210100  1
  Zn  Zn2  1  0.81301200  0.77447500  0.24210100  1
  Zn  Zn3  1  0.31301200  0.22552500  0.25789900  1
  As  As0  1  0.35286900  0.03702600  0.60909300  1
  As  As1  1  0.85286900  0.96297400  0.89090700  1
  As  As2  1  0.64713100  0.96297400  0.39090700  1
  As  As3  1  0.14713100  0.03702600  0.10909300  1
  As  As4  1  0.38618000  0.41075700  0.86879000  1
  As  As5  1  0.88618000  0.58924300  0.63121000  1
  As  As6  1  0.61382000  0.58924300  0.13121000  1
  As  As7  1  0.11382000  0.41075700  0.36879000  1
  S  S0  1  0.02516500  0.37494300  0.89402700  1
  S  S1  1  0.52516500  0.62505700  0.60597300  1
  S  S2  1  0.97483500  0.62505700  0.10597300  1
  S  S3  1  0.47483500  0.37494300  0.39402700  1
  S  S4  1  0.03108400  0.09178700  0.60372500  1
  S  S5  1  0.53108400  0.90821300  0.89627500  1
  S  S6  1  0.96891600  0.90821300  0.39627500  1
  S  S7  1  0.46891600  0.09178700  0.10372500  1
  S  S8  1  0.17204400  0.84547800  0.84218900  1
  S  S9  1  0.67204400  0.15452200  0.65781100  1
  S  S10  1  0.82795600  0.15452200  0.15781100  1
  S  S11  1  0.32795600  0.84547800  0.34218900  1
  S  S12  1  0.20088600  0.57519900  0.61208800  1
  S  S13  1  0.70088600  0.42480100  0.88791200  1
  S  S14  1  0.79911400  0.42480100  0.38791200  1
  S  S15  1  0.29911400  0.57519900  0.11208800  1
  O  O0  1  0.07419900  0.28562000  0.83470700  1
  O  O1  1  0.57419900  0.71438000  0.66529300  1
  O  O2  1  0.92580100  0.71438000  0.16529300  1
  O  O3  1  0.42580100  0.28562000  0.33470700  1
  O  O4  1  0.06804000  0.51770200  0.90761300  1
  O  O5  1  0.56804000  0.48229800  0.59238700  1
  O  O6  1  0.93196000  0.48229800  0.09238700  1
  O  O7  1  0.43196000  0.51770200  0.40761300  1
  O  O8  1  0.07664300  0.15611100  0.67567900  1
  O  O9  1  0.57664300  0.84388900  0.82432100  1
  O  O10  1  0.92335700  0.84388900  0.32432100  1
  O  O11  1  0.42335700  0.15611100  0.17567900  1
  O  O12  1  0.93174100  0.12619100  0.58921000  1
  O  O13  1  0.43174100  0.87380900  0.91079000  1
  O  O14  1  0.06825900  0.87380900  0.41079000  1
  O  O15  1  0.56825900  0.12619100  0.08921000  1
  O  O16  1  0.18911200  0.01045800  0.83802800  1
  O  O17  1  0.68911200  0.98954200  0.66197200  1
  O  O18  1  0.81088800  0.98954200  0.16197200  1
  O  O19  1  0.31088800  0.01045800  0.33802800  1
  O  O20  1  0.14276000  0.79348900  0.76176100  1
  O  O21  1  0.64276000  0.20651100  0.73823900  1
  O  O22  1  0.85724000  0.20651100  0.23823900  1
  O  O23  1  0.35724000  0.79348900  0.26176100  1
  O  O24  1  0.18442500  0.44409100  0.68146700  1
  O  O25  1  0.68442500  0.55590900  0.81853300  1
  O  O26  1  0.81557500  0.55590900  0.31853300  1
  O  O27  1  0.31557500  0.44409100  0.18146700  1
  O  O28  1  0.29170500  0.58505400  0.56862100  1
  O  O29  1  0.79170500  0.41494600  0.93137900  1
  O  O30  1  0.70829500  0.41494600  0.43137900  1
  O  O31  1  0.20829500  0.58505400  0.06862100  1
  F  F0  1  0.29497900  0.15770100  0.68320500  1
  F  F1  1  0.79497900  0.84229900  0.81679500  1
  F  F2  1  0.70502100  0.84229900  0.31679500  1
  F  F3  1  0.20502100  0.15770100  0.18320500  1
  F  F4  1  0.40660900  0.92320400  0.53860300  1
  F  F5  1  0.90660900  0.07679600  0.96139700  1
  F  F6  1  0.59339100  0.07679600  0.46139700  1
  F  F7  1  0.09339100  0.92320400  0.03860300  1
  F  F8  1  0.35624400  0.20171100  0.52785100  1
  F  F9  1  0.85624400  0.79828900  0.97214900  1
  F  F10  1  0.64375600  0.79828900  0.47214900  1
  F  F11  1  0.14375600  0.20171100  0.02785100  1
  F  F12  1  0.23796200  0.99241600  0.57400500  1
  F  F13  1  0.73796200  0.00758400  0.92599500  1
  F  F14  1  0.76203800  0.00758400  0.42599500  1
  F  F15  1  0.26203800  0.99241600  0.07400500  1
  F  F16  1  0.34652600  0.88165400  0.69617900  1
  F  F17  1  0.84652600  0.11834600  0.80382100  1
  F  F18  1  0.65347400  0.11834600  0.30382100  1
  F  F19  1  0.15347400  0.88165400  0.19617900  1
  F  F20  1  0.46345600  0.08990500  0.64991400  1
  F  F21  1  0.96345600  0.91009500  0.85008600  1
  F  F22  1  0.53654400  0.91009500  0.35008600  1
  F  F23  1  0.03654400  0.08990500  0.14991400  1
  F  F24  1  0.28464000  0.28999500  0.84549800  1
  F  F25  1  0.78464000  0.71000500  0.65450200  1
  F  F26  1  0.71536000  0.71000500  0.15450200  1
  F  F27  1  0.21536000  0.28999500  0.34549800  1
  F  F28  1  0.48268300  0.52453700  0.89144200  1
  F  F29  1  0.98268300  0.47546300  0.60855800  1
  F  F30  1  0.51731700  0.47546300  0.10855800  1
  F  F31  1  0.01731700  0.52453700  0.39144200  1
  F  F32  1  0.40593900  0.45284500  0.75395600  1
  F  F33  1  0.90593900  0.54715500  0.74604400  1
  F  F34  1  0.59406100  0.54715500  0.24604400  1
  F  F35  1  0.09406100  0.45284500  0.25395600  1
  F  F36  1  0.45918300  0.24642500  0.87512100  1
  F  F37  1  0.95918300  0.75357500  0.62487900  1
  F  F38  1  0.54081700  0.75357500  0.12487900  1
  F  F39  1  0.04081700  0.24642500  0.37512100  1
  F  F40  1  0.36019500  0.35955900  0.98258200  1
  F  F41  1  0.86019500  0.64044100  0.51741800  1
  F  F42  1  0.63980500  0.64044100  0.01741800  1
  F  F43  1  0.13980500  0.35955900  0.48258200  1
  F  F44  1  0.30620700  0.56570900  0.86320100  1
  F  F45  1  0.80620700  0.43429100  0.63679900  1
  F  F46  1  0.69379300  0.43429100  0.13679900  1
  F  F47  1  0.19379300  0.56570900  0.36320100  1
loop_
_geom_bond_atom_site_label_1
_geom_bond_atom_site_label_2
_geom_bond_distance
_geom_bond_site_symmetry_2
As0 F4 1.755244 1_545
As0 F16 1.763254 1_545
As0 F8 1.763516 1_555
As0 F20 1.764355 1_555
As0 F12 1.765045 1_545
As0 F0 1.859798 1_555
As1 F5 1.755244 1_565
As1 F17 1.763254 1_565
As1 F9 1.763516 1_555
As1 F21 1.764355 1_555
As1 F13 1.765045 1_565
As1 F1 1.859798 1_555
As2 F6 1.755244 1_565
As2 F18 1.763254 1_565
As2 F10 1.763516 1_555
As2 F22 1.764355 1_555
As2 F14 1.765045 1_565
As2 F2 1.859798 1_555
As3 F7 1.755244 1_545
As3 F19 1.763254 1_545
As3 F11 1.763516 1_555
As3 F23 1.764355 1_555
As3 F15 1.765045 1_545
As3 F3 1.859798 1_555
As4 F28 1.752970 1_555
As4 F44 1.761100 1_555
As4 F32 1.765849 1_555
As4 F36 1.766036 1_555
As4 F40 1.772911 1_555
As4 F24 1.847666 1_555
As5 F29 1.752970 1_555
As5 F45 1.761100 1_555
As5 F33 1.765849 1_555
As5 F37 1.766036 1_555
As5 F41 1.772911 1_555
As5 F25 1.847666 1_555
As6 F30 1.752970 1_555
As6 F46 1.761100 1_555
As6 F34 1.765849 1_555
As6 F38 1.766036 1_555
As6 F42 1.772911 1_555
As6 F26 1.847666 1_555
As7 F31 1.752970 1_555
As7 F47 1.761100 1_555
As7 F35 1.765849 1_555
As7 F39 1.766036 1_555
As7 F43 1.772911 1_555
As7 F27 1.847666 1_555
O0 S0 1.464141 1_555
O0 Zn0 2.090937 1_555
O1 S1 1.464141 1_555
O1 Zn1 2.090937 1_555
O2 S2 1.464141 1_555
O2 Zn2 2.090937 1_555
O3 S3 1.464141 1_555
O3 Zn3 2.090937 1_555
O4 S0 1.439563 1_555
O5 S1 1.439563 1_555
O6 S2 1.439563 1_555
O7 S3 1.439563 1_555
O8 S4 1.463756 1_555
O8 Zn0 2.146215 1_555
O9 S5 1.463756 1_555
O9 Zn1 2.146215 1_555
O10 S6 1.463756 1_555
O10 Zn2 2.146215 1_555
O11 S7 1.463756 1_555
O11 Zn3 2.146215 1_555
O12 S4 1.438250 1_655
O13 S5 1.438250 1_555
O14 S6 1.438250 1_455
O15 S7 1.438250 1_555
O16 S8 1.466482 1_545
O16 Zn0 2.096354 1_555
O17 S9 1.466482 1_565
O17 Zn1 2.096354 1_555
O18 S10 1.466482 1_565
O18 Zn2 2.096354 1_555
O19 S11 1.466482 1_545
O19 Zn3 2.096354 1_555
O20 S8 1.440824 1_555
O21 S9 1.440824 1_555
O22 S10 1.440824 1_555
O23 S11 1.440824 1_555
O24 S12 1.464888 1_555
O24 Zn0 2.097337 1_555
O25 S13 1.464888 1_555
O25 Zn1 2.097337 1_555
O26 S14 1.464888 1_555
O26 Zn2 2.097337 1_555
O27 S15 1.464888 1_555
O27 Zn3 2.097337 1_555
O28 S12 1.436057 1_555
O29 S13 1.436057 1_555
O30 S14 1.436057 1_555
O31 S15 1.436057 1_555
F0 Zn0 2.045287 1_555
F1 Zn1 2.045287 1_555
F2 Zn2 2.045287 1_555
F3 Zn3 2.045287 1_555
F24 Zn0 2.060648 1_555
F25 Zn1 2.060648 1_555
F26 Zn2 2.060648 1_555
F27 Zn3 2.060648 1_555
