# generated using pymatgen
data_Si4SnO10
_symmetry_space_group_name_H-M   'P 1'
_cell_length_a   7.55771700
_cell_length_b   7.55771700
_cell_length_c   15.96735400
_cell_angle_alpha   90.00000000
_cell_angle_beta   90.00000000
_cell_angle_gamma   90.00000000
_symmetry_Int_Tables_number   1
_chemical_formula_structural   Si4SnO10
_chemical_formula_sum   'Si16 Sn4 O40'
_cell_volume   912.04067034
_cell_formula_units_Z   4
loop_
 _symmetry_equiv_pos_site_id
 _symmetry_equiv_pos_as_xyz
  1  'x, y, z'
loop_
 _atom_site_type_symbol
 _atom_site_label
 _atom_site_symmetry_multiplicity
 _atom_site_fract_x
 _atom_site_fract_y
 _atom_site_fract_z
 _atom_site_occupancy
  Si  Si0  1  0.17408900  0.26239000  0.65217900  1
  Si  Si1  1  0.82591100  0.73761000  0.65217900  1
  Si  Si2  1  0.26239000  0.17408900  0.84782100  1
  Si  Si3  1  0.76239000  0.32591100  0.65217900  1
  Si  Si4  1  0.23761000  0.67408900  0.65217900  1
  Si  Si5  1  0.32591100  0.76239000  0.84782100  1
  Si  Si6  1  0.67408900  0.23761000  0.84782100  1
  Si  Si7  1  0.73761000  0.82591100  0.84782100  1
  Si  Si8  1  0.32591100  0.23761000  0.34782100  1
  Si  Si9  1  0.67408900  0.76239000  0.34782100  1
  Si  Si10  1  0.23761000  0.32591100  0.15217900  1
  Si  Si11  1  0.73761000  0.17408900  0.34782100  1
  Si  Si12  1  0.26239000  0.82591100  0.34782100  1
  Si  Si13  1  0.17408900  0.73761000  0.15217900  1
  Si  Si14  1  0.82591100  0.26239000  0.15217900  1
  Si  Si15  1  0.76239000  0.67408900  0.15217900  1
  Sn  Sn0  1  0.50000000  0.00000000  0.59334800  1
  Sn  Sn1  1  0.00000000  0.50000000  0.90665200  1
  Sn  Sn2  1  0.00000000  0.50000000  0.40665200  1
  Sn  Sn3  1  0.50000000  0.00000000  0.09334800  1
  O  O0  1  0.26547800  0.11556600  0.59183400  1
  O  O1  1  0.73452200  0.88443400  0.59183400  1
  O  O2  1  0.11556600  0.26547800  0.90816600  1
  O  O3  1  0.61556600  0.23452200  0.59183400  1
  O  O4  1  0.38443400  0.76547800  0.59183400  1
  O  O5  1  0.23452200  0.61556600  0.90816600  1
  O  O6  1  0.76547800  0.38443400  0.90816600  1
  O  O7  1  0.88443400  0.73452200  0.90816600  1
  O  O8  1  0.23452200  0.38443400  0.40816600  1
  O  O9  1  0.76547800  0.61556600  0.40816600  1
  O  O10  1  0.38443400  0.23452200  0.09183400  1
  O  O11  1  0.88443400  0.26547800  0.40816600  1
  O  O12  1  0.11556600  0.73452200  0.40816600  1
  O  O13  1  0.26547800  0.88443400  0.09183400  1
  O  O14  1  0.73452200  0.11556600  0.09183400  1
  O  O15  1  0.25510900  0.03762900  0.36624800  1
  O  O16  1  0.61556600  0.76547800  0.09183400  1
  O  O17  1  0.75510900  0.53762900  0.63375200  1
  O  O18  1  0.46237100  0.24489100  0.86624800  1
  O  O19  1  0.96237100  0.25510900  0.63375200  1
  O  O20  1  0.03762900  0.74489100  0.63375200  1
  O  O21  1  0.25510900  0.96237100  0.86624800  1
  O  O22  1  0.74489100  0.03762900  0.86624800  1
  O  O23  1  0.53762900  0.75510900  0.86624800  1
  O  O24  1  0.71441100  0.71441100  0.25000000  1
  O  O25  1  0.78558900  0.21441100  0.25000000  1
  O  O26  1  0.21441100  0.78558900  0.25000000  1
  O  O27  1  0.28558900  0.28558900  0.25000000  1
  O  O28  1  0.78558900  0.78558900  0.75000000  1
  O  O29  1  0.71441100  0.28558900  0.75000000  1
  O  O30  1  0.28558900  0.71441100  0.75000000  1
  O  O31  1  0.21441100  0.21441100  0.75000000  1
  O  O32  1  0.96237100  0.74489100  0.13375200  1
  O  O33  1  0.75510900  0.46237100  0.13375200  1
  O  O34  1  0.24489100  0.53762900  0.13375200  1
  O  O35  1  0.46237100  0.75510900  0.36624800  1
  O  O36  1  0.53762900  0.24489100  0.36624800  1
  O  O37  1  0.03762900  0.25510900  0.13375200  1
  O  O38  1  0.74489100  0.96237100  0.36624800  1
  O  O39  1  0.24489100  0.46237100  0.63375200  1
loop_
_geom_bond_atom_site_label_1
_geom_bond_atom_site_label_2
_geom_bond_distance
_geom_bond_site_symmetry_2
O0 Si0 1.623828 1_555
O0 Sn0 1.976112 1_555
O1 Si1 1.623828 1_555
O1 Sn0 1.976112 1_565
O2 Si2 1.623828 1_555
O2 Sn1 1.976112 1_555
O3 Si3 1.623828 1_555
O3 Sn0 1.976112 1_555
O4 Si4 1.623828 1_555
O4 Sn0 1.976112 1_565
O5 Si5 1.623828 1_555
O5 Sn1 1.976112 1_555
O6 Si6 1.623828 1_555
O6 Sn1 1.976112 1_655
O7 Si7 1.623828 1_555
O7 Sn1 1.976112 1_655
O8 Si8 1.623828 1_555
O8 Sn2 1.976112 1_555
O9 Si9 1.623828 1_555
O9 Sn2 1.976112 1_655
O10 Si10 1.623828 1_555
O10 Sn3 1.976112 1_555
O11 Si11 1.623828 1_555
O11 Sn2 1.976112 1_655
O12 Si12 1.623828 1_555
O12 Sn2 1.976112 1_555
O13 Si13 1.623828 1_555
O13 Sn3 1.976112 1_565
O14 Si14 1.623828 1_555
O14 Sn3 1.976112 1_555
O15 Si12 1.627862 1_545
O15 Si8 1.630103 1_555
O16 Si15 1.623828 1_555
O16 Sn3 1.976112 1_565
O17 Si3 1.627862 1_555
O17 Si1 1.630103 1_555
O18 Si6 1.627862 1_555
O18 Si2 1.630103 1_555
O19 Si0 1.627862 1_655
O19 Si3 1.630103 1_555
O20 Si1 1.627862 1_455
O20 Si4 1.630103 1_555
O21 Si2 1.627862 1_565
O21 Si5 1.630103 1_555
O22 Si7 1.627862 1_545
O22 Si6 1.630103 1_555
O23 Si5 1.627862 1_555
O23 Si7 1.630103 1_555
O24 Si9 1.632182 1_555
O24 Si15 1.632182 1_555
O25 Si11 1.632182 1_555
O25 Si14 1.632182 1_555
O26 Si12 1.632182 1_555
O26 Si13 1.632182 1_555
O27 Si8 1.632182 1_555
O27 Si10 1.632182 1_555
O28 Si7 1.632182 1_555
O28 Si1 1.632182 1_555
O29 Si6 1.632182 1_555
O29 Si3 1.632182 1_555
O30 Si5 1.632182 1_555
O30 Si4 1.632182 1_555
O31 Si2 1.632182 1_555
O31 Si0 1.632182 1_555
O32 Si13 1.627862 1_655
O32 Si15 1.630103 1_555
O33 Si15 1.627862 1_555
O33 Si14 1.630103 1_555
O34 Si10 1.627862 1_555
O34 Si13 1.630103 1_555
O35 Si9 1.627862 1_555
O35 Si12 1.630103 1_555
O36 Si8 1.627862 1_555
O36 Si11 1.630103 1_555
O37 Si14 1.627862 1_455
O37 Si10 1.630103 1_555
O38 Si11 1.627862 1_565
O38 Si9 1.630103 1_555
O39 Si4 1.627862 1_555
O39 Si0 1.630103 1_555
