# generated using pymatgen
data_La2TeO6
_symmetry_space_group_name_H-M   'P 1'
_cell_length_a   5.65435765
_cell_length_b   5.65435765
_cell_length_c   5.65435804
_cell_angle_alpha   63.01639104
_cell_angle_beta   63.01639104
_cell_angle_gamma   63.01638306
_symmetry_Int_Tables_number   1
_chemical_formula_structural   La2TeO6
_chemical_formula_sum   'La2 Te1 O6'
_cell_volume   136.38975013
_cell_formula_units_Z   1
loop_
 _symmetry_equiv_pos_site_id
 _symmetry_equiv_pos_as_xyz
  1  'x, y, z'
loop_
 _atom_site_type_symbol
 _atom_site_label
 _atom_site_symmetry_multiplicity
 _atom_site_fract_x
 _atom_site_fract_y
 _atom_site_fract_z
 _atom_site_occupancy
  La  La0  1  0.24840300  0.24840300  0.24840300  1
  La  La1  1  0.75159700  0.75159700  0.75159700  1
  Te  Te0  1  0.00000000  0.00000000  0.00000000  1
  O  O0  1  0.67323000  0.20752900  0.87274400  1
  O  O1  1  0.20752900  0.87274400  0.67323000  1
  O  O2  1  0.87274400  0.67323000  0.20752900  1
  O  O3  1  0.32677000  0.79247100  0.12725600  1
  O  O4  1  0.12725600  0.32677000  0.79247100  1
  O  O5  1  0.79247100  0.12725600  0.32677000  1
loop_
_geom_bond_atom_site_label_1
_geom_bond_atom_site_label_2
_geom_bond_distance
_geom_bond_site_symmetry_2
La0 O2 2.376319 1_455
La0 O0 2.376319 1_554
La0 O1 2.376319 1_545
La0 O3 2.757197 1_545
La0 O5 2.757197 1_455
La0 O4 2.757197 1_554
La0 O5 3.029654 1_555
La0 O3 3.029654 1_555
La0 O4 3.029654 1_555
La1 O4 2.376319 1_655
La1 O3 2.376319 1_556
La1 O5 2.376319 1_565
La1 O0 2.757197 1_565
La1 O1 2.757197 1_655
La1 O2 2.757197 1_556
La1 O1 3.029654 1_555
La1 O0 3.029654 1_555
La1 O2 3.029654 1_555
O0 Te0 1.944570 1_656
O1 Te0 1.944570 1_566
O2 Te0 1.944570 1_665
O3 Te0 1.944570 1_565
O4 Te0 1.944570 1_556
O5 Te0 1.944570 1_655
