# generated using pymatgen
data_V3NiO6
_symmetry_space_group_name_H-M   'P 1'
_cell_length_a   5.50396596
_cell_length_b   5.50396596
_cell_length_c   5.50396606
_cell_angle_alpha   54.85610116
_cell_angle_beta   54.85610116
_cell_angle_gamma   54.85610211
_symmetry_Int_Tables_number   1
_chemical_formula_structural   V3NiO6
_chemical_formula_sum   'V3 Ni1 O6'
_cell_volume   103.78074125
_cell_formula_units_Z   1
loop_
 _symmetry_equiv_pos_site_id
 _symmetry_equiv_pos_as_xyz
  1  'x, y, z'
loop_
 _atom_site_type_symbol
 _atom_site_label
 _atom_site_symmetry_multiplicity
 _atom_site_fract_x
 _atom_site_fract_y
 _atom_site_fract_z
 _atom_site_occupancy
  V  V0  1  0.64943400  0.64943400  0.64943400  1
  V  V1  1  0.85021200  0.85021200  0.85021200  1
  V  V2  1  0.34899100  0.34899100  0.34899100  1
  Ni  Ni0  1  0.14807800  0.14807800  0.14807800  1
  O  O0  1  0.93896100  0.56591100  0.25157100  1
  O  O1  1  0.25157100  0.93896100  0.56591100  1
  O  O2  1  0.56591100  0.25157100  0.93896100  1
  O  O3  1  0.73939600  0.05293700  0.45451100  1
  O  O4  1  0.45451100  0.73939600  0.05293700  1
  O  O5  1  0.05293700  0.45451100  0.73939600  1
loop_
_geom_bond_atom_site_label_1
_geom_bond_atom_site_label_2
_geom_bond_distance
_geom_bond_site_symmetry_2
Ni0 O3 2.037186 1_455
Ni0 O4 2.037186 1_545
Ni0 O5 2.037186 1_554
Ni0 O2 2.155000 1_554
Ni0 O0 2.155000 1_455
Ni0 O1 2.155000 1_545
O0 V0 1.960662 1_555
O0 V1 1.987425 1_554
O0 V2 2.088103 1_655
O1 V0 1.960662 1_555
O1 V1 1.987425 1_455
O1 V2 2.088103 1_565
O2 V0 1.960662 1_555
O2 V1 1.987425 1_545
O2 V2 2.088103 1_556
O3 V2 1.981399 1_555
O3 V0 2.059073 1_545
O3 V1 2.075687 1_545
O4 V2 1.981399 1_555
O4 V0 2.059073 1_554
O4 V1 2.075687 1_554
O5 V2 1.981399 1_555
O5 V0 2.059073 1_455
O5 V1 2.075687 1_455
