# generated using pymatgen
data_Hf5Ge3
_symmetry_space_group_name_H-M   'P 1'
_cell_length_a   7.94168585
_cell_length_b   7.94168623
_cell_length_c   5.52627698
_cell_angle_alpha   90.00000000
_cell_angle_beta   90.00000000
_cell_angle_gamma   120.00000263
_symmetry_Int_Tables_number   1
_chemical_formula_structural   Hf5Ge3
_chemical_formula_sum   'Hf10 Ge6'
_cell_volume   301.84827364
_cell_formula_units_Z   2
loop_
 _symmetry_equiv_pos_site_id
 _symmetry_equiv_pos_as_xyz
  1  'x, y, z'
loop_
 _atom_site_type_symbol
 _atom_site_label
 _atom_site_symmetry_multiplicity
 _atom_site_fract_x
 _atom_site_fract_y
 _atom_site_fract_z
 _atom_site_occupancy
  Hf  Hf0  1  0.33333300  0.66666700  -0.00000000  1
  Hf  Hf1  1  0.66666700  0.33333300  0.50000000  1
  Hf  Hf2  1  0.66666700  0.33333300  0.00000000  1
  Hf  Hf3  1  0.33333300  0.66666700  0.50000000  1
  Hf  Hf4  1  0.25307005  -0.00000683  0.25000000  1
  Hf  Hf5  1  0.25307005  0.25307688  0.75000000  1
  Hf  Hf6  1  0.00000683  0.74692995  0.75000000  1
  Hf  Hf7  1  0.00000683  0.25307688  0.25000000  1
  Hf  Hf8  1  0.74692312  0.74692995  0.25000000  1
  Hf  Hf9  1  0.74692312  -0.00000683  0.75000000  1
  Ge  Ge0  1  0.61076633  -0.00000372  0.25000000  1
  Ge  Ge1  1  0.61076633  0.61076904  0.75000000  1
  Ge  Ge2  1  0.00000372  0.38923367  0.75000000  1
  Ge  Ge3  1  0.00000372  0.61076904  0.25000000  1
  Ge  Ge4  1  0.38923096  0.38923367  0.25000000  1
  Ge  Ge5  1  0.38923096  -0.00000372  0.75000000  1
loop_
_geom_bond_atom_site_label_1
_geom_bond_atom_site_label_2
_geom_bond_distance
_geom_bond_site_symmetry_2
Ge0 Hf8 2.716915 1_545
Ge0 Hf7 2.717040 1_655
Ge0 Hf3 2.817503 1_545
Ge0 Hf0 2.817503 1_545
Ge0 Hf1 2.817543 1_555
Ge0 Hf2 2.817543 1_555
Ge0 Hf4 2.840699 1_555
Ge0 Hf9 2.967188 1_555
Ge0 Hf9 2.967188 1_554
Ge1 Hf9 2.716923 1_565
Ge1 Hf6 2.717039 1_655
Ge1 Hf3 2.817512 1_555
Ge1 Hf0 2.817512 1_556
Ge1 Hf1 2.817543 1_555
Ge1 Hf2 2.817543 1_556
Ge1 Hf5 2.840695 1_555
Ge1 Hf8 2.967189 1_555
Ge1 Hf8 2.967189 1_556
Ge2 Hf5 2.716915 1_555
Ge2 Hf9 2.717040 1_455
Ge2 Hf0 2.817503 1_556
Ge2 Hf3 2.817503 1_555
Ge2 Hf1 2.817542 1_455
Ge2 Hf2 2.817542 1_456
Ge2 Hf6 2.840699 1_555
Ge2 Hf7 2.967188 1_555
Ge2 Hf7 2.967188 1_556
Ge3 Hf4 2.716921 1_565
Ge3 Hf8 2.717046 1_455
Ge3 Hf3 2.817498 1_555
Ge3 Hf0 2.817498 1_555
Ge3 Hf1 2.817542 1_455
Ge3 Hf2 2.817542 1_455
Ge3 Hf7 2.840691 1_555
Ge3 Hf6 2.967190 1_554
Ge3 Hf6 2.967190 1_555
Ge4 Hf7 2.716922 1_555
Ge4 Hf4 2.717039 1_555
Ge4 Hf0 2.817512 1_555
Ge4 Hf3 2.817512 1_555
Ge4 Hf1 2.817542 1_555
Ge4 Hf2 2.817542 1_555
Ge4 Hf8 2.840695 1_555
Ge4 Hf5 2.967189 1_554
Ge4 Hf5 2.967189 1_555
Ge5 Hf6 2.716921 1_545
Ge5 Hf5 2.717047 1_555
Ge5 Hf0 2.817498 1_546
Ge5 Hf3 2.817498 1_545
Ge5 Hf1 2.817542 1_555
Ge5 Hf2 2.817542 1_556
Ge5 Hf9 2.840691 1_555
Ge5 Hf4 2.967190 1_555
Ge5 Hf4 2.967190 1_556
