# generated using pymatgen
data_Mg4Si3
_symmetry_space_group_name_H-M   'P 1'
_cell_length_a   5.38225100
_cell_length_b   7.17952754
_cell_length_c   7.94323845
_cell_angle_alpha   113.00132486
_cell_angle_beta   94.33568443
_cell_angle_gamma   101.27700448
_symmetry_Int_Tables_number   1
_chemical_formula_structural   Mg4Si3
_chemical_formula_sum   'Mg8 Si6'
_cell_volume   273.12782614
_cell_formula_units_Z   2
loop_
 _symmetry_equiv_pos_site_id
 _symmetry_equiv_pos_as_xyz
  1  'x, y, z'
loop_
 _atom_site_type_symbol
 _atom_site_label
 _atom_site_symmetry_multiplicity
 _atom_site_fract_x
 _atom_site_fract_y
 _atom_site_fract_z
 _atom_site_occupancy
  Mg  Mg0  1  0.59741700  0.51322300  0.73459100  1
  Mg  Mg1  1  0.08468600  0.96093400  0.22342500  1
  Mg  Mg2  1  0.03471200  0.21771800  0.65818600  1
  Mg  Mg3  1  0.45021500  0.38384500  0.29482400  1
  Mg  Mg4  1  0.43250100  0.93408900  0.59613300  1
  Mg  Mg5  1  0.98015600  0.46416400  0.07603600  1
  Mg  Mg6  1  0.87089000  0.75810000  0.46742700  1
  Mg  Mg7  1  0.56190600  0.96663900  0.99731800  1
  Si  Si0  1  0.64630800  0.10061700  0.37439300  1
  Si  Si1  1  0.53817300  0.67076000  0.14214600  1
  Si  Si2  1  0.12464800  0.63393200  0.74328700  1
  Si  Si3  1  0.99386600  0.39648700  0.40715300  1
  Si  Si4  1  0.42141700  0.27578600  0.92549900  1
  Si  Si5  1  0.01317600  0.97366400  0.85949200  1
loop_
_geom_bond_atom_site_label_1
_geom_bond_atom_site_label_2
_geom_bond_distance
_geom_bond_site_symmetry_2
Mg0 Si4 2.776452 1_555
Mg0 Si2 2.787484 1_655
Mg0 Si2 2.841281 1_555
Mg0 Si1 3.049051 1_556
Mg1 Si0 2.902447 1_465
Mg1 Si5 2.926647 1_554
Mg1 Si0 2.984541 1_565
Mg1 Si3 3.047377 1_465
Mg1 Si1 3.110351 1_455
Mg2 Si0 2.697690 1_455
Mg2 Si4 2.704617 1_555
Mg2 Si2 2.725234 1_555
Mg2 Si3 2.777751 1_455
Mg2 Si5 2.789030 1_545
Mg3 Si3 2.681877 1_455
Mg3 Si4 2.708816 1_554
Mg3 Si0 2.718672 1_555
Mg3 Si1 2.756065 1_555
Mg3 Si3 2.967206 1_555
Mg4 Si0 2.696308 1_565
Mg4 Si4 2.816295 1_565
Mg4 Si2 3.101704 1_555
Mg5 Si3 2.853521 1_555
Mg5 Si4 2.984024 1_554
Mg5 Si1 2.984406 1_655
Mg5 Si1 3.015789 1_555
Mg5 Si4 3.053079 1_654
Mg6 Si3 2.675110 1_555
Mg6 Si1 2.805536 1_555
Mg6 Si5 2.844206 1_655
Mg6 Si2 3.001971 1_655
Mg7 Si4 2.721068 1_565
Mg7 Si0 2.733974 1_566
Mg7 Si5 2.738192 1_655
Mg7 Si1 2.770954 1_556
Mg7 Si2 2.938129 1_555
Si0 Si3 2.453484 1_555
Si0 Si1 2.819970 1_545
Si1 Si4 2.592974 1_554
Si2 Si5 2.461269 1_555
Si2 Si3 2.493966 1_455
Si4 Si5 2.623127 1_545
