# generated using pymatgen
data_HoMg5
_symmetry_space_group_name_H-M   'P 1'
_cell_length_a   6.16890096
_cell_length_b   6.16890096
_cell_length_c   7.05196035
_cell_angle_alpha   72.89747228
_cell_angle_beta   72.89747228
_cell_angle_gamma   34.58158888
_symmetry_Int_Tables_number   1
_chemical_formula_structural   HoMg5
_chemical_formula_sum   'Ho1 Mg5'
_cell_volume   144.91342910
_cell_formula_units_Z   1
loop_
 _symmetry_equiv_pos_site_id
 _symmetry_equiv_pos_as_xyz
  1  'x, y, z'
loop_
 _atom_site_type_symbol
 _atom_site_label
 _atom_site_symmetry_multiplicity
 _atom_site_fract_x
 _atom_site_fract_y
 _atom_site_fract_z
 _atom_site_occupancy
  Ho  Ho0  1  0.50000000  0.50000000  0.50000000  1
  Mg  Mg0  1  0.17514054  0.17514054  0.67152272  1
  Mg  Mg1  1  0.82768785  0.82768785  0.84565997  1
  Mg  Mg2  1  0.50000000  0.50000000  -0.00000000  1
  Mg  Mg3  1  0.17231215  0.17231215  0.15434003  1
  Mg  Mg4  1  0.82485946  0.82485946  0.32847728  1
loop_
_geom_bond_atom_site_label_1
_geom_bond_atom_site_label_2
_geom_bond_distance
_geom_bond_site_symmetry_2
Ho0 Mg1 3.221189 1_545
Ho0 Mg1 3.221189 1_455
Ho0 Mg3 3.221189 1_655
Ho0 Mg3 3.221189 1_565
Ho0 Mg4 3.258675 1_455
Ho0 Mg0 3.258675 1_655
Ho0 Mg4 3.258675 1_545
Ho0 Mg0 3.258675 1_565
Ho0 Mg2 3.525980 1_555
Ho0 Mg2 3.525980 1_556
Ho0 Mg0 3.641010 1_555
Ho0 Mg4 3.641010 1_555
Mg0 Mg1 3.075482 1_545
Mg0 Mg1 3.075482 1_455
Mg0 Mg4 3.113921 1_545
Mg0 Mg4 3.113921 1_455
Mg0 Mg2 3.168652 1_456
Mg0 Mg2 3.168652 1_546
Mg0 Mg3 3.394694 1_556
Mg1 Mg3 2.999359 1_656
Mg1 Mg3 2.999359 1_566
Mg1 Mg2 3.166670 1_656
Mg1 Mg2 3.166670 1_566
Mg1 Mg4 3.394694 1_556
Mg2 Mg3 3.166670 1_565
Mg2 Mg3 3.166670 1_655
Mg2 Mg4 3.168652 1_545
Mg2 Mg4 3.168652 1_455
Mg3 Mg4 3.075482 1_455
Mg3 Mg4 3.075482 1_545
