# generated using pymatgen
data_Ta4Mn2Zn3O16
_symmetry_space_group_name_H-M   'P 1'
_cell_length_a   5.92332621
_cell_length_b   10.09125173
_cell_length_c   10.41710811
_cell_angle_alpha   89.54684095
_cell_angle_beta   92.37668657
_cell_angle_gamma   104.75311465
_symmetry_Int_Tables_number   1
_chemical_formula_structural   Ta4Mn2Zn3O16
_chemical_formula_sum   'Ta8 Mn4 Zn6 O32'
_cell_volume   601.62152966
_cell_formula_units_Z   2
loop_
 _symmetry_equiv_pos_site_id
 _symmetry_equiv_pos_as_xyz
  1  'x, y, z'
loop_
 _atom_site_type_symbol
 _atom_site_label
 _atom_site_symmetry_multiplicity
 _atom_site_fract_x
 _atom_site_fract_y
 _atom_site_fract_z
 _atom_site_occupancy
  Ta  Ta0  1  0.27788100  0.22977400  0.37024900  1
  Ta  Ta1  1  0.27799300  0.22973500  0.87018900  1
  Ta  Ta2  1  0.04476600  0.76552100  0.38836300  1
  Ta  Ta3  1  0.04489000  0.76553700  0.88840000  1
  Ta  Ta4  1  0.72972400  0.76477400  0.12888400  1
  Ta  Ta5  1  0.72971800  0.76472400  0.62884400  1
  Ta  Ta6  1  0.95711100  0.23821600  0.11777100  1
  Ta  Ta7  1  0.95708400  0.23820400  0.61784500  1
  Mn  Mn0  1  0.65031900  0.99955800  0.87384800  1
  Mn  Mn1  1  0.35335100  0.99688500  0.12796300  1
  Mn  Mn2  1  0.65026800  0.99964500  0.37386400  1
  Mn  Mn3  1  0.35295400  0.99665600  0.62800400  1
  Zn  Zn0  1  0.44022900  0.57114300  0.38340600  1
  Zn  Zn1  1  0.44032100  0.57117000  0.88341500  1
  Zn  Zn2  1  0.88319200  0.44711300  0.35752400  1
  Zn  Zn3  1  0.88325100  0.44713900  0.85752700  1
  Zn  Zn4  1  0.54375300  0.43980200  0.11471600  1
  Zn  Zn5  1  0.54375400  0.43979000  0.61472100  1
  O  O0  1  0.21057900  0.13231700  0.03743700  1
  O  O1  1  0.21043100  0.13227300  0.53741500  1
  O  O2  1  0.03729000  0.86515900  0.22263900  1
  O  O3  1  0.03726100  0.86513400  0.72266200  1
  O  O4  1  0.80051400  0.87226800  0.46174300  1
  O  O5  1  0.80059500  0.87221900  0.96172800  1
  O  O6  1  0.97181100  0.13457500  0.28048600  1
  O  O7  1  0.97184600  0.13456100  0.78049100  1
  O  O8  1  0.44302800  0.10790800  0.29068900  1
  O  O9  1  0.44294400  0.10776200  0.79067100  1
  O  O10  1  0.31225400  0.88824000  0.47093000  1
  O  O11  1  0.31238500  0.88828300  0.97097300  1
  O  O12  1  0.56095300  0.89326800  0.21107200  1
  O  O13  1  0.56082000  0.89314100  0.71100800  1
  O  O14  1  0.70302800  0.11373800  0.02818500  1
  O  O15  1  0.70289800  0.11378000  0.52825800  1
  O  O16  1  0.27233500  0.34412000  0.21214700  1
  O  O17  1  0.27235000  0.34409900  0.71215500  1
  O  O18  1  0.92738700  0.66459500  0.04158100  1
  O  O19  1  0.92735700  0.66458400  0.54154100  1
  O  O20  1  0.80094900  0.36457700  0.18164800  1
  O  O21  1  0.80095100  0.36459600  0.68168900  1
  O  O22  1  0.47214600  0.61788700  0.07007900  1
  O  O23  1  0.47207500  0.61785200  0.57007000  1
  O  O24  1  0.15234800  0.61309400  0.33241500  1
  O  O25  1  0.15241000  0.61310800  0.83244000  1
  O  O26  1  0.55005900  0.38601500  0.42482800  1
  O  O27  1  0.55009500  0.38599200  0.92482200  1
  O  O28  1  0.07505800  0.34131600  0.45962100  1
  O  O29  1  0.07508600  0.34128000  0.95960100  1
  O  O30  1  0.72220900  0.65286300  0.29102000  1
  O  O31  1  0.72227700  0.65284100  0.79101900  1
loop_
_geom_bond_atom_site_label_1
_geom_bond_atom_site_label_2
_geom_bond_distance
_geom_bond_site_symmetry_2
Mn0 O5 1.943712 1_555
Mn0 O14 1.953045 1_566
Mn0 O13 1.994003 1_555
Mn0 O9 2.007922 1_565
Mn0 O7 2.289132 1_565
Mn0 O11 2.301428 1_555
Mn1 O11 1.947925 1_554
Mn1 O12 1.976680 1_555
Mn1 O0 1.993589 1_565
Mn1 O8 2.015715 1_565
Mn1 O2 2.260419 1_555
Mn1 O14 2.382468 1_565
Mn2 O4 1.943897 1_555
Mn2 O15 1.953292 1_565
Mn2 O12 1.993287 1_555
Mn2 O8 2.007743 1_565
Mn2 O6 2.289018 1_565
Mn2 O10 2.301845 1_555
Mn3 O10 1.947736 1_555
Mn3 O13 1.976686 1_555
Mn3 O1 1.994506 1_565
Mn3 O9 2.015780 1_565
Mn3 O3 2.258044 1_555
Mn3 O15 2.384256 1_565
O0 Ta1 1.997988 1_554
O0 Ta6 2.243205 1_455
O1 Ta0 1.997627 1_555
O1 Ta7 2.243242 1_455
O2 Ta2 1.995533 1_555
O2 Ta4 2.056014 1_455
O3 Ta3 1.995554 1_555
O3 Ta5 2.056272 1_455
O4 Ta5 2.045133 1_555
O4 Ta2 2.176325 1_655
O5 Ta4 2.045199 1_556
O5 Ta3 2.175885 1_655
O6 Ta6 1.995147 1_555
O6 Ta0 2.017578 1_655
O7 Ta7 1.994603 1_555
O7 Ta1 2.017569 1_655
O8 Ta0 1.962707 1_555
O9 Ta1 1.962544 1_555
O10 Ta2 1.920487 1_555
O11 Ta3 1.920659 1_555
O12 Ta4 2.040212 1_555
O13 Ta5 2.040012 1_555
O14 Ta6 1.911301 1_555
O15 Ta7 1.911421 1_555
O16 Zn4 1.968839 1_555
O16 Ta0 2.007437 1_555
O16 Ta6 2.107860 1_455
O17 Zn5 1.968822 1_555
O17 Ta1 2.007038 1_555
O17 Ta7 2.107719 1_455
O18 Ta3 1.942581 1_654
O18 Ta4 1.981308 1_555
O19 Ta2 1.942389 1_655
O19 Ta5 1.980942 1_555
O20 Ta6 1.894620 1_555
O20 Zn4 1.968717 1_555
O20 Zn2 2.007773 1_555
O21 Ta7 1.894625 1_555
O21 Zn5 1.968661 1_555
O21 Zn3 2.007473 1_555
O22 Ta4 1.919696 1_555
O22 Zn1 1.994417 1_554
O22 Zn4 1.996079 1_555
O23 Ta5 1.919740 1_555
O23 Zn0 1.994398 1_555
O23 Zn5 1.996074 1_555
O24 Ta2 1.912055 1_555
O24 Zn0 1.912616 1_555
O24 Zn2 2.020715 1_455
O25 Ta3 1.911911 1_555
O25 Zn1 1.912684 1_555
O25 Zn3 2.020614 1_455
O26 Ta0 2.012924 1_555
O26 Zn5 2.059690 1_555
O26 Zn2 2.062451 1_555
O26 Zn0 2.163896 1_555
O27 Ta1 2.012896 1_555
O27 Zn4 2.059825 1_556
O27 Zn3 2.062564 1_555
O27 Zn1 2.164172 1_555
O28 Ta7 1.996440 1_455
O28 Zn2 2.015521 1_455
O28 Ta0 2.091681 1_555
O29 Ta6 1.995765 1_456
O29 Zn3 2.015695 1_455
O29 Ta1 2.092262 1_555
O30 Zn0 1.953274 1_555
O30 Ta4 2.020023 1_555
O30 Ta2 2.173114 1_655
O31 Zn1 1.953120 1_555
O31 Ta5 2.020244 1_555
O31 Ta3 2.173643 1_655
