# generated using pymatgen
data_NiH14C2N10(ClO3)2
_symmetry_space_group_name_H-M   'P 1'
_cell_length_a   7.96411700
_cell_length_b   13.22672500
_cell_length_c   8.09781939
_cell_angle_alpha   90.00000000
_cell_angle_beta   118.93344481
_cell_angle_gamma   90.00000000
_symmetry_Int_Tables_number   1
_chemical_formula_structural   NiH14C2N10(ClO3)2
_chemical_formula_sum   'Ni2 H28 C4 N20 Cl4 O12'
_cell_volume   746.54597018
_cell_formula_units_Z   2
loop_
 _symmetry_equiv_pos_site_id
 _symmetry_equiv_pos_as_xyz
  1  'x, y, z'
loop_
 _atom_site_type_symbol
 _atom_site_label
 _atom_site_symmetry_multiplicity
 _atom_site_fract_x
 _atom_site_fract_y
 _atom_site_fract_z
 _atom_site_occupancy
  Ni  Ni0  1  0.00000000  0.00000000  0.50000000  1
  Ni  Ni1  1  0.00000000  0.50000000  0.00000000  1
  H  H0  1  0.28144700  0.86805800  0.65323300  1
  H  H1  1  0.28144700  0.63194200  0.15323300  1
  H  H2  1  0.71855300  0.13194200  0.34676700  1
  H  H3  1  0.71855300  0.36805800  0.84676700  1
  H  H4  1  0.25955000  0.05621000  0.09690300  1
  H  H5  1  0.25955000  0.44379000  0.59690300  1
  H  H6  1  0.74045000  0.94379000  0.90309700  1
  H  H7  1  0.74045000  0.55621000  0.40309700  1
  H  H8  1  0.10258300  0.81643100  0.46484000  1
  H  H9  1  0.10258300  0.68356900  0.96484000  1
  H  H10  1  0.89741700  0.18356900  0.53516000  1
  H  H11  1  0.89741700  0.31643100  0.03516000  1
  H  H12  1  0.36093500  0.84593700  0.40012900  1
  H  H13  1  0.36093500  0.65406300  0.90012900  1
  H  H14  1  0.63906500  0.15406300  0.59987100  1
  H  H15  1  0.63906500  0.34593700  0.09987100  1
  H  H16  1  0.39956400  0.21216700  0.64667000  1
  H  H17  1  0.39956400  0.28783300  0.14667000  1
  H  H18  1  0.60043600  0.78783300  0.35333000  1
  H  H19  1  0.60043600  0.71216700  0.85333000  1
  H  H20  1  0.41829000  0.95301400  0.20162600  1
  H  H21  1  0.41829000  0.54698600  0.70162600  1
  H  H22  1  0.58171000  0.04698600  0.79837400  1
  H  H23  1  0.58171000  0.45301400  0.29837400  1
  H  H24  1  0.41974900  0.28984200  0.50896300  1
  H  H25  1  0.41974900  0.21015800  0.00896300  1
  H  H26  1  0.58025100  0.71015800  0.49103700  1
  H  H27  1  0.58025100  0.78984200  0.99103700  1
  C  C0  1  0.22161900  0.98233500  0.29336500  1
  C  C1  1  0.22161900  0.51766500  0.79336500  1
  C  C2  1  0.77838100  0.01766500  0.70663500  1
  C  C3  1  0.77838100  0.48233500  0.20663500  1
  N  N0  1  0.18060900  0.88204600  0.51602000  1
  N  N1  1  0.18060900  0.61795400  0.01602000  1
  N  N2  1  0.81939100  0.11795400  0.48398000  1
  N  N3  1  0.81939100  0.38204600  0.98398000  1
  N  N4  1  0.27532500  0.90257000  0.41080300  1
  N  N5  1  0.27532500  0.59743000  0.91080300  1
  N  N6  1  0.72467500  0.09743000  0.58919700  1
  N  N7  1  0.72467500  0.40257000  0.08919700  1
  N  N8  1  0.30330700  0.99550400  0.18542000  1
  N  N9  1  0.30330700  0.50449600  0.68542000  1
  N  N10  1  0.69669300  0.00449600  0.81458000  1
  N  N11  1  0.69669300  0.49550400  0.31458000  1
  N  N12  1  0.08615500  0.04330600  0.30038100  1
  N  N13  1  0.08615500  0.45669400  0.80038100  1
  N  N14  1  0.91384500  0.95669400  0.69961900  1
  N  N15  1  0.91384500  0.54330600  0.19961900  1
  N  N16  1  0.02448800  0.12724200  0.19176200  1
  N  N17  1  0.02448800  0.37275800  0.69176200  1
  N  N18  1  0.97551200  0.87275800  0.80823800  1
  N  N19  1  0.97551200  0.62724200  0.30823800  1
  Cl  Cl0  1  0.71365300  0.90490900  0.24266100  1
  Cl  Cl1  1  0.71365300  0.59509100  0.74266100  1
  Cl  Cl2  1  0.28634700  0.09509100  0.75733900  1
  Cl  Cl3  1  0.28634700  0.40490900  0.25733900  1
  O  O0  1  0.90733000  0.18067700  0.21358000  1
  O  O1  1  0.90733000  0.31932300  0.71358000  1
  O  O2  1  0.09267000  0.81932300  0.78642000  1
  O  O3  1  0.09267000  0.68067700  0.28642000  1
  O  O4  1  0.07920200  0.15034000  0.07455000  1
  O  O5  1  0.07920200  0.34966000  0.57455000  1
  O  O6  1  0.92079800  0.84966000  0.92545000  1
  O  O7  1  0.92079800  0.65034000  0.42545000  1
  O  O8  1  0.49415500  0.24798500  0.62150400  1
  O  O9  1  0.49415500  0.25201500  0.12150400  1
  O  O10  1  0.50584500  0.75201500  0.37849600  1
  O  O11  1  0.50584500  0.74798500  0.87849600  1
loop_
_geom_bond_atom_site_label_1
_geom_bond_atom_site_label_2
_geom_bond_distance
_geom_bond_site_symmetry_2
H0 N0 1.024877 1_555
H1 N1 1.024877 1_555
H2 N2 1.024877 1_555
H3 N3 1.024877 1_555
H4 N8 1.018948 1_545
H5 N9 1.018948 1_555
H6 N10 1.018948 1_565
H7 N11 1.018948 1_555
H8 N0 1.030496 1_555
H9 N1 1.030496 1_556
H10 N2 1.030496 1_555
H11 N3 1.030496 1_554
H12 N4 1.044251 1_555
H13 N5 1.044251 1_555
H14 N6 1.044251 1_555
H15 N7 1.044251 1_555
H16 O8 0.990975 1_555
H17 O9 0.990975 1_555
H18 O10 0.990975 1_555
H19 O11 0.990975 1_555
H20 N8 1.027310 1_555
H21 N9 1.027310 1_555
H22 N10 1.027310 1_555
H23 N11 1.027310 1_555
H24 O8 0.982678 1_555
H25 O9 0.982678 1_555
H26 O10 0.982678 1_555
H27 O11 0.982678 1_555
C0 N8 1.329629 1_555
C0 N4 1.344189 1_555
C0 N12 1.369968 1_565
C1 N9 1.329629 1_555
C1 N5 1.344189 1_555
C1 N13 1.369968 1_555
C2 N10 1.329629 1_555
C2 N6 1.344189 1_555
C2 N14 1.369968 1_545
C3 N11 1.329629 1_555
C3 N7 1.344189 1_555
C3 N15 1.369968 1_555
N0 N4 1.410863 1_555
N0 Ni0 2.083099 1_565
N1 N5 1.410863 1_554
N1 Ni1 2.083099 1_555
N2 N6 1.410863 1_555
N2 Ni0 2.083099 1_655
N3 N7 1.410863 1_556
N3 Ni1 2.083099 1_656
N12 N16 1.352560 1_555
N12 Ni0 2.117804 1_555
N13 N17 1.352560 1_555
N13 Ni1 2.117804 1_556
N14 N18 1.352560 1_555
N14 Ni0 2.117804 1_665
N15 N19 1.352560 1_555
N15 Ni1 2.117804 1_655
N16 O0 1.249339 1_455
N16 O4 1.258694 1_555
N17 O1 1.249339 1_455
N17 O5 1.258694 1_555
N18 O2 1.249339 1_655
N18 O6 1.258694 1_555
N19 O3 1.249339 1_655
N19 O7 1.258694 1_555
Cl0 Ni0 2.554782 1_665
Cl1 Ni1 2.554782 1_656
Cl2 Ni0 2.554782 1_555
Cl3 Ni1 2.554782 1_555
