# generated using pymatgen
data_LaMg6Ti
_symmetry_space_group_name_H-M   'P 1'
_cell_length_a   5.16898600
_cell_length_b   6.62888100
_cell_length_c   11.44498400
_cell_angle_alpha   90.00000000
_cell_angle_beta   90.00000000
_cell_angle_gamma   90.00000000
_symmetry_Int_Tables_number   1
_chemical_formula_structural   LaMg6Ti
_chemical_formula_sum   'La2 Mg12 Ti2'
_cell_volume   392.15771962
_cell_formula_units_Z   2
loop_
 _symmetry_equiv_pos_site_id
 _symmetry_equiv_pos_as_xyz
  1  'x, y, z'
loop_
 _atom_site_type_symbol
 _atom_site_label
 _atom_site_symmetry_multiplicity
 _atom_site_fract_x
 _atom_site_fract_y
 _atom_site_fract_z
 _atom_site_occupancy
  La  La0  1  0.50000000  0.50000000  0.16991300  1
  La  La1  1  0.50000000  0.00000000  0.66991300  1
  Mg  Mg0  1  0.00000000  0.24176200  0.08055500  1
  Mg  Mg1  1  0.00000000  0.75823800  0.08055500  1
  Mg  Mg2  1  0.00000000  0.50000000  0.83447400  1
  Mg  Mg3  1  0.50000000  0.23851700  0.91652100  1
  Mg  Mg4  1  0.50000000  0.76148300  0.91652100  1
  Mg  Mg5  1  0.50000000  0.50000000  0.66395100  1
  Mg  Mg6  1  0.00000000  0.74176200  0.58055500  1
  Mg  Mg7  1  0.00000000  0.25823800  0.58055500  1
  Mg  Mg8  1  0.00000000  0.00000000  0.33447400  1
  Mg  Mg9  1  0.50000000  0.73851700  0.41652100  1
  Mg  Mg10  1  0.50000000  0.26148300  0.41652100  1
  Mg  Mg11  1  0.50000000  0.00000000  0.16395100  1
  Ti  Ti0  1  0.00000000  0.50000000  0.33751100  1
  Ti  Ti1  1  0.00000000  0.00000000  0.83751100  1
loop_
_geom_bond_atom_site_label_1
_geom_bond_atom_site_label_2
_geom_bond_distance
_geom_bond_site_symmetry_2
La0 Ti0 3.218529 1_555
La0 Ti0 3.218529 1_655
La0 Mg9 3.235114 1_555
La0 Mg10 3.235114 1_555
La0 Mg1 3.264334 1_555
La0 Mg1 3.264334 1_655
La0 Mg0 3.264334 1_655
La0 Mg0 3.264334 1_555
La0 Mg11 3.315143 1_555
La0 Mg11 3.315143 1_565
La0 Mg4 3.378588 1_554
La0 Mg3 3.378588 1_554
La1 Ti1 3.218529 1_555
La1 Ti1 3.218529 1_655
La1 Mg3 3.235114 1_555
La1 Mg4 3.235114 1_545
La1 Mg7 3.264334 1_655
La1 Mg7 3.264334 1_555
La1 Mg6 3.264334 1_545
La1 Mg6 3.264334 1_645
La1 Mg5 3.315143 1_545
La1 Mg5 3.315143 1_555
La1 Mg10 3.378588 1_555
La1 Mg9 3.378588 1_545
Mg0 Mg11 3.187314 1_555
Mg0 Mg11 3.187314 1_455
Mg0 Mg3 3.194460 1_554
Mg0 Mg3 3.194460 1_454
Mg0 Mg1 3.205223 1_545
Mg0 Ti1 3.210273 1_554
Mg0 Mg2 3.295820 1_554
Mg0 Mg8 3.318701 1_555
Mg0 Ti0 3.402793 1_555
Mg0 Mg1 3.423658 1_555
Mg1 Mg11 3.187314 1_465
Mg1 Mg11 3.187314 1_565
Mg1 Mg4 3.194460 1_554
Mg1 Mg4 3.194460 1_454
Mg1 Ti1 3.210273 1_564
Mg1 Mg2 3.295820 1_554
Mg1 Mg8 3.318701 1_565
Mg1 Ti0 3.402793 1_555
Mg2 Mg5 3.238592 1_455
Mg2 Mg5 3.238592 1_555
Mg2 Mg4 3.250514 1_455
Mg2 Mg4 3.250514 1_555
Mg2 Mg3 3.250514 1_555
Mg2 Mg3 3.250514 1_455
Mg2 Ti1 3.314623 1_555
Mg2 Ti1 3.314623 1_565
Mg2 Mg6 3.318701 1_555
Mg2 Mg7 3.318701 1_555
Mg3 Ti1 3.161833 1_555
Mg3 Ti1 3.161833 1_655
Mg3 Mg4 3.162202 1_545
Mg3 Mg5 3.370516 1_555
Mg3 Mg4 3.466679 1_555
Mg4 Ti1 3.161833 1_565
Mg4 Ti1 3.161833 1_665
Mg4 Mg5 3.370516 1_555
Mg5 Mg6 3.187314 1_655
Mg5 Mg6 3.187314 1_555
Mg5 Mg7 3.187314 1_655
Mg5 Mg7 3.187314 1_555
Mg5 Mg9 3.243325 1_555
Mg6 Mg9 3.194460 1_455
Mg6 Mg9 3.194460 1_555
Mg6 Mg7 3.205223 1_555
Mg6 Ti0 3.210273 1_555
Mg6 Mg8 3.295820 1_565
Mg6 Ti1 3.402793 1_565
Mg6 Mg7 3.423658 1_565
Mg7 Ti0 3.210273 1_555
Mg7 Mg8 3.295820 1_555
Mg7 Ti1 3.402793 1_555
Mg8 Mg9 3.250514 1_545
Mg8 Mg9 3.250514 1_445
Mg8 Ti0 3.314623 1_545
Mg8 Ti0 3.314623 1_555
Mg9 Ti0 3.161833 1_655
Mg9 Ti0 3.161833 1_555
Mg10 Ti0 3.161833 1_655
Mg10 Ti0 3.161833 1_555
Mg10 Mg9 3.162202 1_555
Mg10 Mg7 3.194460 1_655
Mg10 Mg7 3.194460 1_555
Mg10 Mg5 3.243325 1_555
Mg10 Mg8 3.250514 1_555
Mg10 Mg8 3.250514 1_655
Mg10 Mg11 3.370516 1_555
Mg10 Mg9 3.466679 1_545
Mg11 Mg8 3.238592 1_555
Mg11 Mg8 3.238592 1_655
Mg11 Mg3 3.243325 1_554
Mg11 Mg4 3.243325 1_544
Mg11 Mg9 3.370516 1_545
