# generated using pymatgen
data_Li4NbCr(TeO6)2
_symmetry_space_group_name_H-M   'P 1'
_cell_length_a   7.50125561
_cell_length_b   8.97363922
_cell_length_c   7.50379729
_cell_angle_alpha   113.50245972
_cell_angle_beta   92.92139223
_cell_angle_gamma   66.61039268
_symmetry_Int_Tables_number   1
_chemical_formula_structural   Li4NbCr(TeO6)2
_chemical_formula_sum   'Li8 Nb2 Cr2 Te4 O24'
_cell_volume   421.67022992
_cell_formula_units_Z   2
loop_
 _symmetry_equiv_pos_site_id
 _symmetry_equiv_pos_as_xyz
  1  'x, y, z'
loop_
 _atom_site_type_symbol
 _atom_site_label
 _atom_site_symmetry_multiplicity
 _atom_site_fract_x
 _atom_site_fract_y
 _atom_site_fract_z
 _atom_site_occupancy
  Li  Li0  1  0.08054800  0.26609100  0.91852800  1
  Li  Li1  1  0.58065800  0.26620400  0.41849200  1
  Li  Li2  1  0.31918900  0.80096900  0.17968300  1
  Li  Li3  1  0.81953600  0.80110100  0.68041700  1
  Li  Li4  1  0.30024300  0.80601700  0.69572900  1
  Li  Li5  1  0.80036700  0.80591200  0.19544100  1
  Li  Li6  1  0.61819500  0.24888800  0.88517700  1
  Li  Li7  1  0.11780100  0.24888300  0.38470900  1
  Nb  Nb0  1  0.24753400  0.50620900  0.25405600  1
  Nb  Nb1  1  0.74753400  0.50625900  0.75404600  1
  Cr  Cr0  1  0.99571400  0.00031300  0.00396200  1
  Cr  Cr1  1  0.49561000  0.00042500  0.50419500  1
  Te  Te0  1  0.24836100  0.50020200  0.75272700  1
  Te  Te1  1  0.74841000  0.50019100  0.25277100  1
  Te  Te2  1  0.99955400  0.00267400  0.50215600  1
  Te  Te3  1  0.49965500  0.00272400  0.00217100  1
  O  O0  1  0.53258100  0.43070400  0.77293100  1
  O  O1  1  0.03268700  0.43075100  0.27297800  1
  O  O2  1  0.19945700  0.74035300  0.92599900  1
  O  O3  1  0.70002400  0.74003000  0.42621200  1
  O  O4  1  0.04412600  0.04998200  0.28110400  1
  O  O5  1  0.54558500  0.04970200  0.78174900  1
  O  O6  1  0.22197400  0.43017400  0.96033300  1
  O  O7  1  0.72191100  0.43020300  0.46036800  1
  O  O8  1  0.27846200  0.92698200  0.51602200  1
  O  O9  1  0.77911400  0.92715800  0.01645500  1
  O  O10  1  0.06576300  0.74999200  0.30707100  1
  O  O11  1  0.56579000  0.74997200  0.80707000  1
  O  O12  1  0.94228600  0.24897200  0.68153600  1
  O  O13  1  0.44231900  0.24906200  0.18166000  1
  O  O14  1  0.73042900  0.05206900  0.46089500  1
  O  O15  1  0.23032200  0.05213400  0.96068900  1
  O  O16  1  0.79032800  0.55736600  0.03135800  1
  O  O17  1  0.29031900  0.55749100  0.53139000  1
  O  O18  1  0.98194700  0.93310100  0.71076500  1
  O  O19  1  0.48153300  0.93282100  0.21005100  1
  O  O20  1  0.82148500  0.25946000  0.05662600  1
  O  O21  1  0.32092800  0.25989200  0.55626300  1
  O  O22  1  0.47414500  0.56046400  0.20988400  1
  O  O23  1  0.97398400  0.56049900  0.70992200  1
loop_
_geom_bond_atom_site_label_1
_geom_bond_atom_site_label_2
_geom_bond_distance
_geom_bond_site_symmetry_2
Li0 O15 1.945306 1_555
Li0 O12 1.995584 1_455
Li0 O6 2.056642 1_555
Li0 O20 2.280359 1_456
Li0 O1 2.434744 1_556
Li0 O16 2.488602 1_456
Li1 O14 1.947573 1_555
Li1 O13 1.994860 1_555
Li1 O7 2.054881 1_555
Li1 O21 2.281988 1_555
Li1 O0 2.434452 1_555
Li1 O17 2.489070 1_555
Li2 O19 1.958453 1_555
Li2 O2 2.028290 1_554
Li2 O22 2.105181 1_555
Li2 O4 2.229969 1_565
Li2 O8 2.295601 1_555
Li2 O10 2.441572 1_555
Li3 O18 1.959975 1_555
Li3 O3 2.030912 1_555
Li3 O23 2.102846 1_555
Li3 O5 2.223592 1_565
Li3 O9 2.293563 1_556
Li3 O11 2.441774 1_555
Li4 O8 2.006891 1_555
Li4 O11 2.070960 1_555
Li4 O17 2.104502 1_555
Li4 O18 2.185629 1_455
Li4 O15 2.188647 1_565
Li4 O2 2.281080 1_555
Li5 O9 2.004743 1_555
Li5 O10 2.070958 1_655
Li5 O16 2.104711 1_555
Li5 O19 2.189431 1_555
Li5 O14 2.190753 1_565
Li5 O3 2.284166 1_555
Li6 O5 1.928039 1_555
Li6 O20 1.951175 1_556
Li6 O0 1.998199 1_555
Li7 O4 1.930862 1_555
Li7 O21 1.951089 1_555
Li7 O1 1.995872 1_555
Nb0 O10 1.948338 1_555
Nb0 O17 1.982660 1_555
Nb0 O1 2.010582 1_555
Nb0 O22 2.019821 1_555
Nb0 O13 2.039346 1_555
Nb0 O6 2.054619 1_554
Nb1 O11 1.947791 1_555
Nb1 O16 1.982710 1_556
Nb1 O0 2.011855 1_555
Nb1 O23 2.018484 1_555
Nb1 O12 2.040081 1_555
Nb1 O7 2.054372 1_555
Cr0 O4 1.991882 1_655
Cr0 O9 1.997768 1_545
Cr0 O20 2.044205 1_555
Cr0 O18 2.045185 1_544
Cr0 O15 2.060876 1_654
Cr0 O2 2.071692 1_644
Cr1 O5 1.997808 1_555
Cr1 O8 2.002299 1_545
Cr1 O21 2.048218 1_555
Cr1 O19 2.051839 1_545
Cr1 O14 2.061445 1_555
Cr1 O3 2.076022 1_545
O0 Te0 1.985993 1_555
O1 Te1 1.986443 1_455
O2 Te0 1.911910 1_555
O3 Te1 1.910895 1_555
O4 Te2 1.942742 1_455
O5 Te3 1.939502 1_556
O6 Te0 1.942136 1_555
O7 Te1 1.942056 1_555
O8 Te2 1.937840 1_465
O9 Te3 1.942216 1_565
O10 Te2 2.015847 1_465
O11 Te3 2.016436 1_566
O12 Te2 1.952845 1_555
O13 Te3 1.953227 1_555
O14 Te2 1.924337 1_555
O15 Te3 1.926133 1_556
O16 Te1 1.995922 1_555
O17 Te0 1.996142 1_555
O18 Te2 1.929658 1_565
O19 Te3 1.927423 1_565
O20 Te1 1.933791 1_555
O21 Te0 1.932402 1_555
O22 Te1 1.953607 1_555
O23 Te0 1.954239 1_655
