# generated using pymatgen
data_CrH6CN3ClO3
_symmetry_space_group_name_H-M   'P 1'
_cell_length_a   6.29254300
_cell_length_b   7.39300500
_cell_length_c   16.06065600
_cell_angle_alpha   90.00000000
_cell_angle_beta   90.00000000
_cell_angle_gamma   90.00000000
_symmetry_Int_Tables_number   1
_chemical_formula_structural   CrH6CN3ClO3
_chemical_formula_sum   'Cr4 H24 C4 N12 Cl4 O12'
_cell_volume   747.15459555
_cell_formula_units_Z   4
loop_
 _symmetry_equiv_pos_site_id
 _symmetry_equiv_pos_as_xyz
  1  'x, y, z'
loop_
 _atom_site_type_symbol
 _atom_site_label
 _atom_site_symmetry_multiplicity
 _atom_site_fract_x
 _atom_site_fract_y
 _atom_site_fract_z
 _atom_site_occupancy
  Cr  Cr0  1  0.36520300  0.25000000  0.35680500  1
  Cr  Cr1  1  0.63479700  0.75000000  0.64319500  1
  Cr  Cr2  1  0.13479700  0.75000000  0.85680500  1
  Cr  Cr3  1  0.86520300  0.25000000  0.14319500  1
  H  H0  1  0.23600000  0.09211300  0.56911900  1
  H  H1  1  0.76400000  0.90788700  0.43088100  1
  H  H2  1  0.26400000  0.90788700  0.06911900  1
  H  H3  1  0.76400000  0.59211300  0.43088100  1
  H  H4  1  0.73600000  0.09211300  0.93088100  1
  H  H5  1  0.23600000  0.40788700  0.56911900  1
  H  H6  1  0.73600000  0.40788700  0.93088100  1
  H  H7  1  0.26400000  0.59211300  0.06911900  1
  H  H8  1  0.03866400  0.97123700  0.62102500  1
  H  H9  1  0.96133600  0.02876300  0.37897500  1
  H  H10  1  0.46133600  0.02876300  0.12102500  1
  H  H11  1  0.96133600  0.47123700  0.37897500  1
  H  H12  1  0.53866400  0.97123700  0.87897500  1
  H  H13  1  0.03866400  0.52876300  0.62102500  1
  H  H14  1  0.53866400  0.52876300  0.87897500  1
  H  H15  1  0.46133600  0.47123700  0.12102500  1
  H  H16  1  0.23037000  0.63162700  0.30721000  1
  H  H17  1  0.76963000  0.36837300  0.69279000  1
  H  H18  1  0.26963000  0.36837300  0.80721000  1
  H  H19  1  0.76963000  0.13162700  0.69279000  1
  H  H20  1  0.73037000  0.63162700  0.19279000  1
  H  H21  1  0.23037000  0.86837300  0.30721000  1
  H  H22  1  0.73037000  0.86837300  0.19279000  1
  H  H23  1  0.26963000  0.13162700  0.80721000  1
  C  C0  1  0.01805800  0.25000000  0.63012800  1
  C  C1  1  0.98194200  0.75000000  0.36987200  1
  C  C2  1  0.48194200  0.75000000  0.13012800  1
  C  C3  1  0.51805800  0.25000000  0.86987200  1
  N  N0  1  0.10459200  0.09323500  0.60561600  1
  N  N1  1  0.89540800  0.90676500  0.39438400  1
  N  N2  1  0.39540800  0.90676500  0.10561600  1
  N  N3  1  0.89540800  0.59323500  0.39438400  1
  N  N4  1  0.60459200  0.09323500  0.89438400  1
  N  N5  1  0.10459200  0.40676500  0.60561600  1
  N  N6  1  0.60459200  0.40676500  0.89438400  1
  N  N7  1  0.39540800  0.59323500  0.10561600  1
  N  N8  1  0.34754700  0.25000000  0.82016800  1
  N  N9  1  0.65245300  0.75000000  0.17983200  1
  N  N10  1  0.15245300  0.75000000  0.32016800  1
  N  N11  1  0.84754700  0.25000000  0.67983200  1
  Cl  Cl0  1  0.05016000  0.25000000  0.02686800  1
  Cl  Cl1  1  0.94984000  0.75000000  0.97313200  1
  Cl  Cl2  1  0.44984000  0.75000000  0.52686800  1
  Cl  Cl3  1  0.55016000  0.25000000  0.47313200  1
  O  O0  1  0.11284000  0.25000000  0.38193200  1
  O  O1  1  0.88716000  0.75000000  0.61806800  1
  O  O2  1  0.38716000  0.75000000  0.88193200  1
  O  O3  1  0.61284000  0.25000000  0.11806800  1
  O  O4  1  0.42551100  0.06882900  0.30524800  1
  O  O5  1  0.57448900  0.93117100  0.69475200  1
  O  O6  1  0.07448900  0.93117100  0.80524800  1
  O  O7  1  0.57448900  0.56882900  0.69475200  1
  O  O8  1  0.92551100  0.06882900  0.19475200  1
  O  O9  1  0.42551100  0.43117100  0.30524800  1
  O  O10  1  0.92551100  0.43117100  0.19475200  1
  O  O11  1  0.07448900  0.56882900  0.80524800  1
loop_
_geom_bond_atom_site_label_1
_geom_bond_atom_site_label_2
_geom_bond_distance
_geom_bond_site_symmetry_2
Cr0 O4 1.619768 1_555
Cr0 O9 1.619768 1_555
Cr0 O0 1.638480 1_555
Cr1 O5 1.619768 1_555
Cr1 O7 1.619768 1_555
Cr1 O1 1.638480 1_555
Cr2 O11 1.619768 1_555
Cr2 O6 1.619768 1_555
Cr2 O2 1.638480 1_555
Cr3 O8 1.619768 1_555
Cr3 O10 1.619768 1_555
Cr3 O3 1.638480 1_555
H0 N0 1.013611 1_555
H1 N1 1.013611 1_555
H2 N2 1.013611 1_555
H3 N3 1.013611 1_555
H4 N4 1.013611 1_555
H5 N5 1.013611 1_555
H6 N6 1.013611 1_555
H7 N7 1.013611 1_555
H8 N0 1.023148 1_565
H9 N1 1.023148 1_545
H10 N2 1.023148 1_545
H11 N3 1.023148 1_555
H12 N4 1.023148 1_565
H13 N5 1.023148 1_555
H14 N6 1.023148 1_555
H15 N7 1.023148 1_555
H16 N10 1.024479 1_555
H17 N11 1.024479 1_555
H18 N8 1.024479 1_555
H19 N11 1.024479 1_555
H20 N9 1.024479 1_555
H21 N10 1.024479 1_555
H22 N9 1.024479 1_555
H23 N8 1.024479 1_555
C0 N11 1.337335 1_455
C0 N0 1.339658 1_555
C0 N5 1.339658 1_555
C1 N10 1.337335 1_655
C1 N3 1.339658 1_555
C1 N1 1.339658 1_555
C2 N9 1.337335 1_555
C2 N2 1.339658 1_555
C2 N7 1.339658 1_555
C3 N8 1.337335 1_555
C3 N6 1.339658 1_555
C3 N4 1.339658 1_555
Cl0 Cr3 2.201147 1_455
Cl1 Cr2 2.201147 1_655
Cl2 Cr1 2.201147 1_555
Cl3 Cr0 2.201147 1_555
