# generated using pymatgen
data_Sr3LaTa2(CoO6)2
_symmetry_space_group_name_H-M   'P 1'
_cell_length_a   5.68882000
_cell_length_b   5.69275600
_cell_length_c   15.99215700
_cell_angle_alpha   90.00000000
_cell_angle_beta   90.00000000
_cell_angle_gamma   90.00000000
_symmetry_Int_Tables_number   1
_chemical_formula_structural   Sr3LaTa2(CoO6)2
_chemical_formula_sum   'Sr6 La2 Ta4 Co4 O24'
_cell_volume   517.90703095
_cell_formula_units_Z   2
loop_
 _symmetry_equiv_pos_site_id
 _symmetry_equiv_pos_as_xyz
  1  'x, y, z'
loop_
 _atom_site_type_symbol
 _atom_site_label
 _atom_site_symmetry_multiplicity
 _atom_site_fract_x
 _atom_site_fract_y
 _atom_site_fract_z
 _atom_site_occupancy
  Sr  Sr0  1  0.50000000  0.50000000  0.62479100  1
  Sr  Sr1  1  0.50000000  0.50000000  0.12652100  1
  Sr  Sr2  1  0.00000000  0.00000000  0.12936500  1
  Sr  Sr3  1  0.00000000  0.00000000  0.87407100  1
  Sr  Sr4  1  0.00000000  0.00000000  0.62291600  1
  Sr  Sr5  1  0.50000000  0.50000000  0.37543500  1
  La  La0  1  0.00000000  0.00000000  0.37115400  1
  La  La1  1  0.50000000  0.50000000  0.87627300  1
  Ta  Ta0  1  0.50000000  0.00000000  0.00330500  1
  Ta  Ta1  1  0.50000000  0.00000000  0.74945100  1
  Ta  Ta2  1  0.50000000  0.00000000  0.49635000  1
  Ta  Ta3  1  0.00000000  0.50000000  0.25019900  1
  Co  Co0  1  0.50000000  0.00000000  0.25051100  1
  Co  Co1  1  0.00000000  0.50000000  0.99572400  1
  Co  Co2  1  0.00000000  0.50000000  0.74898900  1
  Co  Co3  1  0.00000000  0.50000000  0.50294700  1
  O  O0  1  0.74109800  0.75141900  0.75281400  1
  O  O1  1  0.00000000  0.50000000  0.63473900  1
  O  O2  1  0.74946400  0.24258500  0.49971300  1
  O  O3  1  0.25053600  0.24258500  0.49971300  1
  O  O4  1  0.50000000  0.00000000  0.37628500  1
  O  O5  1  0.24154800  0.24793300  0.25482600  1
  O  O6  1  0.24154800  0.75206700  0.25482600  1
  O  O7  1  0.75845200  0.24793300  0.25482600  1
  O  O8  1  0.50000000  0.00000000  0.12301900  1
  O  O9  1  0.75845200  0.75206700  0.25482600  1
  O  O10  1  0.74091400  0.74922100  0.99298500  1
  O  O11  1  0.00000000  0.50000000  0.12705200  1
  O  O12  1  0.74091400  0.25077900  0.99298500  1
  O  O13  1  0.25908600  0.74922100  0.99298500  1
  O  O14  1  0.25908600  0.25077900  0.99298500  1
  O  O15  1  0.00000000  0.50000000  0.86490500  1
  O  O16  1  0.50000000  0.00000000  0.87400300  1
  O  O17  1  0.25890200  0.24858100  0.75281400  1
  O  O18  1  0.25890200  0.75141900  0.75281400  1
  O  O19  1  0.74109800  0.24858100  0.75281400  1
  O  O20  1  0.50000000  0.00000000  0.62545700  1
  O  O21  1  0.74946400  0.75741500  0.49971300  1
  O  O22  1  0.25053600  0.75741500  0.49971300  1
  O  O23  1  0.00000000  0.50000000  0.37518700  1
loop_
_geom_bond_atom_site_label_1
_geom_bond_atom_site_label_2
_geom_bond_distance
_geom_bond_site_symmetry_2
La0 O7 2.709460 1_455
La0 O9 2.709460 1_445
La0 O6 2.709460 1_545
La0 O5 2.709460 1_555
La0 O4 2.845593 1_555
La0 O4 2.845593 1_455
La0 O23 2.847109 1_555
La0 O23 2.847109 1_545
La0 O21 2.857502 1_445
La0 O2 2.857502 1_455
La0 O3 2.857502 1_555
La0 O22 2.857502 1_545
La1 O10 2.715679 1_555
La1 O12 2.715679 1_555
La1 O13 2.715679 1_555
La1 O14 2.715679 1_555
La1 O18 2.797833 1_555
La1 O0 2.797833 1_555
La1 O17 2.797833 1_555
La1 O19 2.797833 1_555
La1 O16 2.846609 1_565
La1 O16 2.846609 1_555
La1 O15 2.850214 1_655
La1 O15 2.850214 1_555
Co0 O4 2.011398 1_555
Co0 O8 2.038872 1_555
Co0 O9 2.039269 1_545
Co0 O6 2.039269 1_545
Co0 O5 2.039269 1_555
Co0 O7 2.039269 1_555
Co1 O14 2.046251 1_555
Co1 O13 2.046251 1_555
Co1 O10 2.046251 1_455
Co1 O12 2.046251 1_455
Co1 O15 2.092078 1_555
Co1 O11 2.100218 1_556
Co2 O1 1.827104 1_555
Co2 O15 1.853747 1_555
Co2 O0 2.054640 1_455
Co2 O17 2.054640 1_555
Co2 O18 2.054640 1_555
Co2 O19 2.054640 1_455
Co3 O23 2.043158 1_555
Co3 O21 2.044853 1_455
Co3 O22 2.044853 1_555
Co3 O2 2.044853 1_455
Co3 O3 2.044853 1_555
Co3 O1 2.107638 1_555
O0 Ta1 1.971450 1_565
O0 Sr3 2.816409 1_665
O0 Sr0 2.849809 1_555
O0 Sr4 2.913279 1_665
O1 Sr0 2.848856 1_455
O1 Sr0 2.848856 1_555
O1 Sr4 2.852651 1_555
O1 Sr4 2.852651 1_565
O2 Ta2 1.980907 1_555
O2 Sr4 2.796508 1_655
O2 Sr5 2.848061 1_555
O2 Sr0 2.857004 1_555
O3 Ta2 1.980907 1_555
O3 Sr4 2.796508 1_555
O3 Sr5 2.848061 1_555
O3 Sr0 2.857004 1_555
O4 Ta2 1.920098 1_555
O4 Sr5 2.846410 1_545
O4 Sr5 2.846410 1_555
O5 Ta3 1.988162 1_555
O5 Sr2 2.811750 1_555
O5 Sr5 2.817996 1_555
O5 Sr1 2.903623 1_555
O6 Ta3 1.988162 1_555
O6 Sr2 2.811750 1_565
O6 Sr5 2.817996 1_555
O6 Sr1 2.903623 1_555
O7 Ta3 1.988162 1_655
O7 Sr2 2.811750 1_655
O7 Sr5 2.817996 1_555
O7 Sr1 2.903623 1_555
O8 Ta0 1.914485 1_555
O8 Sr2 2.846220 1_555
O8 Sr2 2.846220 1_655
O8 Sr1 2.846929 1_555
O8 Sr1 2.846929 1_545
O9 Ta3 1.988162 1_655
O9 Sr2 2.811750 1_665
O9 Sr5 2.817996 1_555
O9 Sr1 2.903623 1_555
O10 Ta0 1.985866 1_566
O10 Sr3 2.797660 1_665
O10 Sr1 2.907174 1_556
O10 Sr2 2.994541 1_666
O11 Ta3 1.969386 1_555
O11 Sr1 2.844423 1_555
O11 Sr1 2.844423 1_455
O11 Sr2 2.846618 1_555
O11 Sr2 2.846618 1_565
O12 Ta0 1.985866 1_556
O12 Sr3 2.797660 1_655
O12 Sr1 2.907174 1_556
O12 Sr2 2.994541 1_656
O13 Ta0 1.985866 1_566
O13 Sr3 2.797660 1_565
O13 Sr1 2.907174 1_556
O13 Sr2 2.994541 1_566
O14 Ta0 1.985866 1_556
O14 Sr3 2.797660 1_555
O14 Sr1 2.907174 1_556
O14 Sr2 2.994541 1_556
O15 Sr3 2.850150 1_565
O15 Sr3 2.850150 1_555
O16 Ta1 1.991855 1_555
O16 Ta0 2.067818 1_556
O16 Sr3 2.844410 1_555
O16 Sr3 2.844410 1_655
O17 Ta1 1.971450 1_555
O17 Sr3 2.816409 1_555
O17 Sr0 2.849809 1_555
O17 Sr4 2.913279 1_555
O18 Ta1 1.971450 1_565
O18 Sr3 2.816409 1_565
O18 Sr0 2.849809 1_555
O18 Sr4 2.913279 1_565
O19 Ta1 1.971450 1_555
O19 Sr3 2.816409 1_655
O19 Sr0 2.849809 1_555
O19 Sr4 2.913279 1_655
O20 Ta1 1.982932 1_555
O20 Ta2 2.064699 1_555
O20 Sr4 2.844700 1_655
O20 Sr4 2.844700 1_555
O20 Sr0 2.846398 1_555
O20 Sr0 2.846398 1_545
O21 Ta2 1.980907 1_565
O21 Sr4 2.796508 1_665
O21 Sr5 2.848061 1_555
O21 Sr0 2.857004 1_555
O22 Ta2 1.980907 1_565
O22 Sr4 2.796508 1_565
O22 Sr5 2.848061 1_555
O22 Sr0 2.857004 1_555
O23 Ta3 1.998828 1_555
O23 Sr5 2.844413 1_455
O23 Sr5 2.844413 1_555
