# generated using pymatgen
data_Ba4LiGa5Se12
_symmetry_space_group_name_H-M   'P 1'
_cell_length_a   6.58024475
_cell_length_b   13.90086970
_cell_length_c   13.90086970
_cell_angle_alpha   90.00000000
_cell_angle_beta   90.00000000
_cell_angle_gamma   90.00000000
_symmetry_Int_Tables_number   1
_chemical_formula_structural   Ba4LiGa5Se12
_chemical_formula_sum   'Ba8 Li2 Ga10 Se24'
_cell_volume   1271.52818804
_cell_formula_units_Z   2
loop_
 _symmetry_equiv_pos_site_id
 _symmetry_equiv_pos_as_xyz
  1  'x, y, z'
loop_
 _atom_site_type_symbol
 _atom_site_label
 _atom_site_symmetry_multiplicity
 _atom_site_fract_x
 _atom_site_fract_y
 _atom_site_fract_z
 _atom_site_occupancy
  Ba  Ba0  1  0.95185019  0.52116683  0.80314885  1
  Ba  Ba1  1  0.54814981  0.02116683  0.69685115  1
  Ba  Ba2  1  0.95185019  0.47883317  0.19685115  1
  Ba  Ba3  1  0.54814981  0.97883317  0.30314885  1
  Ba  Ba4  1  0.04814981  0.80314885  0.47883317  1
  Ba  Ba5  1  0.45185019  0.69685115  0.97883317  1
  Ba  Ba6  1  0.04814981  0.19685115  0.52116683  1
  Ba  Ba7  1  0.45185019  0.30314885  0.02116683  1
  Li  Li0  1  0.00000000  0.50000000  0.50000000  1
  Li  Li1  1  0.50000000  -0.00000000  0.00000000  1
  Ga  Ga0  1  0.55248437  0.74587635  0.64092751  1
  Ga  Ga1  1  0.94751563  0.24587635  0.85907249  1
  Ga  Ga2  1  0.55248437  0.25412365  0.35907249  1
  Ga  Ga3  1  0.94751563  0.75412365  0.14092751  1
  Ga  Ga4  1  0.44751563  0.64092751  0.25412365  1
  Ga  Ga5  1  0.05248437  0.85907249  0.75412365  1
  Ga  Ga6  1  0.44751563  0.35907249  0.74587635  1
  Ga  Ga7  1  0.05248437  0.14092751  0.24587635  1
  Ga  Ga8  1  0.50000000  0.50000000  0.50000000  1
  Ga  Ga9  1  0.00000000  -0.00000000  0.00000000  1
  Se  Se0  1  0.54606054  0.85977804  0.51351268  1
  Se  Se1  1  0.95393946  0.35977804  0.98648732  1
  Se  Se2  1  0.54606054  0.14022196  0.48648732  1
  Se  Se3  1  0.95393946  0.64022196  0.01351268  1
  Se  Se4  1  0.45393946  0.51351268  0.14022196  1
  Se  Se5  1  0.04606054  0.98648732  0.64022196  1
  Se  Se6  1  0.45393946  0.48648732  0.85977804  1
  Se  Se7  1  0.04606054  0.01351268  0.35977804  1
  Se  Se8  1  0.70903331  0.80344020  0.79143183  1
  Se  Se9  1  0.79096669  0.30344020  0.70856817  1
  Se  Se10  1  0.70903331  0.19655980  0.20856817  1
  Se  Se11  1  0.79096669  0.69655980  0.29143183  1
  Se  Se12  1  0.29096669  0.79143183  0.19655980  1
  Se  Se13  1  0.20903331  0.70856817  0.69655980  1
  Se  Se14  1  0.29096669  0.20856817  0.80344020  1
  Se  Se15  1  0.20903331  0.29143183  0.30344020  1
  Se  Se16  1  0.73764786  0.59928295  0.59137589  1
  Se  Se17  1  0.76235214  0.09928295  0.90862411  1
  Se  Se18  1  0.73764786  0.40071705  0.40862411  1
  Se  Se19  1  0.76235214  0.90071705  0.09137589  1
  Se  Se20  1  0.26235214  0.59137589  0.40071705  1
  Se  Se21  1  0.23764786  0.90862411  0.90071705  1
  Se  Se22  1  0.26235214  0.40862411  0.59928295  1
  Se  Se23  1  0.23764786  0.09137589  0.09928295  1
loop_
_geom_bond_atom_site_label_1
_geom_bond_atom_site_label_2
_geom_bond_distance
_geom_bond_site_symmetry_2
Ba0 Se3 3.360103 1_556
Ba0 Se1 3.395351 1_555
Ba0 Se6 3.403925 1_555
Ba0 Se6 3.430398 1_655
Ba0 Se16 3.439762 1_555
Ba0 Se13 3.441743 1_655
Ba0 Se9 3.465482 1_555
Ba0 Se22 3.827940 1_655
Ba1 Se2 3.360103 1_555
Ba1 Se0 3.395351 1_545
Ba1 Se5 3.403925 1_645
Ba1 Se5 3.430398 1_545
Ba1 Se17 3.439762 1_555
Ba1 Se14 3.441743 1_555
Ba1 Se8 3.465482 1_545
Ba1 Se21 3.827940 1_545
Ba2 Se1 3.360103 1_554
Ba2 Se3 3.395351 1_555
Ba2 Se4 3.403925 1_555
Ba2 Se4 3.430398 1_655
Ba2 Se18 3.439762 1_555
Ba2 Se15 3.441743 1_655
Ba2 Se11 3.465482 1_555
Ba2 Se20 3.827940 1_655
Ba3 Se0 3.360103 1_555
Ba3 Se2 3.395351 1_565
Ba3 Se7 3.403925 1_665
Ba3 Se7 3.430398 1_565
Ba3 Se19 3.439762 1_555
Ba3 Se12 3.441743 1_555
Ba3 Se10 3.465482 1_565
Ba3 Se23 3.827940 1_565
Ba4 Se7 3.360103 1_565
Ba4 Se5 3.395351 1_555
Ba4 Se0 3.403925 1_555
Ba4 Se0 3.430398 1_455
Ba4 Se20 3.439762 1_555
Ba4 Se11 3.441743 1_455
Ba4 Se13 3.465482 1_555
Ba4 Se16 3.827940 1_455
Ba5 Se6 3.360103 1_555
Ba5 Se4 3.395351 1_556
Ba5 Se3 3.403925 1_456
Ba5 Se3 3.430398 1_556
Ba5 Se21 3.439762 1_555
Ba5 Se8 3.441743 1_555
Ba5 Se12 3.465482 1_556
Ba5 Se19 3.827940 1_556
Ba6 Se5 3.360103 1_545
Ba6 Se7 3.395351 1_555
Ba6 Se2 3.403925 1_555
Ba6 Se2 3.430398 1_455
Ba6 Se22 3.439762 1_555
Ba6 Se9 3.441743 1_455
Ba6 Se15 3.465482 1_555
Ba6 Se18 3.827940 1_455
Ba7 Se4 3.360103 1_555
Ba7 Se6 3.395351 1_554
Ba7 Se1 3.403925 1_454
Ba7 Se1 3.430398 1_554
Ba7 Se23 3.439762 1_555
Ba7 Se10 3.441743 1_555
Ba7 Se14 3.465482 1_554
Ba7 Se17 3.827940 1_554
Li0 Se16 2.549196 1_455
Li0 Se18 2.549196 1_455
Li0 Se20 2.549196 1_555
Li0 Se22 2.549196 1_555
Li1 Se23 2.549196 1_555
Li1 Se19 2.549196 1_545
Li1 Se21 2.549196 1_544
Li1 Se17 2.549196 1_554
Ga0 Se0 2.376088 1_555
Ga0 Se13 2.444295 1_555
Ga0 Se8 2.465466 1_555
Ga0 Se16 2.472153 1_555
Ga1 Se1 2.376088 1_555
Ga1 Se14 2.444295 1_655
Ga1 Se9 2.465466 1_555
Ga1 Se17 2.472153 1_555
Ga2 Se2 2.376088 1_555
Ga2 Se15 2.444295 1_555
Ga2 Se10 2.465466 1_555
Ga2 Se18 2.472153 1_555
Ga3 Se3 2.376088 1_555
Ga3 Se12 2.444295 1_655
Ga3 Se11 2.465466 1_555
Ga3 Se19 2.472153 1_555
Ga4 Se4 2.376088 1_555
Ga4 Se11 2.444295 1_555
Ga4 Se12 2.465466 1_555
Ga4 Se20 2.472153 1_555
Ga5 Se5 2.376088 1_555
Ga5 Se8 2.444295 1_455
Ga5 Se13 2.465466 1_555
Ga5 Se21 2.472153 1_555
Ga6 Se6 2.376088 1_555
Ga6 Se9 2.444295 1_555
Ga6 Se14 2.465466 1_555
Ga6 Se22 2.472153 1_555
Ga7 Se7 2.376088 1_555
Ga7 Se10 2.444295 1_455
Ga7 Se15 2.465466 1_555
Ga7 Se23 2.472153 1_555
Ga8 Se18 2.442040 1_555
Ga8 Se16 2.442040 1_555
Ga8 Se20 2.442040 1_555
Ga8 Se22 2.442040 1_555
Ga9 Se19 2.442040 1_445
Ga9 Se21 2.442040 1_544
Ga9 Se17 2.442040 1_454
Ga9 Se23 2.442040 1_555
