# generated using pymatgen
data_KPrEuSbO6
_symmetry_space_group_name_H-M   'P 1'
_cell_length_a   8.69053703
_cell_length_b   8.45761478
_cell_length_c   8.45411472
_cell_angle_alpha   90.00000000
_cell_angle_beta   90.00000000
_cell_angle_gamma   90.00000000
_symmetry_Int_Tables_number   1
_chemical_formula_structural   KPrEuSbO6
_chemical_formula_sum   'K4 Pr4 Eu4 Sb4 O24'
_cell_volume   621.38769886
_cell_formula_units_Z   4
loop_
 _symmetry_equiv_pos_site_id
 _symmetry_equiv_pos_as_xyz
  1  'x, y, z'
loop_
 _atom_site_type_symbol
 _atom_site_label
 _atom_site_symmetry_multiplicity
 _atom_site_fract_x
 _atom_site_fract_y
 _atom_site_fract_z
 _atom_site_occupancy
  K  K0  1  0.00000000  0.50000000  0.50000000  1
  K  K1  1  0.50000000  -0.00000000  0.50000000  1
  K  K2  1  0.50000000  -0.00000000  0.00000000  1
  K  K3  1  0.00000000  0.50000000  0.00000000  1
  Pr  Pr0  1  0.75000000  0.75000000  0.75000000  1
  Pr  Pr1  1  0.25000000  0.25000000  0.75000000  1
  Pr  Pr2  1  0.25000000  0.75000000  0.25000000  1
  Pr  Pr3  1  0.75000000  0.25000000  0.25000000  1
  Eu  Eu0  1  0.50000000  0.50000000  0.00000000  1
  Eu  Eu1  1  0.00000000  -0.00000000  0.50000000  1
  Eu  Eu2  1  0.00000000  -0.00000000  0.00000000  1
  Eu  Eu3  1  0.50000000  0.50000000  0.50000000  1
  Sb  Sb0  1  0.25000000  0.25000000  0.25000000  1
  Sb  Sb1  1  0.75000000  0.75000000  0.25000000  1
  Sb  Sb2  1  0.75000000  0.25000000  0.75000000  1
  Sb  Sb3  1  0.25000000  0.75000000  0.75000000  1
  O  O0  1  0.01656384  0.19205633  0.29164900  1
  O  O1  1  -0.01656384  0.80794367  0.29164900  1
  O  O2  1  -0.01656384  0.19205633  0.70835100  1
  O  O3  1  0.01656384  0.80794367  0.70835100  1
  O  O4  1  0.27781952  0.02130936  0.20518452  1
  O  O5  1  0.27781952  0.97869064  0.79481548  1
  O  O6  1  0.72218048  0.97869064  0.20518452  1
  O  O7  1  0.72218048  0.02130936  0.79481548  1
  O  O8  1  0.20689065  0.28383052  0.02058774  1
  O  O9  1  0.79310935  0.28383052  0.97941226  1
  O  O10  1  0.20689065  0.71616948  0.97941226  1
  O  O11  1  0.79310935  0.71616948  0.02058774  1
  O  O12  1  0.48343616  0.30794367  0.20835100  1
  O  O13  1  0.51656384  0.69205633  0.20835100  1
  O  O14  1  0.51656384  0.30794367  0.79164900  1
  O  O15  1  0.48343616  0.69205633  0.79164900  1
  O  O16  1  0.22218048  0.47869064  0.29481548  1
  O  O17  1  0.22218048  0.52130936  0.70518452  1
  O  O18  1  0.77781952  0.52130936  0.29481548  1
  O  O19  1  0.77781952  0.47869064  0.70518452  1
  O  O20  1  0.29310935  0.21616948  0.47941226  1
  O  O21  1  0.70689065  0.21616948  0.52058774  1
  O  O22  1  0.29310935  0.78383052  0.52058774  1
  O  O23  1  0.70689065  0.78383052  0.47941226  1
loop_
_geom_bond_atom_site_label_1
_geom_bond_atom_site_label_2
_geom_bond_distance
_geom_bond_site_symmetry_2
K0 O16 2.601875 1_555
K0 O17 2.601875 1_555
K0 O18 2.601875 1_455
K0 O19 2.601875 1_455
K0 O2 3.147474 1_555
K0 O3 3.147474 1_555
K0 O0 3.147474 1_555
K0 O1 3.147474 1_555
K1 O20 2.570149 1_555
K1 O22 2.570149 1_545
K1 O21 2.570149 1_555
K1 O23 2.570149 1_545
K1 O4 3.157975 1_555
K1 O6 3.157975 1_545
K1 O7 3.157975 1_555
K1 O5 3.157975 1_545
K2 O7 2.601875 1_554
K2 O5 2.601875 1_544
K2 O6 2.601875 1_545
K2 O4 2.601875 1_555
K2 O13 3.147474 1_545
K2 O12 3.147474 1_555
K2 O15 3.147474 1_544
K2 O14 3.147474 1_554
K3 O9 2.570149 1_454
K3 O8 2.570149 1_555
K3 O10 2.570149 1_554
K3 O11 2.570149 1_455
K3 O18 3.157975 1_455
K3 O19 3.157975 1_454
K3 O16 3.157975 1_555
K3 O17 3.157975 1_554
Eu0 O13 2.400377 1_555
Eu0 O12 2.400377 1_555
Eu0 O14 2.400377 1_554
Eu0 O15 2.400377 1_554
Eu1 O2 2.400377 1_555
Eu1 O3 2.400377 1_545
Eu1 O0 2.400377 1_555
Eu1 O1 2.400377 1_545
Eu2 O3 2.956104 1_544
Eu2 O2 2.956104 1_554
Eu2 O1 2.956104 1_545
Eu2 O0 2.956104 1_555
Eu2 O7 2.978395 1_454
Eu2 O4 2.978395 1_555
Eu2 O6 2.978395 1_445
Eu2 O5 2.978395 1_544
Eu2 O11 3.004265 1_445
Eu2 O8 3.004265 1_555
Eu2 O9 3.004265 1_454
Eu2 O10 3.004265 1_544
Eu3 O14 2.956104 1_555
Eu3 O15 2.956104 1_555
Eu3 O12 2.956104 1_555
Eu3 O13 2.956104 1_555
Eu3 O19 2.978395 1_555
Eu3 O17 2.978395 1_555
Eu3 O18 2.978395 1_555
Eu3 O16 2.978395 1_555
Eu3 O21 3.004265 1_555
Eu3 O23 3.004265 1_555
Eu3 O22 3.004265 1_555
Eu3 O20 3.004265 1_555
O0 Sb0 2.116532 1_555
O0 Pr3 2.393888 1_455
O1 Sb1 2.116532 1_455
O1 Pr2 2.393888 1_555
O2 Sb2 2.116532 1_455
O2 Pr1 2.393888 1_555
O3 Sb3 2.116532 1_555
O3 Pr0 2.393888 1_455
O4 Sb0 1.985709 1_555
O4 Pr2 2.338231 1_545
O5 Sb3 1.985709 1_555
O5 Pr1 2.338231 1_565
O6 Sb1 1.985709 1_555
O6 Pr3 2.338231 1_565
O7 Sb2 1.985709 1_555
O7 Pr0 2.338231 1_545
O8 Sb0 1.995946 1_555
O8 Pr1 2.335647 1_554
O9 Sb2 1.995946 1_555
O9 Pr3 2.335647 1_556
O10 Sb3 1.995946 1_555
O10 Pr2 2.335647 1_556
O11 Sb1 1.995946 1_555
O11 Pr0 2.335647 1_554
O12 Sb0 2.116532 1_555
O12 Pr3 2.393888 1_555
O13 Sb1 2.116532 1_555
O13 Pr2 2.393888 1_555
O14 Sb2 2.116532 1_555
O14 Pr1 2.393888 1_555
O15 Sb3 2.116532 1_555
O15 Pr0 2.393888 1_555
O16 Sb0 1.985709 1_555
O16 Pr2 2.338231 1_555
O17 Sb3 1.985709 1_555
O17 Pr1 2.338231 1_555
O18 Sb1 1.985709 1_555
O18 Pr3 2.338231 1_555
O19 Sb2 1.985709 1_555
O19 Pr0 2.338231 1_555
O20 Sb0 1.995946 1_555
O20 Pr1 2.335647 1_555
O21 Sb2 1.995946 1_555
O21 Pr3 2.335647 1_555
O22 Sb3 1.995946 1_555
O22 Pr2 2.335647 1_555
O23 Sb1 1.995946 1_555
O23 Pr0 2.335647 1_555
