# generated using pymatgen
data_Sr7SeN6
_symmetry_space_group_name_H-M   'P 1'
_cell_length_a   12.71480200
_cell_length_b   6.85551800
_cell_length_c   13.50715000
_cell_angle_alpha   90.00000000
_cell_angle_beta   90.00000000
_cell_angle_gamma   90.00000000
_symmetry_Int_Tables_number   1
_chemical_formula_structural   Sr7SeN6
_chemical_formula_sum   'Sr28 Se4 N24'
_cell_volume   1177.37171956
_cell_formula_units_Z   4
loop_
 _symmetry_equiv_pos_site_id
 _symmetry_equiv_pos_as_xyz
  1  'x, y, z'
loop_
 _atom_site_type_symbol
 _atom_site_label
 _atom_site_symmetry_multiplicity
 _atom_site_fract_x
 _atom_site_fract_y
 _atom_site_fract_z
 _atom_site_occupancy
  Sr  Sr0  1  0.05976100  0.71033000  0.00083300  1
  Sr  Sr1  1  0.44023900  0.78967000  0.50083300  1
  Sr  Sr2  1  0.55976100  0.78967000  0.99916700  1
  Sr  Sr3  1  0.94023900  0.71033000  0.49916700  1
  Sr  Sr4  1  0.94023900  0.28967000  0.99916700  1
  Sr  Sr5  1  0.55976100  0.21033000  0.49916700  1
  Sr  Sr6  1  0.44023900  0.21033000  0.00083300  1
  Sr  Sr7  1  0.05976100  0.28967000  0.50083300  1
  Sr  Sr8  1  0.21871900  0.88380400  0.65380300  1
  Sr  Sr9  1  0.28128100  0.61619600  0.15380300  1
  Sr  Sr10  1  0.71871900  0.61619600  0.34619700  1
  Sr  Sr11  1  0.78128100  0.88380400  0.84619700  1
  Sr  Sr12  1  0.78128100  0.11619600  0.34619700  1
  Sr  Sr13  1  0.71871900  0.38380400  0.84619700  1
  Sr  Sr14  1  0.28128100  0.38380400  0.65380300  1
  Sr  Sr15  1  0.21871900  0.11619600  0.15380300  1
  Sr  Sr16  1  0.30464100  0.65502200  0.88602600  1
  Sr  Sr17  1  0.19535900  0.84497800  0.38602600  1
  Sr  Sr18  1  0.80464100  0.84497800  0.11397400  1
  Sr  Sr19  1  0.69535900  0.65502200  0.61397400  1
  Sr  Sr20  1  0.69535900  0.34497800  0.11397400  1
  Sr  Sr21  1  0.80464100  0.15502200  0.61397400  1
  Sr  Sr22  1  0.19535900  0.15502200  0.88602600  1
  Sr  Sr23  1  0.30464100  0.34497800  0.38602600  1
  Sr  Sr24  1  0.00000000  0.56583300  0.75000000  1
  Sr  Sr25  1  0.50000000  0.93416700  0.25000000  1
  Sr  Sr26  1  0.00000000  0.43416700  0.25000000  1
  Sr  Sr27  1  0.50000000  0.06583300  0.75000000  1
  Se  Se0  1  0.00000000  0.06208700  0.75000000  1
  Se  Se1  1  0.50000000  0.43791300  0.25000000  1
  Se  Se2  1  0.00000000  0.93791300  0.25000000  1
  Se  Se3  1  0.50000000  0.56208700  0.75000000  1
  N  N0  1  0.13942900  0.79644200  0.83080000  1
  N  N1  1  0.36057100  0.70355800  0.33080000  1
  N  N2  1  0.63942900  0.70355800  0.16920000  1
  N  N3  1  0.86057100  0.79644200  0.66920000  1
  N  N4  1  0.86057100  0.20355800  0.16920000  1
  N  N5  1  0.63942900  0.29644200  0.66920000  1
  N  N6  1  0.36057100  0.29644200  0.83080000  1
  N  N7  1  0.13942900  0.20355800  0.33080000  1
  N  N8  1  0.13534500  0.63536000  0.53572600  1
  N  N9  1  0.36465500  0.86464000  0.03572600  1
  N  N10  1  0.63534500  0.86464000  0.46427400  1
  N  N11  1  0.86465500  0.63536000  0.96427400  1
  N  N12  1  0.86465500  0.36464000  0.46427400  1
  N  N13  1  0.63534500  0.13536000  0.96427400  1
  N  N14  1  0.36465500  0.13536000  0.53572600  1
  N  N15  1  0.13534500  0.36464000  0.03572600  1
  N  N16  1  0.39882300  0.71738700  0.69710800  1
  N  N17  1  0.10117700  0.78261300  0.19710800  1
  N  N18  1  0.89882300  0.78261300  0.30289200  1
  N  N19  1  0.60117700  0.71738700  0.80289200  1
  N  N20  1  0.60117700  0.28261300  0.30289200  1
  N  N21  1  0.89882300  0.21738700  0.80289200  1
  N  N22  1  0.10117700  0.21738700  0.69710800  1
  N  N23  1  0.39882300  0.28261300  0.19710800  1
loop_
_geom_bond_atom_site_label_1
_geom_bond_atom_site_label_2
_geom_bond_distance
_geom_bond_site_symmetry_2
N0 Sr16 2.430856 1_555
N0 Sr0 2.578614 1_556
N0 Sr24 2.614068 1_555
N0 Sr8 2.662826 1_555
N0 Sr22 2.665550 1_565
N1 Sr17 2.430856 1_555
N1 Sr1 2.578614 1_555
N1 Sr25 2.614068 1_555
N1 Sr9 2.662826 1_555
N1 Sr23 2.665550 1_555
N2 Sr18 2.430856 1_555
N2 Sr2 2.578614 1_554
N2 Sr25 2.614068 1_555
N2 Sr10 2.662826 1_555
N2 Sr20 2.665550 1_555
N3 Sr19 2.430856 1_555
N3 Sr3 2.578614 1_555
N3 Sr24 2.614068 1_655
N3 Sr11 2.662826 1_555
N3 Sr21 2.665550 1_565
N4 Sr20 2.430856 1_555
N4 Sr4 2.578614 1_554
N4 Sr26 2.614068 1_655
N4 Sr12 2.662826 1_555
N4 Sr18 2.665550 1_545
N5 Sr21 2.430856 1_555
N5 Sr5 2.578614 1_555
N5 Sr27 2.614068 1_555
N5 Sr13 2.662826 1_555
N5 Sr19 2.665550 1_555
N6 Sr22 2.430856 1_555
N6 Sr6 2.578614 1_556
N6 Sr27 2.614068 1_555
N6 Sr14 2.662826 1_555
N6 Sr16 2.665550 1_555
N7 Sr23 2.430856 1_555
N7 Sr7 2.578614 1_555
N7 Sr26 2.614068 1_555
N7 Sr15 2.662826 1_555
N7 Sr17 2.665550 1_545
N8 Sr8 2.562882 1_555
N8 Sr3 2.581093 1_455
N8 Sr17 2.595365 1_555
N8 Sr7 2.600398 1_555
N8 Sr14 2.993455 1_555
N9 Sr9 2.562882 1_555
N9 Sr2 2.581093 1_554
N9 Sr16 2.595365 1_554
N9 Sr6 2.600398 1_565
N9 Sr15 2.993455 1_565
N10 Sr10 2.562882 1_555
N10 Sr1 2.581093 1_555
N10 Sr19 2.595365 1_555
N10 Sr5 2.600398 1_565
N10 Sr12 2.993455 1_565
N11 Sr11 2.562882 1_555
N11 Sr0 2.581093 1_656
N11 Sr18 2.595365 1_556
N11 Sr4 2.600398 1_555
N11 Sr13 2.993455 1_555
N12 Sr12 2.562882 1_555
N12 Sr7 2.581093 1_655
N12 Sr21 2.595365 1_555
N12 Sr3 2.600398 1_555
N12 Sr10 2.993455 1_555
N13 Sr13 2.562882 1_555
N13 Sr6 2.581093 1_556
N13 Sr20 2.595365 1_556
N13 Sr2 2.600398 1_545
N13 Sr11 2.993455 1_545
N14 Sr14 2.562882 1_555
N14 Sr5 2.581093 1_555
N14 Sr23 2.595365 1_555
N14 Sr1 2.600398 1_545
N14 Sr8 2.993455 1_545
N15 Sr15 2.562882 1_555
N15 Sr4 2.581093 1_454
N15 Sr22 2.595365 1_554
N15 Sr0 2.600398 1_555
N15 Sr9 2.993455 1_555
N16 Se3 1.816272 1_555
N16 Sr8 2.624457 1_555
N16 Sr1 2.747959 1_555
N16 Sr14 2.793847 1_555
N16 Sr27 2.805637 1_565
N16 Sr16 2.851002 1_555
N17 Se2 1.816272 1_555
N17 Sr9 2.624457 1_555
N17 Sr0 2.747959 1_555
N17 Sr15 2.793847 1_565
N17 Sr26 2.805637 1_555
N17 Sr17 2.851002 1_555
N18 Se2 1.816272 1_655
N18 Sr10 2.624457 1_555
N18 Sr3 2.747959 1_555
N18 Sr12 2.793847 1_565
N18 Sr26 2.805637 1_655
N18 Sr18 2.851002 1_555
N19 Se3 1.816272 1_555
N19 Sr11 2.624457 1_555
N19 Sr2 2.747959 1_555
N19 Sr13 2.793847 1_555
N19 Sr27 2.805637 1_565
N19 Sr19 2.851002 1_555
N20 Se1 1.816272 1_555
N20 Sr12 2.624457 1_555
N20 Sr5 2.747959 1_555
N20 Sr10 2.793847 1_555
N20 Sr25 2.805637 1_545
N20 Sr20 2.851002 1_555
N21 Se0 1.816272 1_655
N21 Sr13 2.624457 1_555
N21 Sr4 2.747959 1_555
N21 Sr11 2.793847 1_545
N21 Sr24 2.805637 1_655
N21 Sr21 2.851002 1_555
N22 Se0 1.816272 1_555
N22 Sr14 2.624457 1_555
N22 Sr7 2.747959 1_555
N22 Sr8 2.793847 1_545
N22 Sr24 2.805637 1_555
N22 Sr22 2.851002 1_555
N23 Se1 1.816272 1_555
N23 Sr15 2.624457 1_555
N23 Sr6 2.747959 1_555
N23 Sr9 2.793847 1_555
N23 Sr25 2.805637 1_545
N23 Sr23 2.851002 1_555
