# generated using pymatgen
data_CeSe2
_symmetry_space_group_name_H-M   'P 1'
_cell_length_a   9.33962009
_cell_length_b   9.33962009
_cell_length_c   9.33962017
_cell_angle_alpha   98.45625630
_cell_angle_beta   98.45625630
_cell_angle_gamma   98.45624940
_symmetry_Int_Tables_number   1
_chemical_formula_structural   CeSe2
_chemical_formula_sum   'Ce6 Se12'
_cell_volume   785.12819145
_cell_formula_units_Z   6
loop_
 _symmetry_equiv_pos_site_id
 _symmetry_equiv_pos_as_xyz
  1  'x, y, z'
loop_
 _atom_site_type_symbol
 _atom_site_label
 _atom_site_symmetry_multiplicity
 _atom_site_fract_x
 _atom_site_fract_y
 _atom_site_fract_z
 _atom_site_occupancy
  Ce  Ce0  1  0.88147600  0.24321700  0.59272000  1
  Ce  Ce1  1  0.24321700  0.59272000  0.88147600  1
  Ce  Ce2  1  0.59272000  0.88147600  0.24321700  1
  Ce  Ce3  1  0.11852400  0.75678300  0.40728000  1
  Ce  Ce4  1  0.75678300  0.40728000  0.11852400  1
  Ce  Ce5  1  0.40728000  0.11852400  0.75678300  1
  Se  Se0  1  0.00000000  0.50000000  0.50000000  1
  Se  Se1  1  0.50000000  0.50000000  0.00000000  1
  Se  Se2  1  0.50000000  0.00000000  0.50000000  1
  Se  Se3  1  0.70723800  0.25530300  0.81657500  1
  Se  Se4  1  0.25530300  0.81657500  0.70723800  1
  Se  Se5  1  0.81657500  0.70723800  0.25530300  1
  Se  Se6  1  0.29276200  0.74469700  0.18342500  1
  Se  Se7  1  0.74469700  0.18342500  0.29276200  1
  Se  Se8  1  0.18342500  0.29276200  0.74469700  1
  Se  Se9  1  0.00000000  0.00000000  0.50000000  1
  Se  Se10  1  0.00000000  0.50000000  0.00000000  1
  Se  Se11  1  0.50000000  0.00000000  0.00000000  1
loop_
_geom_bond_atom_site_label_1
_geom_bond_atom_site_label_2
_geom_bond_distance
_geom_bond_site_symmetry_2
Ce0 Se9 2.752850 1_655
Ce0 Se0 2.799796 1_655
Ce0 Se3 2.831478 1_555
Ce0 Se7 2.840712 1_555
Ce0 Se8 2.903015 1_655
Ce1 Se10 2.752850 1_556
Ce1 Se1 2.799796 1_556
Ce1 Se4 2.831478 1_555
Ce1 Se8 2.840712 1_555
Ce1 Se6 2.903015 1_556
Ce2 Se11 2.752850 1_565
Ce2 Se2 2.799796 1_565
Ce2 Se5 2.831477 1_555
Ce2 Se6 2.840712 1_555
Ce2 Se7 2.903016 1_565
Ce3 Se9 2.752850 1_565
Ce3 Se0 2.799796 1_555
Ce3 Se6 2.831478 1_555
Ce3 Se4 2.840712 1_555
Ce3 Se5 2.903015 1_455
Ce4 Se10 2.752850 1_655
Ce4 Se1 2.799796 1_555
Ce4 Se7 2.831478 1_555
Ce4 Se5 2.840712 1_555
Ce4 Se3 2.903015 1_554
Ce5 Se11 2.752850 1_556
Ce5 Se2 2.799796 1_555
Ce5 Se8 2.831477 1_555
Ce5 Se3 2.840712 1_555
Ce5 Se4 2.903016 1_545
