# generated using pymatgen
data_MgNi2(PO5)2
_symmetry_space_group_name_H-M   'P 1'
_cell_length_a   9.95444209
_cell_length_b   8.96119167
_cell_length_c   6.54740816
_cell_angle_alpha   78.15811150
_cell_angle_beta   61.77068415
_cell_angle_gamma   40.07120435
_symmetry_Int_Tables_number   1
_chemical_formula_structural   MgNi2(PO5)2
_chemical_formula_sum   'Mg2 Ni4 P4 O20'
_cell_volume   318.35719778
_cell_formula_units_Z   2
loop_
 _symmetry_equiv_pos_site_id
 _symmetry_equiv_pos_as_xyz
  1  'x, y, z'
loop_
 _atom_site_type_symbol
 _atom_site_label
 _atom_site_symmetry_multiplicity
 _atom_site_fract_x
 _atom_site_fract_y
 _atom_site_fract_z
 _atom_site_occupancy
  Mg  Mg0  1  0.25000000  0.25000000  0.25000000  1
  Mg  Mg1  1  0.00000000  0.00000000  0.00000000  1
  Ni  Ni0  1  0.62500000  0.62500000  0.12500000  1
  Ni  Ni1  1  0.62500000  0.12500000  0.62500000  1
  Ni  Ni2  1  0.62500000  0.62500000  0.62500000  1
  Ni  Ni3  1  0.12500000  0.62500000  0.62500000  1
  P  P0  1  0.79448500  0.79448500  0.20551500  1
  P  P1  1  0.45551500  0.45551500  0.04448500  1
  P  P2  1  0.20551500  0.20551500  0.79448500  1
  P  P3  1  0.04448500  0.04448500  0.45551500  1
  O  O0  1  0.95887500  0.33457100  0.01373000  1
  O  O1  1  0.42227600  0.42227600  0.57772400  1
  O  O2  1  0.91014100  0.07017800  0.36525100  1
  O  O3  1  0.23627000  0.55717500  0.29112500  1
  O  O4  1  0.33457100  0.95887500  0.69282500  1
  O  O5  1  0.33985900  0.17982200  0.88474900  1
  O  O6  1  0.82772400  0.82772400  0.67227600  1
  O  O7  1  0.57772400  0.57772400  0.42227600  1
  O  O8  1  0.67227600  0.67227600  0.82772400  1
  O  O9  1  0.29112500  0.91542900  0.23627000  1
  O  O10  1  0.69282500  0.01373000  0.33457100  1
  O  O11  1  0.55717500  0.23627000  0.91542900  1
  O  O12  1  0.01373000  0.69282500  0.95887500  1
  O  O13  1  0.07017800  0.91014100  0.65443000  1
  O  O14  1  0.59557000  0.88474900  0.17982200  1
  O  O15  1  0.36525100  0.65443000  0.91014100  1
  O  O16  1  0.88474900  0.59557000  0.33985900  1
  O  O17  1  0.65443000  0.36525100  0.07017800  1
  O  O18  1  0.91542900  0.29112500  0.55717500  1
  O  O19  1  0.17982200  0.33985900  0.59557000  1
loop_
_geom_bond_atom_site_label_1
_geom_bond_atom_site_label_2
_geom_bond_distance
_geom_bond_site_symmetry_2
Mg0 O19 2.155760 1_555
Mg0 O14 2.155760 1_545
Mg0 O16 2.155760 1_455
Mg0 O5 2.155760 1_554
Mg1 O2 2.155760 1_455
Mg1 O15 2.155760 1_544
Mg1 O17 2.155760 1_455
Mg1 O13 2.155760 1_544
Ni0 O7 1.813714 1_555
Ni0 O8 1.813714 1_554
Ni0 O0 1.897190 1_555
Ni0 O9 1.897190 1_555
Ni0 O14 2.198282 1_555
Ni0 O17 2.198282 1_555
Ni1 O6 1.813714 1_545
Ni1 O1 1.813714 1_555
Ni1 O11 1.897185 1_555
Ni1 O10 1.897185 1_555
Ni1 O2 2.198282 1_555
Ni1 O5 2.198282 1_555
Ni2 O7 1.813714 1_555
Ni2 O8 1.813714 1_555
Ni2 O4 1.897189 1_555
Ni2 O18 1.897189 1_555
Ni2 O15 2.198282 1_555
Ni2 O16 2.198282 1_555
Ni3 O1 1.813714 1_555
Ni3 O6 1.813714 1_455
Ni3 O12 1.897191 1_555
Ni3 O3 1.897191 1_555
Ni3 O13 2.198282 1_555
Ni3 O19 2.198282 1_555
O0 P2 1.558072 1_654
O2 P3 1.552833 1_655
O3 P1 1.558074 1_555
O4 P2 1.558069 1_565
O5 P2 1.552833 1_555
O9 P3 1.558072 1_565
O10 P0 1.558077 1_545
O11 P1 1.558077 1_556
O12 P0 1.558074 1_456
O13 P3 1.552833 1_565
O14 P0 1.552833 1_555
O15 P1 1.552833 1_556
O16 P0 1.552833 1_555
O17 P1 1.552833 1_555
O18 P3 1.558069 1_655
O19 P2 1.552833 1_555
