# generated using pymatgen
data_CsB5O8
_symmetry_space_group_name_H-M   'P 1'
_cell_length_a   8.58582600
_cell_length_b   8.82077000
_cell_length_c   21.53481800
_cell_angle_alpha   90.00000000
_cell_angle_beta   90.00000000
_cell_angle_gamma   90.00000000
_symmetry_Int_Tables_number   1
_chemical_formula_structural   CsB5O8
_chemical_formula_sum   'Cs8 B40 O64'
_cell_volume   1630.90921509
_cell_formula_units_Z   8
loop_
 _symmetry_equiv_pos_site_id
 _symmetry_equiv_pos_as_xyz
  1  'x, y, z'
loop_
 _atom_site_type_symbol
 _atom_site_label
 _atom_site_symmetry_multiplicity
 _atom_site_fract_x
 _atom_site_fract_y
 _atom_site_fract_z
 _atom_site_occupancy
  Cs  Cs0  1  0.96664600  0.64283300  0.88142100  1
  Cs  Cs1  1  0.53335400  0.14283300  0.11857900  1
  Cs  Cs2  1  0.46664600  0.35716700  0.61857900  1
  Cs  Cs3  1  0.03335400  0.85716700  0.38142100  1
  Cs  Cs4  1  0.03335400  0.35716700  0.11857900  1
  Cs  Cs5  1  0.46664600  0.85716700  0.88142100  1
  Cs  Cs6  1  0.53335400  0.64283300  0.38142100  1
  Cs  Cs7  1  0.96664600  0.14283300  0.61857900  1
  B  B0  1  0.86846100  0.05268400  0.88057000  1
  B  B1  1  0.63153900  0.55268400  0.11943000  1
  B  B2  1  0.36846100  0.94731600  0.61943000  1
  B  B3  1  0.13153900  0.44731600  0.38057000  1
  B  B4  1  0.13153900  0.94731600  0.11943000  1
  B  B5  1  0.36846100  0.44731600  0.88057000  1
  B  B6  1  0.63153900  0.05268400  0.38057000  1
  B  B7  1  0.86846100  0.55268400  0.61943000  1
  B  B8  1  0.68783300  0.75787900  0.04391200  1
  B  B9  1  0.81216700  0.25787900  0.95608800  1
  B  B10  1  0.18783300  0.24212100  0.45608800  1
  B  B11  1  0.31216700  0.74212100  0.54391200  1
  B  B12  1  0.31216700  0.24212100  0.95608800  1
  B  B13  1  0.18783300  0.74212100  0.04391200  1
  B  B14  1  0.81216700  0.75787900  0.54391200  1
  B  B15  1  0.68783300  0.25787900  0.45608800  1
  B  B16  1  0.80972300  0.54576500  0.73161900  1
  B  B17  1  0.69027700  0.04576500  0.26838100  1
  B  B18  1  0.30972300  0.45423500  0.76838100  1
  B  B19  1  0.19027700  0.95423500  0.23161900  1
  B  B20  1  0.19027700  0.45423500  0.26838100  1
  B  B21  1  0.30972300  0.95423500  0.73161900  1
  B  B22  1  0.69027700  0.54576500  0.23161900  1
  B  B23  1  0.80972300  0.04576500  0.76838100  1
  B  B24  1  0.75335700  0.00186200  0.98481700  1
  B  B25  1  0.74664300  0.50186200  0.01518300  1
  B  B26  1  0.25335700  0.99813800  0.51518300  1
  B  B27  1  0.24664300  0.49813800  0.48481700  1
  B  B28  1  0.24664300  0.99813800  0.01518300  1
  B  B29  1  0.25335700  0.49813800  0.98481700  1
  B  B30  1  0.74664300  0.00186200  0.48481700  1
  B  B31  1  0.75335700  0.50186200  0.51518300  1
  B  B32  1  0.07202000  0.51353400  0.69855100  1
  B  B33  1  0.42798000  0.01353400  0.30144900  1
  B  B34  1  0.57202000  0.48646600  0.80144900  1
  B  B35  1  0.92798000  0.98646600  0.19855100  1
  B  B36  1  0.92798000  0.48646600  0.30144900  1
  B  B37  1  0.57202000  0.98646600  0.69855100  1
  B  B38  1  0.42798000  0.51353400  0.19855100  1
  B  B39  1  0.07202000  0.01353400  0.80144900  1
  O  O0  1  0.02671000  0.00256100  0.86156900  1
  O  O1  1  0.47329000  0.50256100  0.13843100  1
  O  O2  1  0.52671000  0.99743900  0.63843100  1
  O  O3  1  0.97329000  0.49743900  0.36156900  1
  O  O4  1  0.97329000  0.99743900  0.13843100  1
  O  O5  1  0.52671000  0.49743900  0.86156900  1
  O  O6  1  0.47329000  0.00256100  0.36156900  1
  O  O7  1  0.02671000  0.50256100  0.63843100  1
  O  O8  1  0.81271100  0.95011300  0.93064300  1
  O  O9  1  0.68728900  0.45011300  0.06935700  1
  O  O10  1  0.31271100  0.04988700  0.56935700  1
  O  O11  1  0.18728900  0.54988700  0.43064300  1
  O  O12  1  0.18728900  0.04988700  0.06935700  1
  O  O13  1  0.31271100  0.54988700  0.93064300  1
  O  O14  1  0.68728900  0.95011300  0.43064300  1
  O  O15  1  0.81271100  0.45011300  0.56935700  1
  O  O16  1  0.87112800  0.21181300  0.90115600  1
  O  O17  1  0.62887200  0.71181300  0.09884400  1
  O  O18  1  0.37112800  0.78818700  0.59884400  1
  O  O19  1  0.12887200  0.28818700  0.40115600  1
  O  O20  1  0.12887200  0.78818700  0.09884400  1
  O  O21  1  0.37112800  0.28818700  0.90115600  1
  O  O22  1  0.62887200  0.21181300  0.40115600  1
  O  O23  1  0.87112800  0.71181300  0.59884400  1
  O  O24  1  0.75771300  0.03401300  0.82723400  1
  O  O25  1  0.74228700  0.53401300  0.17276600  1
  O  O26  1  0.25771300  0.96598700  0.67276600  1
  O  O27  1  0.24228700  0.46598700  0.32723400  1
  O  O28  1  0.24228700  0.96598700  0.17276600  1
  O  O29  1  0.25771300  0.46598700  0.82723400  1
  O  O30  1  0.74228700  0.03401300  0.32723400  1
  O  O31  1  0.75771300  0.53401300  0.67276600  1
  O  O32  1  0.74972500  0.65612300  0.00083200  1
  O  O33  1  0.75027500  0.15612300  0.99916800  1
  O  O34  1  0.24972500  0.34387700  0.49916800  1
  O  O35  1  0.25027500  0.84387700  0.50083200  1
  O  O36  1  0.25027500  0.34387700  0.99916800  1
  O  O37  1  0.24972500  0.84387700  0.00083200  1
  O  O38  1  0.75027500  0.65612300  0.50083200  1
  O  O39  1  0.74972500  0.15612300  0.49916800  1
  O  O40  1  0.96916600  0.56467600  0.74423500  1
  O  O41  1  0.53083400  0.06467600  0.25576500  1
  O  O42  1  0.46916600  0.43532400  0.75576500  1
  O  O43  1  0.03083400  0.93532400  0.24423500  1
  O  O44  1  0.03083400  0.43532400  0.25576500  1
  O  O45  1  0.46916600  0.93532400  0.74423500  1
  O  O46  1  0.53083400  0.56467600  0.24423500  1
  O  O47  1  0.96916600  0.06467600  0.75576500  1
  O  O48  1  0.81606700  0.41058900  0.97088300  1
  O  O49  1  0.68393300  0.91058900  0.02911700  1
  O  O50  1  0.31606700  0.58941100  0.52911700  1
  O  O51  1  0.18393300  0.08941100  0.47088300  1
  O  O52  1  0.18393300  0.58941100  0.02911700  1
  O  O53  1  0.31606700  0.08941100  0.97088300  1
  O  O54  1  0.68393300  0.41058900  0.47088300  1
  O  O55  1  0.81606700  0.91058900  0.52911700  1
  O  O56  1  0.21909400  0.96386100  0.78474900  1
  O  O57  1  0.28090600  0.46386100  0.21525100  1
  O  O58  1  0.71909400  0.03613900  0.71525100  1
  O  O59  1  0.78090600  0.53613900  0.28474900  1
  O  O60  1  0.78090600  0.03613900  0.21525100  1
  O  O61  1  0.71909400  0.53613900  0.78474900  1
  O  O62  1  0.28090600  0.96386100  0.28474900  1
  O  O63  1  0.21909400  0.46386100  0.71525100  1
loop_
_geom_bond_atom_site_label_1
_geom_bond_atom_site_label_2
_geom_bond_distance
_geom_bond_site_symmetry_2
Cs0 O40 3.033726 1_555
Cs0 O48 3.095105 1_555
Cs0 O61 3.120441 1_555
Cs0 O29 3.168639 1_655
Cs0 O32 3.177268 1_556
Cs0 O8 3.196384 1_555
Cs0 O0 3.243013 1_665
Cs0 O13 3.259461 1_655
Cs1 O41 3.033726 1_555
Cs1 O49 3.095105 1_545
Cs1 O60 3.120441 1_555
Cs1 O28 3.168639 1_545
Cs1 O33 3.177268 1_554
Cs1 O9 3.196384 1_555
Cs1 O1 3.243013 1_555
Cs1 O12 3.259461 1_555
Cs2 O42 3.033726 1_555
Cs2 O50 3.095105 1_555
Cs2 O63 3.120441 1_555
Cs2 O31 3.168639 1_555
Cs2 O34 3.177268 1_555
Cs2 O10 3.196384 1_555
Cs2 O2 3.243013 1_545
Cs2 O15 3.259461 1_555
Cs3 O43 3.033726 1_555
Cs3 O51 3.095105 1_565
Cs3 O62 3.120441 1_555
Cs3 O30 3.168639 1_465
Cs3 O35 3.177268 1_555
Cs3 O11 3.196384 1_555
Cs3 O3 3.243013 1_455
Cs3 O14 3.259461 1_455
Cs4 O44 3.033726 1_555
Cs4 O52 3.095105 1_555
Cs4 O57 3.120441 1_555
Cs4 O25 3.168639 1_455
Cs4 O36 3.177268 1_554
Cs4 O12 3.196384 1_555
Cs4 O4 3.243013 1_445
Cs4 O9 3.259461 1_455
Cs5 O45 3.033726 1_555
Cs5 O53 3.095105 1_565
Cs5 O56 3.120441 1_555
Cs5 O24 3.168639 1_565
Cs5 O37 3.177268 1_556
Cs5 O13 3.196384 1_555
Cs5 O5 3.243013 1_555
Cs5 O8 3.259461 1_555
Cs6 O46 3.033726 1_555
Cs6 O54 3.095105 1_555
Cs6 O59 3.120441 1_555
Cs6 O27 3.168639 1_555
Cs6 O38 3.177268 1_555
Cs6 O14 3.196384 1_555
Cs6 O6 3.243013 1_565
Cs6 O11 3.259461 1_555
Cs7 O47 3.033726 1_555
Cs7 O55 3.095105 1_545
Cs7 O58 3.120441 1_555
Cs7 O26 3.168639 1_645
Cs7 O39 3.177268 1_555
Cs7 O15 3.196384 1_555
Cs7 O7 3.243013 1_655
Cs7 O10 3.259461 1_655
B0 O16 1.472161 1_555
B0 O0 1.486259 1_655
B0 O8 1.486760 1_545
B0 O24 1.500168 1_555
B1 O17 1.472161 1_555
B1 O1 1.486259 1_555
B1 O9 1.486760 1_555
B1 O25 1.500168 1_555
B2 O18 1.472161 1_555
B2 O2 1.486259 1_555
B2 O10 1.486760 1_565
B2 O26 1.500168 1_555
B3 O19 1.472161 1_555
B3 O3 1.486259 1_455
B3 O11 1.486760 1_555
B3 O27 1.500168 1_555
B4 O20 1.472161 1_555
B4 O4 1.486259 1_455
B4 O12 1.486760 1_565
B4 O28 1.500168 1_555
B5 O21 1.472161 1_555
B5 O5 1.486259 1_555
B5 O13 1.486760 1_555
B5 O29 1.500168 1_555
B6 O22 1.472161 1_555
B6 O6 1.486259 1_555
B6 O14 1.486760 1_545
B6 O30 1.500168 1_555
B7 O23 1.472161 1_555
B7 O7 1.486259 1_655
B7 O15 1.486760 1_555
B7 O31 1.500168 1_555
B8 O17 1.349352 1_555
B8 O49 1.384592 1_555
B8 O32 1.395947 1_555
B9 O16 1.349352 1_555
B9 O48 1.384592 1_555
B9 O33 1.395947 1_555
B10 O19 1.349352 1_555
B10 O51 1.384592 1_555
B10 O34 1.395947 1_555
B11 O18 1.349352 1_555
B11 O50 1.384592 1_555
B11 O35 1.395947 1_555
B12 O21 1.349352 1_555
B12 O53 1.384592 1_555
B12 O36 1.395947 1_555
B13 O20 1.349352 1_555
B13 O52 1.384592 1_555
B13 O37 1.395947 1_555
B14 O23 1.349352 1_555
B14 O55 1.384592 1_555
B14 O38 1.395947 1_555
B15 O22 1.349352 1_555
B15 O54 1.384592 1_555
B15 O39 1.395947 1_555
B16 O31 1.347748 1_555
B16 O61 1.386274 1_555
B16 O40 1.405582 1_555
B17 O30 1.347748 1_555
B17 O60 1.386274 1_555
B17 O41 1.405582 1_555
B18 O29 1.347748 1_555
B18 O63 1.386274 1_555
B18 O42 1.405582 1_555
B19 O28 1.347748 1_555
B19 O62 1.386274 1_555
B19 O43 1.405582 1_555
B20 O27 1.347748 1_555
B20 O57 1.386274 1_555
B20 O44 1.405582 1_555
B21 O26 1.347748 1_555
B21 O56 1.386274 1_555
B21 O45 1.405582 1_555
B22 O25 1.347748 1_555
B22 O59 1.386274 1_555
B22 O46 1.405582 1_555
B23 O24 1.347748 1_555
B23 O58 1.386274 1_555
B23 O47 1.405582 1_555
B24 O8 1.352433 1_545
B24 O49 1.383320 1_546
B24 O33 1.395606 1_555
B25 O9 1.352433 1_555
B25 O48 1.383320 1_554
B25 O32 1.395606 1_555
B26 O10 1.352433 1_565
B26 O51 1.383320 1_565
B26 O35 1.395606 1_555
B27 O11 1.352433 1_555
B27 O50 1.383320 1_555
B27 O34 1.395606 1_555
B28 O12 1.352433 1_565
B28 O53 1.383320 1_564
B28 O37 1.395606 1_555
B29 O13 1.352433 1_555
B29 O52 1.383320 1_556
B29 O36 1.395606 1_555
B30 O14 1.352433 1_545
B30 O55 1.383320 1_545
B30 O39 1.395606 1_555
B31 O15 1.352433 1_555
B31 O54 1.383320 1_555
B31 O38 1.395606 1_555
B32 O7 1.355318 1_555
B32 O63 1.384144 1_555
B32 O40 1.396853 1_455
B33 O6 1.355318 1_555
B33 O62 1.384144 1_545
B33 O41 1.396853 1_555
B34 O5 1.355318 1_555
B34 O61 1.384144 1_555
B34 O42 1.396853 1_555
B35 O4 1.355318 1_555
B35 O60 1.384144 1_565
B35 O43 1.396853 1_655
B36 O3 1.355318 1_555
B36 O59 1.384144 1_555
B36 O44 1.396853 1_655
B37 O2 1.355318 1_555
B37 O58 1.384144 1_565
B37 O45 1.396853 1_555
B38 O1 1.355318 1_555
B38 O57 1.384144 1_555
B38 O46 1.396853 1_555
B39 O0 1.355318 1_555
B39 O56 1.384144 1_545
B39 O47 1.396853 1_455
