# generated using pymatgen
data_Na(SeO3)2
_symmetry_space_group_name_H-M   'P 1'
_cell_length_a   5.24943000
_cell_length_b   5.96043100
_cell_length_c   11.97115057
_cell_angle_alpha   60.39225185
_cell_angle_beta   90.00000000
_cell_angle_gamma   90.00000000
_symmetry_Int_Tables_number   1
_chemical_formula_structural   Na(SeO3)2
_chemical_formula_sum   'Na2 Se4 O12'
_cell_volume   325.65623098
_cell_formula_units_Z   2
loop_
 _symmetry_equiv_pos_site_id
 _symmetry_equiv_pos_as_xyz
  1  'x, y, z'
loop_
 _atom_site_type_symbol
 _atom_site_label
 _atom_site_symmetry_multiplicity
 _atom_site_fract_x
 _atom_site_fract_y
 _atom_site_fract_z
 _atom_site_occupancy
  Na  Na0  1  0.50000000  0.50000000  0.00000000  1
  Na  Na1  1  0.00000000  0.50000000  0.50000000  1
  Se  Se0  1  0.32305400  0.17785500  0.33193500  1
  Se  Se1  1  0.17694600  0.17785500  0.83193500  1
  Se  Se2  1  0.67694600  0.82214500  0.66806500  1
  Se  Se3  1  0.82305400  0.82214500  0.16806500  1
  O  O0  1  0.25822100  0.22095000  0.18633000  1
  O  O1  1  0.24177900  0.22095000  0.68633000  1
  O  O2  1  0.74177900  0.77905000  0.81367000  1
  O  O3  1  0.75822100  0.77905000  0.31367000  1
  O  O4  1  0.23043800  0.89913200  0.45477000  1
  O  O5  1  0.26956200  0.89913200  0.95477000  1
  O  O6  1  0.76956200  0.10086800  0.54523000  1
  O  O7  1  0.73043800  0.10086800  0.04523000  1
  O  O8  1  0.26197300  0.43021900  0.35024100  1
  O  O9  1  0.23802700  0.43021900  0.85024100  1
  O  O10  1  0.73802700  0.56978100  0.64975900  1
  O  O11  1  0.76197300  0.56978100  0.14975900  1
loop_
_geom_bond_atom_site_label_1
_geom_bond_atom_site_label_2
_geom_bond_distance
_geom_bond_site_symmetry_2
Na0 O2 2.384712 1_554
Na0 O0 2.384712 1_555
Na0 O9 2.452567 1_554
Na0 O11 2.452567 1_555
Na0 O7 2.478566 1_555
Na0 O5 2.478566 1_554
Na1 O3 2.384712 1_455
Na1 O1 2.384712 1_555
Na1 O10 2.452567 1_455
Na1 O8 2.452567 1_555
Na1 O6 2.478566 1_455
Na1 O4 2.478566 1_555
O0 Se0 1.666629 1_555
O1 Se1 1.666629 1_555
O2 Se2 1.666629 1_555
O3 Se3 1.666629 1_555
O4 Se0 1.656723 1_565
O5 Se1 1.656723 1_565
O6 Se2 1.656723 1_545
O7 Se3 1.656723 1_545
O8 Se0 1.655043 1_555
O9 Se1 1.655043 1_555
O10 Se2 1.655043 1_555
O11 Se3 1.655043 1_555
