# generated using pymatgen
data_Nd3Lu
_symmetry_space_group_name_H-M   'P 1'
_cell_length_a   5.12666892
_cell_length_b   5.12652643
_cell_length_c   5.12669852
_cell_angle_alpha   90.00000000
_cell_angle_beta   90.00000000
_cell_angle_gamma   90.00000000
_symmetry_Int_Tables_number   1
_chemical_formula_structural   Nd3Lu
_chemical_formula_sum   'Nd3 Lu1'
_cell_volume   134.73990955
_cell_formula_units_Z   1
loop_
 _symmetry_equiv_pos_site_id
 _symmetry_equiv_pos_as_xyz
  1  'x, y, z'
loop_
 _atom_site_type_symbol
 _atom_site_label
 _atom_site_symmetry_multiplicity
 _atom_site_fract_x
 _atom_site_fract_y
 _atom_site_fract_z
 _atom_site_occupancy
  Nd  Nd0  1  -0.00000000  0.50000000  0.50000000  1
  Nd  Nd1  1  0.50000000  0.00000000  0.50000000  1
  Nd  Nd2  1  0.50000000  0.50000000  -0.00000000  1
  Lu  Lu0  1  0.00000000  0.00000000  0.00000000  1
loop_
_geom_bond_atom_site_label_1
_geom_bond_atom_site_label_2
_geom_bond_distance
_geom_bond_site_symmetry_2
Nd0 Nd1 3.625052 1_465
Nd0 Nd1 3.625052 1_565
Nd0 Nd1 3.625052 1_455
Nd0 Nd1 3.625052 1_555
Nd0 Nd2 3.625113 1_556
Nd0 Nd2 3.625113 1_455
Nd0 Nd2 3.625113 1_456
Nd0 Nd2 3.625113 1_555
Nd1 Nd2 3.625062 1_555
Nd1 Nd2 3.625062 1_556
Nd1 Nd2 3.625062 1_545
Nd1 Nd2 3.625062 1_546
Lu0 Nd2 3.625052 1_555
Lu0 Nd2 3.625052 1_455
Lu0 Nd2 3.625052 1_545
Lu0 Nd2 3.625052 1_445
Lu0 Nd0 3.625062 1_554
Lu0 Nd0 3.625062 1_544
Lu0 Nd0 3.625062 1_555
Lu0 Nd0 3.625062 1_545
Lu0 Nd1 3.625113 1_455
Lu0 Nd1 3.625113 1_554
Lu0 Nd1 3.625113 1_555
Lu0 Nd1 3.625113 1_454
