# generated using pymatgen
data_Er3S2OF3
_symmetry_space_group_name_H-M   'P 1'
_cell_length_a   9.85341720
_cell_length_b   9.85341720
_cell_length_c   5.36973060
_cell_angle_alpha   89.76345814
_cell_angle_beta   89.76345814
_cell_angle_gamma   148.35572399
_symmetry_Int_Tables_number   1
_chemical_formula_structural   Er3S2OF3
_chemical_formula_sum   'Er6 S4 O2 F6'
_cell_volume   273.48978071
_cell_formula_units_Z   2
loop_
 _symmetry_equiv_pos_site_id
 _symmetry_equiv_pos_as_xyz
  1  'x, y, z'
loop_
 _atom_site_type_symbol
 _atom_site_label
 _atom_site_symmetry_multiplicity
 _atom_site_fract_x
 _atom_site_fract_y
 _atom_site_fract_z
 _atom_site_occupancy
  Er  Er0  1  0.74710200  0.24603000  0.74636400  1
  Er  Er1  1  0.24603000  0.74710200  0.24636400  1
  Er  Er2  1  0.11502200  0.91880200  0.76792400  1
  Er  Er3  1  0.57541400  0.38803400  0.23189300  1
  Er  Er4  1  0.91880200  0.11502200  0.26792400  1
  Er  Er5  1  0.38803400  0.57541400  0.73189300  1
  S  S0  1  0.94031200  0.05034500  0.75880100  1
  S  S1  1  0.44983700  0.55866000  0.24119600  1
  S  S2  1  0.05034500  0.94031200  0.25880100  1
  S  S3  1  0.55866000  0.44983700  0.74119600  1
  O  O0  1  0.38323400  0.01268300  0.94629200  1
  O  O1  1  0.01268300  0.38323400  0.44629200  1
  F  F0  1  0.49682900  0.12342600  0.44232900  1
  F  F1  1  0.12342600  0.49682900  0.94232900  1
  F  F2  1  0.62173900  0.98796400  0.05698400  1
  F  F3  1  0.50616600  0.87840100  0.55821700  1
  F  F4  1  0.98796400  0.62173900  0.55698400  1
  F  F5  1  0.87840100  0.50616600  0.05821700  1
loop_
_geom_bond_atom_site_label_1
_geom_bond_atom_site_label_2
_geom_bond_distance
_geom_bond_site_symmetry_2
Er0 F0 2.276672 1_555
Er0 F3 2.277348 1_545
Er0 O1 2.279387 1_655
Er0 O0 2.281593 1_555
Er0 F4 2.315417 1_555
Er0 F2 2.318142 1_546
Er0 F1 2.327145 1_655
Er0 F5 2.335632 1_556
Er1 F1 2.276672 1_554
Er1 F5 2.277348 1_455
Er1 O0 2.279387 1_564
Er1 O1 2.281593 1_555
Er1 F2 2.315417 1_555
Er1 F4 2.318142 1_455
Er1 F0 2.327145 1_565
Er1 F3 2.335632 1_555
Er2 O0 2.150166 1_565
Er2 F4 2.284255 1_455
Er2 S3 2.748142 1_565
Er2 S2 2.760368 1_556
Er2 S2 2.857375 1_555
Er2 F5 2.859076 1_456
Er2 S3 2.882158 1_455
Er2 S0 2.906066 1_465
Er3 F5 2.277896 1_555
Er3 F0 2.281535 1_555
Er3 S2 2.716111 1_545
Er3 S3 2.739044 1_554
Er3 O0 2.786184 1_554
Er3 S1 2.811117 1_555
Er3 S3 2.838755 1_555
Er3 S2 2.861171 1_655
Er4 O1 2.150166 1_655
Er4 F2 2.284255 1_545
Er4 S1 2.748142 1_655
Er4 S0 2.760368 1_555
Er4 S0 2.857375 1_554
Er4 F3 2.859076 1_545
Er4 S1 2.882158 1_545
Er4 S2 2.906066 1_645
Er5 F3 2.277896 1_555
Er5 F1 2.281535 1_555
Er5 S0 2.716111 1_455
Er5 S1 2.739044 1_555
Er5 O1 2.786184 1_555
Er5 S3 2.811117 1_555
Er5 S1 2.838755 1_556
Er5 S0 2.861171 1_565
