# generated using pymatgen
data_MgVP2O7
_symmetry_space_group_name_H-M   'P 1'
_cell_length_a   6.59677504
_cell_length_b   8.73927434
_cell_length_c   9.66732374
_cell_angle_alpha   71.42487729
_cell_angle_beta   72.71322807
_cell_angle_gamma   92.25769918
_symmetry_Int_Tables_number   1
_chemical_formula_structural   MgVP2O7
_chemical_formula_sum   'Mg4 V4 P8 O28'
_cell_volume   498.87106783
_cell_formula_units_Z   4
loop_
 _symmetry_equiv_pos_site_id
 _symmetry_equiv_pos_as_xyz
  1  'x, y, z'
loop_
 _atom_site_type_symbol
 _atom_site_label
 _atom_site_symmetry_multiplicity
 _atom_site_fract_x
 _atom_site_fract_y
 _atom_site_fract_z
 _atom_site_occupancy
  Mg  Mg0  1  0.65231800  0.16756300  0.48452000  1
  Mg  Mg1  1  0.65239700  0.66762000  0.98456600  1
  Mg  Mg2  1  0.34762000  0.83238700  0.51546600  1
  Mg  Mg3  1  0.34762900  0.33243400  0.01542300  1
  V  V0  1  0.16015300  0.42578100  0.73545400  1
  V  V1  1  0.83991500  0.57410600  0.26475100  1
  V  V2  1  0.16044000  0.92600200  0.23550200  1
  V  V3  1  0.83960500  0.07412200  0.76448900  1
  P  P0  1  0.68490200  0.93680500  0.15319200  1
  P  P1  1  0.68474600  0.43681000  0.65324600  1
  P  P2  1  0.31511400  0.06317800  0.84677500  1
  P  P3  1  0.31531600  0.56318600  0.34678200  1
  P  P4  1  0.18874600  0.18968400  0.40955700  1
  P  P5  1  0.18870200  0.68964300  0.90957900  1
  P  P6  1  0.81124300  0.81034500  0.59042300  1
  P  P7  1  0.81122700  0.31034100  0.09042200  1
  O  O0  1  0.68624400  0.40909700  0.50372800  1
  O  O1  1  0.68630300  0.90914800  0.00368200  1
  O  O2  1  0.31373000  0.59086700  0.49630600  1
  O  O3  1  0.31370500  0.09088200  0.99627300  1
  O  O4  1  0.85044700  0.85157300  0.22116500  1
  O  O5  1  0.85026900  0.35151100  0.72120500  1
  O  O6  1  0.14959100  0.14846700  0.77878000  1
  O  O7  1  0.14978000  0.64851400  0.27877800  1
  O  O8  1  0.46133300  0.90029600  0.27506000  1
  O  O9  1  0.46118700  0.40035400  0.77503000  1
  O  O10  1  0.53866200  0.09967000  0.72492100  1
  O  O11  1  0.53887200  0.59962700  0.22500300  1
  O  O12  1  0.65316100  0.90659900  0.52130100  1
  O  O13  1  0.65317000  0.40661200  0.02129500  1
  O  O14  1  0.34678400  0.09337500  0.47868800  1
  O  O15  1  0.34683900  0.59339100  0.97868200  1
  O  O16  1  0.21179700  0.18673400  0.24739900  1
  O  O17  1  0.21170400  0.68668400  0.74745700  1
  O  O18  1  0.78823300  0.81332800  0.75255900  1
  O  O19  1  0.78825100  0.31327600  0.25255900  1
  O  O20  1  0.25004000  0.37163000  0.39934100  1
  O  O21  1  0.24996700  0.87165200  0.89930900  1
  O  O22  1  0.74999400  0.62835800  0.60067800  1
  O  O23  1  0.74992200  0.12836500  0.10066600  1
  O  O24  1  0.04569200  0.85383700  0.48328900  1
  O  O25  1  0.04567000  0.35380200  0.98324900  1
  O  O26  1  0.95428000  0.14620900  0.51665500  1
  O  O27  1  0.95429700  0.64613100  0.01679400  1
loop_
_geom_bond_atom_site_label_1
_geom_bond_atom_site_label_2
_geom_bond_distance
_geom_bond_site_symmetry_2
Mg0 O19 2.085655 1_555
Mg0 O10 2.089545 1_555
Mg0 O26 2.111736 1_555
Mg0 O14 2.115135 1_555
Mg0 O0 2.185720 1_555
Mg0 O12 2.193922 1_545
Mg1 O18 2.085924 1_555
Mg1 O11 2.089775 1_556
Mg1 O27 2.111783 1_556
Mg1 O15 2.115590 1_555
Mg1 O1 2.185281 1_556
Mg1 O13 2.194345 1_556
Mg2 O17 2.085842 1_555
Mg2 O8 2.089584 1_555
Mg2 O24 2.111742 1_555
Mg2 O12 2.115249 1_555
Mg2 O2 2.185382 1_555
Mg2 O14 2.194130 1_565
Mg3 O16 2.085678 1_555
Mg3 O9 2.089443 1_554
Mg3 O25 2.111877 1_554
Mg3 O13 2.115313 1_555
Mg3 O3 2.185638 1_554
Mg3 O15 2.193895 1_554
O0 P1 1.537133 1_555
O0 V1 2.194304 1_555
O1 P0 1.537004 1_555
O1 V3 2.195389 1_564
O2 P3 1.536908 1_555
O2 V0 2.195600 1_555
O3 P2 1.537063 1_555
O3 V2 2.195356 1_546
O4 P0 1.535568 1_555
O4 V2 2.178353 1_655
O4 V1 2.319634 1_555
O5 P1 1.535598 1_555
O5 V0 2.176909 1_655
O5 V3 2.319375 1_555
O6 P2 1.535734 1_555
O6 V3 2.177908 1_455
O6 V0 2.318706 1_555
O7 P3 1.535978 1_555
O7 V1 2.176192 1_455
O7 V2 2.320242 1_555
O8 P0 1.534842 1_555
O8 V2 2.137325 1_555
O9 P1 1.534491 1_555
O9 V0 2.138110 1_555
O10 P2 1.534697 1_555
O10 V3 2.137575 1_555
O11 P3 1.534467 1_555
O11 V1 2.138940 1_555
O12 P6 1.538429 1_555
O13 P7 1.538380 1_555
O14 P4 1.538438 1_555
O15 P5 1.538637 1_555
O16 P4 1.538067 1_555
O16 V2 2.334387 1_545
O17 P5 1.537814 1_555
O17 V0 2.336429 1_555
O18 P6 1.538010 1_555
O18 V3 2.335062 1_565
O19 P7 1.537921 1_555
O19 V1 2.336630 1_555
O20 P3 1.586611 1_555
O20 P4 1.589702 1_555
O21 P2 1.586273 1_565
O21 P5 1.590025 1_555
O22 P1 1.586512 1_555
O22 P6 1.589866 1_555
O23 P0 1.586448 1_545
O23 P7 1.589881 1_555
O24 P6 1.536244 1_455
O24 V2 2.152006 1_555
O25 P7 1.536326 1_456
O25 V0 2.152184 1_555
O26 P4 1.536231 1_655
O26 V3 2.152469 1_555
O27 P5 1.536244 1_654
O27 V1 2.153582 1_555
