# generated using pymatgen
data_Ba2LiSmCoCu2O7
_symmetry_space_group_name_H-M   'P 1'
_cell_length_a   3.82766800
_cell_length_b   4.00234100
_cell_length_c   12.73785900
_cell_angle_alpha   90.00000000
_cell_angle_beta   90.00000000
_cell_angle_gamma   90.00000000
_symmetry_Int_Tables_number   1
_chemical_formula_structural   Ba2LiSmCoCu2O7
_chemical_formula_sum   'Ba2 Li1 Sm1 Co1 Cu2 O7'
_cell_volume   195.13931962
_cell_formula_units_Z   1
loop_
 _symmetry_equiv_pos_site_id
 _symmetry_equiv_pos_as_xyz
  1  'x, y, z'
loop_
 _atom_site_type_symbol
 _atom_site_label
 _atom_site_symmetry_multiplicity
 _atom_site_fract_x
 _atom_site_fract_y
 _atom_site_fract_z
 _atom_site_occupancy
  Ba  Ba0  1  0.50000000  0.52173000  0.21424200  1
  Ba  Ba1  1  0.50000000  0.52173000  0.78575800  1
  Li  Li0  1  0.50000000  0.35533500  0.00000000  1
  Sm  Sm0  1  0.50000000  0.50567100  0.50000000  1
  Co  Co0  1  0.00000000  0.94518600  0.00000000  1
  Cu  Cu0  1  0.00000000  0.00766500  0.37857900  1
  Cu  Cu1  1  0.00000000  0.00766500  0.62142100  1
  O  O0  1  0.50000000  0.00592500  0.38175100  1
  O  O1  1  0.50000000  0.00592500  0.61824900  1
  O  O2  1  0.00000000  0.97460400  0.14463000  1
  O  O3  1  0.00000000  0.97460400  0.85537000  1
  O  O4  1  0.00000000  0.50683800  0.38035600  1
  O  O5  1  0.00000000  0.50683800  0.61964400  1
  O  O6  1  0.00000000  0.46028200  0.00000000  1
loop_
_geom_bond_atom_site_label_1
_geom_bond_atom_site_label_2
_geom_bond_distance
_geom_bond_site_symmetry_2
Ba0 O2 2.781074 1_555
Ba0 O2 2.781074 1_655
Ba0 O4 2.853682 1_555
Ba0 O4 2.853682 1_655
Ba0 O0 2.882397 1_565
Ba0 O0 2.968933 1_555
Ba0 O2 3.040422 1_545
Ba0 O2 3.040422 1_645
Ba1 O3 2.781074 1_655
Ba1 O3 2.781074 1_555
Ba1 O5 2.853682 1_655
Ba1 O5 2.853682 1_555
Ba1 O1 2.882397 1_565
Ba1 O1 2.968933 1_555
Ba1 O3 3.040422 1_545
Ba1 O3 3.040422 1_645
Li0 O6 1.959385 1_655
Li0 O6 1.959385 1_555
Co0 O3 1.846035 1_554
Co0 O2 1.846035 1_555
Co0 O6 1.940751 1_555
Co0 O6 2.061590 1_565
Cu0 O0 1.914273 1_455
Cu0 O0 1.914273 1_555
Cu0 O4 1.997989 1_555
Cu0 O4 2.004608 1_545
Cu1 O1 1.914273 1_455
Cu1 O1 1.914273 1_555
Cu1 O5 1.997989 1_555
Cu1 O5 2.004608 1_545
O0 Sm0 2.503871 1_555
O0 Sm0 2.505496 1_545
O1 Sm0 2.503871 1_555
O1 Sm0 2.505496 1_545
O4 Sm0 2.446504 1_555
O4 Sm0 2.446504 1_455
O5 Sm0 2.446504 1_455
O5 Sm0 2.446504 1_555
