# generated using pymatgen
data_U2PbSe5
_symmetry_space_group_name_H-M   'P 1'
_cell_length_a   7.82269300
_cell_length_b   8.10850000
_cell_length_c   12.88607700
_cell_angle_alpha   90.00000000
_cell_angle_beta   90.00000000
_cell_angle_gamma   90.00000000
_symmetry_Int_Tables_number   1
_chemical_formula_structural   U2PbSe5
_chemical_formula_sum   'U8 Pb4 Se20'
_cell_volume   817.36780970
_cell_formula_units_Z   4
loop_
 _symmetry_equiv_pos_site_id
 _symmetry_equiv_pos_as_xyz
  1  'x, y, z'
loop_
 _atom_site_type_symbol
 _atom_site_label
 _atom_site_symmetry_multiplicity
 _atom_site_fract_x
 _atom_site_fract_y
 _atom_site_fract_z
 _atom_site_occupancy
  U  U0  1  0.52002100  0.50173300  0.32083200  1
  U  U1  1  0.97997900  0.99826700  0.82083200  1
  U  U2  1  0.47997900  0.00173300  0.67916800  1
  U  U3  1  0.02002100  0.49826700  0.17916800  1
  U  U4  1  0.47997900  0.49826700  0.67916800  1
  U  U5  1  0.02002100  0.00173300  0.17916800  1
  U  U6  1  0.52002100  0.99826700  0.32083200  1
  U  U7  1  0.97997900  0.50173300  0.82083200  1
  Pb  Pb0  1  0.06660100  0.75000000  0.49088900  1
  Pb  Pb1  1  0.43339900  0.75000000  0.99088900  1
  Pb  Pb2  1  0.93339900  0.25000000  0.50911100  1
  Pb  Pb3  1  0.56660100  0.25000000  0.00911100  1
  Se  Se0  1  0.82816600  0.96096000  0.62006100  1
  Se  Se1  1  0.67183400  0.53904000  0.12006100  1
  Se  Se2  1  0.17183400  0.46096000  0.37993900  1
  Se  Se3  1  0.32816600  0.03904000  0.87993900  1
  Se  Se4  1  0.17183400  0.03904000  0.37993900  1
  Se  Se5  1  0.32816600  0.46096000  0.87993900  1
  Se  Se6  1  0.82816600  0.53904000  0.62006100  1
  Se  Se7  1  0.67183400  0.96096000  0.12006100  1
  Se  Se8  1  0.82559000  0.75000000  0.31148200  1
  Se  Se9  1  0.67441000  0.75000000  0.81148200  1
  Se  Se10  1  0.17441000  0.25000000  0.68851800  1
  Se  Se11  1  0.32559000  0.25000000  0.18851800  1
  Se  Se12  1  0.48208600  0.75000000  0.49873300  1
  Se  Se13  1  0.01791400  0.75000000  0.99873300  1
  Se  Se14  1  0.51791400  0.25000000  0.50126700  1
  Se  Se15  1  0.98208600  0.25000000  0.00126700  1
  Se  Se16  1  0.19708000  0.75000000  0.71330900  1
  Se  Se17  1  0.30292000  0.75000000  0.21330900  1
  Se  Se18  1  0.80292000  0.25000000  0.28669100  1
  Se  Se19  1  0.69708000  0.25000000  0.78669100  1
loop_
_geom_bond_atom_site_label_1
_geom_bond_atom_site_label_2
_geom_bond_distance
_geom_bond_site_symmetry_2
Pb0 Se4 2.866109 1_565
Pb0 Se2 2.866109 1_555
Pb0 Se8 2.983157 1_455
Pb0 Se0 3.029135 1_455
Pb0 Se6 3.029135 1_455
Pb0 Se16 3.042445 1_555
Pb0 Se12 3.251783 1_555
Pb1 Se3 2.866109 1_565
Pb1 Se5 2.866109 1_555
Pb1 Se9 2.983157 1_555
Pb1 Se7 3.029135 1_556
Pb1 Se1 3.029135 1_556
Pb1 Se17 3.042445 1_556
Pb1 Se13 3.251783 1_555
Pb2 Se0 2.866109 1_545
Pb2 Se6 2.866109 1_555
Pb2 Se10 2.983157 1_655
Pb2 Se4 3.029135 1_655
Pb2 Se2 3.029135 1_655
Pb2 Se18 3.042445 1_555
Pb2 Se14 3.251783 1_555
Pb3 Se7 2.866109 1_545
Pb3 Se1 2.866109 1_555
Pb3 Se11 2.983157 1_555
Pb3 Se5 3.029135 1_554
Pb3 Se3 3.029135 1_554
Pb3 Se19 3.042445 1_554
Pb3 Se15 3.251783 1_555
Se0 U2 2.847506 1_565
Se0 U1 2.862729 1_555
Se1 U3 2.847506 1_655
Se1 U0 2.862729 1_555
Se2 U0 2.847506 1_555
Se2 U3 2.862729 1_555
Se3 U1 2.847506 1_445
Se3 U2 2.862729 1_555
Se4 U6 2.847506 1_545
Se4 U5 2.862729 1_555
Se5 U7 2.847506 1_455
Se5 U4 2.862729 1_555
Se6 U4 2.847506 1_555
Se6 U7 2.862729 1_555
Se7 U5 2.847506 1_665
Se7 U6 2.862729 1_555
Se8 U5 3.063792 1_665
Se8 U3 3.063792 1_655
Se8 U0 3.127437 1_555
Se8 U6 3.127437 1_555
Se9 U4 3.063792 1_555
Se9 U2 3.063792 1_565
Se9 U7 3.127437 1_555
Se9 U1 3.127437 1_555
Se10 U1 3.063792 1_445
Se10 U7 3.063792 1_455
Se10 U4 3.127437 1_555
Se10 U2 3.127437 1_555
Se11 U6 3.063792 1_545
Se11 U0 3.063792 1_555
Se11 U5 3.127437 1_555
Se11 U3 3.127437 1_555
Se12 U0 3.065263 1_555
Se12 U6 3.065263 1_555
Se12 U4 3.093988 1_555
Se12 U2 3.093988 1_565
Se13 U1 3.065263 1_455
Se13 U7 3.065263 1_455
Se13 U3 3.093988 1_556
Se13 U5 3.093988 1_566
Se14 U4 3.065263 1_555
Se14 U2 3.065263 1_555
Se14 U0 3.093988 1_555
Se14 U6 3.093988 1_545
Se15 U5 3.065263 1_655
Se15 U3 3.065263 1_655
Se15 U7 3.093988 1_554
Se15 U1 3.093988 1_544
Se16 U1 2.975984 1_455
Se16 U7 2.975984 1_455
Se16 U4 3.042608 1_555
Se16 U2 3.042608 1_565
Se17 U0 2.975984 1_555
Se17 U6 2.975984 1_555
Se17 U3 3.042608 1_555
Se17 U5 3.042608 1_565
Se18 U5 2.975984 1_655
Se18 U3 2.975984 1_655
Se18 U6 3.042608 1_545
Se18 U0 3.042608 1_555
Se19 U2 2.975984 1_555
Se19 U4 2.975984 1_555
Se19 U7 3.042608 1_555
Se19 U1 3.042608 1_545
