# generated using pymatgen
data_SrLiP
_symmetry_space_group_name_H-M   'P 1'
_cell_length_a   4.25806200
_cell_length_b   4.29548154
_cell_length_c   4.29548154
_cell_angle_alpha   119.99999288
_cell_angle_beta   90.00000000
_cell_angle_gamma   90.00000000
_symmetry_Int_Tables_number   1
_chemical_formula_structural   SrLiP
_chemical_formula_sum   'Sr1 Li1 P1'
_cell_volume   68.04032151
_cell_formula_units_Z   1
loop_
 _symmetry_equiv_pos_site_id
 _symmetry_equiv_pos_as_xyz
  1  'x, y, z'
loop_
 _atom_site_type_symbol
 _atom_site_label
 _atom_site_symmetry_multiplicity
 _atom_site_fract_x
 _atom_site_fract_y
 _atom_site_fract_z
 _atom_site_occupancy
  Sr  Sr0  1  0.00000000  0.66666700  0.33333300  1
  Li  Li0  1  0.50000000  0.00000000  0.00000000  1
  P  P0  1  0.50000000  0.33333300  0.66666700  1
loop_
_geom_bond_atom_site_label_1
_geom_bond_atom_site_label_2
_geom_bond_distance
_geom_bond_site_symmetry_2
Li0 P0 2.479995 1_554
Li0 P0 2.479999 1_555
Li0 P0 2.479999 1_544
Li0 Sr0 3.268508 1_645
Li0 Sr0 3.268508 1_545
Li0 Sr0 3.268511 1_644
Li0 Sr0 3.268511 1_544
Li0 Sr0 3.268511 1_555
Li0 Sr0 3.268511 1_655
P0 Sr0 3.268509 1_545
P0 Sr0 3.268509 1_645
P0 Sr0 3.268509 1_556
P0 Sr0 3.268509 1_656
P0 Sr0 3.268514 1_555
P0 Sr0 3.268514 1_655
