# generated using pymatgen
data_LiFe8(O3F)4
_symmetry_space_group_name_H-M   'P 1'
_cell_length_a   5.97495200
_cell_length_b   6.44453121
_cell_length_c   7.92484164
_cell_angle_alpha   90.06976745
_cell_angle_beta   112.14858670
_cell_angle_gamma   90.00162190
_symmetry_Int_Tables_number   1
_chemical_formula_structural   LiFe8(O3F)4
_chemical_formula_sum   'Li1 Fe8 O12 F4'
_cell_volume   282.63444039
_cell_formula_units_Z   1
loop_
 _symmetry_equiv_pos_site_id
 _symmetry_equiv_pos_as_xyz
  1  'x, y, z'
loop_
 _atom_site_type_symbol
 _atom_site_label
 _atom_site_symmetry_multiplicity
 _atom_site_fract_x
 _atom_site_fract_y
 _atom_site_fract_z
 _atom_site_occupancy
  Li  Li0  1  0.53119400  0.75000100  0.24998700  1
  Fe  Fe0  1  0.49343000  0.00998800  0.98799100  1
  Fe  Fe1  1  0.00713400  0.99747900  0.00894800  1
  Fe  Fe2  1  0.77813800  0.50019300  0.05470900  1
  Fe  Fe3  1  0.23336300  0.49277000  0.97399000  1
  Fe  Fe4  1  0.50939700  0.00717900  0.52603100  1
  Fe  Fe5  1  0.97340800  0.99983500  0.44526200  1
  Fe  Fe6  1  0.75536800  0.48998900  0.51202100  1
  Fe  Fe7  1  0.24820700  0.50251900  0.49107600  1
  O  O0  1  0.82838100  0.99553800  0.17346500  1
  O  O1  1  0.50294000  0.31005600  0.99903800  1
  O  O2  1  0.99818900  0.30427300  0.00570400  1
  O  O3  1  0.49996000  0.69487300  0.00847400  1
  O  O4  1  0.75397500  0.18995700  0.50103200  1
  O  O5  1  0.24249500  0.19572400  0.49426400  1
  O  O6  1  0.00569400  0.69104900  0.00808500  1
  O  O7  1  0.16749500  0.00299900  0.84437800  1
  O  O8  1  0.90494500  0.50441100  0.32651600  1
  O  O9  1  0.57301700  0.49711600  0.65557300  1
  O  O10  1  0.74147800  0.80514200  0.49144900  1
  O  O11  1  0.24752600  0.80891700  0.49196300  1
  F  F0  1  0.35818300  0.99826200  0.20757800  1
  F  F1  1  0.65408800  0.99656500  0.80222000  1
  F  F2  1  0.40063500  0.50172700  0.29247500  1
  F  F3  1  0.10177700  0.50343800  0.69777300  1
loop_
_geom_bond_atom_site_label_1
_geom_bond_atom_site_label_2
_geom_bond_distance
_geom_bond_site_symmetry_2
Li0 O10 1.884687 1_555
Li0 O3 1.885014 1_555
Fe0 O7 1.848925 1_555
Fe0 O1 1.935535 1_555
Fe0 O0 1.989144 1_546
Fe0 O3 2.036645 1_546
Fe1 O7 1.887478 1_564
Fe1 O0 1.972481 1_455
Fe1 O6 1.974808 1_555
Fe1 O2 1.977804 1_465
Fe2 O1 1.962496 1_554
Fe2 O2 1.964079 1_555
Fe2 O6 1.969209 1_655
Fe2 O8 1.995971 1_555
Fe2 O3 2.003233 1_555
Fe3 O1 1.944198 1_555
Fe3 O2 1.944282 1_456
Fe3 O6 1.957719 1_556
Fe3 O3 1.994796 1_556
Fe4 O4 1.944487 1_555
Fe4 O5 1.944505 1_555
Fe4 O11 1.958093 1_545
Fe4 O10 1.994754 1_545
Fe5 O4 1.962461 1_565
Fe5 O5 1.964018 1_665
Fe5 O11 1.969135 1_655
Fe5 O0 1.995906 1_555
Fe5 O10 2.003022 1_555
Fe6 O9 1.848749 1_555
Fe6 O4 1.935296 1_555
Fe6 O8 1.989862 1_555
Fe6 O10 2.036933 1_555
Fe7 O9 1.886666 1_555
Fe7 O8 1.972464 1_455
Fe7 O11 1.974605 1_555
Fe7 O5 1.977800 1_555
F0 Li0 1.865679 1_555
F0 Fe1 2.094707 1_555
F0 Fe0 2.178909 1_564
F0 Fe4 2.338587 1_565
F1 Fe4 2.028870 1_565
F1 Fe0 2.040001 1_565
F1 Fe1 2.127890 1_656
F2 Li0 1.865805 1_555
F2 Fe7 2.094611 1_555
F2 Fe6 2.178290 1_555
F2 Fe3 2.338826 1_554
F3 Fe3 2.029082 1_555
F3 Fe6 2.039791 1_455
F3 Fe7 2.128210 1_555
