# generated using pymatgen
data_KUClO3
_symmetry_space_group_name_H-M   'P 1'
_cell_length_a   4.11668700
_cell_length_b   7.25846300
_cell_length_c   8.95767138
_cell_angle_alpha   75.20608084
_cell_angle_beta   90.00000000
_cell_angle_gamma   90.00000000
_symmetry_Int_Tables_number   1
_chemical_formula_structural   KUClO3
_chemical_formula_sum   'K2 U2 Cl2 O6'
_cell_volume   258.78968667
_cell_formula_units_Z   2
loop_
 _symmetry_equiv_pos_site_id
 _symmetry_equiv_pos_as_xyz
  1  'x, y, z'
loop_
 _atom_site_type_symbol
 _atom_site_label
 _atom_site_symmetry_multiplicity
 _atom_site_fract_x
 _atom_site_fract_y
 _atom_site_fract_z
 _atom_site_occupancy
  K  K0  1  0.25000000  0.85941200  0.75528500  1
  K  K1  1  0.75000000  0.14058800  0.24471500  1
  U  U0  1  0.25000000  0.61283700  0.32730800  1
  U  U1  1  0.75000000  0.38716300  0.67269200  1
  Cl  Cl0  1  0.25000000  0.22978900  0.91025600  1
  Cl  Cl1  1  0.75000000  0.77021100  0.08974400  1
  O  O0  1  0.25000000  0.45159400  0.58348200  1
  O  O1  1  0.75000000  0.54840600  0.41651800  1
  O  O2  1  0.25000000  0.84849500  0.37190700  1
  O  O3  1  0.75000000  0.15150500  0.62809300  1
  O  O4  1  0.25000000  0.38933900  0.26420800  1
  O  O5  1  0.75000000  0.61066100  0.73579200  1
loop_
_geom_bond_atom_site_label_1
_geom_bond_atom_site_label_2
_geom_bond_distance
_geom_bond_site_symmetry_2
K0 O5 2.772775 1_555
K0 O5 2.772775 1_455
K0 O3 2.965856 1_565
K0 O3 2.965856 1_465
K1 O4 2.772775 1_655
K1 O4 2.772775 1_555
K1 O2 2.965856 1_545
K1 O2 2.965856 1_645
Cl0 U1 2.971312 1_455
Cl0 U1 2.971312 1_555
Cl0 K0 3.325690 1_545
Cl0 K1 3.555450 1_556
Cl0 K1 3.555450 1_456
Cl1 U0 2.971312 1_655
Cl1 U0 2.971312 1_555
Cl1 K1 3.325690 1_565
Cl1 K0 3.555450 1_654
Cl1 K0 3.555450 1_554
O0 U1 2.214322 1_455
O0 U1 2.214322 1_555
O0 U0 2.294338 1_555
O1 U0 2.214322 1_555
O1 U0 2.214322 1_655
O1 U1 2.294338 1_555
O2 U0 1.853225 1_555
O3 U1 1.853225 1_555
O4 U0 1.849177 1_555
O5 U1 1.849177 1_555
