# generated using pymatgen
data_ReGeAs
_symmetry_space_group_name_H-M   'P 1'
_cell_length_a   4.87237646
_cell_length_b   4.87237646
_cell_length_c   7.80522550
_cell_angle_alpha   61.02827492
_cell_angle_beta   61.02827492
_cell_angle_gamma   38.80119485
_symmetry_Int_Tables_number   1
_chemical_formula_structural   ReGeAs
_chemical_formula_sum   'Re2 Ge2 As2'
_cell_volume   99.63062514
_cell_formula_units_Z   2
loop_
 _symmetry_equiv_pos_site_id
 _symmetry_equiv_pos_as_xyz
  1  'x, y, z'
loop_
 _atom_site_type_symbol
 _atom_site_label
 _atom_site_symmetry_multiplicity
 _atom_site_fract_x
 _atom_site_fract_y
 _atom_site_fract_z
 _atom_site_occupancy
  Re  Re0  1  0.16054900  0.16054900  0.78922000  1
  Re  Re1  1  0.83945100  0.83945100  0.21078000  1
  Ge  Ge0  1  0.39665800  0.39665800  0.89587200  1
  Ge  Ge1  1  0.60334200  0.60334200  0.10412800  1
  As  As0  1  0.85889500  0.85889500  0.52753300  1
  As  As1  1  0.14110500  0.14110500  0.47246700  1
loop_
_geom_bond_atom_site_label_1
_geom_bond_atom_site_label_2
_geom_bond_distance
_geom_bond_site_symmetry_2
Ge0 Re0 2.668675 1_655
Ge0 Re0 2.668675 1_565
Ge0 Re0 2.694088 1_555
Ge0 Re1 2.758606 1_456
Ge0 Re1 2.758606 1_546
Ge0 Ge1 2.833561 1_456
Ge0 Ge1 2.833561 1_546
Ge1 Re1 2.668675 1_545
Ge1 Re1 2.668675 1_455
Ge1 Re1 2.694088 1_555
Ge1 Re0 2.758606 1_564
Ge1 Re0 2.758606 1_654
As0 As1 2.401681 1_665
As0 Re0 2.508078 1_655
As0 Re0 2.508078 1_565
As0 Re1 2.568689 1_555
As1 Re1 2.508078 1_545
As1 Re1 2.508078 1_455
As1 Re0 2.568689 1_555
