# generated using pymatgen
data_Ba(BiS2)2
_symmetry_space_group_name_H-M   'P 1'
_cell_length_a   21.94153590
_cell_length_b   21.94130155
_cell_length_c   4.15546315
_cell_angle_alpha   90.00003254
_cell_angle_beta   89.99999066
_cell_angle_gamma   119.99986289
_symmetry_Int_Tables_number   1
_chemical_formula_structural   Ba(BiS2)2
_chemical_formula_sum   'Ba9 Bi18 S36'
_cell_volume   1732.52726611
_cell_formula_units_Z   9
loop_
 _symmetry_equiv_pos_site_id
 _symmetry_equiv_pos_as_xyz
  1  'x, y, z'
loop_
 _atom_site_type_symbol
 _atom_site_label
 _atom_site_symmetry_multiplicity
 _atom_site_fract_x
 _atom_site_fract_y
 _atom_site_fract_z
 _atom_site_occupancy
  Ba  Ba0  1  0.66666720  0.33333394  0.50000034  1
  Ba  Ba1  1  0.33333132  0.66666543  0.00000047  1
  Ba  Ba2  1  0.99999872  -0.00000190  0.49999997  1
  Ba  Ba3  1  0.41452174  0.17775855  0.50000125  1
  Ba  Ba4  1  0.82224575  0.23676037  0.50000000  1
  Ba  Ba5  1  0.76324106  0.58548539  0.49999949  1
  Ba  Ba6  1  0.58232239  0.82079000  -0.00000018  1
  Ba  Ba7  1  0.17920511  0.76152973  -0.00000033  1
  Ba  Ba8  1  0.23846913  0.41767741  0.00000020  1
  Bi  Bi0  1  0.43984177  0.55488556  0.50000005  1
  Bi  Bi1  1  0.44511382  0.88495413  0.50000022  1
  Bi  Bi2  1  0.11503932  0.56015897  0.49999976  1
  Bi  Bi3  1  0.56096390  0.44598646  0.00000008  1
  Bi  Bi4  1  0.55400907  0.11497385  0.00000013  1
  Bi  Bi5  1  0.88502504  0.43902927  0.00000005  1
  Bi  Bi6  1  0.65786102  0.03118134  0.50000036  1
  Bi  Bi7  1  0.96881659  0.62667786  0.50000008  1
  Bi  Bi8  1  0.37332294  0.34214229  0.50000017  1
  Bi  Bi9  1  0.34074716  0.96681641  0.00000110  1
  Bi  Bi10  1  0.03318454  0.37393426  -0.00000017  1
  Bi  Bi11  1  0.62606795  0.65924649  -0.00000003  1
  Bi  Bi12  1  0.99540648  0.79911968  0.00000087  1
  Bi  Bi13  1  0.20088205  0.19628641  0.00000032  1
  Bi  Bi14  1  0.80371145  0.00459453  -0.00000004  1
  Bi  Bi15  1  0.00715221  0.19891054  0.50000028  1
  Bi  Bi16  1  0.80108974  0.80824173  0.50000012  1
  Bi  Bi17  1  0.19176158  0.99285010  0.50000036  1
  S  S0  1  0.83834144  0.48564114  0.50000016  1
  S  S1  1  0.51436047  0.35270034  0.49999599  1
  S  S2  1  0.64730180  0.16165531  0.50000021  1
  S  S3  1  0.16258334  0.51505641  -0.00000018  1
  S  S4  1  0.48494351  0.64752896  0.00000024  1
  S  S5  1  0.35246913  0.83741392  0.00000008  1
  S  S6  1  0.93353042  0.82904382  0.50000045  1
  S  S7  1  0.17095599  0.10448437  0.50000011  1
  S  S8  1  0.89551491  0.06647369  0.50000012  1
  S  S9  1  0.05380529  0.14394006  0.00000013  1
  S  S10  1  0.85606009  0.90986795  0.00000016  1
  S  S11  1  0.09013411  0.94619313  0.00000202  1
  S  S12  1  0.06619405  0.76441176  0.50000010  1
  S  S13  1  0.23558606  0.30178124  0.50000009  1
  S  S14  1  0.69821725  0.93380434  0.50000000  1
  S  S15  1  0.93929418  0.23483098  0.00000007  1
  S  S16  1  0.76517118  0.70446450  -0.00000020  1
  S  S17  1  0.29553430  0.06070539  0.00000050  1
  S  S18  1  0.24517495  0.89529222  0.50000023  1
  S  S19  1  0.10471065  0.34988994  0.50000021  1
  S  S20  1  0.65011124  0.75481473  0.50000022  1
  S  S21  1  0.75492437  0.10242134  0.00000015  1
  S  S22  1  0.89757922  0.65250576  -0.00000017  1
  S  S23  1  0.34749732  0.24507522  0.00000007  1
  S  S24  1  0.60161014  0.55914024  0.50000002  1
  S  S25  1  0.44086817  0.04247360  0.50000043  1
  S  S26  1  0.95753409  0.39840432  0.50000023  1
  S  S27  1  0.40039766  0.44218212  0.00000011  1
  S  S28  1  0.55782175  0.95821708  -0.00000000  1
  S  S29  1  0.04178020  0.59960407  -0.00000004  1
  S  S30  1  0.22583190  0.68180985  0.50000004  1
  S  S31  1  0.31818556  0.54402417  0.50000015  1
  S  S32  1  0.45597415  0.77416562  0.50000009  1
  S  S33  1  0.77445766  0.31688141  0.00000004  1
  S  S34  1  0.68311476  0.45757120  -0.00000024  1
  S  S35  1  0.54242662  0.22554002  0.00000046  1
loop_
_geom_bond_atom_site_label_1
_geom_bond_atom_site_label_2
_geom_bond_distance
_geom_bond_site_symmetry_2
Ba0 S34 3.300625 1_556
Ba0 S34 3.300630 1_555
Ba0 S35 3.300707 1_555
Ba0 S35 3.300709 1_556
Ba0 S33 3.300711 1_556
Ba0 S33 3.300712 1_555
Ba0 S1 3.573304 1_555
Ba0 S0 3.573319 1_555
Ba0 S2 3.573398 1_555
Ba1 S31 3.282401 1_554
Ba1 S31 3.282401 1_555
Ba1 S32 3.282464 1_555
Ba1 S32 3.282468 1_554
Ba1 S30 3.282471 1_555
Ba1 S30 3.282474 1_554
Ba1 S5 3.555137 1_555
Ba1 S3 3.555147 1_555
Ba1 S4 3.555188 1_555
Ba2 S6 3.275093 1_545
Ba2 S7 3.275182 1_655
Ba2 S8 3.275196 1_555
Ba2 S10 3.457830 1_545
Ba2 S10 3.457832 1_546
Ba2 S11 3.457852 1_645
Ba2 S11 3.457863 1_646
Ba2 S9 3.457865 1_656
Ba2 S9 3.457867 1_655
Ba3 S35 3.217127 1_556
Ba3 S35 3.217131 1_555
Ba3 S23 3.291406 1_556
Ba3 S23 3.291414 1_555
Ba3 S25 3.295615 1_555
Ba3 S17 3.320244 1_556
Ba3 S17 3.320247 1_555
Ba3 S1 3.335261 1_555
Ba4 S33 3.217161 1_556
Ba4 S33 3.217162 1_555
Ba4 S21 3.291372 1_555
Ba4 S21 3.291375 1_556
Ba4 S26 3.295829 1_555
Ba4 S15 3.320127 1_555
Ba4 S15 3.320128 1_556
Ba4 S2 3.335334 1_555
Ba5 S34 3.217239 1_555
Ba5 S34 3.217242 1_556
Ba5 S22 3.291381 1_555
Ba5 S22 3.291382 1_556
Ba5 S24 3.295651 1_555
Ba5 S16 3.320122 1_556
Ba5 S16 3.320122 1_555
Ba5 S0 3.335327 1_555
Ba6 S32 3.195774 1_554
Ba6 S32 3.195776 1_555
Ba6 S14 3.259847 1_555
Ba6 S14 3.259847 1_554
Ba6 S20 3.282972 1_554
Ba6 S20 3.282975 1_555
Ba6 S4 3.300701 1_555
Ba6 S28 3.316954 1_555
Ba7 S30 3.195725 1_554
Ba7 S30 3.195729 1_555
Ba7 S12 3.259809 1_554
Ba7 S12 3.259811 1_555
Ba7 S18 3.282943 1_554
Ba7 S18 3.282944 1_555
Ba7 S5 3.300791 1_555
Ba7 S29 3.316924 1_555
Ba8 S31 3.195719 1_555
Ba8 S31 3.195721 1_554
Ba8 S13 3.259833 1_554
Ba8 S13 3.259834 1_555
Ba8 S19 3.282905 1_554
Ba8 S19 3.282905 1_555
Ba8 S3 3.300775 1_555
Ba8 S27 3.316974 1_555
Bi0 S31 2.558506 1_555
Bi0 S4 2.723352 1_556
Bi0 S4 2.723352 1_555
Bi0 S27 3.006803 1_555
Bi0 S27 3.006805 1_556
Bi1 S32 2.558327 1_555
Bi1 S5 2.723379 1_556
Bi1 S5 2.723380 1_555
Bi1 S28 3.006885 1_556
Bi1 S28 3.006887 1_555
Bi2 S30 2.558406 1_555
Bi2 S3 2.723395 1_555
Bi2 S3 2.723396 1_556
Bi2 S29 3.006823 1_555
Bi2 S29 3.006823 1_556
Bi3 S34 2.562558 1_555
Bi3 S1 2.731119 1_555
Bi3 S1 2.731144 1_554
Bi3 S24 3.010340 1_555
Bi3 S24 3.010342 1_554
Bi4 S35 2.562503 1_555
Bi4 S2 2.731225 1_554
Bi4 S2 2.731225 1_555
Bi4 S25 3.010180 1_554
Bi4 S25 3.010182 1_555
Bi5 S33 2.562519 1_555
Bi5 S0 2.731250 1_555
Bi5 S0 2.731251 1_554
Bi5 S26 3.010110 1_554
Bi5 S26 3.010113 1_555
Bi6 S14 2.690896 1_545
Bi6 S21 2.822587 1_556
Bi6 S21 2.822589 1_555
Bi6 S28 2.860766 1_546
Bi6 S28 2.860768 1_545
Bi6 S2 2.985361 1_555
Bi7 S12 2.690914 1_655
Bi7 S22 2.822593 1_556
Bi7 S22 2.822596 1_555
Bi7 S29 2.860741 1_655
Bi7 S29 2.860741 1_656
Bi7 S0 2.985435 1_555
Bi8 S13 2.690976 1_555
Bi8 S23 2.822618 1_555
Bi8 S23 2.822619 1_556
Bi8 S27 2.860761 1_556
Bi8 S27 2.860763 1_555
Bi8 S1 2.985500 1_555
Bi9 S17 2.696585 1_565
Bi9 S18 2.808255 1_555
Bi9 S18 2.808260 1_554
Bi9 S25 2.872604 1_565
Bi9 S25 2.872609 1_564
Bi9 S5 2.976204 1_555
Bi10 S15 2.696618 1_455
Bi10 S19 2.808243 1_554
Bi10 S19 2.808246 1_555
Bi10 S26 2.872569 1_454
Bi10 S26 2.872571 1_455
Bi10 S3 2.976159 1_555
Bi11 S16 2.696619 1_555
Bi11 S20 2.808207 1_555
Bi11 S20 2.808207 1_554
Bi11 S24 2.872400 1_554
Bi11 S24 2.872402 1_555
Bi11 S4 2.976279 1_555
Bi12 S6 2.735448 1_555
Bi12 S6 2.735452 1_554
Bi12 S11 2.833072 1_655
Bi12 S22 2.837400 1_555
Bi12 S12 2.914120 1_655
Bi12 S12 2.914123 1_654
Bi13 S7 2.735461 1_554
Bi13 S7 2.735461 1_555
Bi13 S9 2.833164 1_555
Bi13 S23 2.837445 1_555
Bi13 S13 2.914112 1_555
Bi13 S13 2.914115 1_554
Bi14 S8 2.735498 1_554
Bi14 S8 2.735498 1_555
Bi14 S10 2.833097 1_545
Bi14 S21 2.837395 1_555
Bi14 S14 2.914120 1_544
Bi14 S14 2.914120 1_545
Bi15 S8 2.706678 1_455
Bi15 S9 2.837988 1_555
Bi15 S9 2.837988 1_556
Bi15 S15 2.885905 1_456
Bi15 S15 2.885907 1_455
Bi15 S19 2.909455 1_555
Bi16 S6 2.706758 1_555
Bi16 S10 2.838017 1_556
Bi16 S10 2.838019 1_555
Bi16 S16 2.885884 1_556
Bi16 S16 2.885884 1_555
Bi16 S20 2.909441 1_555
Bi17 S7 2.706682 1_565
Bi17 S11 2.838042 1_555
Bi17 S11 2.838053 1_556
Bi17 S17 2.885837 1_565
Bi17 S17 2.885837 1_566
Bi17 S18 2.909314 1_555
