# generated using pymatgen
data_Ho3Ga5
_symmetry_space_group_name_H-M   'P 1'
_cell_length_a   6.05854138
_cell_length_b   9.55039886
_cell_length_c   11.34936674
_cell_angle_alpha   90.00000000
_cell_angle_beta   89.99956522
_cell_angle_gamma   90.00000000
_symmetry_Int_Tables_number   1
_chemical_formula_structural   Ho3Ga5
_chemical_formula_sum   'Ho12 Ga20'
_cell_volume   656.69123254
_cell_formula_units_Z   4
loop_
 _symmetry_equiv_pos_site_id
 _symmetry_equiv_pos_as_xyz
  1  'x, y, z'
loop_
 _atom_site_type_symbol
 _atom_site_label
 _atom_site_symmetry_multiplicity
 _atom_site_fract_x
 _atom_site_fract_y
 _atom_site_fract_z
 _atom_site_occupancy
  Ho  Ho0  1  0.65096828  0.75000000  0.42322387  1
  Ho  Ho1  1  0.84903339  0.75000000  0.92322490  1
  Ho  Ho2  1  0.34903172  0.25000000  0.57677513  1
  Ho  Ho3  1  0.15096661  0.25000000  0.07677510  1
  Ho  Ho4  1  0.61108862  0.98994169  0.14852837  1
  Ho  Ho5  1  0.88890961  0.51006186  0.64852865  1
  Ho  Ho6  1  0.38891138  0.48994169  0.85147163  1
  Ho  Ho7  1  0.11109039  0.01006186  0.35147135  1
  Ho  Ho8  1  0.38891138  0.01005831  0.85147163  1
  Ho  Ho9  1  0.11109039  0.48993814  0.35147135  1
  Ho  Ho10  1  0.61108862  0.51005831  0.14852837  1
  Ho  Ho11  1  0.88890961  0.98993814  0.64852865  1
  Ga  Ga0  1  0.62754005  0.44610414  0.40982460  1
  Ga  Ga1  1  0.87246548  0.05388369  0.90982207  1
  Ga  Ga2  1  0.37245995  0.94610414  0.59017540  1
  Ga  Ga3  1  0.12753452  0.55388369  0.09017693  1
  Ga  Ga4  1  0.37245995  0.55389586  0.59017540  1
  Ga  Ga5  1  0.12753452  0.94611631  0.09017793  1
  Ga  Ga6  1  0.62754005  0.05389586  0.40982460  1
  Ga  Ga7  1  0.87246548  0.44611631  0.90982307  1
  Ga  Ga8  1  0.32300062  0.75000000  0.24704780  1
  Ga  Ga9  1  0.17701026  0.75000000  0.74705291  1
  Ga  Ga10  1  0.67699938  0.25000000  0.75295220  1
  Ga  Ga11  1  0.82298974  0.25000000  0.25294709  1
  Ga  Ga12  1  0.12786584  0.75000000  0.49580787  1
  Ga  Ga13  1  0.37213265  0.75000000  0.99580686  1
  Ga  Ga14  1  0.87213416  0.25000000  0.50419213  1
  Ga  Ga15  1  0.62786735  0.25000000  0.00419314  1
  Ga  Ga16  1  0.90212660  0.75000000  0.19819461  1
  Ga  Ga17  1  0.59786480  0.75000000  0.69819641  1
  Ga  Ga18  1  0.09787340  0.25000000  0.80180539  1
  Ga  Ga19  1  0.40213520  0.25000000  0.30180359  1
loop_
_geom_bond_atom_site_label_1
_geom_bond_atom_site_label_2
_geom_bond_distance
_geom_bond_site_symmetry_2
Ga0 Ga14 2.617388 1_555
Ga0 Ga19 2.622139 1_555
Ga0 Ga4 2.763638 1_555
Ga0 Ga11 2.842507 1_555
Ga0 Ho0 2.909772 1_555
Ga0 Ho10 3.029434 1_555
Ga0 Ho9 3.032564 1_655
Ga0 Ho2 3.153565 1_555
Ga0 Ho5 3.196895 1_555
Ga0 Ho9 3.225539 1_555
Ga1 Ga15 2.617492 1_556
Ga1 Ga18 2.622199 1_655
Ga1 Ga5 2.763574 1_646
Ga1 Ga10 2.842582 1_555
Ga1 Ho1 2.909659 1_545
Ga1 Ho11 3.029383 1_545
Ga1 Ho8 3.032577 1_555
Ga1 Ho3 3.153643 1_656
Ga1 Ho4 3.196889 1_546
Ga1 Ho8 3.225490 1_655
Ga2 Ga6 2.763638 1_565
Ga2 Ga9 2.842507 1_555
Ga2 Ho2 2.909773 1_565
Ga2 Ho8 3.029434 1_565
Ga2 Ho11 3.032564 1_455
Ga2 Ho0 3.153571 1_555
Ga2 Ho7 3.196895 1_565
Ga2 Ho11 3.225539 1_555
Ga3 Ga7 2.763557 1_454
Ga3 Ga8 2.842589 1_555
Ga3 Ho3 2.909659 1_555
Ga3 Ho9 3.029394 1_555
Ga3 Ho10 3.032579 1_555
Ga3 Ho1 3.153636 1_454
Ga3 Ho6 3.196880 1_554
Ga3 Ho10 3.225492 1_455
Ga4 Ga9 2.842507 1_555
Ga4 Ho2 2.909773 1_555
Ga4 Ho6 3.029434 1_555
Ga4 Ho5 3.032564 1_455
Ga4 Ho0 3.153571 1_555
Ga4 Ho9 3.196895 1_555
Ga4 Ho5 3.225539 1_555
Ga5 Ga8 2.842582 1_555
Ga5 Ho3 2.909659 1_565
Ga5 Ho7 3.029383 1_565
Ga5 Ho4 3.032577 1_555
Ga5 Ho1 3.153643 1_454
Ga5 Ho8 3.196889 1_564
Ga5 Ho4 3.225490 1_455
Ga6 Ho0 2.909772 1_545
Ga6 Ho4 3.029434 1_545
Ga6 Ho7 3.032564 1_655
Ga6 Ho2 3.153565 1_555
Ga6 Ho11 3.196895 1_545
Ga6 Ho7 3.225539 1_555
Ga7 Ho1 2.909659 1_555
Ga7 Ho5 3.029394 1_555
Ga7 Ho6 3.032579 1_555
Ga7 Ho3 3.153636 1_656
Ga7 Ho10 3.196880 1_556
Ga7 Ho6 3.225492 1_655
Ga8 Ho0 2.818900 1_555
Ga8 Ho9 3.036707 1_555
Ga8 Ho7 3.036707 1_565
Ga8 Ho4 3.089942 1_555
Ga8 Ho10 3.089942 1_555
Ga9 Ho1 2.818885 1_455
Ga9 Ho6 3.036642 1_555
Ga9 Ho8 3.036642 1_565
Ga9 Ho11 3.089989 1_455
Ga9 Ho5 3.089989 1_455
Ga10 Ga18 2.609471 1_655
Ga10 Ho2 2.818908 1_555
Ga10 Ga7 2.842589 1_555
Ga10 Ga15 2.866918 1_556
Ga10 Ho5 3.036707 1_555
Ga10 Ho11 3.036707 1_545
Ga10 Ga14 3.060796 1_555
Ga10 Ho8 3.089942 1_555
Ga10 Ho6 3.089942 1_555
Ga11 Ga19 2.609356 1_555
Ga11 Ho3 2.818885 1_655
Ga11 Ga6 2.842507 1_555
Ga11 Ga14 2.866977 1_555
Ga11 Ho4 3.036642 1_545
Ga11 Ho10 3.036642 1_555
Ga11 Ga15 3.060719 1_555
Ga11 Ho7 3.089989 1_655
Ga11 Ho9 3.089989 1_655
Ga12 Ga2 2.617388 1_555
Ga12 Ga4 2.617388 1_555
Ga12 Ga9 2.866977 1_555
Ga12 Ho9 2.977001 1_555
Ga12 Ho7 2.977001 1_565
Ga12 Ho0 3.004452 1_455
Ga12 Ga8 3.060796 1_555
Ga12 Ho5 3.217319 1_455
Ga12 Ho11 3.217319 1_455
Ga12 Ho0 3.274545 1_555
Ga13 Ga3 2.617488 1_556
Ga13 Ga5 2.617492 1_556
Ga13 Ga8 2.866918 1_556
Ga13 Ho8 2.976964 1_565
Ga13 Ho6 2.976964 1_555
Ga13 Ho1 3.004452 1_555
Ga13 Ga9 3.060719 1_555
Ga13 Ho10 3.217359 1_556
Ga13 Ho4 3.217359 1_556
Ga13 Ho1 3.274533 1_455
Ga14 Ga6 2.617388 1_555
Ga14 Ho5 2.977001 1_555
Ga14 Ho11 2.977001 1_545
Ga14 Ho2 3.004448 1_655
Ga14 Ho7 3.217319 1_655
Ga14 Ho9 3.217319 1_655
Ga14 Ho2 3.274542 1_555
Ga15 Ga7 2.617488 1_554
Ga15 Ho4 2.976964 1_545
Ga15 Ho10 2.976964 1_555
Ga15 Ho3 3.004452 1_555
Ga15 Ho8 3.217359 1_554
Ga15 Ho6 3.217359 1_554
Ga15 Ho3 3.274533 1_655
Ga16 Ga8 2.609471 1_655
Ga16 Ga5 2.622199 1_655
Ga16 Ga3 2.622204 1_655
Ga16 Ho4 2.945846 1_555
Ga16 Ho10 2.945846 1_555
Ga16 Ho0 2.972873 1_555
Ga16 Ho1 3.137269 1_554
Ga16 Ho7 3.285994 1_665
Ga16 Ho9 3.285994 1_655
Ga17 Ga9 2.609356 1_555
Ga17 Ga4 2.622139 1_555
Ga17 Ga2 2.622139 1_555
Ga17 Ho5 2.945842 1_555
Ga17 Ho11 2.945842 1_555
Ga17 Ho1 2.972918 1_555
Ga17 Ho0 3.137302 1_555
Ga17 Ho8 3.285925 1_565
Ga17 Ho6 3.285925 1_555
Ga18 Ga7 2.622204 1_455
Ga18 Ho6 2.945846 1_555
Ga18 Ho8 2.945846 1_555
Ga18 Ho2 2.972883 1_555
Ga18 Ho3 3.137269 1_556
Ga18 Ho5 3.285994 1_455
Ga18 Ho11 3.285994 1_445
Ga19 Ga6 2.622139 1_555
Ga19 Ho7 2.945842 1_555
Ga19 Ho9 2.945842 1_555
Ga19 Ho3 2.972918 1_555
Ga19 Ho2 3.137291 1_555
Ga19 Ho10 3.285925 1_555
Ga19 Ho4 3.285925 1_545
