# generated using pymatgen
data_Rb2LiCo(CN)6
_symmetry_space_group_name_H-M   'P 1'
_cell_length_a   7.49181100
_cell_length_b   7.21179600
_cell_length_c   12.57632887
_cell_angle_alpha   55.18011598
_cell_angle_beta   90.00000000
_cell_angle_gamma   90.00000000
_symmetry_Int_Tables_number   1
_chemical_formula_structural   Rb2LiCo(CN)6
_chemical_formula_sum   'Rb4 Li2 Co2 C12 N12'
_cell_volume   557.82942592
_cell_formula_units_Z   2
loop_
 _symmetry_equiv_pos_site_id
 _symmetry_equiv_pos_as_xyz
  1  'x, y, z'
loop_
 _atom_site_type_symbol
 _atom_site_label
 _atom_site_symmetry_multiplicity
 _atom_site_fract_x
 _atom_site_fract_y
 _atom_site_fract_z
 _atom_site_occupancy
  Rb  Rb0  1  0.55422500  0.73754300  0.24942300  1
  Rb  Rb1  1  0.05422500  0.26245700  0.25057700  1
  Rb  Rb2  1  0.44577500  0.26245700  0.75057700  1
  Rb  Rb3  1  0.94577500  0.73754300  0.74942300  1
  Li  Li0  1  0.00000000  0.50000000  0.50000000  1
  Li  Li1  1  0.50000000  0.50000000  0.00000000  1
  Co  Co0  1  0.50000000  0.00000000  0.50000000  1
  Co  Co1  1  0.00000000  0.00000000  0.00000000  1
  C  C0  1  0.85656000  0.76597600  0.02319700  1
  C  C1  1  0.64344000  0.76597600  0.52319700  1
  C  C2  1  0.14344000  0.23402400  0.97680300  1
  C  C3  1  0.35656000  0.23402400  0.47680300  1
  C  C4  1  0.29396300  0.83005500  0.52684000  1
  C  C5  1  0.79396300  0.16994500  0.97316000  1
  C  C6  1  0.01017000  0.12952700  0.82171000  1
  C  C7  1  0.51017000  0.87047300  0.67829000  1
  C  C8  1  0.98983000  0.87047300  0.17829000  1
  C  C9  1  0.48983000  0.12952700  0.32171000  1
  C  C10  1  0.20603700  0.83005500  0.02684000  1
  C  C11  1  0.70603700  0.16994500  0.47316000  1
  N  N0  1  0.98172700  0.78643900  0.29031000  1
  N  N1  1  0.48172700  0.21356100  0.20969000  1
  N  N2  1  0.16530100  0.72314600  0.54368400  1
  N  N3  1  0.33469900  0.72314600  0.04368400  1
  N  N4  1  0.83469900  0.27685400  0.45631600  1
  N  N5  1  0.66530100  0.27685400  0.95631600  1
  N  N6  1  0.23495000  0.37944300  0.96205200  1
  N  N7  1  0.73495000  0.62055700  0.53794800  1
  N  N8  1  0.76505000  0.62055700  0.03794800  1
  N  N9  1  0.26505000  0.37944300  0.46205200  1
  N  N10  1  0.01827300  0.21356100  0.70969000  1
  N  N11  1  0.51827300  0.78643900  0.79031000  1
loop_
_geom_bond_atom_site_label_1
_geom_bond_atom_site_label_2
_geom_bond_distance
_geom_bond_site_symmetry_2
Li0 N10 2.240381 1_555
Li0 N0 2.240381 1_455
Li0 N7 2.323909 1_455
Li0 N9 2.323909 1_555
Li0 N2 2.331291 1_555
Li0 N4 2.331291 1_455
Li1 N11 2.240381 1_554
Li1 N1 2.240381 1_555
Li1 N8 2.323909 1_555
Li1 N6 2.323909 1_554
Li1 N3 2.331291 1_555
Li1 N5 2.331291 1_554
C0 N8 1.175623 1_555
C0 Co1 1.877788 1_665
C1 N7 1.175623 1_555
C1 Co0 1.877788 1_565
C2 N6 1.175623 1_555
C2 Co1 1.877788 1_556
C3 N9 1.175623 1_555
C3 Co0 1.877788 1_555
C4 N2 1.175556 1_555
C4 Co0 1.877839 1_565
C5 N5 1.175556 1_555
C5 Co1 1.877839 1_656
C6 N10 1.175017 1_555
C6 Co1 1.874584 1_556
C7 N11 1.175017 1_555
C7 Co0 1.874584 1_565
C8 N0 1.175017 1_555
C8 Co1 1.874584 1_665
C9 N1 1.175017 1_555
C9 Co0 1.874584 1_555
C10 N3 1.175556 1_555
C10 Co1 1.877839 1_565
C11 N4 1.175556 1_555
C11 Co0 1.877839 1_555
N0 Rb1 3.220372 1_665
N0 Rb0 3.294469 1_555
N1 Rb0 3.220372 1_545
N1 Rb1 3.294469 1_555
N2 Rb3 3.117258 1_455
N3 Rb0 3.117258 1_555
N4 Rb1 3.117258 1_655
N5 Rb2 3.117258 1_555
N6 Rb3 3.259938 1_455
N7 Rb2 3.259938 1_555
N8 Rb1 3.259938 1_655
N9 Rb0 3.259938 1_555
N10 Rb3 3.220372 1_445
N10 Rb2 3.294469 1_555
N11 Rb2 3.220372 1_565
N11 Rb3 3.294469 1_555
