# generated using pymatgen
data_TlGaSe2
_symmetry_space_group_name_H-M   'P 1'
_cell_length_a   7.67369122
_cell_length_b   7.67369122
_cell_length_c   15.82412666
_cell_angle_alpha   82.86960216
_cell_angle_beta   82.86960216
_cell_angle_gamma   89.98169510
_symmetry_Int_Tables_number   1
_chemical_formula_structural   TlGaSe2
_chemical_formula_sum   'Tl8 Ga8 Se16'
_cell_volume   917.34733960
_cell_formula_units_Z   8
loop_
 _symmetry_equiv_pos_site_id
 _symmetry_equiv_pos_as_xyz
  1  'x, y, z'
loop_
 _atom_site_type_symbol
 _atom_site_label
 _atom_site_symmetry_multiplicity
 _atom_site_fract_x
 _atom_site_fract_y
 _atom_site_fract_z
 _atom_site_occupancy
  Tl  Tl0  1  0.80677227  0.65649583  0.88261382  1
  Tl  Tl1  1  0.34350417  0.19322773  0.61738618  1
  Tl  Tl2  1  0.19322773  0.34350417  0.11738618  1
  Tl  Tl3  1  0.65649583  0.80677227  0.38261382  1
  Tl  Tl4  1  0.84632722  0.26383284  0.60731564  1
  Tl  Tl5  1  0.73616716  0.15367278  0.89268436  1
  Tl  Tl6  1  0.15367278  0.73616716  0.39268436  1
  Tl  Tl7  1  0.26383284  0.84632722  0.10731564  1
  Ga  Ga0  1  0.08666004  0.71281704  0.66350658  1
  Ga  Ga1  1  0.28808662  0.41944862  0.83811303  1
  Ga  Ga2  1  0.58055138  0.71191338  0.66188697  1
  Ga  Ga3  1  0.71191338  0.58055138  0.16188697  1
  Ga  Ga4  1  0.41944862  0.28808662  0.33811303  1
  Ga  Ga5  1  0.28718296  0.91333996  0.83649342  1
  Ga  Ga6  1  0.91333996  0.28718296  0.33649342  1
  Ga  Ga7  1  0.71281704  0.08666004  0.16350658  1
  Se  Se0  1  0.43050798  0.05097058  0.25118649  1
  Se  Se1  1  0.94902942  0.56949202  0.24881351  1
  Se  Se2  1  0.56949202  0.94902942  0.74881351  1
  Se  Se3  1  0.25087767  0.64323800  0.93268734  1
  Se  Se4  1  0.05097058  0.43050798  0.75118649  1
  Se  Se5  1  0.64323800  0.25087767  0.43268734  1
  Se  Se6  1  0.74912233  0.35676200  0.06731266  1
  Se  Se7  1  0.35676200  0.74912233  0.56731266  1
  Se  Se8  1  0.95208769  0.04791231  0.25000000  1
  Se  Se9  1  0.04791231  0.95208769  0.75000000  1
  Se  Se10  1  0.43247222  0.56752778  0.25000000  1
  Se  Se11  1  0.56752778  0.43247222  0.75000000  1
  Se  Se12  1  0.72075401  0.85833546  0.07007500  1
  Se  Se13  1  0.14166454  0.27924599  0.42992500  1
  Se  Se14  1  0.27924599  0.14166454  0.92992500  1
  Se  Se15  1  0.85833546  0.72075401  0.57007500  1
loop_
_geom_bond_atom_site_label_1
_geom_bond_atom_site_label_2
_geom_bond_distance
_geom_bond_site_symmetry_2
Ga0 Se7 2.408839 1_555
Ga0 Se4 2.419294 1_555
Ga0 Se9 2.419797 1_555
Ga0 Se15 2.424888 1_455
Ga1 Se11 2.403247 1_555
Ga1 Se3 2.408718 1_555
Ga1 Se4 2.408808 1_555
Ga1 Se14 2.421982 1_555
Ga2 Se11 2.403247 1_555
Ga2 Se7 2.408718 1_555
Ga2 Se2 2.408808 1_555
Ga2 Se15 2.421982 1_555
Ga3 Se10 2.403247 1_555
Ga3 Se6 2.408718 1_555
Ga3 Se1 2.408808 1_555
Ga3 Se12 2.421982 1_555
Ga4 Se10 2.403247 1_555
Ga4 Se5 2.408718 1_555
Ga4 Se0 2.408808 1_555
Ga4 Se13 2.421982 1_555
Ga5 Se3 2.408839 1_555
Ga5 Se2 2.419294 1_555
Ga5 Se9 2.419797 1_555
Ga5 Se14 2.424888 1_565
Ga6 Se5 2.408839 1_555
Ga6 Se1 2.419294 1_555
Ga6 Se8 2.419797 1_555
Ga6 Se13 2.424888 1_655
Ga7 Se6 2.408839 1_555
Ga7 Se0 2.419294 1_555
Ga7 Se8 2.419797 1_555
Ga7 Se12 2.424888 1_545
Se0 Tl3 3.281744 1_545
Se0 Tl7 3.301015 1_545
Se1 Tl2 3.281744 1_655
Se1 Tl6 3.301015 1_655
Se2 Tl1 3.281744 1_565
Se2 Tl5 3.301015 1_565
Se3 Tl7 3.348447 1_556
Se4 Tl0 3.281744 1_455
Se4 Tl4 3.301015 1_455
Se5 Tl4 3.348447 1_555
Se6 Tl5 3.348447 1_554
Se7 Tl6 3.348447 1_555
Se8 Tl2 3.290878 1_655
Se8 Tl3 3.290878 1_545
Se9 Tl1 3.290878 1_565
Se9 Tl0 3.290878 1_455
Se10 Tl6 3.297589 1_555
Se10 Tl7 3.297589 1_555
Se11 Tl5 3.297589 1_555
Se11 Tl4 3.297589 1_555
Se12 Tl5 3.371675 1_564
Se13 Tl4 3.371675 1_455
Se14 Tl7 3.371675 1_546
Se15 Tl6 3.371675 1_655
