# generated using pymatgen
data_Mg2Mo3O8
_symmetry_space_group_name_H-M   'P 1'
_cell_length_a   6.17370625
_cell_length_b   6.17370625
_cell_length_c   5.25953213
_cell_angle_alpha   72.15847248
_cell_angle_beta   72.15847248
_cell_angle_gamma   59.01784186
_symmetry_Int_Tables_number   1
_chemical_formula_structural   Mg2Mo3O8
_chemical_formula_sum   'Mg2 Mo3 O8'
_cell_volume   160.86155601
_cell_formula_units_Z   1
loop_
 _symmetry_equiv_pos_site_id
 _symmetry_equiv_pos_as_xyz
  1  'x, y, z'
loop_
 _atom_site_type_symbol
 _atom_site_label
 _atom_site_symmetry_multiplicity
 _atom_site_fract_x
 _atom_site_fract_y
 _atom_site_fract_z
 _atom_site_occupancy
  Mg  Mg0  1  0.72068400  0.72068400  0.35064800  1
  Mg  Mg1  1  0.27931600  0.27931600  0.64935200  1
  Mo  Mo0  1  0.00000000  0.00000000  0.50000000  1
  Mo  Mo1  1  0.73308800  0.26691200  0.00000000  1
  Mo  Mo2  1  0.26691200  0.73308800  0.00000000  1
  O  O0  1  0.38277800  0.38277800  0.92597000  1
  O  O1  1  0.61722200  0.61722200  0.07403000  1
  O  O2  1  0.89063700  0.89063700  0.92914100  1
  O  O3  1  0.10936300  0.10936300  0.07085900  1
  O  O4  1  0.35053300  0.88617800  0.58749800  1
  O  O5  1  0.88617800  0.35053300  0.58749800  1
  O  O6  1  0.11382200  0.64946700  0.41250200  1
  O  O7  1  0.64946700  0.11382200  0.41250200  1
loop_
_geom_bond_atom_site_label_1
_geom_bond_atom_site_label_2
_geom_bond_distance
_geom_bond_site_symmetry_2
Mg0 O4 2.109407 1_555
Mg0 O5 2.109407 1_555
Mg0 O1 2.119341 1_555
Mg0 O2 2.323638 1_554
Mg0 O7 2.342559 1_565
Mg0 O6 2.342559 1_655
Mg1 O6 2.109407 1_555
Mg1 O7 2.109407 1_555
Mg1 O0 2.119341 1_555
Mg1 O3 2.323638 1_556
Mg1 O4 2.342559 1_545
Mg1 O5 2.342559 1_455
Mo0 O4 2.057989 1_545
Mo0 O7 2.057989 1_455
Mo0 O6 2.057989 1_545
Mo0 O5 2.057989 1_455
Mo0 O2 2.146586 1_445
Mo0 O3 2.146586 1_555
Mo1 O0 2.023167 1_554
Mo1 O1 2.023167 1_555
Mo1 O5 2.103883 1_554
Mo1 O7 2.103883 1_555
Mo1 O2 2.112693 1_544
Mo1 O3 2.112693 1_655
Mo2 O0 2.023167 1_554
Mo2 O1 2.023167 1_555
Mo2 O4 2.103883 1_554
Mo2 O6 2.103883 1_555
Mo2 O2 2.112693 1_454
Mo2 O3 2.112693 1_565
