# generated using pymatgen
data_Pr3(GaNi)2
_symmetry_space_group_name_H-M   'P 1'
_cell_length_a   5.80957100
_cell_length_b   8.31271600
_cell_length_c   12.82566400
_cell_angle_alpha   90.00000000
_cell_angle_beta   90.00000000
_cell_angle_gamma   90.00000000
_symmetry_Int_Tables_number   1
_chemical_formula_structural   Pr3(GaNi)2
_chemical_formula_sum   'Pr12 Ga8 Ni8'
_cell_volume   619.39381631
_cell_formula_units_Z   4
loop_
 _symmetry_equiv_pos_site_id
 _symmetry_equiv_pos_as_xyz
  1  'x, y, z'
loop_
 _atom_site_type_symbol
 _atom_site_label
 _atom_site_symmetry_multiplicity
 _atom_site_fract_x
 _atom_site_fract_y
 _atom_site_fract_z
 _atom_site_occupancy
  Pr  Pr0  1  0.14711900  0.89442300  0.59854400  1
  Pr  Pr1  1  0.85288100  0.10557700  0.09854400  1
  Pr  Pr2  1  0.14711900  0.60557700  0.40145600  1
  Pr  Pr3  1  0.85288100  0.39442300  0.90145600  1
  Pr  Pr4  1  0.85288100  0.10557700  0.40145600  1
  Pr  Pr5  1  0.14711900  0.89442300  0.90145600  1
  Pr  Pr6  1  0.85288100  0.39442300  0.59854400  1
  Pr  Pr7  1  0.14711900  0.60557700  0.09854400  1
  Pr  Pr8  1  0.35402100  0.24543700  0.75000000  1
  Pr  Pr9  1  0.64597900  0.75456300  0.25000000  1
  Pr  Pr10  1  0.35402100  0.25456300  0.25000000  1
  Pr  Pr11  1  0.64597900  0.74543700  0.75000000  1
  Ga  Ga0  1  0.84238000  0.10028400  0.75000000  1
  Ga  Ga1  1  0.15762000  0.89971600  0.25000000  1
  Ga  Ga2  1  0.84238000  0.39971600  0.25000000  1
  Ga  Ga3  1  0.15762000  0.60028400  0.75000000  1
  Ga  Ga4  1  0.36440700  0.25000000  0.50000000  1
  Ga  Ga5  1  0.63559300  0.75000000  0.00000000  1
  Ga  Ga6  1  0.63559300  0.75000000  0.50000000  1
  Ga  Ga7  1  0.36440700  0.25000000  0.00000000  1
  Ni  Ni0  1  0.61831600  0.03077000  0.58820600  1
  Ni  Ni1  1  0.38168400  0.96923000  0.08820600  1
  Ni  Ni2  1  0.61831600  0.46923000  0.41179400  1
  Ni  Ni3  1  0.38168400  0.53077000  0.91179400  1
  Ni  Ni4  1  0.38168400  0.96923000  0.41179400  1
  Ni  Ni5  1  0.61831600  0.03077000  0.91179400  1
  Ni  Ni6  1  0.38168400  0.53077000  0.58820600  1
  Ni  Ni7  1  0.61831600  0.46923000  0.08820600  1
loop_
_geom_bond_atom_site_label_1
_geom_bond_atom_site_label_2
_geom_bond_distance
_geom_bond_site_symmetry_2
Pr0 Pr2 3.486395 1_555
Pr0 Pr4 3.520324 1_465
Pr0 Pr11 3.702239 1_555
Pr0 Pr8 3.705705 1_565
Pr0 Pr11 3.712617 1_455
Pr0 Pr5 3.885048 1_555
Pr1 Pr3 3.486395 1_554
Pr1 Pr5 3.520324 1_644
Pr1 Pr10 3.702239 1_555
Pr1 Pr9 3.705705 1_545
Pr1 Pr10 3.712617 1_655
Pr1 Pr4 3.885048 1_555
Pr2 Pr6 3.520324 1_455
Pr2 Pr9 3.702239 1_555
Pr2 Pr9 3.712617 1_455
Pr2 Pr7 3.885048 1_555
Pr3 Pr7 3.520324 1_656
Pr3 Pr8 3.702239 1_555
Pr3 Pr8 3.712617 1_655
Pr3 Pr6 3.885048 1_555
Pr4 Pr6 3.486395 1_555
Pr4 Pr9 3.705705 1_545
Pr5 Pr7 3.486395 1_556
Pr5 Pr8 3.705705 1_565
Pr6 Pr8 3.702239 1_555
Pr6 Pr8 3.712617 1_655
Pr7 Pr9 3.702239 1_555
Pr7 Pr9 3.712617 1_455
Pr10 Pr4 3.702239 1_555
Pr10 Pr2 3.705705 1_555
Pr10 Pr7 3.705705 1_555
Pr10 Pr4 3.712617 1_455
Pr11 Pr5 3.702239 1_555
Pr11 Pr3 3.705705 1_555
Pr11 Pr6 3.705705 1_555
Pr11 Pr5 3.712617 1_655
Ga0 Ni5 2.516839 1_555
Ga0 Ni0 2.516839 1_555
Ga0 Pr8 3.083079 1_555
Ga0 Pr3 3.123396 1_555
Ga0 Pr6 3.123396 1_555
Ga0 Pr5 3.136264 1_645
Ga0 Pr0 3.136264 1_645
Ga0 Pr11 3.162732 1_545
Ga0 Pr8 3.207985 1_655
Ga1 Ni4 2.516839 1_555
Ga1 Ni1 2.516839 1_555
Ga1 Pr9 3.083079 1_555
Ga1 Pr2 3.123396 1_555
Ga1 Pr7 3.123396 1_555
Ga1 Pr4 3.136264 1_465
Ga1 Pr1 3.136264 1_465
Ga1 Pr10 3.162732 1_565
Ga1 Pr9 3.207985 1_455
Ga2 Ni2 2.516839 1_555
Ga2 Ni7 2.516839 1_555
Ga2 Pr10 3.083079 1_555
Ga2 Pr4 3.123396 1_555
Ga2 Pr1 3.123396 1_555
Ga2 Pr2 3.136264 1_655
Ga2 Pr7 3.136264 1_655
Ga2 Pr9 3.162732 1_555
Ga2 Pr10 3.207985 1_655
Ga3 Ni6 2.516839 1_555
Ga3 Ni3 2.516839 1_555
Ga3 Pr11 3.083079 1_555
Ga3 Pr5 3.123396 1_555
Ga3 Pr0 3.123396 1_555
Ga3 Pr3 3.136264 1_455
Ga3 Pr6 3.136264 1_455
Ga3 Pr8 3.162732 1_555
Ga3 Pr11 3.207985 1_455
Ga4 Ni4 2.595629 1_545
Ga4 Ni6 2.595629 1_555
Ga4 Ni0 2.603248 1_555
Ga4 Ni2 2.603248 1_555
Ga4 Pr10 3.207208 1_555
Ga4 Pr8 3.207208 1_555
Ga4 Pr6 3.330463 1_555
Ga4 Pr4 3.330463 1_555
Ga4 Pr6 3.445289 1_455
Ga4 Pr4 3.445289 1_455
Ga4 Pr2 3.453660 1_555
Ga4 Pr0 3.453660 1_545
Ga5 Ni7 2.595629 1_555
Ga5 Ni5 2.595629 1_564
Ga5 Ni1 2.603248 1_555
Ga5 Ni3 2.603248 1_554
Ga5 Pr9 3.207208 1_555
Ga5 Pr11 3.207208 1_554
Ga5 Pr7 3.330463 1_555
Ga5 Pr5 3.330463 1_554
Ga5 Pr7 3.445289 1_655
Ga5 Pr5 3.445289 1_654
Ga5 Pr1 3.453660 1_565
Ga5 Pr3 3.453660 1_554
Ga6 Ni0 2.595629 1_565
Ga6 Ni2 2.595629 1_555
Ga6 Ni6 2.603248 1_555
Ga6 Ni4 2.603248 1_555
Ga6 Pr11 3.207208 1_555
Ga6 Pr9 3.207208 1_555
Ga6 Pr0 3.330463 1_555
Ga6 Pr2 3.330463 1_555
Ga6 Pr0 3.445289 1_655
Ga6 Pr2 3.445289 1_655
Ga6 Pr4 3.453660 1_565
Ga6 Pr6 3.453660 1_555
Ga7 Ni1 2.595629 1_545
Ga7 Ni3 2.595629 1_554
Ga7 Ni7 2.603248 1_555
Ga7 Ni5 2.603248 1_554
Ga7 Pr10 3.207208 1_555
Ga7 Pr8 3.207208 1_554
Ga7 Pr1 3.330463 1_555
Ga7 Pr3 3.330463 1_554
Ga7 Pr1 3.445289 1_455
Ga7 Pr3 3.445289 1_454
Ga7 Pr7 3.453660 1_555
Ga7 Pr5 3.453660 1_544
Ni0 Ni4 2.696469 1_545
Ni0 Pr4 2.825006 1_555
Ni0 Pr0 2.965780 1_545
Ni0 Pr8 3.138152 1_555
Ni0 Pr11 3.155599 1_545
Ni0 Pr0 3.277212 1_645
Ni0 Pr6 3.318551 1_555
Ni1 Ni5 2.696469 1_564
Ni1 Pr5 2.825006 1_554
Ni1 Pr1 2.965780 1_565
Ni1 Pr9 3.138152 1_555
Ni1 Pr10 3.155599 1_565
Ni1 Pr1 3.277212 1_465
Ni1 Pr7 3.318551 1_555
Ni2 Ni6 2.696469 1_555
Ni2 Pr6 2.825006 1_555
Ni2 Pr2 2.965780 1_555
Ni2 Pr10 3.138152 1_555
Ni2 Pr9 3.155599 1_555
Ni2 Pr2 3.277212 1_655
Ni2 Pr4 3.318551 1_555
Ni3 Ni7 2.696469 1_556
Ni3 Pr7 2.825006 1_556
Ni3 Pr3 2.965780 1_555
Ni3 Pr11 3.138152 1_555
Ni3 Pr8 3.155599 1_555
Ni3 Pr3 3.277212 1_455
Ni3 Pr5 3.318551 1_555
Ni4 Pr0 2.825006 1_555
Ni4 Pr4 2.965780 1_565
Ni4 Pr9 3.138152 1_555
Ni4 Pr10 3.155599 1_565
Ni4 Pr4 3.277212 1_465
Ni4 Pr2 3.318551 1_555
Ni5 Pr1 2.825006 1_556
Ni5 Pr5 2.965780 1_545
Ni5 Pr8 3.138152 1_555
Ni5 Pr11 3.155599 1_545
Ni5 Pr5 3.277212 1_645
Ni5 Pr3 3.318551 1_555
Ni6 Pr2 2.825006 1_555
Ni6 Pr6 2.965780 1_555
Ni6 Pr11 3.138152 1_555
Ni6 Pr8 3.155599 1_555
Ni6 Pr6 3.277212 1_455
Ni6 Pr0 3.318551 1_555
Ni7 Pr3 2.825006 1_554
Ni7 Pr7 2.965780 1_555
Ni7 Pr10 3.138152 1_555
Ni7 Pr9 3.155599 1_555
Ni7 Pr7 3.277212 1_655
Ni7 Pr1 3.318551 1_555
