# generated using pymatgen
data_Gd2Nb3Ge4
_symmetry_space_group_name_H-M   'P 1'
_cell_length_a   7.03286103
_cell_length_b   7.22414940
_cell_length_c   13.60671523
_cell_angle_alpha   90.00000000
_cell_angle_beta   90.00000000
_cell_angle_gamma   90.00000000
_symmetry_Int_Tables_number   1
_chemical_formula_structural   Gd2Nb3Ge4
_chemical_formula_sum   'Gd8 Nb12 Ge16'
_cell_volume   691.30874447
_cell_formula_units_Z   4
loop_
 _symmetry_equiv_pos_site_id
 _symmetry_equiv_pos_as_xyz
  1  'x, y, z'
loop_
 _atom_site_type_symbol
 _atom_site_label
 _atom_site_symmetry_multiplicity
 _atom_site_fract_x
 _atom_site_fract_y
 _atom_site_fract_z
 _atom_site_occupancy
  Gd  Gd0  1  0.49811909  0.32692492  0.09531095  1
  Gd  Gd1  1  0.99811909  0.17307508  0.40468905  1
  Gd  Gd2  1  0.50188091  0.67307508  0.59531095  1
  Gd  Gd3  1  0.00188091  0.82692492  0.90468905  1
  Gd  Gd4  1  0.50188091  0.67307508  0.90468905  1
  Gd  Gd5  1  0.00188091  0.82692492  0.59531095  1
  Gd  Gd6  1  0.49811909  0.32692492  0.40468905  1
  Gd  Gd7  1  0.99811909  0.17307508  0.09531095  1
  Nb  Nb0  1  0.66402668  0.01341413  0.75000000  1
  Nb  Nb1  1  0.16402668  0.48658587  0.75000000  1
  Nb  Nb2  1  0.33597332  0.98658587  0.25000000  1
  Nb  Nb3  1  0.83597332  0.51341413  0.25000000  1
  Nb  Nb4  1  0.83984768  0.32799048  0.62705248  1
  Nb  Nb5  1  0.33984768  0.17200952  0.87294752  1
  Nb  Nb6  1  0.16015232  0.67200952  0.12705248  1
  Nb  Nb7  1  0.66015232  0.82799048  0.37294752  1
  Nb  Nb8  1  0.16015232  0.67200952  0.37294752  1
  Nb  Nb9  1  0.66015232  0.82799048  0.12705248  1
  Nb  Nb10  1  0.83984768  0.32799048  0.87294752  1
  Nb  Nb11  1  0.33984768  0.17200952  0.62705248  1
  Ge  Ge0  1  0.80452692  0.63369949  0.75000000  1
  Ge  Ge1  1  0.30452692  0.86630051  0.75000000  1
  Ge  Ge2  1  0.19547308  0.36630051  0.25000000  1
  Ge  Ge3  1  0.69547308  0.13369949  0.25000000  1
  Ge  Ge4  1  0.53959408  0.37746606  0.75000000  1
  Ge  Ge5  1  0.03959408  0.12253394  0.75000000  1
  Ge  Ge6  1  0.46040592  0.62253394  0.25000000  1
  Ge  Ge7  1  0.96040592  0.87746606  0.25000000  1
  Ge  Ge8  1  0.67184914  0.03984348  0.54215551  1
  Ge  Ge9  1  0.17184914  0.46015652  0.95784449  1
  Ge  Ge10  1  0.32815086  0.96015652  0.04215551  1
  Ge  Ge11  1  0.82815086  0.53984348  0.45784449  1
  Ge  Ge12  1  0.32815086  0.96015652  0.45784449  1
  Ge  Ge13  1  0.82815086  0.53984348  0.04215551  1
  Ge  Ge14  1  0.67184914  0.03984348  0.95784449  1
  Ge  Ge15  1  0.17184914  0.46015652  0.54215551  1
loop_
_geom_bond_atom_site_label_1
_geom_bond_atom_site_label_2
_geom_bond_distance
_geom_bond_site_symmetry_2
Gd0 Ge13 2.876873 1_555
Gd0 Ge3 2.881870 1_555
Gd0 Ge10 2.995386 1_545
Gd0 Ge2 3.006911 1_555
Gd0 Ge6 3.010155 1_555
Gd0 Ge14 3.048382 1_554
Gd0 Ge9 3.112919 1_554
Gd1 Ge12 2.876873 1_645
Gd1 Ge2 2.881870 1_655
Gd1 Ge11 2.995386 1_555
Gd1 Ge3 3.006911 1_555
Gd1 Ge7 3.010155 1_545
Gd1 Ge15 3.048382 1_655
Gd1 Ge8 3.112919 1_555
Gd2 Ge15 2.876873 1_555
Gd2 Ge1 2.881870 1_555
Gd2 Ge8 2.995386 1_565
Gd2 Ge0 3.006911 1_555
Gd2 Ge4 3.010155 1_555
Gd2 Ge12 3.048382 1_555
Gd2 Ge11 3.112919 1_555
Gd3 Ge14 2.876873 1_465
Gd3 Ge0 2.881870 1_455
Gd3 Ge9 2.995386 1_555
Gd3 Ge1 3.006911 1_555
Gd3 Ge5 3.010155 1_565
Gd3 Ge13 3.048382 1_456
Gd3 Ge10 3.112919 1_556
Gd4 Ge9 2.876873 1_555
Gd4 Ge1 2.881870 1_555
Gd4 Ge14 2.995386 1_565
Gd4 Ge0 3.006911 1_555
Gd4 Ge4 3.010155 1_555
Gd4 Ge10 3.048382 1_556
Gd4 Ge13 3.112919 1_556
Gd5 Ge8 2.876873 1_465
Gd5 Ge0 2.881870 1_455
Gd5 Ge15 2.995386 1_555
Gd5 Ge1 3.006911 1_555
Gd5 Ge5 3.010155 1_565
Gd5 Ge11 3.048382 1_455
Gd5 Ge12 3.112919 1_555
Gd6 Ge11 2.876873 1_555
Gd6 Ge3 2.881870 1_555
Gd6 Ge12 2.995386 1_545
Gd6 Ge2 3.006911 1_555
Gd6 Ge6 3.010155 1_555
Gd6 Ge8 3.048382 1_555
Gd6 Ge15 3.112919 1_555
Gd7 Ge10 2.876873 1_645
Gd7 Ge2 2.881870 1_655
Gd7 Ge13 2.995386 1_555
Gd7 Ge3 3.006911 1_555
Gd7 Ge7 3.010155 1_545
Gd7 Ge9 3.048382 1_654
Gd7 Ge14 3.112919 1_554
Ge0 Ge4 2.626424 1_555
Ge0 Nb1 2.742598 1_655
Ge0 Nb4 2.781682 1_555
Ge0 Nb10 2.781682 1_555
Ge0 Nb0 2.915658 1_565
Ge1 Ge5 2.626424 1_565
Ge1 Nb0 2.742598 1_565
Ge1 Nb11 2.781682 1_565
Ge1 Nb5 2.781682 1_565
Ge1 Nb1 2.915658 1_555
Ge2 Ge6 2.626424 1_555
Ge2 Nb3 2.742598 1_455
Ge2 Nb6 2.781682 1_555
Ge2 Nb8 2.781682 1_555
Ge2 Nb2 2.915658 1_545
Ge3 Ge7 2.626424 1_545
Ge3 Nb2 2.742598 1_545
Ge3 Nb9 2.781682 1_545
Ge3 Nb7 2.781682 1_545
Ge3 Nb3 2.915658 1_555
Ge4 Nb11 2.641034 1_555
Ge4 Nb5 2.641034 1_555
Ge4 Nb10 2.717612 1_555
Ge4 Nb4 2.717612 1_555
Ge4 Nb1 2.756438 1_555
Ge4 Nb0 2.771741 1_555
Ge5 Nb10 2.641034 1_455
Ge5 Nb4 2.641034 1_455
Ge5 Nb11 2.717612 1_555
Ge5 Nb5 2.717612 1_555
Ge5 Nb0 2.756438 1_455
Ge5 Nb1 2.771741 1_555
Ge6 Nb9 2.641034 1_555
Ge6 Nb7 2.641034 1_555
Ge6 Nb6 2.717612 1_555
Ge6 Nb8 2.717612 1_555
Ge6 Nb3 2.756438 1_555
Ge6 Nb2 2.771741 1_555
Ge7 Nb6 2.641034 1_655
Ge7 Nb8 2.641034 1_655
Ge7 Nb9 2.717612 1_555
Ge7 Nb7 2.717612 1_555
Ge7 Nb2 2.756438 1_655
Ge7 Nb3 2.771741 1_555
Ge8 Nb4 2.657727 1_555
Ge8 Nb7 2.765855 1_545
Ge8 Nb11 2.774506 1_555
Ge8 Nb0 2.835052 1_555
Ge9 Nb5 2.657727 1_555
Ge9 Nb6 2.765855 1_556
Ge9 Nb10 2.774506 1_455
Ge9 Nb1 2.835052 1_555
Ge10 Nb6 2.657727 1_555
Ge10 Ge14 2.736828 1_564
Ge10 Nb5 2.765855 1_564
Ge10 Nb9 2.774506 1_555
Ge10 Nb2 2.835052 1_555
Ge11 Nb7 2.657727 1_555
Ge11 Ge15 2.736828 1_655
Ge11 Nb4 2.765855 1_555
Ge11 Nb8 2.774506 1_655
Ge11 Nb3 2.835052 1_555
Ge12 Nb8 2.657727 1_555
Ge12 Ge8 2.736828 1_565
Ge12 Nb11 2.765855 1_565
Ge12 Nb7 2.774506 1_555
Ge12 Nb2 2.835052 1_555
Ge13 Nb9 2.657727 1_555
Ge13 Ge9 2.736828 1_654
Ge13 Nb10 2.765855 1_554
Ge13 Nb6 2.774506 1_655
Ge13 Nb3 2.835052 1_555
Ge14 Nb10 2.657727 1_555
Ge14 Nb9 2.765855 1_546
Ge14 Nb5 2.774506 1_555
Ge14 Nb0 2.835052 1_555
Ge15 Nb11 2.657727 1_555
Ge15 Nb8 2.765855 1_555
Ge15 Nb4 2.774506 1_455
Ge15 Nb1 2.835052 1_555
