# generated using pymatgen
data_Sr4MgCo2(SO3)2
_symmetry_space_group_name_H-M   'P 1'
_cell_length_a   3.88225800
_cell_length_b   3.88225800
_cell_length_c   16.30138400
_cell_angle_alpha   90.00000000
_cell_angle_beta   90.00000000
_cell_angle_gamma   90.00000000
_symmetry_Int_Tables_number   1
_chemical_formula_structural   Sr4MgCo2(SO3)2
_chemical_formula_sum   'Sr4 Mg1 Co2 S2 O6'
_cell_volume   245.69327256
_cell_formula_units_Z   1
loop_
 _symmetry_equiv_pos_site_id
 _symmetry_equiv_pos_as_xyz
  1  'x, y, z'
loop_
 _atom_site_type_symbol
 _atom_site_label
 _atom_site_symmetry_multiplicity
 _atom_site_fract_x
 _atom_site_fract_y
 _atom_site_fract_z
 _atom_site_occupancy
  Sr  Sr0  1  0.00000000  0.50000000  0.19156500  1
  Sr  Sr1  1  0.50000000  0.00000000  0.80843500  1
  Sr  Sr2  1  0.00000000  0.50000000  0.41495500  1
  Sr  Sr3  1  0.50000000  0.00000000  0.58504500  1
  Mg  Mg0  1  0.50000000  0.50000000  0.00000000  1
  Co  Co0  1  0.50000000  0.00000000  0.31295900  1
  Co  Co1  1  0.00000000  0.50000000  0.68704100  1
  S  S0  1  0.50000000  0.00000000  0.09571000  1
  S  S1  1  0.00000000  0.50000000  0.90429000  1
  O  O0  1  0.00000000  0.00000000  0.29334400  1
  O  O1  1  0.50000000  0.50000000  0.29294600  1
  O  O2  1  0.50000000  0.50000000  0.70705400  1
  O  O3  1  0.00000000  0.00000000  0.70665600  1
  O  O4  1  0.50000000  0.00000000  0.43199600  1
  O  O5  1  0.00000000  0.50000000  0.56800400  1
loop_
_geom_bond_atom_site_label_1
_geom_bond_atom_site_label_2
_geom_bond_distance
_geom_bond_site_symmetry_2
Mg0 S1 2.490426 1_654
Mg0 S1 2.490426 1_554
Mg0 S0 2.490426 1_555
Mg0 S0 2.490426 1_565
Co0 O4 1.940468 1_555
Co0 O0 1.967288 1_655
Co0 O0 1.967288 1_555
Co0 O1 1.968353 1_555
Co0 O1 1.968353 1_545
Co1 O5 1.940468 1_555
Co1 O3 1.967288 1_565
Co1 O3 1.967288 1_555
Co1 O2 1.968353 1_455
Co1 O2 1.968353 1_555
S0 Sr0 3.158732 1_555
S0 Sr0 3.158732 1_645
S0 Sr0 3.158732 1_655
S0 Sr0 3.158732 1_545
S1 Sr1 3.158732 1_455
S1 Sr1 3.158732 1_555
S1 Sr1 3.158732 1_565
S1 Sr1 3.158732 1_465
O0 Sr0 2.553571 1_545
O0 Sr0 2.553571 1_555
O0 Sr2 2.774527 1_555
O0 Sr2 2.774527 1_545
O1 Sr0 2.549360 1_555
O1 Sr0 2.549360 1_655
O1 Sr2 2.779167 1_555
O1 Sr2 2.779167 1_655
O2 Sr1 2.549360 1_565
O2 Sr1 2.549360 1_555
O2 Sr3 2.779167 1_565
O2 Sr3 2.779167 1_555
O3 Sr1 2.553571 1_555
O3 Sr1 2.553571 1_455
O3 Sr3 2.774527 1_455
O3 Sr3 2.774527 1_555
O4 Sr3 2.494911 1_555
O4 Sr2 2.759190 1_545
O4 Sr2 2.759190 1_645
O4 Sr2 2.759190 1_555
O4 Sr2 2.759190 1_655
O5 Sr2 2.494911 1_555
O5 Sr3 2.759190 1_455
O5 Sr3 2.759190 1_465
O5 Sr3 2.759190 1_555
O5 Sr3 2.759190 1_565
