# generated using pymatgen
data_Cu
_symmetry_space_group_name_H-M   'P 1'
_cell_length_a   5.00731705
_cell_length_b   5.00731705
_cell_length_c   49.15117854
_cell_angle_alpha   90.00000000
_cell_angle_beta   90.00000000
_cell_angle_gamma   120.00001599
_symmetry_Int_Tables_number   1
_chemical_formula_structural   Cu
_chemical_formula_sum   Cu48
_cell_volume   1067.27092610
_cell_formula_units_Z   48
loop_
 _symmetry_equiv_pos_site_id
 _symmetry_equiv_pos_as_xyz
  1  'x, y, z'
loop_
 _atom_site_type_symbol
 _atom_site_label
 _atom_site_symmetry_multiplicity
 _atom_site_fract_x
 _atom_site_fract_y
 _atom_site_fract_z
 _atom_site_occupancy
  Cu  Cu0_0  1  0.33333300  0.16666700  0.45895127  1
  Cu  Cu0_1  1  0.33333300  0.16666700  0.95895127  1
  Cu  Cu0_2  1  0.33333300  0.66666700  0.45895127  1
  Cu  Cu0_3  1  0.33333300  0.66666700  0.95895127  1
  Cu  Cu0_4  1  0.83333300  0.16666700  0.45895127  1
  Cu  Cu0_5  1  0.83333300  0.16666700  0.95895127  1
  Cu  Cu0_6  1  0.83333300  0.66666700  0.45895127  1
  Cu  Cu0_7  1  0.83333300  0.66666700  0.95895127  1
  Cu  Cu1_0  1  0.00000000  0.00000000  0.00102629  1
  Cu  Cu1_1  1  0.00000000  0.00000000  0.50102629  1
  Cu  Cu1_2  1  0.00000000  0.50000000  0.00102629  1
  Cu  Cu1_3  1  0.00000000  0.50000000  0.50102629  1
  Cu  Cu1_4  1  0.50000000  0.00000000  0.00102629  1
  Cu  Cu1_5  1  0.50000000  0.00000000  0.50102629  1
  Cu  Cu1_6  1  0.50000000  0.50000000  0.00102629  1
  Cu  Cu1_7  1  0.50000000  0.50000000  0.50102629  1
  Cu  Cu2_0  1  0.16666700  0.33333300  0.41683807  1
  Cu  Cu2_1  1  0.16666700  0.33333300  0.91683807  1
  Cu  Cu2_2  1  0.16666700  0.83333300  0.41683807  1
  Cu  Cu2_3  1  0.16666700  0.83333300  0.91683807  1
  Cu  Cu2_4  1  0.66666700  0.33333300  0.41683807  1
  Cu  Cu2_5  1  0.66666700  0.33333300  0.91683807  1
  Cu  Cu2_6  1  0.66666700  0.83333300  0.41683807  1
  Cu  Cu2_7  1  0.66666700  0.83333300  0.91683807  1
  Cu  Cu3_0  1  0.33333300  0.16666700  0.33271572  1
  Cu  Cu3_1  1  0.33333300  0.16666700  0.83271573  1
  Cu  Cu3_2  1  0.33333300  0.66666700  0.33271572  1
  Cu  Cu3_3  1  0.33333300  0.66666700  0.83271573  1
  Cu  Cu3_4  1  0.83333300  0.16666700  0.33271572  1
  Cu  Cu3_5  1  0.83333300  0.16666700  0.83271573  1
  Cu  Cu3_6  1  0.83333300  0.66666700  0.33271572  1
  Cu  Cu3_7  1  0.83333300  0.66666700  0.83271573  1
  Cu  Cu4_0  1  0.00000000  0.00000000  0.37482843  1
  Cu  Cu4_1  1  0.00000000  0.00000000  0.87482843  1
  Cu  Cu4_2  1  0.00000000  0.50000000  0.37482843  1
  Cu  Cu4_3  1  0.00000000  0.50000000  0.87482843  1
  Cu  Cu4_4  1  0.50000000  0.00000000  0.37482843  1
  Cu  Cu4_5  1  0.50000000  0.00000000  0.87482843  1
  Cu  Cu4_6  1  0.50000000  0.50000000  0.37482843  1
  Cu  Cu4_7  1  0.50000000  0.50000000  0.87482843  1
  Cu  Cu5_0  1  0.16666700  0.33333300  0.29064021  1
  Cu  Cu5_1  1  0.16666700  0.33333300  0.79064021  1
  Cu  Cu5_2  1  0.16666700  0.83333300  0.29064021  1
  Cu  Cu5_3  1  0.16666700  0.83333300  0.79064021  1
  Cu  Cu5_4  1  0.66666700  0.33333300  0.29064021  1
  Cu  Cu5_5  1  0.66666700  0.33333300  0.79064021  1
  Cu  Cu5_6  1  0.66666700  0.83333300  0.29064021  1
  Cu  Cu5_7  1  0.66666700  0.83333300  0.79064021  1
loop_
_geom_bond_atom_site_label_1
_geom_bond_atom_site_label_2
_geom_bond_distance
_geom_bond_site_symmetry_2
Cu0_0 Cu0_6 2.503658 1_555
Cu0_0 Cu0_6 2.503658 1_445
Cu0_0 Cu0_2 2.503659 1_555
Cu0_0 Cu0_4 2.503659 1_455
Cu0_0 Cu0_4 2.503659 1_555
Cu0_0 Cu0_2 2.503659 1_545
Cu0_0 Cu1_1 2.523134 1_555
Cu0_0 Cu1_7 2.523134 1_555
Cu0_0 Cu1_5 2.523137 1_555
Cu0_0 Cu2_0 2.524671 1_555
Cu0_0 Cu2_2 2.524675 1_545
Cu0_0 Cu2_4 2.524675 1_555
Cu0_1 Cu0_7 2.503658 1_555
Cu0_1 Cu0_7 2.503658 1_445
Cu0_1 Cu0_3 2.503659 1_555
Cu0_1 Cu0_5 2.503659 1_555
Cu0_1 Cu0_5 2.503659 1_455
Cu0_1 Cu0_3 2.503659 1_545
Cu0_1 Cu1_0 2.523134 1_556
Cu0_1 Cu1_6 2.523134 1_556
Cu0_1 Cu1_4 2.523137 1_556
Cu0_1 Cu2_1 2.524671 1_555
Cu0_1 Cu2_5 2.524675 1_555
Cu0_1 Cu2_3 2.524675 1_545
Cu0_2 Cu0_4 2.503658 1_455
Cu0_2 Cu0_4 2.503658 1_565
Cu0_2 Cu0_6 2.503659 1_555
Cu0_2 Cu0_6 2.503659 1_455
Cu0_2 Cu1_5 2.523134 1_565
Cu0_2 Cu1_3 2.523134 1_555
Cu0_2 Cu1_7 2.523137 1_555
Cu0_2 Cu2_2 2.524671 1_555
Cu0_2 Cu2_6 2.524675 1_555
Cu0_2 Cu2_0 2.524675 1_555
Cu0_3 Cu0_5 2.503658 1_455
Cu0_3 Cu0_5 2.503658 1_565
Cu0_3 Cu0_7 2.503659 1_555
Cu0_3 Cu0_7 2.503659 1_455
Cu0_3 Cu1_2 2.523134 1_556
Cu0_3 Cu1_4 2.523134 1_566
Cu0_3 Cu1_6 2.523137 1_556
Cu0_3 Cu2_3 2.524671 1_555
Cu0_3 Cu2_7 2.524675 1_555
Cu0_3 Cu2_1 2.524675 1_555
Cu0_4 Cu0_6 2.503659 1_555
Cu0_4 Cu0_6 2.503659 1_545
Cu0_4 Cu1_5 2.523134 1_555
Cu0_4 Cu1_3 2.523134 1_655
Cu0_4 Cu1_1 2.523137 1_655
Cu0_4 Cu2_4 2.524671 1_555
Cu0_4 Cu2_0 2.524675 1_655
Cu0_4 Cu2_6 2.524675 1_545
Cu0_5 Cu0_7 2.503659 1_555
Cu0_5 Cu0_7 2.503659 1_545
Cu0_5 Cu1_4 2.523134 1_556
Cu0_5 Cu1_2 2.523134 1_656
Cu0_5 Cu1_0 2.523137 1_656
Cu0_5 Cu2_5 2.524671 1_555
Cu0_5 Cu2_1 2.524675 1_655
Cu0_5 Cu2_7 2.524675 1_545
Cu0_6 Cu1_1 2.523134 1_665
Cu0_6 Cu1_7 2.523134 1_555
Cu0_6 Cu1_3 2.523137 1_655
Cu0_6 Cu2_6 2.524671 1_555
Cu0_6 Cu2_4 2.524675 1_555
Cu0_6 Cu2_2 2.524675 1_655
Cu0_7 Cu1_6 2.523134 1_556
Cu0_7 Cu1_0 2.523134 1_666
Cu0_7 Cu1_2 2.523137 1_656
Cu0_7 Cu2_7 2.524671 1_555
Cu0_7 Cu2_3 2.524675 1_655
Cu0_7 Cu2_5 2.524675 1_555
Cu1_0 Cu1_6 2.503658 1_445
Cu1_0 Cu1_6 2.503658 1_555
Cu1_0 Cu1_2 2.503659 1_555
Cu1_0 Cu1_4 2.503659 1_555
Cu1_0 Cu1_4 2.503659 1_455
Cu1_0 Cu1_2 2.503659 1_545
Cu1_1 Cu1_7 2.503658 1_445
Cu1_1 Cu1_7 2.503658 1_555
Cu1_1 Cu1_3 2.503659 1_555
Cu1_1 Cu1_3 2.503659 1_545
Cu1_1 Cu1_5 2.503659 1_455
Cu1_1 Cu1_5 2.503659 1_555
Cu1_2 Cu1_4 2.503658 1_565
Cu1_2 Cu1_4 2.503658 1_455
Cu1_2 Cu1_6 2.503659 1_455
Cu1_2 Cu1_6 2.503659 1_555
Cu1_3 Cu1_5 2.503658 1_565
Cu1_3 Cu1_5 2.503658 1_455
Cu1_3 Cu1_7 2.503659 1_555
Cu1_3 Cu1_7 2.503659 1_455
Cu1_4 Cu1_6 2.503659 1_555
Cu1_4 Cu1_6 2.503659 1_545
Cu1_5 Cu1_7 2.503659 1_555
Cu1_5 Cu1_7 2.503659 1_545
Cu2_0 Cu2_6 2.503658 1_555
Cu2_0 Cu2_6 2.503658 1_445
Cu2_0 Cu2_2 2.503659 1_545
Cu2_0 Cu2_4 2.503659 1_555
Cu2_0 Cu2_4 2.503659 1_455
Cu2_0 Cu2_2 2.503659 1_555
Cu2_0 Cu4_0 2.520501 1_555
Cu2_0 Cu4_6 2.520501 1_555
Cu2_0 Cu4_2 2.520504 1_555
Cu2_1 Cu2_7 2.503658 1_555
Cu2_1 Cu2_7 2.503658 1_445
Cu2_1 Cu2_3 2.503659 1_545
Cu2_1 Cu2_5 2.503659 1_555
Cu2_1 Cu2_5 2.503659 1_455
Cu2_1 Cu2_3 2.503659 1_555
Cu2_1 Cu4_1 2.520501 1_555
Cu2_1 Cu4_7 2.520501 1_555
Cu2_1 Cu4_3 2.520504 1_555
Cu2_2 Cu2_4 2.503658 1_565
Cu2_2 Cu2_4 2.503658 1_455
Cu2_2 Cu2_6 2.503659 1_455
Cu2_2 Cu2_6 2.503659 1_555
Cu2_2 Cu4_4 2.520501 1_565
Cu2_2 Cu4_2 2.520501 1_555
Cu2_2 Cu4_0 2.520504 1_565
Cu2_3 Cu2_5 2.503658 1_565
Cu2_3 Cu2_5 2.503658 1_455
Cu2_3 Cu2_7 2.503659 1_455
Cu2_3 Cu2_7 2.503659 1_555
Cu2_3 Cu4_3 2.520501 1_555
Cu2_3 Cu4_5 2.520501 1_565
Cu2_3 Cu4_1 2.520504 1_565
Cu2_4 Cu2_6 2.503659 1_555
Cu2_4 Cu2_6 2.503659 1_545
Cu2_4 Cu4_4 2.520501 1_555
Cu2_4 Cu4_2 2.520501 1_655
Cu2_4 Cu4_6 2.520504 1_555
Cu2_5 Cu2_7 2.503659 1_555
Cu2_5 Cu2_7 2.503659 1_545
Cu2_5 Cu4_5 2.520501 1_555
Cu2_5 Cu4_3 2.520501 1_655
Cu2_5 Cu4_7 2.520504 1_555
Cu2_6 Cu4_0 2.520501 1_665
Cu2_6 Cu4_6 2.520501 1_555
Cu2_6 Cu4_4 2.520504 1_565
Cu2_7 Cu4_7 2.520501 1_555
Cu2_7 Cu4_1 2.520501 1_665
Cu2_7 Cu4_5 2.520504 1_565
Cu3_0 Cu3_6 2.503658 1_555
Cu3_0 Cu3_6 2.503658 1_445
Cu3_0 Cu3_2 2.503659 1_555
Cu3_0 Cu3_4 2.503659 1_455
Cu3_0 Cu3_4 2.503659 1_555
Cu3_0 Cu3_2 2.503659 1_545
Cu3_0 Cu5_0 2.523152 1_555
Cu3_0 Cu5_2 2.523157 1_545
Cu3_0 Cu5_4 2.523157 1_555
Cu3_0 Cu4_0 2.524653 1_555
Cu3_0 Cu4_6 2.524653 1_555
Cu3_0 Cu4_4 2.524655 1_555
Cu3_1 Cu3_7 2.503658 1_555
Cu3_1 Cu3_7 2.503658 1_445
Cu3_1 Cu3_3 2.503659 1_555
Cu3_1 Cu3_5 2.503659 1_455
Cu3_1 Cu3_5 2.503659 1_555
Cu3_1 Cu3_3 2.503659 1_545
Cu3_1 Cu5_1 2.523152 1_555
Cu3_1 Cu5_5 2.523157 1_555
Cu3_1 Cu5_3 2.523157 1_545
Cu3_1 Cu4_7 2.524653 1_555
Cu3_1 Cu4_1 2.524653 1_555
Cu3_1 Cu4_5 2.524655 1_555
Cu3_2 Cu3_4 2.503658 1_565
Cu3_2 Cu3_4 2.503658 1_455
Cu3_2 Cu3_6 2.503659 1_555
Cu3_2 Cu3_6 2.503659 1_455
Cu3_2 Cu5_2 2.523152 1_555
Cu3_2 Cu5_6 2.523157 1_555
Cu3_2 Cu5_0 2.523157 1_555
Cu3_2 Cu4_2 2.524653 1_555
Cu3_2 Cu4_4 2.524653 1_565
Cu3_2 Cu4_6 2.524655 1_555
Cu3_3 Cu3_5 2.503658 1_455
Cu3_3 Cu3_5 2.503658 1_565
Cu3_3 Cu3_7 2.503659 1_555
Cu3_3 Cu3_7 2.503659 1_455
Cu3_3 Cu5_3 2.523152 1_555
Cu3_3 Cu5_1 2.523157 1_555
Cu3_3 Cu5_7 2.523157 1_555
Cu3_3 Cu4_3 2.524653 1_555
Cu3_3 Cu4_5 2.524653 1_565
Cu3_3 Cu4_7 2.524655 1_555
Cu3_4 Cu3_6 2.503659 1_555
Cu3_4 Cu3_6 2.503659 1_545
Cu3_4 Cu5_4 2.523152 1_555
Cu3_4 Cu5_0 2.523157 1_655
Cu3_4 Cu5_6 2.523157 1_545
Cu3_4 Cu4_4 2.524653 1_555
Cu3_4 Cu4_2 2.524653 1_655
Cu3_4 Cu4_0 2.524655 1_655
Cu3_5 Cu3_7 2.503659 1_555
Cu3_5 Cu3_7 2.503659 1_545
Cu3_5 Cu5_5 2.523152 1_555
Cu3_5 Cu5_1 2.523157 1_655
Cu3_5 Cu5_7 2.523157 1_545
Cu3_5 Cu4_5 2.524653 1_555
Cu3_5 Cu4_3 2.524653 1_655
Cu3_5 Cu4_1 2.524655 1_655
Cu3_6 Cu5_6 2.523152 1_555
Cu3_6 Cu5_2 2.523157 1_655
Cu3_6 Cu5_4 2.523157 1_555
Cu3_6 Cu4_6 2.524653 1_555
Cu3_6 Cu4_0 2.524653 1_665
Cu3_6 Cu4_2 2.524655 1_655
Cu3_7 Cu5_7 2.523152 1_555
Cu3_7 Cu5_5 2.523157 1_555
Cu3_7 Cu5_3 2.523157 1_655
Cu3_7 Cu4_7 2.524653 1_555
Cu3_7 Cu4_1 2.524653 1_665
Cu3_7 Cu4_3 2.524655 1_655
Cu4_0 Cu4_6 2.503658 1_555
Cu4_0 Cu4_6 2.503658 1_445
Cu4_0 Cu4_2 2.503659 1_555
Cu4_0 Cu4_4 2.503659 1_455
Cu4_0 Cu4_2 2.503659 1_545
Cu4_0 Cu4_4 2.503659 1_555
Cu4_1 Cu4_7 2.503658 1_445
Cu4_1 Cu4_7 2.503658 1_555
Cu4_1 Cu4_3 2.503659 1_555
Cu4_1 Cu4_3 2.503659 1_545
Cu4_1 Cu4_5 2.503659 1_455
Cu4_1 Cu4_5 2.503659 1_555
Cu4_2 Cu4_4 2.503658 1_455
Cu4_2 Cu4_4 2.503658 1_565
Cu4_2 Cu4_6 2.503659 1_555
Cu4_2 Cu4_6 2.503659 1_455
Cu4_3 Cu4_5 2.503658 1_455
Cu4_3 Cu4_5 2.503658 1_565
Cu4_3 Cu4_7 2.503659 1_555
Cu4_3 Cu4_7 2.503659 1_455
Cu4_4 Cu4_6 2.503659 1_555
Cu4_4 Cu4_6 2.503659 1_545
Cu4_5 Cu4_7 2.503659 1_555
Cu4_5 Cu4_7 2.503659 1_545
Cu5_0 Cu5_6 2.503658 1_445
Cu5_0 Cu5_6 2.503658 1_555
Cu5_0 Cu5_2 2.503659 1_545
Cu5_0 Cu5_4 2.503659 1_455
Cu5_0 Cu5_2 2.503659 1_555
Cu5_0 Cu5_4 2.503659 1_555
Cu5_1 Cu5_7 2.503658 1_445
Cu5_1 Cu5_7 2.503658 1_555
Cu5_1 Cu5_3 2.503659 1_545
Cu5_1 Cu5_5 2.503659 1_555
Cu5_1 Cu5_5 2.503659 1_455
Cu5_1 Cu5_3 2.503659 1_555
Cu5_2 Cu5_4 2.503658 1_565
Cu5_2 Cu5_4 2.503658 1_455
Cu5_2 Cu5_6 2.503659 1_455
Cu5_2 Cu5_6 2.503659 1_555
Cu5_3 Cu5_5 2.503658 1_565
Cu5_3 Cu5_5 2.503658 1_455
Cu5_3 Cu5_7 2.503659 1_455
Cu5_3 Cu5_7 2.503659 1_555
Cu5_4 Cu5_6 2.503659 1_555
Cu5_4 Cu5_6 2.503659 1_545
Cu5_5 Cu5_7 2.503659 1_555
Cu5_5 Cu5_7 2.503659 1_545
