# generated using pymatgen
data_Li3Dy(NO3)6
_symmetry_space_group_name_H-M   'P 1'
_cell_length_a   7.63522544
_cell_length_b   7.88697989
_cell_length_c   24.24398150
_cell_angle_alpha   91.32960558
_cell_angle_beta   90.00000000
_cell_angle_gamma   90.00000000
_symmetry_Int_Tables_number   1
_chemical_formula_structural   Li3Dy(NO3)6
_chemical_formula_sum   'Li12 Dy4 N24 O72'
_cell_volume   1459.55207231
_cell_formula_units_Z   4
loop_
 _symmetry_equiv_pos_site_id
 _symmetry_equiv_pos_as_xyz
  1  'x, y, z'
loop_
 _atom_site_type_symbol
 _atom_site_label
 _atom_site_symmetry_multiplicity
 _atom_site_fract_x
 _atom_site_fract_y
 _atom_site_fract_z
 _atom_site_occupancy
  Li  Li0  1  0.81586467  0.70684325  0.63417206  1
  Li  Li1  1  0.18413533  0.29315675  0.36582794  1
  Li  Li2  1  0.31586467  0.79315675  0.86582794  1
  Li  Li3  1  0.68413533  0.20684325  0.13417206  1
  Li  Li4  1  0.55757510  0.99947648  0.74534214  1
  Li  Li5  1  0.44242490  0.00052352  0.25465786  1
  Li  Li6  1  0.05757510  0.50052352  0.75465786  1
  Li  Li7  1  0.94242490  0.49947648  0.24534214  1
  Li  Li8  1  0.28977704  0.74226375  0.52585483  1
  Li  Li9  1  0.71022296  0.25773625  0.47414517  1
  Li  Li10  1  0.78977704  0.75773625  0.97414517  1
  Li  Li11  1  0.21022296  0.24226375  0.02585483  1
  Dy  Dy0  1  0.30576001  0.24279975  0.60963064  1
  Dy  Dy1  1  0.69423999  0.75720025  0.39036936  1
  Dy  Dy2  1  0.80576001  0.25720025  0.89036936  1
  Dy  Dy3  1  0.19423999  0.74279975  0.10963064  1
  N  N0  1  0.79829351  0.73540449  0.73522450  1
  N  N1  1  0.20170649  0.26459551  0.26477550  1
  N  N2  1  0.29829351  0.76459551  0.76477550  1
  N  N3  1  0.70170649  0.23540449  0.23522450  1
  N  N4  1  0.30206761  0.26096652  0.73029974  1
  N  N5  1  0.69793239  0.73903348  0.26970026  1
  N  N6  1  0.80206761  0.23903348  0.76970026  1
  N  N7  1  0.19793239  0.76096652  0.23029974  1
  N  N8  1  0.49193448  0.14515397  0.94612388  1
  N  N9  1  0.50806552  0.85484603  0.05387612  1
  N  N10  1  0.99193448  0.35484603  0.55387612  1
  N  N11  1  0.00806552  0.64515397  0.44612388  1
  N  N12  1  0.12910706  0.40093934  0.93616423  1
  N  N13  1  0.87089294  0.59906066  0.06383577  1
  N  N14  1  0.62910706  0.09906066  0.56383577  1
  N  N15  1  0.37089294  0.90093934  0.43616423  1
  N  N16  1  0.11389638  0.92425758  0.60651367  1
  N  N17  1  0.88610362  0.07574242  0.39348633  1
  N  N18  1  0.61389638  0.57574242  0.89348633  1
  N  N19  1  0.38610362  0.42425758  0.10651367  1
  N  N20  1  0.00792396  0.94503583  0.90263629  1
  N  N21  1  0.99207604  0.05496417  0.09736371  1
  N  N22  1  0.50792396  0.55496417  0.59736371  1
  N  N23  1  0.49207604  0.44503583  0.40263629  1
  O  O0  1  0.39715783  0.15436267  0.70215553  1
  O  O1  1  0.60284217  0.84563733  0.29784447  1
  O  O2  1  0.89715783  0.34563733  0.79784447  1
  O  O3  1  0.10284217  0.65436267  0.20215553  1
  O  O4  1  0.52332617  0.09166108  0.89708847  1
  O  O5  1  0.47667383  0.90833892  0.10291153  1
  O  O6  1  0.02332617  0.40833892  0.60291153  1
  O  O7  1  0.97667383  0.59166108  0.39708847  1
  O  O8  1  0.60536748  0.24550182  0.96834981  1
  O  O9  1  0.39463252  0.75449818  0.03165019  1
  O  O10  1  0.10536748  0.25449818  0.53165019  1
  O  O11  1  0.89463252  0.74550182  0.46834981  1
  O  O12  1  0.30030529  0.26879554  0.78059644  1
  O  O13  1  0.69969471  0.73120446  0.21940356  1
  O  O14  1  0.80030529  0.23120446  0.71940356  1
  O  O15  1  0.19969471  0.76879554  0.28059644  1
  O  O16  1  0.26414842  0.45732658  0.95757206  1
  O  O17  1  0.73585158  0.54267342  0.04242794  1
  O  O18  1  0.76414842  0.04267342  0.54242794  1
  O  O19  1  0.23585158  0.95732658  0.45757206  1
  O  O20  1  0.04960860  0.05523941  0.86749367  1
  O  O21  1  0.95039140  0.94476059  0.13250633  1
  O  O22  1  0.54960860  0.44476059  0.63250633  1
  O  O23  1  0.45039140  0.55523941  0.36749367  1
  O  O24  1  0.35705886  0.10161571  0.97111004  1
  O  O25  1  0.64294114  0.89838429  0.02888996  1
  O  O26  1  0.85705886  0.39838429  0.52888996  1
  O  O27  1  0.14294114  0.60161571  0.47111004  1
  O  O28  1  0.29638324  0.75462365  0.71371838  1
  O  O29  1  0.70361676  0.24537635  0.28628162  1
  O  O30  1  0.79638324  0.74537635  0.78628162  1
  O  O31  1  0.20361676  0.25462365  0.21371838  1
  O  O32  1  0.63649306  0.47069653  0.42933271  1
  O  O33  1  0.36350694  0.52930347  0.57066729  1
  O  O34  1  0.13649306  0.02930347  0.07066729  1
  O  O35  1  0.86350694  0.97069653  0.92933271  1
  O  O36  1  0.03242618  0.78959183  0.59921599  1
  O  O37  1  0.96757382  0.21040817  0.40078401  1
  O  O38  1  0.53242618  0.71040817  0.90078401  1
  O  O39  1  0.46757382  0.28959183  0.09921599  1
  O  O40  1  0.02350602  0.30460225  0.96475045  1
  O  O41  1  0.97649398  0.69539775  0.03524955  1
  O  O42  1  0.52350602  0.19539775  0.53524955  1
  O  O43  1  0.47649398  0.80460225  0.46475045  1
  O  O44  1  0.08304803  0.42772582  0.88711181  1
  O  O45  1  0.91695197  0.57227418  0.11288819  1
  O  O46  1  0.58304803  0.07227418  0.61288819  1
  O  O47  1  0.41695197  0.92772582  0.38711181  1
  O  O48  1  0.20808913  0.35996000  0.70025490  1
  O  O49  1  0.79191087  0.64004000  0.29974510  1
  O  O50  1  0.70808913  0.14004000  0.79974510  1
  O  O51  1  0.29191087  0.85996000  0.20025490  1
  O  O52  1  0.59915721  0.68125584  0.58803111  1
  O  O53  1  0.40084279  0.31874416  0.41196889  1
  O  O54  1  0.09915721  0.81874416  0.91196889  1
  O  O55  1  0.90084279  0.18125584  0.08803111  1
  O  O56  1  0.06313659  0.04573952  0.63758040  1
  O  O57  1  0.93686341  0.95426048  0.36241960  1
  O  O58  1  0.56313659  0.45426048  0.86241960  1
  O  O59  1  0.43686341  0.54573952  0.13758040  1
  O  O60  1  0.26045955  0.94544860  0.58070989  1
  O  O61  1  0.73954045  0.05455140  0.41929011  1
  O  O62  1  0.76045955  0.55455140  0.91929011  1
  O  O63  1  0.23954045  0.44544860  0.08070989  1
  O  O64  1  0.39129043  0.87574089  0.79113190  1
  O  O65  1  0.60870957  0.12425911  0.20886810  1
  O  O66  1  0.89129043  0.62425911  0.70886810  1
  O  O67  1  0.10870957  0.37574089  0.29113190  1
  O  O68  1  0.70859213  0.83450997  0.70496185  1
  O  O69  1  0.29140787  0.16549003  0.29503815  1
  O  O70  1  0.20859213  0.66549003  0.79503815  1
  O  O71  1  0.79140787  0.33450997  0.20496185  1
loop_
_geom_bond_atom_site_label_1
_geom_bond_atom_site_label_2
_geom_bond_distance
_geom_bond_site_symmetry_2
Li0 O36 1.975820 1_655
Li0 O52 2.004829 1_555
Li0 O66 2.022400 1_555
Li0 O68 2.133058 1_555
Li1 O37 1.975820 1_455
Li1 O53 2.004829 1_555
Li1 O67 2.022400 1_555
Li1 O69 2.133058 1_555
Li2 O38 1.975820 1_555
Li2 O54 2.004829 1_555
Li2 O64 2.022400 1_555
Li2 O70 2.133058 1_555
Li3 O39 1.975820 1_555
Li3 O55 2.004829 1_555
Li3 O65 2.022400 1_555
Li3 O71 2.133058 1_555
Li4 O64 1.961371 1_555
Li4 O68 1.980313 1_555
Li4 O0 2.036677 1_565
Li4 O50 2.054624 1_565
Li5 O65 1.961371 1_555
Li5 O69 1.980313 1_555
Li5 O1 2.036677 1_545
Li5 O51 2.054624 1_545
Li6 O66 1.961371 1_455
Li6 O70 1.980313 1_555
Li6 O2 2.036677 1_455
Li6 O48 2.054624 1_555
Li7 O67 1.961371 1_655
Li7 O71 1.980313 1_555
Li7 O3 2.036677 1_655
Li7 O49 2.054624 1_555
Li8 O27 2.044666 1_555
Li8 O60 2.070726 1_555
Li8 O33 2.098339 1_555
Li8 O43 2.121916 1_555
Li8 O19 2.432575 1_555
Li9 O26 2.044666 1_555
Li9 O61 2.070726 1_555
Li9 O32 2.098339 1_555
Li9 O42 2.121916 1_555
Li9 O18 2.432575 1_555
Li10 O25 2.044666 1_556
Li10 O62 2.070726 1_555
Li10 O35 2.098339 1_555
Li10 O41 2.121916 1_556
Li10 O17 2.432575 1_556
Li11 O24 2.044666 1_554
Li11 O63 2.070726 1_555
Li11 O34 2.098339 1_555
Li11 O40 2.121916 1_554
Li11 O16 2.432575 1_554
Dy0 O10 2.435537 1_555
Dy0 O60 2.456606 1_545
Dy0 O0 2.465344 1_555
Dy0 O42 2.474751 1_555
Dy0 O48 2.478503 1_555
Dy0 O22 2.504043 1_555
Dy0 O33 2.508345 1_555
Dy0 O46 2.510450 1_555
Dy0 O56 2.520973 1_555
Dy0 O6 2.528096 1_555
Dy1 O11 2.435537 1_555
Dy1 O61 2.456606 1_565
Dy1 O1 2.465344 1_555
Dy1 O43 2.474751 1_555
Dy1 O49 2.478503 1_555
Dy1 O23 2.504043 1_555
Dy1 O32 2.508345 1_555
Dy1 O47 2.510450 1_555
Dy1 O57 2.520973 1_555
Dy1 O7 2.528096 1_555
Dy2 O8 2.435537 1_555
Dy2 O62 2.456606 1_555
Dy2 O2 2.465344 1_555
Dy2 O40 2.474751 1_655
Dy2 O50 2.478503 1_555
Dy2 O20 2.504043 1_655
Dy2 O35 2.508345 1_545
Dy2 O44 2.510450 1_655
Dy2 O58 2.520973 1_555
Dy2 O4 2.528096 1_555
Dy3 O9 2.435537 1_555
Dy3 O63 2.456606 1_555
Dy3 O3 2.465344 1_555
Dy3 O41 2.474751 1_455
Dy3 O51 2.478503 1_555
Dy3 O21 2.504043 1_455
Dy3 O34 2.508345 1_565
Dy3 O45 2.510450 1_455
Dy3 O59 2.520973 1_555
Dy3 O5 2.528096 1_555
N0 O30 1.238587 1_555
N0 O68 1.282556 1_555
N0 O66 1.286433 1_555
N1 O31 1.238587 1_555
N1 O69 1.282556 1_555
N1 O67 1.286433 1_555
N2 O28 1.238587 1_555
N2 O70 1.282556 1_555
N2 O64 1.286433 1_555
N3 O29 1.238587 1_555
N3 O71 1.282556 1_555
N3 O65 1.286433 1_555
N4 O12 1.219597 1_555
N4 O0 1.293441 1_555
N4 O48 1.296699 1_555
N5 O13 1.219597 1_555
N5 O1 1.293441 1_555
N5 O49 1.296699 1_555
N6 O14 1.219597 1_555
N6 O2 1.293441 1_555
N6 O50 1.296699 1_555
N7 O15 1.219597 1_555
N7 O3 1.293441 1_555
N7 O51 1.296699 1_555
N8 O24 1.247003 1_555
N8 O4 1.274930 1_555
N8 O8 1.283374 1_555
N9 O25 1.247003 1_555
N9 O5 1.274930 1_555
N9 O9 1.283374 1_555
N10 O26 1.247003 1_555
N10 O6 1.274930 1_655
N10 O10 1.283374 1_655
N11 O27 1.247003 1_555
N11 O7 1.274930 1_455
N11 O11 1.283374 1_455
N12 O16 1.232700 1_555
N12 O44 1.262625 1_555
N12 O40 1.316114 1_555
N13 O17 1.232700 1_555
N13 O45 1.262625 1_555
N13 O41 1.316114 1_555
N14 O18 1.232700 1_555
N14 O46 1.262625 1_555
N14 O42 1.316114 1_555
N15 O19 1.232700 1_555
N15 O47 1.262625 1_555
N15 O43 1.316114 1_555
N16 O36 1.239996 1_555
N16 O56 1.265702 1_565
N16 O60 1.294759 1_555
N17 O37 1.239996 1_555
N17 O57 1.265702 1_545
N17 O61 1.294759 1_555
N18 O38 1.239996 1_555
N18 O58 1.265702 1_555
N18 O62 1.294759 1_555
N19 O39 1.239996 1_555
N19 O59 1.265702 1_555
N19 O63 1.294759 1_555
N20 O54 1.240572 1_555
N20 O20 1.271623 1_565
N20 O35 1.292144 1_455
N21 O55 1.240572 1_555
N21 O21 1.271623 1_545
N21 O34 1.292144 1_655
N22 O52 1.240572 1_555
N22 O22 1.271623 1_555
N22 O33 1.292144 1_555
N23 O53 1.240572 1_555
N23 O23 1.271623 1_555
N23 O32 1.292144 1_555
