# generated using pymatgen
data_Ta10Al6B
_symmetry_space_group_name_H-M   'P 1'
_cell_length_a   7.84188781
_cell_length_b   7.84188781
_cell_length_c   5.29210600
_cell_angle_alpha   90.00000000
_cell_angle_beta   90.00000000
_cell_angle_gamma   119.99999838
_symmetry_Int_Tables_number   1
_chemical_formula_structural   Ta10Al6B
_chemical_formula_sum   'Ta10 Al6 B1'
_cell_volume   281.83856735
_cell_formula_units_Z   1
loop_
 _symmetry_equiv_pos_site_id
 _symmetry_equiv_pos_as_xyz
  1  'x, y, z'
loop_
 _atom_site_type_symbol
 _atom_site_label
 _atom_site_symmetry_multiplicity
 _atom_site_fract_x
 _atom_site_fract_y
 _atom_site_fract_z
 _atom_site_occupancy
  Ta  Ta0  1  0.33333300  0.66666700  0.50000000  1
  Ta  Ta1  1  0.66666700  0.33333300  0.50000000  1
  Ta  Ta2  1  0.66666700  0.33333300  0.00000000  1
  Ta  Ta3  1  0.33333300  0.66666700  0.00000000  1
  Ta  Ta4  1  0.00000000  0.76128400  0.24216500  1
  Ta  Ta5  1  0.23871600  0.23871600  0.24216500  1
  Ta  Ta6  1  0.76128400  0.00000000  0.24216500  1
  Ta  Ta7  1  0.00000000  0.23871600  0.75783500  1
  Ta  Ta8  1  0.76128400  0.76128400  0.75783500  1
  Ta  Ta9  1  0.23871600  0.00000000  0.75783500  1
  Al  Al0  1  0.00000000  0.40121100  0.25218100  1
  Al  Al1  1  0.59878900  0.59878900  0.25218100  1
  Al  Al2  1  0.40121100  0.00000000  0.25218100  1
  Al  Al3  1  0.00000000  0.59878900  0.74781900  1
  Al  Al4  1  0.40121100  0.40121100  0.74781900  1
  Al  Al5  1  0.59878900  0.00000000  0.74781900  1
  B  B0  1  0.00000000  0.00000000  0.50000000  1
loop_
_geom_bond_atom_site_label_1
_geom_bond_atom_site_label_2
_geom_bond_distance
_geom_bond_site_symmetry_2
Ta0 Ta3 2.646053 1_555
Ta0 Ta3 2.646053 1_556
Ta1 Ta2 2.646053 1_555
Ta1 Ta2 2.646053 1_556
Al0 Ta1 2.728502 1_455
Al0 Ta0 2.728504 1_555
Al0 Ta2 2.739673 1_455
Al0 Ta3 2.739675 1_555
Al0 Ta5 2.741587 1_555
Al0 Ta6 2.741587 1_455
Al0 Ta4 2.824150 1_555
Al0 Ta7 2.909966 1_554
Al0 Ta7 2.963882 1_555
Al1 Ta1 2.728509 1_555
Al1 Ta0 2.728509 1_555
Al1 Ta3 2.739679 1_555
Al1 Ta2 2.739679 1_555
Al1 Ta4 2.741587 1_655
Al1 Ta6 2.741587 1_565
Al1 Ta5 2.824150 1_555
Al1 Ta8 2.909966 1_554
Al1 Ta8 2.963882 1_555
Al2 Ta0 2.728502 1_545
Al2 Ta1 2.728504 1_555
Al2 Ta3 2.739673 1_545
Al2 Ta2 2.739675 1_555
Al2 Ta5 2.741587 1_555
Al2 Ta4 2.741587 1_545
Al2 Ta6 2.824150 1_555
Al2 Ta9 2.909966 1_554
Al2 Ta9 2.963882 1_555
Al3 Ta0 2.728502 1_555
Al3 Ta1 2.728504 1_455
Al3 Ta3 2.739673 1_556
Al3 Ta2 2.739675 1_456
Al3 Ta8 2.741587 1_455
Al3 Ta9 2.741587 1_565
Al3 Ta7 2.824150 1_555
Al3 Ta4 2.909966 1_556
Al3 Ta4 2.963882 1_555
Al4 Ta1 2.728509 1_555
Al4 Ta0 2.728509 1_555
Al4 Ta3 2.739679 1_556
Al4 Ta2 2.739679 1_556
Al4 Ta9 2.741587 1_555
Al4 Ta7 2.741587 1_555
Al4 Ta8 2.824150 1_555
Al4 Ta5 2.909966 1_556
Al4 Ta5 2.963882 1_555
Al5 Ta1 2.728502 1_555
Al5 Ta0 2.728504 1_545
Al5 Ta2 2.739673 1_556
Al5 Ta3 2.739675 1_546
Al5 Ta8 2.741587 1_545
Al5 Ta7 2.741587 1_655
Al5 Ta9 2.824150 1_555
Al5 Ta6 2.909966 1_556
Al5 Ta6 2.963882 1_555
B0 Ta7 2.316497 1_555
B0 Ta9 2.316497 1_555
B0 Ta6 2.316497 1_455
B0 Ta4 2.316497 1_545
B0 Ta5 2.316497 1_555
B0 Ta8 2.316497 1_445
