# generated using pymatgen
data_GaN
_symmetry_space_group_name_H-M   'P 1'
_cell_length_a   11.01424840
_cell_length_b   11.20846526
_cell_length_c   12.10135783
_cell_angle_alpha   86.73554445
_cell_angle_beta   90.65343293
_cell_angle_gamma   92.55445618
_symmetry_Int_Tables_number   1
_chemical_formula_structural   GaN
_chemical_formula_sum   'Ga50 N50'
_cell_volume   1489.98159929
_cell_formula_units_Z   50
loop_
 _symmetry_equiv_pos_site_id
 _symmetry_equiv_pos_as_xyz
  1  'x, y, z'
loop_
 _atom_site_type_symbol
 _atom_site_label
 _atom_site_symmetry_multiplicity
 _atom_site_fract_x
 _atom_site_fract_y
 _atom_site_fract_z
 _atom_site_occupancy
  Ga  Ga0  1  0.96015928  0.65638178  0.58829915  1
  Ga  Ga1  1  0.31482585  0.40267247  0.36695374  1
  Ga  Ga2  1  0.85070624  0.32586500  0.88886828  1
  Ga  Ga3  1  0.72307057  0.79411602  0.37300952  1
  Ga  Ga4  1  0.37847575  0.18238987  0.31393882  1
  Ga  Ga5  1  0.66669019  0.67568188  0.59471041  1
  Ga  Ga6  1  0.63619212  0.84821628  0.82343303  1
  Ga  Ga7  1  0.21201312  0.64948775  0.31975698  1
  Ga  Ga8  1  0.41860375  0.31790681  0.14856990  1
  Ga  Ga9  1  0.92368127  0.69863846  0.00434981  1
  Ga  Ga10  1  0.03006617  0.83783138  0.81388879  1
  Ga  Ga11  1  0.06316183  0.95350740  0.05236505  1
  Ga  Ga12  1  0.77966898  0.42195798  0.68929015  1
  Ga  Ga13  1  0.60673773  0.18698171  0.00868824  1
  Ga  Ga14  1  0.09744441  0.19486186  0.43933600  1
  Ga  Ga15  1  0.42665031  0.77103447  0.95422896  1
  Ga  Ga16  1  0.74277325  0.26424814  0.37493275  1
  Ga  Ga17  1  0.64892862  0.44787185  0.02672498  1
  Ga  Ga18  1  0.80071477  0.51921455  0.19049824  1
  Ga  Ga19  1  0.99042640  0.12609883  0.72785875  1
  Ga  Ga20  1  0.87310932  0.03666415  0.39811052  1
  Ga  Ga21  1  0.27428635  0.55588059  0.14439834  1
  Ga  Ga22  1  0.98341969  0.33994777  0.28805221  1
  Ga  Ga23  1  0.54937709  0.53913516  0.28271782  1
  Ga  Ga24  1  0.36529062  0.52997289  0.53168344  1
  Ga  Ga25  1  0.63711615  0.05643655  0.35215723  1
  Ga  Ga26  1  0.11725411  0.13956737  0.19448371  1
  Ga  Ga27  1  0.99023952  0.64641915  0.26333845  1
  Ga  Ga28  1  0.21680771  0.72779751  0.53148410  1
  Ga  Ga29  1  0.79462947  0.99706831  0.90367177  1
  Ga  Ga30  1  0.00869219  0.42424262  0.05135307  1
  Ga  Ga31  1  0.46825936  0.71313932  0.39029460  1
  Ga  Ga32  1  0.22051218  0.42717510  0.67571718  1
  Ga  Ga33  1  0.06347885  0.50708206  0.45475353  1
  Ga  Ga34  1  0.45624336  0.93233725  0.21231324  1
  Ga  Ga35  1  0.06685078  0.16605968  0.93219452  1
  Ga  Ga36  1  0.83352557  0.88696826  0.64463016  1
  Ga  Ga37  1  0.60241144  0.74087137  0.10913737  1
  Ga  Ga38  1  0.39356331  0.75552762  0.67284460  1
  Ga  Ga39  1  0.01104174  0.86994518  0.36043486  1
  Ga  Ga40  1  0.84395566  0.13382313  0.10206515  1
  Ga  Ga41  1  0.80758291  0.83899018  0.13447443  1
  Ga  Ga42  1  0.21833017  0.19153990  0.68821171  1
  Ga  Ga43  1  0.13204307  0.58519837  0.80088559  1
  Ga  Ga44  1  0.21752164  0.87655775  0.21566914  1
  Ga  Ga45  1  0.21000915  0.69126699  0.97064798  1
  Ga  Ga46  1  0.14806009  0.95380648  0.57428519  1
  Ga  Ga47  1  0.30260955  0.96469782  0.41946421  1
  Ga  Ga48  1  0.75154359  0.49378790  0.42374858  1
  Ga  Ga49  1  0.82064504  0.63874095  0.83656176  1
  N  N0  1  0.45546910  0.16791911  0.52895115  1
  N  N1  1  0.03599233  0.39650538  0.62379538  1
  N  N2  1  0.50859661  0.38372734  0.57731986  1
  N  N3  1  0.09394447  0.11610320  0.58459494  1
  N  N4  1  0.05517968  0.80362058  0.51804780  1
  N  N5  1  0.07198672  0.80273322  0.97195171  1
  N  N6  1  0.95375081  0.57546309  0.11679851  1
  N  N7  1  0.98635444  0.67470264  0.74915515  1
  N  N8  1  0.62931578  0.95023973  0.62944704  1
  N  N9  1  0.47799736  0.53555566  0.86911726  1
  N  N10  1  0.90468790  0.49309659  0.33507467  1
  N  N11  1  0.72750953  0.74373535  0.73209777  1
  N  N12  1  0.24502468  0.28382677  0.90891533  1
  N  N13  1  0.52378858  0.32449911  0.02621887  1
  N  N14  1  0.35881263  0.01417882  0.96030217  1
  N  N15  1  0.26198974  0.38418964  0.89736657  1
  N  N16  1  0.67651219  0.07337204  0.18755257  1
  N  N17  1  0.73658892  0.15803527  0.58790409  1
  N  N18  1  0.13259280  0.36553472  0.38743951  1
  N  N19  1  0.64204304  0.56986452  0.14040085  1
  N  N20  1  0.22836333  0.29837544  0.12082683  1
  N  N21  1  0.17833312  0.39678313  0.11805900  1
  N  N22  1  0.52394009  0.14783199  0.83263756  1
  N  N23  1  0.87522782  0.77866633  0.27973745  1
  N  N24  1  0.16832941  0.93949988  0.74266601  1
  N  N25  1  0.30457939  0.78547384  0.38927185  1
  N  N26  1  0.79411606  0.56080533  0.57342239  1
  N  N27  1  0.56319878  0.79864443  0.26521528  1
  N  N28  1  0.19867832  0.03309820  0.79063804  1
  N  N29  1  0.87935096  0.30738848  0.13970698  1
  N  N30  1  0.76213303  0.18286341  0.67441127  1
  N  N31  1  0.90973664  0.96770296  0.77806748  1
  N  N32  1  0.56021250  0.93094875  0.56184323  1
  N  N33  1  0.91609987  0.20526510  0.38560213  1
  N  N34  1  0.45794148  0.03182999  0.34525690  1
  N  N35  1  0.21252421  0.11064372  0.34088954  1
  N  N36  1  0.46915876  0.48873816  0.79045776  1
  N  N37  1  0.76976210  0.35217016  0.15988674  1
  N  N38  1  0.95042103  0.33221781  0.64735111  1
  N  N39  1  0.76576178  0.17118011  0.95012828  1
  N  N40  1  0.88374380  0.97495113  0.05303800  1
  N  N41  1  0.39487219  0.12093176  0.59422523  1
  N  N42  1  0.61071578  0.37348781  0.57684320  1
  N  N43  1  0.33827671  0.07931254  0.02346927  1
  N  N44  1  0.40079088  0.46542502  0.22144954  1
  N  N45  1  0.49216086  0.67010846  0.56113568  1
  N  N46  1  0.46906884  0.80688722  0.80444551  1
  N  N47  1  0.58169330  0.05676114  0.12467518  1
  N  N48  1  0.51496567  0.21918654  0.76537929  1
  N  N49  1  0.75631273  0.47322250  0.89756908  1
loop_
_geom_bond_atom_site_label_1
_geom_bond_atom_site_label_2
_geom_bond_distance
_geom_bond_site_symmetry_2
Ga0 N7 1.985448 1_555
Ga0 N4 2.061108 1_655
Ga0 N26 2.089138 1_555
Ga1 N18 2.046593 1_555
Ga1 N44 2.080684 1_555
Ga2 N49 1.998832 1_555
Ga2 N39 2.038567 1_555
Ga3 N23 2.050342 1_555
Ga3 N27 2.180109 1_555
Ga4 N34 1.951607 1_555
Ga4 N35 1.986636 1_555
Ga5 N45 1.959242 1_555
Ga5 N11 1.966773 1_555
Ga5 N26 1.975139 1_555
Ga6 N46 1.892661 1_555
Ga6 N11 1.970389 1_555
Ga6 N8 2.553831 1_555
Ga7 N25 2.014511 1_555
Ga8 N13 1.886506 1_555
Ga8 N44 1.936276 1_555
Ga8 N20 2.121930 1_555
Ga9 N6 1.919376 1_555
Ga9 N5 1.993956 1_654
Ga10 N5 1.984190 1_555
Ga10 N24 2.030748 1_555
Ga10 N31 2.037249 1_455
Ga10 N7 2.065101 1_455
Ga11 N40 2.001487 1_455
Ga11 N5 2.004097 1_554
Ga12 N26 2.036620 1_555
Ga12 N38 2.248309 1_555
Ga12 N42 2.355008 1_555
Ga13 N13 1.850050 1_555
Ga13 N39 1.916162 1_554
Ga13 N47 1.978928 1_555
Ga13 N22 2.364218 1_554
Ga14 N3 1.921591 1_555
Ga14 N18 2.001620 1_555
Ga14 N35 2.045997 1_555
Ga14 N33 2.099626 1_455
Ga15 N46 1.893370 1_555
Ga16 N33 2.048271 1_555
Ga17 N13 1.908633 1_555
Ga17 N49 1.970818 1_554
Ga17 N19 1.998402 1_555
Ga17 N37 2.323810 1_555
Ga18 N19 1.941438 1_555
Ga18 N37 1.943763 1_555
Ga18 N6 1.977271 1_555
Ga18 N10 2.093801 1_555
Ga19 N31 2.014894 1_545
Ga19 N3 2.096857 1_655
Ga19 N38 2.511038 1_555
Ga20 N33 1.925514 1_555
Ga21 N44 1.956374 1_555
Ga21 N21 2.070636 1_555
Ga22 N33 1.984798 1_555
Ga22 N18 2.044638 1_655
Ga22 N10 2.068227 1_555
Ga22 N29 2.158727 1_555
Ga23 N44 1.957600 1_555
Ga23 N19 2.016834 1_555
Ga24 N45 2.098468 1_555
Ga24 N2 2.364519 1_555
Ga25 N34 1.981915 1_555
Ga25 N16 2.039963 1_555
Ga26 N35 2.065829 1_555
Ga26 N20 2.260651 1_555
Ga27 N23 2.011932 1_555
Ga27 N6 2.013609 1_555
Ga27 N10 2.073451 1_555
Ga28 N4 2.007579 1_555
Ga28 N25 2.041994 1_555
Ga29 N31 2.040630 1_555
Ga29 N40 2.054804 1_556
Ga29 N39 2.099986 1_565
Ga30 N6 2.030151 1_455
Ga30 N21 2.055744 1_555
Ga30 N29 2.144076 1_455
Ga31 N25 2.009042 1_555
Ga31 N27 2.021036 1_555
Ga31 N45 2.112214 1_555
Ga32 N1 2.139298 1_555
Ga33 N18 2.007262 1_555
Ga33 N10 2.263756 1_455
Ga33 N1 2.346126 1_555
Ga34 N34 2.008469 1_565
Ga34 N27 2.018409 1_555
Ga34 N47 2.161496 1_565
Ga35 N12 2.326435 1_555
Ga36 N31 2.049087 1_555
Ga36 N11 2.174581 1_555
Ga36 N8 2.390311 1_555
Ga37 N19 1.998933 1_555
Ga37 N27 2.087122 1_555
Ga38 N46 1.894927 1_555
Ga38 N45 2.048660 1_555
Ga39 N23 2.045019 1_455
Ga39 N4 2.067962 1_555
Ga40 N40 1.977573 1_545
Ga40 N29 2.042875 1_555
Ga40 N39 2.050859 1_554
Ga40 N16 2.186989 1_555
Ga41 N40 1.931593 1_555
Ga41 N23 1.995515 1_555
Ga42 N3 2.035300 1_555
Ga42 N28 2.111432 1_555
Ga42 N41 2.447662 1_555
Ga43 N7 2.005560 1_455
Ga44 N25 2.484397 1_555
Ga45 N5 2.011045 1_555
Ga46 N3 1.950420 1_565
Ga46 N24 2.045268 1_555
Ga46 N4 2.074719 1_555
Ga47 N34 2.035434 1_565
Ga47 N25 2.063250 1_555
Ga47 N35 2.123815 1_565
Ga48 N10 2.010009 1_555
Ga48 N26 2.041801 1_555
Ga49 N11 1.985928 1_555
Ga49 N49 2.056133 1_555
Ga49 N7 2.131292 1_555
N0 N41 1.131412 1_555
N1 N38 1.187848 1_455
N2 N42 1.135797 1_555
N12 N15 1.133063 1_555
N14 N43 1.118334 1_556
N16 N47 1.298075 1_555
N17 N30 1.127824 1_555
N20 N21 1.253367 1_555
N22 N48 1.114875 1_555
N24 N28 1.258182 1_565
N29 N37 1.357646 1_555
N32 N8 1.134291 1_555
N36 N9 1.114070 1_555
