# generated using pymatgen
data_ZrNb(SiRu)2
_symmetry_space_group_name_H-M   'P 1'
_cell_length_a   3.75457400
_cell_length_b   6.61386700
_cell_length_c   11.30133139
_cell_angle_alpha   89.61783878
_cell_angle_beta   90.00000000
_cell_angle_gamma   90.00000000
_symmetry_Int_Tables_number   1
_chemical_formula_structural   ZrNb(SiRu)2
_chemical_formula_sum   'Zr3 Nb3 Si6 Ru6'
_cell_volume   280.63127861
_cell_formula_units_Z   3
loop_
 _symmetry_equiv_pos_site_id
 _symmetry_equiv_pos_as_xyz
  1  'x, y, z'
loop_
 _atom_site_type_symbol
 _atom_site_label
 _atom_site_symmetry_multiplicity
 _atom_site_fract_x
 _atom_site_fract_y
 _atom_site_fract_z
 _atom_site_occupancy
  Zr  Zr0  1  0.50000000  0.28969100  0.29126800  1
  Zr  Zr1  1  0.50000000  0.29086800  0.70916700  1
  Zr  Zr2  1  0.50000000  0.78991500  0.20860000  1
  Nb  Nb0  1  0.50000000  0.42092600  0.99946600  1
  Nb  Nb1  1  0.50000000  0.91735900  0.50092800  1
  Nb  Nb2  1  0.50000000  0.79084500  0.79158600  1
  Si  Si0  1  0.00000000  0.99260900  0.66647400  1
  Si  Si1  1  0.00000000  0.49841700  0.16258600  1
  Si  Si2  1  0.00000000  0.50341900  0.83566900  1
  Si  Si3  1  0.00000000  0.99756500  0.33735500  1
  Si  Si4  1  0.50000000  0.00416200  0.99674200  1
  Si  Si5  1  0.50000000  0.50654200  0.50009000  1
  Ru  Ru0  1  0.00000000  0.75448500  0.99818700  1
  Ru  Ru1  1  0.00000000  0.25409100  0.50130800  1
  Ru  Ru2  1  0.00000000  0.62301000  0.62305500  1
  Ru  Ru3  1  0.00000000  0.12253600  0.12178400  1
  Ru  Ru4  1  0.00000000  0.12155200  0.87723100  1
  Ru  Ru5  1  0.00000000  0.62220600  0.37850500  1
loop_
_geom_bond_atom_site_label_1
_geom_bond_atom_site_label_2
_geom_bond_distance
_geom_bond_site_symmetry_2
Nb0 Si1 2.682886 1_656
Nb0 Si1 2.682886 1_556
Nb0 Si2 2.689809 1_655
Nb0 Si2 2.689809 1_555
Nb0 Si4 2.756799 1_555
Nb0 Ru0 2.896711 1_655
Nb0 Ru0 2.896711 1_555
Nb0 Ru3 3.048520 1_556
Nb0 Ru3 3.048520 1_656
Nb0 Ru4 3.064227 1_555
Nb0 Ru4 3.064227 1_655
Nb1 Si3 2.685111 1_555
Nb1 Si3 2.685111 1_655
Nb1 Si0 2.698992 1_555
Nb1 Si0 2.698992 1_655
Nb1 Si5 2.717169 1_555
Nb1 Ru1 2.912787 1_665
Nb1 Ru1 2.912787 1_565
Nb1 Ru2 3.030393 1_655
Nb1 Ru2 3.030393 1_555
Nb1 Ru5 3.047151 1_655
Nb1 Ru5 3.047151 1_555
Nb2 Si0 2.697957 1_555
Nb2 Si0 2.697957 1_655
Nb2 Si2 2.715431 1_555
Nb2 Si2 2.715431 1_655
Nb2 Si4 2.722084 1_565
Nb2 Ru2 2.900378 1_555
Nb2 Ru2 2.900378 1_655
Nb2 Ru0 3.004355 1_655
Nb2 Ru0 3.004355 1_555
Nb2 Ru4 3.045218 1_565
Nb2 Ru4 3.045218 1_665
Si0 Zr1 2.767856 1_465
Si0 Zr1 2.767856 1_565
Si1 Zr0 2.741914 1_555
Si1 Zr0 2.741914 1_455
Si1 Zr2 2.743157 1_555
Si1 Zr2 2.743157 1_455
Si2 Zr1 2.751567 1_555
Si2 Zr1 2.751567 1_455
Si3 Zr0 2.741351 1_565
Si3 Zr0 2.741351 1_465
Si3 Zr2 2.748515 1_455
Si3 Zr2 2.748515 1_555
Si4 Zr2 2.774022 1_546
Si5 Zr1 2.751876 1_555
Si5 Zr0 2.769764 1_555
Ru0 Si2 2.484222 1_555
Ru0 Si4 2.500201 1_565
Ru0 Si4 2.500201 1_465
Ru0 Si1 2.505634 1_556
Ru0 Ru4 2.778166 1_565
Ru0 Ru3 2.814598 1_566
Ru0 Zr2 3.039931 1_456
Ru0 Zr2 3.039931 1_556
Ru1 Si5 2.512352 1_455
Ru1 Si5 2.512352 1_555
Ru1 Si3 2.520650 1_545
Ru1 Si0 2.536132 1_545
Ru1 Ru5 2.794388 1_555
Ru1 Ru2 2.809164 1_555
Ru1 Zr1 3.018143 1_555
Ru1 Zr1 3.018143 1_455
Ru1 Zr0 3.034269 1_455
Ru1 Zr0 3.034269 1_555
Ru2 Si5 2.462323 1_555
Ru2 Si5 2.462323 1_455
Ru2 Si0 2.496449 1_555
Ru2 Si2 2.524641 1_555
Ru2 Ru5 2.763781 1_555
Ru2 Zr1 3.044413 1_555
Ru2 Zr1 3.044413 1_455
Ru3 Si4 2.479694 1_554
Ru3 Si4 2.479694 1_454
Ru3 Si1 2.531452 1_555
Ru3 Si3 2.567406 1_545
Ru3 Ru4 2.763826 1_554
Ru3 Zr0 2.905755 1_455
Ru3 Zr0 2.905755 1_555
Ru3 Zr2 3.049205 1_445
Ru3 Zr2 3.049205 1_545
Ru4 Si4 2.436643 1_455
Ru4 Si4 2.436643 1_555
Ru4 Si0 2.535256 1_545
Ru4 Si2 2.565842 1_555
Ru4 Zr1 2.890913 1_555
Ru4 Zr1 2.890913 1_455
Ru5 Si5 2.446112 1_455
Ru5 Si5 2.446112 1_555
Ru5 Si3 2.522706 1_555
Ru5 Si1 2.579031 1_555
Ru5 Zr2 2.900537 1_555
Ru5 Zr2 2.900537 1_455
Ru5 Zr0 3.059680 1_455
Ru5 Zr0 3.059680 1_555
