# generated using pymatgen
data_LaH16N7O19
_symmetry_space_group_name_H-M   'P 1'
_cell_length_a   7.19304555
_cell_length_b   7.19304555
_cell_length_c   18.43726636
_cell_angle_alpha   80.59448572
_cell_angle_beta   80.59448572
_cell_angle_gamma   77.06211723
_symmetry_Int_Tables_number   1
_chemical_formula_structural   LaH16N7O19
_chemical_formula_sum   'La2 H32 N14 O38'
_cell_volume   909.21133562
_cell_formula_units_Z   2
loop_
 _symmetry_equiv_pos_site_id
 _symmetry_equiv_pos_as_xyz
  1  'x, y, z'
loop_
 _atom_site_type_symbol
 _atom_site_label
 _atom_site_symmetry_multiplicity
 _atom_site_fract_x
 _atom_site_fract_y
 _atom_site_fract_z
 _atom_site_occupancy
  La  La0  1  0.98682900  0.87143300  0.42526200  1
  La  La1  1  0.87143300  0.98682900  0.92526200  1
  H  H0  1  0.35860400  0.07188600  0.39601800  1
  H  H1  1  0.07188600  0.35860400  0.89601800  1
  H  H2  1  0.18909600  0.24622600  0.38087400  1
  H  H3  1  0.24622600  0.18909600  0.88087400  1
  H  H4  1  0.76795200  0.51486500  0.45165400  1
  H  H5  1  0.51486500  0.76795200  0.95165400  1
  H  H6  1  0.60565300  0.69352700  0.47071000  1
  H  H7  1  0.69352700  0.60565300  0.97071000  1
  H  H8  1  0.83219700  0.38421600  0.26338600  1
  H  H9  1  0.38421600  0.83219700  0.76338600  1
  H  H10  1  0.84312700  0.60317400  0.25979400  1
  H  H11  1  0.60317400  0.84312700  0.75979400  1
  H  H12  1  0.46992400  0.15798100  0.20824800  1
  H  H13  1  0.15798100  0.46992400  0.70824800  1
  H  H14  1  0.31074000  0.08993300  0.26972900  1
  H  H15  1  0.08993300  0.31074000  0.76972900  1
  H  H16  1  0.86615800  0.47704000  0.68200600  1
  H  H17  1  0.47704000  0.86615800  0.18200600  1
  H  H18  1  0.64144100  0.62406300  0.68840600  1
  H  H19  1  0.62406300  0.64144100  0.18840600  1
  H  H20  1  0.68991400  0.42290800  0.64511100  1
  H  H21  1  0.42290800  0.68991400  0.14511100  1
  H  H22  1  0.78241100  0.61340800  0.60541300  1
  H  H23  1  0.61340800  0.78241100  0.10541300  1
  H  H24  1  0.42866000  0.00778900  0.63349700  1
  H  H25  1  0.00778900  0.42866000  0.13349700  1
  H  H26  1  0.22198400  0.06463500  0.59206100  1
  H  H27  1  0.06463500  0.22198400  0.09206100  1
  H  H28  1  0.24261600  0.18693000  0.66085300  1
  H  H29  1  0.18693000  0.24261600  0.16085300  1
  H  H30  1  0.37321600  0.21748100  0.57733200  1
  H  H31  1  0.21748100  0.37321600  0.07733200  1
  N  N0  1  0.74444900  0.53479500  0.65526200  1
  N  N1  1  0.53479500  0.74444900  0.15526200  1
  N  N2  1  0.31847300  0.11642400  0.61582200  1
  N  N3  1  0.11642400  0.31847300  0.11582200  1
  N  N4  1  0.24846000  0.57982400  0.32574300  1
  N  N5  1  0.57982400  0.24846000  0.82574300  1
  N  N6  1  0.26720700  0.63434200  0.53614300  1
  N  N7  1  0.63434200  0.26720700  0.03614300  1
  N  N8  1  0.85016100  0.03737600  0.57870300  1
  N  N9  1  0.03737600  0.85016100  0.07870200  1
  N  N10  1  0.62866800  0.21500200  0.43052200  1
  N  N11  1  0.21500200  0.62866800  0.93052200  1
  N  N12  1  0.85260800  0.98098700  0.26616800  1
  N  N13  1  0.98098700  0.85260800  0.76616800  1
  O  O0  1  0.23055100  0.10588900  0.37896400  1
  O  O1  1  0.10588900  0.23055100  0.87896400  1
  O  O2  1  0.74634600  0.64504700  0.46568300  1
  O  O3  1  0.64504700  0.74634600  0.96568300  1
  O  O4  1  0.26125200  0.75577900  0.32178800  1
  O  O5  1  0.75577900  0.26125200  0.82178800  1
  O  O6  1  0.12699900  0.51835700  0.37871800  1
  O  O7  1  0.51835700  0.12699900  0.87871800  1
  O  O8  1  0.34664100  0.47417500  0.28102300  1
  O  O9  1  0.47417500  0.34664100  0.78102300  1
  O  O10  1  0.33136700  0.75203600  0.48289500  1
  O  O11  1  0.75203600  0.33136700  0.98289500  1
  O  O12  1  0.09528500  0.61247200  0.53716200  1
  O  O13  1  0.61247200  0.09528500  0.03716200  1
  O  O14  1  0.36840100  0.54567900  0.58440800  1
  O  O15  1  0.54567900  0.36840100  0.08440800  1
  O  O16  1  0.02220600  0.03206100  0.54552400  1
  O  O17  1  0.03206100  0.02220600  0.04552400  1
  O  O18  1  0.74881300  0.94155000  0.55440700  1
  O  O19  1  0.94155000  0.74881300  0.05440700  1
  O  O20  1  0.78462500  0.13237700  0.63102100  1
  O  O21  1  0.13237700  0.78462500  0.13102100  1
  O  O22  1  0.79690300  0.24527400  0.43224500  1
  O  O23  1  0.24527400  0.79690300  0.93224500  1
  O  O24  1  0.61983900  0.05254100  0.41226600  1
  O  O25  1  0.05254100  0.61983900  0.91226600  1
  O  O26  1  0.48107300  0.33533100  0.44665400  1
  O  O27  1  0.33533100  0.48107300  0.94665400  1
  O  O28  1  0.92542900  0.09621800  0.29377300  1
  O  O29  1  0.09621800  0.92542900  0.79377300  1
  O  O30  1  0.85440200  0.81342300  0.30331300  1
  O  O31  1  0.81342300  0.85440200  0.80331300  1
  O  O32  1  0.78239300  0.03003000  0.20705500  1
  O  O33  1  0.03003000  0.78239300  0.70705500  1
  O  O34  1  0.82268700  0.50726800  0.23082100  1
  O  O35  1  0.50726800  0.82268700  0.73082100  1
  O  O36  1  0.35829600  0.09703000  0.21617400  1
  O  O37  1  0.09703000  0.35829600  0.71617400  1
loop_
_geom_bond_atom_site_label_1
_geom_bond_atom_site_label_2
_geom_bond_distance
_geom_bond_site_symmetry_2
La0 O2 2.577340 1_555
La0 O4 2.603973 1_655
La0 O12 2.637064 1_655
La0 O0 2.647720 1_665
La0 O24 2.699578 1_565
La0 O30 2.705814 1_555
La0 O28 2.726834 1_565
La0 O16 2.733047 1_665
La0 O6 2.736041 1_655
La0 O22 2.743101 1_565
La0 O18 2.743816 1_555
La0 O10 2.760056 1_655
La1 O3 2.577340 1_555
La1 O5 2.603973 1_565
La1 O13 2.637064 1_566
La1 O1 2.647720 1_665
La1 O25 2.699578 1_655
La1 O31 2.705814 1_555
La1 O29 2.726834 1_655
La1 O17 2.733047 1_666
La1 O7 2.736041 1_565
La1 O23 2.743101 1_655
La1 O19 2.743816 1_556
La1 O11 2.760056 1_565
H0 O0 0.987795 1_555
H1 O1 0.987795 1_555
H2 O0 0.991234 1_555
H3 O1 0.991234 1_555
H4 O2 0.984261 1_555
H5 O3 0.984261 1_555
H6 O2 0.988049 1_555
H7 O3 0.988049 1_555
H8 O34 0.980420 1_555
H9 O35 0.980420 1_555
H10 O34 0.987118 1_555
H11 O35 0.987118 1_555
H12 O36 0.978077 1_555
H13 O37 0.978077 1_555
H14 O36 0.987696 1_555
H15 O37 0.987696 1_555
H16 N0 1.045670 1_555
H17 N1 1.045670 1_555
H18 N0 1.049733 1_555
H19 N1 1.049733 1_555
H20 N0 1.025289 1_555
H21 N1 1.025289 1_555
H22 N0 1.027753 1_555
H23 N1 1.027753 1_555
H24 N2 1.033852 1_555
H25 N3 1.033852 1_555
H26 N2 1.039659 1_555
H27 N3 1.039659 1_555
H28 N2 1.053510 1_555
H29 N3 1.053510 1_555
H30 N2 1.027274 1_555
H31 N3 1.027274 1_555
N4 O8 1.237026 1_555
N4 O4 1.278847 1_555
N4 O6 1.290615 1_555
N5 O9 1.237026 1_555
N5 O5 1.278847 1_555
N5 O7 1.290615 1_555
N6 O14 1.243697 1_555
N6 O12 1.277865 1_555
N6 O10 1.284029 1_555
N7 O15 1.243697 1_555
N7 O13 1.277865 1_555
N7 O11 1.284029 1_554
N8 O20 1.241858 1_555
N8 O18 1.280574 1_545
N8 O16 1.283035 1_655
N9 O21 1.241873 1_555
N9 O19 1.280564 1_455
N9 O17 1.283029 1_565
N10 O26 1.238624 1_555
N10 O22 1.282824 1_555
N10 O24 1.285187 1_555
N11 O27 1.238624 1_555
N11 O23 1.282824 1_555
N11 O25 1.285187 1_555
N12 O32 1.241709 1_565
N12 O28 1.280567 1_565
N12 O30 1.283767 1_555
N13 O33 1.241709 1_655
N13 O29 1.280567 1_655
N13 O31 1.283767 1_555
