# generated using pymatgen
data_BeClO
_symmetry_space_group_name_H-M   'P 1'
_cell_length_a   27.54977950
_cell_length_b   27.54977950
_cell_length_c   27.54977807
_cell_angle_alpha   11.29293729
_cell_angle_beta   11.29293729
_cell_angle_gamma   11.29293909
_symmetry_Int_Tables_number   1
_chemical_formula_structural   BeClO
_chemical_formula_sum   'Be16 Cl16 O16'
_cell_volume   696.66842605
_cell_formula_units_Z   16
loop_
 _symmetry_equiv_pos_site_id
 _symmetry_equiv_pos_as_xyz
  1  'x, y, z'
loop_
 _atom_site_type_symbol
 _atom_site_label
 _atom_site_symmetry_multiplicity
 _atom_site_fract_x
 _atom_site_fract_y
 _atom_site_fract_z
 _atom_site_occupancy
  Be  Be0_0  1  0.09917050  0.09917050  0.09917050  1
  Be  Be0_1  1  0.09917050  0.09917050  0.59917050  1
  Be  Be0_2  1  0.09917050  0.59917050  0.09917050  1
  Be  Be0_3  1  0.09917050  0.59917050  0.59917050  1
  Be  Be0_4  1  0.59917050  0.09917050  0.09917050  1
  Be  Be0_5  1  0.59917050  0.09917050  0.59917050  1
  Be  Be0_6  1  0.59917050  0.59917050  0.09917050  1
  Be  Be0_7  1  0.59917050  0.59917050  0.59917050  1
  Be  Be1_0  1  0.40082950  0.40082950  0.40082950  1
  Be  Be1_1  1  0.40082950  0.40082950  0.90082950  1
  Be  Be1_2  1  0.40082950  0.90082950  0.40082950  1
  Be  Be1_3  1  0.40082950  0.90082950  0.90082950  1
  Be  Be1_4  1  0.90082950  0.40082950  0.40082950  1
  Be  Be1_5  1  0.90082950  0.40082950  0.90082950  1
  Be  Be1_6  1  0.90082950  0.90082950  0.40082950  1
  Be  Be1_7  1  0.90082950  0.90082950  0.90082950  1
  Cl  Cl0_0  1  0.18973900  0.18973900  0.18973900  1
  Cl  Cl0_1  1  0.18973900  0.18973900  0.68973900  1
  Cl  Cl0_2  1  0.18973900  0.68973900  0.18973900  1
  Cl  Cl0_3  1  0.18973900  0.68973900  0.68973900  1
  Cl  Cl0_4  1  0.68973900  0.18973900  0.18973900  1
  Cl  Cl0_5  1  0.68973900  0.18973900  0.68973900  1
  Cl  Cl0_6  1  0.68973900  0.68973900  0.18973900  1
  Cl  Cl0_7  1  0.68973900  0.68973900  0.68973900  1
  Cl  Cl1_0  1  0.31026100  0.31026100  0.31026100  1
  Cl  Cl1_1  1  0.31026100  0.31026100  0.81026100  1
  Cl  Cl1_2  1  0.31026100  0.81026100  0.31026100  1
  Cl  Cl1_3  1  0.31026100  0.81026100  0.81026100  1
  Cl  Cl1_4  1  0.81026100  0.31026100  0.31026100  1
  Cl  Cl1_5  1  0.81026100  0.31026100  0.81026100  1
  Cl  Cl1_6  1  0.81026100  0.81026100  0.31026100  1
  Cl  Cl1_7  1  0.81026100  0.81026100  0.81026100  1
  O  O0_0  1  0.06734550  0.06734550  0.06734550  1
  O  O0_1  1  0.06734550  0.06734550  0.56734550  1
  O  O0_2  1  0.06734550  0.56734550  0.06734550  1
  O  O0_3  1  0.06734550  0.56734550  0.56734550  1
  O  O0_4  1  0.56734550  0.06734550  0.06734550  1
  O  O0_5  1  0.56734550  0.06734550  0.56734550  1
  O  O0_6  1  0.56734550  0.56734550  0.06734550  1
  O  O0_7  1  0.56734550  0.56734550  0.56734550  1
  O  O1_0  1  0.43265450  0.43265450  0.43265450  1
  O  O1_1  1  0.43265450  0.43265450  0.93265450  1
  O  O1_2  1  0.43265450  0.93265450  0.43265450  1
  O  O1_3  1  0.43265450  0.93265450  0.93265450  1
  O  O1_4  1  0.93265450  0.43265450  0.43265450  1
  O  O1_5  1  0.93265450  0.43265450  0.93265450  1
  O  O1_6  1  0.93265450  0.93265450  0.43265450  1
  O  O1_7  1  0.93265450  0.93265450  0.93265450  1
loop_
_geom_bond_atom_site_label_1
_geom_bond_atom_site_label_2
_geom_bond_distance
_geom_bond_site_symmetry_2
Be0_0 O1_6 1.565028 1_445
Be0_0 O1_5 1.565028 1_454
Be0_0 O1_3 1.565028 1_544
Be0_1 O1_7 1.565028 1_445
Be0_1 O1_4 1.565028 1_455
Be0_1 O1_2 1.565028 1_545
Be0_2 O1_4 1.565028 1_455
Be0_2 O1_7 1.565028 1_454
Be0_2 O1_1 1.565028 1_554
Be0_3 O1_5 1.565028 1_455
Be0_3 O1_0 1.565028 1_555
Be0_3 O1_6 1.565028 1_455
Be0_4 O1_2 1.565028 1_545
Be0_4 O1_1 1.565028 1_554
Be0_4 O1_7 1.565028 1_544
Be0_5 O1_3 1.565028 1_545
Be0_5 O1_0 1.565028 1_555
Be0_5 O1_6 1.565028 1_545
Be0_6 O1_0 1.565028 1_555
Be0_6 O1_5 1.565028 1_554
Be0_6 O1_3 1.565028 1_554
Be0_7 O1_1 1.565028 1_555
Be0_7 O1_4 1.565028 1_555
Be0_7 O1_2 1.565028 1_555
Be1_0 O0_6 1.565028 1_555
Be1_0 O0_5 1.565028 1_555
Be1_0 O0_3 1.565028 1_555
Be1_1 O0_7 1.565028 1_555
Be1_1 O0_2 1.565028 1_556
Be1_1 O0_4 1.565028 1_556
Be1_2 O0_4 1.565028 1_565
Be1_2 O0_1 1.565028 1_565
Be1_2 O0_7 1.565028 1_555
Be1_3 O0_5 1.565028 1_565
Be1_3 O0_6 1.565028 1_556
Be1_3 O0_0 1.565028 1_566
Be1_4 O0_2 1.565028 1_655
Be1_4 O0_7 1.565028 1_555
Be1_4 O0_1 1.565028 1_655
Be1_5 O0_3 1.565028 1_655
Be1_5 O0_0 1.565028 1_656
Be1_5 O0_6 1.565028 1_556
Be1_6 O0_0 1.565028 1_665
Be1_6 O0_5 1.565028 1_565
Be1_6 O0_3 1.565028 1_655
Be1_7 O0_1 1.565028 1_665
Be1_7 O0_2 1.565028 1_656
Be1_7 O0_4 1.565028 1_566
Cl0_0 Cl0_5 2.710623 1_554
Cl0_0 Cl0_3 2.710623 1_554
Cl0_0 Cl0_3 2.710623 1_545
Cl0_0 Cl0_5 2.710623 1_455
Cl0_0 Cl0_6 2.710624 1_455
Cl0_0 Cl0_6 2.710624 1_545
Cl0_1 Cl0_4 2.710623 1_456
Cl0_1 Cl0_2 2.710623 1_546
Cl0_1 Cl0_4 2.710623 1_555
Cl0_1 Cl0_2 2.710623 1_555
Cl0_1 Cl0_7 2.710624 1_455
Cl0_1 Cl0_7 2.710624 1_545
Cl0_2 Cl0_7 2.710623 1_455
Cl0_2 Cl0_7 2.710623 1_554
Cl0_2 Cl0_4 2.710624 1_465
Cl0_2 Cl0_4 2.710624 1_555
Cl0_3 Cl0_6 2.710623 1_456
Cl0_3 Cl0_6 2.710623 1_555
Cl0_3 Cl0_5 2.710624 1_555
Cl0_3 Cl0_5 2.710624 1_465
Cl0_4 Cl0_7 2.710623 1_554
Cl0_4 Cl0_7 2.710623 1_545
Cl0_5 Cl0_6 2.710623 1_546
Cl0_5 Cl0_6 2.710623 1_555
Cl1_0 Cl1_5 2.710623 1_455
Cl1_0 Cl1_3 2.710623 1_554
Cl1_0 Cl1_3 2.710623 1_545
Cl1_0 Cl1_5 2.710623 1_554
Cl1_0 Cl1_6 2.710624 1_455
Cl1_0 Cl1_6 2.710624 1_545
Cl1_1 Cl1_2 2.710623 1_555
Cl1_1 Cl1_4 2.710623 1_456
Cl1_1 Cl1_4 2.710623 1_555
Cl1_1 Cl1_2 2.710623 1_546
Cl1_1 Cl1_7 2.710624 1_455
Cl1_1 Cl1_7 2.710624 1_545
Cl1_2 Cl1_7 2.710623 1_455
Cl1_2 Cl1_7 2.710623 1_554
Cl1_2 Cl1_4 2.710624 1_555
Cl1_2 Cl1_4 2.710624 1_465
Cl1_3 Cl1_6 2.710623 1_555
Cl1_3 Cl1_6 2.710623 1_456
Cl1_3 Cl1_5 2.710624 1_465
Cl1_3 Cl1_5 2.710624 1_555
Cl1_4 Cl1_7 2.710623 1_554
Cl1_4 Cl1_7 2.710623 1_545
Cl1_5 Cl1_6 2.710623 1_555
Cl1_5 Cl1_6 2.710623 1_546
