# generated using pymatgen
data_K2Yb2(PO4)3
_symmetry_space_group_name_H-M   'P 1'
_cell_length_a   10.83116500
_cell_length_b   10.83116500
_cell_length_c   10.83116500
_cell_angle_alpha   90.00000000
_cell_angle_beta   90.00000000
_cell_angle_gamma   90.00000000
_symmetry_Int_Tables_number   1
_chemical_formula_structural   K2Yb2(PO4)3
_chemical_formula_sum   'K8 Yb8 P12 O48'
_cell_volume   1270.64875580
_cell_formula_units_Z   4
loop_
 _symmetry_equiv_pos_site_id
 _symmetry_equiv_pos_as_xyz
  1  'x, y, z'
loop_
 _atom_site_type_symbol
 _atom_site_label
 _atom_site_symmetry_multiplicity
 _atom_site_fract_x
 _atom_site_fract_y
 _atom_site_fract_z
 _atom_site_occupancy
  K  K0  1  0.05027600  0.05027600  0.05027600  1
  K  K1  1  0.44972400  0.94972400  0.55027600  1
  K  K2  1  0.94972400  0.55027600  0.44972400  1
  K  K3  1  0.55027600  0.44972400  0.94972400  1
  K  K4  1  0.81855300  0.81855300  0.81855300  1
  K  K5  1  0.68144700  0.18144700  0.31855300  1
  K  K6  1  0.18144700  0.31855300  0.68144700  1
  K  K7  1  0.31855300  0.68144700  0.18144700  1
  Yb  Yb0  1  0.33191100  0.33191100  0.33191100  1
  Yb  Yb1  1  0.16808900  0.66808900  0.83191100  1
  Yb  Yb2  1  0.66808900  0.83191100  0.16808900  1
  Yb  Yb3  1  0.83191100  0.16808900  0.66808900  1
  Yb  Yb4  1  0.60174700  0.60174700  0.60174700  1
  Yb  Yb5  1  0.89825300  0.39825300  0.10174700  1
  Yb  Yb6  1  0.39825300  0.10174700  0.89825300  1
  Yb  Yb7  1  0.10174700  0.89825300  0.39825300  1
  P  P0  1  0.01420100  0.21225500  0.37382500  1
  P  P1  1  0.48579900  0.78774500  0.87382500  1
  P  P2  1  0.98579900  0.71225500  0.12617500  1
  P  P3  1  0.37382500  0.01420100  0.21225500  1
  P  P4  1  0.51420100  0.28774500  0.62617500  1
  P  P5  1  0.87382500  0.48579900  0.78774500  1
  P  P6  1  0.12617500  0.98579900  0.71225500  1
  P  P7  1  0.62617500  0.51420100  0.28774500  1
  P  P8  1  0.21225500  0.37382500  0.01420100  1
  P  P9  1  0.71225500  0.12617500  0.98579900  1
  P  P10  1  0.28774500  0.62617500  0.51420100  1
  P  P11  1  0.78774500  0.87382500  0.48579900  1
  O  O0  1  0.01800600  0.07775400  0.32758600  1
  O  O1  1  0.48199400  0.92224600  0.82758600  1
  O  O2  1  0.98199400  0.57775400  0.17241400  1
  O  O3  1  0.32758600  0.01800600  0.07775400  1
  O  O4  1  0.51800600  0.42224600  0.67241400  1
  O  O5  1  0.82758600  0.48199400  0.92224600  1
  O  O6  1  0.17241400  0.98199400  0.57775400  1
  O  O7  1  0.67241400  0.51800600  0.42224600  1
  O  O8  1  0.07775400  0.32758600  0.01800600  1
  O  O9  1  0.57775400  0.17241400  0.98199400  1
  O  O10  1  0.42224600  0.67241400  0.51800600  1
  O  O11  1  0.92224600  0.82758600  0.48199400  1
  O  O12  1  0.04658300  0.79435400  0.22597000  1
  O  O13  1  0.45341700  0.20564600  0.72597000  1
  O  O14  1  0.95341700  0.29435400  0.27403000  1
  O  O15  1  0.22597000  0.04658300  0.79435400  1
  O  O16  1  0.54658300  0.70564600  0.77403000  1
  O  O17  1  0.72597000  0.45341700  0.20564600  1
  O  O18  1  0.27403000  0.95341700  0.29435400  1
  O  O19  1  0.77403000  0.54658300  0.70564600  1
  O  O20  1  0.79435400  0.22597000  0.04658300  1
  O  O21  1  0.29435400  0.27403000  0.95341700  1
  O  O22  1  0.70564600  0.77403000  0.54658300  1
  O  O23  1  0.20564600  0.72597000  0.45341700  1
  O  O24  1  0.27458400  0.51024600  0.43173300  1
  O  O25  1  0.22541600  0.48975400  0.93173300  1
  O  O26  1  0.72541600  0.01024600  0.06826700  1
  O  O27  1  0.43173300  0.27458400  0.51024600  1
  O  O28  1  0.77458400  0.98975400  0.56826700  1
  O  O29  1  0.93173300  0.22541600  0.48975400  1
  O  O30  1  0.06826700  0.72541600  0.01024600  1
  O  O31  1  0.56826700  0.77458400  0.98975400  1
  O  O32  1  0.51024600  0.43173300  0.27458400  1
  O  O33  1  0.01024600  0.06826700  0.72541600  1
  O  O34  1  0.98975400  0.56826700  0.77458400  1
  O  O35  1  0.48975400  0.93173300  0.22541600  1
  O  O36  1  0.14576400  0.25792600  0.40279300  1
  O  O37  1  0.35423600  0.74207400  0.90279300  1
  O  O38  1  0.85423600  0.75792600  0.09720700  1
  O  O39  1  0.40279300  0.14576400  0.25792600  1
  O  O40  1  0.64576400  0.24207400  0.59720700  1
  O  O41  1  0.90279300  0.35423600  0.74207400  1
  O  O42  1  0.09720700  0.85423600  0.75792600  1
  O  O43  1  0.59720700  0.64576400  0.24207400  1
  O  O44  1  0.25792600  0.40279300  0.14576400  1
  O  O45  1  0.75792600  0.09720700  0.85423600  1
  O  O46  1  0.24207400  0.59720700  0.64576400  1
  O  O47  1  0.74207400  0.90279300  0.35423600  1
loop_
_geom_bond_atom_site_label_1
_geom_bond_atom_site_label_2
_geom_bond_distance
_geom_bond_site_symmetry_2
K0 O3 3.038470 1_555
K0 O8 3.038470 1_555
K0 O0 3.038470 1_555
K1 O1 3.038470 1_555
K1 O6 3.038470 1_555
K1 O10 3.038470 1_555
K2 O11 3.038470 1_555
K2 O2 3.038470 1_555
K2 O7 3.038470 1_555
K3 O9 3.038470 1_555
K3 O5 3.038470 1_555
K3 O4 3.038470 1_555
K4 O38 3.112843 1_556
K4 O45 3.112843 1_565
K4 O42 3.112843 1_655
K4 O22 3.225760 1_555
K4 O19 3.225760 1_555
K4 O16 3.225760 1_555
K4 O34 3.318760 1_555
K4 O31 3.318760 1_555
K4 O28 3.318760 1_555
K5 O39 3.112843 1_555
K5 O47 3.112843 1_545
K5 O40 3.112843 1_555
K5 O14 3.225760 1_555
K5 O20 3.225760 1_555
K5 O17 3.225760 1_555
K5 O26 3.318760 1_555
K5 O32 3.318760 1_555
K5 O29 3.318760 1_555
K6 O36 3.112843 1_555
K6 O46 3.112843 1_555
K6 O41 3.112843 1_455
K6 O21 3.225760 1_555
K6 O13 3.225760 1_555
K6 O15 3.225760 1_555
K6 O33 3.318760 1_555
K6 O25 3.318760 1_555
K6 O27 3.318760 1_555
K7 O37 3.112843 1_554
K7 O44 3.112843 1_555
K7 O43 3.112843 1_555
K7 O18 3.225760 1_555
K7 O23 3.225760 1_555
K7 O12 3.225760 1_555
K7 O30 3.318760 1_555
K7 O24 3.318760 1_555
K7 O35 3.318760 1_555
O0 P0 1.541037 1_555
O0 Yb7 2.277817 1_545
O1 P1 1.541037 1_555
O1 Yb6 2.277817 1_565
O2 P2 1.541037 1_555
O2 Yb5 2.277817 1_555
O3 P3 1.541037 1_555
O3 Yb6 2.277817 1_554
O4 P4 1.541037 1_555
O4 Yb4 2.277817 1_555
O5 P5 1.541037 1_555
O5 Yb5 2.277817 1_556
O6 P6 1.541037 1_555
O6 Yb7 2.277817 1_555
O7 P7 1.541037 1_555
O7 Yb4 2.277817 1_555
O8 P8 1.541037 1_555
O8 Yb5 2.277817 1_455
O9 P9 1.541037 1_555
O9 Yb6 2.277817 1_555
O10 P10 1.541037 1_555
O10 Yb4 2.277817 1_555
O11 P11 1.541037 1_555
O11 Yb7 2.277817 1_655
O12 P2 1.546772 1_455
O12 Yb7 2.259525 1_555
O13 P4 1.546772 1_555
O13 Yb6 2.259525 1_555
O14 P0 1.546772 1_655
O14 Yb5 2.259525 1_555
O15 P6 1.546772 1_545
O15 Yb6 2.259525 1_555
O16 P1 1.546772 1_555
O16 Yb4 2.259525 1_555
O17 P7 1.546772 1_555
O17 Yb5 2.259525 1_555
O18 P3 1.546772 1_565
O18 Yb7 2.259525 1_555
O19 P5 1.546772 1_555
O19 Yb4 2.259525 1_555
O20 P9 1.546772 1_554
O20 Yb5 2.259525 1_555
O21 P8 1.546772 1_556
O21 Yb6 2.259525 1_555
O22 P11 1.546772 1_555
O22 Yb4 2.259525 1_555
O23 P10 1.546772 1_555
O23 Yb7 2.259525 1_555
O24 P10 1.547520 1_555
O24 Yb0 2.299020 1_555
O25 P8 1.547520 1_556
O25 Yb1 2.299020 1_555
O26 P9 1.547520 1_554
O26 Yb2 2.299020 1_545
O27 P4 1.547520 1_555
O27 Yb0 2.299020 1_555
O28 P11 1.547520 1_555
O28 Yb3 2.299020 1_565
O29 P0 1.547520 1_655
O29 Yb3 2.299020 1_555
O30 P2 1.547520 1_455
O30 Yb1 2.299020 1_554
O31 P1 1.547520 1_555
O31 Yb2 2.299020 1_556
O32 P7 1.547520 1_555
O32 Yb0 2.299020 1_555
O33 P6 1.547520 1_545
O33 Yb3 2.299020 1_455
O34 P5 1.547520 1_555
O34 Yb1 2.299020 1_655
O35 P3 1.547520 1_565
O35 Yb2 2.299020 1_555
O36 P0 1.540685 1_555
O36 Yb0 2.301431 1_555
O37 P1 1.540685 1_555
O37 Yb1 2.301431 1_555
O38 P2 1.540685 1_555
O38 Yb2 2.301431 1_555
O39 P3 1.540685 1_555
O39 Yb0 2.301431 1_555
O40 P4 1.540685 1_555
O40 Yb3 2.301431 1_555
O41 P5 1.540685 1_555
O41 Yb3 2.301431 1_555
O42 P6 1.540685 1_555
O42 Yb1 2.301431 1_555
O43 P7 1.540685 1_555
O43 Yb2 2.301431 1_555
O44 P8 1.540685 1_555
O44 Yb0 2.301431 1_555
O45 P9 1.540685 1_555
O45 Yb3 2.301431 1_555
O46 P10 1.540685 1_555
O46 Yb1 2.301431 1_555
O47 P11 1.540685 1_555
O47 Yb2 2.301431 1_555
