# generated using pymatgen
data_MgIn2
_symmetry_space_group_name_H-M   'P 1'
_cell_length_a   11.37877848
_cell_length_b   11.37877848
_cell_length_c   17.70553069
_cell_angle_alpha   67.50780474
_cell_angle_beta   67.50780474
_cell_angle_gamma   33.29388964
_symmetry_Int_Tables_number   1
_chemical_formula_structural   MgIn2
_chemical_formula_sum   'Mg16 In32'
_cell_volume   1153.73444391
_cell_formula_units_Z   16
loop_
 _symmetry_equiv_pos_site_id
 _symmetry_equiv_pos_as_xyz
  1  'x, y, z'
loop_
 _atom_site_type_symbol
 _atom_site_label
 _atom_site_symmetry_multiplicity
 _atom_site_fract_x
 _atom_site_fract_y
 _atom_site_fract_z
 _atom_site_occupancy
  Mg  Mg0_0  1  0.00023231  0.00023231  0.37553893  1
  Mg  Mg0_1  1  0.00023231  0.00023231  0.87553893  1
  Mg  Mg0_2  1  0.00023231  0.50023231  0.37553893  1
  Mg  Mg0_3  1  0.00023231  0.50023231  0.87553893  1
  Mg  Mg0_4  1  0.50023231  0.00023231  0.37553893  1
  Mg  Mg0_5  1  0.50023231  0.00023231  0.87553893  1
  Mg  Mg0_6  1  0.50023231  0.50023231  0.37553893  1
  Mg  Mg0_7  1  0.50023231  0.50023231  0.87553893  1
  Mg  Mg1_0  1  0.99976769  0.99976769  0.12446107  1
  Mg  Mg1_1  1  0.99976769  0.99976769  0.62446107  1
  Mg  Mg1_2  1  0.99976769  0.49976769  0.12446107  1
  Mg  Mg1_3  1  0.99976769  0.49976769  0.62446107  1
  Mg  Mg1_4  1  0.49976769  0.99976769  0.12446107  1
  Mg  Mg1_5  1  0.49976769  0.99976769  0.62446107  1
  Mg  Mg1_6  1  0.49976769  0.49976769  0.12446107  1
  Mg  Mg1_7  1  0.49976769  0.49976769  0.62446107  1
  In  In0_0  1  0.16914140  0.16914139  0.29035549  1
  In  In0_1  1  0.16914140  0.16914140  0.79035549  1
  In  In0_2  1  0.16914140  0.66914139  0.29035549  1
  In  In0_3  1  0.16914140  0.66914140  0.79035549  1
  In  In0_4  1  0.66914139  0.16914139  0.29035549  1
  In  In0_5  1  0.66914140  0.16914140  0.79035549  1
  In  In0_6  1  0.66914139  0.66914139  0.29035549  1
  In  In0_7  1  0.66914140  0.66914139  0.79035549  1
  In  In1_0  1  0.33177624  0.33177624  0.45852374  1
  In  In1_1  1  0.33177624  0.33177624  0.95852374  1
  In  In1_2  1  0.33177624  0.83177624  0.45852374  1
  In  In1_3  1  0.33177624  0.83177624  0.95852374  1
  In  In1_4  1  0.83177624  0.33177624  0.45852374  1
  In  In1_5  1  0.83177624  0.33177624  0.95852374  1
  In  In1_6  1  0.83177624  0.83177624  0.45852374  1
  In  In1_7  1  0.83177624  0.83177624  0.95852374  1
  In  In2_0  1  0.16822376  0.16822376  0.04147626  1
  In  In2_1  1  0.16822376  0.16822376  0.54147626  1
  In  In2_2  1  0.16822376  0.66822376  0.04147626  1
  In  In2_3  1  0.16822376  0.66822376  0.54147626  1
  In  In2_4  1  0.66822376  0.16822376  0.04147626  1
  In  In2_5  1  0.66822376  0.16822376  0.54147626  1
  In  In2_6  1  0.66822376  0.66822376  0.04147626  1
  In  In2_7  1  0.66822376  0.66822376  0.54147626  1
  In  In3_0  1  0.33085860  0.33085860  0.20964451  1
  In  In3_1  1  0.33085861  0.33085860  0.70964451  1
  In  In3_2  1  0.33085861  0.83085860  0.20964451  1
  In  In3_3  1  0.33085861  0.83085860  0.70964451  1
  In  In3_4  1  0.83085860  0.33085861  0.20964451  1
  In  In3_5  1  0.83085860  0.33085861  0.70964451  1
  In  In3_6  1  0.83085860  0.83085860  0.20964451  1
  In  In3_7  1  0.83085861  0.83085860  0.70964451  1
loop_
_geom_bond_atom_site_label_1
_geom_bond_atom_site_label_2
_geom_bond_distance
_geom_bond_site_symmetry_2
Mg0_0 Mg0_6 3.259718 1_455
Mg0_0 Mg0_6 3.259718 1_545
Mg0_1 Mg0_7 3.259718 1_545
Mg0_1 Mg0_7 3.259718 1_455
Mg0_2 Mg0_4 3.259718 1_555
Mg0_2 Mg0_4 3.259718 1_465
Mg0_3 Mg0_5 3.259718 1_555
Mg0_3 Mg0_5 3.259718 1_465
Mg1_0 Mg1_6 3.259718 1_565
Mg1_0 Mg1_6 3.259718 1_655
Mg1_1 Mg1_7 3.259718 1_655
Mg1_1 Mg1_7 3.259718 1_565
Mg1_2 Mg1_4 3.259718 1_645
Mg1_2 Mg1_4 3.259718 1_555
Mg1_3 Mg1_5 3.259718 1_645
Mg1_3 Mg1_5 3.259718 1_555
In0_0 Mg0_4 3.191684 1_555
In0_0 Mg0_2 3.191684 1_555
In0_0 Mg1_4 3.201678 1_545
In0_0 Mg1_2 3.201678 1_455
In0_0 In3_0 3.232826 1_555
In0_0 In3_4 3.255839 1_455
In0_0 In3_2 3.255839 1_545
In0_0 In1_4 3.259012 1_455
In0_0 In1_2 3.259012 1_545
In0_0 In0_6 3.259718 1_455
In0_0 In0_6 3.259718 1_545
In0_0 Mg0_0 3.376735 1_555
In0_1 Mg0_5 3.191684 1_555
In0_1 Mg0_3 3.191684 1_555
In0_1 Mg1_5 3.201678 1_545
In0_1 Mg1_3 3.201678 1_455
In0_1 In3_1 3.232826 1_555
In0_1 In3_3 3.255839 1_545
In0_1 In3_5 3.255839 1_455
In0_1 In1_3 3.259012 1_545
In0_1 In1_5 3.259012 1_455
In0_1 In0_7 3.259718 1_455
In0_1 In0_7 3.259718 1_545
In0_1 Mg0_1 3.376735 1_555
In0_2 Mg0_6 3.191684 1_555
In0_2 Mg0_0 3.191684 1_565
In0_2 Mg1_6 3.201678 1_555
In0_2 Mg1_0 3.201678 1_455
In0_2 In3_2 3.232826 1_555
In0_2 In3_0 3.255839 1_555
In0_2 In3_6 3.255839 1_455
In0_2 In1_0 3.259012 1_555
In0_2 In1_6 3.259012 1_455
In0_2 In0_4 3.259718 1_555
In0_2 In0_4 3.259718 1_465
In0_2 Mg0_2 3.376735 1_555
In0_3 Mg0_7 3.191684 1_555
In0_3 Mg0_1 3.191684 1_565
In0_3 Mg1_1 3.201678 1_455
In0_3 Mg1_7 3.201678 1_555
In0_3 In3_3 3.232826 1_555
In0_3 In3_7 3.255839 1_455
In0_3 In3_1 3.255839 1_555
In0_3 In1_1 3.259012 1_555
In0_3 In1_7 3.259012 1_455
In0_3 In0_5 3.259718 1_555
In0_3 In0_5 3.259718 1_465
In0_3 Mg0_3 3.376735 1_555
In0_4 Mg0_6 3.191684 1_555
In0_4 Mg0_0 3.191684 1_655
In0_4 Mg1_6 3.201678 1_555
In0_4 Mg1_0 3.201678 1_545
In0_4 In3_4 3.232826 1_555
In0_4 In3_0 3.255839 1_555
In0_4 In3_6 3.255839 1_545
In0_4 In1_0 3.259012 1_555
In0_4 In1_6 3.259012 1_545
In0_4 Mg0_4 3.376735 1_555
In0_5 Mg0_7 3.191684 1_555
In0_5 Mg0_1 3.191684 1_655
In0_5 Mg1_7 3.201678 1_555
In0_5 Mg1_1 3.201678 1_545
In0_5 In3_5 3.232826 1_555
In0_5 In3_7 3.255839 1_545
In0_5 In3_1 3.255839 1_555
In0_5 In1_1 3.259012 1_555
In0_5 In1_7 3.259012 1_545
In0_5 Mg0_5 3.376735 1_555
In0_6 Mg0_2 3.191684 1_655
In0_6 Mg0_4 3.191684 1_565
In0_6 Mg1_4 3.201678 1_555
In0_6 Mg1_2 3.201678 1_555
In0_6 In3_6 3.232826 1_555
In0_6 In3_4 3.255839 1_555
In0_6 In3_2 3.255839 1_555
In0_6 In1_2 3.259012 1_555
In0_6 In1_4 3.259012 1_555
In0_6 Mg0_6 3.376735 1_555
In0_7 Mg0_3 3.191684 1_655
In0_7 Mg0_5 3.191684 1_565
In0_7 Mg1_3 3.201678 1_555
In0_7 Mg1_5 3.201678 1_555
In0_7 In3_7 3.232826 1_555
In0_7 In3_3 3.255839 1_555
In0_7 In3_5 3.255839 1_555
In0_7 In1_5 3.259012 1_555
In0_7 In1_3 3.259012 1_555
In0_7 Mg0_7 3.376735 1_555
In1_0 Mg0_2 3.172158 1_555
In1_0 Mg0_4 3.172158 1_555
In1_0 Mg1_5 3.207849 1_545
In1_0 Mg1_3 3.207849 1_455
In1_0 In2_3 3.252248 1_555
In1_0 In2_5 3.252248 1_555
In1_0 In1_6 3.259718 1_455
In1_0 In1_6 3.259718 1_545
In1_0 In2_1 3.269752 1_555
In1_0 Mg0_6 3.367469 1_555
In1_1 Mg0_3 3.172158 1_555
In1_1 Mg0_5 3.172158 1_555
In1_1 Mg1_2 3.207849 1_456
In1_1 Mg1_4 3.207849 1_546
In1_1 In2_4 3.252248 1_556
In1_1 In2_2 3.252248 1_556
In1_1 In1_7 3.259718 1_545
In1_1 In1_7 3.259718 1_455
In1_1 In2_0 3.269752 1_556
In1_1 Mg0_7 3.367469 1_555
In1_2 Mg0_6 3.172158 1_555
In1_2 Mg0_0 3.172158 1_565
In1_2 Mg1_7 3.207849 1_555
In1_2 Mg1_1 3.207849 1_455
In1_2 In2_7 3.252248 1_555
In1_2 In2_1 3.252248 1_565
In1_2 In1_4 3.259718 1_555
In1_2 In1_4 3.259718 1_465
In1_2 In2_3 3.269752 1_555
In1_2 Mg0_4 3.367469 1_565
In1_3 Mg0_7 3.172158 1_555
In1_3 Mg0_1 3.172158 1_565
In1_3 Mg1_6 3.207849 1_556
In1_3 Mg1_0 3.207849 1_456
In1_3 In2_6 3.252248 1_556
In1_3 In2_0 3.252248 1_566
In1_3 In1_5 3.259718 1_555
In1_3 In1_5 3.259718 1_465
In1_3 In2_2 3.269752 1_556
In1_3 Mg0_5 3.367469 1_565
In1_4 Mg0_0 3.172158 1_655
In1_4 Mg0_6 3.172158 1_555
In1_4 Mg1_7 3.207849 1_555
In1_4 Mg1_1 3.207849 1_545
In1_4 In2_7 3.252248 1_555
In1_4 In2_1 3.252248 1_655
In1_4 In2_5 3.269752 1_555
In1_4 Mg0_2 3.367469 1_655
In1_5 Mg0_1 3.172158 1_655
In1_5 Mg0_7 3.172158 1_555
In1_5 Mg1_6 3.207849 1_556
In1_5 Mg1_0 3.207849 1_546
In1_5 In2_6 3.252248 1_556
In1_5 In2_0 3.252248 1_656
In1_5 In2_4 3.269752 1_556
In1_5 Mg0_3 3.367469 1_655
In1_6 Mg0_2 3.172158 1_655
In1_6 Mg0_4 3.172158 1_565
In1_6 Mg1_3 3.207849 1_555
In1_6 Mg1_5 3.207849 1_555
In1_6 In2_3 3.252248 1_655
In1_6 In2_5 3.252248 1_565
In1_6 In2_7 3.269752 1_555
In1_6 Mg0_0 3.367469 1_665
In1_7 Mg0_5 3.172158 1_565
In1_7 Mg0_3 3.172158 1_655
In1_7 Mg1_2 3.207849 1_556
In1_7 Mg1_4 3.207849 1_556
In1_7 In2_4 3.252248 1_566
In1_7 In2_2 3.252248 1_656
In1_7 In2_6 3.269752 1_556
In1_7 Mg0_1 3.367469 1_665
In2_0 Mg1_4 3.172158 1_545
In2_0 Mg1_2 3.172158 1_455
In2_0 Mg0_5 3.207849 1_554
In2_0 Mg0_3 3.207849 1_554
In2_0 In3_2 3.259012 1_545
In2_0 In3_4 3.259012 1_455
In2_0 In2_6 3.259718 1_545
In2_0 In2_6 3.259718 1_455
In2_0 Mg1_0 3.367469 1_445
In2_1 Mg1_5 3.172158 1_545
In2_1 Mg1_3 3.172158 1_455
In2_1 Mg0_2 3.207849 1_555
In2_1 Mg0_4 3.207849 1_555
In2_1 In3_5 3.259012 1_455
In2_1 In3_3 3.259012 1_545
In2_1 In2_7 3.259718 1_455
In2_1 In2_7 3.259718 1_545
In2_1 Mg1_1 3.367469 1_445
In2_2 Mg1_0 3.172158 1_455
In2_2 Mg1_6 3.172158 1_555
In2_2 Mg0_7 3.207849 1_554
In2_2 Mg0_1 3.207849 1_564
In2_2 In3_6 3.259012 1_455
In2_2 In3_0 3.259012 1_555
In2_2 In2_4 3.259718 1_555
In2_2 In2_4 3.259718 1_465
In2_2 Mg1_2 3.367469 1_455
In2_3 Mg1_7 3.172158 1_555
In2_3 Mg1_1 3.172158 1_455
In2_3 Mg0_0 3.207849 1_565
In2_3 Mg0_6 3.207849 1_555
In2_3 In3_1 3.259012 1_555
In2_3 In3_7 3.259012 1_455
In2_3 In2_5 3.259718 1_555
In2_3 In2_5 3.259718 1_465
In2_3 Mg1_3 3.367469 1_455
In2_4 Mg1_6 3.172158 1_555
In2_4 Mg1_0 3.172158 1_545
In2_4 Mg0_7 3.207849 1_554
In2_4 Mg0_1 3.207849 1_654
In2_4 In3_6 3.259012 1_545
In2_4 In3_0 3.259012 1_555
In2_4 Mg1_4 3.367469 1_545
In2_5 Mg1_7 3.172158 1_555
In2_5 Mg1_1 3.172158 1_545
In2_5 Mg0_6 3.207849 1_555
In2_5 Mg0_0 3.207849 1_655
In2_5 In3_1 3.259012 1_555
In2_5 In3_7 3.259012 1_545
In2_5 Mg1_5 3.367469 1_545
In2_6 Mg1_4 3.172158 1_555
In2_6 Mg1_2 3.172158 1_555
In2_6 Mg0_3 3.207849 1_654
In2_6 Mg0_5 3.207849 1_564
In2_6 In3_4 3.259012 1_555
In2_6 In3_2 3.259012 1_555
In2_6 Mg1_6 3.367469 1_555
In2_7 Mg1_5 3.172158 1_555
In2_7 Mg1_3 3.172158 1_555
In2_7 Mg0_2 3.207849 1_655
In2_7 Mg0_4 3.207849 1_565
In2_7 In3_3 3.259012 1_555
In2_7 In3_5 3.259012 1_555
In2_7 Mg1_7 3.367469 1_555
In3_0 Mg1_2 3.191684 1_455
In3_0 Mg1_4 3.191684 1_545
In3_0 Mg0_4 3.201678 1_555
In3_0 Mg0_2 3.201678 1_555
In3_0 In3_6 3.259718 1_455
In3_0 In3_6 3.259718 1_545
In3_0 Mg1_6 3.376735 1_555
In3_1 Mg1_5 3.191684 1_545
In3_1 Mg1_3 3.191684 1_455
In3_1 Mg0_5 3.201678 1_555
In3_1 Mg0_3 3.201678 1_555
In3_1 In3_7 3.259718 1_455
In3_1 In3_7 3.259718 1_545
In3_1 Mg1_7 3.376735 1_555
In3_2 Mg1_6 3.191684 1_555
In3_2 Mg1_0 3.191684 1_455
In3_2 Mg0_6 3.201678 1_555
In3_2 Mg0_0 3.201678 1_565
In3_2 In3_4 3.259718 1_555
In3_2 In3_4 3.259718 1_465
In3_2 Mg1_4 3.376735 1_555
In3_3 Mg1_7 3.191684 1_555
In3_3 Mg1_1 3.191684 1_455
In3_3 Mg0_7 3.201678 1_555
In3_3 Mg0_1 3.201678 1_565
In3_3 In3_5 3.259718 1_555
In3_3 In3_5 3.259718 1_465
In3_3 Mg1_5 3.376735 1_555
In3_4 Mg1_6 3.191684 1_555
In3_4 Mg1_0 3.191684 1_545
In3_4 Mg0_6 3.201678 1_555
In3_4 Mg0_0 3.201678 1_655
In3_4 Mg1_2 3.376735 1_555
In3_5 Mg1_1 3.191684 1_545
In3_5 Mg1_7 3.191684 1_555
In3_5 Mg0_7 3.201678 1_555
In3_5 Mg0_1 3.201678 1_655
In3_5 Mg1_3 3.376735 1_555
In3_6 Mg1_2 3.191684 1_555
In3_6 Mg1_4 3.191684 1_555
In3_6 Mg0_4 3.201678 1_565
In3_6 Mg0_2 3.201678 1_655
In3_6 Mg1_0 3.376735 1_555
In3_7 Mg1_3 3.191684 1_555
In3_7 Mg1_5 3.191684 1_555
In3_7 Mg0_3 3.201678 1_655
In3_7 Mg0_5 3.201678 1_565
In3_7 Mg1_1 3.376735 1_555
