# generated using pymatgen
data_Na2PbO3
_symmetry_space_group_name_H-M   'P 1'
_cell_length_a   5.72731996
_cell_length_b   5.72731996
_cell_length_c   11.10786806
_cell_angle_alpha   85.01957500
_cell_angle_beta   85.01957500
_cell_angle_gamma   120.03846966
_symmetry_Int_Tables_number   1
_chemical_formula_structural   Na2PbO3
_chemical_formula_sum   'Na8 Pb4 O12'
_cell_volume   310.62807590
_cell_formula_units_Z   4
loop_
 _symmetry_equiv_pos_site_id
 _symmetry_equiv_pos_as_xyz
  1  'x, y, z'
loop_
 _atom_site_type_symbol
 _atom_site_label
 _atom_site_symmetry_multiplicity
 _atom_site_fract_x
 _atom_site_fract_y
 _atom_site_fract_z
 _atom_site_occupancy
  Na  Na0  1  0.65885596  0.81715039  0.50021613  1
  Na  Na1  1  0.34114404  0.18284961  0.49978387  1
  Na  Na2  1  0.18284961  0.34114404  0.99978387  1
  Na  Na3  1  0.81715039  0.65885596  0.00021613  1
  Na  Na4  1  0.58480524  0.41519476  0.75000000  1
  Na  Na5  1  0.41519476  0.58480524  0.25000000  1
  Na  Na6  1  0.50000000  -0.00000000  0.00000000  1
  Na  Na7  1  -0.00000000  0.50000000  0.50000000  1
  Pb  Pb0  1  0.25053010  0.74946990  0.75000000  1
  Pb  Pb1  1  0.74946990  0.25053010  0.25000000  1
  Pb  Pb2  1  0.91786859  0.08213141  0.75000000  1
  Pb  Pb3  1  0.08213141  0.91786859  0.25000000  1
  O  O0  1  0.81281744  0.98072121  0.13788581  1
  O  O1  1  0.18718256  0.01927879  0.86211419  1
  O  O2  1  0.01927879  0.18718256  0.36211419  1
  O  O3  1  0.98072121  0.81281744  0.63788581  1
  O  O4  1  0.54534334  0.73536439  0.86302112  1
  O  O5  1  0.45465666  0.26463561  0.13697888  1
  O  O6  1  0.26463561  0.45465666  0.63697888  1
  O  O7  1  0.73536439  0.54534334  0.36302112  1
  O  O8  1  0.62215740  0.09391400  0.63826321  1
  O  O9  1  0.37784260  0.90608600  0.36173679  1
  O  O10  1  0.90608600  0.37784260  0.86173679  1
  O  O11  1  0.09391400  0.62215740  0.13826321  1
loop_
_geom_bond_atom_site_label_1
_geom_bond_atom_site_label_2
_geom_bond_distance
_geom_bond_site_symmetry_2
Na0 O8 2.368065 1_565
Na0 O2 2.368885 1_665
Na0 O6 2.424811 1_555
Na0 O7 2.432429 1_555
Na0 O3 2.503200 1_555
Na0 O9 2.516037 1_555
Na1 O9 2.368065 1_545
Na1 O3 2.368885 1_445
Na1 O7 2.424811 1_555
Na1 O6 2.432429 1_555
Na1 O2 2.503200 1_555
Na1 O8 2.516037 1_555
Na2 O10 2.368065 1_455
Na2 O0 2.368885 1_446
Na2 O4 2.424811 1_555
Na2 O5 2.432429 1_556
Na2 O1 2.503200 1_555
Na2 O11 2.516037 1_556
Na3 O11 2.368065 1_655
Na3 O1 2.368885 1_664
Na3 O5 2.424811 1_555
Na3 O4 2.432429 1_554
Na3 O0 2.503200 1_555
Na3 O10 2.516037 1_554
Na4 O10 2.390955 1_555
Na4 O8 2.390955 1_555
Na4 O1 2.392936 1_555
Na4 O3 2.392936 1_555
Na4 O6 2.398967 1_555
Na4 O4 2.398967 1_555
Na5 O9 2.390955 1_555
Na5 O11 2.390955 1_555
Na5 O0 2.392936 1_555
Na5 O2 2.392936 1_555
Na5 O5 2.398967 1_555
Na5 O7 2.398967 1_555
Na6 O5 2.324997 1_555
Na6 O4 2.324997 1_544
Na6 O1 2.492596 1_554
Na6 O0 2.492596 1_545
Na6 O10 2.492952 1_554
Na6 O11 2.492952 1_545
Na7 O7 2.324997 1_455
Na7 O6 2.324997 1_555
Na7 O2 2.492596 1_555
Na7 O3 2.492596 1_455
Na7 O9 2.492952 1_555
Na7 O8 2.492952 1_455
O0 Pb3 2.207080 1_655
O0 Pb1 2.210748 1_565
O1 Pb2 2.207080 1_455
O1 Pb0 2.210748 1_545
O2 Pb3 2.207080 1_545
O2 Pb1 2.210748 1_455
O3 Pb2 2.207080 1_565
O3 Pb0 2.210748 1_655
O4 Pb0 2.218249 1_555
O4 Pb2 2.220878 1_565
O5 Pb1 2.218249 1_555
O5 Pb3 2.220878 1_545
O6 Pb0 2.218249 1_555
O6 Pb2 2.220878 1_455
O7 Pb1 2.218249 1_555
O7 Pb3 2.220878 1_655
O8 Pb0 2.207907 1_545
O8 Pb2 2.208683 1_555
O9 Pb1 2.207907 1_565
O9 Pb3 2.208683 1_555
O10 Pb0 2.207907 1_655
O10 Pb2 2.208683 1_555
O11 Pb1 2.207907 1_455
O11 Pb3 2.208683 1_555
