# generated using pymatgen
data_Cs7(FeS2)4
_symmetry_space_group_name_H-M   'P 1'
_cell_length_a   10.47332518
_cell_length_b   10.47332518
_cell_length_c   16.89005276
_cell_angle_alpha   64.72874968
_cell_angle_beta   64.72874968
_cell_angle_gamma   49.45281642
_symmetry_Int_Tables_number   1
_chemical_formula_structural   Cs7(FeS2)4
_chemical_formula_sum   'Cs14 Fe8 S16'
_cell_volume   1242.61838179
_cell_formula_units_Z   2
loop_
 _symmetry_equiv_pos_site_id
 _symmetry_equiv_pos_as_xyz
  1  'x, y, z'
loop_
 _atom_site_type_symbol
 _atom_site_label
 _atom_site_symmetry_multiplicity
 _atom_site_fract_x
 _atom_site_fract_y
 _atom_site_fract_z
 _atom_site_occupancy
  Cs  Cs0  1  0.23271091  0.76728909  0.75000000  1
  Cs  Cs1  1  0.76728909  0.23271091  0.25000000  1
  Cs  Cs2  1  0.24284446  0.74694997  0.98863235  1
  Cs  Cs3  1  0.25305003  0.75715554  0.51136765  1
  Cs  Cs4  1  0.75715554  0.25305003  0.01136765  1
  Cs  Cs5  1  0.74694997  0.24284446  0.48863235  1
  Cs  Cs6  1  0.01359153  0.51776546  0.60825078  1
  Cs  Cs7  1  0.48223454  -0.01359153  0.89174922  1
  Cs  Cs8  1  -0.01359153  0.48223454  0.39174922  1
  Cs  Cs9  1  0.51776546  0.01359153  0.10825078  1
  Cs  Cs10  1  0.01111359  0.49331369  0.86214719  1
  Cs  Cs11  1  0.50668631  0.98888641  0.63785281  1
  Cs  Cs12  1  0.98888641  0.50668631  0.13785281  1
  Cs  Cs13  1  0.49331369  0.01111359  0.36214719  1
  Fe  Fe0  1  0.66720306  0.44719255  0.66485335  1
  Fe  Fe1  1  0.55280745  0.33279694  0.83514665  1
  Fe  Fe2  1  0.33279694  0.55280745  0.33514665  1
  Fe  Fe3  1  0.44719255  0.66720306  0.16485335  1
  Fe  Fe4  1  0.91273971  0.19895268  0.77678060  1
  Fe  Fe5  1  0.80104732  0.08726029  0.72321940  1
  Fe  Fe6  1  0.08726029  0.80104732  0.22321940  1
  Fe  Fe7  1  0.19895268  0.91273971  0.27678060  1
  S  S0  1  0.67344789  0.48837750  0.79126496  1
  S  S1  1  0.51162250  0.32655211  0.70873504  1
  S  S2  1  0.32655211  0.51162250  0.20873504  1
  S  S3  1  0.48837750  0.67344789  0.29126496  1
  S  S4  1  0.95744831  0.20858978  0.62494455  1
  S  S5  1  0.79141022  0.04255169  0.87505545  1
  S  S6  1  0.04255169  0.79141022  0.37505545  1
  S  S7  1  0.20858978  0.95744831  0.12494455  1
  S  S8  1  0.67859698  0.59706549  0.05265189  1
  S  S9  1  0.40293451  0.32140302  0.44734811  1
  S  S10  1  0.32140302  0.40293451  0.94734811  1
  S  S11  1  0.59706549  0.67859698  0.55265189  1
  S  S12  1  0.88209143  0.85927408  0.68637003  1
  S  S13  1  0.14072592  0.11790857  0.81362997  1
  S  S14  1  0.11790857  0.14072592  0.31362997  1
  S  S15  1  0.85927408  0.88209143  0.18637003  1
loop_
_geom_bond_atom_site_label_1
_geom_bond_atom_site_label_2
_geom_bond_distance
_geom_bond_site_symmetry_2
Cs0 Fe5 3.553569 1_465
Cs0 Fe4 3.553569 1_465
Cs0 Fe0 3.565006 1_555
Cs0 Fe1 3.565006 1_555
Cs0 S12 3.667948 1_455
Cs0 S13 3.667948 1_565
Cs0 S5 3.697903 1_465
Cs0 S4 3.697903 1_465
Cs0 S11 3.702699 1_555
Cs0 S10 3.702699 1_555
Cs0 S1 3.715316 1_555
Cs0 S0 3.715316 1_555
Cs1 Fe6 3.553569 1_645
Cs1 Fe7 3.553569 1_645
Cs1 Fe3 3.565006 1_555
Cs1 Fe2 3.565006 1_555
Cs1 S14 3.667948 1_655
Cs1 S15 3.667948 1_545
Cs1 S6 3.697903 1_645
Cs1 S7 3.697903 1_645
Cs1 S9 3.702699 1_555
Cs1 S8 3.702699 1_555
Cs1 S2 3.715316 1_555
Cs1 S3 3.715316 1_555
Cs2 S10 3.456254 1_555
Cs2 S13 3.530848 1_565
Cs2 S2 3.579620 1_556
Cs2 S7 3.590247 1_556
Cs2 S15 3.805781 1_456
Cs3 S11 3.456254 1_555
Cs3 S12 3.530848 1_455
Cs3 S3 3.579620 1_555
Cs3 S6 3.590247 1_555
Cs3 S14 3.805781 1_565
Cs4 S8 3.456254 1_555
Cs4 S15 3.530848 1_545
Cs4 S0 3.579620 1_554
Cs4 S5 3.590247 1_554
Cs4 S13 3.805781 1_654
Cs5 S9 3.456254 1_555
Cs5 S14 3.530848 1_655
Cs5 S1 3.579620 1_555
Cs5 S4 3.590247 1_555
Cs5 S12 3.805781 1_545
Cs6 S4 3.530573 1_455
Cs6 S12 3.536097 1_455
Cs6 S9 3.556674 1_555
Cs6 S0 3.681290 1_455
Cs6 S6 3.780381 1_555
Cs6 S11 3.917041 1_455
Cs6 S13 3.954033 1_555
Cs7 S5 3.530573 1_555
Cs7 S13 3.536097 1_555
Cs7 S8 3.556674 1_546
Cs7 S1 3.681290 1_555
Cs7 S7 3.780381 1_546
Cs7 S10 3.917041 1_555
Cs7 S12 3.954033 1_545
Cs8 S6 3.530573 1_555
Cs8 S14 3.536097 1_555
Cs8 S11 3.556674 1_455
Cs8 S2 3.681290 1_555
Cs8 S4 3.780381 1_455
Cs8 S9 3.917041 1_555
Cs8 S15 3.954033 1_455
Cs9 S7 3.530573 1_545
Cs9 S15 3.536097 1_545
Cs9 S10 3.556674 1_554
Cs9 S3 3.681290 1_545
Cs9 S5 3.780381 1_554
Cs9 S8 3.917041 1_545
Cs9 S14 3.954033 1_555
Cs10 S8 3.487098 1_456
Cs10 S12 3.508085 1_455
Cs10 S10 3.515430 1_555
Cs10 S13 3.582562 1_555
Cs11 S9 3.487098 1_565
Cs11 S13 3.508085 1_565
Cs11 S11 3.515430 1_555
Cs11 S12 3.582562 1_555
Cs12 S10 3.487098 1_654
Cs12 S14 3.508085 1_655
Cs12 S8 3.515430 1_555
Cs12 S15 3.582562 1_555
Cs13 S11 3.487098 1_545
Cs13 S15 3.508085 1_545
Cs13 S9 3.515430 1_555
Cs13 S14 3.582562 1_555
Fe0 S11 2.226466 1_555
Fe0 S1 2.376328 1_555
Fe0 S0 2.385627 1_555
Fe0 S4 2.398332 1_555
Fe1 S10 2.226466 1_555
Fe1 S0 2.376328 1_555
Fe1 S1 2.385627 1_555
Fe1 S5 2.398332 1_555
Fe2 S9 2.226466 1_555
Fe2 S3 2.376328 1_555
Fe2 S2 2.385627 1_555
Fe2 S6 2.398332 1_555
Fe3 S8 2.226466 1_555
Fe3 S2 2.376328 1_555
Fe3 S3 2.385627 1_555
Fe3 S7 2.398332 1_555
Fe4 S13 2.234286 1_655
Fe4 S4 2.370942 1_555
Fe4 S5 2.374236 1_555
Fe4 S0 2.400390 1_555
Fe5 S12 2.234286 1_545
Fe5 S5 2.370942 1_555
Fe5 S4 2.374236 1_555
Fe5 S1 2.400390 1_555
Fe6 S15 2.234286 1_455
Fe6 S6 2.370942 1_555
Fe6 S7 2.374236 1_555
Fe6 S2 2.400390 1_555
Fe7 S14 2.234286 1_565
Fe7 S7 2.370942 1_555
Fe7 S6 2.374236 1_555
Fe7 S3 2.400390 1_555
