# generated using pymatgen
data_NiH10(SeO5)2
_symmetry_space_group_name_H-M   'P 1'
_cell_length_a   8.21463043
_cell_length_b   8.21463043
_cell_length_c   10.97082745
_cell_angle_alpha   58.09927254
_cell_angle_beta   58.09927254
_cell_angle_gamma   55.89538251
_symmetry_Int_Tables_number   1
_chemical_formula_structural   NiH10(SeO5)2
_chemical_formula_sum   'Ni2 H20 Se4 O20'
_cell_volume   491.21088922
_cell_formula_units_Z   2
loop_
 _symmetry_equiv_pos_site_id
 _symmetry_equiv_pos_as_xyz
  1  'x, y, z'
loop_
 _atom_site_type_symbol
 _atom_site_label
 _atom_site_symmetry_multiplicity
 _atom_site_fract_x
 _atom_site_fract_y
 _atom_site_fract_z
 _atom_site_occupancy
  Ni  Ni0  1  0.03414700  0.96585300  0.25000000  1
  Ni  Ni1  1  0.96585300  0.03414700  0.75000000  1
  H  H0  1  0.95244300  0.41659300  0.76828600  1
  H  H1  1  0.58340700  0.04755700  0.73171400  1
  H  H2  1  0.04755700  0.58340700  0.23171400  1
  H  H3  1  0.41659300  0.95244300  0.26828600  1
  H  H4  1  0.62976400  0.24911600  0.33393400  1
  H  H5  1  0.75088400  0.37023600  0.16606600  1
  H  H6  1  0.37023600  0.75088400  0.66606600  1
  H  H7  1  0.24911600  0.62976400  0.83393400  1
  H  H8  1  0.31835600  0.56941400  0.33694200  1
  H  H9  1  0.43058600  0.68164400  0.16305800  1
  H  H10  1  0.68164400  0.43058600  0.66305800  1
  H  H11  1  0.56941400  0.31835600  0.83694200  1
  H  H12  1  0.29359200  0.26319500  0.47497600  1
  H  H13  1  0.73680500  0.70640800  0.02502400  1
  H  H14  1  0.70640800  0.73680500  0.52502400  1
  H  H15  1  0.26319500  0.29359200  0.97497600  1
  H  H16  1  0.39763500  0.26244700  0.56252700  1
  H  H17  1  0.73755300  0.60236500  0.93747300  1
  H  H18  1  0.60236500  0.73755300  0.43747300  1
  H  H19  1  0.26244700  0.39763500  0.06252700  1
  Se  Se0  1  0.98936100  0.74479300  0.60694800  1
  Se  Se1  1  0.25520700  0.01063900  0.89305200  1
  Se  Se2  1  0.01063900  0.25520700  0.39305200  1
  Se  Se3  1  0.74479300  0.98936100  0.10694800  1
  O  O0  1  0.94079200  0.83788900  0.18368600  1
  O  O1  1  0.16211100  0.05920800  0.31631400  1
  O  O2  1  0.05920800  0.16211000  0.81631400  1
  O  O3  1  0.83788900  0.94079200  0.68368600  1
  O  O4  1  0.88397500  0.82687800  0.47618400  1
  O  O5  1  0.17312200  0.11602500  0.02381600  1
  O  O6  1  0.11602500  0.17312200  0.52381600  1
  O  O7  1  0.82687800  0.88397500  0.97618400  1
  O  O8  1  0.86171000  0.56894400  0.76133700  1
  O  O9  1  0.43105600  0.13829000  0.73866300  1
  O  O10  1  0.13829000  0.43105600  0.23866300  1
  O  O11  1  0.56894400  0.86171000  0.26133700  1
  O  O12  1  0.76661000  0.23339000  0.25000000  1
  O  O13  1  0.23339000  0.76661000  0.75000000  1
  O  O14  1  0.29874500  0.70125500  0.25000000  1
  O  O15  1  0.70125500  0.29874500  0.75000000  1
  O  O16  1  0.38485600  0.32018600  0.46091900  1
  O  O17  1  0.67981400  0.61514400  0.03908100  1
  O  O18  1  0.61514400  0.67981400  0.53908100  1
  O  O19  1  0.32018600  0.38485600  0.96091900  1
loop_
_geom_bond_atom_site_label_1
_geom_bond_atom_site_label_2
_geom_bond_distance
_geom_bond_site_symmetry_2
Ni0 O14 2.037358 1_555
Ni0 O12 2.059988 1_465
Ni0 O5 2.081479 1_565
Ni0 O4 2.081479 1_455
Ni0 O1 2.127036 1_565
Ni0 O0 2.127036 1_455
Ni1 O15 2.037358 1_555
Ni1 O13 2.059988 1_645
Ni1 O7 2.081479 1_545
Ni1 O6 2.081479 1_655
Ni1 O2 2.127028 1_655
Ni1 O3 2.127036 1_545
H0 O8 1.020186 1_555
H0 O2 1.638647 1_655
H1 O9 1.020186 1_555
H1 O3 1.638640 1_545
H2 O10 1.020186 1_555
H2 O0 1.638640 1_455
H3 O11 1.020186 1_555
H3 O1 1.638640 1_565
H4 O12 0.998567 1_555
H5 O12 0.998567 1_555
H6 O13 0.998567 1_555
H7 O13 0.998567 1_555
H8 O14 0.991782 1_555
H9 O14 0.991782 1_555
H10 O15 0.991782 1_555
H11 O15 0.991782 1_555
H12 O16 1.000049 1_555
H12 O6 1.710990 1_555
H13 O17 1.000049 1_555
H13 O7 1.710990 1_554
H14 O18 1.000049 1_555
H14 O4 1.710990 1_555
H15 O19 1.000049 1_555
H15 O5 1.710990 1_556
H16 O16 0.993797 1_555
H17 O17 0.993797 1_556
H18 O18 0.993797 1_555
H19 O19 0.993797 1_554
O0 Se3 1.711184 1_555
O1 Se2 1.711184 1_555
O2 Se1 1.711185 1_555
O3 Se0 1.711184 1_555
O4 Se0 1.702284 1_555
O5 Se1 1.702284 1_554
O6 Se2 1.702284 1_555
O7 Se3 1.702284 1_556
O8 Se0 1.814027 1_555
O9 Se1 1.814027 1_555
O10 Se2 1.814027 1_555
O11 Se3 1.814027 1_555
