# generated using pymatgen
data_Ho2Si2O7
_symmetry_space_group_name_H-M   'P 1'
_cell_length_a   5.01757490
_cell_length_b   8.09082588
_cell_length_c   13.59636894
_cell_angle_alpha   90.00000000
_cell_angle_beta   90.00000000
_cell_angle_gamma   90.00000000
_symmetry_Int_Tables_number   1
_chemical_formula_structural   Ho2Si2O7
_chemical_formula_sum   'Ho8 Si8 O28'
_cell_volume   551.96261035
_cell_formula_units_Z   4
loop_
 _symmetry_equiv_pos_site_id
 _symmetry_equiv_pos_as_xyz
  1  'x, y, z'
loop_
 _atom_site_type_symbol
 _atom_site_label
 _atom_site_symmetry_multiplicity
 _atom_site_fract_x
 _atom_site_fract_y
 _atom_site_fract_z
 _atom_site_occupancy
  Ho  Ho0  1  0.84115683  0.51005495  0.62552850  1
  Ho  Ho1  1  0.15884317  0.01005495  0.37447150  1
  Ho  Ho2  1  0.65884317  0.51005495  0.12552850  1
  Ho  Ho3  1  0.34115683  0.01005495  0.87447150  1
  Ho  Ho4  1  0.84115683  0.98994505  0.62552850  1
  Ho  Ho5  1  0.15884317  0.48994505  0.37447150  1
  Ho  Ho6  1  0.65884317  0.98994505  0.12552850  1
  Ho  Ho7  1  0.34115683  0.48994505  0.87447150  1
  Si  Si0  1  0.12432654  0.25000000  0.04134268  1
  Si  Si1  1  0.87567346  0.75000000  0.95865732  1
  Si  Si2  1  0.37567346  0.25000000  0.54134268  1
  Si  Si3  1  0.62432654  0.75000000  0.45865732  1
  Si  Si4  1  0.87926819  0.25000000  0.81823785  1
  Si  Si5  1  0.12073181  0.75000000  0.18176215  1
  Si  Si6  1  0.62073181  0.25000000  0.31823785  1
  Si  Si7  1  0.37926819  0.75000000  0.68176215  1
  O  O0  1  0.84571980  0.25000000  0.10101371  1
  O  O1  1  0.15428020  0.75000000  0.89898629  1
  O  O2  1  0.65428020  0.25000000  0.60101371  1
  O  O3  1  0.34571980  0.75000000  0.39898629  1
  O  O4  1  0.29168766  0.42009251  0.04839177  1
  O  O5  1  0.70831234  0.92009251  0.95160823  1
  O  O6  1  0.20831234  0.42009251  0.54839177  1
  O  O7  1  0.79168766  0.92009251  0.45160823  1
  O  O8  1  0.29168766  0.07990749  0.04839177  1
  O  O9  1  0.70831234  0.57990749  0.95160823  1
  O  O10  1  0.20831234  0.07990749  0.54839177  1
  O  O11  1  0.79168766  0.57990749  0.45160823  1
  O  O12  1  0.06297714  0.25000000  0.92022232  1
  O  O13  1  0.93702286  0.75000000  0.07977768  1
  O  O14  1  0.43702286  0.25000000  0.42022232  1
  O  O15  1  0.56297714  0.75000000  0.57977768  1
  O  O16  1  0.49153132  0.58459279  0.73351477  1
  O  O17  1  0.50846868  0.08459279  0.26648523  1
  O  O18  1  0.00846868  0.58459279  0.23351477  1
  O  O19  1  0.99153132  0.08459279  0.76648523  1
  O  O20  1  0.49153132  0.91540721  0.73351477  1
  O  O21  1  0.50846868  0.41540721  0.26648523  1
  O  O22  1  0.00846868  0.91540721  0.23351477  1
  O  O23  1  0.99153132  0.41540721  0.76648523  1
  O  O24  1  0.06680026  0.75000000  0.65532711  1
  O  O25  1  0.93319974  0.25000000  0.34467289  1
  O  O26  1  0.43319974  0.75000000  0.15532711  1
  O  O27  1  0.56680026  0.25000000  0.84467289  1
loop_
_geom_bond_atom_site_label_1
_geom_bond_atom_site_label_2
_geom_bond_distance
_geom_bond_site_symmetry_2
Ho0 O23 2.197426 1_555
Ho0 O6 2.241327 1_655
Ho0 O24 2.283603 1_655
Ho0 O2 2.327527 1_555
Ho0 O16 2.365764 1_555
Ho0 O11 2.443922 1_555
Ho0 O15 2.470631 1_555
Ho1 O22 2.197426 1_545
Ho1 O7 2.241327 1_445
Ho1 O25 2.283603 1_455
Ho1 O3 2.327527 1_545
Ho1 O17 2.365764 1_555
Ho1 O10 2.443922 1_555
Ho1 O14 2.470631 1_555
Ho2 O21 2.197426 1_555
Ho2 O4 2.241327 1_555
Ho2 O26 2.283603 1_555
Ho2 O0 2.327527 1_555
Ho2 O18 2.365764 1_655
Ho2 O9 2.443922 1_554
Ho2 O13 2.470631 1_555
Ho3 O20 2.197426 1_545
Ho3 O5 2.241327 1_545
Ho3 O27 2.283603 1_555
Ho3 O1 2.327527 1_545
Ho3 O19 2.365764 1_455
Ho3 O8 2.443922 1_556
Ho3 O12 2.470631 1_555
Ho4 O19 2.197426 1_565
Ho4 O10 2.241327 1_665
Ho4 O24 2.283603 1_655
Ho4 O2 2.327527 1_565
Ho4 O20 2.365764 1_555
Ho4 O7 2.443922 1_555
Ho4 O15 2.470631 1_555
Ho5 O18 2.197426 1_555
Ho5 O11 2.241327 1_455
Ho5 O25 2.283603 1_455
Ho5 O3 2.327527 1_555
Ho5 O21 2.365764 1_555
Ho5 O6 2.443922 1_555
Ho5 O14 2.470631 1_555
Ho6 O17 2.197426 1_565
Ho6 O8 2.241327 1_565
Ho6 O26 2.283603 1_555
Ho6 O0 2.327527 1_565
Ho6 O22 2.365764 1_655
Ho6 O5 2.443922 1_554
Ho6 O13 2.470631 1_555
Ho7 O16 2.197426 1_555
Ho7 O9 2.241327 1_555
Ho7 O27 2.283603 1_555
Ho7 O1 2.327527 1_555
Ho7 O23 2.365764 1_455
Ho7 O4 2.443922 1_556
Ho7 O12 2.470631 1_555
O0 Si0 1.616302 1_655
O1 Si1 1.616302 1_455
O2 Si2 1.616302 1_555
O3 Si3 1.616302 1_555
O4 Si0 1.615010 1_555
O5 Si1 1.615010 1_555
O6 Si2 1.615010 1_555
O7 Si3 1.615010 1_555
O8 Si0 1.615010 1_555
O9 Si1 1.615010 1_555
O10 Si2 1.615010 1_555
O11 Si3 1.615010 1_555
O12 Si4 1.665046 1_455
O12 Si0 1.675320 1_556
O13 Si5 1.665046 1_655
O13 Si1 1.675320 1_554
O14 Si6 1.665046 1_555
O14 Si2 1.675320 1_555
O15 Si7 1.665046 1_555
O15 Si3 1.675320 1_555
O16 Si7 1.613509 1_555
O17 Si6 1.613509 1_555
O18 Si5 1.613509 1_555
O19 Si4 1.613509 1_555
O20 Si7 1.613509 1_555
O21 Si6 1.613509 1_555
O22 Si5 1.613509 1_555
O23 Si4 1.613509 1_555
O24 Si7 1.608502 1_555
O25 Si6 1.608502 1_555
O26 Si5 1.608502 1_555
O27 Si4 1.608502 1_555
