# generated using pymatgen
data_Cd53Pd16
_symmetry_space_group_name_H-M   'P 1'
_cell_length_a   8.78681973
_cell_length_b   8.78681973
_cell_length_c   37.65772318
_cell_angle_alpha   90.00000000
_cell_angle_beta   90.00000000
_cell_angle_gamma   109.46309845
_symmetry_Int_Tables_number   1
_chemical_formula_structural   Cd53Pd16
_chemical_formula_sum   'Cd106 Pd32'
_cell_volume   2741.34056009
_cell_formula_units_Z   2
loop_
 _symmetry_equiv_pos_site_id
 _symmetry_equiv_pos_as_xyz
  1  'x, y, z'
loop_
 _atom_site_type_symbol
 _atom_site_label
 _atom_site_symmetry_multiplicity
 _atom_site_fract_x
 _atom_site_fract_y
 _atom_site_fract_z
 _atom_site_occupancy
  Cd  Cd0  1  0.56821993  0.21240665  0.29278729  1
  Cd  Cd1  1  0.43178007  0.78759335  0.70721271  1
  Cd  Cd2  1  0.93178007  0.28759335  0.79278729  1
  Cd  Cd3  1  0.71240665  0.06821993  0.20721271  1
  Cd  Cd4  1  0.06821993  0.71240665  0.20721271  1
  Cd  Cd5  1  0.28759335  0.93178007  0.79278729  1
  Cd  Cd6  1  0.78759335  0.43178007  0.70721271  1
  Cd  Cd7  1  0.21240665  0.56821993  0.29278729  1
  Cd  Cd8  1  0.30729755  0.08661734  0.34612750  1
  Cd  Cd9  1  0.69270245  0.91338266  0.65387250  1
  Cd  Cd10  1  0.19270245  0.41338266  0.84612750  1
  Cd  Cd11  1  0.58661734  0.80729755  0.15387250  1
  Cd  Cd12  1  0.80729755  0.58661734  0.15387250  1
  Cd  Cd13  1  0.41338266  0.19270245  0.84612750  1
  Cd  Cd14  1  0.91338266  0.69270245  0.65387250  1
  Cd  Cd15  1  0.08661734  0.30729755  0.34612750  1
  Cd  Cd16  1  0.26461344  0.91265148  0.27694281  1
  Cd  Cd17  1  0.73538656  0.08734852  0.72305719  1
  Cd  Cd18  1  0.23538656  0.58734852  0.77694281  1
  Cd  Cd19  1  0.41265148  0.76461344  0.22305719  1
  Cd  Cd20  1  0.76461344  0.41265148  0.22305719  1
  Cd  Cd21  1  0.58734852  0.23538656  0.77694281  1
  Cd  Cd22  1  0.08734852  0.73538656  0.72305719  1
  Cd  Cd23  1  0.91265148  0.26461344  0.27694281  1
  Cd  Cd24  1  0.48369089  0.48369089  0.19103209  1
  Cd  Cd25  1  0.51630911  0.51630911  0.80896791  1
  Cd  Cd26  1  0.01630911  0.01630911  0.69103209  1
  Cd  Cd27  1  0.98369089  0.98369089  0.30896791  1
  Cd  Cd28  1  0.45196734  0.45196734  0.34661986  1
  Cd  Cd29  1  0.54803266  0.54803266  0.65338014  1
  Cd  Cd30  1  0.04803266  0.04803266  0.84661986  1
  Cd  Cd31  1  0.95196734  0.95196734  0.15338014  1
  Cd  Cd32  1  0.41426748  0.77195192  0.08494758  1
  Cd  Cd33  1  0.58573252  0.22804808  0.91505242  1
  Cd  Cd34  1  0.08573252  0.72804808  0.58494758  1
  Cd  Cd35  1  0.27195192  0.91426748  0.41505242  1
  Cd  Cd36  1  0.91426748  0.27195192  0.41505242  1
  Cd  Cd37  1  0.72804808  0.08573252  0.58494758  1
  Cd  Cd38  1  0.22804808  0.58573252  0.91505242  1
  Cd  Cd39  1  0.77195192  0.41426748  0.08494758  1
  Cd  Cd40  1  0.03665039  0.03665039  0.07666537  1
  Cd  Cd41  1  0.96334961  0.96334961  0.92333463  1
  Cd  Cd42  1  0.46334961  0.46334961  0.57666537  1
  Cd  Cd43  1  0.53665039  0.53665039  0.42333463  1
  Cd  Cd44  1  0.72315259  0.07918605  0.10237595  1
  Cd  Cd45  1  0.27684741  0.92081395  0.89762405  1
  Cd  Cd46  1  0.77684741  0.42081395  0.60237595  1
  Cd  Cd47  1  0.57918605  0.22315259  0.39762405  1
  Cd  Cd48  1  0.22315259  0.57918605  0.39762405  1
  Cd  Cd49  1  0.42081395  0.77684741  0.60237595  1
  Cd  Cd50  1  0.92081395  0.27684741  0.89762405  1
  Cd  Cd51  1  0.07918605  0.72315259  0.10237595  1
  Cd  Cd52  1  0.68288664  0.91663809  0.03178297  1
  Cd  Cd53  1  0.31711336  0.08336191  0.96821703  1
  Cd  Cd54  1  0.81711336  0.58336191  0.53178297  1
  Cd  Cd55  1  0.41663809  0.18288664  0.46821703  1
  Cd  Cd56  1  0.18288664  0.41663809  0.46821703  1
  Cd  Cd57  1  0.58336191  0.81711336  0.53178297  1
  Cd  Cd58  1  0.08336191  0.31711336  0.96821703  1
  Cd  Cd59  1  0.91663809  0.68288664  0.03178297  1
  Cd  Cd60  1  0.40062565  0.15848257  0.21966919  1
  Cd  Cd61  1  0.59937435  0.84151743  0.78033081  1
  Cd  Cd62  1  0.09937435  0.34151743  0.71966919  1
  Cd  Cd63  1  0.65848257  0.90062565  0.28033081  1
  Cd  Cd64  1  0.90062565  0.65848257  0.28033081  1
  Cd  Cd65  1  0.34151743  0.09937435  0.71966919  1
  Cd  Cd66  1  0.84151743  0.59937435  0.78033081  1
  Cd  Cd67  1  0.15848257  0.40062565  0.21966919  1
  Cd  Cd68  1  -0.00000000  0.00000000  -0.00000000  1
  Cd  Cd69  1  0.50000000  0.50000000  0.50000000  1
  Cd  Cd70  1  0.47047475  0.47047475  0.11344687  1
  Cd  Cd71  1  0.52952525  0.52952525  0.88655313  1
  Cd  Cd72  1  0.02952525  0.02952525  0.61344687  1
  Cd  Cd73  1  0.97047475  0.97047475  0.38655313  1
  Cd  Cd74  1  0.05210745  0.05210745  0.46388984  1
  Cd  Cd75  1  0.94789255  0.94789255  0.53611016  1
  Cd  Cd76  1  0.44789255  0.44789255  0.96388984  1
  Cd  Cd77  1  0.55210745  0.55210745  0.03611016  1
  Cd  Cd78  1  0.31500256  0.94388120  0.15715233  1
  Cd  Cd79  1  0.68499744  0.05611880  0.84284767  1
  Cd  Cd80  1  0.18499744  0.55611880  0.65715233  1
  Cd  Cd81  1  0.44388120  0.81500256  0.34284767  1
  Cd  Cd82  1  0.81500256  0.44388120  0.34284767  1
  Cd  Cd83  1  0.55611880  0.18499744  0.65715233  1
  Cd  Cd84  1  0.05611880  0.68499744  0.84284767  1
  Cd  Cd85  1  0.94388120  0.31500256  0.15715233  1
  Cd  Cd86  1  0.03874736  0.03874736  0.22795982  1
  Cd  Cd87  1  0.96125264  0.96125264  0.77204018  1
  Cd  Cd88  1  0.46125264  0.46125264  0.72795982  1
  Cd  Cd89  1  0.53874736  0.53874736  0.27204018  1
  Cd  Cd90  1  0.56534065  0.19126067  0.02323708  1
  Cd  Cd91  1  0.43465935  0.80873933  0.97676292  1
  Cd  Cd92  1  0.93465935  0.30873933  0.52323708  1
  Cd  Cd93  1  0.69126067  0.06534065  0.47676292  1
  Cd  Cd94  1  0.06534065  0.69126067  0.47676292  1
  Cd  Cd95  1  0.30873933  0.93465935  0.52323708  1
  Cd  Cd96  1  0.80873933  0.43465935  0.97676292  1
  Cd  Cd97  1  0.19126067  0.56534065  0.02323708  1
  Cd  Cd98  1  0.38527784  0.13391657  0.09158484  1
  Cd  Cd99  1  0.61472216  0.86608343  0.90841516  1
  Cd  Cd100  1  0.11472216  0.36608343  0.59158484  1
  Cd  Cd101  1  0.63391657  0.88527784  0.40841516  1
  Cd  Cd102  1  0.88527784  0.63391657  0.40841516  1
  Cd  Cd103  1  0.36608343  0.11472216  0.59158484  1
  Cd  Cd104  1  0.86608343  0.61472216  0.90841516  1
  Cd  Cd105  1  0.13391657  0.38527784  0.09158484  1
  Pd  Pd0  1  0.27245488  0.27245488  0.02998328  1
  Pd  Pd1  1  0.72754512  0.72754512  0.97001672  1
  Pd  Pd2  1  0.22754512  0.22754512  0.52998328  1
  Pd  Pd3  1  0.77245488  0.77245488  0.47001672  1
  Pd  Pd4  1  0.23017414  0.23017414  0.15674578  1
  Pd  Pd5  1  0.76982586  0.76982586  0.84325422  1
  Pd  Pd6  1  0.26982586  0.26982586  0.65674578  1
  Pd  Pd7  1  0.73017414  0.73017414  0.34325422  1
  Pd  Pd8  1  0.25440091  0.25440091  0.40717715  1
  Pd  Pd9  1  0.74559909  0.74559909  0.59282285  1
  Pd  Pd10  1  0.24559909  0.24559909  0.90717715  1
  Pd  Pd11  1  0.75440091  0.75440091  0.09282285  1
  Pd  Pd12  1  0.25403933  0.25403933  0.28098928  1
  Pd  Pd13  1  0.74596067  0.74596067  0.71901072  1
  Pd  Pd14  1  0.24596067  0.24596067  0.78098928  1
  Pd  Pd15  1  0.75403933  0.75403933  0.21901072  1
  Pd  Pd16  1  0.59784043  0.24304334  0.15497162  1
  Pd  Pd17  1  0.40215957  0.75695666  0.84502838  1
  Pd  Pd18  1  0.90215957  0.25695666  0.65497162  1
  Pd  Pd19  1  0.74304334  0.09784043  0.34502838  1
  Pd  Pd20  1  0.09784043  0.74304334  0.34502838  1
  Pd  Pd21  1  0.25695666  0.90215957  0.65497162  1
  Pd  Pd22  1  0.75695666  0.40215957  0.84502838  1
  Pd  Pd23  1  0.24304334  0.59784043  0.15497162  1
  Pd  Pd24  1  0.25619116  0.90587741  0.03515649  1
  Pd  Pd25  1  0.74380884  0.09412259  0.96484351  1
  Pd  Pd26  1  0.24380884  0.59412259  0.53515649  1
  Pd  Pd27  1  0.40587741  0.75619116  0.46484351  1
  Pd  Pd28  1  0.75619116  0.40587741  0.46484351  1
  Pd  Pd29  1  0.59412259  0.24380884  0.53515649  1
  Pd  Pd30  1  0.09412259  0.74380884  0.96484351  1
  Pd  Pd31  1  0.90587741  0.25619116  0.03515649  1
loop_
_geom_bond_atom_site_label_1
_geom_bond_atom_site_label_2
_geom_bond_distance
_geom_bond_site_symmetry_2
Cd0 Pd19 2.876426 1_555
Cd0 Pd12 2.936901 1_555
Cd0 Cd23 2.966599 1_555
Cd0 Cd89 3.065107 1_555
Cd0 Cd16 3.118934 1_545
Cd0 Cd20 3.308422 1_555
Cd0 Cd28 3.319165 1_555
Cd1 Pd21 2.876426 1_555
Cd1 Pd13 2.936901 1_555
Cd1 Cd22 2.966599 1_555
Cd1 Cd88 3.065107 1_555
Cd1 Cd17 3.118934 1_565
Cd1 Cd18 3.308422 1_555
Cd1 Cd29 3.319165 1_555
Cd2 Pd22 2.876426 1_555
Cd2 Pd14 2.936901 1_655
Cd2 Cd21 2.966599 1_555
Cd2 Cd87 3.065107 1_545
Cd2 Cd30 3.319165 1_655
Cd3 Pd16 2.876426 1_555
Cd3 Pd15 2.936901 1_545
Cd3 Cd86 3.065107 1_655
Cd3 Cd31 3.319165 1_545
Cd4 Pd23 2.876426 1_555
Cd4 Pd15 2.936901 1_455
Cd4 Cd86 3.065107 1_565
Cd5 Pd17 2.876426 1_555
Cd5 Pd14 2.936901 1_565
Cd5 Cd87 3.065107 1_455
Cd6 Pd18 2.876426 1_555
Cd6 Pd13 2.936901 1_555
Cd6 Cd88 3.065107 1_555
Cd7 Pd20 2.876426 1_555
Cd7 Pd12 2.936901 1_555
Cd7 Cd89 3.065107 1_555
Cd8 Pd8 2.851587 1_555
Cd8 Pd20 2.966522 1_545
Cd8 Pd12 2.976394 1_555
Cd9 Pd9 2.851587 1_555
Cd9 Pd18 2.966522 1_565
Cd9 Pd13 2.976394 1_555
Cd10 Pd10 2.851587 1_555
Cd10 Pd17 2.966522 1_555
Cd10 Pd14 2.976394 1_555
Cd10 Cd18 2.980442 1_555
Cd10 Cd50 2.999576 1_455
Cd10 Cd25 3.024518 1_555
Cd10 Cd30 3.033576 1_555
Cd10 Cd71 3.178909 1_555
Cd11 Pd11 2.851587 1_555
Cd11 Pd23 2.966522 1_555
Cd11 Pd15 2.976394 1_555
Cd11 Cd19 2.980442 1_555
Cd11 Cd44 2.999576 1_565
Cd11 Cd24 3.024518 1_555
Cd11 Cd31 3.033576 1_555
Cd11 Cd70 3.178909 1_555
Cd12 Pd11 2.851587 1_555
Cd12 Pd16 2.966522 1_555
Cd12 Pd15 2.976394 1_555
Cd12 Cd20 2.980442 1_555
Cd12 Cd51 2.999576 1_655
Cd12 Cd24 3.024518 1_555
Cd12 Cd31 3.033576 1_555
Cd12 Cd70 3.178909 1_555
Cd13 Pd10 2.851587 1_555
Cd13 Pd22 2.966522 1_555
Cd13 Pd14 2.976394 1_555
Cd13 Cd21 2.980442 1_555
Cd13 Cd45 2.999576 1_545
Cd13 Cd25 3.024518 1_555
Cd13 Cd30 3.033576 1_555
Cd13 Cd71 3.178909 1_555
Cd14 Pd9 2.851587 1_555
Cd14 Pd21 2.966522 1_655
Cd14 Pd13 2.976394 1_555
Cd14 Cd22 2.980442 1_655
Cd14 Cd46 2.999576 1_555
Cd14 Cd26 3.024518 1_665
Cd14 Cd29 3.033576 1_555
Cd14 Cd72 3.178909 1_665
Cd15 Pd8 2.851587 1_555
Cd15 Pd19 2.966522 1_455
Cd15 Pd12 2.976394 1_555
Cd15 Cd23 2.980442 1_455
Cd15 Cd48 2.999576 1_555
Cd15 Cd27 3.024518 1_445
Cd15 Cd28 3.033576 1_555
Cd15 Cd73 3.178909 1_445
Cd16 Cd19 2.937574 1_555
Cd16 Cd7 2.966599 1_555
Cd16 Cd8 2.980442 1_565
Cd16 Cd27 2.993982 1_455
Cd16 Cd60 3.004271 1_565
Cd16 Pd12 3.035765 1_565
Cd16 Pd20 3.080084 1_555
Cd16 Cd86 3.167700 1_565
Cd16 Cd81 3.205866 1_555
Cd16 Cd64 3.236226 1_455
Cd16 Cd4 3.308422 1_555
Cd16 Cd63 3.499811 1_555
Cd17 Cd21 2.937574 1_555
Cd17 Cd6 2.966599 1_555
Cd17 Cd9 2.980442 1_545
Cd17 Cd26 2.993982 1_655
Cd17 Cd61 3.004271 1_545
Cd17 Pd13 3.035765 1_545
Cd17 Pd18 3.080084 1_555
Cd17 Cd87 3.167700 1_545
Cd17 Cd83 3.205866 1_555
Cd17 Cd62 3.236226 1_655
Cd17 Cd2 3.308422 1_555
Cd17 Cd65 3.499811 1_555
Cd18 Cd22 2.937574 1_555
Cd18 Cd5 2.966599 1_555
Cd18 Cd25 2.993982 1_555
Cd18 Cd62 3.004271 1_555
Cd18 Pd14 3.035765 1_555
Cd18 Pd17 3.080084 1_555
Cd18 Cd2 3.118934 1_455
Cd18 Cd88 3.167700 1_555
Cd18 Cd84 3.205866 1_555
Cd18 Cd61 3.236226 1_555
Cd18 Cd66 3.499811 1_455
Cd19 Cd4 2.966599 1_555
Cd19 Cd24 2.993982 1_555
Cd19 Cd63 3.004271 1_555
Cd19 Pd15 3.035765 1_555
Cd19 Pd23 3.080084 1_555
Cd19 Cd3 3.118934 1_565
Cd19 Cd89 3.167700 1_555
Cd19 Cd78 3.205866 1_555
Cd19 Cd67 3.236226 1_555
Cd19 Cd7 3.308422 1_555
Cd19 Cd60 3.499811 1_565
Cd20 Cd23 2.937574 1_555
Cd20 Cd3 2.966599 1_555
Cd20 Cd24 2.993982 1_555
Cd20 Cd64 3.004271 1_555
Cd20 Pd15 3.035765 1_555
Cd20 Pd16 3.080084 1_555
Cd20 Cd4 3.118934 1_655
Cd20 Cd89 3.167700 1_555
Cd20 Cd85 3.205866 1_555
Cd20 Cd60 3.236226 1_555
Cd20 Cd67 3.499811 1_655
Cd21 Cd25 2.993982 1_555
Cd21 Cd65 3.004271 1_555
Cd21 Pd14 3.035765 1_555
Cd21 Pd22 3.080084 1_555
Cd21 Cd5 3.118934 1_545
Cd21 Cd88 3.167700 1_555
Cd21 Cd79 3.205866 1_555
Cd21 Cd66 3.236226 1_555
Cd21 Cd6 3.308422 1_555
Cd21 Cd61 3.499811 1_545
Cd22 Cd26 2.993982 1_565
Cd22 Cd66 3.004271 1_455
Cd22 Pd13 3.035765 1_455
Cd22 Pd21 3.080084 1_555
Cd22 Cd6 3.118934 1_455
Cd22 Cd87 3.167700 1_455
Cd22 Cd80 3.205866 1_555
Cd22 Cd65 3.236226 1_565
Cd22 Cd5 3.308422 1_555
Cd22 Cd62 3.499811 1_555
Cd23 Cd27 2.993982 1_545
Cd23 Cd67 3.004271 1_655
Cd23 Pd12 3.035765 1_655
Cd23 Pd19 3.080084 1_555
Cd23 Cd7 3.118934 1_655
Cd23 Cd86 3.167700 1_655
Cd23 Cd82 3.205866 1_555
Cd23 Cd63 3.236226 1_545
Cd23 Cd3 3.308422 1_555
Cd23 Cd64 3.499811 1_555
Cd24 Pd4 2.878313 1_555
Cd24 Cd60 2.910563 1_555
Cd24 Cd67 2.910563 1_555
Cd24 Cd70 2.924759 1_555
Cd24 Pd15 2.938643 1_555
Cd24 Pd16 2.955446 1_555
Cd24 Pd23 2.955446 1_555
Cd24 Cd89 3.101314 1_555
Cd25 Pd5 2.878313 1_555
Cd25 Cd66 2.910563 1_555
Cd25 Cd61 2.910563 1_555
Cd25 Cd71 2.924759 1_555
Cd25 Pd14 2.938643 1_555
Cd25 Pd17 2.955446 1_555
Cd25 Pd22 2.955446 1_555
Cd25 Cd88 3.101314 1_555
Cd26 Pd6 2.878313 1_555
Cd26 Cd65 2.910563 1_555
Cd26 Cd62 2.910563 1_555
Cd26 Cd72 2.924759 1_555
Cd26 Pd13 2.938643 1_445
Cd26 Pd18 2.955446 1_455
Cd26 Pd21 2.955446 1_545
Cd26 Cd9 3.024518 1_445
Cd26 Cd87 3.101314 1_445
Cd27 Pd7 2.878313 1_555
Cd27 Cd64 2.910563 1_555
Cd27 Cd63 2.910563 1_555
Cd27 Cd73 2.924759 1_555
Cd27 Pd12 2.938643 1_665
Cd27 Pd19 2.955446 1_565
Cd27 Pd20 2.955446 1_655
Cd27 Cd8 3.024518 1_665
Cd27 Cd86 3.101314 1_665
Cd28 Pd7 2.825853 1_555
Cd28 Cd89 2.943312 1_555
Cd28 Cd43 3.013992 1_555
Cd28 Cd8 3.033576 1_555
Cd28 Pd8 3.036351 1_555
Cd28 Pd12 3.184651 1_555
Cd28 Cd81 3.217435 1_555
Cd28 Cd82 3.217435 1_555
Cd28 Cd48 3.237087 1_555
Cd28 Cd47 3.237087 1_555
Cd28 Cd7 3.319165 1_555
Cd29 Pd6 2.825853 1_555
Cd29 Cd88 2.943312 1_555
Cd29 Cd42 3.013992 1_555
Cd29 Cd9 3.033576 1_555
Cd29 Pd9 3.036351 1_555
Cd29 Pd13 3.184651 1_555
Cd29 Cd80 3.217435 1_555
Cd29 Cd83 3.217435 1_555
Cd29 Cd49 3.237087 1_555
Cd29 Cd46 3.237087 1_555
Cd29 Cd6 3.319165 1_555
Cd30 Pd5 2.825853 1_445
Cd30 Cd87 2.943312 1_445
Cd30 Cd41 3.013992 1_445
Cd30 Pd10 3.036351 1_555
Cd30 Pd14 3.184651 1_555
Cd30 Cd84 3.217435 1_545
Cd30 Cd79 3.217435 1_455
Cd30 Cd50 3.237087 1_455
Cd30 Cd45 3.237087 1_545
Cd30 Cd5 3.319165 1_545
Cd31 Pd4 2.825853 1_665
Cd31 Cd86 2.943312 1_665
Cd31 Cd40 3.013992 1_665
Cd31 Pd11 3.036351 1_555
Cd31 Pd15 3.184651 1_555
Cd31 Cd85 3.217435 1_565
Cd31 Cd78 3.217435 1_655
Cd31 Cd44 3.237087 1_565
Cd31 Cd51 3.237087 1_655
Cd31 Cd4 3.319165 1_655
Cd32 Pd24 2.814080 1_555
Cd32 Cd51 2.905545 1_555
Cd32 Cd70 3.047115 1_555
Cd32 Pd11 3.057966 1_555
Cd32 Pd23 3.166027 1_555
Cd32 Cd44 3.194109 1_565
Cd33 Pd25 2.814080 1_555
Cd33 Cd50 2.905545 1_555
Cd33 Cd71 3.047115 1_555
Cd33 Pd10 3.057966 1_555
Cd33 Pd22 3.166027 1_555
Cd33 Cd45 3.194109 1_545
Cd34 Pd26 2.814080 1_555
Cd34 Cd49 2.905545 1_555
Cd34 Cd72 3.047115 1_565
Cd34 Pd9 3.057966 1_455
Cd34 Pd21 3.166027 1_555
Cd34 Cd46 3.194109 1_455
Cd35 Pd27 2.814080 1_555
Cd35 Cd48 2.905545 1_555
Cd35 Cd73 3.047115 1_455
Cd35 Pd8 3.057966 1_565
Cd35 Pd20 3.166027 1_555
Cd35 Cd47 3.194109 1_565
Cd36 Pd28 2.814080 1_555
Cd36 Cd47 2.905545 1_555
Cd36 Cd73 3.047115 1_545
Cd36 Pd8 3.057966 1_655
Cd36 Pd19 3.166027 1_555
Cd36 Cd48 3.194109 1_655
Cd37 Pd29 2.814080 1_555
Cd37 Cd46 2.905545 1_555
Cd37 Cd72 3.047115 1_655
Cd37 Pd9 3.057966 1_545
Cd37 Pd18 3.166027 1_555
Cd37 Cd49 3.194109 1_545
Cd38 Pd30 2.814080 1_555
Cd38 Cd45 2.905545 1_555
Cd38 Cd71 3.047115 1_555
Cd38 Pd10 3.057966 1_555
Cd38 Pd17 3.166027 1_555
Cd38 Cd50 3.194109 1_455
Cd39 Pd31 2.814080 1_555
Cd39 Cd44 2.905545 1_555
Cd39 Cd70 3.047115 1_555
Cd39 Pd11 3.057966 1_555
Cd39 Pd16 3.166027 1_555
Cd39 Cd51 3.194109 1_655
Cd40 Cd68 2.910898 1_555
Cd40 Pd11 2.927950 1_445
Cd40 Pd0 2.969106 1_555
Cd40 Pd24 2.993697 1_545
Cd40 Pd31 2.993697 1_455
Cd40 Cd44 3.057988 1_455
Cd40 Cd51 3.057988 1_545
Cd41 Cd68 2.910898 1_666
Cd41 Pd10 2.927950 1_665
Cd41 Pd1 2.969106 1_555
Cd41 Pd30 2.993697 1_655
Cd41 Pd25 2.993697 1_565
Cd41 Cd50 3.057988 1_565
Cd41 Cd45 3.057988 1_655
Cd42 Cd69 2.910898 1_555
Cd42 Pd9 2.927950 1_555
Cd42 Pd2 2.969106 1_555
Cd42 Pd26 2.993697 1_555
Cd42 Pd29 2.993697 1_555
Cd42 Cd49 3.057988 1_555
Cd42 Cd46 3.057988 1_555
Cd43 Cd69 2.910898 1_555
Cd43 Pd8 2.927950 1_555
Cd43 Pd3 2.969106 1_555
Cd43 Pd27 2.993697 1_555
Cd43 Pd28 2.993697 1_555
Cd43 Cd48 3.057988 1_555
Cd43 Cd47 3.057988 1_555
Cd44 Pd16 2.874851 1_555
Cd44 Pd11 2.978477 1_545
Cd44 Cd52 2.982506 1_545
Cd44 Cd85 3.103547 1_555
Cd44 Pd31 3.120959 1_555
Cd44 Cd98 3.187772 1_555
Cd45 Pd17 2.874851 1_555
Cd45 Pd10 2.978477 1_565
Cd45 Cd53 2.982506 1_565
Cd45 Cd84 3.103547 1_555
Cd45 Pd30 3.120959 1_555
Cd45 Cd99 3.187772 1_555
Cd46 Pd18 2.874851 1_555
Cd46 Pd9 2.978477 1_555
Cd46 Cd54 2.982506 1_555
Cd46 Cd83 3.103547 1_555
Cd46 Pd29 3.120959 1_555
Cd47 Pd19 2.874851 1_555
Cd47 Pd8 2.978477 1_555
Cd47 Cd55 2.982506 1_555
Cd47 Cd8 2.999576 1_555
Cd47 Cd82 3.103547 1_555
Cd47 Pd28 3.120959 1_555
Cd48 Pd20 2.874851 1_555
Cd48 Pd8 2.978477 1_555
Cd48 Cd56 2.982506 1_555
Cd48 Cd81 3.103547 1_555
Cd48 Pd27 3.120959 1_555
Cd49 Pd21 2.874851 1_555
Cd49 Pd9 2.978477 1_555
Cd49 Cd57 2.982506 1_555
Cd49 Cd9 2.999576 1_555
Cd49 Cd80 3.103547 1_555
Cd49 Pd26 3.120959 1_555
Cd50 Pd22 2.874851 1_555
Cd50 Pd10 2.978477 1_655
Cd50 Cd58 2.982506 1_655
Cd50 Cd79 3.103547 1_555
Cd50 Pd25 3.120959 1_555
Cd51 Pd23 2.874851 1_555
Cd51 Pd11 2.978477 1_455
Cd51 Cd59 2.982506 1_455
Cd51 Cd78 3.103547 1_555
Cd51 Pd24 3.120959 1_555
Cd52 Pd11 2.882304 1_555
Cd52 Cd68 2.893620 1_665
Cd52 Pd25 2.918341 1_564
Cd52 Pd1 2.959612 1_554
Cd52 Pd31 2.976804 1_565
Cd53 Pd10 2.882304 1_555
Cd53 Cd68 2.893620 1_556
Cd53 Pd24 2.918341 1_546
Cd53 Pd0 2.959612 1_556
Cd53 Pd30 2.976804 1_545
Cd54 Pd9 2.882304 1_555
Cd54 Cd69 2.893620 1_555
Cd54 Pd28 2.918341 1_555
Cd54 Pd3 2.959612 1_555
Cd54 Pd29 2.976804 1_555
Cd55 Pd8 2.882304 1_555
Cd55 Cd69 2.893620 1_555
Cd55 Pd29 2.918341 1_555
Cd55 Pd2 2.959612 1_555
Cd55 Pd28 2.976804 1_555
Cd56 Pd8 2.882304 1_555
Cd56 Cd69 2.893620 1_555
Cd56 Pd26 2.918341 1_555
Cd56 Pd2 2.959612 1_555
Cd56 Pd27 2.976804 1_555
Cd57 Pd9 2.882304 1_555
Cd57 Cd69 2.893620 1_555
Cd57 Pd27 2.918341 1_555
Cd57 Pd3 2.959612 1_555
Cd57 Pd26 2.976804 1_555
Cd58 Pd10 2.882304 1_555
Cd58 Cd68 2.893620 1_556
Cd58 Pd31 2.918341 1_456
Cd58 Pd0 2.959612 1_556
Cd58 Pd25 2.976804 1_455
Cd59 Pd11 2.882304 1_555
Cd59 Cd68 2.893620 1_665
Cd59 Pd30 2.918341 1_654
Cd59 Pd1 2.959612 1_554
Cd59 Pd24 2.976804 1_655
Cd60 Pd12 2.901206 1_555
Cd60 Pd16 2.938166 1_555
Cd60 Pd4 2.980524 1_555
Cd60 Cd86 3.014277 1_555
Cd61 Pd13 2.901206 1_555
Cd61 Pd17 2.938166 1_555
Cd61 Pd5 2.980524 1_555
Cd61 Cd87 3.014277 1_555
Cd62 Pd14 2.901206 1_555
Cd62 Pd18 2.938166 1_455
Cd62 Pd6 2.980524 1_555
Cd62 Cd88 3.014277 1_555
Cd63 Pd15 2.901206 1_555
Cd63 Pd19 2.938166 1_565
Cd63 Pd7 2.980524 1_555
Cd63 Cd89 3.014277 1_555
Cd64 Pd15 2.901206 1_555
Cd64 Pd20 2.938166 1_655
Cd64 Pd7 2.980524 1_555
Cd64 Cd89 3.014277 1_555
Cd65 Pd14 2.901206 1_555
Cd65 Pd21 2.938166 1_545
Cd65 Pd6 2.980524 1_555
Cd65 Cd88 3.014277 1_555
Cd66 Pd13 2.901206 1_555
Cd66 Pd22 2.938166 1_555
Cd66 Pd5 2.980524 1_555
Cd66 Cd87 3.014277 1_555
Cd67 Pd12 2.901206 1_555
Cd67 Pd23 2.938166 1_555
Cd67 Pd4 2.980524 1_555
Cd67 Cd86 3.014277 1_555
Cd68 Pd30 2.957175 1_544
Cd68 Pd25 2.957175 1_454
Cd68 Pd24 2.957175 1_545
Cd68 Pd31 2.957175 1_455
Cd68 Pd1 2.986323 1_444
Cd68 Pd0 2.986323 1_555
Cd69 Pd29 2.957175 1_555
Cd69 Pd27 2.957175 1_555
Cd69 Pd28 2.957175 1_555
Cd69 Pd26 2.957175 1_555
Cd69 Pd2 2.986323 1_555
Cd69 Pd3 2.986323 1_555
Cd70 Cd98 2.916912 1_555
Cd70 Pd4 2.933309 1_555
Cd70 Pd11 2.983892 1_555
Cd70 Cd77 3.027834 1_555
Cd70 Pd16 3.030133 1_555
Cd70 Pd23 3.030133 1_555
Cd71 Cd99 2.916912 1_555
Cd71 Pd5 2.933309 1_555
Cd71 Pd10 2.983892 1_555
Cd71 Cd76 3.027834 1_555
Cd71 Pd17 3.030133 1_555
Cd71 Pd22 3.030133 1_555
Cd72 Pd6 2.933309 1_555
Cd72 Pd9 2.983892 1_445
Cd72 Cd75 3.027834 1_445
Cd72 Pd18 3.030133 1_455
Cd72 Pd21 3.030133 1_545
Cd72 Cd9 3.178909 1_445
Cd73 Pd7 2.933309 1_555
Cd73 Pd8 2.983892 1_665
Cd73 Cd74 3.027834 1_665
Cd73 Pd19 3.030133 1_565
Cd73 Pd20 3.030133 1_655
Cd73 Cd8 3.178909 1_665
Cd74 Pd3 2.847044 1_445
Cd74 Pd8 2.962210 1_555
Cd74 Pd2 3.060042 1_555
Cd75 Pd2 2.847044 1_665
Cd75 Pd9 2.962210 1_555
Cd75 Pd3 3.060042 1_555
Cd76 Pd1 2.847044 1_555
Cd76 Pd10 2.962210 1_555
Cd76 Pd0 3.060042 1_556
Cd77 Pd0 2.847044 1_555
Cd77 Pd11 2.962210 1_555
Cd77 Pd1 3.060042 1_554
Cd78 Pd4 2.851950 1_565
Cd78 Pd23 2.893197 1_555
Cd78 Pd16 2.956287 1_565
Cd79 Pd5 2.851950 1_545
Cd79 Pd22 2.893197 1_555
Cd79 Pd17 2.956287 1_545
Cd80 Pd6 2.851950 1_555
Cd80 Pd21 2.893197 1_555
Cd80 Pd18 2.956287 1_455
Cd81 Pd7 2.851950 1_555
Cd81 Pd20 2.893197 1_555
Cd81 Pd19 2.956287 1_565
Cd82 Pd7 2.851950 1_555
Cd82 Pd19 2.893197 1_555
Cd82 Pd20 2.956287 1_655
Cd83 Pd6 2.851950 1_555
Cd83 Pd18 2.893197 1_555
Cd83 Pd21 2.956287 1_545
Cd84 Pd5 2.851950 1_455
Cd84 Pd17 2.893197 1_555
Cd84 Pd22 2.956287 1_455
Cd85 Pd4 2.851950 1_655
Cd85 Pd16 2.893197 1_555
Cd85 Pd23 2.956287 1_655
Cd86 Pd15 2.908568 1_445
Cd86 Pd12 2.959793 1_555
Cd86 Pd4 3.311329 1_555
Cd87 Pd14 2.908568 1_665
Cd87 Pd13 2.959793 1_555
Cd87 Pd5 3.311329 1_555
Cd88 Pd13 2.908568 1_555
Cd88 Pd14 2.959793 1_555
Cd88 Pd6 3.311329 1_555
Cd89 Pd12 2.908568 1_555
Cd89 Pd15 2.959793 1_555
Cd89 Pd7 3.311329 1_555
Cd90 Pd31 2.888390 1_555
Cd90 Pd0 2.901752 1_555
Cd90 Pd25 2.985817 1_554
Cd90 Pd24 3.054386 1_545
Cd91 Pd30 2.888390 1_555
Cd91 Pd1 2.901752 1_555
Cd91 Pd24 2.985817 1_556
Cd91 Pd25 3.054386 1_565
Cd92 Pd29 2.888390 1_555
Cd92 Pd2 2.901752 1_655
Cd92 Pd28 2.985817 1_555
Cd92 Pd26 3.054386 1_655
Cd93 Pd28 2.888390 1_555
Cd93 Pd3 2.901752 1_545
Cd93 Pd29 2.985817 1_555
Cd93 Pd27 3.054386 1_545
Cd94 Pd27 2.888390 1_555
Cd94 Pd3 2.901752 1_455
Cd94 Pd26 2.985817 1_555
Cd94 Pd28 3.054386 1_455
Cd95 Pd26 2.888390 1_555
Cd95 Pd2 2.901752 1_565
Cd95 Pd27 2.985817 1_555
Cd95 Pd29 3.054386 1_565
Cd96 Pd25 2.888390 1_555
Cd96 Pd1 2.901752 1_555
Cd96 Pd31 2.985817 1_556
Cd96 Pd30 3.054386 1_655
Cd97 Pd24 2.888390 1_555
Cd97 Pd0 2.901752 1_555
Cd97 Pd30 2.985817 1_554
Cd97 Pd31 3.054386 1_455
Cd98 Pd24 2.881392 1_545
Cd98 Pd0 2.941120 1_555
Cd98 Pd16 2.985335 1_555
Cd98 Pd4 3.059762 1_555
Cd99 Pd25 2.881392 1_565
Cd99 Pd1 2.941120 1_555
Cd99 Pd17 2.985335 1_555
Cd99 Pd5 3.059762 1_555
Cd100 Pd26 2.881392 1_555
Cd100 Cd72 2.916912 1_555
Cd100 Pd2 2.941120 1_555
Cd100 Pd18 2.985335 1_455
Cd100 Pd6 3.059762 1_555
Cd100 Cd46 3.187772 1_455
Cd101 Pd27 2.881392 1_555
Cd101 Cd73 2.916912 1_555
Cd101 Pd3 2.941120 1_555
Cd101 Pd19 2.985335 1_565
Cd101 Pd7 3.059762 1_555
Cd101 Cd47 3.187772 1_565
Cd102 Pd28 2.881392 1_555
Cd102 Cd73 2.916912 1_555
Cd102 Pd3 2.941120 1_555
Cd102 Pd20 2.985335 1_655
Cd102 Pd7 3.059762 1_555
Cd102 Cd48 3.187772 1_655
Cd103 Pd29 2.881392 1_555
Cd103 Cd72 2.916912 1_555
Cd103 Pd2 2.941120 1_555
Cd103 Pd21 2.985335 1_545
Cd103 Pd6 3.059762 1_555
Cd103 Cd49 3.187772 1_545
Cd104 Pd30 2.881392 1_655
Cd104 Cd71 2.916912 1_555
Cd104 Pd1 2.941120 1_555
Cd104 Pd22 2.985335 1_555
Cd104 Pd5 3.059762 1_555
Cd104 Cd50 3.187772 1_555
Cd105 Pd31 2.881392 1_455
Cd105 Cd70 2.916912 1_555
Cd105 Pd0 2.941120 1_555
Cd105 Pd23 2.985335 1_555
Cd105 Pd4 3.059762 1_555
Cd105 Cd51 3.187772 1_555
