# generated using pymatgen
data_Mg6CuBi
_symmetry_space_group_name_H-M   'P 1'
_cell_length_a   5.02131400
_cell_length_b   6.20471500
_cell_length_c   11.46868300
_cell_angle_alpha   90.00000000
_cell_angle_beta   90.00000000
_cell_angle_gamma   90.00000000
_symmetry_Int_Tables_number   1
_chemical_formula_structural   Mg6CuBi
_chemical_formula_sum   'Mg12 Cu2 Bi2'
_cell_volume   357.31624951
_cell_formula_units_Z   2
loop_
 _symmetry_equiv_pos_site_id
 _symmetry_equiv_pos_as_xyz
  1  'x, y, z'
loop_
 _atom_site_type_symbol
 _atom_site_label
 _atom_site_symmetry_multiplicity
 _atom_site_fract_x
 _atom_site_fract_y
 _atom_site_fract_z
 _atom_site_occupancy
  Mg  Mg0  1  0.00000000  0.75569200  0.07340100  1
  Mg  Mg1  1  0.00000000  0.24430800  0.07340100  1
  Mg  Mg2  1  0.00000000  0.00000000  0.32644100  1
  Mg  Mg3  1  0.50000000  0.25929200  0.40799100  1
  Mg  Mg4  1  0.50000000  0.74070800  0.40799100  1
  Mg  Mg5  1  0.50000000  0.00000000  0.16778100  1
  Mg  Mg6  1  0.00000000  0.25569200  0.57340100  1
  Mg  Mg7  1  0.00000000  0.74430800  0.57340100  1
  Mg  Mg8  1  0.00000000  0.50000000  0.82644100  1
  Mg  Mg9  1  0.50000000  0.75929200  0.90799100  1
  Mg  Mg10  1  0.50000000  0.24070800  0.90799100  1
  Mg  Mg11  1  0.50000000  0.50000000  0.66778100  1
  Cu  Cu0  1  0.00000000  0.50000000  0.38026400  1
  Cu  Cu1  1  0.00000000  0.00000000  0.88026400  1
  Bi  Bi0  1  0.50000000  0.50000000  0.16273000  1
  Bi  Bi1  1  0.50000000  0.00000000  0.66273000  1
loop_
_geom_bond_atom_site_label_1
_geom_bond_atom_site_label_2
_geom_bond_distance
_geom_bond_site_symmetry_2
Mg0 Mg9 3.146846 1_554
Mg0 Mg9 3.146846 1_454
Mg0 Mg8 3.246371 1_554
Mg0 Mg2 3.274087 1_565
Mg1 Mg10 3.146846 1_554
Mg1 Mg10 3.146846 1_454
Mg1 Mg8 3.246371 1_554
Mg1 Mg2 3.274087 1_555
Mg2 Mg5 3.100713 1_455
Mg2 Mg5 3.100713 1_555
Mg2 Mg3 3.125136 1_555
Mg2 Mg3 3.125136 1_455
Mg2 Mg4 3.125136 1_545
Mg2 Mg4 3.125136 1_445
Mg2 Mg6 3.246371 1_555
Mg2 Mg7 3.246371 1_545
Mg3 Mg4 2.987049 1_555
Mg3 Mg6 3.146846 1_555
Mg3 Mg6 3.146846 1_655
Mg3 Mg5 3.190263 1_555
Mg3 Mg4 3.217666 1_545
Mg4 Mg7 3.146846 1_655
Mg4 Mg7 3.146846 1_555
Mg4 Mg5 3.190263 1_565
Mg5 Mg9 3.332827 1_544
Mg6 Mg8 3.274087 1_555
Mg7 Mg8 3.274087 1_555
Mg8 Mg9 3.125136 1_555
Mg8 Mg9 3.125136 1_455
Mg10 Mg9 2.987049 1_545
Mg10 Mg8 3.125136 1_655
Mg10 Mg8 3.125136 1_555
Mg10 Mg11 3.190263 1_555
Mg10 Mg9 3.217666 1_555
Mg10 Mg5 3.332827 1_556
Mg11 Mg8 3.100713 1_655
Mg11 Mg8 3.100713 1_555
Mg11 Mg9 3.190263 1_555
Mg11 Mg4 3.332827 1_555
Mg11 Mg3 3.332827 1_555
Cu0 Mg6 2.684061 1_555
Cu0 Mg7 2.684061 1_555
Cu0 Mg4 2.938560 1_555
Cu0 Mg4 2.938560 1_455
Cu0 Mg3 2.938560 1_555
Cu0 Mg3 2.938560 1_455
Cu0 Mg2 3.163172 1_565
Cu0 Mg2 3.163172 1_555
Cu1 Mg1 2.684061 1_556
Cu1 Mg0 2.684061 1_546
Cu1 Mg10 2.938560 1_455
Cu1 Mg10 2.938560 1_555
Cu1 Mg9 2.938560 1_545
Cu1 Mg9 2.938560 1_445
Cu1 Mg8 3.163172 1_555
Cu1 Mg8 3.163172 1_545
Bi0 Mg5 3.102898 1_565
Bi0 Mg5 3.102898 1_555
Bi0 Mg0 3.141646 1_655
Bi0 Mg0 3.141646 1_555
Bi0 Mg1 3.141646 1_655
Bi0 Mg1 3.141646 1_555
Bi0 Mg4 3.184741 1_555
Bi0 Mg3 3.184741 1_555
Bi0 Mg9 3.335210 1_554
Bi0 Mg10 3.335210 1_554
Bi1 Mg11 3.102898 1_545
Bi1 Mg11 3.102898 1_555
Bi1 Mg7 3.141646 1_645
Bi1 Mg6 3.141646 1_655
Bi1 Mg7 3.141646 1_545
Bi1 Mg6 3.141646 1_555
Bi1 Mg10 3.184741 1_555
Bi1 Mg9 3.184741 1_545
Bi1 Mg3 3.335210 1_555
Bi1 Mg4 3.335210 1_545
