# generated using pymatgen
data_K2MnV2O7
_symmetry_space_group_name_H-M   'P 1'
_cell_length_a   5.67585500
_cell_length_b   8.76127300
_cell_length_c   8.76127300
_cell_angle_alpha   90.00000000
_cell_angle_beta   90.00000000
_cell_angle_gamma   90.00000000
_symmetry_Int_Tables_number   1
_chemical_formula_structural   K2MnV2O7
_chemical_formula_sum   'K4 Mn2 V4 O14'
_cell_volume   435.67808821
_cell_formula_units_Z   2
loop_
 _symmetry_equiv_pos_site_id
 _symmetry_equiv_pos_as_xyz
  1  'x, y, z'
loop_
 _atom_site_type_symbol
 _atom_site_label
 _atom_site_symmetry_multiplicity
 _atom_site_fract_x
 _atom_site_fract_y
 _atom_site_fract_z
 _atom_site_occupancy
  K  K0  1  0.51017300  0.83714900  0.33714900  1
  K  K1  1  0.48982700  0.66285100  0.83714900  1
  K  K2  1  0.48982700  0.33714900  0.16285100  1
  K  K3  1  0.51017300  0.16285100  0.66285100  1
  Mn  Mn0  1  0.00000000  0.50000000  0.50000000  1
  Mn  Mn1  1  0.00000000  0.00000000  0.00000000  1
  V  V0  1  0.94318700  0.36002800  0.86002800  1
  V  V1  1  0.05681300  0.86002800  0.63997200  1
  V  V2  1  0.05681300  0.13997200  0.36002800  1
  V  V3  1  0.94318700  0.63997200  0.13997200  1
  O  O0  1  0.83858200  0.50000000  0.00000000  1
  O  O1  1  0.16141800  0.00000000  0.50000000  1
  O  O2  1  0.76036900  0.85553000  0.64447000  1
  O  O3  1  0.23963100  0.64447000  0.14447000  1
  O  O4  1  0.23963100  0.35553000  0.85553000  1
  O  O5  1  0.76036900  0.14447000  0.35553000  1
  O  O6  1  0.17678400  0.68465400  0.58789200  1
  O  O7  1  0.17678400  0.31534600  0.41210800  1
  O  O8  1  0.82321600  0.41210800  0.68465400  1
  O  O9  1  0.82321600  0.58789200  0.31534600  1
  O  O10  1  0.17678400  0.08789200  0.18465400  1
  O  O11  1  0.82321600  0.18465400  0.91210800  1
  O  O12  1  0.82321600  0.81534600  0.08789200  1
  O  O13  1  0.17678400  0.91210800  0.81534600  1
loop_
_geom_bond_atom_site_label_1
_geom_bond_atom_site_label_2
_geom_bond_distance
_geom_bond_site_symmetry_2
K0 O12 2.821787 1_555
K0 O9 2.821787 1_555
K0 O1 2.826617 1_565
K0 O3 2.838554 1_555
K0 O2 3.048316 1_555
K0 O5 3.048316 1_565
K0 O6 3.192454 1_555
K0 O10 3.192454 1_565
K1 O13 2.821787 1_555
K1 O6 2.821787 1_555
K1 O0 2.826617 1_556
K1 O2 2.838554 1_555
K1 O4 3.048316 1_555
K1 O3 3.048316 1_556
K1 O8 3.192454 1_555
K1 O12 3.192454 1_556
K2 O10 2.821787 1_555
K2 O7 2.821787 1_555
K2 O0 2.826617 1_555
K2 O5 2.838554 1_555
K2 O4 3.048316 1_554
K2 O3 3.048316 1_555
K2 O11 3.192454 1_554
K2 O9 3.192454 1_555
K3 O8 2.821787 1_555
K3 O11 2.821787 1_555
K3 O1 2.826617 1_555
K3 O4 2.838554 1_555
K3 O5 3.048316 1_555
K3 O2 3.048316 1_545
K3 O13 3.192454 1_545
K3 O7 3.192454 1_555
Mn0 O6 2.053551 1_555
Mn0 O7 2.053551 1_555
Mn0 O8 2.053551 1_455
Mn0 O9 2.053551 1_455
Mn1 O13 2.053551 1_544
Mn1 O12 2.053551 1_445
Mn1 O10 2.053551 1_555
Mn1 O11 2.053551 1_454
O0 V0 1.833110 1_554
O0 V3 1.833110 1_555
O1 V1 1.833110 1_545
O1 V2 1.833110 1_555
O2 V1 1.683496 1_655
O3 V3 1.683496 1_455
O4 V0 1.683496 1_455
O5 V2 1.683496 1_655
O6 V1 1.741466 1_555
O7 V2 1.741466 1_555
O8 V0 1.741466 1_555
O9 V3 1.741466 1_555
O10 V2 1.741466 1_555
O11 V0 1.741466 1_555
O12 V3 1.741466 1_555
O13 V1 1.741466 1_555
