# generated using pymatgen
data_YMg2Cu9
_symmetry_space_group_name_H-M   'P 1'
_cell_length_a   4.96145370
_cell_length_b   4.96145416
_cell_length_c   16.04132309
_cell_angle_alpha   89.99997041
_cell_angle_beta   90.00001418
_cell_angle_gamma   119.99452028
_symmetry_Int_Tables_number   1
_chemical_formula_structural   YMg2Cu9
_chemical_formula_sum   'Y2 Mg4 Cu18'
_cell_volume   341.98946007
_cell_formula_units_Z   2
loop_
 _symmetry_equiv_pos_site_id
 _symmetry_equiv_pos_as_xyz
  1  'x, y, z'
loop_
 _atom_site_type_symbol
 _atom_site_label
 _atom_site_symmetry_multiplicity
 _atom_site_fract_x
 _atom_site_fract_y
 _atom_site_fract_z
 _atom_site_occupancy
  Y  Y0  1  0.66666651  0.33333270  0.25001786  1
  Y  Y1  1  0.33333267  0.66666704  0.74998375  1
  Mg  Mg0  1  0.66666724  0.33333258  0.46785368  1
  Mg  Mg1  1  0.33333278  0.66666722  0.96779840  1
  Mg  Mg2  1  0.66666716  0.33333283  0.03215483  1
  Mg  Mg3  1  0.33333254  0.66666716  0.53219241  1
  Cu  Cu0  1  0.33333085  0.66666823  0.25003131  1
  Cu  Cu1  1  0.66666799  0.33333226  0.74996848  1
  Cu  Cu2  1  0.16778186  0.83221907  0.37671302  1
  Cu  Cu3  1  0.16778805  0.33556792  0.37671250  1
  Cu  Cu4  1  -0.00000138  0.00000084  0.74996677  1
  Cu  Cu5  1  0.00000120  -0.00000117  0.25003283  1
  Cu  Cu6  1  0.00000047  -0.00000033  -0.00004868  1
  Cu  Cu7  1  0.00000066  0.00000003  0.50004728  1
  Cu  Cu8  1  0.16779070  0.33557371  0.12334958  1
  Cu  Cu9  1  0.83223069  0.16776918  0.62339112  1
  Cu  Cu10  1  0.33554482  0.16777546  0.62339221  1
  Cu  Cu11  1  0.66442563  0.83220914  0.12334933  1
  Cu  Cu12  1  0.16778467  0.83221588  0.12334875  1
  Cu  Cu13  1  0.83221976  0.66444710  0.87654515  1
  Cu  Cu14  1  0.83222559  0.16777353  0.87654588  1
  Cu  Cu15  1  0.83222432  0.66445473  0.62339201  1
  Cu  Cu16  1  0.33555265  0.16778095  0.87654511  1
  Cu  Cu17  1  0.66443157  0.83221194  0.37671245  1
loop_
_geom_bond_atom_site_label_1
_geom_bond_atom_site_label_2
_geom_bond_distance
_geom_bond_site_symmetry_2
Cu0 Cu12 2.480606 1_555
Cu0 Cu2 2.480611 1_555
Cu0 Cu8 2.480666 1_555
Cu0 Cu11 2.480669 1_555
Cu0 Cu3 2.480672 1_555
Cu0 Cu17 2.480673 1_555
Cu0 Cu5 2.864390 1_565
Cu0 Y0 2.864437 1_555
Cu0 Y0 2.864645 1_455
Cu0 Y0 2.864646 1_565
Cu0 Cu5 2.864667 1_555
Cu0 Cu5 2.864671 1_665
Cu1 Cu14 2.479280 1_555
Cu1 Cu9 2.479304 1_555
Cu1 Cu13 2.479335 1_555
Cu1 Cu16 2.479335 1_555
Cu1 Cu10 2.479350 1_555
Cu1 Cu15 2.479351 1_555
Cu1 Cu4 2.864398 1_655
Cu1 Y1 2.864432 1_555
Cu1 Y1 2.864646 1_655
Cu1 Y1 2.864649 1_545
Cu1 Cu4 2.864663 1_665
Cu1 Cu4 2.864666 1_555
Cu2 Cu7 2.448059 1_565
Cu2 Cu3 2.464127 1_555
Cu2 Cu5 2.491631 1_565
Cu2 Cu3 2.497327 1_565
Cu2 Mg3 2.871301 1_555
Cu2 Mg0 2.879687 1_565
Cu2 Mg0 2.879691 1_455
Cu2 Y0 3.207113 1_565
Cu2 Y0 3.207120 1_455
Cu3 Cu7 2.448149 1_555
Cu3 Cu5 2.491716 1_555
Cu3 Mg3 2.871360 1_555
Cu3 Mg0 2.879502 1_555
Cu3 Mg0 2.879531 1_455
Cu3 Y0 3.206937 1_555
Cu3 Y0 3.206968 1_455
Cu4 Cu9 2.490203 1_455
Cu4 Y1 2.864423 1_545
Cu4 Y1 2.864652 1_445
Cu4 Y1 2.864653 1_555
Cu5 Cu8 2.491776 1_555
Cu5 Y0 2.864426 1_455
Cu5 Y0 2.864649 1_555
Cu5 Y0 2.864653 1_445
Cu6 Cu8 2.448989 1_555
Cu6 Mg1 2.910475 1_544
Cu6 Mg2 2.910627 1_455
Cu6 Mg1 2.910720 1_554
Cu6 Mg1 2.910721 1_444
Cu6 Mg2 2.910861 1_555
Cu6 Mg2 2.910861 1_445
Cu7 Cu9 2.448124 1_455
Cu7 Mg3 2.910453 1_545
Cu7 Mg0 2.910596 1_455
Cu7 Mg3 2.910697 1_555
Cu7 Mg3 2.910701 1_445
Cu7 Mg0 2.910832 1_555
Cu7 Mg0 2.910836 1_445
Cu8 Mg1 2.872340 1_554
Cu8 Mg2 2.879939 1_555
Cu8 Mg2 2.879967 1_455
Cu8 Y0 3.206669 1_555
Cu8 Y0 3.206700 1_455
Cu9 Mg0 2.872161 1_555
Cu9 Mg3 2.880161 1_655
Cu9 Mg3 2.880163 1_545
Cu9 Y1 3.206074 1_545
Cu9 Y1 3.206074 1_655
Cu10 Cu7 2.448221 1_555
Cu10 Cu9 2.464300 1_555
Cu10 Cu15 2.464456 1_555
Cu10 Cu4 2.490283 1_555
Cu10 Cu9 2.497154 1_455
Cu10 Cu15 2.497409 1_445
Cu10 Mg0 2.872226 1_555
Cu10 Mg3 2.879983 1_555
Cu10 Mg3 2.880005 1_545
Cu10 Y1 3.205895 1_555
Cu10 Y1 3.205913 1_545
Cu11 Cu6 2.448987 1_665
Cu11 Cu12 2.464078 1_555
Cu11 Cu8 2.464237 1_555
Cu11 Cu5 2.491781 1_665
Cu11 Cu12 2.497376 1_655
Cu11 Cu8 2.497628 1_665
Cu11 Mg1 2.872336 1_554
Cu11 Mg2 2.879939 1_555
Cu11 Mg2 2.879964 1_565
Cu11 Y0 3.206674 1_555
Cu11 Y0 3.206701 1_565
Cu12 Cu6 2.448891 1_565
Cu12 Cu8 2.464082 1_555
Cu12 Cu5 2.491698 1_565
Cu12 Cu8 2.497372 1_565
Cu12 Mg1 2.872278 1_554
Cu12 Mg2 2.880122 1_565
Cu12 Mg2 2.880125 1_455
Cu12 Y0 3.206850 1_565
Cu12 Y0 3.206854 1_455
Cu13 Cu6 2.449037 1_666
Cu13 Cu14 2.464238 1_555
Cu13 Cu16 2.464393 1_555
Cu13 Cu4 2.490351 1_665
Cu13 Cu14 2.497217 1_565
Cu13 Cu16 2.497472 1_665
Cu13 Mg2 2.873199 1_556
Cu13 Mg1 2.880416 1_555
Cu13 Mg1 2.880443 1_655
Cu13 Y1 3.205586 1_555
Cu13 Y1 3.205610 1_655
Cu14 Cu6 2.448946 1_656
Cu14 Cu16 2.464238 1_555
Cu14 Cu4 2.490273 1_655
Cu14 Cu16 2.497216 1_655
Cu14 Mg2 2.873139 1_556
Cu14 Mg1 2.880598 1_545
Cu14 Mg1 2.880603 1_655
Cu14 Y1 3.205764 1_545
Cu14 Y1 3.205765 1_655
Cu15 Cu7 2.448221 1_665
Cu15 Cu9 2.464298 1_555
Cu15 Cu4 2.490286 1_665
Cu15 Cu9 2.497156 1_565
Cu15 Mg0 2.872223 1_555
Cu15 Mg3 2.879982 1_555
Cu15 Mg3 2.880002 1_655
Cu15 Y1 3.205897 1_555
Cu15 Y1 3.205915 1_655
Cu16 Cu6 2.449036 1_556
Cu16 Cu4 2.490352 1_555
Cu16 Mg2 2.873201 1_556
Cu16 Mg1 2.880414 1_555
Cu16 Mg1 2.880446 1_545
Cu16 Y1 3.205581 1_555
Cu16 Y1 3.205614 1_545
Cu17 Cu7 2.448153 1_665
Cu17 Cu2 2.464122 1_555
Cu17 Cu3 2.464279 1_555
Cu17 Cu5 2.491716 1_665
Cu17 Cu2 2.497331 1_655
Cu17 Cu3 2.497586 1_665
Cu17 Mg3 2.871360 1_555
Cu17 Mg0 2.879504 1_555
Cu17 Mg0 2.879531 1_565
Cu17 Y0 3.206939 1_555
Cu17 Y0 3.206964 1_565
