# generated using pymatgen
data_Y2GaNi2
_symmetry_space_group_name_H-M   'P 1'
_cell_length_a   5.33521253
_cell_length_b   5.33521253
_cell_length_c   5.33521253
_cell_angle_alpha   133.97780758
_cell_angle_beta   120.05368935
_cell_angle_gamma   78.74411906
_symmetry_Int_Tables_number   1
_chemical_formula_structural   Y2GaNi2
_chemical_formula_sum   'Y2 Ga1 Ni2'
_cell_volume   91.70907274
_cell_formula_units_Z   1
loop_
 _symmetry_equiv_pos_site_id
 _symmetry_equiv_pos_as_xyz
  1  'x, y, z'
loop_
 _atom_site_type_symbol
 _atom_site_label
 _atom_site_symmetry_multiplicity
 _atom_site_fract_x
 _atom_site_fract_y
 _atom_site_fract_z
 _atom_site_occupancy
  Y  Y0  1  0.70212652  0.20212652  0.50000000  1
  Y  Y1  1  0.29787348  0.79787348  0.50000000  1
  Ga  Ga0  1  0.00000000  0.00000000  -0.00000000  1
  Ni  Ni0  1  0.26759145  0.50000000  0.76759145  1
  Ni  Ni1  1  0.73240855  0.50000000  0.23240855  1
loop_
_geom_bond_atom_site_label_1
_geom_bond_atom_site_label_2
_geom_bond_distance
_geom_bond_site_symmetry_2
Ga0 Ni1 2.526769 1_455
Ga0 Ni0 2.526769 1_555
Ga0 Ni1 2.526769 1_444
Ga0 Ni0 2.526769 1_544
Ga0 Y0 3.143947 1_555
Ga0 Y1 3.143947 1_444
Ga0 Y1 3.143947 1_545
Ga0 Y0 3.143947 1_454
Ga0 Y0 3.222863 1_455
Ga0 Y1 3.222863 1_544
Ga0 Y1 3.222863 1_555
Ga0 Y0 3.222863 1_444
Ni0 Ni1 2.477885 1_556
Ni0 Y1 2.841141 1_555
Ni0 Y0 2.841141 1_455
Ni0 Y1 2.943547 1_545
Ni0 Y1 2.943547 1_556
Ni0 Y0 2.943547 1_555
Ni0 Y0 2.943547 1_566
Ni1 Y1 2.841141 1_655
Ni1 Y0 2.841141 1_555
Ni1 Y1 2.943547 1_544
Ni1 Y0 2.943547 1_554
Ni1 Y1 2.943547 1_555
Ni1 Y0 2.943547 1_565
