# generated using pymatgen
data_Gd2MgTl2(WO4)4
_symmetry_space_group_name_H-M   'P 1'
_cell_length_a   7.92706811
_cell_length_b   7.64201971
_cell_length_c   7.54795231
_cell_angle_alpha   63.68944353
_cell_angle_beta   62.99380199
_cell_angle_gamma   89.51575573
_symmetry_Int_Tables_number   1
_chemical_formula_structural   Gd2MgTl2(WO4)4
_chemical_formula_sum   'Gd2 Mg1 Tl2 W4 O16'
_cell_volume   354.38104626
_cell_formula_units_Z   1
loop_
 _symmetry_equiv_pos_site_id
 _symmetry_equiv_pos_as_xyz
  1  'x, y, z'
loop_
 _atom_site_type_symbol
 _atom_site_label
 _atom_site_symmetry_multiplicity
 _atom_site_fract_x
 _atom_site_fract_y
 _atom_site_fract_z
 _atom_site_occupancy
  Gd  Gd0  1  0.22057570  0.75731874  0.75929608  1
  Gd  Gd1  1  0.79255083  0.23416998  0.24502520  1
  Mg  Mg0  1  0.35466788  0.66123403  0.25005270  1
  Tl  Tl0  1  0.79618516  0.19780915  0.76001905  1
  Tl  Tl1  1  0.09503588  0.88938228  0.23452609  1
  W  W0  1  0.30522718  0.30655116  0.70022861  1
  W  W1  1  0.71069552  0.67176195  0.30500192  1
  W  W2  1  0.69333596  0.69994027  0.79802173  1
  W  W3  1  0.32770490  0.28163030  0.19898226  1
  O  O0  1  0.38811201  0.24613187  0.94169218  1
  O  O1  1  0.63683076  0.76451722  0.05148572  1
  O  O2  1  0.73145065  0.60838992  0.58631890  1
  O  O3  1  0.25415874  0.36909976  0.43452235  1
  O  O4  1  0.65863428  0.94250571  0.62500085  1
  O  O5  1  0.36485652  0.04635009  0.37786572  1
  O  O6  1  0.08262371  0.37349418  0.86907984  1
  O  O7  1  0.93148637  0.60279124  0.13862338  1
  O  O8  1  0.41549798  0.64064056  0.50204553  1
  O  O9  1  0.58671232  0.35674353  0.47471664  1
  O  O10  1  0.37675516  0.59805093  0.98987275  1
  O  O11  1  0.62630033  0.40297075  0.04439464  1
  O  O12  1  0.23026330  0.02171379  0.81361849  1
  O  O13  1  0.80524937  0.95607065  0.19809713  1
  O  O14  1  0.95235121  0.75878097  0.70747138  1
  O  O15  1  0.06273929  0.21195196  0.29761185  1
loop_
_geom_bond_atom_site_label_1
_geom_bond_atom_site_label_2
_geom_bond_distance
_geom_bond_site_symmetry_2
Gd0 O12 2.241006 1_565
Gd0 O14 2.329180 1_455
Gd0 O8 2.395741 1_555
Gd0 O5 2.427065 1_565
Gd0 O7 2.435861 1_456
Gd0 O10 2.469138 1_555
Gd0 O6 2.750049 1_555
Gd1 O13 2.298602 1_545
Gd1 O9 2.321689 1_555
Gd1 O15 2.340912 1_655
Gd1 O11 2.397109 1_555
Gd1 O6 2.431140 1_654
Gd1 O4 2.434890 1_545
Gd1 O7 2.652759 1_555
Mg0 O1 1.951640 1_555
Mg0 O3 1.955643 1_555
Mg0 O8 2.107444 1_555
Mg0 O10 2.155757 1_554
Mg0 Tl1 2.695681 1_555
O0 W3 1.922131 1_556
O0 W0 2.074367 1_555
O0 Tl1 2.795931 1_546
O1 W2 2.039417 1_554
O1 W1 2.077263 1_555
O2 W2 1.919148 1_555
O2 W1 2.043193 1_555
O2 Tl1 2.840497 1_655
O3 W3 2.013211 1_555
O3 W0 2.073355 1_555
O4 W2 1.840920 1_555
O5 W3 1.828316 1_555
O6 W0 1.876192 1_555
O7 W1 1.869014 1_555
O8 W1 2.068700 1_555
O8 W0 2.232664 1_555
O9 W0 2.002433 1_555
O9 W1 2.136638 1_555
O10 W3 2.136535 1_556
O10 W2 2.175835 1_555
O11 W2 2.067049 1_554
O11 W3 2.096109 1_555
O12 W0 1.931912 1_555
O12 Tl1 2.518415 1_546
O13 W1 1.964082 1_555
O13 Tl1 2.458025 1_655
O14 W2 1.831336 1_555
O14 Tl1 2.865749 1_655
O15 W3 1.869991 1_555
O15 Tl1 2.699644 1_545
