# generated using pymatgen
data_PrTaTiO6
_symmetry_space_group_name_H-M   'P 1'
_cell_length_a   5.42712000
_cell_length_b   7.57792400
_cell_length_c   11.09694100
_cell_angle_alpha   90.00000000
_cell_angle_beta   90.00000000
_cell_angle_gamma   90.00000000
_symmetry_Int_Tables_number   1
_chemical_formula_structural   PrTaTiO6
_chemical_formula_sum   'Pr4 Ta4 Ti4 O24'
_cell_volume   456.37615682
_cell_formula_units_Z   4
loop_
 _symmetry_equiv_pos_site_id
 _symmetry_equiv_pos_as_xyz
  1  'x, y, z'
loop_
 _atom_site_type_symbol
 _atom_site_label
 _atom_site_symmetry_multiplicity
 _atom_site_fract_x
 _atom_site_fract_y
 _atom_site_fract_z
 _atom_site_occupancy
  Pr  Pr0  1  0.45581300  0.74878500  0.95674800  1
  Pr  Pr1  1  0.04418700  0.74878500  0.45674800  1
  Pr  Pr2  1  0.54418700  0.24878500  0.04325200  1
  Pr  Pr3  1  0.95581300  0.24878500  0.54325200  1
  Ta  Ta0  1  0.46198000  0.50550300  0.64373700  1
  Ta  Ta1  1  0.53802000  0.00550300  0.35626300  1
  Ta  Ta2  1  0.96198000  0.00550300  0.85626300  1
  Ta  Ta3  1  0.03802000  0.50550300  0.14373700  1
  Ti  Ti0  1  0.03500600  0.99329100  0.14318100  1
  Ti  Ti1  1  0.96499400  0.49329100  0.85681900  1
  Ti  Ti2  1  0.53500600  0.49329100  0.35681900  1
  Ti  Ti3  1  0.46499400  0.99329100  0.64318100  1
  O  O0  1  0.04673400  0.74881300  0.85565200  1
  O  O1  1  0.45326600  0.74881300  0.35565200  1
  O  O2  1  0.95326600  0.24881300  0.14434800  1
  O  O3  1  0.54673400  0.24881300  0.64434800  1
  O  O4  1  0.15377000  0.75232500  0.12283500  1
  O  O5  1  0.34623000  0.75232500  0.62283500  1
  O  O6  1  0.84623000  0.25232500  0.87716500  1
  O  O7  1  0.65377000  0.25232500  0.37716500  1
  O  O8  1  0.63107200  0.55812100  0.79029700  1
  O  O9  1  0.87375800  0.94272700  0.28796500  1
  O  O10  1  0.36892800  0.05812100  0.20970300  1
  O  O11  1  0.12624200  0.44272700  0.71203500  1
  O  O12  1  0.37375800  0.44272700  0.21203500  1
  O  O13  1  0.13107200  0.05812100  0.70970300  1
  O  O14  1  0.62624200  0.94272700  0.78796500  1
  O  O15  1  0.86892800  0.55812100  0.29029700  1
  O  O16  1  0.23303600  0.03744500  0.97299900  1
  O  O17  1  0.27128400  0.46299000  0.47444800  1
  O  O18  1  0.76696400  0.53744500  0.02700100  1
  O  O19  1  0.72871600  0.96299000  0.52555200  1
  O  O20  1  0.77128400  0.96299000  0.02555200  1
  O  O21  1  0.73303600  0.53744500  0.52700100  1
  O  O22  1  0.22871600  0.46299000  0.97444800  1
  O  O23  1  0.26696400  0.03744500  0.47299900  1
loop_
_geom_bond_atom_site_label_1
_geom_bond_atom_site_label_2
_geom_bond_distance
_geom_bond_site_symmetry_2
O0 Ti1 1.986535 1_455
O0 Ta2 1.998833 1_465
O0 Pr0 2.487468 1_555
O1 Ti2 1.986535 1_555
O1 Ta1 1.998833 1_565
O1 Pr1 2.487468 1_555
O2 Ti0 1.986535 1_645
O2 Ta3 1.998833 1_655
O2 Pr2 2.487468 1_555
O3 Ti3 1.986535 1_545
O3 Ta0 1.998833 1_555
O3 Pr3 2.487468 1_555
O4 Ti0 1.949557 1_555
O4 Ta3 1.986658 1_555
O4 Pr0 2.466705 1_554
O5 Ti3 1.949557 1_555
O5 Ta0 1.986658 1_555
O5 Pr1 2.466705 1_555
O6 Ti1 1.949557 1_555
O6 Ta2 1.986658 1_555
O6 Pr2 2.466705 1_556
O7 Ti2 1.949557 1_555
O7 Ta1 1.986658 1_555
O7 Pr3 2.466705 1_555
O8 Ta0 1.909503 1_555
O8 Ti1 2.017541 1_555
O8 Pr0 2.530615 1_555
O9 Ti0 1.869223 1_655
O9 Ta1 2.029957 1_565
O9 Pr1 2.554114 1_655
O10 Ta1 1.909503 1_555
O10 Ti0 2.017541 1_545
O10 Pr2 2.530615 1_555
O11 Ti1 1.869223 1_455
O11 Ta0 2.029957 1_555
O11 Pr3 2.554114 1_455
O12 Ti2 1.869223 1_555
O12 Ta3 2.029957 1_555
O12 Pr2 2.554114 1_555
O13 Ta2 1.909503 1_455
O13 Ti3 2.017541 1_545
O13 Pr3 2.530615 1_455
O14 Ti3 1.869223 1_555
O14 Ta2 2.029957 1_565
O14 Pr0 2.554114 1_555
O15 Ta3 1.909503 1_655
O15 Ti2 2.017541 1_555
O15 Pr1 2.530615 1_655
O16 Ta2 1.975014 1_455
O16 Ti0 2.198507 1_546
O16 Pr2 2.454420 1_556
O16 Pr0 2.505834 1_545
O17 Ti2 1.950659 1_555
O17 Ta0 2.168863 1_555
O17 Pr3 2.479740 1_455
O17 Pr1 2.499598 1_555
O18 Ta3 1.975014 1_655
O18 Ti1 2.198507 1_554
O18 Pr0 2.454420 1_554
O18 Pr2 2.505834 1_555
O19 Ti3 1.950659 1_555
O19 Ta1 2.168863 1_565
O19 Pr1 2.479740 1_655
O19 Pr3 2.499598 1_565
O20 Ti0 1.950659 1_655
O20 Ta2 2.168863 1_564
O20 Pr0 2.479740 1_554
O20 Pr2 2.499598 1_565
O21 Ta0 1.975014 1_555
O21 Ti2 2.198507 1_555
O21 Pr1 2.454420 1_655
O21 Pr3 2.505834 1_555
O22 Ti1 1.950659 1_455
O22 Ta3 2.168863 1_556
O22 Pr2 2.479740 1_556
O22 Pr0 2.499598 1_555
O23 Ta1 1.975014 1_555
O23 Ti3 2.198507 1_545
O23 Pr3 2.454420 1_455
O23 Pr1 2.505834 1_545
