# generated using pymatgen
data_MnFe4B2P
_symmetry_space_group_name_H-M   'P 1'
_cell_length_a   5.49913800
_cell_length_b   5.49913800
_cell_length_c   6.41905539
_cell_angle_alpha   115.36256278
_cell_angle_beta   115.36256278
_cell_angle_gamma   90.00000000
_symmetry_Int_Tables_number   1
_chemical_formula_structural   MnFe4B2P
_chemical_formula_sum   'Mn2 Fe8 B4 P2'
_cell_volume   154.44591959
_cell_formula_units_Z   2
loop_
 _symmetry_equiv_pos_site_id
 _symmetry_equiv_pos_as_xyz
  1  'x, y, z'
loop_
 _atom_site_type_symbol
 _atom_site_label
 _atom_site_symmetry_multiplicity
 _atom_site_fract_x
 _atom_site_fract_y
 _atom_site_fract_z
 _atom_site_occupancy
  Mn  Mn0  1  0.50000000  0.50000000  0.00000000  1
  Mn  Mn1  1  0.00000000  0.00000000  0.00000000  1
  Fe  Fe0  1  0.03017300  0.53017300  0.72168100  1
  Fe  Fe1  1  0.69150700  0.19150700  0.72168100  1
  Fe  Fe2  1  0.19150700  0.03017300  0.72168100  1
  Fe  Fe3  1  0.53017300  0.69150700  0.72168100  1
  Fe  Fe4  1  0.96982700  0.46982700  0.27831900  1
  Fe  Fe5  1  0.30849300  0.80849300  0.27831900  1
  Fe  Fe6  1  0.80849300  0.96982700  0.27831900  1
  Fe  Fe7  1  0.46982700  0.30849300  0.27831900  1
  B  B0  1  0.38156400  0.88156400  0.00000000  1
  B  B1  1  0.61843600  0.11843600  0.00000000  1
  B  B2  1  0.11843600  0.38156400  0.00000000  1
  B  B3  1  0.88156400  0.61843600  0.00000000  1
  P  P0  1  0.25000000  0.25000000  0.50000000  1
  P  P1  1  0.75000000  0.75000000  0.50000000  1
loop_
_geom_bond_atom_site_label_1
_geom_bond_atom_site_label_2
_geom_bond_distance
_geom_bond_site_symmetry_2
Mn0 P0 2.553625 1_554
Mn0 P1 2.553625 1_555
Mn1 P1 2.553625 1_444
Mn1 P0 2.553625 1_555
Fe0 P1 2.335693 1_455
Fe0 P0 2.335693 1_555
Fe0 Mn0 2.488802 1_556
Fe0 Mn1 2.488802 1_566
Fe1 P1 2.335691 1_545
Fe1 P0 2.335691 1_555
Fe1 Mn1 2.488800 1_656
Fe1 Mn0 2.488800 1_556
Fe2 P1 2.335689 1_445
Fe2 P0 2.335695 1_555
Fe2 Mn1 2.488798 1_556
Fe2 Mn0 2.488804 1_556
Fe3 P0 2.335689 1_555
Fe3 P1 2.335695 1_555
Fe3 Mn0 2.488798 1_556
Fe3 Mn1 2.488804 1_666
Fe4 P1 2.335693 1_555
Fe4 P0 2.335693 1_655
Fe4 Mn0 2.488802 1_555
Fe4 Mn1 2.488802 1_655
Fe5 P0 2.335691 1_565
Fe5 P1 2.335691 1_555
Fe5 Mn1 2.488800 1_565
Fe5 Mn0 2.488800 1_555
Fe6 P0 2.335689 1_665
Fe6 P1 2.335695 1_555
Fe6 Mn1 2.488798 1_665
Fe6 Mn0 2.488804 1_555
Fe7 P1 2.335689 1_555
Fe7 P0 2.335695 1_555
Fe7 Mn0 2.488798 1_555
Fe7 Mn1 2.488804 1_555
B0 B1 1.842143 1_565
B0 Fe2 2.145480 1_564
B0 Fe3 2.145480 1_554
B0 Fe7 2.145483 1_565
B0 Fe6 2.145483 1_555
B0 Fe5 2.178229 1_555
B0 Fe0 2.178234 1_554
B0 Mn1 2.197029 1_565
B0 Mn0 2.197029 1_555
B1 Fe7 2.145480 1_555
B1 Fe6 2.145480 1_545
B1 Fe3 2.145483 1_544
B1 Fe2 2.145483 1_554
B1 Fe1 2.178229 1_554
B1 Fe4 2.178234 1_555
B1 Mn1 2.197029 1_655
B1 Mn0 2.197029 1_555
B2 B3 1.842143 1_455
B2 Fe4 2.145479 1_455
B2 Fe0 2.145479 1_554
B2 Fe1 2.145484 1_454
B2 Fe5 2.145484 1_555
B2 Fe2 2.178232 1_554
B2 Fe7 2.178232 1_555
B2 Mn1 2.197029 1_555
B2 Mn0 2.197029 1_555
B3 Fe0 2.145479 1_654
B3 Fe4 2.145479 1_555
B3 Fe5 2.145484 1_655
B3 Fe1 2.145484 1_554
B3 Fe6 2.178232 1_555
B3 Fe3 2.178232 1_554
B3 Mn0 2.197029 1_555
B3 Mn1 2.197029 1_665
