# generated using pymatgen
data_EuAl3Ag2
_symmetry_space_group_name_H-M   'P 1'
_cell_length_a   5.56162487
_cell_length_b   5.56162487
_cell_length_c   4.39545079
_cell_angle_alpha   90.00000000
_cell_angle_beta   90.00000000
_cell_angle_gamma   120.00000698
_symmetry_Int_Tables_number   1
_chemical_formula_structural   EuAl3Ag2
_chemical_formula_sum   'Eu1 Al3 Ag2'
_cell_volume   117.74362646
_cell_formula_units_Z   1
loop_
 _symmetry_equiv_pos_site_id
 _symmetry_equiv_pos_as_xyz
  1  'x, y, z'
loop_
 _atom_site_type_symbol
 _atom_site_label
 _atom_site_symmetry_multiplicity
 _atom_site_fract_x
 _atom_site_fract_y
 _atom_site_fract_z
 _atom_site_occupancy
  Eu  Eu0  1  0.00000000  0.00000000  0.00000000  1
  Al  Al0  1  0.50000000  0.50000000  0.50000000  1
  Al  Al1  1  0.50000000  0.00000000  0.50000000  1
  Al  Al2  1  0.00000000  0.50000000  0.50000000  1
  Ag  Ag0  1  0.66666700  0.33333300  -0.00000000  1
  Ag  Ag1  1  0.33333300  0.66666700  -0.00000000  1
loop_
_geom_bond_atom_site_label_1
_geom_bond_atom_site_label_2
_geom_bond_distance
_geom_bond_site_symmetry_2
Al0 Eu0 3.544420 1_556
Al0 Eu0 3.544420 1_665
Al0 Eu0 3.544420 1_666
Al0 Eu0 3.544420 1_555
Al1 Eu0 3.544420 1_656
Al1 Eu0 3.544420 1_555
Al1 Eu0 3.544420 1_655
Al1 Eu0 3.544420 1_556
Al2 Eu0 3.544420 1_565
Al2 Eu0 3.544420 1_555
Al2 Eu0 3.544420 1_556
Al2 Eu0 3.544420 1_566
Ag0 Al2 2.721696 1_654
Ag0 Al1 2.721696 1_554
Ag0 Al2 2.721696 1_655
Ag0 Al1 2.721696 1_555
Ag0 Al0 2.721699 1_554
Ag0 Al0 2.721699 1_555
Ag0 Eu0 3.211003 1_655
Ag0 Eu0 3.211007 1_665
Ag0 Eu0 3.211007 1_555
Ag1 Al2 2.721696 1_555
Ag1 Al1 2.721696 1_565
Ag1 Al2 2.721696 1_554
Ag1 Al1 2.721696 1_564
Ag1 Al0 2.721699 1_554
Ag1 Al0 2.721699 1_555
Ag1 Eu0 3.211003 1_565
Ag1 Eu0 3.211007 1_555
Ag1 Eu0 3.211007 1_665
