# generated using pymatgen
data_Li7Mn2(CoO4)3
_symmetry_space_group_name_H-M   'P 1'
_cell_length_a   2.97583900
_cell_length_b   7.61328908
_cell_length_c   10.11740171
_cell_angle_alpha   107.13692607
_cell_angle_beta   88.89425224
_cell_angle_gamma   99.70823547
_symmetry_Int_Tables_number   1
_chemical_formula_structural   Li7Mn2(CoO4)3
_chemical_formula_sum   'Li7 Mn2 Co3 O12'
_cell_volume   215.79323990
_cell_formula_units_Z   1
loop_
 _symmetry_equiv_pos_site_id
 _symmetry_equiv_pos_as_xyz
  1  'x, y, z'
loop_
 _atom_site_type_symbol
 _atom_site_label
 _atom_site_symmetry_multiplicity
 _atom_site_fract_x
 _atom_site_fract_y
 _atom_site_fract_z
 _atom_site_occupancy
  Li  Li0  1  0.82983400  0.66840400  0.73885100  1
  Li  Li1  1  0.16881300  0.33279100  0.25316100  1
  Li  Li2  1  0.48259300  0.98789300  0.74272300  1
  Li  Li3  1  0.17793000  0.33676900  0.75309000  1
  Li  Li4  1  0.51013000  0.00297300  0.25090000  1
  Li  Li5  1  0.82231200  0.66413500  0.25399200  1
  Li  Li6  1  0.34681900  0.67425100  0.50976000  1
  Mn  Mn0  1  0.99949300  0.99842500  0.99871300  1
  Mn  Mn1  1  0.99403000  0.99392200  0.49997800  1
  Co  Co0  1  0.67136600  0.33531800  0.00080900  1
  Co  Co1  1  0.32837100  0.66512200  0.00084700  1
  Co  Co2  1  0.67027900  0.34446200  0.49552800  1
  O  O0  1  0.37207100  0.82539500  0.88169300  1
  O  O1  1  0.73707200  0.48169000  0.38388400  1
  O  O2  1  0.10303100  0.17039300  0.88604200  1
  O  O3  1  0.75614200  0.49695500  0.88502900  1
  O  O4  1  0.05335100  0.17258800  0.38887100  1
  O  O5  1  0.43466900  0.85614400  0.39051900  1
  O  O6  1  0.27279200  0.47704100  0.61340000  1
  O  O7  1  0.62714300  0.17118600  0.11683300  1
  O  O8  1  0.92660600  0.84955000  0.61883800  1
  O  O9  1  0.56691600  0.15612400  0.60198300  1
  O  O10  1  0.90065400  0.83286400  0.11579900  1
  O  O11  1  0.24758600  0.50560700  0.11876000  1
loop_
_geom_bond_atom_site_label_1
_geom_bond_atom_site_label_2
_geom_bond_distance
_geom_bond_site_symmetry_2
Li0 O8 2.073311 1_555
Li0 O0 2.131310 1_655
Li0 O6 2.158322 1_555
Li0 O0 2.197269 1_555
Li0 O6 2.228115 1_655
Li0 O3 2.228839 1_555
Li1 O1 2.055979 1_455
Li1 O4 2.078033 1_555
Li1 O7 2.105078 1_455
Li1 O1 2.109542 1_555
Li1 O11 2.138467 1_555
Li1 O7 2.183972 1_555
Li2 O8 2.013369 1_555
Li2 O8 2.032765 1_455
Li2 O0 2.117918 1_555
Li2 O2 2.141880 1_565
Li2 O9 2.164145 1_565
Li2 O2 2.343676 1_665
Li3 O6 1.997489 1_555
Li3 O3 2.082516 1_455
Li3 O2 2.088253 1_555
Li3 O3 2.156720 1_555
Li3 O9 2.190481 1_555
Li3 O9 2.357898 1_455
Li4 O5 2.032009 1_545
Li4 O10 2.073460 1_545
Li4 O7 2.110980 1_555
Li4 O4 2.133089 1_655
Li4 O4 2.218168 1_555
Li4 O10 2.257295 1_445
Li5 O11 2.098905 1_655
Li5 O10 2.145737 1_555
Li5 O1 2.159804 1_555
Li5 O11 2.162111 1_555
Li5 O5 2.166309 1_555
Li5 O5 2.318272 1_655
Li6 O8 2.050465 1_455
Li6 O6 2.051728 1_555
Li6 O5 2.071644 1_555
Li6 O8 2.098768 1_555
Li6 O1 2.129944 1_555
Li6 O1 2.270535 1_455
Mn0 O10 1.954488 1_556
Mn0 O2 1.959189 1_665
Mn0 O0 1.972097 1_655
Mn0 O7 1.974851 1_566
Mn0 O0 2.227067 1_555
Mn0 O7 2.231159 1_666
Mn1 O8 1.841132 1_555
Mn1 O5 1.941496 1_655
Mn1 O5 1.973626 1_555
Mn1 O9 1.983234 1_565
Mn1 O4 1.989344 1_665
Mn1 O9 2.025653 1_665
Co0 O3 1.919256 1_554
Co0 O7 1.939003 1_555
Co0 O2 2.049919 1_654
Co0 O11 2.068058 1_555
Co0 O2 2.070178 1_554
Co0 O11 2.112511 1_655
Co1 O11 1.923560 1_555
Co1 O0 1.940726 1_554
Co1 O10 2.054111 1_455
Co1 O3 2.059297 1_554
Co1 O10 2.086015 1_555
Co1 O3 2.090357 1_454
Co2 O1 1.738864 1_555
Co2 O6 1.865211 1_555
Co2 O4 1.949276 1_655
Co2 O9 2.014746 1_555
Co2 O6 2.102042 1_655
Co2 O4 2.163623 1_555
