# generated using pymatgen
data_Li4MnCo2O7
_symmetry_space_group_name_H-M   'P 1'
_cell_length_a   3.02797300
_cell_length_b   7.82366587
_cell_length_c   11.17700147
_cell_angle_alpha   79.58447330
_cell_angle_beta   83.02131343
_cell_angle_gamma   82.19341603
_symmetry_Int_Tables_number   1
_chemical_formula_structural   Li4MnCo2O7
_chemical_formula_sum   'Li8 Mn2 Co4 O14'
_cell_volume   256.72496347
_cell_formula_units_Z   2
loop_
 _symmetry_equiv_pos_site_id
 _symmetry_equiv_pos_as_xyz
  1  'x, y, z'
loop_
 _atom_site_type_symbol
 _atom_site_label
 _atom_site_symmetry_multiplicity
 _atom_site_fract_x
 _atom_site_fract_y
 _atom_site_fract_z
 _atom_site_occupancy
  Li  Li0  1  0.63694700  0.93265200  0.78990500  1
  Li  Li1  1  0.79020200  0.35806200  0.06669700  1
  Li  Li2  1  0.92678700  0.78586300  0.35581500  1
  Li  Li3  1  0.07321300  0.21413700  0.64418500  1
  Li  Li4  1  0.20979800  0.64193800  0.93330300  1
  Li  Li5  1  0.36305300  0.06734800  0.21009500  1
  Li  Li6  1  0.50000000  0.50000000  0.50000000  1
  Li  Li7  1  0.00000000  0.00000000  0.00000000  1
  Mn  Mn0  1  0.85112400  0.56867600  0.71673400  1
  Mn  Mn1  1  0.14887600  0.43132400  0.28326600  1
  Co  Co0  1  0.27891700  0.85778300  0.57179600  1
  Co  Co1  1  0.44058300  0.27177700  0.86286800  1
  Co  Co2  1  0.55941700  0.72822300  0.13713200  1
  Co  Co3  1  0.72108300  0.14221700  0.42820400  1
  O  O0  1  0.21399300  0.75004800  0.74356500  1
  O  O1  1  0.39121000  0.19250900  0.01888300  1
  O  O2  1  0.51474200  0.61105300  0.30643100  1
  O  O3  1  0.69146700  0.03201000  0.59760200  1
  O  O4  1  0.80565000  0.45581900  0.88507400  1
  O  O5  1  0.93981600  0.87922500  0.17518500  1
  O  O6  1  0.12859500  0.31954300  0.45479100  1
  O  O7  1  0.06018400  0.12077500  0.82481500  1
  O  O8  1  0.19435000  0.54418100  0.11492600  1
  O  O9  1  0.30853300  0.96799000  0.40239800  1
  O  O10  1  0.48525800  0.38894700  0.69356900  1
  O  O11  1  0.60879000  0.80749100  0.98111700  1
  O  O12  1  0.78600700  0.24995200  0.25643500  1
  O  O13  1  0.87140500  0.68045700  0.54520900  1
loop_
_geom_bond_atom_site_label_1
_geom_bond_atom_site_label_2
_geom_bond_distance
_geom_bond_site_symmetry_2
Li0 O3 2.143790 1_565
Li0 O7 2.170772 1_565
Li0 O0 2.175259 1_655
Li0 O11 2.180684 1_555
Li0 O7 2.191439 1_665
Li0 O0 2.207986 1_555
Li1 O4 2.033055 1_554
Li1 O1 2.062786 1_555
Li1 O12 2.135593 1_555
Li1 O1 2.156072 1_655
Li1 O8 2.199240 1_655
Li1 O8 2.236046 1_555
Li2 O5 2.016514 1_555
Li2 O9 2.121203 1_655
Li2 O13 2.123532 1_555
Li2 O2 2.153056 1_555
Li2 O2 2.171950 1_655
Li2 O9 2.261143 1_555
Li3 O7 2.016514 1_555
Li3 O3 2.121203 1_455
Li3 O6 2.123532 1_555
Li3 O10 2.153056 1_555
Li3 O10 2.171950 1_455
Li3 O3 2.261143 1_555
Li4 O8 2.033055 1_556
Li4 O11 2.062786 1_555
Li4 O0 2.135593 1_555
Li4 O11 2.156072 1_455
Li4 O4 2.199240 1_455
Li4 O4 2.236046 1_555
Li5 O9 2.143790 1_545
Li5 O5 2.170772 1_545
Li5 O12 2.175259 1_455
Li5 O1 2.180684 1_555
Li5 O5 2.191439 1_445
Li5 O12 2.207986 1_555
Li6 O6 2.083436 1_555
Li6 O13 2.083436 1_555
Li6 O10 2.178326 1_555
Li6 O2 2.178326 1_555
Li6 O13 2.272805 1_455
Li6 O6 2.272805 1_655
Li7 O5 2.012732 1_445
Li7 O7 2.012732 1_554
Li7 O11 2.092016 1_444
Li7 O1 2.092016 1_555
Li7 O11 2.230974 1_544
Li7 O1 2.230974 1_455
Mn0 O4 1.925653 1_555
Mn0 O13 1.955444 1_555
Mn0 O10 1.973849 1_555
Mn0 O0 1.992042 1_655
Mn0 O10 2.237981 1_655
Mn0 O0 2.257199 1_555
Mn1 O8 1.925653 1_555
Mn1 O6 1.955444 1_555
Mn1 O2 1.973849 1_555
Mn1 O12 1.992042 1_455
Mn1 O2 2.237981 1_455
Mn1 O12 2.257199 1_555
Co0 O9 1.930225 1_555
Co0 O0 1.950171 1_555
Co0 O3 2.047920 1_565
Co0 O13 2.058842 1_455
Co0 O3 2.112840 1_465
Co0 O13 2.138916 1_555
Co1 O1 1.737397 1_556
Co1 O7 1.890422 1_555
Co1 O10 1.945137 1_555
Co1 O4 1.996266 1_555
Co1 O7 2.117101 1_655
Co1 O4 2.256622 1_455
Co2 O11 1.737397 1_554
Co2 O5 1.890422 1_555
Co2 O2 1.945137 1_555
Co2 O8 1.996266 1_555
Co2 O5 2.117101 1_455
Co2 O8 2.256622 1_655
Co3 O3 1.930225 1_555
Co3 O12 1.950171 1_555
Co3 O9 2.047920 1_545
Co3 O6 2.058842 1_655
Co3 O9 2.112840 1_645
Co3 O6 2.138916 1_555
