# generated using pymatgen
data_LiMnCo3O8
_symmetry_space_group_name_H-M   'P 1'
_cell_length_a   5.68009926
_cell_length_b   5.99944133
_cell_length_c   9.84349497
_cell_angle_alpha   106.39390909
_cell_angle_beta   89.89420811
_cell_angle_gamma   117.73311378
_symmetry_Int_Tables_number   1
_chemical_formula_structural   LiMnCo3O8
_chemical_formula_sum   'Li2 Mn2 Co6 O16'
_cell_volume   281.50439206
_cell_formula_units_Z   2
loop_
 _symmetry_equiv_pos_site_id
 _symmetry_equiv_pos_as_xyz
  1  'x, y, z'
loop_
 _atom_site_type_symbol
 _atom_site_label
 _atom_site_symmetry_multiplicity
 _atom_site_fract_x
 _atom_site_fract_y
 _atom_site_fract_z
 _atom_site_occupancy
  Li  Li0  1  0.75031400  0.50669600  0.26229400  1
  Li  Li1  1  0.24620300  0.49233700  0.73976300  1
  Mn  Mn0  1  0.99967300  0.00162500  0.00196200  1
  Mn  Mn1  1  0.50065300  0.99677500  0.49722900  1
  Co  Co0  1  0.75150800  0.00196200  0.25023000  1
  Co  Co1  1  0.00059700  0.99870200  0.49952300  1
  Co  Co2  1  0.24894500  0.00222900  0.25105700  1
  Co  Co3  1  0.24921500  0.99899800  0.74940900  1
  Co  Co4  1  0.49964100  0.00086200  0.00063600  1
  Co  Co5  1  0.75027800  0.99882400  0.74943500  1
  O  O0  1  0.59169700  0.18604000  0.86405000  1
  O  O1  1  0.09587600  0.18600700  0.36497700  1
  O  O2  1  0.40815500  0.81907100  0.13286000  1
  O  O3  1  0.90776300  0.81162200  0.63764500  1
  O  O4  1  0.65707900  0.80239400  0.38095000  1
  O  O5  1  0.15756200  0.80437700  0.88193900  1
  O  O6  1  0.90727000  0.80604600  0.13496300  1
  O  O7  1  0.40253000  0.80043400  0.63650000  1
  O  O8  1  0.15071100  0.80210000  0.37925700  1
  O  O9  1  0.64913000  0.80392000  0.88227000  1
  O  O10  1  0.84911200  0.19422300  0.62032000  1
  O  O11  1  0.35144300  0.19882900  0.11797500  1
  O  O12  1  0.09637800  0.19643600  0.86242400  1
  O  O13  1  0.59364300  0.19711300  0.36566500  1
  O  O14  1  0.34366400  0.19370400  0.62083800  1
  O  O15  1  0.84096200  0.19867400  0.11582500  1
loop_
_geom_bond_atom_site_label_1
_geom_bond_atom_site_label_2
_geom_bond_distance
_geom_bond_site_symmetry_2
Li0 O4 2.119977 1_555
Li0 O8 2.178394 1_655
Li0 O13 2.191370 1_555
Li0 O15 2.266633 1_555
Li0 O11 2.280074 1_555
Li0 O6 2.316785 1_555
Li1 O14 2.150254 1_555
Li1 O10 2.176418 1_455
Li1 O7 2.183565 1_555
Li1 O5 2.261081 1_555
Li1 O12 2.265749 1_555
Li1 O9 2.291282 1_555
Mn0 O6 1.912503 1_545
Mn0 O15 1.925275 1_555
Mn0 O11 1.934380 1_655
Mn0 O9 1.944563 1_544
Mn0 O5 1.948109 1_644
Mn0 O12 1.964744 1_654
Mn1 O4 1.914854 1_555
Mn1 O13 1.919895 1_565
Mn1 O8 1.935420 1_555
Mn1 O10 1.950739 1_565
Mn1 O14 1.958707 1_565
Mn1 O7 1.968571 1_555
Co0 O1 1.901344 1_655
Co0 O2 1.908773 1_545
Co0 O4 1.909533 1_545
Co0 O6 1.913906 1_545
Co0 O13 1.920503 1_555
Co0 O15 1.929276 1_555
Co1 O1 1.892387 1_565
Co1 O4 1.910571 1_455
Co1 O8 1.914113 1_555
Co1 O10 1.917939 1_465
Co1 O14 1.920982 1_565
Co1 O3 1.922034 1_455
Co2 O1 1.849255 1_555
Co2 O8 1.890652 1_545
Co2 O2 1.891624 1_545
Co2 O6 1.892280 1_445
Co2 O13 1.899001 1_555
Co2 O11 1.917417 1_555
Co3 O14 1.871575 1_565
Co3 O3 1.875155 1_455
Co3 O0 1.891715 1_565
Co3 O12 1.898411 1_565
Co3 O7 1.904557 1_555
Co3 O5 1.904680 1_555
Co4 O2 1.850642 1_545
Co4 O15 1.886770 1_555
Co4 O11 1.898903 1_555
Co4 O0 1.901364 1_554
Co4 O9 1.904618 1_544
Co4 O5 1.905074 1_544
Co5 O3 1.872491 1_555
Co5 O10 1.878985 1_565
Co5 O0 1.889005 1_565
Co5 O12 1.897850 1_665
Co5 O7 1.904517 1_555
Co5 O9 1.908436 1_555
