# generated using pymatgen
data_TmNiO3
_symmetry_space_group_name_H-M   'P 1'
_cell_length_a   5.08094633
_cell_length_b   5.49113582
_cell_length_c   7.30375113
_cell_angle_alpha   90.00000000
_cell_angle_beta   90.00000000
_cell_angle_gamma   90.00000000
_symmetry_Int_Tables_number   1
_chemical_formula_structural   TmNiO3
_chemical_formula_sum   'Tm4 Ni4 O12'
_cell_volume   203.77587181
_cell_formula_units_Z   4
loop_
 _symmetry_equiv_pos_site_id
 _symmetry_equiv_pos_as_xyz
  1  'x, y, z'
loop_
 _atom_site_type_symbol
 _atom_site_label
 _atom_site_symmetry_multiplicity
 _atom_site_fract_x
 _atom_site_fract_y
 _atom_site_fract_z
 _atom_site_occupancy
  Tm  Tm0  1  0.52268181  0.57967338  0.75000000  1
  Tm  Tm1  1  0.02268181  0.92032662  0.25000000  1
  Tm  Tm2  1  0.47731819  0.42032662  0.25000000  1
  Tm  Tm3  1  0.97731819  0.07967338  0.75000000  1
  Ni  Ni0  1  0.00000000  0.50000000  0.00000000  1
  Ni  Ni1  1  0.50000000  0.00000000  0.50000000  1
  Ni  Ni2  1  0.00000000  0.50000000  0.50000000  1
  Ni  Ni3  1  0.50000000  0.00000000  0.00000000  1
  O  O0  1  0.39070281  0.96636166  0.75000000  1
  O  O1  1  0.89070281  0.53363834  0.25000000  1
  O  O2  1  0.60929719  0.03363834  0.25000000  1
  O  O3  1  0.10929719  0.46636166  0.75000000  1
  O  O4  1  0.80899234  0.80703070  0.94611912  1
  O  O5  1  0.30899234  0.69296930  0.44611912  1
  O  O6  1  0.19100766  0.19296930  0.05388088  1
  O  O7  1  0.69100766  0.30703070  0.55388088  1
  O  O8  1  0.30899234  0.69296930  0.05388088  1
  O  O9  1  0.80899234  0.80703070  0.55388088  1
  O  O10  1  0.69100766  0.30703070  0.94611912  1
  O  O11  1  0.19100766  0.19296930  0.44611912  1
loop_
_geom_bond_atom_site_label_1
_geom_bond_atom_site_label_2
_geom_bond_distance
_geom_bond_site_symmetry_2
Ni0 O1 1.917436 1_455
Ni0 O3 1.917436 1_554
Ni0 O10 1.934549 1_454
Ni0 O8 1.934549 1_555
Ni0 O4 1.984731 1_454
Ni0 O6 1.984731 1_555
Ni1 O0 1.917436 1_545
Ni1 O2 1.917436 1_555
Ni1 O11 1.934549 1_555
Ni1 O9 1.934549 1_545
Ni1 O7 1.984731 1_555
Ni1 O5 1.984731 1_545
Ni2 O3 1.917436 1_555
Ni2 O1 1.917436 1_455
Ni2 O7 1.934549 1_455
Ni2 O5 1.934549 1_555
Ni2 O9 1.984731 1_455
Ni2 O11 1.984731 1_555
Ni3 O0 1.917436 1_544
Ni3 O2 1.917436 1_555
Ni3 O6 1.934549 1_555
Ni3 O4 1.934549 1_544
Ni3 O10 1.984731 1_554
Ni3 O8 1.984731 1_545
O0 Tm3 2.190608 1_465
O0 Tm0 2.226729 1_555
O1 Tm2 2.190608 1_555
O1 Tm1 2.226729 1_655
O2 Tm1 2.190608 1_645
O2 Tm2 2.226729 1_555
O3 Tm0 2.190608 1_555
O3 Tm3 2.226729 1_455
O4 Tm3 2.241564 1_565
O4 Tm0 2.393041 1_555
O4 Tm1 2.547926 1_656
O5 Tm2 2.241564 1_555
O5 Tm1 2.393041 1_555
O5 Tm0 2.547926 1_555
O6 Tm1 2.241564 1_545
O6 Tm2 2.393041 1_555
O6 Tm3 2.547926 1_454
O7 Tm0 2.241564 1_555
O7 Tm3 2.393041 1_555
O7 Tm2 2.547926 1_555
O8 Tm2 2.241564 1_555
O8 Tm1 2.393041 1_555
O8 Tm0 2.547926 1_554
O9 Tm3 2.241564 1_565
O9 Tm0 2.393041 1_555
O9 Tm1 2.547926 1_655
O10 Tm0 2.241564 1_555
O10 Tm3 2.393041 1_555
O10 Tm2 2.547926 1_556
O11 Tm1 2.241564 1_545
O11 Tm2 2.393041 1_555
O11 Tm3 2.547926 1_455
