# generated using pymatgen
data_Ca8Mn6Al2O21
_symmetry_space_group_name_H-M   'P 1'
_cell_length_a   10.90480742
_cell_length_b   15.30870376
_cell_length_c   10.81871364
_cell_angle_alpha   89.81823955
_cell_angle_beta   90.65581463
_cell_angle_gamma   90.10344030
_symmetry_Int_Tables_number   1
_chemical_formula_structural   Ca8Mn6Al2O21
_chemical_formula_sum   'Ca32 Mn24 Al8 O84'
_cell_volume   1805.92924097
_cell_formula_units_Z   4
loop_
 _symmetry_equiv_pos_site_id
 _symmetry_equiv_pos_as_xyz
  1  'x, y, z'
loop_
 _atom_site_type_symbol
 _atom_site_label
 _atom_site_symmetry_multiplicity
 _atom_site_fract_x
 _atom_site_fract_y
 _atom_site_fract_z
 _atom_site_occupancy
  Ca  Ca0  1  0.01549423  0.13431089  0.48831040  1
  Ca  Ca1  1  0.01300218  0.12135588  0.99677913  1
  Ca  Ca2  1  0.00899206  0.61898776  0.51271453  1
  Ca  Ca3  1  0.02137831  0.61829408  0.99691873  1
  Ca  Ca4  1  0.52502858  0.13119623  0.50854304  1
  Ca  Ca5  1  0.51912534  0.12311551  0.97555679  1
  Ca  Ca6  1  0.53014517  0.62364697  0.49461687  1
  Ca  Ca7  1  0.53933305  0.62759527  0.00508500  1
  Ca  Ca8  1  0.49125605  0.35981633  0.00774412  1
  Ca  Ca9  1  0.48325369  0.38261892  0.51251187  1
  Ca  Ca10  1  0.50124011  0.87111579  0.97828174  1
  Ca  Ca11  1  0.48873913  0.87301739  0.49614276  1
  Ca  Ca12  1  0.97314057  0.38514997  0.00809653  1
  Ca  Ca13  1  0.99083432  0.39229997  0.49976402  1
  Ca  Ca14  1  0.97615096  0.87884817  0.00134666  1
  Ca  Ca15  1  0.97657529  0.86882684  0.52458618  1
  Ca  Ca16  1  0.22494419  0.38140897  0.26307078  1
  Ca  Ca17  1  0.24178469  0.38325184  0.74610275  1
  Ca  Ca18  1  0.24523934  0.88963894  0.24948488  1
  Ca  Ca19  1  0.23448061  0.88574330  0.75990074  1
  Ca  Ca20  1  0.72761759  0.39215064  0.25545619  1
  Ca  Ca21  1  0.72176507  0.38289922  0.74970223  1
  Ca  Ca22  1  0.73820470  0.86479797  0.24224038  1
  Ca  Ca23  1  0.72545234  0.87262181  0.74830740  1
  Ca  Ca24  1  0.24734782  0.12747436  0.24537935  1
  Ca  Ca25  1  0.28225596  0.12395259  0.74256237  1
  Ca  Ca26  1  0.26727730  0.61572090  0.26757657  1
  Ca  Ca27  1  0.23997462  0.62210333  0.73314896  1
  Ca  Ca28  1  0.73039333  0.12278179  0.24285285  1
  Ca  Ca29  1  0.73513918  0.11350031  0.75069942  1
  Ca  Ca30  1  0.77956148  0.62605740  0.25868968  1
  Ca  Ca31  1  0.78223889  0.62703938  0.76254459  1
  Mn  Mn0  1  0.00672091  0.98937527  0.25238007  1
  Mn  Mn1  1  0.99276513  0.99678123  0.75924198  1
  Mn  Mn2  1  0.99765193  0.50131154  0.25144097  1
  Mn  Mn3  1  0.00625970  0.50014126  0.75731243  1
  Mn  Mn4  1  0.49626237  0.50094363  0.24682913  1
  Mn  Mn5  1  0.50284425  0.50429728  0.74271866  1
  Mn  Mn6  1  0.25442728  0.00353920  0.00198667  1
  Mn  Mn7  1  0.25028207  0.50038207  0.50085471  1
  Mn  Mn8  1  0.74660400  0.99717046  0.99813693  1
  Mn  Mn9  1  0.73277636  0.99770462  0.51175117  1
  Mn  Mn10  1  0.74898141  0.49990934  0.00269921  1
  Mn  Mn11  1  0.75436305  0.49900622  0.50081803  1
  Mn  Mn12  1  0.26715335  0.73690851  0.99597922  1
  Mn  Mn13  1  0.24327702  0.75920357  0.48065703  1
  Mn  Mn14  1  0.76839922  0.24119900  0.98459302  1
  Mn  Mn15  1  0.76173536  0.24795321  0.49067875  1
  Mn  Mn16  1  0.75868375  0.74890929  0.00441983  1
  Mn  Mn17  1  0.75747709  0.74814254  0.50668522  1
  Mn  Mn18  1  0.99415548  0.25889832  0.75042418  1
  Mn  Mn19  1  0.00517655  0.74930752  0.25998893  1
  Mn  Mn20  1  0.00804147  0.75173666  0.76085829  1
  Mn  Mn21  1  0.50402874  0.25136631  0.74557477  1
  Mn  Mn22  1  0.50798663  0.74626577  0.25871251  1
  Mn  Mn23  1  0.50550394  0.74469868  0.75222041  1
  Al  Al0  1  0.50680828  0.98238408  0.22751718  1
  Al  Al1  1  0.48344129  0.99361820  0.74198187  1
  Al  Al2  1  0.22138715  0.00293390  0.51892607  1
  Al  Al3  1  0.23545124  0.49304712  0.02077884  1
  Al  Al4  1  0.24684166  0.25342492  0.95147072  1
  Al  Al5  1  0.27509579  0.24176922  0.48284528  1
  Al  Al6  1  0.98068662  0.25925311  0.26042288  1
  Al  Al7  1  0.50688961  0.26180477  0.27603034  1
  O  O0  1  0.13107380  0.78052830  0.61974525  1
  O  O1  1  0.53115799  0.23198409  0.12452804  1
  O  O2  1  0.62074348  0.27488339  0.61605617  1
  O  O3  1  0.60573024  0.76809853  0.10887979  1
  O  O4  1  0.60204423  0.76861430  0.60562457  1
  O  O5  1  0.38467824  0.21582504  0.36238877  1
  O  O6  1  0.39042454  0.22832186  0.88429076  1
  O  O7  1  0.40631762  0.73400440  0.40460383  1
  O  O8  1  0.41401158  0.72636443  0.90658380  1
  O  O9  1  0.87832586  0.19897874  0.35412129  1
  O  O10  1  0.89399034  0.19339867  0.84832401  1
  O  O11  1  0.90640480  0.73184224  0.41401168  1
  O  O12  1  0.90767290  0.73038106  0.90627516  1
  O  O13  1  0.12278959  0.22766106  0.32909805  1
  O  O14  1  0.15141092  0.23485130  0.81579059  1
  O  O15  1  0.17628416  0.74860436  0.29224072  1
  O  O16  1  0.14924225  0.73015126  0.86447207  1
  O  O17  1  0.63949533  0.23352611  0.36192467  1
  O  O18  1  0.64117991  0.23432921  0.85856126  1
  O  O19  1  0.66163297  0.73204250  0.36001689  1
  O  O20  1  0.65734440  0.73630028  0.86017070  1
  O  O21  1  0.37298940  0.26324503  0.62344582  1
  O  O22  1  0.91865446  0.24462993  0.10661937  1
  O  O23  1  0.91452963  0.25543822  0.59450037  1
  O  O24  1  0.87145243  0.77386583  0.14513511  1
  O  O25  1  0.86089043  0.77381460  0.65484571  1
  O  O26  1  0.35876571  0.47435986  0.13483719  1
  O  O27  1  0.35895168  0.48084117  0.64273883  1
  O  O28  1  0.36425560  0.01771055  0.16388076  1
  O  O29  1  0.34323278  0.99845002  0.63721260  1
  O  O30  1  0.85349413  0.48205513  0.14770854  1
  O  O31  1  0.86206303  0.47999230  0.64536740  1
  O  O32  1  0.85230217  0.99585504  0.17259136  1
  O  O33  1  0.84867847  0.98636091  0.65581858  1
  O  O34  1  0.13313144  0.02630802  0.36489747  1
  O  O35  1  0.14472402  0.02753524  0.85714247  1
  O  O36  1  0.14250786  0.50733870  0.35470741  1
  O  O37  1  0.17419536  0.51366461  0.86527412  1
  O  O38  1  0.58768423  0.03252323  0.35173307  1
  O  O39  1  0.63757773  0.99988377  0.85688111  1
  O  O40  1  0.64486218  0.52074523  0.34781737  1
  O  O41  1  0.63784293  0.52581990  0.85790812  1
  O  O42  1  0.39088196  0.01210037  0.89061192  1
  O  O43  1  0.39431227  0.51582674  0.39334142  1
  O  O44  1  0.89616487  0.01168329  0.90874579  1
  O  O45  1  0.89828682  0.52234778  0.39341707  1
  O  O46  1  0.89655342  0.51550944  0.90056458  1
  O  O47  1  0.10082343  0.47681296  0.11292960  1
  O  O48  1  0.11467338  0.48742193  0.61351856  1
  O  O49  1  0.11124831  0.99451558  0.10719143  1
  O  O50  1  0.08314244  0.99529053  0.60703076  1
  O  O51  1  0.60200467  0.47679378  0.10273996  1
  O  O52  1  0.61551425  0.48068204  0.60032202  1
  O  O53  1  0.60851100  0.97840282  0.10291139  1
  O  O54  1  0.58866889  0.97839993  0.61278857  1
  O  O55  1  0.99335375  0.37432780  0.28146998  1
  O  O56  1  0.01550874  0.37846621  0.78891564  1
  O  O57  1  0.01327393  0.87327526  0.30351569  1
  O  O58  1  0.02199566  0.87130650  0.79804081  1
  O  O59  1  0.50019497  0.37655453  0.28977203  1
  O  O60  1  0.49845102  0.37985198  0.79291467  1
  O  O61  1  0.48020410  0.87235552  0.27274609  1
  O  O62  1  0.46377149  0.86825102  0.76271851  1
  O  O63  1  0.50709324  0.12443721  0.72220024  1
  O  O64  1  0.48019030  0.62539490  0.20999164  1
  O  O65  1  0.46650884  0.62676116  0.70836535  1
  O  O66  1  0.99957120  0.62548116  0.21265955  1
  O  O67  1  0.00426566  0.62595493  0.72377603  1
  O  O68  1  0.20225838  0.17679223  0.05877400  1
  O  O69  1  0.22489369  0.13420451  0.52985031  1
  O  O70  1  0.24398694  0.61999387  0.04868553  1
  O  O71  1  0.22770685  0.63685317  0.51483785  1
  O  O72  1  0.73280489  0.12119115  0.02894382  1
  O  O73  1  0.74047332  0.12001968  0.53366333  1
  O  O74  1  0.74964737  0.62647117  0.04274064  1
  O  O75  1  0.74897422  0.62553213  0.54687265  1
  O  O76  1  0.23099014  0.35452083  0.47596333  1
  O  O77  1  0.25400444  0.36710228  0.98276505  1
  O  O78  1  0.26859723  0.89093818  0.46423726  1
  O  O79  1  0.27546184  0.85936561  0.02217004  1
  O  O80  1  0.77349638  0.37486311  0.46017082  1
  O  O81  1  0.76051823  0.36690028  0.97271557  1
  O  O82  1  0.76231294  0.88118301  0.45799219  1
  O  O83  1  0.76414488  0.87459950  0.97161161  1
loop_
_geom_bond_atom_site_label_1
_geom_bond_atom_site_label_2
_geom_bond_distance
_geom_bond_site_symmetry_2
Ca0 O9 2.295990 1_455
Ca0 O69 2.322215 1_555
Ca0 O23 2.453632 1_455
Ca0 O34 2.494561 1_555
Ca0 O13 2.530339 1_555
Ca0 O50 2.586472 1_545
Ca1 O44 2.307354 1_455
Ca1 O68 2.322703 1_556
Ca1 O10 2.329461 1_455
Ca1 O22 2.466023 1_456
Ca1 O49 2.511695 1_546
Ca1 O35 2.545427 1_555
Ca2 O67 2.287416 1_555
Ca2 O45 2.298230 1_455
Ca2 O11 2.311812 1_455
Ca2 O71 2.400039 1_555
Ca2 O48 2.557290 1_555
Ca3 O46 2.320687 1_455
Ca3 O12 2.326503 1_455
Ca3 O66 2.351769 1_456
Ca3 O70 2.485126 1_556
Ca3 O16 2.636511 1_555
Ca3 O47 2.642254 1_556
Ca3 O37 2.729370 1_555
Ca3 O67 2.960772 1_555
Ca3 O74 3.012836 1_456
Ca4 O63 2.323947 1_555
Ca4 O73 2.368391 1_555
Ca4 O38 2.381843 1_555
Ca4 O5 2.541622 1_555
Ca4 O17 2.559441 1_555
Ca4 O54 2.682576 1_545
Ca4 O2 2.694628 1_555
Ca4 O21 2.907885 1_555
Ca5 O1 2.324610 1_556
Ca5 O6 2.346254 1_555
Ca5 O42 2.379174 1_555
Ca5 O72 2.394436 1_556
Ca5 O18 2.507779 1_555
Ca5 O39 2.634012 1_545
Ca5 O63 2.742642 1_555
Ca5 O53 2.777408 1_546
Ca5 O28 3.107256 1_556
Ca6 O7 2.365070 1_555
Ca6 O65 2.422594 1_555
Ca6 O75 2.446178 1_555
Ca6 O43 2.466673 1_555
Ca6 O40 2.576287 1_555
Ca6 O52 2.632784 1_555
Ca6 O19 2.637026 1_555
Ca6 O4 2.640309 1_555
Ca7 O8 2.292022 1_554
Ca7 O64 2.315940 1_555
Ca7 O74 2.324828 1_555
Ca7 O41 2.485505 1_554
Ca7 O3 2.530369 1_555
Ca7 O51 2.624209 1_555
Ca7 O20 2.627790 1_554
Ca8 O60 2.345549 1_554
Ca8 O1 2.364335 1_555
Ca8 O51 2.386855 1_555
Ca8 O77 2.600737 1_554
Ca8 O6 2.649624 1_554
Ca8 O26 2.668839 1_555
Ca8 O81 2.966650 1_554
Ca8 O18 3.009915 1_554
Ca8 O59 3.063155 1_555
Ca9 O52 2.281704 1_555
Ca9 O59 2.421024 1_555
Ca9 O27 2.479479 1_555
Ca9 O2 2.486303 1_555
Ca9 O21 2.497394 1_555
Ca9 O43 2.592920 1_555
Ca9 O76 2.807250 1_555
Ca10 O62 2.363558 1_555
Ca10 O3 2.395255 1_556
Ca10 O53 2.419696 1_556
Ca10 O79 2.518771 1_556
Ca10 O8 2.530483 1_555
Ca10 O42 2.641276 1_565
Ca10 O39 2.799821 1_555
Ca10 O83 2.869055 1_555
Ca10 O20 2.978132 1_555
Ca11 O54 2.314680 1_555
Ca11 O4 2.333595 1_555
Ca11 O61 2.417644 1_555
Ca11 O78 2.437237 1_555
Ca11 O7 2.510681 1_555
Ca11 O62 2.900606 1_555
Ca12 O47 2.271773 1_655
Ca12 O81 2.361890 1_554
Ca12 O56 2.423545 1_654
Ca12 O46 2.450002 1_554
Ca12 O22 2.472258 1_555
Ca12 O30 2.500148 1_555
Ca13 O48 2.329160 1_655
Ca13 O55 2.378976 1_555
Ca13 O80 2.418051 1_555
Ca13 O23 2.476330 1_555
Ca13 O45 2.504381 1_555
Ca13 O31 2.515211 1_555
Ca13 O76 2.698339 1_655
Ca14 O58 2.264527 1_654
Ca14 O83 2.331329 1_554
Ca14 O44 2.423463 1_564
Ca14 O24 2.514858 1_555
Ca14 O49 2.565518 1_655
Ca14 O12 2.602395 1_554
Ca14 O32 2.924351 1_555
Ca15 O0 2.384370 1_655
Ca15 O25 2.390413 1_555
Ca15 O50 2.423471 1_655
Ca15 O57 2.430183 1_655
Ca15 O82 2.444632 1_555
Ca15 O11 2.530496 1_555
Ca15 O33 2.696100 1_555
Ca16 O76 2.338637 1_555
Ca16 O36 2.355048 1_555
Ca16 O26 2.470900 1_555
Ca16 O55 2.537647 1_455
Ca16 O47 2.558380 1_555
Ca16 O13 2.699835 1_555
Ca17 O27 2.264982 1_555
Ca17 O37 2.496938 1_555
Ca17 O56 2.516691 1_555
Ca17 O48 2.543593 1_555
Ca17 O77 2.573466 1_555
Ca17 O14 2.588217 1_555
Ca17 O21 2.692865 1_555
Ca17 O60 2.839178 1_555
Ca17 O76 2.957831 1_555
Ca18 O15 2.331667 1_555
Ca18 O78 2.334509 1_555
Ca18 O28 2.528423 1_565
Ca18 O79 2.529361 1_555
Ca18 O61 2.585673 1_555
Ca18 O57 2.614123 1_555
Ca18 O49 2.650247 1_555
Ca18 O34 2.737106 1_565
Ca19 O58 2.368027 1_555
Ca19 O0 2.476872 1_555
Ca19 O29 2.481795 1_555
Ca19 O62 2.514980 1_555
Ca19 O35 2.611940 1_565
Ca19 O16 2.795778 1_555
Ca19 O50 2.863758 1_555
Ca19 O79 2.894488 1_556
Ca19 O42 2.932672 1_565
Ca20 O30 2.270885 1_555
Ca20 O80 2.279659 1_555
Ca20 O40 2.393289 1_555
Ca20 O51 2.495217 1_555
Ca20 O59 2.522619 1_555
Ca20 O17 2.854152 1_555
Ca21 O31 2.417592 1_555
Ca21 O2 2.451652 1_555
Ca21 O81 2.456230 1_555
Ca21 O52 2.478525 1_555
Ca21 O60 2.485243 1_555
Ca21 O41 2.653859 1_555
Ca21 O18 2.707708 1_555
Ca22 O24 2.281300 1_555
Ca22 O82 2.360032 1_555
Ca22 O32 2.478708 1_555
Ca22 O3 2.513577 1_555
Ca22 O19 2.540253 1_555
Ca22 O53 2.690800 1_555
Ca22 O61 2.839096 1_555
Ca22 O83 2.948031 1_554
Ca22 O57 3.067146 1_655
Ca23 O25 2.354496 1_555
Ca23 O33 2.418668 1_555
Ca23 O83 2.447944 1_555
Ca23 O39 2.478019 1_555
Ca23 O20 2.523958 1_555
Ca23 O4 2.586373 1_555
Ca23 O54 2.634433 1_555
Ca23 O62 2.860267 1_555
Ca24 O68 2.203723 1_555
Ca24 O13 2.249911 1_555
Ca24 O28 2.295449 1_555
Ca24 O5 2.373747 1_555
Ca24 O34 2.374651 1_555
Ca24 O49 2.922038 1_545
Ca25 O29 2.338451 1_545
Ca25 O14 2.364086 1_555
Ca25 O69 2.382618 1_555
Ca25 O35 2.446940 1_555
Ca25 O63 2.464190 1_555
Ca25 O6 2.502517 1_555
Ca25 O42 2.616699 1_555
Ca25 O21 2.681585 1_555
Ca26 O15 2.282728 1_555
Ca26 O36 2.346055 1_555
Ca26 O70 2.379513 1_555
Ca26 O64 2.414949 1_555
Ca26 O43 2.461749 1_555
Ca26 O71 2.734806 1_555
Ca26 O7 2.780488 1_555
Ca26 O26 2.793039 1_555
Ca26 O66 2.976381 1_455
Ca27 O37 2.306012 1_555
Ca27 O71 2.374171 1_555
Ca27 O16 2.405500 1_555
Ca27 O65 2.488739 1_555
Ca27 O67 2.571975 1_555
Ca27 O27 2.714629 1_555
Ca27 O48 2.785565 1_555
Ca27 O0 2.958995 1_555
Ca27 O8 3.097829 1_555
Ca28 O72 2.314877 1_555
Ca28 O9 2.317273 1_555
Ca28 O17 2.359104 1_555
Ca28 O38 2.396339 1_555
Ca28 O32 2.482439 1_545
Ca29 O39 2.342081 1_545
Ca29 O73 2.351235 1_555
Ca29 O10 2.360275 1_555
Ca29 O18 2.425069 1_555
Ca29 O63 2.508163 1_555
Ca29 O33 2.534825 1_545
Ca30 O19 2.353521 1_555
Ca30 O74 2.355244 1_555
Ca30 O40 2.387577 1_555
Ca30 O66 2.455913 1_555
Ca30 O45 2.504181 1_555
Ca30 O30 2.645136 1_555
Ca30 O11 2.704710 1_555
Ca30 O24 2.763291 1_555
Ca31 O75 2.357394 1_555
Ca31 O20 2.412580 1_555
Ca31 O41 2.441952 1_555
Ca31 O67 2.462040 1_655
Ca31 O46 2.578302 1_555
Ca31 O12 2.598239 1_555
Ca31 O25 2.672314 1_555
Ca31 O31 2.735450 1_555
Mn0 O57 1.861025 1_555
Mn0 O32 1.886081 1_455
Mn0 O34 1.914374 1_565
Mn0 O49 1.952588 1_555
Mn1 O33 1.925142 1_555
Mn1 O50 1.928993 1_655
Mn1 O44 1.954490 1_565
Mn1 O58 1.990355 1_655
Mn1 O35 2.012352 1_665
Mn2 O45 1.918227 1_555
Mn2 O47 1.922409 1_655
Mn2 O36 1.926556 1_655
Mn2 O30 1.943609 1_555
Mn2 O66 1.945456 1_555
Mn2 O55 1.970462 1_555
Mn3 O56 1.895396 1_555
Mn3 O67 1.958901 1_555
Mn3 O48 1.974976 1_555
Mn3 O46 1.983485 1_455
Mn3 O31 1.997872 1_455
Mn3 O37 2.170710 1_555
Mn4 O64 1.952966 1_555
Mn4 O59 1.959087 1_555
Mn4 O26 1.959867 1_555
Mn4 O43 1.960586 1_555
Mn4 O40 1.967549 1_555
Mn4 O51 1.985625 1_555
Mn5 O27 1.929412 1_555
Mn5 O41 1.946180 1_555
Mn5 O65 1.950579 1_555
Mn5 O60 1.979974 1_555
Mn5 O52 2.015445 1_555
Mn6 O42 1.929392 1_554
Mn6 O49 1.947106 1_545
Mn6 O35 1.994156 1_554
Mn6 O28 2.121934 1_555
Mn6 O79 2.229183 1_545
Mn7 O48 1.936622 1_555
Mn7 O27 1.951083 1_555
Mn7 O36 1.961982 1_555
Mn7 O43 1.978489 1_555
Mn7 O71 2.110200 1_555
Mn7 O76 2.259126 1_555
Mn8 O83 1.909397 1_555
Mn8 O53 1.915865 1_556
Mn8 O44 1.917815 1_565
Mn8 O39 1.925833 1_555
Mn8 O72 1.935094 1_566
Mn8 O32 2.200262 1_556
Mn9 O73 1.889772 1_565
Mn9 O82 1.907059 1_555
Mn9 O54 1.946096 1_555
Mn9 O33 2.002714 1_555
Mn9 O38 2.391441 1_565
Mn10 O30 1.947371 1_555
Mn10 O51 1.975012 1_555
Mn10 O46 1.976181 1_554
Mn10 O74 1.986658 1_555
Mn10 O41 2.008546 1_554
Mn10 O81 2.067171 1_554
Mn11 O52 1.887849 1_555
Mn11 O80 1.964061 1_555
Mn11 O31 1.966201 1_555
Mn11 O45 1.994513 1_555
Mn11 O75 2.002668 1_555
Mn11 O40 2.056504 1_555
Mn12 O8 1.887718 1_555
Mn12 O70 1.894091 1_556
Mn12 O79 1.898687 1_556
Mn12 O16 1.909643 1_555
Mn13 O71 1.915645 1_555
Mn13 O0 1.978548 1_555
Mn13 O7 2.006193 1_555
Mn13 O78 2.042463 1_555
Mn13 O15 2.163971 1_555
Mn14 O81 1.930206 1_555
Mn14 O18 1.936978 1_555
Mn14 O72 1.937048 1_556
Mn14 O22 2.093063 1_556
Mn14 O10 2.154355 1_555
Mn15 O17 1.929866 1_555
Mn15 O80 1.973819 1_555
Mn15 O23 2.002056 1_555
Mn15 O73 2.025038 1_555
Mn15 O9 2.101110 1_555
Mn15 O2 2.104114 1_555
Mn16 O20 1.911957 1_554
Mn16 O74 1.920985 1_555
Mn16 O83 1.956435 1_554
Mn16 O12 1.972455 1_554
Mn16 O24 1.983656 1_555
Mn16 O3 2.047556 1_555
Mn17 O19 1.906440 1_555
Mn17 O75 1.927666 1_555
Mn17 O11 1.935274 1_555
Mn17 O25 1.989093 1_555
Mn17 O4 2.040209 1_555
Mn17 O82 2.102805 1_555
Mn18 O10 1.826501 1_555
Mn18 O14 1.883923 1_655
Mn18 O23 1.889244 1_555
Mn18 O56 1.891873 1_655
Mn19 O15 1.894353 1_555
Mn19 O24 1.941472 1_455
Mn19 O57 1.958379 1_555
Mn19 O66 1.965789 1_455
Mn19 O11 2.011336 1_455
Mn20 O58 1.880909 1_555
Mn20 O16 1.922660 1_555
Mn20 O12 1.953127 1_455
Mn20 O67 1.968411 1_555
Mn20 O25 1.990462 1_455
Mn20 O0 2.089368 1_555
Mn21 O2 1.936210 1_555
Mn21 O18 1.938191 1_555
Mn21 O21 1.943440 1_555
Mn21 O63 1.960696 1_555
Mn21 O6 1.987201 1_555
Mn21 O60 2.035296 1_555
Mn22 O7 1.947574 1_555
Mn22 O64 1.947847 1_555
Mn22 O61 1.961073 1_555
Mn22 O3 1.977438 1_555
Mn22 O19 2.003398 1_555
Mn23 O65 1.914079 1_555
Mn23 O4 1.946999 1_555
Mn23 O62 1.950166 1_555
Mn23 O8 1.974157 1_555
Mn23 O20 2.019325 1_555
Al0 O53 1.756701 1_555
Al0 O38 1.774792 1_565
Al0 O61 1.776806 1_555
Al0 O28 1.777392 1_565
Al1 O54 1.834210 1_555
Al1 O29 1.894230 1_555
Al1 O42 1.930159 1_565
Al1 O62 1.943344 1_555
Al1 O63 2.029701 1_565
Al1 O39 2.081329 1_555
Al2 O50 1.796231 1_545
Al2 O29 1.835392 1_545
Al2 O78 1.889772 1_545
Al2 O34 1.947276 1_555
Al2 O69 2.013698 1_555
Al3 O47 1.800440 1_555
Al3 O37 1.829707 1_554
Al3 O26 1.836831 1_555
Al3 O70 1.969520 1_555
Al3 O77 1.983884 1_554
Al4 O68 1.721194 1_556
Al4 O77 1.775345 1_555
Al4 O6 1.776927 1_555
Al4 O14 1.812486 1_555
Al5 O76 1.793763 1_555
Al5 O69 1.807664 1_555
Al5 O5 1.823362 1_555
Al5 O21 1.877817 1_555
Al5 O13 2.347254 1_555
Al6 O9 1.772344 1_555
Al6 O13 1.777994 1_655
Al6 O55 1.781928 1_555
Al6 O22 1.803468 1_555
Al7 O1 1.726289 1_555
Al7 O17 1.763781 1_555
Al7 O59 1.765132 1_555
Al7 O5 1.779147 1_555
