# generated using pymatgen
data_PW5O17
_symmetry_space_group_name_H-M   'P 1'
_cell_length_a   36.80496400
_cell_length_b   5.39058400
_cell_length_c   6.68320603
_cell_angle_alpha   89.92306500
_cell_angle_beta   90.00000000
_cell_angle_gamma   90.00000000
_symmetry_Int_Tables_number   1
_chemical_formula_structural   PW5O17
_chemical_formula_sum   'P4 W20 O68'
_cell_volume   1325.94855119
_cell_formula_units_Z   4
loop_
 _symmetry_equiv_pos_site_id
 _symmetry_equiv_pos_as_xyz
  1  'x, y, z'
loop_
 _atom_site_type_symbol
 _atom_site_label
 _atom_site_symmetry_multiplicity
 _atom_site_fract_x
 _atom_site_fract_y
 _atom_site_fract_z
 _atom_site_occupancy
  P  P0  1  0.29995800  0.99685400  0.44414000  1
  P  P1  1  0.79995800  0.00314600  0.55586000  1
  P  P2  1  0.23925400  0.52772100  0.94583500  1
  P  P3  1  0.73925400  0.47227900  0.05416500  1
  W  W0  1  0.32815400  0.50474700  0.75128000  1
  W  W1  1  0.82815400  0.49525300  0.24872000  1
  W  W2  1  0.21093700  0.01885900  0.25137600  1
  W  W3  1  0.71093700  0.98114100  0.74862400  1
  W  W4  1  0.37056400  0.00001200  0.09046500  1
  W  W5  1  0.87056400  0.99998800  0.90953500  1
  W  W6  1  0.16882000  0.51956200  0.59161600  1
  W  W7  1  0.66882000  0.48043800  0.40838400  1
  W  W8  1  0.41439600  0.50087000  0.42251100  1
  W  W9  1  0.91439600  0.49913000  0.57748900  1
  W  W10  1  0.12484500  0.01267600  0.92109900  1
  W  W11  1  0.62484500  0.98732400  0.07890100  1
  W  W12  1  0.45669100  0.99413700  0.75622200  1
  W  W13  1  0.95669100  0.00586300  0.24377800  1
  W  W14  1  0.08309000  0.51334700  0.25551500  1
  W  W15  1  0.58309000  0.48665300  0.74448500  1
  W  W16  1  0.49936600  0.49256600  0.08701000  1
  W  W17  1  0.99936600  0.50743400  0.91299000  1
  W  W18  1  0.04072300  0.00935100  0.58205300  1
  W  W19  1  0.54072300  0.99064900  0.41794700  1
  O  O0  1  0.32418200  0.00773500  0.25649100  1
  O  O1  1  0.82418200  0.99226500  0.74350900  1
  O  O2  1  0.21589700  0.51405700  0.75518800  1
  O  O3  1  0.71589700  0.48594300  0.24481200  1
  O  O4  1  0.41008400  0.00750200  0.91925800  1
  O  O5  1  0.91008400  0.99249800  0.08074200  1
  O  O6  1  0.12920600  0.51920500  0.41988900  1
  O  O7  1  0.62920600  0.48079500  0.58011100  1
  O  O8  1  0.34313400  0.77885800  0.90019600  1
  O  O9  1  0.84313400  0.22114200  0.09980400  1
  O  O10  1  0.19660200  0.74890500  0.40538100  1
  O  O11  1  0.69660200  0.25109500  0.59461900  1
  O  O12  1  0.38648300  0.72212900  0.23284800  1
  O  O13  1  0.88648300  0.27787100  0.76715200  1
  O  O14  1  0.15314700  0.80011500  0.73448200  1
  O  O15  1  0.65314700  0.19988500  0.26551800  1
  O  O16  1  0.39137500  0.22398600  0.27267800  1
  O  O17  1  0.89137500  0.77601400  0.72732200  1
  O  O18  1  0.14790400  0.29763500  0.77281800  1
  O  O19  1  0.64790400  0.70236500  0.22718200  1
  O  O20  1  0.34674300  0.28069000  0.93735000  1
  O  O21  1  0.84674300  0.71931000  0.06265000  1
  O  O22  1  0.19242400  0.24688900  0.43610700  1
  O  O23  1  0.69242400  0.75311100  0.56389300  1
  O  O24  1  0.49677900  0.99865100  0.59004100  1
  O  O25  1  0.99677900  0.00134900  0.40995900  1
  O  O26  1  0.04115700  0.50862400  0.08359900  1
  O  O27  1  0.54115700  0.49137600  0.91640100  1
  O  O28  1  0.47863500  0.20992800  0.94445400  1
  O  O29  1  0.97863500  0.79007200  0.05554600  1
  O  O30  1  0.06053700  0.30574600  0.43941900  1
  O  O31  1  0.56053700  0.69425400  0.56058100  1
  O  O32  1  0.42970100  0.78409900  0.56493800  1
  O  O33  1  0.92970100  0.21590100  0.43506200  1
  O  O34  1  0.10927400  0.73014900  0.06335800  1
  O  O35  1  0.60927400  0.26985100  0.93664200  1
  O  O36  1  0.43546200  0.28318100  0.60755200  1
  O  O37  1  0.93546200  0.71681900  0.39244800  1
  O  O38  1  0.10384900  0.23343100  0.10655900  1
  O  O39  1  0.60384900  0.76656900  0.89344100  1
  O  O40  1  0.47255300  0.71090900  0.89846900  1
  O  O41  1  0.97255300  0.28909100  0.10153100  1
  O  O42  1  0.06620800  0.80394500  0.39177600  1
  O  O43  1  0.56620800  0.19605500  0.60822400  1
  O  O44  1  0.45386600  0.49889700  0.25006000  1
  O  O45  1  0.95386600  0.50110300  0.74994000  1
  O  O46  1  0.08510100  0.01607400  0.75344300  1
  O  O47  1  0.58510100  0.98392600  0.24655700  1
  O  O48  1  0.51582500  0.78108700  0.23004400  1
  O  O49  1  0.01582500  0.21891300  0.76995600  1
  O  O50  1  0.02186700  0.71392500  0.72587800  1
  O  O51  1  0.52186700  0.28607500  0.27412200  1
  O  O52  1  0.36864700  0.50185300  0.58827600  1
  O  O53  1  0.86864700  0.49814700  0.41172400  1
  O  O54  1  0.17019900  0.01930200  0.09096300  1
  O  O55  1  0.67019900  0.98069800  0.90903700  1
  O  O56  1  0.30846500  0.21312600  0.58738100  1
  O  O57  1  0.80846500  0.78687400  0.41261900  1
  O  O58  1  0.23036800  0.31165600  0.08787300  1
  O  O59  1  0.73036800  0.68834400  0.91212700  1
  O  O60  1  0.26009800  0.02375500  0.37801300  1
  O  O61  1  0.76009800  0.97624500  0.62198700  1
  O  O62  1  0.27970600  0.50414900  0.88558100  1
  O  O63  1  0.77970600  0.49585100  0.11441900  1
  O  O64  1  0.30437000  0.74333700  0.54894300  1
  O  O65  1  0.80437000  0.25666300  0.45105700  1
  O  O66  1  0.23435600  0.78038600  0.04959700  1
  O  O67  1  0.73435600  0.21961400  0.95040300  1
loop_
_geom_bond_atom_site_label_1
_geom_bond_atom_site_label_2
_geom_bond_distance
_geom_bond_site_symmetry_2
O0 P0 1.539769 1_545
O0 W4 2.036464 1_555
O1 P1 1.539769 1_565
O1 W5 2.036464 1_555
O2 P2 1.538862 1_555
O2 W6 2.048898 1_555
O3 P3 1.538862 1_555
O3 W7 2.048898 1_555
O4 W4 1.851051 1_556
O4 W12 2.033501 1_545
O5 W5 1.851051 1_554
O5 W13 2.033501 1_565
O6 W6 1.855515 1_555
O6 W14 2.022056 1_555
O7 W7 1.855515 1_555
O7 W15 2.022056 1_555
O8 W0 1.865951 1_555
O8 W4 2.015313 1_566
O9 W1 1.865951 1_555
O9 W5 2.015313 1_544
O10 W2 1.857774 1_565
O10 W6 2.029525 1_555
O11 W3 1.857774 1_545
O11 W7 2.029525 1_555
O12 W4 1.867834 1_565
O12 W8 2.020057 1_555
O13 W5 1.867834 1_545
O13 W9 2.020057 1_555
O14 W6 1.880282 1_555
O14 W10 1.989299 1_565
O15 W7 1.880282 1_555
O15 W11 1.989299 1_545
O16 W4 1.879169 1_555
O16 W8 1.988063 1_555
O17 W5 1.879169 1_555
O17 W9 1.988063 1_555
O18 W6 1.867201 1_555
O18 W10 2.014407 1_555
O19 W7 1.867201 1_555
O19 W11 2.014407 1_555
O20 W0 1.862587 1_555
O20 W4 2.025059 1_556
O21 W1 1.862587 1_555
O21 W5 2.025059 1_554
O22 W2 1.871773 1_555
O22 W6 1.999867 1_555
O23 W3 1.871773 1_555
O23 W7 1.999867 1_555
O24 W12 1.846867 1_555
O24 W19 1.985110 1_555
O25 W13 1.846867 1_555
O25 W18 1.985110 1_655
O26 W17 1.914668 1_454
O26 W14 1.924245 1_555
O27 W16 1.914668 1_556
O27 W15 1.924245 1_555
O28 W12 1.895230 1_545
O28 W16 1.953222 1_556
O29 W13 1.895230 1_565
O29 W17 1.953222 1_554
O30 W14 1.856955 1_555
O30 W18 1.997296 1_555
O31 W15 1.856955 1_555
O31 W19 1.997296 1_555
O32 W8 1.886343 1_555
O32 W12 1.976584 1_555
O33 W9 1.886343 1_555
O33 W13 1.976584 1_555
O34 W10 1.883599 1_564
O34 W14 1.984882 1_555
O35 W11 1.883599 1_546
O35 W15 1.984882 1_555
O36 W8 1.871797 1_555
O36 W12 2.005311 1_545
O37 W9 1.871797 1_555
O37 W13 2.005311 1_565
O38 W10 1.885070 1_554
O38 W14 1.963574 1_555
O39 W11 1.885070 1_556
O39 W15 1.963574 1_555
O40 W12 1.889894 1_555
O40 W16 1.985689 1_556
O41 W13 1.889894 1_555
O41 W17 1.985689 1_554
O42 W14 1.916533 1_555
O42 W18 1.930471 1_565
O43 W15 1.916533 1_555
O43 W19 1.930471 1_545
O44 W8 1.854393 1_555
O44 W16 1.998268 1_555
O45 W9 1.854393 1_555
O45 W17 1.998268 1_555
O46 W10 1.842680 1_555
O46 W18 1.995298 1_555
O47 W11 1.842680 1_555
O47 W19 1.995298 1_555
O48 W19 1.922680 1_555
O48 W16 1.924499 1_555
O49 W18 1.922680 1_555
O49 W17 1.924499 1_455
O50 W17 1.866781 1_455
O50 W18 1.984329 1_565
O51 W16 1.866781 1_555
O51 W19 1.984329 1_545
O52 W0 1.846126 1_555
O52 W8 2.015566 1_555
O53 W1 1.846126 1_555
O53 W9 2.015566 1_555
O54 W2 1.843210 1_555
O54 W10 2.019047 1_554
O55 W3 1.843210 1_555
O55 W11 2.019047 1_556
O56 P0 1.541634 1_545
O56 W0 2.049583 1_555
O57 P1 1.541634 1_565
O57 W1 2.049583 1_555
O58 P2 1.536772 1_554
O58 W2 2.047448 1_555
O59 P3 1.536772 1_556
O59 W3 2.047448 1_555
O60 P0 1.538958 1_545
O60 W2 1.997715 1_555
O61 P1 1.538958 1_565
O61 W3 1.997715 1_555
O62 P2 1.547602 1_555
O62 W0 1.996287 1_555
O63 P3 1.547602 1_555
O63 W1 1.996287 1_555
O64 P0 1.543371 1_555
O64 W0 2.060185 1_555
O65 P1 1.543371 1_555
O65 W1 2.060185 1_555
O66 P2 1.539806 1_554
O66 W2 2.053937 1_565
O67 P3 1.539806 1_556
O67 W3 2.053937 1_545
