# generated using pymatgen
data_Y2Co3N4
_symmetry_space_group_name_H-M   'P 1'
_cell_length_a   5.74348499
_cell_length_b   7.92606887
_cell_length_c   6.59827853
_cell_angle_alpha   90.00000471
_cell_angle_beta   82.36764034
_cell_angle_gamma   133.63051098
_symmetry_Int_Tables_number   1
_chemical_formula_structural   Y2Co3N4
_chemical_formula_sum   'Y4 Co6 N8'
_cell_volume   213.72125859
_cell_formula_units_Z   2
loop_
 _symmetry_equiv_pos_site_id
 _symmetry_equiv_pos_as_xyz
  1  'x, y, z'
loop_
 _atom_site_type_symbol
 _atom_site_label
 _atom_site_symmetry_multiplicity
 _atom_site_fract_x
 _atom_site_fract_y
 _atom_site_fract_z
 _atom_site_occupancy
  Y  Y0  1  0.67234126  0.21507691  0.66129643  1
  Y  Y1  1  0.32765874  0.54273565  0.83870357  1
  Y  Y2  1  0.32765874  0.78492309  0.33870357  1
  Y  Y3  1  0.67234126  0.45726435  0.16129643  1
  Co  Co0  1  0.21808647  0.99029351  0.03581698  1
  Co  Co1  1  0.78191353  0.77220704  0.46418302  1
  Co  Co2  1  0.78191353  0.00970649  0.96418302  1
  Co  Co3  1  0.21808647  0.22779296  0.53581698  1
  Co  Co4  1  -0.00000000  0.74542163  0.75000000  1
  Co  Co5  1  0.00000000  0.25457837  0.25000000  1
  N  N0  1  0.20477512  0.98281513  0.52116257  1
  N  N1  1  0.79522488  0.77804101  0.97883743  1
  N  N2  1  0.79522488  0.01718487  0.47883743  1
  N  N3  1  0.20477512  0.22195899  0.02116257  1
  N  N4  1  0.74125981  0.22051863  0.03699064  1
  N  N5  1  0.25874019  0.47925882  0.46300936  1
  N  N6  1  0.25874019  0.77948137  0.96300936  1
  N  N7  1  0.74125981  0.52074118  0.53699064  1
loop_
_geom_bond_atom_site_label_1
_geom_bond_atom_site_label_2
_geom_bond_distance
_geom_bond_site_symmetry_2
Co0 N1 1.863912 1_454
Co0 N3 1.892751 1_565
Co0 N6 1.893638 1_554
Co0 N4 2.190499 1_565
Co1 N0 1.863913 1_655
Co1 N2 1.892759 1_565
Co1 N7 1.893638 1_555
Co1 N5 2.190499 1_555
Co2 N3 1.863912 1_656
Co2 N1 1.892751 1_545
Co2 N4 1.893638 1_556
Co2 N6 2.190499 1_545
Co3 N2 1.863913 1_455
Co3 N0 1.892759 1_545
Co3 N5 1.893638 1_555
Co3 N7 2.190499 1_555
Co4 N0 1.917784 1_555
Co4 N1 1.917788 1_455
Co4 N6 2.063464 1_555
Co4 N7 2.063464 1_455
Co5 N2 1.917784 1_455
Co5 N3 1.917788 1_555
Co5 N4 2.063464 1_455
Co5 N5 2.063464 1_555
N0 Y0 2.300620 1_565
N0 Y2 2.389506 1_555
N1 Y1 2.300620 1_555
N1 Y3 2.389513 1_556
N2 Y2 2.300620 1_545
N2 Y0 2.389506 1_555
N3 Y3 2.300620 1_555
N3 Y1 2.389513 1_554
N4 Y3 2.299851 1_555
N4 Y1 2.556721 1_654
N4 Y0 2.557489 1_554
N5 Y2 2.299851 1_555
N5 Y0 2.556721 1_455
N5 Y1 2.557489 1_555
N6 Y1 2.299851 1_555
N6 Y3 2.556721 1_456
N6 Y2 2.557489 1_556
N7 Y0 2.299851 1_555
N7 Y2 2.556721 1_655
N7 Y3 2.557489 1_555
