# generated using pymatgen
data_BaCaTi4O8
_symmetry_space_group_name_H-M   'P 1'
_cell_length_a   5.55764633
_cell_length_b   5.55764633
_cell_length_c   7.80762100
_cell_angle_alpha   90.00000000
_cell_angle_beta   90.00000000
_cell_angle_gamma   120.00000390
_symmetry_Int_Tables_number   1
_chemical_formula_structural   BaCaTi4O8
_chemical_formula_sum   'Ba1 Ca1 Ti4 O8'
_cell_volume   208.84839899
_cell_formula_units_Z   1
loop_
 _symmetry_equiv_pos_site_id
 _symmetry_equiv_pos_as_xyz
  1  'x, y, z'
loop_
 _atom_site_type_symbol
 _atom_site_label
 _atom_site_symmetry_multiplicity
 _atom_site_fract_x
 _atom_site_fract_y
 _atom_site_fract_z
 _atom_site_occupancy
  Ba  Ba0  1  0.00000000  0.00000000  0.00000000  1
  Ca  Ca0  1  0.00000000  0.00000000  0.50000000  1
  Ti  Ti0  1  0.33333300  0.66666700  0.75941800  1
  Ti  Ti1  1  0.66666700  0.33333300  0.75941800  1
  Ti  Ti2  1  0.33333300  0.66666700  0.24058200  1
  Ti  Ti3  1  0.66666700  0.33333300  0.24058200  1
  O  O0  1  0.33107200  0.33107200  0.69424000  1
  O  O1  1  0.66892800  0.00000000  0.69424000  1
  O  O2  1  0.00000000  0.66892800  0.69424000  1
  O  O3  1  0.66892800  0.66892800  0.30576000  1
  O  O4  1  0.00000000  0.33107200  0.30576000  1
  O  O5  1  0.33107200  0.00000000  0.30576000  1
  O  O6  1  0.33333300  0.66666700  0.00000000  1
  O  O7  1  0.66666700  0.33333300  0.00000000  1
loop_
_geom_bond_atom_site_label_1
_geom_bond_atom_site_label_2
_geom_bond_distance
_geom_bond_site_symmetry_2
Ba0 O3 3.014056 1_445
Ba0 O0 3.014056 1_554
Ba0 O4 3.014056 1_555
Ba0 O5 3.014056 1_555
Ba0 O2 3.014056 1_544
Ba0 O1 3.014056 1_454
Ba0 O7 3.208705 1_455
Ba0 O6 3.208705 1_545
Ba0 O6 3.208710 1_445
Ba0 O7 3.208710 1_555
Ba0 O7 3.208710 1_445
Ba0 O6 3.208710 1_555
Ca0 O0 2.384420 1_555
Ca0 O3 2.384420 1_445
Ca0 O1 2.384421 1_455
Ca0 O2 2.384421 1_545
Ca0 O4 2.384421 1_555
Ca0 O5 2.384421 1_555
O0 Ti1 1.927265 1_555
O0 Ti0 1.927265 1_555
O1 Ti1 1.927260 1_555
O1 Ti0 1.927263 1_545
O2 Ti0 1.927260 1_555
O2 Ti1 1.927263 1_455
O3 Ti2 1.927265 1_555
O3 Ti3 1.927265 1_555
O4 Ti3 1.927260 1_455
O4 Ti2 1.927263 1_555
O5 Ti2 1.927260 1_545
O5 Ti3 1.927263 1_555
O6 Ti0 1.878373 1_554
O6 Ti2 1.878373 1_555
O7 Ti1 1.878373 1_554
O7 Ti3 1.878373 1_555
