# generated using pymatgen
data_ZnFe(GeO3)2
_symmetry_space_group_name_H-M   'P 1'
_cell_length_a   6.88225407
_cell_length_b   7.84293213
_cell_length_c   9.56333670
_cell_angle_alpha   75.82580955
_cell_angle_beta   80.80275611
_cell_angle_gamma   94.71838108
_symmetry_Int_Tables_number   1
_chemical_formula_structural   ZnFe(GeO3)2
_chemical_formula_sum   'Zn4 Fe4 Ge8 O24'
_cell_volume   490.06079721
_cell_formula_units_Z   4
loop_
 _symmetry_equiv_pos_site_id
 _symmetry_equiv_pos_as_xyz
  1  'x, y, z'
loop_
 _atom_site_type_symbol
 _atom_site_label
 _atom_site_symmetry_multiplicity
 _atom_site_fract_x
 _atom_site_fract_y
 _atom_site_fract_z
 _atom_site_occupancy
  Zn  Zn0  1  0.25018600  0.99996000  0.75001400  1
  Zn  Zn1  1  0.25000500  0.50001600  0.24994800  1
  Zn  Zn2  1  0.74998700  0.99997400  0.25003000  1
  Zn  Zn3  1  0.74980900  0.50005200  0.75000700  1
  Fe  Fe0  1  0.90273700  0.17370100  0.92350700  1
  Fe  Fe1  1  0.09725700  0.32629000  0.57648900  1
  Fe  Fe2  1  0.90269000  0.67371800  0.42353700  1
  Fe  Fe3  1  0.09731900  0.82628500  0.07645600  1
  Ge  Ge0  1  0.38942400  0.72847700  0.48338900  1
  Ge  Ge1  1  0.38945200  0.22850200  0.98338400  1
  Ge  Ge2  1  0.78815000  0.93259500  0.67781400  1
  Ge  Ge3  1  0.78813400  0.43249300  0.17768500  1
  Ge  Ge4  1  0.61056600  0.27149800  0.51662100  1
  Ge  Ge5  1  0.61057300  0.77152900  0.01660400  1
  Ge  Ge6  1  0.21187400  0.06750000  0.32230800  1
  Ge  Ge7  1  0.21184400  0.56741500  0.82219600  1
  O  O0  1  0.29920200  0.93868200  0.47750400  1
  O  O1  1  0.29894600  0.43864600  0.97752500  1
  O  O2  1  0.58382500  0.86995300  0.83107600  1
  O  O3  1  0.58394700  0.36986800  0.33101700  1
  O  O4  1  0.70103500  0.06134700  0.52248500  1
  O  O5  1  0.70080700  0.56132200  0.02249300  1
  O  O6  1  0.41607300  0.13014600  0.16898600  1
  O  O7  1  0.41616400  0.63004100  0.66892100  1
  O  O8  1  0.14249400  0.25942000  0.36867400  1
  O  O9  1  0.14242700  0.75940100  0.86845600  1
  O  O10  1  0.37214000  0.23330000  0.62410000  1
  O  O11  1  0.37208000  0.73347500  0.12410100  1
  O  O12  1  0.85756300  0.74058300  0.63156400  1
  O  O13  1  0.85750600  0.24059000  0.13130700  1
  O  O14  1  0.62793700  0.76651300  0.37592200  1
  O  O15  1  0.62783500  0.26671300  0.87588100  1
  O  O16  1  0.20313800  0.58871000  0.44177800  1
  O  O17  1  0.20350300  0.08839200  0.94182600  1
  O  O18  1  0.96952800  0.07491600  0.72171100  1
  O  O19  1  0.96972700  0.57482100  0.22140900  1
  O  O20  1  0.79652800  0.41159500  0.55817900  1
  O  O21  1  0.79684300  0.91129600  0.05821000  1
  O  O22  1  0.03030500  0.92517600  0.27856000  1
  O  O23  1  0.03044200  0.42508800  0.77832400  1
loop_
_geom_bond_atom_site_label_1
_geom_bond_atom_site_label_2
_geom_bond_distance
_geom_bond_site_symmetry_2
Fe0 O23 2.138141 1_655
Fe0 O21 2.140288 1_546
Fe0 O15 2.158438 1_555
Fe0 O13 2.158936 1_556
Fe0 O18 2.245688 1_555
Fe0 O17 2.247087 1_655
Fe1 O18 2.138239 1_455
Fe1 O16 2.140389 1_555
Fe1 O10 2.158215 1_555
Fe1 O8 2.159003 1_555
Fe1 O23 2.246102 1_555
Fe1 O20 2.246819 1_455
Fe2 O22 2.137700 1_655
Fe2 O20 2.138673 1_555
Fe2 O14 2.156838 1_555
Fe2 O12 2.160911 1_555
Fe2 O16 2.244040 1_655
Fe2 O19 2.249246 1_555
Fe3 O19 2.137616 1_455
Fe3 O17 2.138564 1_564
Fe3 O11 2.157009 1_555
Fe3 O9 2.160734 1_554
Fe3 O21 2.244240 1_455
Fe3 O22 2.248995 1_555
Ge0 O14 1.752081 1_555
Ge0 O16 1.774594 1_555
Ge0 O7 1.798597 1_555
Ge0 O0 1.800229 1_555
Ge1 O15 1.751407 1_555
Ge1 O17 1.774358 1_555
Ge1 O6 1.798834 1_556
Ge1 O1 1.800648 1_555
Ge2 O12 1.751774 1_555
Ge2 O18 1.774308 1_565
Ge2 O4 1.798728 1_565
Ge2 O2 1.800528 1_555
Ge3 O13 1.751396 1_555
Ge3 O19 1.774531 1_555
Ge3 O5 1.798737 1_555
Ge3 O3 1.800347 1_555
Ge4 O10 1.751566 1_555
Ge4 O20 1.774358 1_555
Ge4 O3 1.798869 1_555
Ge4 O4 1.800584 1_555
Ge5 O11 1.752073 1_555
Ge5 O21 1.774493 1_555
Ge5 O2 1.798561 1_554
Ge5 O5 1.800274 1_555
Ge6 O8 1.751490 1_555
Ge6 O22 1.774513 1_545
Ge6 O0 1.798736 1_545
Ge6 O6 1.800341 1_555
Ge7 O9 1.751630 1_555
Ge7 O23 1.774331 1_555
Ge7 O1 1.798734 1_555
Ge7 O7 1.800583 1_555
O8 Zn1 1.962092 1_555
O9 Zn0 1.961448 1_555
O10 Zn0 1.961782 1_545
O11 Zn1 1.962488 1_555
O12 Zn3 1.961271 1_555
O13 Zn2 1.962219 1_545
O14 Zn2 1.962592 1_555
O15 Zn3 1.961690 1_555
O16 Zn1 2.103849 1_555
O17 Zn0 2.102494 1_545
O18 Zn0 2.103757 1_645
O19 Zn1 2.101328 1_655
O20 Zn3 2.102755 1_555
O21 Zn2 2.103687 1_555
O22 Zn2 2.101557 1_455
O23 Zn3 2.103639 1_455
