# generated using pymatgen
data_U2Be25Cu
_symmetry_space_group_name_H-M   'P 1'
_cell_length_a   7.27890844
_cell_length_b   7.27891013
_cell_length_c   7.27890754
_cell_angle_alpha   60.00149290
_cell_angle_beta   60.00148776
_cell_angle_gamma   60.00146774
_symmetry_Int_Tables_number   1
_chemical_formula_structural   U2Be25Cu
_chemical_formula_sum   'U2 Be25 Cu1'
_cell_volume   272.70833947
_cell_formula_units_Z   1
loop_
 _symmetry_equiv_pos_site_id
 _symmetry_equiv_pos_as_xyz
  1  'x, y, z'
loop_
 _atom_site_type_symbol
 _atom_site_label
 _atom_site_symmetry_multiplicity
 _atom_site_fract_x
 _atom_site_fract_y
 _atom_site_fract_z
 _atom_site_occupancy
  U  U0  1  0.24999311  0.24999606  0.25000771  1
  U  U1  1  0.75000689  0.75000394  0.74999229  1
  Be  Be0  1  0.78811671  0.56298520  0.21188404  1
  Be  Be1  1  0.21188329  0.43701480  0.78811596  1
  Be  Be2  1  0.56298502  0.78811746  0.43701393  1
  Be  Be3  1  0.43701498  0.21188254  0.56298607  1
  Be  Be4  1  0.30094570  0.93998300  0.69905238  1
  Be  Be5  1  0.69905430  0.06001700  0.30094762  1
  Be  Be6  1  0.93998326  0.30094622  0.06001873  1
  Be  Be7  1  0.06001674  0.69905378  0.93998127  1
  Be  Be8  1  0.21188242  0.78811706  0.56298574  1
  Be  Be9  1  0.78811758  0.21188294  0.43701426  1
  Be  Be10  1  0.43701361  0.56298558  0.78811637  1
  Be  Be11  1  0.56298639  0.43701442  0.21188363  1
  Be  Be12  1  0.69905435  0.30094553  0.93998182  1
  Be  Be13  1  0.30094565  0.69905447  0.06001818  1
  Be  Be14  1  0.06001750  0.93998300  0.30094782  1
  Be  Be15  1  0.93998250  0.06001700  0.69905218  1
  Be  Be16  1  0.56298649  0.21188303  0.78811538  1
  Be  Be17  1  0.43701351  0.78811697  0.21188462  1
  Be  Be18  1  0.78811836  0.43701344  0.56298416  1
  Be  Be19  1  0.21188164  0.56298656  0.43701584  1
  Be  Be20  1  0.93998203  0.69905328  0.30094701  1
  Be  Be21  1  0.06001797  0.30094672  0.69905299  1
  Be  Be22  1  0.30094634  0.06001817  0.93998311  1
  Be  Be23  1  0.69905366  0.93998183  0.06001689  1
  Be  Be24  1  0.50000000  0.50000000  0.50000000  1
  Cu  Cu0  1  0.00000000  -0.00000000  -0.00000000  1
loop_
_geom_bond_atom_site_label_1
_geom_bond_atom_site_label_2
_geom_bond_distance
_geom_bond_site_symmetry_2
Be0 Be24 2.146747 1_555
Be0 Be6 2.204541 1_555
Be0 Be7 2.213171 1_654
Be0 Be11 2.242460 1_555
Be0 Be18 2.242492 1_555
Be0 Be9 2.242520 1_555
Be0 Be17 2.242527 1_555
Be0 Be20 2.253125 1_555
Be0 Be23 2.253192 1_555
Be0 Be2 2.317510 1_555
Be0 U0 3.035099 1_655
Be0 U1 3.035127 1_554
Be1 Be24 2.146747 1_555
Be1 Be7 2.204541 1_555
Be1 Be6 2.213171 1_456
Be1 Be10 2.242460 1_555
Be1 Be19 2.242492 1_555
Be1 Be8 2.242520 1_555
Be1 Be16 2.242527 1_555
Be1 Be21 2.253125 1_555
Be1 Be22 2.253192 1_555
Be1 Be3 2.317510 1_555
Be1 U1 3.035099 1_455
Be1 U0 3.035127 1_556
Be2 Be24 2.146708 1_555
Be2 Be4 2.204565 1_555
Be2 Be5 2.213141 1_565
Be2 Be8 2.242506 1_555
Be2 Be20 2.253190 1_555
Be2 Be23 2.253199 1_555
Be2 U1 3.035056 1_555
Be2 U0 3.035120 1_565
Be3 Be5 2.204565 1_555
Be3 Be4 2.213141 1_545
Be3 Be9 2.242506 1_555
Be3 U0 3.035056 1_555
Be3 U1 3.035120 1_545
Be4 Cu0 2.233749 1_566
Be4 Be8 2.253121 1_555
Be4 Be7 2.480136 1_555
Be4 U0 2.985467 1_565
Be4 U1 2.985519 1_555
Be5 Cu0 2.233749 1_655
Be5 Be9 2.253121 1_555
Be5 Be6 2.480136 1_555
Be5 U1 2.985467 1_545
Be5 U0 2.985519 1_555
Be6 Cu0 2.233706 1_655
Be6 Be9 2.253184 1_555
Be6 U0 2.985415 1_655
Be6 U1 2.985553 1_554
Be7 Cu0 2.233706 1_566
Be7 Be8 2.253184 1_555
Be7 U1 2.985415 1_455
Be7 U0 2.985553 1_556
Be8 U1 3.035042 1_455
Be8 U0 3.035078 1_565
Be9 U0 3.035042 1_655
Be9 U1 3.035078 1_545
Be10 Be24 2.146701 1_555
Be10 Be12 2.204577 1_555
Be10 Be13 2.213151 1_556
Be10 Be16 2.242506 1_555
Be10 Be2 2.242534 1_555
Be10 Be18 2.242545 1_555
Be10 Be4 2.253193 1_555
Be10 Be7 2.253197 1_555
Be10 Be8 2.317508 1_555
Be10 U1 3.035099 1_555
Be10 U0 3.035189 1_556
Be11 Be24 2.146701 1_555
Be11 Be13 2.204577 1_555
Be11 Be12 2.213151 1_554
Be11 Be17 2.242506 1_555
Be11 Be3 2.242534 1_555
Be11 Be19 2.242545 1_555
Be11 Be5 2.253193 1_555
Be11 Be6 2.253197 1_555
Be11 Be9 2.317508 1_555
Be11 U0 3.035099 1_555
Be11 U1 3.035189 1_554
Be12 Cu0 2.233741 1_656
Be12 Be16 2.253128 1_555
Be12 Be18 2.253195 1_555
Be12 Be6 2.317563 1_556
Be12 Be23 2.317588 1_546
Be12 Be21 2.317609 1_655
Be12 Be5 2.317619 1_556
Be12 Be15 2.480135 1_555
Be12 U1 2.985531 1_555
Be12 U0 2.985569 1_556
Be13 Cu0 2.233741 1_565
Be13 Be17 2.253128 1_555
Be13 Be19 2.253195 1_555
Be13 Be7 2.317563 1_554
Be13 Be22 2.317588 1_564
Be13 Be20 2.317609 1_455
Be13 Be4 2.317619 1_554
Be13 Be14 2.480135 1_555
Be13 U0 2.985531 1_555
Be13 U1 2.985569 1_554
Be14 Be8 2.204533 1_555
Be14 Be9 2.213159 1_465
Be14 Cu0 2.233711 1_565
Be14 Be17 2.253187 1_555
Be14 Be19 2.253195 1_555
Be14 Be20 2.317561 1_455
Be14 Be5 2.317583 1_465
Be14 Be6 2.317613 1_465
Be14 Be22 2.317620 1_564
Be14 U0 2.985398 1_565
Be14 U1 2.985462 1_455
Be15 Be9 2.204533 1_555
Be15 Be8 2.213159 1_645
Be15 Cu0 2.233711 1_656
Be15 Be16 2.253187 1_555
Be15 Be18 2.253195 1_555
Be15 Be21 2.317561 1_655
Be15 Be4 2.317583 1_645
Be15 Be7 2.317613 1_645
Be15 Be23 2.317620 1_546
Be15 U1 2.985398 1_545
Be15 U0 2.985462 1_655
Be16 Be24 2.146746 1_555
Be16 Be22 2.204545 1_555
Be16 Be23 2.213171 1_546
Be16 Be3 2.242457 1_555
Be16 Be9 2.242515 1_555
Be16 Be18 2.317511 1_555
Be16 U1 3.035081 1_545
Be16 U0 3.035173 1_556
Be17 Be24 2.146746 1_555
Be17 Be23 2.204545 1_555
Be17 Be22 2.213171 1_564
Be17 Be2 2.242457 1_555
Be17 Be8 2.242515 1_555
Be17 Be19 2.317511 1_555
Be17 U0 3.035081 1_565
Be17 U1 3.035173 1_554
Be18 Be24 2.146708 1_555
Be18 Be20 2.204564 1_555
Be18 Be21 2.213138 1_655
Be18 Be9 2.242457 1_555
Be18 Be2 2.242542 1_555
Be18 U1 3.035068 1_555
Be18 U0 3.035080 1_655
Be19 Be24 2.146708 1_555
Be19 Be21 2.204564 1_555
Be19 Be20 2.213138 1_455
Be19 Be8 2.242457 1_555
Be19 Be3 2.242542 1_555
Be19 U0 3.035068 1_555
Be19 U1 3.035080 1_455
Be20 Cu0 2.233751 1_665
Be20 Be7 2.317598 1_654
Be20 Be5 2.317607 1_565
Be20 Be23 2.480136 1_555
Be20 U1 2.985451 1_555
Be20 U0 2.985508 1_655
Be21 Cu0 2.233751 1_556
Be21 Be3 2.253190 1_555
Be21 Be6 2.317598 1_456
Be21 Be4 2.317607 1_545
Be21 Be22 2.480136 1_555
Be21 U0 2.985451 1_555
Be21 U1 2.985508 1_455
Be22 Cu0 2.233704 1_556
Be22 Be3 2.253199 1_555
Be22 Be4 2.317565 1_545
Be22 Be6 2.317611 1_456
Be22 U0 2.985441 1_556
Be22 U1 2.985554 1_545
Be23 Cu0 2.233704 1_665
Be23 Be5 2.317565 1_565
Be23 Be7 2.317611 1_654
Be23 U1 2.985441 1_554
Be23 U0 2.985554 1_565
Be24 Be3 2.146708 1_555
Be24 Be8 2.146753 1_555
Be24 Be9 2.146753 1_555
