# generated using pymatgen
data_CaB12(H3O)8
_symmetry_space_group_name_H-M   'P 1'
_cell_length_a   11.60474819
_cell_length_b   12.54590903
_cell_length_c   12.48414946
_cell_angle_alpha   90.00000000
_cell_angle_beta   90.00000000
_cell_angle_gamma   90.00000000
_symmetry_Int_Tables_number   1
_chemical_formula_structural   CaB12(H3O)8
_chemical_formula_sum   'Ca4 B48 H96 O32'
_cell_volume   1817.59372520
_cell_formula_units_Z   4
loop_
 _symmetry_equiv_pos_site_id
 _symmetry_equiv_pos_as_xyz
  1  'x, y, z'
loop_
 _atom_site_type_symbol
 _atom_site_label
 _atom_site_symmetry_multiplicity
 _atom_site_fract_x
 _atom_site_fract_y
 _atom_site_fract_z
 _atom_site_occupancy
  Ca  Ca0  1  0.59161866  0.38405062  0.42788500  1
  Ca  Ca1  1  0.09161866  0.61594938  0.07211500  1
  Ca  Ca2  1  0.40838134  0.11594938  0.92788500  1
  Ca  Ca3  1  0.90838134  0.88405062  0.57211500  1
  B  B0  1  0.78675197  0.11348815  0.10877279  1
  B  B1  1  0.28675197  0.88651185  0.39122721  1
  B  B2  1  0.21324803  0.38651185  0.60877279  1
  B  B3  1  0.71324803  0.61348815  0.89122721  1
  B  B4  1  0.87174712  0.07639879  0.22087631  1
  B  B5  1  0.37174712  0.92360121  0.27912369  1
  B  B6  1  0.12825288  0.42360121  0.72087631  1
  B  B7  1  0.62825288  0.57639879  0.77912369  1
  B  B8  1  0.88503377  0.20711481  0.16516470  1
  B  B9  1  0.38503377  0.79288519  0.33483530  1
  B  B10  1  0.11496623  0.29288519  0.66516470  1
  B  B11  1  0.61496623  0.70711481  0.83483530  1
  B  B12  1  0.87505522  0.19741458  0.02346434  1
  B  B13  1  0.37505522  0.80258542  0.47653566  1
  B  B14  1  0.12494478  0.30258542  0.52346434  1
  B  B15  1  0.62494478  0.69741458  0.97653566  1
  B  B16  1  0.85937985  0.06128628  0.99765183  1
  B  B17  1  0.35937985  0.93871372  0.50234817  1
  B  B18  1  0.14062015  0.43871372  0.49765183  1
  B  B19  1  0.64062015  0.56128628  0.00234817  1
  B  B20  1  0.85164454  0.98370967  0.11459108  1
  B  B21  1  0.35164454  0.01629033  0.38540892  1
  B  B22  1  0.14835546  0.51629033  0.61459108  1
  B  B23  1  0.64835546  0.48370967  0.88540892  1
  B  B24  1  0.01026410  0.13555874  0.20636322  1
  B  B25  1  0.51026410  0.86444126  0.29363678  1
  B  B26  1  0.98973590  0.36444126  0.70636322  1
  B  B27  1  0.48973590  0.63555874  0.79363678  1
  B  B28  1  0.01216108  0.20864170  0.08512264  1
  B  B29  1  0.51216108  0.79135830  0.41487736  1
  B  B30  1  0.98783892  0.29135830  0.58512264  1
  B  B31  1  0.48783892  0.70864170  0.91487736  1
  B  B32  1  0.99470692  0.11912393  0.97642490  1
  B  B33  1  0.49470692  0.88087607  0.52357510  1
  B  B34  1  0.00529308  0.38087607  0.47642490  1
  B  B35  1  0.50529308  0.61912393  0.02357510  1
  B  B36  1  0.98000626  0.98580728  0.03276630  1
  B  B37  1  0.48000626  0.01419272  0.46723370  1
  B  B38  1  0.01999374  0.51419272  0.53276630  1
  B  B39  1  0.51999374  0.48580728  0.96723370  1
  B  B40  1  0.98935610  0.99884960  0.17470409  1
  B  B41  1  0.48935610  0.00115040  0.32529591  1
  B  B42  1  0.01064390  0.50115040  0.67470409  1
  B  B43  1  0.51064390  0.49884960  0.82529591  1
  B  B44  1  0.07677551  0.08012603  0.09007002  1
  B  B45  1  0.57677551  0.91987397  0.40992998  1
  B  B46  1  0.92322449  0.41987397  0.59007002  1
  B  B47  1  0.42322449  0.58012603  0.90992998  1
  H  H0  1  0.50864925  0.60962266  0.47736629  1
  H  H1  1  0.00864925  0.39037734  0.02263371  1
  H  H2  1  0.49135075  0.89037734  0.97736629  1
  H  H3  1  0.99135075  0.10962266  0.52263371  1
  H  H4  1  0.26958875  0.39741095  0.18896403  1
  H  H5  1  0.76958875  0.60258905  0.31103597  1
  H  H6  1  0.73041125  0.10258905  0.68896403  1
  H  H7  1  0.23041125  0.89741095  0.81103597  1
  H  H8  1  0.67037196  0.51563845  0.09538845  1
  H  H9  1  0.17037196  0.48436155  0.40461155  1
  H  H10  1  0.32962804  0.98436155  0.59538845  1
  H  H11  1  0.82962804  0.01563845  0.90461155  1
  H  H12  1  0.76372509  0.19654816  0.33792327  1
  H  H13  1  0.26372509  0.80345184  0.16207673  1
  H  H14  1  0.23627491  0.30345184  0.83792327  1
  H  H15  1  0.73627491  0.69654816  0.66207673  1
  H  H16  1  0.75432506  0.53972483  0.44881653  1
  H  H17  1  0.25432506  0.46027517  0.05118347  1
  H  H18  1  0.24567494  0.96027517  0.94881653  1
  H  H19  1  0.74567494  0.03972483  0.55118347  1
  H  H20  1  0.79526558  0.20519591  0.73231584  1
  H  H21  1  0.29526558  0.79480409  0.76768416  1
  H  H22  1  0.20473442  0.29480409  0.23231584  1
  H  H23  1  0.70473442  0.70519591  0.26768416  1
  H  H24  1  0.61237012  0.20710121  0.22747315  1
  H  H25  1  0.11237012  0.79289879  0.27252685  1
  H  H26  1  0.38762988  0.29289879  0.72747315  1
  H  H27  1  0.88762988  0.70710121  0.77252685  1
  H  H28  1  0.35743895  0.28000544  0.45715922  1
  H  H29  1  0.85743895  0.71999456  0.04284078  1
  H  H30  1  0.64256105  0.21999456  0.95715922  1
  H  H31  1  0.14256105  0.78000544  0.54284078  1
  H  H32  1  0.35481212  0.32263812  0.33772005  1
  H  H33  1  0.85481212  0.67736188  0.16227995  1
  H  H34  1  0.64518788  0.17736188  0.83772005  1
  H  H35  1  0.14518788  0.82263812  0.66227995  1
  H  H36  1  0.57843097  0.38125867  0.66689884  1
  H  H37  1  0.07843097  0.61874133  0.83310116  1
  H  H38  1  0.42156903  0.11874133  0.16689884  1
  H  H39  1  0.92156903  0.88125867  0.33310116  1
  H  H40  1  0.41979644  0.53778258  0.53762144  1
  H  H41  1  0.91979644  0.46221742  0.96237856  1
  H  H42  1  0.58020356  0.96221742  0.03762144  1
  H  H43  1  0.08020356  0.03778258  0.46237856  1
  H  H44  1  0.63808874  0.27016474  0.64848251  1
  H  H45  1  0.13808874  0.72983526  0.85151749  1
  H  H46  1  0.36191126  0.22983526  0.14848251  1
  H  H47  1  0.86191126  0.77016474  0.35151749  1
  H  H48  1  0.68365286  0.12272051  0.11141722  1
  H  H49  1  0.18365286  0.87727949  0.38858278  1
  H  H50  1  0.31634714  0.37727949  0.61141722  1
  H  H51  1  0.81634714  0.62272051  0.88858278  1
  H  H52  1  0.82881520  0.05978301  0.30687206  1
  H  H53  1  0.32881520  0.94021699  0.19312794  1
  H  H54  1  0.17118480  0.44021699  0.80687206  1
  H  H55  1  0.67118480  0.55978301  0.69312794  1
  H  H56  1  0.85139800  0.28506274  0.21084400  1
  H  H57  1  0.35139800  0.71493726  0.28915600  1
  H  H58  1  0.14860200  0.21493726  0.71084400  1
  H  H59  1  0.64860200  0.78506274  0.78915600  1
  H  H60  1  0.83173853  0.26437749  0.96793704  1
  H  H61  1  0.33173853  0.73562251  0.53206296  1
  H  H62  1  0.16826147  0.23562251  0.46793704  1
  H  H63  1  0.66826147  0.76437749  0.03206296  1
  H  H64  1  0.77320676  0.05510132  0.92537217  1
  H  H65  1  0.27320676  0.94489868  0.57462783  1
  H  H66  1  0.22679324  0.44489868  0.42537217  1
  H  H67  1  0.72679324  0.55510132  0.07462783  1
  H  H68  1  0.79284840  0.90546480  0.12145566  1
  H  H69  1  0.29284840  0.09453520  0.37854434  1
  H  H70  1  0.20715160  0.59453520  0.62145566  1
  H  H71  1  0.70715160  0.40546480  0.87854434  1
  H  H72  1  0.06549089  0.16293008  0.28281011  1
  H  H73  1  0.56549089  0.83706992  0.21718989  1
  H  H74  1  0.93450911  0.33706992  0.78281011  1
  H  H75  1  0.43450911  0.66293008  0.71718989  1
  H  H76  1  0.07201941  0.28677826  0.07664971  1
  H  H77  1  0.57201941  0.71322174  0.42335029  1
  H  H78  1  0.92798059  0.21322174  0.57664971  1
  H  H79  1  0.42798059  0.78677826  0.92335029  1
  H  H80  1  0.03369220  0.13186276  0.88898802  1
  H  H81  1  0.53369220  0.86813724  0.61101198  1
  H  H82  1  0.96630780  0.36813724  0.38898802  1
  H  H83  1  0.46630780  0.63186276  0.11101198  1
  H  H84  1  0.01007558  0.90877727  0.98365638  1
  H  H85  1  0.51007558  0.09122273  0.51634362  1
  H  H86  1  0.98992442  0.59122273  0.48365638  1
  H  H87  1  0.48992442  0.40877727  0.01634362  1
  H  H88  1  0.03102644  0.92978534  0.22904308  1
  H  H89  1  0.53102644  0.07021466  0.27095692  1
  H  H90  1  0.96897356  0.57021466  0.72904308  1
  H  H91  1  0.46897356  0.42978534  0.77095692  1
  H  H92  1  0.17908905  0.06843216  0.08525905  1
  H  H93  1  0.67908905  0.93156784  0.41474095  1
  H  H94  1  0.82091095  0.43156784  0.58525905  1
  H  H95  1  0.32091095  0.56843216  0.91474095  1
  O  O0  1  0.39627286  0.32875406  0.40831377  1
  O  O1  1  0.89627286  0.67124594  0.09168623  1
  O  O2  1  0.60372714  0.17124594  0.90831377  1
  O  O3  1  0.10372714  0.82875406  0.59168623  1
  O  O4  1  0.59119251  0.32651420  0.61225623  1
  O  O5  1  0.09119251  0.67348580  0.88774377  1
  O  O6  1  0.40880749  0.17348580  0.11225623  1
  O  O7  1  0.90880749  0.82651420  0.38774377  1
  O  O8  1  0.49532930  0.53665259  0.50328903  1
  O  O9  1  0.99532930  0.46334741  0.99671097  1
  O  O10  1  0.50467070  0.96334741  0.00328903  1
  O  O11  1  0.00467070  0.03665259  0.49671097  1
  O  O12  1  0.57651734  0.51686168  0.29260890  1
  O  O13  1  0.07651734  0.48313832  0.20739110  1
  O  O14  1  0.42348266  0.98313832  0.79260890  1
  O  O15  1  0.92348266  0.01686168  0.70739110  1
  O  O16  1  0.63209905  0.26696188  0.27530276  1
  O  O17  1  0.13209905  0.73303812  0.22469724  1
  O  O18  1  0.36790095  0.23303812  0.77530276  1
  O  O19  1  0.86790095  0.76696188  0.72469724  1
  O  O20  1  0.68589413  0.21314611  0.36668106  1
  O  O21  1  0.18589413  0.78685389  0.13331894  1
  O  O22  1  0.31410587  0.28685389  0.86668106  1
  O  O23  1  0.81410587  0.71314611  0.63331894  1
  O  O24  1  0.74097230  0.50015825  0.38209568  1
  O  O25  1  0.24097230  0.49984175  0.11790432  1
  O  O26  1  0.25902770  0.99984175  0.88209568  1
  O  O27  1  0.75902770  0.00015825  0.61790432  1
  O  O28  1  0.28247318  0.32375680  0.22384118  1
  O  O29  1  0.78247318  0.67624320  0.27615882  1
  O  O30  1  0.71752682  0.17624320  0.72384118  1
  O  O31  1  0.21752682  0.82375680  0.77615882  1
loop_
_geom_bond_atom_site_label_1
_geom_bond_atom_site_label_2
_geom_bond_distance
_geom_bond_site_symmetry_2
Ca0 O24 2.335102 1_555
Ca0 O12 2.378891 1_555
Ca0 O0 2.383273 1_555
Ca0 O8 2.408358 1_555
Ca0 O4 2.412259 1_555
Ca0 O16 2.450935 1_555
Ca0 O20 2.525497 1_555
Ca1 O25 2.335102 1_555
Ca1 O13 2.378891 1_555
Ca1 O1 2.383273 1_455
Ca1 O9 2.408358 1_454
Ca1 O5 2.412259 1_554
Ca1 O17 2.450935 1_555
Ca1 O21 2.525497 1_555
Ca2 O26 2.335102 1_545
Ca2 O14 2.378891 1_545
Ca2 O2 2.383273 1_555
Ca2 O10 2.408358 1_546
Ca2 O6 2.412259 1_556
Ca2 O18 2.450935 1_555
Ca2 O22 2.525497 1_555
Ca3 O27 2.335102 1_565
Ca3 O15 2.378891 1_565
Ca3 O3 2.383273 1_655
Ca3 O11 2.408358 1_665
Ca3 O7 2.412259 1_555
Ca3 O19 2.450935 1_555
Ca3 O23 2.525497 1_555
B0 H48 1.202486 1_555
B0 B16 1.750355 1_554
B1 H49 1.202486 1_555
B1 B17 1.750355 1_555
B2 H50 1.202486 1_555
B3 H51 1.202486 1_555
B4 H52 1.201772 1_555
B5 H53 1.201772 1_555
B6 H54 1.201772 1_555
B7 H55 1.201772 1_555
B8 H56 1.197459 1_555
B9 H57 1.197459 1_555
B10 H58 1.197459 1_555
B11 H59 1.197459 1_555
B12 H60 1.199589 1_554
B12 B16 1.747483 1_554
B13 H61 1.199589 1_555
B13 B17 1.747483 1_555
B14 H62 1.199589 1_555
B14 B18 1.747483 1_555
B15 H63 1.199589 1_556
B15 B19 1.747483 1_556
B16 H11 1.340273 1_555
B16 H64 1.349182 1_555
B16 B36 1.745978 1_546
B16 B32 1.750151 1_555
B16 B20 1.756867 1_546
B17 H10 1.340273 1_555
B17 H65 1.349182 1_555
B17 B37 1.745978 1_565
B17 B33 1.750151 1_555
B17 B21 1.756867 1_565
B18 H9 1.340273 1_555
B18 H66 1.349182 1_555
B18 B38 1.745978 1_555
B18 B34 1.750151 1_555
B18 B2 1.750355 1_555
B18 B22 1.756867 1_555
B19 H8 1.340273 1_555
B19 H67 1.349182 1_555
B19 B39 1.745978 1_554
B19 B35 1.750151 1_555
B19 B3 1.750355 1_554
B19 B23 1.756867 1_554
B20 H68 1.198557 1_555
B21 H69 1.198557 1_555
B22 H70 1.198557 1_555
B23 H71 1.198557 1_555
B24 H72 1.199790 1_555
B25 H73 1.199790 1_555
B26 H74 1.199790 1_555
B27 H75 1.199790 1_555
B28 H76 1.206106 1_555
B29 H77 1.206106 1_555
B30 H78 1.206106 1_555
B31 H79 1.206106 1_555
B32 H80 1.192375 1_655
B33 H81 1.192375 1_555
B34 H82 1.192375 1_455
B35 H83 1.192375 1_555
B36 H84 1.196495 1_654
B37 H85 1.196495 1_555
B38 H86 1.196495 1_455
B39 H87 1.196495 1_556
B40 H88 1.202004 1_655
B41 H89 1.202004 1_555
B42 H90 1.202004 1_455
B43 H91 1.202004 1_555
B44 H92 1.197859 1_555
B45 H93 1.197859 1_555
B46 H94 1.197859 1_555
B47 H95 1.197859 1_555
H0 O8 0.983220 1_555
H1 O9 0.983220 1_454
H2 O10 0.983220 1_556
H3 O11 0.983220 1_655
H4 O28 1.032387 1_555
H5 O29 1.032387 1_555
H6 O30 1.032387 1_555
H7 O31 1.032387 1_555
H10 H65 0.860813 1_555
H11 H64 0.860813 1_555
H12 O20 0.994003 1_555
H13 O21 0.994003 1_555
H14 O22 0.994003 1_555
H15 O23 0.994003 1_555
H16 O24 0.981954 1_555
H17 O25 0.981954 1_555
H18 O26 0.981954 1_555
H19 O27 0.981954 1_555
H20 O30 0.978258 1_555
H21 O31 0.978258 1_555
H22 O28 0.978258 1_555
H23 O29 0.978258 1_555
H24 O16 0.986393 1_555
H25 O17 0.986393 1_555
H26 O18 0.986393 1_555
H27 O19 0.986393 1_555
H28 O0 0.974161 1_555
H29 O1 0.974161 1_555
H30 O2 0.974161 1_555
H31 O3 0.974161 1_555
H32 O0 1.007015 1_555
H32 O28 1.651088 1_555
H33 O1 1.007015 1_555
H33 O29 1.651088 1_555
H34 O2 1.007015 1_555
H34 O30 1.651088 1_555
H35 O3 1.007015 1_555
H35 O31 1.651088 1_555
H36 O4 0.979287 1_555
H37 O5 0.979287 1_555
H38 O6 0.979287 1_555
H39 O7 0.979287 1_555
H40 O8 0.975823 1_555
H41 O9 0.975823 1_555
H42 O10 0.975823 1_555
H43 O11 0.975823 1_555
H44 O4 1.000247 1_555
H45 O5 1.000247 1_555
H46 O6 1.000247 1_555
H47 O7 1.000247 1_555
H66 H9 0.860813 1_555
H67 H8 0.860813 1_555
