# generated using pymatgen
data_CsHfMg14O15
_symmetry_space_group_name_H-M   'P 1'
_cell_length_a   4.12988100
_cell_length_b   8.37808500
_cell_length_c   11.53405600
_cell_angle_alpha   90.00000000
_cell_angle_beta   90.00000000
_cell_angle_gamma   90.00000000
_symmetry_Int_Tables_number   1
_chemical_formula_structural   CsHfMg14O15
_chemical_formula_sum   'Cs1 Hf1 Mg14 O15'
_cell_volume   399.08403609
_cell_formula_units_Z   1
loop_
 _symmetry_equiv_pos_site_id
 _symmetry_equiv_pos_as_xyz
  1  'x, y, z'
loop_
 _atom_site_type_symbol
 _atom_site_label
 _atom_site_symmetry_multiplicity
 _atom_site_fract_x
 _atom_site_fract_y
 _atom_site_fract_z
 _atom_site_occupancy
  Cs  Cs0  1  0.00000000  0.00000000  0.92625000  1
  Hf  Hf0  1  0.00000000  0.50000000  0.02620400  1
  Mg  Mg0  1  0.00000000  0.00000000  0.47157700  1
  Mg  Mg1  1  0.00000000  0.50000000  0.46224800  1
  Mg  Mg2  1  0.50000000  0.76765400  0.10013400  1
  Mg  Mg3  1  0.50000000  0.23234600  0.10013400  1
  Mg  Mg4  1  0.50000000  0.74328600  0.47620100  1
  Mg  Mg5  1  0.50000000  0.25671400  0.47620100  1
  Mg  Mg6  1  0.50000000  0.00000000  0.65577800  1
  Mg  Mg7  1  0.50000000  0.50000000  0.73128100  1
  Mg  Mg8  1  0.50000000  0.00000000  0.27486700  1
  Mg  Mg9  1  0.50000000  0.50000000  0.27962000  1
  Mg  Mg10  1  0.00000000  0.75368200  0.66106800  1
  Mg  Mg11  1  0.00000000  0.24631800  0.66106800  1
  Mg  Mg12  1  0.00000000  0.75327600  0.27771000  1
  Mg  Mg13  1  0.00000000  0.24672400  0.27771000  1
  O  O0  1  0.00000000  0.00000000  0.66466300  1
  O  O1  1  0.00000000  0.00000000  0.29731700  1
  O  O2  1  0.00000000  0.50000000  0.28365200  1
  O  O3  1  0.50000000  0.74554400  0.67373300  1
  O  O4  1  0.50000000  0.25445600  0.67373300  1
  O  O5  1  0.50000000  0.74929900  0.27843700  1
  O  O6  1  0.50000000  0.25070100  0.27843700  1
  O  O7  1  0.50000000  0.00000000  0.09186900  1
  O  O8  1  0.50000000  0.50000000  0.07644300  1
  O  O9  1  0.50000000  0.00000000  0.47891300  1
  O  O10  1  0.50000000  0.50000000  0.46446100  1
  O  O11  1  0.00000000  0.72305700  0.08490200  1
  O  O12  1  0.00000000  0.27694300  0.08490200  1
  O  O13  1  0.00000000  0.74573100  0.48024500  1
  O  O14  1  0.00000000  0.25426900  0.48024500  1
loop_
_geom_bond_atom_site_label_1
_geom_bond_atom_site_label_2
_geom_bond_distance
_geom_bond_site_symmetry_2
Cs0 O7 2.813018 1_556
Cs0 O7 2.813018 1_456
Cs0 O12 2.955014 1_556
Cs0 O11 2.955014 1_546
Cs0 O0 3.017159 1_555
Hf0 O11 1.987647 1_555
Hf0 O12 1.987647 1_555
Hf0 O8 2.144703 1_555
Hf0 O8 2.144703 1_455
Mg0 O1 2.009925 1_555
Mg0 O9 2.066673 1_555
Mg0 O9 2.066673 1_455
Mg0 O13 2.132632 1_545
Mg0 O14 2.132632 1_555
Mg0 O0 2.227065 1_555
Mg1 O2 2.059936 1_555
Mg1 O10 2.065098 1_455
Mg1 O10 2.065098 1_555
Mg1 O14 2.069194 1_555
Mg1 O13 2.069194 1_555
Mg2 O7 1.948947 1_565
Mg2 O5 2.062298 1_555
Mg2 O11 2.105813 1_555
Mg2 O11 2.105813 1_655
Mg2 O8 2.259015 1_555
Mg3 O7 1.948947 1_555
Mg3 O6 2.062298 1_555
Mg3 O12 2.105813 1_655
Mg3 O12 2.105813 1_555
Mg3 O8 2.259015 1_555
Mg4 O10 2.042764 1_555
Mg4 O13 2.065569 1_655
Mg4 O13 2.065569 1_555
Mg4 O9 2.150999 1_565
Mg4 O3 2.278424 1_555
Mg4 O5 2.281577 1_555
Mg5 O10 2.042764 1_555
Mg5 O14 2.065569 1_555
Mg5 O14 2.065569 1_655
Mg5 O9 2.150999 1_555
Mg5 O4 2.278424 1_555
Mg5 O6 2.281577 1_555
Mg6 O9 2.039971 1_555
Mg6 O0 2.067482 1_555
Mg6 O0 2.067482 1_655
Mg6 O4 2.141889 1_555
Mg6 O3 2.141889 1_545
Mg7 O4 2.161621 1_555
Mg7 O3 2.161621 1_555
Mg8 O1 2.081112 1_555
Mg8 O1 2.081112 1_655
Mg8 O5 2.100798 1_545
Mg8 O6 2.100798 1_555
Mg8 O7 2.110709 1_555
Mg8 O9 2.353478 1_555
Mg9 O2 2.065464 1_655
Mg9 O2 2.065464 1_555
Mg9 O6 2.088693 1_555
Mg9 O5 2.088693 1_555
Mg9 O10 2.131966 1_555
Mg9 O8 2.343455 1_555
Mg10 O0 2.064090 1_565
Mg10 O3 2.071224 1_555
Mg10 O3 2.071224 1_455
Mg10 O13 2.086686 1_555
Mg11 O0 2.064090 1_555
Mg11 O4 2.071224 1_455
Mg11 O4 2.071224 1_555
Mg11 O14 2.086686 1_555
Mg12 O5 2.065226 1_455
Mg12 O5 2.065226 1_555
Mg12 O1 2.079409 1_565
Mg12 O2 2.123074 1_555
Mg12 O11 2.238223 1_555
Mg12 O13 2.336905 1_555
Mg13 O6 2.065226 1_455
Mg13 O6 2.065226 1_555
Mg13 O1 2.079409 1_555
Mg13 O2 2.123074 1_555
Mg13 O12 2.238223 1_555
Mg13 O14 2.336905 1_555
