# generated using pymatgen
data_Ge(TePd4)2
_symmetry_space_group_name_H-M   'P 1'
_cell_length_a   15.16714453
_cell_length_b   15.16714453
_cell_length_c   15.16714438
_cell_angle_alpha   29.31800209
_cell_angle_beta   29.31800209
_cell_angle_gamma   29.31800538
_symmetry_Int_Tables_number   1
_chemical_formula_structural   Ge(TePd4)2
_chemical_formula_sum   'Ge4 Te8 Pd32'
_cell_volume   740.26439847
_cell_formula_units_Z   4
loop_
 _symmetry_equiv_pos_site_id
 _symmetry_equiv_pos_as_xyz
  1  'x, y, z'
loop_
 _atom_site_type_symbol
 _atom_site_label
 _atom_site_symmetry_multiplicity
 _atom_site_fract_x
 _atom_site_fract_y
 _atom_site_fract_z
 _atom_site_occupancy
  Ge  Ge0  1  0.70957900  0.70957900  0.70957900  1
  Ge  Ge1  1  0.20957900  0.20957900  0.20957900  1
  Ge  Ge2  1  0.05103700  0.05103700  0.05103700  1
  Ge  Ge3  1  0.55103700  0.55103700  0.55103700  1
  Te  Te0  1  0.39370700  0.39370700  0.39370700  1
  Te  Te1  1  0.89370700  0.89370700  0.89370700  1
  Te  Te2  1  0.80323900  0.11826500  0.48269500  1
  Te  Te3  1  0.11826500  0.48269500  0.80323900  1
  Te  Te4  1  0.48269500  0.80323900  0.11826500  1
  Te  Te5  1  0.30323900  0.98269500  0.61826500  1
  Te  Te6  1  0.98269500  0.61826500  0.30323900  1
  Te  Te7  1  0.61826500  0.30323900  0.98269500  1
  Pd  Pd0  1  0.17197200  0.92199500  0.40964200  1
  Pd  Pd1  1  0.92199500  0.40964200  0.17197200  1
  Pd  Pd2  1  0.40964200  0.17197200  0.92199500  1
  Pd  Pd3  1  0.67197200  0.90964200  0.42199500  1
  Pd  Pd4  1  0.90964200  0.42199500  0.67197200  1
  Pd  Pd5  1  0.42199500  0.67197200  0.90964200  1
  Pd  Pd6  1  0.17498800  0.70224600  0.43383700  1
  Pd  Pd7  1  0.70224600  0.43383700  0.17498800  1
  Pd  Pd8  1  0.43383700  0.17498800  0.70224600  1
  Pd  Pd9  1  0.67498800  0.93383700  0.20224600  1
  Pd  Pd10  1  0.93383700  0.20224600  0.67498800  1
  Pd  Pd11  1  0.20224600  0.67498800  0.93383700  1
  Pd  Pd12  1  0.49169500  0.49169500  0.49169500  1
  Pd  Pd13  1  0.99169500  0.99169500  0.99169500  1
  Pd  Pd14  1  0.76705800  0.76705800  0.76705800  1
  Pd  Pd15  1  0.26705800  0.26705800  0.26705800  1
  Pd  Pd16  1  0.11055200  0.11055200  0.11055200  1
  Pd  Pd17  1  0.61055200  0.61055200  0.61055200  1
  Pd  Pd18  1  0.83305500  0.83305500  0.83305500  1
  Pd  Pd19  1  0.33305500  0.33305500  0.33305500  1
  Pd  Pd20  1  0.76763100  0.03332300  0.40214200  1
  Pd  Pd21  1  0.03332300  0.40214200  0.76763100  1
  Pd  Pd22  1  0.40214200  0.76763100  0.03332300  1
  Pd  Pd23  1  0.26763100  0.90214200  0.53332300  1
  Pd  Pd24  1  0.90214200  0.53332300  0.26763100  1
  Pd  Pd25  1  0.53332300  0.26763100  0.90214200  1
  Pd  Pd26  1  0.06425100  0.70238000  0.33871100  1
  Pd  Pd27  1  0.70238000  0.33871100  0.06425100  1
  Pd  Pd28  1  0.33871100  0.06425100  0.70238000  1
  Pd  Pd29  1  0.56425100  0.83871100  0.20238000  1
  Pd  Pd30  1  0.83871100  0.20238000  0.56425100  1
  Pd  Pd31  1  0.20238000  0.56425100  0.83871100  1
loop_
_geom_bond_atom_site_label_1
_geom_bond_atom_site_label_2
_geom_bond_distance
_geom_bond_site_symmetry_2
Ge0 Pd14 2.501223 1_555
Ge0 Pd3 2.607361 1_555
Ge0 Pd5 2.607361 1_555
Ge0 Pd4 2.607361 1_555
Ge0 Pd20 2.661110 1_565
Ge0 Pd22 2.661110 1_556
Ge0 Pd21 2.661110 1_655
Ge0 Pd26 2.805431 1_655
Ge0 Pd27 2.805431 1_556
Ge0 Pd28 2.805432 1_565
Ge1 Pd15 2.501223 1_555
Ge1 Pd2 2.607361 1_554
Ge1 Pd0 2.607361 1_545
Ge1 Pd1 2.607361 1_455
Ge1 Pd25 2.661110 1_554
Ge1 Pd23 2.661110 1_545
Ge1 Pd24 2.661110 1_455
Ge1 Pd31 2.805431 1_554
Ge1 Pd30 2.805431 1_455
Ge1 Pd29 2.805432 1_545
Ge2 Pd28 2.546181 1_554
Ge2 Pd26 2.546181 1_545
Ge2 Pd27 2.546182 1_455
Ge2 Pd20 2.551323 1_455
Ge2 Pd21 2.551323 1_554
Ge2 Pd22 2.551323 1_545
Ge2 Pd13 2.582292 1_444
Ge2 Pd16 2.589820 1_555
Ge3 Pd29 2.546181 1_555
Ge3 Pd31 2.546181 1_555
Ge3 Pd30 2.546182 1_555
Ge3 Pd25 2.551323 1_555
Ge3 Pd24 2.551323 1_555
Ge3 Pd23 2.551323 1_555
Ge3 Pd12 2.582292 1_555
Ge3 Pd17 2.589820 1_555
Pd0 Te2 2.698264 1_465
Pd0 Te4 2.782822 1_555
Pd0 Pd29 2.842560 1_555
Pd0 Pd30 2.892936 1_465
Pd0 Pd23 2.951940 1_555
Pd0 Pd18 2.983945 1_455
Pd0 Pd16 3.118518 1_565
Pd0 Pd31 3.361333 1_555
Pd1 Te3 2.698263 1_654
Pd1 Te2 2.782822 1_555
Pd1 Pd30 2.842559 1_555
Pd1 Pd31 2.892936 1_654
Pd1 Pd24 2.951940 1_555
Pd1 Pd18 2.983945 1_554
Pd1 Pd16 3.118518 1_655
Pd1 Pd29 3.361334 1_555
Pd2 Te4 2.698263 1_546
Pd2 Te3 2.782822 1_555
Pd2 Pd31 2.842560 1_555
Pd2 Pd29 2.892936 1_546
Pd2 Pd25 2.951940 1_555
Pd2 Pd30 3.361333 1_555
Pd3 Te5 2.698263 1_555
Pd3 Te6 2.782822 1_555
Pd4 Te6 2.698263 1_555
Pd4 Te7 2.782822 1_555
Pd5 Te7 2.698264 1_555
Pd5 Te5 2.782822 1_555
Pd6 Te3 2.697289 1_555
Pd6 Te0 2.765699 1_555
Pd6 Te4 2.786435 1_555
Pd7 Te4 2.697290 1_555
Pd7 Te0 2.765698 1_555
Pd7 Te2 2.786435 1_555
Pd8 Te2 2.697290 1_555
Pd8 Te0 2.765698 1_555
Pd8 Te3 2.786435 1_555
Pd9 Te7 2.697290 1_564
Pd9 Te1 2.765698 1_554
Pd9 Te6 2.786435 1_555
Pd10 Te5 2.697290 1_645
Pd10 Te1 2.765698 1_545
Pd10 Te7 2.786435 1_555
Pd10 Pd17 2.863389 1_555
Pd10 Pd15 2.884136 1_655
Pd10 Pd25 2.951487 1_555
Pd10 Pd23 2.977648 1_645
Pd10 Pd30 3.019481 1_555
Pd10 Pd24 3.238386 1_555
Pd11 Te6 2.697289 1_456
Pd11 Te1 2.765699 1_455
Pd11 Te5 2.786435 1_555
Pd11 Pd17 2.863389 1_555
Pd11 Pd15 2.884136 1_556
Pd11 Pd23 2.951487 1_555
Pd11 Pd24 2.977648 1_456
Pd11 Pd31 3.019481 1_555
Pd11 Pd25 3.238386 1_555
Pd12 Te4 2.824708 1_555
Pd12 Te3 2.824708 1_555
Pd12 Te2 2.824708 1_555
Pd12 Pd29 3.093986 1_555
Pd12 Pd31 3.093986 1_555
Pd12 Pd30 3.093987 1_555
Pd13 Te5 2.824708 1_655
Pd13 Te6 2.824708 1_556
Pd13 Te7 2.824708 1_565
Pd13 Pd28 3.093986 1_665
Pd13 Pd26 3.093986 1_656
Pd13 Pd27 3.093987 1_566
Pd14 Pd20 2.818163 1_565
Pd14 Pd22 2.818163 1_556
Pd14 Pd21 2.818163 1_655
Pd14 Te2 2.860858 1_565
Pd14 Te4 2.860858 1_556
Pd14 Te3 2.860858 1_655
Pd14 Pd18 2.871887 1_555
Pd14 Pd7 2.884136 1_556
Pd14 Pd6 2.884136 1_655
Pd14 Pd8 2.884136 1_565
Pd15 Pd25 2.818163 1_554
Pd15 Pd23 2.818163 1_545
Pd15 Pd24 2.818163 1_455
Pd15 Te7 2.860858 1_554
Pd15 Te5 2.860858 1_545
Pd15 Te6 2.860858 1_455
Pd15 Pd19 2.871887 1_555
Pd15 Pd9 2.884136 1_545
Pd16 Te2 2.814354 1_455
Pd16 Te3 2.814354 1_554
Pd16 Te4 2.814354 1_545
Pd16 Pd8 2.863389 1_554
Pd16 Pd6 2.863389 1_545
Pd16 Pd7 2.863389 1_455
Pd16 Pd20 3.075869 1_455
Pd16 Pd21 3.075869 1_554
Pd16 Pd22 3.075869 1_545
Pd16 Pd2 3.118518 1_554
Pd17 Te7 2.814354 1_555
Pd17 Te6 2.814354 1_555
Pd17 Te5 2.814354 1_555
Pd17 Pd9 2.863389 1_555
Pd17 Pd25 3.075869 1_555
Pd17 Pd24 3.075869 1_555
Pd17 Pd23 3.075869 1_555
Pd17 Pd3 3.118518 1_555
Pd17 Pd5 3.118518 1_555
Pd17 Pd4 3.118518 1_555
Pd18 Te1 2.639297 1_555
Pd18 Te2 2.801570 1_565
Pd18 Te4 2.801570 1_556
Pd18 Te3 2.801570 1_655
Pd18 Pd29 2.900034 1_556
Pd18 Pd30 2.900034 1_565
Pd18 Pd31 2.900034 1_655
Pd18 Pd2 2.983945 1_565
Pd19 Te0 2.639297 1_555
Pd19 Te7 2.801570 1_554
Pd19 Te5 2.801570 1_545
Pd19 Te6 2.801570 1_455
Pd19 Pd28 2.900034 1_555
Pd19 Pd27 2.900034 1_555
Pd19 Pd26 2.900034 1_555
Pd19 Pd5 2.983945 1_554
Pd19 Pd4 2.983945 1_455
Pd19 Pd3 2.983945 1_545
Pd20 Pd26 2.802632 1_645
Pd20 Te0 2.836460 1_555
Pd20 Pd27 2.855538 1_555
Pd20 Te2 2.924548 1_555
Pd20 Pd7 2.951487 1_555
Pd20 Pd3 2.951940 1_545
Pd20 Pd8 2.977648 1_555
Pd20 Pd28 3.165697 1_555
Pd20 Pd6 3.238386 1_645
Pd21 Pd27 2.802632 1_456
Pd21 Te0 2.836460 1_555
Pd21 Pd28 2.855538 1_555
Pd21 Te3 2.924548 1_555
Pd21 Pd8 2.951487 1_555
Pd21 Pd4 2.951940 1_455
Pd21 Pd6 2.977648 1_555
Pd21 Pd26 3.165697 1_555
Pd21 Pd7 3.238386 1_456
Pd22 Pd28 2.802632 1_564
Pd22 Te0 2.836460 1_555
Pd22 Pd26 2.855538 1_555
Pd22 Te4 2.924548 1_555
Pd22 Pd6 2.951487 1_555
Pd22 Pd5 2.951940 1_554
Pd22 Pd7 2.977648 1_555
Pd22 Pd27 3.165697 1_555
Pd22 Pd8 3.238386 1_564
Pd23 Pd29 2.802632 1_555
Pd23 Te1 2.836460 1_455
Pd23 Pd31 2.855538 1_555
Pd23 Te5 2.924548 1_555
Pd23 Pd30 3.165697 1_465
Pd23 Pd9 3.238386 1_555
Pd24 Pd30 2.802632 1_555
Pd24 Te1 2.836460 1_554
Pd24 Pd29 2.855538 1_555
Pd24 Te6 2.924548 1_555
Pd24 Pd9 2.951487 1_555
Pd24 Pd31 3.165697 1_654
Pd25 Pd31 2.802632 1_555
Pd25 Te1 2.836460 1_545
Pd25 Pd30 2.855538 1_555
Pd25 Te7 2.924548 1_555
Pd25 Pd9 2.977648 1_546
Pd25 Pd29 3.165697 1_546
Pd26 Te0 2.691925 1_555
Pd26 Pd3 2.842560 1_455
Pd26 Pd4 2.892936 1_455
Pd26 Te6 2.925165 1_455
Pd26 Pd6 3.019481 1_555
Pd26 Pd5 3.361333 1_554
Pd27 Te0 2.691925 1_555
Pd27 Pd4 2.842559 1_554
Pd27 Pd5 2.892936 1_554
Pd27 Te7 2.925165 1_554
Pd27 Pd7 3.019481 1_555
Pd27 Pd3 3.361333 1_545
Pd28 Te0 2.691925 1_555
Pd28 Pd5 2.842560 1_545
Pd28 Pd3 2.892936 1_545
Pd28 Te5 2.925165 1_545
Pd28 Pd8 3.019481 1_555
Pd28 Pd4 3.361334 1_455
Pd29 Te1 2.691925 1_554
Pd29 Te4 2.925165 1_555
Pd29 Pd9 3.019481 1_555
Pd30 Te1 2.691925 1_545
Pd30 Te2 2.925165 1_555
Pd31 Te1 2.691925 1_455
Pd31 Te3 2.925165 1_555
