# generated using pymatgen
data_LiPr2Ta2Cl2O7
_symmetry_space_group_name_H-M   'P 1'
_cell_length_a   4.05778527
_cell_length_b   7.03695271
_cell_length_c   8.07041558
_cell_angle_alpha   113.65178304
_cell_angle_beta   104.56001749
_cell_angle_gamma   89.99643394
_symmetry_Int_Tables_number   1
_chemical_formula_structural   LiPr2Ta2Cl2O7
_chemical_formula_sum   'Li1 Pr2 Ta2 Cl2 O7'
_cell_volume   202.98513358
_cell_formula_units_Z   1
loop_
 _symmetry_equiv_pos_site_id
 _symmetry_equiv_pos_as_xyz
  1  'x, y, z'
loop_
 _atom_site_type_symbol
 _atom_site_label
 _atom_site_symmetry_multiplicity
 _atom_site_fract_x
 _atom_site_fract_y
 _atom_site_fract_z
 _atom_site_occupancy
  Li  Li0  1  0.47752300  0.47041600  0.95572800  1
  Pr  Pr0  1  0.29677400  0.81971700  0.59419500  1
  Pr  Pr1  1  0.67810800  0.12855000  0.35694300  1
  Ta  Ta0  1  0.95288400  0.16661600  0.90631400  1
  Ta  Ta1  1  0.02296500  0.78174300  0.04655200  1
  Cl  Cl0  1  0.66743100  0.53805400  0.33530100  1
  Cl  Cl1  1  0.30822300  0.41282900  0.61661200  1
  O  O0  1  0.44649000  0.16039400  0.89356300  1
  O  O1  1  0.52870000  0.78801100  0.05803600  1
  O  O2  1  0.90646800  0.82560500  0.81386500  1
  O  O3  1  0.98607000  0.47335000  0.97261100  1
  O  O4  1  0.81149000  0.04289600  0.62370000  1
  O  O5  1  0.06953200  0.12387600  0.13944500  1
  O  O6  1  0.16400800  0.90683300  0.32880100  1
loop_
_geom_bond_atom_site_label_1
_geom_bond_atom_site_label_2
_geom_bond_distance
_geom_bond_site_symmetry_2
Li0 O0 2.029056 1_555
Li0 O3 2.032295 1_455
Li0 O3 2.033153 1_555
Li0 O1 2.037869 1_556
Cl0 Li0 2.801350 1_554
Cl0 Pr1 2.955734 1_555
Cl0 Pr0 2.968291 1_655
Cl0 Pr0 2.968685 1_555
Cl1 Li0 2.508215 1_555
Cl1 Pr0 2.940149 1_555
Cl1 Pr1 2.977195 1_555
Cl1 Pr1 2.978930 1_455
O0 Ta0 2.030840 1_455
O0 Ta0 2.030996 1_555
O0 Pr0 2.562888 1_545
O1 Ta1 2.030521 1_555
O1 Ta1 2.030571 1_655
O1 Pr1 2.560458 1_565
O2 Ta1 1.965675 1_656
O2 Ta0 2.200787 1_565
O2 Pr0 2.645978 1_555
O2 Pr0 2.646839 1_655
O3 Ta0 2.000150 1_555
O3 Ta1 2.001029 1_656
O4 Ta0 2.009510 1_555
O4 Pr1 2.397126 1_555
O4 Pr0 2.517092 1_545
O4 Pr0 2.517172 1_645
O5 Ta0 1.964855 1_454
O5 Ta1 2.207893 1_545
O5 Pr1 2.637179 1_555
O5 Pr1 2.638243 1_455
O6 Ta1 2.006705 1_555
O6 Pr0 2.393078 1_555
O6 Pr1 2.512729 1_465
O6 Pr1 2.513078 1_565
