# generated using pymatgen
data_WN2(OF4)2
_symmetry_space_group_name_H-M   'P 1'
_cell_length_a   6.00815100
_cell_length_b   10.77241500
_cell_length_c   12.98467600
_cell_angle_alpha   90.00000000
_cell_angle_beta   90.00000000
_cell_angle_gamma   90.00000000
_symmetry_Int_Tables_number   1
_chemical_formula_structural   WN2(OF4)2
_chemical_formula_sum   'W4 N8 O8 F32'
_cell_volume   840.39804295
_cell_formula_units_Z   4
loop_
 _symmetry_equiv_pos_site_id
 _symmetry_equiv_pos_as_xyz
  1  'x, y, z'
loop_
 _atom_site_type_symbol
 _atom_site_label
 _atom_site_symmetry_multiplicity
 _atom_site_fract_x
 _atom_site_fract_y
 _atom_site_fract_z
 _atom_site_occupancy
  W  W0  1  0.25000000  0.24808300  0.12294300  1
  W  W1  1  0.75000000  0.25191700  0.62294300  1
  W  W2  1  0.75000000  0.75191700  0.87705700  1
  W  W3  1  0.25000000  0.74808300  0.37705700  1
  N  N0  1  0.25000000  0.88209500  0.10146700  1
  N  N1  1  0.75000000  0.01318500  0.26887100  1
  N  N2  1  0.75000000  0.61790500  0.60146700  1
  N  N3  1  0.75000000  0.11790500  0.89853300  1
  N  N4  1  0.25000000  0.38209500  0.39853300  1
  N  N5  1  0.75000000  0.51318500  0.23112900  1
  N  N6  1  0.25000000  0.98681500  0.73112900  1
  N  N7  1  0.25000000  0.48681500  0.76887100  1
  O  O0  1  0.25000000  0.55887000  0.00591400  1
  O  O1  1  0.75000000  0.94113000  0.50591400  1
  O  O2  1  0.75000000  0.45373200  0.30073700  1
  O  O3  1  0.25000000  0.05887000  0.49408600  1
  O  O4  1  0.75000000  0.44113000  0.99408600  1
  O  O5  1  0.75000000  0.95373200  0.19926300  1
  O  O6  1  0.25000000  0.54626800  0.69926300  1
  O  O7  1  0.25000000  0.04626800  0.80073700  1
  F  F0  1  0.44607800  0.21690200  0.24009300  1
  F  F1  1  0.04033000  0.12800300  0.07222900  1
  F  F2  1  0.54033000  0.87199700  0.92777100  1
  F  F3  1  0.45967000  0.12800300  0.07222900  1
  F  F4  1  0.95967000  0.87199700  0.92777100  1
  F  F5  1  0.94607800  0.28309800  0.74009300  1
  F  F6  1  0.55392200  0.28309800  0.74009300  1
  F  F7  1  0.25000000  0.28996500  0.97890100  1
  F  F8  1  0.45774000  0.88713600  0.37800700  1
  F  F9  1  0.25000000  0.78996500  0.52109900  1
  F  F10  1  0.55392200  0.78309800  0.75990700  1
  F  F11  1  0.75000000  0.71003500  0.02109900  1
  F  F12  1  0.75000000  0.05155100  0.81027800  1
  F  F13  1  0.54226000  0.61286400  0.87800700  1
  F  F14  1  0.25000000  0.44844900  0.31027800  1
  F  F15  1  0.04226000  0.38713600  0.12199300  1
  F  F16  1  0.95774000  0.11286400  0.62199300  1
  F  F17  1  0.75000000  0.21003500  0.47890100  1
  F  F18  1  0.95774000  0.61286400  0.87800700  1
  F  F19  1  0.75000000  0.55155100  0.68972200  1
  F  F20  1  0.04033000  0.62800300  0.42777100  1
  F  F21  1  0.04226000  0.88713600  0.37800700  1
  F  F22  1  0.45967000  0.62800300  0.42777100  1
  F  F23  1  0.05392200  0.21690200  0.24009300  1
  F  F24  1  0.54226000  0.11286400  0.62199300  1
  F  F25  1  0.95967000  0.37199700  0.57222900  1
  F  F26  1  0.44607800  0.71690200  0.25990700  1
  F  F27  1  0.05392200  0.71690200  0.25990700  1
  F  F28  1  0.25000000  0.94844900  0.18972200  1
  F  F29  1  0.45774000  0.38713600  0.12199300  1
  F  F30  1  0.54033000  0.37199700  0.57222900  1
  F  F31  1  0.94607800  0.78309800  0.75990700  1
loop_
_geom_bond_atom_site_label_1
_geom_bond_atom_site_label_2
_geom_bond_distance
_geom_bond_site_symmetry_2
N1 O5 1.107746 1_545
N5 O2 1.107746 1_555
N6 O7 1.107746 1_565
N7 O6 1.107746 1_555
F0 W0 1.953094 1_555
F1 W0 1.921932 1_555
F2 W2 1.921932 1_555
F3 W0 1.921932 1_555
F4 W2 1.921932 1_555
F5 W1 1.953094 1_555
F6 W1 1.953094 1_555
F7 W0 1.923986 1_556
F8 W3 1.949821 1_555
F9 W3 1.923986 1_555
F10 W2 1.953094 1_555
F11 W2 1.923986 1_554
F12 N3 1.350614 1_555
F13 W2 1.949821 1_555
F14 N4 1.350614 1_555
F15 W0 1.949821 1_555
F16 W1 1.949821 1_555
F17 W1 1.923986 1_555
F18 W2 1.949821 1_555
F19 N2 1.350614 1_555
F20 W3 1.921932 1_555
F21 W3 1.949821 1_555
F22 W3 1.921932 1_555
F23 W0 1.953094 1_555
F24 W1 1.949821 1_555
F25 W1 1.921932 1_555
F26 W3 1.953094 1_555
F27 W3 1.953094 1_555
F28 N0 1.350614 1_555
F29 W0 1.949821 1_555
F30 W1 1.921932 1_555
F31 W2 1.953094 1_555
