# generated using pymatgen
data_Mg14CuMo
_symmetry_space_group_name_H-M   'P 1'
_cell_length_a   6.24539359
_cell_length_b   6.27998842
_cell_length_c   9.80326142
_cell_angle_alpha   90.00000000
_cell_angle_beta   90.00000000
_cell_angle_gamma   120.18341199
_symmetry_Int_Tables_number   1
_chemical_formula_structural   Mg14CuMo
_chemical_formula_sum   'Mg14 Cu1 Mo1'
_cell_volume   332.36420613
_cell_formula_units_Z   1
loop_
 _symmetry_equiv_pos_site_id
 _symmetry_equiv_pos_as_xyz
  1  'x, y, z'
loop_
 _atom_site_type_symbol
 _atom_site_label
 _atom_site_symmetry_multiplicity
 _atom_site_fract_x
 _atom_site_fract_y
 _atom_site_fract_z
 _atom_site_occupancy
  Mg  Mg0  1  0.16998849  0.33499375  0.62500000  1
  Mg  Mg1  1  0.17048081  0.83523991  0.62500000  1
  Mg  Mg2  1  0.66842331  0.33863300  0.12500000  1
  Mg  Mg3  1  0.66518745  0.33268896  0.62500000  1
  Mg  Mg4  1  0.66842331  0.82978931  0.12500000  1
  Mg  Mg5  1  0.66518745  0.83249749  0.62500000  1
  Mg  Mg6  1  0.32279391  0.15941497  0.35742242  1
  Mg  Mg7  1  0.32279391  0.15941497  0.89257758  1
  Mg  Mg8  1  0.32279391  0.66337993  0.35742242  1
  Mg  Mg9  1  0.32279391  0.66337993  0.89257758  1
  Mg  Mg10  1  0.84132043  0.17066071  0.36568555  1
  Mg  Mg11  1  0.84132043  0.17066071  0.88431445  1
  Mg  Mg12  1  0.84472638  0.67236369  0.36907774  1
  Mg  Mg13  1  0.84472638  0.67236369  0.88092226  1
  Cu  Cu0  1  0.16735979  0.33367939  0.12500000  1
  Mo  Mo0  1  0.16168015  0.83083957  0.12500000  1
loop_
_geom_bond_atom_site_label_1
_geom_bond_atom_site_label_2
_geom_bond_distance
_geom_bond_site_symmetry_2
Mg0 Mg5 3.100015 1_555
Mg0 Mg3 3.100015 1_555
Mg0 Mg10 3.100125 1_455
Mg0 Mg11 3.100125 1_455
Mg0 Mg1 3.139995 1_555
Mg0 Mg1 3.139995 1_545
Mg0 Mg5 3.145429 1_445
Mg0 Mg3 3.145429 1_455
Mg0 Mg6 3.172613 1_555
Mg0 Mg7 3.172613 1_555
Mg0 Mg8 3.172620 1_555
Mg0 Mg9 3.172620 1_555
Mg1 Mg12 3.063859 1_455
Mg1 Mg13 3.063859 1_455
Mg1 Mg3 3.098332 1_565
Mg1 Mg5 3.098332 1_555
Mg1 Mg3 3.147132 1_455
Mg1 Mg5 3.147132 1_455
Mg1 Mg8 3.159575 1_555
Mg1 Mg9 3.159575 1_555
Mg1 Mg6 3.159581 1_565
Mg1 Mg7 3.159581 1_565
Mg2 Mg7 2.945313 1_554
Mg2 Mg6 2.945313 1_555
Mg2 Mo0 3.077272 1_655
Mg2 Mg4 3.084456 1_555
Mg2 Mo0 3.168131 1_545
Mg2 Mg4 3.195532 1_545
Mg3 Mg5 3.138792 1_555
Mg3 Mg5 3.141197 1_545
Mg3 Mg6 3.209020 1_555
Mg3 Mg7 3.209020 1_555
Mg4 Mg8 2.945313 1_555
Mg4 Mg9 2.945313 1_554
Mg4 Mo0 3.077272 1_655
Mg4 Mo0 3.168132 1_555
Mg5 Mg8 3.209020 1_555
Mg5 Mg9 3.209020 1_555
Mg6 Mo0 2.893798 1_545
Mg7 Mo0 2.893798 1_546
Mg8 Mo0 2.893792 1_555
Mg9 Mo0 2.893792 1_556
Mg10 Mg2 2.998558 1_555
Mg10 Mg4 2.998564 1_545
Mg10 Mg3 3.135816 1_555
Mg10 Mg5 3.135822 1_545
Mg11 Mg2 2.998558 1_556
Mg11 Mg4 2.998564 1_546
Mg11 Mg3 3.135816 1_555
Mg11 Mg5 3.135822 1_545
Mg12 Mo0 2.941637 1_655
Mg12 Mg4 3.001609 1_555
Mg12 Mg2 3.001615 1_555
Mg12 Mg5 3.113985 1_555
Mg12 Mg3 3.113992 1_555
Mg13 Mo0 2.941637 1_656
Mg13 Mg4 3.001609 1_556
Mg13 Mg2 3.001615 1_556
Mg13 Mg5 3.113985 1_555
Mg13 Mg3 3.113992 1_555
Cu0 Mg6 2.898244 1_555
Cu0 Mg7 2.898244 1_554
Cu0 Mg9 2.898250 1_554
Cu0 Mg8 2.898250 1_555
Cu0 Mg10 2.943715 1_455
Cu0 Mg11 2.943715 1_454
Cu0 Mg4 3.113814 1_555
Cu0 Mg2 3.113815 1_555
Cu0 Mg4 3.131810 1_445
Cu0 Mg2 3.131811 1_455
Cu0 Mo0 3.140144 1_545
Cu0 Mo0 3.140144 1_555
