# generated using pymatgen
data_Li9Mn7O16
_symmetry_space_group_name_H-M   'P 1'
_cell_length_a   5.04987000
_cell_length_b   6.06008173
_cell_length_c   9.79691307
_cell_angle_alpha   84.05039001
_cell_angle_beta   86.24725576
_cell_angle_gamma   86.97309439
_symmetry_Int_Tables_number   1
_chemical_formula_structural   Li9Mn7O16
_chemical_formula_sum   'Li9 Mn7 O16'
_cell_volume   297.23684668
_cell_formula_units_Z   1
loop_
 _symmetry_equiv_pos_site_id
 _symmetry_equiv_pos_as_xyz
  1  'x, y, z'
loop_
 _atom_site_type_symbol
 _atom_site_label
 _atom_site_symmetry_multiplicity
 _atom_site_fract_x
 _atom_site_fract_y
 _atom_site_fract_z
 _atom_site_occupancy
  Li  Li0  1  0.62183600  0.69237700  0.24664000  1
  Li  Li1  1  0.37816400  0.30762300  0.75336000  1
  Li  Li2  1  0.12906100  0.93395400  0.24800000  1
  Li  Li3  1  0.12996400  0.44081700  0.24664200  1
  Li  Li4  1  0.87093900  0.06604600  0.75200000  1
  Li  Li5  1  0.62123500  0.18247800  0.24447600  1
  Li  Li6  1  0.37876500  0.81752200  0.75552400  1
  Li  Li7  1  0.87003600  0.55918300  0.75335800  1
  Li  Li8  1  0.50000000  0.00000000  0.00000000  1
  Mn  Mn0  1  0.00068300  0.75883300  0.99934800  1
  Mn  Mn1  1  0.99931700  0.24116700  0.00065200  1
  Mn  Mn2  1  0.75004100  0.37535800  0.49963700  1
  Mn  Mn3  1  0.24995900  0.62464200  0.50036300  1
  Mn  Mn4  1  0.75016300  0.87487400  0.49998100  1
  Mn  Mn5  1  0.50000000  0.50000000  0.00000000  1
  Mn  Mn6  1  0.24983700  0.12512600  0.50001900  1
  O  O0  1  0.83837200  0.97100500  0.11558300  1
  O  O1  1  0.55263000  0.57961200  0.61670100  1
  O  O2  1  0.31612500  0.25027900  0.10518700  1
  O  O3  1  0.30738000  0.70742100  0.11319700  1
  O  O4  1  0.05362500  0.32981900  0.61677200  1
  O  O5  1  0.80712600  0.46550100  0.11105500  1
  O  O6  1  0.55286300  0.07827700  0.61853500  1
  O  O7  1  0.05230200  0.82937200  0.61694900  1
  O  O8  1  0.44737000  0.42038800  0.38329900  1
  O  O9  1  0.16162800  0.02899500  0.88441700  1
  O  O10  1  0.94637500  0.67018100  0.38322800  1
  O  O11  1  0.94769800  0.17062800  0.38305100  1
  O  O12  1  0.68387500  0.74972100  0.89481300  1
  O  O13  1  0.44713700  0.92172300  0.38146500  1
  O  O14  1  0.19287400  0.53449900  0.88894500  1
  O  O15  1  0.69262000  0.29257900  0.88680300  1
loop_
_geom_bond_atom_site_label_1
_geom_bond_atom_site_label_2
_geom_bond_distance
_geom_bond_site_symmetry_2
Li0 O3 2.114426 1_555
Li0 O13 2.133830 1_555
Li0 O5 2.147159 1_555
Li0 O10 2.172814 1_555
Li0 O8 2.197041 1_555
Li0 O0 2.292830 1_555
Li1 O15 2.114426 1_555
Li1 O6 2.133830 1_555
Li1 O14 2.147159 1_555
Li1 O4 2.172814 1_555
Li1 O1 2.197041 1_555
Li1 O9 2.292830 1_555
Li2 O0 2.010543 1_455
Li2 O3 2.128198 1_555
Li2 O13 2.130127 1_555
Li2 O10 2.172122 1_455
Li2 O11 2.177730 1_465
Li2 O2 2.446805 1_565
Li3 O2 2.045507 1_555
Li3 O8 2.145345 1_555
Li3 O5 2.158986 1_455
Li3 O10 2.160828 1_455
Li3 O3 2.164213 1_555
Li3 O11 2.204223 1_455
Li4 O9 2.010543 1_655
Li4 O15 2.128198 1_555
Li4 O6 2.130127 1_555
Li4 O4 2.172122 1_655
Li4 O7 2.177730 1_645
Li4 O12 2.446805 1_545
Li5 O0 2.108333 1_545
Li5 O2 2.120626 1_555
Li5 O13 2.150288 1_545
Li5 O8 2.194477 1_555
Li5 O11 2.196904 1_555
Li5 O5 2.253025 1_555
Li6 O9 2.108333 1_565
Li6 O12 2.120626 1_555
Li6 O6 2.150288 1_565
Li6 O1 2.194477 1_555
Li6 O7 2.196904 1_555
Li6 O14 2.253025 1_555
Li7 O12 2.045507 1_555
Li7 O1 2.145345 1_555
Li7 O14 2.158986 1_655
Li7 O4 2.160828 1_655
Li7 O15 2.164213 1_555
Li7 O7 2.204223 1_655
Li8 O2 2.067506 1_555
Li8 O12 2.067506 1_544
Li8 O9 2.100763 1_554
Li8 O0 2.100763 1_545
Li8 O15 2.225539 1_554
Li8 O3 2.225539 1_545
Mn0 O0 1.921418 1_456
Mn0 O3 1.960348 1_556
Mn0 O12 1.961347 1_455
Mn0 O14 1.997020 1_555
Mn0 O9 2.060918 1_565
Mn0 O5 2.225569 1_456
Mn1 O9 1.921418 1_654
Mn1 O15 1.960348 1_554
Mn1 O2 1.961347 1_655
Mn1 O5 1.997020 1_555
Mn1 O0 2.060918 1_545
Mn1 O14 2.225569 1_654
Mn2 O8 1.956827 1_555
Mn2 O11 1.963138 1_555
Mn2 O1 1.963558 1_555
Mn2 O4 1.965525 1_655
Mn2 O10 2.256635 1_555
Mn2 O6 2.278653 1_555
Mn3 O1 1.956827 1_555
Mn3 O7 1.963138 1_555
Mn3 O8 1.963558 1_555
Mn3 O10 1.965525 1_455
Mn3 O4 2.256635 1_555
Mn3 O13 2.278653 1_555
Mn4 O7 1.958587 1_655
Mn4 O10 1.960818 1_555
Mn4 O6 1.968933 1_565
Mn4 O13 1.971988 1_555
Mn4 O1 2.262582 1_555
Mn4 O11 2.265670 1_565
Mn5 O14 1.942258 1_554
Mn5 O5 1.942258 1_555
Mn5 O3 1.942850 1_555
Mn5 O15 1.942850 1_554
Mn5 O12 1.978423 1_554
Mn5 O2 1.978423 1_555
Mn6 O11 1.958587 1_455
Mn6 O4 1.960818 1_555
Mn6 O13 1.968933 1_545
Mn6 O6 1.971988 1_555
Mn6 O8 2.262582 1_555
Mn6 O7 2.265670 1_545
