# generated using pymatgen
data_Li6V3P8O29
_symmetry_space_group_name_H-M   'P 1'
_cell_length_a   9.79348461
_cell_length_b   9.79581916
_cell_length_c   14.06576449
_cell_angle_alpha   90.95621213
_cell_angle_beta   90.88902406
_cell_angle_gamma   60.31136227
_symmetry_Int_Tables_number   1
_chemical_formula_structural   Li6V3P8O29
_chemical_formula_sum   'Li12 V6 P16 O58'
_cell_volume   1172.06157309
_cell_formula_units_Z   2
loop_
 _symmetry_equiv_pos_site_id
 _symmetry_equiv_pos_as_xyz
  1  'x, y, z'
loop_
 _atom_site_type_symbol
 _atom_site_label
 _atom_site_symmetry_multiplicity
 _atom_site_fract_x
 _atom_site_fract_y
 _atom_site_fract_z
 _atom_site_occupancy
  Li  Li0  1  0.76819163  0.90837281  0.55295463  1
  Li  Li1  1  0.90840578  0.33189566  0.56098235  1
  Li  Li2  1  0.68487826  0.66389594  0.89275455  1
  Li  Li3  1  0.76376562  0.32589674  0.06440906  1
  Li  Li4  1  0.32598236  0.90816018  0.06746130  1
  Li  Li5  1  0.66844564  0.23605187  0.43558902  1
  Li  Li6  1  0.33221104  0.76340344  0.55811471  1
  Li  Li7  1  0.67415427  0.09385037  0.94345015  1
  Li  Li8  1  0.23301228  0.66855196  0.94510420  1
  Li  Li9  1  0.09707148  0.66713741  0.43378021  1
  Li  Li10  1  0.99962678  0.99550849  0.01493029  1
  Li  Li11  1  0.05368020  0.01243855  0.48232924  1
  V  V0  1  0.56244892  0.43707631  0.24991354  1
  V  V1  1  0.43330576  0.56578657  0.74585267  1
  V  V2  1  0.55859591  0.99990021  0.74889899  1
  V  V3  1  0.43548363  0.00530960  0.25290170  1
  V  V4  1  0.99549435  0.56066422  0.24444662  1
  V  V5  1  0.00388057  0.43523498  0.75473321  1
  P  P0  1  0.91368153  0.78495945  0.83888154  1
  P  P1  1  0.77897728  0.91391400  0.33827848  1
  P  P2  1  0.91380839  0.31115571  0.34599637  1
  P  P3  1  0.66149191  0.66806896  0.13105665  1
  P  P4  1  0.66879704  0.66505492  0.63147590  1
  P  P5  1  0.77344676  0.31857711  0.84198842  1
  P  P6  1  0.68567277  0.22597597  0.65726641  1
  P  P7  1  0.31554470  0.90799227  0.84735483  1
  P  P8  1  0.68958968  0.08690762  0.15585299  1
  P  P9  1  0.31361071  0.77747846  0.34081077  1
  P  P10  1  0.22140242  0.68550843  0.15850518  1
  P  P11  1  0.33245444  0.33814922  0.36668854  1
  P  P12  1  0.33683324  0.33495051  0.86884029  1
  P  P13  1  0.08162802  0.68617580  0.65325312  1
  P  P14  1  0.21642967  0.08111052  0.66356648  1
  P  P15  1  0.08077695  0.21380822  0.16183767  1
  O  O0  1  0.00015208  0.76692745  0.56204511  1
  O  O1  1  0.92203170  0.74777262  0.33781179  1
  O  O2  1  0.78134248  0.01528333  0.06651597  1
  O  O3  1  0.74356182  0.92451931  0.84204923  1
  O  O4  1  0.90256155  0.63101368  0.83296012  1
  O  O5  1  0.80726099  0.67137962  0.17723265  1
  O  O6  1  0.92014249  0.46315365  0.33466818  1
  O  O7  1  0.98737747  0.19558786  0.08183092  1
  O  O8  1  0.91650566  0.34172557  0.84157521  1
  O  O9  1  0.67351996  0.81298918  0.67555854  1
  O  O10  1  0.62487739  0.90890349  0.32675037  1
  O  O11  1  0.81225519  0.51570650  0.67608984  1
  O  O12  1  0.66288311  0.66713538  0.02402128  1
  O  O13  1  0.67489418  0.66473733  0.52570131  1
  O  O14  1  0.67188227  0.51327045  0.16713760  1
  O  O15  1  0.47992596  0.89315438  0.83113826  1
  O  O16  1  0.51011297  0.81406031  0.16936575  1
  O  O17  1  0.74180244  0.34226856  0.33832875  1
  O  O18  1  0.78945047  0.20752269  0.75094302  1
  O  O19  1  0.77060890  0.23115934  0.57009473  1
  O  O20  1  0.76410282  0.23631094  0.92930816  1
  O  O21  1  0.62567570  0.48238617  0.82620687  1
  O  O22  1  0.51169981  0.67551313  0.66679621  1
  O  O23  1  0.65630777  0.25992202  0.16232951  1
  O  O24  1  0.46631893  0.61820512  0.33098440  1
  O  O25  1  0.34681582  0.91342715  0.33981690  1
  O  O26  1  0.79891862  0.00180959  0.24769613  1
  O  O27  1  0.77798601  0.00404612  0.42746788  1
  O  O28  1  0.20270423  0.98561021  0.58330751  1
  O  O29  1  0.65813933  0.08464961  0.65537172  1
  O  O30  1  0.52878886  0.38287996  0.67148533  1
  O  O31  1  0.33859446  0.73865425  0.83670231  1
  O  O32  1  0.48810141  0.32551735  0.32746862  1
  O  O33  1  0.37998784  0.53329399  0.16925927  1
  O  O34  1  0.21668637  0.77827135  0.07164651  1
  O  O35  1  0.22148781  0.78437786  0.42921974  1
  O  O36  1  0.20312839  0.79516840  0.25048964  1
  O  O37  1  0.24926957  0.66574698  0.65825949  1
  O  O38  1  0.48262684  0.18362681  0.82409232  1
  O  O39  1  0.53771492  0.07935521  0.16488856  1
  O  O40  1  0.33264950  0.48405299  0.82829081  1
  O  O41  1  0.34578827  0.33070923  0.97409692  1
  O  O42  1  0.33475916  0.34123672  0.47264367  1
  O  O43  1  0.18610222  0.48699033  0.32438075  1
  O  O44  1  0.37663902  0.07591399  0.66841055  1
  O  O45  1  0.32985430  0.19075491  0.32074924  1
  O  O46  1  0.08516382  0.65246826  0.15921382  1
  O  O47  1  0.98440609  0.80303886  0.73948541  1
  O  O48  1  0.01281361  0.79289358  0.91821321  1
  O  O49  1  0.08510267  0.53012915  0.66886109  1
  O  O50  1  0.18743995  0.33581811  0.82401647  1
  O  O51  1  0.07659173  0.37348038  0.16720267  1
  O  O52  1  0.25169640  0.07821359  0.16183945  1
  O  O53  1  0.24149496  0.97824150  0.94027937  1
  O  O54  1  0.20004441  0.00776210  0.76264559  1
  O  O55  1  0.07866284  0.25083380  0.66264328  1
  O  O56  1  0.98385477  0.22545850  0.43762198  1
  O  O57  1  0.00766967  0.19359861  0.26026494  1
loop_
_geom_bond_atom_site_label_1
_geom_bond_atom_site_label_2
_geom_bond_distance
_geom_bond_site_symmetry_2
Li0 O0 1.993929 1_655
Li0 O27 2.037773 1_565
Li0 O29 2.083325 1_565
Li0 O9 2.380791 1_555
Li1 O56 1.964715 1_555
Li1 O55 2.026790 1_655
Li1 O19 2.034723 1_555
Li1 O11 2.240685 1_555
Li2 O12 1.860133 1_556
Li2 O4 2.173110 1_555
Li2 O21 2.307067 1_555
Li2 O15 2.317162 1_555
Li3 O7 1.926139 1_555
Li3 O23 2.042212 1_555
Li3 O20 2.079165 1_554
Li3 O14 2.140643 1_555
Li4 O53 1.946408 1_554
Li4 O52 1.955032 1_565
Li4 O34 2.030187 1_555
Li4 O16 2.115033 1_555
Li5 O27 1.977129 1_555
Li5 O17 2.070922 1_555
Li5 O19 2.116491 1_555
Li5 O32 2.151321 1_555
Li6 O28 1.930206 1_555
Li6 O35 2.058103 1_555
Li6 O37 2.099843 1_555
Li6 O22 2.151620 1_555
Li7 O2 1.969387 1_556
Li7 O20 1.998870 1_555
Li7 O3 2.020389 1_545
Li7 O38 2.329772 1_555
Li8 O48 1.914508 1_555
Li8 O34 2.030663 1_556
Li8 O31 2.157056 1_555
Li8 O40 2.263172 1_555
Li9 O1 2.001799 1_455
Li9 O0 2.046120 1_555
Li9 O35 2.049102 1_555
Li9 O43 2.160804 1_555
Li10 O7 2.109573 1_565
Li10 O2 2.183411 1_565
Li10 O34 2.281836 1_655
Li10 O48 2.338405 1_654
Li10 O53 2.533066 1_654
Li10 O20 2.637047 1_564
Li11 O28 1.945418 1_545
Li11 O56 1.958150 1_455
Li11 O35 2.143678 1_545
O0 P13 1.511671 1_555
O1 P1 1.533910 1_555
O1 V4 2.060203 1_555
O2 P8 1.503276 1_555
O3 P0 1.546217 1_555
O3 V2 2.043768 1_555
O4 P0 1.565613 1_555
O4 V5 1.987892 1_655
O5 P3 1.573942 1_555
O5 V4 1.862275 1_555
O6 P2 1.531637 1_555
O6 V4 1.958366 1_555
O7 P15 1.502679 1_655
O8 P5 1.526231 1_555
O8 V5 1.977262 1_655
O9 P4 1.588120 1_555
O9 V2 1.901310 1_555
O10 P1 1.540074 1_555
O10 V3 1.910239 1_565
O11 P4 1.573295 1_555
O11 V5 1.966272 1_655
O12 P3 1.505642 1_555
O13 P4 1.489813 1_555
O14 P3 1.561587 1_555
O14 V0 1.980259 1_555
O15 P7 1.563113 1_555
O15 V2 1.972604 1_555
O16 P3 1.559593 1_555
O16 V3 2.005347 1_565
O17 P2 1.558551 1_555
O17 V0 1.961952 1_555
O18 P6 1.608166 1_555
O18 P5 1.624455 1_555
O19 P6 1.507806 1_555
O20 P5 1.508604 1_555
O21 P5 1.555670 1_555
O21 V1 1.983518 1_555
O22 P4 1.578060 1_555
O22 V1 1.965991 1_555
O23 P8 1.560610 1_555
O23 V0 1.938499 1_555
O24 P9 1.542034 1_555
O24 V0 1.909433 1_555
O25 P9 1.519604 1_555
O25 V3 1.975510 1_565
O26 P1 1.616705 1_545
O26 P8 1.618353 1_555
O27 P1 1.519332 1_545
O28 P14 1.500755 1_565
O29 P6 1.535687 1_555
O29 V2 2.061111 1_545
O30 P6 1.556615 1_555
O30 V1 1.867356 1_555
O31 P7 1.564248 1_555
O31 V1 1.941522 1_555
O32 P11 1.574860 1_555
O32 V0 1.940884 1_555
O33 P10 1.537718 1_555
O33 V0 1.916485 1_555
O34 P10 1.521253 1_555
O35 P9 1.528575 1_555
O36 P9 1.610508 1_555
O36 P10 1.621825 1_555
O37 P13 1.553037 1_555
O37 V1 1.987066 1_555
O38 P12 1.591339 1_555
O38 V2 1.883020 1_545
O39 P8 1.532683 1_555
O39 V3 1.961858 1_555
O40 P12 1.558231 1_555
O40 V1 1.950803 1_555
O41 P12 1.481809 1_555
O42 P11 1.490190 1_555
O43 P11 1.570578 1_555
O43 V4 1.974095 1_455
O44 P14 1.544895 1_555
O44 V2 1.913847 1_545
O45 P11 1.583557 1_555
O45 V3 1.841779 1_555
O46 P10 1.520975 1_555
O46 V4 1.966762 1_455
O47 P13 1.611843 1_655
O47 P0 1.620363 1_555
O48 P0 1.493976 1_455
O49 P13 1.531480 1_555
O49 V5 1.937908 1_555
O50 P12 1.580323 1_555
O50 V5 1.836544 1_555
O51 P15 1.544829 1_555
O51 V4 1.921232 1_455
O52 P15 1.537464 1_555
O52 V3 2.018913 1_555
O53 P7 1.487586 1_555
O54 P7 1.598844 1_545
O54 P14 1.624427 1_555
O55 P14 1.537162 1_555
O55 V5 2.029294 1_555
O56 P2 1.508145 1_555
O57 P2 1.601470 1_455
O57 P15 1.627526 1_555
