# generated using pymatgen
data_Na3YbBr6
_symmetry_space_group_name_H-M   'P 1'
_cell_length_a   7.91213400
_cell_length_b   7.61293500
_cell_length_c   12.75926869
_cell_angle_alpha   53.48711016
_cell_angle_beta   90.00000000
_cell_angle_gamma   90.00000000
_symmetry_Int_Tables_number   1
_chemical_formula_structural   Na3YbBr6
_chemical_formula_sum   'Na6 Yb2 Br12'
_cell_volume   617.70049257
_cell_formula_units_Z   2
loop_
 _symmetry_equiv_pos_site_id
 _symmetry_equiv_pos_as_xyz
  1  'x, y, z'
loop_
 _atom_site_type_symbol
 _atom_site_label
 _atom_site_symmetry_multiplicity
 _atom_site_fract_x
 _atom_site_fract_y
 _atom_site_fract_z
 _atom_site_occupancy
  Na  Na0  1  0.50000000  0.50000000  0.00000000  1
  Na  Na1  1  0.00000000  0.50000000  0.50000000  1
  Na  Na2  1  0.07088500  0.73626400  0.75854500  1
  Na  Na3  1  0.92911500  0.26373600  0.24145500  1
  Na  Na4  1  0.57088500  0.26373600  0.74145500  1
  Na  Na5  1  0.42911500  0.73626400  0.25854500  1
  Yb  Yb0  1  0.50000000  0.00000000  0.50000000  1
  Yb  Yb1  1  0.00000000  0.00000000  0.00000000  1
  Br  Br0  1  0.80696500  0.73649300  0.58755800  1
  Br  Br1  1  0.19303500  0.26350700  0.41244200  1
  Br  Br2  1  0.30696500  0.26350700  0.91244200  1
  Br  Br3  1  0.69303500  0.73649300  0.08755800  1
  Br  Br4  1  0.41953100  0.90561500  0.74636000  1
  Br  Br5  1  0.58046900  0.09438500  0.25364000  1
  Br  Br6  1  0.91953100  0.09438500  0.75364000  1
  Br  Br7  1  0.08046900  0.90561500  0.24636000  1
  Br  Br8  1  0.31861500  0.61410700  0.57134700  1
  Br  Br9  1  0.68138500  0.38589300  0.42865300  1
  Br  Br10  1  0.81861500  0.38589300  0.92865300  1
  Br  Br11  1  0.18138500  0.61410700  0.07134700  1
loop_
_geom_bond_atom_site_label_1
_geom_bond_atom_site_label_2
_geom_bond_distance
_geom_bond_site_symmetry_2
Br0 Yb0 2.916201 1_565
Br0 Na2 3.019207 1_655
Br0 Na1 3.035752 1_655
Br0 Na4 3.447914 1_555
Br1 Yb0 2.916201 1_555
Br1 Na3 3.019207 1_455
Br1 Na1 3.035752 1_555
Br1 Na5 3.447914 1_555
Br2 Yb1 2.916201 1_556
Br2 Na4 3.019207 1_555
Br2 Na0 3.035752 1_556
Br2 Na2 3.447914 1_555
Br3 Yb1 2.916201 1_665
Br3 Na5 3.019207 1_555
Br3 Na0 3.035752 1_555
Br3 Na3 3.447914 1_555
Br4 Yb0 2.848622 1_565
Br4 Na0 2.919226 1_556
Br4 Na4 2.944138 1_565
Br4 Na2 3.009541 1_555
Br5 Yb0 2.848622 1_555
Br5 Na0 2.919226 1_555
Br5 Na5 2.944138 1_545
Br5 Na3 3.009541 1_555
Br6 Yb1 2.848622 1_656
Br6 Na1 2.919226 1_655
Br6 Na2 2.944138 1_645
Br6 Na4 3.009541 1_555
Br7 Yb1 2.848622 1_565
Br7 Na1 2.919226 1_555
Br7 Na3 2.944138 1_465
Br7 Na5 3.009541 1_555
Br8 Yb0 2.887278 1_565
Br8 Na1 2.979840 1_555
Br8 Na4 2.986677 1_555
Br9 Yb0 2.887278 1_555
Br9 Na1 2.979840 1_655
Br9 Na5 2.986677 1_555
Br10 Yb1 2.887278 1_656
Br10 Na0 2.979840 1_556
Br10 Na2 2.986677 1_655
Br11 Yb1 2.887278 1_565
Br11 Na0 2.979840 1_555
Br11 Na3 2.986677 1_455
