# generated using pymatgen
data_GdTiCdSbO7
_symmetry_space_group_name_H-M   'P 1'
_cell_length_a   7.31710818
_cell_length_b   7.31710818
_cell_length_c   7.31710818
_cell_angle_alpha   120.87648097
_cell_angle_beta   118.53906242
_cell_angle_gamma   90.51871810
_symmetry_Int_Tables_number   1
_chemical_formula_structural   GdTiCdSbO7
_chemical_formula_sum   'Gd2 Ti2 Cd2 Sb2 O14'
_cell_volume   278.08321194
_cell_formula_units_Z   2
loop_
 _symmetry_equiv_pos_site_id
 _symmetry_equiv_pos_as_xyz
  1  'x, y, z'
loop_
 _atom_site_type_symbol
 _atom_site_label
 _atom_site_symmetry_multiplicity
 _atom_site_fract_x
 _atom_site_fract_y
 _atom_site_fract_z
 _atom_site_occupancy
  Gd  Gd0  1  0.50000000  0.00000000  0.50000000  1
  Gd  Gd1  1  0.00000000  0.00000000  0.00000000  1
  Ti  Ti0  1  0.00000000  0.50000000  0.00000000  1
  Ti  Ti1  1  0.00000000  0.00000000  0.50000000  1
  Cd  Cd0  1  0.50000000  0.00000000  0.00000000  1
  Cd  Cd1  1  0.50000000  0.50000000  0.50000000  1
  Sb  Sb0  1  0.00000000  0.50000000  0.50000000  1
  Sb  Sb1  1  0.50000000  0.50000000  0.00000000  1
  O  O0  1  0.92685200  0.17685200  0.75000000  1
  O  O1  1  0.32839500  0.57839500  0.75000000  1
  O  O2  1  0.93477500  0.58170500  0.76093700  1
  O  O3  1  0.32076800  0.17383800  0.73906300  1
  O  O4  1  0.93477500  0.17383800  0.35307000  1
  O  O5  1  0.32076800  0.58170500  0.14693000  1
  O  O6  1  0.07314800  0.82314800  0.25000000  1
  O  O7  1  0.67160500  0.42160500  0.25000000  1
  O  O8  1  0.06522500  0.41829500  0.23906300  1
  O  O9  1  0.67923200  0.82616200  0.26093700  1
  O  O10  1  0.06522500  0.82616200  0.64693000  1
  O  O11  1  0.67923200  0.41829500  0.85307000  1
  O  O12  1  0.62554500  0.87554500  0.75000000  1
  O  O13  1  0.37445500  0.12445500  0.25000000  1
loop_
_geom_bond_atom_site_label_1
_geom_bond_atom_site_label_2
_geom_bond_distance
_geom_bond_site_symmetry_2
Gd0 O13 2.266862 1_555
Gd0 O12 2.266862 1_545
Gd0 O3 2.517194 1_555
Gd0 O9 2.517194 1_545
Gd0 O11 2.517194 1_555
Gd0 O5 2.517194 1_545
Gd0 O0 2.610344 1_555
Gd0 O6 2.610344 1_545
Gd1 O13 2.266862 1_555
Gd1 O12 2.266862 1_444
Gd1 O10 2.517194 1_544
Gd1 O2 2.517194 1_444
Gd1 O8 2.517194 1_555
Gd1 O4 2.517194 1_455
Gd1 O0 2.610344 1_454
Gd1 O6 2.610344 1_545
Cd0 O12 2.220463 1_544
Cd0 O13 2.220463 1_555
Cd0 O1 2.526413 1_544
Cd0 O7 2.526413 1_555
Cd0 O4 2.667139 1_555
Cd0 O9 2.667139 1_545
Cd0 O10 2.667139 1_544
Cd0 O3 2.667139 1_554
Cd1 O12 2.220463 1_555
Cd1 O13 2.220463 1_555
Cd1 O1 2.526413 1_555
Cd1 O7 2.526413 1_555
Cd1 O2 2.667139 1_555
Cd1 O5 2.667139 1_555
Cd1 O11 2.667139 1_555
Cd1 O8 2.667139 1_555
O0 Ti1 1.955952 1_655
O0 Ti0 1.955952 1_656
O1 Sb1 2.036478 1_556
O1 Sb0 2.036478 1_555
O2 Ti0 1.981387 1_656
O2 Sb0 1.983664 1_655
O3 Ti1 1.981387 1_555
O3 Sb1 1.983664 1_556
O4 Ti1 1.981387 1_655
O4 Sb0 1.983664 1_655
O5 Ti0 1.981387 1_555
O5 Sb1 1.983664 1_555
O6 Ti1 1.955952 1_565
O6 Ti0 1.955952 1_555
O7 Sb1 2.036478 1_555
O7 Sb0 2.036478 1_655
O8 Ti0 1.981387 1_555
O8 Sb0 1.983664 1_555
O9 Ti1 1.981387 1_665
O9 Sb1 1.983664 1_555
O10 Ti1 1.981387 1_565
O10 Sb0 1.983664 1_555
O11 Ti0 1.981387 1_656
O11 Sb1 1.983664 1_556
