# generated using pymatgen
data_Tm2N3
_symmetry_space_group_name_H-M   'P 1'
_cell_length_a   9.32003896
_cell_length_b   9.32003896
_cell_length_c   9.32003896
_cell_angle_alpha   109.47122063
_cell_angle_beta   109.47122063
_cell_angle_gamma   109.47122063
_symmetry_Int_Tables_number   1
_chemical_formula_structural   Tm2N3
_chemical_formula_sum   'Tm16 N24'
_cell_volume   623.20552099
_cell_formula_units_Z   8
loop_
 _symmetry_equiv_pos_site_id
 _symmetry_equiv_pos_as_xyz
  1  'x, y, z'
loop_
 _atom_site_type_symbol
 _atom_site_label
 _atom_site_symmetry_multiplicity
 _atom_site_fract_x
 _atom_site_fract_y
 _atom_site_fract_z
 _atom_site_occupancy
  Tm  Tm0  1  0.50000000  0.00000000  0.50000000  1
  Tm  Tm1  1  0.50000000  0.50000000  0.00000000  1
  Tm  Tm2  1  0.00000000  0.50000000  0.50000000  1
  Tm  Tm3  1  0.00000000  0.00000000  0.00000000  1
  Tm  Tm4  1  0.78004000  0.25000000  0.03004000  1
  Tm  Tm5  1  0.71996000  0.75000000  0.46996000  1
  Tm  Tm6  1  0.25000000  0.03004000  0.78004000  1
  Tm  Tm7  1  0.75000000  0.46996000  0.71996000  1
  Tm  Tm8  1  0.03004000  0.78004000  0.25000000  1
  Tm  Tm9  1  0.46996000  0.71996000  0.75000000  1
  Tm  Tm10  1  0.21996000  0.75000000  0.96996000  1
  Tm  Tm11  1  0.28004000  0.25000000  0.53004000  1
  Tm  Tm12  1  0.75000000  0.96996000  0.21996000  1
  Tm  Tm13  1  0.25000000  0.53004000  0.28004000  1
  Tm  Tm14  1  0.96996000  0.21996000  0.75000000  1
  Tm  Tm15  1  0.53004000  0.28004000  0.25000000  1
  N  N0  1  0.48993300  0.23007700  0.46260300  1
  N  N1  1  0.23252600  0.26992300  0.75985600  1
  N  N2  1  0.01006700  0.47267100  0.74014400  1
  N  N3  1  0.26747400  0.02732900  0.03739700  1
  N  N4  1  0.23007700  0.46260300  0.48993300  1
  N  N5  1  0.26992300  0.75985600  0.23252600  1
  N  N6  1  0.47267100  0.74014400  0.01006700  1
  N  N7  1  0.02732900  0.03739700  0.26747400  1
  N  N8  1  0.46260300  0.48993300  0.23007700  1
  N  N9  1  0.75985600  0.23252600  0.26992300  1
  N  N10  1  0.74014400  0.01006700  0.47267100  1
  N  N11  1  0.03739700  0.26747400  0.02732900  1
  N  N12  1  0.51006700  0.76992300  0.53739700  1
  N  N13  1  0.76747400  0.73007700  0.24014400  1
  N  N14  1  0.98993300  0.52732900  0.25985600  1
  N  N15  1  0.73252600  0.97267100  0.96260300  1
  N  N16  1  0.76992300  0.53739700  0.51006700  1
  N  N17  1  0.73007700  0.24014400  0.76747400  1
  N  N18  1  0.52732900  0.25985600  0.98993300  1
  N  N19  1  0.97267100  0.96260300  0.73252600  1
  N  N20  1  0.53739700  0.51006700  0.76992300  1
  N  N21  1  0.24014400  0.76747400  0.73007700  1
  N  N22  1  0.25985600  0.98993300  0.52732900  1
  N  N23  1  0.96260300  0.73252600  0.97267100  1
loop_
_geom_bond_atom_site_label_1
_geom_bond_atom_site_label_2
_geom_bond_distance
_geom_bond_site_symmetry_2
N0 Tm11 2.289170 1_555
N0 Tm15 2.296876 1_555
N0 Tm0 2.310629 1_555
N0 Tm7 2.358611 1_555
N1 Tm11 2.289170 1_555
N1 Tm14 2.296876 1_455
N1 Tm1 2.310629 1_556
N1 Tm6 2.358611 1_555
N2 Tm10 2.289165 1_555
N2 Tm14 2.296885 1_455
N2 Tm2 2.310625 1_555
N2 Tm7 2.358607 1_455
N3 Tm10 2.289161 1_544
N3 Tm15 2.296880 1_555
N3 Tm3 2.310631 1_555
N3 Tm6 2.358614 1_554
N4 Tm13 2.289170 1_555
N4 Tm11 2.296876 1_555
N4 Tm2 2.310629 1_555
N4 Tm9 2.358611 1_555
N5 Tm13 2.289170 1_555
N5 Tm10 2.296876 1_554
N5 Tm0 2.310629 1_565
N5 Tm8 2.358611 1_555
N6 Tm12 2.289165 1_555
N6 Tm10 2.296885 1_554
N6 Tm1 2.310625 1_555
N6 Tm9 2.358607 1_554
N7 Tm12 2.289161 1_445
N7 Tm11 2.296880 1_555
N7 Tm3 2.310631 1_555
N7 Tm8 2.358614 1_545
N8 Tm15 2.289170 1_555
N8 Tm13 2.296876 1_555
N8 Tm1 2.310629 1_555
N8 Tm5 2.358611 1_555
N9 Tm15 2.289170 1_555
N9 Tm12 2.296876 1_545
N9 Tm2 2.310629 1_655
N9 Tm4 2.358611 1_555
N10 Tm14 2.289165 1_555
N10 Tm12 2.296885 1_545
N10 Tm0 2.310625 1_555
N10 Tm5 2.358607 1_545
N11 Tm14 2.289161 1_454
N11 Tm13 2.296880 1_555
N11 Tm3 2.310631 1_555
N11 Tm4 2.358614 1_455
N12 Tm5 2.289170 1_555
N12 Tm9 2.296876 1_555
N12 Tm0 2.310629 1_565
N12 Tm13 2.358611 1_555
N13 Tm5 2.289170 1_555
N13 Tm8 2.296876 1_655
N13 Tm1 2.310629 1_555
N13 Tm12 2.358611 1_555
N14 Tm4 2.289165 1_555
N14 Tm8 2.296885 1_655
N14 Tm2 2.310625 1_655
N14 Tm13 2.358607 1_655
N15 Tm4 2.289161 1_566
N15 Tm9 2.296880 1_555
N15 Tm3 2.310631 1_666
N15 Tm12 2.358614 1_556
N16 Tm7 2.289170 1_555
N16 Tm5 2.296876 1_555
N16 Tm2 2.310629 1_655
N16 Tm15 2.358611 1_555
N17 Tm7 2.289170 1_555
N17 Tm4 2.296876 1_556
N17 Tm0 2.310629 1_555
N17 Tm14 2.358611 1_555
N18 Tm6 2.289165 1_555
N18 Tm4 2.296885 1_556
N18 Tm1 2.310625 1_556
N18 Tm15 2.358607 1_556
N19 Tm6 2.289161 1_665
N19 Tm5 2.296880 1_555
N19 Tm3 2.310631 1_666
N19 Tm14 2.358614 1_565
N20 Tm9 2.289170 1_555
N20 Tm7 2.296876 1_555
N20 Tm1 2.310629 1_556
N20 Tm11 2.358611 1_555
N21 Tm9 2.289170 1_555
N21 Tm6 2.296876 1_565
N21 Tm2 2.310629 1_555
N21 Tm10 2.358611 1_555
N22 Tm8 2.289165 1_555
N22 Tm6 2.296885 1_565
N22 Tm0 2.310625 1_565
N22 Tm11 2.358607 1_565
N23 Tm8 2.289161 1_656
N23 Tm7 2.296880 1_555
N23 Tm3 2.310631 1_666
N23 Tm10 2.358614 1_655
