# generated using pymatgen
data_CaCu2(SnO4)2
_symmetry_space_group_name_H-M   'P 1'
_cell_length_a   9.00564200
_cell_length_b   6.31695900
_cell_length_c   12.96868294
_cell_angle_alpha   86.00247831
_cell_angle_beta   90.00000000
_cell_angle_gamma   90.00000000
_symmetry_Int_Tables_number   1
_chemical_formula_structural   CaCu2(SnO4)2
_chemical_formula_sum   'Ca4 Cu8 Sn8 O32'
_cell_volume   735.97101795
_cell_formula_units_Z   4
loop_
 _symmetry_equiv_pos_site_id
 _symmetry_equiv_pos_as_xyz
  1  'x, y, z'
loop_
 _atom_site_type_symbol
 _atom_site_label
 _atom_site_symmetry_multiplicity
 _atom_site_fract_x
 _atom_site_fract_y
 _atom_site_fract_z
 _atom_site_occupancy
  Ca  Ca0  1  0.16931600  0.12348000  0.01520600  1
  Ca  Ca1  1  0.83068400  0.87652000  0.98479400  1
  Ca  Ca2  1  0.66931600  0.87652000  0.48479400  1
  Ca  Ca3  1  0.33068400  0.12348000  0.51520600  1
  Cu  Cu0  1  0.19283600  0.73624300  0.83306500  1
  Cu  Cu1  1  0.06044300  0.39010900  0.62178300  1
  Cu  Cu2  1  0.93955700  0.60989100  0.37821700  1
  Cu  Cu3  1  0.80716400  0.26375700  0.16693500  1
  Cu  Cu4  1  0.30716400  0.73624300  0.33306500  1
  Cu  Cu5  1  0.43955700  0.39010900  0.12178300  1
  Cu  Cu6  1  0.69283600  0.26375700  0.66693500  1
  Cu  Cu7  1  0.56044300  0.60989100  0.87821700  1
  Sn  Sn0  1  0.45302000  0.08716200  0.82742800  1
  Sn  Sn1  1  0.04698000  0.08716200  0.32742800  1
  Sn  Sn2  1  0.07642700  0.56309200  0.15253000  1
  Sn  Sn3  1  0.95302000  0.91283800  0.67257200  1
  Sn  Sn4  1  0.92357300  0.43690800  0.84747000  1
  Sn  Sn5  1  0.57642700  0.43690800  0.34747000  1
  Sn  Sn6  1  0.42357300  0.56309200  0.65253000  1
  Sn  Sn7  1  0.54698000  0.91283800  0.17257200  1
  O  O0  1  0.25882700  0.01597000  0.35440200  1
  O  O1  1  0.99507900  0.66469200  0.59122400  1
  O  O2  1  0.56187300  0.19645900  0.44923700  1
  O  O3  1  0.06187300  0.80354100  0.05076300  1
  O  O4  1  0.24117300  0.01597000  0.85440200  1
  O  O5  1  0.74117300  0.98403000  0.64559800  1
  O  O6  1  0.10874600  0.10604400  0.61312900  1
  O  O7  1  0.85224500  0.54124700  0.17356800  1
  O  O8  1  0.64775500  0.54124700  0.67356800  1
  O  O9  1  0.89222800  0.30087900  0.70547700  1
  O  O10  1  0.39222800  0.69912100  0.79452300  1
  O  O11  1  0.14775500  0.45875300  0.82643200  1
  O  O12  1  0.89125400  0.89395600  0.38687100  1
  O  O13  1  0.51717300  0.78457900  0.32197700  1
  O  O14  1  0.25006800  0.45057100  0.57567900  1
  O  O15  1  0.24993200  0.45057100  0.07567900  1
  O  O16  1  0.01717300  0.21542100  0.17802300  1
  O  O17  1  0.35224500  0.45875300  0.32643200  1
  O  O18  1  0.48282700  0.21542100  0.67802300  1
  O  O19  1  0.43812700  0.80354100  0.55076300  1
  O  O20  1  0.50492100  0.66469200  0.09122400  1
  O  O21  1  0.10777200  0.69912100  0.29452300  1
  O  O22  1  0.75882700  0.98403000  0.14559800  1
  O  O23  1  0.39125400  0.10604400  0.11312900  1
  O  O24  1  0.93812700  0.19645900  0.94923700  1
  O  O25  1  0.75006800  0.54942900  0.92432100  1
  O  O26  1  0.00492100  0.33530800  0.40877600  1
  O  O27  1  0.49507900  0.33530800  0.90877600  1
  O  O28  1  0.60874600  0.89395600  0.88687100  1
  O  O29  1  0.74993200  0.54942900  0.42432100  1
  O  O30  1  0.60777200  0.30087900  0.20547700  1
  O  O31  1  0.98282700  0.78457900  0.82197700  1
loop_
_geom_bond_atom_site_label_1
_geom_bond_atom_site_label_2
_geom_bond_distance
_geom_bond_site_symmetry_2
Ca0 O3 2.259103 1_545
Ca0 O24 2.285654 1_454
Ca0 O4 2.329467 1_554
Ca0 O23 2.366461 1_555
Ca0 O15 2.374306 1_555
Ca0 O16 2.616128 1_555
Ca1 O24 2.259103 1_565
Ca1 O3 2.285654 1_656
Ca1 O22 2.329467 1_556
Ca1 O28 2.366461 1_555
Ca1 O25 2.374306 1_555
Ca1 O31 2.616128 1_555
Ca2 O2 2.259103 1_565
Ca2 O19 2.285654 1_555
Ca2 O5 2.329467 1_555
Ca2 O12 2.366461 1_555
Ca2 O29 2.374306 1_555
Ca2 O13 2.616128 1_555
Ca3 O19 2.259103 1_545
Ca3 O2 2.285654 1_555
Ca3 O0 2.329467 1_555
Ca3 O6 2.366461 1_555
Ca3 O14 2.374306 1_555
Ca3 O18 2.616128 1_555
Cu0 O11 1.807174 1_555
Cu0 O4 1.859196 1_565
Cu0 O10 1.882961 1_555
Cu0 O31 1.919550 1_455
Cu1 O14 1.840584 1_555
Cu1 O1 1.848327 1_455
Cu1 O6 1.857382 1_555
Cu1 O9 1.924937 1_455
Cu2 O29 1.840584 1_555
Cu2 O26 1.848327 1_655
Cu2 O12 1.857382 1_555
Cu2 O21 1.924937 1_655
Cu3 O7 1.807174 1_555
Cu3 O22 1.859196 1_545
Cu3 O30 1.882961 1_555
Cu3 O16 1.919550 1_655
Cu4 O17 1.807174 1_555
Cu4 O0 1.859196 1_565
Cu4 O21 1.882961 1_555
Cu4 O13 1.919550 1_555
Cu5 O15 1.840584 1_555
Cu5 O20 1.848327 1_555
Cu5 O23 1.857382 1_555
Cu5 O30 1.924937 1_555
Cu6 O8 1.807174 1_555
Cu6 O5 1.859196 1_545
Cu6 O9 1.882961 1_555
Cu6 O18 1.919550 1_555
Cu7 O25 1.840584 1_555
Cu7 O27 1.848327 1_555
Cu7 O28 1.857382 1_555
Cu7 O10 1.924937 1_555
O0 Sn1 1.985561 1_555
O1 Sn3 1.985990 1_555
O2 Sn5 1.945915 1_555
O3 Sn2 1.945915 1_555
O4 Sn0 1.985561 1_555
O5 Sn3 1.985561 1_555
O6 Sn3 1.979753 1_445
O7 Sn2 2.040637 1_655
O8 Sn6 2.040637 1_555
O9 Sn4 2.104677 1_555
O9 Sn3 2.576091 1_545
O10 Sn6 2.104677 1_555
O10 Sn0 2.576091 1_565
O11 Sn4 2.040637 1_455
O12 Sn1 1.979753 1_665
O13 Sn7 2.064910 1_555
O13 Sn5 2.261905 1_555
O14 Sn6 2.009677 1_555
O15 Sn2 2.009677 1_555
O16 Sn1 2.064910 1_555
O16 Sn2 2.261905 1_555
O17 Sn5 2.040637 1_555
O18 Sn0 2.064910 1_555
O18 Sn6 2.261905 1_555
O19 Sn6 1.945915 1_555
O20 Sn7 1.985990 1_555
O21 Sn2 2.104677 1_555
O21 Sn1 2.576091 1_565
O22 Sn7 1.985561 1_555
O23 Sn7 1.979753 1_545
O24 Sn4 1.945915 1_555
O25 Sn4 2.009677 1_555
O26 Sn1 1.985990 1_555
O27 Sn0 1.985990 1_555
O28 Sn0 1.979753 1_565
O29 Sn5 2.009677 1_555
O30 Sn5 2.104677 1_555
O30 Sn7 2.576091 1_545
O31 Sn3 2.064910 1_555
O31 Sn4 2.261905 1_555
