# generated using pymatgen
data_SrEu3(NiO4)2
_symmetry_space_group_name_H-M   'P 1'
_cell_length_a   6.76451127
_cell_length_b   6.76451127
_cell_length_c   5.38033400
_cell_angle_alpha   90.00000000
_cell_angle_beta   90.00000000
_cell_angle_gamma   132.91539428
_symmetry_Int_Tables_number   1
_chemical_formula_structural   SrEu3(NiO4)2
_chemical_formula_sum   'Sr1 Eu3 Ni2 O8'
_cell_volume   180.30455024
_cell_formula_units_Z   1
loop_
 _symmetry_equiv_pos_site_id
 _symmetry_equiv_pos_as_xyz
  1  'x, y, z'
loop_
 _atom_site_type_symbol
 _atom_site_label
 _atom_site_symmetry_multiplicity
 _atom_site_fract_x
 _atom_site_fract_y
 _atom_site_fract_z
 _atom_site_occupancy
  Sr  Sr0  1  0.35816200  0.64183800  0.00000000  1
  Eu  Eu0  1  0.86077000  0.13923000  0.50000000  1
  Eu  Eu1  1  0.14054100  0.85945900  0.50000000  1
  Eu  Eu2  1  0.63982000  0.36018000  0.00000000  1
  Ni  Ni0  1  0.49713300  0.50286700  0.50000000  1
  Ni  Ni1  1  0.99932300  0.00067700  0.00000000  1
  O  O0  1  0.67320400  0.32679600  0.50000000  1
  O  O1  1  0.16177100  0.83822900  0.00000000  1
  O  O2  1  0.82837500  0.17162500  0.00000000  1
  O  O3  1  0.32720800  0.67279200  0.50000000  1
  O  O4  1  0.24986300  0.24301600  0.25345200  1
  O  O5  1  0.75698400  0.75013700  0.74654800  1
  O  O6  1  0.24986300  0.24301600  0.74654800  1
  O  O7  1  0.75698400  0.75013700  0.25345200  1
loop_
_geom_bond_atom_site_label_1
_geom_bond_atom_site_label_2
_geom_bond_distance
_geom_bond_site_symmetry_2
Eu0 O0 2.326370 1_555
Eu0 O5 2.581398 1_545
Eu0 O4 2.581398 1_655
Eu0 O7 2.581398 1_545
Eu0 O6 2.581398 1_655
Eu0 O2 2.720007 1_555
Eu0 O2 2.720007 1_556
Eu0 O3 2.733800 1_655
Eu0 O3 2.733800 1_545
Eu1 O3 2.315220 1_555
Eu1 O4 2.534828 1_565
Eu1 O6 2.534828 1_565
Eu1 O7 2.534828 1_455
Eu1 O5 2.534828 1_455
Eu1 O1 2.703023 1_555
Eu1 O1 2.703023 1_556
Eu1 O0 2.732124 1_565
Eu1 O0 2.732124 1_455
Eu2 O2 2.338636 1_555
Eu2 O6 2.568836 1_554
Eu2 O4 2.568836 1_555
Eu2 O5 2.568836 1_554
Eu2 O7 2.568836 1_555
Eu2 O1 2.715604 1_655
Eu2 O1 2.715604 1_545
Eu2 O0 2.721846 1_555
Eu2 O0 2.721846 1_554
Ni0 O6 1.908709 1_555
Ni0 O4 1.908709 1_555
Ni0 O7 1.908709 1_555
Ni0 O5 1.908709 1_555
Ni0 O3 2.107570 1_555
Ni0 O0 2.183798 1_555
Ni1 O7 1.906732 1_545
Ni1 O5 1.906732 1_544
Ni1 O4 1.906732 1_655
Ni1 O6 1.906732 1_654
Ni1 O1 2.014833 1_645
Ni1 O2 2.120258 1_555
O1 Sr0 2.435826 1_555
O2 Sr0 2.727063 1_545
O2 Sr0 2.727063 1_655
O3 Sr0 2.717424 1_555
O3 Sr0 2.717424 1_556
O4 Sr0 2.642541 1_555
O5 Sr0 2.642541 1_556
O6 Sr0 2.642541 1_556
O7 Sr0 2.642541 1_555
