# generated using pymatgen
data_Sr2Cu(BrO)2
_symmetry_space_group_name_H-M   'P 1'
_cell_length_a   4.94543533
_cell_length_b   4.94543533
_cell_length_c   6.37787424
_cell_angle_alpha   90.00000000
_cell_angle_beta   90.00000000
_cell_angle_gamma   90.00000000
_symmetry_Int_Tables_number   1
_chemical_formula_structural   Sr2Cu(BrO)2
_chemical_formula_sum   'Sr2 Cu1 Br2 O2'
_cell_volume   155.98577883
_cell_formula_units_Z   1
loop_
 _symmetry_equiv_pos_site_id
 _symmetry_equiv_pos_as_xyz
  1  'x, y, z'
loop_
 _atom_site_type_symbol
 _atom_site_label
 _atom_site_symmetry_multiplicity
 _atom_site_fract_x
 _atom_site_fract_y
 _atom_site_fract_z
 _atom_site_occupancy
  Sr  Sr0  1  0.00000000  0.50000000  0.50000000  1
  Sr  Sr1  1  0.50000000  0.00000000  0.50000000  1
  Cu  Cu0  1  0.50000000  0.50000000  0.00000000  1
  Br  Br0  1  -0.00000000  0.50000000  0.00000000  1
  Br  Br1  1  0.50000000  0.00000000  0.00000000  1
  O  O0  1  0.00000000  0.00000000  0.50000000  1
  O  O1  1  0.50000000  0.50000000  0.50000000  1
loop_
_geom_bond_atom_site_label_1
_geom_bond_atom_site_label_2
_geom_bond_distance
_geom_bond_site_symmetry_2
Br0 Cu0 2.472718 1_555
Br0 Cu0 2.472718 1_455
Br0 Sr0 3.188937 1_555
Br0 Sr0 3.188937 1_554
Br1 Cu0 2.472718 1_555
Br1 Cu0 2.472718 1_545
Br1 Sr1 3.188937 1_554
Br1 Sr1 3.188937 1_555
O0 Sr0 2.472718 1_555
O0 Sr0 2.472718 1_545
O0 Sr1 2.472718 1_455
O0 Sr1 2.472718 1_555
O1 Sr0 2.472718 1_655
O1 Sr1 2.472718 1_555
O1 Sr1 2.472718 1_565
O1 Sr0 2.472718 1_555
