# generated using pymatgen
data_Mg14CoC
_symmetry_space_group_name_H-M   'P 1'
_cell_length_a   6.21164484
_cell_length_b   6.21164436
_cell_length_c   9.52365951
_cell_angle_alpha   90.00000000
_cell_angle_beta   90.00000000
_cell_angle_gamma   120.00000254
_symmetry_Int_Tables_number   1
_chemical_formula_structural   Mg14CoC
_chemical_formula_sum   'Mg14 Co1 C1'
_cell_volume   318.23480777
_cell_formula_units_Z   1
loop_
 _symmetry_equiv_pos_site_id
 _symmetry_equiv_pos_as_xyz
  1  'x, y, z'
loop_
 _atom_site_type_symbol
 _atom_site_label
 _atom_site_symmetry_multiplicity
 _atom_site_fract_x
 _atom_site_fract_y
 _atom_site_fract_z
 _atom_site_occupancy
  Mg  Mg0  1  0.16870827  0.83435363  0.12500000  1
  Mg  Mg1  1  0.16578497  0.83289199  0.62500000  1
  Mg  Mg2  1  0.66564637  0.33129173  0.12500000  1
  Mg  Mg3  1  0.66710801  0.33421503  0.62500000  1
  Mg  Mg4  1  0.66564637  0.83435363  0.12500000  1
  Mg  Mg5  1  0.66710801  0.83289199  0.62500000  1
  Mg  Mg6  1  0.32273813  0.17726187  0.37612407  1
  Mg  Mg7  1  0.32273813  0.17726187  0.87387593  1
  Mg  Mg8  1  0.32273813  0.64547725  0.37612407  1
  Mg  Mg9  1  0.32273813  0.64547725  0.87387593  1
  Mg  Mg10  1  0.85452275  0.17726187  0.37612407  1
  Mg  Mg11  1  0.85452275  0.17726187  0.87387593  1
  Mg  Mg12  1  0.83333300  0.66666700  0.37355127  1
  Mg  Mg13  1  0.83333300  0.66666700  0.87644873  1
  Co  Co0  1  0.16666700  0.33333300  0.12500000  1
  C  C0  1  0.16666700  0.33333300  0.62500000  1
loop_
_geom_bond_atom_site_label_1
_geom_bond_atom_site_label_2
_geom_bond_distance
_geom_bond_site_symmetry_2
Mg0 Mg12 2.976262 1_455
Mg0 Mg13 2.976262 1_454
Mg0 Mg8 3.022296 1_555
Mg0 Mg9 3.022296 1_554
Mg0 Mg6 3.022303 1_565
Mg0 Mg7 3.022303 1_564
Mg0 Mg2 3.086803 1_565
Mg0 Mg4 3.086803 1_555
Mg0 Mg2 3.124842 1_455
Mg0 Mg4 3.124842 1_455
Mg1 Mg13 2.988820 1_455
Mg1 Mg12 2.988820 1_455
Mg2 Mg6 3.022303 1_555
Mg2 Mg7 3.022303 1_554
Mg2 Mg4 3.086803 1_545
Mg2 Mg4 3.124842 1_555
Mg4 Mg8 3.022302 1_555
Mg4 Mg9 3.022302 1_554
Mg10 Mg2 3.022296 1_555
Mg10 Mg4 3.022302 1_545
Mg10 Mg12 3.108010 1_545
Mg10 Mg12 3.108010 1_555
Mg11 Mg2 3.022296 1_556
Mg11 Mg4 3.022302 1_546
Mg11 Mg13 3.108010 1_545
Mg11 Mg13 3.108010 1_555
Mg12 Mg4 2.976256 1_555
Mg12 Mg2 2.976262 1_555
Mg12 Mg5 2.988813 1_555
Mg12 Mg3 2.988819 1_555
Mg12 Mg6 3.108010 1_665
Mg12 Mg6 3.108010 1_555
Mg12 Mg8 3.108010 1_555
Mg12 Mg8 3.108010 1_655
Mg13 Mg4 2.976256 1_556
Mg13 Mg2 2.976262 1_556
Mg13 Mg5 2.988813 1_555
Mg13 Mg3 2.988819 1_555
Mg13 Mg7 3.108010 1_665
Mg13 Mg7 3.108010 1_555
Mg13 Mg9 3.108010 1_555
Mg13 Mg9 3.108010 1_655
Co0 Mg6 2.922224 1_555
Co0 Mg7 2.922224 1_554
Co0 Mg8 2.922231 1_555
Co0 Mg9 2.922231 1_554
Co0 Mg10 2.922231 1_455
Co0 Mg11 2.922231 1_454
Co0 Mg0 3.105842 1_555
Co0 Mg4 3.105842 1_555
Co0 Mg4 3.105842 1_445
Co0 Mg0 3.105842 1_545
Co0 Mg2 3.105842 1_455
Co0 Mg2 3.105842 1_555
C0 Mg7 2.904728 1_555
C0 Mg6 2.904728 1_555
C0 Mg9 2.904734 1_555
C0 Mg8 2.904734 1_555
C0 Mg11 2.904734 1_455
C0 Mg10 2.904734 1_455
