# generated using pymatgen
data_Na3CoC2ClO6
_symmetry_space_group_name_H-M   'P 1'
_cell_length_a   9.99472808
_cell_length_b   9.99472808
_cell_length_c   9.99472808
_cell_angle_alpha   60.00000000
_cell_angle_beta   60.00000000
_cell_angle_gamma   60.00000000
_symmetry_Int_Tables_number   1
_chemical_formula_structural   Na3CoC2ClO6
_chemical_formula_sum   'Na12 Co4 C8 Cl4 O24'
_cell_volume   705.98902711
_cell_formula_units_Z   4
loop_
 _symmetry_equiv_pos_site_id
 _symmetry_equiv_pos_as_xyz
  1  'x, y, z'
loop_
 _atom_site_type_symbol
 _atom_site_label
 _atom_site_symmetry_multiplicity
 _atom_site_fract_x
 _atom_site_fract_y
 _atom_site_fract_z
 _atom_site_occupancy
  Na  Na0  1  0.72255100  0.72255100  0.27744900  1
  Na  Na1  1  0.27744900  0.27744900  0.72255100  1
  Na  Na2  1  0.27744900  0.72255100  0.72255100  1
  Na  Na3  1  0.72255100  0.27744900  0.27744900  1
  Na  Na4  1  0.72255100  0.27744900  0.72255100  1
  Na  Na5  1  0.27744900  0.72255100  0.27744900  1
  Na  Na6  1  0.52744900  0.52744900  0.97255100  1
  Na  Na7  1  0.97255100  0.97255100  0.52744900  1
  Na  Na8  1  0.97255100  0.52744900  0.52744900  1
  Na  Na9  1  0.52744900  0.97255100  0.97255100  1
  Na  Na10  1  0.52744900  0.97255100  0.52744900  1
  Na  Na11  1  0.97255100  0.52744900  0.97255100  1
  Co  Co0  1  0.62500000  0.12500000  0.12500000  1
  Co  Co1  1  0.12500000  0.12500000  0.62500000  1
  Co  Co2  1  0.12500000  0.62500000  0.12500000  1
  Co  Co3  1  0.12500000  0.12500000  0.12500000  1
  C  C0  1  0.90750700  0.27747900  0.90750700  1
  C  C1  1  0.90750700  0.90750700  0.90750700  1
  C  C2  1  0.27747900  0.90750700  0.90750700  1
  C  C3  1  0.90750700  0.90750700  0.27747900  1
  C  C4  1  0.34249300  0.97252100  0.34249300  1
  C  C5  1  0.34249300  0.34249300  0.34249300  1
  C  C6  1  0.97252100  0.34249300  0.34249300  1
  C  C7  1  0.34249300  0.34249300  0.97252100  1
  Cl  Cl0  1  0.62500000  0.62500000  0.62500000  1
  Cl  Cl1  1  0.62500000  0.12500000  0.62500000  1
  Cl  Cl2  1  0.62500000  0.62500000  0.12500000  1
  Cl  Cl3  1  0.12500000  0.62500000  0.62500000  1
  O  O0  1  0.76427600  0.28023100  0.93672400  1
  O  O1  1  0.93672400  0.01876900  0.76427600  1
  O  O2  1  0.28023100  0.76427600  0.01876900  1
  O  O3  1  0.01876900  0.93672400  0.28023100  1
  O  O4  1  0.93672400  0.76427600  0.28023100  1
  O  O5  1  0.76427600  0.93672400  0.01876900  1
  O  O6  1  0.01876900  0.28023100  0.76427600  1
  O  O7  1  0.28023100  0.01876900  0.93672400  1
  O  O8  1  0.28023100  0.93672400  0.76427600  1
  O  O9  1  0.01876900  0.76427600  0.93672400  1
  O  O10  1  0.76427600  0.01876900  0.28023100  1
  O  O11  1  0.93672400  0.28023100  0.01876900  1
  O  O12  1  0.48572400  0.96976900  0.31327600  1
  O  O13  1  0.31327600  0.23123100  0.48572400  1
  O  O14  1  0.96976900  0.48572400  0.23123100  1
  O  O15  1  0.23123100  0.31327600  0.96976900  1
  O  O16  1  0.31327600  0.48572400  0.96976900  1
  O  O17  1  0.48572400  0.31327600  0.23123100  1
  O  O18  1  0.23123100  0.96976900  0.48572400  1
  O  O19  1  0.96976900  0.23123100  0.31327600  1
  O  O20  1  0.96976900  0.31327600  0.48572400  1
  O  O21  1  0.23123100  0.48572400  0.31327600  1
  O  O22  1  0.48572400  0.23123100  0.96976900  1
  O  O23  1  0.31327600  0.96976900  0.23123100  1
loop_
_geom_bond_atom_site_label_1
_geom_bond_atom_site_label_2
_geom_bond_distance
_geom_bond_site_symmetry_2
Na0 O4 2.391792 1_555
Na0 O5 2.391792 1_555
Na0 O12 2.454550 1_555
Na0 O14 2.454550 1_555
Na1 O7 2.391792 1_555
Na1 O6 2.391792 1_555
Na1 O15 2.454550 1_555
Na1 O13 2.454550 1_555
Na2 O8 2.391792 1_555
Na2 O9 2.391792 1_555
Na2 O16 2.454550 1_555
Na2 O18 2.454550 1_555
Na3 O11 2.391792 1_555
Na3 O10 2.391792 1_555
Na3 O19 2.454550 1_555
Na3 O17 2.454550 1_555
Na4 O0 2.391792 1_555
Na4 O1 2.391792 1_555
Na4 O20 2.454550 1_555
Na4 O22 2.454550 1_555
Na5 O3 2.391792 1_555
Na5 O2 2.391792 1_555
Na5 O23 2.454550 1_555
Na5 O21 2.454550 1_555
Na6 O17 2.391792 1_556
Na6 O16 2.391792 1_555
Na6 O0 2.454550 1_555
Na6 O2 2.454550 1_556
Na7 O18 2.391792 1_655
Na7 O19 2.391792 1_565
Na7 O1 2.454550 1_565
Na7 O3 2.454550 1_655
Na8 O21 2.391792 1_655
Na8 O20 2.391792 1_555
Na8 O4 2.454550 1_555
Na8 O6 2.454550 1_655
Na9 O22 2.391792 1_565
Na9 O23 2.391792 1_556
Na9 O7 2.454550 1_565
Na9 O5 2.454550 1_556
Na10 O13 2.391792 1_565
Na10 O12 2.391792 1_555
Na10 O10 2.454550 1_565
Na10 O8 2.454550 1_555
Na11 O15 2.391792 1_655
Na11 O14 2.391792 1_556
Na11 O9 2.454550 1_655
Na11 O11 2.454550 1_556
Co0 O0 2.122878 1_554
Co0 O10 2.122878 1_555
Co0 O22 2.122878 1_554
Co0 O12 2.122878 1_545
Co0 O5 2.122878 1_545
Co0 O17 2.122878 1_555
Co1 O20 2.122878 1_455
Co1 O6 2.122878 1_555
Co1 O8 2.122878 1_545
Co1 O1 2.122878 1_455
Co1 O13 2.122878 1_555
Co1 O18 2.122878 1_545
Co2 O4 2.122878 1_455
Co2 O21 2.122878 1_555
Co2 O9 2.122878 1_554
Co2 O2 2.122878 1_555
Co2 O14 2.122878 1_455
Co2 O16 2.122878 1_554
Co3 O15 2.122878 1_554
Co3 O3 2.122878 1_545
Co3 O19 2.122878 1_455
Co3 O23 2.122878 1_545
Co3 O7 2.122878 1_554
Co3 O11 2.122878 1_455
C0 O0 1.298460 1_555
C0 O6 1.298460 1_655
C0 O11 1.298460 1_556
C1 O5 1.298460 1_556
C1 O1 1.298460 1_565
C1 O9 1.298460 1_655
C2 O8 1.298460 1_555
C2 O2 1.298460 1_556
C2 O7 1.298460 1_565
C3 O4 1.298460 1_555
C3 O10 1.298460 1_565
C3 O3 1.298460 1_655
C4 O23 1.298460 1_555
C4 O12 1.298460 1_555
C4 O18 1.298460 1_555
C5 O17 1.298460 1_555
C5 O13 1.298460 1_555
C5 O21 1.298460 1_555
C6 O19 1.298460 1_555
C6 O14 1.298460 1_555
C6 O20 1.298460 1_555
C7 O15 1.298460 1_555
C7 O22 1.298460 1_555
C7 O16 1.298460 1_555
Cl0 Na2 2.853882 1_555
Cl0 Na0 2.853882 1_555
Cl0 Na4 2.853882 1_555
Cl0 Na8 2.853882 1_555
Cl0 Na6 2.853882 1_555
Cl0 Na10 2.853882 1_555
Cl1 Na3 2.853882 1_555
Cl1 Na1 2.853882 1_555
Cl1 Na10 2.853882 1_545
Cl1 Na7 2.853882 1_545
Cl1 Na9 2.853882 1_545
Cl1 Na4 2.853882 1_555
Cl2 Na5 2.853882 1_555
Cl2 Na3 2.853882 1_555
Cl2 Na9 2.853882 1_554
Cl2 Na11 2.853882 1_554
Cl2 Na6 2.853882 1_554
Cl2 Na0 2.853882 1_555
Cl3 Na5 2.853882 1_555
Cl3 Na1 2.853882 1_555
Cl3 Na8 2.853882 1_455
Cl3 Na7 2.853882 1_455
Cl3 Na11 2.853882 1_455
Cl3 Na2 2.853882 1_555
