# generated using pymatgen
data_Li5Mn4(P2O7)4
_symmetry_space_group_name_H-M   'P 1'
_cell_length_a   9.75150100
_cell_length_b   9.84925003
_cell_length_c   11.27997910
_cell_angle_alpha   78.38601497
_cell_angle_beta   89.91940986
_cell_angle_gamma   89.96321738
_symmetry_Int_Tables_number   1
_chemical_formula_structural   Li5Mn4(P2O7)4
_chemical_formula_sum   'Li10 Mn8 P16 O56'
_cell_volume   1061.20307269
_cell_formula_units_Z   2
loop_
 _symmetry_equiv_pos_site_id
 _symmetry_equiv_pos_as_xyz
  1  'x, y, z'
loop_
 _atom_site_type_symbol
 _atom_site_label
 _atom_site_symmetry_multiplicity
 _atom_site_fract_x
 _atom_site_fract_y
 _atom_site_fract_z
 _atom_site_occupancy
  Li  Li0  1  0.47375300  0.88451200  0.49789800  1
  Li  Li1  1  0.10713100  0.91281100  0.01958800  1
  Li  Li2  1  0.58958400  0.58553700  0.97541200  1
  Li  Li3  1  0.92282200  0.64984900  0.46933900  1
  Li  Li4  1  0.21265800  0.59665500  0.55188300  1
  Li  Li5  1  0.57744000  0.15259100  0.95560100  1
  Li  Li6  1  0.11696000  0.36097400  0.04527300  1
  Li  Li7  1  0.88945900  0.08965500  0.97017400  1
  Li  Li8  1  0.59654600  0.17961700  0.44797700  1
  Li  Li9  1  0.28119100  0.11200400  0.55210800  1
  Mn  Mn0  1  0.92116800  0.79561400  0.67897500  1
  Mn  Mn1  1  0.22140100  0.73652100  0.83172200  1
  Mn  Mn2  1  0.71644200  0.77144100  0.16950900  1
  Mn  Mn3  1  0.42727800  0.68678600  0.33207800  1
  Mn  Mn4  1  0.58006500  0.29470700  0.67127500  1
  Mn  Mn5  1  0.28459300  0.25321000  0.82882600  1
  Mn  Mn6  1  0.77553500  0.28431200  0.16646600  1
  Mn  Mn7  1  0.07112200  0.18932200  0.33256900  1
  P  P0  1  0.45048500  0.97780700  0.75543800  1
  P  P1  1  0.70459100  0.87937600  0.89362400  1
  P  P2  1  0.93540900  0.93771000  0.24016600  1
  P  P3  1  0.15633600  0.86597300  0.42432700  1
  P  P4  1  0.64481000  0.61940300  0.57363200  1
  P  P5  1  0.42367600  0.56785700  0.75399900  1
  P  P6  1  0.04258100  0.47877600  0.75888000  1
  P  P7  1  0.21222200  0.62031600  0.12105600  1
  P  P8  1  0.78400000  0.38634600  0.88902800  1
  P  P9  1  0.93846000  0.53560500  0.24001300  1
  P  P10  1  0.57059400  0.43433500  0.24302300  1
  P  P11  1  0.34436700  0.36537100  0.41832400  1
  P  P12  1  0.85974500  0.11647200  0.57159900  1
  P  P13  1  0.07461900  0.06041700  0.75562700  1
  P  P14  1  0.28906300  0.11348300  0.12178700  1
  P  P15  1  0.55686400  0.02680900  0.24592500  1
  O  O0  1  0.42635600  0.97971900  0.62259000  1
  O  O1  1  0.85601500  0.95979300  0.56937500  1
  O  O2  1  0.08190300  0.91085800  0.72946900  1
  O  O3  1  0.34044500  0.90660800  0.84238800  1
  O  O4  1  0.58977700  0.89251100  0.78823800  1
  O  O5  1  0.82879400  0.82759300  0.83584100  1
  O  O6  1  0.64744100  0.77120100  0.00420600  1
  O  O7  1  0.24687000  0.97464000  0.10329400  1
  O  O8  1  0.07767900  0.87510300  0.29708900  1
  O  O9  1  0.93667100  0.93965500  0.10607800  1
  O  O10  1  0.55622900  0.88040500  0.21134100  1
  O  O11  1  0.30127100  0.80813200  0.40788600  1
  O  O12  1  0.82148200  0.83612700  0.29939500  1
  O  O13  1  0.07332400  0.76363600  0.51703900  1
  O  O14  1  0.55814000  0.70756100  0.47042300  1
  O  O15  1  0.30870600  0.65956900  0.68491800  1
  O  O16  1  0.78676700  0.68133100  0.58624600  1
  O  O17  1  0.02593300  0.63348200  0.77847100  1
  O  O18  1  0.56817600  0.63076000  0.69753400  1
  O  O19  1  0.42171100  0.58727300  0.88327900  1
  O  O20  1  0.75452100  0.52539200  0.91473500  1
  O  O21  1  0.16396600  0.72795400  0.00887100  1
  O  O22  1  0.32699500  0.68702200  0.18596400  1
  O  O23  1  0.08757100  0.60414100  0.21896300  1
  O  O24  1  0.58115100  0.58233400  0.27085000  1
  O  O25  1  0.84155200  0.62816500  0.14853100  1
  O  O26  1  0.07996100  0.47161400  0.63180400  1
  O  O27  1  0.32923000  0.51320900  0.43878500  1
  O  O28  1  0.65087600  0.46683800  0.56511300  1
  O  O29  1  0.90564700  0.52569600  0.37009000  1
  O  O30  1  0.13801200  0.40334300  0.86002300  1
  O  O31  1  0.41683500  0.41684600  0.73291800  1
  O  O32  1  0.89744900  0.40018000  0.78361100  1
  O  O33  1  0.66756600  0.30771400  0.84137800  1
  O  O34  1  0.84896500  0.28245200  0.00318400  1
  O  O35  1  0.24166300  0.48183500  0.09358900  1
  O  O36  1  0.59113600  0.42876400  0.11144300  1
  O  O37  1  0.42384200  0.37610600  0.28977100  1
  O  O38  1  0.94479000  0.38982800  0.19987500  1
  O  O39  1  0.20744500  0.29625000  0.40341300  1
  O  O40  1  0.67847900  0.32814500  0.31068300  1
  O  O41  1  0.43358100  0.26996500  0.51226000  1
  O  O42  1  0.93799200  0.20078200  0.46337300  1
  O  O43  1  0.19396600  0.15093400  0.69715700  1
  O  O44  1  0.71598300  0.17433900  0.58391900  1
  O  O45  1  0.47379900  0.12852200  0.78006600  1
  O  O46  1  0.06110300  0.06714000  0.88807600  1
  O  O47  1  0.93538200  0.13056300  0.69454200  1
  O  O48  1  0.71779100  0.01866100  0.92955900  1
  O  O49  1  0.35203700  0.20776200  0.00903600  1
  O  O50  1  0.17477700  0.19539300  0.17747000  1
  O  O51  1  0.40589900  0.09093200  0.22648200  1
  O  O52  1  0.65182900  0.12318500  0.15536800  1
  O  O53  1  0.92261400  0.08566300  0.26918200  1
  O  O54  1  0.16741400  0.01330600  0.44610800  1
  O  O55  1  0.58204500  0.02019200  0.37876400  1
loop_
_geom_bond_atom_site_label_1
_geom_bond_atom_site_label_2
_geom_bond_distance
_geom_bond_site_symmetry_2
Li0 O0 1.897340 1_555
Li0 O55 1.995398 1_565
Li0 O14 2.006391 1_555
Li0 O11 2.177106 1_555
Li1 O7 1.831778 1_555
Li1 O21 1.929735 1_555
Li1 O46 1.950813 1_564
Li1 O9 1.970656 1_455
Li2 O20 1.888172 1_555
Li2 O19 1.938494 1_555
Li2 O36 1.945508 1_556
Li2 O6 2.002186 1_556
Li3 O29 1.824459 1_555
Li3 O16 1.937670 1_555
Li3 O13 1.986591 1_655
Li3 O12 2.569895 1_555
Li4 O26 1.885634 1_555
Li4 O15 1.972869 1_555
Li4 O27 2.003022 1_555
Li4 O13 2.108030 1_555
Li4 O11 2.521821 1_555
Li5 O48 1.962668 1_555
Li5 O33 1.993167 1_555
Li5 O45 2.278832 1_555
Li5 O52 2.330089 1_556
Li5 O49 2.369910 1_556
Li6 O35 1.859503 1_555
Li6 O50 2.055038 1_555
Li6 O30 2.056839 1_554
Li6 O38 2.476173 1_455
Li7 O48 1.906256 1_555
Li7 O46 1.945811 1_655
Li7 O9 1.958039 1_546
Li7 O34 2.045416 1_556
Li8 O55 1.894541 1_555
Li8 O44 1.919230 1_555
Li8 O41 2.024299 1_555
Li8 O40 2.064612 1_555
Li9 O43 1.948266 1_555
Li9 O0 1.979200 1_545
Li9 O54 2.019583 1_555
Li9 O41 2.133156 1_555
Li9 O39 2.323726 1_555
Mn0 O1 1.934645 1_555
Mn0 O17 2.032938 1_655
Mn0 O5 2.064244 1_555
Mn0 O2 2.081983 1_655
Mn0 O16 2.135077 1_555
Mn0 O13 2.420893 1_655
Mn1 O21 2.059802 1_556
Mn1 O3 2.062159 1_555
Mn1 O15 2.131184 1_555
Mn1 O17 2.296765 1_555
Mn1 O2 2.309373 1_555
Mn1 O19 2.443324 1_555
Mn2 O25 1.914999 1_555
Mn2 O6 1.983644 1_555
Mn2 O12 1.995629 1_555
Mn2 O10 2.003734 1_555
Mn2 O24 2.378665 1_555
Mn2 O9 2.718795 1_555
Mn3 O22 1.917223 1_555
Mn3 O24 2.016937 1_555
Mn3 O11 2.018945 1_555
Mn3 O14 2.059139 1_555
Mn3 O27 2.110927 1_555
Mn3 O10 2.454635 1_555
Mn4 O28 1.991689 1_555
Mn4 O45 2.109197 1_555
Mn4 O33 2.128339 1_555
Mn4 O44 2.144251 1_555
Mn4 O31 2.189860 1_555
Mn4 O41 2.345374 1_555
Mn5 O49 2.098110 1_556
Mn5 O30 2.135159 1_555
Mn5 O43 2.146827 1_555
Mn5 O31 2.174305 1_555
Mn5 O45 2.341171 1_555
Mn6 O34 1.978691 1_555
Mn6 O40 2.001604 1_555
Mn6 O52 2.017983 1_555
Mn6 O38 2.026777 1_555
Mn6 O36 2.299377 1_555
Mn6 O53 2.513141 1_555
Mn7 O39 1.964322 1_555
Mn7 O42 1.984083 1_455
Mn7 O53 1.987345 1_455
Mn7 O50 2.009740 1_555
Mn7 O54 2.152843 1_555
Mn7 O38 2.543599 1_455
O0 P0 1.513576 1_555
O1 P12 1.548867 1_565
O2 P13 1.561016 1_565
O3 P0 1.525203 1_555
O4 P0 1.600767 1_555
O4 P1 1.620194 1_555
O5 P1 1.510864 1_555
O6 P1 1.570150 1_554
O7 P14 1.482793 1_565
O8 P2 1.599761 1_455
O8 P3 1.614737 1_555
O9 P2 1.508803 1_555
O10 P15 1.567803 1_565
O11 P3 1.548296 1_555
O12 P2 1.553005 1_555
O13 P3 1.529429 1_555
O14 P4 1.555120 1_555
O15 P5 1.548493 1_555
O16 P4 1.531381 1_555
O17 P6 1.591266 1_555
O18 P4 1.607540 1_555
O18 P5 1.617024 1_555
O19 P5 1.508544 1_555
O20 P8 1.483712 1_555
O21 P7 1.551639 1_555
O22 P7 1.554758 1_555
O23 P9 1.600649 1_455
O23 P7 1.627332 1_555
O24 P10 1.555140 1_555
O25 P9 1.553008 1_555
O26 P6 1.493898 1_555
O27 P11 1.526501 1_555
O28 P4 1.526008 1_555
O29 P9 1.485207 1_555
O30 P6 1.542867 1_555
O31 P5 1.554274 1_555
O32 P8 1.608627 1_555
O32 P6 1.610392 1_655
O33 P8 1.532414 1_555
O34 P8 1.605451 1_554
O35 P7 1.485976 1_555
O36 P10 1.509299 1_555
O37 P10 1.591243 1_555
O37 P11 1.627801 1_555
O38 P9 1.591178 1_555
O39 P11 1.523947 1_555
O40 P10 1.569271 1_555
O41 P11 1.537282 1_555
O42 P12 1.533658 1_555
O43 P13 1.531892 1_555
O44 P12 1.529634 1_555
O45 P0 1.580836 1_545
O46 P13 1.514307 1_555
O47 P12 1.602179 1_555
O47 P13 1.614122 1_655
O48 P1 1.512324 1_545
O49 P14 1.542706 1_555
O50 P14 1.577430 1_555
O51 P15 1.599406 1_555
O51 P14 1.624779 1_555
O52 P15 1.552450 1_555
O53 P2 1.561374 1_545
O54 P3 1.523682 1_545
O55 P15 1.507151 1_555
