# generated using pymatgen
data_BaNb2V2O11
_symmetry_space_group_name_H-M   'P 1'
_cell_length_a   10.17590121
_cell_length_b   10.17590121
_cell_length_c   10.17590070
_cell_angle_alpha   32.27713541
_cell_angle_beta   32.27713541
_cell_angle_gamma   32.27713584
_symmetry_Int_Tables_number   1
_chemical_formula_structural   BaNb2V2O11
_chemical_formula_sum   'Ba1 Nb2 V2 O11'
_cell_volume   267.09771894
_cell_formula_units_Z   1
loop_
 _symmetry_equiv_pos_site_id
 _symmetry_equiv_pos_as_xyz
  1  'x, y, z'
loop_
 _atom_site_type_symbol
 _atom_site_label
 _atom_site_symmetry_multiplicity
 _atom_site_fract_x
 _atom_site_fract_y
 _atom_site_fract_z
 _atom_site_occupancy
  Ba  Ba0  1  0.00000000  0.00000000  0.00000000  1
  Nb  Nb0  1  0.86887900  0.86887900  0.86887900  1
  Nb  Nb1  1  0.13112100  0.13112100  0.13112100  1
  V  V0  1  0.59999800  0.59999800  0.59999800  1
  V  V1  1  0.40000200  0.40000200  0.40000200  1
  O  O0  1  0.50000000  0.00000000  0.00000000  1
  O  O1  1  0.00000000  0.50000000  0.00000000  1
  O  O2  1  0.00000000  0.00000000  0.50000000  1
  O  O3  1  0.75475300  0.75475300  0.23770600  1
  O  O4  1  0.23770600  0.75475300  0.75475300  1
  O  O5  1  0.75475300  0.23770600  0.75475300  1
  O  O6  1  0.24524700  0.24524700  0.76229400  1
  O  O7  1  0.76229400  0.24524700  0.24524700  1
  O  O8  1  0.24524700  0.76229400  0.24524700  1
  O  O9  1  0.65810200  0.65810200  0.65810200  1
  O  O10  1  0.34189800  0.34189800  0.34189800  1
loop_
_geom_bond_atom_site_label_1
_geom_bond_atom_site_label_2
_geom_bond_distance
_geom_bond_site_symmetry_2
Ba0 O7 2.902305 1_455
Ba0 O8 2.902305 1_545
Ba0 O5 2.902305 1_454
Ba0 O4 2.902305 1_544
Ba0 O6 2.902306 1_554
Ba0 O3 2.902306 1_445
Ba0 O9 3.275452 1_445
Ba0 O10 3.275452 1_554
Ba0 O10 3.275452 1_455
Ba0 O9 3.275452 1_544
Ba0 O9 3.275452 1_454
Ba0 O10 3.275452 1_545
Nb0 O2 1.929512 1_665
Nb0 O0 1.929512 1_566
Nb0 O1 1.929512 1_656
Nb0 O3 2.079312 1_556
Nb0 O5 2.079312 1_565
Nb0 O4 2.079312 1_655
Nb1 O2 1.929512 1_555
Nb1 O1 1.929512 1_555
Nb1 O0 1.929512 1_555
Nb1 O6 2.079312 1_554
Nb1 O7 2.079312 1_455
Nb1 O8 2.079312 1_545
O3 V0 1.763668 1_555
O4 V0 1.763668 1_555
O5 V0 1.763668 1_555
O6 V1 1.763668 1_555
O7 V1 1.763668 1_555
O8 V1 1.763668 1_555
O9 V0 1.679934 1_555
O10 V1 1.679934 1_555
