# generated using pymatgen
data_Ge4Rh
_symmetry_space_group_name_H-M   'P 1'
_cell_length_a   6.21583847
_cell_length_b   6.21591910
_cell_length_c   7.82503694
_cell_angle_alpha   89.99876093
_cell_angle_beta   90.00146918
_cell_angle_gamma   120.00643527
_symmetry_Int_Tables_number   1
_chemical_formula_structural   Ge4Rh
_chemical_formula_sum   'Ge12 Rh3'
_cell_volume   261.81464462
_cell_formula_units_Z   3
loop_
 _symmetry_equiv_pos_site_id
 _symmetry_equiv_pos_as_xyz
  1  'x, y, z'
loop_
 _atom_site_type_symbol
 _atom_site_label
 _atom_site_symmetry_multiplicity
 _atom_site_fract_x
 _atom_site_fract_y
 _atom_site_fract_z
 _atom_site_occupancy
  Ge  Ge0  1  0.07038194  0.99997956  0.33333017  1
  Ge  Ge1  1  0.92958606  0.92958740  -0.00000073  1
  Ge  Ge2  1  -0.00002244  0.07037783  0.66666999  1
  Ge  Ge3  1  0.61322799  0.00000138  0.33342359  1
  Ge  Ge4  1  0.38680463  0.38680214  0.99999586  1
  Ge  Ge5  1  0.00000427  0.61323719  0.66658040  1
  Ge  Ge6  1  0.26062671  0.77787646  0.11498658  1
  Ge  Ge7  1  0.51720394  0.73941208  0.78161425  1
  Ge  Ge8  1  0.22215148  0.48273549  0.44830536  1
  Ge  Ge9  1  0.73941430  0.51720456  0.21837980  1
  Ge  Ge10  1  0.77788429  0.26063018  0.88501208  1
  Ge  Ge11  1  0.48274115  0.22215952  0.55170077  1
  Rh  Rh0  1  0.31772622  0.00000444  0.83332574  1
  Rh  Rh1  1  0.68226554  0.68226525  0.50000306  1
  Rh  Rh2  1  0.00000591  0.31772553  0.16667307  1
loop_
_geom_bond_atom_site_label_1
_geom_bond_atom_site_label_2
_geom_bond_distance
_geom_bond_site_symmetry_2
Ge0 Rh1 2.579912 1_455
Ge0 Rh2 2.580117 1_565
Ge1 Rh0 2.580160 1_664
Ge1 Rh2 2.580168 1_665
Ge2 Rh1 2.579872 1_445
Ge2 Rh0 2.580095 1_555
Ge3 Ge6 2.569980 1_545
Ge3 Rh1 2.575171 1_545
Ge3 Rh2 2.575653 1_655
Ge4 Ge9 2.569827 1_556
Ge4 Ge7 2.569847 1_555
Ge4 Rh0 2.575563 1_555
Ge4 Rh2 2.575577 1_556
Ge5 Ge8 2.569539 1_555
Ge5 Rh1 2.575122 1_455
Ge5 Rh0 2.575592 1_565
Ge6 Rh2 2.516848 1_555
Ge6 Rh0 2.529781 1_564
Ge7 Rh0 2.516716 1_565
Ge7 Rh1 2.529715 1_555
Ge8 Rh1 2.516664 1_555
Ge8 Rh2 2.529573 1_555
Ge9 Rh2 2.516707 1_655
Ge9 Rh1 2.529801 1_555
Ge10 Rh0 2.516854 1_555
Ge10 Rh2 2.529751 1_656
Ge10 Ge5 2.569994 1_655
Ge11 Rh1 2.516658 1_555
Ge11 Rh0 2.529560 1_555
Ge11 Ge3 2.569548 1_555
