# generated using pymatgen
data_Li2CuSn2
_symmetry_space_group_name_H-M   'P 1'
_cell_length_a   10.15988853
_cell_length_b   10.15988853
_cell_length_c   10.15988853
_cell_angle_alpha   154.95104501
_cell_angle_beta   154.95104501
_cell_angle_gamma   35.71873031
_symmetry_Int_Tables_number   1
_chemical_formula_structural   Li2CuSn2
_chemical_formula_sum   'Li4 Cu2 Sn4'
_cell_volume   187.76890502
_cell_formula_units_Z   2
loop_
 _symmetry_equiv_pos_site_id
 _symmetry_equiv_pos_as_xyz
  1  'x, y, z'
loop_
 _atom_site_type_symbol
 _atom_site_label
 _atom_site_symmetry_multiplicity
 _atom_site_fract_x
 _atom_site_fract_y
 _atom_site_fract_z
 _atom_site_occupancy
  Li  Li0  1  0.82610201  0.82610201  0.00000000  1
  Li  Li1  1  0.57610201  0.07610201  0.50000000  1
  Li  Li2  1  0.92389799  0.42389799  0.50000000  1
  Li  Li3  1  0.17389799  0.17389799  -0.00000000  1
  Cu  Cu0  1  0.75000000  0.25000000  0.50000000  1
  Cu  Cu1  1  0.00000000  0.00000000  -0.00000000  1
  Sn  Sn0  1  0.32336432  0.32336432  0.00000000  1
  Sn  Sn1  1  0.07336432  0.57336432  0.50000000  1
  Sn  Sn2  1  0.42663568  0.92663568  0.50000000  1
  Sn  Sn3  1  0.67663568  0.67663568  -0.00000000  1
loop_
_geom_bond_atom_site_label_1
_geom_bond_atom_site_label_2
_geom_bond_distance
_geom_bond_site_symmetry_2
Li0 Sn3 2.890770 1_555
Li0 Li2 2.903754 1_565
Li0 Li2 2.903754 1_554
Li0 Sn2 2.938518 1_655
Li0 Sn2 2.938518 1_554
Li0 Sn0 3.116301 1_554
Li0 Sn0 3.116301 1_565
Li0 Sn0 3.116301 1_666
Li0 Sn0 3.116301 1_655
Li1 Sn2 2.890770 1_545
Li1 Li3 2.903754 1_656
Li1 Li3 2.903754 1_555
Li1 Sn3 2.938518 1_556
Li1 Sn3 2.938518 1_545
Li1 Sn1 3.116301 1_656
Li1 Sn1 3.116301 1_544
Li1 Sn1 3.116301 1_555
Li1 Sn1 3.116301 1_645
Li2 Sn1 2.890770 1_655
Li2 Sn0 2.938518 1_656
Li2 Sn0 2.938518 1_555
Li2 Sn2 3.116301 1_645
Li2 Sn2 3.116301 1_544
Li2 Sn2 3.116301 1_555
Li2 Sn2 3.116301 1_656
Li3 Sn0 2.890770 1_555
Li3 Sn1 2.938518 1_544
Li3 Sn1 2.938518 1_555
Li3 Sn3 3.116301 1_455
Li3 Sn3 3.116301 1_556
Li3 Sn3 3.116301 1_545
Li3 Sn3 3.116301 1_444
Cu0 Sn0 2.620605 1_555
Cu0 Sn0 2.620605 1_656
Cu0 Sn3 2.620605 1_545
Cu0 Sn3 2.620605 1_556
Cu0 Li0 2.649648 1_545
Cu0 Li0 2.649648 1_556
Cu0 Li3 2.649648 1_555
Cu0 Li3 2.649648 1_656
Cu1 Sn2 2.620605 1_545
Cu1 Sn2 2.620605 1_444
Cu1 Sn1 2.620605 1_544
Cu1 Sn1 2.620605 1_555
Cu1 Li2 2.649648 1_455
Cu1 Li2 2.649648 1_444
Cu1 Li1 2.649648 1_555
Cu1 Li1 2.649648 1_454
Sn0 Sn2 2.973819 1_555
Sn0 Sn2 2.973819 1_544
Sn1 Sn3 2.973819 1_556
Sn1 Sn3 2.973819 1_455
