# generated using pymatgen
data_CrN2
_symmetry_space_group_name_H-M   'P 1'
_cell_length_a   17.57440781
_cell_length_b   17.57440781
_cell_length_c   7.99098282
_cell_angle_alpha   89.58473528
_cell_angle_beta   89.58473528
_cell_angle_gamma   145.37090124
_symmetry_Int_Tables_number   1
_chemical_formula_structural   CrN2
_chemical_formula_sum   'Cr22 N44'
_cell_volume   1402.10707907
_cell_formula_units_Z   22
loop_
 _symmetry_equiv_pos_site_id
 _symmetry_equiv_pos_as_xyz
  1  'x, y, z'
loop_
 _atom_site_type_symbol
 _atom_site_label
 _atom_site_symmetry_multiplicity
 _atom_site_fract_x
 _atom_site_fract_y
 _atom_site_fract_z
 _atom_site_occupancy
  Cr  Cr0  1  0.91767400  0.08232600  0.00000000  1
  Cr  Cr1  1  0.08232600  0.91767400  0.00000000  1
  Cr  Cr2  1  0.04131600  0.34676200  0.16465400  1
  Cr  Cr3  1  0.34676200  0.04131600  0.16465400  1
  Cr  Cr4  1  0.95868400  0.65323800  0.83534600  1
  Cr  Cr5  1  0.65323800  0.95868400  0.83534600  1
  Cr  Cr6  1  0.76428000  0.22180600  0.28586700  1
  Cr  Cr7  1  0.22180600  0.76428000  0.28586700  1
  Cr  Cr8  1  0.23572000  0.77819400  0.71413300  1
  Cr  Cr9  1  0.77819400  0.23572000  0.71413300  1
  Cr  Cr10  1  0.82660600  0.92486200  0.36774600  1
  Cr  Cr11  1  0.92486200  0.82660600  0.36774600  1
  Cr  Cr12  1  0.17339400  0.07513800  0.63225400  1
  Cr  Cr13  1  0.07513800  0.17339400  0.63225400  1
  Cr  Cr14  1  0.49957900  0.89534000  0.18411900  1
  Cr  Cr15  1  0.89534000  0.49957900  0.18411900  1
  Cr  Cr16  1  0.50042100  0.10466000  0.81588100  1
  Cr  Cr17  1  0.10466000  0.50042100  0.81588100  1
  Cr  Cr18  1  0.53802900  0.78253300  0.47578800  1
  Cr  Cr19  1  0.78253300  0.53802900  0.47578800  1
  Cr  Cr20  1  0.46197100  0.21746700  0.52421200  1
  Cr  Cr21  1  0.21746700  0.46197100  0.52421200  1
  N  N0  1  0.87391200  0.98450400  0.16393000  1
  N  N1  1  0.98450400  0.87391200  0.16393000  1
  N  N2  1  0.12608800  0.01549600  0.83607000  1
  N  N3  1  0.01549600  0.12608800  0.83607000  1
  N  N4  1  0.38950800  0.61049200  0.50000000  1
  N  N5  1  0.61049200  0.38950800  0.50000000  1
  N  N6  1  0.76568400  0.23431600  0.50000000  1
  N  N7  1  0.23431600  0.76568400  0.50000000  1
  N  N8  1  0.93997900  0.06002100  0.50000000  1
  N  N9  1  0.06002100  0.93997900  0.50000000  1
  N  N10  1  0.11344900  0.46452500  0.01024100  1
  N  N11  1  0.46452500  0.11344900  0.01024100  1
  N  N12  1  0.88655100  0.53547500  0.98975900  1
  N  N13  1  0.53547500  0.88655100  0.98975900  1
  N  N14  1  0.66784500  0.83223200  0.40709600  1
  N  N15  1  0.83223200  0.66784500  0.40709600  1
  N  N16  1  0.33215500  0.16776800  0.59290400  1
  N  N17  1  0.16776800  0.33215500  0.59290400  1
  N  N18  1  0.79615700  0.33513000  0.19904600  1
  N  N19  1  0.33513000  0.79615700  0.19904600  1
  N  N20  1  0.20384300  0.66487000  0.80095400  1
  N  N21  1  0.66487000  0.20384300  0.80095400  1
  N  N22  1  0.00710100  0.23001200  0.08033900  1
  N  N23  1  0.23001200  0.00710100  0.08033900  1
  N  N24  1  0.99289900  0.76998800  0.91966100  1
  N  N25  1  0.76998800  0.99289900  0.91966100  1
  N  N26  1  0.57933800  0.85665600  0.66543200  1
  N  N27  1  0.85665600  0.57933800  0.66543200  1
  N  N28  1  0.42066200  0.14334400  0.33456800  1
  N  N29  1  0.14334400  0.42066200  0.33456800  1
  N  N30  1  0.89432100  0.26797100  0.22918500  1
  N  N31  1  0.26797100  0.89432100  0.22918500  1
  N  N32  1  0.10567900  0.73202900  0.77081500  1
  N  N33  1  0.73202900  0.10567900  0.77081500  1
  N  N34  1  0.83124900  0.83124900  0.39956800  1
  N  N35  1  0.16875100  0.16875100  0.60043200  1
  N  N36  1  0.60940100  0.05731400  0.22569300  1
  N  N37  1  0.05731400  0.60940100  0.22569300  1
  N  N38  1  0.39059900  0.94268600  0.77430700  1
  N  N39  1  0.94268600  0.39059900  0.77430700  1
  N  N40  1  0.51445100  0.83514200  0.33027300  1
  N  N41  1  0.83514200  0.51445100  0.33027300  1
  N  N42  1  0.48554900  0.16485800  0.66972700  1
  N  N43  1  0.16485800  0.48554900  0.66972700  1
loop_
_geom_bond_atom_site_label_1
_geom_bond_atom_site_label_2
_geom_bond_distance
_geom_bond_site_symmetry_2
Cr0 N22 1.715952 1_655
Cr0 N25 1.715952 1_544
Cr0 N3 1.743516 1_654
Cr0 N0 1.743516 1_545
Cr1 N23 1.715952 1_565
Cr1 N24 1.715952 1_454
Cr1 N2 1.743516 1_564
Cr1 N1 1.743516 1_455
Cr2 N30 1.714762 1_455
Cr2 N29 1.724492 1_555
Cr2 N22 1.738090 1_555
Cr2 N10 1.742266 1_555
Cr3 N31 1.714762 1_545
Cr3 N28 1.724492 1_555
Cr3 N23 1.738090 1_555
Cr3 N11 1.742266 1_555
Cr4 N32 1.714762 1_655
Cr4 N27 1.724492 1_555
Cr4 N24 1.738090 1_555
Cr4 N12 1.742266 1_555
Cr5 N33 1.714762 1_565
Cr5 N26 1.724492 1_555
Cr5 N25 1.738090 1_555
Cr5 N13 1.742266 1_555
Cr6 N18 1.702892 1_555
Cr6 N6 1.724546 1_555
Cr6 N30 1.736278 1_555
Cr6 N36 1.756919 1_555
Cr7 N19 1.702892 1_555
Cr7 N7 1.724546 1_555
Cr7 N31 1.736278 1_555
Cr7 N37 1.756919 1_555
Cr8 N20 1.702892 1_555
Cr8 N7 1.724546 1_555
Cr8 N32 1.736278 1_555
Cr8 N38 1.756919 1_555
Cr9 N21 1.702892 1_555
Cr9 N6 1.724546 1_555
Cr9 N33 1.736278 1_555
Cr9 N39 1.756919 1_555
Cr10 N0 1.721630 1_555
Cr10 N34 1.730070 1_555
Cr10 N8 1.734145 1_565
Cr10 N14 1.743205 1_555
Cr11 N1 1.721630 1_555
Cr11 N34 1.730070 1_555
Cr11 N9 1.734145 1_655
Cr11 N15 1.743205 1_555
Cr12 N2 1.721630 1_555
Cr12 N35 1.730070 1_555
Cr12 N9 1.734145 1_545
Cr12 N16 1.743205 1_555
Cr13 N3 1.721630 1_555
Cr13 N35 1.730070 1_555
Cr13 N8 1.734145 1_455
Cr13 N17 1.743205 1_555
Cr14 N36 1.708800 1_565
Cr14 N13 1.727331 1_554
Cr14 N40 1.730072 1_555
Cr14 N19 1.762589 1_555
Cr15 N37 1.708800 1_655
Cr15 N12 1.727331 1_554
Cr15 N41 1.730072 1_555
Cr15 N18 1.762589 1_555
Cr16 N38 1.708800 1_545
Cr16 N11 1.727331 1_556
Cr16 N42 1.730072 1_555
Cr16 N21 1.762589 1_555
Cr17 N39 1.708800 1_455
Cr17 N10 1.727331 1_556
Cr17 N43 1.730072 1_555
Cr17 N20 1.762589 1_555
Cr18 N14 1.721833 1_555
Cr18 N4 1.728764 1_555
Cr18 N40 1.732209 1_555
Cr18 N26 1.734579 1_555
Cr19 N15 1.721833 1_555
Cr19 N5 1.728764 1_555
Cr19 N41 1.732209 1_555
Cr19 N27 1.734579 1_555
Cr20 N16 1.721833 1_555
Cr20 N5 1.728764 1_555
Cr20 N42 1.732209 1_555
Cr20 N28 1.734579 1_555
Cr21 N17 1.721833 1_555
Cr21 N4 1.728764 1_555
Cr21 N43 1.732209 1_555
Cr21 N29 1.734579 1_555
