# generated using pymatgen
data_Sr2Al
_symmetry_space_group_name_H-M   'P 1'
_cell_length_a   8.85308755
_cell_length_b   8.85308755
_cell_length_c   7.51515464
_cell_angle_alpha   65.94299723
_cell_angle_beta   65.94299723
_cell_angle_gamma   66.81723867
_symmetry_Int_Tables_number   1
_chemical_formula_structural   Sr2Al
_chemical_formula_sum   'Sr8 Al4'
_cell_volume   472.50453144
_cell_formula_units_Z   4
loop_
 _symmetry_equiv_pos_site_id
 _symmetry_equiv_pos_as_xyz
  1  'x, y, z'
loop_
 _atom_site_type_symbol
 _atom_site_label
 _atom_site_symmetry_multiplicity
 _atom_site_fract_x
 _atom_site_fract_y
 _atom_site_fract_z
 _atom_site_occupancy
  Sr  Sr0  1  0.75741800  0.05816700  0.10644400  1
  Sr  Sr1  1  0.94183300  0.24258200  0.39355600  1
  Sr  Sr2  1  0.24258200  0.94183300  0.89355600  1
  Sr  Sr3  1  0.05816700  0.75741800  0.60644400  1
  Sr  Sr4  1  0.67231200  0.65736000  0.58409700  1
  Sr  Sr5  1  0.34264000  0.32768800  0.91590300  1
  Sr  Sr6  1  0.32768800  0.34264000  0.41590300  1
  Sr  Sr7  1  0.65736000  0.67231200  0.08409700  1
  Al  Al0  1  0.63026600  0.03147500  0.65321400  1
  Al  Al1  1  0.96852500  0.36973400  0.84678600  1
  Al  Al2  1  0.36973400  0.96852500  0.34678600  1
  Al  Al3  1  0.03147500  0.63026600  0.15321400  1
loop_
_geom_bond_atom_site_label_1
_geom_bond_atom_site_label_2
_geom_bond_distance
_geom_bond_site_symmetry_2
Al0 Sr2 3.404980 1_545
Al0 Sr1 3.406807 1_555
Al0 Sr4 3.413572 1_545
Al0 Sr6 3.467645 1_555
Al0 Sr5 3.481831 1_555
Al0 Sr7 3.505981 1_546
Al0 Sr3 3.568501 1_645
Al0 Sr0 3.722102 1_555
Al1 Sr3 3.404980 1_655
Al1 Sr0 3.406807 1_556
Al1 Sr5 3.413572 1_655
Al1 Sr7 3.467645 1_556
Al1 Sr4 3.481831 1_555
Al1 Sr6 3.505981 1_655
Al1 Sr2 3.568501 1_645
Al1 Sr1 3.722102 1_556
Al2 Sr0 3.404980 1_565
Al2 Sr3 3.406807 1_555
Al2 Sr6 3.413572 1_565
Al2 Sr4 3.467645 1_555
Al2 Sr7 3.481831 1_555
Al2 Sr5 3.505981 1_564
Al2 Sr1 3.568501 1_465
Al2 Sr2 3.722102 1_555
Al3 Sr1 3.404980 1_455
Al3 Sr2 3.406807 1_554
Al3 Sr7 3.413572 1_455
Al3 Sr5 3.467645 1_554
Al3 Sr6 3.481831 1_555
Al3 Sr4 3.505981 1_455
Al3 Sr0 3.568501 1_465
Al3 Sr3 3.722102 1_554
