# generated using pymatgen
data_MgNi(GeO3)2
_symmetry_space_group_name_H-M   'P 1'
_cell_length_a   8.98574600
_cell_length_b   5.41247500
_cell_length_c   9.80003423
_cell_angle_alpha   76.68543889
_cell_angle_beta   90.00000000
_cell_angle_gamma   90.00000000
_symmetry_Int_Tables_number   1
_chemical_formula_structural   MgNi(GeO3)2
_chemical_formula_sum   'Mg4 Ni4 Ge8 O24'
_cell_volume   463.81437088
_cell_formula_units_Z   4
loop_
 _symmetry_equiv_pos_site_id
 _symmetry_equiv_pos_as_xyz
  1  'x, y, z'
loop_
 _atom_site_type_symbol
 _atom_site_label
 _atom_site_symmetry_multiplicity
 _atom_site_fract_x
 _atom_site_fract_y
 _atom_site_fract_z
 _atom_site_occupancy
  Mg  Mg0  1  0.49020500  0.55923700  0.24552800  1
  Mg  Mg1  1  0.99020500  0.94076300  0.75447200  1
  Mg  Mg2  1  0.50979500  0.44076300  0.75447200  1
  Mg  Mg3  1  0.00979500  0.05923700  0.24552800  1
  Ni  Ni0  1  0.65691800  0.04902500  0.24474900  1
  Ni  Ni1  1  0.15691800  0.45097500  0.75525100  1
  Ni  Ni2  1  0.34308200  0.95097500  0.75525100  1
  Ni  Ni3  1  0.84308200  0.54902500  0.24474900  1
  Ge  Ge0  1  0.33992300  0.17296700  0.05570600  1
  Ge  Ge1  1  0.83992300  0.32703300  0.94429400  1
  Ge  Ge2  1  0.66007700  0.82703300  0.94429400  1
  Ge  Ge3  1  0.16007700  0.67296700  0.05570600  1
  Ge  Ge4  1  0.34471200  0.76858700  0.46015300  1
  Ge  Ge5  1  0.84471200  0.73141300  0.53984700  1
  Ge  Ge6  1  0.65528800  0.23141300  0.53984700  1
  Ge  Ge7  1  0.15528800  0.26858700  0.46015300  1
  O  O0  1  0.28959700  0.50356900  0.38648300  1
  O  O1  1  0.78959700  0.99643100  0.61351700  1
  O  O2  1  0.71040300  0.49643100  0.61351700  1
  O  O3  1  0.21040300  0.00356900  0.38648300  1
  O  O4  1  0.32254800  0.82840500  0.11116000  1
  O  O5  1  0.82254800  0.67159500  0.88884000  1
  O  O6  1  0.67745200  0.17159500  0.88884000  1
  O  O7  1  0.17745200  0.32840500  0.11116000  1
  O  O8  1  0.98470100  0.31278800  0.37607000  1
  O  O9  1  0.48470100  0.18721200  0.62393000  1
  O  O10  1  0.01529900  0.68721200  0.62393000  1
  O  O11  1  0.51529900  0.81278800  0.37607000  1
  O  O12  1  0.01217100  0.77646300  0.13969400  1
  O  O13  1  0.51217100  0.72353700  0.86030600  1
  O  O14  1  0.98782900  0.22353700  0.86030600  1
  O  O15  1  0.48782900  0.27646300  0.13969400  1
  O  O16  1  0.33793800  0.23749300  0.86985600  1
  O  O17  1  0.83793800  0.26250700  0.13014400  1
  O  O18  1  0.66206200  0.76250700  0.13014400  1
  O  O19  1  0.16206200  0.73749300  0.86985600  1
  O  O20  1  0.34056800  0.67272500  0.64380600  1
  O  O21  1  0.84056800  0.82727500  0.35619400  1
  O  O22  1  0.65943200  0.32727500  0.35619400  1
  O  O23  1  0.15943200  0.17272500  0.64380600  1
loop_
_geom_bond_atom_site_label_1
_geom_bond_atom_site_label_2
_geom_bond_distance
_geom_bond_site_symmetry_2
Mg0 O15 2.037104 1_555
Mg0 O18 2.073837 1_555
Mg0 O11 2.092714 1_555
Mg0 O22 2.106567 1_555
Mg0 O0 2.248701 1_555
Mg0 O4 2.289639 1_555
Mg1 O14 2.037104 1_565
Mg1 O19 2.073837 1_655
Mg1 O10 2.092714 1_655
Mg1 O23 2.106567 1_665
Mg1 O1 2.248701 1_555
Mg1 O5 2.289639 1_555
Mg2 O13 2.037104 1_555
Mg2 O16 2.073837 1_555
Mg2 O9 2.092714 1_555
Mg2 O20 2.106567 1_555
Mg2 O2 2.248701 1_555
Mg2 O6 2.289639 1_555
Mg3 O12 2.037104 1_545
Mg3 O17 2.073837 1_455
Mg3 O8 2.092714 1_455
Mg3 O21 2.106567 1_445
Mg3 O3 2.248701 1_555
Mg3 O7 2.289639 1_555
Ni0 O11 2.037792 1_545
Ni0 O22 2.054028 1_555
Ni0 O15 2.073676 1_555
Ni0 O18 2.114399 1_545
Ni0 O17 2.155139 1_555
Ni0 O21 2.180103 1_545
Ni1 O10 2.037792 1_555
Ni1 O23 2.054028 1_555
Ni1 O14 2.073676 1_455
Ni1 O19 2.114399 1_555
Ni1 O16 2.155139 1_555
Ni1 O20 2.180103 1_555
Ni2 O9 2.037792 1_565
Ni2 O20 2.054028 1_555
Ni2 O13 2.073676 1_555
Ni2 O16 2.114399 1_565
Ni2 O19 2.155139 1_555
Ni2 O23 2.180103 1_565
Ni3 O8 2.037792 1_555
Ni3 O21 2.054028 1_555
Ni3 O12 2.073676 1_655
Ni3 O17 2.114399 1_555
Ni3 O18 2.155139 1_555
Ni3 O22 2.180103 1_555
Ge0 O15 1.723365 1_555
Ge0 O16 1.773859 1_554
Ge0 O4 1.825069 1_545
Ge0 O7 1.828960 1_555
Ge1 O14 1.723365 1_555
Ge1 O17 1.773859 1_556
Ge1 O5 1.825069 1_555
Ge1 O6 1.828960 1_555
Ge2 O13 1.723365 1_555
Ge2 O18 1.773859 1_556
Ge2 O6 1.825069 1_565
Ge2 O5 1.828960 1_555
Ge3 O12 1.723365 1_555
Ge3 O19 1.773859 1_554
Ge3 O7 1.825069 1_555
Ge3 O4 1.828960 1_555
Ge4 O11 1.730627 1_555
Ge4 O20 1.754929 1_555
Ge4 O3 1.781123 1_565
Ge4 O0 1.816869 1_555
Ge5 O10 1.730627 1_655
Ge5 O21 1.754929 1_555
Ge5 O2 1.781123 1_555
Ge5 O1 1.816869 1_555
Ge6 O9 1.730627 1_555
Ge6 O22 1.754929 1_555
Ge6 O1 1.781123 1_545
Ge6 O2 1.816869 1_555
Ge7 O8 1.730627 1_455
Ge7 O23 1.754929 1_555
Ge7 O0 1.781123 1_555
Ge7 O3 1.816869 1_555
