# generated using pymatgen
data_Nd4Ga17Ni2
_symmetry_space_group_name_H-M   'P 1'
_cell_length_a   24.07949664
_cell_length_b   24.07949664
_cell_length_c   24.07949664
_cell_angle_alpha   169.76936401
_cell_angle_beta   169.62252069
_cell_angle_gamma   14.59227895
_symmetry_Int_Tables_number   1
_chemical_formula_structural   Nd4Ga17Ni2
_chemical_formula_sum   'Nd4 Ga17 Ni2'
_cell_volume   446.67307876
_cell_formula_units_Z   1
loop_
 _symmetry_equiv_pos_site_id
 _symmetry_equiv_pos_as_xyz
  1  'x, y, z'
loop_
 _atom_site_type_symbol
 _atom_site_label
 _atom_site_symmetry_multiplicity
 _atom_site_fract_x
 _atom_site_fract_y
 _atom_site_fract_z
 _atom_site_occupancy
  Nd  Nd0  1  0.30573500  0.30573500  0.00000000  1
  Nd  Nd1  1  0.69422700  0.69422700  0.00000000  1
  Nd  Nd2  1  0.07785600  0.07785600  0.00000000  1
  Nd  Nd3  1  0.92138200  0.92138200  0.00000000  1
  Ga  Ga0  1  0.39081500  0.39081500  0.00000000  1
  Ga  Ga1  1  0.60759000  0.60759000  0.00000000  1
  Ga  Ga2  1  0.44183000  0.44183000  0.00000000  1
  Ga  Ga3  1  0.55462300  0.55462300  0.00000000  1
  Ga  Ga4  1  0.16940400  0.16940400  0.00000000  1
  Ga  Ga5  1  0.83053400  0.83053400  0.00000000  1
  Ga  Ga6  1  0.63886900  0.13886900  0.50000000  1
  Ga  Ga7  1  0.13859300  0.63859300  0.50000000  1
  Ga  Ga8  1  0.36061800  0.86061800  0.50000000  1
  Ga  Ga9  1  0.86119300  0.36119300  0.50000000  1
  Ga  Ga10  1  0.22068700  0.22068700  0.00000000  1
  Ga  Ga11  1  0.77939700  0.77939700  0.00000000  1
  Ga  Ga12  1  0.74984900  0.24984900  0.50000000  1
  Ga  Ga13  1  0.25033000  0.75033000  0.50000000  1
  Ga  Ga14  1  0.02624400  0.52624400  0.50000000  1
  Ga  Ga15  1  0.47816600  0.97816600  0.50000000  1
  Ga  Ga16  1  0.97274400  0.47274400  0.50000000  1
  Ni  Ni0  1  0.99859100  0.99859100  0.00000000  1
  Ni  Ni1  1  0.53072300  0.03072300  0.50000000  1
loop_
_geom_bond_atom_site_label_1
_geom_bond_atom_site_label_2
_geom_bond_distance
_geom_bond_site_symmetry_2
Nd2 Ni1 3.132333 1_555
Nd2 Ni1 3.132333 1_454
Ga0 Ga2 2.436938 1_555
Ga0 Ga8 2.586526 1_544
Ga0 Ga8 2.586526 1_555
Ga0 Ga9 2.597023 1_555
Ga0 Ga9 2.597023 1_454
Ga0 Nd3 3.388758 1_444
Ga0 Nd3 3.388758 1_545
Ga0 Nd3 3.388758 1_556
Ga0 Nd3 3.388758 1_455
Ga1 Ga3 2.530183 1_555
Ga1 Ga6 2.615702 1_565
Ga1 Ga6 2.615702 1_554
Ga1 Ga7 2.633548 1_554
Ga1 Ga7 2.633548 1_655
Ga1 Nd2 3.371804 1_554
Ga1 Nd2 3.371804 1_565
Ga1 Nd2 3.371804 1_655
Ga1 Nd2 3.371804 1_666
Ga2 Nd3 3.210253 1_455
Ga2 Nd3 3.210253 1_545
Ga2 Nd3 3.210253 1_444
Ga2 Nd3 3.210253 1_556
Ga3 Ni1 2.431624 1_565
Ga3 Ni1 2.431624 1_554
Ga3 Nd2 3.253202 1_655
Ga3 Nd2 3.253202 1_666
Ga3 Nd2 3.253202 1_565
Ga3 Nd2 3.253202 1_554
Ga4 Ga7 2.602997 1_544
Ga4 Ga7 2.602997 1_555
Ga4 Ga6 2.621042 1_454
Ga4 Ga6 2.621042 1_555
Ga4 Nd1 3.279890 1_545
Ga4 Nd1 3.279890 1_556
Ga4 Nd1 3.279890 1_455
Ga4 Nd1 3.279890 1_444
Ga5 Ga9 2.598898 1_554
Ga5 Ga9 2.598898 1_565
Ga5 Ga8 2.609114 1_554
Ga5 Ga8 2.609114 1_655
Ga5 Nd0 3.279476 1_554
Ga5 Nd0 3.279476 1_655
Ga5 Nd0 3.279476 1_565
Ga5 Nd0 3.279476 1_666
Ga6 Nd1 3.406201 1_545
Ga6 Nd1 3.406201 1_556
Ga6 Nd2 3.638237 1_555
Ga6 Nd2 3.638237 1_656
Ga7 Nd1 3.435842 1_556
Ga7 Nd1 3.435842 1_455
Ga7 Nd2 3.609319 1_555
Ga7 Nd2 3.609319 1_566
Ga8 Nd0 3.388616 1_555
Ga8 Nd0 3.388616 1_566
Ga8 Nd3 3.628715 1_556
Ga8 Nd3 3.628715 1_455
Ga9 Nd0 3.429344 1_555
Ga9 Nd0 3.429344 1_656
Ga9 Nd3 3.588310 1_545
Ga9 Nd3 3.588310 1_556
Ga10 Ga4 2.449740 1_555
Ga10 Ga13 2.571861 1_544
Ga10 Ga13 2.571861 1_555
Ga10 Ga12 2.585117 1_454
Ga10 Ga12 2.585117 1_555
Ga10 Nd1 3.308964 1_455
Ga10 Nd1 3.308964 1_444
Ga10 Nd1 3.308964 1_545
Ga10 Nd1 3.308964 1_556
Ga11 Ga5 2.442766 1_555
Ga11 Ga12 2.569365 1_554
Ga11 Ga12 2.569365 1_565
Ga11 Ga13 2.582674 1_554
Ga11 Ga13 2.582674 1_655
Ga11 Nd0 3.306742 1_655
Ga11 Nd0 3.306742 1_666
Ga11 Nd0 3.306742 1_565
Ga11 Nd0 3.306742 1_554
Ga12 Nd1 3.416001 1_545
Ga12 Nd1 3.416001 1_556
Ga12 Nd0 3.445162 1_656
Ga12 Nd0 3.445162 1_555
Ga13 Nd0 3.407944 1_566
Ga13 Nd0 3.407944 1_555
Ga13 Nd1 3.453201 1_455
Ga13 Nd1 3.453201 1_556
Ga14 Ni0 2.520771 1_445
Ga14 Ni0 2.520771 1_456
Ga14 Ga16 2.555644 1_455
Ga14 Ga3 2.565155 1_556
Ga14 Ga3 2.565155 1_455
Ga14 Ni1 3.065518 1_555
Ga14 Ni1 3.065518 1_566
Ga14 Ni1 3.065518 1_454
Ga14 Ni1 3.065518 1_465
Ga14 Nd2 3.269225 1_555
Ga14 Nd2 3.269225 1_566
Ga15 Ni0 2.386257 1_455
Ga15 Ni0 2.386257 1_556
Ga15 Ni1 2.510598 1_565
Ga15 Ga2 2.760822 1_555
Ga15 Ga2 2.760822 1_566
Ga15 Nd3 3.478508 1_455
Ga15 Nd3 3.478508 1_556
Ga16 Ni0 2.476653 1_556
Ga16 Ni0 2.476653 1_545
Ga16 Ga2 2.631160 1_555
Ga16 Ga2 2.631160 1_656
Ga16 Nd3 3.260229 1_556
Ga16 Nd3 3.260229 1_545
Ni0 Ni1 2.664250 1_564
Ni0 Ni1 2.664250 1_665
