# generated using pymatgen
data_PrMg(BiO3)2
_symmetry_space_group_name_H-M   'P 1'
_cell_length_a   5.78063277
_cell_length_b   5.90977488
_cell_length_c   5.78063376
_cell_angle_alpha   60.72152954
_cell_angle_beta   89.99774936
_cell_angle_gamma   119.27846495
_symmetry_Int_Tables_number   1
_chemical_formula_structural   PrMg(BiO3)2
_chemical_formula_sum   'Pr1 Mg1 Bi2 O6'
_cell_volume   142.62773487
_cell_formula_units_Z   1
loop_
 _symmetry_equiv_pos_site_id
 _symmetry_equiv_pos_as_xyz
  1  'x, y, z'
loop_
 _atom_site_type_symbol
 _atom_site_label
 _atom_site_symmetry_multiplicity
 _atom_site_fract_x
 _atom_site_fract_y
 _atom_site_fract_z
 _atom_site_occupancy
  Pr  Pr0  1  0.50000000  0.00000000  0.50000000  1
  Mg  Mg0  1  0.00000000  0.00000000  0.00000000  1
  Bi  Bi0  1  0.75001852  0.50003705  0.74998148  1
  Bi  Bi1  1  0.24998148  0.49996295  0.25001852  1
  O  O0  1  0.23333884  0.46667768  0.76666116  1
  O  O1  1  0.76666116  0.53332232  0.23333884  1
  O  O2  1  0.33266273  -0.00000000  0.13039107  1
  O  O3  1  0.66733727  0.00000000  0.86960893  1
  O  O4  1  0.13040744  0.00000000  0.66736317  1
  O  O5  1  0.86959256  -0.00000000  0.33263683  1
loop_
_geom_bond_atom_site_label_1
_geom_bond_atom_site_label_2
_geom_bond_distance
_geom_bond_site_symmetry_2
Mg0 O1 1.991912 1_445
Mg0 O0 1.991912 1_554
Mg0 O5 2.065313 1_455
Mg0 O4 2.065313 1_554
Mg0 O2 2.065472 1_555
Mg0 O3 2.065472 1_454
Bi0 O4 2.461341 1_665
Bi0 O5 2.461341 1_565
Bi0 O2 2.461504 1_556
Bi0 O3 2.461504 1_555
Bi1 O5 2.461341 1_455
Bi1 O4 2.461341 1_555
Bi1 O3 2.461504 1_564
Bi1 O2 2.461504 1_565
O0 Pr0 2.276370 1_565
O1 Pr0 2.276370 1_555
O2 Pr0 2.345380 1_555
O3 Pr0 2.345380 1_555
O4 Pr0 2.345286 1_555
O5 Pr0 2.345286 1_555
