# generated using pymatgen
data_Mn5(SiN3)3
_symmetry_space_group_name_H-M   'P 1'
_cell_length_a   7.59394792
_cell_length_b   10.12166827
_cell_length_c   14.23862900
_cell_angle_alpha   90.00000000
_cell_angle_beta   90.00000000
_cell_angle_gamma   131.79212583
_symmetry_Int_Tables_number   1
_chemical_formula_structural   Mn5(SiN3)3
_chemical_formula_sum   'Mn20 Si12 N36'
_cell_volume   815.97135170
_cell_formula_units_Z   4
loop_
 _symmetry_equiv_pos_site_id
 _symmetry_equiv_pos_as_xyz
  1  'x, y, z'
loop_
 _atom_site_type_symbol
 _atom_site_label
 _atom_site_symmetry_multiplicity
 _atom_site_fract_x
 _atom_site_fract_y
 _atom_site_fract_z
 _atom_site_occupancy
  Mn  Mn0  1  0.00000000  0.49913400  0.83301400  1
  Mn  Mn1  1  0.00000000  0.50086600  0.16698600  1
  Mn  Mn2  1  0.00000000  0.00086600  0.33301400  1
  Mn  Mn3  1  0.00000000  0.99913400  0.66698600  1
  Mn  Mn4  1  0.34166300  0.99654400  0.83882600  1
  Mn  Mn5  1  0.34166300  0.34512000  0.16117400  1
  Mn  Mn6  1  0.34166300  0.84512000  0.33882600  1
  Mn  Mn7  1  0.34166300  0.49654400  0.66117400  1
  Mn  Mn8  1  0.65833700  0.00345600  0.16117400  1
  Mn  Mn9  1  0.65833700  0.65488000  0.83882600  1
  Mn  Mn10  1  0.65833700  0.15488000  0.66117400  1
  Mn  Mn11  1  0.65833700  0.50345600  0.33882600  1
  Mn  Mn12  1  0.00000000  0.43972500  0.58341600  1
  Mn  Mn13  1  0.00000000  0.56027500  0.41658400  1
  Mn  Mn14  1  0.00000000  0.06027500  0.08341600  1
  Mn  Mn15  1  0.00000000  0.93972500  0.91658400  1
  Mn  Mn16  1  0.39869500  0.19934800  0.00000000  1
  Mn  Mn17  1  0.39869500  0.69934800  0.50000000  1
  Mn  Mn18  1  0.60130500  0.80065200  0.00000000  1
  Mn  Mn19  1  0.60130500  0.30065200  0.50000000  1
  Si  Si0  1  0.00000000  0.71777900  0.00670300  1
  Si  Si1  1  0.00000000  0.28222100  0.99329700  1
  Si  Si2  1  0.00000000  0.78222100  0.50670300  1
  Si  Si3  1  0.00000000  0.21777900  0.49329700  1
  Si  Si4  1  0.00000000  0.24071100  0.77408300  1
  Si  Si5  1  0.00000000  0.75928900  0.22591700  1
  Si  Si6  1  0.00000000  0.25928900  0.27408300  1
  Si  Si7  1  0.00000000  0.74071100  0.72591700  1
  Si  Si8  1  0.50000000  0.81926000  0.75000000  1
  Si  Si9  1  0.50000000  0.68074000  0.25000000  1
  Si  Si10  1  0.50000000  0.18074000  0.25000000  1
  Si  Si11  1  0.50000000  0.31926000  0.75000000  1
  N  N0  1  0.00000000  0.39410700  0.71373600  1
  N  N1  1  0.00000000  0.60589300  0.28626400  1
  N  N2  1  0.00000000  0.10589300  0.21373600  1
  N  N3  1  0.00000000  0.89410700  0.78626400  1
  N  N4  1  0.00000000  0.31455200  0.87905100  1
  N  N5  1  0.00000000  0.68544800  0.12094900  1
  N  N6  1  0.00000000  0.18544800  0.37905100  1
  N  N7  1  0.00000000  0.81455200  0.62094900  1
  N  N8  1  0.00000000  0.54572400  0.96529600  1
  N  N9  1  0.00000000  0.45427600  0.03470400  1
  N  N10  1  0.00000000  0.95427600  0.46529600  1
  N  N11  1  0.00000000  0.04572400  0.53470400  1
  N  N12  1  0.75787200  0.53830800  0.76977700  1
  N  N13  1  0.75787200  0.21956400  0.23022300  1
  N  N14  1  0.75787200  0.71956400  0.26977700  1
  N  N15  1  0.75787200  0.03830800  0.73022300  1
  N  N16  1  0.24212800  0.46169200  0.23022300  1
  N  N17  1  0.24212800  0.78043600  0.76977700  1
  N  N18  1  0.24212800  0.28043600  0.73022300  1
  N  N19  1  0.24212800  0.96169200  0.26977700  1
  N  N20  1  0.49112500  0.23098600  0.85782900  1
  N  N21  1  0.49112500  0.26013900  0.14217100  1
  N  N22  1  0.49112500  0.76013900  0.35782900  1
  N  N23  1  0.49112500  0.73098600  0.64217100  1
  N  N24  1  0.50887500  0.76901400  0.14217100  1
  N  N25  1  0.50887500  0.73986100  0.85782900  1
  N  N26  1  0.50887500  0.23986100  0.64217100  1
  N  N27  1  0.50887500  0.26901400  0.35782900  1
  N  N28  1  0.23588500  0.93686000  0.96821100  1
  N  N29  1  0.23588500  0.29902400  0.03178900  1
  N  N30  1  0.23588500  0.79902400  0.46821100  1
  N  N31  1  0.23588500  0.43686000  0.53178900  1
  N  N32  1  0.76411500  0.06314000  0.03178900  1
  N  N33  1  0.76411500  0.70097600  0.96821100  1
  N  N34  1  0.76411500  0.20097600  0.53178900  1
  N  N35  1  0.76411500  0.56314000  0.46821100  1
loop_
_geom_bond_atom_site_label_1
_geom_bond_atom_site_label_2
_geom_bond_distance
_geom_bond_site_symmetry_2
Mn0 N8 1.941650 1_555
Mn0 N4 1.979936 1_555
Mn0 N0 2.003617 1_555
Mn0 N17 2.306627 1_555
Mn0 N12 2.306628 1_455
Mn1 N9 1.941650 1_555
Mn1 N5 1.979936 1_555
Mn1 N1 2.003617 1_555
Mn1 N13 2.306627 1_455
Mn1 N16 2.306628 1_555
Mn2 N10 1.941650 1_545
Mn2 N6 1.979936 1_555
Mn2 N2 2.003617 1_555
Mn2 N14 2.306627 1_445
Mn2 N19 2.306628 1_545
Mn3 N11 1.941650 1_565
Mn3 N7 1.979936 1_555
Mn3 N3 2.003617 1_555
Mn3 N18 2.306627 1_565
Mn3 N15 2.306628 1_465
Mn4 N20 1.844590 1_565
Mn4 N28 1.938387 1_555
Mn4 N17 2.029495 1_555
Mn4 N3 2.186633 1_555
Mn5 N21 1.844600 1_555
Mn5 N29 1.938386 1_555
Mn5 N16 2.029487 1_555
Mn5 N2 2.186636 1_555
Mn6 N22 1.844600 1_555
Mn6 N30 1.938386 1_555
Mn6 N19 2.029487 1_555
Mn6 N1 2.186636 1_555
Mn7 N23 1.844590 1_555
Mn7 N31 1.938387 1_555
Mn7 N18 2.029495 1_555
Mn7 N0 2.186633 1_555
Mn8 N24 1.844590 1_545
Mn8 N32 1.938387 1_555
Mn8 N13 2.029495 1_555
Mn8 N2 2.186633 1_655
Mn9 N25 1.844600 1_555
Mn9 N33 1.938386 1_555
Mn9 N12 2.029487 1_555
Mn9 N3 2.186636 1_655
Mn10 N26 1.844600 1_555
Mn10 N34 1.938386 1_555
Mn10 N15 2.029487 1_555
Mn10 N0 2.186636 1_655
Mn11 N27 1.844590 1_555
Mn11 N35 1.938387 1_555
Mn11 N14 2.029495 1_555
Mn11 N1 2.186633 1_655
Mn12 N0 1.912162 1_555
Mn12 N34 1.954270 1_455
Mn12 N31 1.954276 1_555
Mn13 N1 1.912162 1_555
Mn13 N30 1.954270 1_555
Mn13 N35 1.954276 1_455
Mn14 N2 1.912162 1_555
Mn14 N29 1.954270 1_555
Mn14 N32 1.954276 1_455
Mn15 N3 1.912162 1_555
Mn15 N33 1.954270 1_455
Mn15 N28 1.954276 1_555
Mn16 N21 2.096068 1_555
Mn16 N20 2.096069 1_554
Mn16 N29 2.100928 1_555
Mn16 N28 2.100945 1_544
Mn17 N22 2.096068 1_555
Mn17 N23 2.096069 1_555
Mn17 N30 2.100928 1_555
Mn17 N31 2.100945 1_555
Mn18 N25 2.096068 1_554
Mn18 N24 2.096069 1_555
Mn18 N33 2.100928 1_554
Mn18 N32 2.100945 1_565
Mn19 N26 2.096068 1_555
Mn19 N27 2.096069 1_555
Mn19 N34 2.100928 1_555
Mn19 N35 2.100945 1_555
N0 Si4 1.774532 1_555
N1 Si5 1.774532 1_555
N2 Si6 1.774532 1_555
N3 Si7 1.774532 1_555
N4 Si1 1.659296 1_555
N4 Si4 1.671056 1_555
N5 Si0 1.659296 1_555
N5 Si5 1.671056 1_555
N6 Si3 1.659296 1_555
N6 Si6 1.671056 1_555
N7 Si2 1.659296 1_555
N7 Si7 1.671056 1_555
N8 N9 1.354044 1_556
N8 Si0 1.838578 1_556
N9 Si1 1.838578 1_554
N10 N11 1.354044 1_565
N10 Si2 1.838578 1_555
N11 Si3 1.838578 1_555
N12 Si7 1.716718 1_655
N12 Si11 1.744377 1_555
N13 Si6 1.716719 1_655
N13 Si10 1.744377 1_555
N14 Si5 1.716719 1_655
N14 Si9 1.744377 1_555
N15 Si4 1.716718 1_655
N15 Si8 1.744377 1_545
N16 Si6 1.716718 1_555
N16 Si9 1.744377 1_555
N17 Si7 1.716719 1_555
N17 Si8 1.744377 1_555
N18 Si4 1.716719 1_555
N18 Si11 1.744377 1_555
N19 Si5 1.716718 1_555
N19 Si10 1.744377 1_565
N20 Si11 1.754950 1_555
N21 Si10 1.754950 1_555
N22 Si9 1.754950 1_555
N23 Si8 1.754950 1_555
N24 Si9 1.754950 1_555
N25 Si8 1.754950 1_555
N26 Si11 1.754950 1_555
N27 Si10 1.754950 1_555
N28 Si0 1.769739 1_556
N29 Si1 1.769745 1_554
N30 Si2 1.769745 1_555
N31 Si3 1.769739 1_555
N32 Si1 1.769739 1_654
N33 Si0 1.769745 1_656
N34 Si3 1.769745 1_655
N35 Si2 1.769739 1_655
