# generated using pymatgen
data_KPr(MoO4)2
_symmetry_space_group_name_H-M   'P 1'
_cell_length_a   7.67351581
_cell_length_b   7.67351581
_cell_length_c   7.97439121
_cell_angle_alpha   61.60427051
_cell_angle_beta   61.60427051
_cell_angle_gamma   88.51751084
_symmetry_Int_Tables_number   1
_chemical_formula_structural   KPr(MoO4)2
_chemical_formula_sum   'K2 Pr2 Mo4 O16'
_cell_volume   350.98104076
_cell_formula_units_Z   2
loop_
 _symmetry_equiv_pos_site_id
 _symmetry_equiv_pos_as_xyz
  1  'x, y, z'
loop_
 _atom_site_type_symbol
 _atom_site_label
 _atom_site_symmetry_multiplicity
 _atom_site_fract_x
 _atom_site_fract_y
 _atom_site_fract_z
 _atom_site_occupancy
  K  K0  1  0.20041100  0.79958900  0.75000000  1
  K  K1  1  0.79958900  0.20041100  0.25000000  1
  Pr  Pr0  1  0.77031400  0.22968500  0.75000000  1
  Pr  Pr1  1  0.22968500  0.77031500  0.25000000  1
  Mo  Mo0  1  0.69189300  0.69632800  0.76054400  1
  Mo  Mo1  1  0.30810700  0.30367200  0.23945600  1
  Mo  Mo2  1  0.30367200  0.30810700  0.73945600  1
  Mo  Mo3  1  0.69632800  0.69189300  0.26054400  1
  O  O0  1  0.61442300  0.76650200  0.56395000  1
  O  O1  1  0.38557700  0.23349800  0.43605000  1
  O  O2  1  0.23349800  0.38557700  0.93605000  1
  O  O3  1  0.76650200  0.61442300  0.06395000  1
  O  O4  1  0.38510300  0.07452000  0.86762300  1
  O  O5  1  0.61489700  0.92548000  0.13237700  1
  O  O6  1  0.92548000  0.61489700  0.63237700  1
  O  O7  1  0.07452000  0.38510300  0.36762300  1
  O  O8  1  0.58118000  0.36935400  0.97581000  1
  O  O9  1  0.41882000  0.63064600  0.02419000  1
  O  O10  1  0.63064600  0.41882000  0.52419000  1
  O  O11  1  0.36935400  0.58118000  0.47581000  1
  O  O12  1  0.79395400  0.94572900  0.69033900  1
  O  O13  1  0.20604600  0.05427100  0.30966100  1
  O  O14  1  0.05427100  0.20604600  0.80966100  1
  O  O15  1  0.94572900  0.79395400  0.19033900  1
loop_
_geom_bond_atom_site_label_1
_geom_bond_atom_site_label_2
_geom_bond_distance
_geom_bond_site_symmetry_2
K0 O2 2.862175 1_555
K0 O0 2.862175 1_555
K0 O3 2.882018 1_456
K0 O1 2.882018 1_565
K0 O15 3.079668 1_456
K0 O13 3.079668 1_565
K0 O11 3.153919 1_555
K0 O9 3.153919 1_556
K0 O6 3.261945 1_455
K0 O4 3.261945 1_565
K1 O1 2.862175 1_555
K1 O3 2.862175 1_555
K1 O0 2.882018 1_545
K1 O2 2.882018 1_654
K1 O12 3.079668 1_545
K1 O14 3.079668 1_654
K1 O8 3.153919 1_554
K1 O10 3.153919 1_555
K1 O5 3.261945 1_545
K1 O7 3.261945 1_655
Mo0 O0 1.779890 1_555
Mo0 O12 1.797451 1_555
Mo0 O6 1.858742 1_555
Mo0 O9 1.980327 1_556
Mo0 O8 2.142546 1_555
Mo0 O3 2.535587 1_556
Mo1 O1 1.779890 1_555
Mo1 O13 1.797451 1_555
Mo1 O7 1.858742 1_555
Mo1 O8 1.980327 1_554
Mo1 O9 2.142546 1_555
Mo1 O2 2.535587 1_554
Mo2 O2 1.779890 1_555
Mo2 O14 1.797451 1_555
Mo2 O4 1.858742 1_555
Mo2 O11 1.980327 1_555
Mo2 O10 2.142546 1_555
Mo2 O1 2.535587 1_555
Mo3 O3 1.779890 1_555
Mo3 O15 1.797451 1_555
Mo3 O5 1.858742 1_555
Mo3 O10 1.980327 1_555
Mo3 O11 2.142546 1_555
Mo3 O0 2.535587 1_555
O4 Pr1 2.466677 1_546
O4 Pr0 2.741860 1_555
O5 Pr0 2.466677 1_564
O5 Pr1 2.741867 1_555
O6 Pr1 2.466677 1_655
O6 Pr0 2.741870 1_555
O7 Pr0 2.466680 1_455
O7 Pr1 2.741867 1_555
O8 Pr0 2.401445 1_555
O9 Pr1 2.401447 1_555
O10 Pr0 2.401441 1_555
O11 Pr1 2.401447 1_555
O12 Pr0 2.427031 1_565
O13 Pr1 2.427031 1_545
O14 Pr0 2.427039 1_455
O15 Pr1 2.427031 1_655
