# generated using pymatgen
data_TlAsPd5
_symmetry_space_group_name_H-M   'P 1'
_cell_length_a   4.03957132
_cell_length_b   4.03957132
_cell_length_c   7.10550388
_cell_angle_alpha   90.00000000
_cell_angle_beta   90.00000000
_cell_angle_gamma   90.00000000
_symmetry_Int_Tables_number   1
_chemical_formula_structural   TlAsPd5
_chemical_formula_sum   'Tl1 As1 Pd5'
_cell_volume   115.94858186
_cell_formula_units_Z   1
loop_
 _symmetry_equiv_pos_site_id
 _symmetry_equiv_pos_as_xyz
  1  'x, y, z'
loop_
 _atom_site_type_symbol
 _atom_site_label
 _atom_site_symmetry_multiplicity
 _atom_site_fract_x
 _atom_site_fract_y
 _atom_site_fract_z
 _atom_site_occupancy
  Tl  Tl0  1  0.50000000  0.50000000  -0.00000000  1
  As  As0  1  -0.00000000  0.00000000  0.50000000  1
  Pd  Pd0  1  -0.00000000  0.00000000  0.00000000  1
  Pd  Pd1  1  0.00000000  0.50000000  0.29276302  1
  Pd  Pd2  1  0.50000000  -0.00000000  0.29276302  1
  Pd  Pd3  1  -0.00000000  0.50000000  0.70723698  1
  Pd  Pd4  1  0.50000000  0.00000000  0.70723698  1
loop_
_geom_bond_atom_site_label_1
_geom_bond_atom_site_label_2
_geom_bond_distance
_geom_bond_site_symmetry_2
As0 Pd1 2.499572 1_555
As0 Pd1 2.499572 1_545
As0 Pd3 2.499572 1_555
As0 Pd3 2.499572 1_545
As0 Pd2 2.499572 1_555
As0 Pd4 2.499572 1_455
As0 Pd4 2.499572 1_555
As0 Pd2 2.499572 1_455
Pd0 Tl0 2.856408 1_455
Pd0 Tl0 2.856408 1_555
Pd0 Tl0 2.856408 1_545
Pd0 Tl0 2.856408 1_445
Pd1 Tl0 2.899463 1_455
Pd1 Tl0 2.899463 1_555
Pd2 Tl0 2.899463 1_545
Pd2 Tl0 2.899463 1_555
Pd3 Tl0 2.899463 1_556
Pd3 Tl0 2.899463 1_456
Pd4 Tl0 2.899463 1_556
Pd4 Tl0 2.899463 1_546
