# generated using pymatgen
data_Mn8Nb3Al
_symmetry_space_group_name_H-M   'P 1'
_cell_length_a   4.89857183
_cell_length_b   4.89856364
_cell_length_c   7.85336939
_cell_angle_alpha   90.00011941
_cell_angle_beta   89.99983360
_cell_angle_gamma   119.99983467
_symmetry_Int_Tables_number   1
_chemical_formula_structural   Mn8Nb3Al
_chemical_formula_sum   'Mn8 Nb3 Al1'
_cell_volume   163.20205256
_cell_formula_units_Z   1
loop_
 _symmetry_equiv_pos_site_id
 _symmetry_equiv_pos_as_xyz
  1  'x, y, z'
loop_
 _atom_site_type_symbol
 _atom_site_label
 _atom_site_symmetry_multiplicity
 _atom_site_fract_x
 _atom_site_fract_y
 _atom_site_fract_z
 _atom_site_occupancy
  Mn  Mn0  1  0.33333869  0.66667985  0.50020944  1
  Mn  Mn1  1  0.33333323  0.66667099  0.00516710  1
  Mn  Mn2  1  0.50120088  0.00240435  0.74891348  1
  Mn  Mn3  1  0.50119963  0.49879733  0.74891464  1
  Mn  Mn4  1  0.99759506  0.49879746  0.74891343  1
  Mn  Mn5  1  0.16312404  0.32624479  0.25162224  1
  Mn  Mn6  1  0.16312141  0.83687696  0.25162328  1
  Mn  Mn7  1  0.67375391  0.83687395  0.25162154  1
  Nb  Nb0  1  0.66666539  0.33333338  0.44166314  1
  Nb  Nb1  1  0.66666696  0.33332827  0.05999407  1
  Nb  Nb2  1  0.00000014  -0.00000310  0.92951483  1
  Al  Al0  1  -0.00000032  -0.00000224  0.56179180  1
loop_
_geom_bond_atom_site_label_1
_geom_bond_atom_site_label_2
_geom_bond_distance
_geom_bond_site_symmetry_2
Mn0 Mn2 2.417293 1_565
Mn0 Mn4 2.417341 1_455
Mn0 Mn3 2.417351 1_555
Mn0 Mn6 2.428327 1_555
Mn0 Mn7 2.428338 1_555
Mn0 Mn5 2.428383 1_555
Mn0 Nb0 2.865268 1_565
Mn0 Nb0 2.865344 1_555
Mn0 Nb0 2.865356 1_455
Mn1 Mn6 2.414902 1_555
Mn1 Mn7 2.414907 1_555
Mn1 Mn5 2.414922 1_555
Mn1 Mn2 2.465470 1_564
Mn1 Mn3 2.465474 1_554
Mn1 Mn4 2.465485 1_454
Mn1 Nb1 2.860741 1_565
Mn1 Nb1 2.860783 1_455
Mn1 Nb1 2.860818 1_555
Mn1 Nb2 2.889888 1_564
Mn1 Nb2 2.889927 1_664
Mn1 Nb2 2.889953 1_554
Mn2 Mn3 2.431616 1_555
Mn2 Mn4 2.431624 1_555
Mn2 Mn3 2.466948 1_545
Mn2 Mn4 2.466956 1_445
Mn2 Nb0 2.791641 1_555
Mn2 Nb1 2.817669 1_556
Mn2 Nb2 2.830313 1_555
Mn2 Nb2 2.830345 1_655
Mn3 Mn4 2.431628 1_555
Mn3 Mn4 2.466943 1_455
Mn3 Nb0 2.791645 1_555
Mn3 Nb1 2.817691 1_556
Mn3 Nb2 2.830327 1_555
Mn3 Nb2 2.830329 1_665
Mn4 Nb0 2.791645 1_555
Mn4 Nb1 2.817677 1_556
Mn4 Nb2 2.830310 1_665
Mn4 Nb2 2.830341 1_655
Mn5 Mn6 2.397193 1_545
Mn5 Mn7 2.397220 1_445
Mn5 Mn7 2.501360 1_555
Mn5 Mn6 2.501371 1_555
Mn5 Nb0 2.868327 1_555
Mn5 Nb0 2.868344 1_455
Mn5 Nb1 2.874839 1_455
Mn5 Nb1 2.874842 1_555
Mn5 Nb2 2.883500 1_554
Mn6 Mn7 2.397194 1_455
Mn6 Mn7 2.501377 1_555
Mn6 Nb0 2.868332 1_455
Mn6 Nb0 2.868336 1_565
Mn6 Nb1 2.874841 1_565
Mn6 Nb1 2.874856 1_455
Mn6 Nb2 2.883497 1_564
Mn7 Nb0 2.868322 1_555
Mn7 Nb0 2.868347 1_565
Mn7 Nb1 2.874828 1_565
Mn7 Nb1 2.874841 1_555
Mn7 Nb2 2.883492 1_664
Nb0 Nb1 2.997388 1_555
Nb1 Nb2 3.008087 1_654
Nb1 Nb2 3.008110 1_554
Nb1 Nb2 3.008111 1_664
Al0 Mn6 2.801593 1_545
Al0 Mn5 2.801615 1_555
Al0 Mn7 2.801620 1_445
Al0 Mn4 2.856324 1_445
Al0 Mn2 2.856328 1_555
Al0 Mn4 2.856336 1_455
Al0 Mn2 2.856339 1_455
Al0 Mn3 2.856342 1_445
Al0 Mn3 2.856342 1_555
Al0 Mn0 2.869198 1_545
Al0 Mn0 2.869227 1_445
Al0 Mn0 2.869310 1_555
Al0 Nb2 2.887865 1_555
Al0 Nb0 2.981382 1_445
Al0 Nb0 2.981391 1_555
Al0 Nb0 2.981403 1_455
