# generated using pymatgen
data_BCl
_symmetry_space_group_name_H-M   'P 1'
_cell_length_a   12.59981000
_cell_length_b   12.59981000
_cell_length_c   12.59981000
_cell_angle_alpha   90.00000000
_cell_angle_beta   90.00000000
_cell_angle_gamma   90.00000000
_symmetry_Int_Tables_number   1
_chemical_formula_structural   BCl
_chemical_formula_sum   'B48 Cl48'
_cell_volume   2000.28550816
_cell_formula_units_Z   48
loop_
 _symmetry_equiv_pos_site_id
 _symmetry_equiv_pos_as_xyz
  1  'x, y, z'
loop_
 _atom_site_type_symbol
 _atom_site_label
 _atom_site_symmetry_multiplicity
 _atom_site_fract_x
 _atom_site_fract_y
 _atom_site_fract_z
 _atom_site_occupancy
  B  B0  1  0.40423900  0.07788300  0.44020200  1
  B  B1  1  0.59576100  0.57788300  0.05979800  1
  B  B2  1  0.09576100  0.92211700  0.94020200  1
  B  B3  1  0.90423900  0.42211700  0.55979800  1
  B  B4  1  0.44020200  0.40423900  0.07788300  1
  B  B5  1  0.05979800  0.59576100  0.57788300  1
  B  B6  1  0.94020200  0.09576100  0.92211700  1
  B  B7  1  0.55979800  0.90423900  0.42211700  1
  B  B8  1  0.07788300  0.44020200  0.40423900  1
  B  B9  1  0.57788300  0.05979800  0.59576100  1
  B  B10  1  0.92211700  0.94020200  0.09576100  1
  B  B11  1  0.42211700  0.55979800  0.90423900  1
  B  B12  1  0.59576100  0.92211700  0.55979800  1
  B  B13  1  0.40423900  0.42211700  0.94020200  1
  B  B14  1  0.90423900  0.07788300  0.05979800  1
  B  B15  1  0.09576100  0.57788300  0.44020200  1
  B  B16  1  0.55979800  0.59576100  0.92211700  1
  B  B17  1  0.94020200  0.40423900  0.42211700  1
  B  B18  1  0.05979800  0.90423900  0.07788300  1
  B  B19  1  0.44020200  0.09576100  0.57788300  1
  B  B20  1  0.92211700  0.55979800  0.59576100  1
  B  B21  1  0.42211700  0.94020200  0.40423900  1
  B  B22  1  0.07788300  0.05979800  0.90423900  1
  B  B23  1  0.57788300  0.44020200  0.09576100  1
  B  B24  1  0.03494500  0.36910800  0.52457300  1
  B  B25  1  0.96505500  0.86910800  0.97542700  1
  B  B26  1  0.46505500  0.63089200  0.02457300  1
  B  B27  1  0.53494500  0.13089200  0.47542700  1
  B  B28  1  0.52457300  0.03494500  0.36910800  1
  B  B29  1  0.97542700  0.96505500  0.86910800  1
  B  B30  1  0.02457300  0.46505500  0.63089200  1
  B  B31  1  0.47542700  0.53494500  0.13089200  1
  B  B32  1  0.36910800  0.52457300  0.03494500  1
  B  B33  1  0.86910800  0.97542700  0.96505500  1
  B  B34  1  0.63089200  0.02457300  0.46505500  1
  B  B35  1  0.13089200  0.47542700  0.53494500  1
  B  B36  1  0.96505500  0.63089200  0.47542700  1
  B  B37  1  0.03494500  0.13089200  0.02457300  1
  B  B38  1  0.53494500  0.36910800  0.97542700  1
  B  B39  1  0.46505500  0.86910800  0.52457300  1
  B  B40  1  0.47542700  0.96505500  0.63089200  1
  B  B41  1  0.02457300  0.03494500  0.13089200  1
  B  B42  1  0.97542700  0.53494500  0.36910800  1
  B  B43  1  0.52457300  0.46505500  0.86910800  1
  B  B44  1  0.63089200  0.47542700  0.96505500  1
  B  B45  1  0.13089200  0.02457300  0.03494500  1
  B  B46  1  0.36910800  0.97542700  0.53494500  1
  B  B47  1  0.86910800  0.52457300  0.46505500  1
  Cl  Cl0  1  0.30697000  0.15656300  0.37948500  1
  Cl  Cl1  1  0.69303000  0.65656300  0.12051500  1
  Cl  Cl2  1  0.19303000  0.84343700  0.87948500  1
  Cl  Cl3  1  0.80697000  0.34343700  0.62051500  1
  Cl  Cl4  1  0.37948500  0.30697000  0.15656300  1
  Cl  Cl5  1  0.12051500  0.69303000  0.65656300  1
  Cl  Cl6  1  0.87948500  0.19303000  0.84343700  1
  Cl  Cl7  1  0.62051500  0.80697000  0.34343700  1
  Cl  Cl8  1  0.15656300  0.37948500  0.30697000  1
  Cl  Cl9  1  0.65656300  0.12051500  0.69303000  1
  Cl  Cl10  1  0.84343700  0.87948500  0.19303000  1
  Cl  Cl11  1  0.34343700  0.62051500  0.80697000  1
  Cl  Cl12  1  0.69303000  0.84343700  0.62051500  1
  Cl  Cl13  1  0.30697000  0.34343700  0.87948500  1
  Cl  Cl14  1  0.80697000  0.15656300  0.12051500  1
  Cl  Cl15  1  0.19303000  0.65656300  0.37948500  1
  Cl  Cl16  1  0.62051500  0.69303000  0.84343700  1
  Cl  Cl17  1  0.87948500  0.30697000  0.34343700  1
  Cl  Cl18  1  0.12051500  0.80697000  0.15656300  1
  Cl  Cl19  1  0.37948500  0.19303000  0.65656300  1
  Cl  Cl20  1  0.84343700  0.62051500  0.69303000  1
  Cl  Cl21  1  0.34343700  0.87948500  0.30697000  1
  Cl  Cl22  1  0.15656300  0.12051500  0.80697000  1
  Cl  Cl23  1  0.65656300  0.37948500  0.19303000  1
  Cl  Cl24  1  0.06927200  0.23598000  0.54814400  1
  Cl  Cl25  1  0.93072800  0.73598000  0.95185600  1
  Cl  Cl26  1  0.43072800  0.76402000  0.04814400  1
  Cl  Cl27  1  0.56927200  0.26402000  0.45185600  1
  Cl  Cl28  1  0.54814400  0.06927200  0.23598000  1
  Cl  Cl29  1  0.95185600  0.93072800  0.73598000  1
  Cl  Cl30  1  0.04814400  0.43072800  0.76402000  1
  Cl  Cl31  1  0.45185600  0.56927200  0.26402000  1
  Cl  Cl32  1  0.23598000  0.54814400  0.06927200  1
  Cl  Cl33  1  0.73598000  0.95185600  0.93072800  1
  Cl  Cl34  1  0.76402000  0.04814400  0.43072800  1
  Cl  Cl35  1  0.26402000  0.45185600  0.56927200  1
  Cl  Cl36  1  0.93072800  0.76402000  0.45185600  1
  Cl  Cl37  1  0.06927200  0.26402000  0.04814400  1
  Cl  Cl38  1  0.56927200  0.23598000  0.95185600  1
  Cl  Cl39  1  0.43072800  0.73598000  0.54814400  1
  Cl  Cl40  1  0.45185600  0.93072800  0.76402000  1
  Cl  Cl41  1  0.04814400  0.06927200  0.26402000  1
  Cl  Cl42  1  0.95185600  0.56927200  0.23598000  1
  Cl  Cl43  1  0.54814400  0.43072800  0.73598000  1
  Cl  Cl44  1  0.76402000  0.45185600  0.93072800  1
  Cl  Cl45  1  0.26402000  0.04814400  0.06927200  1
  Cl  Cl46  1  0.23598000  0.95185600  0.56927200  1
  Cl  Cl47  1  0.73598000  0.54814400  0.43072800  1
loop_
_geom_bond_atom_site_label_1
_geom_bond_atom_site_label_2
_geom_bond_distance
_geom_bond_site_symmetry_2
B0 Cl0 1.752160 1_555
B1 Cl1 1.752160 1_555
B2 Cl2 1.752160 1_555
B3 Cl3 1.752160 1_555
B4 Cl4 1.752160 1_555
B5 Cl5 1.752160 1_555
B6 Cl6 1.752160 1_555
B7 Cl7 1.752160 1_555
B8 Cl8 1.752160 1_555
B9 Cl9 1.752160 1_555
B10 Cl10 1.752160 1_555
B11 Cl11 1.752160 1_555
B12 Cl12 1.752160 1_555
B13 Cl13 1.752160 1_555
B14 Cl14 1.752160 1_555
B15 Cl15 1.752160 1_555
B16 Cl16 1.752160 1_555
B17 Cl17 1.752160 1_555
B18 Cl18 1.752160 1_555
B19 Cl19 1.752160 1_555
B20 Cl20 1.752160 1_555
B21 Cl21 1.752160 1_555
B22 Cl22 1.752160 1_555
B23 Cl23 1.752160 1_555
B24 Cl24 1.757527 1_555
B25 Cl25 1.757527 1_555
B26 Cl26 1.757527 1_555
B27 Cl27 1.757527 1_555
B28 Cl28 1.757527 1_555
B29 Cl29 1.757527 1_555
B30 Cl30 1.757527 1_555
B31 Cl31 1.757527 1_555
B32 Cl32 1.757527 1_555
B33 Cl33 1.757527 1_555
B34 Cl34 1.757527 1_555
B35 Cl35 1.757527 1_555
B36 Cl36 1.757527 1_555
B37 Cl37 1.757527 1_555
B38 Cl38 1.757527 1_555
B39 Cl39 1.757527 1_555
B40 Cl40 1.757527 1_555
B41 Cl41 1.757527 1_555
B42 Cl42 1.757527 1_555
B43 Cl43 1.757527 1_555
B44 Cl44 1.757527 1_555
B45 Cl45 1.757527 1_555
B46 Cl46 1.757527 1_555
B47 Cl47 1.757527 1_555
