# generated using pymatgen
data_Ba4P3HF24
_symmetry_space_group_name_H-M   'P 1'
_cell_length_a   4.80345600
_cell_length_b   9.30336226
_cell_length_c   11.87617122
_cell_angle_alpha   67.51775133
_cell_angle_beta   85.00511174
_cell_angle_gamma   78.95929984
_symmetry_Int_Tables_number   1
_chemical_formula_structural   Ba4P3HF24
_chemical_formula_sum   'Ba4 P3 H1 F24'
_cell_volume   481.25716256
_cell_formula_units_Z   1
loop_
 _symmetry_equiv_pos_site_id
 _symmetry_equiv_pos_as_xyz
  1  'x, y, z'
loop_
 _atom_site_type_symbol
 _atom_site_label
 _atom_site_symmetry_multiplicity
 _atom_site_fract_x
 _atom_site_fract_y
 _atom_site_fract_z
 _atom_site_occupancy
  Ba  Ba0  1  0.61784700  0.55783100  0.24576000  1
  Ba  Ba1  1  0.38215300  0.44216900  0.75424000  1
  Ba  Ba2  1  0.26527900  0.19692900  0.20649300  1
  Ba  Ba3  1  0.73472100  0.80307100  0.79350700  1
  P  P0  1  0.16559800  0.21973500  0.55390000  1
  P  P1  1  0.83440200  0.78026500  0.44610000  1
  P  P2  1  0.00000000  0.00000000  0.00000000  1
  H  H0  1  0.50000000  0.50000000  0.00000000  1
  F  F0  1  0.59442500  0.59927900  0.01061400  1
  F  F1  1  0.40557500  0.40072100  0.98938600  1
  F  F2  1  0.15354000  0.47919000  0.21698600  1
  F  F3  1  0.84646000  0.52081000  0.78301400  1
  F  F4  1  0.73167500  0.28603400  0.22358000  1
  F  F5  1  0.26832500  0.71396600  0.77642000  1
  F  F6  1  0.89458000  0.30074500  0.46442700  1
  F  F7  1  0.10542000  0.69925500  0.53557300  1
  F  F8  1  0.95437500  0.94564500  0.38838100  1
  F  F9  1  0.04562500  0.05435500  0.61161900  1
  F  F10  1  0.99241600  0.27791600  0.65962700  1
  F  F11  1  0.00758400  0.72208400  0.34037300  1
  F  F12  1  0.43987800  0.13982400  0.64559400  1
  F  F13  1  0.56012200  0.86017600  0.35440600  1
  F  F14  1  0.34383800  0.16440200  0.44972400  1
  F  F15  1  0.65616200  0.83559800  0.55027600  1
  F  F16  1  0.29180200  0.38629800  0.49866000  1
  F  F17  1  0.70819800  0.61370200  0.50134000  1
  F  F18  1  0.26000900  0.91543900  0.09724100  1
  F  F19  1  0.73999100  0.08456100  0.90275900  1
  F  F20  1  0.87960500  0.83303600  0.04455100  1
  F  F21  1  0.12039500  0.16696400  0.95544900  1
  F  F22  1  0.19523100  0.95227400  0.89548300  1
  F  F23  1  0.80476900  0.04772600  0.10451700  1
loop_
_geom_bond_atom_site_label_1
_geom_bond_atom_site_label_2
_geom_bond_distance
_geom_bond_site_symmetry_2
Ba0 F2 2.564194 1_555
Ba0 F2 2.567163 1_655
Ba0 F4 2.591733 1_555
Ba0 F0 2.678559 1_555
Ba1 F3 2.564194 1_555
Ba1 F3 2.567163 1_455
Ba1 F5 2.591733 1_555
Ba1 F1 2.678559 1_555
Ba2 F4 2.553889 1_455
Ba2 F4 2.581961 1_555
Ba2 F2 2.626433 1_555
Ba2 F1 2.673015 1_554
Ba2 F14 2.838279 1_555
Ba2 F8 3.045488 1_445
Ba2 F13 3.071098 1_545
Ba2 F23 3.077402 1_555
Ba2 F21 3.243814 1_554
Ba2 F18 3.342463 1_545
Ba2 F23 3.348861 1_455
Ba3 F5 2.553889 1_655
Ba3 F5 2.581961 1_555
Ba3 F3 2.626433 1_555
Ba3 F0 2.673015 1_556
Ba3 F15 2.838279 1_555
Ba3 F9 3.045488 1_665
Ba3 F12 3.071098 1_565
Ba3 F22 3.077402 1_555
Ba3 F20 3.243814 1_556
Ba3 F19 3.342463 1_565
Ba3 F22 3.348861 1_655
F0 H0 1.155056 1_555
F1 H0 1.155056 1_556
F6 P0 1.626186 1_655
F7 P1 1.626186 1_455
F8 P1 1.622792 1_555
F9 P0 1.622792 1_555
F10 P0 1.651378 1_655
F11 P1 1.651378 1_455
F12 P0 1.652230 1_555
F13 P1 1.652230 1_555
F14 P0 1.631732 1_555
F15 P1 1.631732 1_555
F16 P0 1.646873 1_555
F17 P1 1.646873 1_555
F18 P2 1.640864 1_565
F19 P2 1.640864 1_656
F20 P2 1.639951 1_665
F21 P2 1.639951 1_556
F22 P2 1.636045 1_566
F23 P2 1.636045 1_655
