# generated using pymatgen
data_Nd4(SiS4)3
_symmetry_space_group_name_H-M   'P 1'
_cell_length_a   11.40018634
_cell_length_b   11.40018634
_cell_length_c   11.40018667
_cell_angle_alpha   114.76191837
_cell_angle_beta   114.76191837
_cell_angle_gamma   114.76191136
_symmetry_Int_Tables_number   1
_chemical_formula_structural   Nd4(SiS4)3
_chemical_formula_sum   'Nd8 Si6 S24'
_cell_volume   846.90545043
_cell_formula_units_Z   2
loop_
 _symmetry_equiv_pos_site_id
 _symmetry_equiv_pos_as_xyz
  1  'x, y, z'
loop_
 _atom_site_type_symbol
 _atom_site_label
 _atom_site_symmetry_multiplicity
 _atom_site_fract_x
 _atom_site_fract_y
 _atom_site_fract_z
 _atom_site_occupancy
  Nd  Nd0  1  0.49661796  0.49661796  0.49661796  1
  Nd  Nd1  1  0.99661796  0.99661796  0.99661796  1
  Nd  Nd2  1  0.43275263  0.20796673  0.97191265  1
  Nd  Nd3  1  0.97191265  0.43275263  0.20796673  1
  Nd  Nd4  1  0.20796673  0.97191265  0.43275263  1
  Nd  Nd5  1  0.47191265  0.70796673  0.93275263  1
  Nd  Nd6  1  0.93275263  0.47191265  0.70796673  1
  Nd  Nd7  1  0.70796673  0.93275263  0.47191265  1
  Si  Si0  1  0.85306264  0.63975089  0.46782733  1
  Si  Si1  1  0.46782733  0.85306264  0.63975089  1
  Si  Si2  1  0.63975089  0.46782733  0.85306264  1
  Si  Si3  1  0.96782733  0.13975089  0.35306264  1
  Si  Si4  1  0.35306264  0.96782733  0.13975089  1
  Si  Si5  1  0.13975089  0.35306264  0.96782733  1
  S  S0  1  0.78425106  0.39253465  0.31823768  1
  S  S1  1  0.31823768  0.78425106  0.39253465  1
  S  S2  1  0.39253465  0.31823768  0.78425106  1
  S  S3  1  0.81823768  0.89253465  0.28425106  1
  S  S4  1  0.28425106  0.81823768  0.89253465  1
  S  S5  1  0.89253465  0.28425106  0.81823768  1
  S  S6  1  0.87155010  0.68511949  0.68126567  1
  S  S7  1  0.68126567  0.87155010  0.68511949  1
  S  S8  1  0.68511949  0.68126567  0.87155010  1
  S  S9  1  0.18126567  0.18511949  0.37155010  1
  S  S10  1  0.37155010  0.18126567  0.18511949  1
  S  S11  1  0.18511949  0.37155010  0.18126567  1
  S  S12  1  0.62177488  0.58734923  0.30210338  1
  S  S13  1  0.30210338  0.62177488  0.58734923  1
  S  S14  1  0.58734923  0.30210338  0.62177488  1
  S  S15  1  0.80210338  0.08734923  0.12177488  1
  S  S16  1  0.12177488  0.80210338  0.08734923  1
  S  S17  1  0.08734923  0.12177488  0.80210338  1
  S  S18  1  0.11417382  0.84610611  0.57864210  1
  S  S19  1  0.57864210  0.11417382  0.84610611  1
  S  S20  1  0.84610611  0.57864210  0.11417382  1
  S  S21  1  0.07864210  0.34610611  0.61417382  1
  S  S22  1  0.61417382  0.07864210  0.34610611  1
  S  S23  1  0.34610611  0.61417382  0.07864210  1
loop_
_geom_bond_atom_site_label_1
_geom_bond_atom_site_label_2
_geom_bond_distance
_geom_bond_site_symmetry_2
Nd0 S8 2.880571 1_555
Nd0 S7 2.880571 1_555
Nd0 S6 2.880571 1_555
Nd0 S10 2.887587 1_555
Nd0 S11 2.887587 1_555
Nd0 S9 2.887588 1_555
Nd0 S13 3.370245 1_555
Nd0 S14 3.370245 1_555
Nd0 S12 3.370245 1_555
Nd1 S9 2.880571 1_666
Nd1 S10 2.880571 1_666
Nd1 S11 2.880571 1_666
Nd1 S7 2.887587 1_555
Nd1 S6 2.887587 1_555
Nd1 S8 2.887588 1_555
Nd1 S16 3.370245 1_656
Nd1 S15 3.370245 1_566
Nd1 S17 3.370245 1_665
Nd2 S19 2.858266 1_555
Nd2 S2 2.877767 1_555
Nd2 S10 2.889598 1_556
Nd2 S18 2.936772 1_545
Nd2 S0 2.966031 1_556
Nd2 S17 2.999675 1_555
Nd2 S12 3.046070 1_556
Nd2 S4 3.531681 1_545
Nd3 S20 2.858266 1_555
Nd3 S0 2.877767 1_555
Nd3 S11 2.889598 1_655
Nd3 S19 2.936772 1_554
Nd3 S1 2.966031 1_655
Nd3 S15 2.999675 1_555
Nd3 S13 3.046070 1_655
Nd3 S5 3.531681 1_554
Nd4 S18 2.858266 1_555
Nd4 S1 2.877767 1_555
Nd4 S9 2.889598 1_565
Nd4 S20 2.936772 1_455
Nd4 S2 2.966031 1_565
Nd4 S16 2.999675 1_555
Nd4 S14 3.046070 1_565
Nd4 S3 3.531681 1_455
Nd5 S23 2.858266 1_556
Nd5 S4 2.877767 1_555
Nd5 S8 2.889598 1_555
Nd5 S21 2.936772 1_555
Nd5 S3 2.966031 1_556
Nd5 S13 2.999675 1_555
Nd5 S15 3.046070 1_566
Nd5 S2 3.531681 1_555
Nd6 S21 2.858266 1_655
Nd6 S5 2.877767 1_555
Nd6 S6 2.889598 1_555
Nd6 S22 2.936772 1_555
Nd6 S4 2.966031 1_655
Nd6 S14 2.999675 1_555
Nd6 S16 3.046070 1_656
Nd6 S0 3.531681 1_555
Nd7 S22 2.858266 1_565
Nd7 S3 2.877767 1_555
Nd7 S7 2.889598 1_555
Nd7 S23 2.936772 1_555
Nd7 S5 2.966031 1_565
Nd7 S12 2.999675 1_555
Nd7 S17 3.046070 1_665
Nd7 S1 3.531681 1_555
S0 Si0 2.113679 1_555
S1 Si1 2.113679 1_555
S2 Si2 2.113679 1_555
S3 Si3 2.113679 1_565
S4 Si4 2.113679 1_556
S5 Si5 2.113679 1_655
S6 Si0 2.158105 1_555
S7 Si1 2.158105 1_555
S8 Si2 2.158105 1_555
S9 Si3 2.158105 1_455
S10 Si4 2.158105 1_545
S11 Si5 2.158105 1_554
S12 Si0 2.107278 1_555
S13 Si1 2.107278 1_555
S14 Si2 2.107278 1_555
S15 Si3 2.107278 1_555
S16 Si4 2.107278 1_555
S17 Si5 2.107278 1_555
S18 Si0 2.117809 1_455
S19 Si1 2.117809 1_545
S20 Si2 2.117809 1_554
S21 Si3 2.117809 1_455
S22 Si4 2.117809 1_545
S23 Si5 2.117809 1_554
