# generated using pymatgen
data_SrCaMg6
_symmetry_space_group_name_H-M   'P 1'
_cell_length_a   5.35104100
_cell_length_b   7.33614900
_cell_length_c   11.67090700
_cell_angle_alpha   90.00000000
_cell_angle_beta   90.00000000
_cell_angle_gamma   90.00000000
_symmetry_Int_Tables_number   1
_chemical_formula_structural   SrCaMg6
_chemical_formula_sum   'Sr2 Ca2 Mg12'
_cell_volume   458.15352295
_cell_formula_units_Z   2
loop_
 _symmetry_equiv_pos_site_id
 _symmetry_equiv_pos_as_xyz
  1  'x, y, z'
loop_
 _atom_site_type_symbol
 _atom_site_label
 _atom_site_symmetry_multiplicity
 _atom_site_fract_x
 _atom_site_fract_y
 _atom_site_fract_z
 _atom_site_occupancy
  Sr  Sr0  1  0.50000000  0.50000000  0.10611300  1
  Sr  Sr1  1  0.50000000  0.00000000  0.60611300  1
  Ca  Ca0  1  0.00000000  0.50000000  0.39620200  1
  Ca  Ca1  1  0.00000000  0.00000000  0.89620200  1
  Mg  Mg0  1  0.00000000  0.21485800  0.16219500  1
  Mg  Mg1  1  0.00000000  0.78514200  0.16219500  1
  Mg  Mg2  1  0.00000000  0.50000000  0.90931100  1
  Mg  Mg3  1  0.50000000  0.28513900  0.83955000  1
  Mg  Mg4  1  0.50000000  0.71486100  0.83955000  1
  Mg  Mg5  1  0.50000000  0.50000000  0.58488300  1
  Mg  Mg6  1  0.00000000  0.71485800  0.66219500  1
  Mg  Mg7  1  0.00000000  0.28514200  0.66219500  1
  Mg  Mg8  1  0.00000000  0.00000000  0.40931100  1
  Mg  Mg9  1  0.50000000  0.78513900  0.33955000  1
  Mg  Mg10  1  0.50000000  0.21486100  0.33955000  1
  Mg  Mg11  1  0.50000000  0.00000000  0.08488300  1
loop_
_geom_bond_atom_site_label_1
_geom_bond_atom_site_label_2
_geom_bond_distance
_geom_bond_site_symmetry_2
Ca0 Mg1 3.440142 1_555
Ca0 Mg0 3.440142 1_555
Ca0 Mg9 3.459955 1_455
Ca0 Mg9 3.459955 1_555
Ca0 Mg10 3.459955 1_455
Ca0 Mg10 3.459955 1_555
Ca0 Mg5 3.465193 1_555
Ca0 Mg5 3.465193 1_455
Ca0 Mg6 3.481620 1_555
Ca0 Mg7 3.481620 1_555
Ca0 Mg8 3.671264 1_555
Ca0 Mg8 3.671264 1_565
Ca1 Mg6 3.440142 1_545
Ca1 Mg7 3.440142 1_555
Ca1 Mg3 3.459955 1_455
Ca1 Mg3 3.459955 1_555
Ca1 Mg4 3.459955 1_445
Ca1 Mg4 3.459955 1_545
Ca1 Mg11 3.465193 1_556
Ca1 Mg11 3.465193 1_456
Ca1 Mg1 3.481620 1_546
Ca1 Mg0 3.481620 1_556
Ca1 Mg2 3.671264 1_555
Ca1 Mg2 3.671264 1_545
Mg0 Mg1 3.152461 1_545
Mg0 Mg11 3.233738 1_455
Mg0 Mg11 3.233738 1_555
Mg0 Mg8 3.286693 1_555
Mg0 Mg10 3.382731 1_455
Mg0 Mg10 3.382731 1_555
Mg0 Sr0 3.458703 1_455
Mg0 Sr0 3.458703 1_555
Mg1 Mg11 3.233738 1_565
Mg1 Mg11 3.233738 1_465
Mg1 Mg8 3.286693 1_565
Mg1 Mg9 3.382731 1_555
Mg1 Mg9 3.382731 1_455
Mg1 Sr0 3.458703 1_555
Mg1 Sr0 3.458703 1_455
Mg2 Mg3 3.210274 1_455
Mg2 Mg4 3.210274 1_455
Mg2 Mg3 3.210274 1_555
Mg2 Mg4 3.210274 1_555
Mg2 Mg6 3.286693 1_555
Mg2 Mg7 3.286693 1_555
Mg2 Sr0 3.526183 1_456
Mg2 Sr0 3.526183 1_556
Mg3 Mg4 3.152505 1_555
Mg3 Mg5 3.364300 1_555
Mg3 Mg7 3.382731 1_655
Mg3 Mg7 3.382731 1_555
Mg3 Sr1 3.434850 1_555
Mg3 Sr0 3.487562 1_556
Mg4 Mg5 3.364300 1_555
Mg4 Mg6 3.382731 1_555
Mg4 Mg6 3.382731 1_655
Mg4 Sr1 3.434850 1_565
Mg4 Sr0 3.487562 1_556
Mg5 Mg7 3.233738 1_655
Mg5 Mg6 3.233738 1_555
Mg5 Mg6 3.233738 1_655
Mg5 Mg7 3.233738 1_555
Mg5 Mg9 3.545979 1_555
Mg5 Sr1 3.676433 1_555
Mg5 Sr1 3.676433 1_565
Mg6 Mg7 3.152461 1_555
Mg6 Sr1 3.458703 1_565
Mg6 Sr1 3.458703 1_465
Mg7 Sr1 3.458703 1_455
Mg7 Sr1 3.458703 1_555
Mg8 Mg9 3.210274 1_445
Mg8 Mg9 3.210274 1_545
Mg8 Sr1 3.526183 1_455
Mg8 Sr1 3.526183 1_555
Mg9 Sr0 3.434850 1_555
Mg9 Sr1 3.487562 1_565
Mg10 Mg9 3.152505 1_545
Mg10 Mg8 3.210274 1_555
Mg10 Mg8 3.210274 1_655
Mg10 Mg11 3.364300 1_555
Mg10 Sr0 3.434850 1_555
Mg10 Sr1 3.487562 1_555
Mg10 Mg5 3.545979 1_555
Mg11 Mg9 3.364300 1_545
Mg11 Mg3 3.545979 1_554
Mg11 Mg4 3.545979 1_544
Mg11 Sr0 3.676433 1_555
Mg11 Sr0 3.676433 1_545
