# generated using pymatgen
data_Mg(BO2)12
_symmetry_space_group_name_H-M   'P 1'
_cell_length_a   8.66517300
_cell_length_b   8.82844600
_cell_length_c   11.81757589
_cell_angle_alpha   77.00051329
_cell_angle_beta   90.00000000
_cell_angle_gamma   90.00000000
_symmetry_Int_Tables_number   1
_chemical_formula_structural   Mg(BO2)12
_chemical_formula_sum   'Mg2 B24 O48'
_cell_volume   880.87591115
_cell_formula_units_Z   2
loop_
 _symmetry_equiv_pos_site_id
 _symmetry_equiv_pos_as_xyz
  1  'x, y, z'
loop_
 _atom_site_type_symbol
 _atom_site_label
 _atom_site_symmetry_multiplicity
 _atom_site_fract_x
 _atom_site_fract_y
 _atom_site_fract_z
 _atom_site_occupancy
  Mg  Mg0  1  0.50000000  0.50000000  0.50000000  1
  Mg  Mg1  1  0.00000000  0.00000000  0.50000000  1
  B  B0  1  0.09637600  0.21040700  0.02638400  1
  B  B1  1  0.59637600  0.28959300  0.97361600  1
  B  B2  1  0.90362400  0.78959300  0.97361600  1
  B  B3  1  0.40362400  0.71040700  0.02638400  1
  B  B4  1  0.10116200  0.39337600  0.14445500  1
  B  B5  1  0.60116200  0.10662400  0.85554500  1
  B  B6  1  0.89883800  0.60662400  0.85554500  1
  B  B7  1  0.39883800  0.89337600  0.14445500  1
  B  B8  1  0.96135300  0.14436800  0.21391800  1
  B  B9  1  0.46135300  0.35563200  0.78608200  1
  B  B10  1  0.03864700  0.85563200  0.78608200  1
  B  B11  1  0.53864700  0.64436800  0.21391800  1
  B  B12  1  0.71068400  0.06185900  0.35533000  1
  B  B13  1  0.21068400  0.43814100  0.64467000  1
  B  B14  1  0.28931600  0.93814100  0.64467000  1
  B  B15  1  0.78931600  0.56185900  0.35533000  1
  B  B16  1  0.75313200  0.26195300  0.47299900  1
  B  B17  1  0.25313200  0.23804700  0.52700100  1
  B  B18  1  0.24686800  0.73804700  0.52700100  1
  B  B19  1  0.74686800  0.76195300  0.47299900  1
  B  B20  1  0.48788700  0.20070200  0.41520400  1
  B  B21  1  0.98788700  0.29929800  0.58479600  1
  B  B22  1  0.51211300  0.79929800  0.58479600  1
  B  B23  1  0.01211300  0.70070200  0.41520400  1
  O  O0  1  0.14356400  0.16824100  0.92664100  1
  O  O1  1  0.64356400  0.33175900  0.07335900  1
  O  O2  1  0.85643600  0.83175900  0.07335900  1
  O  O3  1  0.35643600  0.66824100  0.92664100  1
  O  O4  1  0.14695800  0.53365700  0.16545800  1
  O  O5  1  0.64695800  0.96634300  0.83454200  1
  O  O6  1  0.85304200  0.46634300  0.83454200  1
  O  O7  1  0.35304200  0.03365700  0.16545800  1
  O  O8  1  0.02999000  0.03886900  0.31290000  1
  O  O9  1  0.52999000  0.46113100  0.68710000  1
  O  O10  1  0.97001000  0.96113100  0.68710000  1
  O  O11  1  0.47001000  0.53886900  0.31290000  1
  O  O12  1  0.79886700  0.10878100  0.24470900  1
  O  O13  1  0.29886700  0.39121900  0.75529100  1
  O  O14  1  0.20113300  0.89121900  0.75529100  1
  O  O15  1  0.70113300  0.60878100  0.24470900  1
  O  O16  1  0.70306800  0.89046400  0.37234100  1
  O  O17  1  0.20306800  0.60953600  0.62765900  1
  O  O18  1  0.29693200  0.10953600  0.62765900  1
  O  O19  1  0.79693200  0.39046400  0.37234100  1
  O  O20  1  0.14983900  0.35182400  0.04474100  1
  O  O21  1  0.64983900  0.14817600  0.95525900  1
  O  O22  1  0.85016100  0.64817600  0.95525900  1
  O  O23  1  0.35016100  0.85182400  0.04474100  1
  O  O24  1  0.99989300  0.11351500  0.10191700  1
  O  O25  1  0.49989300  0.38648500  0.89808300  1
  O  O26  1  0.00010700  0.88648500  0.89808300  1
  O  O27  1  0.50010700  0.61351500  0.10191700  1
  O  O28  1  0.00475900  0.30158700  0.22452100  1
  O  O29  1  0.50475900  0.19841300  0.77547900  1
  O  O30  1  0.99524100  0.69841300  0.77547900  1
  O  O31  1  0.49524100  0.80158700  0.22452100  1
  O  O32  1  0.79248400  0.11109400  0.44977900  1
  O  O33  1  0.29248400  0.38890600  0.55022100  1
  O  O34  1  0.20751600  0.88890600  0.55022100  1
  O  O35  1  0.70751600  0.61109400  0.44977900  1
  O  O36  1  0.55272900  0.11637100  0.34326500  1
  O  O37  1  0.05272900  0.38362900  0.65673500  1
  O  O38  1  0.44727100  0.88362900  0.65673500  1
  O  O39  1  0.94727100  0.61637100  0.34326500  1
  O  O40  1  0.58247300  0.27939100  0.48035300  1
  O  O41  1  0.08247300  0.22060900  0.51964700  1
  O  O42  1  0.41752700  0.72060900  0.51964700  1
  O  O43  1  0.91752700  0.77939100  0.48035300  1
  O  O44  1  0.33094800  0.20811000  0.42598100  1
  O  O45  1  0.83094800  0.29189000  0.57401900  1
  O  O46  1  0.66905200  0.79189000  0.57401900  1
  O  O47  1  0.16905200  0.70811000  0.42598100  1
loop_
_geom_bond_atom_site_label_1
_geom_bond_atom_site_label_2
_geom_bond_distance
_geom_bond_site_symmetry_2
Mg0 O35 2.070191 1_555
Mg0 O33 2.070191 1_555
Mg0 O42 2.135730 1_555
Mg0 O40 2.135730 1_555
Mg0 O9 2.175492 1_555
Mg0 O11 2.175492 1_555
Mg1 O34 2.070191 1_545
Mg1 O32 2.070191 1_455
Mg1 O41 2.135730 1_555
Mg1 O43 2.135730 1_445
Mg1 O8 2.175492 1_555
Mg1 O10 2.175492 1_445
B0 O24 1.372567 1_455
B0 O0 1.375703 1_554
B0 O20 1.393649 1_555
B1 O25 1.372567 1_555
B1 O1 1.375703 1_556
B1 O21 1.393649 1_555
B2 O26 1.372567 1_655
B2 O2 1.375703 1_556
B2 O22 1.393649 1_555
B3 O27 1.372567 1_555
B3 O3 1.375703 1_554
B3 O23 1.393649 1_555
B4 O4 1.375195 1_555
B4 O20 1.376783 1_555
B4 O28 1.380146 1_555
B5 O5 1.375195 1_545
B5 O21 1.376783 1_555
B5 O29 1.380146 1_555
B6 O6 1.375195 1_555
B6 O22 1.376783 1_555
B6 O30 1.380146 1_555
B7 O7 1.375195 1_565
B7 O23 1.376783 1_555
B7 O31 1.380146 1_555
B8 O8 1.448912 1_655
B8 O24 1.449061 1_555
B8 O28 1.470358 1_655
B8 O12 1.470394 1_555
B9 O9 1.448912 1_555
B9 O25 1.449061 1_555
B9 O29 1.470358 1_555
B9 O13 1.470394 1_555
B10 O10 1.448912 1_455
B10 O26 1.449061 1_555
B10 O30 1.470358 1_455
B10 O14 1.470394 1_555
B11 O11 1.448912 1_555
B11 O27 1.449061 1_555
B11 O31 1.470358 1_555
B11 O15 1.470394 1_555
B12 O36 1.447213 1_555
B12 O32 1.468136 1_555
B12 O16 1.482412 1_545
B12 O12 1.490240 1_555
B13 O37 1.447213 1_555
B13 O33 1.468136 1_555
B13 O17 1.482412 1_555
B13 O13 1.490240 1_555
B14 O38 1.447213 1_555
B14 O34 1.468136 1_555
B14 O18 1.482412 1_565
B14 O14 1.490240 1_555
B15 O39 1.447213 1_555
B15 O35 1.468136 1_555
B15 O19 1.482412 1_555
B15 O15 1.490240 1_555
B16 O45 1.446255 1_555
B16 O32 1.459389 1_555
B16 O40 1.491339 1_555
B16 O19 1.496358 1_555
B17 O44 1.446255 1_555
B17 O33 1.459389 1_555
B17 O41 1.491339 1_555
B17 O18 1.496358 1_555
B18 O47 1.446255 1_555
B18 O34 1.459389 1_555
B18 O42 1.491339 1_555
B18 O17 1.496358 1_555
B19 O46 1.446255 1_555
B19 O35 1.459389 1_555
B19 O43 1.491339 1_555
B19 O16 1.496358 1_555
B20 O44 1.368789 1_555
B20 O36 1.370215 1_555
B20 O40 1.409870 1_555
B21 O45 1.368789 1_555
B21 O37 1.370215 1_655
B21 O41 1.409870 1_655
B22 O46 1.368789 1_555
B22 O38 1.370215 1_555
B22 O42 1.409870 1_555
B23 O47 1.368789 1_555
B23 O39 1.370215 1_455
B23 O43 1.409870 1_455
