# generated using pymatgen
data_Y2Al3Fe14
_symmetry_space_group_name_H-M   'P 1'
_cell_length_a   8.21028300
_cell_length_b   8.54911252
_cell_length_c   8.54911252
_cell_angle_alpha   119.99464875
_cell_angle_beta   90.00000000
_cell_angle_gamma   90.00000000
_symmetry_Int_Tables_number   1
_chemical_formula_structural   Y2Al3Fe14
_chemical_formula_sum   'Y4 Al6 Fe28'
_cell_volume   519.70182392
_cell_formula_units_Z   2
loop_
 _symmetry_equiv_pos_site_id
 _symmetry_equiv_pos_as_xyz
  1  'x, y, z'
loop_
 _atom_site_type_symbol
 _atom_site_label
 _atom_site_symmetry_multiplicity
 _atom_site_fract_x
 _atom_site_fract_y
 _atom_site_fract_z
 _atom_site_occupancy
  Y  Y0  1  0.75000000  0.99996500  0.00003500  1
  Y  Y1  1  0.25000000  0.00003500  0.99996500  1
  Y  Y2  1  0.25000000  0.66653100  0.33346900  1
  Y  Y3  1  0.75000000  0.33346900  0.66653100  1
  Al  Al0  1  0.50000000  0.50000000  0.00000000  1
  Al  Al1  1  0.50000000  0.50000000  0.50000000  1
  Al  Al2  1  0.50000000  0.00000000  0.50000000  1
  Al  Al3  1  0.00000000  0.50000000  0.00000000  1
  Al  Al4  1  0.00000000  0.50000000  0.50000000  1
  Al  Al5  1  0.00000000  0.00000000  0.50000000  1
  Fe  Fe0  1  0.61157400  0.66665700  0.33334300  1
  Fe  Fe1  1  0.38842600  0.33334300  0.66665700  1
  Fe  Fe2  1  0.11157400  0.33334300  0.66665700  1
  Fe  Fe3  1  0.88842600  0.66665700  0.33334300  1
  Fe  Fe4  1  0.75000000  0.67698000  0.02954400  1
  Fe  Fe5  1  0.75000000  0.35267600  0.32301800  1
  Fe  Fe6  1  0.75000000  0.97020500  0.64718800  1
  Fe  Fe7  1  0.75000000  0.35281200  0.02979500  1
  Fe  Fe8  1  0.75000000  0.97045600  0.32302000  1
  Fe  Fe9  1  0.75000000  0.67698200  0.64732400  1
  Fe  Fe10  1  0.25000000  0.32302000  0.97045600  1
  Fe  Fe11  1  0.25000000  0.64732400  0.67698200  1
  Fe  Fe12  1  0.25000000  0.02979500  0.35281200  1
  Fe  Fe13  1  0.25000000  0.64718800  0.97020500  1
  Fe  Fe14  1  0.25000000  0.02954400  0.67698000  1
  Fe  Fe15  1  0.25000000  0.32301800  0.35267600  1
  Fe  Fe16  1  0.48809400  0.83391300  0.66799500  1
  Fe  Fe17  1  0.48838500  0.83399600  0.16600400  1
  Fe  Fe18  1  0.48809400  0.33200500  0.16608700  1
  Fe  Fe19  1  0.51190600  0.16608700  0.33200500  1
  Fe  Fe20  1  0.51161500  0.16600400  0.83399600  1
  Fe  Fe21  1  0.51190600  0.66799500  0.83391300  1
  Fe  Fe22  1  0.98809400  0.16608700  0.33200500  1
  Fe  Fe23  1  0.98838500  0.16600400  0.83399600  1
  Fe  Fe24  1  0.98809400  0.66799500  0.83391300  1
  Fe  Fe25  1  0.01190600  0.83391300  0.66799500  1
  Fe  Fe26  1  0.01161500  0.83399600  0.16600400  1
  Fe  Fe27  1  0.01190600  0.33200500  0.16608700  1
loop_
_geom_bond_atom_site_label_1
_geom_bond_atom_site_label_2
_geom_bond_distance
_geom_bond_site_symmetry_2
Al0 Fe17 2.474808 1_555
Al0 Fe20 2.474808 1_554
Al0 Fe18 2.475337 1_555
Al0 Fe21 2.475337 1_554
Al0 Fe13 2.486320 1_554
Al0 Fe7 2.486320 1_555
Al0 Fe10 2.486762 1_554
Al0 Fe4 2.486762 1_555
Al0 Fe0 2.632637 1_555
Al0 Fe1 2.632637 1_554
Al0 Y2 3.210806 1_555
Al0 Y3 3.210806 1_554
Al1 Fe21 2.474290 1_555
Al1 Fe16 2.474290 1_555
Al1 Fe18 2.474290 1_555
Al1 Fe19 2.474290 1_555
Al1 Fe11 2.486624 1_555
Al1 Fe9 2.486624 1_555
Al1 Fe5 2.486624 1_555
Al1 Fe15 2.486624 1_555
Al1 Fe1 2.632248 1_555
Al1 Fe0 2.632248 1_555
Al1 Y3 3.208336 1_555
Al1 Y2 3.208336 1_555
Al2 Fe20 2.474808 1_555
Al2 Fe17 2.474808 1_545
Al2 Fe19 2.475337 1_555
Al2 Fe16 2.475337 1_545
Al2 Fe6 2.486320 1_545
Al2 Fe12 2.486320 1_555
Al2 Fe8 2.486762 1_545
Al2 Fe14 2.486762 1_555
Al2 Fe1 2.632637 1_555
Al2 Fe0 2.632637 1_545
Al2 Y3 3.210806 1_555
Al2 Y2 3.210806 1_545
Al3 Fe26 2.474808 1_555
Al3 Fe23 2.474808 1_454
Al3 Fe27 2.475337 1_555
Al3 Fe24 2.475337 1_454
Al3 Fe13 2.486320 1_554
Al3 Fe7 2.486320 1_455
Al3 Fe10 2.486762 1_554
Al3 Fe4 2.486762 1_455
Al3 Fe3 2.632637 1_455
Al3 Fe2 2.632637 1_554
Al3 Y2 3.210806 1_555
Al3 Y3 3.210806 1_454
Al4 Fe24 2.474290 1_455
Al4 Fe25 2.474290 1_555
Al4 Fe27 2.474290 1_555
Al4 Fe22 2.474290 1_455
Al4 Fe11 2.486624 1_555
Al4 Fe9 2.486624 1_455
Al4 Fe5 2.486624 1_455
Al4 Fe15 2.486624 1_555
Al4 Fe2 2.632248 1_555
Al4 Fe3 2.632248 1_455
Al4 Y3 3.208336 1_455
Al4 Y2 3.208336 1_555
Al5 Fe23 2.474808 1_455
Al5 Fe26 2.474808 1_545
Al5 Fe22 2.475337 1_455
Al5 Fe25 2.475337 1_545
Al5 Fe6 2.486320 1_445
Al5 Fe12 2.486320 1_555
Al5 Fe8 2.486762 1_445
Al5 Fe14 2.486762 1_555
Al5 Fe2 2.632637 1_555
Al5 Fe3 2.632637 1_445
Al5 Y3 3.210806 1_455
Al5 Y2 3.210806 1_545
Fe0 Fe3 2.273033 1_555
Fe0 Fe17 2.676281 1_555
Fe0 Fe18 2.677192 1_555
Fe0 Fe16 2.677192 1_555
Fe0 Fe7 2.874606 1_555
Fe0 Fe6 2.874606 1_555
Fe0 Fe5 2.875380 1_555
Fe0 Fe9 2.875380 1_555
Fe0 Fe8 2.876481 1_555
Fe0 Fe4 2.876481 1_555
Fe0 Y2 2.968625 1_555
Fe1 Fe2 2.273033 1_555
Fe1 Fe20 2.676281 1_555
Fe1 Fe19 2.677192 1_555
Fe1 Fe21 2.677192 1_555
Fe1 Fe12 2.874606 1_555
Fe1 Fe13 2.874606 1_555
Fe1 Fe15 2.875380 1_555
Fe1 Fe11 2.875380 1_555
Fe1 Fe10 2.876481 1_555
Fe1 Fe14 2.876481 1_555
Fe1 Y3 2.968625 1_555
Fe2 Fe23 2.676281 1_455
Fe2 Fe22 2.677192 1_455
Fe2 Fe24 2.677192 1_455
Fe2 Y3 2.968625 1_455
Fe3 Fe7 2.874606 1_555
Fe3 Fe6 2.874606 1_555
Fe3 Fe5 2.875380 1_555
Fe3 Fe9 2.875380 1_555
Fe3 Fe8 2.876481 1_555
Fe3 Fe4 2.876481 1_555
Fe3 Y2 2.968625 1_655
Fe4 Fe8 2.509162 1_555
Fe4 Fe7 2.772422 1_555
Fe4 Y0 2.895607 1_555
Fe4 Y3 3.023770 1_554
Fe5 Fe7 2.507378 1_555
Fe5 Fe9 2.772753 1_555
Fe5 Y0 2.896899 1_545
Fe5 Y3 3.022167 1_555
Fe6 Fe9 2.507378 1_555
Fe6 Fe8 2.772422 1_555
Fe6 Y0 2.897728 1_556
Fe6 Y3 3.026306 1_565
Fe7 Y0 2.897728 1_545
Fe7 Y3 3.026306 1_554
Fe8 Y0 2.895607 1_555
Fe8 Y3 3.023770 1_565
Fe9 Y0 2.896899 1_556
Fe9 Y3 3.022167 1_555
Fe10 Fe20 2.492138 1_555
Fe10 Fe23 2.492138 1_455
Fe10 Fe14 2.509162 1_555
Fe10 Fe18 2.548712 1_556
Fe10 Fe27 2.548712 1_556
Fe10 Fe13 2.772422 1_555
Fe10 Fe2 2.876481 1_555
Fe10 Y1 2.895607 1_555
Fe10 Y2 3.023770 1_556
Fe11 Fe21 2.493594 1_555
Fe11 Fe24 2.493594 1_455
Fe11 Fe13 2.507378 1_555
Fe11 Fe25 2.548397 1_555
Fe11 Fe16 2.548397 1_555
Fe11 Fe15 2.772753 1_555
Fe11 Fe2 2.875380 1_555
Fe11 Y1 2.896899 1_565
Fe11 Y2 3.022167 1_555
Fe12 Fe19 2.494071 1_555
Fe12 Fe22 2.494071 1_455
Fe12 Fe15 2.507378 1_555
Fe12 Fe17 2.551530 1_545
Fe12 Fe26 2.551530 1_545
Fe12 Fe14 2.772422 1_555
Fe12 Fe2 2.874606 1_555
Fe12 Y1 2.897728 1_554
Fe12 Y2 3.026306 1_545
Fe13 Fe21 2.494071 1_555
Fe13 Fe24 2.494071 1_455
Fe13 Fe17 2.551530 1_556
Fe13 Fe26 2.551530 1_556
Fe13 Fe2 2.874606 1_555
Fe13 Y1 2.897728 1_565
Fe13 Y2 3.026306 1_556
Fe14 Fe20 2.492138 1_555
Fe14 Fe23 2.492138 1_455
Fe14 Fe25 2.548712 1_545
Fe14 Fe16 2.548712 1_545
Fe14 Fe2 2.876481 1_555
Fe14 Y1 2.895607 1_555
Fe14 Y2 3.023770 1_545
Fe15 Fe19 2.493594 1_555
Fe15 Fe22 2.493594 1_455
Fe15 Fe18 2.548397 1_555
Fe15 Fe27 2.548397 1_555
Fe15 Fe2 2.875380 1_555
Fe15 Y1 2.896899 1_554
Fe15 Y2 3.022167 1_555
Fe16 Fe21 2.464531 1_555
Fe16 Fe20 2.466423 1_565
Fe16 Fe9 2.493594 1_555
Fe16 Fe6 2.494071 1_555
Fe16 Y1 3.140519 1_565
Fe16 Y2 3.155353 1_555
Fe16 Y0 3.266187 1_556
Fe17 Fe19 2.466423 1_565
Fe17 Fe21 2.466423 1_554
Fe17 Fe4 2.492138 1_555
Fe17 Fe8 2.492138 1_555
Fe17 Y1 3.142477 1_564
Fe17 Y2 3.159024 1_555
Fe17 Y0 3.263896 1_555
Fe18 Fe19 2.464531 1_555
Fe18 Fe20 2.466423 1_554
Fe18 Fe5 2.493594 1_555
Fe18 Fe7 2.494071 1_555
Fe18 Y1 3.140519 1_554
Fe18 Y2 3.155353 1_555
Fe18 Y0 3.266187 1_545
Fe19 Fe5 2.548397 1_555
Fe19 Fe8 2.548712 1_545
Fe19 Y0 3.140519 1_545
Fe19 Y3 3.155353 1_555
Fe19 Y1 3.266187 1_554
Fe20 Fe6 2.551530 1_545
Fe20 Fe7 2.551530 1_556
Fe20 Y0 3.142477 1_546
Fe20 Y3 3.159024 1_555
Fe20 Y1 3.263896 1_555
Fe21 Fe9 2.548397 1_555
Fe21 Fe4 2.548712 1_556
Fe21 Y0 3.140519 1_556
Fe21 Y3 3.155353 1_555
Fe21 Y1 3.266187 1_565
Fe22 Fe27 2.464531 1_655
Fe22 Fe26 2.466423 1_645
Fe22 Fe5 2.548397 1_555
Fe22 Fe8 2.548712 1_545
Fe22 Y0 3.140519 1_545
Fe22 Y3 3.155353 1_555
Fe22 Y1 3.266187 1_654
Fe23 Fe25 2.466423 1_645
Fe23 Fe27 2.466423 1_656
Fe23 Fe6 2.551530 1_545
Fe23 Fe7 2.551530 1_556
Fe23 Y0 3.142477 1_546
Fe23 Y3 3.159024 1_555
Fe23 Y1 3.263896 1_655
Fe24 Fe25 2.464531 1_655
Fe24 Fe26 2.466423 1_656
Fe24 Fe9 2.548397 1_555
Fe24 Fe4 2.548712 1_556
Fe24 Y0 3.140519 1_556
Fe24 Y3 3.155353 1_555
Fe24 Y1 3.266187 1_665
Fe25 Fe9 2.493594 1_455
Fe25 Fe6 2.494071 1_455
Fe25 Fe3 2.677192 1_455
Fe25 Y1 3.140519 1_565
Fe25 Y2 3.155353 1_555
Fe25 Y0 3.266187 1_456
Fe26 Fe4 2.492138 1_455
Fe26 Fe8 2.492138 1_455
Fe26 Fe3 2.676281 1_455
Fe26 Y1 3.142477 1_564
Fe26 Y2 3.159024 1_555
Fe26 Y0 3.263896 1_455
Fe27 Fe5 2.493594 1_455
Fe27 Fe7 2.494071 1_455
Fe27 Fe3 2.677192 1_455
Fe27 Y1 3.140519 1_554
Fe27 Y2 3.155353 1_555
Fe27 Y0 3.266187 1_445
