# generated using pymatgen
data_Pr2Sn5
_symmetry_space_group_name_H-M   'P 1'
_cell_length_a   4.61885423
_cell_length_b   4.69373423
_cell_length_c   18.09082022
_cell_angle_alpha   89.99885761
_cell_angle_beta   97.40126044
_cell_angle_gamma   89.99915355
_symmetry_Int_Tables_number   1
_chemical_formula_structural   Pr2Sn5
_chemical_formula_sum   'Pr4 Sn10'
_cell_volume   388.93538100
_cell_formula_units_Z   2
loop_
 _symmetry_equiv_pos_site_id
 _symmetry_equiv_pos_as_xyz
  1  'x, y, z'
loop_
 _atom_site_type_symbol
 _atom_site_label
 _atom_site_symmetry_multiplicity
 _atom_site_fract_x
 _atom_site_fract_y
 _atom_site_fract_z
 _atom_site_occupancy
  Pr  Pr0  1  0.93124587  0.50000372  0.86307782  1
  Pr  Pr1  1  0.06874985  0.49999723  0.13699723  1
  Pr  Pr2  1  0.79737764  0.50000263  0.59543236  1
  Pr  Pr3  1  0.20254909  0.49999633  0.40450784  1
  Sn  Sn0  1  0.63734078  0.49999889  0.27392131  1
  Sn  Sn1  1  0.36264083  0.50000324  0.72609201  1
  Sn  Sn2  1  0.72325121  0.00000092  0.44509743  1
  Sn  Sn3  1  0.27675023  0.00000443  0.55483840  1
  Sn  Sn4  1  0.50002232  0.49999891  -0.00000591  1
  Sn  Sn5  1  0.57300153  0.99999759  0.14448754  1
  Sn  Sn6  1  0.42702457  0.00000462  0.85554852  1
  Sn  Sn7  1  0.86368188  -0.00000575  0.72527146  1
  Sn  Sn8  1  0.13631949  -0.00000170  0.27473760  1
  Sn  Sn9  1  0.00004371  -0.00000106  -0.00000362  1
loop_
_geom_bond_atom_site_label_1
_geom_bond_atom_site_label_2
_geom_bond_distance
_geom_bond_site_symmetry_2
Pr0 Sn6 3.293981 1_655
Pr0 Sn6 3.294031 1_665
Pr0 Sn6 3.296717 1_565
Pr0 Sn6 3.296764 1_555
Pr0 Sn4 3.370510 1_656
Pr0 Sn1 3.370767 1_555
Pr0 Sn4 3.372432 1_556
Pr0 Sn1 3.373995 1_655
Pr0 Sn9 3.397235 1_656
Pr0 Sn9 3.397279 1_666
Pr0 Sn7 3.408734 1_565
Pr0 Sn7 3.408870 1_555
Pr1 Sn5 3.293795 1_455
Pr1 Sn5 3.293836 1_445
Pr1 Sn5 3.296847 1_545
Pr1 Sn5 3.296902 1_555
Pr1 Sn0 3.370013 1_555
Pr1 Sn4 3.371353 1_455
Pr1 Sn0 3.373134 1_455
Pr1 Sn4 3.373861 1_555
Pr1 Sn9 3.398293 1_565
Pr1 Sn9 3.398356 1_555
Pr1 Sn8 3.407902 1_555
Pr1 Sn8 3.407984 1_565
Pr2 Sn1 3.288454 1_655
Pr2 Sn1 3.292735 1_555
Pr2 Sn7 3.306584 1_555
Pr2 Sn7 3.306601 1_565
Pr2 Sn3 3.371700 1_655
Pr2 Sn3 3.371737 1_665
Pr2 Sn3 3.372613 1_565
Pr2 Sn3 3.372671 1_555
Pr2 Sn2 3.575117 1_565
Pr2 Sn2 3.575206 1_555
Pr3 Sn0 3.287461 1_455
Pr3 Sn0 3.291859 1_555
Pr3 Sn8 3.305693 1_565
Pr3 Sn8 3.305752 1_555
Pr3 Sn2 3.371456 1_455
Pr3 Sn2 3.371461 1_465
Pr3 Sn2 3.372819 1_555
Pr3 Sn2 3.372919 1_565
Pr3 Sn3 3.575038 1_555
Pr3 Sn3 3.575166 1_565
Sn0 Sn8 3.287974 1_655
Sn0 Sn8 3.288019 1_665
Sn0 Sn8 3.297256 1_565
Sn0 Sn8 3.297309 1_555
Sn0 Sn5 3.301435 1_555
Sn0 Sn5 3.301516 1_545
Sn1 Sn7 3.287872 1_465
Sn1 Sn7 3.287981 1_455
Sn1 Sn7 3.297348 1_565
Sn1 Sn7 3.297360 1_555
Sn1 Sn6 3.301721 1_555
Sn1 Sn6 3.301803 1_565
Sn2 Sn3 3.028145 1_655
Sn2 Sn3 3.041291 1_555
Sn4 Sn9 3.292514 1_565
Sn4 Sn9 3.292562 1_555
Sn4 Sn9 3.292645 1_655
Sn4 Sn9 3.292694 1_665
Sn4 Sn6 3.496116 1_564
Sn4 Sn6 3.496157 1_554
Sn4 Sn5 3.496739 1_545
Sn4 Sn5 3.496807 1_555
Sn5 Sn8 3.277584 1_665
Sn5 Sn8 3.293161 1_565
Sn5 Sn9 3.471554 1_665
Sn5 Sn9 3.471897 1_565
Sn6 Sn7 3.277966 1_455
Sn6 Sn7 3.293469 1_555
Sn6 Sn9 3.470718 1_556
Sn6 Sn9 3.471572 1_656
