# generated using pymatgen
data_Ca2AgPd
_symmetry_space_group_name_H-M   'P 1'
_cell_length_a   5.09012379
_cell_length_b   5.09012379
_cell_length_c   5.09012379
_cell_angle_alpha   60.00000000
_cell_angle_beta   60.00000000
_cell_angle_gamma   60.00000000
_symmetry_Int_Tables_number   1
_chemical_formula_structural   Ca2AgPd
_chemical_formula_sum   'Ca2 Ag1 Pd1'
_cell_volume   93.25455104
_cell_formula_units_Z   1
loop_
 _symmetry_equiv_pos_site_id
 _symmetry_equiv_pos_as_xyz
  1  'x, y, z'
loop_
 _atom_site_type_symbol
 _atom_site_label
 _atom_site_symmetry_multiplicity
 _atom_site_fract_x
 _atom_site_fract_y
 _atom_site_fract_z
 _atom_site_occupancy
  Ca  Ca0  1  0.25000000  0.25000000  0.25000000  1
  Ca  Ca1  1  0.75000000  0.75000000  0.75000000  1
  Ag  Ag0  1  0.50000000  0.50000000  0.50000000  1
  Pd  Pd0  1  0.00000000  -0.00000000  -0.00000000  1
loop_
_geom_bond_atom_site_label_1
_geom_bond_atom_site_label_2
_geom_bond_distance
_geom_bond_site_symmetry_2
Ca0 Pd0 3.117052 1_555
Ca0 Pd0 3.117052 1_556
Ca0 Pd0 3.117052 1_565
Ca0 Pd0 3.117052 1_655
Ca1 Pd0 3.117052 1_566
Ca1 Pd0 3.117052 1_656
Ca1 Pd0 3.117052 1_666
Ca1 Pd0 3.117052 1_665
Ag0 Ca1 3.117052 1_554
Ag0 Ca1 3.117052 1_455
Ag0 Ca0 3.117052 1_555
Ag0 Ca1 3.117052 1_545
Ag0 Ca1 3.117052 1_555
Ag0 Ca0 3.117052 1_655
Ag0 Ca0 3.117052 1_565
Ag0 Ca0 3.117052 1_556
