# generated using pymatgen
data_Ho3SbO3
_symmetry_space_group_name_H-M   'P 1'
_cell_length_a   6.80503926
_cell_length_b   6.80503926
_cell_length_c   11.69258586
_cell_angle_alpha   62.97646571
_cell_angle_beta   62.97646571
_cell_angle_gamma   32.89429602
_symmetry_Int_Tables_number   1
_chemical_formula_structural   Ho3SbO3
_chemical_formula_sum   'Ho6 Sb2 O6'
_cell_volume   258.97306671
_cell_formula_units_Z   2
loop_
 _symmetry_equiv_pos_site_id
 _symmetry_equiv_pos_as_xyz
  1  'x, y, z'
loop_
 _atom_site_type_symbol
 _atom_site_label
 _atom_site_symmetry_multiplicity
 _atom_site_fract_x
 _atom_site_fract_y
 _atom_site_fract_z
 _atom_site_occupancy
  Ho  Ho0  1  0.12086300  0.12086300  0.55697000  1
  Ho  Ho1  1  0.87913700  0.87913700  0.44303000  1
  Ho  Ho2  1  0.34249000  0.34249000  0.20754500  1
  Ho  Ho3  1  0.65751000  0.65751000  0.79245500  1
  Ho  Ho4  1  0.87189100  0.87189100  0.90173400  1
  Ho  Ho5  1  0.12810900  0.12810900  0.09826600  1
  Sb  Sb0  1  0.38232500  0.38232500  0.68039500  1
  Sb  Sb1  1  0.61767500  0.61767500  0.31960500  1
  O  O0  1  0.31079000  0.31079000  0.40906800  1
  O  O1  1  0.68921000  0.68921000  0.59093200  1
  O  O2  1  0.33538100  0.33538100  0.01555100  1
  O  O3  1  0.66461900  0.66461900  0.98444900  1
  O  O4  1  0.93674400  0.93674400  0.19142100  1
  O  O5  1  0.06325600  0.06325600  0.80857900  1
loop_
_geom_bond_atom_site_label_1
_geom_bond_atom_site_label_2
_geom_bond_distance
_geom_bond_site_symmetry_2
Ho0 O1 2.236407 1_545
Ho0 O1 2.236407 1_455
Ho0 O0 2.252706 1_555
Ho0 O5 2.669180 1_555
Ho0 Sb0 3.351475 1_545
Ho0 Sb0 3.351475 1_455
Ho0 Sb1 3.395040 1_455
Ho0 Sb1 3.395040 1_545
Ho1 O0 2.236407 1_565
Ho1 O0 2.236407 1_655
Ho1 O1 2.252706 1_555
Ho1 O4 2.669180 1_555
Ho1 Sb1 3.351475 1_565
Ho1 Sb1 3.351475 1_655
Ho1 Sb0 3.395040 1_655
Ho1 Sb0 3.395040 1_565
Ho2 O0 2.190817 1_555
Ho2 O4 2.245368 1_455
Ho2 O4 2.245368 1_545
Ho2 O2 2.290326 1_555
Ho2 Sb1 3.224515 1_545
Ho2 Sb1 3.224515 1_455
Ho3 O1 2.190817 1_555
Ho3 O5 2.245368 1_655
Ho3 O5 2.245368 1_565
Ho3 O3 2.290326 1_555
Ho3 Sb0 3.224515 1_655
Ho3 Sb0 3.224515 1_565
Ho4 O5 2.201842 1_665
Ho4 O2 2.260421 1_656
Ho4 O2 2.260421 1_566
Ho4 O3 2.403364 1_555
Ho4 Sb0 3.177214 1_565
Ho4 Sb0 3.177214 1_655
Ho5 O4 2.201842 1_445
Ho5 O3 2.260421 1_544
Ho5 O3 2.260421 1_454
Ho5 O2 2.403364 1_555
Ho5 Sb1 3.177214 1_545
Ho5 Sb1 3.177214 1_455
