# generated using pymatgen
data_Cu3P2H2O9
_symmetry_space_group_name_H-M   'P 1'
_cell_length_a   9.49412986
_cell_length_b   9.49412986
_cell_length_c   12.31735897
_cell_angle_alpha   75.74247141
_cell_angle_beta   75.74247141
_cell_angle_gamma   38.42391791
_symmetry_Int_Tables_number   1
_chemical_formula_structural   Cu3P2H2O9
_chemical_formula_sum   'Cu12 P8 H8 O36'
_cell_volume   666.12375291
_cell_formula_units_Z   4
loop_
 _symmetry_equiv_pos_site_id
 _symmetry_equiv_pos_as_xyz
  1  'x, y, z'
loop_
 _atom_site_type_symbol
 _atom_site_label
 _atom_site_symmetry_multiplicity
 _atom_site_fract_x
 _atom_site_fract_y
 _atom_site_fract_z
 _atom_site_occupancy
  Cu  Cu0  1  0.83767400  0.66338200  0.90724600  1
  Cu  Cu1  1  0.33661800  0.16232600  0.59275400  1
  Cu  Cu2  1  0.16232600  0.33661800  0.09275400  1
  Cu  Cu3  1  0.66338200  0.83767400  0.40724600  1
  Cu  Cu4  1  0.72499600  0.09210600  0.86022600  1
  Cu  Cu5  1  0.90789400  0.27500400  0.63977400  1
  Cu  Cu6  1  0.27500400  0.90789400  0.13977400  1
  Cu  Cu7  1  0.09210600  0.72499600  0.36022600  1
  Cu  Cu8  1  0.51788400  0.70862800  0.81586100  1
  Cu  Cu9  1  0.29137200  0.48211600  0.68413900  1
  Cu  Cu10  1  0.48211600  0.29137200  0.18413900  1
  Cu  Cu11  1  0.70862800  0.51788400  0.31586100  1
  P  P0  1  0.64839200  0.86087700  0.14235100  1
  P  P1  1  0.13912300  0.35160800  0.35764900  1
  P  P2  1  0.35160800  0.13912300  0.85764900  1
  P  P3  1  0.86087700  0.64839200  0.64235100  1
  P  P4  1  0.25096700  0.60621600  0.90333800  1
  P  P5  1  0.39378400  0.74903300  0.59666200  1
  P  P6  1  0.74903300  0.39378400  0.09666200  1
  P  P7  1  0.60621600  0.25096700  0.40333800  1
  H  H0  1  0.03641400  0.01536000  0.86818600  1
  H  H1  1  0.98464000  0.96358600  0.63181400  1
  H  H2  1  0.96358600  0.98464000  0.13181400  1
  H  H3  1  0.01536000  0.03641400  0.36818600  1
  H  H4  1  0.81688200  0.27447300  0.90452000  1
  H  H5  1  0.72552700  0.18311900  0.59548000  1
  H  H6  1  0.18311800  0.72552700  0.09548000  1
  H  H7  1  0.27447300  0.81688200  0.40452000  1
  O  O0  1  0.84042000  0.65310000  0.07095400  1
  O  O1  1  0.34690000  0.15958000  0.42904600  1
  O  O2  1  0.15958000  0.34690000  0.92904600  1
  O  O3  1  0.65310000  0.84042000  0.57095400  1
  O  O4  1  0.01262700  0.76455500  0.86648600  1
  O  O5  1  0.23544500  0.98737300  0.63351400  1
  O  O6  1  0.98737300  0.23544500  0.13351400  1
  O  O7  1  0.76455500  0.01262700  0.36648600  1
  O  O8  1  0.28273800  0.74857800  0.88170800  1
  O  O9  1  0.25142200  0.71726200  0.61829200  1
  O  O10  1  0.71726200  0.25142200  0.11829200  1
  O  O11  1  0.74857800  0.28273800  0.38170800  1
  O  O12  1  0.58814800  0.99972800  0.88940700  1
  O  O13  1  0.00027200  0.41185300  0.61059300  1
  O  O14  1  0.41185300  0.00027200  0.11059300  1
  O  O15  1  0.99972800  0.58814800  0.38940700  1
  O  O16  1  0.32882700  0.99312900  0.87930100  1
  O  O17  1  0.00687100  0.67117300  0.62069900  1
  O  O18  1  0.67117300  0.00687100  0.12069900  1
  O  O19  1  0.99312900  0.32882700  0.37930100  1
  O  O20  1  0.59390500  0.57219600  0.67667700  1
  O  O21  1  0.42780400  0.40609500  0.82332300  1
  O  O22  1  0.40609500  0.42780400  0.32332300  1
  O  O23  1  0.57219600  0.59390500  0.17667700  1
  O  O24  1  0.72490200  0.48558300  0.97294700  1
  O  O25  1  0.51441700  0.27509800  0.52705300  1
  O  O26  1  0.27509800  0.51441700  0.02705300  1
  O  O27  1  0.48558300  0.72490200  0.47294700  1
  O  O28  1  0.87204600  0.16706800  0.85492700  1
  O  O29  1  0.83293200  0.12795400  0.64507300  1
  O  O30  1  0.12795400  0.83293200  0.14507300  1
  O  O31  1  0.16706800  0.87204600  0.35492700  1
  O  O32  1  0.66602800  0.76580500  0.26846300  1
  O  O33  1  0.23419500  0.33397200  0.23153700  1
  O  O34  1  0.33397200  0.23419500  0.73153700  1
  O  O35  1  0.76580500  0.66602800  0.76846300  1
loop_
_geom_bond_atom_site_label_1
_geom_bond_atom_site_label_2
_geom_bond_distance
_geom_bond_site_symmetry_2
Cu0 O35 1.978614 1_555
Cu0 O12 1.978680 1_555
Cu0 O0 2.000307 1_556
Cu0 O2 2.014708 1_655
Cu0 O4 2.405278 1_655
Cu0 O24 2.526452 1_555
Cu1 O34 1.978614 1_555
Cu1 O13 1.978680 1_555
Cu1 O1 2.000307 1_555
Cu1 O3 2.014708 1_545
Cu1 O5 2.405278 1_545
Cu1 O25 2.526452 1_555
Cu2 O33 1.978614 1_555
Cu2 O14 1.978680 1_555
Cu2 O2 2.000307 1_554
Cu2 O0 2.014708 1_455
Cu2 O6 2.405278 1_455
Cu2 O26 2.526452 1_555
Cu3 O32 1.978614 1_555
Cu3 O15 1.978680 1_555
Cu3 O3 2.000307 1_555
Cu3 O1 2.014708 1_565
Cu3 O7 2.405278 1_565
Cu3 O27 2.526452 1_555
Cu4 O4 1.952813 1_645
Cu4 O21 1.959472 1_555
Cu4 O28 1.987208 1_555
Cu4 O12 1.996653 1_545
Cu5 O5 1.952813 1_645
Cu5 O20 1.959472 1_555
Cu5 O29 1.987208 1_555
Cu5 O13 1.996662 1_655
Cu6 O6 1.952813 1_465
Cu6 O23 1.959472 1_555
Cu6 O30 1.987208 1_555
Cu6 O14 1.996662 1_565
Cu7 O7 1.952813 1_465
Cu7 O22 1.959472 1_555
Cu7 O31 1.987208 1_555
Cu7 O15 1.996653 1_455
Cu8 O8 1.928377 1_555
Cu8 O16 1.969884 1_555
Cu8 O35 1.998139 1_555
Cu8 O20 2.038949 1_555
Cu8 O24 2.329087 1_555
Cu9 O9 1.928377 1_555
Cu9 O17 1.969884 1_555
Cu9 O34 1.998139 1_555
Cu9 O21 2.038949 1_555
Cu9 O25 2.329087 1_555
Cu10 O10 1.928377 1_555
Cu10 O18 1.969884 1_555
Cu10 O33 1.998139 1_555
Cu10 O22 2.038949 1_555
Cu10 O26 2.329087 1_555
Cu11 O11 1.928377 1_555
Cu11 O19 1.969884 1_555
Cu11 O32 1.998139 1_555
Cu11 O23 2.038949 1_555
Cu11 O27 2.329087 1_555
H0 O28 1.012094 1_455
H0 O8 1.617146 1_545
H1 O29 1.012094 1_565
H1 O9 1.617146 1_655
H2 O30 1.012094 1_655
H2 O10 1.617146 1_565
H3 O31 1.012094 1_545
H3 O11 1.617146 1_455
H4 O28 0.999847 1_555
H5 O29 0.999843 1_555
H6 O30 0.999847 1_555
H7 O31 0.999847 1_555
O0 P0 1.555069 1_555
O1 P1 1.555069 1_555
O2 P2 1.555069 1_555
O3 P3 1.555069 1_555
O4 P4 1.557609 1_555
O5 P5 1.557609 1_555
O6 P6 1.557609 1_555
O7 P7 1.557609 1_555
O8 P4 1.552626 1_555
O9 P5 1.552626 1_555
O10 P6 1.552626 1_555
O11 P7 1.552626 1_555
O12 P2 1.571204 1_565
O13 P3 1.571197 1_455
O14 P0 1.571197 1_545
O15 P1 1.571204 1_655
O16 P2 1.516041 1_565
O17 P3 1.516041 1_455
O18 P0 1.516041 1_545
O19 P1 1.516041 1_655
O20 P5 1.584040 1_555
O21 P4 1.584040 1_555
O22 P7 1.584040 1_555
O23 P6 1.584040 1_555
O24 P6 1.529414 1_556
O25 P7 1.529414 1_555
O26 P4 1.529414 1_554
O27 P5 1.529414 1_555
O32 P0 1.567290 1_555
O33 P1 1.567290 1_555
O34 P2 1.567290 1_555
O35 P3 1.567290 1_555
