# generated using pymatgen
data_BaSrPrHfO6
_symmetry_space_group_name_H-M   'P 1'
_cell_length_a   6.10370130
_cell_length_b   6.19315034
_cell_length_c   8.65851826
_cell_angle_alpha   90.36300421
_cell_angle_beta   89.61747391
_cell_angle_gamma   90.05908051
_symmetry_Int_Tables_number   1
_chemical_formula_structural   BaSrPrHfO6
_chemical_formula_sum   'Ba2 Sr2 Pr2 Hf2 O12'
_cell_volume   327.28783541
_cell_formula_units_Z   2
loop_
 _symmetry_equiv_pos_site_id
 _symmetry_equiv_pos_as_xyz
  1  'x, y, z'
loop_
 _atom_site_type_symbol
 _atom_site_label
 _atom_site_symmetry_multiplicity
 _atom_site_fract_x
 _atom_site_fract_y
 _atom_site_fract_z
 _atom_site_occupancy
  Ba  Ba0  1  0.99212639  0.03447662  0.25046351  1
  Ba  Ba1  1  0.00787361  0.96552338  0.74953649  1
  Sr  Sr0  1  0.51180923  0.54096852  0.25214431  1
  Sr  Sr1  1  0.48819077  0.45903148  0.74785569  1
  Pr  Pr0  1  0.50000000  0.00000000  -0.00000000  1
  Pr  Pr1  1  -0.00000000  0.50000000  0.50000000  1
  Hf  Hf0  1  -0.00000000  0.50000000  -0.00000000  1
  Hf  Hf1  1  0.50000000  0.00000000  0.50000000  1
  O  O0  1  0.19445171  0.22911572  0.95431175  1
  O  O1  1  0.31271290  0.72336365  0.55239204  1
  O  O2  1  0.80554829  0.77088428  0.04568825  1
  O  O3  1  0.68728710  0.27663635  0.44760796  1
  O  O4  1  0.27430197  0.69295648  0.94831964  1
  O  O5  1  0.22766906  0.19739289  0.53898561  1
  O  O6  1  0.72569803  0.30704352  0.05168036  1
  O  O7  1  0.77233094  0.80260711  0.46101439  1
  O  O8  1  0.42203555  0.95441250  0.26729892  1
  O  O9  1  0.09840188  0.48233080  0.23223662  1
  O  O10  1  0.57796445  0.04558750  0.73270108  1
  O  O11  1  0.90159812  0.51766920  0.76776338  1
loop_
_geom_bond_atom_site_label_1
_geom_bond_atom_site_label_2
_geom_bond_distance
_geom_bond_site_symmetry_2
Ba0 O2 2.663083 1_545
Ba0 O8 2.676078 1_645
Ba0 O7 2.679923 1_545
Ba0 O9 2.852923 1_655
Ba0 O6 2.921694 1_555
Ba0 O3 2.925045 1_555
Ba0 O5 3.055952 1_655
Ba0 O0 3.089860 1_654
Ba1 O0 2.663083 1_565
Ba1 O10 2.676078 1_465
Ba1 O5 2.679923 1_565
Ba1 O11 2.852923 1_455
Ba1 O4 2.921694 1_555
Ba1 O1 2.925045 1_555
Ba1 O7 3.055952 1_455
Ba1 O2 3.089860 1_456
Hf0 O0 2.090222 1_554
Hf0 O2 2.090222 1_455
Hf0 O6 2.103346 1_455
Hf0 O4 2.103346 1_554
Hf0 O11 2.105987 1_454
Hf0 O9 2.105987 1_555
Hf1 O5 2.088751 1_555
Hf1 O7 2.088751 1_545
Hf1 O10 2.090715 1_555
Hf1 O8 2.090715 1_545
Hf1 O1 2.108715 1_545
Hf1 O3 2.108715 1_555
O0 Pr0 2.381273 1_556
O0 Sr1 2.902015 1_555
O1 Pr1 2.400145 1_555
O1 Sr1 2.598911 1_555
O1 Sr0 3.071587 1_555
O2 Pr0 2.381273 1_565
O2 Sr0 2.902015 1_555
O3 Pr1 2.400145 1_655
O3 Sr0 2.598911 1_555
O3 Sr1 3.071587 1_555
O4 Pr0 2.388724 1_566
O4 Sr1 2.599557 1_555
O4 Sr0 3.161189 1_556
O5 Pr1 2.361539 1_555
O5 Sr1 2.901862 1_555
O6 Pr0 2.388724 1_555
O6 Sr0 2.599557 1_555
O6 Sr1 3.161189 1_554
O7 Pr1 2.361539 1_655
O7 Sr0 2.901862 1_555
O8 Pr0 2.378228 1_565
O8 Sr0 2.621338 1_555
O9 Pr1 2.392943 1_555
O9 Sr0 2.555745 1_555
O10 Pr0 2.378228 1_556
O10 Sr1 2.621338 1_555
O11 Pr1 2.392943 1_655
O11 Sr1 2.555745 1_555
