# generated using pymatgen
data_Er4Al
_symmetry_space_group_name_H-M   'P 1'
_cell_length_a   7.81170418
_cell_length_b   7.81170418
_cell_length_c   7.81170418
_cell_angle_alpha   60.00000000
_cell_angle_beta   60.00000000
_cell_angle_gamma   60.00000000
_symmetry_Int_Tables_number   1
_chemical_formula_structural   Er4Al
_chemical_formula_sum   'Er8 Al2'
_cell_volume   337.07176000
_cell_formula_units_Z   2
loop_
 _symmetry_equiv_pos_site_id
 _symmetry_equiv_pos_as_xyz
  1  'x, y, z'
loop_
 _atom_site_type_symbol
 _atom_site_label
 _atom_site_symmetry_multiplicity
 _atom_site_fract_x
 _atom_site_fract_y
 _atom_site_fract_z
 _atom_site_occupancy
  Er  Er0  1  0.39447500  0.39447500  0.39447500  1
  Er  Er1  1  0.39447500  0.39447500  0.81657500  1
  Er  Er2  1  0.39447500  0.81657500  0.39447500  1
  Er  Er3  1  0.85552500  0.85552500  0.43342500  1
  Er  Er4  1  0.85552500  0.85552500  0.85552500  1
  Er  Er5  1  0.81657500  0.39447500  0.39447500  1
  Er  Er6  1  0.85552500  0.43342500  0.85552500  1
  Er  Er7  1  0.43342500  0.85552500  0.85552500  1
  Al  Al0  1  0.00000000  0.00000000  0.00000000  1
  Al  Al1  1  0.25000000  0.25000000  0.25000000  1
loop_
_geom_bond_atom_site_label_1
_geom_bond_atom_site_label_2
_geom_bond_distance
_geom_bond_site_symmetry_2
Er0 Er1 3.297320 1_555
Er0 Er5 3.297320 1_555
Er0 Er2 3.297320 1_555
Er0 Er7 3.929483 1_545
Er0 Er6 3.929483 1_455
Er0 Er7 3.929483 1_554
Er0 Er3 3.929483 1_455
Er0 Er3 3.929483 1_545
Er0 Er6 3.929483 1_554
Er1 Er5 3.297320 1_555
Er1 Er2 3.297320 1_555
Er1 Er6 3.929483 1_455
Er1 Er7 3.929483 1_545
Er1 Er4 3.929483 1_455
Er1 Er4 3.929483 1_545
Er1 Er6 3.929483 1_555
Er1 Er7 3.929483 1_555
Er2 Er5 3.297320 1_555
Er2 Er3 3.929483 1_455
Er2 Er7 3.929483 1_554
Er2 Er4 3.929483 1_455
Er2 Er4 3.929483 1_554
Er2 Er3 3.929483 1_555
Er2 Er7 3.929483 1_555
Er3 Er7 3.297320 1_555
Er3 Er4 3.297320 1_555
Er3 Er6 3.297320 1_555
Er3 Er5 3.929483 1_565
Er3 Er5 3.929483 1_555
Er4 Er7 3.297320 1_555
Er4 Er6 3.297320 1_555
Er4 Er5 3.929483 1_556
Er4 Er5 3.929483 1_565
Er5 Er6 3.929483 1_554
Er5 Er6 3.929483 1_555
Er6 Er7 3.297320 1_555
Al0 Er4 2.764484 1_444
Al0 Er7 2.764484 1_544
Al0 Er6 2.764484 1_454
Al0 Er3 2.764484 1_445
Al1 Er0 2.764484 1_555
Al1 Er2 2.764484 1_545
Al1 Er5 2.764484 1_455
Al1 Er1 2.764484 1_554
