# generated using pymatgen
data_MnCu2P2O9
_symmetry_space_group_name_H-M   'P 1'
_cell_length_a   5.46102100
_cell_length_b   6.11542200
_cell_length_c   20.68776101
_cell_angle_alpha   90.00000000
_cell_angle_beta   101.36848333
_cell_angle_gamma   90.00000000
_symmetry_Int_Tables_number   1
_chemical_formula_structural   MnCu2P2O9
_chemical_formula_sum   'Mn4 Cu8 P8 O36'
_cell_volume   677.34214893
_cell_formula_units_Z   4
loop_
 _symmetry_equiv_pos_site_id
 _symmetry_equiv_pos_as_xyz
  1  'x, y, z'
loop_
 _atom_site_type_symbol
 _atom_site_label
 _atom_site_symmetry_multiplicity
 _atom_site_fract_x
 _atom_site_fract_y
 _atom_site_fract_z
 _atom_site_occupancy
  Mn  Mn0  1  0.35945000  0.93110700  0.85590700  1
  Mn  Mn1  1  0.35945000  0.56889300  0.35590700  1
  Mn  Mn2  1  0.64055000  0.06889300  0.14409300  1
  Mn  Mn3  1  0.64055000  0.43110700  0.64409300  1
  Cu  Cu0  1  0.72231600  0.25589000  0.92875900  1
  Cu  Cu1  1  0.72231600  0.24411000  0.42875900  1
  Cu  Cu2  1  0.27768400  0.74411000  0.07124100  1
  Cu  Cu3  1  0.27768400  0.75589000  0.57124100  1
  Cu  Cu4  1  0.76711800  0.57575800  0.80810900  1
  Cu  Cu5  1  0.76711800  0.92424200  0.30810900  1
  Cu  Cu6  1  0.23288200  0.42424200  0.19189100  1
  Cu  Cu7  1  0.23288200  0.07575800  0.69189100  1
  P  P0  1  0.18293100  0.58714600  0.73034900  1
  P  P1  1  0.18293100  0.91285400  0.23034900  1
  P  P2  1  0.81706900  0.41285400  0.26965100  1
  P  P3  1  0.81706900  0.08714600  0.76965100  1
  P  P4  1  0.90033700  0.76303000  0.94568300  1
  P  P5  1  0.90033700  0.73697000  0.44568300  1
  P  P6  1  0.09966300  0.23697000  0.05431700  1
  P  P7  1  0.09966300  0.26303000  0.55431700  1
  O  O0  1  0.29685100  0.63570500  0.80311900  1
  O  O1  1  0.29685100  0.86429500  0.30311900  1
  O  O2  1  0.70314900  0.36429500  0.19688100  1
  O  O3  1  0.70314900  0.13570500  0.69688100  1
  O  O4  1  0.30828100  0.38640300  0.70396100  1
  O  O5  1  0.30828100  0.11359700  0.20396100  1
  O  O6  1  0.69171900  0.61359700  0.29603900  1
  O  O7  1  0.69171900  0.88640300  0.79603900  1
  O  O8  1  0.21334600  0.76999700  0.68112900  1
  O  O9  1  0.21334600  0.73000300  0.18112900  1
  O  O10  1  0.78665400  0.23000300  0.31887100  1
  O  O11  1  0.78665400  0.26999700  0.81887100  1
  O  O12  1  0.89420800  0.54470700  0.72511800  1
  O  O13  1  0.89420800  0.95529300  0.22511800  1
  O  O14  1  0.10579200  0.45529300  0.27488200  1
  O  O15  1  0.10579200  0.04470700  0.77488200  1
  O  O16  1  0.95430300  0.71949900  0.02056400  1
  O  O17  1  0.95430300  0.78050100  0.52056400  1
  O  O18  1  0.04569700  0.28050100  0.97943600  1
  O  O19  1  0.04569700  0.21949900  0.47943600  1
  O  O20  1  0.74140300  0.56877600  0.90652800  1
  O  O21  1  0.74140300  0.93122400  0.40652800  1
  O  O22  1  0.25859700  0.43122400  0.09347200  1
  O  O23  1  0.25859700  0.06877600  0.59347200  1
  O  O24  1  0.12972000  0.81704000  0.91841800  1
  O  O25  1  0.12972000  0.68296000  0.41841800  1
  O  O26  1  0.87028000  0.18296000  0.08158200  1
  O  O27  1  0.87028000  0.31704000  0.58158200  1
  O  O28  1  0.68750100  0.94535300  0.93288000  1
  O  O29  1  0.68750100  0.55464700  0.43288000  1
  O  O30  1  0.31249900  0.05464700  0.06712000  1
  O  O31  1  0.31249900  0.44535300  0.56712000  1
  O  O32  1  0.59805000  0.71914700  0.61460100  1
  O  O33  1  0.59805000  0.78085300  0.11460100  1
  O  O34  1  0.40195000  0.28085300  0.38539900  1
  O  O35  1  0.40195000  0.21914700  0.88539900  1
loop_
_geom_bond_atom_site_label_1
_geom_bond_atom_site_label_2
_geom_bond_distance
_geom_bond_site_symmetry_2
Mn0 O35 1.863632 1_565
Mn0 O15 2.072637 1_565
Mn0 O24 2.091061 1_555
Mn0 O0 2.103750 1_555
Mn0 O28 2.151304 1_555
Mn0 O7 2.405662 1_555
Mn1 O34 1.863632 1_555
Mn1 O14 2.072637 1_555
Mn1 O25 2.091061 1_555
Mn1 O1 2.103750 1_555
Mn1 O29 2.151304 1_555
Mn1 O6 2.405662 1_555
Mn2 O33 1.863632 1_545
Mn2 O13 2.072637 1_545
Mn2 O26 2.091061 1_555
Mn2 O2 2.103750 1_555
Mn2 O30 2.151304 1_555
Mn2 O5 2.405662 1_555
Mn3 O32 1.863632 1_555
Mn3 O12 2.072637 1_555
Mn3 O27 2.091061 1_555
Mn3 O3 2.103750 1_555
Mn3 O31 2.151304 1_555
Mn3 O4 2.405662 1_555
Cu0 O35 1.815841 1_555
Cu0 O18 1.873658 1_655
Cu0 O28 1.912133 1_545
Cu0 O20 1.975473 1_555
Cu0 O11 2.369355 1_555
Cu1 O34 1.815841 1_555
Cu1 O19 1.873658 1_655
Cu1 O29 1.912133 1_555
Cu1 O21 1.975473 1_545
Cu1 O10 2.369355 1_555
Cu2 O33 1.815841 1_555
Cu2 O16 1.873658 1_455
Cu2 O30 1.912133 1_565
Cu2 O22 1.975473 1_555
Cu2 O9 2.369355 1_555
Cu3 O32 1.815841 1_555
Cu3 O17 1.873658 1_455
Cu3 O31 1.912133 1_555
Cu3 O23 1.975473 1_565
Cu3 O8 2.369355 1_555
Cu4 O11 1.883601 1_555
Cu4 O7 1.949440 1_555
Cu4 O12 1.983749 1_555
Cu4 O20 2.068778 1_555
Cu4 O0 2.576018 1_555
Cu5 O10 1.883601 1_565
Cu5 O6 1.949440 1_555
Cu5 O13 1.983749 1_555
Cu5 O21 2.068778 1_555
Cu5 O1 2.576018 1_555
Cu6 O9 1.883601 1_555
Cu6 O5 1.949440 1_555
Cu6 O14 1.983749 1_555
Cu6 O22 2.068778 1_555
Cu6 O2 2.576018 1_555
Cu7 O8 1.883601 1_545
Cu7 O4 1.949440 1_555
Cu7 O15 1.983749 1_555
Cu7 O23 2.068778 1_555
Cu7 O3 2.576018 1_555
O0 P0 1.540248 1_555
O1 P1 1.540248 1_555
O2 P2 1.540248 1_555
O3 P3 1.540248 1_555
O4 P0 1.555958 1_555
O5 P1 1.555958 1_545
O6 P2 1.555958 1_555
O7 P3 1.555958 1_565
O8 P0 1.543210 1_555
O9 P1 1.543210 1_555
O10 P2 1.543210 1_555
O11 P3 1.543210 1_555
O12 P0 1.580460 1_655
O13 P1 1.580460 1_655
O14 P2 1.580460 1_455
O15 P3 1.580460 1_455
O16 P4 1.541918 1_554
O17 P5 1.541918 1_555
O18 P6 1.541918 1_556
O19 P7 1.541918 1_555
O20 P4 1.594840 1_555
O21 P5 1.594840 1_555
O22 P6 1.594840 1_555
O23 P7 1.594840 1_555
O24 P4 1.508302 1_455
O25 P5 1.508302 1_455
O26 P6 1.508302 1_655
O27 P7 1.508302 1_655
O28 P4 1.594653 1_555
O29 P5 1.594653 1_555
O30 P6 1.594653 1_555
O31 P7 1.594653 1_555
