# generated using pymatgen
data_Na(CrS2)2
_symmetry_space_group_name_H-M   'P 1'
_cell_length_a   5.91276470
_cell_length_b   6.83757424
_cell_length_c   13.83925865
_cell_angle_alpha   90.00000000
_cell_angle_beta   90.00000000
_cell_angle_gamma   90.00000000
_symmetry_Int_Tables_number   1
_chemical_formula_structural   Na(CrS2)2
_chemical_formula_sum   'Na4 Cr8 S16'
_cell_volume   559.50693957
_cell_formula_units_Z   4
loop_
 _symmetry_equiv_pos_site_id
 _symmetry_equiv_pos_as_xyz
  1  'x, y, z'
loop_
 _atom_site_type_symbol
 _atom_site_label
 _atom_site_symmetry_multiplicity
 _atom_site_fract_x
 _atom_site_fract_y
 _atom_site_fract_z
 _atom_site_occupancy
  Na  Na0  1  0.34197595  -0.00000000  0.00000000  1
  Na  Na1  1  0.65802405  0.50000000  0.50000000  1
  Na  Na2  1  0.01351723  -0.00000000  0.50000000  1
  Na  Na3  1  0.98648277  0.50000000  0.00000000  1
  Cr  Cr0  1  0.99630075  -0.00000000  0.24876004  1
  Cr  Cr1  1  0.99630075  -0.00000000  0.75123996  1
  Cr  Cr2  1  0.00369925  0.50000000  0.25123996  1
  Cr  Cr3  1  0.00369925  0.50000000  0.74876004  1
  Cr  Cr4  1  0.50000000  0.25000000  0.25000000  1
  Cr  Cr5  1  0.50000000  0.75000000  0.75000000  1
  Cr  Cr6  1  0.50000000  0.75000000  0.25000000  1
  Cr  Cr7  1  0.50000000  0.25000000  0.75000000  1
  S  S0  1  0.83414560  0.25058975  0.34765979  1
  S  S1  1  0.83414560  0.74941025  0.65234021  1
  S  S2  1  0.16585440  0.75058975  0.15234021  1
  S  S3  1  0.16585440  0.24941025  0.84765979  1
  S  S4  1  0.16585440  0.24941025  0.15234021  1
  S  S5  1  0.16585440  0.75058975  0.84765979  1
  S  S6  1  0.83414560  0.74941025  0.34765979  1
  S  S7  1  0.83414560  0.25058975  0.65234021  1
  S  S8  1  0.66651134  -0.00000000  0.15242420  1
  S  S9  1  0.66651134  -0.00000000  0.84757580  1
  S  S10  1  0.33348866  0.50000000  0.34757580  1
  S  S11  1  0.33348866  0.50000000  0.65242420  1
  S  S12  1  0.33297885  -0.00000000  0.34594564  1
  S  S13  1  0.33297885  -0.00000000  0.65405436  1
  S  S14  1  0.66702115  0.50000000  0.15405436  1
  S  S15  1  0.66702115  0.50000000  0.84594564  1
loop_
_geom_bond_atom_site_label_1
_geom_bond_atom_site_label_2
_geom_bond_distance
_geom_bond_site_symmetry_2
Na0 S8 2.851651 1_555
Na0 S9 2.851651 1_554
Na0 S5 2.904742 1_544
Na0 S3 2.904742 1_554
Na0 S2 2.904742 1_545
Na0 S4 2.904742 1_555
Na1 S10 2.851651 1_555
Na1 S11 2.851651 1_555
Na1 S6 2.904742 1_555
Na1 S7 2.904742 1_555
Na1 S1 2.904742 1_555
Na1 S0 2.904742 1_555
Na2 S12 2.848397 1_555
Na2 S13 2.848397 1_555
Na2 S1 2.916417 1_445
Na2 S6 2.916417 1_445
Na2 S0 2.916417 1_455
Na2 S7 2.916417 1_455
Na3 S15 2.848397 1_554
Na3 S14 2.848397 1_555
Na3 S3 2.916417 1_654
Na3 S5 2.916417 1_654
Na3 S4 2.916417 1_655
Na3 S2 2.916417 1_655
Cr0 S8 2.362168 1_555
Cr0 S2 2.386188 1_645
Cr0 S4 2.386188 1_655
Cr0 S6 2.393415 1_545
Cr0 S0 2.393415 1_555
Cr0 S12 2.402466 1_655
Cr1 S9 2.362168 1_555
Cr1 S5 2.386188 1_645
Cr1 S3 2.386188 1_655
Cr1 S1 2.393415 1_545
Cr1 S7 2.393415 1_555
Cr1 S13 2.402466 1_655
Cr2 S10 2.362168 1_555
Cr2 S6 2.386188 1_455
Cr2 S0 2.386188 1_455
Cr2 S2 2.393415 1_555
Cr2 S4 2.393415 1_555
Cr2 S14 2.402466 1_455
Cr3 S11 2.362168 1_555
Cr3 S7 2.386188 1_455
Cr3 S1 2.386188 1_455
Cr3 S3 2.393415 1_555
Cr3 S5 2.393415 1_555
Cr3 S15 2.402466 1_455
Cr4 S12 2.379158 1_555
Cr4 S14 2.379158 1_555
Cr4 S10 2.390579 1_555
Cr4 S8 2.390579 1_555
Cr4 S0 2.393775 1_555
Cr4 S4 2.393775 1_555
Cr5 S13 2.379158 1_565
Cr5 S15 2.379158 1_555
Cr5 S9 2.390579 1_565
Cr5 S11 2.390579 1_555
Cr5 S1 2.393775 1_555
Cr5 S5 2.393775 1_555
Cr6 S12 2.379158 1_565
Cr6 S14 2.379158 1_555
Cr6 S10 2.390579 1_555
Cr6 S8 2.390579 1_565
Cr6 S6 2.393775 1_555
Cr6 S2 2.393775 1_555
Cr7 S13 2.379158 1_555
Cr7 S15 2.379158 1_555
Cr7 S11 2.390579 1_555
Cr7 S9 2.390579 1_555
Cr7 S7 2.393775 1_555
Cr7 S3 2.393775 1_555
