# generated using pymatgen
data_Sr3NdMn2O8
_symmetry_space_group_name_H-M   'P 1'
_cell_length_a   6.77385322
_cell_length_b   6.77385322
_cell_length_c   5.54547400
_cell_angle_alpha   90.00000000
_cell_angle_beta   90.00000000
_cell_angle_gamma   131.78062589
_symmetry_Int_Tables_number   1
_chemical_formula_structural   Sr3NdMn2O8
_chemical_formula_sum   'Sr3 Nd1 Mn2 O8'
_cell_volume   189.74710603
_cell_formula_units_Z   1
loop_
 _symmetry_equiv_pos_site_id
 _symmetry_equiv_pos_as_xyz
  1  'x, y, z'
loop_
 _atom_site_type_symbol
 _atom_site_label
 _atom_site_symmetry_multiplicity
 _atom_site_fract_x
 _atom_site_fract_y
 _atom_site_fract_z
 _atom_site_occupancy
  Sr  Sr0  1  0.64370000  0.35630000  0.00000000  1
  Sr  Sr1  1  0.35791000  0.64209000  0.00000000  1
  Sr  Sr2  1  0.85587900  0.14412100  0.50000000  1
  Nd  Nd0  1  0.13714400  0.86285600  0.50000000  1
  Mn  Mn0  1  0.49916700  0.50083300  0.50000000  1
  Mn  Mn1  1  0.99855800  0.00144200  0.00000000  1
  O  O0  1  0.84161400  0.15838600  0.00000000  1
  O  O1  1  0.33011700  0.66988300  0.50000000  1
  O  O2  1  0.65932100  0.34067900  0.50000000  1
  O  O3  1  0.16021700  0.83978300  0.00000000  1
  O  O4  1  0.25075300  0.24256700  0.25869800  1
  O  O5  1  0.75743300  0.74924700  0.74130200  1
  O  O6  1  0.25075300  0.24256700  0.74130200  1
  O  O7  1  0.75743300  0.74924700  0.25869800  1
loop_
_geom_bond_atom_site_label_1
_geom_bond_atom_site_label_2
_geom_bond_distance
_geom_bond_site_symmetry_2
Nd0 O1 2.386280 1_555
Nd0 O6 2.522078 1_565
Nd0 O4 2.522078 1_565
Nd0 O5 2.522078 1_455
Nd0 O7 2.522078 1_455
Nd0 O2 2.780573 1_565
Nd0 O2 2.780573 1_455
Nd0 O3 2.787378 1_555
Nd0 O3 2.787378 1_556
Mn0 O7 1.939045 1_555
Mn0 O5 1.939045 1_555
Mn0 O4 1.939045 1_555
Mn0 O6 1.939045 1_555
Mn0 O2 1.980444 1_555
Mn0 O1 2.090451 1_555
Mn1 O0 1.940750 1_555
Mn1 O4 1.981429 1_655
Mn1 O6 1.981429 1_654
Mn1 O7 1.981429 1_545
Mn1 O5 1.981429 1_544
Mn1 O3 1.999055 1_645
O0 Sr0 2.447380 1_555
O0 Sr1 2.774344 1_545
O0 Sr1 2.774344 1_655
O0 Sr2 2.778343 1_554
O0 Sr2 2.778343 1_555
O1 Sr2 2.785294 1_565
O1 Sr2 2.785294 1_455
O1 Sr1 2.793956 1_555
O1 Sr1 2.793956 1_556
O2 Sr2 2.430611 1_555
O2 Sr0 2.779458 1_555
O2 Sr0 2.779458 1_556
O3 Sr1 2.444647 1_555
O3 Sr0 2.774544 1_455
O3 Sr0 2.774544 1_565
O4 Sr0 2.646506 1_555
O4 Sr2 2.648213 1_455
O4 Sr1 2.700255 1_555
O5 Sr0 2.646506 1_556
O5 Sr2 2.648213 1_565
O5 Sr1 2.700255 1_556
O6 Sr0 2.646506 1_556
O6 Sr2 2.648213 1_455
O6 Sr1 2.700255 1_556
O7 Sr0 2.646506 1_555
O7 Sr2 2.648213 1_565
O7 Sr1 2.700255 1_555
