# generated using pymatgen
data_Mg6GaSi
_symmetry_space_group_name_H-M   'P 1'
_cell_length_a   4.78829500
_cell_length_b   6.46809300
_cell_length_c   10.62060800
_cell_angle_alpha   90.00000000
_cell_angle_beta   90.00000000
_cell_angle_gamma   90.00000000
_symmetry_Int_Tables_number   1
_chemical_formula_structural   Mg6GaSi
_chemical_formula_sum   'Mg12 Ga2 Si2'
_cell_volume   328.93230934
_cell_formula_units_Z   2
loop_
 _symmetry_equiv_pos_site_id
 _symmetry_equiv_pos_as_xyz
  1  'x, y, z'
loop_
 _atom_site_type_symbol
 _atom_site_label
 _atom_site_symmetry_multiplicity
 _atom_site_fract_x
 _atom_site_fract_y
 _atom_site_fract_z
 _atom_site_occupancy
  Mg  Mg0  1  0.50000000  0.25001600  0.08440200  1
  Mg  Mg1  1  0.50000000  0.74998400  0.08440200  1
  Mg  Mg2  1  0.00000000  0.24921800  0.91251300  1
  Mg  Mg3  1  0.00000000  0.75078200  0.91251300  1
  Mg  Mg4  1  0.00000000  0.50000000  0.17038200  1
  Mg  Mg5  1  0.00000000  0.50000000  0.66895200  1
  Mg  Mg6  1  0.50000000  0.75001600  0.58440200  1
  Mg  Mg7  1  0.50000000  0.24998400  0.58440200  1
  Mg  Mg8  1  0.00000000  0.74921800  0.41251300  1
  Mg  Mg9  1  0.00000000  0.25078200  0.41251300  1
  Mg  Mg10  1  0.00000000  0.00000000  0.67038200  1
  Mg  Mg11  1  0.00000000  0.00000000  0.16895200  1
  Ga  Ga0  1  0.50000000  0.50000000  0.83320400  1
  Ga  Ga1  1  0.50000000  0.00000000  0.33320400  1
  Si  Si0  1  0.50000000  0.50000000  0.33363700  1
  Si  Si1  1  0.50000000  0.00000000  0.83363700  1
loop_
_geom_bond_atom_site_label_1
_geom_bond_atom_site_label_2
_geom_bond_distance
_geom_bond_site_symmetry_2
Mg0 Mg2 3.010757 1_654
Mg0 Mg2 3.010757 1_554
Mg0 Mg11 3.025458 1_555
Mg0 Mg11 3.025458 1_655
Mg0 Mg4 3.029890 1_555
Mg0 Mg4 3.029890 1_655
Mg0 Si0 3.101803 1_555
Mg0 Si1 3.115789 1_554
Mg0 Mg1 3.233840 1_555
Mg0 Mg1 3.234253 1_545
Mg1 Mg3 3.010757 1_654
Mg1 Mg3 3.010757 1_554
Mg1 Mg11 3.025458 1_665
Mg1 Mg11 3.025458 1_565
Mg1 Mg4 3.029890 1_555
Mg1 Mg4 3.029890 1_655
Mg1 Si0 3.101803 1_555
Mg1 Si1 3.115789 1_564
Mg2 Si1 3.005351 1_455
Mg2 Si1 3.005351 1_555
Mg3 Si1 3.005351 1_465
Mg3 Si1 3.005351 1_565
Mg4 Si0 2.956051 1_455
Mg4 Si0 2.956051 1_555
Mg5 Mg6 3.025458 1_455
Mg5 Mg6 3.025458 1_555
Mg5 Mg7 3.025458 1_455
Mg5 Mg7 3.025458 1_555
Mg6 Mg8 3.010757 1_555
Mg6 Mg8 3.010757 1_655
Mg6 Si1 3.101803 1_565
Mg6 Si0 3.115789 1_555
Mg6 Mg7 3.233840 1_565
Mg6 Mg7 3.234253 1_555
Mg7 Mg9 3.010757 1_655
Mg7 Mg9 3.010757 1_555
Mg7 Si1 3.101803 1_555
Mg7 Si0 3.115789 1_555
Mg8 Si0 3.005351 1_455
Mg8 Si0 3.005351 1_555
Mg9 Si0 3.005351 1_555
Mg9 Si0 3.005351 1_455
Mg10 Si1 2.956051 1_455
Mg10 Si1 2.956051 1_555
Mg10 Mg7 3.029890 1_455
Mg10 Mg7 3.029890 1_555
Mg10 Mg6 3.029890 1_545
Mg10 Mg6 3.029890 1_445
Ga0 Mg5 2.962274 1_555
Ga0 Mg5 2.962274 1_655
Ga0 Mg3 3.012072 1_655
Ga0 Mg3 3.012072 1_555
Ga0 Mg2 3.012072 1_655
Ga0 Mg2 3.012072 1_555
Ga0 Mg6 3.097988 1_555
Ga0 Mg7 3.097988 1_555
Ga0 Mg0 3.119614 1_556
Ga0 Mg1 3.119614 1_556
Ga1 Mg11 2.962274 1_655
Ga1 Mg11 2.962274 1_555
Ga1 Mg9 3.012072 1_655
Ga1 Mg9 3.012072 1_555
Ga1 Mg8 3.012072 1_645
Ga1 Mg8 3.012072 1_545
Ga1 Mg0 3.097988 1_555
Ga1 Mg1 3.097988 1_545
Ga1 Mg7 3.119614 1_555
Ga1 Mg6 3.119614 1_545
