# generated using pymatgen
data_La4(MoO4)9
_symmetry_space_group_name_H-M   'P 1'
_cell_length_a   12.89530186
_cell_length_b   12.89530186
_cell_length_c   12.89530186
_cell_angle_alpha   109.47122063
_cell_angle_beta   109.47122063
_cell_angle_gamma   109.47122063
_symmetry_Int_Tables_number   1
_chemical_formula_structural   La4(MoO4)9
_chemical_formula_sum   'La8 Mo18 O72'
_cell_volume   1650.71708995
_cell_formula_units_Z   2
loop_
 _symmetry_equiv_pos_site_id
 _symmetry_equiv_pos_as_xyz
  1  'x, y, z'
loop_
 _atom_site_type_symbol
 _atom_site_label
 _atom_site_symmetry_multiplicity
 _atom_site_fract_x
 _atom_site_fract_y
 _atom_site_fract_z
 _atom_site_occupancy
  La  La0  1  0.03847200  0.03847200  0.03847200  1
  La  La1  1  0.46152800  0.50000000  0.00000000  1
  La  La2  1  0.00000000  0.46152800  0.50000000  1
  La  La3  1  0.53847200  0.53847200  0.53847200  1
  La  La4  1  0.50000000  0.00000000  0.46152800  1
  La  La5  1  0.96152800  0.50000000  0.00000000  1
  La  La6  1  0.50000000  0.00000000  0.96152800  1
  La  La7  1  0.00000000  0.96152800  0.50000000  1
  Mo  Mo0  1  0.44657800  0.19657800  0.25000000  1
  Mo  Mo1  1  0.05342200  0.30342200  0.75000000  1
  Mo  Mo2  1  0.19657800  0.25000000  0.44657800  1
  Mo  Mo3  1  0.94657800  0.75000000  0.69657800  1
  Mo  Mo4  1  0.30342200  0.75000000  0.05342200  1
  Mo  Mo5  1  0.55342200  0.25000000  0.80342200  1
  Mo  Mo6  1  0.25000000  0.44657800  0.19657800  1
  Mo  Mo7  1  0.69657800  0.94657800  0.75000000  1
  Mo  Mo8  1  0.75000000  0.05342200  0.30342200  1
  Mo  Mo9  1  0.80342200  0.55342200  0.25000000  1
  Mo  Mo10  1  0.75000000  0.69657800  0.94657800  1
  Mo  Mo11  1  0.25000000  0.80342200  0.55342200  1
  Mo  Mo12  1  0.12500000  0.87500000  0.25000000  1
  Mo  Mo13  1  0.37500000  0.62500000  0.75000000  1
  Mo  Mo14  1  0.87500000  0.25000000  0.12500000  1
  Mo  Mo15  1  0.62500000  0.75000000  0.37500000  1
  Mo  Mo16  1  0.25000000  0.12500000  0.87500000  1
  Mo  Mo17  1  0.75000000  0.37500000  0.62500000  1
  O  O0  1  0.99083700  0.33669400  0.85388500  1
  O  O1  1  0.50916300  0.36304800  0.34585600  1
  O  O2  1  0.51719200  0.16330600  0.15414400  1
  O  O3  1  0.33669400  0.85388500  0.99083700  1
  O  O4  1  0.49083700  0.35388500  0.83669400  1
  O  O5  1  0.98280800  0.13695200  0.64611500  1
  O  O6  1  0.36304800  0.34585600  0.50916300  1
  O  O7  1  0.00916300  0.84585600  0.86304800  1
  O  O8  1  0.16330600  0.15414400  0.51719200  1
  O  O9  1  0.01719200  0.65414400  0.66330600  1
  O  O10  1  0.13695200  0.64611500  0.98280800  1
  O  O11  1  0.48280800  0.14611500  0.63695200  1
  O  O12  1  0.85388500  0.99083700  0.33669400  1
  O  O13  1  0.83669400  0.49083700  0.35388500  1
  O  O14  1  0.15414400  0.51719200  0.16330600  1
  O  O15  1  0.66330600  0.01719200  0.65414400  1
  O  O16  1  0.64611500  0.98280800  0.13695200  1
  O  O17  1  0.63695200  0.48280800  0.14611500  1
  O  O18  1  0.34585600  0.50916300  0.36304800  1
  O  O19  1  0.86304800  0.00916300  0.84585600  1
  O  O20  1  0.35388500  0.83669400  0.49083700  1
  O  O21  1  0.84585600  0.86304800  0.00916300  1
  O  O22  1  0.14611500  0.63695200  0.48280800  1
  O  O23  1  0.65414400  0.66330600  0.01719200  1
  O  O24  1  0.12245700  0.10935600  0.90786100  1
  O  O25  1  0.37754300  0.28540500  0.98690000  1
  O  O26  1  0.79850500  0.39064400  0.51310000  1
  O  O27  1  0.10935600  0.90786100  0.12245700  1
  O  O28  1  0.62245700  0.40786100  0.60935600  1
  O  O29  1  0.70149500  0.21459500  0.59213900  1
  O  O30  1  0.28540500  0.98690000  0.37754300  1
  O  O31  1  0.87754300  0.48690000  0.78540500  1
  O  O32  1  0.39064400  0.51310000  0.79850500  1
  O  O33  1  0.29850500  0.01310000  0.89064400  1
  O  O34  1  0.21459500  0.59213900  0.70149500  1
  O  O35  1  0.20149500  0.09213900  0.71459500  1
  O  O36  1  0.90786100  0.12245700  0.10935600  1
  O  O37  1  0.60935600  0.62245700  0.40786100  1
  O  O38  1  0.51310000  0.79850500  0.39064400  1
  O  O39  1  0.89064400  0.29850500  0.01310000  1
  O  O40  1  0.59213900  0.70149500  0.21459500  1
  O  O41  1  0.71459500  0.20149500  0.09213900  1
  O  O42  1  0.98690000  0.37754300  0.28540500  1
  O  O43  1  0.78540500  0.87754300  0.48690000  1
  O  O44  1  0.40786100  0.60935600  0.62245700  1
  O  O45  1  0.48690000  0.78540500  0.87754300  1
  O  O46  1  0.09213900  0.71459500  0.20149500  1
  O  O47  1  0.01310000  0.89064400  0.29850500  1
  O  O48  1  0.14667300  0.27725200  0.12200700  1
  O  O49  1  0.35332700  0.47533300  0.13057900  1
  O  O50  1  0.84475400  0.22274800  0.36942100  1
  O  O51  1  0.27725200  0.12200700  0.14667300  1
  O  O52  1  0.64667300  0.62200700  0.77725200  1
  O  O53  1  0.65524600  0.02466700  0.37799300  1
  O  O54  1  0.47533300  0.13057900  0.35332700  1
  O  O55  1  0.85332700  0.63057900  0.97533300  1
  O  O56  1  0.22274800  0.36942100  0.84475400  1
  O  O57  1  0.34475400  0.86942100  0.72274800  1
  O  O58  1  0.02466700  0.37799300  0.65524600  1
  O  O59  1  0.15524600  0.87799300  0.52466700  1
  O  O60  1  0.12200700  0.14667300  0.27725200  1
  O  O61  1  0.77725200  0.64667300  0.62200700  1
  O  O62  1  0.36942100  0.84475400  0.22274800  1
  O  O63  1  0.72274800  0.34475400  0.86942100  1
  O  O64  1  0.37799300  0.65524600  0.02466700  1
  O  O65  1  0.52466700  0.15524600  0.87799300  1
  O  O66  1  0.13057900  0.35332700  0.47533300  1
  O  O67  1  0.97533300  0.85332700  0.63057900  1
  O  O68  1  0.62200700  0.77725200  0.64667300  1
  O  O69  1  0.63057900  0.97533300  0.85332700  1
  O  O70  1  0.87799300  0.52466700  0.15524600  1
  O  O71  1  0.86942100  0.72274800  0.34475400  1
loop_
_geom_bond_atom_site_label_1
_geom_bond_atom_site_label_2
_geom_bond_distance
_geom_bond_site_symmetry_2
La0 O24 2.535281 1_554
La0 O36 2.535281 1_455
La0 O27 2.535281 1_545
La0 O19 2.547139 1_454
La0 O21 2.547139 1_445
La0 O7 2.547139 1_544
La0 O51 2.551638 1_555
La0 O48 2.551638 1_555
La0 O60 2.551638 1_555
La1 O40 2.535274 1_555
La1 O32 2.535274 1_554
La1 O25 2.535274 1_554
La1 O4 2.547131 1_554
La1 O23 2.547133 1_555
La1 O17 2.547139 1_555
La1 O49 2.551640 1_555
La1 O56 2.551640 1_554
La1 O64 2.551650 1_555
La2 O26 2.535274 1_455
La2 O34 2.535274 1_555
La2 O42 2.535274 1_455
La2 O13 2.547131 1_455
La2 O9 2.547133 1_555
La2 O22 2.547139 1_555
La2 O66 2.551640 1_555
La2 O50 2.551640 1_455
La2 O58 2.551650 1_555
La3 O37 2.535281 1_555
La3 O44 2.535281 1_555
La3 O28 2.535281 1_555
La3 O1 2.547139 1_555
La3 O18 2.547139 1_555
La3 O6 2.547139 1_555
La3 O52 2.551638 1_555
La3 O68 2.551638 1_555
La3 O61 2.551638 1_555
La4 O29 2.535274 1_555
La4 O38 2.535274 1_545
La4 O30 2.535274 1_545
La4 O20 2.547131 1_545
La4 O15 2.547133 1_555
La4 O11 2.547139 1_555
La4 O54 2.551640 1_555
La4 O62 2.551640 1_545
La4 O53 2.551650 1_555
La5 O39 2.535274 1_555
La5 O46 2.535274 1_655
La5 O31 2.535274 1_554
La5 O0 2.547131 1_554
La5 O14 2.547133 1_655
La5 O10 2.547139 1_654
La5 O63 2.551640 1_554
La5 O55 2.551640 1_554
La5 O70 2.551650 1_555
La6 O41 2.535274 1_556
La6 O33 2.535274 1_555
La6 O45 2.535274 1_545
La6 O3 2.547131 1_545
La6 O2 2.547133 1_556
La6 O16 2.547139 1_546
La6 O69 2.551640 1_545
La6 O57 2.551640 1_545
La6 O65 2.551650 1_555
La7 O35 2.535274 1_565
La7 O47 2.535274 1_555
La7 O43 2.535274 1_455
La7 O12 2.547131 1_455
La7 O8 2.547133 1_565
La7 O5 2.547139 1_465
La7 O71 2.551640 1_455
La7 O67 2.551640 1_455
La7 O59 2.551650 1_555
Mo0 O1 1.788421 1_555
Mo0 O2 1.788423 1_555
Mo0 O54 1.809479 1_555
Mo0 O51 1.809481 1_555
Mo1 O5 1.788421 1_455
Mo1 O0 1.788423 1_455
Mo1 O58 1.809469 1_555
Mo1 O56 1.809479 1_555
Mo2 O6 1.788421 1_555
Mo2 O8 1.788423 1_555
Mo2 O66 1.809479 1_555
Mo2 O60 1.809481 1_555
Mo3 O7 1.788421 1_655
Mo3 O9 1.788423 1_655
Mo3 O67 1.809479 1_555
Mo3 O61 1.809481 1_555
Mo4 O10 1.788421 1_554
Mo4 O3 1.788423 1_554
Mo4 O64 1.809469 1_555
Mo4 O62 1.809479 1_555
Mo5 O11 1.788421 1_555
Mo5 O4 1.788423 1_555
Mo5 O65 1.809469 1_555
Mo5 O63 1.809479 1_555
Mo6 O18 1.788421 1_555
Mo6 O14 1.788423 1_555
Mo6 O49 1.809479 1_555
Mo6 O48 1.809481 1_555
Mo7 O19 1.788421 1_565
Mo7 O15 1.788423 1_565
Mo7 O69 1.809479 1_555
Mo7 O68 1.809481 1_555
Mo8 O16 1.788421 1_545
Mo8 O12 1.788423 1_545
Mo8 O53 1.809469 1_555
Mo8 O50 1.809479 1_555
Mo9 O17 1.788421 1_555
Mo9 O13 1.788423 1_555
Mo9 O70 1.809469 1_555
Mo9 O71 1.809479 1_555
Mo10 O21 1.788421 1_556
Mo10 O23 1.788423 1_556
Mo10 O55 1.809479 1_555
Mo10 O52 1.809481 1_555
Mo11 O22 1.788421 1_555
Mo11 O20 1.788423 1_555
Mo11 O59 1.809469 1_555
Mo11 O57 1.809479 1_555
Mo12 O27 1.796036 1_555
Mo12 O30 1.796045 1_555
Mo12 O47 1.796048 1_555
Mo12 O46 1.796048 1_555
Mo13 O44 1.796036 1_555
Mo13 O45 1.796045 1_555
Mo13 O34 1.796048 1_555
Mo13 O32 1.796048 1_555
Mo14 O36 1.796036 1_555
Mo14 O42 1.796045 1_555
Mo14 O39 1.796048 1_555
Mo14 O41 1.796048 1_555
Mo15 O37 1.796036 1_555
Mo15 O43 1.796045 1_555
Mo15 O40 1.796048 1_555
Mo15 O38 1.796048 1_555
Mo16 O24 1.796036 1_555
Mo16 O25 1.796045 1_555
Mo16 O33 1.796048 1_555
Mo16 O35 1.796048 1_555
Mo17 O28 1.796036 1_555
Mo17 O31 1.796045 1_555
Mo17 O29 1.796048 1_555
Mo17 O26 1.796048 1_555
