# generated using pymatgen
data_Li6Fe3O8
_symmetry_space_group_name_H-M   'P 1'
_cell_length_a   6.00569567
_cell_length_b   6.03162231
_cell_length_c   10.41819155
_cell_angle_alpha   89.17301025
_cell_angle_beta   75.08062037
_cell_angle_gamma   121.05865532
_symmetry_Int_Tables_number   1
_chemical_formula_structural   Li6Fe3O8
_chemical_formula_sum   'Li12 Fe6 O16'
_cell_volume   307.40530740
_cell_formula_units_Z   2
loop_
 _symmetry_equiv_pos_site_id
 _symmetry_equiv_pos_as_xyz
  1  'x, y, z'
loop_
 _atom_site_type_symbol
 _atom_site_label
 _atom_site_symmetry_multiplicity
 _atom_site_fract_x
 _atom_site_fract_y
 _atom_site_fract_z
 _atom_site_occupancy
  Li  Li0  1  0.47373400  0.47691300  0.00761600  1
  Li  Li1  1  0.99422100  0.99990200  0.00126900  1
  Li  Li2  1  0.49408700  0.00302800  0.00011700  1
  Li  Li3  1  0.57515600  0.27873700  0.15122900  1
  Li  Li4  1  0.00158300  0.98012700  0.50302700  1
  Li  Li5  1  0.42454600  0.22087900  0.34945100  1
  Li  Li6  1  0.50592100  0.49787800  0.49981600  1
  Li  Li7  1  0.00627400  0.50122800  0.49862200  1
  Li  Li8  1  0.56888900  0.77831600  0.64947100  1
  Li  Li9  1  0.52841400  0.02499500  0.49266500  1
  Li  Li10  1  0.43035900  0.72121000  0.85134800  1
  Li  Li11  1  0.99786600  0.52200400  0.99720600  1
  Fe  Fe0  1  0.50008500  0.75002500  0.24998100  1
  Fe  Fe1  1  0.00014100  0.75009700  0.24993100  1
  Fe  Fe2  1  0.00001500  0.25008300  0.24992900  1
  Fe  Fe3  1  0.00005600  0.75020800  0.74987400  1
  Fe  Fe4  1  0.99968000  0.24980800  0.75002500  1
  Fe  Fe5  1  0.50013000  0.25018300  0.74989200  1
  O  O0  1  0.24518700  0.62213600  0.12687400  1
  O  O1  1  0.74999500  0.63796800  0.13682200  1
  O  O2  1  0.75263400  0.10694300  0.13317400  1
  O  O3  1  0.22694100  0.11411000  0.13725900  1
  O  O4  1  0.25032300  0.86207400  0.36290300  1
  O  O5  1  0.75506700  0.87809800  0.37292000  1
  O  O6  1  0.77336300  0.38614400  0.36255700  1
  O  O7  1  0.24755500  0.39309900  0.36670700  1
  O  O8  1  0.75444100  0.61274400  0.63228800  1
  O  O9  1  0.21699400  0.59757300  0.64190400  1
  O  O10  1  0.25348200  0.11888700  0.62695300  1
  O  O11  1  0.75695900  0.13865200  0.64001400  1
  O  O12  1  0.78304700  0.90245100  0.85798200  1
  O  O13  1  0.24588500  0.88761700  0.86750500  1
  O  O14  1  0.24329700  0.36151600  0.85970500  1
  O  O15  1  0.74681700  0.38144200  0.87282000  1
loop_
_geom_bond_atom_site_label_1
_geom_bond_atom_site_label_2
_geom_bond_distance
_geom_bond_site_symmetry_2
Li0 O3 2.084922 1_555
Li0 O0 2.142142 1_555
Li0 O15 2.192120 1_554
Li0 O14 2.215730 1_554
Li0 O1 2.243455 1_555
Li0 O12 2.437727 1_554
Li1 O2 2.091867 1_565
Li1 O12 2.100802 1_554
Li1 O1 2.109959 1_555
Li1 O3 2.118852 1_665
Li1 O14 2.138851 1_664
Li1 O13 2.164258 1_654
Li2 O15 2.138615 1_554
Li2 O0 2.146834 1_545
Li2 O13 2.152397 1_544
Li2 O2 2.203337 1_555
Li2 O3 2.240721 1_555
Li2 O12 2.315464 1_544
Li3 O2 1.813060 1_555
Li3 O1 1.838959 1_555
Li3 O3 1.843590 1_555
Li4 O10 2.094397 1_565
Li4 O8 2.101849 1_455
Li4 O5 2.127260 1_455
Li4 O4 2.207802 1_555
Li4 O7 2.329075 1_565
Li4 O11 2.349170 1_465
Li5 O7 1.813153 1_555
Li5 O4 1.837749 1_545
Li5 O6 1.843196 1_555
Li6 O10 2.140326 1_555
Li6 O5 2.144581 1_555
Li6 O8 2.152600 1_555
Li6 O7 2.202638 1_555
Li6 O6 2.245200 1_555
Li6 O9 2.311604 1_555
Li7 O7 2.095102 1_555
Li7 O9 2.099156 1_555
Li7 O4 2.106427 1_555
Li7 O6 2.120249 1_455
Li7 O11 2.141729 1_455
Li7 O8 2.161321 1_455
Li8 O8 1.822622 1_555
Li8 O9 1.836310 1_555
Li8 O11 1.847350 1_565
Li9 O6 2.080386 1_555
Li9 O5 2.143878 1_545
Li9 O10 2.191481 1_555
Li9 O11 2.203387 1_555
Li9 O4 2.256123 1_545
Li9 O9 2.444073 1_545
Li10 O13 1.821931 1_555
Li10 O12 1.837029 1_555
Li10 O14 1.845494 1_555
Li11 O15 2.095265 1_555
Li11 O13 2.096645 1_655
Li11 O0 2.127689 1_656
Li11 O1 2.193118 1_556
Li11 O2 2.337105 1_556
Li11 O14 2.363633 1_655
Fe0 O7 2.004864 1_555
Fe0 O2 2.005172 1_565
Fe0 O4 2.061813 1_555
Fe0 O1 2.063473 1_555
Fe0 O5 2.097643 1_555
Fe0 O0 2.098698 1_555
Fe1 O4 1.996346 1_555
Fe1 O1 1.997276 1_455
Fe1 O6 2.017057 1_455
Fe1 O3 2.017505 1_565
Fe1 O5 2.152707 1_455
Fe1 O0 2.152714 1_555
Fe2 O2 2.017323 1_455
Fe2 O7 2.018113 1_555
Fe2 O6 2.064270 1_455
Fe2 O3 2.065233 1_555
Fe2 O5 2.093015 1_445
Fe2 O0 2.093570 1_555
Fe3 O8 2.015410 1_455
Fe3 O13 2.016641 1_555
Fe3 O12 2.078269 1_455
Fe3 O9 2.079237 1_555
Fe3 O10 2.079269 1_565
Fe3 O15 2.079711 1_455
Fe4 O12 1.926950 1_545
Fe4 O9 1.929275 1_655
Fe4 O11 1.939595 1_555
Fe4 O14 1.940670 1_655
Fe4 O15 2.201422 1_555
Fe4 O10 2.203584 1_655
Fe5 O8 2.031965 1_555
Fe5 O13 2.032007 1_545
Fe5 O10 2.063400 1_555
Fe5 O15 2.063462 1_555
Fe5 O14 2.078764 1_555
Fe5 O11 2.079845 1_555
