# generated using pymatgen
data_Fe25O32
_symmetry_space_group_name_H-M   'P 1'
_cell_length_a   15.21867624
_cell_length_b   15.21867624
_cell_length_c   2.87713300
_cell_angle_alpha   90.00000000
_cell_angle_beta   90.00000000
_cell_angle_gamma   119.73464084
_symmetry_Int_Tables_number   1
_chemical_formula_structural   Fe25O32
_chemical_formula_sum   'Fe25 O32'
_cell_volume   578.62794158
_cell_formula_units_Z   1
loop_
 _symmetry_equiv_pos_site_id
 _symmetry_equiv_pos_as_xyz
  1  'x, y, z'
loop_
 _atom_site_type_symbol
 _atom_site_label
 _atom_site_symmetry_multiplicity
 _atom_site_fract_x
 _atom_site_fract_y
 _atom_site_fract_z
 _atom_site_occupancy
  Fe  Fe0  1  0.00275900  0.00275900  0.00000000  1
  Fe  Fe1  1  0.20475800  0.20475800  0.00000000  1
  Fe  Fe2  1  0.99802000  0.79693200  0.00000000  1
  Fe  Fe3  1  0.79693200  0.99802000  0.00000000  1
  Fe  Fe4  1  0.39162300  0.39162300  0.00000000  1
  Fe  Fe5  1  0.99891100  0.60821500  0.00000000  1
  Fe  Fe6  1  0.60821500  0.99891100  0.00000000  1
  Fe  Fe7  1  0.00113900  0.19739600  0.50000000  1
  Fe  Fe8  1  0.19739600  0.00113900  0.50000000  1
  Fe  Fe9  1  0.80723400  0.80723400  0.50000000  1
  Fe  Fe10  1  0.18376400  0.40160300  0.50000000  1
  Fe  Fe11  1  0.21167800  0.80997900  0.50000000  1
  Fe  Fe12  1  0.59774000  0.78297800  0.50000000  1
  Fe  Fe13  1  0.40160300  0.18376400  0.50000000  1
  Fe  Fe14  1  0.80997900  0.21167800  0.50000000  1
  Fe  Fe15  1  0.78297800  0.59774000  0.50000000  1
  Fe  Fe16  1  0.38566500  0.59077000  0.50000000  1
  Fe  Fe17  1  0.20669800  0.61425600  0.50000000  1
  Fe  Fe18  1  0.40905500  0.79669600  0.50000000  1
  Fe  Fe19  1  0.59077000  0.38566500  0.50000000  1
  Fe  Fe20  1  0.61425600  0.20669800  0.50000000  1
  Fe  Fe21  1  0.79669600  0.40905500  0.50000000  1
  Fe  Fe22  1  0.00100000  0.41450200  0.00000000  1
  Fe  Fe23  1  0.41450200  0.00100000  0.00000000  1
  Fe  Fe24  1  0.58725100  0.58725100  0.00000000  1
  O  O0  1  0.10496300  0.10496300  0.50000000  1
  O  O1  1  0.98935900  0.88768200  0.50000000  1
  O  O2  1  0.88768200  0.98935900  0.50000000  1
  O  O3  1  0.29820100  0.29820100  0.50000000  1
  O  O4  1  0.00364900  0.70595900  0.50000000  1
  O  O5  1  0.70595900  0.00364900  0.50000000  1
  O  O6  1  0.48748500  0.48748500  0.50000000  1
  O  O7  1  0.99736500  0.51086300  0.50000000  1
  O  O8  1  0.51086300  0.99736500  0.50000000  1
  O  O9  1  0.12933000  0.28295200  0.00000000  1
  O  O10  1  0.15434500  0.87336000  0.00000000  1
  O  O11  1  0.71345300  0.84400800  0.00000000  1
  O  O12  1  0.28295200  0.12933000  0.00000000  1
  O  O13  1  0.87336000  0.15434500  0.00000000  1
  O  O14  1  0.84400800  0.71345300  0.00000000  1
  O  O15  1  0.31041100  0.46630300  0.00000000  1
  O  O16  1  0.15463200  0.68774500  0.00000000  1
  O  O17  1  0.53369100  0.84496800  0.00000000  1
  O  O18  1  0.46630300  0.31041100  0.00000000  1
  O  O19  1  0.68774500  0.15463200  0.00000000  1
  O  O20  1  0.84496800  0.53369100  0.00000000  1
  O  O21  1  0.33392900  0.66829300  0.00000000  1
  O  O22  1  0.66829300  0.33392900  0.00000000  1
  O  O23  1  0.00926800  0.33287600  0.50000000  1
  O  O24  1  0.33287500  0.00926800  0.50000000  1
  O  O25  1  0.67303600  0.67303600  0.50000000  1
  O  O26  1  0.15448700  0.48710200  0.00000000  1
  O  O27  1  0.32760300  0.84801600  0.00000000  1
  O  O28  1  0.51541100  0.66873000  0.00000000  1
  O  O29  1  0.48710200  0.15448700  0.00000000  1
  O  O30  1  0.84801600  0.32760300  0.00000000  1
  O  O31  1  0.66873000  0.51541100  0.00000000  1
loop_
_geom_bond_atom_site_label_1
_geom_bond_atom_site_label_2
_geom_bond_distance
_geom_bond_site_symmetry_2
Fe0 O0 2.123254 1_555
Fe0 O0 2.123254 1_554
Fe0 O1 2.196339 1_444
Fe0 O1 2.196339 1_445
Fe0 O2 2.196339 1_444
Fe0 O2 2.196339 1_445
Fe1 O12 2.022099 1_555
Fe1 O9 2.022099 1_555
Fe1 O3 2.026827 1_554
Fe1 O3 2.026827 1_555
Fe1 O0 2.096329 1_554
Fe1 O0 2.096329 1_555
Fe2 O4 2.027627 1_654
Fe2 O4 2.027627 1_655
Fe2 O14 2.038107 1_555
Fe2 O1 2.043245 1_554
Fe2 O1 2.043245 1_555
Fe2 O10 2.065882 1_655
Fe3 O5 2.027627 1_564
Fe3 O5 2.027627 1_565
Fe3 O11 2.038107 1_555
Fe3 O2 2.043245 1_554
Fe3 O2 2.043245 1_555
Fe3 O13 2.065882 1_565
Fe4 O3 2.026601 1_554
Fe4 O3 2.026601 1_555
Fe4 O18 2.052473 1_555
Fe4 O15 2.052473 1_555
Fe4 O6 2.053031 1_555
Fe4 O6 2.053031 1_554
Fe5 O20 2.034526 1_555
Fe5 O4 2.044757 1_655
Fe5 O4 2.044757 1_654
Fe5 O7 2.056817 1_554
Fe5 O7 2.056817 1_555
Fe5 O16 2.058128 1_655
Fe6 O17 2.034526 1_555
Fe6 O5 2.044757 1_564
Fe6 O5 2.044757 1_565
Fe6 O8 2.056817 1_555
Fe6 O8 2.056817 1_554
Fe6 O19 2.058128 1_565
Fe7 O23 2.003349 1_555
Fe7 O13 2.239746 1_455
Fe7 O13 2.239746 1_456
Fe7 O9 2.247453 1_555
Fe7 O9 2.247453 1_556
Fe7 O0 2.584621 1_555
Fe7 O2 2.753623 1_445
Fe8 O24 2.003334 1_555
Fe8 O10 2.239746 1_545
Fe8 O10 2.239746 1_546
Fe8 O12 2.247453 1_555
Fe8 O12 2.247453 1_556
Fe8 O0 2.584621 1_555
Fe8 O1 2.753623 1_445
Fe9 O25 2.050502 1_555
Fe9 O11 2.282976 1_555
Fe9 O11 2.282976 1_556
Fe9 O14 2.282976 1_556
Fe9 O14 2.282976 1_555
Fe9 O1 2.411452 1_555
Fe9 O2 2.411452 1_555
Fe10 O9 2.128961 1_555
Fe10 O9 2.128961 1_556
Fe10 O26 2.129827 1_556
Fe10 O26 2.129827 1_555
Fe10 O15 2.207104 1_556
Fe10 O15 2.207104 1_555
Fe10 O23 2.321833 1_555
Fe11 O27 2.122263 1_556
Fe11 O27 2.122263 1_555
Fe11 O10 2.143841 1_556
Fe11 O10 2.143841 1_555
Fe11 O16 2.163713 1_556
Fe11 O16 2.163713 1_555
Fe11 O24 2.655456 1_565
Fe12 O11 2.100186 1_555
Fe12 O11 2.100186 1_556
Fe12 O28 2.121657 1_555
Fe12 O28 2.121657 1_556
Fe12 O17 2.195859 1_555
Fe12 O17 2.195859 1_556
Fe12 O25 2.452447 1_555
Fe13 O12 2.128961 1_555
Fe13 O12 2.128961 1_556
Fe13 O29 2.129827 1_555
Fe13 O29 2.129827 1_556
Fe13 O18 2.207104 1_556
Fe13 O18 2.207104 1_555
Fe13 O24 2.321832 1_555
Fe14 O30 2.122263 1_555
Fe14 O30 2.122263 1_556
Fe14 O13 2.143841 1_555
Fe14 O13 2.143841 1_556
Fe14 O19 2.163713 1_555
Fe14 O19 2.163713 1_556
Fe14 O23 2.655458 1_655
Fe15 O14 2.100186 1_556
Fe15 O14 2.100186 1_555
Fe15 O31 2.121657 1_556
Fe15 O31 2.121657 1_555
Fe15 O20 2.195859 1_556
Fe15 O20 2.195859 1_555
Fe15 O25 2.452447 1_555
Fe16 O15 2.194818 1_556
Fe16 O15 2.194818 1_555
Fe16 O21 2.236689 1_555
Fe16 O21 2.236689 1_556
Fe16 O28 2.247695 1_556
Fe16 O28 2.247695 1_555
Fe17 O16 2.197098 1_555
Fe17 O16 2.197098 1_556
Fe17 O21 2.217075 1_556
Fe17 O21 2.217075 1_555
Fe17 O26 2.218163 1_556
Fe17 O26 2.218163 1_555
Fe18 O17 2.196528 1_555
Fe18 O17 2.196528 1_556
Fe18 O21 2.231370 1_556
Fe18 O21 2.231370 1_555
Fe18 O27 2.275177 1_556
Fe18 O27 2.275177 1_555
Fe18 O8 2.652040 1_555
Fe19 O18 2.194818 1_556
Fe19 O18 2.194818 1_555
Fe19 O22 2.236689 1_556
Fe19 O22 2.236689 1_555
Fe19 O31 2.247695 1_556
Fe19 O31 2.247695 1_555
Fe20 O19 2.197098 1_555
Fe20 O19 2.197098 1_556
Fe20 O22 2.217075 1_556
Fe20 O22 2.217075 1_555
Fe20 O29 2.218163 1_555
Fe20 O29 2.218163 1_556
Fe21 O20 2.196528 1_555
Fe21 O20 2.196528 1_556
Fe21 O22 2.231370 1_556
Fe21 O22 2.231370 1_555
Fe21 O30 2.275177 1_555
Fe21 O30 2.275177 1_556
Fe21 O7 2.652040 1_555
Fe22 O23 1.945127 1_555
Fe22 O23 1.945127 1_554
Fe22 O30 2.028608 1_455
Fe22 O26 2.029019 1_555
Fe22 O7 2.074510 1_455
Fe22 O7 2.074510 1_454
Fe23 O24 1.945137 1_555
Fe23 O24 1.945137 1_554
Fe23 O27 2.028608 1_545
Fe23 O29 2.029019 1_555
Fe23 O8 2.074510 1_544
Fe23 O8 2.074510 1_545
Fe24 O25 1.946172 1_554
Fe24 O25 1.946172 1_555
Fe24 O28 2.019344 1_555
Fe24 O31 2.019344 1_555
Fe24 O6 2.096007 1_555
Fe24 O6 2.096007 1_554
