# generated using pymatgen
data_Mg2Pb
_symmetry_space_group_name_H-M   'P 1'
_cell_length_a   4.47125076
_cell_length_b   7.65263575
_cell_length_c   8.64476337
_cell_angle_alpha   90.00000000
_cell_angle_beta   90.00000000
_cell_angle_gamma   90.00000000
_symmetry_Int_Tables_number   1
_chemical_formula_structural   Mg2Pb
_chemical_formula_sum   'Mg8 Pb4'
_cell_volume   295.79660102
_cell_formula_units_Z   4
loop_
 _symmetry_equiv_pos_site_id
 _symmetry_equiv_pos_as_xyz
  1  'x, y, z'
loop_
 _atom_site_type_symbol
 _atom_site_label
 _atom_site_symmetry_multiplicity
 _atom_site_fract_x
 _atom_site_fract_y
 _atom_site_fract_z
 _atom_site_occupancy
  Mg  Mg0  1  0.75000000  0.45588822  0.17359057  1
  Mg  Mg1  1  0.75000000  0.95588922  0.32640943  1
  Mg  Mg2  1  0.25000000  0.54411078  0.82640943  1
  Mg  Mg3  1  0.25000000  0.04411178  0.67359057  1
  Mg  Mg4  1  0.75000000  0.36989440  0.55749558  1
  Mg  Mg5  1  0.75000000  0.86989440  0.94250442  1
  Mg  Mg6  1  0.25000000  0.63010560  0.44250442  1
  Mg  Mg7  1  0.25000000  0.13010560  0.05749558  1
  Pb  Pb0  1  0.75000000  0.25656389  0.87035191  1
  Pb  Pb1  1  0.75000000  0.75656389  0.62964809  1
  Pb  Pb2  1  0.25000000  0.74343611  0.12964809  1
  Pb  Pb3  1  0.25000000  0.24343611  0.37035191  1
loop_
_geom_bond_atom_site_label_1
_geom_bond_atom_site_label_2
_geom_bond_distance
_geom_bond_site_symmetry_2
Mg0 Pb0 3.032918 1_554
Mg0 Pb2 3.159829 1_555
Mg0 Pb2 3.159829 1_655
Mg0 Pb3 3.245698 1_555
Mg0 Pb3 3.245698 1_655
Mg1 Pb1 3.032921 1_555
Mg1 Pb3 3.159824 1_565
Mg1 Pb3 3.159824 1_665
Mg1 Pb2 3.245702 1_655
Mg1 Pb2 3.245702 1_555
Mg2 Pb2 3.032921 1_556
Mg2 Pb0 3.159824 1_555
Mg2 Pb0 3.159824 1_455
Mg2 Pb1 3.245702 1_455
Mg2 Pb1 3.245702 1_555
Mg3 Pb3 3.032918 1_555
Mg3 Pb1 3.159829 1_445
Mg3 Pb1 3.159829 1_545
Mg3 Pb0 3.245698 1_555
Mg3 Pb0 3.245698 1_455
Mg4 Pb0 2.840222 1_555
Mg4 Pb3 2.924356 1_655
Mg4 Pb3 2.924356 1_555
Mg4 Pb1 3.024066 1_555
Mg5 Pb1 2.840222 1_555
Mg5 Pb2 2.924356 1_656
Mg5 Pb2 2.924356 1_556
Mg5 Pb0 3.024066 1_565
Mg6 Pb2 2.840222 1_555
Mg6 Pb1 2.924356 1_455
Mg6 Pb1 2.924356 1_555
Mg6 Pb3 3.024066 1_555
Mg7 Pb3 2.840222 1_555
Mg7 Pb0 2.924356 1_454
Mg7 Pb0 2.924356 1_554
Mg7 Pb2 3.024066 1_545
