# generated using pymatgen
data_ErCo2(B2Rh)2
_symmetry_space_group_name_H-M   'P 1'
_cell_length_a   5.20077100
_cell_length_b   5.20077100
_cell_length_c   7.19864000
_cell_angle_alpha   90.00000000
_cell_angle_beta   90.00000000
_cell_angle_gamma   90.00000000
_symmetry_Int_Tables_number   1
_chemical_formula_structural   ErCo2(B2Rh)2
_chemical_formula_sum   'Er2 Co4 B8 Rh4'
_cell_volume   194.70895145
_cell_formula_units_Z   2
loop_
 _symmetry_equiv_pos_site_id
 _symmetry_equiv_pos_as_xyz
  1  'x, y, z'
loop_
 _atom_site_type_symbol
 _atom_site_label
 _atom_site_symmetry_multiplicity
 _atom_site_fract_x
 _atom_site_fract_y
 _atom_site_fract_z
 _atom_site_occupancy
  Er  Er0  1  0.50000000  0.00000000  0.25631000  1
  Er  Er1  1  0.00000000  0.50000000  0.75631000  1
  Co  Co0  1  0.75181500  0.50000000  0.10718200  1
  Co  Co1  1  0.24818500  0.50000000  0.10718200  1
  Co  Co2  1  0.50000000  0.75181500  0.60718200  1
  Co  Co3  1  0.50000000  0.24818500  0.60718200  1
  B  B0  1  0.33585000  0.50000000  0.40517400  1
  B  B1  1  0.66415000  0.50000000  0.40517400  1
  B  B2  1  0.50000000  0.33585000  0.90517400  1
  B  B3  1  0.50000000  0.66415000  0.90517400  1
  B  B4  1  0.18354400  0.00000000  0.59390800  1
  B  B5  1  0.81645600  0.00000000  0.59390800  1
  B  B6  1  0.00000000  0.18354400  0.09390800  1
  B  B7  1  0.00000000  0.81645600  0.09390800  1
  Rh  Rh0  1  0.74773000  0.00000000  0.89058100  1
  Rh  Rh1  1  0.25227000  0.00000000  0.89058100  1
  Rh  Rh2  1  0.00000000  0.74773000  0.39058100  1
  Rh  Rh3  1  0.00000000  0.25227000  0.39058100  1
loop_
_geom_bond_atom_site_label_1
_geom_bond_atom_site_label_2
_geom_bond_distance
_geom_bond_site_symmetry_2
Er0 Rh0 2.931096 1_554
Er0 Rh1 2.931096 1_554
Er0 Rh3 3.068811 1_655
Er0 Rh2 3.068811 1_545
Er0 Rh3 3.068811 1_555
Er0 Rh2 3.068811 1_645
Er1 Rh2 2.931096 1_555
Er1 Rh3 2.931096 1_555
Er1 Rh0 3.068811 1_455
Er1 Rh1 3.068811 1_565
Er1 Rh1 3.068811 1_555
Er1 Rh0 3.068811 1_465
Co0 Er1 2.836497 1_654
Co0 Er0 3.103157 1_555
Co0 Er0 3.103157 1_565
Co1 Er1 2.836497 1_554
Co1 Er0 3.103157 1_555
Co1 Er0 3.103157 1_565
Co2 Er0 2.836497 1_565
Co2 Er1 3.103157 1_555
Co2 Er1 3.103157 1_655
Co3 Er0 2.836497 1_555
Co3 Er1 3.103157 1_555
Co3 Er1 3.103157 1_655
B0 B1 1.707413 1_555
B0 Co2 2.135088 1_555
B0 Co3 2.135088 1_555
B0 Rh3 2.172985 1_555
B0 Rh2 2.172985 1_555
B0 Co1 2.193053 1_555
B0 Er0 2.939249 1_565
B0 Er0 2.939249 1_555
B0 Er1 3.072485 1_555
B1 Co2 2.135088 1_555
B1 Co3 2.135088 1_555
B1 Rh3 2.172985 1_655
B1 Rh2 2.172985 1_655
B1 Co0 2.193053 1_555
B1 Er0 2.939249 1_565
B1 Er0 2.939249 1_555
B1 Er1 3.072485 1_655
B2 B3 1.707413 1_555
B2 Co1 2.135088 1_556
B2 Co0 2.135088 1_556
B2 Rh1 2.172985 1_555
B2 Rh0 2.172985 1_555
B2 Co3 2.193053 1_555
B2 Er1 2.939249 1_555
B2 Er1 2.939249 1_655
B2 Er0 3.072485 1_556
B3 Co1 2.135088 1_556
B3 Co0 2.135088 1_556
B3 Rh1 2.172985 1_565
B3 Rh0 2.172985 1_565
B3 Co2 2.193053 1_555
B3 Er1 2.939249 1_655
B3 Er1 2.939249 1_555
B3 Er0 3.072485 1_566
B4 B5 1.909141 1_455
B4 Co3 2.093772 1_555
B4 Co2 2.093772 1_545
B4 Rh1 2.165346 1_555
B4 Rh3 2.185154 1_555
B4 Rh2 2.185154 1_545
B4 Er0 2.935099 1_555
B4 Er1 3.006650 1_555
B4 Er1 3.006650 1_545
B5 Co3 2.093772 1_555
B5 Co2 2.093772 1_545
B5 Rh0 2.165346 1_555
B5 Rh3 2.185154 1_655
B5 Rh2 2.185154 1_645
B5 Er0 2.935099 1_555
B5 Er1 3.006650 1_655
B5 Er1 3.006650 1_645
B6 B7 1.909141 1_545
B6 Co1 2.093772 1_555
B6 Co0 2.093772 1_455
B6 Rh3 2.165346 1_555
B6 Rh1 2.185154 1_554
B6 Rh0 2.185154 1_454
B6 Er1 2.935099 1_554
B6 Er0 3.006650 1_555
B6 Er0 3.006650 1_455
B7 Co1 2.093772 1_555
B7 Co0 2.093772 1_455
B7 Rh2 2.165346 1_555
B7 Rh1 2.185154 1_564
B7 Rh0 2.185154 1_464
B7 Er1 2.935099 1_554
B7 Er0 3.006650 1_465
B7 Er0 3.006650 1_565
