# generated using pymatgen
data_Na2Li2Cu(BrO)2
_symmetry_space_group_name_H-M   'P 1'
_cell_length_a   10.99584594
_cell_length_b   10.99584594
_cell_length_c   10.99584594
_cell_angle_alpha   159.01046905
_cell_angle_beta   159.01046905
_cell_angle_gamma   29.85456373
_symmetry_Int_Tables_number   1
_chemical_formula_structural   Na2Li2Cu(BrO)2
_chemical_formula_sum   'Na2 Li2 Cu1 Br2 O2'
_cell_volume   170.48055399
_cell_formula_units_Z   1
loop_
 _symmetry_equiv_pos_site_id
 _symmetry_equiv_pos_as_xyz
  1  'x, y, z'
loop_
 _atom_site_type_symbol
 _atom_site_label
 _atom_site_symmetry_multiplicity
 _atom_site_fract_x
 _atom_site_fract_y
 _atom_site_fract_z
 _atom_site_occupancy
  Na  Na0  1  0.94365200  0.94365200  0.00000000  1
  Na  Na1  1  0.05634800  0.05634800  0.00000000  1
  Li  Li0  1  0.75000000  0.25000000  0.50000000  1
  Li  Li1  1  0.25000000  0.75000000  0.50000000  1
  Cu  Cu0  1  0.50000000  0.50000000  0.00000000  1
  Br  Br0  1  0.31967400  0.31967400  0.00000000  1
  Br  Br1  1  0.68032600  0.68032600  0.00000000  1
  O  O0  1  0.50000000  0.00000000  0.50000000  1
  O  O1  1  0.00000000  0.50000000  0.50000000  1
loop_
_geom_bond_atom_site_label_1
_geom_bond_atom_site_label_2
_geom_bond_distance
_geom_bond_site_symmetry_2
Na0 O0 2.333471 1_665
Na0 O0 2.333471 1_564
Na0 O1 2.333471 1_654
Na0 O1 2.333471 1_665
Na1 O1 2.333471 1_544
Na1 O0 2.333471 1_454
Na1 O1 2.333471 1_555
Na1 O0 2.333471 1_555
Cu0 O1 2.002846 1_655
Cu0 O0 2.002846 1_554
Cu0 O0 2.002846 1_565
Cu0 O1 2.002846 1_554
Br0 Li0 2.490661 1_555
Br0 Li1 2.490661 1_555
Br0 Li1 2.490661 1_544
Br0 Li0 2.490661 1_454
Br1 Li1 2.490661 1_554
Br1 Li0 2.490661 1_565
Br1 Li1 2.490661 1_655
Br1 Li0 2.490661 1_554
