# generated using pymatgen
data_MgV8(OF)8
_symmetry_space_group_name_H-M   'P 1'
_cell_length_a   5.00385648
_cell_length_b   10.48627745
_cell_length_c   5.67913056
_cell_angle_alpha   79.85850240
_cell_angle_beta   92.82774973
_cell_angle_gamma   88.39109569
_symmetry_Int_Tables_number   1
_chemical_formula_structural   MgV8(OF)8
_chemical_formula_sum   'Mg1 V8 O8 F8'
_cell_volume   292.77639049
_cell_formula_units_Z   1
loop_
 _symmetry_equiv_pos_site_id
 _symmetry_equiv_pos_as_xyz
  1  'x, y, z'
loop_
 _atom_site_type_symbol
 _atom_site_label
 _atom_site_symmetry_multiplicity
 _atom_site_fract_x
 _atom_site_fract_y
 _atom_site_fract_z
 _atom_site_occupancy
  Mg  Mg0  1  0.52194871  0.64605568  0.57003381  1
  V  V0  1  0.49387696  0.26109054  0.75343790  1
  V  V1  1  0.53089774  0.00445199  0.51629590  1
  V  V2  1  0.48442246  0.78129648  0.06967947  1
  V  V3  1  0.50263697  0.48372778  0.03376232  1
  V  V4  1  0.99051877  0.23076857  0.27691939  1
  V  V5  1  0.03900673  0.77678705  0.71636076  1
  V  V6  1  0.00339664  0.49724902  0.49155304  1
  V  V7  1  0.02521342  0.00641579  0.01833847  1
  O  O0  1  0.82926946  0.06984428  0.30495247  1
  O  O1  1  0.69756487  0.81972655  0.55680716  1
  O  O2  1  0.67003948  0.57134258  0.29296571  1
  O  O3  1  0.68772132  0.31986594  0.03485985  1
  O  O4  1  0.32498083  0.43910004  0.69687806  1
  O  O5  1  0.33558930  0.65287213  0.87858250  1
  O  O6  1  0.32368031  0.17825440  0.49405914  1
  O  O7  1  0.26145416  0.91731360  0.76752731  1
  F  F0  1  0.83708232  0.56825258  0.77254044  1
  F  F1  1  0.82254983  0.32022462  0.54615229  1
  F  F2  1  0.87977831  0.81891980  0.02506643  1
  F  F3  1  0.70004153  0.08113498  0.79755747  1
  F  F4  1  0.34652624  0.93336104  0.24382807  1
  F  F5  1  0.15973626  0.68304489  0.41855785  1
  F  F6  1  0.19954145  0.18934823  0.98202496  1
  F  F7  1  0.16585894  0.42455142  0.21744923  1
loop_
_geom_bond_atom_site_label_1
_geom_bond_atom_site_label_2
_geom_bond_distance
_geom_bond_site_symmetry_2
Mg0 O1 2.035360 1_555
Mg0 O5 2.036369 1_555
Mg0 O2 2.038488 1_555
Mg0 O4 2.416546 1_555
O0 V4 1.875780 1_555
O0 V1 2.020976 1_555
O0 V7 2.134316 1_655
O1 V5 1.898220 1_655
O1 V1 2.057704 1_565
O2 V6 2.022646 1_655
O2 V3 2.027447 1_555
O2 V2 2.470560 1_555
O3 V3 1.927854 1_555
O3 V0 2.025478 1_554
O3 V4 2.078719 1_555
O4 V6 1.957114 1_555
O4 V0 1.993818 1_555
O4 V3 2.200111 1_556
O5 V3 1.978623 1_556
O5 V2 2.009298 1_556
O5 V5 2.018631 1_555
O6 V0 2.004511 1_555
O6 V4 2.027216 1_455
O6 V1 2.052473 1_555
O7 V5 1.925073 1_555
O7 V1 2.118561 1_565
O7 V7 2.207280 1_566
O7 V2 2.254665 1_556
F0 Mg0 1.973127 1_555
F0 V6 2.075589 1_655
F0 V3 2.377453 1_556
F0 V5 2.411382 1_655
F1 V6 2.068891 1_655
F1 V0 2.113377 1_555
F1 V4 2.124119 1_555
F2 V2 2.047343 1_555
F2 V5 2.072316 1_654
F2 V7 2.110304 1_665
F3 V7 2.052969 1_656
F3 V1 2.066770 1_555
F3 V0 2.094444 1_555
F4 V1 2.026143 1_565
F4 V7 2.047928 1_565
F4 V2 2.134927 1_555
F5 Mg0 1.965876 1_555
F5 V6 2.100691 1_555
F5 V5 2.201035 1_555
F5 V2 2.705454 1_555
F6 V0 2.080227 1_555
F6 V7 2.110843 1_556
F6 V4 2.119164 1_456
F7 V6 2.042842 1_555
F7 V3 2.077828 1_555
F7 V4 2.213774 1_455
