# generated using pymatgen
data_Pr6N8O33
_symmetry_space_group_name_H-M   'P 1'
_cell_length_a   9.59931100
_cell_length_b   10.01408356
_cell_length_c   10.47738201
_cell_angle_alpha   116.02431653
_cell_angle_beta   114.22939748
_cell_angle_gamma   92.37728130
_symmetry_Int_Tables_number   1
_chemical_formula_structural   Pr6N8O33
_chemical_formula_sum   'Pr6 N8 O33'
_cell_volume   794.59326247
_cell_formula_units_Z   1
loop_
 _symmetry_equiv_pos_site_id
 _symmetry_equiv_pos_as_xyz
  1  'x, y, z'
loop_
 _atom_site_type_symbol
 _atom_site_label
 _atom_site_symmetry_multiplicity
 _atom_site_fract_x
 _atom_site_fract_y
 _atom_site_fract_z
 _atom_site_occupancy
  Pr  Pr0  1  0.88006500  0.76206400  0.62042000  1
  Pr  Pr1  1  0.11993500  0.23793600  0.37958000  1
  Pr  Pr2  1  0.77629500  0.41256700  0.17774300  1
  Pr  Pr3  1  0.22370500  0.58743300  0.82225700  1
  Pr  Pr4  1  0.80378400  0.34254200  0.51055800  1
  Pr  Pr5  1  0.19621600  0.65745800  0.48944200  1
  N  N0  1  0.73664600  0.51280300  0.87081800  1
  N  N1  1  0.26335400  0.48719700  0.12918200  1
  N  N2  1  0.88828200  0.08885600  0.67650600  1
  N  N3  1  0.11171800  0.91114400  0.32349400  1
  N  N4  1  0.55447300  0.82301000  0.67030400  1
  N  N5  1  0.44552700  0.17699000  0.32969600  1
  N  N6  1  0.44285300  0.21973900  0.90259500  1
  N  N7  1  0.55714700  0.78026100  0.09740500  1
  O  O0  1  0.72062400  0.51002700  0.39675100  1
  O  O1  1  0.27937600  0.48997300  0.60324900  1
  O  O2  1  0.89319000  0.22438200  0.70320800  1
  O  O3  1  0.10681000  0.77561800  0.29679200  1
  O  O4  1  0.30463600  0.15019700  0.79602100  1
  O  O5  1  0.69536400  0.84980300  0.20397900  1
  O  O6  1  0.68805500  0.40103000  0.72978400  1
  O  O7  1  0.31194500  0.59897000  0.27021600  1
  O  O8  1  0.95347300  0.60007400  0.73747600  1
  O  O9  1  0.04652700  0.39992600  0.26252400  1
  O  O10  1  0.15343300  0.76307400  0.72333200  1
  O  O11  1  0.84656700  0.23692600  0.27666800  1
  O  O12  1  0.78723800  0.97412000  0.54133500  1
  O  O13  1  0.21276200  0.02588000  0.45866500  1
  O  O14  1  0.52045400  0.17751000  0.00367500  1
  O  O15  1  0.47954600  0.82249000  0.99632500  1
  O  O16  1  0.91990700  0.67218500  0.39101700  1
  O  O17  1  0.08009300  0.32781500  0.60898300  1
  O  O18  1  0.70919500  0.63870400  0.89225100  1
  O  O19  1  0.29080500  0.36129600  0.10774900  1
  O  O20  1  0.01469800  0.93557600  0.21491800  1
  O  O21  1  0.98530200  0.06442400  0.78508200  1
  O  O22  1  0.00000000  0.50000000  0.50000000  1
  O  O23  1  0.81502100  0.49458800  0.99065300  1
  O  O24  1  0.18497900  0.50541200  0.00934700  1
  O  O25  1  0.50973600  0.67674400  0.60033900  1
  O  O26  1  0.49026400  0.32325600  0.39966100  1
  O  O27  1  0.70018600  0.89195500  0.73956100  1
  O  O28  1  0.29981400  0.10804500  0.26043900  1
  O  O29  1  0.51645300  0.34109600  0.91799800  1
  O  O30  1  0.48354700  0.65890400  0.08200200  1
  O  O31  1  0.45180600  0.89837300  0.66835800  1
  O  O32  1  0.54819400  0.10162700  0.33164200  1
loop_
_geom_bond_atom_site_label_1
_geom_bond_atom_site_label_2
_geom_bond_distance
_geom_bond_site_symmetry_2
N0 O18 1.239810 1_555
N0 O6 1.262347 1_555
N0 O23 1.269941 1_555
N1 O19 1.239810 1_555
N1 O7 1.262347 1_555
N1 O24 1.269941 1_555
N2 O2 1.254230 1_555
N2 O21 1.270782 1_555
N2 O12 1.272336 1_545
N3 O3 1.254230 1_555
N3 O20 1.270782 1_555
N3 O13 1.272336 1_565
N4 O31 1.264896 1_555
N4 O27 1.267635 1_555
N4 O25 1.270603 1_555
N5 O32 1.264896 1_555
N5 O28 1.267635 1_555
N5 O26 1.270603 1_555
N6 O4 1.231731 1_555
N6 O14 1.275514 1_556
N6 O29 1.290422 1_555
N7 O5 1.231731 1_555
N7 O15 1.275514 1_554
N7 O30 1.290422 1_555
O0 Pr2 2.363901 1_555
O0 Pr0 2.397899 1_555
O0 Pr4 2.440659 1_555
O1 Pr3 2.363901 1_555
O1 Pr1 2.397899 1_555
O1 Pr5 2.440659 1_555
O2 Pr4 2.639905 1_555
O3 Pr5 2.639905 1_555
O6 Pr4 2.796577 1_555
O7 Pr5 2.796577 1_555
O8 Pr0 2.400723 1_555
O8 Pr3 2.401823 1_655
O8 Pr4 2.424128 1_555
O9 Pr1 2.400723 1_555
O9 Pr2 2.401823 1_455
O9 Pr5 2.424128 1_555
O10 Pr0 2.390544 1_455
O10 Pr3 2.397348 1_555
O10 Pr5 2.424921 1_555
O11 Pr1 2.390544 1_655
O11 Pr2 2.397348 1_555
O11 Pr4 2.424921 1_555
O12 Pr0 2.661775 1_555
O13 Pr1 2.661775 1_555
O14 Pr2 2.641097 1_555
O15 Pr3 2.641097 1_555
O16 Pr0 2.370258 1_555
O16 Pr2 2.393586 1_555
O16 Pr5 2.457881 1_655
O17 Pr1 2.370258 1_555
O17 Pr3 2.393586 1_555
O17 Pr4 2.457881 1_455
O20 Pr1 2.626166 1_565
O21 Pr0 2.626166 1_545
O22 Pr4 2.474659 1_455
O22 Pr5 2.474659 1_555
O23 Pr2 2.576988 1_556
O24 Pr3 2.576988 1_554
O25 Pr5 2.707322 1_555
O26 Pr4 2.707322 1_555
O27 Pr0 2.600452 1_555
O28 Pr1 2.600452 1_555
O29 Pr2 2.590603 1_556
O30 Pr3 2.590603 1_554
O31 Pr5 2.668232 1_555
O32 Pr4 2.668232 1_555
