# generated using pymatgen
data_ThUC2
_symmetry_space_group_name_H-M   'P 1'
_cell_length_a   6.26599132
_cell_length_b   6.26599132
_cell_length_c   6.26599080
_cell_angle_alpha   33.62676847
_cell_angle_beta   33.62676847
_cell_angle_gamma   33.62677176
_symmetry_Int_Tables_number   1
_chemical_formula_structural   ThUC2
_chemical_formula_sum   'Th1 U1 C2'
_cell_volume   67.21055172
_cell_formula_units_Z   1
loop_
 _symmetry_equiv_pos_site_id
 _symmetry_equiv_pos_as_xyz
  1  'x, y, z'
loop_
 _atom_site_type_symbol
 _atom_site_label
 _atom_site_symmetry_multiplicity
 _atom_site_fract_x
 _atom_site_fract_y
 _atom_site_fract_z
 _atom_site_occupancy
  Th  Th0  1  0.50000000  0.50000000  0.50000000  1
  U  U0  1  0.00000000  0.00000000  -0.00000000  1
  C  C0  1  0.26627655  0.26627655  0.26627655  1
  C  C1  1  0.73372345  0.73372345  0.73372345  1
loop_
_geom_bond_atom_site_label_1
_geom_bond_atom_site_label_2
_geom_bond_distance
_geom_bond_site_symmetry_2
C0 U0 2.406606 1_556
C0 U0 2.406606 1_565
C0 U0 2.406606 1_655
C0 Th0 2.737710 1_554
C0 Th0 2.737710 1_455
C0 Th0 2.737710 1_545
C1 U0 2.406606 1_665
C1 U0 2.406606 1_566
C1 U0 2.406606 1_656
C1 Th0 2.737710 1_556
C1 Th0 2.737710 1_655
C1 Th0 2.737710 1_565
