# generated using pymatgen
data_Cr3N4
_symmetry_space_group_name_H-M   'P 1'
_cell_length_a   5.89144265
_cell_length_b   5.89144265
_cell_length_c   5.89144265
_cell_angle_alpha   109.47122063
_cell_angle_beta   109.47122063
_cell_angle_gamma   109.47122063
_symmetry_Int_Tables_number   1
_chemical_formula_structural   Cr3N4
_chemical_formula_sum   'Cr6 N8'
_cell_volume   157.41389770
_cell_formula_units_Z   2
loop_
 _symmetry_equiv_pos_site_id
 _symmetry_equiv_pos_as_xyz
  1  'x, y, z'
loop_
 _atom_site_type_symbol
 _atom_site_label
 _atom_site_symmetry_multiplicity
 _atom_site_fract_x
 _atom_site_fract_y
 _atom_site_fract_z
 _atom_site_occupancy
  Cr  Cr0  1  0.25000000  0.62500000  0.37500000  1
  Cr  Cr1  1  0.75000000  0.87500000  0.12500000  1
  Cr  Cr2  1  0.87500000  0.12500000  0.75000000  1
  Cr  Cr3  1  0.62500000  0.37500000  0.25000000  1
  Cr  Cr4  1  0.12500000  0.75000000  0.87500000  1
  Cr  Cr5  1  0.37500000  0.25000000  0.62500000  1
  N  N0  1  0.00000000  0.06181800  0.50000000  1
  N  N1  1  0.50000000  0.00000000  0.06181800  1
  N  N2  1  0.43818200  0.43818200  0.43818200  1
  N  N3  1  0.06181800  0.50000000  0.00000000  1
  N  N4  1  0.50000000  0.00000000  0.56181800  1
  N  N5  1  0.00000000  0.56181800  0.50000000  1
  N  N6  1  0.93818200  0.93818200  0.93818200  1
  N  N7  1  0.56181800  0.50000000  0.00000000  1
loop_
_geom_bond_atom_site_label_1
_geom_bond_atom_site_label_2
_geom_bond_distance
_geom_bond_site_symmetry_2
Cr0 N2 1.841348 1_555
Cr0 N3 1.841348 1_555
Cr0 N5 1.841348 1_555
Cr0 N4 1.841348 1_565
Cr1 N1 1.841348 1_565
Cr1 N0 1.841348 1_665
Cr1 N6 1.841348 1_554
Cr1 N7 1.841348 1_555
Cr2 N3 1.841348 1_656
Cr2 N0 1.841348 1_655
Cr2 N6 1.841348 1_545
Cr2 N4 1.841348 1_555
Cr3 N2 1.841348 1_555
Cr3 N1 1.841348 1_555
Cr3 N5 1.841348 1_655
Cr3 N7 1.841348 1_555
Cr4 N1 1.841348 1_566
Cr4 N3 1.841348 1_556
Cr4 N6 1.841348 1_455
Cr4 N5 1.841348 1_555
Cr5 N2 1.841348 1_555
Cr5 N0 1.841348 1_555
Cr5 N7 1.841348 1_556
Cr5 N4 1.841348 1_555
