# generated using pymatgen
data_LiMg
_symmetry_space_group_name_H-M   'P 1'
_cell_length_a   6.27186476
_cell_length_b   6.27186476
_cell_length_c   30.39660734
_cell_angle_alpha   90.00000000
_cell_angle_beta   90.00000000
_cell_angle_gamma   119.99498850
_symmetry_Int_Tables_number   1
_chemical_formula_structural   LiMg
_chemical_formula_sum   'Li24 Mg24'
_cell_volume   1035.54993205
_cell_formula_units_Z   24
loop_
 _symmetry_equiv_pos_site_id
 _symmetry_equiv_pos_as_xyz
  1  'x, y, z'
loop_
 _atom_site_type_symbol
 _atom_site_label
 _atom_site_symmetry_multiplicity
 _atom_site_fract_x
 _atom_site_fract_y
 _atom_site_fract_z
 _atom_site_occupancy
  Li  Li0_0  1  0.00000009  0.99999991  0.33299882  1
  Li  Li0_1  1  0.00000009  0.99999991  0.83299882  1
  Li  Li0_2  1  0.00000008  0.49999992  0.33299882  1
  Li  Li0_3  1  0.00000008  0.49999992  0.83299882  1
  Li  Li0_4  1  0.50000009  0.99999991  0.33299882  1
  Li  Li0_5  1  0.50000009  0.99999991  0.83299882  1
  Li  Li0_6  1  0.50000009  0.49999992  0.33299882  1
  Li  Li0_7  1  0.50000009  0.49999992  0.83299882  1
  Li  Li1_0  1  0.33333853  0.16666147  0.25000000  1
  Li  Li1_1  1  0.33333853  0.16666147  0.75000000  1
  Li  Li1_2  1  0.33333853  0.66666147  0.25000000  1
  Li  Li1_3  1  0.33333853  0.66666147  0.75000000  1
  Li  Li1_4  1  0.83333853  0.16666147  0.25000000  1
  Li  Li1_5  1  0.83333853  0.16666147  0.75000000  1
  Li  Li1_6  1  0.83333853  0.66666147  0.25000000  1
  Li  Li1_7  1  0.83333853  0.66666147  0.75000000  1
  Li  Li2_0  1  0.00000009  0.99999991  0.16700118  1
  Li  Li2_1  1  0.00000009  0.99999991  0.66700118  1
  Li  Li2_2  1  0.00000008  0.49999992  0.16700118  1
  Li  Li2_3  1  0.00000008  0.49999992  0.66700118  1
  Li  Li2_4  1  0.50000009  0.99999991  0.16700118  1
  Li  Li2_5  1  0.50000009  0.99999991  0.66700118  1
  Li  Li2_6  1  0.50000009  0.49999992  0.16700118  1
  Li  Li2_7  1  0.50000009  0.49999992  0.66700118  1
  Mg  Mg0_0  1  0.00000058  0.99999942  0.00000000  1
  Mg  Mg0_1  1  0.00000058  0.99999942  0.50000000  1
  Mg  Mg0_2  1  0.00000058  0.49999942  0.00000000  1
  Mg  Mg0_3  1  0.00000058  0.49999942  0.50000000  1
  Mg  Mg0_4  1  0.50000058  0.99999942  0.00000000  1
  Mg  Mg0_5  1  0.50000058  0.99999942  0.50000000  1
  Mg  Mg0_6  1  0.50000058  0.49999942  0.00000000  1
  Mg  Mg0_7  1  0.50000058  0.49999942  0.50000000  1
  Mg  Mg1_0  1  0.33333061  0.16666939  0.41462710  1
  Mg  Mg1_1  1  0.33333061  0.16666939  0.91462711  1
  Mg  Mg1_2  1  0.33333061  0.66666939  0.41462710  1
  Mg  Mg1_3  1  0.33333061  0.66666939  0.91462711  1
  Mg  Mg1_4  1  0.83333061  0.16666939  0.41462710  1
  Mg  Mg1_5  1  0.83333061  0.16666939  0.91462711  1
  Mg  Mg1_6  1  0.83333061  0.66666939  0.41462710  1
  Mg  Mg1_7  1  0.83333061  0.66666939  0.91462711  1
  Mg  Mg2_0  1  0.33333061  0.16666939  0.08537290  1
  Mg  Mg2_1  1  0.33333061  0.16666939  0.58537290  1
  Mg  Mg2_2  1  0.33333061  0.66666939  0.08537290  1
  Mg  Mg2_3  1  0.33333061  0.66666939  0.58537290  1
  Mg  Mg2_4  1  0.83333061  0.16666939  0.08537290  1
  Mg  Mg2_5  1  0.83333061  0.16666939  0.58537290  1
  Mg  Mg2_6  1  0.83333061  0.66666939  0.08537290  1
  Mg  Mg2_7  1  0.83333061  0.66666939  0.58537290  1
loop_
_geom_bond_atom_site_label_1
_geom_bond_atom_site_label_2
_geom_bond_distance
_geom_bond_site_symmetry_2
Li0_0 Mg1_4 3.071553 1_465
Li0_0 Mg1_6 3.071607 1_455
Li0_0 Mg1_0 3.071607 1_565
Li0_0 Li1_4 3.105253 1_465
Li0_0 Li1_0 3.105381 1_565
Li0_0 Li1_6 3.105381 1_455
Li0_0 Li0_2 3.135932 1_555
Li0_0 Li0_4 3.135932 1_455
Li0_0 Li0_4 3.135932 1_555
Li0_0 Li0_2 3.135932 1_565
Li0_0 Li0_6 3.136170 1_455
Li0_0 Li0_6 3.136170 1_565
Li0_1 Mg1_5 3.071553 1_465
Li0_1 Mg1_7 3.071607 1_455
Li0_1 Mg1_1 3.071607 1_565
Li0_1 Li1_5 3.105253 1_465
Li0_1 Li1_7 3.105381 1_455
Li0_1 Li1_1 3.105381 1_565
Li0_1 Li0_3 3.135932 1_555
Li0_1 Li0_5 3.135932 1_455
Li0_1 Li0_5 3.135932 1_555
Li0_1 Li0_3 3.135932 1_565
Li0_1 Li0_7 3.136170 1_455
Li0_1 Li0_7 3.136170 1_565
Li0_2 Mg1_6 3.071553 1_455
Li0_2 Mg1_2 3.071607 1_555
Li0_2 Mg1_4 3.071607 1_455
Li0_2 Li1_6 3.105253 1_455
Li0_2 Li1_2 3.105381 1_555
Li0_2 Li1_4 3.105381 1_455
Li0_2 Li0_6 3.135932 1_455
Li0_2 Li0_6 3.135932 1_555
Li0_2 Li0_4 3.136170 1_445
Li0_2 Li0_4 3.136170 1_555
Li0_3 Mg1_7 3.071553 1_455
Li0_3 Mg1_5 3.071607 1_455
Li0_3 Mg1_3 3.071607 1_555
Li0_3 Li1_7 3.105253 1_455
Li0_3 Li1_3 3.105381 1_555
Li0_3 Li1_5 3.105381 1_455
Li0_3 Li0_7 3.135932 1_455
Li0_3 Li0_7 3.135932 1_555
Li0_3 Li0_5 3.136170 1_445
Li0_3 Li0_5 3.136170 1_555
Li0_4 Mg1_0 3.071553 1_565
Li0_4 Mg1_2 3.071607 1_555
Li0_4 Mg1_4 3.071607 1_565
Li0_4 Li1_0 3.105253 1_565
Li0_4 Li1_2 3.105381 1_555
Li0_4 Li1_4 3.105381 1_565
Li0_4 Li0_6 3.135932 1_555
Li0_4 Li0_6 3.135932 1_565
Li0_5 Mg1_1 3.071553 1_565
Li0_5 Mg1_3 3.071607 1_555
Li0_5 Mg1_5 3.071607 1_565
Li0_5 Li1_1 3.105253 1_565
Li0_5 Li1_3 3.105381 1_555
Li0_5 Li1_5 3.105381 1_565
Li0_5 Li0_7 3.135932 1_555
Li0_5 Li0_7 3.135932 1_565
Li0_6 Mg1_2 3.071553 1_555
Li0_6 Mg1_6 3.071607 1_555
Li0_6 Mg1_0 3.071607 1_555
Li0_6 Li1_2 3.105253 1_555
Li0_6 Li1_6 3.105381 1_555
Li0_6 Li1_0 3.105381 1_555
Li0_7 Mg1_3 3.071553 1_555
Li0_7 Mg1_7 3.071607 1_555
Li0_7 Mg1_1 3.071607 1_555
Li0_7 Li1_3 3.105253 1_555
Li0_7 Li1_7 3.105381 1_555
Li0_7 Li1_1 3.105381 1_555
Li1_0 Li2_4 3.105253 1_545
Li1_0 Li2_6 3.105381 1_555
Li1_0 Li2_0 3.105381 1_545
Li1_0 Li1_4 3.135932 1_455
Li1_0 Li1_4 3.135932 1_555
Li1_0 Li1_2 3.135932 1_545
Li1_0 Li1_2 3.135932 1_555
Li1_0 Li1_6 3.136170 1_445
Li1_0 Li1_6 3.136170 1_555
Li1_1 Li2_5 3.105253 1_545
Li1_1 Li2_1 3.105381 1_545
Li1_1 Li2_7 3.105381 1_555
Li1_1 Li1_5 3.135932 1_555
Li1_1 Li1_3 3.135932 1_545
Li1_1 Li1_3 3.135932 1_555
Li1_1 Li1_5 3.135932 1_455
Li1_1 Li1_7 3.136170 1_445
Li1_1 Li1_7 3.136170 1_555
Li1_2 Li2_6 3.105253 1_555
Li1_2 Li2_4 3.105381 1_555
Li1_2 Li2_2 3.105381 1_555
Li1_2 Li1_6 3.135932 1_555
Li1_2 Li1_6 3.135932 1_455
Li1_2 Li1_4 3.136170 1_565
Li1_2 Li1_4 3.136170 1_455
Li1_3 Li2_7 3.105253 1_555
Li1_3 Li2_5 3.105381 1_555
Li1_3 Li2_3 3.105381 1_555
Li1_3 Li1_7 3.135932 1_455
Li1_3 Li1_7 3.135932 1_555
Li1_3 Li1_5 3.136170 1_565
Li1_3 Li1_5 3.136170 1_455
Li1_4 Li2_0 3.105253 1_645
Li1_4 Li2_4 3.105381 1_545
Li1_4 Li2_2 3.105381 1_655
Li1_4 Li1_6 3.135932 1_545
Li1_4 Li1_6 3.135932 1_555
Li1_5 Li2_1 3.105253 1_645
Li1_5 Li2_5 3.105381 1_545
Li1_5 Li2_3 3.105381 1_655
Li1_5 Li1_7 3.135932 1_545
Li1_5 Li1_7 3.135932 1_555
Li1_6 Li2_2 3.105253 1_655
Li1_6 Li2_6 3.105381 1_555
Li1_6 Li2_0 3.105381 1_655
Li1_7 Li2_3 3.105253 1_655
Li1_7 Li2_1 3.105381 1_655
Li1_7 Li2_7 3.105381 1_555
Li2_0 Mg2_4 3.071553 1_465
Li2_0 Mg2_6 3.071607 1_455
Li2_0 Mg2_0 3.071607 1_565
Li2_0 Li2_2 3.135932 1_555
Li2_0 Li2_4 3.135932 1_455
Li2_0 Li2_4 3.135932 1_555
Li2_0 Li2_2 3.135932 1_565
Li2_0 Li2_6 3.136170 1_455
Li2_0 Li2_6 3.136170 1_565
Li2_1 Mg2_5 3.071553 1_465
Li2_1 Mg2_7 3.071607 1_455
Li2_1 Mg2_1 3.071607 1_565
Li2_1 Li2_3 3.135932 1_555
Li2_1 Li2_5 3.135932 1_455
Li2_1 Li2_5 3.135932 1_555
Li2_1 Li2_3 3.135932 1_565
Li2_1 Li2_7 3.136170 1_455
Li2_1 Li2_7 3.136170 1_565
Li2_2 Mg2_6 3.071553 1_455
Li2_2 Mg2_2 3.071607 1_555
Li2_2 Mg2_4 3.071607 1_455
Li2_2 Li2_6 3.135932 1_455
Li2_2 Li2_6 3.135932 1_555
Li2_2 Li2_4 3.136170 1_445
Li2_2 Li2_4 3.136170 1_555
Li2_3 Mg2_7 3.071553 1_455
Li2_3 Mg2_3 3.071607 1_555
Li2_3 Mg2_5 3.071607 1_455
Li2_3 Li2_7 3.135932 1_455
Li2_3 Li2_7 3.135932 1_555
Li2_3 Li2_5 3.136170 1_445
Li2_3 Li2_5 3.136170 1_555
Li2_4 Mg2_0 3.071553 1_565
Li2_4 Mg2_2 3.071607 1_555
Li2_4 Mg2_4 3.071607 1_565
Li2_4 Li2_6 3.135932 1_555
Li2_4 Li2_6 3.135932 1_565
Li2_5 Mg2_1 3.071553 1_565
Li2_5 Mg2_3 3.071607 1_555
Li2_5 Mg2_5 3.071607 1_565
Li2_5 Li2_7 3.135932 1_555
Li2_5 Li2_7 3.135932 1_565
Li2_6 Mg2_2 3.071553 1_555
Li2_6 Mg2_6 3.071607 1_555
Li2_6 Mg2_0 3.071607 1_555
Li2_7 Mg2_3 3.071553 1_555
Li2_7 Mg2_7 3.071607 1_555
Li2_7 Mg2_1 3.071607 1_555
Mg0_0 Mg0_2 3.135932 1_565
Mg0_0 Mg0_4 3.135932 1_455
Mg0_0 Mg0_2 3.135932 1_555
Mg0_0 Mg0_4 3.135932 1_555
Mg0_0 Mg0_6 3.136170 1_455
Mg0_0 Mg0_6 3.136170 1_565
Mg0_0 Mg1_5 3.164215 1_464
Mg0_0 Mg2_4 3.164215 1_465
Mg0_0 Mg1_7 3.164262 1_454
Mg0_0 Mg1_1 3.164262 1_564
Mg0_0 Mg2_6 3.164262 1_455
Mg0_0 Mg2_0 3.164262 1_565
Mg0_1 Mg0_5 3.135932 1_455
Mg0_1 Mg0_3 3.135932 1_565
Mg0_1 Mg0_5 3.135932 1_555
Mg0_1 Mg0_3 3.135932 1_555
Mg0_1 Mg0_7 3.136170 1_455
Mg0_1 Mg0_7 3.136170 1_565
Mg0_1 Mg1_4 3.164215 1_465
Mg0_1 Mg2_5 3.164215 1_465
Mg0_1 Mg2_7 3.164262 1_455
Mg0_1 Mg1_6 3.164262 1_455
Mg0_1 Mg2_1 3.164262 1_565
Mg0_1 Mg1_0 3.164262 1_565
Mg0_2 Mg0_6 3.135932 1_555
Mg0_2 Mg0_6 3.135932 1_455
Mg0_2 Mg0_4 3.136170 1_555
Mg0_2 Mg0_4 3.136170 1_445
Mg0_2 Mg1_7 3.164215 1_454
Mg0_2 Mg2_6 3.164215 1_455
Mg0_2 Mg1_5 3.164262 1_454
Mg0_2 Mg1_3 3.164262 1_554
Mg0_2 Mg2_2 3.164262 1_555
Mg0_2 Mg2_4 3.164262 1_455
Mg0_3 Mg0_7 3.135932 1_455
Mg0_3 Mg0_7 3.135932 1_555
Mg0_3 Mg0_5 3.136170 1_445
Mg0_3 Mg0_5 3.136170 1_555
Mg0_3 Mg1_6 3.164215 1_455
Mg0_3 Mg2_7 3.164215 1_455
Mg0_3 Mg1_2 3.164262 1_555
Mg0_3 Mg2_3 3.164262 1_555
Mg0_3 Mg2_5 3.164262 1_455
Mg0_3 Mg1_4 3.164262 1_455
Mg0_4 Mg0_6 3.135932 1_555
Mg0_4 Mg0_6 3.135932 1_565
Mg0_4 Mg1_1 3.164215 1_564
Mg0_4 Mg2_0 3.164215 1_565
Mg0_4 Mg1_3 3.164262 1_554
Mg0_4 Mg1_5 3.164262 1_564
Mg0_4 Mg2_2 3.164262 1_555
Mg0_4 Mg2_4 3.164262 1_565
Mg0_5 Mg0_7 3.135932 1_565
Mg0_5 Mg0_7 3.135932 1_555
Mg0_5 Mg2_1 3.164215 1_565
Mg0_5 Mg1_0 3.164215 1_565
Mg0_5 Mg1_2 3.164262 1_555
Mg0_5 Mg2_3 3.164262 1_555
Mg0_5 Mg2_5 3.164262 1_565
Mg0_5 Mg1_4 3.164262 1_565
Mg0_6 Mg1_3 3.164215 1_554
Mg0_6 Mg2_2 3.164215 1_555
Mg0_6 Mg1_7 3.164262 1_554
Mg0_6 Mg1_1 3.164262 1_554
Mg0_6 Mg2_6 3.164262 1_555
Mg0_6 Mg2_0 3.164262 1_555
Mg0_7 Mg1_2 3.164215 1_555
Mg0_7 Mg2_3 3.164215 1_555
Mg0_7 Mg2_7 3.164262 1_555
Mg0_7 Mg2_1 3.164262 1_555
Mg0_7 Mg1_6 3.164262 1_555
Mg0_7 Mg1_0 3.164262 1_555
Mg1_0 Mg1_2 3.135932 1_545
Mg1_0 Mg1_4 3.135932 1_455
Mg1_0 Mg1_4 3.135932 1_555
Mg1_0 Mg1_2 3.135932 1_555
Mg1_0 Mg1_6 3.136170 1_555
Mg1_0 Mg1_6 3.136170 1_445
Mg1_1 Mg1_3 3.135932 1_545
Mg1_1 Mg1_5 3.135932 1_455
Mg1_1 Mg1_3 3.135932 1_555
Mg1_1 Mg1_5 3.135932 1_555
Mg1_1 Mg1_7 3.136170 1_555
Mg1_1 Mg1_7 3.136170 1_445
Mg1_2 Mg1_6 3.135932 1_555
Mg1_2 Mg1_6 3.135932 1_455
Mg1_2 Mg1_4 3.136170 1_455
Mg1_2 Mg1_4 3.136170 1_565
Mg1_3 Mg1_7 3.135932 1_555
Mg1_3 Mg1_7 3.135932 1_455
Mg1_3 Mg1_5 3.136170 1_455
Mg1_3 Mg1_5 3.136170 1_565
Mg1_4 Mg1_6 3.135932 1_545
Mg1_4 Mg1_6 3.135932 1_555
Mg1_5 Mg1_7 3.135932 1_545
Mg1_5 Mg1_7 3.135932 1_555
Mg2_0 Mg2_2 3.135932 1_545
Mg2_0 Mg2_4 3.135932 1_455
Mg2_0 Mg2_4 3.135932 1_555
Mg2_0 Mg2_2 3.135932 1_555
Mg2_0 Mg2_6 3.136170 1_555
Mg2_0 Mg2_6 3.136170 1_445
Mg2_1 Mg2_5 3.135932 1_455
Mg2_1 Mg2_3 3.135932 1_545
Mg2_1 Mg2_5 3.135932 1_555
Mg2_1 Mg2_3 3.135932 1_555
Mg2_1 Mg2_7 3.136170 1_555
Mg2_1 Mg2_7 3.136170 1_445
Mg2_2 Mg2_6 3.135932 1_555
Mg2_2 Mg2_6 3.135932 1_455
Mg2_2 Mg2_4 3.136170 1_455
Mg2_2 Mg2_4 3.136170 1_565
Mg2_3 Mg2_7 3.135932 1_555
Mg2_3 Mg2_7 3.135932 1_455
Mg2_3 Mg2_5 3.136170 1_455
Mg2_3 Mg2_5 3.136170 1_565
Mg2_4 Mg2_6 3.135932 1_545
Mg2_4 Mg2_6 3.135932 1_555
Mg2_5 Mg2_7 3.135932 1_545
Mg2_5 Mg2_7 3.135932 1_555
