# generated using pymatgen
data_Ba4Sr4Co3Cu5O24
_symmetry_space_group_name_H-M   'P 1'
_cell_length_a   7.90444300
_cell_length_b   7.92298762
_cell_length_c   7.92457651
_cell_angle_alpha   90.10944571
_cell_angle_beta   90.00649989
_cell_angle_gamma   90.03664969
_symmetry_Int_Tables_number   1
_chemical_formula_structural   Ba4Sr4Co3Cu5O24
_chemical_formula_sum   'Ba4 Sr4 Co3 Cu5 O24'
_cell_volume   496.28988994
_cell_formula_units_Z   1
loop_
 _symmetry_equiv_pos_site_id
 _symmetry_equiv_pos_as_xyz
  1  'x, y, z'
loop_
 _atom_site_type_symbol
 _atom_site_label
 _atom_site_symmetry_multiplicity
 _atom_site_fract_x
 _atom_site_fract_y
 _atom_site_fract_z
 _atom_site_occupancy
  Ba  Ba0  1  0.24843300  0.24855300  0.24898200  1
  Ba  Ba1  1  0.75230100  0.24838000  0.24891300  1
  Ba  Ba2  1  0.24787600  0.75140800  0.75126300  1
  Ba  Ba3  1  0.75173700  0.24859800  0.75091100  1
  Sr  Sr0  1  0.24553000  0.75206500  0.24812000  1
  Sr  Sr1  1  0.75384800  0.75178900  0.24812300  1
  Sr  Sr2  1  0.75383800  0.75206800  0.75214700  1
  Sr  Sr3  1  0.24609600  0.24796500  0.75159800  1
  Co  Co0  1  0.49990200  0.50281700  0.99988700  1
  Co  Co1  1  0.49990800  0.99773600  0.50021300  1
  Co  Co2  1  0.50001100  0.50309600  0.49985400  1
  Cu  Cu0  1  0.00008400  0.99968100  0.99993200  1
  Cu  Cu1  1  0.49999000  0.99957300  0.99985300  1
  Cu  Cu2  1  0.00014600  0.50076300  0.99994400  1
  Cu  Cu3  1  0.00013600  0.99909400  0.50002300  1
  Cu  Cu4  1  0.00026500  0.50057000  0.50009200  1
  O  O0  1  0.00001000  0.98793500  0.25083100  1
  O  O1  1  0.49990200  0.99177500  0.25215700  1
  O  O2  1  0.00008900  0.51255900  0.25116800  1
  O  O3  1  0.49991200  0.50720000  0.24081300  1
  O  O4  1  0.99959100  0.99776800  0.74908400  1
  O  O5  1  0.50022000  0.99858100  0.74759600  1
  O  O6  1  0.99958800  0.50222500  0.74896400  1
  O  O7  1  0.50024300  0.50189400  0.75941800  1
  O  O8  1  0.99510400  0.74914500  0.00473600  1
  O  O9  1  0.50304100  0.74874700  0.00324600  1
  O  O10  1  0.00536000  0.25106000  0.99464600  1
  O  O11  1  0.49656900  0.25324900  0.99637000  1
  O  O12  1  0.99496700  0.74881800  0.49500100  1
  O  O13  1  0.50152400  0.75852700  0.49743300  1
  O  O14  1  0.00561200  0.25099200  0.50558400  1
  O  O15  1  0.49787900  0.23972100  0.50286000  1
  O  O16  1  0.25144500  0.99821800  0.00033800  1
  O  O17  1  0.74849400  0.98811800  0.99977800  1
  O  O18  1  0.25620900  0.50203400  0.00022100  1
  O  O19  1  0.74391500  0.50810200  0.00002300  1
  O  O20  1  0.25619900  0.99828700  0.49981500  1
  O  O21  1  0.74386500  0.99181700  0.50004800  1
  O  O22  1  0.26864500  0.50102000  0.49991000  1
  O  O23  1  0.73151400  0.50805200  0.50010500  1
loop_
_geom_bond_atom_site_label_1
_geom_bond_atom_site_label_2
_geom_bond_distance
_geom_bond_site_symmetry_2
Ba0 O10 2.784527 1_554
Ba0 O16 2.793216 1_545
Ba0 O14 2.796442 1_555
Ba0 O11 2.803006 1_554
Ba0 O20 2.811014 1_545
Ba0 O18 2.817494 1_555
Ba0 O15 2.817815 1_555
Ba0 O22 2.822259 1_555
Ba0 O1 2.845349 1_545
Ba0 O0 2.848641 1_545
Ba0 O3 2.854877 1_555
Ba0 O2 2.869521 1_555
Ba1 O10 2.839488 1_654
Ba1 O11 2.844695 1_554
Ba1 O0 2.845580 1_645
Ba1 O15 2.846085 1_555
Ba1 O1 2.847702 1_545
Ba1 O21 2.848239 1_545
Ba1 O17 2.852217 1_544
Ba1 O19 2.853881 1_555
Ba1 O14 2.854053 1_655
Ba1 O3 2.862674 1_555
Ba1 O23 2.864806 1_555
Ba1 O2 2.865685 1_655
Ba2 O4 2.768914 1_455
Ba2 O16 2.775929 1_556
Ba2 O6 2.782930 1_455
Ba2 O5 2.794600 1_555
Ba2 O18 2.795601 1_556
Ba2 O20 2.795644 1_555
Ba2 O7 2.810179 1_555
Ba2 O22 2.813436 1_555
Ba2 O8 2.833400 1_456
Ba2 O9 2.838173 1_556
Ba2 O13 2.840829 1_555
Ba2 O12 2.849513 1_455
Ba3 O10 2.783703 1_655
Ba3 O4 2.791559 1_545
Ba3 O14 2.794265 1_655
Ba3 O11 2.802471 1_555
Ba3 O6 2.805623 1_555
Ba3 O5 2.805687 1_545
Ba3 O15 2.809588 1_555
Ba3 O7 2.826390 1_555
Ba3 O21 2.842426 1_545
Ba3 O19 2.848321 1_556
Ba3 O17 2.857407 1_545
Ba3 O23 2.866617 1_555
Co0 O7 1.905617 1_555
Co0 O3 1.909486 1_556
Co0 O18 1.926266 1_556
Co0 O19 1.929215 1_556
Co0 O9 1.948773 1_556
Co0 O11 1.977626 1_555
Co1 O13 1.895387 1_555
Co1 O15 1.917396 1_565
Co1 O20 1.926394 1_555
Co1 O21 1.928945 1_555
Co1 O5 1.960405 1_555
Co1 O1 1.966216 1_555
Co2 O22 1.828883 1_555
Co2 O23 1.830299 1_555
Co2 O13 2.023932 1_555
Co2 O3 2.053110 1_555
Co2 O7 2.056976 1_555
Co2 O15 2.086956 1_555
Cu0 O8 1.985796 1_456
Cu0 O16 1.986912 1_556
Cu0 O4 1.987896 1_455
Cu0 O0 1.990623 1_556
Cu0 O17 1.990729 1_455
Cu0 O10 1.992603 1_565
Cu1 O16 1.964636 1_556
Cu1 O17 1.966439 1_555
Cu1 O9 1.987686 1_556
Cu1 O5 1.999031 1_555
Cu1 O1 2.000475 1_556
Cu1 O11 2.010313 1_565
Cu2 O8 1.968650 1_456
Cu2 O10 1.979215 1_555
Cu2 O6 1.988970 1_455
Cu2 O2 1.992858 1_556
Cu2 O18 2.024055 1_556
Cu2 O19 2.026235 1_456
Cu3 O4 1.973756 1_455
Cu3 O0 1.976551 1_555
Cu3 O12 1.983652 1_455
Cu3 O14 1.996628 1_565
Cu3 O20 2.024050 1_555
Cu3 O21 2.026463 1_455
Cu4 O12 1.967829 1_455
Cu4 O6 1.972232 1_455
Cu4 O2 1.975085 1_555
Cu4 O14 1.978444 1_555
Cu4 O22 2.121396 1_555
Cu4 O23 2.125192 1_455
O0 Sr0 2.695119 1_555
O0 Sr1 2.698564 1_455
O1 Sr0 2.765089 1_555
O1 Sr1 2.765916 1_555
O2 Sr0 2.713088 1_555
O2 Sr1 2.717818 1_455
O3 Sr1 2.789665 1_555
O3 Sr0 2.795513 1_555
O4 Sr2 2.749357 1_555
O4 Sr3 2.778747 1_665
O5 Sr2 2.800017 1_555
O5 Sr3 2.818655 1_565
O6 Sr2 2.774379 1_555
O6 Sr3 2.803658 1_655
O7 Sr2 2.818803 1_555
O7 Sr3 2.842790 1_555
O8 Sr1 2.712532 1_555
O8 Sr0 2.763642 1_655
O8 Sr2 2.764684 1_554
O9 Sr1 2.774068 1_555
O9 Sr2 2.809126 1_554
O9 Sr0 2.812521 1_555
O10 Sr3 2.707759 1_555
O11 Sr3 2.771779 1_555
O12 Sr1 2.731292 1_555
O12 Sr0 2.784223 1_655
O12 Sr2 2.790470 1_555
O13 Sr1 2.807976 1_555
O13 Sr0 2.828268 1_555
O13 Sr2 2.837995 1_555
O14 Sr3 2.722891 1_555
O15 Sr3 2.801990 1_555
O16 Sr0 2.770534 1_555
O16 Sr3 2.796009 1_564
O17 Sr2 2.708599 1_555
O17 Sr1 2.719392 1_556
O18 Sr0 2.788562 1_555
O18 Sr3 2.815124 1_554
O19 Sr1 2.754024 1_555
O19 Sr2 2.759579 1_554
O20 Sr0 2.788549 1_555
O20 Sr3 2.808187 1_565
O21 Sr1 2.755752 1_555
O21 Sr2 2.760470 1_555
O22 Sr0 2.826038 1_555
O22 Sr3 2.836303 1_555
O23 Sr2 2.782619 1_555
O23 Sr1 2.786072 1_555
