# generated using pymatgen
data_TmTlSe2
_symmetry_space_group_name_H-M   'P 1'
_cell_length_a   8.09018020
_cell_length_b   8.09018020
_cell_length_c   8.09018057
_cell_angle_alpha   29.43857072
_cell_angle_beta   29.43857072
_cell_angle_gamma   29.43857076
_symmetry_Int_Tables_number   1
_chemical_formula_structural   TmTlSe2
_chemical_formula_sum   'Tm1 Tl1 Se2'
_cell_volume   113.20686493
_cell_formula_units_Z   1
loop_
 _symmetry_equiv_pos_site_id
 _symmetry_equiv_pos_as_xyz
  1  'x, y, z'
loop_
 _atom_site_type_symbol
 _atom_site_label
 _atom_site_symmetry_multiplicity
 _atom_site_fract_x
 _atom_site_fract_y
 _atom_site_fract_z
 _atom_site_occupancy
  Tm  Tm0  1  0.00000000  0.00000000  -0.00000000  1
  Tl  Tl0  1  0.50000000  0.50000000  0.50000000  1
  Se  Se0  1  0.73371472  0.73371472  0.73371472  1
  Se  Se1  1  0.26628528  0.26628528  0.26628528  1
loop_
_geom_bond_atom_site_label_1
_geom_bond_atom_site_label_2
_geom_bond_distance
_geom_bond_site_symmetry_2
Se0 Tm0 2.837962 1_656
Se0 Tm0 2.837962 1_566
Se0 Tm0 2.837962 1_665
Se0 Tl0 3.313071 1_655
Se0 Tl0 3.313071 1_565
Se0 Tl0 3.313072 1_556
Se1 Tm0 2.837962 1_565
Se1 Tm0 2.837962 1_655
Se1 Tm0 2.837962 1_556
Se1 Tl0 3.313071 1_545
Se1 Tl0 3.313071 1_455
Se1 Tl0 3.313072 1_554
