# generated using pymatgen
data_Pr3Mn4PbO12
_symmetry_space_group_name_H-M   'P 1'
_cell_length_a   7.89606100
_cell_length_b   5.56302800
_cell_length_c   5.60444076
_cell_angle_alpha   89.13969892
_cell_angle_beta   90.00000000
_cell_angle_gamma   90.00000000
_symmetry_Int_Tables_number   1
_chemical_formula_structural   Pr3Mn4PbO12
_chemical_formula_sum   'Pr3 Mn4 Pb1 O12'
_cell_volume   246.15296139
_cell_formula_units_Z   1
loop_
 _symmetry_equiv_pos_site_id
 _symmetry_equiv_pos_as_xyz
  1  'x, y, z'
loop_
 _atom_site_type_symbol
 _atom_site_label
 _atom_site_symmetry_multiplicity
 _atom_site_fract_x
 _atom_site_fract_y
 _atom_site_fract_z
 _atom_site_occupancy
  Pr  Pr0  1  0.00000000  0.98976300  0.04045700  1
  Pr  Pr1  1  0.50000000  0.48867400  0.45626800  1
  Pr  Pr2  1  0.50000000  0.00428500  0.96362600  1
  Mn  Mn0  1  0.25050200  0.99917900  0.50217400  1
  Mn  Mn1  1  0.75062700  0.50005800  0.99556900  1
  Mn  Mn2  1  0.74949800  0.99917900  0.50217400  1
  Mn  Mn3  1  0.24937300  0.50005800  0.99556900  1
  Pb  Pb0  1  0.00000000  0.50503000  0.51177500  1
  O  O0  1  0.29533900  0.21995200  0.21767500  1
  O  O1  1  0.70094900  0.27514400  0.71693000  1
  O  O2  1  0.78187400  0.79770700  0.79809900  1
  O  O3  1  0.22222500  0.72817500  0.27875200  1
  O  O4  1  0.21812600  0.79770700  0.79809900  1
  O  O5  1  0.77777500  0.72817500  0.27875200  1
  O  O6  1  0.70466100  0.21995200  0.21767500  1
  O  O7  1  0.29905100  0.27514400  0.71693000  1
  O  O8  1  0.00000000  0.42391900  0.00532500  1
  O  O9  1  0.00000000  0.05756100  0.47574400  1
  O  O10  1  0.50000000  0.57097100  0.01102900  1
  O  O11  1  0.50000000  0.91936600  0.51737900  1
loop_
_geom_bond_atom_site_label_1
_geom_bond_atom_site_label_2
_geom_bond_distance
_geom_bond_site_symmetry_2
Mn0 O3 1.986781 1_555
Mn0 O7 2.001975 1_565
Mn0 O4 2.004075 1_555
Mn0 O9 2.009572 1_565
Mn0 O11 2.020981 1_555
Mn0 O0 2.029095 1_565
Mn1 O2 1.993094 1_555
Mn1 O6 2.012726 1_556
Mn1 O8 2.014675 1_656
Mn1 O10 2.020016 1_556
Mn1 O1 2.053459 1_555
Mn1 O5 2.058076 1_556
Mn2 O5 1.986781 1_555
Mn2 O1 2.001975 1_565
Mn2 O2 2.004075 1_555
Mn2 O9 2.009572 1_665
Mn2 O11 2.020981 1_555
Mn2 O6 2.029095 1_565
Mn3 O4 1.993094 1_555
Mn3 O0 2.012726 1_556
Mn3 O8 2.014675 1_556
Mn3 O10 2.020016 1_556
Mn3 O7 2.053459 1_555
Mn3 O3 2.058076 1_556
O0 Pr2 2.475772 1_554
O0 Pr1 2.587341 1_555
O0 Pr0 2.846533 1_545
O1 Pr1 2.451672 1_555
O1 Pr2 2.576252 1_555
O2 Pr0 2.448766 1_656
O2 Pr2 2.677123 1_565
O3 Pb0 2.505358 1_555
O3 Pr0 2.630946 1_555
O3 Pr1 2.745146 1_555
O4 Pr0 2.448766 1_556
O4 Pr2 2.677123 1_565
O5 Pb0 2.505358 1_655
O5 Pr0 2.630946 1_655
O5 Pr1 2.745146 1_555
O6 Pr2 2.475772 1_554
O6 Pr1 2.587341 1_555
O6 Pr0 2.846533 1_645
O7 Pr1 2.451672 1_555
O7 Pr2 2.576252 1_555
O8 Pr0 2.420286 1_545
O9 Pr0 2.474113 1_545
O9 Pb0 2.500480 1_555
O10 Pr2 2.421165 1_564
O10 Pr1 2.530196 1_555
O11 Pr1 2.425392 1_555
O11 Pr2 2.552150 1_565
