# generated using pymatgen
data_Ba3(NaSb2)2
_symmetry_space_group_name_H-M   'P 1'
_cell_length_a   8.28194639
_cell_length_b   9.29017855
_cell_length_c   19.56663609
_cell_angle_alpha   61.90378084
_cell_angle_beta   90.00000000
_cell_angle_gamma   90.00000000
_symmetry_Int_Tables_number   1
_chemical_formula_structural   Ba3(NaSb2)2
_chemical_formula_sum   'Ba12 Na8 Sb16'
_cell_volume   1328.06396783
_cell_formula_units_Z   4
loop_
 _symmetry_equiv_pos_site_id
 _symmetry_equiv_pos_as_xyz
  1  'x, y, z'
loop_
 _atom_site_type_symbol
 _atom_site_label
 _atom_site_symmetry_multiplicity
 _atom_site_fract_x
 _atom_site_fract_y
 _atom_site_fract_z
 _atom_site_occupancy
  Ba  Ba0  1  0.98833815  0.78660407  0.40393542  1
  Ba  Ba1  1  0.48833815  0.21339593  0.09606458  1
  Ba  Ba2  1  0.01245672  0.90815389  0.90393692  1
  Ba  Ba3  1  0.51245672  0.09184611  0.59606308  1
  Ba  Ba4  1  0.01166185  0.21339593  0.59606458  1
  Ba  Ba5  1  0.51166185  0.78660407  0.90393542  1
  Ba  Ba6  1  0.98754328  0.09184611  0.09606308  1
  Ba  Ba7  1  0.48754328  0.90815389  0.40393692  1
  Ba  Ba8  1  0.17367704  0.45120063  0.86786735  1
  Ba  Ba9  1  0.67367704  0.54879937  0.63213265  1
  Ba  Ba10  1  0.82632296  0.54879937  0.13213265  1
  Ba  Ba11  1  0.32632296  0.45120063  0.36786735  1
  Na  Na0  1  0.65359192  0.77727626  0.24790480  1
  Na  Na1  1  0.15359192  0.22272374  0.25209520  1
  Na  Na2  1  0.34640808  0.22272374  0.75209520  1
  Na  Na3  1  0.84640808  0.77727626  0.74790480  1
  Na  Na4  1  0.82255434  0.28809106  0.37586104  1
  Na  Na5  1  0.32255434  0.71190894  0.12413896  1
  Na  Na6  1  0.17744566  0.71190894  0.62413896  1
  Na  Na7  1  0.67744566  0.28809106  0.87586104  1
  Sb  Sb0  1  0.52092564  0.32528532  0.25264146  1
  Sb  Sb1  1  0.02092564  0.67471468  0.24735854  1
  Sb  Sb2  1  0.47907436  0.67471468  0.74735854  1
  Sb  Sb3  1  0.97907436  0.32528532  0.75264146  1
  Sb  Sb4  1  0.77484858  0.11675469  0.24972292  1
  Sb  Sb5  1  0.27484858  0.88324531  0.25027708  1
  Sb  Sb6  1  0.22515142  0.88324531  0.75027708  1
  Sb  Sb7  1  0.72515142  0.11675469  0.74972292  1
  Sb  Sb8  1  0.65674751  0.50171309  0.46335248  1
  Sb  Sb9  1  0.15674751  0.49828691  0.03664752  1
  Sb  Sb10  1  0.34881930  0.07140751  0.96173436  1
  Sb  Sb11  1  0.84881930  0.92859249  0.53826564  1
  Sb  Sb12  1  0.34325249  0.49828691  0.53664752  1
  Sb  Sb13  1  0.84325249  0.50171309  0.96335248  1
  Sb  Sb14  1  0.65118070  0.92859249  0.03826564  1
  Sb  Sb15  1  0.15118070  0.07140751  0.46173436  1
loop_
_geom_bond_atom_site_label_1
_geom_bond_atom_site_label_2
_geom_bond_distance
_geom_bond_site_symmetry_2
Ba0 Sb15 3.594022 1_665
Ba0 Sb4 3.594611 1_565
Ba0 Sb5 3.596321 1_655
Ba0 Sb8 3.605553 1_555
Ba0 Sb11 3.639959 1_555
Ba0 Sb1 3.679552 1_655
Ba0 Sb12 4.000762 1_655
Ba1 Sb14 3.594022 1_545
Ba1 Sb5 3.594611 1_545
Ba1 Sb4 3.596321 1_555
Ba1 Sb9 3.605553 1_555
Ba1 Sb10 3.639959 1_554
Ba1 Sb0 3.679552 1_555
Ba1 Sb13 4.000762 1_554
Ba2 Sb6 3.584903 1_555
Ba2 Sb10 3.599314 1_565
Ba2 Sb7 3.607554 1_465
Ba2 Sb3 3.612739 1_465
Ba2 Sb9 3.654669 1_556
Ba2 Sb13 3.665797 1_455
Ba2 Sb14 4.045601 1_456
Ba3 Sb7 3.584903 1_555
Ba3 Sb11 3.599314 1_545
Ba3 Sb6 3.607554 1_545
Ba3 Sb2 3.612739 1_545
Ba3 Sb8 3.654669 1_555
Ba3 Sb12 3.665797 1_555
Ba3 Sb15 4.045601 1_555
Ba4 Sb11 3.594022 1_445
Ba4 Sb6 3.594611 1_545
Ba4 Sb7 3.596321 1_455
Ba4 Sb12 3.605553 1_555
Ba4 Sb15 3.639959 1_555
Ba4 Sb3 3.679552 1_455
Ba4 Sb8 4.000762 1_455
Ba5 Sb10 3.594022 1_565
Ba5 Sb7 3.594611 1_565
Ba5 Sb6 3.596321 1_555
Ba5 Sb13 3.605553 1_555
Ba5 Sb14 3.639959 1_556
Ba5 Sb2 3.679552 1_555
Ba5 Sb9 4.000762 1_556
Ba6 Sb4 3.584903 1_555
Ba6 Sb14 3.599314 1_545
Ba6 Sb5 3.607554 1_645
Ba6 Sb1 3.612739 1_645
Ba6 Sb13 3.654669 1_554
Ba6 Sb9 3.665797 1_655
Ba6 Sb10 4.045601 1_654
Ba7 Sb5 3.584903 1_555
Ba7 Sb15 3.599314 1_565
Ba7 Sb4 3.607554 1_565
Ba7 Sb0 3.612739 1_565
Ba7 Sb12 3.654669 1_555
Ba7 Sb8 3.665797 1_555
Ba7 Sb11 4.045601 1_555
Ba8 Sb3 3.396058 1_455
Ba8 Sb2 3.414263 1_555
Ba8 Sb10 3.438407 1_555
Ba8 Sb13 3.467767 1_455
Ba8 Sb9 3.532416 1_556
Ba8 Sb6 3.589905 1_555
Ba9 Sb2 3.396058 1_555
Ba9 Sb3 3.414263 1_555
Ba9 Sb11 3.438407 1_555
Ba9 Sb12 3.467767 1_555
Ba9 Sb8 3.532416 1_555
Ba9 Sb7 3.589905 1_555
Ba10 Sb1 3.396058 1_655
Ba10 Sb0 3.414263 1_555
Ba10 Sb14 3.438407 1_555
Ba10 Sb9 3.467767 1_655
Ba10 Sb13 3.532416 1_554
Ba10 Sb4 3.589905 1_555
Ba11 Sb0 3.396058 1_555
Ba11 Sb1 3.414263 1_555
Ba11 Sb15 3.438407 1_555
Ba11 Sb8 3.467767 1_555
Ba11 Sb12 3.532416 1_555
Ba11 Sb5 3.589905 1_555
Na0 Sb1 3.189479 1_655
Na0 Sb5 3.294460 1_555
Na0 Sb4 3.325958 1_565
Na0 Sb14 3.656647 1_555
Na0 Sb8 3.763046 1_555
Na1 Sb0 3.189479 1_555
Na1 Sb4 3.294460 1_455
Na1 Sb5 3.325958 1_545
Na1 Sb15 3.656647 1_555
Na1 Sb9 3.763046 1_555
Na2 Sb3 3.189479 1_455
Na2 Sb7 3.294460 1_555
Na2 Sb6 3.325958 1_545
Na2 Sb10 3.656647 1_555
Na2 Sb12 3.763046 1_555
Na3 Sb2 3.189479 1_555
Na3 Sb6 3.294460 1_655
Na3 Sb7 3.325958 1_565
Na3 Sb11 3.656647 1_555
Na3 Sb13 3.763046 1_555
Na4 Sb15 3.331230 1_655
Na4 Sb11 3.362003 1_545
Na4 Sb0 3.374604 1_555
Na4 Sb8 3.457599 1_555
Na4 Sb4 3.532935 1_555
Na4 Sb1 3.662749 1_655
Na5 Sb14 3.331230 1_555
Na5 Sb10 3.362003 1_564
Na5 Sb1 3.374604 1_555
Na5 Sb9 3.457599 1_555
Na5 Sb5 3.532935 1_555
Na5 Sb0 3.662749 1_555
Na6 Sb11 3.331230 1_455
Na6 Sb15 3.362003 1_565
Na6 Sb2 3.374604 1_555
Na6 Sb12 3.457599 1_555
Na6 Sb6 3.532935 1_555
Na6 Sb3 3.662749 1_455
Na7 Sb10 3.331230 1_555
Na7 Sb14 3.362003 1_546
Na7 Sb3 3.374604 1_555
Na7 Sb13 3.457599 1_555
Na7 Sb7 3.532935 1_555
Na7 Sb2 3.662749 1_555
Sb0 Sb4 2.878030 1_555
Sb1 Sb5 2.878030 1_555
Sb2 Sb6 2.878030 1_555
Sb3 Sb7 2.878030 1_555
Sb10 Sb14 2.898632 1_546
Sb11 Sb15 2.898632 1_665
Sb12 Sb8 2.959019 1_555
Sb13 Sb9 2.959019 1_656
