# generated using pymatgen
data_Lu2MnSe4
_symmetry_space_group_name_H-M   'P 1'
_cell_length_a   8.04958470
_cell_length_b   8.04959761
_cell_length_c   8.04960916
_cell_angle_alpha   60.00107470
_cell_angle_beta   60.00075125
_cell_angle_gamma   60.00076897
_symmetry_Int_Tables_number   1
_chemical_formula_structural   Lu2MnSe4
_chemical_formula_sum   'Lu4 Mn2 Se8'
_cell_volume   368.82127014
_cell_formula_units_Z   2
loop_
 _symmetry_equiv_pos_site_id
 _symmetry_equiv_pos_as_xyz
  1  'x, y, z'
loop_
 _atom_site_type_symbol
 _atom_site_label
 _atom_site_symmetry_multiplicity
 _atom_site_fract_x
 _atom_site_fract_y
 _atom_site_fract_z
 _atom_site_occupancy
  Lu  Lu0  1  0.12505865  0.62498152  0.62497823  1
  Lu  Lu1  1  0.62498056  0.12505965  0.62497892  1
  Lu  Lu2  1  0.62497990  0.62498265  0.12506002  1
  Lu  Lu3  1  0.62497896  0.62497974  0.62498076  1
  Mn  Mn0  1  0.25000536  0.24999565  0.24999697  1
  Mn  Mn1  1  0.99999750  0.99999681  0.00000365  1
  Se  Se0  1  0.86039968  0.37986923  0.37986490  1
  Se  Se1  1  0.37987295  0.86039168  0.37986936  1
  Se  Se2  1  0.37986599  0.37987203  0.86038865  1
  Se  Se3  1  0.37987172  0.37987215  0.37985653  1
  Se  Se4  1  0.38919115  0.87027019  0.87027139  1
  Se  Se5  1  0.87026298  0.38918998  0.87027664  1
  Se  Se6  1  0.87026118  0.87026760  0.38920036  1
  Se  Se7  1  0.87027342  0.87027012  0.87027362  1
loop_
_geom_bond_atom_site_label_1
_geom_bond_atom_site_label_2
_geom_bond_distance
_geom_bond_site_symmetry_2
Lu0 Se2 2.791397 1_555
Lu0 Se1 2.791433 1_555
Lu0 Se3 2.791463 1_555
Lu0 Se6 2.793390 1_455
Lu0 Se7 2.793425 1_455
Lu0 Se5 2.793453 1_455
Lu1 Se2 2.791411 1_555
Lu1 Se0 2.791457 1_555
Lu1 Se3 2.791475 1_555
Lu1 Se6 2.793351 1_545
Lu1 Se4 2.793406 1_545
Lu1 Se7 2.793458 1_545
Lu2 Se1 2.791390 1_555
Lu2 Se3 2.791399 1_555
Lu2 Se0 2.791436 1_555
Lu2 Se5 2.793380 1_554
Lu2 Se4 2.793400 1_554
Lu2 Se7 2.793418 1_554
Lu3 Se1 2.791394 1_555
Lu3 Se2 2.791411 1_555
Lu3 Se0 2.791433 1_555
Lu3 Se6 2.793355 1_555
Lu3 Se4 2.793409 1_555
Lu3 Se5 2.793412 1_555
Mn0 Se3 2.560633 1_555
Mn0 Se0 2.560690 1_455
Mn0 Se1 2.560691 1_545
Mn0 Se2 2.560723 1_554
Mn1 Se7 2.557862 1_554
Mn1 Se4 2.557982 1_654
Mn1 Se5 2.557991 1_564
Mn1 Se6 2.558017 1_555
