# generated using pymatgen
data_Li4B8H5O18
_symmetry_space_group_name_H-M   'P 1'
_cell_length_a   8.51939591
_cell_length_b   8.76134571
_cell_length_c   10.87877656
_cell_angle_alpha   87.10132555
_cell_angle_beta   71.86629378
_cell_angle_gamma   62.14313589
_symmetry_Int_Tables_number   1
_chemical_formula_structural   Li4B8H5O18
_chemical_formula_sum   'Li8 B16 H10 O36'
_cell_volume   677.89091508
_cell_formula_units_Z   2
loop_
 _symmetry_equiv_pos_site_id
 _symmetry_equiv_pos_as_xyz
  1  'x, y, z'
loop_
 _atom_site_type_symbol
 _atom_site_label
 _atom_site_symmetry_multiplicity
 _atom_site_fract_x
 _atom_site_fract_y
 _atom_site_fract_z
 _atom_site_occupancy
  Li  Li0  1  0.94234300  0.65115100  0.11644000  1
  Li  Li1  1  0.06863200  0.35478500  0.91071800  1
  Li  Li2  1  0.52647500  0.68352400  0.82417000  1
  Li  Li3  1  0.46956900  0.32156900  0.18368600  1
  Li  Li4  1  0.27256400  0.97233900  0.99401000  1
  Li  Li5  1  0.72764400  0.02977400  0.01479400  1
  Li  Li6  1  0.96087700  0.38798000  0.67875100  1
  Li  Li7  1  0.51387800  0.97971100  0.49692400  1
  B  B0  1  0.73930500  0.44518200  0.07205200  1
  B  B1  1  0.26305800  0.55408800  0.92473000  1
  B  B2  1  0.55540400  0.86436600  0.21308100  1
  B  B3  1  0.44920900  0.12957600  0.78606900  1
  B  B4  1  0.72019000  0.00085500  0.28218200  1
  B  B5  1  0.28106600  0.99644200  0.71503300  1
  B  B6  1  0.86857600  0.16707300  0.17243400  1
  B  B7  1  0.13152200  0.83251700  0.82802100  1
  B  B8  1  0.73000800  0.21670200  0.41328700  1
  B  B9  1  0.25878400  0.78480000  0.58505400  1
  B  B10  1  0.06716000  0.85685700  0.19355500  1
  B  B11  1  0.93324100  0.14207100  0.80814900  1
  B  B12  1  0.41934700  0.69473800  0.14763300  1
  B  B13  1  0.58253900  0.30663600  0.84910900  1
  B  B14  1  0.66373000  0.73107000  0.98527100  1
  B  B15  1  0.34460700  0.26832000  0.01329000  1
  H  H0  1  0.82477500  0.77303200  0.81333500  1
  H  H1  1  0.16859500  0.28884300  0.19517900  1
  H  H2  1  0.85043200  0.43360300  0.28260900  1
  H  H3  1  0.14854500  0.56838600  0.70734400  1
  H  H4  1  0.63727300  0.25530900  0.61427900  1
  H  H5  1  0.34596100  0.73931900  0.38983000  1
  H  H6  1  0.70895300  0.44015700  0.56452200  1
  H  H7  1  0.23761500  0.52602900  0.44139000  1
  H  H8  1  0.84543000  0.59091700  0.34962100  1
  H  H9  1  0.25927100  0.36688600  0.66054300  1
  O  O0  1  0.80240000  0.54607400  0.98999800  1
  O  O1  1  0.20278200  0.44855000  0.00170000  1
  O  O2  1  0.23320900  0.71297800  0.18536300  1
  O  O3  1  0.77198600  0.28721100  0.80614900  1
  O  O4  1  0.72528600  0.53792100  0.61465700  1
  O  O5  1  0.26964700  0.41358600  0.39217500  1
  O  O6  1  0.82181600  0.26037700  0.30245500  1
  O  O7  1  0.16833500  0.74250900  0.69991300  1
  O  O8  1  0.47509700  0.75174800  0.01932300  1
  O  O9  1  0.53354700  0.24736800  0.97516200  1
  O  O10  1  0.71972100  0.12016800  0.18204300  1
  O  O11  1  0.27901300  0.88142200  0.81689500  1
  O  O12  1  0.55466400  0.50488700  0.14573800  1
  O  O13  1  0.44845700  0.49498400  0.85073900  1
  O  O14  1  0.90515400  0.84283900  0.24842800  1
  O  O15  1  0.09379300  0.15905200  0.74997500  1
  O  O16  1  0.67726300  0.09118700  0.41284700  1
  O  O17  1  0.31670800  0.90794400  0.58718800  1
  O  O18  1  0.05549000  0.00995300  0.14428400  1
  O  O19  1  0.94261800  0.99233900  0.85866100  1
  O  O20  1  0.67394200  0.83848200  0.08388200  1
  O  O21  1  0.33596800  0.15415000  0.91518000  1
  O  O22  1  0.43375500  0.79644200  0.24760300  1
  O  O23  1  0.56707800  0.20258900  0.74895800  1
  O  O24  1  0.57159500  0.95143500  0.30612300  1
  O  O25  1  0.42846500  0.04818700  0.69112600  1
  O  O26  1  0.88162600  0.28051600  0.07080400  1
  O  O27  1  0.12078400  0.71838600  0.92777900  1
  O  O28  1  0.88819200  0.52669800  0.26406400  1
  O  O29  1  0.13803300  0.45699800  0.71610500  1
  O  O30  1  0.68647100  0.30578900  0.53279800  1
  O  O31  1  0.28858500  0.69766000  0.47130900  1
  O  O32  1  0.70276000  0.77987200  0.85322800  1
  O  O33  1  0.30178400  0.22551100  0.14473900  1
  O  O34  1  0.15567900  0.34970900  0.45749100  1
  O  O35  1  0.75572100  0.65027500  0.53302300  1
loop_
_geom_bond_atom_site_label_1
_geom_bond_atom_site_label_2
_geom_bond_distance
_geom_bond_site_symmetry_2
Li0 O28 1.952611 1_555
Li0 O14 2.108576 1_555
Li0 O1 2.109840 1_655
Li0 O20 2.232919 1_555
Li0 O27 2.375464 1_654
Li0 O0 2.517075 1_554
Li1 O0 2.018219 1_455
Li1 O21 2.144363 1_555
Li1 O1 2.150459 1_556
Li1 O26 2.263112 1_456
Li1 O29 2.271066 1_555
Li1 O15 2.402316 1_555
Li2 O13 2.027846 1_555
Li2 O11 2.032505 1_555
Li2 O8 2.088424 1_556
Li2 O32 2.138994 1_555
Li2 O4 2.358585 1_555
Li3 O12 2.027403 1_555
Li3 O10 2.029999 1_555
Li3 O33 2.113851 1_555
Li3 O9 2.216778 1_554
Li3 O5 2.278652 1_555
Li4 O18 1.950448 1_566
Li4 O8 1.978329 1_556
Li4 O21 1.985487 1_565
Li4 O11 2.097258 1_555
Li5 O19 1.976213 1_544
Li5 O20 1.989529 1_545
Li5 O10 1.990367 1_555
Li5 O9 1.992307 1_554
Li6 O29 2.016969 1_655
Li6 O15 2.042542 1_655
Li6 O4 2.134197 1_555
Li6 O3 2.259558 1_555
Li6 O34 2.394894 1_655
Li7 O24 1.978499 1_555
Li7 O17 2.019675 1_555
Li7 O16 2.028700 1_565
Li7 O25 2.028823 1_565
B0 O12 1.370825 1_555
B0 O26 1.381554 1_555
B0 O0 1.390211 1_554
B1 O27 1.375357 1_555
B1 O13 1.377406 1_555
B1 O1 1.384773 1_556
B2 O22 1.371408 1_555
B2 O24 1.374338 1_555
B2 O20 1.407641 1_555
B3 O23 1.379272 1_555
B3 O25 1.382896 1_555
B3 O21 1.393878 1_555
B4 O24 1.467487 1_545
B4 O10 1.470767 1_555
B4 O14 1.478878 1_545
B4 O16 1.516708 1_555
B5 O11 1.461250 1_555
B5 O25 1.472036 1_565
B5 O17 1.501289 1_555
B5 O15 1.507564 1_565
B6 O26 1.462262 1_555
B6 O10 1.479253 1_555
B6 O18 1.488296 1_655
B6 O6 1.513123 1_555
B7 O27 1.449117 1_555
B7 O11 1.476599 1_555
B7 O19 1.506371 1_455
B7 O7 1.506809 1_555
B8 O6 1.363064 1_555
B8 O16 1.369272 1_555
B8 O30 1.403227 1_555
B9 O31 1.377447 1_555
B9 O7 1.383125 1_555
B9 O17 1.383952 1_555
B10 O2 1.365493 1_555
B10 O14 1.383657 1_455
B10 O18 1.390028 1_565
B11 O19 1.373237 1_545
B11 O3 1.374061 1_555
B11 O15 1.391173 1_655
B12 O2 1.439918 1_555
B12 O8 1.470370 1_555
B12 O22 1.508361 1_555
B12 O12 1.514209 1_555
B13 O9 1.448643 1_555
B13 O3 1.460861 1_555
B13 O13 1.502340 1_555
B13 O23 1.528855 1_555
B14 O8 1.454910 1_556
B14 O32 1.459535 1_555
B14 O0 1.505091 1_555
B14 O20 1.510209 1_556
B15 O33 1.437904 1_555
B15 O9 1.453512 1_554
B15 O1 1.503632 1_555
B15 O21 1.539748 1_554
H0 O32 0.967515 1_555
H1 O33 0.975367 1_555
H2 O28 0.998808 1_555
H2 O6 1.639912 1_555
H3 O29 1.018066 1_555
H3 O7 1.606760 1_555
H4 O30 1.029238 1_555
H4 O23 1.536852 1_555
H5 O31 1.011013 1_555
H5 O22 1.659832 1_555
H6 O4 1.120880 1_555
H6 O30 1.354494 1_555
H7 O5 1.021179 1_555
H8 O28 0.982821 1_555
H9 O29 0.976257 1_555
O34 O5 1.341254 1_555
O35 O4 1.353394 1_555
