# generated using pymatgen
data_Ba4GeN4
_symmetry_space_group_name_H-M   'P 1'
_cell_length_a   12.85996800
_cell_length_b   4.02295200
_cell_length_c   17.18419800
_cell_angle_alpha   90.00000000
_cell_angle_beta   90.00000000
_cell_angle_gamma   90.00000000
_symmetry_Int_Tables_number   1
_chemical_formula_structural   Ba4GeN4
_chemical_formula_sum   'Ba16 Ge4 N16'
_cell_volume   889.02506754
_cell_formula_units_Z   4
loop_
 _symmetry_equiv_pos_site_id
 _symmetry_equiv_pos_as_xyz
  1  'x, y, z'
loop_
 _atom_site_type_symbol
 _atom_site_label
 _atom_site_symmetry_multiplicity
 _atom_site_fract_x
 _atom_site_fract_y
 _atom_site_fract_z
 _atom_site_occupancy
  Ba  Ba0  1  0.61486700  0.25000000  0.87649200  1
  Ba  Ba1  1  0.11486700  0.25000000  0.62350800  1
  Ba  Ba2  1  0.38513300  0.75000000  0.12350800  1
  Ba  Ba3  1  0.88513300  0.75000000  0.37649200  1
  Ba  Ba4  1  0.62527800  0.25000000  0.46223800  1
  Ba  Ba5  1  0.12527800  0.25000000  0.03776200  1
  Ba  Ba6  1  0.37472200  0.75000000  0.53776200  1
  Ba  Ba7  1  0.87472200  0.75000000  0.96223800  1
  Ba  Ba8  1  0.86776200  0.25000000  0.76606300  1
  Ba  Ba9  1  0.36776200  0.25000000  0.73393700  1
  Ba  Ba10  1  0.13223800  0.75000000  0.23393700  1
  Ba  Ba11  1  0.63223800  0.75000000  0.26606300  1
  Ba  Ba12  1  0.87166000  0.25000000  0.16273300  1
  Ba  Ba13  1  0.37166000  0.25000000  0.33726700  1
  Ba  Ba14  1  0.12834000  0.75000000  0.83726700  1
  Ba  Ba15  1  0.62834000  0.75000000  0.66273300  1
  Ge  Ge0  1  0.61992300  0.25000000  0.07270400  1
  Ge  Ge1  1  0.11992300  0.25000000  0.42729600  1
  Ge  Ge2  1  0.38007700  0.75000000  0.92729600  1
  Ge  Ge3  1  0.88007700  0.75000000  0.57270400  1
  N  N0  1  0.55447500  0.25000000  0.16146300  1
  N  N1  1  0.05447500  0.25000000  0.33853700  1
  N  N2  1  0.44552500  0.75000000  0.83853700  1
  N  N3  1  0.94552500  0.75000000  0.66146300  1
  N  N4  1  0.73737000  0.25000000  0.02121800  1
  N  N5  1  0.23737000  0.25000000  0.47878200  1
  N  N6  1  0.26263000  0.75000000  0.97878200  1
  N  N7  1  0.76263000  0.75000000  0.52121800  1
  N  N8  1  0.77220600  0.25000000  0.30894100  1
  N  N9  1  0.27220600  0.25000000  0.19105900  1
  N  N10  1  0.22779400  0.75000000  0.69105900  1
  N  N11  1  0.72779400  0.75000000  0.80894100  1
  N  N12  1  0.00507000  0.25000000  0.88648700  1
  N  N13  1  0.50507000  0.25000000  0.61351300  1
  N  N14  1  0.99493000  0.75000000  0.11351300  1
  N  N15  1  0.49493000  0.75000000  0.38648700  1
loop_
_geom_bond_atom_site_label_1
_geom_bond_atom_site_label_2
_geom_bond_distance
_geom_bond_site_symmetry_2
Ba0 N11 2.739071 1_545
Ba0 N11 2.739071 1_555
Ba0 N4 2.943978 1_556
Ba0 N2 3.035450 1_545
Ba0 N2 3.035450 1_555
Ba1 N10 2.739071 1_545
Ba1 N10 2.739071 1_555
Ba1 N5 2.943978 1_555
Ba1 N3 3.035450 1_455
Ba1 N3 3.035450 1_445
Ba2 N9 2.739071 1_565
Ba2 N9 2.739071 1_555
Ba2 N6 2.943978 1_554
Ba2 N0 3.035450 1_565
Ba2 N0 3.035450 1_555
Ba3 N8 2.739071 1_555
Ba3 N8 2.739071 1_565
Ba3 N7 2.943978 1_555
Ba3 N1 3.035450 1_655
Ba3 N1 3.035450 1_665
Ba4 N7 2.862382 1_545
Ba4 N7 2.862382 1_555
Ba4 N15 2.924106 1_555
Ba4 N15 2.924106 1_545
Ba4 N13 3.024454 1_555
Ba4 N8 3.241856 1_555
Ba5 N6 2.862382 1_554
Ba5 N6 2.862382 1_544
Ba5 N14 2.924106 1_445
Ba5 N14 2.924106 1_455
Ba5 N12 3.024454 1_554
Ba5 N9 3.241856 1_555
Ba6 N5 2.862382 1_565
Ba6 N5 2.862382 1_555
Ba6 N13 2.924106 1_555
Ba6 N13 2.924106 1_565
Ba6 N15 3.024454 1_555
Ba6 N10 3.241856 1_555
Ba7 N4 2.862382 1_566
Ba7 N4 2.862382 1_556
Ba7 N12 2.924106 1_665
Ba7 N12 2.924106 1_655
Ba7 N14 3.024454 1_556
Ba7 N11 3.241856 1_555
Ba8 N12 2.720357 1_655
Ba8 N11 2.798015 1_545
Ba8 N11 2.798015 1_555
Ba8 N3 2.876975 1_545
Ba8 N3 2.876975 1_555
Ba9 N13 2.720357 1_555
Ba9 N10 2.798015 1_545
Ba9 N10 2.798015 1_555
Ba9 N2 2.876975 1_545
Ba9 N2 2.876975 1_555
Ba10 N14 2.720357 1_455
Ba10 N9 2.798015 1_565
Ba10 N9 2.798015 1_555
Ba10 N1 2.876975 1_565
Ba10 N1 2.876975 1_555
Ba11 N15 2.720357 1_555
Ba11 N8 2.798015 1_555
Ba11 N8 2.798015 1_565
Ba11 N0 2.876975 1_565
Ba11 N0 2.876975 1_555
Ba12 N14 2.697116 1_555
Ba12 N14 2.697116 1_545
Ba12 N8 2.819268 1_555
Ba12 N4 2.982644 1_555
Ba13 N15 2.697116 1_545
Ba13 N15 2.697116 1_555
Ba13 N9 2.819268 1_555
Ba13 N5 2.982644 1_555
Ba14 N12 2.697116 1_555
Ba14 N12 2.697116 1_565
Ba14 N10 2.819268 1_555
Ba14 N6 2.982644 1_555
Ba15 N13 2.697116 1_555
Ba15 N13 2.697116 1_565
Ba15 N11 2.819268 1_555
Ba15 N7 2.982644 1_555
Ge0 N0 1.742063 1_555
Ge0 N4 1.750422 1_555
Ge1 N1 1.742063 1_555
Ge1 N5 1.750422 1_555
Ge2 N2 1.742063 1_555
Ge2 N6 1.750422 1_555
Ge3 N3 1.742063 1_555
Ge3 N7 1.750422 1_555
