# generated using pymatgen
data_Nb3SnH
_symmetry_space_group_name_H-M   'P 1'
_cell_length_a   5.39195961
_cell_length_b   5.39195961
_cell_length_c   5.37328962
_cell_angle_alpha   90.00000000
_cell_angle_beta   90.00000000
_cell_angle_gamma   90.23250266
_symmetry_Int_Tables_number   1
_chemical_formula_structural   Nb3SnH
_chemical_formula_sum   'Nb6 Sn2 H2'
_cell_volume   156.21759026
_cell_formula_units_Z   2
loop_
 _symmetry_equiv_pos_site_id
 _symmetry_equiv_pos_as_xyz
  1  'x, y, z'
loop_
 _atom_site_type_symbol
 _atom_site_label
 _atom_site_symmetry_multiplicity
 _atom_site_fract_x
 _atom_site_fract_y
 _atom_site_fract_z
 _atom_site_occupancy
  Nb  Nb0  1  0.25286358  0.50745122  0.25000000  1
  Nb  Nb1  1  0.99130276  0.99130276  -0.00000000  1
  Nb  Nb2  1  0.50745122  0.25286358  0.75000000  1
  Nb  Nb3  1  0.74590455  0.51076605  0.25000000  1
  Nb  Nb4  1  0.99130276  0.99130276  0.50000000  1
  Nb  Nb5  1  0.51076605  0.74590455  0.75000000  1
  Sn  Sn0  1  0.49780969  0.00247712  0.25000000  1
  Sn  Sn1  1  0.00247712  0.49780969  0.75000000  1
  H  H0  1  0.99830902  0.25181625  0.25000000  1
  H  H1  1  0.25181625  0.99830902  0.75000000  1
loop_
_geom_bond_atom_site_label_1
_geom_bond_atom_site_label_2
_geom_bond_distance
_geom_bond_site_symmetry_2
Nb0 Sn0 2.973240 1_565
Nb0 Sn1 3.007140 1_554
Nb0 Sn1 3.007140 1_555
Nb0 Sn0 3.031036 1_555
Nb1 Sn0 2.981578 1_565
Nb1 Sn1 2.981578 1_654
Nb1 Sn1 3.043933 1_664
Nb1 Sn0 3.043933 1_665
Nb2 Sn1 2.973240 1_655
Nb2 Sn0 3.007140 1_555
Nb2 Sn0 3.007140 1_556
Nb2 Sn1 3.031036 1_555
Nb3 Sn0 2.974490 1_565
Nb3 Sn1 3.022846 1_655
Nb3 Sn1 3.022846 1_654
Nb3 Sn0 3.044836 1_555
Nb4 Sn0 2.981578 1_565
Nb4 Sn1 2.981578 1_655
Nb4 Sn1 3.043933 1_665
Nb4 Sn0 3.043933 1_665
Nb5 Sn1 2.974490 1_655
Nb5 Sn0 3.022846 1_566
Nb5 Sn0 3.022846 1_565
Nb5 Sn1 3.044836 1_555
H0 Nb0 1.941249 1_655
H0 Nb1 1.943870 1_545
H0 Nb4 1.943870 1_545
H0 Nb3 1.953746 1_555
H1 Nb2 1.941249 1_565
H1 Nb4 1.943870 1_455
H1 Nb1 1.943870 1_456
H1 Nb5 1.953746 1_555
