# generated using pymatgen
data_SrLa2WO7
_symmetry_space_group_name_H-M   'P 1'
_cell_length_a   5.83768200
_cell_length_b   8.95247300
_cell_length_c   12.79048665
_cell_angle_alpha   74.83527678
_cell_angle_beta   90.00000000
_cell_angle_gamma   90.00000000
_symmetry_Int_Tables_number   1
_chemical_formula_structural   SrLa2WO7
_chemical_formula_sum   'Sr4 La8 W4 O28'
_cell_volume   645.17542941
_cell_formula_units_Z   4
loop_
 _symmetry_equiv_pos_site_id
 _symmetry_equiv_pos_as_xyz
  1  'x, y, z'
loop_
 _atom_site_type_symbol
 _atom_site_label
 _atom_site_symmetry_multiplicity
 _atom_site_fract_x
 _atom_site_fract_y
 _atom_site_fract_z
 _atom_site_occupancy
  Sr  Sr0  1  0.01095200  0.50953500  0.63590700  1
  Sr  Sr1  1  0.51095200  0.49046500  0.86409300  1
  Sr  Sr2  1  0.98904800  0.49046500  0.36409300  1
  Sr  Sr3  1  0.48904800  0.50953500  0.13590700  1
  La  La0  1  0.51527300  0.79931500  0.58207200  1
  La  La1  1  0.01527300  0.20068500  0.91792800  1
  La  La2  1  0.48472700  0.20068500  0.41792800  1
  La  La3  1  0.98472700  0.79931500  0.08207200  1
  La  La4  1  0.01556500  0.92984200  0.37062300  1
  La  La5  1  0.51556500  0.07015800  0.12937700  1
  La  La6  1  0.98443500  0.07015800  0.62937700  1
  La  La7  1  0.48443500  0.92984200  0.87062300  1
  W  W0  1  0.03389200  0.71294500  0.83469300  1
  W  W1  1  0.53389200  0.28705500  0.66530700  1
  W  W2  1  0.96610800  0.28705500  0.16530700  1
  W  W3  1  0.46610800  0.71294500  0.33469300  1
  O  O0  1  0.04729900  0.49743100  0.83526000  1
  O  O1  1  0.54729900  0.50256900  0.66474000  1
  O  O2  1  0.95270100  0.50256900  0.16474000  1
  O  O3  1  0.45270100  0.49743100  0.33526000  1
  O  O4  1  0.04747300  0.93766300  0.82004100  1
  O  O5  1  0.54747300  0.06233700  0.67995900  1
  O  O6  1  0.95252700  0.06233700  0.17995900  1
  O  O7  1  0.45252700  0.93766300  0.32004100  1
  O  O8  1  0.76253200  0.69698900  0.92532700  1
  O  O9  1  0.26253200  0.30301100  0.57467300  1
  O  O10  1  0.23746800  0.30301100  0.07467300  1
  O  O11  1  0.73746800  0.69698900  0.42532700  1
  O  O12  1  0.33496500  0.74131000  0.75633200  1
  O  O13  1  0.83496500  0.25869000  0.74366800  1
  O  O14  1  0.66503500  0.25869000  0.24366800  1
  O  O15  1  0.16503500  0.74131000  0.25633200  1
  O  O16  1  0.23748300  0.68117400  0.96472700  1
  O  O17  1  0.73748300  0.31882600  0.53527300  1
  O  O18  1  0.76251700  0.31882600  0.03527300  1
  O  O19  1  0.26251700  0.68117400  0.46472700  1
  O  O20  1  0.87384800  0.75864200  0.69686700  1
  O  O21  1  0.37384800  0.24135800  0.80313300  1
  O  O22  1  0.12615200  0.24135800  0.30313300  1
  O  O23  1  0.62615200  0.75864200  0.19686700  1
  O  O24  1  0.24025200  0.99490800  0.50921100  1
  O  O25  1  0.74025200  0.00509200  0.99078900  1
  O  O26  1  0.75974800  0.00509200  0.49078900  1
  O  O27  1  0.25974800  0.99490800  0.00921100  1
loop_
_geom_bond_atom_site_label_1
_geom_bond_atom_site_label_2
_geom_bond_distance
_geom_bond_site_symmetry_2
La0 O24 2.378750 1_555
La0 O26 2.380844 1_565
La0 O12 2.395808 1_555
La0 O19 2.525666 1_555
La0 O20 2.527926 1_555
La0 O1 2.596326 1_555
La0 O11 2.738968 1_555
La0 O5 2.947868 1_565
La1 O25 2.378750 1_455
La1 O27 2.380844 1_546
La1 O13 2.395808 1_455
La1 O18 2.525666 1_456
La1 O21 2.527926 1_555
La1 O0 2.596326 1_555
La1 O10 2.738968 1_556
La1 O4 2.947868 1_545
La2 O26 2.378750 1_555
La2 O24 2.380844 1_545
La2 O14 2.395808 1_555
La2 O17 2.525666 1_555
La2 O22 2.527926 1_555
La2 O3 2.596326 1_555
La2 O9 2.738968 1_555
La2 O7 2.947868 1_545
La3 O27 2.378750 1_655
La3 O25 2.380844 1_564
La3 O15 2.395808 1_655
La3 O16 2.525666 1_654
La3 O23 2.527926 1_555
La3 O2 2.596326 1_555
La3 O8 2.738968 1_554
La3 O6 2.947868 1_565
La4 O26 2.363906 1_465
La4 O24 2.396267 1_555
La4 O6 2.444619 1_465
La4 O11 2.589906 1_455
La4 O7 2.628038 1_555
La4 O15 2.652917 1_555
La4 O19 2.661027 1_555
La4 O22 2.771284 1_565
La5 O27 2.363906 1_545
La5 O25 2.396267 1_554
La5 O7 2.444619 1_545
La5 O10 2.589906 1_555
La5 O6 2.628038 1_555
La5 O14 2.652917 1_555
La5 O18 2.661027 1_555
La5 O23 2.771284 1_545
La6 O24 2.363906 1_645
La6 O26 2.396267 1_555
La6 O4 2.444619 1_645
La6 O9 2.589906 1_655
La6 O5 2.628038 1_555
La6 O13 2.652917 1_555
La6 O17 2.661027 1_555
La6 O20 2.771284 1_545
La7 O25 2.363906 1_565
La7 O27 2.396267 1_556
La7 O5 2.444619 1_565
La7 O8 2.589906 1_555
La7 O4 2.628038 1_555
La7 O12 2.652917 1_555
La7 O16 2.661027 1_555
La7 O21 2.771284 1_565
O0 W0 1.929087 1_555
O0 Sr0 2.532548 1_555
O0 Sr1 2.730176 1_555
O0 Sr1 3.151376 1_455
O1 W1 1.929087 1_555
O1 Sr1 2.532548 1_555
O1 Sr0 2.730176 1_655
O1 Sr0 3.151376 1_555
O2 W2 1.929087 1_555
O2 Sr2 2.532548 1_555
O2 Sr3 2.730176 1_555
O2 Sr3 3.151376 1_655
O3 W3 1.929087 1_555
O3 Sr3 2.532548 1_555
O3 Sr2 2.730176 1_455
O3 Sr2 3.151376 1_555
O4 W0 1.972668 1_555
O5 W1 1.972668 1_555
O6 W2 1.972668 1_555
O7 W3 1.972668 1_555
O8 W0 1.946035 1_655
O8 Sr1 2.635601 1_555
O8 Sr3 3.202313 1_556
O9 W1 1.946035 1_555
O9 Sr0 2.635601 1_555
O9 Sr2 3.202313 1_455
O10 W2 1.946035 1_455
O10 Sr3 2.635601 1_555
O10 Sr1 3.202313 1_554
O11 W3 1.946035 1_555
O11 Sr2 2.635601 1_555
O11 Sr0 3.202313 1_655
O12 W0 2.006222 1_555
O12 Sr1 2.525648 1_555
O13 W1 2.006222 1_555
O13 Sr0 2.525648 1_655
O14 W2 2.006222 1_555
O14 Sr3 2.525648 1_555
O15 W3 2.006222 1_555
O15 Sr2 2.525648 1_455
O16 W0 2.003037 1_555
O16 Sr3 2.747980 1_556
O16 Sr1 2.875767 1_555
O17 W1 2.003037 1_555
O17 Sr2 2.747980 1_555
O17 Sr0 2.875767 1_655
O18 W2 2.003037 1_555
O18 Sr1 2.747980 1_554
O18 Sr3 2.875767 1_555
O19 W3 2.003037 1_555
O19 Sr0 2.747980 1_555
O19 Sr2 2.875767 1_455
O20 W0 1.941808 1_655
O20 Sr0 2.670531 1_655
O21 W1 1.941808 1_555
O21 Sr1 2.670531 1_555
O22 W2 1.941808 1_455
O22 Sr2 2.670531 1_455
O23 W3 1.941808 1_555
O23 Sr3 2.670531 1_555
