# generated using pymatgen
data_NdSnAu
_symmetry_space_group_name_H-M   'P 1'
_cell_length_a   4.83876129
_cell_length_b   4.83876129
_cell_length_c   7.88424800
_cell_angle_alpha   90.00000000
_cell_angle_beta   90.00000000
_cell_angle_gamma   119.99999035
_symmetry_Int_Tables_number   1
_chemical_formula_structural   NdSnAu
_chemical_formula_sum   'Nd2 Sn2 Au2'
_cell_volume   159.86719191
_cell_formula_units_Z   2
loop_
 _symmetry_equiv_pos_site_id
 _symmetry_equiv_pos_as_xyz
  1  'x, y, z'
loop_
 _atom_site_type_symbol
 _atom_site_label
 _atom_site_symmetry_multiplicity
 _atom_site_fract_x
 _atom_site_fract_y
 _atom_site_fract_z
 _atom_site_occupancy
  Nd  Nd0  1  0.00000000  0.00000000  0.28283700  1
  Nd  Nd1  1  0.00000000  0.00000000  0.71716300  1
  Sn  Sn0  1  0.66666700  0.33333300  0.93888600  1
  Sn  Sn1  1  0.33333300  0.66666700  0.06111400  1
  Au  Au0  1  0.33333300  0.66666700  0.47940200  1
  Au  Au1  1  0.66666700  0.33333300  0.52059800  1
loop_
_geom_bond_atom_site_label_1
_geom_bond_atom_site_label_2
_geom_bond_distance
_geom_bond_site_symmetry_2
Nd0 Sn1 3.295518 1_545
Nd0 Sn1 3.295522 1_555
Nd0 Sn1 3.295522 1_445
Nd0 Sn0 3.893373 1_454
Nd0 Sn0 3.893376 1_554
Nd0 Sn0 3.893376 1_444
Nd1 Sn0 3.295518 1_455
Nd1 Sn0 3.295522 1_555
Nd1 Sn0 3.295522 1_445
Nd1 Sn1 3.893373 1_546
Nd1 Sn1 3.893376 1_446
Nd1 Sn1 3.893376 1_556
Sn0 Sn1 2.955198 1_546
Sn0 Sn1 2.955198 1_656
Sn0 Sn1 2.955205 1_556
Au0 Au1 2.812475 1_455
Au0 Au1 2.812475 1_565
Au0 Au1 2.812483 1_555
Au0 Nd0 3.194730 1_565
Au0 Nd0 3.194734 1_665
Au0 Nd0 3.194734 1_555
Au0 Sn1 3.297886 1_555
Au0 Nd1 3.364301 1_565
Au0 Nd1 3.364305 1_665
Au0 Nd1 3.364305 1_555
Au1 Nd1 3.194730 1_655
Au1 Nd1 3.194734 1_555
Au1 Nd1 3.194734 1_665
Au1 Sn0 3.297886 1_555
Au1 Nd0 3.364301 1_655
Au1 Nd0 3.364305 1_665
Au1 Nd0 3.364305 1_555
