# generated using pymatgen
data_Ba2CaTb2Ti3(CuO7)2
_symmetry_space_group_name_H-M   'P 1'
_cell_length_a   3.90531700
_cell_length_b   3.90531700
_cell_length_c   19.87926700
_cell_angle_alpha   90.00000000
_cell_angle_beta   90.00000000
_cell_angle_gamma   90.00000000
_symmetry_Int_Tables_number   1
_chemical_formula_structural   Ba2CaTb2Ti3(CuO7)2
_chemical_formula_sum   'Ba2 Ca1 Tb2 Ti3 Cu2 O14'
_cell_volume   303.18865796
_cell_formula_units_Z   1
loop_
 _symmetry_equiv_pos_site_id
 _symmetry_equiv_pos_as_xyz
  1  'x, y, z'
loop_
 _atom_site_type_symbol
 _atom_site_label
 _atom_site_symmetry_multiplicity
 _atom_site_fract_x
 _atom_site_fract_y
 _atom_site_fract_z
 _atom_site_occupancy
  Ba  Ba0  1  0.50000000  0.50000000  0.81291100  1
  Ba  Ba1  1  0.50000000  0.50000000  0.18434000  1
  Ca  Ca0  1  0.50000000  0.50000000  0.61096700  1
  Tb  Tb0  1  0.50000000  0.50000000  0.99942700  1
  Tb  Tb1  1  0.50000000  0.50000000  0.40112700  1
  Ti  Ti0  1  0.00000000  0.00000000  0.70135200  1
  Ti  Ti1  1  0.00000000  0.00000000  0.30107700  1
  Ti  Ti2  1  0.00000000  0.00000000  0.50075700  1
  Cu  Cu0  1  0.00000000  0.00000000  0.91782700  1
  Cu  Cu1  1  0.00000000  0.00000000  0.08123500  1
  O  O0  1  0.00000000  0.50000000  0.69134600  1
  O  O1  1  0.50000000  0.00000000  0.31331900  1
  O  O2  1  0.00000000  0.50000000  0.31331900  1
  O  O3  1  0.50000000  0.00000000  0.69134600  1
  O  O4  1  0.00000000  0.50000000  0.92741600  1
  O  O5  1  0.50000000  0.00000000  0.07311400  1
  O  O6  1  0.00000000  0.50000000  0.07311400  1
  O  O7  1  0.50000000  0.00000000  0.92741600  1
  O  O8  1  0.00000000  0.00000000  0.79482200  1
  O  O9  1  0.00000000  0.00000000  0.20660800  1
  O  O10  1  0.00000000  0.00000000  0.59484000  1
  O  O11  1  0.00000000  0.00000000  0.40151900  1
  O  O12  1  0.00000000  0.50000000  0.49040100  1
  O  O13  1  0.50000000  0.00000000  0.49040100  1
loop_
_geom_bond_atom_site_label_1
_geom_bond_atom_site_label_2
_geom_bond_distance
_geom_bond_site_symmetry_2
Ba0 O8 2.784791 1_655
Ba0 O8 2.784791 1_665
Ba0 O8 2.784791 1_565
Ba0 O8 2.784791 1_555
Ba0 O4 2.999051 1_655
Ba0 O4 2.999051 1_555
Ba0 O7 2.999051 1_555
Ba0 O7 2.999051 1_565
Ba0 O0 3.106918 1_555
Ba0 O3 3.106918 1_555
Ba0 O3 3.106918 1_565
Ba0 O0 3.106918 1_655
Ba1 O9 2.796732 1_555
Ba1 O9 2.796732 1_565
Ba1 O9 2.796732 1_655
Ba1 O9 2.796732 1_665
Ba1 O6 2.949881 1_555
Ba1 O5 2.949881 1_565
Ba1 O6 2.949881 1_655
Ba1 O5 2.949881 1_555
Ba1 O1 3.222889 1_565
Ba1 O2 3.222889 1_555
Ba1 O2 3.222889 1_655
Ba1 O1 3.222889 1_555
Ca0 O0 2.523110 1_655
Ca0 O3 2.523110 1_555
Ca0 O0 2.523110 1_555
Ca0 O3 2.523110 1_565
Ca0 O10 2.780023 1_555
Ca0 O10 2.780023 1_655
Ca0 O10 2.780023 1_565
Ca0 O10 2.780023 1_665
Ca0 O13 3.091497 1_555
Ca0 O12 3.091497 1_655
Ca0 O13 3.091497 1_565
Ca0 O12 3.091497 1_555
Cu0 O4 1.961941 1_545
Cu0 O7 1.961941 1_455
Cu0 O7 1.961941 1_555
Cu0 O4 1.961941 1_555
Cu0 O8 2.445249 1_555
Cu1 O6 1.959321 1_545
Cu1 O5 1.959321 1_455
Cu1 O5 1.959321 1_555
Cu1 O6 1.959321 1_555
Cu1 O9 2.492323 1_555
O0 Ti0 1.962764 1_555
O0 Ti0 1.962764 1_565
O1 Ti1 1.967765 1_555
O1 Ti1 1.967765 1_655
O1 Tb1 2.619132 1_555
O1 Tb1 2.619132 1_545
O2 Ti1 1.967765 1_555
O2 Ti1 1.967765 1_565
O2 Tb1 2.619132 1_555
O2 Tb1 2.619132 1_455
O3 Ti0 1.962764 1_555
O3 Ti0 1.962764 1_655
O4 Tb0 2.421186 1_555
O4 Tb0 2.421186 1_455
O5 Tb0 2.441033 1_554
O5 Tb0 2.441033 1_544
O6 Tb0 2.441033 1_554
O6 Tb0 2.441033 1_454
O7 Tb0 2.421186 1_555
O7 Tb0 2.421186 1_545
O8 Ti0 1.858115 1_555
O9 Ti1 1.877974 1_555
O10 Ti2 1.870301 1_555
O10 Ti0 2.117380 1_555
O11 Ti2 1.972779 1_555
O11 Ti1 1.996713 1_555
O11 Tb1 2.761487 1_455
O11 Tb1 2.761487 1_555
O11 Tb1 2.761487 1_445
O11 Tb1 2.761487 1_545
O12 Ti2 1.963481 1_565
O12 Ti2 1.963481 1_555
O12 Tb1 2.638644 1_555
O12 Tb1 2.638644 1_455
O13 Ti2 1.963481 1_655
O13 Ti2 1.963481 1_555
O13 Tb1 2.638644 1_555
O13 Tb1 2.638644 1_545
