# generated using pymatgen
data_MnNF3
_symmetry_space_group_name_H-M   'P 1'
_cell_length_a   5.70433600
_cell_length_b   5.71307500
_cell_length_c   7.90400800
_cell_angle_alpha   90.00000000
_cell_angle_beta   90.00000000
_cell_angle_gamma   90.00000000
_symmetry_Int_Tables_number   1
_chemical_formula_structural   MnNF3
_chemical_formula_sum   'Mn4 N4 F12'
_cell_volume   257.58608312
_cell_formula_units_Z   4
loop_
 _symmetry_equiv_pos_site_id
 _symmetry_equiv_pos_as_xyz
  1  'x, y, z'
loop_
 _atom_site_type_symbol
 _atom_site_label
 _atom_site_symmetry_multiplicity
 _atom_site_fract_x
 _atom_site_fract_y
 _atom_site_fract_z
 _atom_site_occupancy
  Mn  Mn0  1  0.50000000  0.50000000  0.00000000  1
  Mn  Mn1  1  0.00000000  0.00000000  0.50000000  1
  Mn  Mn2  1  0.50000000  0.50000000  0.50000000  1
  Mn  Mn3  1  0.00000000  0.00000000  0.00000000  1
  N  N0  1  0.00163600  0.49854300  0.25000000  1
  N  N1  1  0.50163600  0.00145700  0.25000000  1
  N  N2  1  0.99836400  0.50145700  0.75000000  1
  N  N3  1  0.49836400  0.99854300  0.75000000  1
  F  F0  1  0.77561900  0.75751100  0.00614000  1
  F  F1  1  0.27561900  0.74248900  0.49386000  1
  F  F2  1  0.22438100  0.24248900  0.50614000  1
  F  F3  1  0.72438100  0.25751100  0.99386000  1
  F  F4  1  0.22438100  0.24248900  0.99386000  1
  F  F5  1  0.72438100  0.25751100  0.50614000  1
  F  F6  1  0.77561900  0.75751100  0.49386000  1
  F  F7  1  0.27561900  0.74248900  0.00614000  1
  F  F8  1  0.50144700  0.48836200  0.25000000  1
  F  F9  1  0.00144700  0.01163800  0.25000000  1
  F  F10  1  0.49855300  0.51163800  0.75000000  1
  F  F11  1  0.99855300  0.98836200  0.75000000  1
loop_
_geom_bond_atom_site_label_1
_geom_bond_atom_site_label_2
_geom_bond_distance
_geom_bond_site_symmetry_2
F0 Mn3 1.886751 1_665
F0 Mn0 2.153744 1_555
F1 Mn2 1.886751 1_555
F1 Mn1 2.153744 1_565
F2 Mn1 1.886751 1_555
F2 Mn2 2.153744 1_555
F3 Mn0 1.886751 1_556
F3 Mn3 2.153744 1_656
F4 Mn3 1.886751 1_556
F4 Mn0 2.153744 1_556
F5 Mn2 1.886751 1_555
F5 Mn1 2.153744 1_655
F6 Mn1 1.886751 1_665
F6 Mn2 2.153744 1_555
F7 Mn0 1.886751 1_555
F7 Mn3 2.153744 1_565
F8 Mn2 1.977138 1_555
F8 Mn0 1.977138 1_555
F9 Mn1 1.977138 1_555
F9 Mn3 1.977138 1_555
F10 Mn0 1.977138 1_556
F10 Mn2 1.977138 1_555
F11 Mn1 1.977138 1_665
F11 Mn3 1.977138 1_666
