# generated using pymatgen
data_YbCuGe
_symmetry_space_group_name_H-M   'P 1'
_cell_length_a   4.27130544
_cell_length_b   4.27130544
_cell_length_c   7.10693468
_cell_angle_alpha   90.00000000
_cell_angle_beta   90.00000000
_cell_angle_gamma   120.00001026
_symmetry_Int_Tables_number   1
_chemical_formula_structural   YbCuGe
_chemical_formula_sum   'Yb2 Cu2 Ge2'
_cell_volume   112.28821245
_cell_formula_units_Z   2
loop_
 _symmetry_equiv_pos_site_id
 _symmetry_equiv_pos_as_xyz
  1  'x, y, z'
loop_
 _atom_site_type_symbol
 _atom_site_label
 _atom_site_symmetry_multiplicity
 _atom_site_fract_x
 _atom_site_fract_y
 _atom_site_fract_z
 _atom_site_occupancy
  Yb  Yb0  1  0.00000000  0.00000000  0.23362159  1
  Yb  Yb1  1  0.00000000  0.00000000  0.76637841  1
  Cu  Cu0  1  0.33333300  0.66666700  0.01311057  1
  Cu  Cu1  1  0.66666700  0.33333300  0.98688943  1
  Ge  Ge0  1  0.66666700  0.33333300  0.53902280  1
  Ge  Ge1  1  0.33333300  0.66666700  0.46097720  1
loop_
_geom_bond_atom_site_label_1
_geom_bond_atom_site_label_2
_geom_bond_distance
_geom_bond_site_symmetry_2
Cu0 Cu1 2.473068 1_564
Cu0 Cu1 2.473068 1_454
Cu0 Cu1 2.473075 1_554
Cu0 Yb0 2.921869 1_565
Cu0 Yb0 2.921872 1_555
Cu0 Yb0 2.921872 1_665
Cu0 Yb1 3.025910 1_564
Cu0 Yb1 3.025913 1_554
Cu0 Yb1 3.025913 1_664
Cu0 Ge1 3.182959 1_555
Cu1 Yb1 2.921869 1_655
Cu1 Yb1 2.921872 1_555
Cu1 Yb1 2.921872 1_665
Cu1 Yb0 3.025910 1_656
Cu1 Yb0 3.025913 1_556
Cu1 Yb0 3.025913 1_666
Cu1 Ge0 3.182959 1_555
Ge0 Ge1 2.527645 1_655
Ge0 Ge1 2.527645 1_545
Ge0 Ge1 2.527653 1_555
Ge0 Yb1 2.948246 1_655
Ge0 Yb1 2.948249 1_555
Ge0 Yb1 2.948249 1_665
Ge0 Yb0 3.285158 1_655
Ge0 Yb0 3.285160 1_555
Ge0 Yb0 3.285160 1_665
Ge1 Yb0 2.948246 1_565
Ge1 Yb0 2.948249 1_555
Ge1 Yb0 2.948249 1_665
Ge1 Yb1 3.285158 1_565
Ge1 Yb1 3.285160 1_555
Ge1 Yb1 3.285160 1_665
