# generated using pymatgen
data_Li4Nb3V2Ni3O16
_symmetry_space_group_name_H-M   'P 1'
_cell_length_a   6.05418856
_cell_length_b   6.05418856
_cell_length_c   9.74245226
_cell_angle_alpha   89.92148510
_cell_angle_beta   89.92148510
_cell_angle_gamma   60.47568783
_symmetry_Int_Tables_number   1
_chemical_formula_structural   Li4Nb3V2Ni3O16
_chemical_formula_sum   'Li4 Nb3 V2 Ni3 O16'
_cell_volume   310.72206000
_cell_formula_units_Z   1
loop_
 _symmetry_equiv_pos_site_id
 _symmetry_equiv_pos_as_xyz
  1  'x, y, z'
loop_
 _atom_site_type_symbol
 _atom_site_label
 _atom_site_symmetry_multiplicity
 _atom_site_fract_x
 _atom_site_fract_y
 _atom_site_fract_z
 _atom_site_occupancy
  Li  Li0  1  0.66258200  0.66258200  0.11590000  1
  Li  Li1  1  0.97979600  0.97979600  0.01774300  1
  Li  Li2  1  0.99839100  0.99839100  0.49357500  1
  Li  Li3  1  0.32924000  0.32924000  0.59648200  1
  Nb  Nb0  1  0.33911300  0.83664300  0.78762700  1
  Nb  Nb1  1  0.83664300  0.33911300  0.78762700  1
  Nb  Nb2  1  0.17540100  0.17540100  0.27846900  1
  V  V0  1  0.67817700  0.67817700  0.49699800  1
  V  V1  1  0.34573000  0.34573000  0.02318900  1
  Ni  Ni0  1  0.83028700  0.83028700  0.78387100  1
  Ni  Ni1  1  0.18448800  0.65422400  0.28836400  1
  Ni  Ni2  1  0.65422400  0.18448800  0.28836400  1
  O  O0  1  0.34542900  0.83486500  0.40579600  1
  O  O1  1  0.51578300  0.51578300  0.66547300  1
  O  O2  1  0.65992200  0.65992200  0.89960400  1
  O  O3  1  0.00363400  0.00363400  0.68225500  1
  O  O4  1  0.99966900  0.99966900  0.20230800  1
  O  O5  1  0.83486500  0.34542900  0.40579600  1
  O  O6  1  0.50923600  0.95384600  0.65687300  1
  O  O7  1  0.95384600  0.50923600  0.65687300  1
  O  O8  1  0.16562100  0.16562100  0.89472500  1
  O  O9  1  0.82580000  0.82580000  0.41440200  1
  O  O10  1  0.03068900  0.47502600  0.15533700  1
  O  O11  1  0.47502600  0.03068900  0.15533700  1
  O  O12  1  0.32483100  0.32483100  0.40097800  1
  O  O13  1  0.17850700  0.67166900  0.89650800  1
  O  O14  1  0.48080400  0.48080400  0.15271800  1
  O  O15  1  0.67166900  0.17850700  0.89650800  1
loop_
_geom_bond_atom_site_label_1
_geom_bond_atom_site_label_2
_geom_bond_distance
_geom_bond_site_symmetry_2
Li0 O14 1.934545 1_555
Li0 O10 1.977537 1_655
Li0 O11 1.977537 1_565
Li0 O2 2.107481 1_554
Li1 O4 1.810421 1_555
Li1 O15 2.027947 1_564
Li1 O13 2.027947 1_654
Li1 O8 2.282053 1_664
Li2 O3 1.839111 1_665
Li2 O9 1.964455 1_555
Li2 O0 2.018200 1_655
Li2 O5 2.018200 1_565
Li3 O12 1.905320 1_555
Li3 O6 2.063013 1_545
Li3 O7 2.063013 1_455
Li3 O1 2.064935 1_555
Nb0 O6 1.975158 1_555
Nb0 O13 2.004911 1_555
Nb0 O2 2.015357 1_555
Nb0 O8 2.024755 1_565
Nb0 O3 2.044564 1_565
Nb0 O1 2.070958 1_555
Nb1 O7 1.975158 1_555
Nb1 O15 2.004911 1_555
Nb1 O2 2.015357 1_555
Nb1 O8 2.024755 1_655
Nb1 O3 2.044564 1_655
Nb1 O1 2.070958 1_555
Nb2 O12 1.968242 1_555
Nb2 O10 1.981854 1_555
Nb2 O11 1.981854 1_555
Nb2 O4 1.983510 1_445
Nb2 O5 2.180304 1_455
Nb2 O0 2.180304 1_545
Ni0 O3 2.064632 1_665
Ni0 O6 2.106995 1_555
Ni0 O7 2.106995 1_555
Ni0 O2 2.107390 1_555
Ni0 O15 2.139855 1_565
Ni0 O13 2.139855 1_655
Ni1 O4 2.005044 1_455
Ni1 O14 2.051335 1_555
Ni1 O12 2.056472 1_555
Ni1 O0 2.123926 1_555
Ni1 O10 2.174034 1_555
Ni1 O9 2.252880 1_455
Ni2 O4 2.005044 1_545
Ni2 O14 2.051335 1_555
Ni2 O12 2.056472 1_555
Ni2 O5 2.123926 1_555
Ni2 O11 2.174034 1_555
Ni2 O9 2.252880 1_545
O0 V0 1.966414 1_555
O1 V0 2.360321 1_555
O5 V0 1.966414 1_555
O6 V0 2.139607 1_555
O7 V0 2.139607 1_555
O8 V1 2.263567 1_556
O9 V0 1.740220 1_555
O10 V1 2.105389 1_555
O11 V1 2.105389 1_555
O13 V1 2.114200 1_556
O14 V1 1.895968 1_555
O15 V1 2.114200 1_556
