# generated using pymatgen
data_Li3Mn2O5
_symmetry_space_group_name_H-M   'P 1'
_cell_length_a   7.89795542
_cell_length_b   7.89795542
_cell_length_c   8.13564305
_cell_angle_alpha   75.33230258
_cell_angle_beta   75.33230258
_cell_angle_gamma   21.73384779
_symmetry_Int_Tables_number   1
_chemical_formula_structural   Li3Mn2O5
_chemical_formula_sum   'Li6 Mn4 O10'
_cell_volume   181.56482087
_cell_formula_units_Z   2
loop_
 _symmetry_equiv_pos_site_id
 _symmetry_equiv_pos_as_xyz
  1  'x, y, z'
loop_
 _atom_site_type_symbol
 _atom_site_label
 _atom_site_symmetry_multiplicity
 _atom_site_fract_x
 _atom_site_fract_y
 _atom_site_fract_z
 _atom_site_occupancy
  Li  Li0  1  0.80889000  0.80889000  0.09765100  1
  Li  Li1  1  0.00000000  0.00000000  0.50000000  1
  Li  Li2  1  0.19111000  0.19111000  0.90234900  1
  Li  Li3  1  0.40097400  0.40097400  0.28484300  1
  Li  Li4  1  0.59902600  0.59902600  0.71515700  1
  Li  Li5  1  0.00000000  0.00000000  0.00000000  1
  Mn  Mn0  1  0.40378400  0.40378400  0.80579200  1
  Mn  Mn1  1  0.59621600  0.59621600  0.19420800  1
  Mn  Mn2  1  0.80332400  0.80332400  0.59624000  1
  Mn  Mn3  1  0.19667600  0.19667600  0.40376000  1
  O  O0  1  0.98747800  0.98747800  0.75821700  1
  O  O1  1  0.18803300  0.18803300  0.16834300  1
  O  O2  1  0.39841100  0.39841100  0.56248100  1
  O  O3  1  0.60369800  0.60369800  0.96592900  1
  O  O4  1  0.79869800  0.79869800  0.36218200  1
  O  O5  1  0.60158900  0.60158900  0.43751900  1
  O  O6  1  0.81196700  0.81196700  0.83165700  1
  O  O7  1  0.01252200  0.01252200  0.24178300  1
  O  O8  1  0.20130200  0.20130200  0.63781800  1
  O  O9  1  0.39630200  0.39630200  0.03407100  1
loop_
_geom_bond_atom_site_label_1
_geom_bond_atom_site_label_2
_geom_bond_distance
_geom_bond_site_symmetry_2
Li0 O9 1.990395 1_565
Li0 O9 1.990395 1_655
Li0 O4 2.116884 1_555
Li0 O6 2.152219 1_554
Li0 O1 2.346648 1_655
Li0 O1 2.346648 1_565
Li1 O0 2.059247 1_445
Li1 O7 2.059247 1_555
Li1 O5 2.132112 1_545
Li1 O5 2.132112 1_455
Li1 O2 2.132112 1_455
Li1 O2 2.132112 1_545
Li2 O3 1.990395 1_455
Li2 O3 1.990395 1_545
Li2 O8 2.116884 1_555
Li2 O1 2.152219 1_556
Li2 O6 2.346648 1_455
Li2 O6 2.346648 1_545
Li3 O9 2.060069 1_555
Li3 O4 2.148352 1_545
Li3 O4 2.148352 1_455
Li3 O7 2.240875 1_565
Li3 O7 2.240875 1_655
Li3 O2 2.248840 1_555
Li4 O3 2.060069 1_555
Li4 O8 2.148352 1_565
Li4 O8 2.148352 1_655
Li4 O0 2.240875 1_545
Li4 O0 2.240875 1_455
Li4 O5 2.248840 1_555
Li5 O7 2.025857 1_555
Li5 O0 2.025857 1_444
Li5 O3 2.156776 1_454
Li5 O3 2.156776 1_544
Li5 O9 2.156776 1_545
Li5 O9 2.156776 1_455
Mn0 O9 1.830708 1_556
Mn0 O0 1.947663 1_545
Mn0 O0 1.947663 1_455
Mn0 O2 2.002602 1_555
Mn0 O6 2.033597 1_545
Mn0 O6 2.033597 1_455
Mn1 O3 1.830708 1_554
Mn1 O7 1.947663 1_655
Mn1 O7 1.947663 1_565
Mn1 O5 2.002602 1_555
Mn1 O1 2.033597 1_565
Mn1 O1 2.033597 1_655
Mn2 O4 1.923965 1_555
Mn2 O6 1.954137 1_555
Mn2 O2 2.063829 1_565
Mn2 O2 2.063829 1_655
Mn2 O8 2.135456 1_565
Mn2 O8 2.135456 1_655
Mn3 O8 1.923965 1_555
Mn3 O1 1.954137 1_555
Mn3 O5 2.063829 1_455
Mn3 O5 2.063829 1_545
Mn3 O4 2.135456 1_455
Mn3 O4 2.135456 1_545
