# generated using pymatgen
data_K
_symmetry_space_group_name_H-M   'P 1'
_cell_length_a   14.27927250
_cell_length_b   14.27927250
_cell_length_c   14.27927250
_cell_angle_alpha   109.47122063
_cell_angle_beta   109.47122063
_cell_angle_gamma   109.47122063
_symmetry_Int_Tables_number   1
_chemical_formula_structural   K
_chemical_formula_sum   K29
_cell_volume   2241.28122819
_cell_formula_units_Z   29
loop_
 _symmetry_equiv_pos_site_id
 _symmetry_equiv_pos_as_xyz
  1  'x, y, z'
loop_
 _atom_site_type_symbol
 _atom_site_label
 _atom_site_symmetry_multiplicity
 _atom_site_fract_x
 _atom_site_fract_y
 _atom_site_fract_z
 _atom_site_occupancy
  K  K0  1  -0.00000000  -0.00000000  -0.00000000  1
  K  K1  1  0.63468804  -0.00000000  -0.00000000  1
  K  K2  1  0.37343696  0.19008137  0.00000000  1
  K  K3  1  0.19008137  0.37343696  0.00000000  1
  K  K4  1  0.68199609  0.40374975  0.00000000  1
  K  K5  1  -0.00000000  0.63468804  -0.00000000  1
  K  K6  1  0.40374975  0.68199609  -0.00000000  1
  K  K7  1  0.80991863  0.80991863  0.18335659  1
  K  K8  1  0.37343696  0.00000000  0.19008137  1
  K  K9  1  0.00000000  0.37343696  0.19008137  1
  K  K10  1  0.59625025  0.59625025  0.27824534  1
  K  K11  1  0.72175466  0.31800391  0.31800391  1
  K  K12  1  0.31800391  0.72175466  0.31800391  1
  K  K13  1  0.36531196  0.36531196  0.36531196  1
  K  K14  1  0.19008137  0.00000000  0.37343696  1
  K  K15  1  0.00000000  0.19008137  0.37343696  1
  K  K16  1  0.68199609  0.00000000  0.40374975  1
  K  K17  1  0.00000000  0.68199609  0.40374975  1
  K  K18  1  0.59625025  0.27824534  0.59625025  1
  K  K19  1  0.27824534  0.59625025  0.59625025  1
  K  K20  1  0.81664341  0.62656304  0.62656304  1
  K  K21  1  0.62656304  0.81664341  0.62656304  1
  K  K22  1  -0.00000000  -0.00000000  0.63468804  1
  K  K23  1  0.40374975  0.00000000  0.68199609  1
  K  K24  1  0.00000000  0.40374975  0.68199609  1
  K  K25  1  0.31800391  0.31800391  0.72175466  1
  K  K26  1  0.80991863  0.18335659  0.80991863  1
  K  K27  1  0.18335659  0.80991863  0.80991863  1
  K  K28  1  0.62656304  0.62656304  0.81664341  1
loop_
_geom_bond_atom_site_label_1
_geom_bond_atom_site_label_2
_geom_bond_distance
_geom_bond_site_symmetry_2
K1 K11 4.637999 1_555
K1 K23 4.638005 1_554
K1 K6 4.638005 1_545
K2 K3 4.275477 1_555
K2 K8 4.432309 1_555
K2 K27 4.432309 1_544
K2 K4 4.445191 1_555
K2 K23 4.695823 1_554
K2 K25 4.842999 1_554
K3 K9 4.432309 1_555
K3 K6 4.445191 1_555
K4 K5 4.638005 1_655
K4 K9 4.695823 1_655
K4 K7 4.843012 1_555
K6 K8 4.695823 1_565
K6 K7 4.843012 1_555
K10 K7 4.445169 1_555
K10 K13 4.638015 1_555
K10 K21 4.695830 1_555
K10 K20 4.695830 1_555
K10 K6 4.800697 1_555
K10 K4 4.800697 1_555
K10 K2 4.843009 1_555
K10 K3 4.843009 1_555
K11 K20 4.445201 1_555
K11 K8 4.695831 1_555
K11 K2 4.695831 1_555
K11 K24 4.800701 1_655
K11 K17 4.800701 1_655
K11 K15 4.842999 1_655
K11 K9 4.842999 1_655
K12 K21 4.445201 1_555
K12 K5 4.637999 1_555
K12 K9 4.695831 1_555
K12 K3 4.695831 1_555
K12 K23 4.800701 1_565
K12 K16 4.800701 1_565
K12 K14 4.842999 1_565
K12 K8 4.842999 1_565
K13 K19 4.638015 1_555
K13 K18 4.638015 1_555
K14 K8 4.275477 1_555
K14 K15 4.432309 1_555
K14 K7 4.432309 1_445
K14 K23 4.445191 1_555
K14 K17 4.695823 1_545
K14 K25 4.695831 1_555
K14 K18 4.843009 1_555
K15 K9 4.275477 1_555
K15 K7 4.432309 1_445
K15 K24 4.445191 1_555
K15 K16 4.695823 1_455
K15 K25 4.695831 1_555
K15 K19 4.843009 1_555
K16 K8 4.445191 1_555
K16 K22 4.638005 1_655
K16 K7 4.695814 1_545
K16 K18 4.800697 1_555
K16 K26 4.843012 1_555
K16 K21 4.843022 1_545
K17 K9 4.445191 1_555
K17 K22 4.638005 1_565
K17 K7 4.695814 1_455
K17 K19 4.800697 1_555
K17 K27 4.843012 1_555
K17 K20 4.843022 1_455
K18 K26 4.445169 1_555
K18 K28 4.695830 1_555
K18 K20 4.695830 1_555
K18 K23 4.800697 1_555
K18 K8 4.843009 1_555
K19 K27 4.445169 1_555
K19 K28 4.695830 1_555
K19 K21 4.695830 1_555
K19 K24 4.800697 1_555
K19 K9 4.843009 1_555
K20 K27 4.275501 1_655
K20 K21 4.432285 1_555
K20 K28 4.432285 1_555
K20 K24 4.843022 1_655
K21 K26 4.275501 1_565
K21 K28 4.432285 1_555
K21 K23 4.843022 1_565
K22 K25 4.637999 1_555
K23 K27 4.695814 1_545
K23 K26 4.843012 1_555
K24 K5 4.638005 1_556
K24 K26 4.695814 1_455
K24 K3 4.695823 1_556
K24 K27 4.843012 1_555
K25 K28 4.445201 1_555
K25 K6 4.800701 1_556
K25 K4 4.800701 1_556
K25 K3 4.842999 1_556
K26 K9 4.432309 1_656
K26 K3 4.432309 1_656
K26 K4 4.695814 1_556
K27 K8 4.432309 1_566
K27 K6 4.695814 1_556
K28 K7 4.275501 1_556
K28 K4 4.843022 1_556
K28 K6 4.843022 1_556
