# generated using pymatgen
data_NaCl7
_symmetry_space_group_name_H-M   'P 1'
_cell_length_a   5.94494117
_cell_length_b   5.94494117
_cell_length_c   5.94494117
_cell_angle_alpha   90.00000000
_cell_angle_beta   90.00000000
_cell_angle_gamma   90.00000000
_symmetry_Int_Tables_number   1
_chemical_formula_structural   NaCl7
_chemical_formula_sum   'Na1 Cl7'
_cell_volume   210.10804600
_cell_formula_units_Z   1
loop_
 _symmetry_equiv_pos_site_id
 _symmetry_equiv_pos_as_xyz
  1  'x, y, z'
loop_
 _atom_site_type_symbol
 _atom_site_label
 _atom_site_symmetry_multiplicity
 _atom_site_fract_x
 _atom_site_fract_y
 _atom_site_fract_z
 _atom_site_occupancy
  Na  Na0  1  0.00000000  -0.00000000  -0.00000000  1
  Cl  Cl0  1  0.50000000  0.50000000  0.50000000  1
  Cl  Cl1  1  0.00000000  0.17109727  0.50000000  1
  Cl  Cl2  1  0.00000000  0.82890273  0.50000000  1
  Cl  Cl3  1  0.50000000  -0.00000000  0.17109727  1
  Cl  Cl4  1  0.50000000  -0.00000000  0.82890273  1
  Cl  Cl5  1  0.17109727  0.50000000  0.00000000  1
  Cl  Cl6  1  0.82890273  0.50000000  -0.00000000  1
loop_
_geom_bond_atom_site_label_1
_geom_bond_atom_site_label_2
_geom_bond_distance
_geom_bond_site_symmetry_2
Cl1 Cl2 2.034326 1_545
Cl1 Na0 3.141688 1_555
Cl1 Na0 3.141688 1_556
Cl2 Na0 3.141688 1_566
Cl2 Na0 3.141688 1_565
Cl3 Cl4 2.034326 1_554
Cl3 Na0 3.141688 1_555
Cl3 Na0 3.141688 1_655
Cl4 Na0 3.141688 1_656
Cl4 Na0 3.141688 1_556
Cl5 Cl6 2.034326 1_455
Cl5 Na0 3.141688 1_565
Cl5 Na0 3.141688 1_555
Cl6 Na0 3.141688 1_665
Cl6 Na0 3.141688 1_655
