# generated using pymatgen
data_YRe(WO4)2
_symmetry_space_group_name_H-M   'P 1'
_cell_length_a   5.22010800
_cell_length_b   5.83369536
_cell_length_c   6.19886768
_cell_angle_alpha   113.03309431
_cell_angle_beta   111.41114982
_cell_angle_gamma   86.01696380
_symmetry_Int_Tables_number   1
_chemical_formula_structural   YRe(WO4)2
_chemical_formula_sum   'Y1 Re1 W2 O8'
_cell_volume   161.13848429
_cell_formula_units_Z   1
loop_
 _symmetry_equiv_pos_site_id
 _symmetry_equiv_pos_as_xyz
  1  'x, y, z'
loop_
 _atom_site_type_symbol
 _atom_site_label
 _atom_site_symmetry_multiplicity
 _atom_site_fract_x
 _atom_site_fract_y
 _atom_site_fract_z
 _atom_site_occupancy
  Y  Y0  1  0.00000000  0.50000000  0.50000000  1
  Re  Re0  1  0.50000000  0.00000000  0.50000000  1
  W  W0  1  0.76232100  0.83815800  0.01666300  1
  W  W1  1  0.23767900  0.16184200  0.98333700  1
  O  O0  1  0.79485200  0.54122600  0.77453800  1
  O  O1  1  0.72891400  0.77136000  0.30204000  1
  O  O2  1  0.83508900  0.01866500  0.79831600  1
  O  O3  1  0.65925300  0.19314600  0.18672700  1
  O  O4  1  0.27108600  0.22864000  0.69796000  1
  O  O5  1  0.20514800  0.45877400  0.22546200  1
  O  O6  1  0.16491100  0.98133500  0.20168400  1
  O  O7  1  0.34074700  0.80685400  0.81327300  1
loop_
_geom_bond_atom_site_label_1
_geom_bond_atom_site_label_2
_geom_bond_distance
_geom_bond_site_symmetry_2
O0 W0 1.841969 1_556
O0 Y0 2.252870 1_655
O1 W0 2.021332 1_555
O1 Re0 2.069109 1_565
O1 Y0 2.440368 1_655
O2 Re0 1.999599 1_555
O2 W1 2.040599 1_655
O2 W0 2.152064 1_546
O3 W0 2.059217 1_545
O3 W1 2.077439 1_554
O3 Y0 2.310754 1_655
O4 W1 2.021332 1_555
O4 Re0 2.069109 1_555
O4 Y0 2.440368 1_555
O5 W1 1.841969 1_554
O5 Y0 2.252870 1_555
O6 Re0 1.999599 1_565
O6 W0 2.040599 1_455
O6 W1 2.152064 1_564
O7 W1 2.059217 1_565
O7 W0 2.077439 1_556
O7 Y0 2.310754 1_555
