# generated using pymatgen
data_CeSi3Os
_symmetry_space_group_name_H-M   'P 1'
_cell_length_a   5.81629744
_cell_length_b   5.81629744
_cell_length_c   5.81629744
_cell_angle_alpha   137.53674111
_cell_angle_beta   137.53674111
_cell_angle_gamma   61.61324692
_symmetry_Int_Tables_number   1
_chemical_formula_structural   CeSi3Os
_chemical_formula_sum   'Ce1 Si3 Os1'
_cell_volume   88.65308007
_cell_formula_units_Z   1
loop_
 _symmetry_equiv_pos_site_id
 _symmetry_equiv_pos_as_xyz
  1  'x, y, z'
loop_
 _atom_site_type_symbol
 _atom_site_label
 _atom_site_symmetry_multiplicity
 _atom_site_fract_x
 _atom_site_fract_y
 _atom_site_fract_z
 _atom_site_occupancy
  Ce  Ce0  1  0.99660314  0.99660314  -0.00000000  1
  Si  Si0  1  0.42358857  0.42358857  0.00000000  1
  Si  Si1  1  0.26552086  0.76552086  0.50000000  1
  Si  Si2  1  0.76552086  0.26552086  0.50000000  1
  Os  Os0  1  0.65776657  0.65776657  -0.00000000  1
loop_
_geom_bond_atom_site_label_1
_geom_bond_atom_site_label_2
_geom_bond_distance
_geom_bond_site_symmetry_2
Ce0 Si0 3.066799 1_554
Ce0 Si0 3.066799 1_655
Ce0 Si0 3.066799 1_666
Ce0 Si0 3.066799 1_565
Ce0 Si2 3.125235 1_565
Ce0 Si1 3.125235 1_655
Ce0 Si2 3.125235 1_554
Ce0 Si1 3.125235 1_554
Ce0 Os0 3.385399 1_555
Ce0 Os0 3.386133 1_554
Ce0 Os0 3.386133 1_655
Ce0 Os0 3.386133 1_565
Ce0 Os0 3.386133 1_666
Ce0 Si2 3.414023 1_564
Ce0 Si1 3.414023 1_654
Ce0 Si2 3.414023 1_665
Ce0 Si1 3.414023 1_665
Si0 Si2 2.632623 1_555
Si0 Si1 2.632623 1_555
Si0 Si1 2.632623 1_544
Si0 Si2 2.632623 1_454
Os0 Si0 2.339730 1_555
Os0 Si2 2.365503 1_554
Os0 Si1 2.365503 1_554
Os0 Si1 2.365503 1_655
Os0 Si2 2.365503 1_565
