# generated using pymatgen
data_Mn(IO2)2
_symmetry_space_group_name_H-M   'P 1'
_cell_length_a   7.53981500
_cell_length_b   6.16600600
_cell_length_c   6.75064110
_cell_angle_alpha   61.65757098
_cell_angle_beta   90.00000000
_cell_angle_gamma   90.00000000
_symmetry_Int_Tables_number   1
_chemical_formula_structural   Mn(IO2)2
_chemical_formula_sum   'Mn2 I4 O8'
_cell_volume   276.21961862
_cell_formula_units_Z   2
loop_
 _symmetry_equiv_pos_site_id
 _symmetry_equiv_pos_as_xyz
  1  'x, y, z'
loop_
 _atom_site_type_symbol
 _atom_site_label
 _atom_site_symmetry_multiplicity
 _atom_site_fract_x
 _atom_site_fract_y
 _atom_site_fract_z
 _atom_site_occupancy
  Mn  Mn0  1  0.50000000  0.00000000  0.50000000  1
  Mn  Mn1  1  0.00000000  0.00000000  0.00000000  1
  I  I0  1  0.93915600  0.64407300  0.60745600  1
  I  I1  1  0.43915600  0.35592700  0.89254400  1
  I  I2  1  0.06084400  0.35592700  0.39254400  1
  I  I3  1  0.56084400  0.64407300  0.10745600  1
  O  O0  1  0.55949400  0.93678900  0.79437600  1
  O  O1  1  0.05949400  0.06321100  0.70562400  1
  O  O2  1  0.44050600  0.06321100  0.20562400  1
  O  O3  1  0.94050600  0.93678900  0.29437600  1
  O  O4  1  0.41307400  0.67770000  0.61177500  1
  O  O5  1  0.91307400  0.32230000  0.88822500  1
  O  O6  1  0.58692600  0.32230000  0.38822500  1
  O  O7  1  0.08692600  0.67770000  0.11177500  1
loop_
_geom_bond_atom_site_label_1
_geom_bond_atom_site_label_2
_geom_bond_distance
_geom_bond_site_symmetry_2
Mn0 O6 1.877369 1_555
Mn0 O4 1.877369 1_545
Mn0 O2 1.888595 1_555
Mn0 O0 1.888595 1_545
Mn1 O5 1.877369 1_454
Mn1 O7 1.877369 1_545
Mn1 O1 1.888595 1_554
Mn1 O3 1.888595 1_445
I0 O5 1.999259 1_555
I0 O3 2.025504 1_555
I1 O4 1.999259 1_555
I1 O2 2.025504 1_556
I2 O7 1.999259 1_555
I2 O1 2.025504 1_555
I3 O6 1.999259 1_555
I3 O0 2.025504 1_554
