# generated using pymatgen
data_BaMg14Cu
_symmetry_space_group_name_H-M   'P 1'
_cell_length_a   6.71528206
_cell_length_b   6.27205617
_cell_length_c   10.43828996
_cell_angle_alpha   90.00000000
_cell_angle_beta   90.00000000
_cell_angle_gamma   117.83965796
_symmetry_Int_Tables_number   1
_chemical_formula_structural   BaMg14Cu
_chemical_formula_sum   'Ba1 Mg14 Cu1'
_cell_volume   388.76085347
_cell_formula_units_Z   1
loop_
 _symmetry_equiv_pos_site_id
 _symmetry_equiv_pos_as_xyz
  1  'x, y, z'
loop_
 _atom_site_type_symbol
 _atom_site_label
 _atom_site_symmetry_multiplicity
 _atom_site_fract_x
 _atom_site_fract_y
 _atom_site_fract_z
 _atom_site_occupancy
  Ba  Ba0  1  0.10818638  0.80409269  0.12500000  1
  Mg  Mg0  1  0.15823854  0.32911877  0.62500000  1
  Mg  Mg1  1  0.16875742  0.83437821  0.62500000  1
  Mg  Mg2  1  0.60792064  0.31190467  0.12500000  1
  Mg  Mg3  1  0.66510509  0.32542293  0.62500000  1
  Mg  Mg4  1  0.60792064  0.79601498  0.12500000  1
  Mg  Mg5  1  0.66510509  0.83968115  0.62500000  1
  Mg  Mg6  1  0.35238916  0.18020913  0.38457438  1
  Mg  Mg7  1  0.35238916  0.18020913  0.86542562  1
  Mg  Mg8  1  0.35238916  0.67218103  0.38457438  1
  Mg  Mg9  1  0.35238916  0.67218103  0.86542562  1
  Mg  Mg10  1  0.87349451  0.18674775  0.34121881  1
  Mg  Mg11  1  0.87349451  0.18674775  0.90878119  1
  Mg  Mg12  1  0.82341303  0.66170701  0.39751021  1
  Mg  Mg13  1  0.82341303  0.66170701  0.85248979  1
  Cu  Cu0  1  0.21539448  0.35769674  0.12500000  1
loop_
_geom_bond_atom_site_label_1
_geom_bond_atom_site_label_2
_geom_bond_distance
_geom_bond_site_symmetry_2
Ba0 Cu0 3.199990 1_565
Ba0 Cu0 3.199991 1_555
Ba0 Mg12 3.309211 1_455
Ba0 Mg13 3.309211 1_454
Ba0 Mg2 3.336066 1_455
Ba0 Mg4 3.336066 1_455
Ba0 Mg2 3.379813 1_565
Ba0 Mg4 3.379813 1_555
Ba0 Mg8 3.461567 1_555
Ba0 Mg9 3.461567 1_554
Ba0 Mg7 3.461572 1_564
Ba0 Mg6 3.461572 1_565
Mg0 Mg1 3.136650 1_555
Mg0 Mg1 3.136650 1_545
Mg0 Mg6 3.163495 1_555
Mg0 Mg7 3.163495 1_555
Mg0 Mg9 3.163501 1_555
Mg0 Mg8 3.163501 1_555
Mg0 Mg5 3.300768 1_445
Mg0 Mg3 3.300769 1_455
Mg0 Mg10 3.410784 1_455
Mg0 Mg11 3.410784 1_455
Mg0 Mg5 3.414638 1_555
Mg0 Mg3 3.414639 1_555
Mg1 Mg12 3.137513 1_455
Mg1 Mg13 3.137513 1_455
Mg1 Mg8 3.166306 1_555
Mg1 Mg9 3.166306 1_555
Mg1 Mg6 3.166312 1_565
Mg1 Mg7 3.166312 1_565
Mg1 Mg3 3.317712 1_565
Mg1 Mg5 3.317712 1_555
Mg1 Mg3 3.397827 1_455
Mg1 Mg5 3.397827 1_455
Mg2 Mg7 3.105549 1_554
Mg2 Mg6 3.105549 1_555
Mg3 Mg5 3.046600 1_545
Mg3 Mg7 3.122706 1_555
Mg3 Mg6 3.122706 1_555
Mg3 Mg5 3.225456 1_555
Mg4 Mg9 3.105550 1_554
Mg4 Mg8 3.105550 1_555
Mg5 Mg9 3.122706 1_555
Mg5 Mg8 3.122706 1_555
Mg6 Mg8 3.085675 1_555
Mg6 Mg8 3.186381 1_545
Mg7 Mg9 3.085675 1_555
Mg7 Mg9 3.186381 1_545
Mg10 Mg8 3.266767 1_655
Mg10 Mg6 3.266767 1_655
Mg10 Mg3 3.553339 1_555
Mg10 Mg5 3.553344 1_545
Mg11 Mg9 3.266767 1_655
Mg11 Mg7 3.266767 1_655
Mg11 Mg3 3.553339 1_555
Mg11 Mg5 3.553344 1_545
Mg12 Mg5 3.020479 1_555
Mg12 Mg3 3.020485 1_555
Mg12 Mg6 3.197118 1_555
Mg12 Mg8 3.197118 1_555
Mg13 Mg5 3.020479 1_555
Mg13 Mg3 3.020485 1_555
Mg13 Mg7 3.197118 1_555
Mg13 Mg9 3.197118 1_555
Cu0 Mg4 2.781669 1_555
Cu0 Mg2 2.781669 1_555
Cu0 Mg10 3.035724 1_455
Cu0 Mg11 3.035724 1_454
Cu0 Mg6 3.222350 1_555
Cu0 Mg7 3.222350 1_554
Cu0 Mg9 3.222356 1_554
Cu0 Mg8 3.222356 1_555
