# generated using pymatgen
data_Nb5Ga4
_symmetry_space_group_name_H-M   'P 1'
_cell_length_a   7.97533614
_cell_length_b   7.97533521
_cell_length_c   5.45645666
_cell_angle_alpha   90.00000000
_cell_angle_beta   90.00000000
_cell_angle_gamma   119.99999963
_symmetry_Int_Tables_number   1
_chemical_formula_structural   Nb5Ga4
_chemical_formula_sum   'Nb10 Ga8'
_cell_volume   300.56560825
_cell_formula_units_Z   2
loop_
 _symmetry_equiv_pos_site_id
 _symmetry_equiv_pos_as_xyz
  1  'x, y, z'
loop_
 _atom_site_type_symbol
 _atom_site_label
 _atom_site_symmetry_multiplicity
 _atom_site_fract_x
 _atom_site_fract_y
 _atom_site_fract_z
 _atom_site_occupancy
  Nb  Nb0  1  0.33333300  0.66666700  -0.00000000  1
  Nb  Nb1  1  0.66666700  0.33333300  0.50000000  1
  Nb  Nb2  1  0.66666700  0.33333300  -0.00000000  1
  Nb  Nb3  1  0.33333300  0.66666700  0.50000000  1
  Nb  Nb4  1  0.27997216  1.00000000  0.25000000  1
  Nb  Nb5  1  0.27997216  0.27997216  0.75000000  1
  Nb  Nb6  1  1.00000000  0.72002784  0.75000000  1
  Nb  Nb7  1  0.00000000  0.27997216  0.25000000  1
  Nb  Nb8  1  0.72002784  0.72002784  0.25000000  1
  Nb  Nb9  1  0.72002784  0.00000000  0.75000000  1
  Ga  Ga0  1  -0.00000000  -0.00000000  -0.00000000  1
  Ga  Ga1  1  -0.00000000  -0.00000000  0.50000000  1
  Ga  Ga2  1  0.61560147  1.00000000  0.25000000  1
  Ga  Ga3  1  0.61560147  0.61560147  0.75000000  1
  Ga  Ga4  1  1.00000000  0.38439853  0.75000000  1
  Ga  Ga5  1  0.00000000  0.61560147  0.25000000  1
  Ga  Ga6  1  0.38439853  0.38439853  0.25000000  1
  Ga  Ga7  1  0.38439853  0.00000000  0.75000000  1
loop_
_geom_bond_atom_site_label_1
_geom_bond_atom_site_label_2
_geom_bond_distance
_geom_bond_site_symmetry_2
Nb0 Nb3 2.728228 1_554
Nb0 Nb3 2.728228 1_555
Nb0 Nb4 3.200092 1_555
Nb0 Nb6 3.200092 1_454
Nb0 Nb7 3.200096 1_555
Nb0 Nb9 3.200097 1_564
Nb0 Nb5 3.200099 1_554
Nb0 Nb8 3.200099 1_555
Nb1 Nb2 2.728228 1_555
Nb1 Nb2 2.728228 1_556
Nb1 Nb9 3.200092 1_555
Nb1 Nb7 3.200092 1_655
Nb1 Nb6 3.200096 1_555
Nb1 Nb4 3.200097 1_545
Nb1 Nb8 3.200099 1_555
Nb1 Nb5 3.200099 1_555
Nb2 Nb9 3.200092 1_554
Nb2 Nb7 3.200092 1_655
Nb2 Nb6 3.200096 1_554
Nb2 Nb4 3.200097 1_545
Nb2 Nb8 3.200099 1_555
Nb2 Nb5 3.200099 1_554
Nb3 Nb4 3.200092 1_555
Nb3 Nb6 3.200092 1_455
Nb3 Nb7 3.200096 1_555
Nb3 Nb9 3.200097 1_565
Nb3 Nb5 3.200099 1_555
Nb3 Nb8 3.200099 1_555
Ga0 Nb7 2.616586 1_555
Ga0 Nb6 2.616586 1_444
Ga0 Nb5 2.616586 1_554
Ga0 Nb8 2.616586 1_445
Ga0 Nb9 2.616587 1_454
Ga0 Nb4 2.616587 1_545
Ga0 Ga1 2.728228 1_554
Ga0 Ga1 2.728228 1_555
Ga1 Nb6 2.616586 1_445
Ga1 Nb7 2.616586 1_555
Ga1 Nb5 2.616586 1_555
Ga1 Nb8 2.616586 1_445
Ga1 Nb9 2.616587 1_455
Ga1 Nb4 2.616587 1_545
Ga2 Nb4 2.676757 1_555
Ga2 Nb8 2.745714 1_555
Ga2 Nb7 2.745714 1_665
Ga2 Nb2 2.830424 1_565
Ga2 Nb1 2.830424 1_565
Ga2 Nb3 2.830426 1_555
Ga2 Nb0 2.830426 1_555
Ga2 Nb9 2.852515 1_565
Ga2 Nb9 2.852515 1_564
Ga3 Nb5 2.676756 1_555
Ga3 Nb9 2.745714 1_565
Ga3 Nb6 2.745714 1_555
Ga3 Nb1 2.830431 1_555
Ga3 Nb2 2.830431 1_556
Ga3 Nb3 2.830431 1_555
Ga3 Nb0 2.830431 1_556
Ga3 Nb8 2.852515 1_555
Ga3 Nb8 2.852515 1_556
Ga4 Nb6 2.676756 1_555
Ga4 Nb9 2.745714 1_555
Ga4 Nb5 2.745714 1_655
Ga4 Nb1 2.830424 1_555
Ga4 Nb2 2.830424 1_556
Ga4 Nb0 2.830426 1_656
Ga4 Nb3 2.830426 1_655
Ga4 Nb7 2.852515 1_656
Ga4 Nb7 2.852515 1_655
Ga5 Nb7 2.676756 1_555
Ga5 Nb4 2.745714 1_555
Ga5 Nb8 2.745714 1_455
Ga5 Nb0 2.830424 1_555
Ga5 Nb3 2.830424 1_555
Ga5 Nb2 2.830426 1_455
Ga5 Nb1 2.830426 1_455
Ga5 Nb6 2.852515 1_455
Ga5 Nb6 2.852515 1_454
Ga6 Nb8 2.676756 1_555
Ga6 Nb4 2.745714 1_545
Ga6 Nb7 2.745714 1_555
Ga6 Nb3 2.830431 1_555
Ga6 Nb0 2.830431 1_555
Ga6 Nb2 2.830431 1_555
Ga6 Nb1 2.830431 1_555
Ga6 Nb5 2.852515 1_555
Ga6 Nb5 2.852515 1_554
Ga7 Nb9 2.676757 1_555
Ga7 Nb5 2.745714 1_555
Ga7 Nb6 2.745714 1_445
Ga7 Nb3 2.830424 1_545
Ga7 Nb0 2.830424 1_546
Ga7 Nb1 2.830426 1_555
Ga7 Nb2 2.830426 1_556
Ga7 Nb4 2.852515 1_546
Ga7 Nb4 2.852515 1_545
