# generated using pymatgen
data_Yb7Mg3Si8
_symmetry_space_group_name_H-M   'P 1'
_cell_length_a   6.90038697
_cell_length_b   7.53789693
_cell_length_c   14.07579518
_cell_angle_alpha   89.97698129
_cell_angle_beta   90.00000000
_cell_angle_gamma   90.00000000
_symmetry_Int_Tables_number   1
_chemical_formula_structural   Yb7Mg3Si8
_chemical_formula_sum   'Yb14 Mg6 Si16'
_cell_volume   732.14406280
_cell_formula_units_Z   2
loop_
 _symmetry_equiv_pos_site_id
 _symmetry_equiv_pos_as_xyz
  1  'x, y, z'
loop_
 _atom_site_type_symbol
 _atom_site_label
 _atom_site_symmetry_multiplicity
 _atom_site_fract_x
 _atom_site_fract_y
 _atom_site_fract_z
 _atom_site_occupancy
  Yb  Yb0  1  0.51153254  0.56686485  0.34232533  1
  Yb  Yb1  1  0.01153254  0.43313515  0.65767467  1
  Yb  Yb2  1  0.48590564  0.93467217  0.84726480  1
  Yb  Yb3  1  0.98590564  0.06532783  0.15273520  1
  Yb  Yb4  1  0.48860086  0.93218924  0.15385945  1
  Yb  Yb5  1  0.98860086  0.06781076  0.84614055  1
  Yb  Yb6  1  0.51351987  0.56852651  0.65683947  1
  Yb  Yb7  1  0.01351987  0.43147349  0.34316053  1
  Yb  Yb8  1  0.17335669  0.93181050  0.37505854  1
  Yb  Yb9  1  0.67335669  0.06818950  0.62494146  1
  Yb  Yb10  1  0.17197978  0.93060077  0.62475354  1
  Yb  Yb11  1  0.67197978  0.06939923  0.37524646  1
  Yb  Yb12  1  0.82778761  0.56669716  0.11964649  1
  Yb  Yb13  1  0.32778761  0.43330284  0.88035351  1
  Mg  Mg0  1  0.65609410  0.23280854  0.00065755  1
  Mg  Mg1  1  0.15609410  0.76719146  0.99934245  1
  Mg  Mg2  1  0.34259627  0.27097972  0.50038382  1
  Mg  Mg3  1  0.84259627  0.72902028  0.49961618  1
  Mg  Mg4  1  0.82488340  0.56622914  0.87457884  1
  Mg  Mg5  1  0.32488340  0.43377086  0.12542116  1
  Si  Si0  1  0.53037014  0.66321885  0.99809628  1
  Si  Si1  1  0.03037014  0.33678115  0.00190372  1
  Si  Si2  1  0.47478705  0.83335958  0.49980841  1
  Si  Si3  1  0.97478705  0.16664042  0.50019159  1
  Si  Si4  1  0.66017321  0.28138111  0.78754612  1
  Si  Si5  1  0.16017321  0.71861889  0.21245388  1
  Si  Si6  1  0.33990031  0.22001107  0.28287942  1
  Si  Si7  1  0.83990031  0.77998893  0.71712058  1
  Si  Si8  1  0.33985509  0.21982302  0.71720882  1
  Si  Si9  1  0.83985509  0.78017698  0.28279118  1
  Si  Si10  1  0.65862395  0.28364626  0.21323451  1
  Si  Si11  1  0.15862395  0.71635374  0.78676549  1
  Si  Si12  1  0.77806451  0.88397393  0.99986655  1
  Si  Si13  1  0.27806451  0.11602607  0.00013345  1
  Si  Si14  1  0.22197199  0.61838907  0.50005061  1
  Si  Si15  1  0.72197199  0.38161093  0.49994939  1
loop_
_geom_bond_atom_site_label_1
_geom_bond_atom_site_label_2
_geom_bond_distance
_geom_bond_site_symmetry_2
Mg0 Si1 2.699007 1_655
Mg0 Si13 2.753092 1_555
Mg0 Si12 2.760919 1_544
Mg0 Si10 3.016832 1_555
Mg0 Si4 3.021960 1_554
Mg1 Si0 2.699007 1_555
Mg1 Si12 2.753092 1_455
Mg1 Si13 2.760919 1_566
Mg1 Si11 3.016832 1_555
Mg1 Si5 3.021960 1_556
Mg2 Si3 2.657097 1_455
Mg2 Si15 2.747462 1_555
Mg2 Si14 2.747836 1_555
Mg2 Si8 3.076153 1_555
Mg2 Si6 3.085769 1_555
Mg3 Si2 2.657097 1_555
Mg3 Si14 2.747462 1_655
Mg3 Si15 2.747836 1_555
Mg3 Si9 3.076153 1_555
Mg3 Si7 3.085769 1_555
Mg4 Si4 2.721199 1_555
Mg4 Si7 2.741598 1_555
Mg4 Si0 2.772786 1_555
Mg4 Si11 2.847943 1_655
Mg4 Si1 2.865553 1_656
Mg4 Si12 2.992394 1_555
Mg5 Si5 2.721199 1_555
Mg5 Si6 2.741598 1_555
Mg5 Si1 2.772786 1_555
Mg5 Si10 2.847943 1_555
Mg5 Si0 2.865553 1_554
Mg5 Si13 2.992394 1_555
Si0 Si12 2.385575 1_555
Si0 Yb12 2.769027 1_556
Si0 Yb13 2.776099 1_555
Si0 Yb2 2.963945 1_555
Si0 Yb4 3.000716 1_556
Si1 Si13 2.385575 1_555
Si1 Yb13 2.769027 1_554
Si1 Yb12 2.776099 1_455
Si1 Yb3 2.963945 1_455
Si1 Yb5 3.000716 1_454
Si2 Yb8 2.821241 1_555
Si2 Yb10 2.827951 1_555
Si2 Yb11 2.844083 1_565
Si2 Yb9 2.848799 1_565
Si2 Yb6 2.989754 1_555
Si2 Yb0 3.002823 1_555
Si3 Yb9 2.821241 1_555
Si3 Yb11 2.827951 1_555
Si3 Yb10 2.844083 1_645
Si3 Yb8 2.848799 1_645
Si3 Yb7 2.989754 1_655
Si3 Yb1 3.002823 1_655
Si4 Si8 2.466049 1_555
Si4 Yb9 2.798623 1_555
Si4 Yb13 2.877445 1_555
Si4 Yb5 2.899460 1_555
Si4 Yb2 2.996834 1_545
Si4 Yb6 3.015075 1_555
Si4 Yb1 3.244512 1_655
Si5 Si9 2.466049 1_455
Si5 Yb8 2.798623 1_555
Si5 Yb12 2.877445 1_455
Si5 Yb4 2.899460 1_555
Si5 Yb3 2.996834 1_465
Si5 Yb7 3.015075 1_555
Si5 Yb0 3.244512 1_555
Si6 Yb8 2.778733 1_545
Si6 Yb11 2.868613 1_555
Si6 Yb7 2.886869 1_555
Si6 Yb0 2.990051 1_555
Si6 Yb4 3.010172 1_545
Si6 Yb3 3.268612 1_455
Si7 Yb9 2.778733 1_565
Si7 Yb10 2.868613 1_655
Si7 Yb6 2.886869 1_555
Si7 Yb1 2.990051 1_655
Si7 Yb5 3.010172 1_565
Si7 Yb2 3.268612 1_555
Si8 Yb10 2.791188 1_545
Si8 Yb13 2.805852 1_555
Si8 Yb9 2.879286 1_555
Si8 Yb1 2.901602 1_555
Si8 Yb2 2.997306 1_545
Si8 Yb6 3.010862 1_555
Si8 Yb5 3.237225 1_455
Si9 Yb11 2.791188 1_565
Si9 Yb12 2.805852 1_555
Si9 Yb8 2.879286 1_655
Si9 Yb0 2.901602 1_555
Si9 Yb3 2.997306 1_565
Si9 Yb7 3.010862 1_655
Si9 Yb4 3.237225 1_555
Si10 Si6 2.455139 1_555
Si10 Yb12 2.765493 1_555
Si10 Yb11 2.795373 1_555
Si10 Yb3 2.921429 1_555
Si10 Yb0 2.982061 1_555
Si10 Yb4 3.015829 1_545
Si10 Yb7 3.253471 1_655
Si11 Si7 2.455139 1_455
Si11 Yb13 2.765493 1_555
Si11 Yb10 2.795373 1_555
Si11 Yb2 2.921429 1_555
Si11 Yb1 2.982061 1_555
Si11 Yb5 3.015829 1_465
Si11 Yb6 3.253471 1_555
Si12 Yb3 2.925411 1_566
Si12 Yb12 2.945644 1_556
Si12 Yb5 2.951364 1_565
Si12 Yb4 2.969974 1_556
Si12 Yb2 2.970445 1_555
Si13 Yb2 2.925411 1_544
Si13 Yb13 2.945644 1_554
Si13 Yb4 2.951364 1_545
Si13 Yb5 2.969974 1_454
Si13 Yb3 2.970445 1_455
Si14 Si2 2.380996 1_555
Si14 Yb10 2.956680 1_555
Si14 Yb8 2.964143 1_555
Si14 Yb7 2.988889 1_555
Si14 Yb1 2.996449 1_555
Si14 Yb6 3.009725 1_555
Si14 Yb0 3.012099 1_555
Si15 Si3 2.380996 1_555
Si15 Yb11 2.956680 1_555
Si15 Yb9 2.964143 1_555
Si15 Yb6 2.988889 1_555
Si15 Yb0 2.996449 1_555
Si15 Yb7 3.009725 1_655
Si15 Yb1 3.012099 1_655
