# generated using pymatgen
data_Th2Fe2Si2C
_symmetry_space_group_name_H-M   'P 1'
_cell_length_a   5.80684865
_cell_length_b   5.80684865
_cell_length_c   7.05657761
_cell_angle_alpha   52.87290604
_cell_angle_beta   52.87290604
_cell_angle_gamma   40.23278660
_symmetry_Int_Tables_number   1
_chemical_formula_structural   Th2Fe2Si2C
_chemical_formula_sum   'Th2 Fe2 Si2 C1'
_cell_volume   117.72959346
_cell_formula_units_Z   1
loop_
 _symmetry_equiv_pos_site_id
 _symmetry_equiv_pos_as_xyz
  1  'x, y, z'
loop_
 _atom_site_type_symbol
 _atom_site_label
 _atom_site_symmetry_multiplicity
 _atom_site_fract_x
 _atom_site_fract_y
 _atom_site_fract_z
 _atom_site_occupancy
  Th  Th0  1  0.44073500  0.44073500  0.29834800  1
  Th  Th1  1  0.55926500  0.55926500  0.70165200  1
  Fe  Fe0  1  0.80607600  0.80607600  0.07713500  1
  Fe  Fe1  1  0.19392400  0.19392400  0.92286500  1
  Si  Si0  1  0.82792100  0.82792100  0.72481000  1
  Si  Si1  1  0.17207900  0.17207900  0.27519000  1
  C  C0  1  0.00000000  0.00000000  0.00000000  1
loop_
_geom_bond_atom_site_label_1
_geom_bond_atom_site_label_2
_geom_bond_distance
_geom_bond_site_symmetry_2
Fe0 Si1 2.334869 1_655
Fe0 Si1 2.334869 1_565
Fe0 Si0 2.340204 1_554
Fe1 Si0 2.334869 1_455
Fe1 Si0 2.334869 1_545
Fe1 Si1 2.340204 1_556
Si0 Th1 3.037376 1_555
Si0 Th0 3.130288 1_565
Si0 Th0 3.130288 1_655
Si0 Th1 3.138480 1_655
Si0 Th1 3.138480 1_565
Si1 Th0 3.037376 1_555
Si1 Th1 3.130288 1_545
Si1 Th1 3.130288 1_455
Si1 Th0 3.138480 1_545
Si1 Th0 3.138480 1_455
C0 Fe0 1.813487 1_445
C0 Fe1 1.813487 1_554
C0 Th1 2.662586 1_544
C0 Th1 2.662586 1_454
C0 Th0 2.662586 1_455
C0 Th0 2.662586 1_545
