# generated using pymatgen
data_Nd2MgS4
_symmetry_space_group_name_H-M   'P 1'
_cell_length_a   7.36872196
_cell_length_b   7.36872196
_cell_length_c   7.36872196
_cell_angle_alpha   110.96405060
_cell_angle_beta   110.96405060
_cell_angle_gamma   106.52512450
_symmetry_Int_Tables_number   1
_chemical_formula_structural   Nd2MgS4
_chemical_formula_sum   'Nd4 Mg2 S8'
_cell_volume   307.39600128
_cell_formula_units_Z   2
loop_
 _symmetry_equiv_pos_site_id
 _symmetry_equiv_pos_as_xyz
  1  'x, y, z'
loop_
 _atom_site_type_symbol
 _atom_site_label
 _atom_site_symmetry_multiplicity
 _atom_site_fract_x
 _atom_site_fract_y
 _atom_site_fract_z
 _atom_site_occupancy
  Nd  Nd0  1  0.87500000  0.75707400  0.38207400  1
  Nd  Nd1  1  0.50707400  0.12500000  0.88207400  1
  Nd  Nd2  1  0.37500000  0.49292600  0.61792600  1
  Nd  Nd3  1  0.24292600  0.62500000  0.11792600  1
  Mg  Mg0  1  0.00000000  0.00000000  0.00000000  1
  Mg  Mg1  1  0.75000000  0.25000000  0.50000000  1
  S  S0  1  0.50627100  0.37652300  0.26700200  1
  S  S1  1  0.76073000  0.49372900  0.87025200  1
  S  S2  1  0.10952200  0.23927000  0.73299800  1
  S  S3  1  0.62347700  0.89047800  0.12974800  1
  S  S4  1  0.24372900  0.01073000  0.37025200  1
  S  S5  1  0.98927000  0.35952200  0.23299800  1
  S  S6  1  0.64047800  0.87347700  0.62974800  1
  S  S7  1  0.12652300  0.75627100  0.76700200  1
loop_
_geom_bond_atom_site_label_1
_geom_bond_atom_site_label_2
_geom_bond_distance
_geom_bond_site_symmetry_2
Nd0 S3 2.781532 1_555
Nd0 S7 2.781538 1_655
Nd0 S4 2.877582 1_665
Nd0 S0 2.877585 1_555
Nd0 S2 3.005463 1_665
Nd0 S6 3.005464 1_555
Nd0 S1 3.203089 1_554
Nd0 S5 3.203090 1_555
Nd1 S6 2.781532 1_545
Nd1 S0 2.781538 1_556
Nd1 S1 2.877582 1_555
Nd1 S7 2.877585 1_545
Nd1 S5 3.005463 1_556
Nd1 S3 3.005464 1_546
Nd1 S4 3.203089 1_555
Nd1 S2 3.203090 1_555
Nd2 S1 2.781532 1_555
Nd2 S5 2.781536 1_455
Nd2 S2 2.877577 1_555
Nd2 S6 2.877582 1_555
Nd2 S0 3.005458 1_555
Nd2 S4 3.005464 1_555
Nd2 S3 3.203089 1_556
Nd2 S7 3.203092 1_555
Nd3 S4 2.781532 1_565
Nd3 S2 2.781536 1_554
Nd3 S5 2.877577 1_455
Nd3 S3 2.877582 1_555
Nd3 S7 3.005458 1_554
Nd3 S1 3.005464 1_454
Nd3 S6 3.203089 1_555
Nd3 S0 3.203092 1_555
Mg0 S7 2.633236 1_544
Mg0 S5 2.633238 1_455
Mg0 S4 2.633240 1_555
Mg0 S6 2.633240 1_444
Mg1 S0 2.633236 1_555
Mg1 S2 2.633238 1_655
Mg1 S1 2.633240 1_555
Mg1 S3 2.633240 1_545
