# generated using pymatgen
data_Dy(CoGe)6
_symmetry_space_group_name_H-M   'P 1'
_cell_length_a   5.08836500
_cell_length_b   5.08836581
_cell_length_c   7.87705400
_cell_angle_alpha   90.00000000
_cell_angle_beta   90.00000000
_cell_angle_gamma   120.00000124
_symmetry_Int_Tables_number   1
_chemical_formula_structural   Dy(CoGe)6
_chemical_formula_sum   'Dy1 Co6 Ge6'
_cell_volume   176.62453500
_cell_formula_units_Z   1
loop_
 _symmetry_equiv_pos_site_id
 _symmetry_equiv_pos_as_xyz
  1  'x, y, z'
loop_
 _atom_site_type_symbol
 _atom_site_label
 _atom_site_symmetry_multiplicity
 _atom_site_fract_x
 _atom_site_fract_y
 _atom_site_fract_z
 _atom_site_occupancy
  Dy  Dy0  1  0.00000000  0.00000000  0.00000000  1
  Co  Co0  1  0.50000000  0.50000000  0.74940600  1
  Co  Co1  1  0.50000000  0.00000000  0.74940600  1
  Co  Co2  1  0.00000000  0.50000000  0.74940600  1
  Co  Co3  1  0.50000000  0.50000000  0.25059400  1
  Co  Co4  1  0.50000000  0.00000000  0.25059400  1
  Co  Co5  1  0.00000000  0.50000000  0.25059400  1
  Ge  Ge0  1  0.66666700  0.33333300  0.00000000  1
  Ge  Ge1  1  0.33333300  0.66666700  0.00000000  1
  Ge  Ge2  1  0.66666700  0.33333300  0.50000000  1
  Ge  Ge3  1  0.33333300  0.66666700  0.50000000  1
  Ge  Ge4  1  0.00000000  0.00000000  0.65516700  1
  Ge  Ge5  1  0.00000000  0.00000000  0.34483300  1
loop_
_geom_bond_atom_site_label_1
_geom_bond_atom_site_label_2
_geom_bond_distance
_geom_bond_site_symmetry_2
Dy0 Ge5 2.716268 1_555
Dy0 Ge4 2.716268 1_554
Dy0 Ge1 2.937766 1_545
Dy0 Ge0 2.937766 1_455
Dy0 Ge0 2.937770 1_555
Dy0 Ge1 2.937770 1_445
Dy0 Ge0 2.937771 1_445
Dy0 Ge1 2.937771 1_555
Co0 Ge3 2.453003 1_555
Co0 Ge2 2.453003 1_555
Co0 Ge0 2.460504 1_556
Co0 Ge1 2.460504 1_556
Co0 Co2 2.544182 1_555
Co0 Co2 2.544182 1_655
Co0 Co1 2.544183 1_565
Co0 Co1 2.544183 1_555
Co0 Ge4 2.650267 1_555
Co0 Ge4 2.650267 1_665
Co0 Dy0 3.220142 1_556
Co0 Dy0 3.220142 1_666
Co1 Ge3 2.453000 1_545
Co1 Ge2 2.453000 1_555
Co1 Ge0 2.460501 1_556
Co1 Ge1 2.460501 1_546
Co1 Co2 2.544183 1_655
Co1 Co2 2.544183 1_545
Co1 Ge4 2.650266 1_655
Co1 Ge4 2.650266 1_555
Co1 Dy0 3.220142 1_556
Co1 Dy0 3.220142 1_656
Co2 Ge2 2.453000 1_455
Co2 Ge3 2.453000 1_555
Co2 Ge1 2.460501 1_556
Co2 Ge0 2.460501 1_456
Co2 Ge4 2.650267 1_555
Co2 Ge4 2.650267 1_565
Co2 Dy0 3.220142 1_566
Co2 Dy0 3.220142 1_556
Co3 Ge3 2.453003 1_555
Co3 Ge2 2.453003 1_555
Co3 Ge0 2.460504 1_555
Co3 Ge1 2.460504 1_555
Co3 Co5 2.544182 1_655
Co3 Co5 2.544182 1_555
Co3 Co4 2.544183 1_555
Co3 Co4 2.544183 1_565
Co3 Ge5 2.650267 1_665
Co3 Ge5 2.650267 1_555
Co3 Dy0 3.220142 1_665
Co3 Dy0 3.220142 1_555
Co4 Ge3 2.453000 1_545
Co4 Ge2 2.453000 1_555
Co4 Ge0 2.460501 1_555
Co4 Ge1 2.460501 1_545
Co4 Co5 2.544183 1_545
Co4 Co5 2.544183 1_655
Co4 Ge5 2.650266 1_655
Co4 Ge5 2.650266 1_555
Co4 Dy0 3.220142 1_655
Co4 Dy0 3.220142 1_555
Co5 Ge2 2.453000 1_455
Co5 Ge3 2.453000 1_555
Co5 Ge1 2.460501 1_555
Co5 Ge0 2.460501 1_455
Co5 Ge5 2.650267 1_555
Co5 Ge5 2.650267 1_565
Co5 Dy0 3.220142 1_555
Co5 Dy0 3.220142 1_565
Ge4 Ge5 2.444518 1_555
