# generated using pymatgen
data_HfMg14Cu
_symmetry_space_group_name_H-M   'P 1'
_cell_length_a   6.32762684
_cell_length_b   6.23536640
_cell_length_c   10.06626476
_cell_angle_alpha   90.00000000
_cell_angle_beta   90.00000000
_cell_angle_gamma   119.51884443
_symmetry_Int_Tables_number   1
_chemical_formula_structural   HfMg14Cu
_chemical_formula_sum   'Hf1 Mg14 Cu1'
_cell_volume   345.61065069
_cell_formula_units_Z   1
loop_
 _symmetry_equiv_pos_site_id
 _symmetry_equiv_pos_as_xyz
  1  'x, y, z'
loop_
 _atom_site_type_symbol
 _atom_site_label
 _atom_site_symmetry_multiplicity
 _atom_site_fract_x
 _atom_site_fract_y
 _atom_site_fract_z
 _atom_site_occupancy
  Hf  Hf0  1  0.15114422  0.82557161  0.12500000  1
  Mg  Mg0  1  0.16622351  0.33311126  0.62500000  1
  Mg  Mg1  1  0.17089101  0.83544501  0.62500000  1
  Mg  Mg2  1  0.64944095  0.33507718  0.12500000  1
  Mg  Mg3  1  0.66603410  0.32938117  0.62500000  1
  Mg  Mg4  1  0.64944095  0.81436277  0.12500000  1
  Mg  Mg5  1  0.66603410  0.83665193  0.62500000  1
  Mg  Mg6  1  0.33082547  0.16664930  0.36676536  1
  Mg  Mg7  1  0.33082547  0.16664930  0.88323464  1
  Mg  Mg8  1  0.33082547  0.66417717  0.36676536  1
  Mg  Mg9  1  0.33082547  0.66417717  0.88323464  1
  Mg  Mg10  1  0.84698648  0.17349374  0.35731494  1
  Mg  Mg11  1  0.84698648  0.17349374  0.89268506  1
  Mg  Mg12  1  0.83935415  0.66967757  0.37721795  1
  Mg  Mg13  1  0.83935415  0.66967757  0.87278205  1
  Cu  Cu0  1  0.18480804  0.34240352  0.12500000  1
loop_
_geom_bond_atom_site_label_1
_geom_bond_atom_site_label_2
_geom_bond_distance
_geom_bond_site_symmetry_2
Hf0 Mg8 3.058706 1_555
Hf0 Mg9 3.058706 1_554
Hf0 Mg6 3.058712 1_565
Hf0 Mg7 3.058712 1_564
Hf0 Mg12 3.064860 1_455
Hf0 Mg13 3.064860 1_454
Hf0 Mg2 3.140744 1_455
Hf0 Mg4 3.140744 1_455
Hf0 Mg2 3.188052 1_565
Hf0 Mg4 3.188052 1_555
Mg0 Mg1 3.117789 1_555
Mg0 Mg1 3.117789 1_545
Mg0 Mg5 3.153617 1_445
Mg0 Mg3 3.153617 1_455
Mg0 Mg7 3.159848 1_555
Mg0 Mg6 3.159848 1_555
Mg0 Mg9 3.159854 1_555
Mg0 Mg8 3.159854 1_555
Mg0 Mg5 3.174139 1_555
Mg0 Mg3 3.174139 1_555
Mg0 Mg10 3.217247 1_455
Mg0 Mg11 3.217247 1_455
Mg1 Mg12 3.090920 1_455
Mg1 Mg13 3.090920 1_455
Mg1 Mg3 3.129379 1_565
Mg1 Mg5 3.129380 1_555
Mg1 Mg9 3.160185 1_555
Mg1 Mg8 3.160185 1_555
Mg1 Mg7 3.160191 1_565
Mg1 Mg6 3.160191 1_565
Mg1 Mg3 3.198261 1_455
Mg1 Mg5 3.198261 1_455
Mg2 Mg6 3.000642 1_555
Mg2 Mg7 3.000642 1_554
Mg3 Mg5 3.072347 1_545
Mg3 Mg5 3.163019 1_555
Mg3 Mg7 3.188242 1_555
Mg3 Mg6 3.188242 1_555
Mg4 Mg8 3.000642 1_555
Mg4 Mg9 3.000642 1_554
Mg5 Mg9 3.188242 1_555
Mg5 Mg8 3.188242 1_555
Mg6 Mg8 3.102269 1_555
Mg6 Mg8 3.133098 1_545
Mg7 Mg9 3.102269 1_555
Mg7 Mg9 3.133098 1_545
Mg10 Mg8 3.084271 1_655
Mg10 Mg6 3.084271 1_655
Mg10 Mg12 3.124397 1_555
Mg10 Mg12 3.124397 1_545
Mg10 Mg8 3.246653 1_545
Mg10 Mg6 3.246653 1_555
Mg10 Mg3 3.257817 1_555
Mg10 Mg5 3.257823 1_545
Mg11 Mg9 3.084271 1_655
Mg11 Mg7 3.084271 1_655
Mg11 Mg13 3.124397 1_555
Mg11 Mg13 3.124397 1_545
Mg11 Mg9 3.246653 1_545
Mg11 Mg7 3.246653 1_555
Mg11 Mg3 3.257817 1_555
Mg11 Mg5 3.257823 1_545
Mg12 Mg5 3.103733 1_555
Mg12 Mg3 3.103739 1_555
Mg12 Mg4 3.126065 1_555
Mg12 Mg2 3.126071 1_555
Mg12 Mg6 3.128658 1_665
Mg12 Mg8 3.128658 1_655
Mg12 Mg6 3.202749 1_555
Mg12 Mg8 3.202749 1_555
Mg13 Mg5 3.103733 1_555
Mg13 Mg3 3.103739 1_555
Mg13 Mg4 3.126065 1_556
Mg13 Mg2 3.126071 1_556
Mg13 Mg7 3.128658 1_665
Mg13 Mg9 3.128658 1_655
Mg13 Mg7 3.202749 1_555
Mg13 Mg9 3.202749 1_555
Cu0 Mg4 2.962798 1_555
Cu0 Mg2 2.962799 1_555
Cu0 Mg11 2.988124 1_454
Cu0 Mg10 2.988124 1_455
Cu0 Mg6 2.995864 1_555
Cu0 Mg7 2.995864 1_554
Cu0 Mg8 2.995870 1_555
Cu0 Mg9 2.995870 1_554
Cu0 Hf0 3.123189 1_545
Cu0 Hf0 3.123189 1_555
Cu0 Mg4 3.365330 1_445
Cu0 Mg2 3.365330 1_455
