# generated using pymatgen
data_LaMn4(BiO4)3
_symmetry_space_group_name_H-M   'P 1'
_cell_length_a   5.50468470
_cell_length_b   5.98258019
_cell_length_c   7.69147600
_cell_angle_alpha   89.99963146
_cell_angle_beta   89.99970485
_cell_angle_gamma   89.72987403
_symmetry_Int_Tables_number   1
_chemical_formula_structural   LaMn4(BiO4)3
_chemical_formula_sum   'La1 Mn4 Bi3 O12'
_cell_volume   253.29454640
_cell_formula_units_Z   1
loop_
 _symmetry_equiv_pos_site_id
 _symmetry_equiv_pos_as_xyz
  1  'x, y, z'
loop_
 _atom_site_type_symbol
 _atom_site_label
 _atom_site_symmetry_multiplicity
 _atom_site_fract_x
 _atom_site_fract_y
 _atom_site_fract_z
 _atom_site_occupancy
  La  La0  1  0.51486200  0.43343500  0.25000100  1
  Mn  Mn0  1  0.00072700  0.50208800  0.99828800  1
  Mn  Mn1  1  0.50127200  0.99826300  0.50061100  1
  Mn  Mn2  1  0.00071900  0.50209600  0.50170400  1
  Mn  Mn3  1  0.50127700  0.99825100  0.99939900  1
  Bi  Bi0  1  0.98999700  0.93084800  0.24999800  1
  Bi  Bi1  1  0.48969800  0.56987300  0.74999800  1
  Bi  Bi2  1  0.01152000  0.07045900  0.75000200  1
  O  O0  1  0.40000400  0.02717900  0.25000300  1
  O  O1  1  0.08679300  0.52766900  0.24999700  1
  O  O2  1  0.60038300  0.97023900  0.75000200  1
  O  O3  1  0.90003400  0.46537300  0.74999700  1
  O  O4  1  0.70959800  0.68027800  0.04105600  1
  O  O5  1  0.78962000  0.17854100  0.45243500  1
  O  O6  1  0.29230400  0.32265700  0.54567900  1
  O  O7  1  0.20983300  0.82064000  0.95428900  1
  O  O8  1  0.29230200  0.32265200  0.95432100  1
  O  O9  1  0.20983900  0.82064100  0.54571900  1
  O  O10  1  0.70959600  0.68027900  0.45894000  1
  O  O11  1  0.78962200  0.17853800  0.04755900  1
loop_
_geom_bond_atom_site_label_1
_geom_bond_atom_site_label_2
_geom_bond_distance
_geom_bond_site_symmetry_2
La0 O1 2.420300 1_555
La0 O10 2.434644 1_555
La0 O4 2.434655 1_555
La0 O0 2.514233 1_555
La0 O5 2.648672 1_555
La0 O11 2.648727 1_555
La0 O6 2.668279 1_555
La0 O8 2.668323 1_554
Mn0 O4 1.948531 1_456
Mn0 O8 1.956172 1_555
Mn0 O1 1.999180 1_556
Mn0 O3 2.000922 1_455
Mn0 O7 2.256563 1_555
Mn0 O11 2.293906 1_456
Mn1 O5 1.958588 1_565
Mn1 O9 1.959399 1_555
Mn1 O2 2.001084 1_555
Mn1 O0 2.013754 1_565
Mn1 O10 2.239689 1_555
Mn1 O6 2.277867 1_565
Mn2 O10 1.948476 1_455
Mn2 O6 1.956238 1_555
Mn2 O1 1.999166 1_555
Mn2 O3 2.000921 1_455
Mn2 O9 2.256591 1_555
Mn2 O5 2.293918 1_455
Mn3 O11 1.958586 1_566
Mn3 O7 1.959420 1_555
Mn3 O2 2.001112 1_555
Mn3 O0 2.013735 1_566
Mn3 O4 2.239608 1_556
Mn3 O8 2.277932 1_565
Bi0 O0 2.332008 1_665
Bi0 O11 2.412761 1_565
Bi0 O5 2.412772 1_565
Bi0 O1 2.467748 1_655
Bi0 O7 2.657943 1_654
Bi0 O9 2.658039 1_655
Bi0 O10 2.689617 1_555
Bi0 O4 2.689635 1_555
Bi1 O3 2.340850 1_555
Bi1 O6 2.419287 1_555
Bi1 O8 2.419311 1_555
Bi1 O2 2.474283 1_555
Bi1 O10 2.630709 1_555
Bi1 O4 2.630730 1_556
Bi1 O9 2.659109 1_555
Bi1 O7 2.659182 1_555
Bi2 O2 2.343985 1_445
Bi2 O9 2.424642 1_545
Bi2 O7 2.424645 1_545
Bi2 O3 2.438207 1_455
Bi2 O11 2.672183 1_456
Bi2 O5 2.672262 1_455
Bi2 O8 2.675258 1_555
Bi2 O6 2.675278 1_555
