# generated using pymatgen
data_Li9Mn2Co5O16
_symmetry_space_group_name_H-M   'P 1'
_cell_length_a   2.95982100
_cell_length_b   5.10387330
_cell_length_c   19.24047755
_cell_angle_alpha   93.60108211
_cell_angle_beta   92.58440810
_cell_angle_gamma   91.21593924
_symmetry_Int_Tables_number   1
_chemical_formula_structural   Li9Mn2Co5O16
_chemical_formula_sum   'Li9 Mn2 Co5 O16'
_cell_volume   289.70397997
_cell_formula_units_Z   1
loop_
 _symmetry_equiv_pos_site_id
 _symmetry_equiv_pos_as_xyz
  1  'x, y, z'
loop_
 _atom_site_type_symbol
 _atom_site_label
 _atom_site_symmetry_multiplicity
 _atom_site_fract_x
 _atom_site_fract_y
 _atom_site_fract_z
 _atom_site_occupancy
  Li  Li0  1  0.01050500  0.60771800  0.87409100  1
  Li  Li1  1  0.49185100  0.75249700  0.74992000  1
  Li  Li2  1  0.99592300  0.87664000  0.62568800  1
  Li  Li3  1  0.49859600  0.00176000  0.50075400  1
  Li  Li4  1  0.00284500  0.12300600  0.37501400  1
  Li  Li5  1  0.49940400  0.24921300  0.25007000  1
  Li  Li6  1  0.99537100  0.38290100  0.12681900  1
  Li  Li7  1  0.50773200  0.49146300  0.99596500  1
  Li  Li8  1  0.48898900  0.13987600  0.87658300  1
  Mn  Mn0  1  0.00085800  0.01104400  0.99590000  1
  Mn  Mn1  1  0.99840900  0.49494900  0.50023100  1
  Co  Co0  1  0.99633700  0.24929500  0.75536700  1
  Co  Co1  1  0.49303100  0.36909100  0.62750200  1
  Co  Co2  1  0.50515000  0.62617900  0.37398300  1
  Co  Co3  1  0.00323800  0.74892100  0.25011700  1
  Co  Co4  1  0.51016200  0.86760300  0.12472000  1
  O  O0  1  0.48146500  0.83823500  0.94541600  1
  O  O1  1  0.00115500  0.97325400  0.80385300  1
  O  O2  1  0.53249800  0.08417500  0.68758000  1
  O  O3  1  0.98628600  0.20570400  0.56221100  1
  O  O4  1  0.53243600  0.32216500  0.43685700  1
  O  O5  1  0.99883600  0.46422500  0.31317000  1
  O  O6  1  0.54793500  0.57491000  0.19102100  1
  O  O7  1  0.01860800  0.71650400  0.06505000  1
  O  O8  1  0.47380400  0.43036700  0.80786400  1
  O  O9  1  0.01043400  0.52756100  0.69034000  1
  O  O10  1  0.45936800  0.66585200  0.56501500  1
  O  O11  1  0.99270700  0.78894900  0.43565000  1
  O  O12  1  0.45304200  0.92362600  0.30913200  1
  O  O13  1  0.99682600  0.03455500  0.18580200  1
  O  O14  1  0.52348300  0.16288000  0.05572300  1
  O  O15  1  0.99272200  0.29488600  0.94258900  1
loop_
_geom_bond_atom_site_label_1
_geom_bond_atom_site_label_2
_geom_bond_distance
_geom_bond_site_symmetry_2
Li0 O8 2.094950 1_555
Li0 O15 2.134492 1_455
Li0 O8 2.139632 1_455
Li0 O0 2.183043 1_555
Li0 O1 2.371343 1_555
Li0 O0 2.405949 1_455
Li1 O8 2.044697 1_555
Li1 O1 2.063656 1_655
Li1 O9 2.068919 1_555
Li1 O1 2.124661 1_555
Li1 O2 2.139699 1_565
Li1 O9 2.248605 1_655
Li2 O10 2.109755 1_655
Li2 O2 2.114712 1_565
Li2 O3 2.137695 1_565
Li2 O10 2.155181 1_555
Li2 O2 2.159148 1_665
Li2 O9 2.236146 1_655
Li3 O3 2.047683 1_555
Li3 O4 2.110074 1_555
Li3 O11 2.140509 1_445
Li3 O10 2.179966 1_545
Li3 O3 2.203423 1_455
Li3 O11 2.224723 1_545
Li4 O4 2.108360 1_455
Li4 O12 2.113230 1_545
Li4 O4 2.125641 1_555
Li4 O11 2.125992 1_445
Li4 O5 2.170000 1_455
Li4 O12 2.207297 1_445
Li5 O12 2.076830 1_545
Li5 O6 2.077631 1_555
Li5 O5 2.113138 1_555
Li5 O13 2.130001 1_455
Li5 O5 2.221986 1_455
Li5 O13 2.226977 1_555
Li6 O6 2.071396 1_555
Li6 O7 2.138423 1_655
Li6 O14 2.156663 1_555
Li6 O13 2.168467 1_555
Li6 O6 2.181475 1_655
Li6 O14 2.376961 1_655
Li7 O15 2.012310 1_455
Li7 O15 2.046108 1_555
Li7 O0 2.073572 1_555
Li7 O14 2.092209 1_556
Li7 O7 2.219410 1_656
Li7 O7 2.287861 1_556
Li8 O15 2.028475 1_555
Li8 O8 2.047464 1_555
Li8 O0 2.093319 1_545
Li8 O1 2.093429 1_545
Li8 O15 2.118413 1_455
Li8 O1 2.252989 1_645
Mn0 O15 1.826837 1_455
Mn0 O0 1.945483 1_445
Mn0 O0 1.953250 1_545
Mn0 O14 1.998683 1_556
Mn0 O14 2.000726 1_456
Mn0 O7 2.069089 1_546
Mn1 O3 1.955898 1_555
Mn1 O4 1.956609 1_555
Mn1 O10 1.958459 1_655
Mn1 O11 2.007307 1_555
Mn1 O4 2.204713 1_655
Mn1 O10 2.227530 1_555
Co0 O1 1.737869 1_645
Co0 O8 1.889466 1_655
Co0 O9 1.951818 1_655
Co0 O2 1.986819 1_555
Co0 O8 2.085807 1_555
Co0 O2 2.243888 1_655
Co1 O2 1.915889 1_555
Co1 O10 1.993455 1_555
Co1 O9 2.029483 1_655
Co1 O3 2.041700 1_455
Co1 O9 2.058689 1_555
Co1 O3 2.119063 1_555
Co2 O11 1.962477 1_555
Co2 O5 1.991462 1_455
Co2 O4 2.027283 1_555
Co2 O12 2.028784 1_555
Co2 O5 2.066748 1_555
Co2 O11 2.119055 1_455
Co3 O12 1.882274 1_555
Co3 O6 1.892579 1_455
Co3 O5 1.950737 1_455
Co3 O13 1.970435 1_465
Co3 O6 2.186335 1_555
Co3 O12 2.199440 1_455
Co4 O7 1.928759 1_555
Co4 O13 1.962546 1_565
Co4 O6 2.026098 1_555
Co4 O7 2.066741 1_655
Co4 O14 2.070904 1_565
Co4 O13 2.122732 1_465
