# generated using pymatgen
data_TePtPb
_symmetry_space_group_name_H-M   'P 1'
_cell_length_a   6.67199993
_cell_length_b   6.67199993
_cell_length_c   6.67199993
_cell_angle_alpha   90.00000000
_cell_angle_beta   90.00000000
_cell_angle_gamma   90.00000000
_symmetry_Int_Tables_number   1
_chemical_formula_structural   TePtPb
_chemical_formula_sum   'Te4 Pt4 Pb4'
_cell_volume   297.00796710
_cell_formula_units_Z   4
loop_
 _symmetry_equiv_pos_site_id
 _symmetry_equiv_pos_as_xyz
  1  'x, y, z'
loop_
 _atom_site_type_symbol
 _atom_site_label
 _atom_site_symmetry_multiplicity
 _atom_site_fract_x
 _atom_site_fract_y
 _atom_site_fract_z
 _atom_site_occupancy
  Te  Te0  1  0.87093782  0.12906218  0.62906218  1
  Te  Te1  1  0.12906218  0.62906218  0.87093782  1
  Te  Te2  1  0.62906218  0.87093782  0.12906218  1
  Te  Te3  1  0.37093782  0.37093782  0.37093782  1
  Pt  Pt0  1  0.49235403  0.50764597  0.00764597  1
  Pt  Pt1  1  0.50764597  0.00764597  0.49235403  1
  Pt  Pt2  1  0.00764597  0.49235403  0.50764597  1
  Pt  Pt3  1  0.99235403  0.99235403  0.99235403  1
  Pb  Pb0  1  0.13182897  0.86817103  0.36817103  1
  Pb  Pb1  1  0.86817103  0.36817103  0.13182897  1
  Pb  Pb2  1  0.36817103  0.13182897  0.86817103  1
  Pb  Pb3  1  0.63182897  0.63182897  0.63182897  1
loop_
_geom_bond_atom_site_label_1
_geom_bond_atom_site_label_2
_geom_bond_distance
_geom_bond_site_symmetry_2
Pt0 Te1 2.713561 1_554
Pt0 Te3 2.713561 1_555
Pt0 Te2 2.713561 1_555
Pt1 Te0 2.713561 1_555
Pt1 Te3 2.713561 1_555
Pt1 Te2 2.713561 1_545
Pt2 Te3 2.713561 1_555
Pt2 Te0 2.713561 1_455
Pt2 Te1 2.713561 1_555
Pt3 Te0 2.713561 1_565
Pt3 Te2 2.713561 1_556
Pt3 Te1 2.713561 1_655
Pb0 Pt1 2.799960 1_565
Pb0 Pt3 2.799960 1_454
Pb0 Pt2 2.799960 1_555
Pb0 Te0 3.014921 1_465
Pb1 Pt2 2.799960 1_655
Pb1 Pt3 2.799960 1_544
Pb1 Pt0 2.799960 1_555
Pb1 Te1 3.014921 1_654
Pb2 Pt3 2.799960 1_445
Pb2 Pt0 2.799960 1_556
Pb2 Pt1 2.799960 1_555
Pb2 Te2 3.014921 1_546
Pb3 Pt2 2.799960 1_655
Pb3 Pt1 2.799960 1_565
Pb3 Pt0 2.799960 1_556
Pb3 Te3 3.014921 1_555
