# generated using pymatgen
data_TaTiTlO5
_symmetry_space_group_name_H-M   'P 1'
_cell_length_a   3.82301800
_cell_length_b   6.54350200
_cell_length_c   19.16148700
_cell_angle_alpha   90.00000000
_cell_angle_beta   90.00000000
_cell_angle_gamma   90.00000000
_symmetry_Int_Tables_number   1
_chemical_formula_structural   TaTiTlO5
_chemical_formula_sum   'Ta4 Ti4 Tl4 O20'
_cell_volume   479.34233948
_cell_formula_units_Z   4
loop_
 _symmetry_equiv_pos_site_id
 _symmetry_equiv_pos_as_xyz
  1  'x, y, z'
loop_
 _atom_site_type_symbol
 _atom_site_label
 _atom_site_symmetry_multiplicity
 _atom_site_fract_x
 _atom_site_fract_y
 _atom_site_fract_z
 _atom_site_occupancy
  Ta  Ta0  1  0.25000000  0.77512800  0.89413300  1
  Ta  Ta1  1  0.25000000  0.27512800  0.60586700  1
  Ta  Ta2  1  0.75000000  0.22487200  0.10586700  1
  Ta  Ta3  1  0.75000000  0.72487200  0.39413300  1
  Ti  Ti0  1  0.25000000  0.31859500  0.96545400  1
  Ti  Ti1  1  0.25000000  0.81859500  0.53454600  1
  Ti  Ti2  1  0.75000000  0.68140500  0.03454600  1
  Ti  Ti3  1  0.75000000  0.18140500  0.46545400  1
  Tl  Tl0  1  0.25000000  0.77118900  0.19954800  1
  Tl  Tl1  1  0.25000000  0.27118900  0.30045200  1
  Tl  Tl2  1  0.75000000  0.22881100  0.80045200  1
  Tl  Tl3  1  0.75000000  0.72881100  0.69954800  1
  O  O0  1  0.25000000  0.64740900  0.00887500  1
  O  O1  1  0.25000000  0.14740900  0.49112500  1
  O  O2  1  0.75000000  0.35259100  0.99112500  1
  O  O3  1  0.75000000  0.85259100  0.50887500  1
  O  O4  1  0.25000000  0.23678800  0.07794600  1
  O  O5  1  0.25000000  0.73678800  0.42205400  1
  O  O6  1  0.75000000  0.76321200  0.92205400  1
  O  O7  1  0.75000000  0.26321200  0.57794600  1
  O  O8  1  0.25000000  0.46899300  0.88334600  1
  O  O9  1  0.25000000  0.96899300  0.61665400  1
  O  O10  1  0.75000000  0.53100700  0.11665400  1
  O  O11  1  0.75000000  0.03100700  0.38334600  1
  O  O12  1  0.25000000  0.83304800  0.80109000  1
  O  O13  1  0.25000000  0.33304800  0.69891000  1
  O  O14  1  0.75000000  0.16695200  0.19891000  1
  O  O15  1  0.75000000  0.66695200  0.30109000  1
  O  O16  1  0.25000000  0.06626300  0.92850900  1
  O  O17  1  0.25000000  0.56626300  0.57149100  1
  O  O18  1  0.75000000  0.93373700  0.07149100  1
  O  O19  1  0.75000000  0.43373700  0.42850900  1
loop_
_geom_bond_atom_site_label_1
_geom_bond_atom_site_label_2
_geom_bond_distance
_geom_bond_site_symmetry_2
O0 Ti2 1.986281 1_555
O0 Ti2 1.986281 1_455
O0 Ti0 2.306860 1_554
O0 Ta0 2.352107 1_554
O1 Ti3 1.986281 1_455
O1 Ti3 1.986281 1_555
O1 Ti1 2.306860 1_545
O1 Ta1 2.352107 1_555
O2 Ti0 1.986281 1_555
O2 Ti0 1.986281 1_655
O2 Ti2 2.306860 1_556
O2 Ta2 2.352107 1_556
O3 Ti1 1.986281 1_555
O3 Ti1 1.986281 1_655
O3 Ti3 2.306860 1_565
O3 Ta3 2.352107 1_555
O4 Ta2 1.986499 1_555
O4 Ta2 1.986499 1_455
O4 Ti0 2.220989 1_554
O5 Ta3 1.986499 1_555
O5 Ta3 1.986499 1_455
O5 Ti1 2.220989 1_555
O6 Ta0 1.986499 1_655
O6 Ta0 1.986499 1_555
O6 Ti2 2.220989 1_556
O7 Ta1 1.986499 1_655
O7 Ta1 1.986499 1_555
O7 Ti3 2.220989 1_555
O8 Ti0 1.855753 1_555
O8 Ta0 2.013830 1_555
O9 Ti1 1.855753 1_555
O9 Ta1 2.013830 1_565
O10 Ti2 1.855753 1_555
O10 Ta2 2.013830 1_555
O11 Ti3 1.855753 1_555
O11 Ta3 2.013830 1_545
O12 Ta0 1.822681 1_555
O12 Tl3 2.811552 1_455
O12 Tl3 2.811552 1_555
O13 Ta1 1.822681 1_555
O13 Tl2 2.811552 1_555
O13 Tl2 2.811552 1_455
O14 Ta2 1.822681 1_555
O14 Tl1 2.811552 1_555
O14 Tl1 2.811552 1_655
O15 Ta3 1.822681 1_555
O15 Tl0 2.811552 1_655
O15 Tl0 2.811552 1_555
O16 Ti0 1.796496 1_555
O16 Ta0 2.015705 1_545
O17 Ti1 1.796496 1_555
O17 Ta1 2.015705 1_555
O18 Ti2 1.796496 1_555
O18 Ta2 2.015705 1_565
O19 Ti3 1.796496 1_555
O19 Ta3 2.015705 1_555
