# generated using pymatgen
data_YB2Pd2C
_symmetry_space_group_name_H-M   'P 1'
_cell_length_a   6.01027654
_cell_length_b   6.01027654
_cell_length_c   6.01027654
_cell_angle_alpha   143.23954113
_cell_angle_beta   143.23954113
_cell_angle_gamma   52.96597680
_symmetry_Int_Tables_number   1
_chemical_formula_structural   YB2Pd2C
_chemical_formula_sum   'Y1 B2 Pd2 C1'
_cell_volume   77.28696292
_cell_formula_units_Z   1
loop_
 _symmetry_equiv_pos_site_id
 _symmetry_equiv_pos_as_xyz
  1  'x, y, z'
loop_
 _atom_site_type_symbol
 _atom_site_label
 _atom_site_symmetry_multiplicity
 _atom_site_fract_x
 _atom_site_fract_y
 _atom_site_fract_z
 _atom_site_occupancy
  Y  Y0  1  0.50000000  0.50000000  0.00000000  1
  B  B0  1  0.13716700  0.13716700  0.00000000  1
  B  B1  1  0.86283300  0.86283300  0.00000000  1
  Pd  Pd0  1  0.75000000  0.25000000  0.50000000  1
  Pd  Pd1  1  0.25000000  0.75000000  0.50000000  1
  C  C0  1  0.00000000  0.00000000  0.00000000  1
loop_
_geom_bond_atom_site_label_1
_geom_bond_atom_site_label_2
_geom_bond_distance
_geom_bond_site_symmetry_2
B0 C0 1.475807 1_555
B0 Pd1 2.250655 1_544
B0 Pd0 2.250655 1_454
B0 Pd0 2.250655 1_555
B0 Pd1 2.250655 1_555
B1 C0 1.475807 1_665
B1 Pd0 2.250655 1_554
B1 Pd0 2.250655 1_565
B1 Pd1 2.250655 1_554
B1 Pd1 2.250655 1_655
C0 Y0 2.680175 1_556
C0 Y0 2.680175 1_455
C0 Y0 2.680175 1_444
C0 Y0 2.680175 1_545
