# generated using pymatgen
data_Yb3CoO6
_symmetry_space_group_name_H-M   'P 1'
_cell_length_a   8.72090006
_cell_length_b   8.72090006
_cell_length_c   8.72090006
_cell_angle_alpha   109.47122063
_cell_angle_beta   109.47122063
_cell_angle_gamma   109.47122063
_symmetry_Int_Tables_number   1
_chemical_formula_structural   Yb3CoO6
_chemical_formula_sum   'Yb12 Co4 O24'
_cell_volume   510.57793052
_cell_formula_units_Z   4
loop_
 _symmetry_equiv_pos_site_id
 _symmetry_equiv_pos_as_xyz
  1  'x, y, z'
loop_
 _atom_site_type_symbol
 _atom_site_label
 _atom_site_symmetry_multiplicity
 _atom_site_fract_x
 _atom_site_fract_y
 _atom_site_fract_z
 _atom_site_occupancy
  Yb  Yb0  1  0.20744300  0.95744300  0.25000000  1
  Yb  Yb1  1  0.79255700  0.04255700  0.75000000  1
  Yb  Yb2  1  0.29255700  0.54255700  0.75000000  1
  Yb  Yb3  1  0.95744300  0.25000000  0.20744300  1
  Yb  Yb4  1  0.70744300  0.45744300  0.25000000  1
  Yb  Yb5  1  0.04255700  0.75000000  0.79255700  1
  Yb  Yb6  1  0.54255700  0.75000000  0.29255700  1
  Yb  Yb7  1  0.45744300  0.25000000  0.70744300  1
  Yb  Yb8  1  0.25000000  0.20744300  0.95744300  1
  Yb  Yb9  1  0.75000000  0.79255700  0.04255700  1
  Yb  Yb10  1  0.75000000  0.29255700  0.54255700  1
  Yb  Yb11  1  0.25000000  0.70744300  0.45744300  1
  Co  Co0  1  0.50000000  0.50000000  0.50000000  1
  Co  Co1  1  0.00000000  0.50000000  0.00000000  1
  Co  Co2  1  0.00000000  0.00000000  0.50000000  1
  Co  Co3  1  0.50000000  0.00000000  0.00000000  1
  O  O0  1  0.05332100  0.30816100  0.00564300  1
  O  O1  1  0.94667900  0.69183900  0.99435700  1
  O  O2  1  0.44667900  0.45232200  0.25483900  1
  O  O3  1  0.69748200  0.19183900  0.24516100  1
  O  O4  1  0.30816100  0.00564300  0.05332100  1
  O  O5  1  0.55332100  0.54767800  0.74516100  1
  O  O6  1  0.30251800  0.80816100  0.75483900  1
  O  O7  1  0.69183900  0.99435700  0.94667900  1
  O  O8  1  0.80251800  0.04767800  0.49435700  1
  O  O9  1  0.45232200  0.25483900  0.44667900  1
  O  O10  1  0.19748200  0.95232200  0.50564300  1
  O  O11  1  0.54767800  0.74516100  0.55332100  1
  O  O12  1  0.19183900  0.24516100  0.69748200  1
  O  O13  1  0.80816100  0.75483900  0.30251800  1
  O  O14  1  0.04767800  0.49435700  0.80251800  1
  O  O15  1  0.95232200  0.50564300  0.19748200  1
  O  O16  1  0.00564300  0.05332100  0.30816100  1
  O  O17  1  0.99435700  0.94667900  0.69183900  1
  O  O18  1  0.24516100  0.69748200  0.19183900  1
  O  O19  1  0.75483900  0.30251800  0.80816100  1
  O  O20  1  0.49435700  0.80251800  0.04767800  1
  O  O21  1  0.50564300  0.19748200  0.95232200  1
  O  O22  1  0.25483900  0.44667900  0.45232200  1
  O  O23  1  0.74516100  0.55332100  0.54767800  1
loop_
_geom_bond_atom_site_label_1
_geom_bond_atom_site_label_2
_geom_bond_distance
_geom_bond_site_symmetry_2
Co0 O5 1.891009 1_555
Co0 O23 1.891009 1_555
Co0 O11 1.891009 1_555
Co0 O22 1.891009 1_555
Co0 O9 1.891009 1_555
Co0 O2 1.891009 1_555
Co1 O1 1.891001 1_454
Co1 O0 1.891001 1_555
Co1 O15 1.891001 1_455
Co1 O14 1.891001 1_554
Co1 O19 1.891006 1_454
Co1 O18 1.891006 1_555
Co2 O17 1.891001 1_445
Co2 O16 1.891001 1_555
Co2 O10 1.891001 1_545
Co2 O8 1.891001 1_455
Co2 O13 1.891006 1_445
Co2 O12 1.891006 1_555
Co3 O7 1.891001 1_544
Co3 O4 1.891001 1_555
Co3 O21 1.891001 1_554
Co3 O20 1.891001 1_545
Co3 O6 1.891006 1_544
Co3 O3 1.891006 1_555
O0 Yb8 2.264742 1_554
O0 Yb1 2.274386 1_454
O0 Yb3 2.312344 1_455
O1 Yb9 2.264742 1_556
O1 Yb0 2.274386 1_656
O1 Yb5 2.312344 1_655
O2 Yb8 2.264737 1_554
O2 Yb4 2.274383 1_555
O2 Yb6 2.312341 1_555
O3 Yb10 2.264734 1_555
O3 Yb4 2.274389 1_555
O3 Yb3 2.312348 1_555
O4 Yb0 2.264742 1_545
O4 Yb5 2.274386 1_544
O4 Yb8 2.312344 1_554
O5 Yb9 2.264737 1_556
O5 Yb2 2.274383 1_555
O5 Yb7 2.312341 1_555
O6 Yb11 2.264734 1_555
O6 Yb2 2.274389 1_555
O6 Yb5 2.312348 1_555
O7 Yb1 2.264742 1_565
O7 Yb3 2.274386 1_566
O7 Yb9 2.312344 1_556
O8 Yb10 2.264742 1_555
O8 Yb1 2.274386 1_555
O8 Yb6 2.312344 1_545
O9 Yb0 2.264737 1_545
O9 Yb7 2.274383 1_555
O9 Yb10 2.312341 1_555
O10 Yb11 2.264742 1_555
O10 Yb0 2.274386 1_555
O10 Yb7 2.312344 1_565
O11 Yb1 2.264737 1_565
O11 Yb6 2.274383 1_555
O11 Yb11 2.312341 1_555
O12 Yb2 2.264734 1_555
O12 Yb7 2.274389 1_555
O12 Yb8 2.312348 1_555
O13 Yb4 2.264734 1_555
O13 Yb6 2.274389 1_555
O13 Yb9 2.312348 1_555
O14 Yb2 2.264742 1_555
O14 Yb5 2.274386 1_555
O14 Yb10 2.312344 1_455
O15 Yb4 2.264742 1_555
O15 Yb3 2.274386 1_555
O15 Yb11 2.312344 1_655
O16 Yb3 2.264742 1_455
O16 Yb9 2.274386 1_445
O16 Yb0 2.312344 1_545
O17 Yb5 2.264742 1_655
O17 Yb8 2.274386 1_665
O17 Yb1 2.312344 1_565
O18 Yb6 2.264734 1_555
O18 Yb11 2.274389 1_555
O18 Yb0 2.312348 1_555
O19 Yb7 2.264734 1_555
O19 Yb10 2.274389 1_555
O19 Yb1 2.312348 1_555
O20 Yb6 2.264742 1_555
O20 Yb9 2.274386 1_555
O20 Yb2 2.312344 1_554
O21 Yb7 2.264742 1_555
O21 Yb8 2.274386 1_555
O21 Yb4 2.312344 1_556
O22 Yb3 2.264737 1_455
O22 Yb11 2.274383 1_555
O22 Yb2 2.312341 1_555
O23 Yb5 2.264737 1_655
O23 Yb10 2.274383 1_555
O23 Yb4 2.312341 1_555
