# generated using pymatgen
data_NbMoW
_symmetry_space_group_name_H-M   'P 1'
_cell_length_a   14.35527189
_cell_length_b   13.98926970
_cell_length_c   5.56452703
_cell_angle_alpha   82.40031503
_cell_angle_beta   75.00406922
_cell_angle_gamma   22.59561575
_symmetry_Int_Tables_number   1
_chemical_formula_structural   NbMoW
_chemical_formula_sum   'Nb8 Mo8 W8'
_cell_volume   397.24813786
_cell_formula_units_Z   8
loop_
 _symmetry_equiv_pos_site_id
 _symmetry_equiv_pos_as_xyz
  1  'x, y, z'
loop_
 _atom_site_type_symbol
 _atom_site_label
 _atom_site_symmetry_multiplicity
 _atom_site_fract_x
 _atom_site_fract_y
 _atom_site_fract_z
 _atom_site_occupancy
  Nb  Nb0_0  1  0.16683877  0.16683877  0.33316123  1
  Nb  Nb0_1  1  0.16683877  0.16683877  0.83316123  1
  Nb  Nb0_2  1  0.16683877  0.66683877  0.33316123  1
  Nb  Nb0_3  1  0.16683877  0.66683877  0.83316123  1
  Nb  Nb0_4  1  0.66683877  0.16683877  0.33316123  1
  Nb  Nb0_5  1  0.66683877  0.16683877  0.83316123  1
  Nb  Nb0_6  1  0.66683877  0.66683877  0.33316123  1
  Nb  Nb0_7  1  0.66683877  0.66683877  0.83316123  1
  Mo  Mo0_0  1  0.00162552  0.00162553  0.49837447  1
  Mo  Mo0_1  1  0.00162552  0.00162553  0.99837447  1
  Mo  Mo0_2  1  0.00162553  0.50162553  0.49837447  1
  Mo  Mo0_3  1  0.00162553  0.50162553  0.99837447  1
  Mo  Mo0_4  1  0.50162553  0.00162553  0.49837447  1
  Mo  Mo0_5  1  0.50162553  0.00162553  0.99837447  1
  Mo  Mo0_6  1  0.50162553  0.50162553  0.49837447  1
  Mo  Mo0_7  1  0.50162553  0.50162553  0.99837447  1
  W  W0_0  1  0.33153521  0.33153521  0.16846479  1
  W  W0_1  1  0.33153521  0.33153521  0.66846479  1
  W  W0_2  1  0.33153521  0.83153521  0.16846479  1
  W  W0_3  1  0.33153521  0.83153521  0.66846479  1
  W  W0_4  1  0.83153521  0.33153521  0.16846479  1
  W  W0_5  1  0.83153521  0.33153521  0.66846479  1
  W  W0_6  1  0.83153521  0.83153521  0.16846479  1
  W  W0_7  1  0.83153521  0.83153521  0.66846479  1
loop_
_geom_bond_atom_site_label_1
_geom_bond_atom_site_label_2
_geom_bond_distance
_geom_bond_site_symmetry_2
Nb0_0 Nb0_6 2.782264 1_545
Nb0_0 Nb0_1 2.782264 1_555
Nb0_0 Nb0_1 2.782264 1_554
Nb0_0 Nb0_6 2.782264 1_455
Nb0_0 W0_2 2.823165 1_545
Nb0_0 W0_5 2.823165 1_455
Nb0_1 Nb0_7 2.782264 1_545
Nb0_1 Nb0_7 2.782264 1_455
Nb0_1 W0_3 2.823165 1_545
Nb0_1 W0_4 2.823165 1_456
Nb0_2 Nb0_4 2.782264 1_555
Nb0_2 Nb0_3 2.782264 1_554
Nb0_2 Nb0_4 2.782264 1_465
Nb0_2 Nb0_3 2.782264 1_555
Nb0_2 W0_7 2.823165 1_455
Nb0_2 W0_0 2.823165 1_555
Nb0_3 Nb0_5 2.782264 1_555
Nb0_3 Nb0_5 2.782264 1_465
Nb0_3 W0_1 2.823165 1_555
Nb0_3 W0_6 2.823165 1_456
Nb0_4 Nb0_5 2.782264 1_555
Nb0_4 Nb0_5 2.782264 1_554
Nb0_4 W0_6 2.823165 1_545
Nb0_4 W0_1 2.823165 1_555
Nb0_5 W0_7 2.823165 1_545
Nb0_5 W0_0 2.823165 1_556
Nb0_6 Nb0_7 2.782264 1_554
Nb0_6 Nb0_7 2.782264 1_555
Nb0_6 W0_4 2.823165 1_555
Nb0_6 W0_3 2.823165 1_555
Nb0_7 W0_2 2.823165 1_556
Nb0_7 W0_5 2.823165 1_555
Mo0_0 W0_2 2.703586 1_545
Mo0_0 W0_5 2.703586 1_455
Mo0_0 Mo0_1 2.782264 1_555
Mo0_0 Mo0_6 2.782264 1_455
Mo0_0 Mo0_1 2.782264 1_554
Mo0_0 Mo0_6 2.782264 1_545
Mo0_0 Nb0_5 2.811596 1_455
Mo0_0 Nb0_2 2.811596 1_545
Mo0_1 W0_4 2.703586 1_456
Mo0_1 W0_3 2.703586 1_545
Mo0_1 Mo0_7 2.782264 1_455
Mo0_1 Mo0_7 2.782264 1_545
Mo0_1 Nb0_4 2.811596 1_456
Mo0_1 Nb0_3 2.811596 1_545
Mo0_2 W0_7 2.703586 1_455
Mo0_2 W0_0 2.703586 1_555
Mo0_2 Mo0_4 2.782264 1_555
Mo0_2 Mo0_3 2.782264 1_554
Mo0_2 Mo0_3 2.782264 1_555
Mo0_2 Mo0_4 2.782264 1_465
Mo0_2 Nb0_7 2.811596 1_455
Mo0_2 Nb0_0 2.811596 1_555
Mo0_3 W0_1 2.703586 1_555
Mo0_3 W0_6 2.703586 1_456
Mo0_3 Mo0_5 2.782264 1_555
Mo0_3 Mo0_5 2.782264 1_465
Mo0_3 Nb0_6 2.811596 1_456
Mo0_3 Nb0_1 2.811596 1_555
Mo0_4 W0_6 2.703586 1_545
Mo0_4 W0_1 2.703586 1_555
Mo0_4 Mo0_5 2.782264 1_554
Mo0_4 Mo0_5 2.782264 1_555
Mo0_4 Nb0_6 2.811596 1_545
Mo0_4 Nb0_1 2.811596 1_555
Mo0_5 W0_7 2.703586 1_545
Mo0_5 W0_0 2.703586 1_556
Mo0_5 Nb0_7 2.811596 1_545
Mo0_5 Nb0_0 2.811596 1_556
Mo0_6 W0_4 2.703586 1_555
Mo0_6 W0_3 2.703586 1_555
Mo0_6 Mo0_7 2.782264 1_555
Mo0_6 Mo0_7 2.782264 1_554
Mo0_6 Nb0_4 2.811596 1_555
Mo0_6 Nb0_3 2.811596 1_555
Mo0_7 W0_5 2.703586 1_555
Mo0_7 W0_2 2.703586 1_556
Mo0_7 Nb0_5 2.811596 1_555
Mo0_7 Nb0_2 2.811596 1_556
W0_0 W0_1 2.782264 1_555
W0_0 W0_1 2.782264 1_554
W0_0 W0_6 2.782264 1_545
W0_0 W0_6 2.782264 1_455
W0_1 W0_7 2.782264 1_545
W0_1 W0_7 2.782264 1_455
W0_2 W0_3 2.782264 1_555
W0_2 W0_4 2.782264 1_465
W0_2 W0_4 2.782264 1_555
W0_2 W0_3 2.782264 1_554
W0_3 W0_5 2.782264 1_555
W0_3 W0_5 2.782264 1_465
W0_4 W0_5 2.782264 1_555
W0_4 W0_5 2.782264 1_554
W0_6 W0_7 2.782264 1_554
W0_6 W0_7 2.782264 1_555
