# generated using pymatgen
data_Nd(LuS2)3
_symmetry_space_group_name_H-M   'P 1'
_cell_length_a   3.90987947
_cell_length_b   10.89994150
_cell_length_c   11.14404429
_cell_angle_alpha   70.94731770
_cell_angle_beta   90.00000000
_cell_angle_gamma   90.00000000
_symmetry_Int_Tables_number   1
_chemical_formula_structural   Nd(LuS2)3
_chemical_formula_sum   'Nd2 Lu6 S12'
_cell_volume   448.91356388
_cell_formula_units_Z   2
loop_
 _symmetry_equiv_pos_site_id
 _symmetry_equiv_pos_as_xyz
  1  'x, y, z'
loop_
 _atom_site_type_symbol
 _atom_site_label
 _atom_site_symmetry_multiplicity
 _atom_site_fract_x
 _atom_site_fract_y
 _atom_site_fract_z
 _atom_site_occupancy
  Nd  Nd0  1  0.75000000  0.55016694  0.80346831  1
  Nd  Nd1  1  0.25000000  0.44983306  0.19653169  1
  Lu  Lu0  1  0.75000000  0.17947540  0.99902916  1
  Lu  Lu1  1  0.25000000  0.82052460  0.00097084  1
  Lu  Lu2  1  0.75000000  0.94314072  0.66650680  1
  Lu  Lu3  1  0.25000000  0.05685928  0.33349320  1
  Lu  Lu4  1  0.75000000  0.66155491  0.41212317  1
  Lu  Lu5  1  0.25000000  0.33844509  0.58787683  1
  S  S0  1  0.75000000  0.97740120  0.88812991  1
  S  S1  1  0.25000000  0.02259880  0.11187009  1
  S  S2  1  0.75000000  0.30084818  0.74889702  1
  S  S3  1  0.25000000  0.69915182  0.25110298  1
  S  S4  1  0.75000000  0.89305069  0.44263241  1
  S  S5  1  0.25000000  0.10694931  0.55736759  1
  S  S6  1  0.75000000  0.41848334  0.40877377  1
  S  S7  1  0.25000000  0.58151666  0.59122623  1
  S  S8  1  0.75000000  0.23130761  0.22943769  1
  S  S9  1  0.25000000  0.76869239  0.77056231  1
  S  S10  1  0.75000000  0.62054804  0.03593169  1
  S  S11  1  0.25000000  0.37945196  0.96406831  1
loop_
_geom_bond_atom_site_label_1
_geom_bond_atom_site_label_2
_geom_bond_distance
_geom_bond_site_symmetry_2
Nd0 S11 2.883258 1_555
Nd0 S11 2.883258 1_655
Nd0 S10 2.932087 1_556
Nd0 S2 2.972198 1_555
Nd0 S7 3.000870 1_655
Nd0 S7 3.000870 1_555
Nd0 S9 3.009903 1_555
Nd0 S9 3.009903 1_655
Nd1 S10 2.883258 1_455
Nd1 S10 2.883258 1_555
Nd1 S11 2.932087 1_554
Nd1 S3 2.972198 1_555
Nd1 S6 3.000870 1_455
Nd1 S6 3.000870 1_555
Nd1 S8 3.009903 1_455
Nd1 S8 3.009903 1_555
Lu0 S1 2.631191 1_656
Lu0 S1 2.631191 1_556
Lu0 S2 2.666957 1_555
Lu0 S8 2.803441 1_556
Lu0 S0 2.855871 1_545
Lu0 S11 2.858386 1_555
Lu0 S11 2.858386 1_655
Lu1 S0 2.631191 1_454
Lu1 S0 2.631191 1_554
Lu1 S3 2.666957 1_555
Lu1 S9 2.803441 1_554
Lu1 S1 2.855871 1_565
Lu1 S10 2.858386 1_455
Lu1 S10 2.858386 1_555
Lu2 S0 2.615609 1_555
Lu2 S5 2.659189 1_665
Lu2 S5 2.659189 1_565
Lu2 S9 2.709708 1_555
Lu2 S9 2.709708 1_655
Lu2 S4 2.722454 1_555
Lu3 S1 2.615609 1_555
Lu3 S4 2.659189 1_445
Lu3 S4 2.659189 1_545
Lu3 S8 2.709708 1_555
Lu3 S8 2.709708 1_455
Lu3 S5 2.722454 1_555
Lu4 S3 2.594140 1_655
Lu4 S3 2.594140 1_555
Lu4 S4 2.653809 1_555
Lu4 S6 2.661884 1_555
Lu4 S7 2.725767 1_555
Lu4 S7 2.725767 1_655
Lu5 S2 2.594140 1_555
Lu5 S2 2.594140 1_455
Lu5 S5 2.653809 1_555
Lu5 S7 2.661884 1_555
Lu5 S6 2.725767 1_455
Lu5 S6 2.725767 1_555
