# generated using pymatgen
data_ZnCoBiO5
_symmetry_space_group_name_H-M   'P 1'
_cell_length_a   10.59500500
_cell_length_b   5.33071000
_cell_length_c   8.37402783
_cell_angle_alpha   69.88222044
_cell_angle_beta   90.00000000
_cell_angle_gamma   90.00000000
_symmetry_Int_Tables_number   1
_chemical_formula_structural   ZnCoBiO5
_chemical_formula_sum   'Zn4 Co4 Bi4 O20'
_cell_volume   444.09968337
_cell_formula_units_Z   4
loop_
 _symmetry_equiv_pos_site_id
 _symmetry_equiv_pos_as_xyz
  1  'x, y, z'
loop_
 _atom_site_type_symbol
 _atom_site_label
 _atom_site_symmetry_multiplicity
 _atom_site_fract_x
 _atom_site_fract_y
 _atom_site_fract_z
 _atom_site_occupancy
  Zn  Zn0  1  0.09125800  0.53916200  0.82549200  1
  Zn  Zn1  1  0.90874200  0.46083800  0.17450800  1
  Zn  Zn2  1  0.59125800  0.46083800  0.67450800  1
  Zn  Zn3  1  0.40874200  0.53916200  0.32549200  1
  Co  Co0  1  0.37960200  0.15176400  0.04644200  1
  Co  Co1  1  0.62039800  0.84823600  0.95355800  1
  Co  Co2  1  0.87960200  0.84823600  0.45355800  1
  Co  Co3  1  0.12039800  0.15176400  0.54644200  1
  Bi  Bi0  1  0.89472400  0.02815200  0.84305500  1
  Bi  Bi1  1  0.10527600  0.97184800  0.15694500  1
  Bi  Bi2  1  0.60527600  0.02815200  0.34305500  1
  Bi  Bi3  1  0.39472400  0.97184800  0.65694500  1
  O  O0  1  0.94286100  0.83273600  0.66308700  1
  O  O1  1  0.03548600  0.30527100  0.68422600  1
  O  O2  1  0.79599900  0.17129300  0.32152300  1
  O  O3  1  0.45691800  0.75544600  0.49062400  1
  O  O4  1  0.71816800  0.69613800  0.50466200  1
  O  O5  1  0.78183200  0.69613800  0.00466200  1
  O  O6  1  0.46451400  0.30527100  0.18422600  1
  O  O7  1  0.53548600  0.69472900  0.81577400  1
  O  O8  1  0.54308200  0.24455400  0.50937600  1
  O  O9  1  0.44286100  0.16726400  0.83691300  1
  O  O10  1  0.28183200  0.30386200  0.49533800  1
  O  O11  1  0.05713900  0.16726400  0.33691300  1
  O  O12  1  0.55713900  0.83273600  0.16308700  1
  O  O13  1  0.21816800  0.30386200  0.99533800  1
  O  O14  1  0.95691800  0.24455400  0.00937600  1
  O  O15  1  0.04308200  0.75544600  0.99062400  1
  O  O16  1  0.20400100  0.82870700  0.67847700  1
  O  O17  1  0.96451400  0.69472900  0.31577400  1
  O  O18  1  0.29599900  0.82870700  0.17847700  1
  O  O19  1  0.70400100  0.17129300  0.82152300  1
loop_
_geom_bond_atom_site_label_1
_geom_bond_atom_site_label_2
_geom_bond_distance
_geom_bond_site_symmetry_2
Co0 O9 1.853357 1_554
Co0 O6 1.860037 1_555
Co0 O13 1.878106 1_554
Co0 O18 1.913889 1_545
Co0 O12 2.498353 1_545
Co1 O12 1.853357 1_556
Co1 O7 1.860037 1_555
Co1 O5 1.878106 1_556
Co1 O19 1.913889 1_565
Co1 O9 2.498353 1_565
Co2 O0 1.853357 1_555
Co2 O17 1.860037 1_555
Co2 O4 1.878106 1_555
Co2 O2 1.913889 1_565
Co2 O11 2.498353 1_665
Co3 O11 1.853357 1_555
Co3 O1 1.860037 1_555
Co3 O10 1.878106 1_555
Co3 O16 1.913889 1_545
Co3 O0 2.498353 1_445
Bi0 O19 2.145548 1_555
Bi0 O0 2.167125 1_545
Bi0 O5 2.178729 1_546
Bi0 O14 2.193173 1_556
Bi0 O1 2.196328 1_655
Bi0 O15 2.208013 1_645
Bi1 O18 2.145548 1_555
Bi1 O11 2.167125 1_565
Bi1 O13 2.178729 1_564
Bi1 O15 2.193173 1_554
Bi1 O17 2.196328 1_455
Bi1 O14 2.208013 1_465
Bi2 O2 2.145548 1_555
Bi2 O12 2.167125 1_545
Bi2 O4 2.178729 1_545
Bi2 O8 2.193173 1_555
Bi2 O6 2.196328 1_555
Bi2 O3 2.208013 1_545
Bi3 O16 2.145548 1_555
Bi3 O9 2.167125 1_565
Bi3 O10 2.178729 1_565
Bi3 O3 2.193173 1_555
Bi3 O7 2.196328 1_555
Bi3 O8 2.208013 1_565
O0 Zn0 2.303606 1_655
O1 Zn0 2.077909 1_555
O2 Zn1 2.004413 1_555
O3 Zn3 2.144469 1_555
O3 Zn2 2.280317 1_555
O4 Zn2 2.043769 1_555
O5 Zn1 2.043769 1_555
O6 Zn3 2.077909 1_555
O7 Zn2 2.077909 1_555
O8 Zn2 2.144469 1_555
O8 Zn3 2.280317 1_555
O9 Zn2 2.303606 1_555
O10 Zn3 2.043769 1_555
O11 Zn1 2.303606 1_455
O12 Zn3 2.303606 1_555
O13 Zn0 2.043769 1_555
O14 Zn1 2.144469 1_555
O14 Zn0 2.280317 1_654
O15 Zn0 2.144469 1_555
O15 Zn1 2.280317 1_456
O16 Zn0 2.004413 1_555
O17 Zn1 2.077909 1_555
O18 Zn3 2.004413 1_555
O19 Zn2 2.004413 1_555
