# generated using pymatgen
data_Y3Mg
_symmetry_space_group_name_H-M   'P 1'
_cell_length_a   7.07286135
_cell_length_b   7.07286135
_cell_length_c   22.94255800
_cell_angle_alpha   90.00000000
_cell_angle_beta   90.00000000
_cell_angle_gamma   120.00001266
_symmetry_Int_Tables_number   1
_chemical_formula_structural   Y3Mg
_chemical_formula_sum   'Y24 Mg8'
_cell_volume   993.94580317
_cell_formula_units_Z   8
loop_
 _symmetry_equiv_pos_site_id
 _symmetry_equiv_pos_as_xyz
  1  'x, y, z'
loop_
 _atom_site_type_symbol
 _atom_site_label
 _atom_site_symmetry_multiplicity
 _atom_site_fract_x
 _atom_site_fract_y
 _atom_site_fract_z
 _atom_site_occupancy
  Y  Y0_0  1  0.00000000  0.00000000  0.25000000  1
  Y  Y0_1  1  0.00000000  0.00000000  0.75000000  1
  Y  Y0_2  1  0.00000000  0.50000000  0.25000000  1
  Y  Y0_3  1  0.00000000  0.50000000  0.75000000  1
  Y  Y0_4  1  0.50000000  0.00000000  0.25000000  1
  Y  Y0_5  1  0.50000000  0.00000000  0.75000000  1
  Y  Y0_6  1  0.50000000  0.50000000  0.25000000  1
  Y  Y0_7  1  0.50000000  0.50000000  0.75000000  1
  Y  Y1_0  1  0.16666650  0.33333350  0.12447450  1
  Y  Y1_1  1  0.16666650  0.33333350  0.62447450  1
  Y  Y1_2  1  0.16666650  0.83333350  0.12447450  1
  Y  Y1_3  1  0.16666650  0.83333350  0.62447450  1
  Y  Y1_4  1  0.66666650  0.33333350  0.12447450  1
  Y  Y1_5  1  0.66666650  0.33333350  0.62447450  1
  Y  Y1_6  1  0.66666650  0.83333350  0.12447450  1
  Y  Y1_7  1  0.66666650  0.83333350  0.62447450  1
  Y  Y2_0  1  0.16666650  0.33333350  0.37552550  1
  Y  Y2_1  1  0.16666650  0.33333350  0.87552550  1
  Y  Y2_2  1  0.16666650  0.83333350  0.37552550  1
  Y  Y2_3  1  0.16666650  0.83333350  0.87552550  1
  Y  Y2_4  1  0.66666650  0.33333350  0.37552550  1
  Y  Y2_5  1  0.66666650  0.33333350  0.87552550  1
  Y  Y2_6  1  0.66666650  0.83333350  0.37552550  1
  Y  Y2_7  1  0.66666650  0.83333350  0.87552550  1
  Mg  Mg0_0  1  0.00000000  0.00000000  0.00000000  1
  Mg  Mg0_1  1  0.00000000  0.00000000  0.50000000  1
  Mg  Mg0_2  1  0.00000000  0.50000000  0.00000000  1
  Mg  Mg0_3  1  0.00000000  0.50000000  0.50000000  1
  Mg  Mg0_4  1  0.50000000  0.00000000  0.00000000  1
  Mg  Mg0_5  1  0.50000000  0.00000000  0.50000000  1
  Mg  Mg0_6  1  0.50000000  0.50000000  0.00000000  1
  Mg  Mg0_7  1  0.50000000  0.50000000  0.50000000  1
loop_
_geom_bond_atom_site_label_1
_geom_bond_atom_site_label_2
_geom_bond_distance
_geom_bond_site_symmetry_2
Y0_0 Y2_2 3.530221 1_545
Y0_0 Y1_2 3.530221 1_545
Y0_0 Y2_6 3.530222 1_445
Y0_0 Y2_0 3.530222 1_555
Y0_0 Y1_6 3.530222 1_445
Y0_0 Y1_0 3.530222 1_555
Y0_0 Y0_6 3.536430 1_445
Y0_0 Y0_6 3.536430 1_555
Y0_0 Y0_2 3.536431 1_555
Y0_0 Y0_2 3.536431 1_545
Y0_0 Y0_4 3.536431 1_455
Y0_0 Y0_4 3.536431 1_555
Y0_1 Y2_3 3.530221 1_545
Y0_1 Y1_3 3.530221 1_545
Y0_1 Y2_7 3.530222 1_445
Y0_1 Y2_1 3.530222 1_555
Y0_1 Y1_7 3.530222 1_445
Y0_1 Y1_1 3.530222 1_555
Y0_1 Y0_7 3.536430 1_555
Y0_1 Y0_7 3.536430 1_445
Y0_1 Y0_3 3.536431 1_555
Y0_1 Y0_5 3.536431 1_555
Y0_1 Y0_3 3.536431 1_545
Y0_1 Y0_5 3.536431 1_455
Y0_2 Y2_0 3.530221 1_555
Y0_2 Y1_0 3.530221 1_555
Y0_2 Y2_2 3.530222 1_555
Y0_2 Y2_4 3.530222 1_455
Y0_2 Y1_4 3.530222 1_455
Y0_2 Y1_2 3.530222 1_555
Y0_2 Y0_4 3.536430 1_455
Y0_2 Y0_4 3.536430 1_565
Y0_2 Y0_6 3.536431 1_455
Y0_2 Y0_6 3.536431 1_555
Y0_3 Y2_1 3.530221 1_555
Y0_3 Y1_1 3.530221 1_555
Y0_3 Y2_3 3.530222 1_555
Y0_3 Y2_5 3.530222 1_455
Y0_3 Y1_5 3.530222 1_455
Y0_3 Y1_3 3.530222 1_555
Y0_3 Y0_5 3.536430 1_565
Y0_3 Y0_5 3.536430 1_455
Y0_3 Y0_7 3.536431 1_555
Y0_3 Y0_7 3.536431 1_455
Y0_4 Y2_6 3.530221 1_545
Y0_4 Y1_6 3.530221 1_545
Y0_4 Y2_4 3.530222 1_555
Y0_4 Y2_2 3.530222 1_545
Y0_4 Y1_4 3.530222 1_555
Y0_4 Y1_2 3.530222 1_545
Y0_4 Y0_6 3.536431 1_555
Y0_4 Y0_6 3.536431 1_545
Y0_5 Y2_7 3.530221 1_545
Y0_5 Y1_7 3.530221 1_545
Y0_5 Y2_5 3.530222 1_555
Y0_5 Y2_3 3.530222 1_545
Y0_5 Y1_5 3.530222 1_555
Y0_5 Y1_3 3.530222 1_545
Y0_5 Y0_7 3.536431 1_555
Y0_5 Y0_7 3.536431 1_545
Y0_6 Y2_4 3.530221 1_555
Y0_6 Y1_4 3.530221 1_555
Y0_6 Y2_0 3.530222 1_555
Y0_6 Y2_6 3.530222 1_555
Y0_6 Y1_0 3.530222 1_555
Y0_6 Y1_6 3.530222 1_555
Y0_7 Y2_5 3.530221 1_555
Y0_7 Y1_5 3.530221 1_555
Y0_7 Y2_1 3.530222 1_555
Y0_7 Y2_7 3.530222 1_555
Y0_7 Y1_1 3.530222 1_555
Y0_7 Y1_7 3.530222 1_555
Y1_0 Y1_6 3.536430 1_445
Y1_0 Y1_6 3.536430 1_555
Y1_0 Y1_2 3.536431 1_555
Y1_0 Y1_4 3.536431 1_455
Y1_0 Y1_4 3.536431 1_555
Y1_0 Y1_2 3.536431 1_545
Y1_1 Y1_7 3.536430 1_445
Y1_1 Y1_7 3.536430 1_555
Y1_1 Y1_5 3.536431 1_555
Y1_1 Y1_5 3.536431 1_455
Y1_1 Y1_3 3.536431 1_555
Y1_1 Y1_3 3.536431 1_545
Y1_2 Y1_4 3.536430 1_455
Y1_2 Y1_4 3.536430 1_565
Y1_2 Y1_6 3.536431 1_455
Y1_2 Y1_6 3.536431 1_555
Y1_3 Y1_5 3.536430 1_455
Y1_3 Y1_5 3.536430 1_565
Y1_3 Y1_7 3.536431 1_455
Y1_3 Y1_7 3.536431 1_555
Y1_4 Y1_6 3.536431 1_545
Y1_4 Y1_6 3.536431 1_555
Y1_5 Y1_7 3.536431 1_545
Y1_5 Y1_7 3.536431 1_555
Y2_0 Y2_6 3.536430 1_445
Y2_0 Y2_6 3.536430 1_555
Y2_0 Y2_4 3.536431 1_555
Y2_0 Y2_4 3.536431 1_455
Y2_0 Y2_2 3.536431 1_555
Y2_0 Y2_2 3.536431 1_545
Y2_1 Y2_7 3.536430 1_445
Y2_1 Y2_7 3.536430 1_555
Y2_1 Y2_5 3.536431 1_555
Y2_1 Y2_3 3.536431 1_555
Y2_1 Y2_5 3.536431 1_455
Y2_1 Y2_3 3.536431 1_545
Y2_2 Y2_4 3.536430 1_455
Y2_2 Y2_4 3.536430 1_565
Y2_2 Y2_6 3.536431 1_455
Y2_2 Y2_6 3.536431 1_555
Y2_3 Y2_5 3.536430 1_565
Y2_3 Y2_5 3.536430 1_455
Y2_3 Y2_7 3.536431 1_455
Y2_3 Y2_7 3.536431 1_555
Y2_4 Y2_6 3.536431 1_545
Y2_4 Y2_6 3.536431 1_555
Y2_5 Y2_7 3.536431 1_545
Y2_5 Y2_7 3.536431 1_555
Mg0_0 Y1_2 3.510578 1_545
Mg0_0 Y2_3 3.510578 1_544
Mg0_0 Y1_6 3.510580 1_445
Mg0_0 Y1_0 3.510580 1_555
Mg0_0 Y2_7 3.510580 1_444
Mg0_0 Y2_1 3.510580 1_554
Mg0_0 Mg0_6 3.536430 1_445
Mg0_0 Mg0_6 3.536430 1_555
Mg0_0 Mg0_2 3.536431 1_555
Mg0_0 Mg0_2 3.536431 1_545
Mg0_0 Mg0_4 3.536431 1_555
Mg0_0 Mg0_4 3.536431 1_455
Mg0_1 Y1_3 3.510578 1_545
Mg0_1 Y2_2 3.510578 1_545
Mg0_1 Y1_7 3.510580 1_445
Mg0_1 Y1_1 3.510580 1_555
Mg0_1 Y2_6 3.510580 1_445
Mg0_1 Y2_0 3.510580 1_555
Mg0_1 Mg0_7 3.536430 1_445
Mg0_1 Mg0_7 3.536430 1_555
Mg0_1 Mg0_3 3.536431 1_555
Mg0_1 Mg0_3 3.536431 1_545
Mg0_1 Mg0_5 3.536431 1_455
Mg0_1 Mg0_5 3.536431 1_555
Mg0_2 Y1_0 3.510578 1_555
Mg0_2 Y2_1 3.510578 1_554
Mg0_2 Y1_2 3.510580 1_555
Mg0_2 Y1_4 3.510580 1_455
Mg0_2 Y2_3 3.510580 1_554
Mg0_2 Y2_5 3.510580 1_454
Mg0_2 Mg0_4 3.536430 1_565
Mg0_2 Mg0_4 3.536430 1_455
Mg0_2 Mg0_6 3.536431 1_455
Mg0_2 Mg0_6 3.536431 1_555
Mg0_3 Y1_1 3.510578 1_555
Mg0_3 Y2_0 3.510578 1_555
Mg0_3 Y1_3 3.510580 1_555
Mg0_3 Y1_5 3.510580 1_455
Mg0_3 Y2_2 3.510580 1_555
Mg0_3 Y2_4 3.510580 1_455
Mg0_3 Mg0_5 3.536430 1_455
Mg0_3 Mg0_5 3.536430 1_565
Mg0_3 Mg0_7 3.536431 1_555
Mg0_3 Mg0_7 3.536431 1_455
Mg0_4 Y1_6 3.510578 1_545
Mg0_4 Y2_7 3.510578 1_544
Mg0_4 Y1_4 3.510580 1_555
Mg0_4 Y1_2 3.510580 1_545
Mg0_4 Y2_5 3.510580 1_554
Mg0_4 Y2_3 3.510580 1_544
Mg0_4 Mg0_6 3.536431 1_555
Mg0_4 Mg0_6 3.536431 1_545
Mg0_5 Y1_7 3.510578 1_545
Mg0_5 Y2_6 3.510578 1_545
Mg0_5 Y1_5 3.510580 1_555
Mg0_5 Y1_3 3.510580 1_545
Mg0_5 Y2_4 3.510580 1_555
Mg0_5 Y2_2 3.510580 1_545
Mg0_5 Mg0_7 3.536431 1_555
Mg0_5 Mg0_7 3.536431 1_545
Mg0_6 Y1_4 3.510578 1_555
Mg0_6 Y2_5 3.510578 1_554
Mg0_6 Y1_0 3.510580 1_555
Mg0_6 Y1_6 3.510580 1_555
Mg0_6 Y2_1 3.510580 1_554
Mg0_6 Y2_7 3.510580 1_554
Mg0_7 Y1_5 3.510578 1_555
Mg0_7 Y2_4 3.510578 1_555
Mg0_7 Y1_1 3.510580 1_555
Mg0_7 Y1_7 3.510580 1_555
Mg0_7 Y2_0 3.510580 1_555
Mg0_7 Y2_6 3.510580 1_555
