# generated using pymatgen
data_BaZn2H16O11
_symmetry_space_group_name_H-M   'P 1'
_cell_length_a   6.27099679
_cell_length_b   11.25998453
_cell_length_c   16.29710400
_cell_angle_alpha   90.00000000
_cell_angle_beta   90.00000000
_cell_angle_gamma   99.38700259
_symmetry_Int_Tables_number   1
_chemical_formula_structural   BaZn2H16O11
_chemical_formula_sum   'Ba4 Zn8 H64 O44'
_cell_volume   1135.35052181
_cell_formula_units_Z   4
loop_
 _symmetry_equiv_pos_site_id
 _symmetry_equiv_pos_as_xyz
  1  'x, y, z'
loop_
 _atom_site_type_symbol
 _atom_site_label
 _atom_site_symmetry_multiplicity
 _atom_site_fract_x
 _atom_site_fract_y
 _atom_site_fract_z
 _atom_site_occupancy
  Ba  Ba0  1  0.71015900  0.34605000  0.02190800  1
  Ba  Ba1  1  0.78984100  0.65395000  0.52190800  1
  Ba  Ba2  1  0.28984100  0.65395000  0.97809200  1
  Ba  Ba3  1  0.21015900  0.34605000  0.47809200  1
  Zn  Zn0  1  0.54016600  0.72789400  0.20769500  1
  Zn  Zn1  1  0.95983400  0.27210600  0.70769500  1
  Zn  Zn2  1  0.45983400  0.27210600  0.79230500  1
  Zn  Zn3  1  0.04016600  0.72789400  0.29230500  1
  Zn  Zn4  1  0.50318300  0.24891200  0.29167800  1
  Zn  Zn5  1  0.99681700  0.75108800  0.79167800  1
  Zn  Zn6  1  0.49681700  0.75108800  0.70832200  1
  Zn  Zn7  1  0.00318300  0.24891200  0.20832200  1
  H  H0  1  0.66670700  0.10552200  0.75829600  1
  H  H1  1  0.83329300  0.89447800  0.25829600  1
  H  H2  1  0.33329300  0.89447800  0.24170400  1
  H  H3  1  0.16670700  0.10552200  0.74170400  1
  H  H4  1  0.60613500  0.53457900  0.25041400  1
  H  H5  1  0.89386500  0.46542100  0.75041400  1
  H  H6  1  0.39386500  0.46542100  0.74958600  1
  H  H7  1  0.10613500  0.53457900  0.24958600  1
  H  H8  1  0.68746300  0.80837500  0.08159200  1
  H  H9  1  0.81253700  0.19162500  0.58159200  1
  H  H10  1  0.31253700  0.19162500  0.91840800  1
  H  H11  1  0.18746300  0.80837500  0.41840800  1
  H  H12  1  0.79668000  0.40700600  0.23183400  1
  H  H13  1  0.70332000  0.59299400  0.73183400  1
  H  H14  1  0.20332000  0.59299400  0.76816600  1
  H  H15  1  0.29668000  0.40700600  0.26816600  1
  H  H16  1  0.59497900  0.05636800  0.25561900  1
  H  H17  1  0.90502100  0.94363200  0.75561900  1
  H  H18  1  0.40502100  0.94363200  0.74438100  1
  H  H19  1  0.09497900  0.05636800  0.24438100  1
  H  H20  1  0.66073500  0.22474400  0.42622400  1
  H  H21  1  0.83926500  0.77525600  0.92622400  1
  H  H22  1  0.33926500  0.77525600  0.57377600  1
  H  H23  1  0.16073500  0.22474400  0.07377600  1
  H  H24  1  0.75190200  0.39989800  0.40838100  1
  H  H25  1  0.74809800  0.60010200  0.90838100  1
  H  H26  1  0.24809800  0.60010200  0.59161900  1
  H  H27  1  0.25190200  0.39989800  0.09161900  1
  H  H28  1  0.90892500  0.50023800  0.35652500  1
  H  H29  1  0.59107500  0.49976200  0.85652500  1
  H  H30  1  0.09107500  0.49976200  0.64347500  1
  H  H31  1  0.40892500  0.50023800  0.14347500  1
  H  H32  1  0.93855900  0.57165200  0.14323700  1
  H  H33  1  0.56144100  0.42834800  0.64323700  1
  H  H34  1  0.06144100  0.42834800  0.85676300  1
  H  H35  1  0.43855900  0.57165200  0.35676300  1
  H  H36  1  0.80318500  0.63664700  0.08117500  1
  H  H37  1  0.69681500  0.36335300  0.58117500  1
  H  H38  1  0.19681500  0.36335300  0.91882500  1
  H  H39  1  0.30318500  0.63664700  0.41882500  1
  H  H40  1  0.92921400  0.09098600  0.93280100  1
  H  H41  1  0.57078600  0.90901400  0.43280100  1
  H  H42  1  0.07078600  0.90901400  0.06719900  1
  H  H43  1  0.42921400  0.09098600  0.56719900  1
  H  H44  1  0.75523300  0.14464000  0.88196200  1
  H  H45  1  0.74476700  0.85536000  0.38196200  1
  H  H46  1  0.24476700  0.85536000  0.11803800  1
  H  H47  1  0.25523300  0.14464000  0.61803800  1
  H  H48  1  0.94197500  0.11492300  0.34845300  1
  H  H49  1  0.55802500  0.88507700  0.84845300  1
  H  H50  1  0.05802500  0.88507700  0.65154700  1
  H  H51  1  0.44197500  0.11492300  0.15154700  1
  H  H52  1  0.88538000  0.05365300  0.43239200  1
  H  H53  1  0.61462000  0.94634700  0.93239200  1
  H  H54  1  0.11462000  0.94634700  0.56760800  1
  H  H55  1  0.38538000  0.05365300  0.06760800  1
  H  H56  1  0.87554600  0.01452600  0.14571900  1
  H  H57  1  0.62445400  0.98547400  0.64571900  1
  H  H58  1  0.12445400  0.98547400  0.85428100  1
  H  H59  1  0.37554600  0.01452600  0.35428100  1
  H  H60  1  0.79158400  0.03414800  0.05574500  1
  H  H61  1  0.70841600  0.96585200  0.55574500  1
  H  H62  1  0.20841600  0.96585200  0.94425500  1
  H  H63  1  0.29158400  0.03414800  0.44425500  1
  O  O0  1  0.71697800  0.18746700  0.77872400  1
  O  O1  1  0.78302200  0.81253300  0.27872400  1
  O  O2  1  0.28302300  0.81253300  0.22127600  1
  O  O3  1  0.21697700  0.18746700  0.72127600  1
  O  O4  1  0.96385700  0.55929900  0.25205200  1
  O  O5  1  0.53614300  0.44070100  0.75205200  1
  O  O6  1  0.03614300  0.44070100  0.74794800  1
  O  O7  1  0.46385700  0.55929900  0.24794800  1
  O  O8  1  0.61340900  0.72572600  0.09068600  1
  O  O9  1  0.88659100  0.27427400  0.59068600  1
  O  O10  1  0.38659100  0.27427400  0.90931400  1
  O  O11  1  0.11340900  0.72572600  0.40931400  1
  O  O12  1  0.73603900  0.32382100  0.21545400  1
  O  O13  1  0.76396100  0.67617900  0.71545400  1
  O  O14  1  0.26396100  0.67617900  0.78454600  1
  O  O15  1  0.23603900  0.32382100  0.28454600  1
  O  O16  1  0.94811700  0.07515700  0.24063800  1
  O  O17  1  0.55188300  0.92484300  0.74063800  1
  O  O18  1  0.05188300  0.92484300  0.75936200  1
  O  O19  1  0.44811700  0.07515700  0.25936200  1
  O  O20  1  0.56990100  0.28201900  0.40772600  1
  O  O21  1  0.93009900  0.71798100  0.90772600  1
  O  O22  1  0.43009800  0.71798100  0.59227400  1
  O  O23  1  0.06990200  0.28201900  0.09227400  1
  O  O24  1  0.87747100  0.46951300  0.41315400  1
  O  O25  1  0.62252900  0.53048700  0.91315400  1
  O  O26  1  0.12252900  0.53048700  0.58684600  1
  O  O27  1  0.37747100  0.46951300  0.08684600  1
  O  O28  1  0.91177800  0.57897400  0.08319100  1
  O  O29  1  0.58822200  0.42102600  0.58319100  1
  O  O30  1  0.08822200  0.42102600  0.91680900  1
  O  O31  1  0.41177800  0.57897400  0.41680900  1
  O  O32  1  0.78604100  0.11736900  0.93866600  1
  O  O33  1  0.71395900  0.88263100  0.43866600  1
  O  O34  1  0.21395900  0.88263100  0.06133400  1
  O  O35  1  0.28604100  0.11736900  0.56133400  1
  O  O36  1  0.94164200  0.13281800  0.40847800  1
  O  O37  1  0.55835800  0.86718200  0.90847800  1
  O  O38  1  0.05835800  0.86718200  0.59152200  1
  O  O39  1  0.44164200  0.13281800  0.09152200  1
  O  O40  1  0.16088300  0.02638500  0.90864200  1
  O  O41  1  0.33911700  0.97361500  0.40864200  1
  O  O42  1  0.83911700  0.97361500  0.09135800  1
  O  O43  1  0.66088300  0.02638500  0.59135800  1
loop_
_geom_bond_atom_site_label_1
_geom_bond_atom_site_label_2
_geom_bond_distance
_geom_bond_site_symmetry_2
Ba0 O23 2.730341 1_655
Ba0 O10 2.757267 1_554
Ba0 O25 2.851051 1_554
Ba0 O27 2.889866 1_555
Ba0 O28 2.897070 1_555
Ba0 O39 2.927190 1_555
Ba0 O30 2.935026 1_654
Ba0 O32 3.016098 1_554
Ba0 O12 3.170405 1_555
Ba1 O22 2.730341 1_555
Ba1 O11 2.757267 1_655
Ba1 O24 2.851051 1_555
Ba1 O26 2.889866 1_655
Ba1 O29 2.897070 1_555
Ba1 O38 2.927190 1_655
Ba1 O31 2.935026 1_555
Ba1 O33 3.016098 1_555
Ba1 O13 3.170405 1_555
Ba2 O21 2.730335 1_455
Ba2 O8 2.757267 1_556
Ba2 O27 2.851051 1_556
Ba2 O25 2.889866 1_555
Ba2 O30 2.897070 1_555
Ba2 O37 2.927190 1_555
Ba2 O28 2.935026 1_456
Ba2 O34 3.016098 1_556
Ba2 O14 3.170405 1_555
Ba3 O20 2.730335 1_555
Ba3 O9 2.757267 1_455
Ba3 O26 2.851051 1_555
Ba3 O24 2.889866 1_455
Ba3 O31 2.897070 1_555
Ba3 O36 2.927190 1_455
Ba3 O29 2.935026 1_555
Ba3 O35 3.016098 1_555
Ba3 O15 3.170405 1_555
H0 O0 0.983211 1_555
H1 O1 0.983211 1_555
H2 O2 0.983210 1_555
H3 O3 0.983210 1_555
H4 O7 0.977839 1_555
H5 O6 0.977839 1_655
H6 O5 0.977839 1_555
H7 O4 0.977839 1_455
H8 O8 0.981180 1_555
H9 O9 0.981180 1_555
H10 O10 0.981180 1_555
H11 O11 0.981180 1_555
H12 O12 0.988441 1_555
H13 O13 0.988441 1_555
H14 O14 0.988441 1_555
H15 O15 0.988441 1_555
H16 O19 0.979912 1_555
H17 O18 0.979912 1_655
H18 O17 0.979912 1_555
H19 O16 0.979912 1_455
H20 O20 0.975242 1_555
H21 O21 0.975242 1_555
H22 O22 0.975237 1_555
H23 O23 0.975237 1_555
H24 O24 1.019417 1_555
H24 O20 1.603229 1_555
H25 O25 1.019417 1_555
H25 O21 1.603229 1_555
H26 O26 1.019417 1_555
H26 O22 1.603225 1_555
H27 O27 1.019417 1_555
H27 O23 1.603225 1_555
H28 O24 0.994012 1_555
H29 O25 0.994012 1_555
H30 O26 0.994012 1_555
H31 O27 0.994012 1_555
H32 O28 0.998564 1_555
H33 O29 0.998564 1_555
H34 O30 0.998564 1_555
H35 O31 0.998564 1_555
H36 O28 1.015281 1_555
H37 O29 1.015281 1_555
H38 O30 1.015281 1_555
H39 O31 1.015281 1_555
H40 O32 0.995242 1_555
H41 O33 0.995242 1_555
H42 O34 0.995242 1_555
H43 O35 0.995242 1_555
H44 O32 1.002472 1_555
H45 O33 1.002472 1_555
H46 O34 1.002472 1_555
H47 O35 1.002472 1_555
H48 O36 0.998841 1_555
H49 O37 0.998841 1_555
H50 O38 0.998841 1_555
H51 O39 0.998841 1_555
H52 O36 0.984056 1_555
H53 O37 0.984056 1_555
H54 O38 0.984056 1_555
H55 O39 0.984056 1_555
H56 O42 1.007438 1_545
H57 O43 1.007438 1_565
H58 O40 1.007438 1_565
H59 O41 1.007438 1_545
H60 O42 0.978037 1_545
H61 O43 0.978037 1_565
H62 O40 0.978037 1_565
H63 O41 0.978037 1_545
O0 Zn2 2.014669 1_555
O0 Zn1 2.023400 1_555
O1 Zn3 2.014669 1_655
O1 Zn0 2.023400 1_555
O2 Zn0 2.014663 1_555
O2 Zn3 2.023405 1_555
O3 Zn1 2.014663 1_455
O3 Zn2 2.023405 1_555
O4 Zn3 1.991693 1_655
O5 Zn2 1.991693 1_555
O6 Zn1 1.991693 1_455
O7 Zn0 1.991693 1_555
O8 Zn0 1.962527 1_555
O9 Zn1 1.962527 1_555
O10 Zn2 1.962527 1_555
O11 Zn3 1.962527 1_555
O12 Zn4 1.996273 1_555
O12 Zn7 1.998097 1_655
O13 Zn5 1.996273 1_555
O13 Zn6 1.998097 1_555
O14 Zn6 1.996273 1_555
O14 Zn5 1.998097 1_455
O15 Zn7 1.996273 1_555
O15 Zn4 1.998097 1_555
O16 Zn7 2.001008 1_655
O17 Zn6 2.001008 1_555
O18 Zn5 2.001008 1_455
O19 Zn4 2.001008 1_555
O20 Zn4 1.959580 1_555
O21 Zn5 1.959580 1_555
O22 Zn6 1.959581 1_555
O23 Zn7 1.959581 1_555
