# generated using pymatgen
data_Nb2Zn2TeO8
_symmetry_space_group_name_H-M   'P 1'
_cell_length_a   5.26814400
_cell_length_b   6.14408998
_cell_length_c   11.45584599
_cell_angle_alpha   101.07863872
_cell_angle_beta   97.10860109
_cell_angle_gamma   89.80944548
_symmetry_Int_Tables_number   1
_chemical_formula_structural   Nb2Zn2TeO8
_chemical_formula_sum   'Nb4 Zn4 Te2 O16'
_cell_volume   361.01536642
_cell_formula_units_Z   2
loop_
 _symmetry_equiv_pos_site_id
 _symmetry_equiv_pos_as_xyz
  1  'x, y, z'
loop_
 _atom_site_type_symbol
 _atom_site_label
 _atom_site_symmetry_multiplicity
 _atom_site_fract_x
 _atom_site_fract_y
 _atom_site_fract_z
 _atom_site_occupancy
  Nb  Nb0  1  0.27889900  0.99040700  0.71888600  1
  Nb  Nb1  1  0.19736500  0.31367100  0.25491000  1
  Nb  Nb2  1  0.72110100  0.00959300  0.28111400  1
  Nb  Nb3  1  0.80263500  0.68632900  0.74509000  1
  Zn  Zn0  1  0.25274500  0.87018200  0.44560900  1
  Zn  Zn1  1  0.26571500  0.42761400  0.54813300  1
  Zn  Zn2  1  0.74725500  0.12981800  0.55439100  1
  Zn  Zn3  1  0.73428500  0.57238600  0.45186700  1
  Te  Te0  1  0.33397100  0.66487600  0.02062100  1
  Te  Te1  1  0.66602900  0.33512400  0.97937900  1
  O  O0  1  0.98891500  0.97723900  0.80694600  1
  O  O1  1  0.49889800  0.21491400  0.18328100  1
  O  O2  1  0.01108500  0.02276100  0.19305400  1
  O  O3  1  0.50110200  0.78508600  0.81671900  1
  O  O4  1  0.45687200  0.24730800  0.82221500  1
  O  O5  1  0.03304800  0.47076300  0.14687500  1
  O  O6  1  0.54312800  0.75269200  0.17778500  1
  O  O7  1  0.96695200  0.52923700  0.85312500  1
  O  O8  1  0.55287500  0.89996200  0.60556500  1
  O  O9  1  0.91514200  0.30414100  0.37561500  1
  O  O10  1  0.64859900  0.44811800  0.60361600  1
  O  O11  1  0.87326700  0.83783800  0.40008600  1
  O  O12  1  0.35140100  0.55188200  0.39638400  1
  O  O13  1  0.12673300  0.16216200  0.59991400  1
  O  O14  1  0.08485800  0.69585900  0.62438500  1
  O  O15  1  0.44712500  0.10003800  0.39443500  1
loop_
_geom_bond_atom_site_label_1
_geom_bond_atom_site_label_2
_geom_bond_distance
_geom_bond_site_symmetry_2
Nb0 O0 1.942072 1_455
Nb0 O4 1.946481 1_565
Nb0 O13 1.972434 1_565
Nb0 O8 2.063616 1_555
Nb0 O3 2.103957 1_555
Nb0 O14 2.116022 1_555
Nb1 O5 1.844187 1_555
Nb1 O1 1.920874 1_555
Nb1 O2 2.003172 1_555
Nb1 O12 2.048919 1_555
Nb1 O9 2.160228 1_455
Nb1 O15 2.506633 1_555
Nb2 O2 1.942072 1_655
Nb2 O6 1.946481 1_545
Nb2 O11 1.972434 1_545
Nb2 O15 2.063616 1_555
Nb2 O1 2.103957 1_555
Nb2 O9 2.116022 1_555
Nb3 O7 1.844187 1_555
Nb3 O3 1.920874 1_555
Nb3 O0 2.003172 1_555
Nb3 O10 2.048919 1_555
Nb3 O14 2.160228 1_655
Nb3 O8 2.506633 1_555
O4 Te1 1.971409 1_555
O6 Te0 1.971409 1_555
O8 Zn2 1.965489 1_565
O8 Zn0 2.246605 1_555
O9 Zn3 2.007339 1_555
O10 Zn2 2.013627 1_555
O10 Zn1 2.035218 1_555
O10 Zn3 2.124950 1_555
O11 Zn0 2.003202 1_655
O11 Zn3 2.008793 1_555
O11 Zn2 2.418161 1_565
O12 Zn0 2.013627 1_555
O12 Zn3 2.035218 1_555
O12 Zn1 2.124950 1_555
O13 Zn2 2.003202 1_455
O13 Zn1 2.008793 1_555
O13 Zn0 2.418161 1_545
O14 Zn1 2.007339 1_555
O15 Zn0 1.965489 1_545
O15 Zn2 2.246605 1_555
