# generated using pymatgen
data_ZnS
_symmetry_space_group_name_H-M   'P 1'
_cell_length_a   3.87402023
_cell_length_b   3.87402023
_cell_length_c   56.38957162
_cell_angle_alpha   88.03147444
_cell_angle_beta   88.03147444
_cell_angle_gamma   59.99999608
_symmetry_Int_Tables_number   1
_chemical_formula_structural   ZnS
_chemical_formula_sum   'Zn18 S18'
_cell_volume   732.33750638
_cell_formula_units_Z   18
loop_
 _symmetry_equiv_pos_site_id
 _symmetry_equiv_pos_as_xyz
  1  'x, y, z'
loop_
 _atom_site_type_symbol
 _atom_site_label
 _atom_site_symmetry_multiplicity
 _atom_site_fract_x
 _atom_site_fract_y
 _atom_site_fract_z
 _atom_site_occupancy
  Zn  Zn0  1  0.99999600  0.99999600  0.00001200  1
  Zn  Zn1  1  0.94443900  0.94443900  0.16668300  1
  Zn  Zn2  1  0.88888500  0.88888500  0.33334400  1
  Zn  Zn3  1  0.83332800  0.83332800  0.50001600  1
  Zn  Zn4  1  0.75925900  0.75925900  0.72222400  1
  Zn  Zn5  1  0.72221300  0.72221300  0.83336200  1
  Zn  Zn6  1  0.64815200  0.64815200  0.05554400  1
  Zn  Zn7  1  0.59258300  0.59258300  0.22225100  1
  Zn  Zn8  1  0.51851900  0.51851900  0.44444400  1
  Zn  Zn9  1  0.46295700  0.46295700  0.61112800  1
  Zn  Zn10  1  0.40740800  0.40740800  0.77777700  1
  Zn  Zn11  1  0.35185200  0.35185200  0.94444400  1
  Zn  Zn12  1  0.29629900  0.29629900  0.11110200  1
  Zn  Zn13  1  0.24073600  0.24073600  0.27779100  1
  Zn  Zn14  1  0.20369500  0.20369500  0.38891600  1
  Zn  Zn15  1  0.14814500  0.14814500  0.55556500  1
  Zn  Zn16  1  0.11110000  0.11110000  0.66670000  1
  Zn  Zn17  1  0.03703900  0.03703900  0.88888400  1
  S  S0  1  0.98611700  0.98611700  0.04164900  1
  S  S1  1  0.93056500  0.93056500  0.20830500  1
  S  S2  1  0.87499300  0.87499300  0.37502000  1
  S  S3  1  0.81945800  0.81945800  0.54162700  1
  S  S4  1  0.74539900  0.74539900  0.76380400  1
  S  S5  1  0.70834500  0.70834500  0.87496500  1
  S  S6  1  0.63426900  0.63426900  0.09719200  1
  S  S7  1  0.57871600  0.57871600  0.26385100  1
  S  S8  1  0.50464100  0.50464100  0.48607600  1
  S  S9  1  0.44907200  0.44907200  0.65278400  1
  S  S10  1  0.39351800  0.39351800  0.81944600  1
  S  S11  1  0.33795900  0.33795900  0.98612400  1
  S  S12  1  0.28241900  0.28241900  0.15274300  1
  S  S13  1  0.22687800  0.22687800  0.31936500  1
  S  S14  1  0.18981800  0.18981800  0.43054500  1
  S  S15  1  0.13428900  0.13428900  0.59713200  1
  S  S16  1  0.09723200  0.09723200  0.70830300  1
  S  S17  1  0.02317600  0.02317600  0.93047300  1
loop_
_geom_bond_atom_site_label_1
_geom_bond_atom_site_label_2
_geom_bond_distance
_geom_bond_site_symmetry_2
S0 Zn0 2.346045 1_555
S0 Zn6 2.369733 1_655
S0 Zn6 2.369733 1_565
S0 Zn6 2.369733 1_555
S1 Zn1 2.345200 1_555
S1 Zn7 2.370684 1_655
S1 Zn7 2.370684 1_565
S1 Zn7 2.370684 1_555
S2 Zn2 2.348242 1_555
S2 Zn14 2.369750 1_655
S2 Zn14 2.369750 1_565
S2 Zn14 2.369756 1_665
S3 Zn3 2.344580 1_555
S3 Zn15 2.370533 1_665
S3 Zn15 2.370536 1_565
S3 Zn15 2.370536 1_655
S4 Zn4 2.342833 1_555
S4 Zn10 2.371189 1_655
S4 Zn10 2.371189 1_565
S4 Zn10 2.371189 1_555
S5 Zn5 2.344129 1_555
S5 Zn17 2.370179 1_565
S5 Zn17 2.370179 1_655
S5 Zn17 2.370183 1_665
S6 Zn6 2.346665 1_555
S6 Zn12 2.370013 1_655
S6 Zn12 2.370013 1_565
S6 Zn12 2.370013 1_555
S7 Zn7 2.343960 1_555
S7 Zn13 2.370572 1_565
S7 Zn13 2.370572 1_655
S7 Zn13 2.370572 1_555
S8 Zn8 2.345763 1_555
S8 Zn3 2.370571 1_455
S8 Zn3 2.370571 1_545
S8 Zn3 2.370574 1_555
S9 Zn9 2.347115 1_555
S9 Zn16 2.370124 1_655
S9 Zn16 2.370124 1_565
S9 Zn16 2.370125 1_555
S10 Zn10 2.347848 1_555
S10 Zn5 2.370123 1_545
S10 Zn5 2.370123 1_455
S10 Zn5 2.370127 1_555
S11 Zn11 2.348468 1_555
S11 Zn0 2.369602 1_546
S11 Zn0 2.369602 1_456
S11 Zn0 2.369605 1_446
S12 Zn12 2.346270 1_555
S12 Zn1 2.370572 1_455
S12 Zn1 2.370572 1_545
S12 Zn1 2.370572 1_445
S13 Zn13 2.342495 1_555
S13 Zn2 2.371301 1_545
S13 Zn2 2.371301 1_455
S13 Zn2 2.371301 1_445
S14 Zn14 2.345594 1_555
S14 Zn8 2.369806 1_545
S14 Zn8 2.369806 1_455
S14 Zn8 2.369812 1_555
S15 Zn15 2.342101 1_555
S15 Zn9 2.371619 1_545
S15 Zn9 2.371619 1_455
S15 Zn9 2.371620 1_555
S16 Zn16 2.344129 1_555
S16 Zn4 2.370214 1_445
S16 Zn4 2.370220 1_455
S16 Zn4 2.370220 1_545
S17 Zn17 2.343340 1_555
S17 Zn11 2.371149 1_555
S17 Zn11 2.371152 1_545
S17 Zn11 2.371152 1_455
