# generated using pymatgen
data_RbYMg14O16
_symmetry_space_group_name_H-M   'P 1'
_cell_length_a   8.77909400
_cell_length_b   8.77909400
_cell_length_c   4.50527100
_cell_angle_alpha   90.00000000
_cell_angle_beta   90.00000000
_cell_angle_gamma   90.00000000
_symmetry_Int_Tables_number   1
_chemical_formula_structural   RbYMg14O16
_chemical_formula_sum   'Rb1 Y1 Mg14 O16'
_cell_volume   347.23246068
_cell_formula_units_Z   1
loop_
 _symmetry_equiv_pos_site_id
 _symmetry_equiv_pos_as_xyz
  1  'x, y, z'
loop_
 _atom_site_type_symbol
 _atom_site_label
 _atom_site_symmetry_multiplicity
 _atom_site_fract_x
 _atom_site_fract_y
 _atom_site_fract_z
 _atom_site_occupancy
  Rb  Rb0  1  0.50000000  0.50000000  0.00000000  1
  Y  Y0  1  0.00000000  0.00000000  0.00000000  1
  Mg  Mg0  1  0.50000000  0.00000000  0.00000000  1
  Mg  Mg1  1  0.00000000  0.50000000  0.00000000  1
  Mg  Mg2  1  0.26351200  0.00000000  0.50000000  1
  Mg  Mg3  1  0.73648800  0.00000000  0.50000000  1
  Mg  Mg4  1  0.24845500  0.50000000  0.50000000  1
  Mg  Mg5  1  0.75154500  0.50000000  0.50000000  1
  Mg  Mg6  1  0.00000000  0.26351200  0.50000000  1
  Mg  Mg7  1  0.50000000  0.24845500  0.50000000  1
  Mg  Mg8  1  0.00000000  0.73648800  0.50000000  1
  Mg  Mg9  1  0.50000000  0.75154500  0.50000000  1
  Mg  Mg10  1  0.25590000  0.25590000  0.00000000  1
  Mg  Mg11  1  0.74410000  0.25590000  0.00000000  1
  Mg  Mg12  1  0.25590000  0.74410000  0.00000000  1
  Mg  Mg13  1  0.74410000  0.74410000  0.00000000  1
  O  O0  1  0.00000000  0.25404800  0.00000000  1
  O  O1  1  0.50000000  0.22013200  0.00000000  1
  O  O2  1  0.00000000  0.74595200  0.00000000  1
  O  O3  1  0.50000000  0.77986800  0.00000000  1
  O  O4  1  0.24778900  0.24778900  0.50000000  1
  O  O5  1  0.75221100  0.24778900  0.50000000  1
  O  O6  1  0.24778900  0.75221100  0.50000000  1
  O  O7  1  0.75221100  0.75221100  0.50000000  1
  O  O8  1  0.00000000  0.00000000  0.50000000  1
  O  O9  1  0.50000000  0.00000000  0.50000000  1
  O  O10  1  0.00000000  0.50000000  0.50000000  1
  O  O11  1  0.50000000  0.50000000  0.50000000  1
  O  O12  1  0.25404800  0.00000000  0.00000000  1
  O  O13  1  0.74595200  0.00000000  0.00000000  1
  O  O14  1  0.22013200  0.50000000  0.00000000  1
  O  O15  1  0.77986800  0.50000000  0.00000000  1
loop_
_geom_bond_atom_site_label_1
_geom_bond_atom_site_label_2
_geom_bond_distance
_geom_bond_site_symmetry_2
Mg0 O1 1.932560 1_555
Mg0 O3 1.932560 1_545
Mg0 O13 2.159236 1_555
Mg0 O12 2.159236 1_555
Mg0 O9 2.252636 1_554
Mg0 O9 2.252636 1_555
Mg1 O15 1.932560 1_455
Mg1 O14 1.932560 1_555
Mg1 O2 2.159236 1_555
Mg1 O0 2.159236 1_555
Mg1 O10 2.252636 1_555
Mg1 O10 2.252636 1_554
Mg2 O9 2.076150 1_555
Mg2 O4 2.179738 1_555
Mg2 O6 2.179738 1_545
Mg2 O12 2.254167 1_556
Mg2 O12 2.254167 1_555
Mg2 O8 2.313397 1_555
Mg3 O9 2.076150 1_555
Mg3 O5 2.179738 1_555
Mg3 O7 2.179738 1_545
Mg3 O13 2.254167 1_555
Mg3 O13 2.254167 1_556
Mg3 O8 2.313397 1_655
Mg4 O10 2.181210 1_555
Mg4 O11 2.208337 1_555
Mg4 O6 2.214192 1_555
Mg4 O4 2.214192 1_555
Mg4 O14 2.266317 1_556
Mg4 O14 2.266317 1_555
Mg5 O10 2.181210 1_655
Mg5 O11 2.208337 1_555
Mg5 O7 2.214192 1_555
Mg5 O5 2.214192 1_555
Mg5 O15 2.266317 1_556
Mg5 O15 2.266317 1_555
Mg6 O10 2.076150 1_555
Mg6 O4 2.179738 1_555
Mg6 O5 2.179738 1_455
Mg6 O0 2.254167 1_555
Mg6 O0 2.254167 1_556
Mg6 O8 2.313397 1_555
Mg7 O9 2.181210 1_555
Mg7 O11 2.208337 1_555
Mg7 O5 2.214192 1_555
Mg7 O4 2.214192 1_555
Mg7 O1 2.266317 1_555
Mg7 O1 2.266317 1_556
Mg8 O10 2.076150 1_555
Mg8 O6 2.179738 1_555
Mg8 O7 2.179738 1_455
Mg8 O2 2.254167 1_555
Mg8 O2 2.254167 1_556
Mg8 O8 2.313397 1_565
Mg9 O9 2.181210 1_565
Mg9 O11 2.208337 1_555
Mg9 O7 2.214192 1_555
Mg9 O6 2.214192 1_555
Mg9 O3 2.266317 1_556
Mg9 O3 2.266317 1_555
Mg10 O1 2.165861 1_555
Mg10 O14 2.165861 1_555
Mg10 O0 2.246629 1_555
Mg10 O12 2.246629 1_555
Mg10 O4 2.254885 1_554
Mg10 O4 2.254885 1_555
Mg11 O1 2.165861 1_555
Mg11 O15 2.165861 1_555
Mg11 O13 2.246629 1_555
Mg11 O0 2.246629 1_655
Mg11 O5 2.254885 1_554
Mg11 O5 2.254885 1_555
Mg12 O3 2.165861 1_555
Mg12 O14 2.165861 1_555
Mg12 O12 2.246629 1_565
Mg12 O2 2.246629 1_555
Mg12 O6 2.254885 1_555
Mg12 O6 2.254885 1_554
Mg13 O3 2.165861 1_555
Mg13 O15 2.165861 1_555
Mg13 O13 2.246629 1_565
Mg13 O2 2.246629 1_655
Mg13 O7 2.254885 1_555
Mg13 O7 2.254885 1_554
O0 Y0 2.230311 1_555
O1 Rb0 2.456987 1_555
O2 Y0 2.230311 1_565
O3 Rb0 2.456987 1_555
O8 Y0 2.252636 1_556
O8 Y0 2.252636 1_555
O11 Rb0 2.252636 1_556
O11 Rb0 2.252636 1_555
O12 Y0 2.230311 1_555
O13 Y0 2.230311 1_655
O14 Rb0 2.456987 1_555
O15 Rb0 2.456987 1_555
