# generated using pymatgen
data_W2O7
_symmetry_space_group_name_H-M   'P 1'
_cell_length_a   7.35523847
_cell_length_b   7.35523847
_cell_length_c   7.35523847
_cell_angle_alpha   60.00000000
_cell_angle_beta   60.00000000
_cell_angle_gamma   60.00000000
_symmetry_Int_Tables_number   1
_chemical_formula_structural   W2O7
_chemical_formula_sum   'W4 O14'
_cell_volume   281.36837087
_cell_formula_units_Z   2
loop_
 _symmetry_equiv_pos_site_id
 _symmetry_equiv_pos_as_xyz
  1  'x, y, z'
loop_
 _atom_site_type_symbol
 _atom_site_label
 _atom_site_symmetry_multiplicity
 _atom_site_fract_x
 _atom_site_fract_y
 _atom_site_fract_z
 _atom_site_occupancy
  W  W0  1  0.12500000  0.62500000  0.62500000  1
  W  W1  1  0.62500000  0.12500000  0.62500000  1
  W  W2  1  0.62500000  0.62500000  0.12500000  1
  W  W3  1  0.62500000  0.62500000  0.62500000  1
  O  O0  1  0.68388000  0.68388000  0.31612000  1
  O  O1  1  0.31612000  0.31612000  0.68388000  1
  O  O2  1  0.68388000  0.31612000  0.68388000  1
  O  O3  1  0.31612000  0.68388000  0.31612000  1
  O  O4  1  0.31612000  0.68388000  0.68388000  1
  O  O5  1  0.68388000  0.31612000  0.31612000  1
  O  O6  1  0.56612000  0.56612000  0.93388000  1
  O  O7  1  0.93388000  0.93388000  0.56612000  1
  O  O8  1  0.56612000  0.93388000  0.56612000  1
  O  O9  1  0.93388000  0.56612000  0.93388000  1
  O  O10  1  0.93388000  0.56612000  0.56612000  1
  O  O11  1  0.56612000  0.93388000  0.93388000  1
  O  O12  1  0.25000000  0.25000000  0.25000000  1
  O  O13  1  0.00000000  0.00000000  0.00000000  1
loop_
_geom_bond_atom_site_label_1
_geom_bond_atom_site_label_2
_geom_bond_distance
_geom_bond_site_symmetry_2
O0 W3 1.938126 1_555
O0 W2 1.938126 1_555
O1 W0 1.938126 1_555
O1 W1 1.938126 1_555
O2 W3 1.938126 1_555
O2 W1 1.938126 1_555
O3 W0 1.938126 1_555
O3 W2 1.938126 1_555
O4 W3 1.938126 1_555
O4 W0 1.938126 1_555
O5 W2 1.938126 1_555
O5 W1 1.938126 1_555
O6 W2 1.938126 1_556
O6 W3 1.938126 1_555
O7 W0 1.938126 1_655
O7 W1 1.938126 1_565
O8 W1 1.938126 1_565
O8 W3 1.938126 1_555
O9 W0 1.938126 1_655
O9 W2 1.938126 1_556
O10 W0 1.938126 1_655
O10 W3 1.938126 1_555
O11 W2 1.938126 1_556
O11 W1 1.938126 1_565
