# generated using pymatgen
data_Cs3W2N5
_symmetry_space_group_name_H-M   'P 1'
_cell_length_a   11.02398435
_cell_length_b   11.02398435
_cell_length_c   11.02398435
_cell_angle_alpha   102.08374816
_cell_angle_beta   102.08374816
_cell_angle_gamma   125.54326792
_symmetry_Int_Tables_number   1
_chemical_formula_structural   Cs3W2N5
_chemical_formula_sum   'Cs12 W8 N20'
_cell_volume   969.30896026
_cell_formula_units_Z   4
loop_
 _symmetry_equiv_pos_site_id
 _symmetry_equiv_pos_as_xyz
  1  'x, y, z'
loop_
 _atom_site_type_symbol
 _atom_site_label
 _atom_site_symmetry_multiplicity
 _atom_site_fract_x
 _atom_site_fract_y
 _atom_site_fract_z
 _atom_site_occupancy
  Cs  Cs0  1  0.83577000  0.55074000  0.86906400  1
  Cs  Cs1  1  0.68167600  0.96670600  0.13093600  1
  Cs  Cs2  1  0.80074000  0.43167600  0.21497000  1
  Cs  Cs3  1  0.21670600  0.58577000  0.78503000  1
  Cs  Cs4  1  0.51868500  0.69606200  0.34402700  1
  Cs  Cs5  1  0.35203400  0.17465800  0.65597300  1
  Cs  Cs6  1  0.94606200  0.10203400  0.67737700  1
  Cs  Cs7  1  0.42465800  0.26868500  0.32262300  1
  Cs  Cs8  1  0.97999100  0.97999100  0.00000000  1
  Cs  Cs9  1  0.22999100  0.72999100  0.50000000  1
  Cs  Cs10  1  0.72140200  0.22140200  0.50000000  1
  Cs  Cs11  1  0.47140200  0.47140200  0.00000000  1
  W  W0  1  0.62772300  0.05777000  0.81612000  1
  W  W1  1  0.24164900  0.81160200  0.18388000  1
  W  W2  1  0.30777000  0.99164900  0.93004700  1
  W  W3  1  0.06160200  0.37772300  0.06995300  1
  W  W4  1  0.93681200  0.76366200  0.61842000  1
  W  W5  1  0.14524200  0.31839200  0.38158000  1
  W  W6  1  0.01366200  0.89524200  0.32685000  1
  W  W7  1  0.56839200  0.68681200  0.67315000  1
  N  N0  1  0.62926200  0.17809400  0.72998900  1
  N  N1  1  0.44810500  0.89927200  0.27001100  1
  N  N2  1  0.42809400  0.19810500  0.04883300  1
  N  N3  1  0.14927200  0.37926200  0.95116700  1
  N  N4  1  0.83253900  0.74708700  0.17240700  1
  N  N5  1  0.57468000  0.66013200  0.82759300  1
  N  N6  1  0.99708700  0.32468000  0.41454800  1
  N  N7  1  0.91013200  0.58253900  0.58545200  1
  N  N8  1  0.83022100  0.19524500  0.97504800  1
  N  N9  1  0.22019800  0.85517300  0.02495200  1
  N  N10  1  0.44524500  0.97019800  0.86502400  1
  N  N11  1  0.10517300  0.58022100  0.13497600  1
  N  N12  1  0.97365900  0.83299000  0.47366600  1
  N  N13  1  0.35932400  0.49999300  0.52633400  1
  N  N14  1  0.08299000  0.10932400  0.35933100  1
  N  N15  1  0.74999300  0.72365900  0.64066900  1
  N  N16  1  0.13059300  0.94132300  0.78378600  1
  N  N17  1  0.15753700  0.34680800  0.21621400  1
  N  N18  1  0.19132300  0.90753700  0.31072900  1
  N  N19  1  0.59680800  0.88059300  0.68927100  1
loop_
_geom_bond_atom_site_label_1
_geom_bond_atom_site_label_2
_geom_bond_distance
_geom_bond_site_symmetry_2
Cs0 N0 3.072103 1_555
Cs0 N9 3.190086 1_656
Cs0 N7 3.430450 1_555
Cs0 N11 3.514677 1_656
Cs0 N4 3.602508 1_556
Cs0 N5 3.696352 1_555
Cs0 N15 3.738426 1_555
Cs1 N1 3.072101 1_555
Cs1 N8 3.190079 1_564
Cs1 N6 3.430450 1_565
Cs1 N10 3.514684 1_554
Cs1 N5 3.602508 1_554
Cs1 N4 3.696352 1_555
Cs1 N14 3.738426 1_665
Cs2 N2 3.072101 1_555
Cs2 N11 3.190079 1_655
Cs2 N4 3.430450 1_555
Cs2 N8 3.514677 1_554
Cs2 N6 3.602508 1_555
Cs2 N7 3.696352 1_555
Cs2 N12 3.738426 1_555
Cs3 N3 3.072093 1_555
Cs3 N10 3.190088 1_555
Cs3 N5 3.430450 1_555
Cs3 N9 3.514670 1_556
Cs3 N7 3.602508 1_455
Cs3 N6 3.696352 1_455
Cs3 N13 3.738426 1_555
Cs4 N1 2.969107 1_555
Cs4 N17 3.196588 1_555
Cs4 N13 3.267955 1_555
Cs4 N15 3.532567 1_555
Cs4 N19 3.565737 1_555
Cs5 N0 2.969128 1_555
Cs5 N16 3.196588 1_545
Cs5 N12 3.267950 1_445
Cs5 N14 3.532561 1_555
Cs5 N18 3.565742 1_545
Cs6 N3 2.969115 1_655
Cs6 N19 3.196588 1_545
Cs6 N15 3.267945 1_545
Cs6 N12 3.532559 1_545
Cs6 N16 3.565721 1_645
Cs7 N2 2.969107 1_555
Cs7 N18 3.196588 1_545
Cs7 N14 3.267955 1_555
Cs7 N13 3.532567 1_555
Cs7 N17 3.565739 1_555
Cs8 N16 3.267046 1_654
Cs8 N17 3.267054 1_665
Cs8 N5 3.366174 1_554
Cs8 N4 3.366174 1_555
Cs8 N14 3.589380 1_665
Cs8 N15 3.589380 1_554
Cs8 N8 3.615359 1_564
Cs8 N9 3.615369 1_655
Cs9 N18 3.267054 1_555
Cs9 N19 3.267058 1_555
Cs9 N6 3.366174 1_455
Cs9 N7 3.366174 1_455
Cs9 N13 3.589380 1_555
Cs9 N12 3.589380 1_455
Cs9 N11 3.615359 1_555
Cs9 N10 3.615360 1_555
Cs10 N0 2.951126 1_555
Cs10 N1 2.951130 1_545
Cs10 N7 3.007469 1_555
Cs10 N6 3.007469 1_555
Cs11 N2 2.951130 1_555
Cs11 N3 2.951135 1_554
Cs11 N4 3.007469 1_555
Cs11 N5 3.007469 1_554
N0 W0 1.780230 1_555
N1 W1 1.780240 1_555
N2 W2 1.780241 1_544
N3 W3 1.780240 1_556
N4 W6 1.781581 1_655
N5 W7 1.781581 1_555
N6 W5 1.781581 1_655
N7 W4 1.781581 1_555
N8 W0 1.914974 1_555
N8 W3 1.919216 1_656
N9 W1 1.914978 1_555
N9 W2 1.919214 1_554
N10 W2 1.914963 1_555
N10 W0 1.919223 1_565
N11 W3 1.914968 1_555
N11 W1 1.919214 1_555
N12 W6 1.922753 1_655
N12 W4 1.927863 1_555
N13 W7 1.922753 1_555
N13 W5 1.927863 1_555
N14 W5 1.922753 1_555
N14 W6 1.927863 1_545
N15 W4 1.922753 1_555
N15 W7 1.927863 1_555
N16 W4 1.932090 1_455
N16 W2 1.941547 1_555
N17 W5 1.932093 1_555
N17 W3 1.941539 1_555
N18 W6 1.932093 1_555
N18 W1 1.941532 1_555
N19 W7 1.932082 1_555
N19 W0 1.941542 1_565
