# generated using pymatgen
data_Cs3ZnBr5
_symmetry_space_group_name_H-M   'P 1'
_cell_length_a   10.23756480
_cell_length_b   10.23756480
_cell_length_c   10.23756480
_cell_angle_alpha   123.45324086
_cell_angle_beta   123.45324086
_cell_angle_gamma   84.11612822
_symmetry_Int_Tables_number   1
_chemical_formula_structural   Cs3ZnBr5
_chemical_formula_sum   'Cs6 Zn2 Br10'
_cell_volume   714.98207348
_cell_formula_units_Z   2
loop_
 _symmetry_equiv_pos_site_id
 _symmetry_equiv_pos_as_xyz
  1  'x, y, z'
loop_
 _atom_site_type_symbol
 _atom_site_label
 _atom_site_symmetry_multiplicity
 _atom_site_fract_x
 _atom_site_fract_y
 _atom_site_fract_z
 _atom_site_occupancy
  Cs  Cs0  1  0.16086552  0.33913448  0.50000000  1
  Cs  Cs1  1  0.83913448  0.66086552  0.50000000  1
  Cs  Cs2  1  0.66086552  0.16086552  0.82173004  1
  Cs  Cs3  1  0.33913448  0.83913448  0.17826996  1
  Cs  Cs4  1  0.75000000  0.75000000  0.00000000  1
  Cs  Cs5  1  0.25000000  0.25000000  0.00000000  1
  Zn  Zn0  1  0.75000000  0.25000000  0.50000000  1
  Zn  Zn1  1  0.25000000  0.75000000  0.50000000  1
  Br  Br0  1  -0.00000000  -0.00000000  0.00000000  1
  Br  Br1  1  0.50000000  0.50000000  0.00000000  1
  Br  Br2  1  0.20256105  0.98534920  0.50000000  1
  Br  Br3  1  0.48534920  0.70256105  0.50000000  1
  Br  Br4  1  0.70256105  0.20256105  0.21721186  1
  Br  Br5  1  0.98534920  0.48534920  0.78278814  1
  Br  Br6  1  0.79743895  0.01465080  0.50000000  1
  Br  Br7  1  0.51465080  0.29743895  0.50000000  1
  Br  Br8  1  0.29743895  0.79743895  0.78278814  1
  Br  Br9  1  0.01465080  0.51465080  0.21721186  1
loop_
_geom_bond_atom_site_label_1
_geom_bond_atom_site_label_2
_geom_bond_distance
_geom_bond_site_symmetry_2
Br0 Cs0 3.640414 1_555
Br0 Cs1 3.640414 1_444
Br0 Cs2 3.640417 1_454
Br0 Cs3 3.640417 1_545
Br0 Cs5 3.800524 1_555
Br0 Cs4 3.800524 1_445
Br1 Cs1 3.640414 1_555
Br1 Cs0 3.640414 1_554
Br1 Cs2 3.640417 1_554
Br1 Cs3 3.640417 1_555
Br1 Cs5 3.800524 1_555
Br1 Cs4 3.800524 1_555
Br2 Zn1 2.408563 1_555
Br2 Cs0 3.603247 1_565
Br2 Cs3 3.775805 1_555
Br2 Cs2 3.775815 1_565
Br2 Cs4 4.002130 1_455
Br2 Cs5 4.002130 1_566
Br3 Zn1 2.408563 1_555
Br3 Cs1 3.603247 1_555
Br3 Cs3 3.775805 1_555
Br3 Cs2 3.775815 1_565
Br3 Cs4 4.002130 1_556
Br3 Cs5 4.002130 1_555
Br4 Zn0 2.408563 1_555
Br4 Cs2 3.603257 1_554
Br4 Cs1 3.775814 1_555
Br4 Cs0 3.775814 1_655
Br4 Cs5 4.002130 1_555
Br4 Cs4 4.002130 1_545
Br5 Zn0 2.408563 1_555
Br5 Cs3 3.603247 1_656
Br5 Cs1 3.775814 1_555
Br5 Cs0 3.775814 1_655
Br5 Cs4 4.002130 1_556
Br5 Cs5 4.002130 1_656
Br6 Zn0 2.408563 1_555
Br6 Cs1 3.603247 1_545
Br6 Cs2 3.775805 1_555
Br6 Cs3 3.775815 1_545
Br6 Cs4 4.002130 1_545
Br6 Cs5 4.002130 1_656
Br7 Zn0 2.408563 1_555
Br7 Cs0 3.603247 1_555
Br7 Cs2 3.775805 1_555
Br7 Cs3 3.775815 1_545
Br7 Cs4 4.002130 1_556
Br7 Cs5 4.002130 1_555
Br8 Zn1 2.408563 1_555
Br8 Cs3 3.603257 1_556
Br8 Cs0 3.775814 1_555
Br8 Cs1 3.775814 1_455
Br8 Cs5 4.002130 1_566
Br8 Cs4 4.002130 1_556
Br9 Zn1 2.408563 1_555
Br9 Cs2 3.603247 1_454
Br9 Cs1 3.775814 1_455
Br9 Cs0 3.775814 1_555
Br9 Cs4 4.002130 1_455
Br9 Cs5 4.002130 1_555
