# generated using pymatgen
data_Sr2MgCd
_symmetry_space_group_name_H-M   'P 1'
_cell_length_a   15.09436551
_cell_length_b   13.78203656
_cell_length_c   13.78203661
_cell_angle_alpha   57.78630117
_cell_angle_beta   56.79678604
_cell_angle_gamma   56.79678552
_symmetry_Int_Tables_number   1
_chemical_formula_structural   Sr2MgCd
_chemical_formula_sum   'Sr2 Mg1 Cd1'
_cell_volume   1892.69206256
_cell_formula_units_Z   1
loop_
 _symmetry_equiv_pos_site_id
 _symmetry_equiv_pos_as_xyz
  1  'x, y, z'
loop_
 _atom_site_type_symbol
 _atom_site_label
 _atom_site_symmetry_multiplicity
 _atom_site_fract_x
 _atom_site_fract_y
 _atom_site_fract_z
 _atom_site_occupancy
  Sr  Sr0  1  0.74692747  1.00000000  1.00000000  1
  Sr  Sr1  1  0.25307253  0.00000000  0.00000000  1
  Mg  Mg0  1  -0.00000000  -0.00000000  -0.00000000  1
  Cd  Cd0  1  0.50000000  -0.00000000  -0.00000000  1
loop_
_geom_bond_atom_site_label_1
_geom_bond_atom_site_label_2
_geom_bond_distance
_geom_bond_site_symmetry_2
Mg0 Sr0 3.819969 1_444
Mg0 Sr1 3.819969 1_555
Cd0 Sr1 3.727213 1_555
Cd0 Sr0 3.727213 1_544
