# generated using pymatgen
data_Zr2PbO6
_symmetry_space_group_name_H-M   'P 1'
_cell_length_a   6.03660600
_cell_length_b   8.46977000
_cell_length_c   11.22557400
_cell_angle_alpha   90.00000000
_cell_angle_beta   90.00000000
_cell_angle_gamma   90.00000000
_symmetry_Int_Tables_number   1
_chemical_formula_structural   Zr2PbO6
_chemical_formula_sum   'Zr8 Pb4 O24'
_cell_volume   573.94860575
_cell_formula_units_Z   4
loop_
 _symmetry_equiv_pos_site_id
 _symmetry_equiv_pos_as_xyz
  1  'x, y, z'
loop_
 _atom_site_type_symbol
 _atom_site_label
 _atom_site_symmetry_multiplicity
 _atom_site_fract_x
 _atom_site_fract_y
 _atom_site_fract_z
 _atom_site_occupancy
  Zr  Zr0  1  0.23312400  0.26775800  0.12568900  1
  Zr  Zr1  1  0.23312400  0.73224200  0.12568900  1
  Zr  Zr2  1  0.26486900  0.77589800  0.61920500  1
  Zr  Zr3  1  0.26486900  0.22410200  0.61920500  1
  Zr  Zr4  1  0.73312400  0.26775800  0.37431100  1
  Zr  Zr5  1  0.73312400  0.73224200  0.37431100  1
  Zr  Zr6  1  0.76486900  0.22410200  0.88079500  1
  Zr  Zr7  1  0.76486900  0.77589800  0.88079500  1
  Pb  Pb0  1  0.12789900  0.00000000  0.36324800  1
  Pb  Pb1  1  0.37595100  0.50000000  0.86823300  1
  Pb  Pb2  1  0.62789900  0.00000000  0.13675200  1
  Pb  Pb3  1  0.87595100  0.50000000  0.63176700  1
  O  O0  1  0.02401300  0.26617400  0.26112700  1
  O  O1  1  0.02401300  0.73382600  0.26112700  1
  O  O2  1  0.21979500  0.50000000  0.59508000  1
  O  O3  1  0.26232000  0.00000000  0.66827100  1
  O  O4  1  0.26401400  0.00000000  0.18656900  1
  O  O5  1  0.26217600  0.50000000  0.05247700  1
  O  O6  1  0.44928100  0.29383300  0.77315700  1
  O  O7  1  0.44928100  0.70616700  0.77315700  1
  O  O8  1  0.50917600  0.20896100  0.50008800  1
  O  O9  1  0.51345900  0.17654100  0.01243200  1
  O  O10  1  0.50917600  0.79103900  0.50008800  1
  O  O11  1  0.51345900  0.82345900  0.01243200  1
  O  O12  1  0.52401300  0.26617400  0.23887300  1
  O  O13  1  0.52401300  0.73382600  0.23887300  1
  O  O14  1  0.71979500  0.50000000  0.90492000  1
  O  O15  1  0.76232000  0.00000000  0.83172900  1
  O  O16  1  0.76401400  0.00000000  0.31343100  1
  O  O17  1  0.76217600  0.50000000  0.44752300  1
  O  O18  1  0.94928100  0.29383300  0.72684300  1
  O  O19  1  0.94928100  0.70616700  0.72684300  1
  O  O20  1  0.01345900  0.17654100  0.48756800  1
  O  O21  1  0.00917600  0.20896100  0.99991200  1
  O  O22  1  0.00917600  0.79103900  0.99991200  1
  O  O23  1  0.01345900  0.82345900  0.48756800  1
loop_
_geom_bond_atom_site_label_1
_geom_bond_atom_site_label_2
_geom_bond_distance
_geom_bond_site_symmetry_2
O0 Zr0 1.976147 1_555
O0 Zr4 2.167479 1_455
O0 Pb0 2.605744 1_555
O1 Zr1 1.976147 1_555
O1 Zr5 2.167479 1_455
O1 Pb0 2.605744 1_565
O2 Pb3 2.116113 1_455
O2 Zr3 2.368117 1_555
O2 Zr2 2.368117 1_555
O3 Zr3 1.976453 1_555
O3 Zr2 1.976453 1_545
O4 Pb0 2.146792 1_555
O4 Pb2 2.266697 1_555
O4 Zr0 2.375913 1_555
O4 Zr1 2.375913 1_545
O5 Zr1 2.139023 1_555
O5 Zr0 2.139023 1_555
O5 Pb1 2.179300 1_554
O6 Pb1 2.093851 1_555
O6 Zr3 2.138867 1_555
O6 Zr6 2.331980 1_555
O7 Pb1 2.093851 1_555
O7 Zr2 2.138867 1_555
O7 Zr7 2.331980 1_555
O8 Zr3 1.994850 1_555
O8 Zr4 2.017204 1_555
O9 Zr6 2.156194 1_554
O9 Pb2 2.158854 1_555
O9 Zr0 2.253235 1_555
O10 Zr2 1.994850 1_555
O10 Zr5 2.017204 1_555
O11 Zr7 2.156194 1_554
O11 Pb2 2.158854 1_565
O11 Zr1 2.253235 1_555
O12 Zr4 1.976147 1_555
O12 Zr0 2.167479 1_555
O12 Pb2 2.605744 1_555
O13 Zr5 1.976147 1_555
O13 Zr1 2.167479 1_555
O13 Pb2 2.605744 1_565
O14 Pb1 2.116113 1_555
O14 Zr6 2.368117 1_555
O14 Zr7 2.368117 1_555
O15 Zr6 1.976453 1_555
O15 Zr7 1.976453 1_545
O16 Pb2 2.146792 1_555
O16 Pb0 2.266697 1_655
O16 Zr4 2.375913 1_555
O16 Zr5 2.375913 1_545
O17 Zr5 2.139023 1_555
O17 Zr4 2.139023 1_555
O17 Pb3 2.179300 1_555
O18 Pb3 2.093851 1_555
O18 Zr6 2.138867 1_555
O18 Zr3 2.331980 1_655
O19 Pb3 2.093851 1_555
O19 Zr7 2.138867 1_555
O19 Zr2 2.331980 1_655
O20 Zr3 2.156194 1_555
O20 Pb0 2.158854 1_555
O20 Zr4 2.253235 1_455
O21 Zr6 1.994850 1_455
O21 Zr0 2.017204 1_556
O22 Zr7 1.994850 1_455
O22 Zr1 2.017204 1_556
O23 Zr2 2.156194 1_555
O23 Pb0 2.158854 1_565
O23 Zr5 2.253235 1_455
