# generated using pymatgen
data_KMgFe(PO4)2
_symmetry_space_group_name_H-M   'P 1'
_cell_length_a   14.67153300
_cell_length_b   5.24095700
_cell_length_c   9.32509744
_cell_angle_alpha   74.96650553
_cell_angle_beta   90.00000000
_cell_angle_gamma   90.00000000
_symmetry_Int_Tables_number   1
_chemical_formula_structural   KMgFe(PO4)2
_chemical_formula_sum   'K4 Mg4 Fe4 P8 O32'
_cell_volume   692.49260586
_cell_formula_units_Z   4
loop_
 _symmetry_equiv_pos_site_id
 _symmetry_equiv_pos_as_xyz
  1  'x, y, z'
loop_
 _atom_site_type_symbol
 _atom_site_label
 _atom_site_symmetry_multiplicity
 _atom_site_fract_x
 _atom_site_fract_y
 _atom_site_fract_z
 _atom_site_occupancy
  K  K0  1  0.32312100  0.17616600  0.18026600  1
  K  K1  1  0.82312100  0.82383400  0.31973400  1
  K  K2  1  0.67687900  0.82383400  0.81973400  1
  K  K3  1  0.17687900  0.17616600  0.68026600  1
  Mg  Mg0  1  0.04910200  0.24135700  0.03346300  1
  Mg  Mg1  1  0.54910200  0.75864300  0.46653700  1
  Mg  Mg2  1  0.95089800  0.75864300  0.96653700  1
  Mg  Mg3  1  0.45089800  0.24135700  0.53346300  1
  Fe  Fe0  1  0.12807800  0.77327400  0.38310200  1
  Fe  Fe1  1  0.62807800  0.22672600  0.11689800  1
  Fe  Fe2  1  0.87192200  0.22672600  0.61689800  1
  Fe  Fe3  1  0.37192200  0.77327400  0.88310200  1
  P  P0  1  0.17282400  0.74412200  0.03720900  1
  P  P1  1  0.67282400  0.25587800  0.46279100  1
  P  P2  1  0.82717600  0.25587800  0.96279100  1
  P  P3  1  0.32717600  0.74412200  0.53720900  1
  P  P4  1  0.00680300  0.30985900  0.31929600  1
  P  P5  1  0.50680300  0.69014100  0.18070400  1
  P  P6  1  0.99319700  0.69014100  0.68070400  1
  P  P7  1  0.49319700  0.30985900  0.81929600  1
  O  O0  1  0.24385500  0.88513500  0.44509600  1
  O  O1  1  0.74385500  0.11486500  0.05490400  1
  O  O2  1  0.75614500  0.11486500  0.55490400  1
  O  O3  1  0.25614500  0.88513500  0.94509600  1
  O  O4  1  0.18943900  0.76619500  0.19778100  1
  O  O5  1  0.68943900  0.23380500  0.30221900  1
  O  O6  1  0.81056100  0.23380500  0.80221900  1
  O  O7  1  0.31056100  0.76619500  0.69778100  1
  O  O8  1  0.08704500  0.91235000  0.97091800  1
  O  O9  1  0.58704500  0.08765000  0.52908200  1
  O  O10  1  0.91295500  0.08765000  0.02908200  1
  O  O11  1  0.41295500  0.91235000  0.47091800  1
  O  O12  1  0.16641100  0.45448400  0.03126700  1
  O  O13  1  0.66641100  0.54551600  0.46873300  1
  O  O14  1  0.83358900  0.54551600  0.96873300  1
  O  O15  1  0.33358900  0.45448400  0.53126700  1
  O  O16  1  0.98729600  0.50123500  0.16669400  1
  O  O17  1  0.48729600  0.49876500  0.33330600  1
  O  O18  1  0.01270400  0.49876500  0.83330600  1
  O  O19  1  0.51270400  0.50123500  0.66669400  1
  O  O20  1  0.04841500  0.06102600  0.27618100  1
  O  O21  1  0.54841500  0.93897400  0.22381900  1
  O  O22  1  0.95158500  0.93897400  0.72381900  1
  O  O23  1  0.45158500  0.06102600  0.77618100  1
  O  O24  1  0.07846200  0.41773600  0.41113700  1
  O  O25  1  0.57846200  0.58226400  0.08886300  1
  O  O26  1  0.92153800  0.58226400  0.58886300  1
  O  O27  1  0.42153800  0.41773600  0.91113700  1
  O  O28  1  0.91906300  0.22936000  0.41096300  1
  O  O29  1  0.41906300  0.77064000  0.08903700  1
  O  O30  1  0.08093700  0.77064000  0.58903700  1
  O  O31  1  0.58093700  0.22936000  0.91096300  1
loop_
_geom_bond_atom_site_label_1
_geom_bond_atom_site_label_2
_geom_bond_distance
_geom_bond_site_symmetry_2
K0 O0 2.797072 1_545
K0 O29 2.856600 1_545
K0 O12 2.879759 1_555
K0 O4 2.882369 1_545
K0 O27 2.887539 1_554
K0 O11 3.008458 1_545
K0 O3 3.136315 1_544
K0 O29 3.322221 1_555
K1 O1 2.797072 1_565
K1 O28 2.856600 1_565
K1 O13 2.879759 1_555
K1 O5 2.882369 1_565
K1 O26 2.887539 1_555
K1 O10 3.008458 1_565
K1 O2 3.136315 1_565
K1 O28 3.322221 1_555
K2 O2 2.797072 1_565
K2 O31 2.856600 1_565
K2 O14 2.879759 1_555
K2 O6 2.882369 1_565
K2 O25 2.887539 1_556
K2 O9 3.008458 1_565
K2 O1 3.136315 1_566
K2 O31 3.322221 1_555
K3 O3 2.797072 1_545
K3 O30 2.856600 1_545
K3 O15 2.879759 1_555
K3 O7 2.882369 1_545
K3 O24 2.887539 1_555
K3 O8 3.008458 1_545
K3 O0 3.136315 1_545
K3 O30 3.322221 1_555
Mg0 O8 2.035934 1_544
Mg0 O12 2.049003 1_555
Mg0 O18 2.069456 1_554
Mg0 O10 2.158155 1_455
Mg0 O20 2.215053 1_555
Mg0 O16 2.258031 1_455
Mg1 O9 2.035934 1_565
Mg1 O13 2.049003 1_555
Mg1 O19 2.069456 1_555
Mg1 O11 2.158155 1_555
Mg1 O21 2.215053 1_555
Mg1 O17 2.258031 1_555
Mg2 O10 2.035934 1_566
Mg2 O14 2.049003 1_555
Mg2 O16 2.069456 1_556
Mg2 O8 2.158155 1_655
Mg2 O22 2.215053 1_555
Mg2 O18 2.258031 1_655
Mg3 O11 2.035934 1_545
Mg3 O15 2.049003 1_555
Mg3 O17 2.069456 1_555
Mg3 O9 2.158155 1_555
Mg3 O23 2.215053 1_555
Mg3 O19 2.258031 1_555
Fe0 O0 1.933662 1_555
Fe0 O24 1.953879 1_555
Fe0 O4 1.957437 1_555
Fe0 O20 1.963278 1_565
Fe0 O30 2.037790 1_555
Fe1 O1 1.933662 1_555
Fe1 O25 1.953879 1_555
Fe1 O5 1.957437 1_555
Fe1 O21 1.963278 1_545
Fe1 O31 2.037790 1_554
Fe2 O2 1.933662 1_555
Fe2 O26 1.953879 1_555
Fe2 O6 1.957437 1_555
Fe2 O22 1.963278 1_545
Fe2 O28 2.037790 1_555
Fe3 O3 1.933662 1_555
Fe3 O27 1.953879 1_555
Fe3 O7 1.957437 1_555
Fe3 O23 1.963278 1_565
Fe3 O29 2.037790 1_556
O0 P3 1.564947 1_555
O1 P2 1.564947 1_554
O2 P1 1.564947 1_555
O3 P0 1.564947 1_556
O4 P0 1.550716 1_555
O5 P1 1.550716 1_555
O6 P2 1.550716 1_555
O7 P3 1.550716 1_555
O8 P0 1.568627 1_556
O9 P1 1.568627 1_555
O10 P2 1.568627 1_554
O11 P3 1.568627 1_555
O12 P0 1.536171 1_555
O13 P1 1.536171 1_555
O14 P2 1.536171 1_555
O15 P3 1.536171 1_555
O16 P4 1.540287 1_655
O17 P5 1.540287 1_555
O18 P6 1.540287 1_455
O19 P7 1.540287 1_555
O20 P4 1.583386 1_555
O21 P5 1.583386 1_555
O22 P6 1.583386 1_555
O23 P7 1.583386 1_555
O24 P4 1.552302 1_555
O25 P5 1.552302 1_555
O26 P6 1.552302 1_555
O27 P7 1.552302 1_555
O28 P4 1.542299 1_655
O29 P5 1.542299 1_555
O30 P6 1.542299 1_455
O31 P7 1.542299 1_555
