# generated using pymatgen
data_Ba2Y2Mg(Fe2O5)2
_symmetry_space_group_name_H-M   'P 1'
_cell_length_a   3.86865400
_cell_length_b   8.21490500
_cell_length_c   8.69893900
_cell_angle_alpha   90.00000000
_cell_angle_beta   90.00000000
_cell_angle_gamma   90.00000000
_symmetry_Int_Tables_number   1
_chemical_formula_structural   Ba2Y2Mg(Fe2O5)2
_chemical_formula_sum   'Ba2 Y2 Mg1 Fe4 O10'
_cell_volume   276.45771902
_cell_formula_units_Z   1
loop_
 _symmetry_equiv_pos_site_id
 _symmetry_equiv_pos_as_xyz
  1  'x, y, z'
loop_
 _atom_site_type_symbol
 _atom_site_label
 _atom_site_symmetry_multiplicity
 _atom_site_fract_x
 _atom_site_fract_y
 _atom_site_fract_z
 _atom_site_occupancy
  Ba  Ba0  1  0.00000000  0.07735700  0.45342900  1
  Ba  Ba1  1  0.00000000  0.07735700  0.04657100  1
  Y  Y0  1  0.00000000  0.53930900  0.02799100  1
  Y  Y1  1  0.00000000  0.53930900  0.47200900  1
  Mg  Mg0  1  0.00000000  0.90504300  0.75000000  1
  Fe  Fe0  1  0.49999900  0.75148900  0.25000000  1
  Fe  Fe1  1  0.49999900  0.25983800  0.75000000  1
  Fe  Fe2  1  0.49999900  0.32219800  0.25000000  1
  Fe  Fe3  1  0.49999900  0.65955500  0.75000000  1
  O  O0  1  0.49999900  0.68171300  0.48856200  1
  O  O1  1  0.49999900  0.32857800  0.50909200  1
  O  O2  1  0.49999900  0.68171300  0.01143700  1
  O  O3  1  0.49999900  0.32857800  0.99090800  1
  O  O4  1  0.00000000  0.62179800  0.75000000  1
  O  O5  1  0.00000000  0.35808100  0.25000000  1
  O  O6  1  0.00000000  0.69950000  0.25000000  1
  O  O7  1  0.00000000  0.16497100  0.75000000  1
  O  O8  1  0.49999900  0.04100000  0.25000000  1
  O  O9  1  0.49999900  0.91261200  0.75000000  1
loop_
_geom_bond_atom_site_label_1
_geom_bond_atom_site_label_2
_geom_bond_distance
_geom_bond_site_symmetry_2
Ba0 O8 2.638627 1_555
Ba0 O8 2.638633 1_455
Ba0 O7 2.678370 1_555
Ba0 O1 2.869696 1_555
Ba0 O1 2.869701 1_455
Ba0 O5 2.906843 1_555
Ba1 O8 2.638627 1_555
Ba1 O8 2.638633 1_455
Ba1 O7 2.678370 1_554
Ba1 O3 2.869696 1_554
Ba1 O3 2.869701 1_454
Ba1 O5 2.906843 1_555
Mg0 O9 1.935322 1_555
Mg0 O9 1.935330 1_455
Mg0 O7 2.135284 1_565
Mg0 O4 2.326831 1_555
Fe0 O6 1.980911 1_555
Fe0 O6 1.980918 1_655
Fe0 O0 2.152944 1_555
Fe0 O2 2.152952 1_555
Fe0 O8 2.378305 1_565
Fe1 O7 2.085414 1_555
Fe1 O7 2.085421 1_655
Fe1 O3 2.170392 1_555
Fe1 O1 2.170392 1_555
Fe2 O5 1.956655 1_555
Fe2 O5 1.956663 1_655
Fe2 O1 2.254435 1_555
Fe2 O3 2.254435 1_554
Fe2 O8 2.310015 1_555
Fe3 O4 1.959033 1_555
Fe3 O4 1.959041 1_655
Fe3 O9 2.078839 1_555
Fe3 O2 2.281497 1_556
Fe3 O0 2.281506 1_555
O0 Y1 2.265139 1_555
O0 Y1 2.265146 1_655
O1 Y1 2.615816 1_555
O1 Y1 2.615822 1_655
O2 Y0 2.265140 1_555
O2 Y0 2.265146 1_655
O3 Y0 2.615816 1_556
O3 Y0 2.615822 1_656
O4 Y1 2.511377 1_555
O4 Y0 2.511377 1_556
O5 Y1 2.438470 1_555
O5 Y0 2.438470 1_555
O6 Y1 2.336971 1_555
O6 Y0 2.336971 1_555
