# generated using pymatgen
data_Dy5Ge3C
_symmetry_space_group_name_H-M   'P 1'
_cell_length_a   6.47391855
_cell_length_b   8.45471553
_cell_length_c   8.46019491
_cell_angle_alpha   119.97789987
_cell_angle_beta   89.99999105
_cell_angle_gamma   89.99999185
_symmetry_Int_Tables_number   1
_chemical_formula_structural   Dy5Ge3C
_chemical_formula_sum   'Dy10 Ge6 C2'
_cell_volume   401.11961868
_cell_formula_units_Z   2
loop_
 _symmetry_equiv_pos_site_id
 _symmetry_equiv_pos_as_xyz
  1  'x, y, z'
loop_
 _atom_site_type_symbol
 _atom_site_label
 _atom_site_symmetry_multiplicity
 _atom_site_fract_x
 _atom_site_fract_y
 _atom_site_fract_z
 _atom_site_occupancy
  Dy  Dy0  1  0.50000872  0.33313374  0.66619171  1
  Dy  Dy1  1  0.50000854  0.66693487  0.33380921  1
  Dy  Dy2  1  0.00000839  0.66686641  0.33380835  1
  Dy  Dy3  1  0.00000828  0.33306497  0.66619102  1
  Dy  Dy4  1  0.75010279  0.22029993  0.00000139  1
  Dy  Dy5  1  0.74993919  0.77946560  0.77946926  1
  Dy  Dy6  1  0.74993912  -0.00000621  0.22052772  1
  Dy  Dy7  1  0.25010228  0.77970114  0.00000097  1
  Dy  Dy8  1  0.24993866  0.22053587  0.22052936  1
  Dy  Dy9  1  0.24993877  0.00000359  0.77947100  1
  Ge  Ge0  1  0.74962217  0.59051071  0.00000097  1
  Ge  Ge1  1  0.75019623  0.40889034  0.40888579  1
  Ge  Ge2  1  0.75019488  0.00000622  0.59110990  1
  Ge  Ge3  1  0.24962256  0.40948917  -0.00000153  1
  Ge  Ge4  1  0.25019677  0.59110936  0.59111473  1
  Ge  Ge5  1  0.25019533  -0.00000567  0.40889014  1
  C  C0  1  0.49998745  0.00008730  0.00000026  1
  C  C1  1  0.99998789  0.99991267  0.99999975  1
loop_
_geom_bond_atom_site_label_1
_geom_bond_atom_site_label_2
_geom_bond_distance
_geom_bond_site_symmetry_2
Dy0 Ge5 3.026585 1_555
Dy0 Ge4 3.026658 1_555
Dy0 Ge1 3.027492 1_555
Dy0 Ge2 3.028476 1_555
Dy0 Ge0 3.029985 1_556
Dy0 Ge3 3.032787 1_556
Dy1 Ge4 3.026521 1_555
Dy1 Ge5 3.026712 1_565
Dy1 Ge2 3.027545 1_565
Dy1 Ge1 3.028437 1_555
Dy1 Ge0 3.029981 1_555
Dy1 Ge3 3.032809 1_555
Dy2 Ge2 3.026586 1_465
Dy2 Ge1 3.026664 1_455
Dy2 Ge4 3.027500 1_555
Dy2 Ge5 3.028482 1_565
Dy2 Ge3 3.029991 1_555
Dy2 Ge0 3.032792 1_455
Dy3 Ge1 3.026520 1_455
Dy3 Ge2 3.026708 1_455
Dy3 Ge5 3.027544 1_555
Dy3 Ge4 3.028438 1_555
Dy3 Ge3 3.029978 1_556
Dy3 Ge0 3.032805 1_456
Dy4 Ge1 2.999452 1_555
Dy4 Ge2 2.999506 1_554
Dy4 Ge0 3.130030 1_555
Dy4 Ge3 3.607819 1_655
Dy4 Ge3 3.613393 1_555
Dy5 Ge2 2.997593 1_565
Dy5 Ge0 3.001972 1_556
Dy5 Ge1 3.135206 1_555
Dy5 Ge4 3.606450 1_555
Dy5 Ge4 3.609442 1_655
Dy6 Ge1 2.997597 1_555
Dy6 Ge0 3.001977 1_545
Dy6 Ge2 3.135145 1_555
Dy6 Ge5 3.606476 1_555
Dy6 Ge5 3.609452 1_655
Dy7 Ge4 2.999466 1_554
Dy7 Ge5 2.999489 1_565
Dy7 Ge3 3.130028 1_555
Dy7 Ge0 3.607819 1_555
Dy7 Ge0 3.613392 1_455
Dy8 Ge5 2.997610 1_555
Dy8 Ge3 3.001954 1_555
Dy8 Ge4 3.135207 1_555
Dy8 Ge1 3.606450 1_455
Dy8 Ge1 3.609443 1_555
Dy9 Ge4 2.997580 1_545
Dy9 Ge3 3.001995 1_556
Dy9 Ge5 3.135148 1_555
Dy9 Ge2 3.606478 1_455
Dy9 Ge2 3.609452 1_555
C0 Dy4 2.467450 1_555
C0 Dy7 2.467585 1_545
C0 Dy9 2.469836 1_554
C0 Dy8 2.469860 1_555
C0 Dy6 2.469979 1_555
C0 Dy5 2.470007 1_544
C1 Dy7 2.467446 1_656
C1 Dy4 2.467584 1_566
C1 Dy6 2.469836 1_566
C1 Dy5 2.469860 1_555
C1 Dy9 2.469975 1_665
C1 Dy8 2.470004 1_666
