# generated using pymatgen
data_KLa2Ag3Te8
_symmetry_space_group_name_H-M   'P 1'
_cell_length_a   4.45152100
_cell_length_b   4.45152100
_cell_length_c   21.71439100
_cell_angle_alpha   90.00000000
_cell_angle_beta   90.00000000
_cell_angle_gamma   90.00000000
_symmetry_Int_Tables_number   1
_chemical_formula_structural   KLa2Ag3Te8
_chemical_formula_sum   'K1 La2 Ag3 Te8'
_cell_volume   430.29322355
_cell_formula_units_Z   1
loop_
 _symmetry_equiv_pos_site_id
 _symmetry_equiv_pos_as_xyz
  1  'x, y, z'
loop_
 _atom_site_type_symbol
 _atom_site_label
 _atom_site_symmetry_multiplicity
 _atom_site_fract_x
 _atom_site_fract_y
 _atom_site_fract_z
 _atom_site_occupancy
  K  K0  1  0.00000000  0.00000000  0.74054600  1
  La  La0  1  0.00000000  0.00000000  0.20021700  1
  La  La1  1  0.50000000  0.50000000  0.00175500  1
  Ag  Ag0  1  0.00000000  0.50000000  0.57860000  1
  Ag  Ag1  1  0.50000000  0.00000000  0.57860000  1
  Ag  Ag2  1  0.50000000  0.50000000  0.48651000  1
  Te  Te0  1  0.50000000  0.50000000  0.66270600  1
  Te  Te1  1  0.50000000  0.00000000  0.32014900  1
  Te  Te2  1  0.50000000  0.00000000  0.88272500  1
  Te  Te3  1  0.00000000  0.50000000  0.32014900  1
  Te  Te4  1  0.00000000  0.00000000  0.04430000  1
  Te  Te5  1  0.50000000  0.50000000  0.15745400  1
  Te  Te6  1  0.00000000  0.50000000  0.88272500  1
  Te  Te7  1  0.00000000  0.00000000  0.48350200  1
loop_
_geom_bond_atom_site_label_1
_geom_bond_atom_site_label_2
_geom_bond_distance
_geom_bond_site_symmetry_2
K0 Te0 3.572808 1_455
K0 Te0 3.572808 1_445
K0 Te0 3.572808 1_555
K0 Te0 3.572808 1_545
K0 Te6 3.805998 1_545
K0 Te6 3.805998 1_555
K0 Te2 3.805998 1_455
K0 Te2 3.805998 1_555
La0 Te5 3.281808 1_545
La0 Te5 3.281808 1_445
La0 Te5 3.281808 1_555
La0 Te5 3.281808 1_455
La0 Te4 3.385643 1_555
La0 Te3 3.425804 1_555
La0 Te3 3.425804 1_545
La0 Te1 3.425804 1_455
La0 Te1 3.425804 1_555
La1 Te4 3.280472 1_555
La1 Te4 3.280472 1_655
La1 Te4 3.280472 1_665
La1 Te4 3.280472 1_565
La1 Te5 3.380909 1_555
La1 Te2 3.410938 1_564
La1 Te6 3.410938 1_654
La1 Te2 3.410938 1_554
La1 Te6 3.410938 1_554
Ag0 Te0 2.879135 1_455
Ag0 Te0 2.879135 1_555
Ag0 Ag2 2.992110 1_555
Ag0 Ag2 2.992110 1_455
Ag0 Te7 3.036151 1_555
Ag0 Te7 3.036151 1_565
Ag1 Te0 2.879135 1_555
Ag1 Te0 2.879135 1_545
Ag1 Ag2 2.992110 1_555
Ag1 Ag2 2.992110 1_545
Ag1 Te7 3.036151 1_555
Ag1 Te7 3.036151 1_655
Ag2 Te7 3.148378 1_565
Ag2 Te7 3.148378 1_555
Ag2 Te7 3.148378 1_665
Ag2 Te7 3.148378 1_655
Te1 Te3 3.147701 1_545
Te1 Te3 3.147701 1_555
Te1 Te3 3.147701 1_655
Te1 Te3 3.147701 1_645
Te2 Te6 3.147701 1_545
Te2 Te6 3.147701 1_555
Te2 Te6 3.147701 1_655
Te2 Te6 3.147701 1_645
