# generated using pymatgen
data_Lu2CdPd2
_symmetry_space_group_name_H-M   'P 1'
_cell_length_a   15.20357456
_cell_length_b   15.20357456
_cell_length_c   7.15185290
_cell_angle_alpha   90.00000000
_cell_angle_beta   90.00000000
_cell_angle_gamma   90.00000000
_symmetry_Int_Tables_number   1
_chemical_formula_structural   Lu2CdPd2
_chemical_formula_sum   'Lu32 Cd16 Pd32'
_cell_volume   1653.14135311
_cell_formula_units_Z   16
loop_
 _symmetry_equiv_pos_site_id
 _symmetry_equiv_pos_as_xyz
  1  'x, y, z'
loop_
 _atom_site_type_symbol
 _atom_site_label
 _atom_site_symmetry_multiplicity
 _atom_site_fract_x
 _atom_site_fract_y
 _atom_site_fract_z
 _atom_site_occupancy
  Lu  Lu0_0  1  0.33435983  0.08435984  0.25000000  1
  Lu  Lu0_1  1  0.33435983  0.08435984  0.75000000  1
  Lu  Lu0_2  1  0.33435983  0.58435983  0.25000000  1
  Lu  Lu0_3  1  0.33435983  0.58435983  0.75000000  1
  Lu  Lu0_4  1  0.83435983  0.08435984  0.25000000  1
  Lu  Lu0_5  1  0.83435983  0.08435984  0.75000000  1
  Lu  Lu0_6  1  0.83435983  0.58435983  0.25000000  1
  Lu  Lu0_7  1  0.83435983  0.58435983  0.75000000  1
  Lu  Lu1_0  1  0.16564017  0.41564017  0.25000000  1
  Lu  Lu1_1  1  0.16564017  0.41564017  0.75000000  1
  Lu  Lu1_2  1  0.16564017  0.91564017  0.25000000  1
  Lu  Lu1_3  1  0.16564017  0.91564017  0.75000000  1
  Lu  Lu1_4  1  0.66564017  0.41564017  0.25000000  1
  Lu  Lu1_5  1  0.66564017  0.41564017  0.75000000  1
  Lu  Lu1_6  1  0.66564017  0.91564017  0.25000000  1
  Lu  Lu1_7  1  0.66564017  0.91564017  0.75000000  1
  Lu  Lu2_0  1  0.08435984  0.16564017  0.25000000  1
  Lu  Lu2_1  1  0.08435984  0.16564017  0.75000000  1
  Lu  Lu2_2  1  0.08435984  0.66564017  0.25000000  1
  Lu  Lu2_3  1  0.08435984  0.66564017  0.75000000  1
  Lu  Lu2_4  1  0.58435983  0.16564017  0.25000000  1
  Lu  Lu2_5  1  0.58435983  0.16564017  0.75000000  1
  Lu  Lu2_6  1  0.58435983  0.66564017  0.25000000  1
  Lu  Lu2_7  1  0.58435983  0.66564017  0.75000000  1
  Lu  Lu3_0  1  0.41564017  0.33435983  0.25000000  1
  Lu  Lu3_1  1  0.41564017  0.33435983  0.75000000  1
  Lu  Lu3_2  1  0.41564017  0.83435983  0.25000000  1
  Lu  Lu3_3  1  0.41564017  0.83435983  0.75000000  1
  Lu  Lu3_4  1  0.91564017  0.33435983  0.25000000  1
  Lu  Lu3_5  1  0.91564017  0.33435983  0.75000000  1
  Lu  Lu3_6  1  0.91564017  0.83435983  0.25000000  1
  Lu  Lu3_7  1  0.91564017  0.83435983  0.75000000  1
  Cd  Cd0_0  1  0.00000000  0.00000000  0.00000000  1
  Cd  Cd0_1  1  0.00000000  0.00000000  0.50000000  1
  Cd  Cd0_2  1  0.00000000  0.50000000  0.00000000  1
  Cd  Cd0_3  1  0.00000000  0.50000000  0.50000000  1
  Cd  Cd0_4  1  0.50000000  0.00000000  0.00000000  1
  Cd  Cd0_5  1  0.50000000  0.00000000  0.50000000  1
  Cd  Cd0_6  1  0.50000000  0.50000000  0.00000000  1
  Cd  Cd0_7  1  0.50000000  0.50000000  0.50000000  1
  Cd  Cd1_0  1  0.25000000  0.25000000  0.00000000  1
  Cd  Cd1_1  1  0.25000000  0.25000000  0.50000000  1
  Cd  Cd1_2  1  0.25000000  0.75000000  0.00000000  1
  Cd  Cd1_3  1  0.25000000  0.75000000  0.50000000  1
  Cd  Cd1_4  1  0.75000000  0.25000000  0.00000000  1
  Cd  Cd1_5  1  0.75000000  0.25000000  0.50000000  1
  Cd  Cd1_6  1  0.75000000  0.75000000  0.00000000  1
  Cd  Cd1_7  1  0.75000000  0.75000000  0.50000000  1
  Pd  Pd0_0  1  0.06581687  0.31581687  0.00000000  1
  Pd  Pd0_1  1  0.06581687  0.31581687  0.50000000  1
  Pd  Pd0_2  1  0.06581687  0.81581687  0.00000000  1
  Pd  Pd0_3  1  0.06581687  0.81581687  0.50000000  1
  Pd  Pd0_4  1  0.56581687  0.31581687  0.00000000  1
  Pd  Pd0_5  1  0.56581687  0.31581687  0.50000000  1
  Pd  Pd0_6  1  0.56581687  0.81581687  0.00000000  1
  Pd  Pd0_7  1  0.56581687  0.81581687  0.50000000  1
  Pd  Pd1_0  1  0.43418313  0.18418313  0.00000000  1
  Pd  Pd1_1  1  0.43418313  0.18418313  0.50000000  1
  Pd  Pd1_2  1  0.43418313  0.68418313  0.00000000  1
  Pd  Pd1_3  1  0.43418313  0.68418313  0.50000000  1
  Pd  Pd1_4  1  0.93418313  0.18418313  0.00000000  1
  Pd  Pd1_5  1  0.93418313  0.18418313  0.50000000  1
  Pd  Pd1_6  1  0.93418313  0.68418313  0.00000000  1
  Pd  Pd1_7  1  0.93418313  0.68418313  0.50000000  1
  Pd  Pd2_0  1  0.31581687  0.43418313  0.00000000  1
  Pd  Pd2_1  1  0.31581687  0.43418313  0.50000000  1
  Pd  Pd2_2  1  0.31581687  0.93418313  0.00000000  1
  Pd  Pd2_3  1  0.31581687  0.93418313  0.50000000  1
  Pd  Pd2_4  1  0.81581687  0.43418313  0.00000000  1
  Pd  Pd2_5  1  0.81581687  0.43418313  0.50000000  1
  Pd  Pd2_6  1  0.81581687  0.93418313  0.00000000  1
  Pd  Pd2_7  1  0.81581687  0.93418313  0.50000000  1
  Pd  Pd3_0  1  0.18418313  0.06581687  0.00000000  1
  Pd  Pd3_1  1  0.18418313  0.06581687  0.50000000  1
  Pd  Pd3_2  1  0.18418313  0.56581687  0.00000000  1
  Pd  Pd3_3  1  0.18418313  0.56581687  0.50000000  1
  Pd  Pd3_4  1  0.68418313  0.06581687  0.00000000  1
  Pd  Pd3_5  1  0.68418313  0.06581687  0.50000000  1
  Pd  Pd3_6  1  0.68418313  0.56581687  0.00000000  1
  Pd  Pd3_7  1  0.68418313  0.56581687  0.50000000  1
loop_
_geom_bond_atom_site_label_1
_geom_bond_atom_site_label_2
_geom_bond_distance
_geom_bond_site_symmetry_2
Lu0_0 Pd1_0 2.793468 1_555
Lu0_0 Pd1_1 2.793468 1_555
Lu0_0 Pd2_3 2.913657 1_545
Lu0_0 Pd2_2 2.913657 1_545
Lu0_0 Pd3_0 2.913657 1_555
Lu0_0 Pd3_1 2.913657 1_555
Lu0_1 Pd1_1 2.793468 1_555
Lu0_1 Pd1_0 2.793468 1_556
Lu0_1 Pd2_3 2.913657 1_545
Lu0_1 Pd2_2 2.913657 1_546
Lu0_1 Pd3_1 2.913657 1_555
Lu0_1 Pd3_0 2.913657 1_556
Lu0_2 Pd1_2 2.793468 1_555
Lu0_2 Pd1_3 2.793468 1_555
Lu0_2 Pd2_1 2.913657 1_555
Lu0_2 Pd2_0 2.913657 1_555
Lu0_2 Pd3_3 2.913657 1_555
Lu0_2 Pd3_2 2.913657 1_555
Lu0_3 Pd1_3 2.793468 1_555
Lu0_3 Pd1_2 2.793468 1_556
Lu0_3 Pd2_1 2.913657 1_555
Lu0_3 Pd3_3 2.913657 1_555
Lu0_3 Pd2_0 2.913657 1_556
Lu0_3 Pd3_2 2.913657 1_556
Lu0_4 Pd1_5 2.793468 1_555
Lu0_4 Pd1_4 2.793468 1_555
Lu0_4 Pd2_6 2.913657 1_545
Lu0_4 Pd3_4 2.913657 1_555
Lu0_4 Pd2_7 2.913657 1_545
Lu0_4 Pd3_5 2.913657 1_555
Lu0_5 Pd1_5 2.793468 1_555
Lu0_5 Pd1_4 2.793468 1_556
Lu0_5 Pd3_5 2.913657 1_555
Lu0_5 Pd2_7 2.913657 1_545
Lu0_5 Pd2_6 2.913657 1_546
Lu0_5 Pd3_4 2.913657 1_556
Lu0_6 Pd1_6 2.793468 1_555
Lu0_6 Pd1_7 2.793468 1_555
Lu0_6 Pd3_7 2.913657 1_555
Lu0_6 Pd3_6 2.913657 1_555
Lu0_6 Pd2_4 2.913657 1_555
Lu0_6 Pd2_5 2.913657 1_555
Lu0_7 Pd1_7 2.793468 1_555
Lu0_7 Pd1_6 2.793468 1_556
Lu0_7 Pd3_7 2.913657 1_555
Lu0_7 Pd2_5 2.913657 1_555
Lu0_7 Pd3_6 2.913657 1_556
Lu0_7 Pd2_4 2.913657 1_556
Lu1_0 Pd0_0 2.793468 1_555
Lu1_0 Pd0_1 2.793468 1_555
Lu1_0 Pd3_2 2.913657 1_555
Lu1_0 Pd3_3 2.913657 1_555
Lu1_0 Pd2_1 2.913657 1_555
Lu1_0 Pd2_0 2.913657 1_555
Lu1_1 Pd0_1 2.793468 1_555
Lu1_1 Pd0_0 2.793468 1_556
Lu1_1 Pd3_3 2.913657 1_555
Lu1_1 Pd2_1 2.913657 1_555
Lu1_1 Pd3_2 2.913657 1_556
Lu1_1 Pd2_0 2.913657 1_556
Lu1_2 Pd0_3 2.793468 1_555
Lu1_2 Pd0_2 2.793468 1_555
Lu1_2 Pd3_0 2.913657 1_565
Lu1_2 Pd3_1 2.913657 1_565
Lu1_2 Pd2_3 2.913657 1_555
Lu1_2 Pd2_2 2.913657 1_555
Lu1_3 Pd0_3 2.793468 1_555
Lu1_3 Pd0_2 2.793468 1_556
Lu1_3 Pd3_1 2.913657 1_565
Lu1_3 Pd3_0 2.913657 1_566
Lu1_3 Pd2_3 2.913657 1_555
Lu1_3 Pd2_2 2.913657 1_556
Lu1_4 Pd0_4 2.793468 1_555
Lu1_4 Pd0_5 2.793468 1_555
Lu1_4 Pd3_6 2.913657 1_555
Lu1_4 Pd2_5 2.913657 1_555
Lu1_4 Pd3_7 2.913657 1_555
Lu1_4 Pd2_4 2.913657 1_555
Lu1_5 Pd0_5 2.793468 1_555
Lu1_5 Pd0_4 2.793468 1_556
Lu1_5 Pd3_7 2.913657 1_555
Lu1_5 Pd2_5 2.913657 1_555
Lu1_5 Pd2_4 2.913657 1_556
Lu1_5 Pd3_6 2.913657 1_556
Lu1_6 Pd0_6 2.793468 1_555
Lu1_6 Pd0_7 2.793468 1_555
Lu1_6 Pd3_4 2.913657 1_565
Lu1_6 Pd3_5 2.913657 1_565
Lu1_6 Pd2_7 2.913657 1_555
Lu1_6 Pd2_6 2.913657 1_555
Lu1_7 Pd0_7 2.793468 1_555
Lu1_7 Pd0_6 2.793468 1_556
Lu1_7 Pd3_5 2.913657 1_565
Lu1_7 Pd3_4 2.913657 1_566
Lu1_7 Pd2_7 2.913657 1_555
Lu1_7 Pd2_6 2.913657 1_556
Lu2_0 Pd3_0 2.793468 1_555
Lu2_0 Pd3_1 2.793468 1_555
Lu2_0 Pd1_4 2.913657 1_455
Lu2_0 Pd1_5 2.913657 1_455
Lu2_0 Pd0_0 2.913657 1_555
Lu2_0 Pd0_1 2.913657 1_555
Lu2_1 Pd3_1 2.793468 1_555
Lu2_1 Pd3_0 2.793468 1_556
Lu2_1 Pd1_5 2.913657 1_455
Lu2_1 Pd0_1 2.913657 1_555
Lu2_1 Pd1_4 2.913657 1_456
Lu2_1 Pd0_0 2.913657 1_556
Lu2_2 Pd3_2 2.793468 1_555
Lu2_2 Pd3_3 2.793468 1_555
Lu2_2 Pd1_7 2.913657 1_455
Lu2_2 Pd1_6 2.913657 1_455
Lu2_2 Pd0_3 2.913657 1_555
Lu2_2 Pd0_2 2.913657 1_555
Lu2_3 Pd3_3 2.793468 1_555
Lu2_3 Pd3_2 2.793468 1_556
Lu2_3 Pd1_7 2.913657 1_455
Lu2_3 Pd1_6 2.913657 1_456
Lu2_3 Pd0_3 2.913657 1_555
Lu2_3 Pd0_2 2.913657 1_556
Lu2_4 Pd3_5 2.793468 1_555
Lu2_4 Pd3_4 2.793468 1_555
Lu2_4 Pd1_0 2.913657 1_555
Lu2_4 Pd1_1 2.913657 1_555
Lu2_4 Pd0_4 2.913657 1_555
Lu2_4 Pd0_5 2.913657 1_555
Lu2_5 Pd3_5 2.793468 1_555
Lu2_5 Pd3_4 2.793468 1_556
Lu2_5 Pd1_1 2.913657 1_555
Lu2_5 Pd0_5 2.913657 1_555
Lu2_5 Pd1_0 2.913657 1_556
Lu2_5 Pd0_4 2.913657 1_556
Lu2_6 Pd3_6 2.793468 1_555
Lu2_6 Pd3_7 2.793468 1_555
Lu2_6 Pd1_2 2.913657 1_555
Lu2_6 Pd1_3 2.913657 1_555
Lu2_6 Pd0_7 2.913657 1_555
Lu2_6 Pd0_6 2.913657 1_555
Lu2_7 Pd3_7 2.793468 1_555
Lu2_7 Pd3_6 2.793468 1_556
Lu2_7 Pd1_3 2.913657 1_555
Lu2_7 Pd0_7 2.913657 1_555
Lu2_7 Pd1_2 2.913657 1_556
Lu2_7 Pd0_6 2.913657 1_556
Lu3_0 Pd2_0 2.793468 1_555
Lu3_0 Pd2_1 2.793468 1_555
Lu3_0 Pd1_0 2.913657 1_555
Lu3_0 Pd1_1 2.913657 1_555
Lu3_0 Pd0_4 2.913657 1_555
Lu3_0 Pd0_5 2.913657 1_555
Lu3_1 Pd2_1 2.793468 1_555
Lu3_1 Pd2_0 2.793468 1_556
Lu3_1 Pd0_5 2.913657 1_555
Lu3_1 Pd1_1 2.913657 1_555
Lu3_1 Pd1_0 2.913657 1_556
Lu3_1 Pd0_4 2.913657 1_556
Lu3_2 Pd2_3 2.793468 1_555
Lu3_2 Pd2_2 2.793468 1_555
Lu3_2 Pd1_3 2.913657 1_555
Lu3_2 Pd1_2 2.913657 1_555
Lu3_2 Pd0_7 2.913657 1_555
Lu3_2 Pd0_6 2.913657 1_555
Lu3_3 Pd2_3 2.793468 1_555
Lu3_3 Pd2_2 2.793468 1_556
Lu3_3 Pd1_3 2.913657 1_555
Lu3_3 Pd0_7 2.913657 1_555
Lu3_3 Pd1_2 2.913657 1_556
Lu3_3 Pd0_6 2.913657 1_556
Lu3_4 Pd2_5 2.793468 1_555
Lu3_4 Pd2_4 2.793468 1_555
Lu3_4 Pd0_1 2.913657 1_655
Lu3_4 Pd0_0 2.913657 1_655
Lu3_4 Pd1_4 2.913657 1_555
Lu3_4 Pd1_5 2.913657 1_555
Lu3_5 Pd2_5 2.793468 1_555
Lu3_5 Pd2_4 2.793468 1_556
Lu3_5 Pd0_1 2.913657 1_655
Lu3_5 Pd0_0 2.913657 1_656
Lu3_5 Pd1_5 2.913657 1_555
Lu3_5 Pd1_4 2.913657 1_556
Lu3_6 Pd2_7 2.793468 1_555
Lu3_6 Pd2_6 2.793468 1_555
Lu3_6 Pd1_6 2.913657 1_555
Lu3_6 Pd1_7 2.913657 1_555
Lu3_6 Pd0_2 2.913657 1_655
Lu3_6 Pd0_3 2.913657 1_655
Lu3_7 Pd2_7 2.793468 1_555
Lu3_7 Pd2_6 2.793468 1_556
Lu3_7 Pd0_3 2.913657 1_655
Lu3_7 Pd1_7 2.913657 1_555
Lu3_7 Pd1_6 2.913657 1_556
Lu3_7 Pd0_2 2.913657 1_656
Cd0_0 Pd2_6 2.973661 1_445
Cd0_0 Pd0_2 2.973661 1_545
Cd0_0 Pd1_4 2.973661 1_455
Cd0_0 Pd3_0 2.973661 1_555
Cd0_0 Lu2_0 3.344211 1_555
Cd0_0 Lu3_6 3.344211 1_445
Cd0_0 Lu0_4 3.344211 1_455
Cd0_0 Lu1_2 3.344211 1_545
Cd0_0 Lu2_1 3.344211 1_554
Cd0_0 Lu1_3 3.344211 1_544
Cd0_0 Lu0_5 3.344211 1_454
Cd0_0 Lu3_7 3.344211 1_444
Cd0_0 Cd0_1 3.575926 1_555
Cd0_0 Cd0_1 3.575926 1_554
Cd0_1 Pd2_7 2.973661 1_445
Cd0_1 Pd1_5 2.973661 1_455
Cd0_1 Pd0_3 2.973661 1_545
Cd0_1 Pd3_1 2.973661 1_555
Cd0_1 Lu1_3 3.344211 1_545
Cd0_1 Lu3_7 3.344211 1_445
Cd0_1 Lu2_1 3.344211 1_555
Cd0_1 Lu0_5 3.344211 1_455
Cd0_1 Lu3_6 3.344211 1_445
Cd0_1 Lu0_4 3.344211 1_455
Cd0_1 Lu2_0 3.344211 1_555
Cd0_1 Lu1_2 3.344211 1_545
Cd0_2 Pd2_4 2.973661 1_455
Cd0_2 Pd0_0 2.973661 1_555
Cd0_2 Pd3_2 2.973661 1_555
Cd0_2 Pd1_6 2.973661 1_455
Cd0_2 Lu3_4 3.344211 1_455
Cd0_2 Lu0_6 3.344211 1_455
Cd0_2 Lu1_0 3.344211 1_555
Cd0_2 Lu2_2 3.344211 1_555
Cd0_2 Lu1_1 3.344211 1_554
Cd0_2 Lu0_7 3.344211 1_454
Cd0_2 Lu3_5 3.344211 1_454
Cd0_2 Lu2_3 3.344211 1_554
Cd0_2 Cd0_3 3.575926 1_555
Cd0_2 Cd0_3 3.575926 1_554
Cd0_3 Pd2_5 2.973661 1_455
Cd0_3 Pd0_1 2.973661 1_555
Cd0_3 Pd3_3 2.973661 1_555
Cd0_3 Pd1_7 2.973661 1_455
Cd0_3 Lu1_1 3.344211 1_555
Cd0_3 Lu2_3 3.344211 1_555
Cd0_3 Lu0_7 3.344211 1_455
Cd0_3 Lu3_5 3.344211 1_455
Cd0_3 Lu3_4 3.344211 1_455
Cd0_3 Lu0_6 3.344211 1_455
Cd0_3 Lu1_0 3.344211 1_555
Cd0_3 Lu2_2 3.344211 1_555
Cd0_4 Pd2_2 2.973661 1_545
Cd0_4 Pd1_0 2.973661 1_555
Cd0_4 Pd0_6 2.973661 1_545
Cd0_4 Pd3_4 2.973661 1_555
Cd0_4 Lu2_4 3.344211 1_555
Cd0_4 Lu3_2 3.344211 1_545
Cd0_4 Lu1_6 3.344211 1_545
Cd0_4 Lu0_0 3.344211 1_555
Cd0_4 Lu3_3 3.344211 1_544
Cd0_4 Lu0_1 3.344211 1_554
Cd0_4 Lu1_7 3.344211 1_544
Cd0_4 Lu2_5 3.344211 1_554
Cd0_4 Cd0_5 3.575926 1_555
Cd0_4 Cd0_5 3.575926 1_554
Cd0_5 Pd2_3 2.973661 1_545
Cd0_5 Pd1_1 2.973661 1_555
Cd0_5 Pd0_7 2.973661 1_545
Cd0_5 Pd3_5 2.973661 1_555
Cd0_5 Lu2_5 3.344211 1_555
Cd0_5 Lu1_7 3.344211 1_545
Cd0_5 Lu3_3 3.344211 1_545
Cd0_5 Lu0_1 3.344211 1_555
Cd0_5 Lu2_4 3.344211 1_555
Cd0_5 Lu1_6 3.344211 1_545
Cd0_5 Lu3_2 3.344211 1_545
Cd0_5 Lu0_0 3.344211 1_555
Cd0_6 Pd0_4 2.973661 1_555
Cd0_6 Pd2_0 2.973661 1_555
Cd0_6 Pd1_2 2.973661 1_555
Cd0_6 Pd3_6 2.973661 1_555
Cd0_6 Lu3_0 3.344211 1_555
Cd0_6 Lu0_2 3.344211 1_555
Cd0_6 Lu2_6 3.344211 1_555
Cd0_6 Lu1_4 3.344211 1_555
Cd0_6 Lu3_1 3.344211 1_554
Cd0_6 Lu0_3 3.344211 1_554
Cd0_6 Lu1_5 3.344211 1_554
Cd0_6 Lu2_7 3.344211 1_554
Cd0_6 Cd0_7 3.575926 1_554
Cd0_6 Cd0_7 3.575926 1_555
Cd0_7 Pd0_5 2.973661 1_555
Cd0_7 Pd2_1 2.973661 1_555
Cd0_7 Pd1_3 2.973661 1_555
Cd0_7 Pd3_7 2.973661 1_555
Cd0_7 Lu1_5 3.344211 1_555
Cd0_7 Lu0_3 3.344211 1_555
Cd0_7 Lu3_1 3.344211 1_555
Cd0_7 Lu2_7 3.344211 1_555
Cd0_7 Lu3_0 3.344211 1_555
Cd0_7 Lu0_2 3.344211 1_555
Cd0_7 Lu2_6 3.344211 1_555
Cd0_7 Lu1_4 3.344211 1_555
Cd1_0 Pd0_0 2.973661 1_555
Cd1_0 Pd3_0 2.973661 1_555
Cd1_0 Pd1_0 2.973661 1_555
Cd1_0 Pd2_0 2.973661 1_555
Cd1_0 Lu2_0 3.344211 1_555
Cd1_0 Lu3_0 3.344211 1_555
Cd1_0 Lu1_0 3.344211 1_555
Cd1_0 Lu0_0 3.344211 1_555
Cd1_0 Lu1_1 3.344211 1_554
Cd1_0 Lu0_1 3.344211 1_554
Cd1_0 Lu2_1 3.344211 1_554
Cd1_0 Lu3_1 3.344211 1_554
Cd1_0 Cd1_1 3.575926 1_555
Cd1_0 Cd1_1 3.575926 1_554
Cd1_1 Pd3_1 2.973661 1_555
Cd1_1 Pd0_1 2.973661 1_555
Cd1_1 Pd1_1 2.973661 1_555
Cd1_1 Pd2_1 2.973661 1_555
Cd1_1 Lu1_1 3.344211 1_555
Cd1_1 Lu3_1 3.344211 1_555
Cd1_1 Lu2_1 3.344211 1_555
Cd1_1 Lu0_1 3.344211 1_555
Cd1_1 Lu2_0 3.344211 1_555
Cd1_1 Lu3_0 3.344211 1_555
Cd1_1 Lu1_0 3.344211 1_555
Cd1_1 Lu0_0 3.344211 1_555
Cd1_2 Pd3_2 2.973661 1_555
Cd1_2 Pd1_2 2.973661 1_555
Cd1_2 Pd0_2 2.973661 1_555
Cd1_2 Pd2_2 2.973661 1_555
Cd1_2 Lu1_2 3.344211 1_555
Cd1_2 Lu3_2 3.344211 1_555
Cd1_2 Lu0_2 3.344211 1_555
Cd1_2 Lu2_2 3.344211 1_555
Cd1_2 Lu3_3 3.344211 1_554
Cd1_2 Lu1_3 3.344211 1_554
Cd1_2 Lu0_3 3.344211 1_554
Cd1_2 Lu2_3 3.344211 1_554
Cd1_2 Cd1_3 3.575926 1_554
Cd1_2 Cd1_3 3.575926 1_555
Cd1_3 Pd3_3 2.973661 1_555
Cd1_3 Pd0_3 2.973661 1_555
Cd1_3 Pd1_3 2.973661 1_555
Cd1_3 Pd2_3 2.973661 1_555
Cd1_3 Lu2_3 3.344211 1_555
Cd1_3 Lu0_3 3.344211 1_555
Cd1_3 Lu1_3 3.344211 1_555
Cd1_3 Lu3_3 3.344211 1_555
Cd1_3 Lu1_2 3.344211 1_555
Cd1_3 Lu3_2 3.344211 1_555
Cd1_3 Lu0_2 3.344211 1_555
Cd1_3 Lu2_2 3.344211 1_555
Cd1_4 Pd0_4 2.973661 1_555
Cd1_4 Pd3_4 2.973661 1_555
Cd1_4 Pd2_4 2.973661 1_555
Cd1_4 Pd1_4 2.973661 1_555
Cd1_4 Lu2_4 3.344211 1_555
Cd1_4 Lu0_4 3.344211 1_555
Cd1_4 Lu1_4 3.344211 1_555
Cd1_4 Lu3_4 3.344211 1_555
Cd1_4 Lu0_5 3.344211 1_554
Cd1_4 Lu3_5 3.344211 1_554
Cd1_4 Lu2_5 3.344211 1_554
Cd1_4 Lu1_5 3.344211 1_554
Cd1_4 Cd1_5 3.575926 1_554
Cd1_4 Cd1_5 3.575926 1_555
Cd1_5 Pd0_5 2.973661 1_555
Cd1_5 Pd3_5 2.973661 1_555
Cd1_5 Pd2_5 2.973661 1_555
Cd1_5 Pd1_5 2.973661 1_555
Cd1_5 Lu2_5 3.344211 1_555
Cd1_5 Lu0_5 3.344211 1_555
Cd1_5 Lu1_5 3.344211 1_555
Cd1_5 Lu3_5 3.344211 1_555
Cd1_5 Lu2_4 3.344211 1_555
Cd1_5 Lu0_4 3.344211 1_555
Cd1_5 Lu1_4 3.344211 1_555
Cd1_5 Lu3_4 3.344211 1_555
Cd1_6 Pd3_6 2.973661 1_555
Cd1_6 Pd0_6 2.973661 1_555
Cd1_6 Pd1_6 2.973661 1_555
Cd1_6 Pd2_6 2.973661 1_555
Cd1_6 Lu1_6 3.344211 1_555
Cd1_6 Lu3_6 3.344211 1_555
Cd1_6 Lu2_6 3.344211 1_555
Cd1_6 Lu0_6 3.344211 1_555
Cd1_6 Lu0_7 3.344211 1_554
Cd1_6 Lu3_7 3.344211 1_554
Cd1_6 Lu1_7 3.344211 1_554
Cd1_6 Lu2_7 3.344211 1_554
Cd1_6 Cd1_7 3.575926 1_555
Cd1_6 Cd1_7 3.575926 1_554
Cd1_7 Pd3_7 2.973661 1_555
Cd1_7 Pd0_7 2.973661 1_555
Cd1_7 Pd1_7 2.973661 1_555
Cd1_7 Pd2_7 2.973661 1_555
Cd1_7 Lu1_7 3.344211 1_555
Cd1_7 Lu3_7 3.344211 1_555
Cd1_7 Lu0_7 3.344211 1_555
Cd1_7 Lu2_7 3.344211 1_555
Cd1_7 Lu1_6 3.344211 1_555
Cd1_7 Lu3_6 3.344211 1_555
Cd1_7 Lu2_6 3.344211 1_555
Cd1_7 Lu0_6 3.344211 1_555
Pd0_0 Pd1_4 2.830270 1_455
Pd0_1 Pd1_5 2.830270 1_455
Pd0_2 Pd1_6 2.830270 1_455
Pd0_3 Pd1_7 2.830270 1_455
Pd0_4 Pd1_0 2.830270 1_555
Pd0_5 Pd1_1 2.830270 1_555
Pd0_6 Pd1_2 2.830270 1_555
Pd0_7 Pd1_3 2.830270 1_555
Pd2_0 Pd3_2 2.830270 1_555
Pd2_1 Pd3_3 2.830270 1_555
Pd2_2 Pd3_0 2.830270 1_565
Pd2_3 Pd3_1 2.830270 1_565
Pd2_4 Pd3_6 2.830270 1_555
Pd2_5 Pd3_7 2.830270 1_555
Pd2_6 Pd3_4 2.830270 1_565
Pd2_7 Pd3_5 2.830270 1_565
