# generated using pymatgen
data_ZrMo
_symmetry_space_group_name_H-M   'P 1'
_cell_length_a   2.99824964
_cell_length_b   2.99824964
_cell_length_c   4.50266900
_cell_angle_alpha   90.00000000
_cell_angle_beta   90.00000000
_cell_angle_gamma   112.30504986
_symmetry_Int_Tables_number   1
_chemical_formula_structural   ZrMo
_chemical_formula_sum   'Zr1 Mo1'
_cell_volume   37.44812576
_cell_formula_units_Z   1
loop_
 _symmetry_equiv_pos_site_id
 _symmetry_equiv_pos_as_xyz
  1  'x, y, z'
loop_
 _atom_site_type_symbol
 _atom_site_label
 _atom_site_symmetry_multiplicity
 _atom_site_fract_x
 _atom_site_fract_y
 _atom_site_fract_z
 _atom_site_occupancy
  Zr  Zr0  1  0.50000000  0.50000000  0.50000000  1
  Mo  Mo0  1  0.00000000  0.00000000  0.00000000  1
loop_
_geom_bond_atom_site_label_1
_geom_bond_atom_site_label_2
_geom_bond_distance
_geom_bond_site_symmetry_2
Mo0 Zr0 2.803093 1_445
Mo0 Zr0 2.803093 1_444
Mo0 Zr0 2.803093 1_555
Mo0 Zr0 2.803093 1_554
