# generated using pymatgen
data_Mo8P9Br(N3O14)4
_symmetry_space_group_name_H-M   'P 1'
_cell_length_a   9.90666900
_cell_length_b   9.90666900
_cell_length_c   15.23634100
_cell_angle_alpha   90.00000000
_cell_angle_beta   90.00000000
_cell_angle_gamma   90.00000000
_symmetry_Int_Tables_number   1
_chemical_formula_structural   Mo8P9Br(N3O14)4
_chemical_formula_sum   'Mo8 P9 Br1 N12 O56'
_cell_volume   1495.32635999
_cell_formula_units_Z   1
loop_
 _symmetry_equiv_pos_site_id
 _symmetry_equiv_pos_as_xyz
  1  'x, y, z'
loop_
 _atom_site_type_symbol
 _atom_site_label
 _atom_site_symmetry_multiplicity
 _atom_site_fract_x
 _atom_site_fract_y
 _atom_site_fract_z
 _atom_site_occupancy
  Mo  Mo0  1  0.14826400  0.61852500  0.30398300  1
  Mo  Mo1  1  0.85173600  0.38147500  0.30398300  1
  Mo  Mo2  1  0.61852500  0.85173600  0.69601700  1
  Mo  Mo3  1  0.38147500  0.14826400  0.69601700  1
  Mo  Mo4  1  0.35505600  0.12121300  0.33852800  1
  Mo  Mo5  1  0.64494400  0.87878700  0.33852800  1
  Mo  Mo6  1  0.12121300  0.64494400  0.66147200  1
  Mo  Mo7  1  0.87878700  0.35505600  0.66147200  1
  P  P0  1  0.15035400  0.31307900  0.19427700  1
  P  P1  1  0.84964600  0.68692100  0.19427700  1
  P  P2  1  0.31307900  0.84964600  0.80572300  1
  P  P3  1  0.68692100  0.15035400  0.80572300  1
  P  P4  1  0.64161700  0.15694100  0.20036900  1
  P  P5  1  0.35838300  0.84305900  0.20036900  1
  P  P6  1  0.15694100  0.35838300  0.79963100  1
  P  P7  1  0.84305900  0.64161700  0.79963100  1
  P  P8  1  0.00000000  0.00000000  0.00000000  1
  Br  Br0  1  0.50000000  0.50000000  0.00000000  1
  N  N0  1  0.17802500  0.32601100  0.50447800  1
  N  N1  1  0.82197500  0.67398900  0.50447800  1
  N  N2  1  0.32601100  0.82197500  0.49552200  1
  N  N3  1  0.67398900  0.17802500  0.49552200  1
  N  N4  1  0.00000000  0.00000000  0.27718100  1
  N  N5  1  0.00000000  0.00000000  0.72281900  1
  N  N6  1  0.29006300  0.56173200  0.00934400  1
  N  N7  1  0.70993700  0.43826800  0.00934400  1
  N  N8  1  0.56173200  0.70993700  0.99065600  1
  N  N9  1  0.43826800  0.29006300  0.99065600  1
  N  N10  1  0.50000000  0.50000000  0.24866800  1
  N  N11  1  0.50000000  0.50000000  0.75133200  1
  O  O0  1  0.63395800  0.13109300  0.10051900  1
  O  O1  1  0.36604200  0.86890700  0.10051900  1
  O  O2  1  0.13109300  0.36604200  0.89948100  1
  O  O3  1  0.86890700  0.63395800  0.89948100  1
  O  O4  1  0.24402400  0.08517600  0.42436700  1
  O  O5  1  0.75597600  0.91482400  0.42436700  1
  O  O6  1  0.08517600  0.75597600  0.57563300  1
  O  O7  1  0.91482400  0.24402400  0.57563300  1
  O  O8  1  0.70222900  0.03708300  0.25018700  1
  O  O9  1  0.29777100  0.96291700  0.25018700  1
  O  O10  1  0.03708300  0.29777100  0.74981300  1
  O  O11  1  0.96291700  0.70222900  0.74981300  1
  O  O12  1  0.49054400  0.18273200  0.22117400  1
  O  O13  1  0.50945600  0.81726800  0.22117400  1
  O  O14  1  0.18273200  0.50945600  0.77882600  1
  O  O15  1  0.81726800  0.49054400  0.77882600  1
  O  O16  1  0.27769500  0.71300600  0.22060400  1
  O  O17  1  0.72230500  0.28699400  0.22060400  1
  O  O18  1  0.71300600  0.72230500  0.77939600  1
  O  O19  1  0.28699400  0.27769500  0.77939600  1
  O  O20  1  0.00000000  0.50000000  0.63228900  1
  O  O21  1  0.50000000  0.00000000  0.36771100  1
  O  O22  1  0.19648200  0.46027700  0.20829300  1
  O  O23  1  0.80351800  0.53972300  0.20829300  1
  O  O24  1  0.46027700  0.80351800  0.79170700  1
  O  O25  1  0.53972300  0.19648200  0.79170700  1
  O  O26  1  0.19331400  0.27833800  0.09936100  1
  O  O27  1  0.80668600  0.72166200  0.09936100  1
  O  O28  1  0.27833800  0.80668600  0.90063900  1
  O  O29  1  0.72166200  0.19331400  0.90063900  1
  O  O30  1  0.26680000  0.56022600  0.37852800  1
  O  O31  1  0.73320000  0.43977400  0.37852800  1
  O  O32  1  0.56022600  0.73320000  0.62147200  1
  O  O33  1  0.43977400  0.26680000  0.62147200  1
  O  O34  1  0.00000000  0.50000000  0.33248500  1
  O  O35  1  0.50000000  0.00000000  0.66751500  1
  O  O36  1  0.00437100  0.70035500  0.20372900  1
  O  O37  1  0.99562900  0.29964500  0.20372900  1
  O  O38  1  0.70035500  0.99562900  0.79627100  1
  O  O39  1  0.29964500  0.00437100  0.79627100  1
  O  O40  1  0.21632000  0.21868900  0.26193000  1
  O  O41  1  0.78368000  0.78131100  0.26193000  1
  O  O42  1  0.21868900  0.78368000  0.73807000  1
  O  O43  1  0.78131100  0.21632000  0.73807000  1
  O  O44  1  0.42899100  0.27148100  0.37607900  1
  O  O45  1  0.57100900  0.72851900  0.37607900  1
  O  O46  1  0.27148100  0.57100900  0.62392100  1
  O  O47  1  0.72851900  0.42899100  0.62392100  1
  O  O48  1  0.23203600  0.09922900  0.64012900  1
  O  O49  1  0.76796400  0.90077100  0.64012900  1
  O  O50  1  0.09922900  0.76796400  0.35987100  1
  O  O51  1  0.90077100  0.23203600  0.35987100  1
  O  O52  1  0.11846100  0.02361400  0.06415100  1
  O  O53  1  0.88153900  0.97638600  0.06415100  1
  O  O54  1  0.02361400  0.88153900  0.93584900  1
  O  O55  1  0.97638600  0.11846100  0.93584900  1
loop_
_geom_bond_atom_site_label_1
_geom_bond_atom_site_label_2
_geom_bond_distance
_geom_bond_site_symmetry_2
Mo0 O30 1.732790 1_555
Mo0 O50 1.775609 1_555
Mo0 O34 1.929944 1_555
Mo0 O16 2.033246 1_555
Mo0 O22 2.193526 1_555
Mo0 O36 2.241092 1_555
Mo1 O31 1.732790 1_555
Mo1 O51 1.775609 1_555
Mo1 O34 1.929944 1_655
Mo1 O17 2.033246 1_555
Mo1 O23 2.193526 1_555
Mo1 O37 2.241092 1_555
Mo2 O32 1.732790 1_555
Mo2 O49 1.775609 1_555
Mo2 O35 1.929944 1_565
Mo2 O18 2.033246 1_555
Mo2 O24 2.193526 1_555
Mo2 O38 2.241092 1_555
Mo3 O33 1.732790 1_555
Mo3 O48 1.775609 1_555
Mo3 O35 1.929944 1_555
Mo3 O19 2.033246 1_555
Mo3 O25 2.193526 1_555
Mo3 O39 2.241092 1_555
Mo4 O4 1.745821 1_555
Mo4 O44 1.754970 1_555
Mo4 O21 1.923931 1_555
Mo4 O40 2.045378 1_555
Mo4 O9 2.143121 1_545
Mo4 O12 2.317354 1_555
Mo5 O5 1.745821 1_555
Mo5 O45 1.754970 1_555
Mo5 O21 1.923931 1_565
Mo5 O41 2.045378 1_555
Mo5 O8 2.143121 1_565
Mo5 O13 2.317354 1_555
Mo6 O6 1.745821 1_555
Mo6 O46 1.754970 1_555
Mo6 O20 1.923931 1_555
Mo6 O42 2.045378 1_555
Mo6 O11 2.143121 1_455
Mo6 O14 2.317354 1_555
Mo7 O7 1.745821 1_555
Mo7 O47 1.754970 1_555
Mo7 O20 1.923931 1_655
Mo7 O43 2.045378 1_555
Mo7 O10 2.143121 1_655
Mo7 O15 2.317354 1_555
Br0 N8 2.172497 1_554
Br0 N7 2.172497 1_555
Br0 N9 2.172497 1_554
Br0 N6 2.172497 1_555
O0 P4 1.544613 1_555
O1 P5 1.544613 1_555
O2 P6 1.544613 1_555
O3 P7 1.544613 1_555
O8 P4 1.531864 1_555
O9 P5 1.531864 1_555
O10 P6 1.531864 1_555
O11 P7 1.531864 1_555
O12 P4 1.551021 1_555
O13 P5 1.551021 1_555
O14 P6 1.551021 1_555
O15 P7 1.551021 1_555
O16 P5 1.547245 1_555
O17 P4 1.547245 1_555
O18 P7 1.547245 1_555
O19 P6 1.547245 1_555
O22 P0 1.543017 1_555
O23 P1 1.543017 1_555
O24 P2 1.543017 1_555
O25 P3 1.543017 1_555
O26 P0 1.546284 1_555
O27 P1 1.546284 1_555
O28 P2 1.546284 1_555
O29 P3 1.546284 1_555
O36 P1 1.545301 1_455
O37 P0 1.545301 1_655
O38 P3 1.545301 1_565
O39 P2 1.545301 1_545
O40 P0 1.537523 1_555
O41 P1 1.537523 1_555
O42 P2 1.537523 1_555
O43 P3 1.537523 1_555
O52 P8 1.545095 1_555
O53 P8 1.545095 1_665
O54 P8 1.545095 1_566
O55 P8 1.545095 1_656
