# generated using pymatgen
data_KCu2SbSe3
_symmetry_space_group_name_H-M   'P 1'
_cell_length_a   10.99822400
_cell_length_b   6.79020600
_cell_length_c   19.92595477
_cell_angle_alpha   71.06366376
_cell_angle_beta   90.00000000
_cell_angle_gamma   90.00000000
_symmetry_Int_Tables_number   1
_chemical_formula_structural   KCu2SbSe3
_chemical_formula_sum   'K8 Cu16 Sb8 Se24'
_cell_volume   1407.53945055
_cell_formula_units_Z   8
loop_
 _symmetry_equiv_pos_site_id
 _symmetry_equiv_pos_as_xyz
  1  'x, y, z'
loop_
 _atom_site_type_symbol
 _atom_site_label
 _atom_site_symmetry_multiplicity
 _atom_site_fract_x
 _atom_site_fract_y
 _atom_site_fract_z
 _atom_site_occupancy
  K  K0  1  0.36749600  0.51468500  0.78603600  1
  K  K1  1  0.13250400  0.51468500  0.28603600  1
  K  K2  1  0.63250400  0.48531500  0.21396400  1
  K  K3  1  0.86749600  0.48531500  0.71396400  1
  K  K4  1  0.37109300  0.01055800  0.28899700  1
  K  K5  1  0.12890700  0.01055800  0.78899700  1
  K  K6  1  0.62890700  0.98944200  0.71100300  1
  K  K7  1  0.87109300  0.98944200  0.21100300  1
  Cu  Cu0  1  0.36318200  0.35272200  0.62953900  1
  Cu  Cu1  1  0.13681800  0.35272200  0.12953900  1
  Cu  Cu2  1  0.63681800  0.64727800  0.37046100  1
  Cu  Cu3  1  0.86318200  0.64727800  0.87046100  1
  Cu  Cu4  1  0.16897000  0.05666900  0.44498900  1
  Cu  Cu5  1  0.33103000  0.05666900  0.94498900  1
  Cu  Cu6  1  0.83103000  0.94333100  0.55501100  1
  Cu  Cu7  1  0.66897000  0.94333100  0.05501100  1
  Cu  Cu8  1  0.03687700  0.33915300  0.58211100  1
  Cu  Cu9  1  0.46312300  0.33915300  0.08211100  1
  Cu  Cu10  1  0.96312300  0.66084700  0.41788900  1
  Cu  Cu11  1  0.53687700  0.66084700  0.91788900  1
  Cu  Cu12  1  0.44980400  0.83238800  0.58522500  1
  Cu  Cu13  1  0.05019600  0.83238800  0.08522500  1
  Cu  Cu14  1  0.55019600  0.16761200  0.41477500  1
  Cu  Cu15  1  0.94980400  0.16761200  0.91477500  1
  Sb  Sb0  1  0.14420600  0.87976100  0.58983600  1
  Sb  Sb1  1  0.35579400  0.87976100  0.08983600  1
  Sb  Sb2  1  0.85579400  0.12023900  0.41016400  1
  Sb  Sb3  1  0.64420600  0.12023900  0.91016400  1
  Sb  Sb4  1  0.35433000  0.49372900  0.48248800  1
  Sb  Sb5  1  0.14567000  0.49372900  0.98248800  1
  Sb  Sb6  1  0.64567000  0.50627100  0.51751200  1
  Sb  Sb7  1  0.85433000  0.50627100  0.01751200  1
  Se  Se0  1  0.36758700  0.89991100  0.46437800  1
  Se  Se1  1  0.13241300  0.89991100  0.96437800  1
  Se  Se2  1  0.63241300  0.10008900  0.53562200  1
  Se  Se3  1  0.86758700  0.10008900  0.03562200  1
  Se  Se4  1  0.44249600  0.49145100  0.35741500  1
  Se  Se5  1  0.05750400  0.49145100  0.85741500  1
  Se  Se6  1  0.55750400  0.50854900  0.64258500  1
  Se  Se7  1  0.94249600  0.50854900  0.14258500  1
  Se  Se8  1  0.95175800  0.00009000  0.64846800  1
  Se  Se9  1  0.54824200  0.00009000  0.14846800  1
  Se  Se10  1  0.04824200  0.99991000  0.35153200  1
  Se  Se11  1  0.45175800  0.99991000  0.85153200  1
  Se  Se12  1  0.32830000  0.97876300  0.65912700  1
  Se  Se13  1  0.17170000  0.97876300  0.15912700  1
  Se  Se14  1  0.67170000  0.02123700  0.34087300  1
  Se  Se15  1  0.82830000  0.02123700  0.84087300  1
  Se  Se16  1  0.12755700  0.38766400  0.46405100  1
  Se  Se17  1  0.37244300  0.38766400  0.96405100  1
  Se  Se18  1  0.87244300  0.61233600  0.53594900  1
  Se  Se19  1  0.62755700  0.61233600  0.03594900  1
  Se  Se20  1  0.16748900  0.47207700  0.65778300  1
  Se  Se21  1  0.33251100  0.47207700  0.15778300  1
  Se  Se22  1  0.83251100  0.52792300  0.34221700  1
  Se  Se23  1  0.66748900  0.52792300  0.84221700  1
loop_
_geom_bond_atom_site_label_1
_geom_bond_atom_site_label_2
_geom_bond_distance
_geom_bond_site_symmetry_2
K0 Se12 3.367285 1_555
K0 Se17 3.367977 1_555
K0 Se11 3.437922 1_545
K0 Se20 3.454455 1_555
K0 Se23 3.494647 1_555
K0 Se6 3.551975 1_555
K0 Se5 3.677761 1_555
K1 Se13 3.367285 1_555
K1 Se16 3.367977 1_555
K1 Se10 3.437922 1_545
K1 Se21 3.454455 1_555
K1 Se22 3.494647 1_455
K1 Se7 3.551975 1_455
K1 Se4 3.677761 1_555
K2 Se14 3.367285 1_555
K2 Se19 3.367977 1_555
K2 Se9 3.437922 1_565
K2 Se22 3.454455 1_555
K2 Se21 3.494647 1_555
K2 Se4 3.551975 1_555
K2 Se7 3.677761 1_555
K3 Se15 3.367285 1_555
K3 Se18 3.367977 1_555
K3 Se8 3.437922 1_565
K3 Se23 3.454455 1_555
K3 Se20 3.494647 1_655
K3 Se5 3.551975 1_655
K3 Se6 3.677761 1_555
K4 Se0 3.327813 1_545
K4 Se21 3.393946 1_555
K4 Se9 3.430915 1_555
K4 Se4 3.432336 1_545
K4 Se13 3.451805 1_545
K4 Se14 3.471740 1_555
K4 Se10 3.756000 1_545
K5 Se1 3.327813 1_545
K5 Se20 3.393946 1_555
K5 Se8 3.430915 1_455
K5 Se5 3.432336 1_545
K5 Se12 3.451805 1_545
K5 Se15 3.471740 1_455
K5 Se11 3.756000 1_545
K6 Se2 3.327813 1_565
K6 Se23 3.393946 1_555
K6 Se11 3.430915 1_555
K6 Se6 3.432336 1_565
K6 Se15 3.451805 1_565
K6 Se12 3.471740 1_555
K6 Se8 3.756000 1_565
K7 Se3 3.327813 1_565
K7 Se22 3.393946 1_555
K7 Se10 3.430915 1_655
K7 Se7 3.432336 1_565
K7 Se14 3.451805 1_565
K7 Se13 3.471740 1_655
K7 Se9 3.756000 1_565
Cu0 Se20 2.429377 1_555
Cu0 Se6 2.435832 1_555
Cu0 Se12 2.443554 1_545
Cu0 Sb4 2.773269 1_555
Cu1 Se21 2.429377 1_555
Cu1 Se7 2.435832 1_455
Cu1 Se13 2.443554 1_545
Cu1 Sb5 2.773269 1_554
Cu2 Se22 2.429377 1_555
Cu2 Se4 2.435832 1_555
Cu2 Se14 2.443554 1_565
Cu2 Sb6 2.773269 1_555
Cu3 Se23 2.429377 1_555
Cu3 Se5 2.435832 1_655
Cu3 Se15 2.443554 1_565
Cu3 Sb7 2.773269 1_556
Cu4 Se0 2.405639 1_545
Cu4 Se10 2.417696 1_545
Cu4 Se16 2.440728 1_555
Cu4 Sb0 2.756296 1_545
Cu5 Se1 2.405639 1_545
Cu5 Se11 2.417696 1_545
Cu5 Se17 2.440728 1_555
Cu5 Sb1 2.756296 1_546
Cu6 Se2 2.405639 1_565
Cu6 Se8 2.417696 1_565
Cu6 Se18 2.440728 1_555
Cu6 Sb2 2.756296 1_565
Cu7 Se3 2.405639 1_565
Cu7 Se9 2.417696 1_565
Cu7 Se19 2.440728 1_555
Cu7 Sb3 2.756296 1_564
Cu8 Se8 2.439164 1_455
Cu8 Se20 2.456636 1_555
Cu8 Se16 2.476746 1_555
Cu8 Se18 2.539720 1_455
Cu9 Se9 2.439164 1_555
Cu9 Se21 2.456636 1_555
Cu9 Se17 2.476746 1_554
Cu9 Se19 2.539720 1_555
Cu10 Se10 2.439164 1_655
Cu10 Se22 2.456636 1_555
Cu10 Se18 2.476746 1_555
Cu10 Se16 2.539720 1_655
Cu11 Se11 2.439164 1_555
Cu11 Se23 2.456636 1_555
Cu11 Se19 2.476746 1_556
Cu11 Se17 2.539720 1_555
Cu12 Se12 2.427351 1_555
Cu12 Se6 2.431770 1_555
Cu12 Se0 2.471786 1_555
Cu12 Se2 2.673686 1_565
Cu13 Se13 2.427351 1_555
Cu13 Se7 2.431770 1_455
Cu13 Se1 2.471786 1_554
Cu13 Se3 2.673686 1_465
Cu14 Se14 2.427351 1_555
Cu14 Se4 2.431770 1_555
Cu14 Se2 2.471786 1_555
Cu14 Se0 2.673686 1_545
Cu15 Se15 2.427351 1_555
Cu15 Se5 2.431770 1_655
Cu15 Se3 2.471786 1_556
Cu15 Se1 2.673686 1_645
Sb0 Se12 2.657078 1_555
Sb0 Se20 2.670081 1_555
Sb0 Se8 2.670579 1_465
Sb1 Se13 2.657078 1_555
Sb1 Se21 2.670081 1_555
Sb1 Se9 2.670579 1_565
Sb2 Se14 2.657078 1_555
Sb2 Se22 2.670081 1_555
Sb2 Se10 2.670579 1_645
Sb3 Se15 2.657078 1_555
Sb3 Se23 2.670081 1_555
Sb3 Se11 2.670579 1_545
Sb4 Se16 2.654415 1_555
Sb4 Se0 2.666909 1_555
Sb4 Se4 2.678913 1_555
Sb5 Se17 2.654415 1_555
Sb5 Se1 2.666909 1_555
Sb5 Se5 2.678913 1_555
Sb6 Se18 2.654415 1_555
Sb6 Se2 2.666909 1_555
Sb6 Se6 2.678913 1_555
Sb7 Se19 2.654415 1_555
Sb7 Se3 2.666909 1_555
Sb7 Se7 2.678913 1_555
