# generated using pymatgen
data_LaIn2Ni9
_symmetry_space_group_name_H-M   'P 1'
_cell_length_a   8.30629000
_cell_length_b   8.30629000
_cell_length_c   4.86107200
_cell_angle_alpha   90.00000000
_cell_angle_beta   90.00000000
_cell_angle_gamma   90.00000000
_symmetry_Int_Tables_number   1
_chemical_formula_structural   LaIn2Ni9
_chemical_formula_sum   'La2 In4 Ni18'
_cell_volume   335.38700638
_cell_formula_units_Z   2
loop_
 _symmetry_equiv_pos_site_id
 _symmetry_equiv_pos_as_xyz
  1  'x, y, z'
loop_
 _atom_site_type_symbol
 _atom_site_label
 _atom_site_symmetry_multiplicity
 _atom_site_fract_x
 _atom_site_fract_y
 _atom_site_fract_z
 _atom_site_occupancy
  La  La0  1  0.50000000  0.50000000  0.00000000  1
  La  La1  1  0.00000000  0.00000000  0.00000000  1
  In  In0  1  0.62331700  0.12331700  0.00000000  1
  In  In1  1  0.37668300  0.87668300  0.00000000  1
  In  In2  1  0.12331700  0.37668300  0.00000000  1
  In  In3  1  0.87668300  0.62331700  0.00000000  1
  Ni  Ni0  1  0.50000000  0.00000000  0.50000000  1
  Ni  Ni1  1  0.00000000  0.50000000  0.50000000  1
  Ni  Ni2  1  0.70931600  0.56537000  0.50000000  1
  Ni  Ni3  1  0.29068400  0.43463000  0.50000000  1
  Ni  Ni4  1  0.20931600  0.93463000  0.50000000  1
  Ni  Ni5  1  0.79068400  0.06537000  0.50000000  1
  Ni  Ni6  1  0.43463000  0.70931600  0.50000000  1
  Ni  Ni7  1  0.56537000  0.29068400  0.50000000  1
  Ni  Ni8  1  0.06537000  0.20931600  0.50000000  1
  Ni  Ni9  1  0.93463000  0.79068400  0.50000000  1
  Ni  Ni10  1  0.82371300  0.32371300  0.75054400  1
  Ni  Ni11  1  0.17628700  0.67628700  0.75054400  1
  Ni  Ni12  1  0.32371300  0.17628700  0.75054400  1
  Ni  Ni13  1  0.67628700  0.82371300  0.75054400  1
  Ni  Ni14  1  0.17628700  0.67628700  0.24945600  1
  Ni  Ni15  1  0.82371300  0.32371300  0.24945600  1
  Ni  Ni16  1  0.67628700  0.82371300  0.24945600  1
  Ni  Ni17  1  0.32371300  0.17628700  0.24945600  1
loop_
_geom_bond_atom_site_label_1
_geom_bond_atom_site_label_2
_geom_bond_distance
_geom_bond_site_symmetry_2
La0 Ni6 3.037302 1_555
La0 Ni2 3.037302 1_554
La0 Ni2 3.037302 1_555
La0 Ni6 3.037302 1_554
La0 Ni7 3.037302 1_554
La0 Ni3 3.037302 1_554
La0 Ni7 3.037302 1_555
La0 Ni3 3.037302 1_555
La0 Ni11 3.293105 1_554
La0 Ni14 3.293105 1_555
La0 Ni13 3.293105 1_554
La0 Ni16 3.293105 1_555
La0 Ni12 3.293105 1_554
La0 Ni15 3.293105 1_555
La0 Ni17 3.293105 1_555
La0 Ni10 3.293105 1_554
La1 Ni9 3.037302 1_444
La1 Ni9 3.037302 1_445
La1 Ni5 3.037302 1_454
La1 Ni5 3.037302 1_455
La1 Ni4 3.037302 1_545
La1 Ni8 3.037302 1_555
La1 Ni4 3.037302 1_544
La1 Ni8 3.037302 1_554
La1 Ni12 3.293105 1_554
La1 Ni17 3.293105 1_555
La1 Ni15 3.293105 1_455
La1 Ni10 3.293105 1_454
La1 Ni16 3.293105 1_445
La1 Ni13 3.293105 1_444
La1 Ni14 3.293105 1_545
La1 Ni11 3.293105 1_544
In0 Ni15 2.647998 1_555
In0 Ni10 2.647998 1_554
In0 Ni16 2.803063 1_545
In0 Ni13 2.803063 1_544
In0 Ni17 2.803063 1_555
In0 Ni12 2.803063 1_554
In0 Ni0 2.829472 1_554
In0 Ni0 2.829472 1_555
In0 Ni7 2.841097 1_555
In0 Ni7 2.841097 1_554
In0 Ni5 2.841097 1_554
In0 Ni5 2.841097 1_555
In0 In1 2.897177 1_545
In0 La1 3.292238 1_655
In0 La0 3.292238 1_555
In1 Ni11 2.647998 1_554
In1 Ni14 2.647998 1_555
In1 Ni13 2.803063 1_554
In1 Ni16 2.803063 1_555
In1 Ni12 2.803063 1_564
In1 Ni17 2.803063 1_565
In1 Ni0 2.829472 1_565
In1 Ni0 2.829472 1_564
In1 Ni4 2.841097 1_555
In1 Ni4 2.841097 1_554
In1 Ni6 2.841097 1_555
In1 Ni6 2.841097 1_554
In1 La0 3.292238 1_555
In1 La1 3.292238 1_565
In2 Ni17 2.647998 1_555
In2 Ni12 2.647998 1_554
In2 Ni14 2.803063 1_555
In2 Ni15 2.803063 1_455
In2 Ni11 2.803063 1_554
In2 Ni10 2.803063 1_454
In2 Ni1 2.829472 1_555
In2 Ni1 2.829472 1_554
In2 Ni3 2.841097 1_554
In2 Ni8 2.841097 1_555
In2 Ni3 2.841097 1_555
In2 Ni8 2.841097 1_554
In2 In3 2.897177 1_455
In2 La0 3.292238 1_555
In2 La1 3.292238 1_555
In3 Ni13 2.647998 1_554
In3 Ni16 2.647998 1_555
In3 Ni15 2.803063 1_555
In3 Ni10 2.803063 1_554
In3 Ni11 2.803063 1_654
In3 Ni14 2.803063 1_655
In3 Ni1 2.829472 1_654
In3 Ni1 2.829472 1_655
In3 Ni2 2.841097 1_555
In3 Ni9 2.841097 1_555
In3 Ni2 2.841097 1_554
In3 Ni9 2.841097 1_554
In3 La1 3.292238 1_665
In3 La0 3.292238 1_555
Ni0 Ni16 2.402417 1_545
Ni0 Ni13 2.402417 1_545
Ni0 Ni17 2.402417 1_555
Ni0 Ni12 2.402417 1_555
Ni0 Ni7 2.474806 1_555
Ni0 Ni4 2.474806 1_545
Ni0 Ni6 2.474806 1_545
Ni0 Ni5 2.474806 1_555
Ni1 Ni14 2.402417 1_555
Ni1 Ni11 2.402417 1_555
Ni1 Ni15 2.402417 1_455
Ni1 Ni10 2.402417 1_455
Ni1 Ni3 2.474806 1_555
Ni1 Ni8 2.474806 1_555
Ni1 Ni9 2.474806 1_455
Ni1 Ni2 2.474806 1_455
Ni2 Ni6 2.575926 1_555
Ni2 Ni7 2.575926 1_555
Ni2 Ni9 2.646734 1_555
Ni3 Ni6 2.575926 1_555
Ni3 Ni7 2.575926 1_555
Ni3 Ni8 2.646734 1_555
Ni4 Ni9 2.575926 1_455
Ni4 Ni8 2.575926 1_565
Ni4 Ni6 2.646734 1_555
Ni5 Ni8 2.575926 1_655
Ni5 Ni9 2.575926 1_545
Ni5 Ni7 2.646734 1_555
Ni10 Ni15 2.425247 1_556
Ni10 Ni15 2.435825 1_555
Ni10 Ni5 2.482608 1_555
Ni10 Ni7 2.482608 1_555
Ni10 Ni8 2.532857 1_655
Ni10 Ni2 2.532857 1_555
Ni11 Ni14 2.425247 1_556
Ni11 Ni14 2.435825 1_555
Ni11 Ni4 2.482608 1_555
Ni11 Ni6 2.482608 1_555
Ni11 Ni3 2.532857 1_555
Ni11 Ni9 2.532857 1_455
Ni12 Ni17 2.425247 1_556
Ni12 Ni17 2.435825 1_555
Ni12 Ni8 2.482608 1_555
Ni12 Ni3 2.482608 1_555
Ni12 Ni4 2.532857 1_545
Ni12 Ni7 2.532857 1_555
Ni13 Ni16 2.425247 1_556
Ni13 Ni16 2.435825 1_555
Ni13 Ni9 2.482608 1_555
Ni13 Ni2 2.482608 1_555
Ni13 Ni5 2.532857 1_565
Ni13 Ni6 2.532857 1_555
Ni14 Ni4 2.482608 1_555
Ni14 Ni6 2.482608 1_555
Ni14 Ni3 2.532857 1_555
Ni14 Ni9 2.532857 1_455
Ni15 Ni5 2.482608 1_555
Ni15 Ni7 2.482608 1_555
Ni15 Ni8 2.532857 1_655
Ni15 Ni2 2.532857 1_555
Ni16 Ni9 2.482608 1_555
Ni16 Ni2 2.482608 1_555
Ni16 Ni5 2.532857 1_565
Ni16 Ni6 2.532857 1_555
Ni17 Ni8 2.482608 1_555
Ni17 Ni3 2.482608 1_555
Ni17 Ni4 2.532857 1_545
Ni17 Ni7 2.532857 1_555
