# generated using pymatgen
data_MgMn4(CuO4)3
_symmetry_space_group_name_H-M   'P 1'
_cell_length_a   6.37123631
_cell_length_b   6.37123631
_cell_length_c   6.37123631
_cell_angle_alpha   109.47122063
_cell_angle_beta   109.47122063
_cell_angle_gamma   109.47122063
_symmetry_Int_Tables_number   1
_chemical_formula_structural   MgMn4(CuO4)3
_chemical_formula_sum   'Mg1 Mn4 Cu3 O12'
_cell_volume   199.08990987
_cell_formula_units_Z   1
loop_
 _symmetry_equiv_pos_site_id
 _symmetry_equiv_pos_as_xyz
  1  'x, y, z'
loop_
 _atom_site_type_symbol
 _atom_site_label
 _atom_site_symmetry_multiplicity
 _atom_site_fract_x
 _atom_site_fract_y
 _atom_site_fract_z
 _atom_site_occupancy
  Mg  Mg0  1  0.00000000  0.00000000  0.00000000  1
  Mn  Mn0  1  0.00000000  0.50000000  0.00000000  1
  Mn  Mn1  1  0.50000000  0.00000000  0.00000000  1
  Mn  Mn2  1  0.50000000  0.50000000  0.50000000  1
  Mn  Mn3  1  0.00000000  0.00000000  0.50000000  1
  Cu  Cu0  1  0.50000000  0.00000000  0.50000000  1
  Cu  Cu1  1  0.50000000  0.50000000  0.00000000  1
  Cu  Cu2  1  0.00000000  0.50000000  0.50000000  1
  O  O0  1  0.30655800  0.13740500  0.83084700  1
  O  O1  1  0.69344200  0.86259500  0.16915300  1
  O  O2  1  0.69344200  0.52428900  0.83084700  1
  O  O3  1  0.47571100  0.16915300  0.30655800  1
  O  O4  1  0.16915300  0.30655800  0.47571100  1
  O  O5  1  0.83084700  0.30655800  0.13740500  1
  O  O6  1  0.86259500  0.16915300  0.69344200  1
  O  O7  1  0.83084700  0.69344200  0.52428900  1
  O  O8  1  0.30655800  0.47571100  0.16915300  1
  O  O9  1  0.52428900  0.83084700  0.69344200  1
  O  O10  1  0.16915300  0.69344200  0.86259500  1
  O  O11  1  0.13740500  0.83084700  0.30655800  1
loop_
_geom_bond_atom_site_label_1
_geom_bond_atom_site_label_2
_geom_bond_distance
_geom_bond_site_symmetry_2
Mg0 O3 2.575856 1_555
Mg0 O9 2.575856 1_444
Mg0 O10 2.575856 1_544
Mg0 O5 2.575856 1_455
Mg0 O11 2.575856 1_545
Mg0 O0 2.575856 1_554
Mg0 O2 2.575856 1_444
Mg0 O4 2.575856 1_555
Mg0 O7 2.575856 1_444
Mg0 O6 2.575856 1_454
Mg0 O8 2.575856 1_555
Mg0 O1 2.575856 1_445
Mn0 O5 1.977275 1_455
Mn0 O10 1.977275 1_554
Mn0 O6 1.977275 1_454
Mn0 O11 1.977275 1_555
Mn0 O8 1.977275 1_555
Mn0 O2 1.977275 1_454
Mn1 O5 1.977275 1_555
Mn1 O10 1.977275 1_544
Mn1 O3 1.977275 1_555
Mn1 O9 1.977275 1_544
Mn1 O0 1.977275 1_554
Mn1 O1 1.977275 1_545
Mn2 O7 1.977275 1_555
Mn2 O4 1.977275 1_555
Mn2 O3 1.977275 1_555
Mn2 O9 1.977275 1_555
Mn2 O8 1.977275 1_555
Mn2 O2 1.977275 1_555
Mn3 O11 1.977275 1_545
Mn3 O4 1.977275 1_555
Mn3 O7 1.977275 1_445
Mn3 O1 1.977275 1_445
Mn3 O6 1.977275 1_455
Mn3 O0 1.977275 1_555
Cu0 O3 1.890480 1_555
Cu0 O6 1.890480 1_555
Cu0 O11 1.890480 1_545
Cu0 O9 1.890480 1_545
Cu1 O0 1.890480 1_554
Cu1 O1 1.890480 1_555
Cu1 O2 1.890480 1_554
Cu1 O8 1.890480 1_555
Cu2 O7 1.890480 1_455
Cu2 O4 1.890480 1_555
Cu2 O5 1.890480 1_455
Cu2 O10 1.890480 1_555
