# generated using pymatgen
data_Li7Mn2(CoO4)3
_symmetry_space_group_name_H-M   'P 1'
_cell_length_a   7.60936982
_cell_length_b   7.60936982
_cell_length_c   12.00441239
_cell_angle_alpha   54.58107019
_cell_angle_beta   54.58107019
_cell_angle_gamma   22.92346837
_symmetry_Int_Tables_number   1
_chemical_formula_structural   Li7Mn2(CoO4)3
_chemical_formula_sum   'Li7 Mn2 Co3 O12'
_cell_volume   218.32748299
_cell_formula_units_Z   1
loop_
 _symmetry_equiv_pos_site_id
 _symmetry_equiv_pos_as_xyz
  1  'x, y, z'
loop_
 _atom_site_type_symbol
 _atom_site_label
 _atom_site_symmetry_multiplicity
 _atom_site_fract_x
 _atom_site_fract_y
 _atom_site_fract_z
 _atom_site_occupancy
  Li  Li0  1  0.32944900  0.32944900  0.26120100  1
  Li  Li1  1  0.67294200  0.67294200  0.73549300  1
  Li  Li2  1  0.99473300  0.99473300  0.26390600  1
  Li  Li3  1  0.33623000  0.33623000  0.74072900  1
  Li  Li4  1  0.00310700  0.00310700  0.74058600  1
  Li  Li5  1  0.66389100  0.66389100  0.25855500  1
  Li  Li6  1  0.33338700  0.33338700  0.49935200  1
  Mn  Mn0  1  0.00153700  0.00153700  0.99949800  1
  Mn  Mn1  1  0.33262800  0.33262800  0.99892400  1
  Co  Co0  1  0.66531300  0.66531300  0.00183600  1
  Co  Co1  1  0.99633700  0.99633700  0.49603000  1
  Co  Co2  1  0.67026300  0.67026300  0.50387700  1
  O  O0  1  0.49300800  0.49300800  0.88707800  1
  O  O1  1  0.81571500  0.81571500  0.38372900  1
  O  O2  1  0.16043200  0.16043200  0.88557800  1
  O  O3  1  0.50012100  0.50012100  0.38389200  1
  O  O4  1  0.15253600  0.15253600  0.39208400  1
  O  O5  1  0.82676700  0.82676700  0.88594500  1
  O  O6  1  0.16619800  0.16619800  0.61647900  1
  O  O7  1  0.50629200  0.50629200  0.11709200  1
  O  O8  1  0.85121200  0.85121200  0.61574400  1
  O  O9  1  0.17392200  0.17392200  0.11340000  1
  O  O10  1  0.84006200  0.84006200  0.11148300  1
  O  O11  1  0.51391800  0.51391800  0.60750900  1
loop_
_geom_bond_atom_site_label_1
_geom_bond_atom_site_label_2
_geom_bond_distance
_geom_bond_site_symmetry_2
Li0 O1 2.033591 1_455
Li0 O1 2.033591 1_545
Li0 O4 2.127928 1_555
Li0 O7 2.133856 1_555
Li0 O10 2.281487 1_545
Li0 O10 2.281487 1_455
Li1 O6 2.123121 1_565
Li1 O6 2.123121 1_655
Li1 O8 2.148457 1_555
Li1 O0 2.176707 1_555
Li1 O2 2.273694 1_565
Li1 O2 2.273694 1_655
Li2 O3 2.122356 1_655
Li2 O3 2.122356 1_565
Li2 O1 2.157801 1_555
Li2 O9 2.167123 1_665
Li2 O7 2.250083 1_655
Li2 O7 2.250083 1_565
Li3 O8 2.047175 1_545
Li3 O8 2.047175 1_455
Li3 O2 2.122856 1_555
Li3 O11 2.137462 1_555
Li3 O5 2.248152 1_455
Li3 O5 2.248152 1_545
Li4 O6 1.962323 1_555
Li4 O5 2.129468 1_445
Li4 O11 2.135365 1_455
Li4 O11 2.135365 1_545
Li4 O0 2.255727 1_545
Li4 O0 2.255727 1_455
Li5 O3 1.970735 1_555
Li5 O10 2.129523 1_555
Li5 O4 2.136215 1_655
Li5 O4 2.136215 1_565
Li5 O9 2.244273 1_565
Li5 O9 2.244273 1_655
Li6 O3 2.007250 1_555
Li6 O6 2.012110 1_555
Li6 O1 2.171420 1_545
Li6 O1 2.171420 1_455
Li6 O8 2.179135 1_455
Li6 O8 2.179135 1_545
Mn0 O2 1.911482 1_555
Mn0 O10 1.943856 1_446
Mn0 O0 2.080113 1_455
Mn0 O0 2.080113 1_545
Mn0 O7 2.098233 1_546
Mn0 O7 2.098233 1_456
Mn1 O9 1.909079 1_556
Mn1 O0 1.930382 1_555
Mn1 O5 2.067284 1_545
Mn1 O5 2.067284 1_455
Mn1 O10 2.074039 1_456
Mn1 O10 2.074039 1_546
Co0 O7 1.912791 1_555
Co0 O5 1.942238 1_554
Co0 O9 2.073617 1_565
Co0 O9 2.073617 1_655
Co0 O2 2.087962 1_564
Co0 O2 2.087962 1_654
Co1 O8 1.752610 1_555
Co1 O4 1.883237 1_665
Co1 O3 2.002960 1_655
Co1 O3 2.002960 1_565
Co1 O11 2.135667 1_655
Co1 O11 2.135667 1_565
Co2 O1 1.756737 1_555
Co2 O11 1.885344 1_555
Co2 O6 2.005068 1_565
Co2 O6 2.005068 1_655
Co2 O4 2.139381 1_655
Co2 O4 2.139381 1_565
