# generated using pymatgen
data_Ga2NiN3
_symmetry_space_group_name_H-M   'P 1'
_cell_length_a   5.51514918
_cell_length_b   5.53481706
_cell_length_c   5.17505400
_cell_angle_alpha   90.00000000
_cell_angle_beta   90.00000000
_cell_angle_gamma   120.11804549
_symmetry_Int_Tables_number   1
_chemical_formula_structural   Ga2NiN3
_chemical_formula_sum   'Ga4 Ni2 N6'
_cell_volume   136.64326392
_cell_formula_units_Z   2
loop_
 _symmetry_equiv_pos_site_id
 _symmetry_equiv_pos_as_xyz
  1  'x, y, z'
loop_
 _atom_site_type_symbol
 _atom_site_label
 _atom_site_symmetry_multiplicity
 _atom_site_fract_x
 _atom_site_fract_y
 _atom_site_fract_z
 _atom_site_occupancy
  Ga  Ga0  1  0.33478200  0.33005800  0.49496100  1
  Ga  Ga1  1  0.66521800  0.99527400  0.49496100  1
  Ga  Ga2  1  0.66521800  0.66994200  0.99496100  1
  Ga  Ga3  1  0.33478200  0.00472600  0.99496100  1
  Ni  Ni0  1  0.00000000  0.64589100  0.49794800  1
  Ni  Ni1  1  0.00000000  0.35410900  0.99794800  1
  N  N0  1  0.32873400  0.33480200  0.87238300  1
  N  N1  1  0.67126600  0.00606800  0.87238300  1
  N  N2  1  0.67126600  0.66519800  0.37238300  1
  N  N3  1  0.32873400  0.99393200  0.37238300  1
  N  N4  1  0.00000000  0.66925100  0.85536400  1
  N  N5  1  0.00000000  0.33074900  0.35536400  1
loop_
_geom_bond_atom_site_label_1
_geom_bond_atom_site_label_2
_geom_bond_distance
_geom_bond_site_symmetry_2
Ga0 N3 1.949950 1_545
Ga0 N0 1.953865 1_555
Ga0 N2 1.957662 1_555
Ga0 N5 1.984461 1_555
Ga1 N2 1.949940 1_555
Ga1 N1 1.953866 1_565
Ga1 N3 1.957668 1_555
Ga1 N5 1.984466 1_665
Ga2 N1 1.949950 1_565
Ga2 N2 1.953865 1_556
Ga2 N0 1.957662 1_555
Ga2 N4 1.984461 1_655
Ga3 N0 1.949940 1_555
Ga3 N3 1.953866 1_546
Ga3 N1 1.957668 1_555
Ga3 N4 1.984466 1_545
N0 Ni1 1.978668 1_555
N1 Ni1 1.978668 1_655
N2 Ni0 1.978668 1_655
N3 Ni0 1.978668 1_555
N4 Ni0 1.854161 1_555
N4 Ni1 1.893908 1_555
N5 Ni1 1.854161 1_554
N5 Ni0 1.893908 1_555
