# generated using pymatgen
data_MgZrAg2
_symmetry_space_group_name_H-M   'P 1'
_cell_length_a   11.80226111
_cell_length_b   11.80226111
_cell_length_c   11.80226111
_cell_angle_alpha   124.03986907
_cell_angle_beta   120.77014819
_cell_angle_gamma   85.90761266
_symmetry_Int_Tables_number   1
_chemical_formula_structural   MgZrAg2
_chemical_formula_sum   'Mg1 Zr1 Ag2'
_cell_volume   1115.85891026
_cell_formula_units_Z   1
loop_
 _symmetry_equiv_pos_site_id
 _symmetry_equiv_pos_as_xyz
  1  'x, y, z'
loop_
 _atom_site_type_symbol
 _atom_site_label
 _atom_site_symmetry_multiplicity
 _atom_site_fract_x
 _atom_site_fract_y
 _atom_site_fract_z
 _atom_site_occupancy
  Mg  Mg0  1  0.00000000  0.00000000  0.00000000  1
  Zr  Zr0  1  0.00000000  0.50000000  0.50000000  1
  Ag  Ag0  1  0.00000000  0.24289600  0.24289600  1
  Ag  Ag1  1  0.00000000  0.75710400  0.75710400  1
loop_
_geom_bond_atom_site_label_1
_geom_bond_atom_site_label_2
_geom_bond_distance
_geom_bond_site_symmetry_2
Ag0 Mg0 2.689927 1_555
Ag0 Zr0 2.847273 1_555
Ag1 Mg0 2.689927 1_566
Ag1 Zr0 2.847273 1_555
