# generated using pymatgen
data_ZrTiMo4
_symmetry_space_group_name_H-M   'P 1'
_cell_length_a   5.32989232
_cell_length_b   5.32989232
_cell_length_c   5.32989232
_cell_angle_alpha   60.00000000
_cell_angle_beta   60.00000000
_cell_angle_gamma   60.00000000
_symmetry_Int_Tables_number   1
_chemical_formula_structural   ZrTiMo4
_chemical_formula_sum   'Zr1 Ti1 Mo4'
_cell_volume   107.06322136
_cell_formula_units_Z   1
loop_
 _symmetry_equiv_pos_site_id
 _symmetry_equiv_pos_as_xyz
  1  'x, y, z'
loop_
 _atom_site_type_symbol
 _atom_site_label
 _atom_site_symmetry_multiplicity
 _atom_site_fract_x
 _atom_site_fract_y
 _atom_site_fract_z
 _atom_site_occupancy
  Zr  Zr0  1  0.00000000  0.00000000  0.00000000  1
  Ti  Ti0  1  0.25000000  0.25000000  0.25000000  1
  Mo  Mo0  1  0.62491300  0.62491300  0.12526000  1
  Mo  Mo1  1  0.62491300  0.12526000  0.62491300  1
  Mo  Mo2  1  0.12526000  0.62491300  0.62491300  1
  Mo  Mo3  1  0.62491300  0.62491300  0.62491300  1
loop_
_geom_bond_atom_site_label_1
_geom_bond_atom_site_label_2
_geom_bond_distance
_geom_bond_site_symmetry_2
Ti0 Zr0 3.263879 1_555
Ti0 Zr0 3.263879 1_556
Ti0 Zr0 3.263879 1_655
Ti0 Zr0 3.263879 1_565
Mo0 Mo3 2.663097 1_555
Mo0 Mo1 2.663097 1_555
Mo0 Mo2 2.663097 1_555
Mo0 Mo1 2.666796 1_564
Mo0 Mo3 2.666796 1_554
Mo0 Mo2 2.666796 1_654
Mo0 Ti0 3.124727 1_555
Mo0 Ti0 3.124731 1_565
Mo0 Ti0 3.124731 1_655
Mo0 Zr0 3.125122 1_655
Mo0 Zr0 3.125122 1_565
Mo0 Zr0 3.125127 1_665
Mo1 Mo3 2.663097 1_555
Mo1 Mo2 2.663097 1_555
Mo1 Mo2 2.666796 1_645
Mo1 Mo3 2.666796 1_545
Mo1 Ti0 3.124727 1_555
Mo1 Ti0 3.124731 1_556
Mo1 Ti0 3.124731 1_655
Mo1 Zr0 3.125122 1_655
Mo1 Zr0 3.125122 1_556
Mo1 Zr0 3.125127 1_656
Mo2 Mo3 2.663097 1_555
Mo2 Mo3 2.666796 1_455
Mo2 Ti0 3.124727 1_555
Mo2 Ti0 3.124731 1_556
Mo2 Ti0 3.124731 1_565
Mo2 Zr0 3.125122 1_565
Mo2 Zr0 3.125122 1_556
Mo2 Zr0 3.125127 1_566
Mo3 Ti0 3.124729 1_556
Mo3 Ti0 3.124729 1_565
Mo3 Ti0 3.124729 1_655
Mo3 Zr0 3.125124 1_566
Mo3 Zr0 3.125124 1_656
Mo3 Zr0 3.125124 1_665
