# generated using pymatgen
data_Yb5Pt3
_symmetry_space_group_name_H-M   'P 1'
_cell_length_a   8.40352464
_cell_length_b   8.40352464
_cell_length_c   6.27714500
_cell_angle_alpha   90.00000000
_cell_angle_beta   90.00000000
_cell_angle_gamma   120.00000501
_symmetry_Int_Tables_number   1
_chemical_formula_structural   Yb5Pt3
_chemical_formula_sum   'Yb10 Pt6'
_cell_volume   383.89789061
_cell_formula_units_Z   2
loop_
 _symmetry_equiv_pos_site_id
 _symmetry_equiv_pos_as_xyz
  1  'x, y, z'
loop_
 _atom_site_type_symbol
 _atom_site_label
 _atom_site_symmetry_multiplicity
 _atom_site_fract_x
 _atom_site_fract_y
 _atom_site_fract_z
 _atom_site_occupancy
  Yb  Yb0  1  0.66666700  0.33333300  0.00000000  1
  Yb  Yb1  1  0.33333300  0.66666700  0.00000000  1
  Yb  Yb2  1  0.33333300  0.66666700  0.50000000  1
  Yb  Yb3  1  0.66666700  0.33333300  0.50000000  1
  Yb  Yb4  1  0.73516100  0.73516100  0.75000000  1
  Yb  Yb5  1  0.26483900  0.00000000  0.75000000  1
  Yb  Yb6  1  0.00000000  0.26483900  0.75000000  1
  Yb  Yb7  1  0.26483900  0.26483900  0.25000000  1
  Yb  Yb8  1  0.73516100  0.00000000  0.25000000  1
  Yb  Yb9  1  0.00000000  0.73516100  0.25000000  1
  Pt  Pt0  1  0.38903500  0.38903500  0.75000000  1
  Pt  Pt1  1  0.61096500  0.00000000  0.75000000  1
  Pt  Pt2  1  0.00000000  0.61096500  0.75000000  1
  Pt  Pt3  1  0.61096500  0.61096500  0.25000000  1
  Pt  Pt4  1  0.38903500  0.00000000  0.25000000  1
  Pt  Pt5  1  0.00000000  0.38903500  0.25000000  1
loop_
_geom_bond_atom_site_label_1
_geom_bond_atom_site_label_2
_geom_bond_distance
_geom_bond_site_symmetry_2
Pt0 Yb6 2.892281 1_555
Pt0 Yb5 2.892281 1_555
Pt0 Yb4 2.908678 1_555
Pt0 Yb0 3.035979 1_556
Pt0 Yb1 3.035979 1_556
Pt0 Yb2 3.035979 1_555
Pt0 Yb3 3.035979 1_555
Pt0 Yb7 3.307554 1_555
Pt0 Yb7 3.307554 1_556
Pt1 Yb6 2.892281 1_655
Pt1 Yb4 2.892281 1_545
Pt1 Yb5 2.908678 1_555
Pt1 Yb0 3.035972 1_556
Pt1 Yb3 3.035972 1_555
Pt1 Yb1 3.035974 1_546
Pt1 Yb2 3.035974 1_545
Pt1 Yb8 3.307554 1_556
Pt1 Yb8 3.307554 1_555
Pt2 Yb5 2.892281 1_565
Pt2 Yb4 2.892281 1_455
Pt2 Yb6 2.908678 1_555
Pt2 Yb1 3.035972 1_556
Pt2 Yb2 3.035972 1_555
Pt2 Yb3 3.035974 1_455
Pt2 Yb0 3.035974 1_456
Pt2 Yb9 3.307554 1_556
Pt2 Yb9 3.307554 1_555
Pt3 Yb9 2.892281 1_655
Pt3 Yb8 2.892281 1_565
Pt3 Yb7 2.908678 1_555
Pt3 Yb1 3.035979 1_555
Pt3 Yb2 3.035979 1_555
Pt3 Yb3 3.035979 1_555
Pt3 Yb0 3.035979 1_555
Pt3 Yb4 3.307554 1_555
Pt3 Yb4 3.307554 1_554
Pt4 Yb9 2.892281 1_545
Pt4 Yb7 2.892281 1_555
Pt4 Yb8 2.908678 1_555
Pt4 Yb2 3.035972 1_545
Pt4 Yb1 3.035972 1_545
Pt4 Yb3 3.035974 1_555
Pt4 Yb0 3.035974 1_555
Pt4 Yb5 3.307554 1_554
Pt4 Yb5 3.307554 1_555
Pt5 Yb8 2.892281 1_455
Pt5 Yb7 2.892281 1_555
Pt5 Yb9 2.908678 1_555
Pt5 Yb3 3.035972 1_455
Pt5 Yb0 3.035972 1_455
Pt5 Yb1 3.035974 1_555
Pt5 Yb2 3.035974 1_555
Pt5 Yb6 3.307554 1_554
Pt5 Yb6 3.307554 1_555
