# generated using pymatgen
data_U(WC)4
_symmetry_space_group_name_H-M   'P 1'
_cell_length_a   8.41447100
_cell_length_b   8.41447100
_cell_length_c   3.13134600
_cell_angle_alpha   90.00000000
_cell_angle_beta   90.00000000
_cell_angle_gamma   90.00000000
_symmetry_Int_Tables_number   1
_chemical_formula_structural   U(WC)4
_chemical_formula_sum   'U2 W8 C8'
_cell_volume   221.70969979
_cell_formula_units_Z   2
loop_
 _symmetry_equiv_pos_site_id
 _symmetry_equiv_pos_as_xyz
  1  'x, y, z'
loop_
 _atom_site_type_symbol
 _atom_site_label
 _atom_site_symmetry_multiplicity
 _atom_site_fract_x
 _atom_site_fract_y
 _atom_site_fract_z
 _atom_site_occupancy
  U  U0  1  0.00000000  0.00000000  0.00000000  1
  U  U1  1  0.50000000  0.50000000  0.50000000  1
  W  W0  1  0.36175500  0.82518200  0.00000000  1
  W  W1  1  0.63824500  0.17481800  0.00000000  1
  W  W2  1  0.17481800  0.36175500  0.00000000  1
  W  W3  1  0.82518200  0.63824500  0.00000000  1
  W  W4  1  0.12124400  0.65966600  0.50000000  1
  W  W5  1  0.87875600  0.34033400  0.50000000  1
  W  W6  1  0.34033400  0.12124400  0.50000000  1
  W  W7  1  0.65966600  0.87875600  0.50000000  1
  C  C0  1  0.20898700  0.89942700  0.50000000  1
  C  C1  1  0.79101300  0.10057300  0.50000000  1
  C  C2  1  0.10057300  0.20898700  0.50000000  1
  C  C3  1  0.89942700  0.79101300  0.50000000  1
  C  C4  1  0.28017400  0.58990900  0.00000000  1
  C  C5  1  0.71982600  0.41009100  0.00000000  1
  C  C6  1  0.41009100  0.28017400  0.00000000  1
  C  C7  1  0.58990900  0.71982600  0.00000000  1
loop_
_geom_bond_atom_site_label_1
_geom_bond_atom_site_label_2
_geom_bond_distance
_geom_bond_site_symmetry_2
C0 W0 2.119914 1_556
C0 W0 2.119914 1_555
C0 W4 2.148315 1_555
C0 W6 2.169152 1_565
C0 U0 2.501975 1_566
C0 U0 2.501975 1_565
C1 W1 2.119914 1_555
C1 W1 2.119914 1_556
C1 W5 2.148315 1_555
C1 W7 2.169152 1_545
C1 U0 2.501975 1_655
C1 U0 2.501975 1_656
C2 W2 2.119914 1_555
C2 W2 2.119914 1_556
C2 W6 2.148315 1_555
C2 W5 2.169152 1_455
C2 U0 2.501975 1_555
C2 U0 2.501975 1_556
C3 W3 2.119914 1_556
C3 W3 2.119914 1_555
C3 W7 2.148315 1_555
C3 W4 2.169152 1_655
C3 U0 2.501975 1_666
C3 U0 2.501975 1_665
C4 W0 2.095336 1_555
C4 W2 2.114597 1_555
C4 W4 2.141090 1_555
C4 W4 2.141090 1_554
C4 U1 2.538728 1_555
C4 U1 2.538728 1_554
C5 W1 2.095336 1_555
C5 W3 2.114597 1_555
C5 W5 2.141090 1_554
C5 W5 2.141090 1_555
C5 U1 2.538728 1_555
C5 U1 2.538728 1_554
C6 W2 2.095336 1_555
C6 W1 2.114597 1_555
C6 W6 2.141090 1_555
C6 W6 2.141090 1_554
C6 U1 2.538728 1_555
C6 U1 2.538728 1_554
C7 W3 2.095336 1_555
C7 W0 2.114597 1_555
C7 W7 2.141090 1_555
C7 W7 2.141090 1_554
C7 U1 2.538728 1_555
C7 U1 2.538728 1_554
