# generated using pymatgen
data_SnTe4Pb3
_symmetry_space_group_name_H-M   'P 1'
_cell_length_a   4.59182350
_cell_length_b   4.59182350
_cell_length_c   13.01264258
_cell_angle_alpha   90.00000000
_cell_angle_beta   90.00000000
_cell_angle_gamma   90.00000000
_symmetry_Int_Tables_number   1
_chemical_formula_structural   SnTe4Pb3
_chemical_formula_sum   'Sn1 Te4 Pb3'
_cell_volume   274.36952653
_cell_formula_units_Z   1
loop_
 _symmetry_equiv_pos_site_id
 _symmetry_equiv_pos_as_xyz
  1  'x, y, z'
loop_
 _atom_site_type_symbol
 _atom_site_label
 _atom_site_symmetry_multiplicity
 _atom_site_fract_x
 _atom_site_fract_y
 _atom_site_fract_z
 _atom_site_occupancy
  Sn  Sn0  1  0.00000000  0.00000000  0.00000000  1
  Te  Te0  1  0.00000000  0.00000000  0.24707065  1
  Te  Te1  1  0.50000000  0.50000000  0.00000000  1
  Te  Te2  1  -0.00000000  0.00000000  0.75292935  1
  Te  Te3  1  0.50000000  0.50000000  0.50000000  1
  Pb  Pb0  1  0.50000000  0.50000000  0.75038847  1
  Pb  Pb1  1  0.00000000  0.00000000  0.50000000  1
  Pb  Pb2  1  0.50000000  0.50000000  0.24961153  1
loop_
_geom_bond_atom_site_label_1
_geom_bond_atom_site_label_2
_geom_bond_distance
_geom_bond_site_symmetry_2
Sn0 Te2 3.215042 1_554
Sn0 Te0 3.215042 1_555
Sn0 Te1 3.246910 1_555
Sn0 Te1 3.246910 1_455
Sn0 Te1 3.246910 1_445
Sn0 Te1 3.246910 1_545
Pb0 Te2 3.247078 1_555
Pb0 Te2 3.247078 1_565
Pb0 Te2 3.247078 1_655
Pb0 Te2 3.247078 1_665
Pb0 Te1 3.248106 1_556
Pb0 Te3 3.258216 1_555
Pb1 Te3 3.246910 1_555
Pb1 Te3 3.246910 1_545
Pb1 Te3 3.246910 1_445
Pb1 Te3 3.246910 1_455
Pb1 Te0 3.291279 1_555
Pb1 Te2 3.291279 1_555
Pb2 Te0 3.247078 1_565
Pb2 Te0 3.247078 1_665
Pb2 Te0 3.247078 1_555
Pb2 Te0 3.247078 1_655
Pb2 Te1 3.248106 1_555
Pb2 Te3 3.258216 1_555
