# generated using pymatgen
data_Sr2DyCu2(BiO4)2
_symmetry_space_group_name_H-M   'P 1'
_cell_length_a   15.52351709
_cell_length_b   15.52351709
_cell_length_c   15.52351709
_cell_angle_alpha   165.96557859
_cell_angle_beta   165.96557859
_cell_angle_gamma   19.89792978
_symmetry_Int_Tables_number   1
_chemical_formula_structural   Sr2DyCu2(BiO4)2
_chemical_formula_sum   'Sr2 Dy1 Cu2 Bi2 O8'
_cell_volume   219.96880887
_cell_formula_units_Z   1
loop_
 _symmetry_equiv_pos_site_id
 _symmetry_equiv_pos_as_xyz
  1  'x, y, z'
loop_
 _atom_site_type_symbol
 _atom_site_label
 _atom_site_symmetry_multiplicity
 _atom_site_fract_x
 _atom_site_fract_y
 _atom_site_fract_z
 _atom_site_occupancy
  Sr  Sr0  1  0.11358900  0.11358900  0.00000000  1
  Sr  Sr1  1  0.88641100  0.88641100  0.00000000  1
  Dy  Dy0  1  0.00000000  0.00000000  0.00000000  1
  Cu  Cu0  1  0.44779100  0.44779100  0.00000000  1
  Cu  Cu1  1  0.55220900  0.55220900  0.00000000  1
  Bi  Bi0  1  0.29700900  0.29700900  0.00000000  1
  Bi  Bi1  1  0.70299100  0.70299100  0.00000000  1
  O  O0  1  0.54854800  0.04854800  0.50000000  1
  O  O1  1  0.45145200  0.95145200  0.50000000  1
  O  O2  1  0.04854800  0.54854800  0.50000000  1
  O  O3  1  0.95145200  0.45145200  0.50000000  1
  O  O4  1  0.20066600  0.20066600  0.00000000  1
  O  O5  1  0.79933400  0.79933400  0.00000000  1
  O  O6  1  0.36628600  0.36628600  0.00000000  1
  O  O7  1  0.63371400  0.63371400  0.00000000  1
loop_
_geom_bond_atom_site_label_1
_geom_bond_atom_site_label_2
_geom_bond_distance
_geom_bond_site_symmetry_2
Dy0 O2 2.408453 1_544
Dy0 O0 2.408453 1_454
Dy0 O3 2.408453 1_455
Dy0 O2 2.408453 1_555
Dy0 O1 2.408453 1_444
Dy0 O1 2.408453 1_545
Dy0 O0 2.408453 1_555
Dy0 O3 2.408453 1_444
Cu0 O1 1.899771 1_555
Cu0 O3 1.899771 1_555
Cu0 O3 1.899771 1_454
Cu0 O1 1.899771 1_544
Cu0 O6 2.492435 1_555
Cu1 O2 1.899771 1_554
Cu1 O2 1.899771 1_655
Cu1 O0 1.899771 1_554
Cu1 O0 1.899771 1_565
Cu1 O7 2.492435 1_555
Bi0 O6 2.118501 1_555
Bi0 O5 2.682954 1_545
Bi0 O5 2.682954 1_455
Bi0 O5 2.682954 1_556
Bi0 O5 2.682954 1_444
Bi1 O7 2.118501 1_555
Bi1 O4 2.682954 1_666
Bi1 O4 2.682954 1_554
Bi1 O4 2.682954 1_565
Bi1 O4 2.682954 1_655
O0 Sr0 2.748194 1_656
O0 Sr0 2.748194 1_555
O1 Sr1 2.748194 1_455
O1 Sr1 2.748194 1_556
O2 Sr0 2.748194 1_566
O2 Sr0 2.748194 1_555
O3 Sr1 2.748194 1_556
O3 Sr1 2.748194 1_545
O4 Sr0 2.662828 1_555
O5 Sr1 2.662828 1_555
O6 Sr1 2.751715 1_556
O6 Sr1 2.751715 1_444
O6 Sr1 2.751715 1_545
O6 Sr1 2.751715 1_455
O7 Sr0 2.751715 1_655
O7 Sr0 2.751715 1_565
O7 Sr0 2.751715 1_554
O7 Sr0 2.751715 1_666
