# generated using pymatgen
data_CaAl2F10
_symmetry_space_group_name_H-M   'P 1'
_cell_length_a   5.55158512
_cell_length_b   5.55158512
_cell_length_c   7.26418994
_cell_angle_alpha   69.14579985
_cell_angle_beta   69.14579985
_cell_angle_gamma   71.72308819
_symmetry_Int_Tables_number   1
_chemical_formula_structural   CaAl2F10
_chemical_formula_sum   'Ca1 Al2 F10'
_cell_volume   190.98113875
_cell_formula_units_Z   1
loop_
 _symmetry_equiv_pos_site_id
 _symmetry_equiv_pos_as_xyz
  1  'x, y, z'
loop_
 _atom_site_type_symbol
 _atom_site_label
 _atom_site_symmetry_multiplicity
 _atom_site_fract_x
 _atom_site_fract_y
 _atom_site_fract_z
 _atom_site_occupancy
  Ca  Ca0  1  0.53986800  0.46013200  0.00000000  1
  Al  Al0  1  0.01647900  0.96938000  0.75182400  1
  Al  Al1  1  0.03062000  0.98352100  0.24817600  1
  F  F0  1  0.14428700  0.27864000  0.62730500  1
  F  F1  1  0.72136000  0.85571300  0.37269500  1
  F  F2  1  0.80248100  0.75025800  0.87789200  1
  F  F3  1  0.24974200  0.19751900  0.12210800  1
  F  F4  1  0.94399800  0.05600200  0.00000000  1
  F  F5  1  0.06288000  0.93712000  0.50000000  1
  F  F6  1  0.75259600  0.27656200  0.70381900  1
  F  F7  1  0.72343800  0.24740400  0.29618100  1
  F  F8  1  0.31352300  0.75727300  0.78192200  1
  F  F9  1  0.24272700  0.68647700  0.21807800  1
loop_
_geom_bond_atom_site_label_1
_geom_bond_atom_site_label_2
_geom_bond_distance
_geom_bond_site_symmetry_2
Ca0 F3 2.245320 1_555
Ca0 F2 2.245320 1_554
Ca0 F8 2.250845 1_554
Ca0 F9 2.250845 1_555
Ca0 F6 2.461595 1_554
Ca0 F7 2.461595 1_555
Ca0 F4 2.628685 1_555
Al0 F8 1.734718 1_555
Al0 F2 1.751729 1_455
Al0 F5 1.820323 1_555
Al0 F0 1.862993 1_565
Al0 F6 1.883957 1_465
Al0 F4 1.903325 1_466
Al1 F9 1.734718 1_555
Al1 F3 1.751729 1_565
Al1 F5 1.820323 1_555
Al1 F1 1.862993 1_455
Al1 F7 1.883957 1_465
Al1 F4 1.903325 1_465
