# generated using pymatgen
data_SmMg5
_symmetry_space_group_name_H-M   'P 1'
_cell_length_a   14.50367883
_cell_length_b   14.50367883
_cell_length_c   13.46889296
_cell_angle_alpha   77.29460313
_cell_angle_beta   77.29460313
_cell_angle_gamma   25.44712917
_symmetry_Int_Tables_number   1
_chemical_formula_structural   SmMg5
_chemical_formula_sum   'Sm8 Mg40'
_cell_volume   1186.04554783
_cell_formula_units_Z   8
loop_
 _symmetry_equiv_pos_site_id
 _symmetry_equiv_pos_as_xyz
  1  'x, y, z'
loop_
 _atom_site_type_symbol
 _atom_site_label
 _atom_site_symmetry_multiplicity
 _atom_site_fract_x
 _atom_site_fract_y
 _atom_site_fract_z
 _atom_site_occupancy
  Sm  Sm0_0  1  0.25000000  0.25000000  0.25000000  1
  Sm  Sm0_1  1  0.25000000  0.25000000  0.75000000  1
  Sm  Sm0_2  1  0.25000000  0.75000000  0.25000000  1
  Sm  Sm0_3  1  0.25000000  0.75000000  0.75000000  1
  Sm  Sm0_4  1  0.75000000  0.25000000  0.25000000  1
  Sm  Sm0_5  1  0.75000000  0.25000000  0.75000000  1
  Sm  Sm0_6  1  0.75000000  0.75000000  0.25000000  1
  Sm  Sm0_7  1  0.75000000  0.75000000  0.75000000  1
  Mg  Mg0_0  1  0.08710296  0.08710296  0.33521503  1
  Mg  Mg0_1  1  0.08710296  0.08710296  0.83521503  1
  Mg  Mg0_2  1  0.08710296  0.58710296  0.33521503  1
  Mg  Mg0_3  1  0.08710296  0.58710296  0.83521503  1
  Mg  Mg0_4  1  0.58710296  0.08710296  0.33521503  1
  Mg  Mg0_5  1  0.58710296  0.08710296  0.83521503  1
  Mg  Mg0_6  1  0.58710296  0.58710296  0.33521503  1
  Mg  Mg0_7  1  0.58710296  0.58710296  0.83521503  1
  Mg  Mg1_0  1  0.41545003  0.41545003  0.42149866  1
  Mg  Mg1_1  1  0.41545003  0.41545003  0.92149867  1
  Mg  Mg1_2  1  0.41545003  0.91545003  0.42149866  1
  Mg  Mg1_3  1  0.41545003  0.91545003  0.92149867  1
  Mg  Mg1_4  1  0.91545003  0.41545003  0.42149866  1
  Mg  Mg1_5  1  0.91545003  0.41545003  0.92149867  1
  Mg  Mg1_6  1  0.91545003  0.91545003  0.42149867  1
  Mg  Mg1_7  1  0.91545003  0.91545003  0.92149866  1
  Mg  Mg2_0  1  0.25000000  0.25000000  0.00000000  1
  Mg  Mg2_1  1  0.25000000  0.25000000  0.50000000  1
  Mg  Mg2_2  1  0.25000000  0.75000000  0.00000000  1
  Mg  Mg2_3  1  0.25000000  0.75000000  0.50000000  1
  Mg  Mg2_4  1  0.75000000  0.25000000  0.00000000  1
  Mg  Mg2_5  1  0.75000000  0.25000000  0.50000000  1
  Mg  Mg2_6  1  0.75000000  0.75000000  0.00000000  1
  Mg  Mg2_7  1  0.75000000  0.75000000  0.50000000  1
  Mg  Mg3_0  1  0.08454997  0.08454997  0.07850134  1
  Mg  Mg3_1  1  0.08454997  0.08454997  0.57850134  1
  Mg  Mg3_2  1  0.08454997  0.58454997  0.07850134  1
  Mg  Mg3_3  1  0.08454997  0.58454997  0.57850134  1
  Mg  Mg3_4  1  0.58454997  0.08454997  0.07850134  1
  Mg  Mg3_5  1  0.58454997  0.08454997  0.57850134  1
  Mg  Mg3_6  1  0.58454997  0.58454997  0.07850134  1
  Mg  Mg3_7  1  0.58454997  0.58454997  0.57850134  1
  Mg  Mg4_0  1  0.41289704  0.41289704  0.16478497  1
  Mg  Mg4_1  1  0.41289704  0.41289704  0.66478497  1
  Mg  Mg4_2  1  0.41289704  0.91289704  0.16478497  1
  Mg  Mg4_3  1  0.41289704  0.91289704  0.66478497  1
  Mg  Mg4_4  1  0.91289704  0.41289704  0.16478497  1
  Mg  Mg4_5  1  0.91289704  0.41289704  0.66478497  1
  Mg  Mg4_6  1  0.91289704  0.91289704  0.16478497  1
  Mg  Mg4_7  1  0.91289704  0.91289704  0.66478497  1
loop_
_geom_bond_atom_site_label_1
_geom_bond_atom_site_label_2
_geom_bond_distance
_geom_bond_site_symmetry_2
Sm0_0 Sm0_6 3.194398 1_455
Sm0_0 Sm0_6 3.194398 1_545
Sm0_1 Sm0_7 3.194398 1_545
Sm0_1 Sm0_7 3.194398 1_455
Sm0_2 Sm0_4 3.194398 1_555
Sm0_2 Sm0_4 3.194398 1_465
Sm0_3 Sm0_5 3.194398 1_465
Sm0_3 Sm0_5 3.194398 1_555
Mg0_0 Mg1_2 3.158758 1_545
Mg0_0 Mg1_4 3.158758 1_455
Mg0_0 Mg4_2 3.193695 1_545
Mg0_0 Mg4_4 3.193695 1_455
Mg0_0 Mg0_6 3.194398 1_545
Mg0_0 Mg0_6 3.194398 1_455
Mg0_0 Mg3_1 3.261269 1_555
Mg0_0 Mg2_5 3.329345 1_455
Mg0_0 Mg2_3 3.329345 1_545
Mg0_0 Sm0_4 3.349353 1_455
Mg0_0 Sm0_2 3.349353 1_545
Mg0_0 Mg3_0 3.474650 1_555
Mg0_1 Mg1_3 3.158758 1_545
Mg0_1 Mg1_5 3.158758 1_455
Mg0_1 Mg4_3 3.193695 1_545
Mg0_1 Mg4_5 3.193695 1_455
Mg0_1 Mg0_7 3.194398 1_455
Mg0_1 Mg0_7 3.194398 1_545
Mg0_1 Mg3_0 3.261269 1_556
Mg0_1 Mg2_4 3.329345 1_456
Mg0_1 Mg2_2 3.329345 1_546
Mg0_1 Sm0_5 3.349353 1_455
Mg0_1 Sm0_3 3.349353 1_545
Mg0_1 Mg3_1 3.474650 1_555
Mg0_2 Mg1_6 3.158758 1_455
Mg0_2 Mg1_0 3.158758 1_555
Mg0_2 Mg4_6 3.193695 1_455
Mg0_2 Mg4_0 3.193695 1_555
Mg0_2 Mg0_4 3.194398 1_465
Mg0_2 Mg0_4 3.194398 1_555
Mg0_2 Mg3_3 3.261269 1_555
Mg0_2 Mg2_1 3.329345 1_555
Mg0_2 Mg2_7 3.329345 1_455
Mg0_2 Sm0_0 3.349353 1_555
Mg0_2 Sm0_6 3.349353 1_455
Mg0_2 Mg3_2 3.474650 1_555
Mg0_3 Mg1_1 3.158758 1_555
Mg0_3 Mg1_7 3.158758 1_455
Mg0_3 Mg4_7 3.193695 1_455
Mg0_3 Mg4_1 3.193695 1_555
Mg0_3 Mg0_5 3.194398 1_465
Mg0_3 Mg0_5 3.194398 1_555
Mg0_3 Mg3_2 3.261269 1_556
Mg0_3 Mg2_0 3.329345 1_556
Mg0_3 Mg2_6 3.329345 1_456
Mg0_3 Sm0_7 3.349353 1_455
Mg0_3 Sm0_1 3.349353 1_555
Mg0_3 Mg3_3 3.474650 1_555
Mg0_4 Mg1_6 3.158758 1_545
Mg0_4 Mg1_0 3.158758 1_555
Mg0_4 Mg4_6 3.193695 1_545
Mg0_4 Mg4_0 3.193695 1_555
Mg0_4 Mg3_5 3.261269 1_555
Mg0_4 Mg2_1 3.329345 1_555
Mg0_4 Mg2_7 3.329345 1_545
Mg0_4 Sm0_0 3.349353 1_555
Mg0_4 Sm0_6 3.349353 1_545
Mg0_4 Mg3_4 3.474650 1_555
Mg0_5 Mg1_1 3.158758 1_555
Mg0_5 Mg1_7 3.158758 1_545
Mg0_5 Mg4_7 3.193695 1_545
Mg0_5 Mg4_1 3.193695 1_555
Mg0_5 Mg3_4 3.261269 1_556
Mg0_5 Mg2_0 3.329345 1_556
Mg0_5 Mg2_6 3.329345 1_546
Mg0_5 Sm0_7 3.349353 1_545
Mg0_5 Sm0_1 3.349353 1_555
Mg0_5 Mg3_5 3.474650 1_555
Mg0_6 Mg1_2 3.158758 1_555
Mg0_6 Mg1_4 3.158758 1_555
Mg0_6 Mg4_2 3.193695 1_555
Mg0_6 Mg4_4 3.193695 1_555
Mg0_6 Mg3_7 3.261269 1_555
Mg0_6 Mg2_5 3.329345 1_555
Mg0_6 Mg2_3 3.329345 1_555
Mg0_6 Sm0_4 3.349353 1_555
Mg0_6 Sm0_2 3.349353 1_555
Mg0_6 Mg3_6 3.474650 1_555
Mg0_7 Mg1_3 3.158758 1_555
Mg0_7 Mg1_5 3.158758 1_555
Mg0_7 Mg4_3 3.193695 1_555
Mg0_7 Mg4_5 3.193695 1_555
Mg0_7 Mg3_6 3.261269 1_556
Mg0_7 Mg2_4 3.329345 1_556
Mg0_7 Mg2_2 3.329345 1_556
Mg0_7 Sm0_5 3.349353 1_555
Mg0_7 Sm0_3 3.349353 1_555
Mg0_7 Mg3_7 3.474650 1_555
Mg1_0 Mg3_5 3.174868 1_555
Mg1_0 Mg3_3 3.174868 1_555
Mg1_0 Mg1_6 3.194398 1_455
Mg1_0 Mg1_6 3.194398 1_545
Mg1_0 Mg2_3 3.245454 1_555
Mg1_0 Mg2_5 3.245454 1_555
Mg1_0 Mg4_1 3.261269 1_555
Mg1_0 Sm0_2 3.334368 1_555
Mg1_0 Sm0_4 3.334368 1_555
Mg1_0 Mg4_0 3.474650 1_555
Mg1_1 Mg3_4 3.174868 1_556
Mg1_1 Mg3_2 3.174868 1_556
Mg1_1 Mg1_7 3.194398 1_455
Mg1_1 Mg1_7 3.194398 1_545
Mg1_1 Mg2_2 3.245454 1_556
Mg1_1 Mg2_4 3.245454 1_556
Mg1_1 Mg4_0 3.261269 1_556
Mg1_1 Sm0_3 3.334368 1_555
Mg1_1 Sm0_5 3.334368 1_555
Mg1_1 Mg4_1 3.474650 1_555
Mg1_2 Mg3_1 3.174868 1_565
Mg1_2 Mg3_7 3.174868 1_555
Mg1_2 Mg1_4 3.194398 1_465
Mg1_2 Mg1_4 3.194398 1_555
Mg1_2 Mg2_7 3.245454 1_555
Mg1_2 Mg2_1 3.245454 1_565
Mg1_2 Mg4_3 3.261269 1_555
Mg1_2 Sm0_6 3.334368 1_555
Mg1_2 Sm0_0 3.334368 1_565
Mg1_2 Mg4_2 3.474650 1_555
Mg1_3 Mg3_0 3.174868 1_566
Mg1_3 Mg3_6 3.174868 1_556
Mg1_3 Mg1_5 3.194398 1_555
Mg1_3 Mg1_5 3.194398 1_465
Mg1_3 Mg2_6 3.245454 1_556
Mg1_3 Mg2_0 3.245454 1_566
Mg1_3 Mg4_2 3.261269 1_556
Mg1_3 Sm0_7 3.334368 1_555
Mg1_3 Sm0_1 3.334368 1_565
Mg1_3 Mg4_3 3.474650 1_555
Mg1_4 Mg3_1 3.174868 1_655
Mg1_4 Mg3_7 3.174868 1_555
Mg1_4 Mg2_7 3.245454 1_555
Mg1_4 Mg2_1 3.245454 1_655
Mg1_4 Mg4_5 3.261269 1_555
Mg1_4 Sm0_6 3.334368 1_555
Mg1_4 Sm0_0 3.334368 1_655
Mg1_4 Mg4_4 3.474650 1_555
Mg1_5 Mg3_0 3.174868 1_656
Mg1_5 Mg3_6 3.174868 1_556
Mg1_5 Mg2_6 3.245454 1_556
Mg1_5 Mg2_0 3.245454 1_656
Mg1_5 Mg4_4 3.261269 1_556
Mg1_5 Sm0_7 3.334368 1_555
Mg1_5 Sm0_1 3.334368 1_655
Mg1_5 Mg4_5 3.474650 1_555
Mg1_6 Mg3_5 3.174868 1_565
Mg1_6 Mg3_3 3.174868 1_655
Mg1_6 Mg2_3 3.245454 1_655
Mg1_6 Mg2_5 3.245454 1_565
Mg1_6 Mg4_7 3.261269 1_555
Mg1_6 Sm0_2 3.334368 1_655
Mg1_6 Sm0_4 3.334368 1_565
Mg1_6 Mg4_6 3.474650 1_555
Mg1_7 Mg3_4 3.174868 1_566
Mg1_7 Mg3_2 3.174868 1_656
Mg1_7 Mg2_2 3.245454 1_656
Mg1_7 Mg2_4 3.245454 1_566
Mg1_7 Mg4_6 3.261269 1_556
Mg1_7 Sm0_5 3.334368 1_565
Mg1_7 Sm0_3 3.334368 1_655
Mg1_7 Mg4_7 3.474650 1_555
Mg2_0 Mg2_6 3.194398 1_545
Mg2_0 Mg2_6 3.194398 1_455
Mg2_0 Mg3_2 3.245454 1_555
Mg2_0 Mg3_4 3.245454 1_555
Mg2_0 Mg4_4 3.329345 1_455
Mg2_0 Mg4_2 3.329345 1_545
Mg2_0 Sm0_1 3.367223 1_554
Mg2_0 Sm0_0 3.367223 1_555
Mg2_1 Mg2_7 3.194398 1_545
Mg2_1 Mg2_7 3.194398 1_455
Mg2_1 Mg3_3 3.245454 1_555
Mg2_1 Mg3_5 3.245454 1_555
Mg2_1 Mg4_5 3.329345 1_455
Mg2_1 Mg4_3 3.329345 1_545
Mg2_1 Sm0_1 3.367223 1_555
Mg2_1 Sm0_0 3.367223 1_555
Mg2_2 Mg2_4 3.194398 1_465
Mg2_2 Mg2_4 3.194398 1_555
Mg2_2 Mg3_6 3.245454 1_555
Mg2_2 Mg3_0 3.245454 1_565
Mg2_2 Mg4_0 3.329345 1_555
Mg2_2 Mg4_6 3.329345 1_455
Mg2_2 Sm0_2 3.367223 1_555
Mg2_2 Sm0_3 3.367223 1_554
Mg2_3 Mg2_5 3.194398 1_465
Mg2_3 Mg2_5 3.194398 1_555
Mg2_3 Mg3_7 3.245454 1_555
Mg2_3 Mg3_1 3.245454 1_565
Mg2_3 Mg4_1 3.329345 1_555
Mg2_3 Mg4_7 3.329345 1_455
Mg2_3 Sm0_2 3.367223 1_555
Mg2_3 Sm0_3 3.367223 1_555
Mg2_4 Mg3_6 3.245454 1_555
Mg2_4 Mg3_0 3.245454 1_655
Mg2_4 Mg4_6 3.329345 1_545
Mg2_4 Mg4_0 3.329345 1_555
Mg2_4 Sm0_5 3.367223 1_554
Mg2_4 Sm0_4 3.367223 1_555
Mg2_5 Mg3_7 3.245454 1_555
Mg2_5 Mg3_1 3.245454 1_655
Mg2_5 Mg4_1 3.329345 1_555
Mg2_5 Mg4_7 3.329345 1_545
Mg2_5 Sm0_4 3.367223 1_555
Mg2_5 Sm0_5 3.367223 1_555
Mg2_6 Mg3_2 3.245454 1_655
Mg2_6 Mg3_4 3.245454 1_565
Mg2_6 Mg4_4 3.329345 1_555
Mg2_6 Mg4_2 3.329345 1_555
Mg2_6 Sm0_7 3.367223 1_554
Mg2_6 Sm0_6 3.367223 1_555
Mg2_7 Mg3_3 3.245454 1_655
Mg2_7 Mg3_5 3.245454 1_565
Mg2_7 Mg4_5 3.329345 1_555
Mg2_7 Mg4_3 3.329345 1_555
Mg2_7 Sm0_6 3.367223 1_555
Mg2_7 Sm0_7 3.367223 1_555
Mg3_0 Mg4_2 3.158758 1_545
Mg3_0 Mg4_4 3.158758 1_455
Mg3_0 Mg3_6 3.194398 1_455
Mg3_0 Mg3_6 3.194398 1_545
Mg3_0 Sm0_4 3.334368 1_455
Mg3_0 Sm0_2 3.334368 1_545
Mg3_1 Mg4_3 3.158758 1_545
Mg3_1 Mg4_5 3.158758 1_455
Mg3_1 Mg3_7 3.194398 1_545
Mg3_1 Mg3_7 3.194398 1_455
Mg3_1 Sm0_5 3.334368 1_455
Mg3_1 Sm0_3 3.334368 1_545
Mg3_2 Mg4_6 3.158758 1_455
Mg3_2 Mg4_0 3.158758 1_555
Mg3_2 Mg3_4 3.194398 1_465
Mg3_2 Mg3_4 3.194398 1_555
Mg3_2 Sm0_0 3.334368 1_555
Mg3_2 Sm0_6 3.334368 1_455
Mg3_3 Mg4_7 3.158758 1_455
Mg3_3 Mg4_1 3.158758 1_555
Mg3_3 Mg3_5 3.194398 1_465
Mg3_3 Mg3_5 3.194398 1_555
Mg3_3 Sm0_1 3.334368 1_555
Mg3_3 Sm0_7 3.334368 1_455
Mg3_4 Mg4_0 3.158758 1_555
Mg3_4 Mg4_6 3.158758 1_545
Mg3_4 Sm0_0 3.334368 1_555
Mg3_4 Sm0_6 3.334368 1_545
Mg3_5 Mg4_7 3.158758 1_545
Mg3_5 Mg4_1 3.158758 1_555
Mg3_5 Sm0_1 3.334368 1_555
Mg3_5 Sm0_7 3.334368 1_545
Mg3_6 Mg4_2 3.158758 1_555
Mg3_6 Mg4_4 3.158758 1_555
Mg3_6 Sm0_4 3.334368 1_555
Mg3_6 Sm0_2 3.334368 1_555
Mg3_7 Mg4_3 3.158758 1_555
Mg3_7 Mg4_5 3.158758 1_555
Mg3_7 Sm0_5 3.334368 1_555
Mg3_7 Sm0_3 3.334368 1_555
Mg4_0 Mg4_6 3.194398 1_455
Mg4_0 Mg4_6 3.194398 1_545
Mg4_0 Sm0_2 3.349353 1_555
Mg4_0 Sm0_4 3.349353 1_555
Mg4_1 Mg4_7 3.194398 1_545
Mg4_1 Mg4_7 3.194398 1_455
Mg4_1 Sm0_3 3.349353 1_555
Mg4_1 Sm0_5 3.349353 1_555
Mg4_2 Mg4_4 3.194398 1_465
Mg4_2 Mg4_4 3.194398 1_555
Mg4_2 Sm0_6 3.349353 1_555
Mg4_2 Sm0_0 3.349353 1_565
Mg4_3 Mg4_5 3.194398 1_465
Mg4_3 Mg4_5 3.194398 1_555
Mg4_3 Sm0_7 3.349353 1_555
Mg4_3 Sm0_1 3.349353 1_565
Mg4_4 Sm0_6 3.349353 1_555
Mg4_4 Sm0_0 3.349353 1_655
Mg4_5 Sm0_7 3.349353 1_555
Mg4_5 Sm0_1 3.349353 1_655
Mg4_6 Sm0_2 3.349353 1_655
Mg4_6 Sm0_4 3.349353 1_565
Mg4_7 Sm0_5 3.349353 1_565
Mg4_7 Sm0_3 3.349353 1_655
