# generated using pymatgen
data_TbAlGe
_symmetry_space_group_name_H-M   'P 1'
_cell_length_a   5.61802441
_cell_length_b   5.61802441
_cell_length_c   5.75486015
_cell_angle_alpha   90.00000000
_cell_angle_beta   90.00000000
_cell_angle_gamma   137.87316337
_symmetry_Int_Tables_number   1
_chemical_formula_structural   TbAlGe
_chemical_formula_sum   'Tb2 Al2 Ge2'
_cell_volume   121.83674514
_cell_formula_units_Z   2
loop_
 _symmetry_equiv_pos_site_id
 _symmetry_equiv_pos_as_xyz
  1  'x, y, z'
loop_
 _atom_site_type_symbol
 _atom_site_label
 _atom_site_symmetry_multiplicity
 _atom_site_fract_x
 _atom_site_fract_y
 _atom_site_fract_z
 _atom_site_occupancy
  Tb  Tb0  1  0.68969371  0.31030629  0.25000000  1
  Tb  Tb1  1  0.31030629  0.68969371  0.75000000  1
  Al  Al0  1  0.00000000  0.00000000  0.00000000  1
  Al  Al1  1  0.00000000  0.00000000  0.50000000  1
  Ge  Ge0  1  0.39484477  0.60515523  0.25000000  1
  Ge  Ge1  1  0.60515523  0.39484477  0.75000000  1
loop_
_geom_bond_atom_site_label_1
_geom_bond_atom_site_label_2
_geom_bond_distance
_geom_bond_site_symmetry_2
Al0 Ge1 2.713384 1_554
Al0 Ge0 2.713384 1_555
Al0 Ge1 2.713384 1_444
Al0 Ge0 2.713384 1_445
Al0 Tb1 3.178500 1_444
Al0 Tb1 3.178500 1_554
Al0 Tb0 3.178500 1_445
Al0 Tb0 3.178500 1_555
Al1 Ge1 2.713384 1_555
Al1 Ge0 2.713384 1_555
Al1 Ge1 2.713384 1_445
Al1 Ge0 2.713384 1_445
Al1 Tb1 3.178500 1_555
Al1 Tb0 3.178500 1_555
Al1 Tb1 3.178500 1_445
Al1 Tb0 3.178500 1_445
Ge0 Tb0 2.950247 1_455
Ge0 Tb0 2.950247 1_565
Ge0 Tb1 3.010868 1_554
Ge0 Tb1 3.010868 1_555
Ge0 Tb0 3.091577 1_555
Ge1 Tb1 2.950247 1_545
Ge1 Tb1 2.950247 1_655
Ge1 Tb0 3.010868 1_555
Ge1 Tb0 3.010868 1_556
Ge1 Tb1 3.091577 1_555
