# generated using pymatgen
data_Li3(CoO2)4
_symmetry_space_group_name_H-M   'P 1'
_cell_length_a   5.73667394
_cell_length_b   10.32706196
_cell_length_c   5.73896101
_cell_angle_alpha   106.17931077
_cell_angle_beta   60.61999514
_cell_angle_gamma   105.70402585
_symmetry_Int_Tables_number   1
_chemical_formula_structural   Li3(CoO2)4
_chemical_formula_sum   'Li6 Co8 O16'
_cell_volume   280.86200672
_cell_formula_units_Z   2
loop_
 _symmetry_equiv_pos_site_id
 _symmetry_equiv_pos_as_xyz
  1  'x, y, z'
loop_
 _atom_site_type_symbol
 _atom_site_label
 _atom_site_symmetry_multiplicity
 _atom_site_fract_x
 _atom_site_fract_y
 _atom_site_fract_z
 _atom_site_occupancy
  Li  Li0  1  0.50969500  0.00754100  0.99820400  1
  Li  Li1  1  0.99030600  0.49245900  0.50179700  1
  Li  Li2  1  0.00058500  0.00510000  0.50235800  1
  Li  Li3  1  0.49941700  0.49490200  0.99764200  1
  Li  Li4  1  0.50511300  0.00160300  0.49965300  1
  Li  Li5  1  0.99488700  0.49839700  0.00034600  1
  Co  Co0  1  0.74999900  0.25000000  0.75000000  1
  Co  Co1  1  0.25000000  0.75000000  0.25000000  1
  Co  Co2  1  0.25000100  0.75000000  0.75000000  1
  Co  Co3  1  0.75000100  0.75000000  0.74999900  1
  Co  Co4  1  0.75000000  0.75000000  0.24999900  1
  Co  Co5  1  0.75000000  0.25000000  0.25000000  1
  Co  Co6  1  0.25000100  0.25000000  0.24999900  1
  Co  Co7  1  0.25000100  0.25000000  0.74999900  1
  O  O0  1  0.37798900  0.13327200  0.37615400  1
  O  O1  1  0.85881000  0.63694200  0.89960900  1
  O  O2  1  0.12200900  0.36672800  0.12384800  1
  O  O3  1  0.64119700  0.86305800  0.60038900  1
  O  O4  1  0.87691300  0.14116600  0.39050000  1
  O  O5  1  0.37215800  0.64730500  0.88841800  1
  O  O6  1  0.10516300  0.36033400  0.62900200  1
  O  O7  1  0.60710300  0.85451400  0.13738700  1
  O  O8  1  0.87600100  0.13931800  0.87285400  1
  O  O9  1  0.38751400  0.65032700  0.37962900  1
  O  O10  1  0.62399500  0.36068200  0.62714600  1
  O  O11  1  0.11248400  0.84967200  0.12037400  1
  O  O12  1  0.39483300  0.13966600  0.87099600  1
  O  O13  1  0.89289300  0.64548800  0.36261700  1
  O  O14  1  0.62308800  0.35883400  0.10950000  1
  O  O15  1  0.12784300  0.85269400  0.61157900  1
loop_
_geom_bond_atom_site_label_1
_geom_bond_atom_site_label_2
_geom_bond_distance
_geom_bond_site_symmetry_2
Li0 O8 2.073526 1_555
Li0 O0 2.077271 1_556
Li0 O12 2.083922 1_555
Li0 O3 2.242481 1_545
Li0 O7 2.251035 1_546
Li0 O11 2.323841 1_546
Li1 O10 2.073545 1_555
Li1 O2 2.077267 1_655
Li1 O6 2.083891 1_655
Li1 O1 2.242469 1_555
Li1 O13 2.251059 1_555
Li1 O9 2.323825 1_655
Li2 O8 2.087048 1_455
Li2 O4 2.092645 1_455
Li2 O3 2.098450 1_445
Li2 O0 2.099605 1_555
Li2 O11 2.238354 1_545
Li2 O15 2.241388 1_545
Li3 O10 2.087057 1_555
Li3 O14 2.092658 1_556
Li3 O1 2.098459 1_555
Li3 O2 2.099630 1_556
Li3 O9 2.238349 1_556
Li3 O5 2.241376 1_555
Li4 O12 2.108756 1_555
Li4 O0 2.112850 1_555
Li4 O3 2.121131 1_545
Li4 O7 2.121243 1_545
Li4 O4 2.132365 1_555
Li4 O15 2.201416 1_545
Li5 O6 2.108760 1_654
Li5 O2 2.112854 1_655
Li5 O1 2.121107 1_554
Li5 O13 2.121272 1_555
Li5 O14 2.132361 1_555
Li5 O5 2.201414 1_654
Co0 O8 1.929381 1_555
Co0 O10 1.929389 1_555
Co0 O14 1.930481 1_556
Co0 O4 1.930481 1_555
Co0 O6 1.930730 1_655
Co0 O12 1.930738 1_555
Co1 O15 1.915949 1_555
Co1 O5 1.915966 1_554
Co1 O7 1.916256 1_555
Co1 O13 1.916265 1_455
Co1 O11 1.917652 1_555
Co1 O9 1.917664 1_555
Co2 O5 1.914389 1_555
Co2 O15 1.914398 1_555
Co2 O9 1.942886 1_555
Co2 O11 1.942896 1_556
Co2 O1 2.094329 1_455
Co2 O3 2.094350 1_555
Co3 O3 1.992234 1_555
Co3 O1 1.992254 1_555
Co3 O15 1.997414 1_655
Co3 O5 1.997422 1_555
Co3 O13 2.032963 1_555
Co3 O7 2.032996 1_556
Co4 O13 1.908427 1_555
Co4 O7 1.908435 1_555
Co4 O1 1.910747 1_554
Co4 O3 1.910748 1_555
Co4 O11 1.920214 1_655
Co4 O9 1.920226 1_555
Co5 O14 1.991852 1_555
Co5 O4 1.991856 1_555
Co5 O10 2.011754 1_555
Co5 O8 2.011754 1_554
Co5 O2 2.027161 1_655
Co5 O0 2.027169 1_555
Co6 O2 2.000867 1_555
Co6 O0 2.000867 1_555
Co6 O14 2.000928 1_555
Co6 O4 2.000932 1_455
Co6 O12 2.019338 1_554
Co6 O6 2.019339 1_555
Co7 O12 1.997576 1_555
Co7 O6 1.997601 1_555
Co7 O10 2.010976 1_555
Co7 O8 2.011002 1_455
Co7 O0 2.021750 1_555
Co7 O2 2.021766 1_556
