# generated using pymatgen
data_EuBrCl
_symmetry_space_group_name_H-M   'P 1'
_cell_length_a   4.53471328
_cell_length_b   7.83440084
_cell_length_c   9.08518649
_cell_angle_alpha   90.00000000
_cell_angle_beta   90.00000000
_cell_angle_gamma   90.00000000
_symmetry_Int_Tables_number   1
_chemical_formula_structural   EuBrCl
_chemical_formula_sum   'Eu4 Br4 Cl4'
_cell_volume   322.76725389
_cell_formula_units_Z   4
loop_
 _symmetry_equiv_pos_site_id
 _symmetry_equiv_pos_as_xyz
  1  'x, y, z'
loop_
 _atom_site_type_symbol
 _atom_site_label
 _atom_site_symmetry_multiplicity
 _atom_site_fract_x
 _atom_site_fract_y
 _atom_site_fract_z
 _atom_site_occupancy
  Eu  Eu0  1  0.75000000  0.76812025  0.87471306  1
  Eu  Eu1  1  0.25000000  0.23187975  0.12528694  1
  Eu  Eu2  1  0.25000000  0.73187975  0.37471306  1
  Eu  Eu3  1  0.75000000  0.26812025  0.62528694  1
  Br  Br0  1  0.75000000  0.02751577  0.33181266  1
  Br  Br1  1  0.25000000  0.97248423  0.66818734  1
  Br  Br2  1  0.25000000  0.47248423  0.83181266  1
  Br  Br3  1  0.75000000  0.52751577  0.16818734  1
  Cl  Cl0  1  0.75000000  0.64415777  0.56600850  1
  Cl  Cl1  1  0.25000000  0.35584223  0.43399150  1
  Cl  Cl2  1  0.25000000  0.85584223  0.06600850  1
  Cl  Cl3  1  0.75000000  0.14415777  0.93399150  1
loop_
_geom_bond_atom_site_label_1
_geom_bond_atom_site_label_2
_geom_bond_distance
_geom_bond_site_symmetry_2
Br0 Eu2 3.264549 1_645
Br0 Eu2 3.264549 1_545
Br0 Eu3 3.265300 1_555
Br0 Eu1 3.350362 1_655
Br0 Eu1 3.350362 1_555
Br1 Eu3 3.264549 1_465
Br1 Eu3 3.264549 1_565
Br1 Eu2 3.265300 1_555
Br1 Eu0 3.350362 1_455
Br1 Eu0 3.350362 1_555
Br2 Eu0 3.264549 1_455
Br2 Eu0 3.264549 1_555
Br2 Eu1 3.265300 1_556
Br2 Eu3 3.350362 1_555
Br2 Eu3 3.350362 1_455
Br3 Eu1 3.264549 1_655
Br3 Eu1 3.264549 1_555
Br3 Eu0 3.265300 1_554
Br3 Eu2 3.350362 1_655
Br3 Eu2 3.350362 1_555
Cl0 Eu2 2.938317 1_555
Cl0 Eu2 2.938317 1_655
Cl0 Eu0 2.968025 1_555
Cl0 Eu3 2.994850 1_555
Cl1 Eu3 2.938317 1_555
Cl1 Eu3 2.938317 1_455
Cl1 Eu1 2.968025 1_555
Cl1 Eu2 2.994850 1_555
Cl2 Eu0 2.938317 1_454
Cl2 Eu0 2.938317 1_554
Cl2 Eu2 2.968025 1_555
Cl2 Eu1 2.994850 1_565
Cl3 Eu1 2.938317 1_656
Cl3 Eu1 2.938317 1_556
Cl3 Eu3 2.968025 1_555
Cl3 Eu0 2.994850 1_545
