# generated using pymatgen
data_Al2(CuSe2)3
_symmetry_space_group_name_H-M   'P 1'
_cell_length_a   17.27815202
_cell_length_b   17.27815202
_cell_length_c   17.27815202
_cell_angle_alpha   161.75207559
_cell_angle_beta   161.75207559
_cell_angle_gamma   25.91794348
_symmetry_Int_Tables_number   1
_chemical_formula_structural   Al2(CuSe2)3
_chemical_formula_sum   'Al4 Cu6 Se12'
_cell_volume   505.58601943
_cell_formula_units_Z   2
loop_
 _symmetry_equiv_pos_site_id
 _symmetry_equiv_pos_as_xyz
  1  'x, y, z'
loop_
 _atom_site_type_symbol
 _atom_site_label
 _atom_site_symmetry_multiplicity
 _atom_site_fract_x
 _atom_site_fract_y
 _atom_site_fract_z
 _atom_site_occupancy
  Al  Al0  1  0.91910000  0.41910000  0.50000000  1
  Al  Al1  1  0.58090000  0.08090000  0.50000000  1
  Al  Al2  1  0.16910000  0.16910000  0.00000000  1
  Al  Al3  1  0.83090000  0.83090000  0.00000000  1
  Cu  Cu0  1  0.75000000  0.25000000  0.50000000  1
  Cu  Cu1  1  0.41857900  0.91857900  0.50000000  1
  Cu  Cu2  1  0.08142100  0.58142100  0.50000000  1
  Cu  Cu3  1  0.66857900  0.66857900  0.00000000  1
  Cu  Cu4  1  0.33142100  0.33142100  0.00000000  1
  Cu  Cu5  1  0.00000000  0.00000000  0.00000000  1
  Se  Se0  1  0.96532800  0.46903900  0.01455600  1
  Se  Se1  1  0.61865500  0.12500000  0.99365500  1
  Se  Se2  1  0.29551600  0.78096100  0.99628900  1
  Se  Se3  1  0.53096100  0.54551600  0.49628900  1
  Se  Se4  1  0.21903900  0.21532800  0.51455600  1
  Se  Se5  1  0.87500000  0.86865500  0.49365500  1
  Se  Se6  1  0.04922800  0.03467200  0.50371100  1
  Se  Se7  1  0.70077200  0.70448400  0.48544400  1
  Se  Se8  1  0.37500000  0.38134500  0.50634500  1
  Se  Se9  1  0.45448400  0.95077200  0.98544400  1
  Se  Se10  1  0.13134500  0.62500000  0.00634500  1
  Se  Se11  1  0.78467200  0.29922800  0.00371100  1
loop_
_geom_bond_atom_site_label_1
_geom_bond_atom_site_label_2
_geom_bond_distance
_geom_bond_site_symmetry_2
Al0 Se4 2.387623 1_655
Al0 Se7 2.387636 1_555
Al0 Se1 2.460760 1_554
Al0 Se10 2.460760 1_656
Al1 Se11 2.387623 1_556
Al1 Se2 2.387633 1_544
Al1 Se8 2.460760 1_555
Al1 Se5 2.460760 1_545
Al2 Se0 2.387623 1_455
Al2 Se9 2.387636 1_544
Al2 Se8 2.460760 1_555
Al2 Se5 2.460760 1_444
Al3 Se6 2.387623 1_665
Al3 Se3 2.387633 1_554
Al3 Se10 2.460760 1_655
Al3 Se1 2.460760 1_564
Cu0 Se3 2.407960 1_555
Cu0 Se9 2.407963 1_544
Cu0 Se6 2.407972 1_655
Cu0 Se0 2.407972 1_556
Cu1 Se4 2.374415 1_565
Cu1 Se7 2.374422 1_555
Cu1 Se10 2.411020 1_555
Cu1 Se1 2.411020 1_565
Cu2 Se11 2.374415 1_455
Cu2 Se2 2.374425 1_555
Cu2 Se8 2.411020 1_555
Cu2 Se5 2.411020 1_455
Cu3 Se0 2.374415 1_555
Cu3 Se9 2.374422 1_554
Cu3 Se5 2.411020 1_555
Cu3 Se8 2.411020 1_554
Cu4 Se6 2.374415 1_554
Cu4 Se3 2.374425 1_555
Cu4 Se10 2.411020 1_555
Cu4 Se1 2.411020 1_554
Cu5 Se2 2.407960 1_544
Cu5 Se7 2.407963 1_444
Cu5 Se11 2.407972 1_455
Cu5 Se4 2.407972 1_555
