# generated using pymatgen
data_Li2B8SeO15
_symmetry_space_group_name_H-M   'P 1'
_cell_length_a   16.48669800
_cell_length_b   8.55281400
_cell_length_c   8.76133782
_cell_angle_alpha   85.51958507
_cell_angle_beta   90.00000000
_cell_angle_gamma   90.00000000
_symmetry_Int_Tables_number   1
_chemical_formula_structural   Li2B8SeO15
_chemical_formula_sum   'Li8 B32 Se4 O60'
_cell_volume   1231.64044358
_cell_formula_units_Z   4
loop_
 _symmetry_equiv_pos_site_id
 _symmetry_equiv_pos_as_xyz
  1  'x, y, z'
loop_
 _atom_site_type_symbol
 _atom_site_label
 _atom_site_symmetry_multiplicity
 _atom_site_fract_x
 _atom_site_fract_y
 _atom_site_fract_z
 _atom_site_occupancy
  Li  Li0  1  0.64180800  0.50314300  0.13849100  1
  Li  Li1  1  0.14180800  0.99685700  0.86150900  1
  Li  Li2  1  0.35819200  0.49685700  0.86150900  1
  Li  Li3  1  0.85819200  0.00314300  0.13849100  1
  Li  Li4  1  0.50045600  0.86939300  0.61975800  1
  Li  Li5  1  0.00045600  0.63060700  0.38024200  1
  Li  Li6  1  0.49954400  0.13060700  0.38024200  1
  Li  Li7  1  0.99954400  0.36939300  0.61975800  1
  B  B0  1  0.68350900  0.43922300  0.47255300  1
  B  B1  1  0.18350900  0.06077700  0.52744700  1
  B  B2  1  0.31649100  0.56077700  0.52744700  1
  B  B3  1  0.81649100  0.93922300  0.47255300  1
  B  B4  1  0.57049500  0.63117600  0.40972700  1
  B  B5  1  0.07049500  0.86882400  0.59027300  1
  B  B6  1  0.42950500  0.36882400  0.59027300  1
  B  B7  1  0.92950500  0.13117600  0.40972700  1
  B  B8  1  0.60918400  0.56875900  0.67395300  1
  B  B9  1  0.10918400  0.93124100  0.32604700  1
  B  B10  1  0.39081600  0.43124100  0.32604700  1
  B  B11  1  0.89081600  0.06875900  0.67395300  1
  B  B12  1  0.49860300  0.72205300  0.16056200  1
  B  B13  1  0.99860300  0.77794700  0.83943800  1
  B  B14  1  0.50139700  0.27794700  0.83943800  1
  B  B15  1  0.00139700  0.22205300  0.16056200  1
  B  B16  1  0.54136500  0.66719600  0.90694000  1
  B  B17  1  0.04136500  0.83280400  0.09306000  1
  B  B18  1  0.45863500  0.33280400  0.09306000  1
  B  B19  1  0.95863500  0.16719600  0.90694000  1
  B  B20  1  0.41605500  0.82326400  0.93846300  1
  B  B21  1  0.91605500  0.67673600  0.06153700  1
  B  B22  1  0.58394500  0.17673600  0.06153700  1
  B  B23  1  0.08394500  0.32326400  0.93846300  1
  B  B24  1  0.32043800  0.04002000  0.89359000  1
  B  B25  1  0.82043800  0.45998000  0.10641000  1
  B  B26  1  0.67956200  0.95998000  0.10641000  1
  B  B27  1  0.17956200  0.54002000  0.89359000  1
  B  B28  1  0.26806700  0.77805600  0.90435900  1
  B  B29  1  0.76806700  0.72194400  0.09564100  1
  B  B30  1  0.73193300  0.22194400  0.09564100  1
  B  B31  1  0.23193300  0.27805600  0.90435900  1
  Se  Se0  1  0.67384600  0.10159900  0.55683800  1
  Se  Se1  1  0.17384600  0.39840100  0.44316200  1
  Se  Se2  1  0.32615400  0.89840100  0.44316200  1
  Se  Se3  1  0.82615400  0.60159900  0.55683800  1
  O  O0  1  0.67243900  0.27439200  0.43183100  1
  O  O1  1  0.17243900  0.22560800  0.56816900  1
  O  O2  1  0.32756100  0.72560800  0.56816900  1
  O  O3  1  0.82756100  0.77439200  0.43183100  1
  O  O4  1  0.73011000  0.98158000  0.43845500  1
  O  O5  1  0.23011000  0.51842000  0.56154500  1
  O  O6  1  0.26989000  0.01842000  0.56154500  1
  O  O7  1  0.76989000  0.48158000  0.43845500  1
  O  O8  1  0.58161900  0.03033900  0.52288900  1
  O  O9  1  0.08161900  0.46966100  0.47711100  1
  O  O10  1  0.41838100  0.96966100  0.47711100  1
  O  O11  1  0.91838100  0.53033900  0.52288900  1
  O  O12  1  0.66469100  0.46326700  0.63212800  1
  O  O13  1  0.16469100  0.03673300  0.36787200  1
  O  O14  1  0.33530900  0.53673300  0.36787200  1
  O  O15  1  0.83530900  0.96326700  0.63212800  1
  O  O16  1  0.62898900  0.53296100  0.36301600  1
  O  O17  1  0.12898900  0.96703900  0.63698400  1
  O  O18  1  0.37101100  0.46703900  0.63698400  1
  O  O19  1  0.87101100  0.03296100  0.36301600  1
  O  O20  1  0.51421000  0.70727900  0.31602000  1
  O  O21  1  0.01421000  0.79272100  0.68398000  1
  O  O22  1  0.48579000  0.29272100  0.68398000  1
  O  O23  1  0.98579000  0.20727900  0.31602000  1
  O  O24  1  0.54676000  0.63397800  0.06524000  1
  O  O25  1  0.04676000  0.86602200  0.93476000  1
  O  O26  1  0.45324000  0.36602200  0.93476000  1
  O  O27  1  0.95324000  0.13397800  0.06524000  1
  O  O28  1  0.43722200  0.81069200  0.10203600  1
  O  O29  1  0.93722200  0.68930800  0.89796400  1
  O  O30  1  0.56277800  0.18930800  0.89796400  1
  O  O31  1  0.06277800  0.31069200  0.10203600  1
  O  O32  1  0.56233300  0.65749900  0.56544500  1
  O  O33  1  0.06233300  0.84250100  0.43455500  1
  O  O34  1  0.43766700  0.34250100  0.43455500  1
  O  O35  1  0.93766700  0.15749900  0.56544500  1
  O  O36  1  0.59902300  0.59029300  0.82657600  1
  O  O37  1  0.09902300  0.90970700  0.17342400  1
  O  O38  1  0.40097700  0.40970700  0.17342400  1
  O  O39  1  0.90097700  0.09029300  0.82657600  1
  O  O40  1  0.48430900  0.76658500  0.84254900  1
  O  O41  1  0.98430900  0.73341500  0.15745100  1
  O  O42  1  0.51569100  0.23341500  0.15745100  1
  O  O43  1  0.01569100  0.26658500  0.84254900  1
  O  O44  1  0.39716300  0.98628700  0.88770200  1
  O  O45  1  0.89716300  0.51371300  0.11229800  1
  O  O46  1  0.60283700  0.01371300  0.11229800  1
  O  O47  1  0.10283700  0.48628700  0.88770200  1
  O  O48  1  0.25449600  0.93797500  0.91181500  1
  O  O49  1  0.75449600  0.56202500  0.08818500  1
  O  O50  1  0.74550400  0.06202500  0.08818500  1
  O  O51  1  0.24550400  0.43797500  0.91181500  1
  O  O52  1  0.19664700  0.69763300  0.88769300  1
  O  O53  1  0.69664700  0.80236700  0.11230700  1
  O  O54  1  0.80335300  0.30236700  0.11230700  1
  O  O55  1  0.30335300  0.19763300  0.88769300  1
  O  O56  1  0.34413200  0.71768000  0.91484500  1
  O  O57  1  0.84413200  0.78232000  0.08515500  1
  O  O58  1  0.65586800  0.28232000  0.08515500  1
  O  O59  1  0.15586800  0.21768000  0.91484500  1
loop_
_geom_bond_atom_site_label_1
_geom_bond_atom_site_label_2
_geom_bond_distance
_geom_bond_site_symmetry_2
Li0 O49 1.965914 1_555
Li0 O58 1.994245 1_555
Li0 O24 2.001856 1_555
Li0 O16 2.014379 1_555
Li1 O48 1.965914 1_555
Li1 O59 1.994245 1_565
Li1 O25 2.001856 1_555
Li1 O17 2.014379 1_555
Li2 O51 1.965914 1_555
Li2 O56 1.994245 1_555
Li2 O26 2.001856 1_555
Li2 O18 2.014379 1_555
Li3 O50 1.965914 1_555
Li3 O57 1.994245 1_545
Li3 O27 2.001856 1_555
Li3 O19 2.014379 1_555
Li4 O10 1.990209 1_555
Li4 O8 2.055036 1_565
Li4 O40 2.094272 1_555
Li4 O32 2.164779 1_555
Li5 O11 1.990209 1_455
Li5 O9 2.055036 1_555
Li5 O41 2.094272 1_455
Li5 O33 2.164779 1_555
Li6 O8 1.990209 1_555
Li6 O10 2.055036 1_545
Li6 O42 2.094272 1_555
Li6 O34 2.164779 1_555
Li7 O9 1.990209 1_655
Li7 O11 2.055036 1_555
Li7 O43 2.094272 1_655
Li7 O35 2.164779 1_555
B0 O12 1.462231 1_555
B0 O0 1.492190 1_555
B0 O7 1.493903 1_555
B0 O16 1.500499 1_555
B1 O13 1.462231 1_555
B1 O1 1.492190 1_555
B1 O6 1.493903 1_555
B1 O17 1.500499 1_545
B2 O14 1.462231 1_555
B2 O2 1.492190 1_555
B2 O5 1.493903 1_555
B2 O18 1.500499 1_555
B3 O15 1.462231 1_555
B3 O3 1.492190 1_555
B3 O4 1.493903 1_555
B3 O19 1.500499 1_565
B4 O16 1.362658 1_555
B4 O20 1.369420 1_555
B4 O32 1.406446 1_555
B5 O17 1.362658 1_555
B5 O21 1.369420 1_555
B5 O33 1.406446 1_555
B6 O18 1.362658 1_555
B6 O22 1.369420 1_555
B6 O34 1.406446 1_555
B7 O19 1.362658 1_555
B7 O23 1.369420 1_555
B7 O35 1.406446 1_555
B8 O12 1.355528 1_555
B8 O36 1.374233 1_555
B8 O32 1.401331 1_555
B9 O13 1.355528 1_565
B9 O37 1.374233 1_555
B9 O33 1.401331 1_555
B10 O14 1.355528 1_555
B10 O38 1.374233 1_555
B10 O34 1.401331 1_555
B11 O15 1.355528 1_545
B11 O39 1.374233 1_555
B11 O35 1.401331 1_555
B12 O28 1.342018 1_555
B12 O20 1.382166 1_555
B12 O24 1.411936 1_555
B13 O29 1.342018 1_555
B13 O21 1.382166 1_655
B13 O25 1.411936 1_655
B14 O30 1.342018 1_555
B14 O22 1.382166 1_555
B14 O26 1.411936 1_555
B15 O31 1.342018 1_555
B15 O23 1.382166 1_455
B15 O27 1.411936 1_455
B16 O40 1.360436 1_555
B16 O36 1.379980 1_555
B16 O24 1.396643 1_556
B17 O41 1.360436 1_455
B17 O37 1.379980 1_555
B17 O25 1.396643 1_554
B18 O42 1.360436 1_555
B18 O38 1.379980 1_555
B18 O26 1.396643 1_554
B19 O43 1.360436 1_655
B19 O39 1.379980 1_555
B19 O27 1.396643 1_556
B20 O44 1.463559 1_555
B20 O28 1.470747 1_556
B20 O40 1.507006 1_555
B20 O56 1.514448 1_555
B21 O45 1.463559 1_555
B21 O29 1.470747 1_554
B21 O41 1.507006 1_555
B21 O57 1.514448 1_555
B22 O46 1.463559 1_555
B22 O30 1.470747 1_554
B22 O42 1.507006 1_555
B22 O58 1.514448 1_555
B23 O47 1.463559 1_555
B23 O31 1.470747 1_556
B23 O43 1.507006 1_555
B23 O59 1.514448 1_555
B24 O44 1.348201 1_545
B24 O55 1.374164 1_555
B24 O48 1.395487 1_545
B25 O45 1.348201 1_555
B25 O54 1.374164 1_555
B25 O49 1.395487 1_555
B26 O46 1.348201 1_565
B26 O53 1.374164 1_555
B26 O50 1.395487 1_565
B27 O47 1.348201 1_555
B27 O52 1.374164 1_555
B27 O51 1.395487 1_555
B28 O56 1.356595 1_555
B28 O52 1.377171 1_555
B28 O48 1.392497 1_555
B29 O57 1.356595 1_555
B29 O53 1.377171 1_555
B29 O49 1.392497 1_555
B30 O58 1.356595 1_555
B30 O54 1.377171 1_555
B30 O50 1.392497 1_555
B31 O59 1.356595 1_555
B31 O55 1.377171 1_555
B31 O51 1.392497 1_555
O0 Se0 1.769539 1_555
O1 Se1 1.769539 1_555
O2 Se2 1.769539 1_555
O3 Se3 1.769539 1_555
O4 Se0 1.776590 1_565
O5 Se1 1.776590 1_555
O6 Se2 1.776590 1_545
O7 Se3 1.776590 1_555
O8 Se0 1.673388 1_555
O9 Se1 1.673388 1_555
O10 Se2 1.673388 1_555
O11 Se3 1.673388 1_555
