# generated using pymatgen
data_NiH20Se2(NO7)2
_symmetry_space_group_name_H-M   'P 1'
_cell_length_a   9.32853224
_cell_length_b   12.84361300
_cell_length_c   6.55011895
_cell_angle_alpha   90.00000000
_cell_angle_beta   105.86680663
_cell_angle_gamma   90.00000000
_symmetry_Int_Tables_number   1
_chemical_formula_structural   NiH20Se2(NO7)2
_chemical_formula_sum   'Ni2 H40 Se4 N4 O28'
_cell_volume   754.88288161
_cell_formula_units_Z   2
loop_
 _symmetry_equiv_pos_site_id
 _symmetry_equiv_pos_as_xyz
  1  'x, y, z'
loop_
 _atom_site_type_symbol
 _atom_site_label
 _atom_site_symmetry_multiplicity
 _atom_site_fract_x
 _atom_site_fract_y
 _atom_site_fract_z
 _atom_site_occupancy
  Ni  Ni0  1  0.50000000  0.50000000  0.00000000  1
  Ni  Ni1  1  0.00000000  0.00000000  0.00000000  1
  H  H0  1  0.57406600  0.16972700  0.20323200  1
  H  H1  1  0.92593400  0.66972700  0.79676800  1
  H  H2  1  0.42593400  0.83027300  0.79676800  1
  H  H3  1  0.07406600  0.33027300  0.20323200  1
  H  H4  1  0.73050600  0.20020000  0.40298400  1
  H  H5  1  0.76949400  0.70020000  0.59701600  1
  H  H6  1  0.26949400  0.79980000  0.59701600  1
  H  H7  1  0.23050600  0.29980000  0.40298400  1
  H  H8  1  0.56450300  0.17873700  0.45310700  1
  H  H9  1  0.93549700  0.67873700  0.54689300  1
  H  H10  1  0.43549700  0.82126300  0.54689300  1
  H  H11  1  0.06450300  0.32126300  0.45310700  1
  H  H12  1  0.66091800  0.07758500  0.37954100  1
  H  H13  1  0.83908200  0.57758500  0.62045900  1
  H  H14  1  0.33908200  0.92241500  0.62045900  1
  H  H15  1  0.16091800  0.42241500  0.37954100  1
  H  H16  1  0.71406700  0.41619900  0.30974000  1
  H  H17  1  0.78593300  0.91619900  0.69026000  1
  H  H18  1  0.28593300  0.58380100  0.69026000  1
  H  H19  1  0.21406700  0.08380100  0.30974000  1
  H  H20  1  0.74677700  0.37903900  0.09339700  1
  H  H21  1  0.75322300  0.87903900  0.90660300  1
  H  H22  1  0.25322300  0.62096100  0.90660300  1
  H  H23  1  0.24677700  0.12096100  0.09339700  1
  H  H24  1  0.23850700  0.40457100  0.94620000  1
  H  H25  1  0.26149300  0.90457100  0.05380000  1
  H  H26  1  0.76149300  0.59542900  0.05380000  1
  H  H27  1  0.73850700  0.09542900  0.94620000  1
  H  H28  1  0.36613800  0.31996900  0.01285400  1
  H  H29  1  0.13386200  0.81996900  0.98714600  1
  H  H30  1  0.63386200  0.68003100  0.98714600  1
  H  H31  1  0.86613800  0.18003100  0.01285400  1
  H  H32  1  0.40073900  0.55810700  0.32359400  1
  H  H33  1  0.09926100  0.05810700  0.67640600  1
  H  H34  1  0.59926100  0.44189300  0.67640600  1
  H  H35  1  0.90073900  0.94189300  0.32359400  1
  H  H36  1  0.52473600  0.64084300  0.31566900  1
  H  H37  1  0.97526400  0.14084300  0.68433100  1
  H  H38  1  0.47526400  0.35915700  0.68433100  1
  H  H39  1  0.02473600  0.85915700  0.31566900  1
  Se  Se0  1  0.91236200  0.36426100  0.74161600  1
  Se  Se1  1  0.58763800  0.86426100  0.25838400  1
  Se  Se2  1  0.08763800  0.63573900  0.25838400  1
  Se  Se3  1  0.41236200  0.13573900  0.74161600  1
  N  N0  1  0.63344800  0.15662700  0.35961400  1
  N  N1  1  0.86655200  0.65662700  0.64038600  1
  N  N2  1  0.36655200  0.84337300  0.64038600  1
  N  N3  1  0.13344800  0.34337300  0.35961400  1
  O  O0  1  0.91951500  0.26318300  0.57925800  1
  O  O1  1  0.58048500  0.76318300  0.42074200  1
  O  O2  1  0.08048500  0.73681700  0.42074200  1
  O  O3  1  0.41951500  0.23681700  0.57925800  1
  O  O4  1  0.07018700  0.43135700  0.78789900  1
  O  O5  1  0.42981300  0.93135700  0.21210100  1
  O  O6  1  0.92981300  0.56864300  0.21210100  1
  O  O7  1  0.57018700  0.06864300  0.78789900  1
  O  O8  1  0.77155700  0.44188800  0.61100000  1
  O  O9  1  0.72844300  0.94188800  0.38900000  1
  O  O10  1  0.22844300  0.55811200  0.38900000  1
  O  O11  1  0.27155700  0.05811200  0.61100000  1
  O  O12  1  0.88432800  0.31865300  0.96898400  1
  O  O13  1  0.61567200  0.81865300  0.03101600  1
  O  O14  1  0.11567200  0.68134700  0.03101600  1
  O  O15  1  0.38432800  0.18134700  0.96898400  1
  O  O16  1  0.66667600  0.39483100  0.16127300  1
  O  O17  1  0.83332400  0.89483100  0.83872700  1
  O  O18  1  0.33332400  0.60516900  0.83872700  1
  O  O19  1  0.16667600  0.10516900  0.16127300  1
  O  O20  1  0.34124500  0.39262500  0.04077500  1
  O  O21  1  0.15875500  0.89262500  0.95922500  1
  O  O22  1  0.65875500  0.60737500  0.95922500  1
  O  O23  1  0.84124500  0.10737500  0.04077500  1
  O  O24  1  0.49576700  0.56671500  0.28500800  1
  O  O25  1  0.00423300  0.06671500  0.71499200  1
  O  O26  1  0.50423300  0.43328500  0.71499200  1
  O  O27  1  0.99576700  0.93328500  0.28500800  1
loop_
_geom_bond_atom_site_label_1
_geom_bond_atom_site_label_2
_geom_bond_distance
_geom_bond_site_symmetry_2
Ni0 O26 2.064257 1_554
Ni0 O24 2.064257 1_555
Ni0 O22 2.093489 1_554
Ni0 O20 2.093489 1_555
Ni0 O16 2.111834 1_555
Ni0 O18 2.111834 1_554
Ni1 O25 2.064257 1_554
Ni1 O27 2.064257 1_445
Ni1 O21 2.093489 1_544
Ni1 O23 2.093489 1_455
Ni1 O19 2.111834 1_555
Ni1 O17 2.111834 1_444
H0 N0 1.036403 1_555
H1 N1 1.036403 1_555
H2 N2 1.036403 1_555
H3 N3 1.036403 1_555
H4 N0 1.035864 1_555
H5 N1 1.035864 1_555
H6 N2 1.035864 1_555
H7 N3 1.035864 1_555
H8 N0 1.041478 1_555
H9 N1 1.041478 1_555
H10 N2 1.041478 1_555
H11 N3 1.041478 1_555
H12 N0 1.046429 1_555
H13 N1 1.046429 1_555
H14 N2 1.046429 1_555
H15 N3 1.046429 1_555
H16 O16 0.990651 1_555
H17 O17 0.990651 1_555
H18 O18 0.990651 1_555
H19 O19 0.990651 1_555
H20 O16 0.989345 1_555
H21 O17 0.989345 1_555
H22 O18 0.989345 1_555
H23 O19 0.989345 1_555
H24 O20 1.000587 1_556
H24 O4 1.663943 1_555
H25 O21 1.000587 1_554
H25 O5 1.663943 1_555
H26 O22 1.000587 1_554
H26 O6 1.663943 1_555
H27 O23 1.000587 1_556
H27 O7 1.663943 1_555
H28 O20 0.990652 1_555
H29 O21 0.990652 1_555
H30 O22 0.990652 1_555
H31 O23 0.990652 1_555
H32 O24 0.992192 1_555
H33 O25 0.992192 1_555
H34 O26 0.992192 1_555
H35 O27 0.992192 1_555
H36 O24 0.995051 1_555
H36 O1 1.737056 1_555
H37 O25 0.995051 1_655
H37 O0 1.737056 1_555
H38 O26 0.995051 1_555
H38 O3 1.737056 1_555
H39 O27 0.995051 1_455
H39 O2 1.737056 1_555
O0 Se0 1.691021 1_555
O1 Se1 1.691021 1_555
O2 Se2 1.691021 1_555
O3 Se3 1.691021 1_555
O4 Se0 1.660742 1_455
O5 Se1 1.660742 1_555
O6 Se2 1.660742 1_655
O7 Se3 1.660742 1_555
O8 Se0 1.684283 1_555
O9 Se1 1.684283 1_555
O10 Se2 1.684283 1_555
O11 Se3 1.684283 1_555
O12 Se0 1.685960 1_555
O13 Se1 1.685960 1_555
O14 Se2 1.685960 1_555
O15 Se3 1.685960 1_555
