# generated using pymatgen
data_SnPPt5
_symmetry_space_group_name_H-M   'P 1'
_cell_length_a   3.99595400
_cell_length_b   3.99595400
_cell_length_c   7.16021900
_cell_angle_alpha   90.00000000
_cell_angle_beta   90.00000000
_cell_angle_gamma   90.00000000
_symmetry_Int_Tables_number   1
_chemical_formula_structural   SnPPt5
_chemical_formula_sum   'Sn1 P1 Pt5'
_cell_volume   114.33185925
_cell_formula_units_Z   1
loop_
 _symmetry_equiv_pos_site_id
 _symmetry_equiv_pos_as_xyz
  1  'x, y, z'
loop_
 _atom_site_type_symbol
 _atom_site_label
 _atom_site_symmetry_multiplicity
 _atom_site_fract_x
 _atom_site_fract_y
 _atom_site_fract_z
 _atom_site_occupancy
  Sn  Sn0  1  0.00000000  0.00000000  0.00000000  1
  P  P0  1  0.50000000  0.50000000  0.50000000  1
  Pt  Pt0  1  0.50000000  0.50000000  0.00000000  1
  Pt  Pt1  1  0.50000000  0.00000000  0.70033200  1
  Pt  Pt2  1  0.00000000  0.50000000  0.70033200  1
  Pt  Pt3  1  0.50000000  0.00000000  0.29966800  1
  Pt  Pt4  1  0.00000000  0.50000000  0.29966800  1
loop_
_geom_bond_atom_site_label_1
_geom_bond_atom_site_label_2
_geom_bond_distance
_geom_bond_site_symmetry_2
P0 Pt1 2.459568 1_555
P0 Pt2 2.459568 1_555
P0 Pt1 2.459568 1_565
P0 Pt2 2.459568 1_655
P0 Pt3 2.459568 1_555
P0 Pt3 2.459568 1_565
P0 Pt4 2.459568 1_555
P0 Pt4 2.459568 1_655
Pt0 Sn0 2.825566 1_555
Pt0 Sn0 2.825566 1_665
Pt0 Sn0 2.825566 1_655
Pt0 Sn0 2.825566 1_565
Pt0 Pt3 2.931875 1_555
Pt0 Pt3 2.931875 1_565
Pt0 Pt4 2.931875 1_555
Pt0 Pt4 2.931875 1_655
Pt0 Pt1 2.931875 1_564
Pt0 Pt2 2.931875 1_554
Pt0 Pt2 2.931875 1_654
Pt0 Pt1 2.931875 1_554
Pt1 Pt2 2.825566 1_555
Pt1 Pt2 2.825566 1_545
Pt1 Pt2 2.825566 1_645
Pt1 Pt2 2.825566 1_655
Pt1 Pt3 2.868842 1_555
Pt1 Sn0 2.931875 1_656
Pt1 Sn0 2.931875 1_556
Pt2 Pt4 2.868842 1_555
Pt2 Sn0 2.931875 1_556
Pt2 Sn0 2.931875 1_566
Pt3 Pt4 2.825566 1_645
Pt3 Pt4 2.825566 1_545
Pt3 Pt4 2.825566 1_555
Pt3 Pt4 2.825566 1_655
Pt3 Sn0 2.931875 1_555
Pt3 Sn0 2.931875 1_655
Pt4 Sn0 2.931875 1_555
Pt4 Sn0 2.931875 1_565
