# generated using pymatgen
data_BaYbCo4O7
_symmetry_space_group_name_H-M   'P 1'
_cell_length_a   6.33513800
_cell_length_b   6.36269014
_cell_length_c   10.26863194
_cell_angle_alpha   90.01117969
_cell_angle_beta   90.31897577
_cell_angle_gamma   118.90563626
_symmetry_Int_Tables_number   1
_chemical_formula_structural   BaYbCo4O7
_chemical_formula_sum   'Ba2 Yb2 Co8 O14'
_cell_volume   362.33919713
_cell_formula_units_Z   2
loop_
 _symmetry_equiv_pos_site_id
 _symmetry_equiv_pos_as_xyz
  1  'x, y, z'
loop_
 _atom_site_type_symbol
 _atom_site_label
 _atom_site_symmetry_multiplicity
 _atom_site_fract_x
 _atom_site_fract_y
 _atom_site_fract_z
 _atom_site_occupancy
  Ba  Ba0  1  0.66515400  0.35647300  0.50004600  1
  Ba  Ba1  1  0.35324200  0.67279200  0.99918600  1
  Yb  Yb0  1  0.66576600  0.33497100  0.86885100  1
  Yb  Yb1  1  0.33048200  0.66565300  0.36741200  1
  Co  Co0  1  0.18498800  0.33637600  0.68097100  1
  Co  Co1  1  0.33720700  0.18286100  0.18319300  1
  Co  Co2  1  0.84094300  0.66289200  0.18321400  1
  Co  Co3  1  0.00922000  0.00270200  0.94259500  1
  Co  Co4  1  0.16268300  0.81029300  0.68591900  1
  Co  Co5  1  0.66533600  0.83975100  0.68178400  1
  Co  Co6  1  0.81269400  0.16044400  0.18342400  1
  Co  Co7  1  0.99234100  0.00858100  0.44362800  1
  O  O0  1  0.10351600  0.78950100  0.50006700  1
  O  O1  1  0.47112600  0.98202300  0.74866900  1
  O  O2  1  0.31724200  0.22511800  0.99239500  1
  O  O3  1  0.49003400  0.98364000  0.22272100  1
  O  O4  1  0.20720700  0.31738200  0.48975200  1
  O  O5  1  0.52014700  0.50817100  0.72594900  1
  O  O6  1  0.00838100  0.99890300  0.75058800  1
  O  O7  1  0.00085600  0.49220100  0.73627800  1
  O  O8  1  0.00446800  0.47545000  0.22773100  1
  O  O9  1  0.79587900  0.11758600  0.99758800  1
  O  O10  1  0.52513700  0.49946000  0.25457400  1
  O  O11  1  0.67646300  0.88660300  0.49196900  1
  O  O12  1  0.99633100  0.00354900  0.25115300  1
  O  O13  1  0.86315800  0.68662700  0.99174900  1
loop_
_geom_bond_atom_site_label_1
_geom_bond_atom_site_label_2
_geom_bond_distance
_geom_bond_site_symmetry_2
Ba0 O4 2.790832 1_555
Ba0 O0 2.811844 1_655
Ba0 O5 2.834896 1_555
Ba0 O10 2.953712 1_555
Ba0 O11 3.026050 1_545
Ba0 O7 3.052760 1_655
Ba0 O1 3.303230 1_545
Ba0 O11 3.340068 1_555
Ba0 O8 3.392310 1_655
Ba1 O2 2.746280 1_555
Ba1 O9 2.863823 1_565
Ba1 O3 2.872415 1_556
Ba1 O8 3.056653 1_556
Ba1 O1 3.106347 1_555
Ba1 O13 3.148750 1_455
Ba1 O13 3.190115 1_555
Ba1 O10 3.226449 1_556
Ba1 O7 3.323289 1_555
Ba1 O5 3.345153 1_555
Co0 O5 1.913537 1_555
Co0 O7 1.947179 1_555
Co0 O4 1.977222 1_555
Co0 O6 2.015060 1_545
Co1 O10 1.919319 1_555
Co1 O3 1.972597 1_545
Co1 O2 1.989274 1_554
Co1 O12 2.021721 1_455
Co2 O10 1.904300 1_555
Co2 O13 1.972498 1_554
Co2 O8 1.973298 1_655
Co2 O12 2.020602 1_565
Co3 O13 1.833590 1_445
Co3 O2 1.841460 1_555
Co3 O9 1.908742 1_455
Co3 O6 1.971739 1_545
Co4 O1 1.830019 1_555
Co4 O7 1.848001 1_555
Co4 O0 1.934984 1_555
Co4 O6 1.994413 1_555
Co5 O5 1.905713 1_555
Co5 O11 1.968356 1_555
Co5 O1 1.972508 1_555
Co5 O6 2.025511 1_655
Co6 O8 1.827465 1_655
Co6 O3 1.842014 1_545
Co6 O9 1.922680 1_554
Co6 O12 1.986872 1_555
Co7 O4 1.828820 1_655
Co7 O11 1.833863 1_545
Co7 O0 1.928697 1_645
Co7 O12 1.977208 1_555
O0 Yb1 2.379221 1_555
O1 Yb0 2.321986 1_565
O2 Yb0 2.347892 1_555
O3 Yb1 2.315950 1_555
O4 Yb1 2.331845 1_555
O5 Yb0 2.277529 1_555
O7 Yb0 2.310881 1_455
O8 Yb1 2.310312 1_555
O9 Yb0 2.330426 1_555
O10 Yb1 2.292920 1_555
O11 Yb1 2.325007 1_555
O13 Yb0 2.332192 1_555
