# generated using pymatgen
data_Sr3Nd
_symmetry_space_group_name_H-M   'P 1'
_cell_length_a   8.19144708
_cell_length_b   8.19144708
_cell_length_c   6.58741000
_cell_angle_alpha   90.00000000
_cell_angle_beta   90.00000000
_cell_angle_gamma   119.99999257
_symmetry_Int_Tables_number   1
_chemical_formula_structural   Sr3Nd
_chemical_formula_sum   'Sr6 Nd2'
_cell_volume   382.79531934
_cell_formula_units_Z   2
loop_
 _symmetry_equiv_pos_site_id
 _symmetry_equiv_pos_as_xyz
  1  'x, y, z'
loop_
 _atom_site_type_symbol
 _atom_site_label
 _atom_site_symmetry_multiplicity
 _atom_site_fract_x
 _atom_site_fract_y
 _atom_site_fract_z
 _atom_site_occupancy
  Sr  Sr0  1  0.82816600  0.17183400  0.75000000  1
  Sr  Sr1  1  0.34366800  0.17183400  0.75000000  1
  Sr  Sr2  1  0.82816600  0.65633200  0.75000000  1
  Sr  Sr3  1  0.17183400  0.82816600  0.25000000  1
  Sr  Sr4  1  0.65633200  0.82816600  0.25000000  1
  Sr  Sr5  1  0.17183400  0.34366800  0.25000000  1
  Nd  Nd0  1  0.66666700  0.33333300  0.25000000  1
  Nd  Nd1  1  0.33333300  0.66666700  0.75000000  1
loop_
_geom_bond_atom_site_label_1
_geom_bond_atom_site_label_2
_geom_bond_distance
_geom_bond_site_symmetry_2
Sr0 Sr1 3.968740 1_555
Sr0 Sr2 3.968740 1_555
Sr0 Sr4 4.097834 1_545
Sr0 Sr4 4.097834 1_546
Sr0 Sr5 4.097834 1_656
Sr0 Sr5 4.097834 1_655
Sr0 Sr2 4.222707 1_545
Sr0 Sr1 4.222707 1_655
Sr1 Sr2 3.968740 1_555
Sr1 Sr5 4.097834 1_555
Sr1 Sr5 4.097834 1_556
Sr1 Sr3 4.097834 1_545
Sr1 Sr3 4.097834 1_546
Sr1 Sr2 4.222708 1_445
Sr2 Sr4 4.097834 1_556
Sr2 Sr4 4.097834 1_555
Sr2 Sr3 4.097834 1_656
Sr2 Sr3 4.097834 1_655
Sr3 Sr5 3.968740 1_555
Sr3 Sr4 3.968740 1_555
Sr3 Sr4 4.222707 1_455
Sr3 Sr5 4.222707 1_565
Sr4 Sr5 3.968740 1_555
Sr4 Sr5 4.222708 1_665
Nd0 Sr0 4.012327 1_555
Nd0 Sr0 4.012327 1_554
Nd0 Sr1 4.012331 1_554
Nd0 Sr1 4.012331 1_555
Nd0 Sr2 4.012331 1_555
Nd0 Sr2 4.012331 1_554
Nd0 Sr5 4.096376 1_655
Nd0 Sr4 4.096376 1_545
Nd0 Sr3 4.096380 1_655
Nd0 Sr3 4.096380 1_545
Nd0 Sr4 4.096384 1_555
Nd0 Sr5 4.096384 1_555
Nd1 Sr3 4.012327 1_555
Nd1 Sr3 4.012327 1_556
Nd1 Sr4 4.012331 1_556
Nd1 Sr4 4.012331 1_555
Nd1 Sr5 4.012331 1_555
Nd1 Sr5 4.012331 1_556
Nd1 Sr2 4.096376 1_455
Nd1 Sr1 4.096376 1_565
Nd1 Sr0 4.096380 1_455
Nd1 Sr0 4.096380 1_565
Nd1 Sr1 4.096384 1_555
Nd1 Sr2 4.096384 1_555
