# generated using pymatgen
data_Sm2Ga3Ni
_symmetry_space_group_name_H-M   'P 1'
_cell_length_a   5.61008879
_cell_length_b   5.61008879
_cell_length_c   7.26050363
_cell_angle_alpha   50.72685889
_cell_angle_beta   50.72685889
_cell_angle_gamma   46.05334278
_symmetry_Int_Tables_number   1
_chemical_formula_structural   Sm2Ga3Ni
_chemical_formula_sum   'Sm2 Ga3 Ni1'
_cell_volume   119.42494121
_cell_formula_units_Z   1
loop_
 _symmetry_equiv_pos_site_id
 _symmetry_equiv_pos_as_xyz
  1  'x, y, z'
loop_
 _atom_site_type_symbol
 _atom_site_label
 _atom_site_symmetry_multiplicity
 _atom_site_fract_x
 _atom_site_fract_y
 _atom_site_fract_z
 _atom_site_occupancy
  Sm  Sm0  1  0.53970000  0.53970000  0.70882700  1
  Sm  Sm1  1  0.45650200  0.45650200  0.29538000  1
  Ga  Ga0  1  0.84972500  0.84972500  0.69143100  1
  Ga  Ga1  1  0.82413200  0.82413200  0.12227100  1
  Ga  Ga2  1  0.16271500  0.16271500  0.90022500  1
  Ni  Ni0  1  0.16722500  0.16722500  0.28186500  1
loop_
_geom_bond_atom_site_label_1
_geom_bond_atom_site_label_2
_geom_bond_distance
_geom_bond_site_symmetry_2
Sm0 Sm1 3.646474 1_555
Sm0 Sm1 3.720388 1_556
Sm0 Sm1 3.818077 1_565
Sm0 Sm1 3.818077 1_655
Ga0 Ni0 2.485965 1_665
Ga0 Ga2 2.610688 1_655
Ga0 Ga2 2.610688 1_565
Ga0 Ga1 2.952578 1_556
Ga0 Sm0 3.003448 1_565
Ga0 Sm0 3.003448 1_655
Ga0 Sm0 3.115850 1_555
Ga0 Sm1 3.152524 1_655
Ga0 Sm1 3.152524 1_565
Ga0 Sm1 3.349934 1_556
Ga1 Ni0 2.490132 1_655
Ga1 Ni0 2.490132 1_565
Ga1 Ga2 2.658774 1_664
Ga1 Sm1 3.070396 1_555
Ga1 Sm0 3.091308 1_555
Ga1 Sm0 3.096679 1_564
Ga1 Sm0 3.096679 1_654
Ga1 Sm1 3.259897 1_565
Ga1 Sm1 3.259897 1_655
Ga2 Ni0 2.803135 1_556
Ga2 Sm1 3.029355 1_456
Ga2 Sm1 3.029355 1_546
Ga2 Sm0 3.105384 1_555
Ga2 Sm1 3.187713 1_555
Ga2 Sm0 3.284603 1_455
Ga2 Sm0 3.284603 1_545
Ni0 Sm1 3.044059 1_455
Ni0 Sm1 3.044059 1_545
Ni0 Sm1 3.055451 1_555
Ni0 Sm0 3.176482 1_554
Ni0 Sm0 3.247120 1_455
Ni0 Sm0 3.247120 1_545
