# generated using pymatgen
data_MgSi2
_symmetry_space_group_name_H-M   'P 1'
_cell_length_a   6.01092375
_cell_length_b   6.01092375
_cell_length_c   10.60818597
_cell_angle_alpha   85.75273923
_cell_angle_beta   85.75273923
_cell_angle_gamma   34.67181516
_symmetry_Int_Tables_number   1
_chemical_formula_structural   MgSi2
_chemical_formula_sum   'Mg4 Si8'
_cell_volume   217.38489896
_cell_formula_units_Z   4
loop_
 _symmetry_equiv_pos_site_id
 _symmetry_equiv_pos_as_xyz
  1  'x, y, z'
loop_
 _atom_site_type_symbol
 _atom_site_label
 _atom_site_symmetry_multiplicity
 _atom_site_fract_x
 _atom_site_fract_y
 _atom_site_fract_z
 _atom_site_occupancy
  Mg  Mg0  1  0.33915800  0.33915800  0.90225100  1
  Mg  Mg1  1  0.65128700  0.65128700  0.07689500  1
  Mg  Mg2  1  0.37226100  0.37226100  0.41932000  1
  Mg  Mg3  1  0.98817300  0.98817300  0.64660800  1
  Si  Si0  1  0.31745000  0.31745000  0.16979900  1
  Si  Si1  1  0.02867900  0.02867900  0.91763200  1
  Si  Si2  1  0.27905800  0.27905800  0.66183100  1
  Si  Si3  1  0.05132300  0.05132300  0.34537100  1
  Si  Si4  1  0.64680700  0.64680700  0.82162100  1
  Si  Si5  1  0.95668300  0.95668300  0.14627200  1
  Si  Si6  1  0.69177200  0.69177200  0.32867100  1
  Si  Si7  1  0.67988000  0.67988000  0.56371900  1
loop_
_geom_bond_atom_site_label_1
_geom_bond_atom_site_label_2
_geom_bond_distance
_geom_bond_site_symmetry_2
Mg0 Si2 2.693188 1_555
Mg0 Si0 2.829792 1_556
Mg0 Si1 2.831938 1_655
Mg0 Si1 2.831938 1_565
Mg0 Si4 3.017462 1_545
Mg0 Si4 3.017462 1_455
Mg1 Si4 2.712467 1_554
Mg1 Si6 2.746276 1_555
Mg1 Si0 2.847275 1_655
Mg1 Si0 2.847275 1_565
Mg1 Si1 2.900166 1_564
Mg1 Si1 2.900166 1_654
Mg1 Si5 2.912375 1_455
Mg1 Si5 2.912375 1_545
Mg2 Si2 2.708377 1_555
Mg2 Si0 2.767745 1_555
Mg2 Si3 2.792089 1_655
Mg2 Si3 2.792089 1_565
Mg2 Si6 2.954971 1_455
Mg2 Si6 2.954971 1_545
Mg2 Si7 3.147017 1_455
Mg2 Si7 3.147017 1_545
Mg3 Si7 2.919064 1_655
Mg3 Si7 2.919064 1_565
Mg3 Si1 2.947795 1_665
Mg3 Si2 2.988773 1_565
Mg3 Si2 2.988773 1_655
Mg3 Si3 3.221421 1_665
Mg3 Si4 3.239341 1_655
Mg3 Si4 3.239341 1_565
Si0 Si5 2.400292 1_455
Si0 Si5 2.400292 1_545
Si0 Si6 2.784118 1_455
Si0 Si6 2.784118 1_545
Si1 Si4 2.422559 1_545
Si1 Si4 2.422559 1_455
Si1 Si5 2.500901 1_446
Si2 Si7 2.402174 1_455
Si2 Si7 2.402174 1_545
Si2 Si4 2.825859 1_455
Si2 Si4 2.825859 1_545
Si3 Si6 2.406835 1_455
Si3 Si6 2.406835 1_545
Si3 Si5 2.448745 1_445
Si4 Si7 2.732750 1_555
Si6 Si7 2.486570 1_555
