# generated using pymatgen
data_UOF3
_symmetry_space_group_name_H-M   'P 1'
_cell_length_a   3.81197595
_cell_length_b   3.81197595
_cell_length_c   5.11323800
_cell_angle_alpha   90.00000000
_cell_angle_beta   90.00000000
_cell_angle_gamma   119.99999918
_symmetry_Int_Tables_number   1
_chemical_formula_structural   UOF3
_chemical_formula_sum   'U1 O1 F3'
_cell_volume   64.34679905
_cell_formula_units_Z   1
loop_
 _symmetry_equiv_pos_site_id
 _symmetry_equiv_pos_as_xyz
  1  'x, y, z'
loop_
 _atom_site_type_symbol
 _atom_site_label
 _atom_site_symmetry_multiplicity
 _atom_site_fract_x
 _atom_site_fract_y
 _atom_site_fract_z
 _atom_site_occupancy
  U  U0  1  0.00000000  0.00000000  0.98062900  1
  O  O0  1  0.66666700  0.33333300  0.11397300  1
  F  F0  1  0.66666700  0.33333300  0.66258900  1
  F  F1  1  0.33333300  0.66666700  0.86393200  1
  F  F2  1  0.00000000  0.00000000  0.37887700  1
loop_
_geom_bond_atom_site_label_1
_geom_bond_atom_site_label_2
_geom_bond_distance
_geom_bond_site_symmetry_2
O0 U0 2.304037 1_654
O0 U0 2.304041 1_664
O0 U0 2.304041 1_554
F0 U0 2.736473 1_655
F0 U0 2.736475 1_555
F0 U0 2.736475 1_665
F1 U0 2.280298 1_565
F1 U0 2.280302 1_555
F1 U0 2.280302 1_665
F2 U0 2.036337 1_554
