# generated using pymatgen
data_LuBO3
_symmetry_space_group_name_H-M   'P 1'
_cell_length_a   3.87326198
_cell_length_b   3.87326198
_cell_length_c   8.44205400
_cell_angle_alpha   90.00000000
_cell_angle_beta   90.00000000
_cell_angle_gamma   116.16794055
_symmetry_Int_Tables_number   1
_chemical_formula_structural   LuBO3
_chemical_formula_sum   'Lu2 B2 O6'
_cell_volume   113.66817286
_cell_formula_units_Z   2
loop_
 _symmetry_equiv_pos_site_id
 _symmetry_equiv_pos_as_xyz
  1  'x, y, z'
loop_
 _atom_site_type_symbol
 _atom_site_label
 _atom_site_symmetry_multiplicity
 _atom_site_fract_x
 _atom_site_fract_y
 _atom_site_fract_z
 _atom_site_occupancy
  Lu  Lu0  1  0.93912700  0.93912700  0.00000000  1
  Lu  Lu1  1  0.93912700  0.93912700  0.50000000  1
  B  B0  1  0.49970500  0.23891000  0.75000000  1
  B  B1  1  0.23891000  0.49970500  0.25000000  1
  O  O0  1  0.67022600  0.32667500  0.89982600  1
  O  O1  1  0.32667500  0.67022600  0.10017400  1
  O  O2  1  0.32667500  0.67022600  0.39982600  1
  O  O3  1  0.67022600  0.32667500  0.60017400  1
  O  O4  1  0.10701300  0.02928600  0.75000000  1
  O  O5  1  0.02928600  0.10701300  0.25000000  1
loop_
_geom_bond_atom_site_label_1
_geom_bond_atom_site_label_2
_geom_bond_distance
_geom_bond_site_symmetry_2
Lu0 O5 2.190611 1_665
Lu0 O4 2.190611 1_664
Lu0 O0 2.290861 1_554
Lu0 O1 2.290861 1_555
Lu0 O0 2.330686 1_564
Lu0 O1 2.330686 1_655
Lu0 O0 2.690358 1_664
Lu0 O1 2.690358 1_665
Lu1 O4 2.190611 1_665
Lu1 O5 2.190611 1_665
Lu1 O3 2.290861 1_555
Lu1 O2 2.290861 1_555
Lu1 O2 2.330686 1_655
Lu1 O3 2.330686 1_565
Lu1 O3 2.690358 1_665
Lu1 O2 2.690358 1_665
B0 O4 1.372384 1_555
B0 O3 1.397702 1_555
B0 O0 1.397702 1_555
B1 O5 1.372384 1_555
B1 O1 1.397702 1_555
B1 O2 1.397702 1_555
