# generated using pymatgen
data_CsCoNiF6
_symmetry_space_group_name_H-M   'P 1'
_cell_length_a   7.36367935
_cell_length_b   7.36367935
_cell_length_c   7.36367935
_cell_angle_alpha   119.99866445
_cell_angle_beta   119.61491871
_cell_angle_gamma   90.33529324
_symmetry_Int_Tables_number   1
_chemical_formula_structural   CsCoNiF6
_chemical_formula_sum   'Cs2 Co2 Ni2 F12'
_cell_volume   283.15351176
_cell_formula_units_Z   2
loop_
 _symmetry_equiv_pos_site_id
 _symmetry_equiv_pos_as_xyz
  1  'x, y, z'
loop_
 _atom_site_type_symbol
 _atom_site_label
 _atom_site_symmetry_multiplicity
 _atom_site_fract_x
 _atom_site_fract_y
 _atom_site_fract_z
 _atom_site_occupancy
  Cs  Cs0  1  0.37207400  0.62207400  0.75000000  1
  Cs  Cs1  1  0.62792600  0.37792600  0.25000000  1
  Co  Co0  1  0.00000000  0.00000000  0.00000000  1
  Co  Co1  1  0.50000000  0.00000000  0.50000000  1
  Ni  Ni0  1  0.00000000  0.00000000  0.50000000  1
  Ni  Ni1  1  0.00000000  0.50000000  0.00000000  1
  F  F0  1  0.31852900  0.06852900  0.25000000  1
  F  F1  1  0.92703700  0.67703700  0.25000000  1
  F  F2  1  0.33040400  0.69047600  0.26154800  1
  F  F3  1  0.92892800  0.06885600  0.23845200  1
  F  F4  1  0.33040400  0.06885600  0.63992800  1
  F  F5  1  0.92892800  0.69047600  0.86007200  1
  F  F6  1  0.68147100  0.93147100  0.75000000  1
  F  F7  1  0.07296300  0.32296300  0.75000000  1
  F  F8  1  0.66959600  0.30952400  0.73845200  1
  F  F9  1  0.07107200  0.93114400  0.76154800  1
  F  F10  1  0.66959600  0.93114400  0.36007200  1
  F  F11  1  0.07107200  0.30952400  0.13992800  1
loop_
_geom_bond_atom_site_label_1
_geom_bond_atom_site_label_2
_geom_bond_distance
_geom_bond_site_symmetry_2
Cs0 F7 3.105759 1_555
Cs0 F10 3.186143 1_556
Cs0 F8 3.186143 1_555
Cs0 F11 3.186143 1_555
Cs0 F9 3.186143 1_555
Cs0 F6 3.212562 1_555
Cs1 F1 3.105759 1_555
Cs1 F5 3.186143 1_555
Cs1 F2 3.186143 1_555
Cs1 F3 3.186143 1_555
Cs1 F4 3.186143 1_554
Cs1 F0 3.212562 1_555
Co0 F9 1.906616 1_544
Co0 F5 1.906616 1_444
Co0 F3 1.906616 1_455
Co0 F11 1.906616 1_555
Co0 F6 1.983640 1_444
Co0 F0 1.983640 1_555
Co1 F10 1.906616 1_545
Co1 F2 1.906616 1_545
Co1 F4 1.906616 1_555
Co1 F8 1.906616 1_555
Co1 F6 1.983640 1_545
Co1 F0 1.983640 1_555
F1 Ni1 1.990747 1_655
F1 Ni0 1.990747 1_665
F2 Ni1 2.055159 1_555
F3 Ni0 2.055159 1_655
F4 Ni0 2.055159 1_555
F5 Ni1 2.055159 1_656
F7 Ni1 1.990747 1_556
F7 Ni0 1.990747 1_555
F8 Ni1 2.055159 1_656
F9 Ni0 2.055159 1_565
F10 Ni0 2.055159 1_665
F11 Ni1 2.055159 1_555
