# generated using pymatgen
data_CrB4Mo
_symmetry_space_group_name_H-M   'P 1'
_cell_length_a   3.01921175
_cell_length_b   3.01921175
_cell_length_c   6.26158400
_cell_angle_alpha   90.00000000
_cell_angle_beta   90.00000000
_cell_angle_gamma   119.99999447
_symmetry_Int_Tables_number   1
_chemical_formula_structural   CrB4Mo
_chemical_formula_sum   'Cr1 B4 Mo1'
_cell_volume   49.43129773
_cell_formula_units_Z   1
loop_
 _symmetry_equiv_pos_site_id
 _symmetry_equiv_pos_as_xyz
  1  'x, y, z'
loop_
 _atom_site_type_symbol
 _atom_site_label
 _atom_site_symmetry_multiplicity
 _atom_site_fract_x
 _atom_site_fract_y
 _atom_site_fract_z
 _atom_site_occupancy
  Cr  Cr0  1  0.00000000  0.00000000  0.00000000  1
  B  B0  1  0.66666700  0.33333300  0.76531600  1
  B  B1  1  0.66666700  0.33333300  0.23468400  1
  B  B2  1  0.33333300  0.66666700  0.76531600  1
  B  B3  1  0.33333300  0.66666700  0.23468400  1
  Mo  Mo0  1  0.00000000  0.00000000  0.50000000  1
loop_
_geom_bond_atom_site_label_1
_geom_bond_atom_site_label_2
_geom_bond_distance
_geom_bond_site_symmetry_2
B0 B2 1.743141 1_545
B0 B2 1.743141 1_655
B0 B2 1.743146 1_555
B0 Cr0 2.279902 1_656
B0 Cr0 2.279904 1_666
B0 Cr0 2.279904 1_556
B0 Mo0 2.407998 1_655
B0 Mo0 2.408000 1_555
B0 Mo0 2.408000 1_665
B1 B3 1.743141 1_545
B1 B3 1.743141 1_655
B1 B3 1.743146 1_555
B1 Cr0 2.279902 1_655
B1 Cr0 2.279904 1_555
B1 Cr0 2.279904 1_665
B1 Mo0 2.407998 1_655
B1 Mo0 2.408000 1_555
B1 Mo0 2.408000 1_665
B2 Cr0 2.279902 1_566
B2 Cr0 2.279904 1_666
B2 Cr0 2.279904 1_556
B2 Mo0 2.407998 1_565
B2 Mo0 2.408000 1_555
B2 Mo0 2.408000 1_665
B3 Cr0 2.279902 1_565
B3 Cr0 2.279904 1_665
B3 Cr0 2.279904 1_555
B3 Mo0 2.407998 1_565
B3 Mo0 2.408000 1_555
B3 Mo0 2.408000 1_665
