# generated using pymatgen
data_K2Ni(PO3)4
_symmetry_space_group_name_H-M   'P 1'
_cell_length_a   7.77287023
_cell_length_b   8.45881556
_cell_length_c   8.45881556
_cell_angle_alpha   97.22234788
_cell_angle_beta   98.33458770
_cell_angle_gamma   98.33458770
_symmetry_Int_Tables_number   1
_chemical_formula_structural   K2Ni(PO3)4
_chemical_formula_sum   'K4 Ni2 P8 O24'
_cell_volume   538.32484207
_cell_formula_units_Z   2
loop_
 _symmetry_equiv_pos_site_id
 _symmetry_equiv_pos_as_xyz
  1  'x, y, z'
loop_
 _atom_site_type_symbol
 _atom_site_label
 _atom_site_symmetry_multiplicity
 _atom_site_fract_x
 _atom_site_fract_y
 _atom_site_fract_z
 _atom_site_occupancy
  K  K0  1  0.31278800  0.56209000  0.83235500  1
  K  K1  1  0.81278800  0.83235500  0.56209000  1
  K  K2  1  0.99579500  0.87232700  0.12445200  1
  K  K3  1  0.49579500  0.12445200  0.87232700  1
  Ni  Ni0  1  0.64968600  0.51452600  0.20635100  1
  Ni  Ni1  1  0.14968600  0.20635100  0.51452600  1
  P  P0  1  0.82372000  0.49664700  0.86988300  1
  P  P1  1  0.32372000  0.86988300  0.49664700  1
  P  P2  1  0.58573200  0.40070800  0.55120800  1
  P  P3  1  0.08573200  0.55120800  0.40070800  1
  P  P4  1  0.98014800  0.18847500  0.86498500  1
  P  P5  1  0.48014800  0.86498500  0.18847500  1
  P  P6  1  0.74083200  0.18105800  0.32856000  1
  P  P7  1  0.24083200  0.32856000  0.18105800  1
  O  O0  1  0.00111600  0.59934900  0.90858800  1
  O  O1  1  0.50111600  0.90858800  0.59934900  1
  O  O2  1  0.38525300  0.85187800  0.01955800  1
  O  O3  1  0.88525300  0.01955800  0.85187800  1
  O  O4  1  0.93410500  0.63085300  0.33806000  1
  O  O5  1  0.43410500  0.33806000  0.63085300  1
  O  O6  1  0.68584200  0.52892200  0.97326300  1
  O  O7  1  0.18584200  0.97326300  0.52892200  1
  O  O8  1  0.75493600  0.30567000  0.21714300  1
  O  O9  1  0.25493600  0.21714300  0.30567000  1
  O  O10  1  0.82896900  0.30323500  0.85284100  1
  O  O11  1  0.32896900  0.85284100  0.30323500  1
  O  O12  1  0.61282100  0.75734900  0.23103600  1
  O  O13  1  0.11282100  0.23103600  0.75734900  1
  O  O14  1  0.57210900  0.05083800  0.24108900  1
  O  O15  1  0.07210900  0.24108900  0.05083800  1
  O  O16  1  0.56219400  0.50558400  0.42178700  1
  O  O17  1  0.06219400  0.42178700  0.50558400  1
  O  O18  1  0.89383500  0.09588200  0.37543700  1
  O  O19  1  0.39383500  0.37543700  0.09588200  1
  O  O20  1  0.74092300  0.51179000  0.68581600  1
  O  O21  1  0.24092300  0.68581600  0.51179000  1
  O  O22  1  0.67819700  0.24840100  0.49460700  1
  O  O23  1  0.17819700  0.49460700  0.24840100  1
loop_
_geom_bond_atom_site_label_1
_geom_bond_atom_site_label_2
_geom_bond_distance
_geom_bond_site_symmetry_2
K0 O0 2.647113 1_555
K0 O2 2.683026 1_556
K0 O5 2.749076 1_555
K0 O19 2.936810 1_556
K0 O13 2.943771 1_555
K0 O21 3.033818 1_555
K0 O6 3.037367 1_555
K0 O17 3.128403 1_555
K1 O1 2.647113 1_555
K1 O3 2.683026 1_565
K1 O4 2.749076 1_555
K1 O18 2.936810 1_565
K1 O12 2.943771 1_555
K1 O20 3.033818 1_555
K1 O7 3.037367 1_655
K1 O16 3.128403 1_555
K2 O0 2.767141 1_654
K2 O3 2.839582 1_564
K2 O11 2.841103 1_655
K2 O4 2.926103 1_555
K2 O18 2.936681 1_565
K3 O1 2.767141 1_545
K3 O2 2.839582 1_546
K3 O10 2.841103 1_555
K3 O5 2.926103 1_555
K3 O19 2.936681 1_556
Ni0 O16 2.041601 1_555
Ni0 O6 2.047509 1_554
Ni0 O8 2.058314 1_555
Ni0 O12 2.103507 1_555
Ni0 O19 2.172285 1_555
Ni0 O4 2.340202 1_555
Ni1 O17 2.041601 1_555
Ni1 O7 2.047509 1_545
Ni1 O9 2.058314 1_555
Ni1 O13 2.103507 1_555
Ni1 O18 2.172285 1_455
Ni1 O5 2.340202 1_555
O0 P0 1.487793 1_455
O1 P1 1.487793 1_555
O2 P5 1.492935 1_555
O3 P4 1.492935 1_555
O4 P3 1.504206 1_655
O5 P2 1.504206 1_555
O6 P0 1.511384 1_555
O7 P1 1.511384 1_555
O8 P6 1.502512 1_555
O9 P7 1.502512 1_555
O10 P4 1.629264 1_555
O10 P0 1.631201 1_555
O11 P5 1.629264 1_555
O11 P1 1.631201 1_555
O12 P5 1.506332 1_555
O13 P4 1.506332 1_455
O14 P6 1.604890 1_555
O14 P5 1.608281 1_545
O15 P7 1.604890 1_555
O15 P4 1.608281 1_454
O16 P2 1.500708 1_555
O17 P3 1.500708 1_555
O18 P6 1.508056 1_555
O19 P7 1.508056 1_555
O20 P0 1.624301 1_555
O20 P2 1.624399 1_555
O21 P1 1.624301 1_555
O21 P3 1.624399 1_555
O22 P6 1.616099 1_555
O22 P2 1.618240 1_555
O23 P7 1.616099 1_555
O23 P3 1.618240 1_555
