# generated using pymatgen
data_Rb4Li(Se2O7)2
_symmetry_space_group_name_H-M   'P 1'
_cell_length_a   8.12345034
_cell_length_b   7.91608760
_cell_length_c   8.11967157
_cell_angle_alpha   89.47450223
_cell_angle_beta   87.86419448
_cell_angle_gamma   59.96562692
_symmetry_Int_Tables_number   1
_chemical_formula_structural   Rb4Li(Se2O7)2
_chemical_formula_sum   'Rb4 Li1 Se4 O14'
_cell_volume   451.69136825
_cell_formula_units_Z   1
loop_
 _symmetry_equiv_pos_site_id
 _symmetry_equiv_pos_as_xyz
  1  'x, y, z'
loop_
 _atom_site_type_symbol
 _atom_site_label
 _atom_site_symmetry_multiplicity
 _atom_site_fract_x
 _atom_site_fract_y
 _atom_site_fract_z
 _atom_site_occupancy
  Rb  Rb0  1  0.18463500  0.52367500  0.35478300  1
  Rb  Rb1  1  0.48673300  0.82921300  0.14387900  1
  Rb  Rb2  1  0.73823900  0.52543400  0.58238000  1
  Rb  Rb3  1  0.57787100  0.19292600  0.86788500  1
  Li  Li0  1  0.08715500  0.31532400  0.83103500  1
  Se  Se0  1  0.70554600  0.07752700  0.37497200  1
  Se  Se1  1  0.92586600  0.29537500  0.11356200  1
  Se  Se2  1  0.26063300  0.92898800  0.65195300  1
  Se  Se3  1  0.09218800  0.69816600  0.88069200  1
  O  O0  1  0.62092900  0.24901000  0.52336900  1
  O  O1  1  0.81953400  0.37517100  0.92744500  1
  O  O2  1  0.32478000  0.78919900  0.48640400  1
  O  O3  1  0.26394600  0.63866300  0.00991200  1
  O  O4  1  0.54761700  0.15414900  0.22574200  1
  O  O5  1  0.84003600  0.48622200  0.24497700  1
  O  O6  1  0.43366300  0.86367100  0.78081700  1
  O  O7  1  0.14752700  0.51631000  0.74751300  1
  O  O8  1  0.74796700  0.86230700  0.44843100  1
  O  O9  1  0.15755500  0.22724500  0.06203700  1
  O  O10  1  0.14179900  0.16755900  0.62203600  1
  O  O11  1  0.87425800  0.79709300  0.95760000  1
  O  O12  1  0.92018100  0.03966200  0.29636900  1
  O  O13  1  0.06800600  0.90544200  0.75787400  1
loop_
_geom_bond_atom_site_label_1
_geom_bond_atom_site_label_2
_geom_bond_distance
_geom_bond_site_symmetry_2
Li0 O10 1.976259 1_555
Li0 O7 1.992060 1_555
Li0 O9 1.997025 1_556
Li0 O1 2.100592 1_455
O0 Se0 1.673707 1_555
O0 Rb2 2.840181 1_555
O0 Rb3 2.864332 1_555
O0 Rb0 3.428647 1_555
O1 Se1 1.721184 1_556
O1 Rb2 2.998602 1_555
O1 Rb3 3.014587 1_555
O2 Se2 1.643408 1_555
O2 Rb0 3.063268 1_555
O2 Rb2 3.064793 1_555
O2 Rb1 3.113595 1_555
O3 Se3 1.646714 1_554
O3 Rb0 3.080720 1_555
O3 Rb1 3.105399 1_555
O3 Rb3 3.336366 1_554
O4 Se0 1.674945 1_555
O4 Rb3 2.933179 1_554
O4 Rb1 2.938052 1_545
O4 Rb0 3.088817 1_555
O5 Se1 1.681307 1_555
O5 Rb2 2.806312 1_555
O5 Rb1 2.935480 1_555
O5 Rb0 3.121024 1_655
O6 Se2 1.646221 1_555
O6 Rb1 2.985448 1_556
O6 Rb2 3.006206 1_555
O6 Rb3 3.437665 1_565
O7 Se3 1.669837 1_555
O7 Rb0 3.194604 1_555
O7 Rb3 3.313604 1_555
O8 Se0 1.669156 1_565
O8 Rb2 2.907213 1_555
O8 Rb0 3.265666 1_655
O8 Rb1 3.412715 1_555
O9 Se1 1.713937 1_455
O9 Rb1 3.029819 1_545
O9 Rb0 3.444260 1_555
O10 Se2 1.655773 1_545
O10 Rb2 3.105096 1_455
O11 Se3 1.635876 1_655
O11 Rb3 2.946652 1_565
O11 Rb1 3.333680 1_556
O12 Se0 1.713079 1_555
O13 Se3 1.840457 1_555
O13 Se2 1.847084 1_555
