# generated using pymatgen
data_ZnNiO3
_symmetry_space_group_name_H-M   'P 1'
_cell_length_a   5.05374600
_cell_length_b   5.15672900
_cell_length_c   7.36808300
_cell_angle_alpha   90.00000000
_cell_angle_beta   90.00000000
_cell_angle_gamma   90.00000000
_symmetry_Int_Tables_number   1
_chemical_formula_structural   ZnNiO3
_chemical_formula_sum   'Zn4 Ni4 O12'
_cell_volume   192.01812681
_cell_formula_units_Z   4
loop_
 _symmetry_equiv_pos_site_id
 _symmetry_equiv_pos_as_xyz
  1  'x, y, z'
loop_
 _atom_site_type_symbol
 _atom_site_label
 _atom_site_symmetry_multiplicity
 _atom_site_fract_x
 _atom_site_fract_y
 _atom_site_fract_z
 _atom_site_occupancy
  Zn  Zn0  1  0.49124300  0.05464900  0.75000000  1
  Zn  Zn1  1  0.99124300  0.44535100  0.25000000  1
  Zn  Zn2  1  0.00875700  0.55464900  0.75000000  1
  Zn  Zn3  1  0.50875700  0.94535100  0.25000000  1
  Ni  Ni0  1  0.00000000  0.00000000  0.50000000  1
  Ni  Ni1  1  0.50000000  0.50000000  0.50000000  1
  Ni  Ni2  1  0.50000000  0.50000000  0.00000000  1
  Ni  Ni3  1  0.00000000  0.00000000  0.00000000  1
  O  O0  1  0.37371300  0.56771500  0.25000000  1
  O  O1  1  0.87371300  0.93228500  0.75000000  1
  O  O2  1  0.12628700  0.06771500  0.25000000  1
  O  O3  1  0.62628700  0.43228500  0.75000000  1
  O  O4  1  0.18690400  0.31108200  0.92971800  1
  O  O5  1  0.68690400  0.18891800  0.07028200  1
  O  O6  1  0.31309600  0.81108200  0.57028200  1
  O  O7  1  0.81309600  0.68891800  0.42971800  1
  O  O8  1  0.18690400  0.31108200  0.57028200  1
  O  O9  1  0.68690400  0.18891800  0.42971800  1
  O  O10  1  0.81309600  0.68891800  0.07028200  1
  O  O11  1  0.31309600  0.81108200  0.92971800  1
loop_
_geom_bond_atom_site_label_1
_geom_bond_atom_site_label_2
_geom_bond_distance
_geom_bond_site_symmetry_2
Ni0 O6 1.928969 1_545
Ni0 O9 1.928969 1_455
Ni0 O7 1.932282 1_445
Ni0 O8 1.932282 1_555
Ni0 O1 1.980480 1_445
Ni0 O2 1.980480 1_555
Ni1 O8 1.928969 1_555
Ni1 O7 1.928969 1_555
Ni1 O9 1.932282 1_555
Ni1 O6 1.932282 1_555
Ni1 O0 1.980480 1_555
Ni1 O3 1.980480 1_555
Ni2 O4 1.928969 1_554
Ni2 O10 1.928969 1_555
Ni2 O11 1.932282 1_554
Ni2 O5 1.932282 1_555
Ni2 O0 1.980480 1_555
Ni2 O3 1.980480 1_554
Ni3 O11 1.928969 1_544
Ni3 O5 1.928969 1_455
Ni3 O10 1.932282 1_445
Ni3 O4 1.932282 1_554
Ni3 O2 1.980480 1_555
Ni3 O1 1.980480 1_444
O0 Zn1 2.033294 1_455
O0 Zn3 2.063495 1_555
O1 Zn0 2.033294 1_565
O1 Zn2 2.063495 1_655
O2 Zn3 2.033294 1_545
O2 Zn1 2.063495 1_455
O3 Zn2 2.033294 1_655
O3 Zn0 2.063495 1_555
O4 Zn2 2.035083 1_555
O4 Zn0 2.422328 1_555
O5 Zn3 2.035083 1_545
O5 Zn1 2.422328 1_555
O6 Zn0 2.035083 1_565
O6 Zn2 2.422328 1_555
O7 Zn1 2.035083 1_555
O7 Zn3 2.422328 1_555
O8 Zn2 2.035083 1_555
O8 Zn0 2.422328 1_555
O9 Zn3 2.035083 1_545
O9 Zn1 2.422328 1_555
O10 Zn1 2.035083 1_555
O10 Zn3 2.422328 1_555
O11 Zn0 2.035083 1_565
O11 Zn2 2.422328 1_555
