# generated using pymatgen
data_Na3W2(ClO)4
_symmetry_space_group_name_H-M   'P 1'
_cell_length_a   8.03693408
_cell_length_b   8.03693408
_cell_length_c   5.61394200
_cell_angle_alpha   90.00000000
_cell_angle_beta   90.00000000
_cell_angle_gamma   138.48909380
_symmetry_Int_Tables_number   1
_chemical_formula_structural   Na3W2(ClO)4
_chemical_formula_sum   'Na3 W2 Cl4 O4'
_cell_volume   240.32930263
_cell_formula_units_Z   1
loop_
 _symmetry_equiv_pos_site_id
 _symmetry_equiv_pos_as_xyz
  1  'x, y, z'
loop_
 _atom_site_type_symbol
 _atom_site_label
 _atom_site_symmetry_multiplicity
 _atom_site_fract_x
 _atom_site_fract_y
 _atom_site_fract_z
 _atom_site_occupancy
  Na  Na0  1  0.86838600  0.13161400  0.50000000  1
  Na  Na1  1  0.12993400  0.87006600  0.50000000  1
  Na  Na2  1  0.62793100  0.37206900  0.00000000  1
  W  W0  1  0.49643500  0.50356500  0.50000000  1
  W  W1  1  0.99719400  0.00280600  0.00000000  1
  Cl  Cl0  1  0.66643000  0.33357000  0.50000000  1
  Cl  Cl1  1  0.16442000  0.83558000  0.00000000  1
  Cl  Cl2  1  0.83520000  0.16480000  0.00000000  1
  Cl  Cl3  1  0.33311600  0.66688400  0.50000000  1
  O  O0  1  0.24781000  0.24228300  0.75368400  1
  O  O1  1  0.75771700  0.75219000  0.24631600  1
  O  O2  1  0.75771700  0.75219000  0.75368400  1
  O  O3  1  0.24781000  0.24228300  0.24631600  1
loop_
_geom_bond_atom_site_label_1
_geom_bond_atom_site_label_2
_geom_bond_distance
_geom_bond_site_symmetry_2
Na0 O1 2.838342 1_545
Na0 O2 2.838342 1_545
Na0 O3 2.838342 1_655
Na0 O0 2.838342 1_655
Na1 O3 2.762305 1_565
Na1 O0 2.762305 1_565
Na1 O1 2.762305 1_455
Na1 O2 2.762305 1_455
Na2 O0 2.749684 1_554
Na2 O3 2.749684 1_555
Na2 O1 2.749684 1_555
Na2 O2 2.749684 1_554
Cl0 W0 2.555144 1_555
Cl0 Na2 2.865997 1_555
Cl0 Na2 2.865997 1_556
Cl0 Na1 2.900475 1_545
Cl0 Na1 2.900475 1_655
Cl0 Na0 3.035540 1_555
Cl1 W1 2.513524 1_465
Cl1 Na1 2.854430 1_555
Cl1 Na1 2.854430 1_554
Cl1 Na2 2.900455 1_565
Cl1 Na2 2.900455 1_455
Cl2 W1 2.434883 1_555
Cl2 Na0 2.850947 1_554
Cl2 Na0 2.850947 1_555
Cl2 Na2 3.115398 1_555
Cl3 W0 2.454799 1_555
Cl3 Na0 2.897047 1_565
Cl3 Na0 2.897047 1_455
Cl3 Na1 3.053967 1_555
O0 W1 1.966608 1_456
O0 W0 2.036276 1_555
O1 W1 1.966608 1_565
O1 W0 2.036276 1_555
O2 W1 1.966608 1_566
O2 W0 2.036276 1_555
O3 W1 1.966608 1_455
O3 W0 2.036276 1_555
