# generated using pymatgen
data_TbSm3
_symmetry_space_group_name_H-M   'P 1'
_cell_length_a   7.36146383
_cell_length_b   7.36145884
_cell_length_c   5.89347666
_cell_angle_alpha   90.00000000
_cell_angle_beta   90.00000000
_cell_angle_gamma   120.00001461
_symmetry_Int_Tables_number   1
_chemical_formula_structural   TbSm3
_chemical_formula_sum   'Tb2 Sm6'
_cell_volume   276.58600823
_cell_formula_units_Z   2
loop_
 _symmetry_equiv_pos_site_id
 _symmetry_equiv_pos_as_xyz
  1  'x, y, z'
loop_
 _atom_site_type_symbol
 _atom_site_label
 _atom_site_symmetry_multiplicity
 _atom_site_fract_x
 _atom_site_fract_y
 _atom_site_fract_z
 _atom_site_occupancy
  Tb  Tb0  1  0.33333300  0.66666700  0.75000000  1
  Tb  Tb1  1  0.66666700  0.33333300  0.25000000  1
  Sm  Sm0  1  0.16802079  0.33604158  0.25000000  1
  Sm  Sm1  1  0.66395942  0.83197921  0.25000000  1
  Sm  Sm2  1  0.16802079  0.83197921  0.25000000  1
  Sm  Sm3  1  0.83197921  0.66395842  0.75000000  1
  Sm  Sm4  1  0.33604058  0.16802079  0.75000000  1
  Sm  Sm5  1  0.83197921  0.16802079  0.75000000  1
loop_
_geom_bond_atom_site_label_1
_geom_bond_atom_site_label_2
_geom_bond_distance
_geom_bond_site_symmetry_2
Sm0 Tb0 3.622998 1_555
Sm0 Tb0 3.622998 1_554
Sm0 Sm4 3.643192 1_555
Sm0 Sm4 3.643192 1_554
Sm0 Sm5 3.643196 1_455
Sm0 Sm5 3.643196 1_454
Sm0 Sm2 3.650824 1_555
Sm0 Sm1 3.650829 1_555
Sm0 Tb1 3.680769 1_455
Sm0 Tb1 3.680776 1_555
Sm0 Sm1 3.710631 1_445
Sm0 Sm2 3.710634 1_545
Sm1 Tb0 3.623002 1_555
Sm1 Tb0 3.623002 1_554
Sm1 Sm3 3.643192 1_555
Sm1 Sm3 3.643192 1_554
Sm1 Sm5 3.643195 1_565
Sm1 Sm5 3.643195 1_564
Sm1 Sm2 3.650834 1_555
Sm1 Tb1 3.680770 1_565
Sm1 Tb1 3.680770 1_555
Sm1 Sm2 3.710630 1_655
Sm2 Tb0 3.622995 1_555
Sm2 Tb0 3.622995 1_554
Sm2 Sm4 3.643195 1_565
Sm2 Sm4 3.643195 1_564
Sm2 Sm3 3.643196 1_454
Sm2 Sm3 3.643196 1_455
Sm2 Tb1 3.680770 1_565
Sm2 Tb1 3.680770 1_455
Sm3 Tb1 3.622998 1_555
Sm3 Tb1 3.622998 1_556
Sm3 Sm5 3.650824 1_555
Sm3 Sm4 3.650829 1_555
Sm3 Tb0 3.680769 1_655
Sm3 Tb0 3.680776 1_555
Sm3 Sm4 3.710631 1_665
Sm3 Sm5 3.710634 1_565
Sm4 Tb1 3.623002 1_556
Sm4 Tb1 3.623002 1_555
Sm4 Sm5 3.650834 1_555
Sm4 Tb0 3.680770 1_545
Sm4 Tb0 3.680770 1_555
Sm4 Sm5 3.710630 1_455
Sm5 Tb1 3.622995 1_556
Sm5 Tb1 3.622995 1_555
Sm5 Tb0 3.680770 1_545
Sm5 Tb0 3.680770 1_655
