# generated using pymatgen
data_Te
_symmetry_space_group_name_H-M   'P 1'
_cell_length_a   6.16063612
_cell_length_b   10.94207167
_cell_length_c   16.73867964
_cell_angle_alpha   90.00000000
_cell_angle_beta   90.00000000
_cell_angle_gamma   89.98790995
_symmetry_Int_Tables_number   1
_chemical_formula_structural   Te
_chemical_formula_sum   Te32
_cell_volume   1128.35641029
_cell_formula_units_Z   32
loop_
 _symmetry_equiv_pos_site_id
 _symmetry_equiv_pos_as_xyz
  1  'x, y, z'
loop_
 _atom_site_type_symbol
 _atom_site_label
 _atom_site_symmetry_multiplicity
 _atom_site_fract_x
 _atom_site_fract_y
 _atom_site_fract_z
 _atom_site_occupancy
  Te  Te0_0  1  0.11821544  0.21971985  0.13903653  1
  Te  Te0_1  1  0.11821544  0.21971985  0.63903654  1
  Te  Te0_2  1  0.11821544  0.71971986  0.13903653  1
  Te  Te0_3  1  0.11821544  0.71971986  0.63903654  1
  Te  Te0_4  1  0.61821544  0.21971985  0.13903653  1
  Te  Te0_5  1  0.61821544  0.21971985  0.63903654  1
  Te  Te0_6  1  0.61821544  0.71971986  0.13903653  1
  Te  Te0_7  1  0.61821544  0.71971986  0.63903654  1
  Te  Te1_0  1  0.38178456  0.28028014  0.38903654  1
  Te  Te1_1  1  0.38178456  0.28028014  0.88903654  1
  Te  Te1_2  1  0.38178456  0.78028014  0.38903654  1
  Te  Te1_3  1  0.38178456  0.78028014  0.88903654  1
  Te  Te1_4  1  0.88178456  0.28028014  0.38903654  1
  Te  Te1_5  1  0.88178456  0.28028014  0.88903654  1
  Te  Te1_6  1  0.88178456  0.78028014  0.38903654  1
  Te  Te1_7  1  0.88178456  0.78028014  0.88903654  1
  Te  Te2_0  1  0.11790132  0.03048460  0.24596346  1
  Te  Te2_1  1  0.11790132  0.03048460  0.74596346  1
  Te  Te2_2  1  0.11790132  0.53048460  0.24596346  1
  Te  Te2_3  1  0.11790132  0.53048460  0.74596346  1
  Te  Te2_4  1  0.61790132  0.03048460  0.24596346  1
  Te  Te2_5  1  0.61790132  0.03048460  0.74596346  1
  Te  Te2_6  1  0.61790132  0.53048460  0.24596346  1
  Te  Te2_7  1  0.61790132  0.53048460  0.74596346  1
  Te  Te3_0  1  0.38209868  0.46951540  0.99596346  1
  Te  Te3_1  1  0.38209868  0.46951540  0.49596347  1
  Te  Te3_2  1  0.38209868  0.96951540  0.99596346  1
  Te  Te3_3  1  0.38209868  0.96951540  0.49596347  1
  Te  Te3_4  1  0.88209868  0.46951540  0.99596346  1
  Te  Te3_5  1  0.88209868  0.46951540  0.49596347  1
  Te  Te3_6  1  0.88209868  0.96951540  0.99596346  1
  Te  Te3_7  1  0.88209868  0.96951540  0.49596347  1
loop_
_geom_bond_atom_site_label_1
_geom_bond_atom_site_label_2
_geom_bond_distance
_geom_bond_site_symmetry_2
Te0_0 Te2_0 2.736957 1_555
Te0_0 Te0_4 3.080318 1_555
Te0_0 Te0_4 3.080318 1_455
Te0_1 Te2_1 2.736957 1_555
Te0_1 Te0_5 3.080318 1_555
Te0_1 Te0_5 3.080318 1_455
Te0_2 Te2_2 2.736957 1_555
Te0_2 Te0_6 3.080318 1_555
Te0_2 Te0_6 3.080318 1_455
Te0_3 Te2_3 2.736957 1_555
Te0_3 Te0_7 3.080318 1_555
Te0_3 Te0_7 3.080318 1_455
Te0_4 Te2_4 2.736957 1_555
Te0_5 Te2_5 2.736957 1_555
Te0_6 Te2_6 2.736957 1_555
Te0_7 Te2_7 2.736957 1_555
Te1_0 Te3_1 2.736957 1_555
Te1_0 Te1_4 3.080318 1_455
Te1_0 Te1_4 3.080318 1_555
Te1_1 Te3_0 2.736957 1_555
Te1_1 Te1_5 3.080318 1_455
Te1_1 Te1_5 3.080318 1_555
Te1_2 Te3_3 2.736957 1_555
Te1_2 Te1_6 3.080318 1_455
Te1_2 Te1_6 3.080318 1_555
Te1_3 Te3_2 2.736957 1_555
Te1_3 Te1_7 3.080318 1_555
Te1_3 Te1_7 3.080318 1_455
Te1_4 Te3_5 2.736957 1_555
Te1_5 Te3_4 2.736957 1_555
Te1_6 Te3_7 2.736957 1_555
Te1_7 Te3_6 2.736957 1_555
Te2_0 Te2_4 3.080318 1_455
Te2_0 Te2_4 3.080318 1_555
Te2_1 Te2_5 3.080318 1_455
Te2_1 Te2_5 3.080318 1_555
Te2_2 Te2_6 3.080318 1_555
Te2_2 Te2_6 3.080318 1_455
Te2_3 Te2_7 3.080318 1_555
Te2_3 Te2_7 3.080318 1_455
Te3_0 Te3_4 3.080318 1_455
Te3_0 Te3_4 3.080318 1_555
Te3_1 Te3_5 3.080318 1_455
Te3_1 Te3_5 3.080318 1_555
Te3_2 Te3_6 3.080318 1_555
Te3_2 Te3_6 3.080318 1_455
Te3_3 Te3_7 3.080318 1_555
Te3_3 Te3_7 3.080318 1_455
