# generated using pymatgen
data_Yb(InS2)2
_symmetry_space_group_name_H-M   'P 1'
_cell_length_a   6.07033684
_cell_length_b   6.07033684
_cell_length_c   10.20738700
_cell_angle_alpha   90.00000000
_cell_angle_beta   90.00000000
_cell_angle_gamma   114.40130946
_symmetry_Int_Tables_number   1
_chemical_formula_structural   Yb(InS2)2
_chemical_formula_sum   'Yb2 In4 S8'
_cell_volume   342.53362023
_cell_formula_units_Z   2
loop_
 _symmetry_equiv_pos_site_id
 _symmetry_equiv_pos_as_xyz
  1  'x, y, z'
loop_
 _atom_site_type_symbol
 _atom_site_label
 _atom_site_symmetry_multiplicity
 _atom_site_fract_x
 _atom_site_fract_y
 _atom_site_fract_z
 _atom_site_occupancy
  Yb  Yb0  1  0.50000000  0.50000000  0.75000000  1
  Yb  Yb1  1  0.50000000  0.50000000  0.25000000  1
  In  In0  1  0.78172400  0.22240900  0.50000000  1
  In  In1  1  0.21827600  0.77759100  0.50000000  1
  In  In2  1  0.77759100  0.21827600  0.00000000  1
  In  In3  1  0.22240900  0.78172400  0.00000000  1
  S  S0  1  0.35747600  0.22114500  0.50000000  1
  S  S1  1  0.64252400  0.77885500  0.50000000  1
  S  S2  1  0.77885500  0.64252400  0.00000000  1
  S  S3  1  0.22114500  0.35747600  0.00000000  1
  S  S4  1  0.50000000  0.00000000  0.81577200  1
  S  S5  1  0.00000000  0.50000000  0.68422800  1
  S  S6  1  0.50000000  0.00000000  0.18422800  1
  S  S7  1  0.00000000  0.50000000  0.31577200  1
loop_
_geom_bond_atom_site_label_1
_geom_bond_atom_site_label_2
_geom_bond_distance
_geom_bond_site_symmetry_2
In0 S1 2.466543 1_545
In0 S5 2.507298 1_655
In0 S7 2.507298 1_655
In0 S0 2.572168 1_555
In1 S0 2.466543 1_565
In1 S5 2.507298 1_555
In1 S7 2.507298 1_555
In1 S1 2.572168 1_555
In2 S3 2.466543 1_655
In2 S4 2.507298 1_554
In2 S6 2.507298 1_555
In2 S2 2.572168 1_555
In3 S2 2.466543 1_455
In3 S4 2.507298 1_564
In3 S6 2.507298 1_565
In3 S3 2.572168 1_555
S0 Yb0 2.985928 1_555
S0 Yb1 2.985928 1_555
S1 Yb0 2.985928 1_555
S1 Yb1 2.985928 1_555
S2 Yb1 2.985928 1_555
S2 Yb0 2.985928 1_554
S3 Yb1 2.985928 1_555
S3 Yb0 2.985928 1_554
S4 Yb0 3.108532 1_545
S4 Yb0 3.108532 1_555
S5 Yb0 3.108532 1_555
S5 Yb0 3.108532 1_455
S6 Yb1 3.108532 1_545
S6 Yb1 3.108532 1_555
S7 Yb1 3.108532 1_455
S7 Yb1 3.108532 1_555
