# generated using pymatgen
data_CaFeP2O7
_symmetry_space_group_name_H-M   'P 1'
_cell_length_a   6.22098415
_cell_length_b   10.45541683
_cell_length_c   9.20787947
_cell_angle_alpha   84.24340128
_cell_angle_beta   103.39956821
_cell_angle_gamma   75.69258550
_symmetry_Int_Tables_number   1
_chemical_formula_structural   CaFeP2O7
_chemical_formula_sum   'Ca4 Fe4 P8 O28'
_cell_volume   556.59038364
_cell_formula_units_Z   4
loop_
 _symmetry_equiv_pos_site_id
 _symmetry_equiv_pos_as_xyz
  1  'x, y, z'
loop_
 _atom_site_type_symbol
 _atom_site_label
 _atom_site_symmetry_multiplicity
 _atom_site_fract_x
 _atom_site_fract_y
 _atom_site_fract_z
 _atom_site_occupancy
  Ca  Ca0  1  0.30356300  0.67389300  0.96838600  1
  Ca  Ca1  1  0.30356000  0.17386500  0.46841000  1
  Ca  Ca2  1  0.69647700  0.32609500  0.03163900  1
  Ca  Ca3  1  0.69656200  0.82612600  0.53168800  1
  Fe  Fe0  1  0.25486800  0.66158600  0.53151900  1
  Fe  Fe1  1  0.74535800  0.33857800  0.46853300  1
  Fe  Fe2  1  0.25493600  0.16163200  0.03151800  1
  Fe  Fe3  1  0.74517100  0.83833800  0.96848100  1
  P  P0  1  0.16775600  0.38912100  0.73002000  1
  P  P1  1  0.16776100  0.88914000  0.23008400  1
  P  P2  1  0.83223500  0.61094600  0.27001100  1
  P  P3  1  0.83225100  0.11085100  0.76992000  1
  P  P4  1  0.23563400  0.41792600  0.20025500  1
  P  P5  1  0.23576800  0.91793700  0.70029000  1
  P  P6  1  0.76434400  0.58205900  0.79974900  1
  P  P7  1  0.76426200  0.08202300  0.29971100  1
  O  O0  1  0.08367300  0.82387600  0.09344800  1
  O  O1  1  0.08366700  0.32389100  0.59340200  1
  O  O2  1  0.91635300  0.17608300  0.90656300  1
  O  O3  1  0.91632400  0.67608700  0.40667100  1
  O  O4  1  0.25504700  0.50816500  0.69022100  1
  O  O5  1  0.25508200  0.00816900  0.19050000  1
  O  O6  1  0.74467900  0.49197300  0.30965600  1
  O  O7  1  0.74472700  0.99182900  0.80943000  1
  O  O8  1  0.33470400  0.28414000  0.86376800  1
  O  O9  1  0.33468300  0.78417400  0.36385800  1
  O  O10  1  0.66531200  0.71588800  0.13621900  1
  O  O11  1  0.66536600  0.21582400  0.63614200  1
  O  O12  1  0.63669300  0.54098500  0.91069300  1
  O  O13  1  0.63670100  0.04090200  0.41064100  1
  O  O14  1  0.36323600  0.45902800  0.08932100  1
  O  O15  1  0.36334500  0.95901400  0.58931300  1
  O  O16  1  0.10039000  0.31815900  0.14674700  1
  O  O17  1  0.10066700  0.81814300  0.64677300  1
  O  O18  1  0.89958600  0.68182700  0.85321200  1
  O  O19  1  0.89930400  0.18185900  0.35320900  1
  O  O20  1  0.05824800  0.55632400  0.20795700  1
  O  O21  1  0.05836100  0.05629900  0.70792500  1
  O  O22  1  0.94166600  0.44365600  0.79205100  1
  O  O23  1  0.94163700  0.94365000  0.29210100  1
  O  O24  1  0.60833100  0.13787600  0.13832800  1
  O  O25  1  0.60845000  0.63788400  0.63838600  1
  O  O26  1  0.39157900  0.36209100  0.36160600  1
  O  O27  1  0.39168900  0.86209200  0.86164800  1
loop_
_geom_bond_atom_site_label_1
_geom_bond_atom_site_label_2
_geom_bond_distance
_geom_bond_site_symmetry_2
Ca0 O14 2.306291 1_556
Ca0 O27 2.352297 1_555
Ca0 O0 2.385058 1_556
Ca0 O12 2.396464 1_555
Ca0 O18 2.468086 1_455
Ca0 O10 2.580322 1_556
Ca1 O15 2.305925 1_545
Ca1 O26 2.352417 1_555
Ca1 O1 2.384882 1_555
Ca1 O13 2.397076 1_555
Ca1 O19 2.469550 1_455
Ca1 O11 2.580045 1_555
Ca2 O12 2.306425 1_554
Ca2 O24 2.352367 1_555
Ca2 O2 2.385272 1_554
Ca2 O14 2.397051 1_555
Ca2 O16 2.467603 1_655
Ca2 O8 2.580396 1_554
Ca3 O13 2.305602 1_565
Ca3 O25 2.352491 1_555
Ca3 O3 2.384690 1_555
Ca3 O15 2.396500 1_555
Ca3 O17 2.468522 1_655
Ca3 O9 2.580738 1_555
Fe0 O4 2.058308 1_555
Fe0 O3 2.113095 1_455
Fe0 O9 2.132023 1_555
Fe0 O25 2.132262 1_555
Fe0 O17 2.184042 1_555
Fe1 O6 2.058027 1_555
Fe1 O1 2.111462 1_655
Fe1 O11 2.133302 1_555
Fe1 O26 2.133843 1_555
Fe1 O19 2.185057 1_555
Fe2 O5 2.060321 1_555
Fe2 O2 2.113723 1_454
Fe2 O24 2.131005 1_555
Fe2 O8 2.131961 1_554
Fe2 O16 2.184461 1_555
Fe3 O7 2.060270 1_555
Fe3 O0 2.113301 1_656
Fe3 O27 2.131538 1_555
Fe3 O10 2.131837 1_556
Fe3 O18 2.184290 1_555
O0 P1 1.538101 1_555
O1 P0 1.537756 1_555
O2 P3 1.537970 1_555
O3 P2 1.537492 1_555
O4 P0 1.520902 1_555
O5 P1 1.520401 1_545
O6 P2 1.520919 1_555
O7 P3 1.520950 1_565
O8 P0 1.540353 1_555
O9 P1 1.540366 1_555
O10 P2 1.540346 1_555
O11 P3 1.540349 1_555
O12 P6 1.521566 1_555
O13 P7 1.521219 1_555
O14 P4 1.521369 1_555
O15 P5 1.521465 1_555
O16 P4 1.543833 1_555
O17 P5 1.543525 1_555
O18 P6 1.543726 1_555
O19 P7 1.543616 1_555
O20 P4 1.607561 1_555
O20 P2 1.634160 1_455
O21 P5 1.607166 1_545
O21 P3 1.634233 1_455
O22 P6 1.607400 1_555
O22 P0 1.634290 1_655
O23 P7 1.607089 1_565
O23 P1 1.634350 1_655
O24 P7 1.538839 1_555
O25 P6 1.538586 1_555
O26 P4 1.538613 1_555
O27 P5 1.538629 1_555
