# generated using pymatgen
data_Hf7Cu10
_symmetry_space_group_name_H-M   'P 1'
_cell_length_a   7.75139301
_cell_length_b   7.75139301
_cell_length_c   9.21804314
_cell_angle_alpha   89.99973523
_cell_angle_beta   89.99975300
_cell_angle_gamma   107.54473673
_symmetry_Int_Tables_number   1
_chemical_formula_structural   Hf7Cu10
_chemical_formula_sum   'Hf14 Cu20'
_cell_volume   528.09333847
_cell_formula_units_Z   2
loop_
 _symmetry_equiv_pos_site_id
 _symmetry_equiv_pos_as_xyz
  1  'x, y, z'
loop_
 _atom_site_type_symbol
 _atom_site_label
 _atom_site_symmetry_multiplicity
 _atom_site_fract_x
 _atom_site_fract_y
 _atom_site_fract_z
 _atom_site_occupancy
  Hf  Hf0  1  0.31130200  0.68870772  0.00000151  1
  Hf  Hf1  1  0.68870772  0.31130200  0.00000151  1
  Hf  Hf2  1  0.18870974  0.81129947  0.49999839  1
  Hf  Hf3  1  0.81129947  0.18870974  0.49999839  1
  Hf  Hf4  1  -0.00000004  0.00000096  0.00001335  1
  Hf  Hf5  1  0.50000148  0.50000048  0.49998677  1
  Hf  Hf6  1  0.51275343  0.01274761  0.24999659  1
  Hf  Hf7  1  0.48724598  0.98725124  0.75000378  1
  Hf  Hf8  1  0.98725324  0.48724698  0.75000378  1
  Hf  Hf9  1  0.01274861  0.51275443  0.24999659  1
  Hf  Hf10  1  0.31160278  0.31160278  0.19135804  1
  Hf  Hf11  1  0.68840829  0.68840829  0.80865598  1
  Hf  Hf12  1  0.18840960  0.18840960  0.69134781  1
  Hf  Hf13  1  0.81160090  0.81160090  0.30863805  1
  Cu  Cu0  1  0.16182890  0.87103689  0.20467449  1
  Cu  Cu1  1  0.83815874  0.12897563  0.79530988  1
  Cu  Cu2  1  0.33816727  0.62897745  0.70469653  1
  Cu  Cu3  1  0.37103500  0.66182242  0.29531835  1
  Cu  Cu4  1  0.66182342  0.37103500  0.29531735  1
  Cu  Cu5  1  0.62897745  0.33816627  0.70469753  1
  Cu  Cu6  1  0.12897463  0.83815974  0.79531088  1
  Cu  Cu7  1  0.87103689  0.16182990  0.20467549  1
  Cu  Cu8  1  0.64953206  0.94285218  0.00662173  1
  Cu  Cu9  1  0.35047286  0.05713409  0.99333802  1
  Cu  Cu10  1  0.85046456  0.55713164  0.50665832  1
  Cu  Cu11  1  0.44285401  0.14954039  0.49338044  1
  Cu  Cu12  1  0.14954239  0.44285401  0.49338144  1
  Cu  Cu13  1  0.55713164  0.85046356  0.50665832  1
  Cu  Cu14  1  0.05713409  0.35047386  0.99333902  1
  Cu  Cu15  1  0.94285218  0.64953306  0.00662173  1
  Cu  Cu16  1  0.10699860  0.10699860  0.39772327  1
  Cu  Cu17  1  0.89298826  0.89298826  0.60229292  1
  Cu  Cu18  1  0.39299346  0.39299346  0.89771310  1
  Cu  Cu19  1  0.60699338  0.60699338  0.10227067  1
loop_
_geom_bond_atom_site_label_1
_geom_bond_atom_site_label_2
_geom_bond_distance
_geom_bond_site_symmetry_2
Cu0 Cu9 2.596612 1_564
Cu0 Hf4 2.624501 1_565
Cu0 Hf6 2.641770 1_565
Cu0 Cu16 2.676083 1_565
Cu0 Hf9 2.699592 1_555
Cu0 Cu15 2.721227 1_455
Cu0 Cu3 2.746509 1_555
Cu0 Hf2 2.779740 1_555
Cu0 Hf13 2.783250 1_455
Cu0 Hf0 2.808322 1_555
Cu1 Cu8 2.596467 1_546
Cu1 Hf4 2.624881 1_656
Cu1 Hf7 2.641675 1_545
Cu1 Cu17 2.676031 1_545
Cu1 Hf8 2.699505 1_555
Cu1 Cu14 2.721057 1_655
Cu1 Cu5 2.746131 1_555
Cu1 Hf3 2.779602 1_555
Cu1 Hf12 2.783411 1_655
Cu1 Hf1 2.808327 1_556
Cu2 Hf5 2.624899 1_555
Cu2 Hf8 2.641686 1_455
Cu2 Hf7 2.699515 1_555
Cu2 Cu6 2.746155 1_555
Cu2 Hf0 2.779546 1_556
Cu2 Hf11 2.783345 1_555
Cu2 Hf2 2.808372 1_555
Cu3 Hf5 2.624525 1_555
Cu3 Hf6 2.641775 1_565
Cu3 Hf9 2.699613 1_555
Cu3 Hf0 2.779676 1_555
Cu3 Hf10 2.783193 1_555
Cu3 Hf2 2.808362 1_555
Cu4 Hf5 2.624528 1_555
Cu4 Hf9 2.641775 1_655
Cu4 Hf6 2.699621 1_555
Cu4 Cu7 2.746492 1_555
Cu4 Hf1 2.779667 1_555
Cu4 Hf10 2.783197 1_555
Cu4 Hf3 2.808363 1_555
Cu5 Hf5 2.624901 1_555
Cu5 Hf7 2.641692 1_545
Cu5 Hf8 2.699529 1_555
Cu5 Hf1 2.779536 1_556
Cu5 Hf11 2.783349 1_555
Cu5 Hf3 2.808375 1_555
Cu6 Hf4 2.624875 1_566
Cu6 Hf8 2.641674 1_455
Cu6 Hf7 2.699504 1_555
Cu6 Cu9 2.721042 1_565
Cu6 Hf2 2.779614 1_555
Cu6 Hf12 2.783406 1_565
Cu6 Hf0 2.808329 1_556
Cu7 Hf4 2.624504 1_655
Cu7 Hf9 2.641769 1_655
Cu7 Hf6 2.699600 1_555
Cu7 Cu8 2.721240 1_545
Cu7 Hf3 2.779730 1_555
Cu7 Hf13 2.783254 1_545
Cu7 Hf1 2.808323 1_555
Cu8 Hf6 2.607094 1_565
Cu8 Hf4 2.618091 1_665
Cu8 Cu9 2.722403 1_564
Cu8 Hf7 2.749101 1_554
Cu8 Hf0 2.764826 1_555
Cu8 Hf11 2.769335 1_554
Cu8 Hf1 2.780250 1_565
Cu9 Hf7 2.606720 1_545
Cu9 Hf4 2.618161 1_556
Cu9 Hf6 2.749376 1_556
Cu9 Hf1 2.764940 1_556
Cu9 Hf10 2.769792 1_556
Cu9 Hf0 2.780086 1_546
Cu10 Cu4 2.596652 1_555
Cu10 Hf8 2.606873 1_555
Cu10 Hf5 2.618088 1_555
Cu10 Cu17 2.673188 1_555
Cu10 Cu5 2.721027 1_555
Cu10 Cu12 2.722517 1_655
Cu10 Hf9 2.749389 1_655
Cu10 Hf2 2.764997 1_655
Cu10 Hf13 2.769770 1_555
Cu10 Hf3 2.780060 1_555
Cu11 Cu5 2.596521 1_555
Cu11 Hf6 2.607231 1_555
Cu11 Hf5 2.618032 1_555
Cu11 Cu16 2.673224 1_555
Cu11 Cu4 2.721214 1_555
Cu11 Cu13 2.722510 1_545
Cu11 Hf7 2.749134 1_545
Cu11 Hf2 2.764886 1_545
Cu11 Hf12 2.769320 1_555
Cu11 Hf3 2.780226 1_555
Cu12 Cu2 2.596504 1_555
Cu12 Hf9 2.607245 1_555
Cu12 Hf5 2.618026 1_555
Cu12 Cu16 2.673225 1_555
Cu12 Cu3 2.721204 1_555
Cu12 Hf8 2.749129 1_455
Cu12 Hf3 2.764897 1_455
Cu12 Hf12 2.769308 1_555
Cu12 Hf2 2.780229 1_555
Cu13 Cu3 2.596645 1_555
Cu13 Hf7 2.606873 1_555
Cu13 Hf5 2.618089 1_555
Cu13 Cu17 2.673187 1_555
Cu13 Cu2 2.721014 1_555
Cu13 Hf6 2.749391 1_565
Cu13 Hf3 2.765002 1_565
Cu13 Hf13 2.769768 1_555
Cu13 Hf2 2.780061 1_555
Cu14 Cu7 2.596612 1_456
Cu14 Hf8 2.606722 1_455
Cu14 Hf4 2.618159 1_556
Cu14 Cu18 2.673179 1_555
Cu14 Cu15 2.722402 1_456
Cu14 Hf9 2.749367 1_556
Cu14 Hf0 2.764934 1_556
Cu14 Hf10 2.769788 1_556
Cu14 Hf1 2.780084 1_456
Cu15 Cu6 2.596457 1_654
Cu15 Hf9 2.607096 1_655
Cu15 Hf4 2.618092 1_665
Cu15 Cu19 2.673218 1_555
Cu15 Hf8 2.749106 1_554
Cu15 Hf1 2.764832 1_555
Cu15 Hf11 2.769332 1_554
Cu15 Hf0 2.780252 1_655
Cu16 Hf10 2.670719 1_555
Cu16 Cu7 2.676079 1_455
Cu16 Cu17 2.720400 1_445
Cu16 Hf2 2.723760 1_545
Cu16 Hf3 2.723760 1_455
Cu16 Hf12 2.807545 1_555
Cu16 Hf13 2.828299 1_445
Cu17 Hf11 2.670550 1_555
Cu17 Cu6 2.676028 1_655
Cu17 Hf3 2.723895 1_565
Cu17 Hf2 2.723896 1_655
Cu17 Hf13 2.807757 1_555
Cu17 Hf12 2.828425 1_665
Cu18 Hf12 2.670609 1_555
Cu18 Cu9 2.673174 1_555
Cu18 Cu5 2.675989 1_555
Cu18 Cu2 2.675991 1_555
Cu18 Cu19 2.720274 1_556
Cu18 Hf1 2.723840 1_556
Cu18 Hf0 2.723840 1_556
Cu18 Hf10 2.807666 1_556
Cu18 Hf11 2.828362 1_555
Cu19 Hf13 2.670775 1_555
Cu19 Cu8 2.673219 1_555
Cu19 Cu4 2.676042 1_555
Cu19 Cu3 2.676046 1_555
Cu19 Hf0 2.723703 1_555
Cu19 Hf1 2.723704 1_555
Cu19 Hf11 2.807456 1_554
Cu19 Hf10 2.828231 1_555
