# generated using pymatgen
data_Rb3SbSe3
_symmetry_space_group_name_H-M   'P 1'
_cell_length_a   10.25133445
_cell_length_b   10.25133445
_cell_length_c   10.25133445
_cell_angle_alpha   90.00000000
_cell_angle_beta   90.00000000
_cell_angle_gamma   90.00000000
_symmetry_Int_Tables_number   1
_chemical_formula_structural   Rb3SbSe3
_chemical_formula_sum   'Rb12 Sb4 Se12'
_cell_volume   1077.31128172
_cell_formula_units_Z   4
loop_
 _symmetry_equiv_pos_site_id
 _symmetry_equiv_pos_as_xyz
  1  'x, y, z'
loop_
 _atom_site_type_symbol
 _atom_site_label
 _atom_site_symmetry_multiplicity
 _atom_site_fract_x
 _atom_site_fract_y
 _atom_site_fract_z
 _atom_site_occupancy
  Rb  Rb0  1  0.31667500  0.31667500  0.31667500  1
  Rb  Rb1  1  0.18332500  0.68332500  0.81667500  1
  Rb  Rb2  1  0.81667500  0.18332500  0.68332500  1
  Rb  Rb3  1  0.68332500  0.81667500  0.18332500  1
  Rb  Rb4  1  0.57685661  0.57685661  0.57685661  1
  Rb  Rb5  1  0.92314339  0.42314339  0.07685661  1
  Rb  Rb6  1  0.07685661  0.92314339  0.42314339  1
  Rb  Rb7  1  0.42314339  0.07685661  0.92314339  1
  Rb  Rb8  1  0.81155086  0.81155086  0.81155086  1
  Rb  Rb9  1  0.68844914  0.18844914  0.31155086  1
  Rb  Rb10  1  0.31155086  0.68844914  0.18844914  1
  Rb  Rb11  1  0.18844914  0.31155086  0.68844914  1
  Sb  Sb0  1  0.02641276  0.02641276  0.02641276  1
  Sb  Sb1  1  0.47358724  0.97358724  0.52641276  1
  Sb  Sb2  1  0.52641276  0.47358724  0.97358724  1
  Sb  Sb3  1  0.97358724  0.52641276  0.47358724  1
  Se  Se0  1  0.21349565  0.59908527  0.49590158  1
  Se  Se1  1  0.49590158  0.21349565  0.59908527  1
  Se  Se2  1  0.59908527  0.49590158  0.21349565  1
  Se  Se3  1  0.90091473  0.50409842  0.71349565  1
  Se  Se4  1  0.99590158  0.28650435  0.40091473  1
  Se  Se5  1  0.40091473  0.99590158  0.28650435  1
  Se  Se6  1  0.00409842  0.78650435  0.09908527  1
  Se  Se7  1  0.50409842  0.71349565  0.90091473  1
  Se  Se8  1  0.09908527  0.00409842  0.78650435  1
  Se  Se9  1  0.71349565  0.90091473  0.50409842  1
  Se  Se10  1  0.78650435  0.09908527  0.00409842  1
  Se  Se11  1  0.28650435  0.40091473  0.99590158  1
loop_
_geom_bond_atom_site_label_1
_geom_bond_atom_site_label_2
_geom_bond_distance
_geom_bond_site_symmetry_2
Rb0 Se4 3.413897 1_455
Rb0 Se11 3.413897 1_554
Rb0 Se5 3.413897 1_545
Rb0 Se1 3.588314 1_555
Rb0 Se2 3.588314 1_555
Rb0 Se0 3.588314 1_555
Rb1 Se0 3.413897 1_555
Rb1 Se8 3.413897 1_565
Rb1 Se7 3.413897 1_555
Rb1 Se3 3.588314 1_455
Rb1 Se11 3.588314 1_555
Rb1 Se6 3.588314 1_556
Rb2 Se1 3.413897 1_555
Rb2 Se10 3.413897 1_556
Rb2 Se3 3.413897 1_555
Rb2 Se9 3.588314 1_545
Rb2 Se4 3.588314 1_555
Rb2 Se8 3.588314 1_655
Rb3 Se2 3.413897 1_555
Rb3 Se6 3.413897 1_655
Rb3 Se9 3.413897 1_555
Rb3 Se7 3.588314 1_554
Rb3 Se5 3.588314 1_555
Rb3 Se10 3.588314 1_565
Rb4 Se7 3.681609 1_555
Rb4 Se9 3.681609 1_555
Rb4 Se3 3.681609 1_555
Rb4 Se1 3.823061 1_555
Rb4 Se2 3.823061 1_555
Rb4 Se0 3.823061 1_555
Rb5 Se4 3.681609 1_555
Rb5 Se10 3.681609 1_555
Rb5 Se2 3.681609 1_555
Rb5 Se6 3.823061 1_655
Rb5 Se11 3.823061 1_654
Rb5 Se3 3.823061 1_554
Rb6 Se5 3.681609 1_555
Rb6 Se0 3.681609 1_555
Rb6 Se6 3.681609 1_555
Rb6 Se8 3.823061 1_565
Rb6 Se4 3.823061 1_465
Rb6 Se9 3.823061 1_455
Rb7 Se8 3.681609 1_555
Rb7 Se1 3.681609 1_555
Rb7 Se11 3.681609 1_555
Rb7 Se5 3.823061 1_546
Rb7 Se10 3.823061 1_556
Rb7 Se7 3.823061 1_545
Rb8 Se3 3.432708 1_555
Rb8 Se7 3.432708 1_555
Rb8 Se9 3.432708 1_555
Rb8 Se6 3.556754 1_656
Rb8 Se8 3.556754 1_665
Rb8 Se10 3.556754 1_566
Rb9 Se2 3.432708 1_555
Rb9 Se10 3.432708 1_555
Rb9 Se4 3.432708 1_555
Rb9 Se5 3.556754 1_545
Rb9 Se1 3.556754 1_555
Rb9 Se9 3.556754 1_545
Rb10 Se0 3.432708 1_555
Rb10 Se6 3.432708 1_555
Rb10 Se5 3.432708 1_555
Rb10 Se11 3.556754 1_554
Rb10 Se2 3.556754 1_555
Rb10 Se7 3.556754 1_554
Rb11 Se8 3.432708 1_555
Rb11 Se1 3.432708 1_555
Rb11 Se11 3.432708 1_555
Rb11 Se4 3.556754 1_455
Rb11 Se0 3.556754 1_555
Rb11 Se3 3.556754 1_455
Sb0 Se10 2.579902 1_455
Sb0 Se6 2.579902 1_545
Sb0 Se8 2.579902 1_554
Sb1 Se9 2.579902 1_555
Sb1 Se5 2.579902 1_555
Sb1 Se1 2.579902 1_565
Sb2 Se7 2.579902 1_555
Sb2 Se11 2.579902 1_555
Sb2 Se2 2.579902 1_556
Sb3 Se3 2.579902 1_555
Sb3 Se4 2.579902 1_555
Sb3 Se0 2.579902 1_655
