# generated using pymatgen
data_Li2ZnCu3
_symmetry_space_group_name_H-M   'P 1'
_cell_length_a   4.91296988
_cell_length_b   4.91296988
_cell_length_c   4.91296913
_cell_angle_alpha   59.33060395
_cell_angle_beta   59.33060395
_cell_angle_gamma   59.33059764
_symmetry_Int_Tables_number   1
_chemical_formula_structural   Li2ZnCu3
_chemical_formula_sum   'Li2 Zn1 Cu3'
_cell_volume   82.57486582
_cell_formula_units_Z   1
loop_
 _symmetry_equiv_pos_site_id
 _symmetry_equiv_pos_as_xyz
  1  'x, y, z'
loop_
 _atom_site_type_symbol
 _atom_site_label
 _atom_site_symmetry_multiplicity
 _atom_site_fract_x
 _atom_site_fract_y
 _atom_site_fract_z
 _atom_site_occupancy
  Li  Li0  1  0.12257795  0.12257795  0.12257795  1
  Li  Li1  1  0.87742205  0.87742205  0.87742205  1
  Zn  Zn0  1  0.50000000  0.50000000  0.50000000  1
  Cu  Cu0  1  0.50000000  0.00000000  0.50000000  1
  Cu  Cu1  1  0.00000000  0.50000000  0.50000000  1
  Cu  Cu2  1  0.50000000  0.50000000  0.00000000  1
loop_
_geom_bond_atom_site_label_1
_geom_bond_atom_site_label_2
_geom_bond_distance
_geom_bond_site_symmetry_2
Li0 Zn0 2.857944 1_545
Li0 Zn0 2.857944 1_455
Li0 Zn0 2.857944 1_554
Li1 Zn0 2.857944 1_655
Li1 Zn0 2.857944 1_565
Li1 Zn0 2.857944 1_556
Cu0 Cu1 2.431588 1_555
Cu0 Cu1 2.431588 1_645
Cu0 Cu2 2.431588 1_546
Cu0 Cu2 2.431588 1_555
Cu0 Zn0 2.456485 1_545
Cu0 Zn0 2.456485 1_555
Cu0 Li0 2.847910 1_556
Cu0 Li1 2.847910 1_544
Cu0 Li0 2.847910 1_655
Cu0 Li1 2.847910 1_445
Cu0 Li1 2.910067 1_545
Cu0 Li0 2.910067 1_555
Cu1 Cu2 2.431588 1_555
Cu1 Cu2 2.431588 1_456
Cu1 Zn0 2.456485 1_555
Cu1 Zn0 2.456485 1_455
Cu1 Li0 2.847910 1_556
Cu1 Li1 2.847910 1_454
Cu1 Li0 2.847910 1_565
Cu1 Li1 2.847910 1_445
Cu1 Li0 2.910067 1_555
Cu1 Li1 2.910067 1_455
Cu2 Zn0 2.456485 1_555
Cu2 Zn0 2.456485 1_554
Cu2 Li0 2.847910 1_565
Cu2 Li0 2.847910 1_655
Cu2 Li1 2.847910 1_454
Cu2 Li1 2.847910 1_544
Cu2 Li1 2.910067 1_554
Cu2 Li0 2.910067 1_555
