# generated using pymatgen
data_Na2WO12
_symmetry_space_group_name_H-M   'P 1'
_cell_length_a   8.77947900
_cell_length_b   9.64929100
_cell_length_c   12.89305905
_cell_angle_alpha   88.49882614
_cell_angle_beta   90.00000000
_cell_angle_gamma   90.00000000
_symmetry_Int_Tables_number   1
_chemical_formula_structural   Na2WO12
_chemical_formula_sum   'Na8 W4 O48'
_cell_volume   1091.87026613
_cell_formula_units_Z   4
loop_
 _symmetry_equiv_pos_site_id
 _symmetry_equiv_pos_as_xyz
  1  'x, y, z'
loop_
 _atom_site_type_symbol
 _atom_site_label
 _atom_site_symmetry_multiplicity
 _atom_site_fract_x
 _atom_site_fract_y
 _atom_site_fract_z
 _atom_site_occupancy
  Na  Na0  1  0.88501200  0.87584600  0.01229600  1
  Na  Na1  1  0.11498800  0.12415400  0.98770400  1
  Na  Na2  1  0.38501200  0.12415400  0.48770400  1
  Na  Na3  1  0.61498800  0.87584600  0.51229600  1
  Na  Na4  1  0.11544500  0.41681200  0.72668100  1
  Na  Na5  1  0.88455500  0.58318800  0.27331900  1
  Na  Na6  1  0.61544500  0.58318800  0.77331900  1
  Na  Na7  1  0.38455500  0.41681200  0.22668100  1
  W  W0  1  0.24877600  0.76687100  0.62494900  1
  W  W1  1  0.75122400  0.23312900  0.37505100  1
  W  W2  1  0.74877600  0.23312900  0.87505100  1
  W  W3  1  0.25122400  0.76687100  0.12494900  1
  O  O0  1  0.08683700  0.91227900  0.64749100  1
  O  O1  1  0.91316300  0.08772100  0.35250900  1
  O  O2  1  0.58683700  0.08772100  0.85250900  1
  O  O3  1  0.41316300  0.91227900  0.14749100  1
  O  O4  1  0.14350900  0.85384500  0.74445100  1
  O  O5  1  0.85649100  0.14615500  0.25554900  1
  O  O6  1  0.64350900  0.14615500  0.75554900  1
  O  O7  1  0.35649100  0.85384500  0.24445100  1
  O  O8  1  0.12785600  0.66597800  0.52179700  1
  O  O9  1  0.87214400  0.33402200  0.47820300  1
  O  O10  1  0.62785600  0.33402200  0.97820300  1
  O  O11  1  0.37214400  0.66597800  0.02179700  1
  O  O12  1  0.29115400  0.29464200  0.85264700  1
  O  O13  1  0.70884600  0.70535800  0.14735300  1
  O  O14  1  0.79115400  0.70535800  0.64735300  1
  O  O15  1  0.20884600  0.29464200  0.35264700  1
  O  O16  1  0.33817500  0.88193000  0.50776300  1
  O  O17  1  0.66182500  0.11807000  0.49223700  1
  O  O18  1  0.83817500  0.11807000  0.99223700  1
  O  O19  1  0.16182500  0.88193000  0.00776300  1
  O  O20  1  0.19791500  0.23772200  0.60184900  1
  O  O21  1  0.80208500  0.76227800  0.39815100  1
  O  O22  1  0.69791500  0.76227800  0.89815100  1
  O  O23  1  0.30208500  0.23772200  0.10184900  1
  O  O24  1  0.32154400  0.30586100  0.61268200  1
  O  O25  1  0.67845600  0.69413900  0.38731800  1
  O  O26  1  0.82154400  0.69413900  0.88731800  1
  O  O27  1  0.17845600  0.30586100  0.11268200  1
  O  O28  1  0.09291800  0.61438900  0.62842900  1
  O  O29  1  0.90708200  0.38561100  0.37157100  1
  O  O30  1  0.59291800  0.38561100  0.87157100  1
  O  O31  1  0.40708200  0.61438900  0.12842900  1
  O  O32  1  0.39999100  0.92539900  0.61246000  1
  O  O33  1  0.60000900  0.07460100  0.38754000  1
  O  O34  1  0.89999100  0.07460100  0.88754000  1
  O  O35  1  0.10000900  0.92539900  0.11246000  1
  O  O36  1  0.37451900  0.65759200  0.72749900  1
  O  O37  1  0.62548100  0.34240800  0.27250100  1
  O  O38  1  0.87451900  0.34240800  0.77250100  1
  O  O39  1  0.12548100  0.65759200  0.22749900  1
  O  O40  1  0.77718800  0.83036100  0.67003900  1
  O  O41  1  0.22281200  0.16963900  0.32996100  1
  O  O42  1  0.27718800  0.16963900  0.82996100  1
  O  O43  1  0.72281200  0.83036100  0.17003900  1
  O  O44  1  0.42634800  0.63494800  0.61722000  1
  O  O45  1  0.57365200  0.36505200  0.38278000  1
  O  O46  1  0.92634800  0.36505200  0.88278000  1
  O  O47  1  0.07365200  0.63494800  0.11722000  1
loop_
_geom_bond_atom_site_label_1
_geom_bond_atom_site_label_2
_geom_bond_distance
_geom_bond_site_symmetry_2
Na0 O35 2.343424 1_655
Na0 O18 2.380594 1_564
Na0 O19 2.431648 1_655
Na0 O34 2.474070 1_564
Na0 O26 2.475717 1_554
Na0 O22 2.479800 1_554
Na0 O43 2.511977 1_555
Na1 O34 2.343424 1_455
Na1 O19 2.380594 1_546
Na1 O18 2.431648 1_455
Na1 O35 2.474070 1_546
Na1 O27 2.475717 1_556
Na1 O23 2.479800 1_556
Na1 O42 2.511977 1_555
Na2 O33 2.343424 1_555
Na2 O16 2.380594 1_545
Na2 O17 2.431648 1_555
Na2 O32 2.474070 1_545
Na2 O24 2.475717 1_555
Na2 O20 2.479800 1_555
Na2 O41 2.511977 1_555
Na3 O32 2.343424 1_555
Na3 O17 2.380594 1_565
Na3 O16 2.431648 1_555
Na3 O33 2.474070 1_565
Na3 O25 2.475717 1_555
Na3 O21 2.479800 1_555
Na3 O40 2.511977 1_555
Na4 O28 2.269788 1_555
Na4 O38 2.305713 1_455
Na4 O20 2.499329 1_555
Na4 O12 2.511326 1_555
Na4 O24 2.581280 1_555
Na4 O46 2.646411 1_455
Na5 O29 2.269788 1_555
Na5 O39 2.305713 1_655
Na5 O21 2.499329 1_555
Na5 O13 2.511326 1_555
Na5 O25 2.581280 1_555
Na5 O47 2.646411 1_655
Na6 O30 2.269788 1_555
Na6 O36 2.305713 1_555
Na6 O22 2.499329 1_555
Na6 O14 2.511326 1_555
Na6 O26 2.581280 1_555
Na6 O44 2.646411 1_555
Na7 O31 2.269788 1_555
Na7 O37 2.305713 1_555
Na7 O23 2.499329 1_555
Na7 O15 2.511326 1_555
Na7 O27 2.581280 1_555
Na7 O45 2.646411 1_555
O0 O4 1.446142 1_555
O0 W0 2.023814 1_555
O1 O5 1.446142 1_555
O1 W1 2.023814 1_555
O2 O6 1.446142 1_555
O2 W2 2.023814 1_555
O3 O7 1.446142 1_555
O3 W3 2.023814 1_555
O4 W0 2.000024 1_555
O5 W1 2.000024 1_555
O6 W2 2.000024 1_555
O7 W3 2.000024 1_555
O8 W0 1.977728 1_555
O9 W1 1.977728 1_555
O10 O30 1.481939 1_555
O10 W2 1.977728 1_555
O11 O31 1.481939 1_555
O11 W3 1.977728 1_555
O12 O42 1.254578 1_555
O13 O43 1.254578 1_555
O14 O40 1.254578 1_555
O15 O41 1.254578 1_555
O16 O32 1.523900 1_555
O16 W0 2.010857 1_555
O17 O33 1.523900 1_555
O17 W1 2.010857 1_555
O18 O34 1.523900 1_555
O18 W2 2.010857 1_555
O19 O35 1.523900 1_555
O19 W3 2.010857 1_555
O20 O24 1.278556 1_555
O21 O25 1.278556 1_555
O22 O26 1.278556 1_555
O23 O27 1.278556 1_555
O28 O8 1.481939 1_555
O28 W0 2.008928 1_555
O29 O9 1.481939 1_555
O29 W1 2.008928 1_555
O30 W2 2.008928 1_555
O31 W3 2.008928 1_555
O32 W0 2.028656 1_555
O33 W1 2.028656 1_555
O34 W2 2.028656 1_555
O35 W3 2.028656 1_555
O36 O44 1.514161 1_555
O36 W0 2.001434 1_555
O37 O45 1.514161 1_555
O37 W1 2.001434 1_555
O38 O46 1.514161 1_555
O38 W2 2.001434 1_555
O39 O47 1.514161 1_555
O39 W3 2.001434 1_555
O44 W0 2.016795 1_555
O45 W1 2.016795 1_555
O46 W2 2.016795 1_555
O47 W3 2.016795 1_555
