# generated using pymatgen
data_Pr3IrI3
_symmetry_space_group_name_H-M   'P 1'
_cell_length_a   10.88427491
_cell_length_b   10.88394044
_cell_length_c   10.88441297
_cell_angle_alpha   109.47136017
_cell_angle_beta   109.47025430
_cell_angle_gamma   109.47289369
_symmetry_Int_Tables_number   1
_chemical_formula_structural   Pr3IrI3
_chemical_formula_sum   'Pr12 Ir4 I12'
_cell_volume   992.57708165
_cell_formula_units_Z   4
loop_
 _symmetry_equiv_pos_site_id
 _symmetry_equiv_pos_as_xyz
  1  'x, y, z'
loop_
 _atom_site_type_symbol
 _atom_site_label
 _atom_site_symmetry_multiplicity
 _atom_site_fract_x
 _atom_site_fract_y
 _atom_site_fract_z
 _atom_site_occupancy
  Pr  Pr0  1  0.45653657  0.47826720  0.22825838  1
  Pr  Pr1  1  0.74999319  0.22824281  0.27173876  1
  Pr  Pr2  1  0.74999873  0.02175429  0.47825812  1
  Pr  Pr3  1  0.22824464  0.45650363  0.47824953  1
  Pr  Pr4  1  0.27173727  0.75000033  0.22826140  1
  Pr  Pr5  1  0.04348211  0.27174631  0.02173976  1
  Pr  Pr6  1  0.02175746  0.04349839  0.27174527  1
  Pr  Pr7  1  0.47824955  0.75000480  0.02173886  1
  Pr  Pr8  1  0.47825502  0.22824891  0.45650361  1
  Pr  Pr9  1  0.02174250  0.47824593  0.75000798  1
  Pr  Pr10  1  0.27174022  0.02172274  0.04347344  1
  Pr  Pr11  1  0.22825533  0.27174884  0.75000672  1
  Ir  Ir0  1  0.25000797  0.25000019  0.24999561  1
  Ir  Ir1  1  0.50000724  0.99999075  0.25000017  1
  Ir  Ir2  1  -0.00000329  0.24999730  0.50000580  1
  Ir  Ir3  1  0.25000825  0.50000950  0.00000349  1
  I  I0  1  0.24995131  0.75938158  0.74059252  1
  I  I1  1  0.51858436  0.50926740  0.75927707  1
  I  I2  1  0.98143072  0.74071960  0.99071538  1
  I  I3  1  0.74061337  0.25000929  0.75940662  1
  I  I4  1  0.99070688  0.98140977  0.74075792  1
  I  I5  1  0.25003650  0.99057808  0.50945304  1
  I  I6  1  0.75937217  0.51868782  0.50937337  1
  I  I7  1  0.50944383  0.25002639  0.99059378  1
  I  I8  1  0.75930862  0.74059876  0.24998081  1
  I  I9  1  0.74063076  0.99061961  0.98129050  1
  I  I10  1  0.99056163  0.50940774  0.24997328  1
  I  I11  1  0.50934907  0.75931206  0.51859882  1
loop_
_geom_bond_atom_site_label_1
_geom_bond_atom_site_label_2
_geom_bond_distance
_geom_bond_site_symmetry_2
Ir0 Pr6 2.881580 1_555
Ir0 Pr8 2.881739 1_555
Ir0 Pr0 2.881747 1_555
Ir0 Pr3 2.881777 1_555
Ir0 Pr10 2.881815 1_555
Ir0 Pr5 2.881870 1_555
Ir1 Pr1 2.881536 1_565
Ir1 Pr7 2.881538 1_555
Ir1 Pr2 2.881619 1_565
Ir1 Pr4 2.881653 1_555
Ir1 Pr8 2.881714 1_565
Ir1 Pr10 2.881850 1_565
Ir2 Pr2 2.881515 1_455
Ir2 Pr3 2.881633 1_555
Ir2 Pr9 2.881664 1_555
Ir2 Pr11 2.881762 1_555
Ir2 Pr6 2.881779 1_555
Ir2 Pr1 2.881804 1_455
Ir3 Pr7 2.881544 1_555
Ir3 Pr11 2.881655 1_554
Ir3 Pr9 2.881697 1_554
Ir3 Pr5 2.881701 1_555
Ir3 Pr4 2.881715 1_555
Ir3 Pr0 2.881851 1_555
I0 Pr9 3.294600 1_555
I0 Pr7 3.295066 1_556
I0 Pr10 3.439339 1_566
I0 Pr3 3.439764 1_555
I1 Pr11 3.293309 1_555
I1 Pr3 3.293586 1_555
I1 Pr8 3.439299 1_555
I1 Pr7 3.439747 1_556
I2 Pr10 3.293085 1_666
I2 Pr4 3.293372 1_656
I2 Pr6 3.439395 1_666
I2 Pr9 3.439475 1_655
I3 Pr9 3.294610 1_655
I3 Pr2 3.294847 1_555
I3 Pr5 3.439589 1_656
I3 Pr8 3.439845 1_555
I4 Pr5 3.293126 1_666
I4 Pr11 3.293630 1_665
I4 Pr10 3.439183 1_666
I4 Pr2 3.439985 1_565
I5 Pr8 3.295154 1_565
I5 Pr6 3.295690 1_565
I5 Pr4 3.439601 1_555
I5 Pr11 3.439834 1_565
I6 Pr8 3.294043 1_555
I6 Pr1 3.294145 1_555
I6 Pr9 3.439384 1_655
I6 Pr0 3.439883 1_555
I7 Pr0 3.295011 1_556
I7 Pr10 3.295358 1_556
I7 Pr1 3.439755 1_556
I7 Pr11 3.439846 1_555
I8 Pr7 3.294311 1_555
I8 Pr2 3.294482 1_565
I8 Pr0 3.438796 1_555
I8 Pr6 3.440068 1_665
I9 Pr1 3.294256 1_566
I9 Pr6 3.294355 1_666
I9 Pr7 3.439232 1_556
I9 Pr5 3.439716 1_666
I10 Pr5 3.295040 1_655
I10 Pr3 3.295391 1_655
I10 Pr4 3.439553 1_655
I10 Pr1 3.439687 1_555
I11 Pr0 3.293353 1_555
I11 Pr4 3.293756 1_555
I11 Pr2 3.439061 1_565
I11 Pr3 3.439816 1_555
