# generated using pymatgen
data_Mn9Zn2O13
_symmetry_space_group_name_H-M   'P 1'
_cell_length_a   3.04985800
_cell_length_b   5.31755580
_cell_length_c   17.27855747
_cell_angle_alpha   97.95238308
_cell_angle_beta   90.36958788
_cell_angle_gamma   105.24837885
_symmetry_Int_Tables_number   1
_chemical_formula_structural   Mn9Zn2O13
_chemical_formula_sum   'Mn9 Zn2 O13'
_cell_volume   267.48570109
_cell_formula_units_Z   1
loop_
 _symmetry_equiv_pos_site_id
 _symmetry_equiv_pos_as_xyz
  1  'x, y, z'
loop_
 _atom_site_type_symbol
 _atom_site_label
 _atom_site_symmetry_multiplicity
 _atom_site_fract_x
 _atom_site_fract_y
 _atom_site_fract_z
 _atom_site_occupancy
  Mn  Mn0  1  0.50000000  0.00000000  0.50000000  1
  Mn  Mn1  1  0.64607800  0.29218100  0.04090400  1
  Mn  Mn2  1  0.35392200  0.70781900  0.95909600  1
  Mn  Mn3  1  0.75145600  0.49938200  0.41642100  1
  Mn  Mn4  1  0.24854400  0.50061800  0.58357900  1
  Mn  Mn5  1  0.94101100  0.87195800  0.12837200  1
  Mn  Mn6  1  0.05898900  0.12804200  0.87162800  1
  Mn  Mn7  1  0.99507000  0.98343200  0.32812100  1
  Mn  Mn8  1  0.00493000  0.01656800  0.67187900  1
  Zn  Zn0  1  0.22785000  0.43638300  0.22818000  1
  Zn  Zn1  1  0.77215000  0.56361700  0.77182000  1
  O  O0  1  0.00000000  0.00000000  0.00000000  1
  O  O1  1  0.85221500  0.70129200  0.22918100  1
  O  O2  1  0.14778500  0.29870800  0.77081900  1
  O  O3  1  0.29974700  0.59303900  0.06562400  1
  O  O4  1  0.70025300  0.40696100  0.93437600  1
  O  O5  1  0.58681000  0.17437400  0.14304500  1
  O  O6  1  0.41319000  0.82562600  0.85695500  1
  O  O7  1  0.62330800  0.25411800  0.31066000  1
  O  O8  1  0.37669200  0.74588200  0.68934000  1
  O  O9  1  0.39388700  0.78774600  0.39354300  1
  O  O10  1  0.60611300  0.21225400  0.60645700  1
  O  O11  1  0.13526900  0.25799700  0.46592200  1
  O  O12  1  0.86473100  0.74200300  0.53407800  1
loop_
_geom_bond_atom_site_label_1
_geom_bond_atom_site_label_2
_geom_bond_distance
_geom_bond_site_symmetry_2
Mn0 O10 1.996958 1_555
Mn0 O9 1.996958 1_545
Mn0 O12 2.117556 1_545
Mn0 O11 2.117556 1_555
Mn0 O12 2.196079 1_445
Mn0 O11 2.196079 1_655
Mn1 O5 1.946861 1_555
Mn1 O4 2.012350 1_554
Mn1 O3 2.136162 1_555
Mn1 O0 2.160265 1_655
Mn1 O3 2.199682 1_655
Mn1 O0 2.205439 1_555
Mn2 O6 1.946861 1_555
Mn2 O3 2.012350 1_556
Mn2 O4 2.136162 1_555
Mn2 O0 2.160265 1_566
Mn2 O4 2.199682 1_455
Mn2 O0 2.205439 1_666
Mn3 O7 2.063078 1_555
Mn3 O9 2.176827 1_555
Mn3 O11 2.197855 1_655
Mn3 O9 2.223481 1_655
Mn3 O12 2.224289 1_555
Mn3 O11 2.228564 1_555
Mn4 O8 2.063078 1_555
Mn4 O10 2.176827 1_555
Mn4 O12 2.197855 1_455
Mn4 O10 2.223481 1_455
Mn4 O11 2.224289 1_555
Mn4 O12 2.228564 1_555
Mn5 O1 2.060372 1_555
Mn5 O5 2.149830 1_565
Mn5 O5 2.178145 1_665
Mn5 O3 2.235225 1_655
Mn5 O3 2.280827 1_555
Mn5 O0 2.403006 1_665
Mn6 O2 2.060372 1_555
Mn6 O6 2.149830 1_545
Mn6 O6 2.178145 1_445
Mn6 O4 2.235225 1_455
Mn6 O4 2.280827 1_555
Mn6 O0 2.403006 1_556
Mn7 O1 2.073672 1_555
Mn7 O7 2.103000 1_565
Mn7 O7 2.123909 1_665
Mn7 O9 2.193981 1_655
Mn7 O9 2.251894 1_555
Mn7 O11 2.584616 1_665
Mn8 O2 2.073672 1_555
Mn8 O8 2.103000 1_545
Mn8 O8 2.123909 1_445
Mn8 O10 2.193981 1_455
Mn8 O10 2.251894 1_555
Mn8 O12 2.584616 1_445
O1 Zn0 2.034580 1_655
O1 Zn0 2.047578 1_555
O2 Zn1 2.034580 1_455
O2 Zn1 2.047578 1_555
O5 Zn0 2.357869 1_555
O5 Zn0 2.427006 1_655
O6 Zn1 2.357869 1_555
O6 Zn1 2.427006 1_455
O7 Zn0 2.323772 1_555
O7 Zn0 2.417843 1_655
O8 Zn1 2.323772 1_555
O8 Zn1 2.417843 1_455
