# generated using pymatgen
data_Ta2Zn2CrO8
_symmetry_space_group_name_H-M   'P 1'
_cell_length_a   6.02131109
_cell_length_b   10.14364353
_cell_length_c   10.57220535
_cell_angle_alpha   90.88096980
_cell_angle_beta   91.07795283
_cell_angle_gamma   104.41162786
_symmetry_Int_Tables_number   1
_chemical_formula_structural   Ta2Zn2CrO8
_chemical_formula_sum   'Ta8 Zn8 Cr4 O32'
_cell_volume   625.16529861
_cell_formula_units_Z   4
loop_
 _symmetry_equiv_pos_site_id
 _symmetry_equiv_pos_as_xyz
  1  'x, y, z'
loop_
 _atom_site_type_symbol
 _atom_site_label
 _atom_site_symmetry_multiplicity
 _atom_site_fract_x
 _atom_site_fract_y
 _atom_site_fract_z
 _atom_site_occupancy
  Ta  Ta0  1  0.27924500  0.23608000  0.36335700  1
  Ta  Ta1  1  0.27928400  0.23599200  0.86334400  1
  Ta  Ta2  1  0.02980800  0.76582900  0.38608300  1
  Ta  Ta3  1  0.02993000  0.76586300  0.88608700  1
  Ta  Ta4  1  0.71831000  0.76426000  0.13423600  1
  Ta  Ta5  1  0.71832600  0.76430000  0.63419300  1
  Ta  Ta6  1  0.96757900  0.23450200  0.11148900  1
  Ta  Ta7  1  0.96757700  0.23452700  0.61153000  1
  Zn  Zn0  1  0.43546700  0.56478500  0.38241600  1
  Zn  Zn1  1  0.43548200  0.56476600  0.88240800  1
  Zn  Zn2  1  0.86870500  0.44184600  0.36447900  1
  Zn  Zn3  1  0.86871900  0.44184600  0.86448700  1
  Zn  Zn4  1  0.56183100  0.43546400  0.11516600  1
  Zn  Zn5  1  0.56180300  0.43550300  0.61518800  1
  Zn  Zn6  1  0.12883400  0.55835400  0.13313600  1
  Zn  Zn7  1  0.12884800  0.55838500  0.63313400  1
  Cr  Cr0  1  0.64372800  0.99769900  0.87523200  1
  Cr  Cr1  1  0.35401400  0.00242300  0.62195000  1
  Cr  Cr2  1  0.64381200  0.99809500  0.37510000  1
  Cr  Cr3  1  0.35388900  0.00243100  0.12225800  1
  O  O0  1  0.20182000  0.14575500  0.02941700  1
  O  O1  1  0.20170000  0.14576900  0.52938400  1
  O  O2  1  0.01722300  0.85223900  0.22206000  1
  O  O3  1  0.01721500  0.85227400  0.72208500  1
  O  O4  1  0.79583800  0.85463900  0.46815100  1
  O  O5  1  0.79582700  0.85457100  0.96815600  1
  O  O6  1  0.98025000  0.14809400  0.27551500  1
  O  O7  1  0.98024300  0.14809500  0.77550900  1
  O  O8  1  0.43922100  0.11726300  0.29284300  1
  O  O9  1  0.43917600  0.11714800  0.79279100  1
  O  O10  1  0.28669300  0.87806700  0.46273400  1
  O  O11  1  0.28663100  0.87806400  0.96289500  1
  O  O12  1  0.55837400  0.88327100  0.20456300  1
  O  O13  1  0.55824600  0.88325000  0.70445200  1
  O  O14  1  0.71108300  0.12226400  0.03448800  1
  O  O15  1  0.71106300  0.12235500  0.53448400  1
  O  O16  1  0.28657000  0.36098400  0.21362900  1
  O  O17  1  0.28657700  0.36094500  0.71364200  1
  O  O18  1  0.91882300  0.64114100  0.03417800  1
  O  O19  1  0.91882200  0.64115900  0.53419500  1
  O  O20  1  0.07893100  0.35935900  0.46356900  1
  O  O21  1  0.07889200  0.35931100  0.96356300  1
  O  O22  1  0.71073300  0.63949300  0.28405100  1
  O  O23  1  0.71072100  0.63954200  0.78404700  1
  O  O24  1  0.84293000  0.38777800  0.17824100  1
  O  O25  1  0.84292600  0.38782500  0.67825500  1
  O  O26  1  0.45050000  0.61287700  0.06959300  1
  O  O27  1  0.45048300  0.61290400  0.56959900  1
  O  O28  1  0.15414200  0.61234100  0.31939400  1
  O  O29  1  0.15414100  0.61234900  0.81939600  1
  O  O30  1  0.54713000  0.38739500  0.42802700  1
  O  O31  1  0.54712600  0.38735800  0.92799500  1
loop_
_geom_bond_atom_site_label_1
_geom_bond_atom_site_label_2
_geom_bond_distance
_geom_bond_site_symmetry_2
Cr0 O14 2.061464 1_566
Cr0 O13 2.115592 1_555
Cr0 O9 2.116530 1_565
Cr0 O5 2.140933 1_555
Cr0 O11 2.401175 1_555
Cr0 O7 2.477042 1_565
Cr1 O10 2.059949 1_545
Cr1 O13 2.113388 1_545
Cr1 O9 2.117292 1_555
Cr1 O1 2.141704 1_555
Cr1 O15 2.400968 1_555
Cr1 O3 2.479110 1_545
Cr2 O15 2.060830 1_565
Cr2 O8 2.113840 1_565
Cr2 O12 2.115222 1_555
Cr2 O4 2.143928 1_555
Cr2 O10 2.402305 1_555
Cr2 O6 2.474388 1_565
Cr3 O11 2.061250 1_544
Cr3 O12 2.113531 1_545
Cr3 O8 2.115629 1_555
Cr3 O0 2.141997 1_555
Cr3 O14 2.402674 1_555
Cr3 O2 2.477165 1_545
O0 Ta1 2.001447 1_554
O0 Ta6 2.051012 1_455
O1 Ta0 2.001391 1_555
O1 Ta7 2.050843 1_455
O2 Ta2 1.963651 1_555
O2 Ta4 2.002519 1_455
O3 Ta3 1.963562 1_555
O3 Ta5 2.002712 1_455
O4 Ta5 2.001623 1_555
O4 Ta2 2.050066 1_655
O5 Ta4 2.001866 1_556
O5 Ta3 2.050091 1_655
O6 Ta6 1.963738 1_555
O6 Ta0 2.003003 1_655
O7 Ta7 1.963407 1_555
O7 Ta1 2.002992 1_655
O8 Ta0 1.874438 1_555
O9 Ta1 1.874466 1_555
O10 Ta2 1.842094 1_555
O11 Ta3 1.841881 1_555
O12 Ta4 1.874994 1_555
O13 Ta5 1.874827 1_555
O14 Ta6 1.842046 1_555
O15 Ta7 1.842048 1_555
O16 Zn4 1.966539 1_555
O16 Ta0 2.037012 1_555
O16 Ta6 2.270260 1_455
O17 Zn5 1.966472 1_555
O17 Ta1 2.037131 1_555
O17 Ta7 2.269939 1_455
O18 Zn6 1.976016 1_655
O18 Ta3 2.044115 1_654
O18 Ta4 2.212326 1_555
O19 Zn7 1.975899 1_655
O19 Ta2 2.043863 1_655
O19 Ta5 2.212105 1_555
O20 Zn2 1.975900 1_455
O20 Ta7 2.043934 1_455
O20 Ta0 2.213400 1_555
O21 Zn3 1.975875 1_455
O21 Ta6 2.043470 1_456
O21 Ta1 2.214043 1_555
O22 Zn0 1.966415 1_555
O22 Ta4 2.036684 1_555
O22 Ta2 2.269584 1_655
O23 Zn1 1.966395 1_555
O23 Ta5 2.036932 1_555
O23 Ta3 2.270132 1_655
O24 Zn4 1.979516 1_555
O24 Ta6 2.011405 1_555
O24 Zn2 2.028437 1_555
O24 Zn6 2.181371 1_655
O25 Zn5 1.979582 1_555
O25 Ta7 2.011506 1_555
O25 Zn3 2.028262 1_555
O25 Zn7 2.181379 1_655
O26 Zn6 2.008915 1_555
O26 Zn1 2.025887 1_554
O26 Ta4 2.029555 1_555
O26 Zn4 2.129588 1_555
O27 Zn7 2.008715 1_555
O27 Zn0 2.025885 1_555
O27 Ta5 2.029587 1_555
O27 Zn5 2.129481 1_555
O28 Zn0 1.979963 1_555
O28 Ta2 2.011942 1_555
O28 Zn6 2.028474 1_555
O28 Zn2 2.179151 1_455
O29 Zn1 1.980143 1_555
O29 Ta3 2.011753 1_555
O29 Zn7 2.028461 1_555
O29 Zn3 2.179161 1_455
O30 Zn2 2.008410 1_555
O30 Zn5 2.025705 1_555
O30 Ta0 2.029533 1_555
O30 Zn0 2.130508 1_555
O31 Zn3 2.008372 1_555
O31 Zn4 2.025797 1_556
O31 Ta1 2.029602 1_555
O31 Zn1 2.130558 1_555
