# generated using pymatgen
data_Mg14ZrCd
_symmetry_space_group_name_H-M   'P 1'
_cell_length_a   6.42925009
_cell_length_b   6.38259615
_cell_length_c   10.17265459
_cell_angle_alpha   90.00000000
_cell_angle_beta   90.00000000
_cell_angle_gamma   119.76025084
_symmetry_Int_Tables_number   1
_chemical_formula_structural   Mg14ZrCd
_chemical_formula_sum   'Mg14 Zr1 Cd1'
_cell_volume   362.38211390
_cell_formula_units_Z   1
loop_
 _symmetry_equiv_pos_site_id
 _symmetry_equiv_pos_as_xyz
  1  'x, y, z'
loop_
 _atom_site_type_symbol
 _atom_site_label
 _atom_site_symmetry_multiplicity
 _atom_site_fract_x
 _atom_site_fract_y
 _atom_site_fract_z
 _atom_site_occupancy
  Mg  Mg0  1  0.16663626  0.33331763  0.62500000  1
  Mg  Mg1  1  0.16635630  0.83317765  0.62500000  1
  Mg  Mg2  1  0.66329882  0.32771473  0.12500000  1
  Mg  Mg3  1  0.66663757  0.33365247  0.62500000  1
  Mg  Mg4  1  0.66329882  0.83558309  0.12500000  1
  Mg  Mg5  1  0.66663757  0.83298410  0.62500000  1
  Mg  Mg6  1  0.33167544  0.16886928  0.37348630  1
  Mg  Mg7  1  0.33167544  0.16886928  0.87651370  1
  Mg  Mg8  1  0.33167544  0.66280716  0.37348630  1
  Mg  Mg9  1  0.33167544  0.66280716  0.87651370  1
  Mg  Mg10  1  0.83795181  0.16897640  0.37514660  1
  Mg  Mg11  1  0.83795181  0.16897640  0.87485340  1
  Mg  Mg12  1  0.83426374  0.66713237  0.37190211  1
  Mg  Mg13  1  0.83426374  0.66713237  0.87809789  1
  Zr  Zr0  1  0.16341594  0.33170747  0.12500000  1
  Cd  Cd0  1  0.17258585  0.83629243  0.12500000  1
loop_
_geom_bond_atom_site_label_1
_geom_bond_atom_site_label_2
_geom_bond_distance
_geom_bond_site_symmetry_2
Mg0 Mg10 3.134555 1_455
Mg0 Mg11 3.134555 1_455
Mg0 Mg7 3.143157 1_555
Mg0 Mg6 3.143157 1_555
Mg0 Mg9 3.143163 1_555
Mg0 Mg8 3.143163 1_555
Mg0 Mg1 3.191298 1_545
Mg0 Mg1 3.191298 1_555
Mg0 Mg5 3.213573 1_555
Mg0 Mg3 3.213573 1_555
Mg0 Mg5 3.215678 1_445
Mg0 Mg3 3.215678 1_455
Mg1 Mg9 3.163194 1_555
Mg1 Mg8 3.163194 1_555
Mg1 Mg7 3.163200 1_565
Mg1 Mg6 3.163200 1_565
Mg1 Mg12 3.172452 1_455
Mg1 Mg13 3.172452 1_455
Mg1 Mg3 3.212203 1_455
Mg1 Mg5 3.212204 1_455
Mg1 Mg3 3.217047 1_565
Mg1 Mg5 3.217047 1_555
Mg2 Mg6 3.133267 1_555
Mg2 Mg7 3.133267 1_554
Mg2 Mg4 3.141078 1_545
Mg2 Zr0 3.202805 1_655
Mg2 Zr0 3.226597 1_555
Mg2 Mg4 3.241519 1_555
Mg3 Mg7 3.168857 1_555
Mg3 Mg6 3.168857 1_555
Mg3 Mg5 3.187032 1_555
Mg3 Mg5 3.195564 1_545
Mg4 Mg9 3.133267 1_554
Mg4 Mg8 3.133267 1_555
Mg4 Zr0 3.202805 1_665
Mg4 Zr0 3.226597 1_555
Mg5 Mg9 3.168857 1_555
Mg5 Mg8 3.168857 1_555
Mg6 Zr0 3.123496 1_555
Mg6 Mg8 3.152606 1_555
Mg6 Mg8 3.229990 1_545
Mg7 Zr0 3.123496 1_556
Mg7 Mg9 3.152606 1_555
Mg7 Mg9 3.229990 1_545
Mg8 Zr0 3.123503 1_555
Mg9 Zr0 3.123503 1_556
Mg10 Zr0 3.126497 1_655
Mg10 Mg2 3.145164 1_555
Mg10 Mg4 3.145170 1_545
Mg10 Mg3 3.150749 1_555
Mg10 Mg5 3.150755 1_545
Mg10 Mg8 3.174657 1_655
Mg10 Mg6 3.174657 1_655
Mg10 Mg12 3.191535 1_545
Mg10 Mg12 3.191535 1_555
Mg10 Mg8 3.254682 1_545
Mg10 Mg6 3.254682 1_555
Mg11 Zr0 3.126497 1_656
Mg11 Mg2 3.145164 1_556
Mg11 Mg4 3.145170 1_546
Mg11 Mg3 3.150749 1_555
Mg11 Mg5 3.150755 1_545
Mg11 Mg9 3.174657 1_655
Mg11 Mg7 3.174657 1_655
Mg11 Mg13 3.191535 1_545
Mg11 Mg13 3.191535 1_555
Mg11 Mg9 3.254682 1_545
Mg11 Mg7 3.254682 1_555
Mg12 Mg4 3.137791 1_555
Mg12 Mg2 3.137798 1_555
Mg12 Mg5 3.169153 1_555
Mg12 Mg3 3.169159 1_555
Mg12 Mg6 3.211817 1_665
Mg12 Mg8 3.211817 1_655
Mg12 Mg6 3.217692 1_555
Mg12 Mg8 3.217693 1_555
Mg13 Mg4 3.137791 1_556
Mg13 Mg2 3.137798 1_556
Mg13 Mg5 3.169153 1_555
Mg13 Mg3 3.169159 1_555
Mg13 Mg7 3.211817 1_665
Mg13 Mg9 3.211817 1_655
Mg13 Mg7 3.217692 1_555
Mg13 Mg9 3.217693 1_555
Cd0 Mg8 3.128290 1_555
Cd0 Mg9 3.128290 1_554
Cd0 Mg6 3.128297 1_565
Cd0 Mg7 3.128297 1_564
Cd0 Mg13 3.142288 1_454
Cd0 Mg12 3.142288 1_455
Cd0 Mg2 3.157166 1_565
Cd0 Mg4 3.157166 1_555
Cd0 Zr0 3.191708 1_565
Cd0 Zr0 3.191708 1_555
Cd0 Mg2 3.272089 1_455
Cd0 Mg4 3.272089 1_455
