# generated using pymatgen
data_Nb2VZn2O8
_symmetry_space_group_name_H-M   'P 1'
_cell_length_a   10.20781541
_cell_length_b   10.20781541
_cell_length_c   5.31344404
_cell_angle_alpha   89.67745825
_cell_angle_beta   89.67745825
_cell_angle_gamma   33.96244488
_symmetry_Int_Tables_number   1
_chemical_formula_structural   Nb2VZn2O8
_chemical_formula_sum   'Nb4 V2 Zn4 O16'
_cell_volume   309.29544661
_cell_formula_units_Z   2
loop_
 _symmetry_equiv_pos_site_id
 _symmetry_equiv_pos_as_xyz
  1  'x, y, z'
loop_
 _atom_site_type_symbol
 _atom_site_label
 _atom_site_symmetry_multiplicity
 _atom_site_fract_x
 _atom_site_fract_y
 _atom_site_fract_z
 _atom_site_occupancy
  Nb  Nb0  1  0.72537800  0.04338300  0.76464400  1
  Nb  Nb1  1  0.95661700  0.27462200  0.73535600  1
  Nb  Nb2  1  0.27462200  0.95661700  0.23535600  1
  Nb  Nb3  1  0.04338300  0.72537800  0.26464400  1
  V  V0  1  0.35337200  0.64662800  0.75000000  1
  V  V1  1  0.64662800  0.35337200  0.25000000  1
  Zn  Zn0  1  0.56521800  0.87316900  0.73239900  1
  Zn  Zn1  1  0.12683100  0.43478200  0.76760100  1
  Zn  Zn2  1  0.43478200  0.12683100  0.26760100  1
  Zn  Zn3  1  0.87316900  0.56521800  0.23239900  1
  O  O0  1  0.81420800  0.04470900  0.42699700  1
  O  O1  1  0.95529100  0.18579200  0.07300300  1
  O  O2  1  0.18579300  0.95529100  0.57300300  1
  O  O3  1  0.04470900  0.81420800  0.92699700  1
  O  O4  1  0.56832600  0.31533700  0.90535800  1
  O  O5  1  0.68466300  0.43167400  0.59464200  1
  O  O6  1  0.43167400  0.68466300  0.09464200  1
  O  O7  1  0.31533700  0.56832600  0.40535800  1
  O  O8  1  0.71721600  0.92603400  0.06501300  1
  O  O9  1  0.07396600  0.28278400  0.43498700  1
  O  O10  1  0.15917500  0.45224200  0.13583900  1
  O  O11  1  0.54775800  0.84082500  0.36416100  1
  O  O12  1  0.84082500  0.54775800  0.86416100  1
  O  O13  1  0.45224200  0.15917500  0.63583900  1
  O  O14  1  0.92603400  0.71721600  0.56501300  1
  O  O15  1  0.28278400  0.07396600  0.93498700  1
loop_
_geom_bond_atom_site_label_1
_geom_bond_atom_site_label_2
_geom_bond_distance
_geom_bond_site_symmetry_2
Nb0 O4 1.860926 1_555
Nb0 O0 2.010684 1_555
Nb0 O8 2.032629 1_546
Nb0 O13 2.045693 1_555
Nb0 O3 2.049841 1_645
Nb0 O14 2.260241 1_545
Nb1 O5 1.860926 1_555
Nb1 O1 2.010684 1_556
Nb1 O9 2.032629 1_655
Nb1 O12 2.045693 1_555
Nb1 O2 2.049839 1_645
Nb1 O15 2.260241 1_655
Nb2 O6 1.860926 1_555
Nb2 O2 2.010679 1_555
Nb2 O15 2.032629 1_564
Nb2 O11 2.045693 1_555
Nb2 O1 2.049841 1_465
Nb2 O9 2.260241 1_565
Nb3 O7 1.860926 1_555
Nb3 O3 2.010684 1_554
Nb3 O14 2.032629 1_455
Nb3 O10 2.045693 1_555
Nb3 O0 2.049841 1_465
Nb3 O8 2.260241 1_455
O0 V1 2.186826 1_555
O1 V1 2.186826 1_555
O2 V0 2.186830 1_555
O3 V0 2.186826 1_555
O4 V0 2.147650 1_555
O4 V1 2.163861 1_556
O5 V0 2.147650 1_555
O5 V1 2.163861 1_555
O6 V1 2.147650 1_555
O6 V0 2.163861 1_554
O7 V1 2.147650 1_555
O7 V0 2.163861 1_555
O8 Zn2 1.964509 1_565
O9 Zn3 1.964509 1_455
O10 Zn2 1.983208 1_555
O10 Zn1 2.019384 1_554
O10 Zn3 2.126371 1_455
O11 Zn3 1.983208 1_555
O11 Zn0 2.019384 1_555
O11 Zn2 2.126371 1_565
O12 Zn0 1.983208 1_555
O12 Zn3 2.019384 1_556
O12 Zn1 2.126371 1_655
O13 Zn1 1.983208 1_555
O13 Zn2 2.019384 1_555
O13 Zn0 2.126371 1_545
O14 Zn1 1.964509 1_655
O15 Zn0 1.964509 1_545
