# generated using pymatgen
data_Li7Mn2(CoO4)3
_symmetry_space_group_name_H-M   'P 1'
_cell_length_a   2.94635700
_cell_length_b   5.07198026
_cell_length_c   14.98744345
_cell_angle_alpha   96.35234796
_cell_angle_beta   93.89829362
_cell_angle_gamma   103.96464397
_symmetry_Int_Tables_number   1
_chemical_formula_structural   Li7Mn2(CoO4)3
_chemical_formula_sum   'Li7 Mn2 Co3 O12'
_cell_volume   214.97288219
_cell_formula_units_Z   1
loop_
 _symmetry_equiv_pos_site_id
 _symmetry_equiv_pos_as_xyz
  1  'x, y, z'
loop_
 _atom_site_type_symbol
 _atom_site_label
 _atom_site_symmetry_multiplicity
 _atom_site_fract_x
 _atom_site_fract_y
 _atom_site_fract_z
 _atom_site_occupancy
  Li  Li0  1  0.35002000  0.59542200  0.08420800  1
  Li  Li1  1  0.00242300  0.74923500  0.25209000  1
  Li  Li2  1  0.66477000  0.92001700  0.41504200  1
  Li  Li3  1  0.34471800  0.08019700  0.58727100  1
  Li  Li4  1  0.99948100  0.23822400  0.75168100  1
  Li  Li5  1  0.62705500  0.40548600  0.90867100  1
  Li  Li6  1  0.35885400  0.85350900  0.83356500  1
  Mn  Mn0  1  0.99657900  0.00500900  0.99368800  1
  Mn  Mn1  1  0.00545200  0.49953600  0.50126300  1
  Co  Co0  1  0.65103500  0.16187400  0.16767400  1
  Co  Co1  1  0.32417100  0.32859800  0.33355600  1
  Co  Co2  1  0.68483800  0.66957800  0.67464600  1
  O  O0  1  0.62121100  0.25946500  0.03884300  1
  O  O1  1  0.32293300  0.43598000  0.21218100  1
  O  O2  1  0.02473800  0.60628900  0.37848500  1
  O  O3  1  0.68524800  0.77090300  0.54872900  1
  O  O4  1  0.34992300  0.93009200  0.70424000  1
  O  O5  1  0.00660700  0.12826200  0.88319000  1
  O  O6  1  0.98934100  0.89473500  0.12197100  1
  O  O7  1  0.64144200  0.05901200  0.29271500  1
  O  O8  1  0.31955900  0.22181800  0.45447100  1
  O  O9  1  0.98957300  0.39201600  0.62115600  1
  O  O10  1  0.65882800  0.54236500  0.77725700  1
  O  O11  1  0.38120200  0.75237800  0.96340700  1
loop_
_geom_bond_atom_site_label_1
_geom_bond_atom_site_label_2
_geom_bond_distance
_geom_bond_site_symmetry_2
Li0 O11 2.055806 1_554
Li0 O6 2.103469 1_455
Li0 O6 2.111377 1_555
Li0 O0 2.116329 1_555
Li0 O1 2.161460 1_555
Li0 O0 2.399152 1_455
Li1 O1 2.089153 1_555
Li1 O2 2.104396 1_555
Li1 O7 2.142164 1_565
Li1 O7 2.157182 1_465
Li1 O6 2.161285 1_455
Li1 O1 2.232009 1_455
Li2 O7 2.038436 1_565
Li2 O8 2.088029 1_565
Li2 O2 2.146302 1_555
Li2 O8 2.152628 1_665
Li2 O2 2.158162 1_655
Li2 O3 2.220600 1_555
Li3 O4 1.987566 1_545
Li3 O3 2.106940 1_545
Li3 O9 2.132452 1_455
Li3 O9 2.147056 1_555
Li3 O3 2.178461 1_445
Li3 O8 2.192001 1_555
Li4 O10 2.050039 1_555
Li4 O5 2.107024 1_655
Li4 O10 2.149893 1_655
Li4 O4 2.155665 1_645
Li4 O4 2.176291 1_545
Li4 O9 2.185646 1_555
Li5 O5 2.002588 1_555
Li5 O5 2.017830 1_655
Li5 O10 2.160136 1_555
Li5 O11 2.160975 1_555
Li5 O0 2.161745 1_556
Li5 O11 2.500336 1_655
Li6 O4 2.018163 1_555
Li6 O5 2.036147 1_565
Li6 O11 2.067392 1_555
Li6 O5 2.105123 1_665
Li6 O10 2.112746 1_555
Li6 O10 2.313938 1_455
Mn0 O5 1.833333 1_655
Mn0 O11 1.942509 1_545
Mn0 O11 1.942705 1_645
Mn0 O0 1.986003 1_556
Mn0 O0 2.000416 1_656
Mn0 O6 2.060965 1_546
Mn1 O9 1.935033 1_455
Mn1 O3 1.947268 1_455
Mn1 O8 1.957356 1_555
Mn1 O2 1.975427 1_555
Mn1 O3 2.161300 1_555
Mn1 O8 2.185110 1_455
Co0 O6 1.959045 1_545
Co0 O1 1.960465 1_555
Co0 O7 2.000367 1_555
Co0 O0 2.047024 1_555
Co0 O6 2.108083 1_445
Co0 O1 2.140952 1_655
Co1 O7 1.904630 1_555
Co1 O2 1.919926 1_555
Co1 O8 1.947966 1_555
Co1 O1 1.955778 1_555
Co1 O7 2.147214 1_455
Co1 O2 2.212630 1_655
Co2 O10 1.731757 1_555
Co2 O4 1.864263 1_555
Co2 O9 1.972029 1_555
Co2 O3 2.010016 1_555
Co2 O4 2.070028 1_655
Co2 O9 2.226205 1_455
