# generated using pymatgen
data_SrCa7Ti2Mn6O24
_symmetry_space_group_name_H-M   'P 1'
_cell_length_a   10.87892290
_cell_length_b   15.24915407
_cell_length_c   10.74516478
_cell_angle_alpha   90.01053546
_cell_angle_beta   90.01119043
_cell_angle_gamma   89.99295744
_symmetry_Int_Tables_number   1
_chemical_formula_structural   SrCa7Ti2Mn6O24
_chemical_formula_sum   'Sr4 Ca28 Ti8 Mn24 O96'
_cell_volume   1782.56227958
_cell_formula_units_Z   4
loop_
 _symmetry_equiv_pos_site_id
 _symmetry_equiv_pos_as_xyz
  1  'x, y, z'
loop_
 _atom_site_type_symbol
 _atom_site_label
 _atom_site_symmetry_multiplicity
 _atom_site_fract_x
 _atom_site_fract_y
 _atom_site_fract_z
 _atom_site_occupancy
  Sr  Sr0  1  0.01140464  0.12463723  0.49826787  1
  Sr  Sr1  1  0.48594828  0.37656058  0.00235774  1
  Sr  Sr2  1  0.23518281  0.37754899  0.24714024  1
  Sr  Sr3  1  0.26810880  0.12437044  0.25330693  1
  Ca  Ca0  1  0.01725117  0.12463634  0.99558885  1
  Ca  Ca1  1  0.02313585  0.62519258  0.49648973  1
  Ca  Ca2  1  0.02296715  0.62524915  0.99680499  1
  Ca  Ca3  1  0.52361204  0.12470937  0.49549880  1
  Ca  Ca4  1  0.52445151  0.12493654  0.99530172  1
  Ca  Ca5  1  0.52325761  0.62527765  0.49520544  1
  Ca  Ca6  1  0.52301004  0.62517746  0.99566338  1
  Ca  Ca7  1  0.48033479  0.37656093  0.50550418  1
  Ca  Ca8  1  0.47918673  0.87348704  0.00507652  1
  Ca  Ca9  1  0.47954452  0.87328278  0.50477246  1
  Ca  Ca10  1  0.97690215  0.37706482  0.00426361  1
  Ca  Ca11  1  0.97599890  0.37696918  0.50427003  1
  Ca  Ca12  1  0.97622030  0.87282279  0.00443509  1
  Ca  Ca13  1  0.97665745  0.87301923  0.50384746  1
  Ca  Ca14  1  0.22857298  0.37794580  0.74440529  1
  Ca  Ca15  1  0.22897709  0.87210824  0.24601618  1
  Ca  Ca16  1  0.22874271  0.87197692  0.74556688  1
  Ca  Ca17  1  0.72865481  0.37485650  0.24675335  1
  Ca  Ca18  1  0.72709175  0.37488170  0.74514969  1
  Ca  Ca19  1  0.72720992  0.87506956  0.24568220  1
  Ca  Ca20  1  0.72675812  0.87510615  0.74529551  1
  Ca  Ca21  1  0.27519107  0.12446962  0.75525897  1
  Ca  Ca22  1  0.27337551  0.62537537  0.25284086  1
  Ca  Ca23  1  0.27353125  0.62551918  0.75333096  1
  Ca  Ca24  1  0.76618409  0.12477806  0.25358773  1
  Ca  Ca25  1  0.76823534  0.12503476  0.75551616  1
  Ca  Ca26  1  0.77262803  0.62518798  0.25439997  1
  Ca  Ca27  1  0.77290895  0.62493702  0.75479160  1
  Ti  Ti0  1  0.99663104  0.99703157  0.24953390  1
  Ti  Ti1  1  0.99844365  0.99796013  0.75229768  1
  Ti  Ti2  1  0.25121286  0.99756290  0.99913282  1
  Ti  Ti3  1  0.25215426  0.99729845  0.50316801  1
  Ti  Ti4  1  0.24979468  0.25036797  0.99793935  1
  Ti  Ti5  1  0.25151754  0.25178842  0.50457296  1
  Ti  Ti6  1  0.99546732  0.25227235  0.24996257  1
  Ti  Ti7  1  0.99808627  0.25183061  0.75180426  1
  Mn  Mn0  1  0.99931264  0.50223299  0.25075866  1
  Mn  Mn1  1  0.00017106  0.50163929  0.75072746  1
  Mn  Mn2  1  0.50267924  0.99894918  0.25187048  1
  Mn  Mn3  1  0.50215959  0.99954030  0.75197717  1
  Mn  Mn4  1  0.50266494  0.50248613  0.25074773  1
  Mn  Mn5  1  0.50054978  0.50137934  0.74786670  1
  Mn  Mn6  1  0.24975885  0.50277389  0.99706103  1
  Mn  Mn7  1  0.25066382  0.50245089  0.50091129  1
  Mn  Mn8  1  0.74791412  0.99875041  0.00131072  1
  Mn  Mn9  1  0.74632128  0.99827562  0.50132926  1
  Mn  Mn10  1  0.75196506  0.50153002  0.00092254  1
  Mn  Mn11  1  0.75008473  0.50088399  0.50095471  1
  Mn  Mn12  1  0.25054308  0.74877486  0.99856666  1
  Mn  Mn13  1  0.25100008  0.74865768  0.49896005  1
  Mn  Mn14  1  0.74950125  0.24978918  0.00195808  1
  Mn  Mn15  1  0.74626658  0.25119547  0.50156458  1
  Mn  Mn16  1  0.75007839  0.74999044  0.00012257  1
  Mn  Mn17  1  0.74987079  0.74952117  0.50067675  1
  Mn  Mn18  1  0.00021194  0.74845713  0.25066983  1
  Mn  Mn19  1  0.00029310  0.74861813  0.75092330  1
  Mn  Mn20  1  0.50399127  0.24864914  0.25211035  1
  Mn  Mn21  1  0.50168861  0.24915071  0.75004397  1
  Mn  Mn22  1  0.50088033  0.75009066  0.25030860  1
  Mn  Mn23  1  0.50054876  0.74988683  0.75007446  1
  O  O0  1  0.10489818  0.26633373  0.10410975  1
  O  O1  1  0.10619636  0.26958041  0.60816914  1
  O  O2  1  0.10498495  0.77049347  0.10337905  1
  O  O3  1  0.10482208  0.77038972  0.60358787  1
  O  O4  1  0.60914203  0.26652140  0.10742707  1
  O  O5  1  0.60283320  0.26967355  0.60128322  1
  O  O6  1  0.60448569  0.77023915  0.10320218  1
  O  O7  1  0.60436318  0.77017459  0.60342771  1
  O  O8  1  0.39796270  0.23434277  0.39373466  1
  O  O9  1  0.39665338  0.23048787  0.88992141  1
  O  O10  1  0.39636711  0.72869720  0.39649299  1
  O  O11  1  0.39646032  0.72888966  0.89635267  1
  O  O12  1  0.88536955  0.23608548  0.39130856  1
  O  O13  1  0.89161237  0.23279613  0.89758971  1
  O  O14  1  0.89615239  0.72892885  0.39757640  1
  O  O15  1  0.89627129  0.72888895  0.89738733  1
  O  O16  1  0.13867840  0.23765425  0.36040868  1
  O  O17  1  0.14387987  0.23275843  0.85327252  1
  O  O18  1  0.14665427  0.72837816  0.35285984  1
  O  O19  1  0.14652719  0.72837895  0.85251498  1
  O  O20  1  0.64643431  0.22956932  0.35433521  1
  O  O21  1  0.64616729  0.23039961  0.85324452  1
  O  O22  1  0.64621101  0.72933067  0.35324309  1
  O  O23  1  0.64601369  0.72932592  0.85300315  1
  O  O24  1  0.36255408  0.26285108  0.14065371  1
  O  O25  1  0.35779945  0.26765747  0.64822780  1
  O  O26  1  0.35515328  0.77028267  0.14610799  1
  O  O27  1  0.35526295  0.77020906  0.64641571  1
  O  O28  1  0.85326178  0.26919344  0.14136907  1
  O  O29  1  0.85341160  0.26832552  0.64196748  1
  O  O30  1  0.85395738  0.77074121  0.14673872  1
  O  O31  1  0.85413033  0.77074531  0.64697020  1
  O  O32  1  0.35841086  0.48747084  0.14216032  1
  O  O33  1  0.35492107  0.48139980  0.64664703  1
  O  O34  1  0.35888977  0.98035906  0.14515035  1
  O  O35  1  0.35784870  0.98040938  0.64809926  1
  O  O36  1  0.85451066  0.47982526  0.14646990  1
  O  O37  1  0.85412654  0.47934031  0.64697392  1
  O  O38  1  0.85234836  0.98013566  0.14180157  1
  O  O39  1  0.85344449  0.98154148  0.64185485  1
  O  O40  1  0.13981880  0.01139949  0.35893804  1
  O  O41  1  0.14391818  0.01615449  0.85385108  1
  O  O42  1  0.14481397  0.52288545  0.35493595  1
  O  O43  1  0.14611976  0.52249489  0.85169264  1
  O  O44  1  0.64646175  0.01977494  0.35304710  1
  O  O45  1  0.64694453  0.02029635  0.85232255  1
  O  O46  1  0.64623870  0.52129070  0.35444556  1
  O  O47  1  0.64503716  0.51993537  0.85397988  1
  O  O48  1  0.39874667  0.01622261  0.39464145  1
  O  O49  1  0.39792542  0.01824618  0.89297042  1
  O  O50  1  0.39570567  0.52066458  0.39608713  1
  O  O51  1  0.39455502  0.52282044  0.89299064  1
  O  O52  1  0.88584914  0.01306173  0.39116160  1
  O  O53  1  0.89146155  0.01691972  0.89766310  1
  O  O54  1  0.89544448  0.52177582  0.39779549  1
  O  O55  1  0.89618570  0.52129863  0.89738128  1
  O  O56  1  0.10240430  0.48260282  0.10178575  1
  O  O57  1  0.10415100  0.48010793  0.60435300  1
  O  O58  1  0.10625521  0.98127733  0.10489025  1
  O  O59  1  0.10705611  0.97967021  0.60753530  1
  O  O60  1  0.61047236  0.48478453  0.10889072  1
  O  O61  1  0.60468393  0.48100017  0.60222308  1
  O  O62  1  0.60324088  0.97854238  0.10194620  1
  O  O63  1  0.60256463  0.97908177  0.60237008  1
  O  O64  1  0.00145457  0.37900319  0.28455591  1
  O  O65  1  0.00749196  0.37817160  0.78672518  1
  O  O66  1  0.00785424  0.87096306  0.28476594  1
  O  O67  1  0.00771129  0.87170690  0.78688834  1
  O  O68  1  0.50991385  0.37580933  0.28757759  1
  O  O69  1  0.51144639  0.37544249  0.77951028  1
  O  O70  1  0.51177575  0.87431414  0.29047353  1
  O  O71  1  0.51142914  0.87459399  0.79065848  1
  O  O72  1  0.49906439  0.12360872  0.21184622  1
  O  O73  1  0.49134510  0.12446011  0.71018375  1
  O  O74  1  0.49049587  0.62656968  0.21130037  1
  O  O75  1  0.49012779  0.62547908  0.70933136  1
  O  O76  1  0.99136284  0.12455043  0.21757304  1
  O  O77  1  0.98972876  0.12484488  0.72480753  1
  O  O78  1  0.98846911  0.62542503  0.20996392  1
  O  O79  1  0.98883449  0.62504539  0.70977802  1
  O  O80  1  0.24036732  0.12416150  0.02460575  1
  O  O81  1  0.24723688  0.12465537  0.53329497  1
  O  O82  1  0.23873257  0.62610131  0.03919973  1
  O  O83  1  0.23994324  0.62536589  0.54057363  1
  O  O84  1  0.73972484  0.12412828  0.03992090  1
  O  O85  1  0.74046740  0.12476999  0.54025833  1
  O  O86  1  0.74025973  0.62586272  0.03909236  1
  O  O87  1  0.73927138  0.62522983  0.54006220  1
  O  O88  1  0.25974352  0.37843113  0.47465003  1
  O  O89  1  0.25270710  0.37817121  0.96466763  1
  O  O90  1  0.26005287  0.87143335  0.46417839  1
  O  O91  1  0.25869770  0.87209391  0.96275264  1
  O  O92  1  0.75865087  0.37628550  0.46170185  1
  O  O93  1  0.75793007  0.37573358  0.96144233  1
  O  O94  1  0.75895931  0.87365599  0.46109675  1
  O  O95  1  0.75983139  0.87425033  0.96002928  1
loop_
_geom_bond_atom_site_label_1
_geom_bond_atom_site_label_2
_geom_bond_distance
_geom_bond_site_symmetry_2
Ca0 O53 2.382709 1_455
Ca0 O13 2.386816 1_455
Ca0 O76 2.401881 1_456
Ca0 O80 2.447156 1_556
Ca0 O0 2.633810 1_556
Ca0 O41 2.637100 1_555
Ca0 O17 2.637609 1_555
Ca0 O58 2.663819 1_546
Ca1 O79 2.322072 1_455
Ca1 O14 2.353699 1_455
Ca1 O54 2.353866 1_455
Ca1 O83 2.405638 1_555
Ca1 O42 2.549325 1_555
Ca1 O18 2.581786 1_555
Ca1 O57 2.648575 1_555
Ca1 O3 2.648690 1_555
Ca2 O78 2.321045 1_456
Ca2 O15 2.353330 1_455
Ca2 O55 2.357053 1_455
Ca2 O82 2.391039 1_556
Ca2 O43 2.584740 1_555
Ca2 O19 2.585751 1_555
Ca2 O56 2.598269 1_556
Ca2 O2 2.648065 1_556
Ca3 O73 2.333452 1_555
Ca3 O48 2.399135 1_555
Ca3 O85 2.407586 1_555
Ca3 O8 2.420470 1_555
Ca3 O20 2.577831 1_555
Ca3 O44 2.586308 1_555
Ca3 O5 2.630707 1_555
Ca3 O63 2.643488 1_545
Ca4 O72 2.343285 1_556
Ca4 O84 2.390453 1_556
Ca4 O49 2.397903 1_555
Ca4 O9 2.409426 1_555
Ca4 O21 2.583005 1_555
Ca4 O45 2.584894 1_555
Ca4 O4 2.638374 1_556
Ca4 O62 2.651688 1_546
Ca5 O75 2.328947 1_555
Ca5 O10 2.348886 1_555
Ca5 O50 2.367282 1_555
Ca5 O87 2.398825 1_555
Ca5 O46 2.567387 1_555
Ca5 O22 2.576032 1_555
Ca5 O61 2.635821 1_555
Ca5 O7 2.648028 1_555
Ca6 O74 2.344059 1_556
Ca6 O11 2.352620 1_555
Ca6 O51 2.367611 1_555
Ca6 O86 2.409005 1_556
Ca6 O47 2.579725 1_555
Ca6 O23 2.581659 1_555
Ca6 O60 2.639871 1_556
Ca6 O6 2.648257 1_556
Ca7 O61 2.333638 1_555
Ca7 O5 2.343372 1_555
Ca7 O68 2.363751 1_555
Ca7 O88 2.422689 1_555
Ca7 O33 2.591682 1_555
Ca7 O25 2.624706 1_555
Ca7 O8 2.635863 1_555
Ca7 O50 2.656836 1_555
Ca8 O71 2.330637 1_554
Ca8 O6 2.334136 1_555
Ca8 O62 2.338926 1_555
Ca8 O91 2.441421 1_554
Ca8 O26 2.568303 1_555
Ca8 O34 2.575532 1_555
Ca8 O11 2.652523 1_554
Ca8 O49 2.665617 1_564
Ca9 O70 2.329345 1_555
Ca9 O7 2.332232 1_555
Ca9 O63 2.343744 1_555
Ca9 O90 2.427428 1_555
Ca9 O27 2.572388 1_555
Ca9 O35 2.606249 1_555
Ca9 O48 2.631392 1_565
Ca9 O10 2.651944 1_555
Ca10 O56 2.356187 1_655
Ca10 O65 2.361184 1_654
Ca10 O93 2.426209 1_554
Ca10 O0 2.437355 1_655
Ca10 O36 2.561768 1_555
Ca10 O28 2.586052 1_555
Ca10 O55 2.632046 1_554
Ca10 O13 2.648361 1_554
Ca11 O57 2.360750 1_655
Ca11 O64 2.377313 1_655
Ca11 O92 2.408283 1_555
Ca11 O1 2.435933 1_655
Ca11 O37 2.558408 1_555
Ca11 O29 2.591264 1_555
Ca11 O54 2.636860 1_555
Ca11 O12 2.657050 1_555
Ca12 O2 2.350974 1_655
Ca12 O67 2.362671 1_654
Ca12 O95 2.401954 1_554
Ca12 O58 2.429163 1_655
Ca12 O30 2.555890 1_555
Ca12 O38 2.583004 1_555
Ca12 O15 2.626052 1_554
Ca12 O53 2.644785 1_564
Ca13 O3 2.354021 1_655
Ca13 O66 2.378672 1_655
Ca13 O94 2.412390 1_555
Ca13 O59 2.428577 1_655
Ca13 O31 2.564444 1_555
Ca13 O39 2.594937 1_555
Ca13 O14 2.626418 1_555
Ca13 O52 2.646223 1_565
Ca14 O33 2.341628 1_555
Ca14 O89 2.381225 1_555
Ca14 O25 2.423265 1_555
Ca14 O65 2.447823 1_555
Ca14 O57 2.554096 1_555
Ca14 O1 2.577781 1_555
Ca14 O43 2.644109 1_555
Ca14 O17 2.668511 1_555
Ca15 O26 2.333913 1_555
Ca15 O90 2.368400 1_555
Ca15 O34 2.428757 1_555
Ca15 O66 2.441492 1_555
Ca15 O2 2.562905 1_555
Ca15 O58 2.617807 1_555
Ca15 O40 2.631301 1_565
Ca15 O18 2.631677 1_555
Ca16 O27 2.331804 1_555
Ca16 O91 2.356277 1_555
Ca16 O35 2.409444 1_555
Ca16 O67 2.445322 1_555
Ca16 O3 2.558020 1_555
Ca16 O59 2.578530 1_555
Ca16 O19 2.630092 1_555
Ca16 O41 2.652946 1_565
Ca17 O92 2.332631 1_555
Ca17 O36 2.366374 1_555
Ca17 O28 2.390707 1_555
Ca17 O68 2.419885 1_555
Ca17 O60 2.580134 1_555
Ca17 O4 2.580645 1_555
Ca17 O20 2.654558 1_555
Ca17 O46 2.669864 1_555
Ca18 O93 2.348158 1_555
Ca18 O37 2.358358 1_555
Ca18 O69 2.374950 1_555
Ca18 O29 2.399455 1_555
Ca18 O61 2.598102 1_555
Ca18 O5 2.605718 1_555
Ca18 O21 2.642000 1_555
Ca18 O47 2.656317 1_555
Ca19 O94 2.340330 1_555
Ca19 O30 2.358400 1_555
Ca19 O38 2.380756 1_555
Ca19 O70 2.392721 1_555
Ca19 O6 2.584696 1_555
Ca19 O62 2.587175 1_555
Ca19 O44 2.640230 1_565
Ca19 O22 2.655771 1_555
Ca20 O95 2.335204 1_555
Ca20 O31 2.359733 1_555
Ca20 O71 2.392829 1_555
Ca20 O39 2.402284 1_555
Ca20 O7 2.579911 1_555
Ca20 O63 2.587952 1_555
Ca20 O45 2.641472 1_565
Ca20 O23 2.656069 1_555
Ca21 O73 2.400977 1_555
Ca21 O81 2.404293 1_555
Ca21 O17 2.424057 1_555
Ca21 O41 2.427297 1_555
Ca21 O9 2.540151 1_555
Ca21 O49 2.568229 1_555
Ca21 O25 2.626738 1_555
Ca21 O35 2.638057 1_545
Ca22 O82 2.326296 1_555
Ca22 O18 2.349910 1_555
Ca22 O42 2.367268 1_555
Ca22 O74 2.403998 1_555
Ca22 O10 2.579559 1_555
Ca22 O50 2.586393 1_555
Ca22 O32 2.586797 1_555
Ca22 O26 2.644130 1_555
Ca23 O83 2.315061 1_555
Ca23 O19 2.346172 1_555
Ca23 O43 2.346956 1_555
Ca23 O75 2.403390 1_555
Ca23 O51 2.537245 1_555
Ca23 O11 2.575613 1_555
Ca23 O33 2.631910 1_555
Ca23 O27 2.642043 1_555
Ca24 O84 2.313823 1_555
Ca24 O44 2.324665 1_555
Ca24 O20 2.328519 1_555
Ca24 O76 2.480157 1_555
Ca24 O12 2.598258 1_555
Ca24 O52 2.604189 1_555
Ca24 O38 2.680562 1_545
Ca24 O28 2.683849 1_555
Ca25 O45 2.318568 1_555
Ca25 O85 2.332569 1_555
Ca25 O21 2.333922 1_555
Ca25 O77 2.432163 1_555
Ca25 O13 2.613656 1_555
Ca25 O53 2.616815 1_555
Ca25 O29 2.669026 1_555
Ca25 O39 2.671678 1_545
Ca26 O86 2.340117 1_555
Ca26 O22 2.353903 1_555
Ca26 O46 2.357562 1_555
Ca26 O78 2.396267 1_555
Ca26 O54 2.577910 1_555
Ca26 O14 2.583426 1_555
Ca26 O30 2.655069 1_555
Ca26 O36 2.655377 1_555
Ca27 O87 2.336076 1_555
Ca27 O23 2.356431 1_555
Ca27 O47 2.374163 1_555
Ca27 O79 2.398410 1_555
Ca27 O55 2.577461 1_555
Ca27 O15 2.580775 1_555
Ca27 O37 2.655414 1_555
Ca27 O31 2.658681 1_555
Mn0 O64 1.914123 1_655
Mn0 O78 1.932701 1_555
Mn0 O36 1.962993 1_555
Mn0 O42 1.963953 1_655
Mn0 O54 1.965270 1_555
Mn0 O56 1.977431 1_655
Mn1 O65 1.923806 1_555
Mn1 O79 1.936585 1_455
Mn1 O43 1.948960 1_555
Mn1 O55 1.962968 1_455
Mn1 O57 1.965086 1_555
Mn1 O37 1.970311 1_455
Mn2 O48 1.923985 1_565
Mn2 O44 1.931015 1_565
Mn2 O70 1.947890 1_555
Mn2 O72 1.949462 1_565
Mn2 O34 1.959996 1_555
Mn2 O62 1.972129 1_555
Mn3 O49 1.913862 1_565
Mn3 O45 1.934694 1_565
Mn3 O35 1.948081 1_555
Mn3 O71 1.952797 1_555
Mn3 O73 1.960734 1_565
Mn3 O63 1.968525 1_555
Mn4 O46 1.939771 1_555
Mn4 O60 1.942236 1_555
Mn4 O74 1.943632 1_555
Mn4 O50 1.967277 1_555
Mn4 O32 1.968729 1_555
Mn4 O68 1.973470 1_555
Mn5 O75 1.940558 1_555
Mn5 O33 1.945514 1_555
Mn5 O69 1.953941 1_555
Mn5 O61 1.956912 1_555
Mn5 O47 1.962190 1_555
Mn5 O51 1.966889 1_555
Mn6 O89 1.931904 1_555
Mn6 O82 1.938004 1_556
Mn6 O43 1.949595 1_555
Mn6 O51 1.956070 1_555
Mn6 O32 1.970230 1_556
Mn6 O56 1.982833 1_556
Mn7 O88 1.914622 1_555
Mn7 O83 1.925640 1_555
Mn7 O50 1.958697 1_555
Mn7 O33 1.959869 1_555
Mn7 O42 1.970481 1_555
Mn7 O57 1.973069 1_555
Mn8 O38 1.910410 1_555
Mn8 O62 1.934502 1_555
Mn8 O53 1.938231 1_564
Mn8 O95 1.953868 1_554
Mn8 O84 1.958347 1_565
Mn8 O45 1.968966 1_564
Mn9 O39 1.924223 1_555
Mn9 O63 1.926433 1_555
Mn9 O52 1.938322 1_565
Mn9 O94 1.953652 1_555
Mn9 O44 1.955954 1_565
Mn9 O85 1.974713 1_565
Mn10 O86 1.943914 1_555
Mn10 O60 1.944591 1_555
Mn10 O55 1.947115 1_554
Mn10 O36 1.949199 1_555
Mn10 O93 1.965627 1_554
Mn10 O47 1.980988 1_554
Mn11 O61 1.943968 1_555
Mn11 O87 1.945649 1_555
Mn11 O92 1.948420 1_555
Mn11 O54 1.957502 1_555
Mn11 O37 1.962195 1_555
Mn11 O46 1.962356 1_555
Mn12 O91 1.921615 1_555
Mn12 O82 1.925335 1_556
Mn12 O11 1.954118 1_555
Mn12 O19 1.959408 1_555
Mn12 O2 1.971300 1_556
Mn12 O26 1.978703 1_556
Mn13 O90 1.911785 1_555
Mn13 O83 1.936376 1_555
Mn13 O10 1.950970 1_555
Mn13 O18 1.961619 1_555
Mn13 O3 1.975627 1_555
Mn13 O27 1.975905 1_555
Mn14 O28 1.898683 1_555
Mn14 O4 1.918724 1_555
Mn14 O13 1.927550 1_554
Mn14 O84 1.962134 1_555
Mn14 O93 1.971496 1_554
Mn14 O21 1.975809 1_554
Mn15 O5 1.913839 1_555
Mn15 O29 1.924106 1_555
Mn15 O12 1.935772 1_555
Mn15 O20 1.946859 1_555
Mn15 O92 1.959752 1_555
Mn15 O85 1.973299 1_555
Mn16 O86 1.941639 1_555
Mn16 O95 1.946204 1_554
Mn16 O6 1.957368 1_555
Mn16 O15 1.962657 1_554
Mn16 O30 1.964275 1_555
Mn16 O23 1.969564 1_554
Mn17 O94 1.942749 1_555
Mn17 O87 1.945526 1_555
Mn17 O7 1.955605 1_555
Mn17 O14 1.964393 1_555
Mn17 O31 1.965059 1_555
Mn17 O22 1.968607 1_555
Mn18 O66 1.905454 1_555
Mn18 O78 1.930609 1_455
Mn18 O18 1.958790 1_555
Mn18 O14 1.965441 1_455
Mn18 O30 1.973197 1_455
Mn18 O2 1.979374 1_555
Mn19 O67 1.918005 1_555
Mn19 O79 1.939490 1_455
Mn19 O19 1.953734 1_555
Mn19 O15 1.961854 1_455
Mn19 O31 1.972115 1_455
Mn19 O3 1.977548 1_555
Mn20 O20 1.921424 1_555
Mn20 O8 1.922180 1_555
Mn20 O4 1.949537 1_555
Mn20 O72 1.955889 1_555
Mn20 O24 1.961642 1_555
Mn20 O68 1.977167 1_555
Mn21 O9 1.909613 1_555
Mn21 O25 1.930346 1_555
Mn21 O21 1.944538 1_555
Mn21 O73 1.952246 1_555
Mn21 O69 1.954533 1_555
Mn21 O5 1.965890 1_555
Mn22 O74 1.932901 1_555
Mn22 O70 1.946388 1_555
Mn22 O22 1.955141 1_555
Mn22 O26 1.964966 1_555
Mn22 O6 1.965784 1_555
Mn22 O10 1.966593 1_555
Mn23 O75 1.950200 1_555
Mn23 O71 1.954556 1_555
Mn23 O23 1.955797 1_555
Mn23 O27 1.958091 1_555
Mn23 O7 1.963456 1_555
Mn23 O11 1.963735 1_555
O0 Ti4 1.961129 1_554
O0 Ti6 1.979978 1_455
O0 Sr2 2.691822 1_555
O1 Ti5 1.952580 1_555
O1 Ti7 1.959463 1_455
O1 Sr0 2.709679 1_555
O4 Sr1 2.426116 1_555
O8 Ti5 2.006961 1_555
O8 Sr3 2.661498 1_555
O9 Ti4 1.998016 1_555
O9 Sr1 2.713683 1_556
O12 Ti6 1.950168 1_555
O12 Sr0 2.467523 1_655
O13 Ti7 1.969976 1_555
O16 Ti6 1.970962 1_455
O16 Ti5 1.988012 1_555
O16 Sr3 2.508095 1_555
O16 Sr0 2.661562 1_555
O16 Sr2 2.671402 1_555
O17 Ti7 1.946354 1_455
O17 Ti4 1.953295 1_555
O24 Ti4 1.972774 1_554
O24 Sr2 2.507536 1_555
O24 Sr3 2.642390 1_555
O24 Sr1 2.649382 1_555
O25 Ti5 1.943541 1_555
O28 Ti6 1.954682 1_555
O29 Ti7 1.983088 1_555
O32 Sr2 2.425110 1_555
O32 Sr1 2.653571 1_555
O34 Ti2 1.975370 1_554
O34 Sr3 2.673497 1_565
O35 Ti3 1.952705 1_555
O38 Ti0 1.967098 1_555
O39 Ti1 1.989613 1_555
O40 Ti0 1.963607 1_445
O40 Ti3 1.985160 1_545
O40 Sr3 2.491144 1_555
O40 Sr0 2.678441 1_555
O41 Ti1 1.942081 1_445
O41 Ti2 1.969563 1_545
O42 Sr2 2.686801 1_555
O48 Ti3 1.996847 1_545
O48 Sr3 2.654314 1_555
O49 Ti2 1.987252 1_545
O51 Sr1 2.709972 1_556
O52 Ti0 1.956695 1_545
O52 Sr0 2.466643 1_655
O53 Ti1 1.969356 1_545
O56 Sr2 2.663036 1_555
O58 Ti2 1.959799 1_554
O58 Ti0 1.973856 1_455
O59 Ti3 1.955122 1_555
O59 Ti1 1.973317 1_455
O59 Sr0 2.710736 1_565
O60 Sr1 2.422471 1_555
O64 Ti6 1.968978 1_455
O64 Sr2 2.574469 1_555
O65 Ti7 1.965400 1_455
O66 Ti0 1.963208 1_455
O67 Ti1 1.963446 1_455
O69 Sr1 2.410657 1_556
O72 Sr3 2.551849 1_555
O76 Ti0 1.975533 1_545
O76 Ti6 1.978947 1_555
O77 Ti1 1.959637 1_545
O77 Ti7 1.960098 1_555
O77 Sr0 2.445648 1_655
O80 Ti4 1.948524 1_554
O80 Ti2 1.953334 1_544
O80 Sr3 2.475837 1_555
O81 Ti5 1.963698 1_555
O81 Ti3 1.969543 1_545
O81 Sr0 2.592988 1_555
O88 Ti5 1.959893 1_555
O88 Sr2 2.459171 1_555
O89 Ti4 1.981734 1_555
O89 Sr1 2.569566 1_556
O90 Ti3 1.966325 1_555
O91 Ti2 1.954442 1_555
