# generated using pymatgen
data_Co2Hg(CO)8
_symmetry_space_group_name_H-M   'P 1'
_cell_length_a   6.63187100
_cell_length_b   16.60893100
_cell_length_c   12.52518447
_cell_angle_alpha   90.00000000
_cell_angle_beta   100.48477987
_cell_angle_gamma   90.00000000
_symmetry_Int_Tables_number   1
_chemical_formula_structural   Co2Hg(CO)8
_chemical_formula_sum   'Co8 Hg4 C32 O32'
_cell_volume   1356.59237119
_cell_formula_units_Z   4
loop_
 _symmetry_equiv_pos_site_id
 _symmetry_equiv_pos_as_xyz
  1  'x, y, z'
loop_
 _atom_site_type_symbol
 _atom_site_label
 _atom_site_symmetry_multiplicity
 _atom_site_fract_x
 _atom_site_fract_y
 _atom_site_fract_z
 _atom_site_occupancy
  Co  Co0  1  0.41500200  0.80160800  0.56207100  1
  Co  Co1  1  0.58499800  0.30160800  0.93792900  1
  Co  Co2  1  0.58499800  0.19839200  0.43792900  1
  Co  Co3  1  0.41500200  0.69839200  0.06207100  1
  Co  Co4  1  0.82261300  0.54453900  0.68913100  1
  Co  Co5  1  0.17738700  0.04453900  0.81086900  1
  Co  Co6  1  0.17738700  0.45546100  0.31086900  1
  Co  Co7  1  0.82261300  0.95546100  0.18913100  1
  Hg  Hg0  1  0.61606900  0.67210900  0.62243900  1
  Hg  Hg1  1  0.38393100  0.17210900  0.87756100  1
  Hg  Hg2  1  0.38393100  0.32789100  0.37756100  1
  Hg  Hg3  1  0.61606900  0.82789100  0.12243900  1
  C  C0  1  0.27999700  0.89063400  0.51782000  1
  C  C1  1  0.72000300  0.39063400  0.98218000  1
  C  C2  1  0.72000300  0.10936600  0.48218000  1
  C  C3  1  0.27999700  0.60936600  0.01782000  1
  C  C4  1  0.45556400  0.81924600  0.70455600  1
  C  C5  1  0.54443600  0.31924600  0.79544400  1
  C  C6  1  0.54443600  0.18075400  0.29544400  1
  C  C7  1  0.45556400  0.68075400  0.20455600  1
  C  C8  1  0.22229800  0.73149200  0.50580900  1
  C  C9  1  0.77770200  0.23149200  0.99419100  1
  C  C10  1  0.77770200  0.26850800  0.49419100  1
  C  C11  1  0.22229800  0.76850800  0.00580900  1
  C  C12  1  0.62576700  0.81755700  0.49504800  1
  C  C13  1  0.37423300  0.31755700  0.00495200  1
  C  C14  1  0.37423300  0.18244300  0.50495200  1
  C  C15  1  0.62576700  0.68244300  0.99504800  1
  C  C16  1  0.01583500  0.61765800  0.73099400  1
  C  C17  1  0.98416500  0.11765800  0.76900600  1
  C  C18  1  0.98416500  0.38234200  0.26900600  1
  C  C19  1  0.01583500  0.88234200  0.23099400  1
  C  C20  1  0.61671500  0.53351800  0.76102500  1
  C  C21  1  0.38328500  0.03351800  0.73897500  1
  C  C22  1  0.38328500  0.46648200  0.23897500  1
  C  C23  1  0.61671500  0.96648200  0.26102500  1
  C  C24  1  0.77033900  0.51842900  0.54941300  1
  C  C25  1  0.22966100  0.01842900  0.95058700  1
  C  C26  1  0.22966100  0.48157100  0.45058700  1
  C  C27  1  0.77033900  0.98157100  0.04941300  1
  C  C28  1  0.96406500  0.45842500  0.74064000  1
  C  C29  1  0.03593500  0.95842500  0.75936000  1
  C  C30  1  0.03593500  0.54157500  0.25936000  1
  C  C31  1  0.96406500  0.04157500  0.24064000  1
  O  O0  1  0.19280700  0.94919300  0.48844200  1
  O  O1  1  0.80719300  0.44919300  0.01155800  1
  O  O2  1  0.80719300  0.05080700  0.51155800  1
  O  O3  1  0.19280700  0.55080700  0.98844200  1
  O  O4  1  0.47869500  0.83385400  0.79660200  1
  O  O5  1  0.52130500  0.33385400  0.70339800  1
  O  O6  1  0.52130500  0.16614600  0.20339800  1
  O  O7  1  0.47869500  0.66614600  0.29660200  1
  O  O8  1  0.09160900  0.68802700  0.46806800  1
  O  O9  1  0.90839100  0.18802700  0.03193200  1
  O  O10  1  0.90839100  0.31197300  0.53193200  1
  O  O11  1  0.09160900  0.81197300  0.96806800  1
  O  O12  1  0.76020400  0.83062600  0.44973700  1
  O  O13  1  0.23979600  0.33062600  0.05026300  1
  O  O14  1  0.23979600  0.16937400  0.55026300  1
  O  O15  1  0.76020400  0.66937400  0.94973700  1
  O  O16  1  0.14780300  0.66319500  0.75898700  1
  O  O17  1  0.85219700  0.16319500  0.74101300  1
  O  O18  1  0.85219700  0.33680500  0.24101300  1
  O  O19  1  0.14780300  0.83680500  0.25898700  1
  O  O20  1  0.48425100  0.52306800  0.80862700  1
  O  O21  1  0.51574900  0.02306800  0.69137300  1
  O  O22  1  0.51574900  0.47693200  0.19137300  1
  O  O23  1  0.48425100  0.97693200  0.30862700  1
  O  O24  1  0.73872700  0.49832000  0.45909500  1
  O  O25  1  0.26127300  0.99832000  0.04090500  1
  O  O26  1  0.26127300  0.50168000  0.54090500  1
  O  O27  1  0.73872700  0.00168000  0.95909500  1
  O  O28  1  0.05421900  0.40157000  0.77498200  1
  O  O29  1  0.94578100  0.90157000  0.72501800  1
  O  O30  1  0.94578100  0.59843000  0.22501800  1
  O  O31  1  0.05421900  0.09843000  0.27498200  1
loop_
_geom_bond_atom_site_label_1
_geom_bond_atom_site_label_2
_geom_bond_distance
_geom_bond_site_symmetry_2
Co0 Hg0 2.570792 1_555
Co1 Hg1 2.570792 1_555
Co2 Hg2 2.570792 1_555
Co3 Hg3 2.570792 1_555
Co4 Hg0 2.578166 1_555
Co5 Hg1 2.578166 1_555
Co6 Hg2 2.578166 1_555
Co7 Hg3 2.578166 1_555
C0 O0 1.156836 1_555
C0 Co0 1.764809 1_555
C1 O1 1.156836 1_556
C1 Co1 1.764809 1_555
C2 O2 1.156836 1_555
C2 Co2 1.764809 1_555
C3 O3 1.156836 1_554
C3 Co3 1.764809 1_555
C4 O4 1.160687 1_555
C4 Co0 1.780010 1_555
C5 O5 1.160687 1_555
C5 Co1 1.780010 1_555
C6 O6 1.160687 1_555
C6 Co2 1.780010 1_555
C7 O7 1.160687 1_555
C7 Co3 1.780010 1_555
C8 O8 1.160468 1_555
C8 Co0 1.777149 1_555
C9 O9 1.160468 1_556
C9 Co1 1.777149 1_555
C10 O10 1.160468 1_555
C10 Co2 1.777149 1_555
C11 O11 1.160468 1_554
C11 Co3 1.777149 1_555
C12 O12 1.161144 1_555
C12 Co0 1.776427 1_555
C13 O13 1.161144 1_555
C13 Co1 1.776427 1_554
C14 O14 1.161144 1_555
C14 Co2 1.776427 1_555
C15 O15 1.161144 1_555
C15 Co3 1.776427 1_556
C16 O16 1.161567 1_555
C16 Co4 1.774057 1_455
C17 O17 1.161567 1_555
C17 Co5 1.774057 1_655
C18 O18 1.161567 1_555
C18 Co6 1.774057 1_655
C19 O19 1.161567 1_555
C19 Co7 1.774057 1_455
C20 O20 1.161020 1_555
C20 Co4 1.776641 1_555
C21 O21 1.161020 1_555
C21 Co5 1.776641 1_555
C22 O22 1.161020 1_555
C22 Co6 1.776641 1_555
C23 O23 1.161020 1_555
C23 Co7 1.776641 1_555
C24 O24 1.161426 1_555
C24 Co4 1.774802 1_555
C25 O25 1.161426 1_546
C25 Co5 1.774802 1_555
C26 O26 1.161426 1_555
C26 Co6 1.774802 1_555
C27 O27 1.161426 1_564
C27 Co7 1.774802 1_555
C28 O28 1.157842 1_655
C28 Co4 1.766812 1_555
C29 O29 1.157842 1_455
C29 Co5 1.766812 1_565
C30 O30 1.157842 1_455
C30 Co6 1.766812 1_555
C31 O31 1.157842 1_655
C31 Co7 1.766812 1_545
