# generated using pymatgen
data_Cs2RbBiI6
_symmetry_space_group_name_H-M   'P 1'
_cell_length_a   9.30351847
_cell_length_b   9.30351847
_cell_length_c   9.30351847
_cell_angle_alpha   60.00000000
_cell_angle_beta   60.00000000
_cell_angle_gamma   60.00000000
_symmetry_Int_Tables_number   1
_chemical_formula_structural   Cs2RbBiI6
_chemical_formula_sum   'Cs2 Rb1 Bi1 I6'
_cell_volume   569.41207794
_cell_formula_units_Z   1
loop_
 _symmetry_equiv_pos_site_id
 _symmetry_equiv_pos_as_xyz
  1  'x, y, z'
loop_
 _atom_site_type_symbol
 _atom_site_label
 _atom_site_symmetry_multiplicity
 _atom_site_fract_x
 _atom_site_fract_y
 _atom_site_fract_z
 _atom_site_occupancy
  Cs  Cs0  1  0.75000000  0.75000000  0.75000000  1
  Cs  Cs1  1  0.25000000  0.25000000  0.25000000  1
  Rb  Rb0  1  0.50000000  0.50000000  0.50000000  1
  Bi  Bi0  1  0.00000000  0.00000000  0.00000000  1
  I  I0  1  0.76566500  0.23433500  0.23433500  1
  I  I1  1  0.23433500  0.23433500  0.76566500  1
  I  I2  1  0.23433500  0.76566500  0.76566500  1
  I  I3  1  0.23433500  0.76566500  0.23433500  1
  I  I4  1  0.76566500  0.23433500  0.76566500  1
  I  I5  1  0.76566500  0.76566500  0.23433500  1
loop_
_geom_bond_atom_site_label_1
_geom_bond_atom_site_label_2
_geom_bond_distance
_geom_bond_site_symmetry_2
Bi0 I1 3.083184 1_554
Bi0 I0 3.083184 1_455
Bi0 I3 3.083184 1_545
Bi0 I2 3.083184 1_544
Bi0 I4 3.083184 1_454
Bi0 I5 3.083184 1_445
I0 Rb0 3.495397 1_555
I1 Rb0 3.495397 1_555
I2 Rb0 3.495397 1_555
I3 Rb0 3.495397 1_555
I4 Rb0 3.495397 1_555
I5 Rb0 3.495397 1_555
