# generated using pymatgen
data_LiBH5N
_symmetry_space_group_name_H-M   'P 1'
_cell_length_a   5.19423700
_cell_length_b   7.13921200
_cell_length_c   14.03337100
_cell_angle_alpha   90.00000000
_cell_angle_beta   90.00000000
_cell_angle_gamma   90.00000000
_symmetry_Int_Tables_number   1
_chemical_formula_structural   LiBH5N
_chemical_formula_sum   'Li8 B8 H40 N8'
_cell_volume   520.39611645
_cell_formula_units_Z   8
loop_
 _symmetry_equiv_pos_site_id
 _symmetry_equiv_pos_as_xyz
  1  'x, y, z'
loop_
 _atom_site_type_symbol
 _atom_site_label
 _atom_site_symmetry_multiplicity
 _atom_site_fract_x
 _atom_site_fract_y
 _atom_site_fract_z
 _atom_site_occupancy
  Li  Li0  1  0.06419800  0.45130000  0.17728300  1
  Li  Li1  1  0.93580200  0.95130000  0.32271700  1
  Li  Li2  1  0.43580200  0.54870000  0.67728300  1
  Li  Li3  1  0.56419800  0.04870000  0.82271700  1
  Li  Li4  1  0.93580200  0.54870000  0.82271700  1
  Li  Li5  1  0.06419800  0.04870000  0.67728300  1
  Li  Li6  1  0.56419800  0.45130000  0.32271700  1
  Li  Li7  1  0.43580200  0.95130000  0.17728300  1
  B  B0  1  0.53315600  0.59488300  0.15387100  1
  B  B1  1  0.46684400  0.09488300  0.34612900  1
  B  B2  1  0.96684400  0.40511700  0.65387100  1
  B  B3  1  0.03315600  0.90511700  0.84612900  1
  B  B4  1  0.46684400  0.40511700  0.84612900  1
  B  B5  1  0.53315600  0.90511700  0.65387100  1
  B  B6  1  0.03315600  0.59488300  0.34612900  1
  B  B7  1  0.96684400  0.09488300  0.15387100  1
  H  H0  1  0.35468400  0.67749400  0.11198900  1
  H  H1  1  0.64531600  0.17749400  0.38801100  1
  H  H2  1  0.14531600  0.32250600  0.61198900  1
  H  H3  1  0.85468400  0.82250600  0.88801100  1
  H  H4  1  0.64531600  0.32250600  0.88801100  1
  H  H5  1  0.35468400  0.82250600  0.61198900  1
  H  H6  1  0.85468400  0.67749400  0.38801100  1
  H  H7  1  0.14531600  0.17749400  0.11198900  1
  H  H8  1  0.58459400  0.68559900  0.22628900  1
  H  H9  1  0.41540600  0.18559900  0.27371100  1
  H  H10  1  0.91540600  0.31440100  0.72628900  1
  H  H11  1  0.08459400  0.81440100  0.77371100  1
  H  H12  1  0.41540600  0.31440100  0.77371100  1
  H  H13  1  0.58459400  0.81440100  0.72628900  1
  H  H14  1  0.08459400  0.68559900  0.27371100  1
  H  H15  1  0.91540600  0.18559900  0.22628900  1
  H  H16  1  0.44696000  0.44110200  0.18029300  1
  H  H17  1  0.55304000  0.94110200  0.31970700  1
  H  H18  1  0.05304000  0.55889800  0.68029300  1
  H  H19  1  0.94696000  0.05889800  0.81970700  1
  H  H20  1  0.55304000  0.55889800  0.81970700  1
  H  H21  1  0.44696000  0.05889800  0.68029300  1
  H  H22  1  0.94696000  0.44110200  0.31970700  1
  H  H23  1  0.05304000  0.94110200  0.18029300  1
  H  H24  1  0.85892700  0.68836800  0.07444700  1
  H  H25  1  0.14107300  0.18836800  0.42555300  1
  H  H26  1  0.64107300  0.31163200  0.57444700  1
  H  H27  1  0.35892700  0.81163200  0.92555300  1
  H  H28  1  0.14107300  0.31163200  0.92555300  1
  H  H29  1  0.85892700  0.81163200  0.57444700  1
  H  H30  1  0.35892700  0.68836800  0.42555300  1
  H  H31  1  0.64107300  0.18836800  0.07444700  1
  H  H32  1  0.74756100  0.49359300  0.03230100  1
  H  H33  1  0.25243900  0.99359300  0.46769900  1
  H  H34  1  0.75243900  0.50640700  0.53230100  1
  H  H35  1  0.24756100  0.00640700  0.96769900  1
  H  H36  1  0.25243900  0.50640700  0.96769900  1
  H  H37  1  0.74756100  0.00640700  0.53230100  1
  H  H38  1  0.24756100  0.49359300  0.46769900  1
  H  H39  1  0.75243900  0.99359300  0.03230100  1
  N  N0  1  0.78196300  0.56322300  0.09479000  1
  N  N1  1  0.21803700  0.06322300  0.40521000  1
  N  N2  1  0.71803700  0.43677700  0.59479000  1
  N  N3  1  0.28196300  0.93677700  0.90521000  1
  N  N4  1  0.21803700  0.43677700  0.90521000  1
  N  N5  1  0.78196300  0.93677700  0.59479000  1
  N  N6  1  0.28196300  0.56322300  0.40521000  1
  N  N7  1  0.71803700  0.06322300  0.09479000  1
loop_
_geom_bond_atom_site_label_1
_geom_bond_atom_site_label_2
_geom_bond_distance
_geom_bond_site_symmetry_2
Li0 N0 2.031693 1_455
Li1 N1 2.031693 1_665
Li2 N2 2.031693 1_555
Li3 N3 2.031693 1_545
Li4 N4 2.031693 1_655
Li5 N5 2.031693 1_445
Li6 N6 2.031693 1_555
Li7 N7 2.031693 1_565
B0 H8 1.234353 1_555
B0 H16 1.242284 1_555
B0 H0 1.246058 1_555
B0 N0 1.552000 1_555
B1 H9 1.234353 1_555
B1 H17 1.242284 1_545
B1 H1 1.246058 1_555
B1 N1 1.552000 1_555
B2 H10 1.234353 1_555
B2 H18 1.242284 1_655
B2 H2 1.246058 1_655
B2 N2 1.552000 1_555
B3 H11 1.234353 1_555
B3 H19 1.242284 1_465
B3 H3 1.246058 1_455
B3 N3 1.552000 1_555
B4 H12 1.234353 1_555
B4 H20 1.242284 1_555
B4 H4 1.246058 1_555
B4 N4 1.552000 1_555
B5 H13 1.234353 1_555
B5 H21 1.242284 1_565
B5 H5 1.246058 1_555
B5 N5 1.552000 1_555
B6 H14 1.234353 1_555
B6 H22 1.242284 1_455
B6 H6 1.246058 1_455
B6 N6 1.552000 1_555
B7 H15 1.234353 1_555
B7 H23 1.242284 1_645
B7 H7 1.246058 1_655
B7 N7 1.552000 1_555
H0 Li7 2.199594 1_555
H1 Li6 2.199594 1_555
H2 Li5 2.199594 1_555
H3 Li4 2.199594 1_555
H4 Li3 2.199594 1_555
H5 Li2 2.199594 1_555
H6 Li1 2.199594 1_555
H7 Li0 2.199594 1_555
H8 Li6 2.154150 1_555
H8 Li7 2.160668 1_555
H9 Li7 2.154150 1_545
H9 Li6 2.160668 1_555
H10 Li4 2.154150 1_555
H10 Li5 2.160668 1_655
H11 Li5 2.154150 1_565
H11 Li4 2.160668 1_455
H12 Li2 2.154150 1_555
H12 Li3 2.160668 1_555
H13 Li3 2.154150 1_565
H13 Li2 2.160668 1_555
H14 Li0 2.154150 1_555
H14 Li1 2.160668 1_455
H15 Li1 2.154150 1_545
H15 Li0 2.160668 1_655
H16 Li0 1.989938 1_555
H16 Li6 2.090668 1_555
H17 Li1 1.989938 1_555
H17 Li7 2.090668 1_555
H18 Li2 1.989938 1_555
H18 Li4 2.090668 1_455
H19 Li3 1.989938 1_555
H19 Li5 2.090668 1_655
H20 Li4 1.989938 1_555
H20 Li2 2.090668 1_555
H21 Li5 1.989938 1_555
H21 Li3 2.090668 1_555
H22 Li6 1.989938 1_555
H22 Li0 2.090668 1_655
H23 Li7 1.989938 1_555
H23 Li1 2.090668 1_455
H24 N0 1.019580 1_555
H25 N1 1.019580 1_555
H26 N2 1.019580 1_555
H27 N3 1.019580 1_555
H28 N4 1.019580 1_555
H29 N5 1.019580 1_555
H30 N6 1.019580 1_555
H31 N7 1.019580 1_555
H32 N0 1.023744 1_555
H33 N1 1.023744 1_565
H34 N2 1.023744 1_555
H35 N3 1.023744 1_545
H36 N4 1.023744 1_555
H37 N5 1.023744 1_545
H38 N6 1.023744 1_555
H39 N7 1.023744 1_565
