# generated using pymatgen
data_MgCoO2
_symmetry_space_group_name_H-M   'P 1'
_cell_length_a   3.04047800
_cell_length_b   8.02226649
_cell_length_c   8.16212720
_cell_angle_alpha   86.42024263
_cell_angle_beta   88.96323731
_cell_angle_gamma   79.38020477
_symmetry_Int_Tables_number   1
_chemical_formula_structural   MgCoO2
_chemical_formula_sum   'Mg4 Co4 O8'
_cell_volume   195.29052020
_cell_formula_units_Z   4
loop_
 _symmetry_equiv_pos_site_id
 _symmetry_equiv_pos_as_xyz
  1  'x, y, z'
loop_
 _atom_site_type_symbol
 _atom_site_label
 _atom_site_symmetry_multiplicity
 _atom_site_fract_x
 _atom_site_fract_y
 _atom_site_fract_z
 _atom_site_occupancy
  Mg  Mg0  1  0.14829800  0.20935300  0.94744900  1
  Mg  Mg1  1  0.85170200  0.79064700  0.05255100  1
  Mg  Mg2  1  0.04858800  0.37845100  0.25037600  1
  Mg  Mg3  1  0.95141200  0.62154900  0.74962400  1
  Co  Co0  1  0.30688500  0.92456100  0.72869500  1
  Co  Co1  1  0.63411600  0.27311000  0.63788600  1
  Co  Co2  1  0.36588400  0.72689000  0.36211400  1
  Co  Co3  1  0.69311500  0.07543900  0.27130500  1
  O  O0  1  0.26204000  0.94312800  0.18601200  1
  O  O1  1  0.40387400  0.73318200  0.59363000  1
  O  O2  1  0.59612600  0.26681800  0.40637000  1
  O  O3  1  0.73796000  0.05687200  0.81398800  1
  O  O4  1  0.39566600  0.71841700  0.90724400  1
  O  O5  1  0.07912200  0.37373800  0.74696200  1
  O  O6  1  0.60433400  0.28158300  0.09275600  1
  O  O7  1  0.92087800  0.62626200  0.25303800  1
loop_
_geom_bond_atom_site_label_1
_geom_bond_atom_site_label_2
_geom_bond_distance
_geom_bond_site_symmetry_2
Mg0 O5 2.025305 1_555
Mg0 O6 2.026431 1_556
Mg0 O6 2.034554 1_456
Mg0 O3 2.240002 1_455
Mg0 O3 2.276987 1_555
Mg1 O7 2.025305 1_555
Mg1 O4 2.026431 1_554
Mg1 O4 2.034554 1_654
Mg1 O0 2.240002 1_655
Mg1 O0 2.276987 1_555
Mg2 O7 1.955500 1_455
Mg2 O2 2.136359 1_455
Mg2 O2 2.139963 1_555
Mg2 O6 2.158271 1_455
Mg2 O6 2.162498 1_555
Mg3 O5 1.955500 1_655
Mg3 O1 2.136359 1_655
Mg3 O1 2.139963 1_555
Mg3 O4 2.158271 1_655
Mg3 O4 2.162498 1_555
Co0 O1 1.921492 1_555
Co0 O3 1.991790 1_565
Co0 O3 1.993859 1_465
Co0 O4 2.116674 1_555
Co1 O2 1.899651 1_555
Co1 O5 1.952156 1_655
Co1 O5 1.955778 1_555
Co1 O3 2.162901 1_555
Co2 O1 1.899651 1_555
Co2 O7 1.952156 1_455
Co2 O7 1.955778 1_555
Co2 O0 2.162901 1_555
Co3 O2 1.921492 1_555
Co3 O0 1.991790 1_545
Co3 O0 1.993859 1_645
Co3 O6 2.116674 1_555
