# generated using pymatgen
data_MgV4(GeO4)4
_symmetry_space_group_name_H-M   'P 1'
_cell_length_a   4.34187130
_cell_length_b   4.61975987
_cell_length_c   12.90333500
_cell_angle_alpha   85.97337763
_cell_angle_beta   90.08170740
_cell_angle_gamma   89.58177252
_symmetry_Int_Tables_number   1
_chemical_formula_structural   MgV4(GeO4)4
_chemical_formula_sum   'Mg1 V4 Ge4 O16'
_cell_volume   258.17403516
_cell_formula_units_Z   1
loop_
 _symmetry_equiv_pos_site_id
 _symmetry_equiv_pos_as_xyz
  1  'x, y, z'
loop_
 _atom_site_type_symbol
 _atom_site_label
 _atom_site_symmetry_multiplicity
 _atom_site_fract_x
 _atom_site_fract_y
 _atom_site_fract_z
 _atom_site_occupancy
  Mg  Mg0  1  0.63679300  0.95143100  0.56812700  1
  V  V0  1  0.14573600  0.52764200  0.55995900  1
  V  V1  1  0.50091600  0.76289200  0.07022600  1
  V  V2  1  0.49398000  0.28524300  0.94715100  1
  V  V3  1  0.03142700  0.17801500  0.39581200  1
  Ge  Ge0  1  0.00281600  0.81900300  0.82905400  1
  Ge  Ge1  1  0.53479000  0.35295100  0.73156900  1
  Ge  Ge2  1  0.51564900  0.71494700  0.30037000  1
  Ge  Ge3  1  0.99822200  0.24792500  0.16883800  1
  O  O0  1  0.22766500  0.03893800  0.28198400  1
  O  O1  1  0.27769300  0.50784600  0.40532400  1
  O  O2  1  0.24358300  0.09242400  0.06180300  1
  O  O3  1  0.15168700  0.03272000  0.53799400  1
  O  O4  1  0.28028300  0.56752700  0.18086100  1
  O  O5  1  0.26870300  0.13680600  0.82950400  1
  O  O6  1  0.21500900  0.62691000  0.71588600  1
  O  O7  1  0.25238800  0.61750300  0.94506700  1
  O  O8  1  0.75673500  0.43731500  0.06156000  1
  O  O9  1  0.78788500  0.39531200  0.28639400  1
  O  O10  1  0.72992600  0.91257800  0.18069800  1
  O  O11  1  0.74423900  0.49202800  0.83668600  1
  O  O12  1  0.71135600  0.89892000  0.41009800  1
  O  O13  1  0.75226000  0.96498000  0.94526200  1
  O  O14  1  0.63883200  0.47839800  0.59282300  1
  O  O15  1  0.75767900  0.01530400  0.71805900  1
loop_
_geom_bond_atom_site_label_1
_geom_bond_atom_site_label_2
_geom_bond_distance
_geom_bond_site_symmetry_2
Mg0 O15 2.045694 1_565
Mg0 O12 2.095662 1_555
Mg0 O3 2.166606 1_565
Mg0 O14 2.186107 1_555
Mg0 O3 2.298773 1_665
Mg0 O14 2.477394 1_565
Ge0 O5 1.874630 1_565
Ge0 O11 1.885763 1_455
Ge0 O15 1.950799 1_465
Ge0 O6 1.985585 1_555
Ge0 O13 2.005653 1_455
Ge0 O7 2.016574 1_555
Ge1 O11 1.790791 1_555
Ge1 O15 1.848431 1_555
Ge1 O6 1.872998 1_555
Ge1 O14 1.898807 1_555
Ge1 O5 1.942301 1_555
Ge2 O9 1.903329 1_555
Ge2 O12 1.903985 1_555
Ge2 O1 1.911360 1_555
Ge2 O0 1.944740 1_565
Ge2 O10 1.975377 1_555
Ge2 O4 2.009797 1_555
Ge3 O8 1.895623 1_555
Ge3 O2 1.921148 1_655
Ge3 O9 1.933508 1_555
Ge3 O4 1.939567 1_655
Ge3 O10 1.942698 1_545
Ge3 O0 1.959569 1_655
O0 V3 1.850445 1_555
O1 V3 1.878784 1_555
O1 V0 2.084706 1_555
O2 V1 1.878656 1_545
O2 V2 1.999432 1_554
O3 V3 1.976926 1_555
O3 V0 2.323549 1_555
O3 V0 2.330985 1_545
O4 V1 1.898886 1_555
O5 V2 1.970575 1_555
O6 V0 2.116294 1_555
O7 V2 1.851423 1_555
O7 V1 2.093229 1_556
O8 V1 1.872991 1_555
O8 V2 2.031497 1_554
O9 V3 1.974950 1_655
O10 V1 1.908729 1_555
O11 V2 1.988288 1_555
O12 V3 1.902946 1_665
O13 V2 1.851520 1_565
O13 V1 2.114480 1_556
O14 V0 2.189072 1_555
O14 V0 2.252113 1_655
