# generated using pymatgen
data_CaLa2CoO6
_symmetry_space_group_name_H-M   'P 1'
_cell_length_a   5.84545619
_cell_length_b   10.07314090
_cell_length_c   9.58031828
_cell_angle_alpha   80.00073783
_cell_angle_beta   72.61207624
_cell_angle_gamma   90.05660248
_symmetry_Int_Tables_number   1
_chemical_formula_structural   CaLa2CoO6
_chemical_formula_sum   'Ca4 La8 Co4 O24'
_cell_volume   529.31432834
_cell_formula_units_Z   4
loop_
 _symmetry_equiv_pos_site_id
 _symmetry_equiv_pos_as_xyz
  1  'x, y, z'
loop_
 _atom_site_type_symbol
 _atom_site_label
 _atom_site_symmetry_multiplicity
 _atom_site_fract_x
 _atom_site_fract_y
 _atom_site_fract_z
 _atom_site_occupancy
  Ca  Ca0  1  0.12141600  0.37546000  0.75137800  1
  Ca  Ca1  1  0.87571700  0.62533900  0.24970600  1
  Ca  Ca2  1  0.37863700  0.12445200  0.24841900  1
  Ca  Ca3  1  0.62427900  0.87469300  0.75052400  1
  La  La0  1  0.93204400  0.30940500  0.13927400  1
  La  La1  1  0.67628300  0.56130800  0.64076800  1
  La  La2  1  0.17702900  0.06051100  0.64191500  1
  La  La3  1  0.42923100  0.80919500  0.14081400  1
  La  La4  1  0.32368200  0.43955400  0.35803500  1
  La  La5  1  0.07104400  0.69066400  0.85940900  1
  La  La6  1  0.56767100  0.19060400  0.86060700  1
  La  La7  1  0.82309100  0.93856200  0.35922300  1
  Co  Co0  1  0.50056300  0.50008200  0.99971000  1
  Co  Co1  1  0.24982200  0.74997900  0.50011900  1
  Co  Co2  1  0.75014400  0.25003100  0.49996200  1
  Co  Co3  1  0.99936400  0.99991500  0.00021700  1
  O  O0  1  0.40939400  0.25660200  0.62617600  1
  O  O1  1  0.17690200  0.50849200  0.12105300  1
  O  O2  1  0.67715200  0.00666200  0.12210600  1
  O  O3  1  0.92495700  0.75843200  0.62193600  1
  O  O4  1  0.85757700  0.34755300  0.62465400  1
  O  O5  1  0.61295500  0.59744800  0.12330600  1
  O  O6  1  0.11355800  0.09721900  0.12223800  1
  O  O7  1  0.36201600  0.84677200  0.62300700  1
  O  O8  1  0.27691400  0.58381600  0.62312000  1
  O  O9  1  0.02886700  0.83303200  0.12264000  1
  O  O10  1  0.53298900  0.33355900  0.12032500  1
  O  O11  1  0.77805800  0.08284400  0.62205500  1
  O  O12  1  0.82188000  0.49272600  0.87878800  1
  O  O13  1  0.57480100  0.74126700  0.37871600  1
  O  O14  1  0.09073300  0.24376700  0.37293600  1
  O  O15  1  0.32408900  0.99228800  0.87785800  1
  O  O16  1  0.96743500  0.16677000  0.87979100  1
  O  O17  1  0.72261000  0.41712900  0.37782400  1
  O  O18  1  0.22245300  0.91629200  0.37709700  1
  O  O19  1  0.47061600  0.66674700  0.87736400  1
  O  O20  1  0.38660400  0.40265700  0.87683600  1
  O  O21  1  0.13794100  0.65324500  0.37716300  1
  O  O22  1  0.64255900  0.15240800  0.37517400  1
  O  O23  1  0.88692300  0.90251900  0.87775300  1
loop_
_geom_bond_atom_site_label_1
_geom_bond_atom_site_label_2
_geom_bond_distance
_geom_bond_site_symmetry_2
Ca0 O0 2.236472 1_555
Ca0 O20 2.269299 1_555
Ca0 O4 2.273383 1_455
Ca0 O8 2.274667 1_555
Ca0 O12 2.275613 1_455
Ca0 O16 2.275758 1_455
Ca1 O9 2.262925 1_655
Ca1 O5 2.265720 1_555
Ca1 O17 2.269819 1_555
Ca1 O21 2.270816 1_655
Ca1 O13 2.278420 1_555
Ca1 O1 2.283647 1_655
Ca2 O14 2.236470 1_555
Ca2 O2 2.271063 1_555
Ca2 O6 2.274072 1_555
Ca2 O22 2.274121 1_555
Ca2 O18 2.275037 1_545
Ca2 O10 2.278954 1_555
Ca3 O19 2.265187 1_555
Ca3 O23 2.271033 1_555
Ca3 O11 2.271123 1_565
Ca3 O7 2.271476 1_555
Ca3 O3 2.277993 1_555
Ca3 O15 2.279688 1_555
La0 O6 2.396443 1_655
La0 O10 2.402567 1_555
La0 O1 2.413357 1_655
La0 O22 2.634361 1_555
La0 O14 2.652745 1_655
La0 O17 2.662862 1_555
La0 O16 3.036538 1_554
La0 O12 3.068371 1_554
La0 O20 3.073442 1_654
La1 O8 2.398644 1_555
La1 O3 2.408635 1_555
La1 O4 2.409410 1_555
La1 O19 2.630783 1_555
La1 O20 2.643248 1_555
La1 O12 2.648665 1_555
La1 O13 3.041808 1_555
La1 O17 3.064634 1_555
La1 O21 3.102817 1_655
La2 O0 2.353325 1_555
La2 O11 2.403580 1_455
La2 O7 2.420861 1_545
La2 O15 2.635103 1_545
La2 O23 2.639960 1_445
La2 O16 2.649745 1_455
La2 O14 3.070718 1_555
La2 O18 3.081491 1_545
La2 O22 3.132040 1_555
La3 O5 2.398357 1_555
La3 O9 2.407313 1_555
La3 O2 2.409184 1_565
La3 O21 2.636133 1_555
La3 O18 2.638995 1_555
La3 O13 2.646815 1_555
La3 O19 3.062864 1_554
La3 O15 3.072421 1_554
La3 O23 3.087945 1_554
La4 O14 2.354753 1_555
La4 O17 2.403165 1_555
La4 O21 2.422504 1_555
La4 O5 2.631698 1_555
La4 O1 2.644023 1_555
La4 O10 2.646668 1_555
La4 O0 3.061613 1_555
La4 O8 3.082763 1_555
La4 O4 3.133712 1_455
La5 O23 2.401067 1_455
La5 O19 2.402059 1_555
La5 O12 2.415649 1_455
La5 O7 2.636407 1_555
La5 O8 2.636573 1_555
La5 O3 2.644642 1_455
La5 O9 3.059752 1_556
La5 O1 3.060296 1_556
La5 O5 3.093258 1_456
La6 O20 2.393436 1_555
La6 O15 2.405079 1_545
La6 O16 2.407185 1_555
La6 O4 2.635377 1_555
La6 O0 2.658341 1_555
La6 O11 2.664219 1_555
La6 O10 3.041237 1_556
La6 O6 3.068128 1_556
La6 O2 3.076935 1_556
La7 O18 2.399153 1_655
La7 O13 2.407165 1_555
La7 O22 2.408229 1_565
La7 O9 2.631319 1_655
La7 O2 2.641398 1_565
La7 O6 2.649964 1_665
La7 O3 3.048522 1_555
La7 O11 3.065526 1_565
La7 O7 3.101316 1_555
Co0 O12 1.898670 1_555
Co0 O10 1.908743 1_556
Co0 O1 1.912600 1_556
Co0 O20 1.913413 1_555
Co0 O5 1.913792 1_556
Co0 O19 1.913859 1_555
Co1 O21 1.903304 1_555
Co1 O7 1.904110 1_555
Co1 O8 1.908493 1_555
Co1 O18 1.910190 1_555
Co1 O13 1.919469 1_555
Co1 O3 1.919801 1_455
Co2 O4 1.908172 1_555
Co2 O22 1.910013 1_555
Co2 O17 1.912429 1_555
Co2 O11 1.913510 1_555
Co2 O0 2.005607 1_555
Co2 O14 2.006855 1_655
Co3 O2 1.904989 1_565
Co3 O23 1.905354 1_554
Co3 O6 1.906789 1_665
Co3 O16 1.909648 1_564
Co3 O9 1.915199 1_655
Co3 O15 1.919569 1_654
