# generated using pymatgen
data_Mg2Ta2CuO8
_symmetry_space_group_name_H-M   'P 1'
_cell_length_a   10.05183326
_cell_length_b   10.05183326
_cell_length_c   5.17926714
_cell_angle_alpha   87.54151332
_cell_angle_beta   87.54151332
_cell_angle_gamma   35.09664865
_symmetry_Int_Tables_number   1
_chemical_formula_structural   Mg2Ta2CuO8
_chemical_formula_sum   'Mg4 Ta4 Cu2 O16'
_cell_volume   300.57618731
_cell_formula_units_Z   2
loop_
 _symmetry_equiv_pos_site_id
 _symmetry_equiv_pos_as_xyz
  1  'x, y, z'
loop_
 _atom_site_type_symbol
 _atom_site_label
 _atom_site_symmetry_multiplicity
 _atom_site_fract_x
 _atom_site_fract_y
 _atom_site_fract_z
 _atom_site_occupancy
  Mg  Mg0  1  0.41678900  0.12883400  0.74658500  1
  Mg  Mg1  1  0.87116600  0.58321100  0.75341500  1
  Mg  Mg2  1  0.58321100  0.87116600  0.25341500  1
  Mg  Mg3  1  0.12883400  0.41678900  0.24658500  1
  Ta  Ta0  1  0.27779900  0.95492100  0.77236000  1
  Ta  Ta1  1  0.04507900  0.72220100  0.72764000  1
  Ta  Ta2  1  0.72220100  0.04507900  0.22764000  1
  Ta  Ta3  1  0.95492100  0.27779900  0.27236000  1
  Cu  Cu0  1  0.64656600  0.35343400  0.75000000  1
  Cu  Cu1  1  0.35343400  0.64656600  0.25000000  1
  O  O0  1  0.18126800  0.96571200  0.44297900  1
  O  O1  1  0.03428800  0.81873200  0.05702100  1
  O  O2  1  0.81873200  0.03428800  0.55702100  1
  O  O3  1  0.96571200  0.18126800  0.94297900  1
  O  O4  1  0.42038900  0.69405200  0.94061400  1
  O  O5  1  0.30594800  0.57961100  0.55938600  1
  O  O6  1  0.57961100  0.30594800  0.05938600  1
  O  O7  1  0.69405200  0.42038900  0.44061400  1
  O  O8  1  0.28954100  0.08347100  0.05395000  1
  O  O9  1  0.91652900  0.71045900  0.44605000  1
  O  O10  1  0.83723000  0.54547500  0.12988600  1
  O  O11  1  0.45452500  0.16277000  0.37011400  1
  O  O12  1  0.16277000  0.45452500  0.87011400  1
  O  O13  1  0.54547500  0.83723000  0.62988600  1
  O  O14  1  0.08347100  0.28954100  0.55395000  1
  O  O15  1  0.71045900  0.91652900  0.94605000  1
loop_
_geom_bond_atom_site_label_1
_geom_bond_atom_site_label_2
_geom_bond_distance
_geom_bond_site_symmetry_2
Mg0 O12 2.001891 1_555
Mg0 O15 2.024694 1_545
Mg0 O11 2.037978 1_555
Mg0 O13 2.123859 1_545
Mg0 O8 2.257344 1_556
Mg0 O14 2.474360 1_555
Mg1 O13 2.001891 1_555
Mg1 O14 2.024694 1_655
Mg1 O10 2.037978 1_556
Mg1 O12 2.123859 1_655
Mg1 O9 2.257344 1_555
Mg1 O15 2.474360 1_555
Mg2 O10 2.001891 1_555
Mg2 O8 2.024694 1_565
Mg2 O13 2.037978 1_555
Mg2 O11 2.123859 1_565
Mg2 O15 2.257344 1_554
Mg2 O9 2.474360 1_555
Mg3 O11 2.001891 1_555
Mg3 O9 2.024694 1_455
Mg3 O12 2.037978 1_554
Mg3 O10 2.123859 1_455
Mg3 O14 2.257344 1_555
Mg3 O8 2.474360 1_555
Cu0 O6 1.901577 1_556
Cu0 O7 1.901577 1_555
Cu0 O4 2.286024 1_555
Cu0 O5 2.286024 1_555
Cu0 O2 2.308077 1_555
Cu0 O3 2.308077 1_555
Cu1 O5 1.901577 1_555
Cu1 O4 1.901577 1_554
Cu1 O6 2.286024 1_555
Cu1 O7 2.286024 1_555
Cu1 O1 2.308077 1_555
Cu1 O0 2.308077 1_555
O0 Ta0 1.953831 1_555
O0 Ta3 2.013388 1_465
O1 Ta1 1.953831 1_554
O1 Ta2 2.013388 1_465
O2 Ta2 1.953831 1_555
O2 Ta1 2.013388 1_645
O3 Ta3 1.953831 1_556
O3 Ta0 2.013388 1_645
O4 Ta0 1.857611 1_555
O5 Ta1 1.857611 1_555
O6 Ta2 1.857611 1_555
O7 Ta3 1.857611 1_555
O8 Ta0 2.058311 1_544
O8 Ta3 2.349584 1_455
O9 Ta1 2.058311 1_655
O9 Ta2 2.349584 1_565
O10 Ta3 1.969635 1_555
O11 Ta2 1.969635 1_555
O12 Ta1 1.969635 1_555
O13 Ta0 1.969635 1_555
O14 Ta3 2.058311 1_455
O14 Ta0 2.349584 1_545
O15 Ta2 2.058311 1_566
O15 Ta1 2.349584 1_655
