# generated using pymatgen
data_ZnFeCo2
_symmetry_space_group_name_H-M   'P 1'
_cell_length_a   9.82849791
_cell_length_b   9.82849791
_cell_length_c   9.82849791
_cell_angle_alpha   122.90472104
_cell_angle_beta   118.93581961
_cell_angle_gamma   88.44862841
_symmetry_Int_Tables_number   1
_chemical_formula_structural   ZnFeCo2
_chemical_formula_sum   'Zn1 Fe1 Co2'
_cell_volume   660.71779642
_cell_formula_units_Z   1
loop_
 _symmetry_equiv_pos_site_id
 _symmetry_equiv_pos_as_xyz
  1  'x, y, z'
loop_
 _atom_site_type_symbol
 _atom_site_label
 _atom_site_symmetry_multiplicity
 _atom_site_fract_x
 _atom_site_fract_y
 _atom_site_fract_z
 _atom_site_occupancy
  Zn  Zn0  1  0.00000000  0.50000000  0.50000000  1
  Fe  Fe0  1  0.00000000  0.00000000  0.00000000  1
  Co  Co0  1  0.00000000  0.23374400  0.23374400  1
  Co  Co1  1  0.00000000  0.76625600  0.76625600  1
loop_
_geom_bond_atom_site_label_1
_geom_bond_atom_site_label_2
_geom_bond_distance
_geom_bond_site_symmetry_2
Co0 Fe0 2.195760 1_555
Co0 Zn0 2.501174 1_555
Co1 Fe0 2.195760 1_566
Co1 Zn0 2.501174 1_555
