# generated using pymatgen
data_Li3CrN2
_symmetry_space_group_name_H-M   'P 1'
_cell_length_a   8.25505135
_cell_length_b   9.53211163
_cell_length_c   9.53211137
_cell_angle_alpha   89.99999916
_cell_angle_beta   125.26438842
_cell_angle_gamma   54.73561265
_symmetry_Int_Tables_number   1
_chemical_formula_structural   Li3CrN2
_chemical_formula_sum   'Li24 Cr8 N16'
_cell_volume   433.04937015
_cell_formula_units_Z   8
loop_
 _symmetry_equiv_pos_site_id
 _symmetry_equiv_pos_as_xyz
  1  'x, y, z'
loop_
 _atom_site_type_symbol
 _atom_site_label
 _atom_site_symmetry_multiplicity
 _atom_site_fract_x
 _atom_site_fract_y
 _atom_site_fract_z
 _atom_site_occupancy
  Li  Li0  1  0.21936624  0.04192676  0.98288131  1
  Li  Li1  1  0.78063376  0.76129300  0.51711869  1
  Li  Li2  1  0.78063376  0.45807324  0.76351507  1
  Li  Li3  1  0.21936624  0.73870700  0.73648493  1
  Li  Li4  1  0.25360361  0.76351507  0.27841168  1
  Li  Li5  1  0.74639639  0.73648493  0.02480807  1
  Li  Li6  1  0.25360361  0.98288131  0.47519193  1
  Li  Li7  1  0.74639639  0.51711869  0.22158832  1
  Li  Li8  1  0.69678025  0.02480807  0.73870700  1
  Li  Li9  1  0.69678025  0.27841168  0.45807324  1
  Li  Li10  1  0.30321975  0.22158832  0.76129300  1
  Li  Li11  1  0.30321975  0.47519193  0.04192676  1
  Li  Li12  1  0.78063376  0.95807324  0.01711869  1
  Li  Li13  1  0.21936624  0.23870700  0.48288131  1
  Li  Li14  1  0.21936624  0.54192676  0.23648493  1
  Li  Li15  1  0.78063376  0.26129300  0.26351507  1
  Li  Li16  1  0.74639639  0.23648493  0.72158832  1
  Li  Li17  1  0.25360361  0.26351507  0.97519193  1
  Li  Li18  1  0.74639639  0.01711869  0.52480807  1
  Li  Li19  1  0.25360361  0.48288131  0.77841168  1
  Li  Li20  1  0.30321975  0.97519193  0.26129300  1
  Li  Li21  1  0.30321975  0.72158832  0.54192676  1
  Li  Li22  1  0.69678025  0.77841168  0.23870700  1
  Li  Li23  1  0.69678025  0.52480807  0.95807324  1
  Cr  Cr0  1  0.22746397  0.00000000  0.72746397  1
  Cr  Cr1  1  0.77253603  0.72746397  0.77253603  1
  Cr  Cr2  1  0.77253603  0.50000000  0.50000000  1
  Cr  Cr3  1  0.22746397  0.77253603  1.00000000  1
  Cr  Cr4  1  0.77253603  1.00000000  0.27253603  1
  Cr  Cr5  1  0.22746397  0.27253603  0.22746397  1
  Cr  Cr6  1  0.22746397  0.50000000  0.50000000  1
  Cr  Cr7  1  0.77253603  0.22746397  0.00000000  1
  N  N0  1  0.00000000  0.00000000  0.50000000  1
  N  N1  1  0.00000000  0.50000000  0.00000000  1
  N  N2  1  0.00000000  0.50000000  0.50000000  1
  N  N3  1  0.00000000  0.00000000  0.00000000  1
  N  N4  1  0.50000000  0.96586105  0.75000000  1
  N  N5  1  0.50000000  0.53413895  0.25000000  1
  N  N6  1  0.00000000  0.25000000  0.71586105  1
  N  N7  1  1.00000000  0.75000000  0.78413895  1
  N  N8  1  0.56827890  0.71586105  0.53413895  1
  N  N9  1  0.43172110  0.78413895  0.96586105  1
  N  N10  1  0.50000000  0.03413895  0.25000000  1
  N  N11  1  0.50000000  0.46586105  0.75000000  1
  N  N12  1  1.00000000  0.75000000  0.28413895  1
  N  N13  1  0.00000000  0.25000000  0.21586105  1
  N  N14  1  0.43172110  0.28413895  0.46586105  1
  N  N15  1  0.56827890  0.21586105  0.03413895  1
loop_
_geom_bond_atom_site_label_1
_geom_bond_atom_site_label_2
_geom_bond_distance
_geom_bond_site_symmetry_2
Li0 N6 2.054739 1_555
Li0 N9 2.119412 1_545
Li0 N3 2.154650 1_556
Li0 N10 2.201309 1_556
Li1 N7 2.054739 1_555
Li1 N8 2.119405 1_555
Li1 N2 2.154650 1_655
Li1 N10 2.201309 1_565
Li2 N6 2.054739 1_655
Li2 N8 2.119417 1_555
Li2 N1 2.154650 1_656
Li2 N11 2.201309 1_555
Li3 N7 2.054739 1_455
Li3 N9 2.119410 1_555
Li3 N0 2.154650 1_565
Li3 N11 2.201309 1_555
Li4 N8 2.054743 1_555
Li4 N5 2.119413 1_555
Li4 N3 2.154650 1_565
Li4 N12 2.201309 1_455
Li5 N9 2.054747 1_554
Li5 N4 2.119413 1_554
Li5 N1 2.154650 1_655
Li5 N12 2.201309 1_555
Li6 N8 2.054742 1_555
Li6 N4 2.119413 1_555
Li6 N0 2.154650 1_565
Li6 N13 2.201309 1_565
Li7 N9 2.054738 1_554
Li7 N5 2.119413 1_555
Li7 N2 2.154650 1_655
Li7 N13 2.201309 1_655
Li8 N4 2.054739 1_545
Li8 N7 2.119413 1_545
Li8 N3 2.154650 1_656
Li8 N14 2.201306 1_555
Li9 N5 2.054739 1_555
Li9 N6 2.119413 1_655
Li9 N0 2.154650 1_655
Li9 N14 2.201317 1_555
Li10 N4 2.054739 1_545
Li10 N6 2.119413 1_555
Li10 N2 2.154650 1_555
Li10 N15 2.201311 1_556
Li11 N5 2.054739 1_555
Li11 N7 2.119413 1_454
Li11 N1 2.154650 1_555
Li11 N15 2.201312 1_555
Li12 N12 2.054739 1_555
Li12 N15 2.119412 1_565
Li12 N3 2.154650 1_665
Li12 N4 2.201309 1_554
Li13 N13 2.054739 1_555
Li13 N14 2.119405 1_555
Li13 N2 2.154650 1_555
Li13 N4 2.201309 1_545
Li14 N12 2.054739 1_455
Li14 N14 2.119417 1_555
Li14 N1 2.154650 1_555
Li14 N5 2.201309 1_555
Li15 N13 2.054739 1_655
Li15 N15 2.119410 1_555
Li15 N0 2.154650 1_655
Li15 N5 2.201309 1_555
Li16 N14 2.054743 1_555
Li16 N11 2.119413 1_555
Li16 N3 2.154650 1_656
Li16 N6 2.201309 1_655
Li17 N15 2.054747 1_556
Li17 N10 2.119413 1_556
Li17 N1 2.154650 1_556
Li17 N6 2.201309 1_555
Li18 N14 2.054742 1_555
Li18 N10 2.119413 1_555
Li18 N0 2.154650 1_655
Li18 N7 2.201309 1_545
Li19 N15 2.054738 1_556
Li19 N11 2.119413 1_555
Li19 N2 2.154650 1_555
Li19 N7 2.201309 1_455
Li20 N10 2.054739 1_565
Li20 N13 2.119413 1_565
Li20 N3 2.154650 1_565
Li20 N8 2.201306 1_555
Li21 N11 2.054739 1_555
Li21 N12 2.119413 1_455
Li21 N0 2.154650 1_565
Li21 N8 2.201317 1_555
Li22 N10 2.054739 1_565
Li22 N12 2.119413 1_555
Li22 N2 2.154650 1_655
Li22 N9 2.201311 1_554
Li23 N11 2.054739 1_555
Li23 N13 2.119413 1_656
Li23 N1 2.154650 1_656
Li23 N9 2.201312 1_555
Cr0 N0 1.877727 1_555
Cr0 N6 1.951973 1_555
Cr0 N4 1.951973 1_545
Cr0 N9 1.951976 1_545
Cr1 N1 1.877727 1_656
Cr1 N8 1.951971 1_555
Cr1 N7 1.951973 1_555
Cr1 N4 1.951973 1_555
Cr2 N2 1.877727 1_655
Cr2 N8 1.951970 1_555
Cr2 N6 1.951973 1_655
Cr2 N5 1.951973 1_555
Cr3 N3 1.877727 1_566
Cr3 N9 1.951965 1_555
Cr3 N5 1.951973 1_556
Cr3 N7 1.951973 1_455
Cr4 N0 1.877727 1_665
Cr4 N12 1.951973 1_555
Cr4 N10 1.951973 1_565
Cr4 N15 1.951976 1_565
Cr5 N1 1.877727 1_555
Cr5 N14 1.951971 1_555
Cr5 N13 1.951973 1_555
Cr5 N10 1.951973 1_555
Cr6 N2 1.877727 1_555
Cr6 N14 1.951970 1_555
Cr6 N12 1.951973 1_455
Cr6 N11 1.951973 1_555
Cr7 N3 1.877727 1_655
Cr7 N15 1.951965 1_555
Cr7 N11 1.951973 1_554
Cr7 N13 1.951973 1_655
