# generated using pymatgen
data_Cs2HfO3
_symmetry_space_group_name_H-M   'P 1'
_cell_length_a   6.50899700
_cell_length_b   7.29396057
_cell_length_c   14.53772900
_cell_angle_alpha   90.00000000
_cell_angle_beta   90.00000000
_cell_angle_gamma   116.49955890
_symmetry_Int_Tables_number   1
_chemical_formula_structural   Cs2HfO3
_chemical_formula_sum   'Cs8 Hf4 O12'
_cell_volume   617.68478213
_cell_formula_units_Z   4
loop_
 _symmetry_equiv_pos_site_id
 _symmetry_equiv_pos_as_xyz
  1  'x, y, z'
loop_
 _atom_site_type_symbol
 _atom_site_label
 _atom_site_symmetry_multiplicity
 _atom_site_fract_x
 _atom_site_fract_y
 _atom_site_fract_z
 _atom_site_occupancy
  Cs  Cs0  1  0.05228100  0.10456300  0.13407400  1
  Cs  Cs1  1  0.36710700  0.73421500  0.07103800  1
  Cs  Cs2  1  0.13289300  0.26578500  0.57103800  1
  Cs  Cs3  1  0.44771900  0.89543700  0.63407400  1
  Cs  Cs4  1  0.55228100  0.10456300  0.36592600  1
  Cs  Cs5  1  0.86710700  0.73421500  0.42896200  1
  Cs  Cs6  1  0.63289300  0.26578500  0.92896200  1
  Cs  Cs7  1  0.94771900  0.89543700  0.86592600  1
  Hf  Hf0  1  0.24009900  0.48019900  0.32753200  1
  Hf  Hf1  1  0.25990100  0.51980100  0.82753200  1
  Hf  Hf2  1  0.74009900  0.48019900  0.17246800  1
  Hf  Hf3  1  0.75990100  0.51980100  0.67246800  1
  O  O0  1  0.01700300  0.53400500  0.25000000  1
  O  O1  1  0.32887400  0.65774800  0.43302000  1
  O  O2  1  0.09869400  0.19738700  0.36449200  1
  O  O3  1  0.17112600  0.34225200  0.93302000  1
  O  O4  1  0.40130600  0.80261300  0.86449200  1
  O  O5  1  0.48299700  0.46599500  0.75000000  1
  O  O6  1  0.51700300  0.53400500  0.25000000  1
  O  O7  1  0.82887400  0.65774800  0.06698000  1
  O  O8  1  0.90130600  0.80261300  0.63550800  1
  O  O9  1  0.59869400  0.19738700  0.13550800  1
  O  O10  1  0.67112600  0.34225200  0.56698000  1
  O  O11  1  0.98299700  0.46599500  0.75000000  1
loop_
_geom_bond_atom_site_label_1
_geom_bond_atom_site_label_2
_geom_bond_distance
_geom_bond_site_symmetry_2
Cs0 O7 3.075423 1_445
Cs0 O3 3.309148 1_554
Cs0 O9 3.310482 1_455
Cs0 O9 3.310495 1_555
Cs0 O2 3.404115 1_555
Cs0 O0 3.653263 1_555
Cs0 O6 3.653269 1_555
Cs1 O4 3.035722 1_554
Cs1 O9 3.165360 1_565
Cs1 O3 3.251510 1_554
Cs1 O7 3.293079 1_455
Cs1 O7 3.293085 1_555
Cs1 O0 3.335379 1_555
Cs1 O6 3.335385 1_555
Cs2 O2 3.035722 1_555
Cs2 O8 3.165360 1_445
Cs2 O1 3.251510 1_555
Cs2 O10 3.293079 1_555
Cs2 O10 3.293085 1_455
Cs2 O5 3.335379 1_555
Cs2 O11 3.335385 1_455
Cs3 O10 3.075423 1_565
Cs3 O1 3.309148 1_555
Cs3 O8 3.310482 1_555
Cs3 O8 3.310495 1_455
Cs3 O4 3.404115 1_555
Cs3 O5 3.653263 1_555
Cs3 O11 3.653269 1_455
Cs4 O1 3.075423 1_545
Cs4 O10 3.309148 1_555
Cs4 O2 3.310482 1_555
Cs4 O2 3.310495 1_655
Cs4 O9 3.404115 1_555
Cs4 O6 3.653263 1_555
Cs4 O0 3.653269 1_655
Cs5 O8 3.035722 1_555
Cs5 O2 3.165360 1_665
Cs5 O10 3.251510 1_555
Cs5 O1 3.293079 1_555
Cs5 O1 3.293085 1_655
Cs5 O6 3.335379 1_555
Cs5 O0 3.335385 1_655
Cs6 O9 3.035722 1_556
Cs6 O4 3.165360 1_545
Cs6 O7 3.251510 1_556
Cs6 O3 3.293079 1_655
Cs6 O3 3.293085 1_555
Cs6 O11 3.335379 1_555
Cs6 O5 3.335385 1_555
Cs7 O3 3.075423 1_665
Cs7 O7 3.309148 1_556
Cs7 O4 3.310482 1_655
Cs7 O4 3.310495 1_555
Cs7 O8 3.404115 1_555
Cs7 O11 3.653263 1_555
Cs7 O5 3.653269 1_555
Hf0 O1 1.922243 1_555
Hf0 O2 1.922700 1_555
Hf0 O0 2.010403 1_555
Hf0 O6 2.010414 1_555
Hf1 O3 1.922243 1_555
Hf1 O4 1.922700 1_555
Hf1 O5 2.010403 1_555
Hf1 O11 2.010414 1_455
Hf2 O7 1.922243 1_555
Hf2 O9 1.922700 1_555
Hf2 O6 2.010403 1_555
Hf2 O0 2.010414 1_655
Hf3 O10 1.922243 1_555
Hf3 O8 1.922700 1_555
Hf3 O11 2.010403 1_555
Hf3 O5 2.010414 1_555
