# generated using pymatgen
data_Nd3Hf
_symmetry_space_group_name_H-M   'P 1'
_cell_length_a   6.09780011
_cell_length_b   6.09780011
_cell_length_c   6.09780011
_cell_angle_alpha   131.50495613
_cell_angle_beta   131.50495613
_cell_angle_gamma   71.01202765
_symmetry_Int_Tables_number   1
_chemical_formula_structural   Nd3Hf
_chemical_formula_sum   'Nd3 Hf1'
_cell_volume   124.51994869
_cell_formula_units_Z   1
loop_
 _symmetry_equiv_pos_site_id
 _symmetry_equiv_pos_as_xyz
  1  'x, y, z'
loop_
 _atom_site_type_symbol
 _atom_site_label
 _atom_site_symmetry_multiplicity
 _atom_site_fract_x
 _atom_site_fract_y
 _atom_site_fract_z
 _atom_site_occupancy
  Nd  Nd0  1  0.75000000  0.25000000  0.50000000  1
  Nd  Nd1  1  0.25000000  0.75000000  0.50000000  1
  Nd  Nd2  1  0.50000000  0.50000000  0.00000000  1
  Hf  Hf0  1  0.00000000  0.00000000  0.00000000  1
loop_
_geom_bond_atom_site_label_1
_geom_bond_atom_site_label_2
_geom_bond_distance
_geom_bond_site_symmetry_2
Nd0 Nd2 3.525819 1_656
Nd0 Nd2 3.525819 1_555
Nd0 Nd2 3.525819 1_556
Nd0 Nd2 3.525819 1_545
Nd0 Nd1 3.541532 1_656
Nd0 Nd1 3.541532 1_555
Nd0 Nd1 3.541532 1_645
Nd0 Nd1 3.541532 1_544
Nd1 Nd2 3.525819 1_455
Nd1 Nd2 3.525819 1_566
Nd1 Nd2 3.525819 1_555
Nd1 Nd2 3.525819 1_556
Hf0 Nd0 3.525819 1_555
Hf0 Nd0 3.525819 1_444
Hf0 Nd1 3.525819 1_444
Hf0 Nd1 3.525819 1_555
Hf0 Nd1 3.525819 1_545
Hf0 Nd1 3.525819 1_544
Hf0 Nd0 3.525819 1_455
Hf0 Nd0 3.525819 1_454
Hf0 Nd2 3.541532 1_444
Hf0 Nd2 3.541532 1_556
Hf0 Nd2 3.541532 1_545
Hf0 Nd2 3.541532 1_455
