# generated using pymatgen
data_Ba2YMn3O8
_symmetry_space_group_name_H-M   'P 1'
_cell_length_a   5.61046735
_cell_length_b   5.61046311
_cell_length_c   12.48011552
_cell_angle_alpha   77.00856608
_cell_angle_beta   102.99144058
_cell_angle_gamma   90.00712009
_symmetry_Int_Tables_number   1
_chemical_formula_structural   Ba2YMn3O8
_chemical_formula_sum   'Ba4 Y2 Mn6 O16'
_cell_volume   372.46127304
_cell_formula_units_Z   2
loop_
 _symmetry_equiv_pos_site_id
 _symmetry_equiv_pos_as_xyz
  1  'x, y, z'
loop_
 _atom_site_type_symbol
 _atom_site_label
 _atom_site_symmetry_multiplicity
 _atom_site_fract_x
 _atom_site_fract_y
 _atom_site_fract_z
 _atom_site_occupancy
  Ba  Ba0  1  0.08403200  0.41593200  0.16814900  1
  Ba  Ba1  1  0.58407000  0.91593300  0.16814900  1
  Ba  Ba2  1  0.41629800  0.08370700  0.83257700  1
  Ba  Ba3  1  0.91625300  0.58370500  0.83257700  1
  Y  Y0  1  0.25022300  0.24978800  0.50040500  1
  Y  Y1  1  0.75022100  0.74978600  0.50040500  1
  Mn  Mn0  1  0.00082100  0.99913700  0.00175900  1
  Mn  Mn1  1  0.17442500  0.82558600  0.34889300  1
  Mn  Mn2  1  0.32469300  0.67530000  0.64932900  1
  Mn  Mn3  1  0.49929500  0.50074300  0.99847900  1
  Mn  Mn4  1  0.66769600  0.33231700  0.33541000  1
  Mn  Mn5  1  0.83245000  0.16755800  0.66478700  1
  O  O0  1  0.75068200  0.24931200  0.00122800  1
  O  O1  1  0.25054300  0.74945200  0.00122600  1
  O  O2  1  0.75068900  0.74949400  0.00122100  1
  O  O3  1  0.25051500  0.24932500  0.00122000  1
  O  O4  1  0.08472100  0.91527700  0.16949700  1
  O  O5  1  0.58265500  0.41731700  0.16535900  1
  O  O6  1  0.91851500  0.08148400  0.83708200  1
  O  O7  1  0.41590100  0.58407400  0.83181500  1
  O  O8  1  0.43071700  0.05116600  0.37956300  1
  O  O9  1  0.94884300  0.56929400  0.37956300  1
  O  O10  1  0.43067600  0.56933300  0.37955900  1
  O  O11  1  0.94884900  0.05116300  0.37952900  1
  O  O12  1  0.06807300  0.45000700  0.61803500  1
  O  O13  1  0.55000100  0.93193500  0.61803600  1
  O  O14  1  0.55000800  0.45000300  0.61808400  1
  O  O15  1  0.06813600  0.93187400  0.61806700  1
loop_
_geom_bond_atom_site_label_1
_geom_bond_atom_site_label_2
_geom_bond_distance
_geom_bond_site_symmetry_2
Ba0 O0 2.799075 1_455
Ba0 O1 2.799263 1_555
Ba0 O2 2.799325 1_455
Ba0 O3 2.799457 1_555
Ba0 O4 2.805170 1_545
Ba0 O5 2.805327 1_455
Ba0 O4 2.805384 1_555
Ba0 O5 2.805529 1_555
Ba0 O11 3.192899 1_455
Ba0 O9 3.193400 1_455
Ba0 O10 3.193403 1_555
Ba0 O8 3.193563 1_555
Ba1 O0 2.799134 1_565
Ba1 O1 2.799198 1_555
Ba1 O2 2.799356 1_555
Ba1 O3 2.799448 1_565
Ba1 O4 2.805150 1_655
Ba1 O5 2.805364 1_565
Ba1 O4 2.805408 1_555
Ba1 O5 2.805488 1_555
Ba1 O11 3.193037 1_565
Ba1 O10 3.193281 1_555
Ba1 O9 3.193471 1_555
Ba1 O8 3.193481 1_565
Ba2 O7 2.805167 1_555
Ba2 O7 2.805325 1_545
Ba2 O6 2.805541 1_555
Ba2 O6 2.805939 1_455
Ba2 O0 2.813610 1_556
Ba2 O2 2.813641 1_546
Ba2 O1 2.813652 1_546
Ba2 O3 2.813873 1_556
Ba2 O14 3.221958 1_555
Ba2 O15 3.222097 1_545
Ba2 O12 3.222505 1_555
Ba2 O13 3.222582 1_545
Ba3 O7 2.805085 1_555
Ba3 O7 2.805411 1_655
Ba3 O6 2.805561 1_555
Ba3 O6 2.805915 1_565
Ba3 O0 2.813540 1_556
Ba3 O1 2.813727 1_656
Ba3 O3 2.813742 1_656
Ba3 O2 2.813750 1_556
Ba3 O14 3.221810 1_555
Ba3 O15 3.222240 1_655
Ba3 O13 3.222389 1_555
Ba3 O12 3.222704 1_655
Mn0 O6 1.948571 1_464
Mn0 O2 1.982593 1_455
Mn0 O0 1.982871 1_465
Mn0 O3 1.983018 1_565
Mn0 O1 1.983494 1_555
Mn0 O4 1.984791 1_555
Mn1 O11 1.945542 1_465
Mn1 O8 1.945707 1_565
Mn1 O9 1.945715 1_455
Mn1 O10 1.945798 1_555
Mn1 O4 2.122737 1_555
Mn2 O14 1.947163 1_555
Mn2 O15 1.947246 1_555
Mn2 O12 1.947257 1_555
Mn2 O13 1.947372 1_555
Mn2 O7 2.159300 1_555
Mn3 O7 1.972083 1_555
Mn3 O5 1.974639 1_556
Mn3 O0 1.984263 1_556
Mn3 O2 1.984316 1_556
Mn3 O3 1.984526 1_556
Mn3 O1 1.984814 1_556
Mn4 O5 2.012160 1_555
Mn4 O9 2.120733 1_555
Mn4 O8 2.120756 1_555
Mn4 O11 2.121127 1_555
Mn4 O10 2.121205 1_555
Mn5 O6 2.038713 1_555
Mn5 O13 2.128316 1_545
Mn5 O12 2.128319 1_655
Mn5 O15 2.128537 1_645
Mn5 O14 2.128843 1_555
O8 Y0 2.446272 1_555
O8 Y1 2.446538 1_545
O9 Y1 2.446266 1_555
O9 Y0 2.446544 1_655
O10 Y0 2.446240 1_555
O10 Y1 2.446241 1_555
O11 Y0 2.446437 1_655
O11 Y1 2.446457 1_545
O12 Y0 2.424379 1_555
O12 Y1 2.424382 1_455
O13 Y0 2.424385 1_565
O13 Y1 2.424389 1_555
O14 Y1 2.424503 1_555
O14 Y0 2.424516 1_555
O15 Y0 2.424410 1_565
O15 Y1 2.424417 1_455
