# generated using pymatgen
data_Pr3Bi4Au3
_symmetry_space_group_name_H-M   'P 1'
_cell_length_a   8.94334453
_cell_length_b   8.94334453
_cell_length_c   8.94334453
_cell_angle_alpha   109.47122063
_cell_angle_beta   109.47122063
_cell_angle_gamma   109.47122063
_symmetry_Int_Tables_number   1
_chemical_formula_structural   Pr3Bi4Au3
_chemical_formula_sum   'Pr6 Bi8 Au6'
_cell_volume   550.65297991
_cell_formula_units_Z   2
loop_
 _symmetry_equiv_pos_site_id
 _symmetry_equiv_pos_as_xyz
  1  'x, y, z'
loop_
 _atom_site_type_symbol
 _atom_site_label
 _atom_site_symmetry_multiplicity
 _atom_site_fract_x
 _atom_site_fract_y
 _atom_site_fract_z
 _atom_site_occupancy
  Pr  Pr0  1  0.87500000  0.25000000  0.12500000  1
  Pr  Pr1  1  0.62500000  0.75000000  0.37500000  1
  Pr  Pr2  1  0.25000000  0.12500000  0.87500000  1
  Pr  Pr3  1  0.75000000  0.37500000  0.62500000  1
  Pr  Pr4  1  0.12500000  0.87500000  0.25000000  1
  Pr  Pr5  1  0.37500000  0.62500000  0.75000000  1
  Bi  Bi0  1  0.67534510  0.50000000  0.00000000  1
  Bi  Bi1  1  0.50000000  0.00000000  0.67534510  1
  Bi  Bi2  1  -0.00000000  0.67534510  0.50000000  1
  Bi  Bi3  1  0.82465490  0.82465490  0.82465490  1
  Bi  Bi4  1  0.50000000  -0.00000000  0.17534510  1
  Bi  Bi5  1  0.17534510  0.50000000  -0.00000000  1
  Bi  Bi6  1  -0.00000000  0.17534510  0.50000000  1
  Bi  Bi7  1  0.32465490  0.32465490  0.32465490  1
  Au  Au0  1  0.37500000  0.25000000  0.62500000  1
  Au  Au1  1  0.12500000  0.75000000  0.87500000  1
  Au  Au2  1  0.25000000  0.62500000  0.37500000  1
  Au  Au3  1  0.75000000  0.87500000  0.12500000  1
  Au  Au4  1  0.62500000  0.37500000  0.25000000  1
  Au  Au5  1  0.87500000  0.12500000  0.75000000  1
loop_
_geom_bond_atom_site_label_1
_geom_bond_atom_site_label_2
_geom_bond_distance
_geom_bond_site_symmetry_2
Bi0 Pr4 3.526200 1_655
Bi0 Pr0 3.526200 1_555
Bi0 Pr3 3.526200 1_554
Bi0 Pr5 3.623288 1_554
Bi0 Pr1 3.623288 1_555
Bi0 Pr2 3.623288 1_554
Bi1 Pr0 3.526200 1_556
Bi1 Pr5 3.526200 1_545
Bi1 Pr2 3.526200 1_555
Bi1 Pr1 3.623288 1_545
Bi1 Pr4 3.623288 1_545
Bi1 Pr3 3.623288 1_555
Bi2 Pr2 3.526200 1_565
Bi2 Pr1 3.526200 1_455
Bi2 Pr4 3.526200 1_555
Bi2 Pr5 3.623288 1_555
Bi2 Pr0 3.623288 1_455
Bi2 Pr3 3.623288 1_455
Bi3 Pr3 3.526200 1_555
Bi3 Pr1 3.526200 1_555
Bi3 Pr5 3.526200 1_555
Bi3 Pr0 3.623288 1_566
Bi3 Pr2 3.623288 1_665
Bi3 Pr4 3.623288 1_656
Bi4 Pr3 3.526200 1_555
Bi4 Pr1 3.526200 1_545
Bi4 Pr4 3.526200 1_545
Bi4 Pr0 3.623288 1_555
Bi4 Pr2 3.623288 1_554
Bi4 Pr5 3.623288 1_544
Bi5 Pr2 3.526200 1_554
Bi5 Pr1 3.526200 1_555
Bi5 Pr5 3.526200 1_554
Bi5 Pr0 3.623288 1_455
Bi5 Pr3 3.623288 1_454
Bi5 Pr4 3.623288 1_555
Bi6 Pr0 3.526200 1_455
Bi6 Pr3 3.526200 1_455
Bi6 Pr5 3.526200 1_555
Bi6 Pr2 3.623288 1_555
Bi6 Pr4 3.623288 1_545
Bi6 Pr1 3.623288 1_445
Bi7 Pr2 3.526200 1_554
Bi7 Pr4 3.526200 1_545
Bi7 Pr0 3.526200 1_455
Bi7 Pr1 3.623288 1_555
Bi7 Pr3 3.623288 1_555
Bi7 Pr5 3.623288 1_555
Au0 Bi1 2.907459 1_555
Au0 Bi0 2.907459 1_556
Au0 Bi6 2.907459 1_555
Au0 Bi7 2.907459 1_555
Au0 Pr3 3.161950 1_555
Au0 Pr2 3.161950 1_555
Au0 Pr5 3.161950 1_555
Au0 Pr4 3.161950 1_545
Au1 Bi2 2.907459 1_555
Au1 Bi4 2.907459 1_566
Au1 Bi3 2.907459 1_455
Au1 Bi5 2.907459 1_556
Au1 Pr3 3.161950 1_455
Au1 Pr5 3.161950 1_555
Au1 Pr4 3.161950 1_556
Au1 Pr2 3.161950 1_565
Au2 Bi2 2.907459 1_555
Au2 Bi1 2.907459 1_565
Au2 Bi5 2.907459 1_555
Au2 Bi7 2.907459 1_555
Au2 Pr5 3.161950 1_555
Au2 Pr4 3.161950 1_555
Au2 Pr0 3.161950 1_455
Au2 Pr1 3.161950 1_555
Au3 Bi0 2.907459 1_555
Au3 Bi4 2.907459 1_565
Au3 Bi6 2.907459 1_665
Au3 Bi3 2.907459 1_554
Au3 Pr0 3.161950 1_565
Au3 Pr5 3.161950 1_554
Au3 Pr4 3.161950 1_655
Au3 Pr1 3.161950 1_555
Au4 Bi2 2.907459 1_655
Au4 Bi0 2.907459 1_555
Au4 Bi4 2.907459 1_555
Au4 Bi7 2.907459 1_555
Au4 Pr3 3.161950 1_555
Au4 Pr0 3.161950 1_555
Au4 Pr2 3.161950 1_554
Au4 Pr1 3.161950 1_555
Au5 Bi1 2.907459 1_555
Au5 Bi5 2.907459 1_656
Au5 Bi3 2.907459 1_545
Au5 Bi6 2.907459 1_655
Au5 Pr3 3.161950 1_555
Au5 Pr0 3.161950 1_556
Au5 Pr1 3.161950 1_545
Au5 Pr2 3.161950 1_655
