# generated using pymatgen
data_AlNiAg2F7
_symmetry_space_group_name_H-M   'P 1'
_cell_length_a   7.34834657
_cell_length_b   7.34834657
_cell_length_c   7.34834657
_cell_angle_alpha   120.57152525
_cell_angle_beta   116.91942801
_cell_angle_gamma   92.21499578
_symmetry_Int_Tables_number   1
_chemical_formula_structural   AlNiAg2F7
_chemical_formula_sum   'Al2 Ni2 Ag4 F14'
_cell_volume   285.32142908
_cell_formula_units_Z   2
loop_
 _symmetry_equiv_pos_site_id
 _symmetry_equiv_pos_as_xyz
  1  'x, y, z'
loop_
 _atom_site_type_symbol
 _atom_site_label
 _atom_site_symmetry_multiplicity
 _atom_site_fract_x
 _atom_site_fract_y
 _atom_site_fract_z
 _atom_site_occupancy
  Al  Al0  1  0.50000000  0.00000000  0.50000000  1
  Al  Al1  1  0.00000000  0.50000000  0.50000000  1
  Ni  Ni0  1  0.00000000  0.00000000  0.50000000  1
  Ni  Ni1  1  0.00000000  0.50000000  0.00000000  1
  Ag  Ag0  1  0.00000000  0.00000000  0.00000000  1
  Ag  Ag1  1  0.50000000  0.50000000  0.00000000  1
  Ag  Ag2  1  0.50000000  0.00000000  0.00000000  1
  Ag  Ag3  1  0.50000000  0.50000000  0.50000000  1
  F  F0  1  0.37301300  0.08416700  0.28884600  1
  F  F1  1  0.70467900  0.41583300  0.28884600  1
  F  F2  1  0.68404200  0.29120700  0.75096700  1
  F  F3  1  0.95975900  0.20879300  0.39283500  1
  F  F4  1  0.95975900  0.56692500  0.75096700  1
  F  F5  1  0.68404200  0.93307500  0.39283500  1
  F  F6  1  0.31595800  0.06692500  0.60716500  1
  F  F7  1  0.04024100  0.43307500  0.24903300  1
  F  F8  1  0.04024100  0.79120700  0.60716500  1
  F  F9  1  0.31595800  0.70879300  0.24903300  1
  F  F10  1  0.88993300  0.75000000  0.13993300  1
  F  F11  1  0.62698700  0.91583300  0.71115400  1
  F  F12  1  0.29532100  0.58416700  0.71115400  1
  F  F13  1  0.11006700  0.25000000  0.86006700  1
loop_
_geom_bond_atom_site_label_1
_geom_bond_atom_site_label_2
_geom_bond_distance
_geom_bond_site_symmetry_2
Al0 F5 1.820104 1_545
Al0 F2 1.820104 1_555
Al0 F9 1.820104 1_545
Al0 F6 1.820104 1_555
Al0 F0 1.835927 1_555
Al0 F11 1.835927 1_545
Al1 F8 1.820104 1_555
Al1 F3 1.820104 1_455
Al1 F4 1.820109 1_455
Al1 F7 1.820109 1_555
Al1 F12 1.835927 1_555
Al1 F1 1.835927 1_455
Ag0 F11 2.380445 1_444
Ag0 F0 2.380445 1_555
Ag0 F4 2.660280 1_444
Ag0 F7 2.660280 1_555
Ag0 F8 2.660287 1_544
Ag0 F3 2.660287 1_455
Ag0 F10 2.765176 1_445
Ag0 F13 2.765176 1_554
Ag1 F1 2.380445 1_555
Ag1 F12 2.380445 1_554
Ag1 F2 2.660282 1_554
Ag1 F6 2.660282 1_554
Ag1 F5 2.660282 1_555
Ag1 F9 2.660282 1_555
Ag1 F13 2.765176 1_554
Ag1 F10 2.765176 1_555
Ag2 F1 2.502221 1_555
Ag2 F12 2.502221 1_544
Ag2 F11 2.502221 1_544
Ag2 F0 2.502221 1_555
Ag3 F1 2.502221 1_555
Ag3 F12 2.502221 1_555
Ag3 F11 2.502221 1_555
Ag3 F0 2.502221 1_555
F2 Ni1 2.028511 1_656
F3 Ni0 2.028511 1_655
F4 Ni1 2.028510 1_656
F5 Ni0 2.028511 1_665
F6 Ni0 2.028511 1_555
F7 Ni1 2.028510 1_555
F8 Ni0 2.028511 1_565
F9 Ni1 2.028511 1_555
F10 Ni0 2.008173 1_665
F10 Ni1 2.008173 1_655
F13 Ni0 2.008173 1_555
F13 Ni1 2.008173 1_556
