# generated using pymatgen
data_NpCuSe2
_symmetry_space_group_name_H-M   'P 1'
_cell_length_a   7.35572900
_cell_length_b   6.60133500
_cell_length_c   7.09411860
_cell_angle_alpha   82.82508754
_cell_angle_beta   90.00000000
_cell_angle_gamma   90.00000000
_symmetry_Int_Tables_number   1
_chemical_formula_structural   NpCuSe2
_chemical_formula_sum   'Np4 Cu4 Se8'
_cell_volume   341.77618981
_cell_formula_units_Z   4
loop_
 _symmetry_equiv_pos_site_id
 _symmetry_equiv_pos_as_xyz
  1  'x, y, z'
loop_
 _atom_site_type_symbol
 _atom_site_label
 _atom_site_symmetry_multiplicity
 _atom_site_fract_x
 _atom_site_fract_y
 _atom_site_fract_z
 _atom_site_occupancy
  Np  Np0  1  0.95110600  0.30737500  0.79639900  1
  Np  Np1  1  0.54889400  0.30737500  0.29639900  1
  Np  Np2  1  0.04889400  0.69262500  0.20360100  1
  Np  Np3  1  0.45110600  0.69262500  0.70360100  1
  Cu  Cu0  1  0.33750500  0.06404500  0.96157000  1
  Cu  Cu1  1  0.83750500  0.93595500  0.53843000  1
  Cu  Cu2  1  0.66249500  0.93595500  0.03843000  1
  Cu  Cu3  1  0.16249500  0.06404500  0.46157000  1
  Se  Se0  1  0.77066700  0.58327300  0.49821100  1
  Se  Se1  1  0.60947100  0.10202600  0.71188400  1
  Se  Se2  1  0.27066700  0.41672700  0.00178900  1
  Se  Se3  1  0.22933300  0.41672700  0.50178900  1
  Se  Se4  1  0.39052900  0.89797400  0.28811600  1
  Se  Se5  1  0.10947100  0.89797400  0.78811600  1
  Se  Se6  1  0.89052900  0.10202600  0.21188400  1
  Se  Se7  1  0.72933300  0.58327300  0.99821100  1
loop_
_geom_bond_atom_site_label_1
_geom_bond_atom_site_label_2
_geom_bond_distance
_geom_bond_site_symmetry_2
Np0 Se2 2.903825 1_656
Np0 Se0 2.931070 1_555
Np0 Se7 2.946068 1_555
Np0 Se3 2.949701 1_655
Np0 Se5 2.950271 1_645
Np0 Se1 2.952139 1_555
Np0 Se6 3.118623 1_556
Np1 Se3 2.903825 1_555
Np1 Se7 2.931070 1_554
Np1 Se0 2.946068 1_555
Np1 Se2 2.949701 1_555
Np1 Se4 2.950271 1_545
Np1 Se6 2.952139 1_555
Np1 Se1 3.118623 1_555
Np2 Se7 2.903825 1_454
Np2 Se3 2.931070 1_555
Np2 Se2 2.946068 1_555
Np2 Se0 2.949701 1_455
Np2 Se6 2.950271 1_465
Np2 Se4 2.952139 1_555
Np2 Se5 3.118623 1_554
Np3 Se0 2.903825 1_555
Np3 Se2 2.931070 1_556
Np3 Se3 2.946068 1_555
Np3 Se7 2.949701 1_555
Np3 Se1 2.950271 1_565
Np3 Se5 2.952139 1_555
Np3 Se4 3.118623 1_555
Cu0 Se5 2.422084 1_545
Cu0 Se2 2.430933 1_556
Cu0 Se4 2.466985 1_546
Cu0 Se1 2.662981 1_555
Cu1 Se1 2.422084 1_565
Cu1 Se0 2.430933 1_555
Cu1 Se6 2.466985 1_565
Cu1 Se5 2.662981 1_655
Cu2 Se6 2.422084 1_565
Cu2 Se7 2.430933 1_554
Cu2 Se1 2.466985 1_564
Cu2 Se4 2.662981 1_555
Cu3 Se4 2.422084 1_545
Cu3 Se3 2.430933 1_555
Cu3 Se5 2.466985 1_545
Cu3 Se6 2.662981 1_455
