# generated using pymatgen
data_Lu8Te
_symmetry_space_group_name_H-M   'P 1'
_cell_length_a   17.92530584
_cell_length_b   17.92530158
_cell_length_c   7.39229890
_cell_angle_alpha   90.00000000
_cell_angle_beta   90.00000000
_cell_angle_gamma   120.00000403
_symmetry_Int_Tables_number   1
_chemical_formula_structural   Lu8Te
_chemical_formula_sum   'Lu64 Te8'
_cell_volume   2057.04209113
_cell_formula_units_Z   8
loop_
 _symmetry_equiv_pos_site_id
 _symmetry_equiv_pos_as_xyz
  1  'x, y, z'
loop_
 _atom_site_type_symbol
 _atom_site_label
 _atom_site_symmetry_multiplicity
 _atom_site_fract_x
 _atom_site_fract_y
 _atom_site_fract_z
 _atom_site_occupancy
  Lu  Lu0_0  1  0.36163269  0.36163169  0.00000000  1
  Lu  Lu0_1  1  0.36163269  0.36163169  0.50000000  1
  Lu  Lu0_2  1  0.36163269  0.86163169  0.00000000  1
  Lu  Lu0_3  1  0.36163269  0.86163169  0.50000000  1
  Lu  Lu0_4  1  0.86163269  0.36163169  0.00000000  1
  Lu  Lu0_5  1  0.86163269  0.36163169  0.50000000  1
  Lu  Lu0_6  1  0.86163269  0.86163169  0.00000000  1
  Lu  Lu0_7  1  0.86163269  0.86163169  0.50000000  1
  Lu  Lu1_0  1  0.00000000  0.13836881  0.00000000  1
  Lu  Lu1_1  1  0.00000000  0.13836881  0.50000000  1
  Lu  Lu1_2  1  0.00000000  0.63836880  0.00000000  1
  Lu  Lu1_3  1  0.00000000  0.63836880  0.50000000  1
  Lu  Lu1_4  1  0.50000000  0.13836881  0.00000000  1
  Lu  Lu1_5  1  0.50000000  0.13836881  0.50000000  1
  Lu  Lu1_6  1  0.50000000  0.63836881  0.00000000  1
  Lu  Lu1_7  1  0.50000000  0.63836881  0.50000000  1
  Lu  Lu2_0  1  0.30555597  0.00000000  0.25000000  1
  Lu  Lu2_1  1  0.30555597  0.00000000  0.75000000  1
  Lu  Lu2_2  1  0.30555597  0.50000000  0.25000000  1
  Lu  Lu2_3  1  0.30555597  0.50000000  0.75000000  1
  Lu  Lu2_4  1  0.80555597  0.00000000  0.25000000  1
  Lu  Lu2_5  1  0.80555597  0.00000000  0.75000000  1
  Lu  Lu2_6  1  0.80555597  0.50000000  0.25000000  1
  Lu  Lu2_7  1  0.80555597  0.50000000  0.75000000  1
  Lu  Lu3_0  1  0.19444353  0.19444402  0.25000000  1
  Lu  Lu3_1  1  0.19444353  0.19444402  0.75000000  1
  Lu  Lu3_2  1  0.19444353  0.69444403  0.25000000  1
  Lu  Lu3_3  1  0.19444353  0.69444403  0.75000000  1
  Lu  Lu3_4  1  0.69444353  0.19444402  0.25000000  1
  Lu  Lu3_5  1  0.69444353  0.19444402  0.75000000  1
  Lu  Lu3_6  1  0.69444352  0.69444402  0.25000000  1
  Lu  Lu3_7  1  0.69444352  0.69444402  0.75000000  1
  Lu  Lu4_0  1  0.00000000  0.30555647  0.25000000  1
  Lu  Lu4_1  1  0.00000000  0.30555647  0.75000000  1
  Lu  Lu4_2  1  0.00000000  0.80555647  0.25000000  1
  Lu  Lu4_3  1  0.00000000  0.80555647  0.75000000  1
  Lu  Lu4_4  1  0.50000000  0.30555647  0.25000000  1
  Lu  Lu4_5  1  0.50000000  0.30555647  0.75000000  1
  Lu  Lu4_6  1  0.50000000  0.80555647  0.25000000  1
  Lu  Lu4_7  1  0.50000000  0.80555647  0.75000000  1
  Lu  Lu5_0  1  0.16666600  0.33333300  0.00000000  1
  Lu  Lu5_1  1  0.16666600  0.33333300  0.50000000  1
  Lu  Lu5_2  1  0.16666600  0.83333300  0.00000000  1
  Lu  Lu5_3  1  0.16666600  0.83333300  0.50000000  1
  Lu  Lu5_4  1  0.66666600  0.33333300  0.00000000  1
  Lu  Lu5_5  1  0.66666600  0.33333300  0.50000000  1
  Lu  Lu5_6  1  0.66666600  0.83333300  0.00000000  1
  Lu  Lu5_7  1  0.66666600  0.83333300  0.50000000  1
  Lu  Lu6_0  1  0.33333400  0.16666700  0.00000000  1
  Lu  Lu6_1  1  0.33333400  0.16666700  0.50000000  1
  Lu  Lu6_2  1  0.33333400  0.66666700  0.00000000  1
  Lu  Lu6_3  1  0.33333400  0.66666700  0.50000000  1
  Lu  Lu6_4  1  0.83333400  0.16666700  0.00000000  1
  Lu  Lu6_5  1  0.83333400  0.16666700  0.50000000  1
  Lu  Lu6_6  1  0.83333400  0.66666700  0.00000000  1
  Lu  Lu6_7  1  0.83333400  0.66666700  0.50000000  1
  Lu  Lu7_0  1  0.13836730  0.49999950  0.00000000  1
  Lu  Lu7_1  1  0.13836730  0.49999950  0.50000000  1
  Lu  Lu7_2  1  0.13836731  0.99999950  0.00000000  1
  Lu  Lu7_3  1  0.13836731  0.99999950  0.50000000  1
  Lu  Lu7_4  1  0.63836730  0.49999950  0.00000000  1
  Lu  Lu7_5  1  0.63836730  0.49999950  0.50000000  1
  Lu  Lu7_6  1  0.63836731  0.99999950  0.00000000  1
  Lu  Lu7_7  1  0.63836731  0.99999950  0.50000000  1
  Te  Te0_0  1  0.00000000  0.49999950  0.25000000  1
  Te  Te0_1  1  0.00000000  0.49999950  0.75000000  1
  Te  Te0_2  1  1.00000000  0.99999950  0.25000000  1
  Te  Te0_3  1  1.00000000  0.99999950  0.75000000  1
  Te  Te0_4  1  0.50000000  0.49999950  0.25000000  1
  Te  Te0_5  1  0.50000000  0.49999950  0.75000000  1
  Te  Te0_6  1  0.50000000  0.99999950  0.25000000  1
  Te  Te0_7  1  0.50000000  0.99999950  0.75000000  1
loop_
_geom_bond_atom_site_label_1
_geom_bond_atom_site_label_2
_geom_bond_distance
_geom_bond_site_symmetry_2
Lu0_0 Te0_4 3.093084 1_555
Lu0_0 Te0_5 3.093084 1_554
Lu0_0 Lu6_0 3.270805 1_555
Lu0_0 Lu5_0 3.270842 1_555
Lu0_0 Lu3_1 3.520910 1_554
Lu0_0 Lu3_0 3.520910 1_555
Lu0_0 Lu4_4 3.615328 1_555
Lu0_0 Lu4_5 3.615328 1_554
Lu0_0 Lu2_2 3.615359 1_555
Lu0_0 Lu2_3 3.615359 1_554
Lu0_1 Te0_4 3.093084 1_555
Lu0_1 Te0_5 3.093084 1_555
Lu0_1 Lu6_1 3.270805 1_555
Lu0_1 Lu5_1 3.270842 1_555
Lu0_1 Lu3_1 3.520910 1_555
Lu0_1 Lu3_0 3.520910 1_555
Lu0_1 Lu4_5 3.615328 1_555
Lu0_1 Lu4_4 3.615328 1_555
Lu0_1 Lu2_2 3.615359 1_555
Lu0_1 Lu2_3 3.615359 1_555
Lu0_2 Te0_7 3.093084 1_554
Lu0_2 Te0_6 3.093084 1_555
Lu0_2 Lu6_2 3.270805 1_555
Lu0_2 Lu5_2 3.270842 1_555
Lu0_2 Lu3_2 3.520910 1_555
Lu0_2 Lu3_3 3.520910 1_554
Lu0_2 Lu4_7 3.615328 1_554
Lu0_2 Lu4_6 3.615328 1_555
Lu0_2 Lu2_0 3.615359 1_565
Lu0_2 Lu2_1 3.615359 1_564
Lu0_3 Te0_7 3.093084 1_555
Lu0_3 Te0_6 3.093084 1_555
Lu0_3 Lu6_3 3.270805 1_555
Lu0_3 Lu5_3 3.270842 1_555
Lu0_3 Lu3_2 3.520910 1_555
Lu0_3 Lu3_3 3.520910 1_555
Lu0_3 Lu4_6 3.615328 1_555
Lu0_3 Lu4_7 3.615328 1_555
Lu0_3 Lu2_0 3.615359 1_565
Lu0_3 Lu2_1 3.615359 1_565
Lu0_4 Te0_1 3.093084 1_654
Lu0_4 Te0_0 3.093084 1_655
Lu0_4 Lu6_4 3.270805 1_555
Lu0_4 Lu5_4 3.270842 1_555
Lu0_4 Lu3_4 3.520910 1_555
Lu0_4 Lu3_5 3.520910 1_554
Lu0_4 Lu4_1 3.615328 1_654
Lu0_4 Lu4_0 3.615328 1_655
Lu0_4 Lu2_7 3.615359 1_554
Lu0_4 Lu2_6 3.615359 1_555
Lu0_5 Te0_0 3.093084 1_655
Lu0_5 Te0_1 3.093084 1_655
Lu0_5 Lu6_5 3.270805 1_555
Lu0_5 Lu5_5 3.270842 1_555
Lu0_5 Lu3_4 3.520910 1_555
Lu0_5 Lu3_5 3.520910 1_555
Lu0_5 Lu4_1 3.615328 1_655
Lu0_5 Lu4_0 3.615328 1_655
Lu0_5 Lu2_6 3.615359 1_555
Lu0_5 Lu2_7 3.615359 1_555
Lu0_6 Te0_3 3.093084 1_554
Lu0_6 Te0_2 3.093084 1_555
Lu0_6 Lu6_6 3.270805 1_555
Lu0_6 Lu5_6 3.270842 1_555
Lu0_6 Lu3_7 3.520910 1_554
Lu0_6 Lu3_6 3.520910 1_555
Lu0_6 Lu4_2 3.615328 1_655
Lu0_6 Lu4_3 3.615328 1_654
Lu0_6 Lu2_4 3.615359 1_565
Lu0_6 Lu2_5 3.615359 1_564
Lu0_7 Te0_2 3.093084 1_555
Lu0_7 Te0_3 3.093084 1_555
Lu0_7 Lu6_7 3.270805 1_555
Lu0_7 Lu5_7 3.270842 1_555
Lu0_7 Lu3_7 3.520910 1_555
Lu0_7 Lu3_6 3.520910 1_555
Lu0_7 Lu4_2 3.615328 1_655
Lu0_7 Lu4_3 3.615328 1_655
Lu0_7 Lu2_4 3.615359 1_565
Lu0_7 Lu2_5 3.615359 1_565
Lu1_0 Te0_3 3.093109 1_444
Lu1_0 Te0_2 3.093109 1_445
Lu1_0 Lu5_0 3.270800 1_555
Lu1_0 Lu6_4 3.270801 1_455
Lu1_0 Lu4_0 3.520899 1_555
Lu1_0 Lu4_1 3.520899 1_554
Lu1_0 Lu3_1 3.615343 1_554
Lu1_0 Lu3_0 3.615343 1_555
Lu1_0 Lu2_5 3.615350 1_454
Lu1_0 Lu2_4 3.615350 1_455
Lu1_1 Te0_2 3.093109 1_445
Lu1_1 Te0_3 3.093109 1_445
Lu1_1 Lu5_1 3.270800 1_555
Lu1_1 Lu6_5 3.270801 1_455
Lu1_1 Lu4_0 3.520899 1_555
Lu1_1 Lu4_1 3.520899 1_555
Lu1_1 Lu3_1 3.615343 1_555
Lu1_1 Lu3_0 3.615343 1_555
Lu1_1 Lu2_5 3.615350 1_455
Lu1_1 Lu2_4 3.615350 1_455
Lu1_2 Te0_0 3.093109 1_555
Lu1_2 Te0_1 3.093109 1_554
Lu1_2 Lu5_2 3.270800 1_555
Lu1_2 Lu6_6 3.270801 1_455
Lu1_2 Lu4_2 3.520899 1_555
Lu1_2 Lu4_3 3.520899 1_554
Lu1_2 Lu3_3 3.615343 1_554
Lu1_2 Lu3_2 3.615343 1_555
Lu1_2 Lu2_6 3.615350 1_455
Lu1_2 Lu2_7 3.615350 1_454
Lu1_3 Te0_0 3.093109 1_555
Lu1_3 Te0_1 3.093109 1_555
Lu1_3 Lu5_3 3.270800 1_555
Lu1_3 Lu6_7 3.270801 1_455
Lu1_3 Lu4_3 3.520899 1_555
Lu1_3 Lu4_2 3.520899 1_555
Lu1_3 Lu3_3 3.615343 1_555
Lu1_3 Lu3_2 3.615343 1_555
Lu1_3 Lu2_6 3.615350 1_455
Lu1_3 Lu2_7 3.615350 1_455
Lu1_4 Te0_6 3.093109 1_545
Lu1_4 Te0_7 3.093109 1_544
Lu1_4 Lu5_4 3.270800 1_555
Lu1_4 Lu6_0 3.270801 1_555
Lu1_4 Lu4_5 3.520899 1_554
Lu1_4 Lu4_4 3.520899 1_555
Lu1_4 Lu3_4 3.615343 1_555
Lu1_4 Lu3_5 3.615343 1_554
Lu1_4 Lu2_1 3.615350 1_554
Lu1_4 Lu2_0 3.615350 1_555
Lu1_5 Te0_6 3.093109 1_545
Lu1_5 Te0_7 3.093109 1_545
Lu1_5 Lu5_5 3.270800 1_555
Lu1_5 Lu6_1 3.270801 1_555
Lu1_5 Lu4_4 3.520899 1_555
Lu1_5 Lu4_5 3.520899 1_555
Lu1_5 Lu3_5 3.615343 1_555
Lu1_5 Lu3_4 3.615343 1_555
Lu1_5 Lu2_0 3.615350 1_555
Lu1_5 Lu2_1 3.615350 1_555
Lu1_6 Te0_5 3.093109 1_554
Lu1_6 Te0_4 3.093109 1_555
Lu1_6 Lu5_6 3.270800 1_555
Lu1_6 Lu6_2 3.270801 1_555
Lu1_6 Lu4_6 3.520899 1_555
Lu1_6 Lu4_7 3.520899 1_554
Lu1_6 Lu3_7 3.615343 1_554
Lu1_6 Lu3_6 3.615343 1_555
Lu1_6 Lu2_3 3.615350 1_554
Lu1_6 Lu2_2 3.615350 1_555
Lu1_7 Te0_4 3.093109 1_555
Lu1_7 Te0_5 3.093109 1_555
Lu1_7 Lu5_7 3.270800 1_555
Lu1_7 Lu6_3 3.270801 1_555
Lu1_7 Lu4_6 3.520899 1_555
Lu1_7 Lu4_7 3.520899 1_555
Lu1_7 Lu3_7 3.615343 1_555
Lu1_7 Lu3_6 3.615343 1_555
Lu1_7 Lu2_2 3.615350 1_555
Lu1_7 Lu2_3 3.615350 1_555
Lu2_0 Lu6_0 3.331848 1_555
Lu2_0 Lu6_1 3.331848 1_555
Lu2_0 Lu5_3 3.331854 1_545
Lu2_0 Lu5_2 3.331854 1_545
Lu2_0 Te0_6 3.485473 1_545
Lu2_0 Lu7_2 3.520911 1_545
Lu2_0 Lu7_3 3.520911 1_545
Lu2_0 Lu2_1 3.696149 1_554
Lu2_0 Lu2_1 3.696149 1_555
Lu2_1 Lu6_0 3.331848 1_556
Lu2_1 Lu6_1 3.331848 1_555
Lu2_1 Lu5_3 3.331854 1_545
Lu2_1 Lu5_2 3.331854 1_546
Lu2_1 Te0_7 3.485473 1_545
Lu2_1 Lu7_2 3.520911 1_546
Lu2_1 Lu7_3 3.520911 1_545
Lu2_2 Lu6_3 3.331848 1_555
Lu2_2 Lu6_2 3.331848 1_555
Lu2_2 Lu5_0 3.331854 1_555
Lu2_2 Lu5_1 3.331854 1_555
Lu2_2 Te0_4 3.485473 1_555
Lu2_2 Lu7_0 3.520911 1_555
Lu2_2 Lu7_1 3.520911 1_555
Lu2_2 Lu2_3 3.696149 1_554
Lu2_2 Lu2_3 3.696149 1_555
Lu2_3 Lu6_3 3.331848 1_555
Lu2_3 Lu6_2 3.331848 1_556
Lu2_3 Lu5_0 3.331854 1_556
Lu2_3 Lu5_1 3.331854 1_555
Lu2_3 Te0_5 3.485473 1_555
Lu2_3 Lu7_1 3.520911 1_555
Lu2_3 Lu7_0 3.520911 1_556
Lu2_4 Lu6_4 3.331848 1_555
Lu2_4 Lu6_5 3.331848 1_555
Lu2_4 Lu5_6 3.331854 1_545
Lu2_4 Lu5_7 3.331854 1_545
Lu2_4 Te0_2 3.485473 1_545
Lu2_4 Lu7_6 3.520911 1_545
Lu2_4 Lu7_7 3.520911 1_545
Lu2_4 Lu2_5 3.696149 1_555
Lu2_4 Lu2_5 3.696149 1_554
Lu2_5 Lu6_4 3.331848 1_556
Lu2_5 Lu6_5 3.331848 1_555
Lu2_5 Lu5_6 3.331854 1_546
Lu2_5 Lu5_7 3.331854 1_545
Lu2_5 Te0_3 3.485473 1_545
Lu2_5 Lu7_7 3.520911 1_545
Lu2_5 Lu7_6 3.520911 1_546
Lu2_6 Lu6_6 3.331848 1_555
Lu2_6 Lu6_7 3.331848 1_555
Lu2_6 Lu5_5 3.331854 1_555
Lu2_6 Lu5_4 3.331854 1_555
Lu2_6 Te0_0 3.485473 1_655
Lu2_6 Lu7_5 3.520911 1_555
Lu2_6 Lu7_4 3.520911 1_555
Lu2_6 Lu2_7 3.696149 1_554
Lu2_6 Lu2_7 3.696149 1_555
Lu2_7 Lu6_6 3.331848 1_556
Lu2_7 Lu6_7 3.331848 1_555
Lu2_7 Lu5_5 3.331854 1_555
Lu2_7 Lu5_4 3.331854 1_556
Lu2_7 Te0_1 3.485473 1_655
Lu2_7 Lu7_5 3.520911 1_555
Lu2_7 Lu7_4 3.520911 1_556
Lu3_0 Lu5_0 3.331844 1_555
Lu3_0 Lu5_1 3.331844 1_555
Lu3_0 Lu6_1 3.331862 1_555
Lu3_0 Lu6_0 3.331862 1_555
Lu3_0 Te0_2 3.485468 1_445
Lu3_0 Lu7_2 3.615353 1_545
Lu3_0 Lu7_3 3.615353 1_545
Lu3_0 Lu3_1 3.696149 1_555
Lu3_0 Lu3_1 3.696149 1_554
Lu3_1 Lu5_0 3.331844 1_556
Lu3_1 Lu5_1 3.331844 1_555
Lu3_1 Lu6_1 3.331862 1_555
Lu3_1 Lu6_0 3.331862 1_556
Lu3_1 Te0_3 3.485468 1_445
Lu3_1 Lu7_2 3.615353 1_546
Lu3_1 Lu7_3 3.615353 1_545
Lu3_2 Lu5_2 3.331844 1_555
Lu3_2 Lu5_3 3.331844 1_555
Lu3_2 Lu6_2 3.331862 1_555
Lu3_2 Lu6_3 3.331862 1_555
Lu3_2 Te0_0 3.485468 1_555
Lu3_2 Lu7_0 3.615353 1_555
Lu3_2 Lu7_1 3.615353 1_555
Lu3_2 Lu3_3 3.696149 1_555
Lu3_2 Lu3_3 3.696149 1_554
Lu3_3 Lu5_3 3.331844 1_555
Lu3_3 Lu5_2 3.331844 1_556
Lu3_3 Lu6_2 3.331862 1_556
Lu3_3 Lu6_3 3.331862 1_555
Lu3_3 Te0_1 3.485468 1_555
Lu3_3 Lu7_1 3.615353 1_555
Lu3_3 Lu7_0 3.615353 1_556
Lu3_4 Lu5_5 3.331844 1_555
Lu3_4 Lu5_4 3.331844 1_555
Lu3_4 Lu6_4 3.331862 1_555
Lu3_4 Lu6_5 3.331862 1_555
Lu3_4 Te0_6 3.485468 1_545
Lu3_4 Lu7_7 3.615353 1_545
Lu3_4 Lu7_6 3.615353 1_545
Lu3_4 Lu3_5 3.696149 1_554
Lu3_4 Lu3_5 3.696149 1_555
Lu3_5 Lu5_5 3.331844 1_555
Lu3_5 Lu5_4 3.331844 1_556
Lu3_5 Lu6_5 3.331862 1_555
Lu3_5 Lu6_4 3.331862 1_556
Lu3_5 Te0_7 3.485468 1_545
Lu3_5 Lu7_7 3.615353 1_545
Lu3_5 Lu7_6 3.615353 1_546
Lu3_6 Lu5_6 3.331844 1_555
Lu3_6 Lu5_7 3.331844 1_555
Lu3_6 Lu6_7 3.331862 1_555
Lu3_6 Lu6_6 3.331862 1_555
Lu3_6 Te0_4 3.485468 1_555
Lu3_6 Lu7_4 3.615353 1_555
Lu3_6 Lu7_5 3.615353 1_555
Lu3_6 Lu3_7 3.696149 1_555
Lu3_6 Lu3_7 3.696149 1_554
Lu3_7 Lu5_6 3.331844 1_556
Lu3_7 Lu5_7 3.331844 1_555
Lu3_7 Lu6_7 3.331862 1_555
Lu3_7 Lu6_6 3.331862 1_556
Lu3_7 Te0_5 3.485468 1_555
Lu3_7 Lu7_5 3.615353 1_555
Lu3_7 Lu7_4 3.615353 1_556
Lu4_0 Lu6_4 3.331842 1_455
Lu4_0 Lu6_5 3.331842 1_455
Lu4_0 Lu5_0 3.331842 1_555
Lu4_0 Lu5_1 3.331842 1_555
Lu4_0 Te0_0 3.485450 1_555
Lu4_0 Lu7_0 3.615333 1_555
Lu4_0 Lu7_1 3.615333 1_555
Lu4_0 Lu4_1 3.696149 1_555
Lu4_0 Lu4_1 3.696149 1_554
Lu4_1 Lu6_4 3.331842 1_456
Lu4_1 Lu6_5 3.331842 1_455
Lu4_1 Lu5_0 3.331842 1_556
Lu4_1 Lu5_1 3.331842 1_555
Lu4_1 Te0_1 3.485450 1_555
Lu4_1 Lu7_0 3.615333 1_556
Lu4_1 Lu7_1 3.615333 1_555
Lu4_2 Lu6_7 3.331842 1_455
Lu4_2 Lu6_6 3.331842 1_455
Lu4_2 Lu5_2 3.331842 1_555
Lu4_2 Lu5_3 3.331842 1_555
Lu4_2 Te0_2 3.485450 1_455
Lu4_2 Lu7_2 3.615333 1_555
Lu4_2 Lu7_3 3.615333 1_555
Lu4_2 Lu4_3 3.696149 1_555
Lu4_2 Lu4_3 3.696149 1_554
Lu4_3 Lu6_6 3.331842 1_456
Lu4_3 Lu6_7 3.331842 1_455
Lu4_3 Lu5_2 3.331842 1_556
Lu4_3 Lu5_3 3.331842 1_555
Lu4_3 Te0_3 3.485450 1_455
Lu4_3 Lu7_2 3.615333 1_556
Lu4_3 Lu7_3 3.615333 1_555
Lu4_4 Lu6_1 3.331842 1_555
Lu4_4 Lu6_0 3.331842 1_555
Lu4_4 Lu5_5 3.331842 1_555
Lu4_4 Lu5_4 3.331842 1_555
Lu4_4 Te0_4 3.485450 1_555
Lu4_4 Lu7_4 3.615333 1_555
Lu4_4 Lu7_5 3.615333 1_555
Lu4_4 Lu4_5 3.696149 1_555
Lu4_4 Lu4_5 3.696149 1_554
Lu4_5 Lu6_1 3.331842 1_555
Lu4_5 Lu6_0 3.331842 1_556
Lu4_5 Lu5_5 3.331842 1_555
Lu4_5 Lu5_4 3.331842 1_556
Lu4_5 Te0_5 3.485450 1_555
Lu4_5 Lu7_5 3.615333 1_555
Lu4_5 Lu7_4 3.615333 1_556
Lu4_6 Lu6_2 3.331842 1_555
Lu4_6 Lu6_3 3.331842 1_555
Lu4_6 Lu5_6 3.331842 1_555
Lu4_6 Lu5_7 3.331842 1_555
Lu4_6 Te0_6 3.485450 1_555
Lu4_6 Lu7_7 3.615333 1_555
Lu4_6 Lu7_6 3.615333 1_555
Lu4_6 Lu4_7 3.696149 1_554
Lu4_6 Lu4_7 3.696149 1_555
Lu4_7 Lu6_2 3.331842 1_556
Lu4_7 Lu6_3 3.331842 1_555
Lu4_7 Lu5_6 3.331842 1_556
Lu4_7 Lu5_7 3.331842 1_555
Lu4_7 Te0_7 3.485450 1_555
Lu4_7 Lu7_7 3.615333 1_555
Lu4_7 Lu7_6 3.615333 1_556
Lu5_0 Lu7_0 3.270814 1_555
Lu5_0 Lu5_1 3.696149 1_554
Lu5_0 Lu5_1 3.696149 1_555
Lu5_1 Lu7_1 3.270814 1_555
Lu5_2 Lu7_2 3.270814 1_555
Lu5_2 Lu5_3 3.696149 1_555
Lu5_2 Lu5_3 3.696149 1_554
Lu5_3 Lu7_3 3.270814 1_555
Lu5_4 Lu7_4 3.270814 1_555
Lu5_4 Lu5_5 3.696149 1_555
Lu5_4 Lu5_5 3.696149 1_554
Lu5_5 Lu7_5 3.270814 1_555
Lu5_6 Lu7_6 3.270814 1_555
Lu5_6 Lu5_7 3.696149 1_555
Lu5_6 Lu5_7 3.696149 1_554
Lu5_7 Lu7_7 3.270814 1_555
Lu6_0 Lu7_2 3.270838 1_545
Lu6_0 Lu6_1 3.696149 1_555
Lu6_0 Lu6_1 3.696149 1_554
Lu6_1 Lu7_3 3.270838 1_545
Lu6_2 Lu7_0 3.270838 1_555
Lu6_2 Lu6_3 3.696149 1_554
Lu6_2 Lu6_3 3.696149 1_555
Lu6_3 Lu7_1 3.270838 1_555
Lu6_4 Lu7_6 3.270838 1_545
Lu6_4 Lu6_5 3.696149 1_555
Lu6_4 Lu6_5 3.696149 1_554
Lu6_5 Lu7_7 3.270838 1_545
Lu6_6 Lu7_4 3.270838 1_555
Lu6_6 Lu6_7 3.696149 1_555
Lu6_6 Lu6_7 3.696149 1_554
Lu6_7 Lu7_5 3.270838 1_555
Lu7_0 Te0_1 3.093081 1_554
Lu7_0 Te0_0 3.093081 1_555
Lu7_1 Te0_1 3.093081 1_555
Lu7_1 Te0_0 3.093081 1_555
Lu7_2 Te0_3 3.093081 1_454
Lu7_2 Te0_2 3.093081 1_455
Lu7_3 Te0_3 3.093081 1_455
Lu7_3 Te0_2 3.093081 1_455
Lu7_4 Te0_4 3.093081 1_555
Lu7_4 Te0_5 3.093081 1_554
Lu7_5 Te0_5 3.093081 1_555
Lu7_5 Te0_4 3.093081 1_555
Lu7_6 Te0_6 3.093081 1_555
Lu7_6 Te0_7 3.093081 1_554
Lu7_7 Te0_6 3.093081 1_555
Lu7_7 Te0_7 3.093081 1_555
