# generated using pymatgen
data_Nb2Ru
_symmetry_space_group_name_H-M   'P 1'
_cell_length_a   14.04003727
_cell_length_b   13.64629482
_cell_length_c   5.70236948
_cell_angle_alpha   82.01639999
_cell_angle_beta   74.26693257
_cell_angle_gamma   23.71666744
_symmetry_Int_Tables_number   1
_chemical_formula_structural   Nb2Ru
_chemical_formula_sum   'Nb16 Ru8'
_cell_volume   405.74474728
_cell_formula_units_Z   8
loop_
 _symmetry_equiv_pos_site_id
 _symmetry_equiv_pos_as_xyz
  1  'x, y, z'
loop_
 _atom_site_type_symbol
 _atom_site_label
 _atom_site_symmetry_multiplicity
 _atom_site_fract_x
 _atom_site_fract_y
 _atom_site_fract_z
 _atom_site_occupancy
  Nb  Nb0_0  1  0.16979750  0.16979750  0.33020250  1
  Nb  Nb0_1  1  0.16979750  0.16979750  0.83020250  1
  Nb  Nb0_2  1  0.16979750  0.66979750  0.33020250  1
  Nb  Nb0_3  1  0.16979750  0.66979750  0.83020250  1
  Nb  Nb0_4  1  0.66979750  0.16979750  0.33020250  1
  Nb  Nb0_5  1  0.66979750  0.16979750  0.83020250  1
  Nb  Nb0_6  1  0.66979750  0.66979750  0.33020250  1
  Nb  Nb0_7  1  0.66979750  0.66979750  0.83020250  1
  Nb  Nb1_0  1  0.33020250  0.33020250  0.16979750  1
  Nb  Nb1_1  1  0.33020250  0.33020250  0.66979750  1
  Nb  Nb1_2  1  0.33020250  0.83020250  0.16979750  1
  Nb  Nb1_3  1  0.33020250  0.83020250  0.66979750  1
  Nb  Nb1_4  1  0.83020250  0.33020250  0.16979750  1
  Nb  Nb1_5  1  0.83020250  0.33020250  0.66979750  1
  Nb  Nb1_6  1  0.83020250  0.83020250  0.16979750  1
  Nb  Nb1_7  1  0.83020250  0.83020250  0.66979750  1
  Ru  Ru0_0  1  0.00000000  0.00000000  0.00000000  1
  Ru  Ru0_1  1  0.00000000  0.00000000  0.50000000  1
  Ru  Ru0_2  1  0.00000000  0.50000000  0.00000000  1
  Ru  Ru0_3  1  0.00000000  0.50000000  0.50000000  1
  Ru  Ru0_4  1  0.50000000  0.00000000  0.00000000  1
  Ru  Ru0_5  1  0.50000000  0.00000000  0.50000000  1
  Ru  Ru0_6  1  0.50000000  0.50000000  0.00000000  1
  Ru  Ru0_7  1  0.50000000  0.50000000  0.50000000  1
loop_
_geom_bond_atom_site_label_1
_geom_bond_atom_site_label_2
_geom_bond_distance
_geom_bond_site_symmetry_2
Nb0_0 Ru0_3 2.686134 1_555
Nb0_0 Ru0_4 2.686134 1_555
Nb0_0 Nb0_6 2.851185 1_545
Nb0_0 Nb0_1 2.851185 1_555
Nb0_0 Nb0_1 2.851185 1_554
Nb0_0 Nb0_6 2.851185 1_455
Nb0_0 Nb1_2 2.886924 1_545
Nb0_0 Nb1_5 2.886924 1_455
Nb0_1 Ru0_2 2.686134 1_556
Nb0_1 Ru0_5 2.686134 1_555
Nb0_1 Nb0_7 2.851185 1_455
Nb0_1 Nb0_7 2.851185 1_545
Nb0_1 Nb1_3 2.886924 1_545
Nb0_1 Nb1_4 2.886924 1_456
Nb0_2 Ru0_6 2.686134 1_555
Nb0_2 Ru0_1 2.686134 1_565
Nb0_2 Nb0_3 2.851185 1_554
Nb0_2 Nb0_4 2.851185 1_555
Nb0_2 Nb0_4 2.851185 1_465
Nb0_2 Nb0_3 2.851185 1_555
Nb0_2 Nb1_7 2.886924 1_455
Nb0_2 Nb1_0 2.886924 1_555
Nb0_3 Ru0_7 2.686134 1_555
Nb0_3 Ru0_0 2.686134 1_566
Nb0_3 Nb0_5 2.851185 1_555
Nb0_3 Nb0_5 2.851185 1_465
Nb0_3 Nb1_6 2.886924 1_456
Nb0_3 Nb1_1 2.886924 1_555
Nb0_4 Ru0_7 2.686134 1_555
Nb0_4 Ru0_0 2.686134 1_655
Nb0_4 Nb0_5 2.851185 1_554
Nb0_4 Nb0_5 2.851185 1_555
Nb0_4 Nb1_6 2.886924 1_545
Nb0_4 Nb1_1 2.886924 1_555
Nb0_5 Ru0_6 2.686134 1_556
Nb0_5 Ru0_1 2.686134 1_655
Nb0_5 Nb1_7 2.886924 1_545
Nb0_5 Nb1_0 2.886924 1_556
Nb0_6 Ru0_5 2.686134 1_565
Nb0_6 Ru0_2 2.686134 1_655
Nb0_6 Nb0_7 2.851185 1_555
Nb0_6 Nb0_7 2.851185 1_554
Nb0_6 Nb1_3 2.886924 1_555
Nb0_6 Nb1_4 2.886924 1_555
Nb0_7 Ru0_4 2.686134 1_566
Nb0_7 Ru0_3 2.686134 1_655
Nb0_7 Nb1_5 2.886924 1_555
Nb0_7 Nb1_2 2.886924 1_556
Nb1_0 Ru0_3 2.686134 1_555
Nb1_0 Ru0_4 2.686134 1_555
Nb1_0 Nb1_1 2.851185 1_554
Nb1_0 Nb1_6 2.851185 1_545
Nb1_0 Nb1_1 2.851185 1_555
Nb1_0 Nb1_6 2.851185 1_455
Nb1_1 Ru0_5 2.686134 1_555
Nb1_1 Ru0_2 2.686134 1_556
Nb1_1 Nb1_7 2.851185 1_455
Nb1_1 Nb1_7 2.851185 1_545
Nb1_2 Ru0_1 2.686134 1_565
Nb1_2 Ru0_6 2.686134 1_555
Nb1_2 Nb1_3 2.851185 1_554
Nb1_2 Nb1_4 2.851185 1_555
Nb1_2 Nb1_4 2.851185 1_465
Nb1_2 Nb1_3 2.851185 1_555
Nb1_3 Ru0_0 2.686134 1_566
Nb1_3 Ru0_7 2.686134 1_555
Nb1_3 Nb1_5 2.851185 1_555
Nb1_3 Nb1_5 2.851185 1_465
Nb1_4 Ru0_0 2.686134 1_655
Nb1_4 Ru0_7 2.686134 1_555
Nb1_4 Nb1_5 2.851185 1_555
Nb1_4 Nb1_5 2.851185 1_554
Nb1_5 Ru0_1 2.686134 1_655
Nb1_5 Ru0_6 2.686134 1_556
Nb1_6 Ru0_2 2.686134 1_655
Nb1_6 Ru0_5 2.686134 1_565
Nb1_6 Nb1_7 2.851185 1_554
Nb1_6 Nb1_7 2.851185 1_555
Nb1_7 Ru0_3 2.686134 1_655
Nb1_7 Ru0_4 2.686134 1_566
Ru0_0 Ru0_6 2.851185 1_545
Ru0_0 Ru0_1 2.851185 1_554
Ru0_0 Ru0_6 2.851185 1_455
Ru0_0 Ru0_1 2.851185 1_555
Ru0_1 Ru0_7 2.851185 1_545
Ru0_1 Ru0_7 2.851185 1_455
Ru0_2 Ru0_4 2.851185 1_555
Ru0_2 Ru0_3 2.851185 1_555
Ru0_2 Ru0_4 2.851185 1_465
Ru0_2 Ru0_3 2.851185 1_554
Ru0_3 Ru0_5 2.851185 1_555
Ru0_3 Ru0_5 2.851185 1_465
Ru0_4 Ru0_5 2.851185 1_555
Ru0_4 Ru0_5 2.851185 1_554
Ru0_6 Ru0_7 2.851185 1_554
Ru0_6 Ru0_7 2.851185 1_555
