# generated using pymatgen
data_MgCo2(PO5)2
_symmetry_space_group_name_H-M   'P 1'
_cell_length_a   9.85930044
_cell_length_b   8.92262124
_cell_length_c   6.52520813
_cell_angle_alpha   77.60953061
_cell_angle_beta   62.11844243
_cell_angle_gamma   40.27202696
_symmetry_Int_Tables_number   1
_chemical_formula_structural   MgCo2(PO5)2
_chemical_formula_sum   'Mg2 Co4 P4 O20'
_cell_volume   317.66278498
_cell_formula_units_Z   2
loop_
 _symmetry_equiv_pos_site_id
 _symmetry_equiv_pos_as_xyz
  1  'x, y, z'
loop_
 _atom_site_type_symbol
 _atom_site_label
 _atom_site_symmetry_multiplicity
 _atom_site_fract_x
 _atom_site_fract_y
 _atom_site_fract_z
 _atom_site_occupancy
  Mg  Mg0  1  0.25000000  0.25000000  0.25000000  1
  Mg  Mg1  1  0.00000000  0.00000000  0.00000000  1
  Co  Co0  1  0.62500000  0.62500000  0.12500000  1
  Co  Co1  1  0.62500000  0.12500000  0.62500000  1
  Co  Co2  1  0.62500000  0.62500000  0.62500000  1
  Co  Co3  1  0.12500000  0.62500000  0.62500000  1
  P  P0  1  0.79243800  0.79243800  0.20756200  1
  P  P1  1  0.45756200  0.45756200  0.04243800  1
  P  P2  1  0.20756200  0.20756200  0.79243800  1
  P  P3  1  0.04243800  0.04243800  0.45756200  1
  O  O0  1  0.96414800  0.33332400  0.01150200  1
  O  O1  1  0.41727400  0.41727400  0.58272600  1
  O  O2  1  0.90519200  0.06958200  0.36718200  1
  O  O3  1  0.23849800  0.55897300  0.28585200  1
  O  O4  1  0.33332400  0.96414800  0.69102700  1
  O  O5  1  0.34480800  0.18041800  0.88281800  1
  O  O6  1  0.83272600  0.83272600  0.66727400  1
  O  O7  1  0.58272600  0.58272600  0.41727400  1
  O  O8  1  0.66727400  0.66727400  0.83272600  1
  O  O9  1  0.28585200  0.91667600  0.23849800  1
  O  O10  1  0.69102700  0.01150200  0.33332400  1
  O  O11  1  0.55897300  0.23849800  0.91667600  1
  O  O12  1  0.01150200  0.69102700  0.96414800  1
  O  O13  1  0.06958200  0.90519200  0.65804300  1
  O  O14  1  0.59195700  0.88281800  0.18041800  1
  O  O15  1  0.36718200  0.65804300  0.90519200  1
  O  O16  1  0.88281800  0.59195700  0.34480800  1
  O  O17  1  0.65804300  0.36718200  0.06958200  1
  O  O18  1  0.91667600  0.28585200  0.55897300  1
  O  O19  1  0.18041800  0.34480800  0.59195700  1
loop_
_geom_bond_atom_site_label_1
_geom_bond_atom_site_label_2
_geom_bond_distance
_geom_bond_site_symmetry_2
Mg0 O5 2.158206 1_554
Mg0 O16 2.158208 1_455
Mg0 O14 2.158209 1_545
Mg0 O19 2.158212 1_555
Mg1 O2 2.158206 1_455
Mg1 O15 2.158208 1_544
Mg1 O17 2.158209 1_455
Mg1 O13 2.158212 1_544
Co0 O8 1.772272 1_554
Co0 O7 1.772272 1_555
Co0 O9 1.932370 1_555
Co0 O0 1.932370 1_555
Co0 O14 2.152207 1_555
Co0 O17 2.152207 1_555
Co1 O6 1.772272 1_545
Co1 O1 1.772272 1_555
Co1 O11 1.932365 1_555
Co1 O10 1.932365 1_555
Co1 O2 2.152199 1_555
Co1 O5 2.152199 1_555
Co2 O8 1.772272 1_555
Co2 O7 1.772272 1_555
Co2 O18 1.932369 1_555
Co2 O4 1.932369 1_555
Co2 O16 2.152205 1_555
Co2 O15 2.152205 1_555
Co3 O1 1.772272 1_555
Co3 O6 1.772272 1_455
Co3 O12 1.932371 1_555
Co3 O3 1.932371 1_555
Co3 O13 2.152198 1_555
Co3 O19 2.152198 1_555
O0 P2 1.559609 1_654
O2 P3 1.556424 1_655
O3 P1 1.559611 1_555
O4 P2 1.559607 1_565
O5 P2 1.556424 1_555
O9 P3 1.559609 1_565
O10 P0 1.559614 1_545
O11 P1 1.559614 1_556
O12 P0 1.559611 1_456
O13 P3 1.556419 1_565
O14 P0 1.556415 1_555
O15 P1 1.556419 1_556
O16 P0 1.556419 1_555
O17 P1 1.556415 1_555
O18 P3 1.559607 1_655
O19 P2 1.556419 1_555
