# generated using pymatgen
data_Li2MnCuO4
_symmetry_space_group_name_H-M   'P 1'
_cell_length_a   4.13370864
_cell_length_b   7.78288754
_cell_length_c   5.09305195
_cell_angle_alpha   102.59491055
_cell_angle_beta   66.05649566
_cell_angle_gamma   105.40494231
_symmetry_Int_Tables_number   1
_chemical_formula_structural   Li2MnCuO4
_chemical_formula_sum   'Li4 Mn2 Cu2 O8'
_cell_volume   143.23932549
_cell_formula_units_Z   2
loop_
 _symmetry_equiv_pos_site_id
 _symmetry_equiv_pos_as_xyz
  1  'x, y, z'
loop_
 _atom_site_type_symbol
 _atom_site_label
 _atom_site_symmetry_multiplicity
 _atom_site_fract_x
 _atom_site_fract_y
 _atom_site_fract_z
 _atom_site_occupancy
  Li  Li0  1  0.25140400  0.87478800  0.37199600  1
  Li  Li1  1  0.25074700  0.37624500  0.87472100  1
  Li  Li2  1  0.49991100  0.74780100  0.74799500  1
  Li  Li3  1  0.49896500  0.25169400  0.25373600  1
  Mn  Mn0  1  0.99882600  0.49958600  0.50196400  1
  Mn  Mn1  1  0.00167100  0.00086700  0.99752600  1
  Cu  Cu0  1  0.74965000  0.62357600  0.12431800  1
  Cu  Cu1  1  0.75045300  0.12659300  0.62562900  1
  O  O0  1  0.98312800  0.25600500  0.28974300  1
  O  O1  1  0.98343300  0.72724700  0.76038300  1
  O  O2  1  0.51605400  0.00730200  0.97523400  1
  O  O3  1  0.51500400  0.50799300  0.47796700  1
  O  O4  1  0.77143100  0.88491800  0.34209000  1
  O  O5  1  0.76605400  0.38374600  0.85157100  1
  O  O6  1  0.23241800  0.11641800  0.65157500  1
  O  O7  1  0.23085200  0.61522100  0.15355000  1
loop_
_geom_bond_atom_site_label_1
_geom_bond_atom_site_label_2
_geom_bond_distance
_geom_bond_site_symmetry_2
Li0 O4 2.073541 1_455
Li0 O4 2.073598 1_555
Li0 O7 2.081219 1_555
Li0 O6 2.095269 1_565
Li0 O2 2.204304 1_564
Li0 O1 2.234888 1_455
Li1 O5 2.070710 1_555
Li1 O5 2.070876 1_455
Li1 O7 2.077816 1_556
Li1 O6 2.091142 1_555
Li1 O3 2.201081 1_555
Li1 O0 2.232062 1_456
Li2 O3 2.061917 1_555
Li2 O1 2.073923 1_555
Li2 O1 2.073954 1_455
Li2 O2 2.096339 1_565
Li2 O7 2.241253 1_556
Li2 O4 2.261583 1_555
Li3 O3 2.070104 1_555
Li3 O0 2.073518 1_455
Li3 O0 2.073610 1_555
Li3 O2 2.109089 1_554
Li3 O6 2.220358 1_555
Li3 O5 2.224913 1_554
Mn0 O7 1.932651 1_655
Mn0 O5 1.938475 1_555
Mn0 O1 1.962311 1_555
Mn0 O0 1.965790 1_555
Mn0 O3 2.071151 1_655
Mn0 O3 2.071363 1_555
Mn1 O4 1.917936 1_446
Mn1 O6 1.922042 1_555
Mn1 O2 2.070249 1_455
Mn1 O2 2.070398 1_555
Mn1 O0 2.205293 1_456
Mn1 O1 2.205976 1_445
Cu0 O1 1.950541 1_554
Cu0 O3 1.954283 1_555
Cu0 O5 2.068410 1_554
Cu0 O7 2.072781 1_655
Cu0 O7 2.072803 1_555
Cu0 O4 2.091724 1_555
Cu1 O0 1.940938 1_555
Cu1 O2 1.952916 1_555
Cu1 O6 2.072230 1_555
Cu1 O6 2.072457 1_655
Cu1 O5 2.078746 1_555
Cu1 O4 2.105046 1_545
