# generated using pymatgen
data_NaMg14Nb
_symmetry_space_group_name_H-M   'P 1'
_cell_length_a   6.44388400
_cell_length_b   6.44388347
_cell_length_c   10.04501850
_cell_angle_alpha   90.00000000
_cell_angle_beta   90.00000000
_cell_angle_gamma   120.00000273
_symmetry_Int_Tables_number   1
_chemical_formula_structural   NaMg14Nb
_chemical_formula_sum   'Na1 Mg14 Nb1'
_cell_volume   361.22412903
_cell_formula_units_Z   1
loop_
 _symmetry_equiv_pos_site_id
 _symmetry_equiv_pos_as_xyz
  1  'x, y, z'
loop_
 _atom_site_type_symbol
 _atom_site_label
 _atom_site_symmetry_multiplicity
 _atom_site_fract_x
 _atom_site_fract_y
 _atom_site_fract_z
 _atom_site_occupancy
  Na  Na0  1  0.16666700  0.33333300  0.12500000  1
  Mg  Mg0  1  0.16958073  0.83478986  0.12500000  1
  Mg  Mg1  1  0.16843253  0.83421577  0.62500000  1
  Mg  Mg2  1  0.66521014  0.33041927  0.12500000  1
  Mg  Mg3  1  0.66578423  0.33156747  0.62500000  1
  Mg  Mg4  1  0.66521014  0.83478986  0.12500000  1
  Mg  Mg5  1  0.66578423  0.83421577  0.62500000  1
  Mg  Mg6  1  0.33038325  0.16961675  0.38316960  1
  Mg  Mg7  1  0.33038325  0.16961675  0.86683040  1
  Mg  Mg8  1  0.33038325  0.66076751  0.38316960  1
  Mg  Mg9  1  0.33038325  0.66076751  0.86683040  1
  Mg  Mg10  1  0.83923249  0.16961675  0.38316960  1
  Mg  Mg11  1  0.83923249  0.16961675  0.86683040  1
  Mg  Mg12  1  0.83333300  0.66666700  0.37499900  1
  Mg  Mg13  1  0.83333300  0.66666700  0.87500100  1
  Nb  Nb0  1  0.16666700  0.33333300  0.62500000  1
loop_
_geom_bond_atom_site_label_1
_geom_bond_atom_site_label_2
_geom_bond_distance
_geom_bond_site_symmetry_2
Mg0 Mg12 3.134872 1_455
Mg0 Mg13 3.134872 1_454
Mg0 Mg2 3.193778 1_565
Mg0 Mg4 3.193778 1_555
Mg0 Mg9 3.196632 1_554
Mg0 Mg8 3.196632 1_555
Mg0 Mg6 3.196638 1_565
Mg0 Mg7 3.196638 1_564
Mg0 Na0 3.221983 1_555
Mg0 Na0 3.221983 1_565
Mg0 Mg2 3.250105 1_455
Mg0 Mg4 3.250106 1_455
Mg1 Mg9 3.066865 1_555
Mg1 Mg8 3.066865 1_555
Mg1 Mg6 3.066872 1_565
Mg1 Mg7 3.066872 1_565
Mg1 Mg13 3.131057 1_455
Mg1 Mg12 3.131057 1_455
Mg1 Mg3 3.204876 1_565
Mg1 Mg5 3.204877 1_555
Mg1 Nb0 3.221957 1_565
Mg1 Nb0 3.221957 1_555
Mg1 Mg3 3.239007 1_455
Mg1 Mg5 3.239007 1_455
Mg2 Mg4 3.193778 1_545
Mg2 Mg7 3.196638 1_554
Mg2 Mg6 3.196638 1_555
Mg2 Na0 3.221983 1_655
Mg2 Na0 3.221983 1_555
Mg2 Mg4 3.250105 1_555
Mg3 Mg7 3.066872 1_555
Mg3 Mg6 3.066872 1_555
Mg3 Mg5 3.204876 1_545
Mg3 Nb0 3.221957 1_555
Mg3 Nb0 3.221957 1_655
Mg3 Mg5 3.239007 1_555
Mg4 Mg8 3.196638 1_555
Mg4 Mg9 3.196638 1_554
Mg4 Na0 3.221983 1_555
Mg4 Na0 3.221983 1_665
Mg5 Mg8 3.066872 1_555
Mg5 Mg9 3.066872 1_555
Mg5 Nb0 3.221957 1_555
Mg5 Nb0 3.221957 1_665
Mg6 Nb0 3.039711 1_555
Mg6 Mg8 3.164918 1_555
Mg6 Na0 3.172409 1_555
Mg6 Mg8 3.278965 1_545
Mg7 Nb0 3.039711 1_555
Mg7 Mg9 3.164918 1_555
Mg7 Na0 3.172409 1_556
Mg7 Mg9 3.278965 1_545
Mg8 Nb0 3.039718 1_555
Mg8 Na0 3.172415 1_555
Mg9 Nb0 3.039718 1_555
Mg9 Na0 3.172415 1_556
Mg10 Nb0 3.039718 1_655
Mg10 Mg3 3.066865 1_555
Mg10 Mg5 3.066872 1_545
Mg10 Mg8 3.164918 1_655
Mg10 Mg6 3.164919 1_655
Mg10 Na0 3.172415 1_655
Mg10 Mg2 3.196632 1_555
Mg10 Mg4 3.196638 1_545
Mg10 Mg12 3.223155 1_555
Mg10 Mg12 3.223155 1_545
Mg10 Mg8 3.278965 1_545
Mg10 Mg6 3.278965 1_555
Mg11 Nb0 3.039718 1_655
Mg11 Mg3 3.066865 1_555
Mg11 Mg5 3.066872 1_545
Mg11 Mg9 3.164918 1_655
Mg11 Mg7 3.164919 1_655
Mg11 Na0 3.172415 1_656
Mg11 Mg2 3.196632 1_556
Mg11 Mg4 3.196638 1_546
Mg11 Mg13 3.223155 1_555
Mg11 Mg13 3.223155 1_545
Mg11 Mg9 3.278965 1_545
Mg11 Mg7 3.278965 1_555
Mg12 Mg5 3.131051 1_555
Mg12 Mg3 3.131057 1_555
Mg12 Mg4 3.134866 1_555
Mg12 Mg2 3.134872 1_555
Mg12 Mg6 3.223155 1_665
Mg12 Mg6 3.223155 1_555
Mg12 Mg8 3.223155 1_655
Mg12 Mg8 3.223155 1_555
Mg13 Mg5 3.131051 1_555
Mg13 Mg3 3.131057 1_555
Mg13 Mg4 3.134866 1_556
Mg13 Mg2 3.134872 1_556
Mg13 Mg7 3.223155 1_665
Mg13 Mg7 3.223155 1_555
Mg13 Mg9 3.223155 1_655
Mg13 Mg9 3.223155 1_555
