# generated using pymatgen
data_Mg14ZnCr
_symmetry_space_group_name_H-M   'P 1'
_cell_length_a   6.26615239
_cell_length_b   6.26774735
_cell_length_c   10.16722552
_cell_angle_alpha   90.00000000
_cell_angle_beta   90.00000000
_cell_angle_gamma   120.00842557
_symmetry_Int_Tables_number   1
_chemical_formula_structural   Mg14ZnCr
_chemical_formula_sum   'Mg14 Zn1 Cr1'
_cell_volume   345.78698612
_cell_formula_units_Z   1
loop_
 _symmetry_equiv_pos_site_id
 _symmetry_equiv_pos_as_xyz
  1  'x, y, z'
loop_
 _atom_site_type_symbol
 _atom_site_label
 _atom_site_symmetry_multiplicity
 _atom_site_fract_x
 _atom_site_fract_y
 _atom_site_fract_z
 _atom_site_occupancy
  Mg  Mg0  1  0.16748161  0.33374031  0.62500000  1
  Mg  Mg1  1  0.16753151  0.83376525  0.62500000  1
  Mg  Mg2  1  0.66909102  0.33664002  0.12500000  1
  Mg  Mg3  1  0.66529575  0.33258154  0.62500000  1
  Mg  Mg4  1  0.66909102  0.83245000  0.12500000  1
  Mg  Mg5  1  0.66529575  0.83271322  0.62500000  1
  Mg  Mg6  1  0.32844271  0.16403598  0.36607640  1
  Mg  Mg7  1  0.32844271  0.16403598  0.88392360  1
  Mg  Mg8  1  0.32844271  0.66440773  0.36607640  1
  Mg  Mg9  1  0.32844271  0.66440773  0.88392360  1
  Mg  Mg10  1  0.83614013  0.16807057  0.37240229  1
  Mg  Mg11  1  0.83614013  0.16807057  0.87759771  1
  Mg  Mg12  1  0.83705773  0.66852936  0.37292389  1
  Mg  Mg13  1  0.83705773  0.66852936  0.87707611  1
  Zn  Zn0  1  0.16926426  0.33463163  0.12500000  1
  Cr  Cr0  1  0.16678251  0.83339075  0.12500000  1
loop_
_geom_bond_atom_site_label_1
_geom_bond_atom_site_label_2
_geom_bond_distance
_geom_bond_site_symmetry_2
Mg0 Mg5 3.123018 1_555
Mg0 Mg3 3.123018 1_555
Mg0 Mg1 3.133874 1_555
Mg0 Mg1 3.133874 1_545
Mg0 Mg10 3.135006 1_455
Mg0 Mg11 3.135006 1_455
Mg0 Mg5 3.143147 1_445
Mg0 Mg3 3.143147 1_455
Mg0 Mg6 3.186220 1_555
Mg0 Mg7 3.186220 1_555
Mg0 Mg8 3.186226 1_555
Mg0 Mg9 3.186226 1_555
Mg1 Mg3 3.122369 1_565
Mg1 Mg5 3.122370 1_555
Mg1 Mg13 3.127961 1_455
Mg1 Mg12 3.127961 1_455
Mg1 Mg3 3.143793 1_455
Mg1 Mg5 3.143793 1_455
Mg1 Mg8 3.185000 1_555
Mg1 Mg9 3.185000 1_555
Mg1 Mg6 3.185006 1_565
Mg1 Mg7 3.185006 1_565
Mg2 Mg7 3.069959 1_554
Mg2 Mg6 3.069959 1_555
Mg2 Mg4 3.107612 1_555
Mg2 Zn0 3.125714 1_555
Mg2 Zn0 3.140476 1_655
Mg2 Mg4 3.160136 1_545
Mg3 Mg5 3.133048 1_545
Mg3 Mg5 3.134699 1_555
Mg3 Mg6 3.204870 1_555
Mg3 Mg7 3.204870 1_555
Mg4 Mg8 3.069959 1_555
Mg4 Mg9 3.069959 1_554
Mg4 Zn0 3.125714 1_555
Mg4 Zn0 3.140476 1_665
Mg5 Mg8 3.204870 1_555
Mg5 Mg9 3.204870 1_555
Mg6 Zn0 3.035250 1_555
Mg6 Mg8 3.131544 1_545
Mg6 Mg8 3.136204 1_555
Mg7 Zn0 3.035250 1_556
Mg7 Mg9 3.131544 1_545
Mg7 Mg9 3.136204 1_555
Mg8 Zn0 3.035256 1_555
Mg9 Zn0 3.035256 1_556
Mg10 Zn0 3.097516 1_655
Mg10 Mg8 3.098235 1_655
Mg10 Mg6 3.098235 1_655
Mg10 Mg2 3.105711 1_555
Mg10 Mg4 3.105717 1_545
Mg10 Mg12 3.133882 1_555
Mg10 Mg12 3.133882 1_545
Mg10 Mg3 3.147874 1_555
Mg10 Mg5 3.147880 1_545
Mg10 Mg8 3.169390 1_545
Mg10 Mg6 3.169391 1_555
Mg11 Zn0 3.097516 1_656
Mg11 Mg9 3.098235 1_655
Mg11 Mg7 3.098235 1_655
Mg11 Mg2 3.105711 1_556
Mg11 Mg4 3.105717 1_546
Mg11 Mg13 3.133882 1_555
Mg11 Mg13 3.133882 1_545
Mg11 Mg3 3.147874 1_555
Mg11 Mg5 3.147880 1_545
Mg11 Mg9 3.169390 1_545
Mg11 Mg7 3.169391 1_555
Mg12 Mg6 3.092877 1_665
Mg12 Mg8 3.092878 1_655
Mg12 Mg4 3.098209 1_555
Mg12 Mg2 3.098215 1_555
Mg12 Mg5 3.145432 1_555
Mg12 Mg3 3.145438 1_555
Mg12 Mg6 3.174981 1_555
Mg12 Mg8 3.174981 1_555
Mg13 Mg7 3.092877 1_665
Mg13 Mg9 3.092878 1_655
Mg13 Mg4 3.098209 1_556
Mg13 Mg2 3.098215 1_556
Mg13 Mg5 3.145432 1_555
Mg13 Mg3 3.145438 1_555
Mg13 Mg7 3.174981 1_555
Mg13 Mg9 3.174981 1_555
Cr0 Mg9 3.037908 1_554
Cr0 Mg8 3.037908 1_555
Cr0 Mg7 3.037914 1_564
Cr0 Mg6 3.037914 1_565
Cr0 Mg12 3.091111 1_455
Cr0 Mg13 3.091111 1_454
Cr0 Mg2 3.115666 1_455
Cr0 Mg4 3.115666 1_455
Cr0 Zn0 3.133903 1_555
Cr0 Zn0 3.133903 1_565
Cr0 Mg2 3.150495 1_565
Cr0 Mg4 3.150495 1_555
