# generated using pymatgen
data_NiH14C3NCl3O2
_symmetry_space_group_name_H-M   'P 1'
_cell_length_a   7.10929500
_cell_length_b   9.02215400
_cell_length_c   16.67015500
_cell_angle_alpha   90.00000000
_cell_angle_beta   90.00000000
_cell_angle_gamma   90.00000000
_symmetry_Int_Tables_number   1
_chemical_formula_structural   NiH14C3NCl3O2
_chemical_formula_sum   'Ni4 H56 C12 N4 Cl12 O8'
_cell_volume   1069.24298442
_cell_formula_units_Z   4
loop_
 _symmetry_equiv_pos_site_id
 _symmetry_equiv_pos_as_xyz
  1  'x, y, z'
loop_
 _atom_site_type_symbol
 _atom_site_label
 _atom_site_symmetry_multiplicity
 _atom_site_fract_x
 _atom_site_fract_y
 _atom_site_fract_z
 _atom_site_occupancy
  Ni  Ni0  1  0.50000000  0.00000000  0.00000000  1
  Ni  Ni1  1  0.00000000  0.00000000  0.00000000  1
  Ni  Ni2  1  0.50000000  0.50000000  0.50000000  1
  Ni  Ni3  1  0.00000000  0.50000000  0.50000000  1
  H  H0  1  0.30410000  0.70867200  0.94591900  1
  H  H1  1  0.12183900  0.49778700  0.13699400  1
  H  H2  1  0.37816100  0.49778700  0.13699400  1
  H  H3  1  0.25000000  0.20493100  0.04048700  1
  H  H4  1  0.06928400  0.22701700  0.48653200  1
  H  H5  1  0.87816100  0.50221300  0.86300600  1
  H  H6  1  0.45319800  0.30092200  0.29142100  1
  H  H7  1  0.62183900  0.99778700  0.36300600  1
  H  H8  1  0.09096500  0.14217400  0.23020000  1
  H  H9  1  0.54680200  0.69907800  0.70857900  1
  H  H10  1  0.53845200  0.20155000  0.68939100  1
  H  H11  1  0.62183900  0.50221300  0.86300600  1
  H  H12  1  0.96154800  0.20155000  0.68939100  1
  H  H13  1  0.90903500  0.64217400  0.26980000  1
  H  H14  1  0.12183900  0.00221300  0.63699400  1
  H  H15  1  0.93071600  0.77298300  0.51346800  1
  H  H16  1  0.80410000  0.20867200  0.55408100  1
  H  H17  1  0.03845200  0.70155000  0.81060900  1
  H  H18  1  0.06928400  0.27298300  0.98653200  1
  H  H19  1  0.75000000  0.44354900  0.77637800  1
  H  H20  1  0.45319800  0.19907800  0.79142100  1
  H  H21  1  0.95319800  0.69907800  0.70857900  1
  H  H22  1  0.69590000  0.29132800  0.05408100  1
  H  H23  1  0.25000000  0.55645100  0.22362200  1
  H  H24  1  0.75000000  0.70493100  0.45951300  1
  H  H25  1  0.25000000  0.94354900  0.72362200  1
  H  H26  1  0.54680200  0.80092200  0.20857900  1
  H  H27  1  0.87816100  0.99778700  0.36300600  1
  H  H28  1  0.30410000  0.79132800  0.44591900  1
  H  H29  1  0.04680200  0.19907800  0.79142100  1
  H  H30  1  0.75000000  0.79506900  0.95951300  1
  H  H31  1  0.59096500  0.64217400  0.26980000  1
  H  H32  1  0.19590000  0.70867200  0.94591900  1
  H  H33  1  0.75000000  0.05645100  0.27637800  1
  H  H34  1  0.03845200  0.79845000  0.31060900  1
  H  H35  1  0.43071600  0.22701700  0.48653200  1
  H  H36  1  0.40903500  0.14217400  0.23020000  1
  H  H37  1  0.95319800  0.80092200  0.20857900  1
  H  H38  1  0.56928400  0.72701700  0.01346800  1
  H  H39  1  0.09096500  0.35782600  0.73020000  1
  H  H40  1  0.90903500  0.85782600  0.76980000  1
  H  H41  1  0.25000000  0.29506900  0.54048700  1
  H  H42  1  0.46154800  0.79845000  0.31060900  1
  H  H43  1  0.93071600  0.72701700  0.01346800  1
  H  H44  1  0.40903500  0.35782600  0.73020000  1
  H  H45  1  0.80410000  0.29132800  0.05408100  1
  H  H46  1  0.46154800  0.70155000  0.81060900  1
  H  H47  1  0.04680200  0.30092200  0.29142100  1
  H  H48  1  0.96154800  0.29845000  0.18939100  1
  H  H49  1  0.43071600  0.27298300  0.98653200  1
  H  H50  1  0.37816100  0.00221300  0.63699400  1
  H  H51  1  0.69590000  0.20867200  0.55408100  1
  H  H52  1  0.53845200  0.29845000  0.18939100  1
  H  H53  1  0.59096500  0.85782600  0.76980000  1
  H  H54  1  0.19590000  0.79132800  0.44591900  1
  H  H55  1  0.56928400  0.77298300  0.51346800  1
  C  C0  1  0.07631200  0.26288200  0.22915900  1
  C  C1  1  0.57631200  0.76288200  0.27084100  1
  C  C2  1  0.25000000  0.02197300  0.67224000  1
  C  C3  1  0.42368800  0.23711800  0.72915900  1
  C  C4  1  0.92368800  0.73711800  0.77084100  1
  C  C5  1  0.57631200  0.73711800  0.77084100  1
  C  C6  1  0.75000000  0.97802700  0.32776000  1
  C  C7  1  0.75000000  0.52197300  0.82776000  1
  C  C8  1  0.42368800  0.26288200  0.22915900  1
  C  C9  1  0.25000000  0.47802700  0.17224000  1
  C  C10  1  0.92368800  0.76288200  0.27084100  1
  C  C11  1  0.07631200  0.23711800  0.72915900  1
  N  N0  1  0.25000000  0.32982400  0.20401500  1
  N  N1  1  0.25000000  0.17017600  0.70401500  1
  N  N2  1  0.75000000  0.67017600  0.79598500  1
  N  N3  1  0.75000000  0.82982400  0.29598500  1
  Cl  Cl0  1  0.75000000  0.56033300  0.10356000  1
  Cl  Cl1  1  0.75000000  0.50547600  0.60585700  1
  Cl  Cl2  1  0.25000000  0.59558800  0.59084200  1
  Cl  Cl3  1  0.25000000  0.90441200  0.09084200  1
  Cl  Cl4  1  0.75000000  0.40441200  0.40915800  1
  Cl  Cl5  1  0.25000000  0.49452400  0.39414300  1
  Cl  Cl6  1  0.25000000  0.00547600  0.89414300  1
  Cl  Cl7  1  0.75000000  0.09558800  0.90915800  1
  Cl  Cl8  1  0.25000000  0.06033300  0.39644000  1
  Cl  Cl9  1  0.75000000  0.93966700  0.60356000  1
  Cl  Cl10  1  0.75000000  0.99452400  0.10585700  1
  Cl  Cl11  1  0.25000000  0.43966700  0.89644000  1
  O  O0  1  0.41979100  0.20629700  0.03275700  1
  O  O1  1  0.41979100  0.29370300  0.53275700  1
  O  O2  1  0.58020900  0.70629700  0.46724300  1
  O  O3  1  0.08020900  0.29370300  0.53275700  1
  O  O4  1  0.91979100  0.79370300  0.96724300  1
  O  O5  1  0.08020900  0.20629700  0.03275700  1
  O  O6  1  0.58020900  0.79370300  0.96724300  1
  O  O7  1  0.91979100  0.70629700  0.46724300  1
loop_
_geom_bond_atom_site_label_1
_geom_bond_atom_site_label_2
_geom_bond_distance
_geom_bond_site_symmetry_2
Ni0 O0 2.021775 1_555
Ni0 O6 2.021775 1_544
Ni1 O5 2.021775 1_555
Ni1 O4 2.021775 1_444
Ni2 O1 2.021775 1_555
Ni2 O2 2.021775 1_555
Ni3 O3 2.021775 1_555
Ni3 O7 2.021775 1_455
H0 H32 0.769226 1_555
H3 O0 1.214015 1_555
H3 O5 1.214015 1_555
H4 O3 0.980718 1_555
H15 O7 0.980718 1_555
H16 H51 0.769226 1_555
H18 O5 0.980718 1_556
H22 H45 0.769226 1_555
H24 O7 1.214015 1_555
H24 O2 1.214015 1_555
H28 H54 0.769226 1_555
H30 O4 1.214015 1_555
H30 O6 1.214015 1_555
H35 O1 0.980718 1_555
H38 O6 0.980718 1_554
H41 O1 1.214015 1_555
H41 O3 1.214015 1_555
H43 O4 0.980718 1_554
H49 O0 0.980718 1_556
H55 O2 0.980718 1_555
C0 H8 1.094155 1_555
C0 H48 1.099156 1_455
C0 H47 1.113137 1_555
C0 N0 1.437076 1_555
C1 H31 1.094155 1_555
C1 H42 1.099156 1_555
C1 H26 1.113137 1_555
C1 N3 1.437076 1_555
C2 H50 1.098713 1_555
C2 H14 1.098713 1_555
C2 H25 1.110992 1_545
C2 N1 1.438207 1_555
C3 H44 1.094155 1_555
C3 H10 1.099156 1_555
C3 H20 1.113137 1_555
C3 N1 1.437076 1_555
C4 H40 1.094155 1_555
C4 H17 1.099156 1_655
C4 H21 1.113137 1_555
C4 N2 1.437076 1_555
C5 H53 1.094155 1_555
C5 H46 1.099156 1_555
C5 H9 1.113137 1_555
C5 N2 1.437076 1_555
C6 H27 1.098713 1_555
C6 H7 1.098713 1_555
C6 H33 1.110992 1_565
C6 N3 1.438207 1_555
C7 H5 1.098713 1_555
C7 H11 1.098713 1_555
C7 H19 1.110992 1_555
C7 N2 1.438207 1_555
C8 H36 1.094155 1_555
C8 H52 1.099156 1_555
C8 H6 1.113137 1_555
C8 N0 1.437076 1_555
C9 H2 1.098713 1_555
C9 H1 1.098713 1_555
C9 H23 1.110992 1_555
C9 N0 1.438207 1_555
C10 H13 1.094155 1_555
C10 H34 1.099156 1_655
C10 H37 1.113137 1_555
C10 N3 1.437076 1_555
C11 H39 1.094155 1_555
C11 H12 1.099156 1_455
C11 H29 1.113137 1_555
C11 N1 1.437076 1_555
Cl1 Ni2 2.505059 1_555
Cl1 Ni3 2.505059 1_655
Cl2 Ni2 2.489154 1_555
Cl2 Ni3 2.489154 1_555
Cl3 Ni0 2.489154 1_565
Cl3 Ni1 2.489154 1_565
Cl4 Ni3 2.489154 1_655
Cl4 Ni2 2.489154 1_555
Cl5 Ni3 2.505059 1_555
Cl5 Ni2 2.505059 1_555
Cl6 Ni1 2.505059 1_556
Cl6 Ni0 2.505059 1_556
Cl7 Ni0 2.489154 1_556
Cl7 Ni1 2.489154 1_656
Cl10 Ni1 2.505059 1_665
Cl10 Ni0 2.505059 1_565
