# generated using pymatgen
data_Mg3Si3(MoO6)2
_symmetry_space_group_name_H-M   'P 1'
_cell_length_a   10.44834708
_cell_length_b   10.44834708
_cell_length_c   10.44834708
_cell_angle_alpha   109.47122063
_cell_angle_beta   109.47122063
_cell_angle_gamma   109.47122063
_symmetry_Int_Tables_number   1
_chemical_formula_structural   Mg3Si3(MoO6)2
_chemical_formula_sum   'Mg12 Si12 Mo8 O48'
_cell_volume   878.05330507
_cell_formula_units_Z   4
loop_
 _symmetry_equiv_pos_site_id
 _symmetry_equiv_pos_as_xyz
  1  'x, y, z'
loop_
 _atom_site_type_symbol
 _atom_site_label
 _atom_site_symmetry_multiplicity
 _atom_site_fract_x
 _atom_site_fract_y
 _atom_site_fract_z
 _atom_site_occupancy
  Mg  Mg0  1  0.25000000  0.37500000  0.12500000  1
  Mg  Mg1  1  0.75000000  0.12500000  0.37500000  1
  Mg  Mg2  1  0.37500000  0.12500000  0.25000000  1
  Mg  Mg3  1  0.12500000  0.37500000  0.75000000  1
  Mg  Mg4  1  0.25000000  0.87500000  0.62500000  1
  Mg  Mg5  1  0.12500000  0.25000000  0.37500000  1
  Mg  Mg6  1  0.62500000  0.25000000  0.87500000  1
  Mg  Mg7  1  0.75000000  0.62500000  0.87500000  1
  Mg  Mg8  1  0.87500000  0.75000000  0.62500000  1
  Mg  Mg9  1  0.87500000  0.62500000  0.25000000  1
  Mg  Mg10  1  0.62500000  0.87500000  0.75000000  1
  Mg  Mg11  1  0.37500000  0.75000000  0.12500000  1
  Si  Si0  1  0.12500000  0.75000000  0.87500000  1
  Si  Si1  1  0.87500000  0.25000000  0.12500000  1
  Si  Si2  1  0.75000000  0.37500000  0.62500000  1
  Si  Si3  1  0.12500000  0.87500000  0.25000000  1
  Si  Si4  1  0.25000000  0.12500000  0.87500000  1
  Si  Si5  1  0.37500000  0.62500000  0.75000000  1
  Si  Si6  1  0.37500000  0.25000000  0.62500000  1
  Si  Si7  1  0.87500000  0.12500000  0.75000000  1
  Si  Si8  1  0.62500000  0.37500000  0.25000000  1
  Si  Si9  1  0.75000000  0.87500000  0.12500000  1
  Si  Si10  1  0.25000000  0.62500000  0.37500000  1
  Si  Si11  1  0.62500000  0.75000000  0.37500000  1
  Mo  Mo0  1  0.50000000  0.00000000  0.00000000  1
  Mo  Mo1  1  0.50000000  0.50000000  0.00000000  1
  Mo  Mo2  1  0.00000000  0.50000000  0.50000000  1
  Mo  Mo3  1  0.00000000  0.00000000  0.50000000  1
  Mo  Mo4  1  0.50000000  0.50000000  0.50000000  1
  Mo  Mo5  1  0.00000000  0.50000000  0.00000000  1
  Mo  Mo6  1  0.50000000  0.00000000  0.50000000  1
  Mo  Mo7  1  0.00000000  0.00000000  0.00000000  1
  O  O0  1  0.59355100  0.89489100  0.37264000  1
  O  O1  1  0.37264000  0.59355100  0.89489100  1
  O  O2  1  0.27908900  0.30134000  0.90644900  1
  O  O3  1  0.47774900  0.60510900  0.19866000  1
  O  O4  1  0.30134000  0.89489100  0.02225100  1
  O  O5  1  0.12736000  0.02225100  0.22091100  1
  O  O6  1  0.37264000  0.27908900  0.47774900  1
  O  O7  1  0.89489100  0.37264000  0.59355100  1
  O  O8  1  0.19866000  0.22091100  0.59355100  1
  O  O9  1  0.47774900  0.37264000  0.27908900  1
  O  O10  1  0.89489100  0.02225100  0.30134000  1
  O  O11  1  0.60510900  0.90644900  0.12736000  1
  O  O12  1  0.90644900  0.12736000  0.60510900  1
  O  O13  1  0.27908900  0.47774900  0.37264000  1
  O  O14  1  0.59355100  0.19866000  0.22091100  1
  O  O15  1  0.22091100  0.59355100  0.19866000  1
  O  O16  1  0.02225100  0.30134000  0.89489100  1
  O  O17  1  0.90644900  0.27908900  0.30134000  1
  O  O18  1  0.02225100  0.22091100  0.12736000  1
  O  O19  1  0.80134000  0.77908900  0.40644900  1
  O  O20  1  0.19866000  0.47774900  0.60510900  1
  O  O21  1  0.60510900  0.19866000  0.47774900  1
  O  O22  1  0.22091100  0.12736000  0.02225100  1
  O  O23  1  0.12736000  0.60510900  0.90644900  1
  O  O24  1  0.40644900  0.10510900  0.62736000  1
  O  O25  1  0.62736000  0.40644900  0.10510900  1
  O  O26  1  0.72091100  0.69866000  0.09355100  1
  O  O27  1  0.52225100  0.39489100  0.80134000  1
  O  O28  1  0.69866000  0.10510900  0.97774900  1
  O  O29  1  0.87264000  0.97774900  0.77908900  1
  O  O30  1  0.62736000  0.72091100  0.52225100  1
  O  O31  1  0.10510900  0.62736000  0.40644900  1
  O  O32  1  0.87264000  0.39489100  0.09355100  1
  O  O33  1  0.77908900  0.87264000  0.97774900  1
  O  O34  1  0.39489100  0.80134000  0.52225100  1
  O  O35  1  0.69866000  0.09355100  0.72091100  1
  O  O36  1  0.80134000  0.52225100  0.39489100  1
  O  O37  1  0.97774900  0.77908900  0.87264000  1
  O  O38  1  0.09355100  0.72091100  0.69866000  1
  O  O39  1  0.97774900  0.69866000  0.10510900  1
  O  O40  1  0.77908900  0.40644900  0.80134000  1
  O  O41  1  0.40644900  0.80134000  0.77908900  1
  O  O42  1  0.72091100  0.52225100  0.62736000  1
  O  O43  1  0.09355100  0.87264000  0.39489100  1
  O  O44  1  0.39489100  0.09355100  0.87264000  1
  O  O45  1  0.10510900  0.97774900  0.69866000  1
  O  O46  1  0.52225100  0.62736000  0.72091100  1
  O  O47  1  0.30134000  0.90644900  0.27908900  1
loop_
_geom_bond_atom_site_label_1
_geom_bond_atom_site_label_2
_geom_bond_distance
_geom_bond_site_symmetry_2
Mg0 O22 2.312154 1_555
Mg0 O2 2.312154 1_554
Mg0 O15 2.312154 1_555
Mg0 O13 2.312154 1_555
Mg0 O9 2.401384 1_555
Mg0 O16 2.401384 1_554
Mg0 O18 2.401384 1_555
Mg0 O3 2.401384 1_555
Mg1 O10 2.312154 1_555
Mg1 O21 2.312154 1_555
Mg1 O7 2.312154 1_555
Mg1 O11 2.312154 1_545
Mg1 O17 2.401384 1_555
Mg1 O14 2.401384 1_555
Mg1 O0 2.401384 1_545
Mg1 O12 2.401384 1_555
Mg2 O5 2.312154 1_555
Mg2 O47 2.312154 1_545
Mg2 O14 2.312154 1_555
Mg2 O9 2.312154 1_555
Mg2 O6 2.401384 1_555
Mg2 O21 2.401384 1_555
Mg2 O4 2.401384 1_545
Mg2 O22 2.401384 1_555
Mg3 O16 2.312154 1_555
Mg3 O12 2.312154 1_455
Mg3 O20 2.312154 1_555
Mg3 O1 2.312154 1_555
Mg3 O2 2.401384 1_555
Mg3 O8 2.401384 1_555
Mg3 O23 2.401384 1_555
Mg3 O7 2.401384 1_455
Mg4 O44 2.312154 1_565
Mg4 O34 2.312154 1_555
Mg4 O31 2.312154 1_555
Mg4 O45 2.312154 1_555
Mg4 O24 2.401384 1_565
Mg4 O43 2.401384 1_555
Mg4 O38 2.401384 1_555
Mg4 O41 2.401384 1_555
Mg5 O18 2.312154 1_555
Mg5 O17 2.312154 1_455
Mg5 O8 2.312154 1_555
Mg5 O6 2.312154 1_555
Mg5 O13 2.401384 1_555
Mg5 O20 2.401384 1_555
Mg5 O5 2.401384 1_555
Mg5 O10 2.401384 1_455
Mg6 O32 2.312154 1_556
Mg6 O27 2.312154 1_555
Mg6 O24 2.312154 1_555
Mg6 O28 2.312154 1_555
Mg6 O25 2.401384 1_556
Mg6 O35 2.401384 1_555
Mg6 O40 2.401384 1_555
Mg6 O44 2.401384 1_555
Mg7 O26 2.312154 1_556
Mg7 O42 2.312154 1_555
Mg7 O33 2.312154 1_555
Mg7 O40 2.312154 1_555
Mg7 O39 2.401384 1_556
Mg7 O37 2.401384 1_555
Mg7 O27 2.401384 1_555
Mg7 O46 2.401384 1_555
Mg8 O38 2.312154 1_655
Mg8 O30 2.312154 1_555
Mg8 O37 2.312154 1_555
Mg8 O19 2.312154 1_555
Mg8 O45 2.401384 1_655
Mg8 O29 2.401384 1_555
Mg8 O42 2.401384 1_555
Mg8 O36 2.401384 1_555
Mg9 O36 2.312154 1_555
Mg9 O39 2.312154 1_555
Mg9 O43 2.312154 1_655
Mg9 O25 2.312154 1_555
Mg9 O31 2.401384 1_655
Mg9 O32 2.401384 1_555
Mg9 O26 2.401384 1_555
Mg9 O19 2.401384 1_555
Mg10 O29 2.312154 1_555
Mg10 O46 2.312154 1_555
Mg10 O35 2.312154 1_565
Mg10 O41 2.312154 1_555
Mg10 O28 2.401384 1_565
Mg10 O30 2.401384 1_555
Mg10 O33 2.401384 1_555
Mg10 O34 2.401384 1_555
Mg11 O3 2.312154 1_555
Mg11 O4 2.312154 1_555
Mg11 O23 2.312154 1_554
Mg11 O0 2.312154 1_555
Mg11 O47 2.401384 1_555
Mg11 O15 2.401384 1_555
Mg11 O1 2.401384 1_554
Mg11 O11 2.401384 1_555
Mo0 O28 2.130906 1_554
Mo0 O41 2.130906 1_544
Mo0 O14 2.130906 1_555
Mo0 O44 2.130906 1_554
Mo0 O4 2.130906 1_545
Mo0 O11 2.130906 1_545
Mo1 O26 2.130906 1_555
Mo1 O2 2.130906 1_554
Mo1 O27 2.130906 1_554
Mo1 O1 2.130906 1_554
Mo1 O3 2.130906 1_555
Mo1 O25 2.130906 1_555
Mo2 O38 2.130906 1_555
Mo2 O36 2.130906 1_455
Mo2 O17 2.130906 1_455
Mo2 O20 2.130906 1_555
Mo2 O31 2.130906 1_555
Mo2 O7 2.130906 1_455
Mo3 O8 2.130906 1_555
Mo3 O45 2.130906 1_545
Mo3 O19 2.130906 1_445
Mo3 O43 2.130906 1_545
Mo3 O12 2.130906 1_455
Mo3 O10 2.130906 1_455
Mo4 O46 2.130906 1_555
Mo4 O13 2.130906 1_555
Mo4 O42 2.130906 1_555
Mo4 O30 2.130906 1_555
Mo4 O9 2.130906 1_555
Mo4 O6 2.130906 1_555
Mo5 O39 2.130906 1_455
Mo5 O40 2.130906 1_454
Mo5 O23 2.130906 1_554
Mo5 O32 2.130906 1_455
Mo5 O15 2.130906 1_555
Mo5 O16 2.130906 1_554
Mo6 O35 2.130906 1_555
Mo6 O34 2.130906 1_545
Mo6 O0 2.130906 1_545
Mo6 O21 2.130906 1_555
Mo6 O47 2.130906 1_545
Mo6 O24 2.130906 1_555
Mo7 O33 2.130906 1_444
Mo7 O37 2.130906 1_444
Mo7 O29 2.130906 1_444
Mo7 O5 2.130906 1_555
Mo7 O18 2.130906 1_555
Mo7 O22 2.130906 1_555
O0 Si11 1.658764 1_555
O1 Si5 1.658764 1_555
O2 Si4 1.658764 1_555
O3 Si11 1.658764 1_555
O4 Si0 1.658764 1_554
O5 Si3 1.658764 1_545
O6 Si6 1.658764 1_555
O7 Si2 1.658764 1_555
O8 Si6 1.658764 1_555
O9 Si8 1.658764 1_555
O10 Si9 1.658764 1_545
O11 Si9 1.658764 1_555
O12 Si7 1.658764 1_555
O13 Si10 1.658764 1_555
O14 Si8 1.658764 1_555
O15 Si10 1.658764 1_555
O16 Si7 1.658764 1_455
O17 Si1 1.658764 1_555
O18 Si1 1.658764 1_455
O19 Si11 1.658764 1_555
O20 Si5 1.658764 1_555
O21 Si2 1.658764 1_555
O22 Si4 1.658764 1_554
O23 Si0 1.658764 1_555
O24 Si6 1.658764 1_555
O25 Si8 1.658764 1_555
O26 Si9 1.658764 1_555
O27 Si6 1.658764 1_555
O28 Si1 1.658764 1_556
O29 Si7 1.658764 1_565
O30 Si11 1.658764 1_555
O31 Si10 1.658764 1_555
O32 Si1 1.658764 1_555
O33 Si9 1.658764 1_556
O34 Si10 1.658764 1_555
O35 Si7 1.658764 1_555
O36 Si8 1.658764 1_555
O37 Si0 1.658764 1_655
O38 Si0 1.658764 1_555
O39 Si3 1.658764 1_655
O40 Si2 1.658764 1_555
O41 Si5 1.658764 1_555
O42 Si2 1.658764 1_555
O43 Si3 1.658764 1_555
O44 Si4 1.658764 1_555
O45 Si4 1.658764 1_565
O46 Si5 1.658764 1_555
O47 Si3 1.658764 1_555
