# generated using pymatgen
data_Na5(CuO2)3
_symmetry_space_group_name_H-M   'P 1'
_cell_length_a   5.70769007
_cell_length_b   8.21195704
_cell_length_c   17.01321600
_cell_angle_alpha   90.00000000
_cell_angle_beta   90.00000000
_cell_angle_gamma   107.88478806
_symmetry_Int_Tables_number   1
_chemical_formula_structural   Na5(CuO2)3
_chemical_formula_sum   'Na20 Cu12 O24'
_cell_volume   758.89653841
_cell_formula_units_Z   4
loop_
 _symmetry_equiv_pos_site_id
 _symmetry_equiv_pos_as_xyz
  1  'x, y, z'
loop_
 _atom_site_type_symbol
 _atom_site_label
 _atom_site_symmetry_multiplicity
 _atom_site_fract_x
 _atom_site_fract_y
 _atom_site_fract_z
 _atom_site_occupancy
  Na  Na0  1  0.26566000  0.38025800  0.63131400  1
  Na  Na1  1  0.76566000  0.88025800  0.86868600  1
  Na  Na2  1  0.73434000  0.61974200  0.36868600  1
  Na  Na3  1  0.23434000  0.11974200  0.13131400  1
  Na  Na4  1  0.21504600  0.05265100  0.55245600  1
  Na  Na5  1  0.71504600  0.55265100  0.94754400  1
  Na  Na6  1  0.78495400  0.94734900  0.44754400  1
  Na  Na7  1  0.28495400  0.44734900  0.05245600  1
  Na  Na8  1  0.26408300  0.38047900  0.45337700  1
  Na  Na9  1  0.76408300  0.88047900  0.04662300  1
  Na  Na10  1  0.73591700  0.61952100  0.54662300  1
  Na  Na11  1  0.23591700  0.11952100  0.95337700  1
  Na  Na12  1  0.22515000  0.09044200  0.76998800  1
  Na  Na13  1  0.72515000  0.59044200  0.73001200  1
  Na  Na14  1  0.77485000  0.90955800  0.23001200  1
  Na  Na15  1  0.27485000  0.40955800  0.26998800  1
  Na  Na16  1  0.22034400  0.08772100  0.32189800  1
  Na  Na17  1  0.72034400  0.58772100  0.17810200  1
  Na  Na18  1  0.77965600  0.91227900  0.67810200  1
  Na  Na19  1  0.27965600  0.41227900  0.82189800  1
  Cu  Cu0  1  0.74774900  0.25735000  0.28985200  1
  Cu  Cu1  1  0.24774900  0.75735000  0.21014800  1
  Cu  Cu2  1  0.25225100  0.74265000  0.71014800  1
  Cu  Cu3  1  0.75225100  0.24265000  0.78985200  1
  Cu  Cu4  1  0.73468500  0.25240300  0.62280000  1
  Cu  Cu5  1  0.23468500  0.75240300  0.87720000  1
  Cu  Cu6  1  0.26531500  0.74759700  0.37720000  1
  Cu  Cu7  1  0.76531500  0.24759700  0.12280000  1
  Cu  Cu8  1  0.73253800  0.26651900  0.45617100  1
  Cu  Cu9  1  0.23253800  0.76651900  0.04382900  1
  Cu  Cu10  1  0.26746200  0.73348100  0.54382900  1
  Cu  Cu11  1  0.76746200  0.23348100  0.95617100  1
  O  O0  1  0.53937500  0.31327700  0.54163100  1
  O  O1  1  0.03937500  0.81327700  0.95836900  1
  O  O2  1  0.46062500  0.68672300  0.45836900  1
  O  O3  1  0.96062500  0.18672300  0.04163100  1
  O  O4  1  0.56024500  0.29929900  0.20493000  1
  O  O5  1  0.06024500  0.79929900  0.29507000  1
  O  O6  1  0.43975500  0.70070100  0.79507000  1
  O  O7  1  0.93975500  0.20070100  0.70493000  1
  O  O8  1  0.55135400  0.30111900  0.71210400  1
  O  O9  1  0.05135400  0.80111900  0.78789600  1
  O  O10  1  0.44864600  0.69888100  0.28789600  1
  O  O11  1  0.94864600  0.19888100  0.21210400  1
  O  O12  1  0.92476300  0.20001900  0.53785600  1
  O  O13  1  0.42476300  0.70001900  0.96214400  1
  O  O14  1  0.07523700  0.79998100  0.46214400  1
  O  O15  1  0.57523700  0.29998100  0.03785600  1
  O  O16  1  0.55047900  0.31986400  0.36737300  1
  O  O17  1  0.05047900  0.81986400  0.13262700  1
  O  O18  1  0.44952100  0.68013600  0.63262700  1
  O  O19  1  0.94952100  0.18013600  0.86737300  1
  O  O20  1  0.93401800  0.21071900  0.37373300  1
  O  O21  1  0.43401800  0.71071900  0.12626700  1
  O  O22  1  0.06598200  0.78928100  0.62626700  1
  O  O23  1  0.56598200  0.28928100  0.87373300  1
loop_
_geom_bond_atom_site_label_1
_geom_bond_atom_site_label_2
_geom_bond_distance
_geom_bond_site_symmetry_2
Na0 O7 2.349117 1_455
Na0 O18 2.361952 1_555
Na0 O0 2.366248 1_555
Na0 O8 2.370975 1_555
Na0 O12 2.595366 1_455
Na1 O6 2.349117 1_555
Na1 O19 2.361952 1_565
Na1 O1 2.366248 1_655
Na1 O9 2.370975 1_655
Na1 O13 2.595366 1_555
Na2 O5 2.349117 1_655
Na2 O16 2.361952 1_555
Na2 O2 2.366248 1_555
Na2 O10 2.370975 1_555
Na2 O14 2.595366 1_655
Na3 O4 2.349117 1_555
Na3 O17 2.361952 1_545
Na3 O3 2.366248 1_455
Na3 O11 2.370975 1_455
Na3 O15 2.595366 1_555
Na4 O12 2.345828 1_455
Na4 O0 2.368110 1_555
Na4 O22 2.418312 1_545
Na4 O14 2.507170 1_545
Na5 O13 2.345828 1_555
Na5 O1 2.368110 1_655
Na5 O23 2.418312 1_555
Na5 O15 2.507170 1_556
Na6 O14 2.345828 1_655
Na6 O2 2.368110 1_555
Na6 O20 2.418312 1_565
Na6 O12 2.507170 1_565
Na7 O15 2.345828 1_555
Na7 O3 2.368110 1_455
Na7 O21 2.418312 1_555
Na7 O13 2.507170 1_554
Na8 O0 2.358077 1_555
Na8 O16 2.358097 1_555
Na8 O20 2.390703 1_455
Na8 O2 2.420206 1_555
Na8 O12 2.499985 1_455
Na9 O1 2.358077 1_654
Na9 O17 2.358097 1_655
Na9 O21 2.390703 1_555
Na9 O3 2.420206 1_565
Na9 O13 2.499985 1_554
Na10 O2 2.358077 1_555
Na10 O18 2.358097 1_555
Na10 O22 2.390703 1_655
Na10 O0 2.420206 1_555
Na10 O14 2.499985 1_655
Na11 O3 2.358077 1_456
Na11 O19 2.358097 1_455
Na11 O23 2.390703 1_555
Na11 O1 2.420206 1_545
Na11 O15 2.499985 1_556
Na12 O9 2.296560 1_545
Na12 O8 2.334750 1_555
Na12 O7 2.367341 1_455
Na12 O19 2.544467 1_455
Na12 O23 2.759526 1_555
Na13 O8 2.296560 1_555
Na13 O9 2.334750 1_655
Na13 O6 2.367341 1_555
Na13 O18 2.544467 1_555
Na13 O22 2.759526 1_655
Na14 O11 2.296560 1_565
Na14 O10 2.334750 1_555
Na14 O5 2.367341 1_655
Na14 O17 2.544467 1_655
Na14 O21 2.759526 1_555
Na15 O10 2.296560 1_555
Na15 O11 2.334750 1_455
Na15 O4 2.367341 1_555
Na15 O16 2.544467 1_555
Na15 O20 2.759526 1_455
Na16 O5 2.307344 1_545
Na16 O20 2.341494 1_455
Na16 O16 2.361574 1_555
Na16 O11 2.756242 1_455
Na17 O4 2.307344 1_555
Na17 O21 2.341494 1_555
Na17 O17 2.361574 1_655
Na17 O10 2.756242 1_555
Na18 O7 2.307344 1_565
Na18 O22 2.341494 1_655
Na18 O18 2.361574 1_555
Na18 O9 2.756242 1_655
Na19 O6 2.307344 1_555
Na19 O23 2.341494 1_555
Na19 O19 2.361574 1_455
Na19 O8 2.756242 1_555
Cu0 O20 1.887747 1_555
Cu0 O4 1.891535 1_555
Cu0 O16 1.904151 1_555
Cu0 O11 1.906088 1_555
Cu1 O21 1.887747 1_555
Cu1 O5 1.891535 1_555
Cu1 O17 1.904151 1_555
Cu1 O10 1.906088 1_555
Cu2 O22 1.887747 1_555
Cu2 O6 1.891535 1_555
Cu2 O18 1.904151 1_555
Cu2 O9 1.906088 1_555
Cu3 O23 1.887747 1_555
Cu3 O7 1.891535 1_555
Cu3 O19 1.904151 1_555
Cu3 O8 1.906088 1_555
Cu4 O12 1.933195 1_555
Cu4 O0 1.934397 1_555
Cu4 O7 1.951396 1_555
Cu4 O8 1.954616 1_555
Cu5 O13 1.933195 1_555
Cu5 O1 1.934397 1_555
Cu5 O6 1.951396 1_555
Cu5 O9 1.954616 1_555
Cu6 O14 1.933195 1_555
Cu6 O2 1.934397 1_555
Cu6 O5 1.951396 1_555
Cu6 O10 1.954616 1_555
Cu7 O15 1.933195 1_555
Cu7 O3 1.934397 1_555
Cu7 O4 1.951396 1_555
Cu7 O11 1.954616 1_555
Cu8 O0 1.933122 1_555
Cu8 O12 1.949698 1_555
Cu8 O20 1.955302 1_555
Cu8 O16 1.957967 1_555
Cu9 O1 1.933122 1_554
Cu9 O13 1.949698 1_554
Cu9 O21 1.955302 1_555
Cu9 O17 1.957967 1_555
Cu10 O2 1.933122 1_555
Cu10 O14 1.949698 1_555
Cu10 O22 1.955302 1_555
Cu10 O18 1.957967 1_555
Cu11 O3 1.933122 1_556
Cu11 O15 1.949698 1_556
Cu11 O23 1.955302 1_555
Cu11 O19 1.957967 1_555
