# generated using pymatgen
data_Ca4Al3CrSiBO14
_symmetry_space_group_name_H-M   'P 1'
_cell_length_a   5.05859387
_cell_length_b   10.95422902
_cell_length_c   10.83602177
_cell_angle_alpha   89.79564325
_cell_angle_beta   90.58334638
_cell_angle_gamma   90.85899024
_symmetry_Int_Tables_number   1
_chemical_formula_structural   Ca4Al3CrSiBO14
_chemical_formula_sum   'Ca8 Al6 Cr2 Si2 B2 O28'
_cell_volume   600.35433072
_cell_formula_units_Z   2
loop_
 _symmetry_equiv_pos_site_id
 _symmetry_equiv_pos_as_xyz
  1  'x, y, z'
loop_
 _atom_site_type_symbol
 _atom_site_label
 _atom_site_symmetry_multiplicity
 _atom_site_fract_x
 _atom_site_fract_y
 _atom_site_fract_z
 _atom_site_occupancy
  Ca  Ca0  1  0.49983800  0.23746800  0.90757900  1
  Ca  Ca1  1  0.49996800  0.73744600  0.40759400  1
  Ca  Ca2  1  0.49308900  0.42111700  0.26228100  1
  Ca  Ca3  1  0.49305800  0.92109000  0.76232300  1
  Ca  Ca4  1  0.51655900  0.73614600  0.08448800  1
  Ca  Ca5  1  0.51651400  0.23611100  0.58448600  1
  Ca  Ca6  1  0.47659100  0.59672900  0.76046700  1
  Ca  Ca7  1  0.47664900  0.09668600  0.26044600  1
  Al  Al0  1  0.99889300  0.50252500  0.00869500  1
  Al  Al1  1  0.99883100  0.00253000  0.50874600  1
  Al  Al2  1  0.99772400  0.50713300  0.49122500  1
  Al  Al3  1  0.99761400  0.00708700  0.99131700  1
  Al  Al4  1  0.95879800  0.75169400  0.89348100  1
  Al  Al5  1  0.95884000  0.25170300  0.39348300  1
  Cr  Cr0  1  0.03830900  0.88729800  0.24909300  1
  Cr  Cr1  1  0.03840700  0.38737700  0.74892400  1
  Si  Si0  1  0.94534800  0.25105300  0.10495700  1
  Si  Si1  1  0.94537000  0.75102900  0.60496200  1
  B  B0  1  0.05646400  0.60393500  0.24966400  1
  B  B1  1  0.05636700  0.10393600  0.74971200  1
  O  O0  1  0.18098300  0.73649900  0.24152600  1
  O  O1  1  0.18073800  0.23649900  0.74161600  1
  O  O2  1  0.81517400  0.25302900  0.24325400  1
  O  O3  1  0.81520300  0.75301700  0.74325100  1
  O  O4  1  0.80617600  0.36774100  0.03424400  1
  O  O5  1  0.80618600  0.86771100  0.53426100  1
  O  O6  1  0.19563900  0.55409300  0.36512300  1
  O  O7  1  0.19553500  0.05404100  0.86521100  1
  O  O8  1  0.79645800  0.62141100  0.95679900  1
  O  O9  1  0.79642400  0.12140900  0.45677300  1
  O  O10  1  0.19721800  0.47280600  0.62459400  1
  O  O11  1  0.19687400  0.97264700  0.12465600  1
  O  O12  1  0.20485600  0.45975900  0.88177600  1
  O  O13  1  0.20489300  0.95984300  0.38182500  1
  O  O14  1  0.80151700  0.87714500  0.96156800  1
  O  O15  1  0.80156200  0.37715200  0.46159400  1
  O  O16  1  0.18597800  0.54228600  0.14161800  1
  O  O17  1  0.18593700  0.04227800  0.64165500  1
  O  O18  1  0.79892500  0.13070400  0.03983400  1
  O  O19  1  0.79894300  0.63068800  0.53982400  1
  O  O20  1  0.26419700  0.24979200  0.10383200  1
  O  O21  1  0.26421600  0.74980200  0.60383300  1
  O  O22  1  0.77490000  0.60192500  0.25212800  1
  O  O23  1  0.77488400  0.10193100  0.75212000  1
  O  O24  1  0.29985000  0.75091300  0.89120900  1
  O  O25  1  0.29985200  0.25091000  0.39121000  1
  O  O26  1  0.69681500  0.38700900  0.75040800  1
  O  O27  1  0.69683600  0.88686900  0.25033400  1
loop_
_geom_bond_atom_site_label_1
_geom_bond_atom_site_label_2
_geom_bond_distance
_geom_bond_site_symmetry_2
Ca0 O18 2.389057 1_556
Ca0 O1 2.404251 1_555
Ca0 O20 2.453578 1_556
Ca0 O4 2.495208 1_556
Ca0 O7 2.552861 1_555
Ca0 O26 2.557841 1_555
Ca0 O23 2.665600 1_555
Ca0 O12 2.886134 1_555
Ca1 O19 2.388504 1_555
Ca1 O0 2.404709 1_555
Ca1 O21 2.453747 1_555
Ca1 O5 2.494802 1_555
Ca1 O6 2.552505 1_555
Ca1 O27 2.557455 1_555
Ca1 O22 2.665240 1_555
Ca1 O13 2.887338 1_555
Ca2 O6 2.395665 1_555
Ca2 O22 2.425727 1_555
Ca2 O16 2.427537 1_555
Ca2 O2 2.487349 1_555
Ca2 O25 2.517585 1_555
Ca2 O15 2.697770 1_555
Ca2 O20 2.779944 1_555
Ca2 O4 3.012291 1_555
Ca3 O7 2.395968 1_565
Ca3 O23 2.426089 1_565
Ca3 O17 2.427714 1_565
Ca3 O3 2.487474 1_555
Ca3 O24 2.517029 1_555
Ca3 O14 2.697104 1_555
Ca3 O21 2.779844 1_555
Ca3 O5 3.012633 1_555
Ca4 O24 2.360185 1_554
Ca4 O8 2.367384 1_554
Ca4 O0 2.415864 1_555
Ca4 O14 2.489029 1_554
Ca4 O27 2.594202 1_555
Ca4 O22 2.675754 1_555
Ca4 O16 2.755828 1_555
Ca5 O25 2.360073 1_555
Ca5 O9 2.367376 1_555
Ca5 O1 2.417298 1_555
Ca5 O15 2.489408 1_555
Ca5 O26 2.596027 1_555
Ca5 O23 2.675533 1_555
Ca5 O17 2.755687 1_555
Ca6 O24 2.397331 1_555
Ca6 O3 2.411665 1_555
Ca6 O12 2.414443 1_555
Ca6 O10 2.433534 1_555
Ca6 O26 2.571305 1_555
Ca6 O21 2.615947 1_555
Ca6 O8 2.671749 1_555
Ca6 O19 2.927219 1_555
Ca7 O25 2.397896 1_555
Ca7 O2 2.411756 1_555
Ca7 O13 2.414069 1_545
Ca7 O11 2.434846 1_545
Ca7 O27 2.572206 1_545
Ca7 O20 2.616203 1_555
Ca7 O9 2.671472 1_555
Ca7 O18 2.926802 1_555
Al0 O8 1.756108 1_554
Al0 O16 1.767580 1_655
Al0 O4 1.779430 1_555
Al0 O12 1.801342 1_654
Al1 O9 1.756227 1_555
Al1 O17 1.767478 1_655
Al1 O5 1.779491 1_545
Al1 O13 1.801420 1_645
Al2 O15 1.751998 1_555
Al2 O6 1.772437 1_655
Al2 O19 1.782404 1_555
Al2 O10 1.796155 1_655
Al3 O14 1.751704 1_545
Al3 O7 1.772469 1_655
Al3 O18 1.782387 1_556
Al3 O11 1.795504 1_646
Al4 O24 1.725820 1_655
Al4 O14 1.765728 1_555
Al4 O8 1.775175 1_555
Al4 O3 1.775940 1_555
Al5 O25 1.725620 1_655
Al5 O15 1.765814 1_555
Al5 O9 1.775328 1_555
Al5 O2 1.776074 1_555
Cr0 O27 1.727498 1_455
Cr0 O0 1.815011 1_555
Cr0 O11 1.823793 1_555
Cr0 O13 1.836759 1_555
Cr1 O26 1.728158 1_455
Cr1 O1 1.814945 1_555
Cr1 O10 1.823922 1_555
Cr1 O12 1.836706 1_555
B0 O22 1.424679 1_455
B0 O16 1.513459 1_555
B0 O6 1.532241 1_555
B0 O0 1.576715 1_555
B1 O23 1.424252 1_455
B1 O17 1.513723 1_555
B1 O7 1.532785 1_555
B1 O1 1.576391 1_555
O2 Si0 1.643353 1_555
O3 Si1 1.643262 1_555
O4 Si0 1.650953 1_555
O5 Si1 1.650869 1_555
O18 Si0 1.658709 1_555
O19 Si1 1.658717 1_555
O20 Si0 1.613364 1_455
O21 Si1 1.613341 1_455
