# generated using pymatgen
data_Ho3Co2Si7
_symmetry_space_group_name_H-M   'P 1'
_cell_length_a   12.41576029
_cell_length_b   12.41576029
_cell_length_c   4.03269700
_cell_angle_alpha   90.00000000
_cell_angle_beta   90.00000000
_cell_angle_gamma   161.57172099
_symmetry_Int_Tables_number   1
_chemical_formula_structural   Ho3Co2Si7
_chemical_formula_sum   'Ho3 Co2 Si7'
_cell_volume   196.51265910
_cell_formula_units_Z   1
loop_
 _symmetry_equiv_pos_site_id
 _symmetry_equiv_pos_as_xyz
  1  'x, y, z'
loop_
 _atom_site_type_symbol
 _atom_site_label
 _atom_site_symmetry_multiplicity
 _atom_site_fract_x
 _atom_site_fract_y
 _atom_site_fract_z
 _atom_site_occupancy
  Ho  Ho0  1  0.90230300  0.09769700  0.50000000  1
  Ho  Ho1  1  0.53402800  0.46597200  0.50000000  1
  Ho  Ho2  1  0.21900300  0.78099700  0.00000000  1
  Co  Co0  1  0.34720400  0.65279600  0.00000000  1
  Co  Co1  1  0.08874000  0.91126000  0.00000000  1
  Si  Si0  1  0.62890500  0.37109500  0.00000000  1
  Si  Si1  1  0.43901200  0.56098800  0.00000000  1
  Si  Si2  1  0.12917500  0.87082500  0.50000000  1
  Si  Si3  1  0.99658700  0.00341300  0.00000000  1
  Si  Si4  1  0.80670300  0.19329700  0.00000000  1
  Si  Si5  1  0.70484400  0.29515600  0.50000000  1
  Si  Si6  1  0.30679400  0.69320600  0.50000000  1
loop_
_geom_bond_atom_site_label_1
_geom_bond_atom_site_label_2
_geom_bond_distance
_geom_bond_site_symmetry_2
Ho0 Si1 2.971143 1_545
Ho0 Si1 2.971143 1_655
Ho0 Si1 2.971143 1_656
Ho0 Si1 2.971143 1_546
Ho0 Si3 3.066987 1_555
Ho0 Si3 3.066987 1_556
Ho0 Si6 3.071296 1_545
Ho0 Si6 3.071296 1_655
Ho0 Si4 3.091365 1_555
Ho0 Si4 3.091365 1_556
Ho1 Si3 2.976625 1_456
Ho1 Si3 2.976625 1_565
Ho1 Si3 2.976625 1_566
Ho1 Si3 2.976625 1_455
Ho1 Si2 3.064538 1_655
Ho1 Si2 3.064538 1_545
Ho1 Si0 3.077954 1_556
Ho1 Si0 3.077954 1_555
Ho1 Si1 3.080529 1_555
Ho1 Si1 3.080529 1_556
Ho2 Si5 2.852811 1_564
Ho2 Si5 2.852811 1_454
Ho2 Si5 2.852811 1_455
Ho2 Si5 2.852811 1_565
Ho2 Si4 2.928022 1_565
Ho2 Si4 2.928022 1_455
Ho2 Si6 2.948922 1_554
Ho2 Si6 2.948922 1_555
Ho2 Si0 2.971442 1_565
Ho2 Si0 2.971442 1_455
Ho2 Si2 2.985551 1_554
Ho2 Si2 2.985551 1_555
Co0 Si4 2.222145 1_565
Co0 Si4 2.222145 1_455
Co0 Si6 2.246495 1_554
Co0 Si6 2.246495 1_555
Co0 Si1 2.250316 1_555
Co0 Ho0 3.137203 1_455
Co0 Ho0 3.137203 1_454
Co0 Ho0 3.137203 1_564
Co0 Ho0 3.137203 1_565
Co1 Si0 2.218478 1_565
Co1 Si0 2.218478 1_455
Co1 Si2 2.246765 1_554
Co1 Si2 2.246765 1_555
Co1 Si3 2.258773 1_465
Co1 Ho1 3.133131 1_565
Co1 Ho1 3.133131 1_564
Co1 Ho1 3.133131 1_455
Co1 Ho1 3.133131 1_454
Si0 Si5 2.744136 1_555
Si0 Si5 2.744136 1_554
Si0 Si2 2.831631 1_654
Si0 Si2 2.831631 1_655
Si0 Si2 2.831631 1_545
Si0 Si2 2.831631 1_544
Si1 Si3 2.438030 1_565
Si1 Si3 2.438030 1_455
Si2 Si5 2.718907 1_565
Si2 Si5 2.718907 1_455
