# generated using pymatgen
data_YbAlB14
_symmetry_space_group_name_H-M   'P 1'
_cell_length_a   7.25025530
_cell_length_b   7.25025530
_cell_length_c   7.25025530
_cell_angle_alpha   132.05327639
_cell_angle_beta   111.21733058
_cell_angle_gamma   88.18182080
_symmetry_Int_Tables_number   1
_chemical_formula_structural   YbAlB14
_chemical_formula_sum   'Yb2 Al2 B28'
_cell_volume   251.28937609
_cell_formula_units_Z   2
loop_
 _symmetry_equiv_pos_site_id
 _symmetry_equiv_pos_as_xyz
  1  'x, y, z'
loop_
 _atom_site_type_symbol
 _atom_site_label
 _atom_site_symmetry_multiplicity
 _atom_site_fract_x
 _atom_site_fract_y
 _atom_site_fract_z
 _atom_site_occupancy
  Yb  Yb0  1  0.59814894  0.25000000  0.34814894  1
  Yb  Yb1  1  0.40185106  0.75000000  0.65185106  1
  Al  Al0  1  0.00000000  0.00000000  0.50000000  1
  Al  Al1  1  0.00000000  0.50000000  0.00000000  1
  B  B0  1  0.63277859  0.66738991  0.96538867  1
  B  B1  1  0.36722141  0.33261009  0.03461133  1
  B  B2  1  0.20200124  0.16738991  0.03461133  1
  B  B3  1  0.79799876  0.83261009  0.96538867  1
  B  B4  1  0.76960707  0.14465305  0.62495302  1
  B  B5  1  0.23039293  0.85534695  0.37504698  1
  B  B6  1  0.01970003  0.64465305  0.37504698  1
  B  B7  1  0.98029997  0.35534695  0.62495302  1
  B  B8  1  0.92335879  0.09051777  0.83284102  1
  B  B9  1  0.07664121  0.90948223  0.16715898  1
  B  B10  1  0.75767776  0.59051777  0.16715898  1
  B  B11  1  0.24232224  0.40948223  0.83284102  1
  B  B12  1  0.39950681  0.39884602  0.67449480  1
  B  B13  1  0.60049319  0.27498800  0.99934021  1
  B  B14  1  0.22435122  0.89884602  0.99934021  1
  B  B15  1  0.77564878  0.77498800  0.67449480  1
  B  B16  1  0.60049319  0.60115398  0.32550520  1
  B  B17  1  0.39950681  0.72501200  0.00065979  1
  B  B18  1  0.77564878  0.10115398  0.00065979  1
  B  B19  1  0.22435122  0.22501200  0.32550520  1
  B  B20  1  0.03165060  0.83276455  0.70399792  1
  B  B21  1  0.96834940  0.67234733  0.80111395  1
  B  B22  1  0.62876662  0.33276455  0.80111395  1
  B  B23  1  0.37123338  0.17234733  0.70399792  1
  B  B24  1  0.96834940  0.16723545  0.29600208  1
  B  B25  1  0.03165060  0.32765267  0.19888605  1
  B  B26  1  0.37123338  0.66723545  0.19888605  1
  B  B27  1  0.62876662  0.82765267  0.29600208  1
loop_
_geom_bond_atom_site_label_1
_geom_bond_atom_site_label_2
_geom_bond_distance
_geom_bond_site_symmetry_2
Al0 B4 2.102916 1_455
Al0 B5 2.102916 1_545
Al0 B7 2.102923 1_455
Al0 B6 2.102923 1_545
Al0 B11 2.321364 1_555
Al0 B10 2.321364 1_445
Al0 B9 2.321367 1_545
Al0 B8 2.321367 1_455
Al0 B23 2.418568 1_555
Al0 B27 2.418568 1_445
Al0 B24 2.418568 1_455
Al0 B20 2.418568 1_545
Al1 B5 2.102921 1_555
Al1 B4 2.102921 1_454
Al1 B6 2.102923 1_555
Al1 B7 2.102923 1_454
Al1 B11 2.321360 1_554
Al1 B10 2.321360 1_455
Al1 B9 2.321367 1_555
Al1 B8 2.321367 1_454
Al1 B21 2.418568 1_454
Al1 B25 2.418568 1_555
Al1 B26 2.418568 1_555
Al1 B22 2.418568 1_454
B0 B3 1.720735 1_555
B0 B17 1.795954 1_556
B0 B12 1.795957 1_555
B0 B10 1.836318 1_556
B0 B27 1.847660 1_556
B0 B22 1.847660 1_555
B0 Yb1 2.708322 1_555
B1 B2 1.720735 1_555
B1 B13 1.795954 1_554
B1 B16 1.795957 1_555
B1 B11 1.836318 1_554
B1 B23 1.847660 1_554
B1 B26 1.847660 1_555
B1 Yb0 2.708322 1_555
B2 B8 1.836317 1_454
B2 B20 1.847660 1_544
B2 B25 1.847660 1_555
B2 Yb0 2.708322 1_555
B3 B9 1.836317 1_656
B3 Yb1 2.708322 1_555
B4 B8 1.793622 1_555
B4 B7 2.194329 1_555
B4 Yb0 2.518693 1_555
B5 B9 1.793622 1_555
B5 B6 2.194329 1_555
B5 Yb1 2.518693 1_555
B6 Yb1 2.518692 1_555
B7 Yb0 2.518692 1_555
B10 B22 1.755148 1_554
B10 B27 1.755153 1_555
B10 B6 1.793619 1_655
B10 B13 1.856217 1_554
B10 B16 1.856217 1_555
B11 B26 1.755148 1_556
B11 B23 1.755153 1_555
B11 B7 1.793619 1_455
B11 B17 1.856217 1_556
B11 B12 1.856217 1_555
B12 B19 1.762686 1_555
B12 B22 1.808144 1_555
B12 B23 1.818841 1_555
B12 B17 1.921679 1_556
B12 Yb1 2.659669 1_555
B12 Yb0 2.790055 1_555
B13 B18 1.762683 1_556
B13 B23 1.808148 1_555
B13 B22 1.818848 1_555
B13 B16 1.921679 1_556
B13 Yb0 2.659662 1_556
B13 Yb1 2.790053 1_545
B14 B17 1.762683 1_556
B14 B2 1.795961 1_566
B14 B20 1.808149 1_555
B14 B21 1.818840 1_455
B14 B9 1.856205 1_556
B14 B19 1.921679 1_566
B14 Yb0 2.659669 1_566
B14 Yb1 2.790061 1_555
B15 B16 1.762686 1_555
B15 B3 1.795957 1_555
B15 B21 1.808144 1_555
B15 B20 1.818841 1_655
B15 B8 1.856211 1_565
B15 B18 1.921679 1_566
B15 Yb1 2.659669 1_555
B15 Yb0 2.790055 1_555
B16 B26 1.808144 1_555
B16 B27 1.818841 1_555
B16 Yb0 2.659669 1_555
B16 Yb1 2.790055 1_555
B17 B27 1.808148 1_555
B17 B26 1.818848 1_555
B17 Yb1 2.659662 1_554
B17 Yb0 2.790053 1_565
B18 B3 1.795961 1_544
B18 B24 1.808149 1_555
B18 B25 1.818840 1_655
B18 B8 1.856205 1_554
B18 Yb1 2.659669 1_544
B18 Yb0 2.790061 1_555
B19 B2 1.795957 1_555
B19 B25 1.808144 1_555
B19 B24 1.818841 1_455
B19 B9 1.856211 1_545
B19 Yb0 2.659669 1_555
B19 Yb1 2.790055 1_555
B20 B6 1.748174 1_555
B20 B8 1.755148 1_465
B20 B21 1.850402 1_455
B20 Yb1 2.834699 1_555
B21 B7 1.748174 1_555
B21 B9 1.755148 1_656
B21 B3 1.847660 1_555
B21 Yb0 2.834699 1_555
B22 B4 1.748180 1_555
B22 B23 1.850402 1_555
B22 Yb0 2.834699 1_555
B23 B5 1.748175 1_545
B23 Yb1 2.834699 1_545
B24 B7 1.748174 1_555
B24 B9 1.755148 1_645
B24 B3 1.847660 1_544
B24 B25 1.850402 1_655
B24 Yb0 2.834699 1_555
B25 B6 1.748174 1_555
B25 B8 1.755148 1_454
B25 Yb1 2.834699 1_555
B26 B5 1.748180 1_555
B26 B27 1.850402 1_555
B26 Yb1 2.834699 1_555
B27 B4 1.748175 1_565
B27 Yb0 2.834699 1_565
