# generated using pymatgen
data_Na7TiNb2Si4P2O29F
_symmetry_space_group_name_H-M   'P 1'
_cell_length_a   5.54538500
_cell_length_b   7.27996428
_cell_length_c   14.72483025
_cell_angle_alpha   92.13210205
_cell_angle_beta   95.52129543
_cell_angle_gamma   90.44571748
_symmetry_Int_Tables_number   1
_chemical_formula_structural   Na7TiNb2Si4P2O29F
_chemical_formula_sum   'Na7 Ti1 Nb2 Si4 P2 O29 F1'
_cell_volume   591.23831454
_cell_formula_units_Z   1
loop_
 _symmetry_equiv_pos_site_id
 _symmetry_equiv_pos_as_xyz
  1  'x, y, z'
loop_
 _atom_site_type_symbol
 _atom_site_label
 _atom_site_symmetry_multiplicity
 _atom_site_fract_x
 _atom_site_fract_y
 _atom_site_fract_z
 _atom_site_occupancy
  Na  Na0  1  0.37616100  0.12427400  0.44207400  1
  Na  Na1  1  0.87362900  0.38526200  0.44159100  1
  Na  Na2  1  0.38194600  0.65236400  0.43990500  1
  Na  Na3  1  0.16912200  0.87103300  0.19680700  1
  Na  Na4  1  0.69075000  0.37993800  0.07803800  1
  Na  Na5  1  0.57649600  0.88753100  0.67533700  1
  Na  Na6  1  0.04212300  0.86491300  0.83745400  1
  Ti  Ti0  1  0.90143300  0.88684700  0.43232700  1
  Nb  Nb0  1  0.17800000  0.37566200  0.22924900  1
  Nb  Nb1  1  0.56976300  0.39513900  0.65240900  1
  Si  Si0  1  0.69149500  0.66341500  0.24699400  1
  Si  Si1  1  0.67754700  0.08879500  0.25372600  1
  Si  Si2  1  0.06664300  0.68383700  0.62627600  1
  Si  Si3  1  0.05800900  0.10611300  0.63399200  1
  P  P0  1  0.56641700  0.62453000  0.87728500  1
  P  P1  1  0.18446500  0.14995800  0.00308100  1
  O  O0  1  0.92638800  0.57543900  0.20163300  1
  O  O1  1  0.67125400  0.87561400  0.20857500  1
  O  O2  1  0.71407400  0.67513200  0.35787200  1
  O  O3  1  0.41405700  0.17185100  0.21721100  1
  O  O4  1  0.03256600  0.09207400  0.52288900  1
  O  O5  1  0.71187800  0.08656700  0.36441600  1
  O  O6  1  0.31228700  0.20834200  0.67431600  1
  O  O7  1  0.20024600  0.39373200  0.35103800  1
  O  O8  1  0.07538200  0.89504100  0.67554700  1
  O  O9  1  0.89509700  0.19741500  0.21057000  1
  O  O10  1  0.03321100  0.69075400  0.51576900  1
  O  O11  1  0.44228700  0.55597900  0.20340700  1
  O  O12  1  0.11031800  0.96672800  0.04433800  1
  O  O13  1  0.13345400  0.88690200  0.36259500  1
  O  O14  1  0.81985000  0.19378500  0.67681100  1
  O  O15  1  0.54679300  0.37845400  0.53024100  1
  O  O16  1  0.12265100  0.31850000  0.06378300  1
  O  O17  1  0.32831200  0.59763400  0.66148500  1
  O  O18  1  0.46614600  0.14940500  0.99787300  1
  O  O19  1  0.05178100  0.15435100  0.90405500  1
  O  O20  1  0.69884000  0.60943600  0.97584300  1
  O  O21  1  0.62448400  0.44777300  0.81853700  1
  O  O22  1  0.84008200  0.58239400  0.66674200  1
  O  O23  1  0.63699900  0.79602300  0.82985800  1
  O  O24  1  0.28465800  0.62819600  0.88555900  1
  O  O25  1  0.11708800  0.61871100  0.01131900  1
  O  O26  1  0.05156200  0.38398200  0.81458900  1
  O  O27  1  0.63321200  0.15577600  0.86967300  1
  O  O28  1  0.71054600  0.89712500  0.04350600  1
  F  F0  1  0.59669700  0.88737300  0.51710200  1
loop_
_geom_bond_atom_site_label_1
_geom_bond_atom_site_label_2
_geom_bond_distance
_geom_bond_site_symmetry_2
Na0 O5 2.289771 1_555
Na0 O4 2.356175 1_555
Na0 O15 2.358485 1_555
Na0 O13 2.382754 1_545
Na0 O7 2.563277 1_555
Na1 O15 2.334524 1_555
Na1 O7 2.351875 1_655
Na1 O5 2.532584 1_555
Na1 O10 2.554375 1_655
Na1 O2 2.601610 1_555
Na1 O4 2.604201 1_655
Na2 O2 2.305851 1_555
Na2 O10 2.338103 1_555
Na2 O7 2.409576 1_555
Na2 O13 2.447330 1_555
Na2 O15 2.563791 1_555
Na3 O12 2.368772 1_555
Na3 O13 2.466620 1_555
Na3 O0 2.536210 1_455
Na3 O3 2.560708 1_565
Na3 O11 2.758062 1_555
Na3 O1 2.773074 1_555
Na3 O1 2.783272 1_455
Na3 O9 2.841723 1_465
Na4 O20 2.292751 1_554
Na4 O18 2.301835 1_554
Na4 O16 2.467150 1_655
Na4 O0 2.523073 1_555
Na4 O9 2.578552 1_555
Na4 O11 2.699920 1_555
Na5 O23 2.388030 1_555
Na5 O17 2.501691 1_555
Na5 O14 2.595439 1_565
Na5 O22 2.674378 1_555
Na5 O8 2.766332 1_655
Na5 O6 2.766406 1_565
Na5 O8 2.780130 1_555
Na6 O24 2.285591 1_555
Na6 O19 2.288856 1_565
Na6 O23 2.289332 1_455
Na6 O8 2.426669 1_555
Nb0 O7 1.785539 1_555
Nb0 O3 2.000437 1_555
Nb0 O9 2.019750 1_455
Nb0 O11 2.032347 1_555
Nb0 O0 2.047868 1_455
Nb0 O16 2.445889 1_555
Nb1 O15 1.790653 1_555
Nb1 O17 2.008541 1_555
Nb1 O22 2.008948 1_555
Nb1 O6 2.020644 1_555
Nb1 O14 2.043538 1_555
Nb1 O21 2.451211 1_555
O0 Si0 1.643652 1_555
O1 Si1 1.664241 1_565
O1 Si0 1.665697 1_555
O2 Si0 1.624397 1_555
O2 Ti0 2.070538 1_555
O3 Si1 1.635976 1_555
O4 Si3 1.627783 1_555
O4 Ti0 2.046330 1_445
O5 Si1 1.623378 1_555
O5 Ti0 2.036801 1_545
O6 Si3 1.638414 1_555
O8 Si2 1.673877 1_555
O8 Si3 1.675034 1_565
O9 Si1 1.629284 1_555
O10 Si2 1.622611 1_555
O10 Ti0 2.013827 1_455
O11 Si0 1.645783 1_555
O12 P1 1.554755 1_565
O13 Ti0 1.721629 1_455
O14 Si3 1.640886 1_655
O16 P1 1.551066 1_555
O17 Si2 1.631498 1_555
O18 P1 1.571292 1_556
O19 P1 1.570336 1_556
O20 P0 1.570190 1_555
O21 P0 1.576402 1_555
O22 Si2 1.625193 1_655
O23 P0 1.519680 1_555
O24 P0 1.579203 1_555
F0 Ti0 2.195364 1_555
F0 Na2 2.280448 1_555
F0 Na5 2.343374 1_555
F0 Na0 2.367508 1_565
