# generated using pymatgen
data_HfAlFe
_symmetry_space_group_name_H-M   'P 1'
_cell_length_a   5.07473264
_cell_length_b   5.07476898
_cell_length_c   8.33987784
_cell_angle_alpha   90.00000000
_cell_angle_beta   90.00000000
_cell_angle_gamma   60.39542096
_symmetry_Int_Tables_number   1
_chemical_formula_structural   HfAlFe
_chemical_formula_sum   'Hf4 Al4 Fe4'
_cell_volume   186.73961846
_cell_formula_units_Z   4
loop_
 _symmetry_equiv_pos_site_id
 _symmetry_equiv_pos_as_xyz
  1  'x, y, z'
loop_
 _atom_site_type_symbol
 _atom_site_label
 _atom_site_symmetry_multiplicity
 _atom_site_fract_x
 _atom_site_fract_y
 _atom_site_fract_z
 _atom_site_occupancy
  Hf  Hf0  1  0.33533844  0.33541508  0.55411436  1
  Hf  Hf1  1  0.66894379  0.66896629  0.42910770  1
  Hf  Hf2  1  0.66894379  0.66896629  0.07089230  1
  Hf  Hf3  1  0.33533844  0.33541508  0.94588564  1
  Al  Al0  1  0.99424483  0.99426063  0.48998926  1
  Al  Al1  1  0.99424483  0.99426063  0.01001074  1
  Al  Al2  1  0.83252041  0.34431487  0.75000000  1
  Al  Al3  1  0.34445700  0.83251488  0.75000000  1
  Fe  Fe0  1  0.83390804  0.83356113  0.75000000  1
  Fe  Fe1  1  0.17159208  0.65048787  0.25000000  1
  Fe  Fe2  1  0.65040215  0.17167487  0.25000000  1
  Fe  Fe3  1  0.17006619  0.17016337  0.25000000  1
loop_
_geom_bond_atom_site_label_1
_geom_bond_atom_site_label_2
_geom_bond_distance
_geom_bond_site_symmetry_2
Hf0 Hf1 3.106373 1_555
Hf0 Hf1 3.119736 1_455
Hf0 Hf1 3.119982 1_545
Hf1 Hf2 2.987473 1_555
Hf2 Hf3 3.106373 1_554
Hf2 Hf3 3.119736 1_654
Hf2 Hf3 3.119982 1_564
Al0 Fe1 2.511600 1_655
Al0 Fe2 2.511783 1_565
Al0 Fe3 2.527018 1_665
Al0 Fe0 2.585523 1_555
Al0 Al2 2.662902 1_565
Al0 Al3 2.663305 1_655
Al0 Hf1 2.898385 1_555
Al0 Hf0 2.956860 1_655
Al0 Hf0 2.957108 1_565
Al0 Hf1 3.020207 1_655
Al0 Hf1 3.020257 1_565
Al0 Hf0 3.039809 1_665
Al1 Fe1 2.511600 1_655
Al1 Fe2 2.511783 1_565
Al1 Fe3 2.527018 1_665
Al1 Fe0 2.585523 1_554
Al1 Al2 2.662902 1_564
Al1 Al3 2.663305 1_654
Al1 Hf2 2.898385 1_555
Al1 Hf3 2.956860 1_654
Al1 Hf3 2.957108 1_564
Al1 Hf2 3.020207 1_655
Al1 Hf2 3.020257 1_565
Al1 Hf3 3.039809 1_664
Al2 Fe0 2.486298 1_555
Al2 Al3 2.491937 1_555
Al2 Fe0 2.588486 1_545
Al2 Al3 2.613114 1_645
Al2 Hf3 3.011317 1_655
Al2 Hf0 3.011317 1_655
Al2 Hf0 3.024788 1_555
Al2 Hf3 3.024788 1_555
Al2 Hf2 3.035498 1_556
Al2 Hf1 3.035498 1_555
Al3 Fe0 2.486460 1_555
Al3 Fe0 2.588281 1_455
Al3 Hf0 3.011235 1_565
Al3 Hf3 3.011235 1_565
Al3 Hf3 3.024926 1_555
Al3 Hf0 3.024926 1_555
Al3 Hf2 3.035152 1_556
Al3 Hf1 3.035152 1_555
Fe0 Hf3 3.029675 1_655
Fe0 Hf0 3.029675 1_655
Fe0 Hf0 3.031496 1_565
Fe0 Hf3 3.031496 1_565
Fe0 Hf2 3.041620 1_556
Fe0 Hf1 3.041620 1_555
Fe1 Fe3 2.441371 1_555
Fe1 Fe2 2.444357 1_555
Fe1 Fe3 2.633416 1_565
Fe1 Fe2 2.660694 1_465
Fe1 Hf3 2.892580 1_554
Fe1 Hf0 2.892580 1_555
Fe1 Hf2 2.917245 1_455
Fe1 Hf1 2.917245 1_455
Fe1 Hf1 2.973902 1_555
Fe1 Hf2 2.973902 1_555
Fe2 Fe3 2.441375 1_555
Fe2 Fe3 2.633375 1_655
Fe2 Hf3 2.892556 1_554
Fe2 Hf0 2.892556 1_555
Fe2 Hf2 2.917395 1_545
Fe2 Hf1 2.917395 1_545
Fe2 Hf1 2.973797 1_555
Fe2 Hf2 2.973797 1_555
Fe3 Hf3 2.921360 1_554
Fe3 Hf0 2.921360 1_555
Fe3 Hf2 2.957324 1_455
Fe3 Hf1 2.957324 1_455
Fe3 Hf2 2.957653 1_545
Fe3 Hf1 2.957653 1_545
