# generated using pymatgen
data_Eu2Mn2O5
_symmetry_space_group_name_H-M   'P 1'
_cell_length_a   3.96023600
_cell_length_b   3.96023600
_cell_length_c   7.66937200
_cell_angle_alpha   90.00000000
_cell_angle_beta   90.00000000
_cell_angle_gamma   90.00000000
_symmetry_Int_Tables_number   1
_chemical_formula_structural   Eu2Mn2O5
_chemical_formula_sum   'Eu2 Mn2 O5'
_cell_volume   120.28235936
_cell_formula_units_Z   1
loop_
 _symmetry_equiv_pos_site_id
 _symmetry_equiv_pos_as_xyz
  1  'x, y, z'
loop_
 _atom_site_type_symbol
 _atom_site_label
 _atom_site_symmetry_multiplicity
 _atom_site_fract_x
 _atom_site_fract_y
 _atom_site_fract_z
 _atom_site_occupancy
  Eu  Eu0  1  0.00000000  0.00000000  0.00000000  1
  Eu  Eu1  1  0.00000000  0.00000000  0.50000000  1
  Mn  Mn0  1  0.50000000  0.50000000  0.23823700  1
  Mn  Mn1  1  0.50000000  0.50000000  0.76176300  1
  O  O0  1  0.50000000  0.00000000  0.20522400  1
  O  O1  1  0.50000000  0.00000000  0.79477600  1
  O  O2  1  0.50000000  0.50000000  0.50000000  1
  O  O3  1  0.00000000  0.50000000  0.20522400  1
  O  O4  1  0.00000000  0.50000000  0.79477600  1
loop_
_geom_bond_atom_site_label_1
_geom_bond_atom_site_label_2
_geom_bond_distance
_geom_bond_site_symmetry_2
Eu0 O1 2.529457 1_554
Eu0 O3 2.529457 1_545
Eu0 O1 2.529457 1_454
Eu0 O4 2.529457 1_544
Eu0 O3 2.529457 1_555
Eu0 O0 2.529457 1_455
Eu0 O0 2.529457 1_555
Eu0 O4 2.529457 1_554
Eu1 O2 2.800310 1_555
Eu1 O2 2.800310 1_545
Eu1 O2 2.800310 1_445
Eu1 O2 2.800310 1_455
Eu1 O3 3.005303 1_545
Eu1 O4 3.005303 1_555
Eu1 O0 3.005303 1_455
Eu1 O4 3.005303 1_545
Eu1 O3 3.005303 1_555
Eu1 O1 3.005303 1_555
Eu1 O0 3.005303 1_555
Eu1 O1 3.005303 1_455
Mn0 O3 1.996239 1_555
Mn0 O0 1.996239 1_555
Mn0 O3 1.996239 1_655
Mn0 O0 1.996239 1_565
Mn0 O2 2.007558 1_555
Mn1 O4 1.996239 1_555
Mn1 O1 1.996239 1_555
Mn1 O4 1.996239 1_655
Mn1 O1 1.996239 1_565
Mn1 O2 2.007558 1_555
