# generated using pymatgen
data_Ho8In3Co
_symmetry_space_group_name_H-M   'P 1'
_cell_length_a   10.26081085
_cell_length_b   10.26081085
_cell_length_c   6.98819655
_cell_angle_alpha   90.00000000
_cell_angle_beta   90.00000000
_cell_angle_gamma   120.00000110
_symmetry_Int_Tables_number   1
_chemical_formula_structural   Ho8In3Co
_chemical_formula_sum   'Ho16 In6 Co2'
_cell_volume   637.17554931
_cell_formula_units_Z   2
loop_
 _symmetry_equiv_pos_site_id
 _symmetry_equiv_pos_as_xyz
  1  'x, y, z'
loop_
 _atom_site_type_symbol
 _atom_site_label
 _atom_site_symmetry_multiplicity
 _atom_site_fract_x
 _atom_site_fract_y
 _atom_site_fract_z
 _atom_site_occupancy
  Ho  Ho0  1  0.53596573  0.07193145  0.50430423  1
  Ho  Ho1  1  0.92806855  0.46403427  0.50430423  1
  Ho  Ho2  1  0.53596573  0.46403427  0.50430423  1
  Ho  Ho3  1  0.46403427  0.92806855  0.00430423  1
  Ho  Ho4  1  0.07193145  0.53596573  0.00430423  1
  Ho  Ho5  1  0.46403427  0.53596573  0.00430423  1
  Ho  Ho6  1  0.17804421  0.35608742  0.71215261  1
  Ho  Ho7  1  0.64391258  0.82195579  0.71215261  1
  Ho  Ho8  1  0.17804421  0.82195579  0.71215261  1
  Ho  Ho9  1  0.82195579  0.64391258  0.21215261  1
  Ho  Ho10  1  0.35608742  0.17804421  0.21215261  1
  Ho  Ho11  1  0.82195579  0.17804421  0.21215261  1
  Ho  Ho12  1  0.66666700  0.33333300  0.89573945  1
  Ho  Ho13  1  0.33333300  0.66666700  0.39573945  1
  Ho  Ho14  1  0.00000000  0.00000000  0.49270800  1
  Ho  Ho15  1  0.00000000  0.00000000  0.99270800  1
  In  In0  1  0.83685815  0.67371630  0.75342504  1
  In  In1  1  0.32628370  0.16314185  0.75342504  1
  In  In2  1  0.83685815  0.16314185  0.75342504  1
  In  In3  1  0.16314185  0.32628370  0.25342504  1
  In  In4  1  0.67371630  0.83685815  0.25342504  1
  In  In5  1  0.16314185  0.83685815  0.25342504  1
  Co  Co0  1  0.66666700  0.33333300  0.28092792  1
  Co  Co1  1  0.33333300  0.66666700  0.78092792  1
loop_
_geom_bond_atom_site_label_1
_geom_bond_atom_site_label_2
_geom_bond_distance
_geom_bond_site_symmetry_2
Ho0 In2 3.247955 1_555
Ho0 In1 3.247955 1_555
Ho0 Ho11 3.281741 1_555
Ho0 Ho10 3.281749 1_555
Ho0 Ho8 3.571621 1_545
Ho0 Ho7 3.571628 1_545
Ho0 Ho12 3.588617 1_555
Ho0 Ho13 3.680277 1_545
Ho0 Ho3 3.720616 1_546
Ho0 Ho3 3.720616 1_545
Ho0 In4 3.781360 1_545
Ho0 In5 3.781360 1_545
Ho1 In2 3.247955 1_555
Ho1 In0 3.247955 1_555
Ho1 Ho11 3.281741 1_555
Ho1 Ho9 3.281749 1_555
Ho1 Ho8 3.571621 1_655
Ho1 Ho6 3.571628 1_655
Ho1 Ho12 3.588617 1_555
Ho1 Ho13 3.680277 1_655
Ho1 Ho4 3.720616 1_656
Ho1 Ho4 3.720616 1_655
Ho1 In3 3.781360 1_655
Ho1 In5 3.781360 1_655
Ho2 In0 3.247955 1_555
Ho2 In1 3.247955 1_555
Ho2 Ho9 3.281742 1_555
Ho2 Ho7 3.571619 1_555
Ho2 Ho6 3.571619 1_555
Ho2 Ho5 3.720617 1_555
Ho2 Ho5 3.720617 1_556
Ho2 In3 3.781361 1_555
Ho2 In4 3.781361 1_555
Ho3 In5 3.247955 1_555
Ho3 In4 3.247955 1_555
Ho3 Ho8 3.281741 1_554
Ho3 Ho7 3.281749 1_554
Ho3 In1 3.781360 1_564
Ho3 In2 3.781360 1_564
Ho4 In5 3.247955 1_555
Ho4 In3 3.247955 1_555
Ho4 Ho8 3.281741 1_554
Ho4 Ho6 3.281749 1_554
Ho4 Ho9 3.571628 1_455
Ho4 In0 3.781360 1_454
Ho4 In2 3.781360 1_454
Ho5 In4 3.247955 1_555
Ho5 In3 3.247955 1_555
Ho5 Ho7 3.281742 1_554
Ho5 Ho6 3.281742 1_554
Ho5 Ho9 3.571619 1_555
Ho5 In1 3.781361 1_554
Ho5 In0 3.781361 1_554
Ho6 In1 3.054125 1_555
Ho6 In2 3.054133 1_455
Ho6 In3 3.216600 1_555
Ho6 In3 3.791778 1_556
Ho7 In0 3.054125 1_555
Ho7 In2 3.054133 1_565
Ho7 In4 3.216600 1_555
Ho7 In4 3.791778 1_556
Ho8 In1 3.054134 1_565
Ho8 In0 3.054134 1_455
Ho8 In5 3.216601 1_555
Ho8 In5 3.791779 1_556
Ho9 In4 3.054125 1_555
Ho9 In5 3.054133 1_655
Ho9 In0 3.216600 1_554
Ho9 In0 3.791778 1_555
Ho10 In3 3.054125 1_555
Ho10 In5 3.054133 1_545
Ho10 In1 3.216600 1_554
Ho10 Ho2 3.281742 1_555
Ho10 Ho15 3.516260 1_554
Ho10 Ho12 3.536379 1_554
Ho10 Ho5 3.571619 1_555
Ho10 Ho3 3.571628 1_545
Ho10 Ho14 3.722399 1_555
Ho10 In1 3.791778 1_555
Ho11 In3 3.054134 1_655
Ho11 In4 3.054134 1_545
Ho11 In2 3.216601 1_554
Ho11 Ho15 3.516268 1_654
Ho11 Ho12 3.536366 1_554
Ho11 Ho3 3.571621 1_545
Ho11 Ho4 3.571621 1_655
Ho11 Ho14 3.722406 1_655
Ho11 In2 3.791779 1_555
Ho12 In2 3.183984 1_555
Ho12 In0 3.183993 1_555
Ho12 In1 3.183993 1_555
Ho12 Ho9 3.536379 1_556
Ho12 Ho2 3.588623 1_555
Ho12 Ho3 3.680277 1_546
Ho12 Ho4 3.680277 1_656
Ho12 Ho5 3.680286 1_556
Ho13 In5 3.183984 1_555
Ho13 In4 3.183993 1_555
Ho13 In3 3.183993 1_555
Ho13 Ho8 3.536366 1_555
Ho13 Ho7 3.536379 1_555
Ho13 Ho6 3.536379 1_555
Ho13 Ho3 3.588617 1_555
Ho13 Ho4 3.588617 1_555
Ho13 Ho5 3.588623 1_555
Ho13 Ho2 3.680286 1_555
Ho14 In3 3.347030 1_555
Ho14 In4 3.347030 1_445
Ho14 In5 3.347030 1_545
Ho14 In1 3.424321 1_555
Ho14 In0 3.424321 1_445
Ho14 In2 3.424321 1_455
Ho14 Ho15 3.494098 1_555
Ho14 Ho15 3.494098 1_554
Ho14 Ho7 3.516260 1_445
Ho14 Ho6 3.516260 1_555
Ho14 Ho8 3.516268 1_545
Ho14 Ho9 3.722399 1_445
Ho15 In1 3.347030 1_555
Ho15 In0 3.347030 1_445
Ho15 In2 3.347030 1_455
Ho15 In3 3.424321 1_556
Ho15 In4 3.424321 1_446
Ho15 In5 3.424321 1_546
Ho15 Ho9 3.516260 1_446
Ho15 Ho7 3.722399 1_445
Ho15 Ho6 3.722399 1_555
Ho15 Ho8 3.722406 1_545
Co0 Ho12 2.691773 1_554
Co0 Ho0 2.798630 1_555
Co0 Ho1 2.798630 1_555
Co0 Ho2 2.798637 1_555
Co0 Ho11 2.801367 1_555
Co0 Ho10 2.801384 1_555
Co0 Ho9 2.801384 1_555
Co1 Ho13 2.691773 1_555
Co1 Ho4 2.798630 1_556
Co1 Ho3 2.798630 1_556
Co1 Ho5 2.798637 1_556
Co1 Ho8 2.801367 1_555
Co1 Ho6 2.801384 1_555
Co1 Ho7 2.801384 1_555
