# generated using pymatgen
data_Hf3Ni(OF)6
_symmetry_space_group_name_H-M   'P 1'
_cell_length_a   7.83429062
_cell_length_b   5.87170462
_cell_length_c   6.95327388
_cell_angle_alpha   105.88196808
_cell_angle_beta   58.41183170
_cell_angle_gamma   119.69553052
_symmetry_Int_Tables_number   1
_chemical_formula_structural   Hf3Ni(OF)6
_chemical_formula_sum   'Hf3 Ni1 O6 F6'
_cell_volume   236.63776932
_cell_formula_units_Z   1
loop_
 _symmetry_equiv_pos_site_id
 _symmetry_equiv_pos_as_xyz
  1  'x, y, z'
loop_
 _atom_site_type_symbol
 _atom_site_label
 _atom_site_symmetry_multiplicity
 _atom_site_fract_x
 _atom_site_fract_y
 _atom_site_fract_z
 _atom_site_occupancy
  Hf  Hf0  1  0.00000000  0.00000000  0.50000000  1
  Hf  Hf1  1  0.50000000  0.50000000  0.00000000  1
  Hf  Hf2  1  0.00000000  0.50000000  0.00000000  1
  Ni  Ni0  1  0.00000000  0.00000000  0.00000000  1
  O  O0  1  0.78313400  0.64356600  0.04845100  1
  O  O1  1  0.21686600  0.35643400  0.95154900  1
  O  O2  1  0.79309800  0.12139300  0.08779900  1
  O  O3  1  0.20690200  0.87860700  0.91220100  1
  O  O4  1  0.09118500  0.94607200  0.69479700  1
  O  O5  1  0.90881500  0.05392800  0.30520300  1
  F  F0  1  0.68268400  0.74990100  0.72608100  1
  F  F1  1  0.31731600  0.25009900  0.27391900  1
  F  F2  1  0.39132200  0.75803900  0.19327000  1
  F  F3  1  0.60867800  0.24196100  0.80673000  1
  F  F4  1  0.02341800  0.35084100  0.68050700  1
  F  F5  1  0.97658200  0.64915900  0.31949300  1
loop_
_geom_bond_atom_site_label_1
_geom_bond_atom_site_label_2
_geom_bond_distance
_geom_bond_site_symmetry_2
Hf0 O5 1.979326 1_455
Hf0 O4 1.979326 1_545
Hf1 O0 2.125825 1_555
Hf1 O1 2.125825 1_554
Hf2 O2 2.019414 1_455
Hf2 O3 2.019414 1_554
Hf2 O1 2.091559 1_554
Hf2 O0 2.091559 1_455
Ni0 O3 1.837947 1_544
Ni0 O2 1.837947 1_455
Ni0 O4 1.839101 1_544
Ni0 O5 1.839101 1_455
Ni0 O1 1.908784 1_554
Ni0 O0 1.908784 1_445
F0 Hf0 2.088090 1_665
F0 Hf1 2.102914 1_556
F1 Hf0 2.088090 1_555
F1 Hf1 2.102914 1_555
F2 Hf1 1.947185 1_555
F3 Hf1 1.947185 1_556
F4 Hf0 2.074697 1_555
F4 Hf2 2.098385 1_556
F5 Hf0 2.074697 1_665
F5 Hf2 2.098385 1_655
