# generated using pymatgen
data_Li4Mn3V3(CuO8)2
_symmetry_space_group_name_H-M   'P 1'
_cell_length_a   5.87385671
_cell_length_b   5.87385671
_cell_length_c   9.71209082
_cell_angle_alpha   86.49003870
_cell_angle_beta   86.49003870
_cell_angle_gamma   59.28346570
_symmetry_Int_Tables_number   1
_chemical_formula_structural   Li4Mn3V3(CuO8)2
_chemical_formula_sum   'Li4 Mn3 V3 Cu2 O16'
_cell_volume   287.36158171
_cell_formula_units_Z   1
loop_
 _symmetry_equiv_pos_site_id
 _symmetry_equiv_pos_as_xyz
  1  'x, y, z'
loop_
 _atom_site_type_symbol
 _atom_site_label
 _atom_site_symmetry_multiplicity
 _atom_site_fract_x
 _atom_site_fract_y
 _atom_site_fract_z
 _atom_site_occupancy
  Li  Li0  1  0.67518700  0.67518700  0.10889500  1
  Li  Li1  1  0.97871900  0.97871900  0.00445900  1
  Li  Li2  1  0.98556400  0.98556400  0.50293500  1
  Li  Li3  1  0.34201500  0.34201500  0.60674300  1
  Mn  Mn0  1  0.82936500  0.82936500  0.78477100  1
  Mn  Mn1  1  0.17225900  0.65989000  0.28510600  1
  Mn  Mn2  1  0.65989000  0.17225900  0.28510600  1
  V  V0  1  0.33531300  0.83424300  0.78572300  1
  V  V1  1  0.83424300  0.33531300  0.78572300  1
  V  V2  1  0.16547800  0.16547800  0.28781800  1
  Cu  Cu0  1  0.66714700  0.66714700  0.50708700  1
  Cu  Cu1  1  0.33573700  0.33573700  0.01115300  1
  O  O0  1  0.31279100  0.83518800  0.39110600  1
  O  O1  1  0.52735000  0.52735000  0.66584800  1
  O  O2  1  0.66414700  0.66414700  0.89353200  1
  O  O3  1  0.00004300  0.00004300  0.68533100  1
  O  O4  1  0.00229600  0.00229600  0.18608400  1
  O  O5  1  0.83518800  0.31279100  0.39110600  1
  O  O6  1  0.52175600  0.97429500  0.67385300  1
  O  O7  1  0.97429500  0.52175600  0.67385300  1
  O  O8  1  0.14291600  0.14291600  0.89185300  1
  O  O9  1  0.83535000  0.83535000  0.39419300  1
  O  O10  1  0.04620300  0.49026000  0.16693300  1
  O  O11  1  0.49026000  0.04620300  0.16693300  1
  O  O12  1  0.32932200  0.32932200  0.39281500  1
  O  O13  1  0.15786900  0.66840400  0.89310300  1
  O  O14  1  0.49334300  0.49334300  0.17864100  1
  O  O15  1  0.66840400  0.15786900  0.89310300  1
loop_
_geom_bond_atom_site_label_1
_geom_bond_atom_site_label_2
_geom_bond_distance
_geom_bond_site_symmetry_2
Li0 O14 1.931051 1_555
Li0 O11 1.975875 1_565
Li0 O10 1.975875 1_655
Li0 O2 2.102574 1_554
Li1 O4 1.797032 1_665
Li1 O15 1.934408 1_564
Li1 O13 1.934408 1_654
Li1 O8 1.936085 1_664
Li2 O3 1.787952 1_665
Li2 O9 1.922478 1_555
Li2 O0 1.944650 1_655
Li2 O5 1.944650 1_565
Li3 O6 1.946035 1_545
Li3 O7 1.946035 1_455
Li3 O1 2.015807 1_555
Li3 O12 2.090818 1_555
Mn0 O6 1.924721 1_555
Mn0 O7 1.924721 1_555
Mn0 O2 1.926258 1_555
Mn0 O3 1.931980 1_665
Mn0 O13 1.996806 1_655
Mn0 O15 1.996806 1_565
Mn1 O14 1.892988 1_555
Mn1 O12 1.937806 1_555
Mn1 O4 1.948373 1_565
Mn1 O10 1.963672 1_555
Mn1 O9 1.973401 1_455
Mn1 O0 1.975755 1_555
Mn2 O14 1.892988 1_555
Mn2 O12 1.937806 1_555
Mn2 O4 1.948373 1_655
Mn2 O11 1.963672 1_555
Mn2 O9 1.973401 1_545
Mn2 O5 1.975755 1_555
Cu0 O9 1.971393 1_555
Cu0 O1 2.026031 1_555
Cu0 O5 2.151182 1_555
Cu0 O0 2.151182 1_555
Cu0 O6 2.285157 1_555
Cu0 O7 2.285157 1_555
Cu1 O15 2.002766 1_554
Cu1 O13 2.002766 1_554
Cu1 O10 2.069133 1_555
Cu1 O11 2.069133 1_555
Cu1 O8 2.353698 1_554
Cu1 O14 2.367352 1_555
O0 V2 1.916231 1_565
O1 V0 1.973896 1_555
O1 V1 1.973896 1_555
O2 V0 1.993340 1_555
O2 V1 1.993340 1_555
O3 V0 1.984165 1_545
O3 V1 1.984165 1_455
O4 V2 1.996047 1_555
O5 V2 1.916231 1_655
O6 V0 1.929187 1_555
O7 V1 1.929187 1_555
O8 V1 1.902601 1_455
O8 V0 1.902601 1_545
O10 V2 1.992411 1_555
O11 V2 1.992411 1_555
O12 V2 2.019607 1_555
O13 V0 1.975496 1_555
O15 V1 1.975496 1_555
