# generated using pymatgen
data_LiMn6(OF2)4
_symmetry_space_group_name_H-M   'P 1'
_cell_length_a   5.33253257
_cell_length_b   8.14310412
_cell_length_c   5.86356168
_cell_angle_alpha   95.11345462
_cell_angle_beta   81.62866082
_cell_angle_gamma   91.64163683
_symmetry_Int_Tables_number   1
_chemical_formula_structural   LiMn6(OF2)4
_chemical_formula_sum   'Li1 Mn6 O4 F8'
_cell_volume   250.86847373
_cell_formula_units_Z   1
loop_
 _symmetry_equiv_pos_site_id
 _symmetry_equiv_pos_as_xyz
  1  'x, y, z'
loop_
 _atom_site_type_symbol
 _atom_site_label
 _atom_site_symmetry_multiplicity
 _atom_site_fract_x
 _atom_site_fract_y
 _atom_site_fract_z
 _atom_site_occupancy
  Li  Li0  1  0.75105000  0.25368700  0.13769800  1
  Mn  Mn0  1  0.51087500  0.99154200  0.52083900  1
  Mn  Mn1  1  0.56887500  0.66601500  0.19954900  1
  Mn  Mn2  1  0.45506300  0.32948900  0.80345900  1
  Mn  Mn3  1  0.93420500  0.67616800  0.64691000  1
  Mn  Mn4  1  0.20503800  0.36352500  0.35516300  1
  Mn  Mn5  1  0.04159300  0.94532700  0.06280000  1
  O  O0  1  0.82831900  0.74089400  0.98435300  1
  O  O1  1  0.67547800  0.78380700  0.47554100  1
  O  O2  1  0.53549100  0.43226200  0.09103100  1
  O  O3  1  0.36351800  0.20596700  0.53714600  1
  F  F0  1  0.82623800  0.42679000  0.53009900  1
  F  F1  1  0.81146200  0.08341700  0.33055800  1
  F  F2  1  0.64387000  0.13460200  0.84994300  1
  F  F3  1  0.26742900  0.51112200  0.72946300  1
  F  F4  1  0.36591200  0.91634600  0.20549800  1
  F  F5  1  0.19984600  0.62716600  0.33876300  1
  F  F6  1  0.11581000  0.22807000  0.04247600  1
  F  F7  1  0.20548000  0.90046900  0.71079500  1
loop_
_geom_bond_atom_site_label_1
_geom_bond_atom_site_label_2
_geom_bond_distance
_geom_bond_site_symmetry_2
Li0 O2 1.941397 1_555
Mn0 O1 1.907781 1_555
Mn0 O3 1.924160 1_565
Mn1 O0 1.859712 1_554
Mn1 O1 1.954996 1_555
Mn1 O2 1.964041 1_555
Mn2 O3 1.897974 1_555
Mn2 O2 1.914692 1_556
Mn3 O0 2.004345 1_555
Mn3 O1 2.076395 1_555
Mn4 O3 2.016852 1_555
Mn4 O2 2.262846 1_555
Mn5 O0 2.045397 1_454
F0 Mn3 2.173542 1_555
F0 Mn4 2.181727 1_655
F0 Mn2 2.515424 1_555
F1 Li0 1.927748 1_555
F1 Mn0 1.983223 1_545
F1 Mn5 2.106831 1_645
F2 Mn2 1.963429 1_555
F2 Li0 2.017740 1_556
F2 Mn0 2.352516 1_545
F3 Mn2 1.924209 1_555
F3 Mn3 2.387746 1_455
F3 Mn4 2.468114 1_555
F4 Mn5 2.055892 1_555
F4 Mn0 2.139773 1_555
F4 Mn1 2.330389 1_555
F5 Mn1 2.044874 1_555
F5 Mn3 2.142216 1_455
F5 Mn4 2.158700 1_555
F6 Li0 1.955738 1_455
F6 Mn4 2.160574 1_555
F6 Mn2 2.302490 1_554
F6 Mn5 2.335567 1_545
F7 Mn0 1.998144 1_555
F7 Mn5 2.125081 1_556
F7 Mn3 2.335269 1_455
