# generated using pymatgen
data_MoIr
_symmetry_space_group_name_H-M   'P 1'
_cell_length_a   5.58410580
_cell_length_b   5.58410580
_cell_length_c   8.93985000
_cell_angle_alpha   90.00000000
_cell_angle_beta   90.00000000
_cell_angle_gamma   120.00002133
_symmetry_Int_Tables_number   1
_chemical_formula_structural   MoIr
_chemical_formula_sum   'Mo8 Ir8'
_cell_volume   241.41710991
_cell_formula_units_Z   8
loop_
 _symmetry_equiv_pos_site_id
 _symmetry_equiv_pos_as_xyz
  1  'x, y, z'
loop_
 _atom_site_type_symbol
 _atom_site_label
 _atom_site_symmetry_multiplicity
 _atom_site_fract_x
 _atom_site_fract_y
 _atom_site_fract_z
 _atom_site_occupancy
  Mo  Mo0_0  1  0.00000000  0.00000000  0.00000000  1
  Mo  Mo0_1  1  0.00000000  0.00000000  0.50000000  1
  Mo  Mo0_2  1  0.00000000  0.50000000  0.00000000  1
  Mo  Mo0_3  1  0.00000000  0.50000000  0.50000000  1
  Mo  Mo0_4  1  0.50000000  0.00000000  0.00000000  1
  Mo  Mo0_5  1  0.50000000  0.00000000  0.50000000  1
  Mo  Mo0_6  1  0.50000000  0.50000000  0.00000000  1
  Mo  Mo0_7  1  0.50000000  0.50000000  0.50000000  1
  Ir  Ir0_0  1  0.16666650  0.33333350  0.25000000  1
  Ir  Ir0_1  1  0.16666650  0.33333350  0.75000000  1
  Ir  Ir0_2  1  0.16666650  0.83333350  0.25000000  1
  Ir  Ir0_3  1  0.16666650  0.83333350  0.75000000  1
  Ir  Ir0_4  1  0.66666650  0.33333350  0.25000000  1
  Ir  Ir0_5  1  0.66666650  0.33333350  0.75000000  1
  Ir  Ir0_6  1  0.66666650  0.83333350  0.25000000  1
  Ir  Ir0_7  1  0.66666650  0.83333350  0.75000000  1
loop_
_geom_bond_atom_site_label_1
_geom_bond_atom_site_label_2
_geom_bond_distance
_geom_bond_site_symmetry_2
Mo0_0 Mo0_6 2.792052 1_445
Mo0_0 Mo0_6 2.792052 1_555
Mo0_0 Mo0_4 2.792053 1_455
Mo0_0 Mo0_2 2.792053 1_555
Mo0_0 Mo0_4 2.792053 1_555
Mo0_0 Mo0_2 2.792053 1_545
Mo0_1 Mo0_7 2.792052 1_555
Mo0_1 Mo0_7 2.792052 1_445
Mo0_1 Mo0_3 2.792053 1_555
Mo0_1 Mo0_5 2.792053 1_555
Mo0_1 Mo0_3 2.792053 1_545
Mo0_1 Mo0_5 2.792053 1_455
Mo0_2 Mo0_4 2.792052 1_565
Mo0_2 Mo0_4 2.792052 1_455
Mo0_2 Mo0_6 2.792053 1_455
Mo0_2 Mo0_6 2.792053 1_555
Mo0_3 Mo0_5 2.792052 1_565
Mo0_3 Mo0_5 2.792052 1_455
Mo0_3 Mo0_7 2.792053 1_555
Mo0_3 Mo0_7 2.792053 1_455
Mo0_4 Mo0_6 2.792053 1_545
Mo0_4 Mo0_6 2.792053 1_555
Mo0_5 Mo0_7 2.792053 1_545
Mo0_5 Mo0_7 2.792053 1_555
Ir0_0 Mo0_2 2.755644 1_555
Ir0_0 Mo0_3 2.755644 1_555
Ir0_0 Mo0_0 2.755645 1_555
Ir0_0 Mo0_1 2.755645 1_555
Ir0_0 Mo0_7 2.755645 1_555
Ir0_0 Mo0_6 2.755645 1_555
Ir0_0 Ir0_6 2.792052 1_445
Ir0_0 Ir0_6 2.792052 1_555
Ir0_0 Ir0_4 2.792053 1_555
Ir0_0 Ir0_2 2.792053 1_545
Ir0_0 Ir0_2 2.792053 1_555
Ir0_0 Ir0_4 2.792053 1_455
Ir0_1 Mo0_2 2.755644 1_556
Ir0_1 Mo0_3 2.755644 1_555
Ir0_1 Mo0_0 2.755645 1_556
Ir0_1 Mo0_1 2.755645 1_555
Ir0_1 Mo0_7 2.755645 1_555
Ir0_1 Mo0_6 2.755645 1_556
Ir0_1 Ir0_7 2.792052 1_555
Ir0_1 Ir0_7 2.792052 1_445
Ir0_1 Ir0_5 2.792053 1_555
Ir0_1 Ir0_3 2.792053 1_545
Ir0_1 Ir0_5 2.792053 1_455
Ir0_1 Ir0_3 2.792053 1_555
Ir0_2 Mo0_1 2.755644 1_565
Ir0_2 Mo0_0 2.755644 1_565
Ir0_2 Mo0_3 2.755645 1_555
Ir0_2 Mo0_4 2.755645 1_565
Ir0_2 Mo0_5 2.755645 1_565
Ir0_2 Mo0_2 2.755645 1_555
Ir0_2 Ir0_4 2.792052 1_455
Ir0_2 Ir0_4 2.792052 1_565
Ir0_2 Ir0_6 2.792053 1_455
Ir0_2 Ir0_6 2.792053 1_555
Ir0_3 Mo0_0 2.755644 1_566
Ir0_3 Mo0_1 2.755644 1_565
Ir0_3 Mo0_4 2.755645 1_566
Ir0_3 Mo0_3 2.755645 1_555
Ir0_3 Mo0_2 2.755645 1_556
Ir0_3 Mo0_5 2.755645 1_565
Ir0_3 Ir0_5 2.792052 1_565
Ir0_3 Ir0_5 2.792052 1_455
Ir0_3 Ir0_7 2.792053 1_455
Ir0_3 Ir0_7 2.792053 1_555
Ir0_4 Mo0_6 2.755644 1_555
Ir0_4 Mo0_7 2.755644 1_555
Ir0_4 Mo0_4 2.755645 1_555
Ir0_4 Mo0_5 2.755645 1_555
Ir0_4 Mo0_3 2.755645 1_655
Ir0_4 Mo0_2 2.755645 1_655
Ir0_4 Ir0_6 2.792053 1_555
Ir0_4 Ir0_6 2.792053 1_545
Ir0_5 Mo0_6 2.755644 1_556
Ir0_5 Mo0_7 2.755644 1_555
Ir0_5 Mo0_4 2.755645 1_556
Ir0_5 Mo0_5 2.755645 1_555
Ir0_5 Mo0_2 2.755645 1_656
Ir0_5 Mo0_3 2.755645 1_655
Ir0_5 Ir0_7 2.792053 1_555
Ir0_5 Ir0_7 2.792053 1_545
Ir0_6 Mo0_4 2.755644 1_565
Ir0_6 Mo0_5 2.755644 1_565
Ir0_6 Mo0_6 2.755645 1_555
Ir0_6 Mo0_1 2.755645 1_665
Ir0_6 Mo0_7 2.755645 1_555
Ir0_6 Mo0_0 2.755645 1_665
Ir0_7 Mo0_4 2.755644 1_566
Ir0_7 Mo0_5 2.755644 1_565
Ir0_7 Mo0_6 2.755645 1_556
Ir0_7 Mo0_0 2.755645 1_666
Ir0_7 Mo0_1 2.755645 1_665
Ir0_7 Mo0_7 2.755645 1_555
