# generated using pymatgen
data_TaBRu
_symmetry_space_group_name_H-M   'P 1'
_cell_length_a   3.10739274
_cell_length_b   8.98147773
_cell_length_c   15.60996333
_cell_angle_alpha   90.00000000
_cell_angle_beta   90.00000000
_cell_angle_gamma   90.00000000
_symmetry_Int_Tables_number   1
_chemical_formula_structural   TaBRu
_chemical_formula_sum   'Ta12 B12 Ru12'
_cell_volume   435.65813397
_cell_formula_units_Z   12
loop_
 _symmetry_equiv_pos_site_id
 _symmetry_equiv_pos_as_xyz
  1  'x, y, z'
loop_
 _atom_site_type_symbol
 _atom_site_label
 _atom_site_symmetry_multiplicity
 _atom_site_fract_x
 _atom_site_fract_y
 _atom_site_fract_z
 _atom_site_occupancy
  Ta  Ta0  1  -0.00000000  0.80080069  0.49534311  1
  Ta  Ta1  1  0.00000000  0.19919931  0.50465689  1
  Ta  Ta2  1  -0.00000000  0.30080069  0.00465689  1
  Ta  Ta3  1  -0.00000000  0.69919931  0.99534311  1
  Ta  Ta4  1  -0.00000000  0.51438130  0.59451276  1
  Ta  Ta5  1  0.00000000  0.48561870  0.40548724  1
  Ta  Ta6  1  -0.00000000  0.01438130  0.90548724  1
  Ta  Ta7  1  0.00000000  0.98561870  0.09451276  1
  Ta  Ta8  1  -0.00000000  0.68743721  0.20296211  1
  Ta  Ta9  1  -0.00000000  0.31256279  0.79703789  1
  Ta  Ta10  1  0.00000000  0.18743721  0.29703789  1
  Ta  Ta11  1  0.00000000  0.81256279  0.70296211  1
  B  B0  1  0.50000000  0.60453016  0.49748698  1
  B  B1  1  0.50000000  0.39546984  0.50251302  1
  B  B2  1  0.50000000  0.10453016  0.00251302  1
  B  B3  1  0.50000000  0.89546984  0.99748698  1
  B  B4  1  -0.00000000  0.60885783  0.83216852  1
  B  B5  1  -0.00000000  0.39114217  0.16783148  1
  B  B6  1  -0.00000000  0.10885783  0.66783148  1
  B  B7  1  0.00000000  0.89114217  0.33216852  1
  B  B8  1  0.50000000  0.71391406  0.59855307  1
  B  B9  1  0.50000000  0.28608594  0.40144693  1
  B  B10  1  0.50000000  0.21391406  0.90144693  1
  B  B11  1  0.50000000  0.78608594  0.09855307  1
  Ru  Ru0  1  0.50000000  0.72109251  0.35556065  1
  Ru  Ru1  1  0.50000000  0.27890749  0.64443935  1
  Ru  Ru2  1  0.50000000  0.22109251  0.14443935  1
  Ru  Ru3  1  0.50000000  0.77890749  0.85556065  1
  Ru  Ru4  1  0.50000000  0.51574189  0.09466656  1
  Ru  Ru5  1  0.50000000  0.48425811  0.90533344  1
  Ru  Ru6  1  0.50000000  0.01574189  0.40533344  1
  Ru  Ru7  1  0.50000000  0.98425811  0.59466656  1
  Ru  Ru8  1  0.50000000  0.56134473  0.73524364  1
  Ru  Ru9  1  0.50000000  0.43865527  0.26475636  1
  Ru  Ru10  1  0.50000000  0.06134473  0.76475636  1
  Ru  Ru11  1  0.50000000  0.93865527  0.23524364  1
loop_
_geom_bond_atom_site_label_1
_geom_bond_atom_site_label_2
_geom_bond_distance
_geom_bond_site_symmetry_2
B0 B8 1.858523 1_555
B0 B1 1.879309 1_555
B0 Ta4 2.315914 1_655
B0 Ta4 2.315914 1_555
B0 Ta0 2.350012 1_555
B0 Ta0 2.350012 1_655
B0 Ta5 2.370025 1_655
B0 Ta5 2.370025 1_555
B0 Ru0 2.450365 1_555
B1 B9 1.858523 1_555
B1 Ta5 2.315914 1_555
B1 Ta5 2.315914 1_655
B1 Ta1 2.350012 1_555
B1 Ta1 2.350012 1_655
B1 Ta4 2.370025 1_555
B1 Ta4 2.370025 1_655
B1 Ru1 2.450365 1_555
B2 B3 1.879309 1_544
B2 Ta6 2.315914 1_654
B2 Ta6 2.315914 1_554
B2 Ta2 2.350012 1_555
B2 Ta2 2.350012 1_655
B2 Ta7 2.370025 1_545
B2 Ta7 2.370025 1_645
B2 Ru2 2.450365 1_555
B3 Ta7 2.315914 1_656
B3 Ta7 2.315914 1_556
B3 Ta3 2.350012 1_555
B3 Ta3 2.350012 1_655
B3 Ta6 2.370025 1_565
B3 Ta6 2.370025 1_665
B3 Ru3 2.450365 1_555
B4 Ru3 2.209060 1_555
B4 Ru3 2.209060 1_455
B4 Ru8 2.210255 1_555
B4 Ru8 2.210255 1_455
B4 Ru5 2.229513 1_455
B4 Ru5 2.229513 1_555
B4 Ta3 2.673264 1_555
B4 Ta9 2.717083 1_555
B4 Ta11 2.723095 1_555
B5 Ru2 2.209060 1_555
B5 Ru2 2.209060 1_455
B5 Ru9 2.210255 1_555
B5 Ru9 2.210255 1_455
B5 Ru4 2.229513 1_455
B5 Ru4 2.229513 1_555
B5 Ta2 2.673264 1_555
B5 Ta8 2.717083 1_555
B5 Ta10 2.723095 1_555
B6 Ru1 2.209060 1_455
B6 Ru1 2.209060 1_555
B6 Ru10 2.210255 1_455
B6 Ru10 2.210255 1_555
B6 Ru7 2.229513 1_445
B6 Ru7 2.229513 1_545
B6 Ta1 2.673264 1_555
B6 Ta11 2.717083 1_545
B6 Ta9 2.723095 1_555
B7 Ru0 2.209060 1_555
B7 Ru0 2.209060 1_455
B7 Ru11 2.210255 1_555
B7 Ru11 2.210255 1_455
B7 Ru6 2.229513 1_565
B7 Ru6 2.229513 1_465
B7 Ta0 2.673264 1_555
B7 Ta10 2.717083 1_565
B7 Ta8 2.723095 1_555
B8 Ta0 2.370360 1_655
B8 Ta0 2.370360 1_555
B8 Ta4 2.372671 1_555
B8 Ta4 2.372671 1_655
B8 Ta11 2.419774 1_655
B8 Ta11 2.419774 1_555
B8 Ru7 2.428847 1_555
B8 Ru8 2.535851 1_555
B9 Ta1 2.370360 1_555
B9 Ta1 2.370360 1_655
B9 Ta5 2.372671 1_555
B9 Ta5 2.372671 1_655
B9 Ta10 2.419774 1_555
B9 Ta10 2.419774 1_655
B9 Ru6 2.428847 1_555
B9 Ru9 2.535851 1_555
B10 B2 1.858523 1_556
B10 Ta2 2.370360 1_656
B10 Ta2 2.370360 1_556
B10 Ta6 2.372671 1_555
B10 Ta6 2.372671 1_655
B10 Ta9 2.419774 1_655
B10 Ta9 2.419774 1_555
B10 Ru5 2.428847 1_555
B10 Ru10 2.535851 1_555
B11 B3 1.858523 1_554
B11 Ta3 2.370360 1_554
B11 Ta3 2.370360 1_654
B11 Ta7 2.372671 1_655
B11 Ta7 2.372671 1_555
B11 Ta8 2.419774 1_655
B11 Ta8 2.419774 1_555
B11 Ru4 2.428847 1_555
B11 Ru11 2.535851 1_555
Ru0 Ta5 2.737549 1_655
Ru0 Ta5 2.737549 1_555
Ru0 Ta0 2.772652 1_555
Ru0 Ta0 2.772652 1_655
Ru0 Ta8 2.859990 1_555
Ru0 Ta8 2.859990 1_655
Ru1 Ta4 2.737549 1_555
Ru1 Ta4 2.737549 1_655
Ru1 Ta1 2.772652 1_655
Ru1 Ta1 2.772652 1_555
Ru1 Ta9 2.859990 1_555
Ru1 Ta9 2.859990 1_655
Ru2 Ta7 2.737549 1_645
Ru2 Ta7 2.737549 1_545
Ru2 Ta2 2.772652 1_555
Ru2 Ta2 2.772652 1_655
Ru2 Ta10 2.859990 1_555
Ru2 Ta10 2.859990 1_655
Ru3 Ta6 2.737549 1_565
Ru3 Ta6 2.737549 1_665
Ru3 Ta3 2.772652 1_555
Ru3 Ta3 2.772652 1_655
Ru3 Ta11 2.859990 1_655
Ru3 Ta11 2.859990 1_555
Ru4 Ta3 2.744595 1_654
Ru4 Ta3 2.744595 1_554
Ru4 Ta8 2.765815 1_655
Ru4 Ta8 2.765815 1_555
Ru4 Ta2 2.848670 1_555
Ru4 Ta2 2.848670 1_655
Ru5 Ta2 2.744595 1_656
Ru5 Ta2 2.744595 1_556
Ru5 Ta9 2.765815 1_555
Ru5 Ta9 2.765815 1_655
Ru5 Ta3 2.848670 1_555
Ru5 Ta3 2.848670 1_655
Ru6 Ta1 2.744595 1_655
Ru6 Ta1 2.744595 1_555
Ru6 Ta10 2.765815 1_555
Ru6 Ta10 2.765815 1_655
Ru6 Ta0 2.848670 1_545
Ru6 Ta0 2.848670 1_645
Ru7 Ta0 2.744595 1_655
Ru7 Ta0 2.744595 1_555
Ru7 Ta11 2.765815 1_555
Ru7 Ta11 2.765815 1_655
Ru7 Ta1 2.848670 1_665
Ru7 Ta1 2.848670 1_565
Ru8 Ta4 2.723570 1_555
Ru8 Ta4 2.723570 1_655
Ru8 Ta11 2.785468 1_655
Ru8 Ta11 2.785468 1_555
Ru8 Ta9 2.887406 1_555
Ru8 Ta9 2.887406 1_655
Ru9 Ta5 2.723570 1_555
Ru9 Ta5 2.723570 1_655
Ru9 Ta10 2.785468 1_555
Ru9 Ta10 2.785468 1_655
Ru9 Ta8 2.887406 1_655
Ru9 Ta8 2.887406 1_555
Ru10 Ta6 2.723570 1_555
Ru10 Ta6 2.723570 1_655
Ru10 Ta9 2.785468 1_555
Ru10 Ta9 2.785468 1_655
Ru10 Ta11 2.887406 1_645
Ru10 Ta11 2.887406 1_545
Ru11 Ta7 2.723570 1_555
Ru11 Ta7 2.723570 1_655
Ru11 Ta8 2.785468 1_655
Ru11 Ta8 2.785468 1_555
Ru11 Ta10 2.887406 1_665
Ru11 Ta10 2.887406 1_565
