# generated using pymatgen
data_MnBiO3
_symmetry_space_group_name_H-M   'P 1'
_cell_length_a   5.57817700
_cell_length_b   9.81660800
_cell_length_c   10.02221537
_cell_angle_alpha   68.60764875
_cell_angle_beta   90.00000000
_cell_angle_gamma   90.00000000
_symmetry_Int_Tables_number   1
_chemical_formula_structural   MnBiO3
_chemical_formula_sum   'Mn8 Bi8 O24'
_cell_volume   510.99412175
_cell_formula_units_Z   8
loop_
 _symmetry_equiv_pos_site_id
 _symmetry_equiv_pos_as_xyz
  1  'x, y, z'
loop_
 _atom_site_type_symbol
 _atom_site_label
 _atom_site_symmetry_multiplicity
 _atom_site_fract_x
 _atom_site_fract_y
 _atom_site_fract_z
 _atom_site_occupancy
  Mn  Mn0  1  0.50000000  0.00000000  0.50000000  1
  Mn  Mn1  1  0.00000000  0.00000000  0.00000000  1
  Mn  Mn2  1  0.50000000  0.50000000  0.00000000  1
  Mn  Mn3  1  0.00000000  0.50000000  0.50000000  1
  Mn  Mn4  1  0.47595800  0.25334600  0.75820700  1
  Mn  Mn5  1  0.97595800  0.74665400  0.74179300  1
  Mn  Mn6  1  0.52404200  0.74665400  0.24179300  1
  Mn  Mn7  1  0.02404200  0.25334600  0.25820700  1
  Bi  Bi0  1  0.02148900  0.37717600  0.85856500  1
  Bi  Bi1  1  0.52148900  0.62282400  0.64143500  1
  Bi  Bi2  1  0.97851100  0.62282400  0.14143500  1
  Bi  Bi3  1  0.47851100  0.37717600  0.35856500  1
  Bi  Bi4  1  0.46898000  0.11256000  0.12415600  1
  Bi  Bi5  1  0.96898000  0.88744000  0.37584400  1
  Bi  Bi6  1  0.53102000  0.88744000  0.87584400  1
  Bi  Bi7  1  0.03102000  0.11256000  0.62415600  1
  O  O0  1  0.56100100  0.66457800  0.05817400  1
  O  O1  1  0.06100100  0.33542200  0.44182600  1
  O  O2  1  0.43899900  0.33542200  0.94182600  1
  O  O3  1  0.93899900  0.66457800  0.55817400  1
  O  O4  1  0.56394100  0.86830200  0.39146300  1
  O  O5  1  0.06394100  0.13169800  0.10853700  1
  O  O6  1  0.43605900  0.13169800  0.60853700  1
  O  O7  1  0.93605900  0.86830200  0.89146300  1
  O  O8  1  0.67297700  0.85546000  0.66418300  1
  O  O9  1  0.17297700  0.14454000  0.83581700  1
  O  O10  1  0.32702300  0.14454000  0.33581700  1
  O  O11  1  0.82702300  0.85546000  0.16418300  1
  O  O12  1  0.16899600  0.89856000  0.60376200  1
  O  O13  1  0.66899600  0.10144000  0.89623800  1
  O  O14  1  0.83100400  0.10144000  0.39623800  1
  O  O15  1  0.33100400  0.89856000  0.10376200  1
  O  O16  1  0.23664600  0.60961000  0.82754200  1
  O  O17  1  0.73664600  0.39039000  0.67245800  1
  O  O18  1  0.76335400  0.39039000  0.17245800  1
  O  O19  1  0.26335400  0.60961000  0.32754200  1
  O  O20  1  0.25314200  0.42056100  0.15902600  1
  O  O21  1  0.75314200  0.57943900  0.34097400  1
  O  O22  1  0.74685800  0.57943900  0.84097400  1
  O  O23  1  0.24685800  0.42056100  0.65902600  1
loop_
_geom_bond_atom_site_label_1
_geom_bond_atom_site_label_2
_geom_bond_distance
_geom_bond_site_symmetry_2
Mn0 O10 1.987124 1_555
Mn0 O8 1.987124 1_545
Mn0 O4 2.001949 1_545
Mn0 O6 2.001949 1_555
Mn0 O12 2.174121 1_545
Mn0 O14 2.174121 1_555
Mn1 O9 1.987124 1_554
Mn1 O11 1.987124 1_445
Mn1 O7 2.001949 1_444
Mn1 O5 2.001949 1_555
Mn1 O15 2.174121 1_545
Mn1 O13 2.174121 1_454
Mn2 O2 1.937272 1_554
Mn2 O0 1.937272 1_555
Mn2 O22 2.034156 1_554
Mn2 O20 2.034156 1_555
Mn2 O18 2.224080 1_555
Mn2 O16 2.224080 1_554
Mn3 O3 1.937272 1_455
Mn3 O1 1.937272 1_555
Mn3 O23 2.034156 1_555
Mn3 O21 2.034156 1_455
Mn3 O19 2.224080 1_555
Mn3 O17 2.224080 1_455
Mn4 O13 1.947311 1_555
Mn4 O17 1.954376 1_555
Mn4 O9 1.999041 1_555
Mn4 O23 2.031111 1_555
Mn4 O6 2.243302 1_555
Mn4 O2 2.271544 1_555
Mn5 O12 1.947311 1_655
Mn5 O16 1.954376 1_655
Mn5 O8 1.999041 1_555
Mn5 O22 2.031111 1_555
Mn5 O7 2.243302 1_555
Mn5 O3 2.271544 1_555
Mn6 O15 1.947311 1_555
Mn6 O19 1.954376 1_555
Mn6 O11 1.999041 1_555
Mn6 O21 2.031111 1_555
Mn6 O4 2.243302 1_555
Mn6 O0 2.271544 1_555
Mn7 O14 1.947311 1_455
Mn7 O18 1.954376 1_455
Mn7 O10 1.999041 1_555
Mn7 O20 2.031111 1_555
Mn7 O5 2.243302 1_555
Mn7 O1 2.271544 1_555
Bi0 O23 2.267106 1_555
Bi0 O17 2.417422 1_455
Bi0 O2 2.457396 1_555
Bi0 O22 2.462705 1_455
Bi0 O16 2.495155 1_555
Bi0 O9 2.522129 1_555
Bi0 O5 2.781244 1_556
Bi1 O22 2.267106 1_555
Bi1 O16 2.417422 1_555
Bi1 O3 2.457396 1_555
Bi1 O23 2.462705 1_555
Bi1 O17 2.495155 1_555
Bi1 O8 2.522129 1_555
Bi1 O4 2.781244 1_555
Bi2 O21 2.267106 1_555
Bi2 O19 2.417422 1_655
Bi2 O0 2.457396 1_555
Bi2 O20 2.462705 1_655
Bi2 O18 2.495155 1_555
Bi2 O11 2.522129 1_555
Bi2 O7 2.781244 1_554
Bi3 O20 2.267106 1_555
Bi3 O18 2.417422 1_555
Bi3 O1 2.457396 1_555
Bi3 O21 2.462705 1_555
Bi3 O19 2.495155 1_555
Bi3 O10 2.522129 1_555
Bi3 O6 2.781244 1_555
Bi4 O5 2.267849 1_555
Bi4 O2 2.288454 1_554
Bi4 O15 2.315286 1_545
Bi4 O10 2.389850 1_555
Bi4 O13 2.580005 1_554
Bi5 O4 2.267849 1_555
Bi5 O3 2.288454 1_555
Bi5 O14 2.315286 1_565
Bi5 O11 2.389850 1_555
Bi5 O12 2.580005 1_655
Bi6 O7 2.267849 1_555
Bi6 O0 2.288454 1_556
Bi6 O13 2.315286 1_565
Bi6 O8 2.389850 1_555
Bi6 O15 2.580005 1_556
Bi7 O6 2.267849 1_555
Bi7 O1 2.288454 1_555
Bi7 O12 2.315286 1_545
Bi7 O9 2.389850 1_555
Bi7 O14 2.580005 1_455
