# generated using pymatgen
data_Sr2AlGaCu2O7
_symmetry_space_group_name_H-M   'P 1'
_cell_length_a   12.17940898
_cell_length_b   12.17940898
_cell_length_c   5.29360894
_cell_angle_alpha   77.58482089
_cell_angle_beta   77.58482089
_cell_angle_gamma   25.65454766
_symmetry_Int_Tables_number   1
_chemical_formula_structural   Sr2AlGaCu2O7
_chemical_formula_sum   'Sr4 Al2 Ga2 Cu4 O14'
_cell_volume   331.59915077
_cell_formula_units_Z   2
loop_
 _symmetry_equiv_pos_site_id
 _symmetry_equiv_pos_as_xyz
  1  'x, y, z'
loop_
 _atom_site_type_symbol
 _atom_site_label
 _atom_site_symmetry_multiplicity
 _atom_site_fract_x
 _atom_site_fract_y
 _atom_site_fract_z
 _atom_site_occupancy
  Sr  Sr0  1  0.13592600  0.66428900  0.85207200  1
  Sr  Sr1  1  0.87011700  0.33033200  0.16078500  1
  Sr  Sr2  1  0.66428900  0.13592600  0.35207200  1
  Sr  Sr3  1  0.33033200  0.87011700  0.66078500  1
  Al  Al0  1  0.49078800  0.00899100  0.48699100  1
  Al  Al1  1  0.00899100  0.49078800  0.98699100  1
  Ga  Ga0  1  0.68131200  0.31905600  0.71023900  1
  Ga  Ga1  1  0.31905600  0.68131200  0.21023900  1
  Cu  Cu0  1  0.93913700  0.44512500  0.56224400  1
  Cu  Cu1  1  0.55782500  0.05851100  0.93419000  1
  Cu  Cu2  1  0.44512500  0.93913700  0.06224400  1
  Cu  Cu3  1  0.05851000  0.55782500  0.43419000  1
  O  O0  1  0.72868800  0.87413300  0.62012000  1
  O  O1  1  0.64614500  0.35439100  0.35101000  1
  O  O2  1  0.87413300  0.72868800  0.12012000  1
  O  O3  1  0.29333200  0.85690500  0.20078200  1
  O  O4  1  0.77599500  0.61086700  0.89154300  1
  O  O5  1  0.61086700  0.77599500  0.39154300  1
  O  O6  1  0.35439100  0.64614500  0.85101000  1
  O  O7  1  0.13856600  0.26046000  0.23887600  1
  O  O8  1  0.26046000  0.13856600  0.73887600  1
  O  O9  1  0.85690500  0.29333200  0.70078200  1
  O  O10  1  0.71062700  0.13965700  0.84530700  1
  O  O11  1  0.13965700  0.71062700  0.34530700  1
  O  O12  1  0.23074600  0.38245800  0.76410600  1
  O  O13  1  0.38245800  0.23074600  0.26410600  1
loop_
_geom_bond_atom_site_label_1
_geom_bond_atom_site_label_2
_geom_bond_distance
_geom_bond_site_symmetry_2
Al0 O5 1.806563 1_545
Al0 O13 1.817198 1_555
Al0 O0 1.841260 1_545
Al0 O8 1.858225 1_555
Al1 O4 1.806563 1_455
Al1 O12 1.817198 1_555
Al1 O2 1.841260 1_456
Al1 O7 1.858225 1_556
Ga0 O9 1.851242 1_555
Ga0 O10 1.855907 1_555
Ga0 O1 1.910713 1_555
Ga0 O6 1.919196 1_555
Ga1 O3 1.851242 1_555
Ga1 O11 1.855907 1_555
Ga1 O6 1.910713 1_554
Ga1 O1 1.919196 1_555
Cu0 O4 1.963215 1_555
Cu0 O8 1.964628 1_655
Cu0 O7 1.976676 1_655
Cu0 O5 1.995443 1_555
Cu0 O9 2.719944 1_555
Cu1 O0 1.957099 1_545
Cu1 O13 1.976422 1_556
Cu1 O12 1.981332 1_555
Cu1 O2 1.994312 1_546
Cu1 O10 2.720491 1_555
Cu2 O5 1.963215 1_555
Cu2 O7 1.964628 1_565
Cu2 O8 1.976676 1_564
Cu2 O4 1.995443 1_554
Cu2 O3 2.719944 1_555
Cu3 O2 1.957095 1_455
Cu3 O12 1.976425 1_555
Cu3 O13 1.981333 1_555
Cu3 O0 1.994310 1_455
Cu3 O11 2.720503 1_555
O0 Sr2 2.611422 1_565
O1 Sr1 2.458802 1_555
O1 Sr2 2.462243 1_555
O2 Sr0 2.611422 1_654
O3 Sr1 2.494582 1_465
O3 Sr3 2.632418 1_555
O3 Sr3 2.789127 1_554
O3 Sr1 3.040684 1_555
O4 Sr1 2.562599 1_556
O5 Sr3 2.562599 1_555
O6 Sr3 2.458802 1_555
O6 Sr0 2.462243 1_555
O7 Sr1 2.645513 1_455
O8 Sr3 2.645513 1_545
O9 Sr3 2.494582 1_645
O9 Sr1 2.632418 1_556
O9 Sr1 2.789127 1_555
O9 Sr3 3.040684 1_555
O10 Sr0 2.505304 1_645
O10 Sr2 2.619127 1_556
O10 Sr2 2.805126 1_555
O10 Sr0 3.030124 1_555
O11 Sr2 2.505304 1_465
O11 Sr0 2.619127 1_555
O11 Sr0 2.805126 1_554
O11 Sr2 3.030124 1_555
O12 Sr0 2.577263 1_555
O13 Sr2 2.577263 1_555
