# generated using pymatgen
data_BaCa(CoN2)2
_symmetry_space_group_name_H-M   'P 1'
_cell_length_a   8.02607500
_cell_length_b   8.10250500
_cell_length_c   12.62453100
_cell_angle_alpha   90.00000000
_cell_angle_beta   90.00000000
_cell_angle_gamma   90.00000000
_symmetry_Int_Tables_number   1
_chemical_formula_structural   BaCa(CoN2)2
_chemical_formula_sum   'Ba4 Ca4 Co8 N16'
_cell_volume   820.98982464
_cell_formula_units_Z   4
loop_
 _symmetry_equiv_pos_site_id
 _symmetry_equiv_pos_as_xyz
  1  'x, y, z'
loop_
 _atom_site_type_symbol
 _atom_site_label
 _atom_site_symmetry_multiplicity
 _atom_site_fract_x
 _atom_site_fract_y
 _atom_site_fract_z
 _atom_site_occupancy
  Ba  Ba0  1  0.73211900  0.28518900  0.41367700  1
  Ba  Ba1  1  0.23211900  0.78518900  0.08632300  1
  Ba  Ba2  1  0.73211900  0.21481100  0.91367700  1
  Ba  Ba3  1  0.23211900  0.71481100  0.58632300  1
  Ca  Ca0  1  0.11934700  0.35113700  0.19615500  1
  Ca  Ca1  1  0.61934700  0.64886300  0.80384500  1
  Ca  Ca2  1  0.61934700  0.85113700  0.30384500  1
  Ca  Ca3  1  0.11934700  0.14886300  0.69615500  1
  Co  Co0  1  0.35669200  0.12694000  0.48604700  1
  Co  Co1  1  0.85669200  0.62694000  0.01395300  1
  Co  Co2  1  0.15396600  0.16021600  0.98355000  1
  Co  Co3  1  0.65396600  0.83978400  0.01645000  1
  Co  Co4  1  0.85669200  0.87306000  0.51395300  1
  Co  Co5  1  0.65396600  0.66021600  0.51645000  1
  Co  Co6  1  0.15396600  0.33978400  0.48355000  1
  Co  Co7  1  0.35669200  0.37306000  0.98604700  1
  N  N0  1  0.84725400  0.95858900  0.39682200  1
  N  N1  1  0.61141300  0.90156700  0.89635700  1
  N  N2  1  0.95440700  0.91961500  0.62110800  1
  N  N3  1  0.61141300  0.59843300  0.39635700  1
  N  N4  1  0.55767600  0.87369000  0.12590400  1
  N  N5  1  0.05767600  0.12631000  0.87409600  1
  N  N6  1  0.34725400  0.45858900  0.10317800  1
  N  N7  1  0.11141300  0.40156700  0.60364300  1
  N  N8  1  0.34725400  0.04141100  0.60317800  1
  N  N9  1  0.11141300  0.09843300  0.10364300  1
  N  N10  1  0.84725400  0.54141100  0.89682200  1
  N  N11  1  0.05767600  0.37369000  0.37409600  1
  N  N12  1  0.45440700  0.41961500  0.87889200  1
  N  N13  1  0.45440700  0.08038500  0.37889200  1
  N  N14  1  0.55767600  0.62631000  0.62590400  1
  N  N15  1  0.95440700  0.58038500  0.12110800  1
loop_
_geom_bond_atom_site_label_1
_geom_bond_atom_site_label_2
_geom_bond_distance
_geom_bond_site_symmetry_2
Ba0 N3 2.725459 1_555
Ba0 N11 2.755245 1_655
Ba0 N0 2.811049 1_545
Ba0 N13 2.813308 1_555
Ba1 N9 2.725459 1_565
Ba1 N4 2.755245 1_555
Ba1 N6 2.811049 1_555
Ba1 N15 2.813308 1_455
Ba2 N1 2.725459 1_545
Ba2 N5 2.755245 1_655
Ba2 N10 2.811049 1_555
Ba2 N12 2.813308 1_555
Ba3 N7 2.725459 1_555
Ba3 N14 2.755245 1_555
Ba3 N8 2.811049 1_565
Ba3 N2 2.813308 1_455
Ca0 N11 2.307554 1_555
Ca0 N6 2.341314 1_555
Ca0 N9 2.358070 1_555
Ca0 N15 2.469894 1_455
Ca1 N14 2.307554 1_555
Ca1 N10 2.341314 1_555
Ca1 N1 2.358070 1_555
Ca1 N12 2.469894 1_555
Ca2 N4 2.307554 1_555
Ca2 N0 2.341314 1_555
Ca2 N3 2.358070 1_555
Ca2 N13 2.469894 1_565
Ca3 N5 2.307554 1_555
Ca3 N8 2.341314 1_555
Ca3 N7 2.358070 1_555
Ca3 N2 2.469894 1_445
Co0 N13 1.608535 1_555
Co0 N8 1.634812 1_555
Co1 N15 1.608535 1_555
Co1 N10 1.634812 1_554
Co2 N5 1.606900 1_555
Co2 N9 1.632745 1_556
Co3 N4 1.606900 1_555
Co3 N1 1.632745 1_554
Co4 N2 1.608535 1_555
Co4 N0 1.634812 1_555
Co5 N14 1.606900 1_555
Co5 N3 1.632745 1_555
Co6 N11 1.606900 1_555
Co6 N7 1.632745 1_555
Co7 N12 1.608535 1_555
Co7 N6 1.634812 1_556
