# generated using pymatgen
data_LaTmS3
_symmetry_space_group_name_H-M   'P 1'
_cell_length_a   3.99324770
_cell_length_b   11.05744785
_cell_length_c   21.55754485
_cell_angle_alpha   78.68861920
_cell_angle_beta   90.00000000
_cell_angle_gamma   90.00000000
_symmetry_Int_Tables_number   1
_chemical_formula_structural   LaTmS3
_chemical_formula_sum   'La8 Tm8 S24'
_cell_volume   933.38664576
_cell_formula_units_Z   8
loop_
 _symmetry_equiv_pos_site_id
 _symmetry_equiv_pos_as_xyz
  1  'x, y, z'
loop_
 _atom_site_type_symbol
 _atom_site_label
 _atom_site_symmetry_multiplicity
 _atom_site_fract_x
 _atom_site_fract_y
 _atom_site_fract_z
 _atom_site_occupancy
  La  La0  1  0.25000000  0.30091406  0.76518829  1
  La  La1  1  0.75000000  0.69908594  0.23481171  1
  La  La2  1  0.25000000  0.90829965  0.86547574  1
  La  La3  1  0.75000000  0.09170035  0.13452426  1
  La  La4  1  0.25000000  0.68998214  0.73375171  1
  La  La5  1  0.75000000  0.31001786  0.26624829  1
  La  La6  1  0.25000000  0.79982859  0.53581803  1
  La  La7  1  0.75000000  0.20017141  0.46418197  1
  Tm  Tm0  1  0.25000000  0.55266027  0.41681267  1
  Tm  Tm1  1  0.75000000  0.44733973  0.58318733  1
  Tm  Tm2  1  0.25000000  0.97200472  0.34978115  1
  Tm  Tm3  1  0.75000000  0.02799528  0.65021885  1
  Tm  Tm4  1  0.25000000  0.81779503  0.04680506  1
  Tm  Tm5  1  0.75000000  0.18220497  0.95319494  1
  Tm  Tm6  1  0.25000000  0.47812926  0.08664931  1
  Tm  Tm7  1  0.75000000  0.52187074  0.91335069  1
  S  S0  1  0.25000000  0.08752688  0.03405609  1
  S  S1  1  0.75000000  0.91247312  0.96594391  1
  S  S2  1  0.25000000  0.20460732  0.36487114  1
  S  S3  1  0.75000000  0.79539268  0.63512886  1
  S  S4  1  0.25000000  0.74664933  0.32633470  1
  S  S5  1  0.75000000  0.25335067  0.67366530  1
  S  S6  1  0.25000000  0.63379215  0.96458978  1
  S  S7  1  0.75000000  0.36620785  0.03541022  1
  S  S8  1  0.25000000  0.50788550  0.21949881  1
  S  S9  1  0.75000000  0.49211450  0.78050119  1
  S  S10  1  0.25000000  0.25383091  0.17181062  1
  S  S11  1  0.75000000  0.74616909  0.82818938  1
  S  S12  1  0.25000000  0.87498415  0.16205872  1
  S  S13  1  0.75000000  0.12501585  0.83794128  1
  S  S14  1  0.25000000  0.35855922  0.51379457  1
  S  S15  1  0.75000000  0.64144078  0.48620543  1
  S  S16  1  0.25000000  0.05753647  0.55773476  1
  S  S17  1  0.75000000  0.94246353  0.44226524  1
  S  S18  1  0.25000000  0.96483485  0.72947182  1
  S  S19  1  0.75000000  0.03516515  0.27052818  1
  S  S20  1  0.25000000  0.54365802  0.63414525  1
  S  S21  1  0.75000000  0.45634198  0.36585475  1
  S  S22  1  0.25000000  0.34291223  0.90208209  1
  S  S23  1  0.75000000  0.65708777  0.09791791  1
loop_
_geom_bond_atom_site_label_1
_geom_bond_atom_site_label_2
_geom_bond_distance
_geom_bond_site_symmetry_2
La0 S5 2.926250 1_555
La0 S5 2.926250 1_455
La0 S9 2.973054 1_455
La0 S9 2.973054 1_555
La0 S13 3.005434 1_555
La0 S13 3.005434 1_455
La0 S22 3.076073 1_555
La0 S20 3.494349 1_555
La1 S4 2.926250 1_655
La1 S4 2.926250 1_555
La1 S8 2.973054 1_655
La1 S8 2.973054 1_555
La1 S12 3.005434 1_555
La1 S12 3.005434 1_655
La1 S23 3.076073 1_555
La1 S21 3.494349 1_555
La2 S18 2.875396 1_555
La2 S11 2.900318 1_455
La2 S11 2.900318 1_555
La2 S1 2.952751 1_455
La2 S1 2.952751 1_555
La2 S13 3.085975 1_565
La2 S13 3.085975 1_465
La2 S6 3.351793 1_555
La3 S19 2.875396 1_555
La3 S10 2.900318 1_555
La3 S10 2.900318 1_655
La3 S0 2.952751 1_555
La3 S0 2.952751 1_655
La3 S12 3.085975 1_645
La3 S12 3.085975 1_545
La3 S7 3.351793 1_555
La4 S20 2.931122 1_555
La4 S3 2.982133 1_455
La4 S3 2.982133 1_555
La4 S9 2.987332 1_555
La4 S9 2.987332 1_455
La4 S11 3.002222 1_455
La4 S11 3.002222 1_555
La4 S18 3.022427 1_555
La5 S21 2.931122 1_555
La5 S2 2.982133 1_655
La5 S2 2.982133 1_555
La5 S8 2.987332 1_555
La5 S8 2.987332 1_655
La5 S10 3.002222 1_555
La5 S10 3.002222 1_655
La5 S19 3.022427 1_555
La6 S3 2.920815 1_455
La6 S3 2.920815 1_555
La6 S16 2.978514 1_565
La6 S15 2.988723 1_455
La6 S15 2.988723 1_555
La6 S17 3.048538 1_555
La6 S17 3.048538 1_455
La6 S20 3.187684 1_555
La7 S2 2.920815 1_555
La7 S2 2.920815 1_655
La7 S17 2.978514 1_545
La7 S14 2.988723 1_655
La7 S14 2.988723 1_555
La7 S16 3.048538 1_655
La7 S16 3.048538 1_555
La7 S21 3.187684 1_555
S0 Tm5 2.721260 1_454
S0 Tm5 2.721260 1_554
S0 Tm4 2.941013 1_545
S1 Tm4 2.721260 1_556
S1 Tm4 2.721260 1_656
S1 Tm5 2.941013 1_565
S2 Tm2 2.655028 1_545
S3 Tm3 2.655028 1_565
S4 Tm0 2.600821 1_555
S4 Tm2 2.637973 1_555
S5 Tm1 2.600821 1_555
S5 Tm3 2.637973 1_555
S6 Tm7 2.697117 1_455
S6 Tm7 2.697117 1_555
S6 Tm6 2.847758 1_556
S6 Tm4 2.948805 1_556
S7 Tm6 2.697117 1_555
S7 Tm6 2.697117 1_655
S7 Tm7 2.847758 1_554
S7 Tm5 2.948805 1_554
S8 Tm6 2.946164 1_555
S9 Tm7 2.946164 1_555
S10 Tm6 2.781273 1_555
S11 Tm7 2.781273 1_555
S12 Tm4 2.681305 1_555
S13 Tm5 2.681305 1_555
S14 Tm0 2.686484 1_555
S14 Tm1 2.786418 1_455
S14 Tm1 2.786418 1_555
S15 Tm1 2.686484 1_555
S15 Tm0 2.786418 1_555
S15 Tm0 2.786418 1_655
S16 Tm3 2.795119 1_455
S16 Tm3 2.795119 1_555
S17 Tm2 2.795119 1_655
S17 Tm2 2.795119 1_555
S18 Tm3 2.631569 1_465
S18 Tm3 2.631569 1_565
S19 Tm2 2.631569 1_645
S19 Tm2 2.631569 1_545
S20 Tm1 2.605096 1_455
S20 Tm1 2.605096 1_555
S21 Tm0 2.605096 1_555
S21 Tm0 2.605096 1_655
S22 Tm5 2.755048 1_455
S22 Tm5 2.755048 1_555
S22 Tm7 2.854792 1_555
S22 Tm7 2.854792 1_455
S23 Tm4 2.755048 1_555
S23 Tm4 2.755048 1_655
S23 Tm6 2.854792 1_555
S23 Tm6 2.854792 1_655
