# generated using pymatgen
data_Sr5CaAl2(O4F)2
_symmetry_space_group_name_H-M   'P 1'
_cell_length_a   6.77312776
_cell_length_b   6.77312776
_cell_length_c   7.39014551
_cell_angle_alpha   62.36203803
_cell_angle_beta   62.36203803
_cell_angle_gamma   89.29616662
_symmetry_Int_Tables_number   1
_chemical_formula_structural   Sr5CaAl2(O4F)2
_chemical_formula_sum   'Sr5 Ca1 Al2 O8 F2'
_cell_volume   257.02482383
_cell_formula_units_Z   1
loop_
 _symmetry_equiv_pos_site_id
 _symmetry_equiv_pos_as_xyz
  1  'x, y, z'
loop_
 _atom_site_type_symbol
 _atom_site_label
 _atom_site_symmetry_multiplicity
 _atom_site_fract_x
 _atom_site_fract_y
 _atom_site_fract_z
 _atom_site_occupancy
  Sr  Sr0  1  0.25229000  0.24771000  0.50000000  1
  Sr  Sr1  1  0.75229000  0.74771000  0.50000000  1
  Sr  Sr2  1  0.16486800  0.33513200  0.00000000  1
  Sr  Sr3  1  0.66837500  0.16856800  0.00000000  1
  Sr  Sr4  1  0.33143200  0.83162500  0.00000000  1
  Ca  Ca0  1  0.82545600  0.67454400  0.00000000  1
  Al  Al0  1  0.75087300  0.24899400  0.50013200  1
  Al  Al1  1  0.25100600  0.74912700  0.49986800  1
  O  O0  1  0.21015900  0.99561500  0.29422600  1
  O  O1  1  0.50052200  0.70746300  0.29201500  1
  O  O2  1  0.99245800  0.49609700  0.29439300  1
  O  O3  1  0.70951000  0.21314900  0.29439300  1
  O  O4  1  0.79253700  0.99947800  0.70798500  1
  O  O5  1  0.50438500  0.28984100  0.70577400  1
  O  O6  1  0.00390300  0.50754200  0.70560700  1
  O  O7  1  0.28685100  0.79049000  0.70560700  1
  F  F0  1  0.50692500  0.50384000  0.00000000  1
  F  F1  1  0.99616000  0.99307500  0.00000000  1
loop_
_geom_bond_atom_site_label_1
_geom_bond_atom_site_label_2
_geom_bond_distance
_geom_bond_site_symmetry_2
Ca0 O1 2.361866 1_555
Ca0 O4 2.361866 1_554
Ca0 F0 2.460219 1_555
Ca0 F1 2.460219 1_555
Ca0 O2 2.698792 1_555
Ca0 O6 2.698792 1_654
Ca0 O7 2.698792 1_654
Ca0 O3 2.698792 1_555
Al0 O3 1.785640 1_555
Al0 O2 1.785647 1_555
Al0 O5 1.788336 1_555
Al0 O4 1.810316 1_545
Al1 O7 1.785640 1_555
Al1 O6 1.785647 1_555
Al1 O0 1.788336 1_555
Al1 O1 1.810316 1_555
O0 Sr2 2.464272 1_565
O0 Sr4 2.682825 1_555
O0 Sr3 2.682826 1_565
O0 Sr0 2.851838 1_565
O0 Sr1 2.851838 1_455
O1 Sr4 2.694730 1_555
O1 Sr3 2.694730 1_565
O1 Sr1 2.859470 1_555
O1 Sr0 2.859470 1_555
O2 Sr4 2.464950 1_655
O2 Sr2 2.664167 1_655
O2 Sr1 2.810762 1_555
O2 Sr0 2.876248 1_655
O3 Sr3 2.464950 1_555
O3 Sr2 2.664168 1_655
O3 Sr0 2.810762 1_555
O3 Sr1 2.876248 1_545
O4 Sr3 2.694730 1_566
O4 Sr4 2.694730 1_556
O4 Sr1 2.859470 1_555
O4 Sr0 2.859470 1_665
O5 Sr2 2.464272 1_556
O5 Sr3 2.682825 1_556
O5 Sr4 2.682826 1_546
O5 Sr0 2.851838 1_555
O5 Sr1 2.851838 1_555
O6 Sr3 2.464950 1_456
O6 Sr2 2.664167 1_556
O6 Sr1 2.810762 1_455
O6 Sr0 2.876248 1_555
O7 Sr4 2.464950 1_556
O7 Sr2 2.664168 1_556
O7 Sr0 2.810762 1_565
O7 Sr1 2.876248 1_555
F0 Sr4 2.505394 1_555
F0 Sr3 2.508286 1_555
F0 Sr2 2.595824 1_555
F0 Sr1 2.802045 1_554
F0 Sr0 2.802045 1_555
F1 Sr3 2.505394 1_565
F1 Sr4 2.508286 1_655
F1 Sr2 2.595824 1_665
F1 Sr1 2.802045 1_555
F1 Sr0 2.802045 1_664
