# generated using pymatgen
data_NaAsO3
_symmetry_space_group_name_H-M   'P 1'
_cell_length_a   7.28921335
_cell_length_b   7.44625434
_cell_length_c   7.95330006
_cell_angle_alpha   103.53883533
_cell_angle_beta   91.39656120
_cell_angle_gamma   90.25179250
_symmetry_Int_Tables_number   1
_chemical_formula_structural   NaAsO3
_chemical_formula_sum   'Na6 As6 O18'
_cell_volume   419.54075831
_cell_formula_units_Z   6
loop_
 _symmetry_equiv_pos_site_id
 _symmetry_equiv_pos_as_xyz
  1  'x, y, z'
loop_
 _atom_site_type_symbol
 _atom_site_label
 _atom_site_symmetry_multiplicity
 _atom_site_fract_x
 _atom_site_fract_y
 _atom_site_fract_z
 _atom_site_occupancy
  Na  Na0  1  0.75388763  0.57791689  0.78270783  1
  Na  Na1  1  0.24611237  0.42208311  0.21729217  1
  Na  Na2  1  0.74381285  0.05654878  0.77491511  1
  Na  Na3  1  0.25618715  0.94345122  0.22508489  1
  Na  Na4  1  0.98488244  0.25268196  0.51136893  1
  Na  Na5  1  0.01511756  0.74731804  0.48863107  1
  As  As0  1  0.54749173  0.72062136  0.39221746  1
  As  As1  1  0.45250827  0.27937864  0.60778254  1
  As  As2  1  0.78196175  0.95009617  0.16858008  1
  As  As3  1  0.21803825  0.04990383  0.83141992  1
  As  As4  1  0.77129824  0.37870126  0.17070438  1
  As  As5  1  0.22870176  0.62129874  0.82929562  1
  O  O0  1  0.67843282  0.16613433  0.19012412  1
  O  O1  1  0.30043614  0.23334579  0.44595715  1
  O  O2  1  0.32371909  0.73520895  0.41642464  1
  O  O3  1  0.67628091  0.26479105  0.58357536  1
  O  O4  1  0.58281997  0.85374595  0.23759838  1
  O  O5  1  0.41718003  0.14625405  0.76240162  1
  O  O6  1  0.05416190  0.55470023  0.69138126  1
  O  O7  1  0.94583810  0.44529977  0.30861874  1
  O  O8  1  0.04707666  0.04257384  0.68974859  1
  O  O9  1  0.95292334  0.95742616  0.31025141  1
  O  O10  1  0.21885039  0.62609774  0.03643450  1
  O  O11  1  0.57122700  0.49649546  0.25972290  1
  O  O12  1  0.19262681  0.13952249  0.03938743  1
  O  O13  1  0.80737319  0.86047751  0.96061257  1
  O  O14  1  0.32156718  0.83386567  0.80987588  1
  O  O15  1  0.78114961  0.37390226  0.96356550  1
  O  O16  1  0.42877300  0.50350454  0.74027710  1
  O  O17  1  0.69956386  0.76665421  0.55404285  1
loop_
_geom_bond_atom_site_label_1
_geom_bond_atom_site_label_2
_geom_bond_distance
_geom_bond_site_symmetry_2
Na0 O13 2.270009 1_555
Na0 O6 2.317365 1_655
Na0 O15 2.329841 1_555
Na0 O16 2.428770 1_555
Na0 O3 2.545683 1_555
Na0 O17 2.570184 1_555
Na1 O12 2.270009 1_555
Na1 O7 2.317365 1_455
Na1 O10 2.329841 1_555
Na1 O11 2.428770 1_555
Na1 O2 2.545683 1_555
Na1 O1 2.570184 1_555
Na2 O8 2.323402 1_655
Na2 O13 2.347270 1_545
Na2 O3 2.457154 1_555
Na2 O17 2.457722 1_545
Na2 O5 2.481594 1_555
Na2 O15 2.494763 1_555
Na3 O9 2.323402 1_455
Na3 O12 2.347270 1_565
Na3 O2 2.457154 1_555
Na3 O1 2.457722 1_565
Na3 O4 2.481594 1_555
Na3 O10 2.494763 1_555
Na4 O3 2.332062 1_555
Na4 O1 2.368160 1_655
Na4 O8 2.383293 1_655
Na4 O9 2.403588 1_545
Na4 O7 2.408843 1_555
Na4 O6 2.410311 1_655
Na5 O2 2.332062 1_555
Na5 O17 2.368160 1_455
Na5 O9 2.383293 1_455
Na5 O8 2.403588 1_565
Na5 O6 2.408843 1_555
Na5 O7 2.410311 1_455
As0 O2 1.648185 1_555
As0 O17 1.650237 1_555
As0 O11 1.764540 1_555
As0 O4 1.773452 1_555
As1 O3 1.648185 1_555
As1 O1 1.650237 1_555
As1 O16 1.764540 1_555
As1 O5 1.773452 1_555
As2 O13 1.647624 1_554
As2 O9 1.651567 1_555
As2 O0 1.753453 1_565
As2 O4 1.771223 1_555
As3 O12 1.647624 1_556
As3 O8 1.651567 1_555
As3 O14 1.753453 1_545
As3 O5 1.771223 1_555
As4 O15 1.642775 1_554
As4 O7 1.655128 1_555
As4 O0 1.759987 1_555
As4 O11 1.779954 1_555
As5 O10 1.642775 1_556
As5 O6 1.655128 1_555
As5 O14 1.759987 1_555
As5 O16 1.779954 1_555
