# generated using pymatgen
data_InBiS3
_symmetry_space_group_name_H-M   'P 1'
_cell_length_a   3.90412981
_cell_length_b   6.59365271
_cell_length_c   9.90746649
_cell_angle_alpha   88.60311321
_cell_angle_beta   90.00000000
_cell_angle_gamma   90.00000000
_symmetry_Int_Tables_number   1
_chemical_formula_structural   InBiS3
_chemical_formula_sum   'In2 Bi2 S6'
_cell_volume   254.96692474
_cell_formula_units_Z   2
loop_
 _symmetry_equiv_pos_site_id
 _symmetry_equiv_pos_as_xyz
  1  'x, y, z'
loop_
 _atom_site_type_symbol
 _atom_site_label
 _atom_site_symmetry_multiplicity
 _atom_site_fract_x
 _atom_site_fract_y
 _atom_site_fract_z
 _atom_site_occupancy
  In  In0  1  0.25000000  0.75539886  0.99577380  1
  In  In1  1  0.75000000  0.24460114  0.00422620  1
  Bi  Bi0  1  0.25000000  0.39789863  0.34815013  1
  Bi  Bi1  1  0.75000000  0.60210137  0.65184987  1
  S  S0  1  0.75000000  0.25081918  0.50974274  1
  S  S1  1  0.25000000  0.74918082  0.49025726  1
  S  S2  1  0.25000000  0.42596068  0.85258874  1
  S  S3  1  0.75000000  0.57403932  0.14741126  1
  S  S4  1  0.25000000  0.07974002  0.14417113  1
  S  S5  1  0.75000000  0.92025998  0.85582887  1
loop_
_geom_bond_atom_site_label_1
_geom_bond_atom_site_label_2
_geom_bond_distance
_geom_bond_site_symmetry_2
In0 S5 2.615551 1_455
In0 S5 2.615551 1_555
In0 S2 2.623190 1_555
In0 S4 2.624593 1_566
In0 S3 2.722130 1_456
In0 S3 2.722130 1_556
In1 S4 2.615551 1_655
In1 S4 2.615551 1_555
In1 S3 2.623190 1_555
In1 S5 2.624593 1_544
In1 S2 2.722130 1_554
In1 S2 2.722130 1_654
Bi0 S0 2.690440 1_455
Bi0 S0 2.690440 1_555
Bi0 S1 2.739740 1_555
Bi0 S4 2.948165 1_555
Bi0 S3 3.000366 1_455
Bi0 S3 3.000366 1_555
Bi1 S1 2.690440 1_655
Bi1 S1 2.690440 1_555
Bi1 S0 2.739740 1_555
Bi1 S5 2.948165 1_555
Bi1 S2 3.000366 1_655
Bi1 S2 3.000366 1_555
