# generated using pymatgen
data_Mg7NbH16
_symmetry_space_group_name_H-M   'P 1'
_cell_length_a   6.62905395
_cell_length_b   6.62905395
_cell_length_c   6.62905395
_cell_angle_alpha   60.00000000
_cell_angle_beta   60.00000000
_cell_angle_gamma   60.00000000
_symmetry_Int_Tables_number   1
_chemical_formula_structural   Mg7NbH16
_chemical_formula_sum   'Mg7 Nb1 H16'
_cell_volume   205.98692878
_cell_formula_units_Z   1
loop_
 _symmetry_equiv_pos_site_id
 _symmetry_equiv_pos_as_xyz
  1  'x, y, z'
loop_
 _atom_site_type_symbol
 _atom_site_label
 _atom_site_symmetry_multiplicity
 _atom_site_fract_x
 _atom_site_fract_y
 _atom_site_fract_z
 _atom_site_occupancy
  Mg  Mg0  1  0.00000000  0.00000000  0.50000000  1
  Mg  Mg1  1  0.50000000  0.00000000  0.50000000  1
  Mg  Mg2  1  0.00000000  0.50000000  0.50000000  1
  Mg  Mg3  1  0.50000000  0.50000000  0.00000000  1
  Mg  Mg4  1  0.00000000  0.50000000  0.00000000  1
  Mg  Mg5  1  0.50000000  0.00000000  0.00000000  1
  Mg  Mg6  1  0.50000000  0.50000000  0.50000000  1
  Nb  Nb0  1  0.00000000  0.00000000  0.00000000  1
  H  H0  1  0.87993500  0.87993500  0.36019600  1
  H  H1  1  0.87993500  0.36019600  0.87993500  1
  H  H2  1  0.36019600  0.87993500  0.87993500  1
  H  H3  1  0.87993500  0.87993500  0.87993500  1
  H  H4  1  0.12006500  0.12006500  0.63980400  1
  H  H5  1  0.12006500  0.63980400  0.12006500  1
  H  H6  1  0.63980400  0.12006500  0.12006500  1
  H  H7  1  0.12006500  0.12006500  0.12006500  1
  H  H8  1  0.62753600  0.62753600  0.11739100  1
  H  H9  1  0.62753600  0.11739100  0.62753600  1
  H  H10  1  0.11739100  0.62753600  0.62753600  1
  H  H11  1  0.62753600  0.62753600  0.62753600  1
  H  H12  1  0.37246400  0.37246400  0.88260900  1
  H  H13  1  0.37246400  0.88260900  0.37246400  1
  H  H14  1  0.88260900  0.37246400  0.37246400  1
  H  H15  1  0.37246400  0.37246400  0.37246400  1
loop_
_geom_bond_atom_site_label_1
_geom_bond_atom_site_label_2
_geom_bond_distance
_geom_bond_site_symmetry_2
H0 Nb0 1.949597 1_665
H0 Mg0 2.057818 1_665
H0 Mg1 2.057823 1_565
H0 Mg2 2.057823 1_655
H1 Nb0 1.949597 1_656
H1 Mg4 2.057818 1_656
H1 Mg3 2.057823 1_556
H1 Mg2 2.057823 1_655
H2 Nb0 1.949597 1_566
H2 Mg5 2.057818 1_566
H2 Mg3 2.057823 1_556
H2 Mg1 2.057823 1_565
H3 Nb0 1.949591 1_666
H3 Mg5 2.057823 1_566
H3 Mg0 2.057823 1_665
H3 Mg4 2.057823 1_656
H4 Nb0 1.949597 1_556
H4 Mg0 2.057818 1_555
H4 Mg1 2.057823 1_555
H4 Mg2 2.057823 1_555
H5 Nb0 1.949597 1_565
H5 Mg4 2.057818 1_555
H5 Mg3 2.057823 1_555
H5 Mg2 2.057823 1_555
H6 Nb0 1.949597 1_655
H6 Mg5 2.057818 1_555
H6 Mg3 2.057823 1_555
H6 Mg1 2.057823 1_555
H7 Nb0 1.949591 1_555
H7 Mg0 2.057823 1_555
H7 Mg5 2.057823 1_555
H7 Mg4 2.057823 1_555
H8 Mg3 2.016367 1_555
H8 Mg5 2.016373 1_565
H8 Mg4 2.016373 1_655
H8 Mg6 2.070909 1_555
H9 Mg1 2.016367 1_555
H9 Mg0 2.016373 1_655
H9 Mg5 2.016373 1_556
H9 Mg6 2.070909 1_555
H10 Mg2 2.016367 1_555
H10 Mg4 2.016373 1_556
H10 Mg0 2.016373 1_565
H10 Mg6 2.070909 1_555
H11 Mg2 2.016372 1_655
H11 Mg1 2.016372 1_565
H11 Mg3 2.016372 1_556
H11 Mg6 2.070904 1_555
H12 Mg3 2.016367 1_556
H12 Mg4 2.016373 1_556
H12 Mg5 2.016373 1_556
H12 Mg6 2.070909 1_555
H13 Mg1 2.016367 1_565
H13 Mg0 2.016373 1_565
H13 Mg5 2.016373 1_565
H13 Mg6 2.070909 1_555
H14 Mg2 2.016367 1_655
H14 Mg0 2.016373 1_655
H14 Mg4 2.016373 1_655
H14 Mg6 2.070909 1_555
H15 Mg2 2.016372 1_555
H15 Mg3 2.016372 1_555
H15 Mg1 2.016372 1_555
H15 Mg6 2.070904 1_555
