# generated using pymatgen
data_HoP5O14
_symmetry_space_group_name_H-M   'P 1'
_cell_length_a   8.67698186
_cell_length_b   8.91640879
_cell_length_c   12.62722412
_cell_angle_alpha   90.00000000
_cell_angle_beta   90.00000000
_cell_angle_gamma   90.00000000
_symmetry_Int_Tables_number   1
_chemical_formula_structural   HoP5O14
_chemical_formula_sum   'Ho4 P20 O56'
_cell_volume   976.93698090
_cell_formula_units_Z   4
loop_
 _symmetry_equiv_pos_site_id
 _symmetry_equiv_pos_as_xyz
  1  'x, y, z'
loop_
 _atom_site_type_symbol
 _atom_site_label
 _atom_site_symmetry_multiplicity
 _atom_site_fract_x
 _atom_site_fract_y
 _atom_site_fract_z
 _atom_site_occupancy
  Ho  Ho0  1  0.01906839  0.05518405  0.25000000  1
  Ho  Ho1  1  0.51906839  0.44481595  0.25000000  1
  Ho  Ho2  1  0.48093161  0.55518405  0.75000000  1
  Ho  Ho3  1  0.98093161  0.94481595  0.75000000  1
  P  P0  1  0.75629595  0.22636666  0.42984294  1
  P  P1  1  0.25629595  0.27363334  0.07015706  1
  P  P2  1  0.74370405  0.72636666  0.57015706  1
  P  P3  1  0.24370405  0.77363334  0.92984294  1
  P  P4  1  0.24370405  0.77363334  0.57015706  1
  P  P5  1  0.74370405  0.72636666  0.92984294  1
  P  P6  1  0.25629595  0.27363334  0.42984294  1
  P  P7  1  0.75629595  0.22636666  0.07015706  1
  P  P8  1  0.50815899  0.20231542  0.58154504  1
  P  P9  1  0.00815899  0.29768458  0.91845496  1
  P  P10  1  0.99184101  0.70231542  0.41845496  1
  P  P11  1  0.49184101  0.79768458  0.08154504  1
  P  P12  1  0.49184101  0.79768458  0.41845496  1
  P  P13  1  0.99184101  0.70231542  0.08154504  1
  P  P14  1  0.00815899  0.29768458  0.58154504  1
  P  P15  1  0.50815899  0.20231542  0.91845496  1
  P  P16  1  0.42794800  0.00694089  0.25000000  1
  P  P17  1  0.92794800  0.49305911  0.25000000  1
  P  P18  1  0.07205200  0.50694089  0.75000000  1
  P  P19  1  0.57205200  0.99305911  0.75000000  1
  O  O0  1  0.82632248  0.10242193  0.37040923  1
  O  O1  1  0.32632248  0.39757807  0.12959077  1
  O  O2  1  0.67367752  0.60242193  0.62959077  1
  O  O3  1  0.17367752  0.89757807  0.87040923  1
  O  O4  1  0.17367752  0.89757807  0.62959077  1
  O  O5  1  0.67367752  0.60242193  0.87040923  1
  O  O6  1  0.32632248  0.39757807  0.37040923  1
  O  O7  1  0.82632248  0.10242193  0.12959077  1
  O  O8  1  0.65608402  0.33954741  0.38023691  1
  O  O9  1  0.15608402  0.16045259  0.11976309  1
  O  O10  1  0.84391598  0.83954741  0.61976309  1
  O  O11  1  0.34391598  0.66045259  0.88023691  1
  O  O12  1  0.34391598  0.66045259  0.61976309  1
  O  O13  1  0.84391598  0.83954741  0.88023691  1
  O  O14  1  0.15608402  0.16045259  0.38023691  1
  O  O15  1  0.65608402  0.33954741  0.11976309  1
  O  O16  1  0.88621404  0.31919316  0.49264587  1
  O  O17  1  0.38621404  0.18080684  0.00735413  1
  O  O18  1  0.61378596  0.81919316  0.50735413  1
  O  O19  1  0.66381609  0.15568813  0.52820808  1
  O  O20  1  0.11378596  0.68080684  0.99264587  1
  O  O21  1  0.61378596  0.81919316  0.99264587  1
  O  O22  1  0.38621404  0.18080684  0.49264587  1
  O  O23  1  0.88621404  0.31919316  0.00735413  1
  O  O24  1  0.54092311  0.83168788  0.75000000  1
  O  O25  1  0.04092311  0.66831212  0.75000000  1
  O  O26  1  0.95907689  0.33168788  0.25000000  1
  O  O27  1  0.45907689  0.16831212  0.25000000  1
  O  O28  1  0.72806819  0.05953125  0.75000000  1
  O  O29  1  0.22806819  0.44046875  0.75000000  1
  O  O30  1  0.77193181  0.55953125  0.25000000  1
  O  O31  1  0.27193181  0.94046875  0.25000000  1
  O  O32  1  0.47428871  0.06404343  0.84716636  1
  O  O33  1  0.97428871  0.43595657  0.65283364  1
  O  O34  1  0.02571129  0.56404343  0.15283364  1
  O  O35  1  0.52571129  0.93595657  0.34716636  1
  O  O36  1  0.52571129  0.93595657  0.15283364  1
  O  O37  1  0.02571129  0.56404343  0.34716636  1
  O  O38  1  0.97428871  0.43595657  0.84716636  1
  O  O39  1  0.47428871  0.06404343  0.65283364  1
  O  O40  1  0.50638531  0.34684705  0.86460121  1
  O  O41  1  0.00638531  0.15315295  0.63539879  1
  O  O42  1  0.99361469  0.84684705  0.13539879  1
  O  O43  1  0.49361469  0.65315295  0.36460121  1
  O  O44  1  0.49361469  0.65315295  0.13539879  1
  O  O45  1  0.99361469  0.84684705  0.36460121  1
  O  O46  1  0.00638531  0.15315295  0.86460121  1
  O  O47  1  0.50638531  0.34684705  0.63539879  1
  O  O48  1  0.66381609  0.15568813  0.97179192  1
  O  O49  1  0.16381609  0.34431187  0.52820808  1
  O  O50  1  0.83618391  0.65568813  0.02820808  1
  O  O51  1  0.33618391  0.84431187  0.47179192  1
  O  O52  1  0.33618391  0.84431187  0.02820808  1
  O  O53  1  0.83618391  0.65568813  0.47179192  1
  O  O54  1  0.16381609  0.34431187  0.97179192  1
  O  O55  1  0.11378596  0.68080684  0.50735413  1
loop_
_geom_bond_atom_site_label_1
_geom_bond_atom_site_label_2
_geom_bond_distance
_geom_bond_site_symmetry_2
Ho0 O14 2.235827 1_555
Ho0 O9 2.235827 1_555
Ho0 O0 2.299178 1_455
Ho0 O7 2.299178 1_455
Ho0 O42 2.365081 1_445
Ho0 O45 2.365081 1_445
Ho0 O31 2.420797 1_545
Ho0 O26 2.519776 1_455
Ho1 O15 2.235827 1_555
Ho1 O8 2.235827 1_555
Ho1 O6 2.299178 1_555
Ho1 O1 2.299178 1_555
Ho1 O44 2.365081 1_555
Ho1 O43 2.365081 1_555
Ho1 O30 2.420797 1_555
Ho1 O27 2.519776 1_555
Ho2 O11 2.235827 1_555
Ho2 O12 2.235827 1_555
Ho2 O5 2.299178 1_555
Ho2 O2 2.299178 1_555
Ho2 O40 2.365081 1_555
Ho2 O47 2.365081 1_555
Ho2 O29 2.420797 1_555
Ho2 O24 2.519776 1_555
Ho3 O13 2.235827 1_555
Ho3 O10 2.235827 1_555
Ho3 O3 2.299178 1_655
Ho3 O4 2.299178 1_655
Ho3 O41 2.365081 1_665
Ho3 O46 2.365081 1_665
Ho3 O28 2.420797 1_565
Ho3 O25 2.519776 1_655
O0 P0 1.467571 1_555
O1 P1 1.467571 1_555
O2 P2 1.467571 1_555
O3 P3 1.467571 1_555
O4 P4 1.467571 1_555
O5 P5 1.467571 1_555
O6 P6 1.467571 1_555
O7 P7 1.467571 1_555
O8 P0 1.472029 1_555
O9 P1 1.472029 1_555
O10 P2 1.472029 1_555
O11 P3 1.472029 1_555
O12 P4 1.472029 1_555
O13 P5 1.472029 1_555
O14 P6 1.472029 1_555
O15 P7 1.472029 1_555
O16 P14 1.554510 1_655
O16 P0 1.607713 1_555
O17 P15 1.554510 1_554
O17 P1 1.607713 1_555
O18 P12 1.554510 1_555
O18 P2 1.607713 1_555
O19 P8 1.565458 1_555
O19 P0 1.607429 1_555
O20 P13 1.554510 1_456
O20 P3 1.607713 1_555
O21 P11 1.554510 1_556
O21 P5 1.607713 1_555
O22 P8 1.554510 1_555
O22 P6 1.607713 1_555
O23 P9 1.554510 1_654
O23 P7 1.607713 1_555
O24 P19 1.463985 1_555
O25 P18 1.463985 1_555
O26 P17 1.463985 1_555
O27 P16 1.463985 1_555
O28 P19 1.477810 1_545
O29 P18 1.477810 1_555
O30 P17 1.477810 1_555
O31 P16 1.477810 1_565
O32 P15 1.554576 1_555
O32 P19 1.620363 1_545
O33 P14 1.554576 1_655
O33 P18 1.620363 1_655
O34 P13 1.554576 1_455
O34 P17 1.620363 1_455
O35 P12 1.554576 1_555
O35 P16 1.620363 1_565
O36 P11 1.554576 1_555
O36 P16 1.620363 1_565
O37 P10 1.554576 1_455
O37 P17 1.620363 1_455
O38 P9 1.554576 1_655
O38 P18 1.620363 1_655
O39 P8 1.554576 1_555
O39 P19 1.620363 1_545
O40 P15 1.457197 1_555
O41 P14 1.457197 1_555
O42 P13 1.457197 1_555
O43 P12 1.457197 1_555
O44 P11 1.457197 1_555
O45 P10 1.457197 1_555
O46 P9 1.457197 1_555
O47 P8 1.457197 1_555
O48 P15 1.565458 1_555
O48 P7 1.607429 1_556
O49 P14 1.565458 1_555
O49 P6 1.607429 1_555
O50 P13 1.565458 1_555
O50 P5 1.607429 1_554
O51 P12 1.565458 1_555
O51 P4 1.607429 1_555
O52 P11 1.565458 1_555
O52 P3 1.607429 1_554
O53 P10 1.565458 1_555
O53 P2 1.607429 1_555
O54 P9 1.565458 1_555
O54 P1 1.607429 1_556
O55 P10 1.554510 1_455
O55 P4 1.607713 1_555
