# generated using pymatgen
data_Te2MoWS2
_symmetry_space_group_name_H-M   'P 1'
_cell_length_a   3.35811534
_cell_length_b   3.35811534
_cell_length_c   38.32338700
_cell_angle_alpha   90.00000000
_cell_angle_beta   90.00000000
_cell_angle_gamma   119.99998695
_symmetry_Int_Tables_number   1
_chemical_formula_structural   Te2MoWS2
_chemical_formula_sum   'Te4 Mo2 W2 S4'
_cell_volume   374.27066621
_cell_formula_units_Z   2
loop_
 _symmetry_equiv_pos_site_id
 _symmetry_equiv_pos_as_xyz
  1  'x, y, z'
loop_
 _atom_site_type_symbol
 _atom_site_label
 _atom_site_symmetry_multiplicity
 _atom_site_fract_x
 _atom_site_fract_y
 _atom_site_fract_z
 _atom_site_occupancy
  Te  Te0  1  0.00000000  0.00000000  0.70719900  1
  Te  Te1  1  0.33333300  0.66666700  0.04453600  1
  Te  Te2  1  0.33333300  0.66666700  0.14330300  1
  Te  Te3  1  0.00000000  0.00000000  0.60786100  1
  Mo  Mo0  1  0.00000000  0.00000000  0.09389200  1
  Mo  Mo1  1  0.00000000  0.00000000  0.46965800  1
  W  W0  1  0.33333300  0.66666700  0.28181000  1
  W  W1  1  0.33333300  0.66666700  0.65755700  1
  S  S0  1  0.00000000  0.00000000  0.32144400  1
  S  S1  1  0.33333300  0.66666700  0.43018400  1
  S  S2  1  0.33333300  0.66666700  0.50913000  1
  S  S3  1  0.00000000  0.00000000  0.24217500  1
loop_
_geom_bond_atom_site_label_1
_geom_bond_atom_site_label_2
_geom_bond_distance
_geom_bond_site_symmetry_2
Te0 W1 2.716300 1_545
Te0 W1 2.716302 1_555
Te0 W1 2.716302 1_445
Te3 W1 2.717750 1_545
Te3 W1 2.717752 1_555
Te3 W1 2.717752 1_445
Mo0 Te1 2.708635 1_545
Mo0 Te1 2.708637 1_445
Mo0 Te1 2.708637 1_555
Mo0 Te2 2.710107 1_545
Mo0 Te2 2.710109 1_555
Mo0 Te2 2.710109 1_445
Mo1 S2 2.459113 1_545
Mo1 S2 2.459115 1_555
Mo1 S2 2.459115 1_445
Mo1 S1 2.459160 1_545
Mo1 S1 2.459162 1_445
Mo1 S1 2.459162 1_555
S0 W0 2.462937 1_545
S0 W0 2.462939 1_445
S0 W0 2.462939 1_555
S3 W0 2.462960 1_545
S3 W0 2.462963 1_555
S3 W0 2.462963 1_445
