# generated using pymatgen
data_KV3(PO4)4
_symmetry_space_group_name_H-M   'P 1'
_cell_length_a   12.87912600
_cell_length_b   5.28472200
_cell_length_c   9.60792041
_cell_angle_alpha   86.17613156
_cell_angle_beta   90.00000000
_cell_angle_gamma   90.00000000
_symmetry_Int_Tables_number   1
_chemical_formula_structural   KV3(PO4)4
_chemical_formula_sum   'K2 V6 P8 O32'
_cell_volume   652.48422976
_cell_formula_units_Z   2
loop_
 _symmetry_equiv_pos_site_id
 _symmetry_equiv_pos_as_xyz
  1  'x, y, z'
loop_
 _atom_site_type_symbol
 _atom_site_label
 _atom_site_symmetry_multiplicity
 _atom_site_fract_x
 _atom_site_fract_y
 _atom_site_fract_z
 _atom_site_occupancy
  K  K0  1  0.49971200  0.50009000  0.49963900  1
  K  K1  1  0.99971200  0.49991000  0.50036100  1
  V  V0  1  0.38914300  0.61055000  0.09021900  1
  V  V1  1  0.88914300  0.38945000  0.90978100  1
  V  V2  1  0.59789700  0.39357300  0.91314900  1
  V  V3  1  0.09789700  0.60642700  0.08685100  1
  V  V4  1  0.25031000  0.01207600  0.59490200  1
  V  V5  1  0.75031000  0.98792400  0.40509800  1
  P  P0  1  0.63675000  0.85144700  0.12224400  1
  P  P1  1  0.13675000  0.14855300  0.87775600  1
  P  P2  1  0.36468900  0.14912900  0.87795200  1
  P  P3  1  0.86468900  0.85087100  0.12204800  1
  P  P4  1  0.36634900  0.07935700  0.28949100  1
  P  P5  1  0.86634900  0.92064300  0.71050900  1
  P  P6  1  0.63592700  0.92194700  0.71031000  1
  P  P7  1  0.13592700  0.07805300  0.28969000  1
  O  O0  1  0.75062500  0.78657000  0.06691900  1
  O  O1  1  0.25062500  0.21343000  0.93308100  1
  O  O2  1  0.64080200  0.85213200  0.28079700  1
  O  O3  1  0.14080200  0.14786800  0.71920300  1
  O  O4  1  0.35938100  0.14980400  0.71918800  1
  O  O5  1  0.85938100  0.85019600  0.28081200  1
  O  O6  1  0.25000600  0.70493700  0.62018600  1
  O  O7  1  0.75000600  0.29506300  0.37981400  1
  O  O8  1  0.25117800  0.09059400  0.22640100  1
  O  O9  1  0.75117800  0.90940600  0.77359900  1
  O  O10  1  0.41205600  0.82582400  0.25004200  1
  O  O11  1  0.91205600  0.17417600  0.74995800  1
  O  O12  1  0.59040700  0.17294100  0.75143600  1
  O  O13  1  0.09040700  0.82705900  0.24856400  1
  O  O14  1  0.39845000  0.89788800  0.94737800  1
  O  O15  1  0.89845000  0.10211200  0.05262200  1
  O  O16  1  0.60519500  0.10337800  0.05108700  1
  O  O17  1  0.10519500  0.89662200  0.94891300  1
  O  O18  1  0.56984900  0.62987600  0.07221400  1
  O  O19  1  0.06984900  0.37012400  0.92778600  1
  O  O20  1  0.42998800  0.37515100  0.92737100  1
  O  O21  1  0.92998800  0.62484900  0.07262900  1
  O  O22  1  0.36013500  0.08752300  0.44861500  1
  O  O23  1  0.86013500  0.91247700  0.55138500  1
  O  O24  1  0.64041600  0.91126800  0.55132100  1
  O  O25  1  0.14041600  0.08873200  0.44867900  1
  O  O26  1  0.42252700  0.31329800  0.22642400  1
  O  O27  1  0.92252700  0.68670200  0.77357600  1
  O  O28  1  0.57978000  0.68842400  0.77440000  1
  O  O29  1  0.07978000  0.31157600  0.22560000  1
  O  O30  1  0.25923000  0.59373300  0.09498400  1
  O  O31  1  0.75923000  0.40626700  0.90501600  1
loop_
_geom_bond_atom_site_label_1
_geom_bond_atom_site_label_2
_geom_bond_distance
_geom_bond_site_symmetry_2
K0 O22 2.892764 1_555
K0 O24 2.897605 1_555
K0 O26 3.032991 1_555
K0 O28 3.061604 1_555
K0 O10 3.072144 1_555
K0 O12 3.106177 1_555
K0 O4 3.259152 1_555
K0 O2 3.265334 1_555
K1 O23 2.892764 1_555
K1 O25 2.897605 1_655
K1 O27 3.032991 1_555
K1 O29 3.061604 1_655
K1 O11 3.072144 1_555
K1 O13 3.106177 1_655
K1 O5 3.259152 1_555
K1 O3 3.265334 1_655
O0 P0 1.604793 1_555
O0 P3 1.605655 1_555
O1 P1 1.604793 1_555
O1 P2 1.605655 1_555
O2 P0 1.524504 1_555
O2 V5 2.011149 1_555
O3 P1 1.524504 1_555
O3 V4 2.011149 1_555
O4 P2 1.526689 1_555
O4 V4 2.011203 1_555
O5 P3 1.526689 1_555
O5 V5 2.011203 1_555
O6 V4 1.625126 1_565
O7 V5 1.625126 1_545
O8 P4 1.601981 1_555
O8 P7 1.603750 1_555
O9 P5 1.601981 1_555
O9 P6 1.603750 1_555
O10 P4 1.533989 1_565
O10 V0 1.993071 1_555
O11 P5 1.533989 1_545
O11 V1 1.993071 1_555
O12 P6 1.526159 1_545
O12 V2 2.006117 1_555
O13 P7 1.526159 1_565
O13 V3 2.006117 1_555
O14 P2 1.509558 1_565
O14 V0 1.981350 1_556
O15 P3 1.509558 1_545
O15 V1 1.981350 1_554
O16 P0 1.511208 1_545
O16 V2 1.961144 1_554
O17 P1 1.511208 1_565
O17 V3 1.961144 1_556
O18 P0 1.555517 1_555
O18 V2 2.068862 1_554
O18 V0 2.335485 1_555
O19 P1 1.555517 1_555
O19 V3 2.068862 1_556
O19 V1 2.335485 1_455
O20 P2 1.560483 1_555
O20 V0 2.128847 1_556
O20 V2 2.168611 1_555
O21 P3 1.560483 1_555
O21 V1 2.128847 1_554
O21 V3 2.168611 1_655
O22 P4 1.534422 1_555
O22 V4 2.015035 1_555
O23 P5 1.534422 1_555
O23 V5 2.015035 1_555
O24 P6 1.533443 1_555
O24 V5 2.016215 1_555
O25 P7 1.533443 1_555
O25 V4 2.016215 1_555
O26 P4 1.522893 1_555
O26 V0 2.022606 1_555
O27 P5 1.522893 1_555
O27 V1 2.022606 1_555
O28 P6 1.524381 1_555
O28 V2 1.995624 1_555
O29 P7 1.524381 1_555
O29 V3 1.995624 1_555
O30 V0 1.675988 1_555
O30 V3 2.080211 1_555
O31 V1 1.675988 1_555
O31 V2 2.080211 1_555
