# generated using pymatgen
data_NaMg6Mo
_symmetry_space_group_name_H-M   'P 1'
_cell_length_a   4.35332400
_cell_length_b   8.83255900
_cell_length_c   8.89860500
_cell_angle_alpha   90.00000000
_cell_angle_beta   90.00000000
_cell_angle_gamma   90.00000000
_symmetry_Int_Tables_number   1
_chemical_formula_structural   NaMg6Mo
_chemical_formula_sum   'Na2 Mg12 Mo2'
_cell_volume   342.16018144
_cell_formula_units_Z   2
loop_
 _symmetry_equiv_pos_site_id
 _symmetry_equiv_pos_as_xyz
  1  'x, y, z'
loop_
 _atom_site_type_symbol
 _atom_site_label
 _atom_site_symmetry_multiplicity
 _atom_site_fract_x
 _atom_site_fract_y
 _atom_site_fract_z
 _atom_site_occupancy
  Na  Na0  1  0.50000000  0.00000000  0.87051700  1
  Na  Na1  1  0.50000000  0.50000000  0.37051700  1
  Mg  Mg0  1  0.50000000  0.25294800  0.62489900  1
  Mg  Mg1  1  0.50000000  0.74705200  0.62489900  1
  Mg  Mg2  1  0.00000000  0.23198500  0.37599200  1
  Mg  Mg3  1  0.00000000  0.76801500  0.37599200  1
  Mg  Mg4  1  0.00000000  0.00000000  0.60263600  1
  Mg  Mg5  1  0.00000000  0.00000000  0.14865300  1
  Mg  Mg6  1  0.50000000  0.75294800  0.12489900  1
  Mg  Mg7  1  0.50000000  0.24705200  0.12489900  1
  Mg  Mg8  1  0.00000000  0.73198500  0.87599200  1
  Mg  Mg9  1  0.00000000  0.26801500  0.87599200  1
  Mg  Mg10  1  0.00000000  0.50000000  0.10263600  1
  Mg  Mg11  1  0.00000000  0.50000000  0.64865300  1
  Mo  Mo0  1  0.50000000  0.00000000  0.37641600  1
  Mo  Mo1  1  0.50000000  0.50000000  0.87641600  1
loop_
_geom_bond_atom_site_label_1
_geom_bond_atom_site_label_2
_geom_bond_distance
_geom_bond_site_symmetry_2
Mg0 Mg11 3.089353 1_655
Mg0 Mg11 3.089353 1_555
Mg0 Mg2 3.110954 1_555
Mg0 Mg2 3.110954 1_655
Mg0 Mg9 3.122180 1_555
Mg0 Mg9 3.122180 1_655
Mg0 Na0 3.125484 1_555
Mg0 Mg4 3.125485 1_655
Mg0 Mg4 3.125485 1_555
Mg0 Mo1 3.125841 1_555
Mg0 Mo0 3.143365 1_555
Mg0 Na1 3.144146 1_555
Mg1 Mg11 3.089353 1_555
Mg1 Mg11 3.089353 1_655
Mg1 Mg3 3.110954 1_655
Mg1 Mg3 3.110954 1_555
Mg1 Mg8 3.122180 1_555
Mg1 Mg8 3.122180 1_655
Mg1 Na0 3.125484 1_565
Mg1 Mg4 3.125485 1_565
Mg1 Mg4 3.125485 1_665
Mg1 Mo1 3.125841 1_555
Mg1 Mo0 3.143365 1_565
Mg1 Na1 3.144146 1_555
Mg2 Mg4 2.875071 1_555
Mg2 Mg5 2.879413 1_555
Mg2 Mo0 2.989374 1_455
Mg2 Mo0 2.989374 1_555
Mg2 Mg7 3.122180 1_455
Mg2 Mg7 3.122180 1_555
Mg2 Na1 3.216231 1_455
Mg2 Na1 3.216231 1_555
Mg3 Mg4 2.875071 1_565
Mg3 Mg5 2.879413 1_565
Mg3 Mo0 2.989374 1_565
Mg3 Mo0 2.989374 1_465
Mg3 Mg6 3.122180 1_455
Mg3 Mg6 3.122180 1_555
Mg3 Na1 3.216231 1_455
Mg3 Na1 3.216231 1_555
Mg4 Mo0 2.964827 1_555
Mg4 Mo0 2.964827 1_455
Mg4 Na0 3.228034 1_555
Mg4 Na0 3.228034 1_455
Mg4 Mg8 3.394246 1_545
Mg4 Mg9 3.394246 1_555
Mg5 Mo0 2.974166 1_455
Mg5 Mo0 2.974166 1_555
Mg5 Mg7 3.089353 1_455
Mg5 Mg7 3.089353 1_555
Mg5 Mg6 3.089353 1_445
Mg5 Mg6 3.089353 1_545
Mg5 Na0 3.295997 1_554
Mg5 Na0 3.295997 1_454
Mg5 Mg8 3.389816 1_544
Mg5 Mg9 3.389816 1_554
Mg6 Mg8 3.110954 1_654
Mg6 Mg8 3.110954 1_554
Mg6 Na1 3.125484 1_555
Mg6 Mo0 3.125841 1_565
Mg6 Mo1 3.143365 1_554
Mg6 Na0 3.144146 1_564
Mg7 Mg9 3.110954 1_554
Mg7 Mg9 3.110954 1_654
Mg7 Na1 3.125484 1_555
Mg7 Mo0 3.125841 1_555
Mg7 Mo1 3.143365 1_554
Mg7 Na0 3.144146 1_554
Mg8 Mo1 2.989374 1_455
Mg8 Mo1 2.989374 1_555
Mg8 Na0 3.216231 1_565
Mg8 Na0 3.216231 1_465
Mg9 Mo1 2.989374 1_455
Mg9 Mo1 2.989374 1_555
Mg9 Na0 3.216231 1_555
Mg9 Na0 3.216231 1_455
Mg10 Mg8 2.875071 1_554
Mg10 Mg9 2.875071 1_554
Mg10 Mo1 2.964827 1_554
Mg10 Mo1 2.964827 1_454
Mg10 Mg6 3.125485 1_455
Mg10 Mg6 3.125485 1_555
Mg10 Mg7 3.125485 1_455
Mg10 Mg7 3.125485 1_555
Mg10 Na1 3.228034 1_455
Mg10 Na1 3.228034 1_555
Mg10 Mg3 3.394246 1_555
Mg10 Mg2 3.394246 1_555
Mg11 Mg9 2.879413 1_555
Mg11 Mg8 2.879413 1_555
Mg11 Mo1 2.974166 1_555
Mg11 Mo1 2.974166 1_455
Mg11 Na1 3.295997 1_555
Mg11 Na1 3.295997 1_455
Mg11 Mg3 3.389816 1_555
Mg11 Mg2 3.389816 1_555
