# generated using pymatgen
data_CsAuBr3
_symmetry_space_group_name_H-M   'P 1'
_cell_length_a   5.47254000
_cell_length_b   5.47254000
_cell_length_c   5.47254000
_cell_angle_alpha   90.00000000
_cell_angle_beta   90.00000000
_cell_angle_gamma   90.00000000
_symmetry_Int_Tables_number   1
_chemical_formula_structural   CsAuBr3
_chemical_formula_sum   'Cs1 Au1 Br3'
_cell_volume   163.89542615
_cell_formula_units_Z   1
loop_
 _symmetry_equiv_pos_site_id
 _symmetry_equiv_pos_as_xyz
  1  'x, y, z'
loop_
 _atom_site_type_symbol
 _atom_site_label
 _atom_site_symmetry_multiplicity
 _atom_site_fract_x
 _atom_site_fract_y
 _atom_site_fract_z
 _atom_site_occupancy
  Cs  Cs0  1  0.50000000  0.50000000  0.50000000  1
  Au  Au0  1  0.00000000  0.00000000  0.00000000  1
  Br  Br0  1  0.00000000  0.00000000  0.50000000  1
  Br  Br1  1  0.50000000  0.00000000  0.00000000  1
  Br  Br2  1  0.00000000  0.50000000  0.00000000  1
loop_
_geom_bond_atom_site_label_1
_geom_bond_atom_site_label_2
_geom_bond_distance
_geom_bond_site_symmetry_2
Au0 Br1 2.736270 1_555
Au0 Br0 2.736270 1_555
Au0 Br1 2.736270 1_455
Au0 Br0 2.736270 1_554
Au0 Br2 2.736270 1_545
Au0 Br2 2.736270 1_555
Br0 Cs0 3.869670 1_455
Br0 Cs0 3.869670 1_445
Br0 Cs0 3.869670 1_555
Br0 Cs0 3.869670 1_545
Br1 Cs0 3.869670 1_544
Br1 Cs0 3.869670 1_555
Br1 Cs0 3.869670 1_545
Br1 Cs0 3.869670 1_554
Br2 Cs0 3.869670 1_455
Br2 Cs0 3.869670 1_454
Br2 Cs0 3.869670 1_555
Br2 Cs0 3.869670 1_554
