# generated using pymatgen
data_K2Sm2Mg(MoO4)4
_symmetry_space_group_name_H-M   'P 1'
_cell_length_a   7.79511034
_cell_length_b   7.75422095
_cell_length_c   7.99198876
_cell_angle_alpha   115.14328320
_cell_angle_beta   122.51213254
_cell_angle_gamma   90.77949825
_symmetry_Int_Tables_number   1
_chemical_formula_structural   K2Sm2Mg(MoO4)4
_chemical_formula_sum   'K2 Sm2 Mg1 Mo4 O16'
_cell_volume   349.75245651
_cell_formula_units_Z   1
loop_
 _symmetry_equiv_pos_site_id
 _symmetry_equiv_pos_as_xyz
  1  'x, y, z'
loop_
 _atom_site_type_symbol
 _atom_site_label
 _atom_site_symmetry_multiplicity
 _atom_site_fract_x
 _atom_site_fract_y
 _atom_site_fract_z
 _atom_site_occupancy
  K  K0  1  0.35976185  0.11404132  0.24759300  1
  K  K1  1  0.54445640  0.79538630  0.74660216  1
  Sm  Sm0  1  0.01787170  0.76790165  0.24589277  1
  Sm  Sm1  1  0.98713029  0.24287469  0.74778054  1
  Mg  Mg0  1  0.62632196  0.37822461  0.24584956  1
  Mo  Mo0  1  0.99855400  0.30570683  0.27696879  1
  Mo  Mo1  1  0.01556749  0.70320736  0.71569829  1
  Mo  Mo2  1  0.52305305  0.72178418  0.21653143  1
  Mo  Mo3  1  0.48064406  0.29869417  0.77729030  1
  O  O0  1  0.67642573  0.22055018  0.02583622  1
  O  O1  1  0.30887927  0.74989855  0.93092707  1
  O  O2  1  0.68890428  0.64926129  0.46708592  1
  O  O3  1  0.31166778  0.37816209  0.56309306  1
  O  O4  1  0.75051439  0.94127466  0.36534579  1
  O  O5  1  0.25685361  0.07345868  0.62596425  1
  O  O6  1  0.06849628  0.38879652  0.13018499  1
  O  O7  1  0.94289212  0.62653531  0.86530035  1
  O  O8  1  0.04634035  0.63083062  0.46765970  1
  O  O9  1  0.89774387  0.36171544  0.49227382  1
  O  O10  1  0.65681847  0.57967063  0.02659888  1
  O  O11  1  0.36294026  0.40328703  0.99978310  1
  O  O12  1  0.97670589  0.03988374  0.18779860  1
  O  O13  1  0.03686577  0.96534390  0.81322248  1
  O  O14  1  0.34640762  0.78745515  0.30461542  1
  O  O15  1  0.64496951  0.22426909  0.68077051  1
loop_
_geom_bond_atom_site_label_1
_geom_bond_atom_site_label_2
_geom_bond_distance
_geom_bond_site_symmetry_2
K0 O15 2.611243 1_555
K0 O13 2.615905 1_544
K0 O3 2.709547 1_555
K0 O1 2.711677 1_544
K0 O14 2.766984 1_545
K0 O12 2.767833 1_455
K0 Mg0 2.907538 1_555
K0 O4 3.171628 1_545
K0 O6 3.180370 1_555
K1 O0 2.845239 1_566
K1 O2 2.851256 1_555
K1 O12 2.958825 1_566
K1 O14 2.969078 1_555
K1 O3 2.976248 1_555
K1 O1 2.999756 1_555
K1 O10 3.112275 1_556
K1 O8 3.133317 1_555
K1 O5 3.190549 1_565
K1 O7 3.203036 1_555
Mg0 O0 1.914036 1_555
Mg0 O2 1.915314 1_555
Mg0 O9 2.028278 1_555
Mg0 O11 2.028734 1_554
Mo0 O12 1.843189 1_555
Mo0 O6 1.846281 1_655
Mo0 O0 2.044675 1_555
Mo0 O3 2.091237 1_655
Mo0 O9 2.143545 1_555
Mo0 O8 2.217313 1_655
Mo1 O13 1.808928 1_555
Mo1 O7 1.851186 1_455
Mo1 O1 1.880981 1_555
Mo1 O8 1.967624 1_555
Mo1 O2 2.105447 1_455
Mo1 O9 2.279655 1_455
Mo2 O4 1.840110 1_555
Mo2 O14 1.845910 1_555
Mo2 O2 2.047247 1_555
Mo2 O1 2.093129 1_554
Mo2 O11 2.148135 1_554
Mo2 O10 2.217431 1_555
Mo3 O15 1.809105 1_555
Mo3 O5 1.846744 1_555
Mo3 O3 1.881433 1_555
Mo3 O10 1.972603 1_556
Mo3 O0 2.105046 1_556
Mo3 O11 2.282542 1_555
O4 Sm1 2.441645 1_565
O4 Sm0 2.861201 1_655
O5 Sm0 2.447897 1_545
O5 Sm1 2.878000 1_455
O6 Sm1 2.445607 1_454
O6 Sm0 2.786811 1_555
O7 Sm0 2.456276 1_656
O7 Sm1 2.802372 1_555
O8 Sm0 2.346195 1_555
O9 Sm1 2.364641 1_555
O10 Sm0 2.352713 1_655
O11 Sm1 2.369622 1_455
O12 Sm0 2.335979 1_645
O13 Sm1 2.411697 1_465
O14 Sm0 2.332126 1_555
O15 Sm1 2.410372 1_555
