# generated using pymatgen
data_Mg3Si4
_symmetry_space_group_name_H-M   'P 1'
_cell_length_a   4.50479300
_cell_length_b   7.89925580
_cell_length_c   7.92207556
_cell_angle_alpha   99.40944646
_cell_angle_beta   104.84627548
_cell_angle_gamma   95.03539031
_symmetry_Int_Tables_number   1
_chemical_formula_structural   Mg3Si4
_chemical_formula_sum   'Mg6 Si8'
_cell_volume   266.32948037
_cell_formula_units_Z   2
loop_
 _symmetry_equiv_pos_site_id
 _symmetry_equiv_pos_as_xyz
  1  'x, y, z'
loop_
 _atom_site_type_symbol
 _atom_site_label
 _atom_site_symmetry_multiplicity
 _atom_site_fract_x
 _atom_site_fract_y
 _atom_site_fract_z
 _atom_site_occupancy
  Mg  Mg0  1  0.68576700  0.80748900  0.39454300  1
  Mg  Mg1  1  0.35944000  0.87688700  0.70223000  1
  Mg  Mg2  1  0.46355600  0.61849800  0.96600200  1
  Mg  Mg3  1  0.07650800  0.29723000  0.03736900  1
  Mg  Mg4  1  0.32619000  0.47142300  0.48810500  1
  Mg  Mg5  1  0.03052100  0.91375500  0.06605100  1
  Si  Si0  1  0.91849600  0.39315800  0.72471100  1
  Si  Si1  1  0.42658200  0.25295100  0.76136600  1
  Si  Si2  1  0.05715200  0.63189800  0.22053500  1
  Si  Si3  1  0.68105600  0.39376700  0.23425000  1
  Si  Si4  1  0.84918100  0.69239500  0.72767900  1
  Si  Si5  1  0.79987300  0.20781400  0.44285400  1
  Si  Si6  1  0.28208900  0.07995200  0.45545100  1
  Si  Si7  1  0.54352200  0.10924400  0.02552200  1
loop_
_geom_bond_atom_site_label_1
_geom_bond_atom_site_label_2
_geom_bond_distance
_geom_bond_site_symmetry_2
Mg0 Si2 2.754474 1_655
Mg0 Si4 2.870526 1_555
Mg0 Si2 2.920278 1_555
Mg0 Si6 2.994837 1_565
Mg0 Si5 3.103024 1_565
Mg0 Si6 3.172152 1_665
Mg1 Si4 2.682095 1_455
Mg1 Si6 2.700161 1_565
Mg1 Si4 2.732085 1_555
Mg1 Si7 2.779094 1_566
Mg1 Si1 2.906921 1_565
Mg2 Si2 2.888771 1_656
Mg2 Si0 2.926824 1_455
Mg2 Si4 2.964144 1_555
Mg2 Si3 3.016482 1_556
Mg2 Si1 3.039797 1_555
Mg2 Si2 3.047114 1_556
Mg2 Si4 3.087288 1_455
Mg3 Si0 2.649679 1_454
Mg3 Si7 2.681740 1_455
Mg3 Si7 2.691445 1_555
Mg3 Si3 2.731503 1_455
Mg3 Si3 2.738745 1_555
Mg3 Si2 2.820095 1_555
Mg3 Si1 3.000657 1_554
Mg3 Si1 3.124857 1_454
Mg4 Si2 2.720423 1_555
Mg4 Si4 2.846574 1_555
Mg4 Si3 2.896964 1_555
Mg4 Si5 2.922267 1_455
Mg4 Si1 2.953980 1_555
Mg4 Si0 3.020023 1_555
Mg4 Si3 3.025765 1_455
Mg4 Si0 3.035187 1_455
Mg4 Si6 3.045184 1_555
Mg4 Si5 3.153688 1_555
Mg5 Si2 2.707746 1_555
Mg5 Si7 2.774245 1_465
Mg5 Si7 2.782832 1_565
Mg5 Si4 2.829307 1_454
Mg5 Si6 3.024441 1_565
Si0 Si5 2.365833 1_555
Si0 Si4 2.408427 1_555
Si0 Si1 2.495108 1_555
Si0 Si1 2.599848 1_655
Si1 Si6 2.473261 1_555
Si1 Si7 2.502434 1_556
Si2 Si3 2.454044 1_455
Si3 Si5 2.377728 1_555
Si3 Si7 2.486934 1_555
Si5 Si6 2.460877 1_655
Si5 Si6 2.491862 1_555
