# generated using pymatgen
data_Sm4Mg(HO2)4
_symmetry_space_group_name_H-M   'P 1'
_cell_length_a   5.77930600
_cell_length_b   11.61778334
_cell_length_c   3.69642000
_cell_angle_alpha   90.00000000
_cell_angle_beta   90.00000000
_cell_angle_gamma   89.98506635
_symmetry_Int_Tables_number   1
_chemical_formula_structural   Sm4Mg(HO2)4
_chemical_formula_sum   'Sm4 Mg1 H4 O8'
_cell_volume   248.18770305
_cell_formula_units_Z   1
loop_
 _symmetry_equiv_pos_site_id
 _symmetry_equiv_pos_as_xyz
  1  'x, y, z'
loop_
 _atom_site_type_symbol
 _atom_site_label
 _atom_site_symmetry_multiplicity
 _atom_site_fract_x
 _atom_site_fract_y
 _atom_site_fract_z
 _atom_site_occupancy
  Sm  Sm0  1  0.07748600  0.80916900  0.25000000  1
  Sm  Sm1  1  0.41074800  0.33728900  0.25000000  1
  Sm  Sm2  1  0.57055300  0.63088900  0.75000000  1
  Sm  Sm3  1  0.93386300  0.17708100  0.75000000  1
  Mg  Mg0  1  0.51518700  0.03875300  0.25000000  1
  H  H0  1  0.19037600  0.55771700  0.25000000  1
  H  H1  1  0.13538300  0.05033300  0.25000000  1
  H  H2  1  0.79031800  0.95098400  0.75000000  1
  H  H3  1  0.83828000  0.41233600  0.75000000  1
  O  O0  1  0.19717800  0.12957300  0.25000000  1
  O  O1  1  0.17805600  0.32586100  0.75000000  1
  O  O2  1  0.25006300  0.73844600  0.75000000  1
  O  O3  1  0.35456300  0.53848600  0.25000000  1
  O  O4  1  0.66831200  0.41770000  0.75000000  1
  O  O5  1  0.69532700  0.19307700  0.25000000  1
  O  O6  1  0.77935500  0.68807800  0.25000000  1
  O  O7  1  0.96495000  0.95661200  0.75000000  1
loop_
_geom_bond_atom_site_label_1
_geom_bond_atom_site_label_2
_geom_bond_distance
_geom_bond_site_symmetry_2
Mg0 O5 2.073483 1_555
Mg0 O0 2.118975 1_555
H0 O3 0.974778 1_555
H1 O0 0.987525 1_555
H1 Mg0 2.199088 1_555
H2 O7 1.011385 1_555
H3 O4 0.984256 1_555
O0 Sm3 2.456804 1_455
O0 Sm3 2.456804 1_454
O0 Sm1 2.710820 1_555
O1 Sm3 2.231733 1_455
O1 Sm1 2.289560 1_555
O1 Sm1 2.289560 1_556
O2 Sm2 2.234034 1_555
O2 Sm0 2.255063 1_556
O2 Sm0 2.255063 1_555
O3 Sm1 2.359825 1_555
O3 Sm2 2.475319 1_555
O3 Sm2 2.475319 1_554
O4 Sm2 2.540262 1_555
O4 Sm1 2.550507 1_556
O4 Sm1 2.550507 1_555
O5 Sm3 2.313168 1_554
O5 Sm3 2.313168 1_555
O5 Sm1 2.347455 1_555
O6 Sm0 2.224651 1_655
O6 Sm2 2.305198 1_555
O6 Sm2 2.305198 1_554
O7 Sm3 2.567608 1_565
O7 Sm0 2.602408 1_655
O7 Sm0 2.602408 1_656
