# generated using pymatgen
data_Zr4Al11Si
_symmetry_space_group_name_H-M   'P 1'
_cell_length_a   3.98449200
_cell_length_b   4.01915900
_cell_length_c   17.23226000
_cell_angle_alpha   90.00000000
_cell_angle_beta   90.00000000
_cell_angle_gamma   90.00000000
_symmetry_Int_Tables_number   1
_chemical_formula_structural   Zr4Al11Si
_chemical_formula_sum   'Zr4 Al11 Si1'
_cell_volume   275.96269991
_cell_formula_units_Z   1
loop_
 _symmetry_equiv_pos_site_id
 _symmetry_equiv_pos_as_xyz
  1  'x, y, z'
loop_
 _atom_site_type_symbol
 _atom_site_label
 _atom_site_symmetry_multiplicity
 _atom_site_fract_x
 _atom_site_fract_y
 _atom_site_fract_z
 _atom_site_occupancy
  Zr  Zr0  1  0.50000000  0.50000000  0.38007300  1
  Zr  Zr1  1  0.00000000  0.00000000  0.88508200  1
  Zr  Zr2  1  0.00000000  0.00000000  0.11491800  1
  Zr  Zr3  1  0.50000000  0.50000000  0.61992700  1
  Al  Al0  1  0.50000000  0.50000000  0.12626400  1
  Al  Al1  1  0.00000000  0.00000000  0.62488400  1
  Al  Al2  1  0.00000000  0.00000000  0.37511600  1
  Al  Al3  1  0.50000000  0.50000000  0.87373600  1
  Al  Al4  1  0.00000000  0.50000000  0.24973500  1
  Al  Al5  1  0.50000000  0.00000000  0.75001400  1
  Al  Al6  1  0.50000000  0.00000000  0.24998600  1
  Al  Al7  1  0.00000000  0.50000000  0.75026500  1
  Al  Al8  1  0.00000000  0.50000000  0.50000000  1
  Al  Al9  1  0.00000000  0.50000000  0.00000000  1
  Al  Al10  1  0.50000000  0.00000000  0.50000000  1
  Si  Si0  1  0.50000000  0.00000000  0.00000000  1
loop_
_geom_bond_atom_site_label_1
_geom_bond_atom_site_label_2
_geom_bond_distance
_geom_bond_site_symmetry_2
Al0 Zr2 2.836491 1_555
Al0 Zr2 2.836491 1_565
Al0 Zr2 2.836491 1_665
Al0 Zr2 2.836491 1_655
Al0 Al4 2.914804 1_655
Al0 Al4 2.914804 1_555
Al0 Al6 2.929825 1_565
Al0 Al6 2.929825 1_555
Al0 Al9 2.950121 1_655
Al0 Al9 2.950121 1_555
Al0 Si0 2.961854 1_555
Al0 Si0 2.961854 1_565
Al1 Zr3 2.831033 1_445
Al1 Zr3 2.831033 1_545
Al1 Zr3 2.831033 1_455
Al1 Zr3 2.831033 1_555
Al1 Al10 2.932626 1_455
Al1 Al10 2.932626 1_555
Al1 Al5 2.935738 1_455
Al1 Al5 2.935738 1_555
Al1 Al8 2.944428 1_545
Al1 Al8 2.944428 1_555
Al1 Al7 2.950694 1_555
Al1 Al7 2.950694 1_545
Al2 Zr0 2.831033 1_445
Al2 Zr0 2.831033 1_545
Al2 Zr0 2.831033 1_455
Al2 Zr0 2.831033 1_555
Al2 Al6 2.935738 1_555
Al2 Al6 2.935738 1_455
Al2 Al8 2.944428 1_545
Al2 Al8 2.944428 1_555
Al2 Al4 2.950694 1_545
Al2 Al4 2.950694 1_555
Al3 Zr1 2.836491 1_565
Al3 Zr1 2.836491 1_655
Al3 Zr1 2.836491 1_665
Al3 Zr1 2.836491 1_555
Al3 Al7 2.914804 1_655
Al3 Al7 2.914804 1_555
Al3 Al5 2.929825 1_565
Al3 Al5 2.929825 1_555
Al3 Al9 2.950121 1_556
Al3 Al9 2.950121 1_656
Al3 Si0 2.961854 1_566
Al3 Si0 2.961854 1_556
Al4 Al6 2.829748 1_565
Al4 Al6 2.829748 1_465
Al4 Al6 2.829748 1_555
Al4 Al6 2.829748 1_455
Al4 Zr0 3.002273 1_455
Al4 Zr0 3.002273 1_555
Al4 Zr2 3.071754 1_565
Al4 Zr2 3.071754 1_555
Al5 Al7 2.829748 1_645
Al5 Al7 2.829748 1_655
Al5 Al7 2.829748 1_555
Al5 Al7 2.829748 1_545
Al5 Zr3 3.010581 1_555
Al5 Zr3 3.010581 1_545
Al5 Zr1 3.063727 1_555
Al5 Zr1 3.063727 1_655
Al6 Zr0 3.010581 1_555
Al6 Zr0 3.010581 1_545
Al6 Zr2 3.063727 1_555
Al6 Zr2 3.063727 1_655
Al7 Zr3 3.002273 1_455
Al7 Zr3 3.002273 1_555
Al7 Zr1 3.071754 1_555
Al7 Zr1 3.071754 1_565
Al8 Zr3 2.870529 1_555
Al8 Zr3 2.870529 1_455
Al8 Zr0 2.870529 1_555
Al8 Zr0 2.870529 1_455
Al9 Zr1 2.821345 1_554
Al9 Zr1 2.821345 1_564
Al9 Zr2 2.821345 1_555
Al9 Zr2 2.821345 1_565
Al9 Si0 2.829744 1_555
Al9 Si0 2.829744 1_465
Al9 Si0 2.829744 1_565
Al9 Si0 2.829744 1_455
Al10 Al8 2.829744 1_555
Al10 Al8 2.829744 1_645
Al10 Al8 2.829744 1_655
Al10 Al8 2.829744 1_545
Al10 Zr3 2.882586 1_545
Al10 Zr0 2.882586 1_545
Al10 Zr3 2.882586 1_555
Al10 Zr0 2.882586 1_555
Al10 Al2 2.932626 1_555
Al10 Al2 2.932626 1_655
Si0 Zr1 2.809025 1_654
Si0 Zr1 2.809025 1_554
Si0 Zr2 2.809025 1_555
Si0 Zr2 2.809025 1_655
