# generated using pymatgen
data_Rb2LiCoF6
_symmetry_space_group_name_H-M   'P 1'
_cell_length_a   5.82522500
_cell_length_b   5.82522403
_cell_length_c   5.82522433
_cell_angle_alpha   60.00000511
_cell_angle_beta   60.00000189
_cell_angle_gamma   60.00000016
_symmetry_Int_Tables_number   1
_chemical_formula_structural   Rb2LiCoF6
_chemical_formula_sum   'Rb2 Li1 Co1 F6'
_cell_volume   139.77291339
_cell_formula_units_Z   1
loop_
 _symmetry_equiv_pos_site_id
 _symmetry_equiv_pos_as_xyz
  1  'x, y, z'
loop_
 _atom_site_type_symbol
 _atom_site_label
 _atom_site_symmetry_multiplicity
 _atom_site_fract_x
 _atom_site_fract_y
 _atom_site_fract_z
 _atom_site_occupancy
  Rb  Rb0  1  0.25000000  0.25000000  0.25000000  1
  Rb  Rb1  1  0.75000000  0.75000000  0.75000000  1
  Li  Li0  1  0.50000000  0.50000000  0.50000000  1
  Co  Co0  1  0.00000000  0.00000000  0.00000000  1
  F  F0  1  0.23002300  0.76997700  0.23002300  1
  F  F1  1  0.76997700  0.76997700  0.23002300  1
  F  F2  1  0.76997700  0.23002300  0.76997700  1
  F  F3  1  0.76997700  0.23002300  0.23002300  1
  F  F4  1  0.23002300  0.76997700  0.76997700  1
  F  F5  1  0.23002300  0.23002300  0.76997700  1
loop_
_geom_bond_atom_site_label_1
_geom_bond_atom_site_label_2
_geom_bond_distance
_geom_bond_site_symmetry_2
Co0 F3 1.894955 1_455
Co0 F4 1.894955 1_544
Co0 F0 1.894955 1_545
Co0 F5 1.894955 1_554
Co0 F1 1.894955 1_445
Co0 F2 1.894955 1_454
F0 Li0 2.224101 1_555
F0 Rb0 2.917258 1_555
F0 Rb0 2.917258 1_565
F0 Rb1 2.917258 1_455
F0 Rb1 2.917258 1_554
F1 Li0 2.224101 1_555
F1 Rb1 2.917258 1_554
F1 Rb1 2.917258 1_555
F1 Rb0 2.917258 1_655
F1 Rb0 2.917258 1_565
F2 Li0 2.224101 1_555
F2 Rb1 2.917258 1_555
F2 Rb1 2.917258 1_545
F2 Rb0 2.917258 1_655
F2 Rb0 2.917258 1_556
F3 Li0 2.224100 1_555
F3 Rb1 2.917258 1_554
F3 Rb1 2.917258 1_545
F3 Rb0 2.917258 1_655
F3 Rb0 2.917258 1_555
F4 Li0 2.224100 1_555
F4 Rb0 2.917258 1_556
F4 Rb0 2.917258 1_565
F4 Rb1 2.917258 1_455
F4 Rb1 2.917258 1_555
F5 Li0 2.224101 1_555
F5 Rb0 2.917258 1_556
F5 Rb0 2.917258 1_555
F5 Rb1 2.917258 1_455
F5 Rb1 2.917258 1_545
