# generated using pymatgen
data_ZnH8N2(OF2)2
_symmetry_space_group_name_H-M   'P 1'
_cell_length_a   5.74691423
_cell_length_b   5.99805600
_cell_length_c   8.40599335
_cell_angle_alpha   90.00000000
_cell_angle_beta   92.79717396
_cell_angle_gamma   90.00000000
_symmetry_Int_Tables_number   1
_chemical_formula_structural   ZnH8N2(OF2)2
_chemical_formula_sum   'Zn2 H16 N4 O4 F8'
_cell_volume   289.41199267
_cell_formula_units_Z   2
loop_
 _symmetry_equiv_pos_site_id
 _symmetry_equiv_pos_as_xyz
  1  'x, y, z'
loop_
 _atom_site_type_symbol
 _atom_site_label
 _atom_site_symmetry_multiplicity
 _atom_site_fract_x
 _atom_site_fract_y
 _atom_site_fract_z
 _atom_site_occupancy
  Zn  Zn0  1  0.00000000  0.00000000  0.00000000  1
  Zn  Zn1  1  0.50000000  0.50000000  0.00000000  1
  H  H0  1  0.46476800  0.16999600  0.74046500  1
  H  H1  1  0.03523200  0.66999600  0.25953500  1
  H  H2  1  0.53523200  0.83000400  0.25953500  1
  H  H3  1  0.96476800  0.33000400  0.74046500  1
  H  H4  1  0.44229200  0.90927400  0.82698700  1
  H  H5  1  0.05770800  0.40927400  0.17301300  1
  H  H6  1  0.55770800  0.09072600  0.17301300  1
  H  H7  1  0.94229200  0.59072600  0.82698700  1
  H  H8  1  0.63477500  0.95996100  0.68020100  1
  H  H9  1  0.86522500  0.45996100  0.31979900  1
  H  H10  1  0.36522500  0.04003900  0.31979900  1
  H  H11  1  0.13477500  0.54003900  0.68020100  1
  H  H12  1  0.15250100  0.97244300  0.65367400  1
  H  H13  1  0.34749900  0.47244300  0.34632600  1
  H  H14  1  0.84749900  0.02755700  0.34632600  1
  H  H15  1  0.65250100  0.52755700  0.65367400  1
  N  N0  1  0.47300900  0.99599500  0.72124600  1
  N  N1  1  0.02699100  0.49599500  0.27875400  1
  N  N2  1  0.52699100  0.00400500  0.27875400  1
  N  N3  1  0.97300900  0.50400500  0.72124600  1
  O  O0  1  0.30323800  0.92914800  0.60240500  1
  O  O1  1  0.19676200  0.42914800  0.39759500  1
  O  O2  1  0.69676200  0.07085200  0.39759500  1
  O  O3  1  0.80323800  0.57085200  0.60240500  1
  F  F0  1  0.21762000  0.28221400  0.03241200  1
  F  F1  1  0.28238000  0.78221400  0.96758800  1
  F  F2  1  0.78238000  0.71778600  0.96758800  1
  F  F3  1  0.71762000  0.21778600  0.03241200  1
  F  F4  1  0.96583400  0.05719600  0.75935500  1
  F  F5  1  0.53416600  0.55719600  0.24064500  1
  F  F6  1  0.03416600  0.94280400  0.24064500  1
  F  F7  1  0.46583400  0.44280400  0.75935500  1
loop_
_geom_bond_atom_site_label_1
_geom_bond_atom_site_label_2
_geom_bond_distance
_geom_bond_site_symmetry_2
H0 N0 1.057512 1_545
H1 N1 1.057512 1_555
H2 N2 1.057512 1_565
H3 N3 1.057512 1_555
H4 N0 1.052193 1_555
H5 N1 1.052193 1_555
H6 N2 1.052193 1_555
H7 N3 1.052193 1_555
H8 N0 1.030204 1_555
H9 N1 1.030204 1_655
H10 N2 1.030204 1_555
H11 N3 1.030204 1_455
H12 O0 1.019821 1_555
H13 O1 1.019821 1_555
H14 O2 1.019821 1_555
H15 O3 1.019821 1_555
N0 O0 1.419683 1_555
N1 O1 1.419683 1_555
N2 O2 1.419683 1_555
N3 O3 1.419683 1_555
F0 Zn1 2.111234 1_555
F0 Zn0 2.114341 1_555
F1 Zn0 2.111234 1_566
F1 Zn1 2.114341 1_556
F2 Zn1 2.111234 1_556
F2 Zn0 2.114341 1_666
F3 Zn0 2.111234 1_655
F3 Zn1 2.114341 1_555
F4 H12 1.513744 1_645
F4 H3 1.643987 1_555
F4 Zn0 2.051693 1_656
F5 H13 1.513744 1_555
F5 H2 1.643987 1_555
F5 Zn1 2.051693 1_555
F6 H14 1.513744 1_465
F6 H1 1.643987 1_555
F6 Zn0 2.051693 1_565
F7 H15 1.513744 1_555
F7 H0 1.643987 1_555
F7 Zn1 2.051693 1_556
