# generated using pymatgen
data_Fe(GeO3)2
_symmetry_space_group_name_H-M   'P 1'
_cell_length_a   8.84647900
_cell_length_b   5.42657600
_cell_length_c   10.27945457
_cell_angle_alpha   75.71329331
_cell_angle_beta   90.00000000
_cell_angle_gamma   90.00000000
_symmetry_Int_Tables_number   1
_chemical_formula_structural   Fe(GeO3)2
_chemical_formula_sum   'Fe4 Ge8 O24'
_cell_volume   478.21468803
_cell_formula_units_Z   4
loop_
 _symmetry_equiv_pos_site_id
 _symmetry_equiv_pos_as_xyz
  1  'x, y, z'
loop_
 _atom_site_type_symbol
 _atom_site_label
 _atom_site_symmetry_multiplicity
 _atom_site_fract_x
 _atom_site_fract_y
 _atom_site_fract_z
 _atom_site_occupancy
  Fe  Fe0  1  0.65687600  0.02876600  0.23103600  1
  Fe  Fe1  1  0.15687600  0.47123400  0.76896400  1
  Fe  Fe2  1  0.34312400  0.97123400  0.76896400  1
  Fe  Fe3  1  0.84312400  0.52876600  0.23103600  1
  Ge  Ge0  1  0.33739700  0.15831800  0.05515300  1
  Ge  Ge1  1  0.83739700  0.34168200  0.94484700  1
  Ge  Ge2  1  0.66260300  0.84168200  0.94484700  1
  Ge  Ge3  1  0.16260300  0.65831800  0.05515300  1
  Ge  Ge4  1  0.34761900  0.86869000  0.48712500  1
  Ge  Ge5  1  0.84761900  0.63131000  0.51287500  1
  Ge  Ge6  1  0.65238100  0.13131000  0.51287500  1
  Ge  Ge7  1  0.15238100  0.36869000  0.48712500  1
  O  O0  1  0.29277600  0.60078100  0.42322000  1
  O  O1  1  0.79277600  0.89921900  0.57678000  1
  O  O2  1  0.70722400  0.39921900  0.57678000  1
  O  O3  1  0.20722400  0.10078100  0.42322000  1
  O  O4  1  0.29446100  0.83624000  0.12127100  1
  O  O5  1  0.79446100  0.66376000  0.87872900  1
  O  O6  1  0.70553900  0.16376000  0.87872900  1
  O  O7  1  0.20553900  0.33624000  0.12127100  1
  O  O8  1  0.96696400  0.42068500  0.40307900  1
  O  O9  1  0.46696400  0.07931500  0.59692100  1
  O  O10  1  0.03303600  0.57931500  0.59692100  1
  O  O11  1  0.53303600  0.92068500  0.40307900  1
  O  O12  1  0.98305000  0.71624700  0.11238900  1
  O  O13  1  0.48305000  0.78375300  0.88761100  1
  O  O14  1  0.01695000  0.28375300  0.88761100  1
  O  O15  1  0.51695000  0.21624700  0.11238900  1
  O  O16  1  0.32474800  0.23027900  0.87495600  1
  O  O17  1  0.82474800  0.26972100  0.12504400  1
  O  O18  1  0.67525200  0.76972100  0.12504400  1
  O  O19  1  0.17525200  0.73027900  0.87495600  1
  O  O20  1  0.30934800  0.70928000  0.66697300  1
  O  O21  1  0.80934800  0.79072000  0.33302700  1
  O  O22  1  0.69065200  0.29072000  0.33302700  1
  O  O23  1  0.19065200  0.20928000  0.66697300  1
loop_
_geom_bond_atom_site_label_1
_geom_bond_atom_site_label_2
_geom_bond_distance
_geom_bond_site_symmetry_2
Fe0 O15 1.855377 1_555
Fe0 O21 1.979596 1_545
Fe0 O22 1.986127 1_555
Fe0 O18 1.986331 1_545
Fe0 O11 2.039585 1_545
Fe0 O17 2.097411 1_555
Fe1 O14 1.855377 1_555
Fe1 O20 1.979596 1_555
Fe1 O23 1.986127 1_555
Fe1 O19 1.986331 1_555
Fe1 O10 2.039585 1_555
Fe1 O16 2.097411 1_555
Fe2 O13 1.855377 1_555
Fe2 O23 1.979596 1_565
Fe2 O20 1.986127 1_555
Fe2 O16 1.986331 1_565
Fe2 O9 2.039585 1_565
Fe2 O19 2.097411 1_555
Fe3 O12 1.855377 1_555
Fe3 O22 1.979596 1_555
Fe3 O21 1.986127 1_555
Fe3 O17 1.986331 1_555
Fe3 O8 2.039585 1_555
Fe3 O18 2.097411 1_555
Ge0 O15 1.749090 1_555
Ge0 O4 1.753471 1_545
Ge0 O7 1.754618 1_555
Ge0 O16 1.799757 1_554
Ge1 O14 1.749090 1_655
Ge1 O5 1.753471 1_555
Ge1 O6 1.754618 1_555
Ge1 O17 1.799757 1_556
Ge2 O13 1.749090 1_555
Ge2 O6 1.753471 1_565
Ge2 O5 1.754618 1_555
Ge2 O18 1.799757 1_556
Ge3 O12 1.749090 1_455
Ge3 O7 1.753471 1_555
Ge3 O4 1.754618 1_555
Ge3 O19 1.799757 1_554
Ge4 O3 1.775387 1_565
Ge4 O0 1.803299 1_555
Ge4 O11 1.842891 1_555
Ge4 O20 1.868547 1_555
Ge4 O9 2.081245 1_565
Ge5 O2 1.775387 1_555
Ge5 O1 1.803299 1_555
Ge5 O10 1.842891 1_655
Ge5 O21 1.868547 1_555
Ge5 O8 2.081245 1_555
Ge6 O1 1.775387 1_545
Ge6 O2 1.803299 1_555
Ge6 O9 1.842891 1_555
Ge6 O22 1.868547 1_555
Ge6 O11 2.081245 1_545
Ge7 O0 1.775387 1_555
Ge7 O3 1.803299 1_555
Ge7 O8 1.842891 1_455
Ge7 O23 1.868547 1_555
Ge7 O10 2.081245 1_555
