# generated using pymatgen
data_Li3CrCo3O8
_symmetry_space_group_name_H-M   'P 1'
_cell_length_a   5.88457294
_cell_length_b   5.88729767
_cell_length_c   10.40018422
_cell_angle_alpha   73.15404110
_cell_angle_beta   106.73799639
_cell_angle_gamma   121.31021955
_symmetry_Int_Tables_number   1
_chemical_formula_structural   Li3CrCo3O8
_chemical_formula_sum   'Li6 Cr2 Co6 O16'
_cell_volume   290.43486409
_cell_formula_units_Z   2
loop_
 _symmetry_equiv_pos_site_id
 _symmetry_equiv_pos_as_xyz
  1  'x, y, z'
loop_
 _atom_site_type_symbol
 _atom_site_label
 _atom_site_symmetry_multiplicity
 _atom_site_fract_x
 _atom_site_fract_y
 _atom_site_fract_z
 _atom_site_occupancy
  Li  Li0  1  0.25365800  0.24777500  0.25104300  1
  Li  Li1  1  0.74636900  0.75235800  0.74894500  1
  Li  Li2  1  0.75253500  0.74470200  0.25054300  1
  Li  Li3  1  0.24744200  0.25535800  0.74945300  1
  Li  Li4  1  0.25083800  0.75198100  0.25385900  1
  Li  Li5  1  0.74917000  0.24807700  0.74612100  1
  Cr  Cr0  1  0.49981500  0.49990500  0.50004800  1
  Cr  Cr1  1  0.00012400  0.99989200  0.00013100  1
  Co  Co0  1  0.50008700  0.49994900  0.00001000  1
  Co  Co1  1  0.99992900  0.99999400  0.49998000  1
  Co  Co2  1  0.50005000  0.99995800  0.99997700  1
  Co  Co3  1  0.99991900  0.50004300  0.49996400  1
  Co  Co4  1  0.00005100  0.49996700  0.99997700  1
  Co  Co5  1  0.50001500  0.00010700  0.49995100  1
  O  O0  1  0.37938200  0.62061400  0.11174500  1
  O  O1  1  0.87204100  0.12987900  0.62036100  1
  O  O2  1  0.12796300  0.87022700  0.37958700  1
  O  O3  1  0.62073000  0.37931300  0.88821600  1
  O  O4  1  0.37240900  0.14775200  0.10605300  1
  O  O5  1  0.87217000  0.64212500  0.60824100  1
  O  O6  1  0.85228100  0.62766900  0.10603400  1
  O  O7  1  0.35475600  0.13081900  0.60906700  1
  O  O8  1  0.86776700  0.13211800  0.10469400  1
  O  O9  1  0.37147100  0.63197300  0.60647900  1
  O  O10  1  0.62840000  0.36819400  0.39353300  1
  O  O11  1  0.13232500  0.86784600  0.89538300  1
  O  O12  1  0.64511900  0.86920600  0.39091500  1
  O  O13  1  0.14776600  0.37205900  0.89403600  1
  O  O14  1  0.12759600  0.35794500  0.39165100  1
  O  O15  1  0.62782400  0.85219600  0.89400300  1
loop_
_geom_bond_atom_site_label_1
_geom_bond_atom_site_label_2
_geom_bond_distance
_geom_bond_site_symmetry_2
Li0 O2 2.100814 1_545
Li0 O0 2.133227 1_555
Li0 O4 2.158288 1_555
Li0 O10 2.159478 1_555
Li0 O14 2.187260 1_555
Li0 O8 2.222542 1_455
Li1 O1 2.100886 1_565
Li1 O3 2.133879 1_555
Li1 O15 2.157395 1_555
Li1 O9 2.159957 1_555
Li1 O5 2.187305 1_555
Li1 O11 2.223266 1_655
Li2 O2 2.097190 1_655
Li2 O0 2.134805 1_555
Li2 O6 2.146314 1_555
Li2 O10 2.165813 1_555
Li2 O12 2.168274 1_555
Li2 O8 2.223198 1_565
Li3 O1 2.097303 1_455
Li3 O3 2.135149 1_555
Li3 O13 2.145420 1_555
Li3 O9 2.166139 1_555
Li3 O7 2.168143 1_555
Li3 O11 2.223996 1_545
Li4 O2 2.076681 1_555
Li4 O14 2.210054 1_555
Li4 O12 2.211855 1_555
Li4 O4 2.264684 1_565
Li4 O6 2.278405 1_455
Li4 O0 2.295511 1_555
Li5 O1 2.076742 1_555
Li5 O5 2.210549 1_555
Li5 O7 2.212386 1_555
Li5 O15 2.265521 1_545
Li5 O13 2.279036 1_655
Li5 O3 2.294388 1_555
Cr0 O7 1.984309 1_555
Cr0 O12 1.985688 1_555
Cr0 O5 1.996861 1_555
Cr0 O14 1.997053 1_555
Cr0 O9 1.997712 1_555
Cr0 O10 1.997872 1_555
Cr1 O6 1.985867 1_455
Cr1 O13 1.986325 1_564
Cr1 O4 1.988548 1_565
Cr1 O15 1.989366 1_454
Cr1 O11 2.000975 1_554
Cr1 O8 2.000976 1_465
Co0 O4 1.900753 1_555
Co0 O15 1.900821 1_554
Co0 O6 1.902929 1_555
Co0 O13 1.903265 1_554
Co0 O0 1.959059 1_555
Co0 O3 1.959165 1_554
Co1 O12 1.926147 1_555
Co1 O7 1.926309 1_665
Co1 O5 1.933453 1_555
Co1 O14 1.934073 1_665
Co1 O1 2.101008 1_565
Co1 O2 2.101224 1_655
Co2 O11 1.963677 1_555
Co2 O8 1.964088 1_566
Co2 O0 2.040989 1_556
Co2 O3 2.041008 1_565
Co2 O15 2.061478 1_555
Co2 O4 2.061854 1_566
Co3 O10 1.986886 1_555
Co3 O9 1.987329 1_655
Co3 O2 2.034700 1_655
Co3 O1 2.034712 1_555
Co3 O5 2.054276 1_555
Co3 O14 2.054324 1_655
Co4 O11 1.962132 1_555
Co4 O8 1.962447 1_456
Co4 O3 2.043097 1_455
Co4 O0 2.043169 1_556
Co4 O13 2.061424 1_555
Co4 O6 2.061694 1_456
Co5 O10 1.970194 1_555
Co5 O9 1.970779 1_545
Co5 O2 2.044815 1_545
Co5 O1 2.044908 1_555
Co5 O12 2.087374 1_545
Co5 O7 2.087882 1_555
