# generated using pymatgen
data_Te2MoWSeS
_symmetry_space_group_name_H-M   'P 1'
_cell_length_a   3.39701364
_cell_length_b   3.39701364
_cell_length_c   38.71870400
_cell_angle_alpha   90.00000000
_cell_angle_beta   90.00000000
_cell_angle_gamma   119.99999290
_symmetry_Int_Tables_number   1
_chemical_formula_structural   Te2MoWSeS
_chemical_formula_sum   'Te4 Mo2 W2 Se2 S2'
_cell_volume   386.94216304
_cell_formula_units_Z   2
loop_
 _symmetry_equiv_pos_site_id
 _symmetry_equiv_pos_as_xyz
  1  'x, y, z'
loop_
 _atom_site_type_symbol
 _atom_site_label
 _atom_site_symmetry_multiplicity
 _atom_site_fract_x
 _atom_site_fract_y
 _atom_site_fract_z
 _atom_site_occupancy
  Te  Te0  1  0.33333300  0.66666700  0.04557800  1
  Te  Te1  1  0.33333300  0.66666700  0.42100500  1
  Te  Te2  1  0.33333300  0.66666700  0.14227200  1
  Te  Te3  1  0.33333300  0.66666700  0.51835300  1
  Mo  Mo0  1  0.00000000  0.00000000  0.09390600  1
  Mo  Mo1  1  0.33333300  0.66666700  0.28177200  1
  W  W0  1  0.00000000  0.00000000  0.46964600  1
  W  W1  1  0.33333300  0.66666700  0.65753100  1
  Se  Se0  1  0.00000000  0.00000000  0.32438400  1
  Se  Se1  1  0.00000000  0.00000000  0.23922800  1
  S  S0  1  0.00000000  0.00000000  0.69645200  1
  S  S1  1  0.00000000  0.00000000  0.61862000  1
loop_
_geom_bond_atom_site_label_1
_geom_bond_atom_site_label_2
_geom_bond_distance
_geom_bond_site_symmetry_2
Te1 W0 2.719088 1_565
Te1 W0 2.719090 1_665
Te1 W0 2.719090 1_555
Te3 W0 2.720859 1_565
Te3 W0 2.720861 1_665
Te3 W0 2.720861 1_555
Mo0 Te0 2.710708 1_545
Mo0 Te0 2.710711 1_445
Mo0 Te0 2.710711 1_555
Mo0 Te2 2.711724 1_545
Mo0 Te2 2.711726 1_445
Mo0 Te2 2.711726 1_555
Mo1 Se1 2.561247 1_565
Mo1 Se1 2.561250 1_665
Mo1 Se1 2.561250 1_555
Mo1 Se0 2.562941 1_565
Mo1 Se0 2.562944 1_665
Mo1 Se0 2.562944 1_555
S0 W1 2.473362 1_545
S0 W1 2.473365 1_445
S0 W1 2.473365 1_555
S1 W1 2.473126 1_545
S1 W1 2.473129 1_555
S1 W1 2.473129 1_445
