# generated using pymatgen
data_Pr3Sm
_symmetry_space_group_name_H-M   'P 1'
_cell_length_a   6.39629748
_cell_length_b   6.39629748
_cell_length_c   6.39629748
_cell_angle_alpha   131.60245359
_cell_angle_beta   131.60245359
_cell_angle_gamma   70.85763759
_symmetry_Int_Tables_number   1
_chemical_formula_structural   Pr3Sm
_chemical_formula_sum   'Pr3 Sm1'
_cell_volume   143.31102284
_cell_formula_units_Z   1
loop_
 _symmetry_equiv_pos_site_id
 _symmetry_equiv_pos_as_xyz
  1  'x, y, z'
loop_
 _atom_site_type_symbol
 _atom_site_label
 _atom_site_symmetry_multiplicity
 _atom_site_fract_x
 _atom_site_fract_y
 _atom_site_fract_z
 _atom_site_occupancy
  Pr  Pr0  1  0.75000000  0.25000000  0.50000000  1
  Pr  Pr1  1  0.25000000  0.75000000  0.50000000  1
  Pr  Pr2  1  0.50000000  0.50000000  0.00000000  1
  Sm  Sm0  1  0.00000000  0.00000000  0.00000000  1
loop_
_geom_bond_atom_site_label_1
_geom_bond_atom_site_label_2
_geom_bond_distance
_geom_bond_site_symmetry_2
Pr0 Sm0 3.696653 1_655
Pr0 Pr2 3.696653 1_545
Pr0 Pr2 3.696653 1_555
Pr0 Sm0 3.696653 1_666
Pr0 Pr2 3.696653 1_556
Pr0 Pr2 3.696653 1_656
Pr0 Sm0 3.696653 1_555
Pr0 Sm0 3.696653 1_656
Pr0 Pr1 3.707877 1_544
Pr0 Pr1 3.707877 1_645
Pr0 Pr1 3.707877 1_656
Pr0 Pr1 3.707877 1_555
Pr1 Pr2 3.696653 1_566
Pr1 Pr2 3.696653 1_555
Pr1 Sm0 3.696653 1_555
Pr1 Sm0 3.696653 1_566
Pr1 Sm0 3.696653 1_666
Pr1 Pr2 3.696653 1_556
Pr1 Sm0 3.696653 1_565
Pr1 Pr2 3.696653 1_455
Pr2 Sm0 3.707877 1_554
Pr2 Sm0 3.707877 1_565
Pr2 Sm0 3.707877 1_655
Pr2 Sm0 3.707877 1_666
