# generated using pymatgen
data_YVB4
_symmetry_space_group_name_H-M   'P 1'
_cell_length_a   3.45298800
_cell_length_b   6.00896000
_cell_length_c   11.63958900
_cell_angle_alpha   90.00000000
_cell_angle_beta   90.00000000
_cell_angle_gamma   90.00000000
_symmetry_Int_Tables_number   1
_chemical_formula_structural   YVB4
_chemical_formula_sum   'Y4 V4 B16'
_cell_volume   241.50828145
_cell_formula_units_Z   4
loop_
 _symmetry_equiv_pos_site_id
 _symmetry_equiv_pos_as_xyz
  1  'x, y, z'
loop_
 _atom_site_type_symbol
 _atom_site_label
 _atom_site_symmetry_multiplicity
 _atom_site_fract_x
 _atom_site_fract_y
 _atom_site_fract_z
 _atom_site_occupancy
  Y  Y0  1  0.00000000  0.62429400  0.34845000  1
  Y  Y1  1  0.00000000  0.37570600  0.65155000  1
  Y  Y2  1  0.00000000  0.12429400  0.15155000  1
  Y  Y3  1  0.00000000  0.87570600  0.84845000  1
  V  V0  1  0.00000000  0.62699200  0.08266800  1
  V  V1  1  0.00000000  0.37300800  0.91733200  1
  V  V2  1  0.00000000  0.12699200  0.41733200  1
  V  V3  1  0.00000000  0.87300800  0.58266800  1
  B  B0  1  0.50000000  0.78618900  0.18546100  1
  B  B1  1  0.50000000  0.21381100  0.81453900  1
  B  B2  1  0.50000000  0.28618900  0.31453900  1
  B  B3  1  0.50000000  0.71381100  0.68546100  1
  B  B4  1  0.50000000  0.86400800  0.03255800  1
  B  B5  1  0.50000000  0.13599200  0.96744200  1
  B  B6  1  0.50000000  0.36400800  0.46744200  1
  B  B7  1  0.50000000  0.63599200  0.53255800  1
  B  B8  1  0.50000000  0.88558600  0.45251500  1
  B  B9  1  0.50000000  0.11441400  0.54748500  1
  B  B10  1  0.50000000  0.38558600  0.04748500  1
  B  B11  1  0.50000000  0.61441400  0.95251500  1
  B  B12  1  0.50000000  0.97762400  0.30776900  1
  B  B13  1  0.50000000  0.02237600  0.69223100  1
  B  B14  1  0.50000000  0.47762400  0.19223100  1
  B  B15  1  0.50000000  0.52237600  0.80776900  1
loop_
_geom_bond_atom_site_label_1
_geom_bond_atom_site_label_2
_geom_bond_distance
_geom_bond_site_symmetry_2
B0 B12 1.830281 1_555
B0 B4 1.840134 1_555
B0 B14 1.855828 1_555
B0 V0 2.308120 1_555
B0 V0 2.308120 1_655
B0 Y2 2.695221 1_565
B0 Y2 2.695221 1_665
B0 Y0 2.743400 1_655
B0 Y0 2.743400 1_555
B1 B13 1.830281 1_555
B1 B5 1.840134 1_555
B1 B15 1.855828 1_555
B1 V1 2.308120 1_555
B1 V1 2.308120 1_655
B1 Y3 2.695221 1_545
B1 Y3 2.695221 1_645
B1 Y1 2.743400 1_555
B1 Y1 2.743400 1_655
B2 B6 1.840134 1_555
B2 V2 2.308120 1_655
B2 V2 2.308120 1_555
B2 Y0 2.695221 1_555
B2 Y0 2.695221 1_655
B2 Y2 2.743400 1_555
B2 Y2 2.743400 1_655
B3 B7 1.840134 1_555
B3 V3 2.308120 1_555
B3 V3 2.308120 1_655
B3 Y1 2.695221 1_555
B3 Y1 2.695221 1_655
B3 Y3 2.743400 1_655
B3 Y3 2.743400 1_555
B4 B5 1.801532 1_564
B4 V0 2.312872 1_555
B4 V0 2.312872 1_655
B4 Y2 2.710222 1_565
B4 Y2 2.710222 1_665
B4 Y3 2.752802 1_554
B4 Y3 2.752802 1_654
B5 V1 2.312872 1_655
B5 V1 2.312872 1_555
B5 Y3 2.710222 1_645
B5 Y3 2.710222 1_545
B5 Y2 2.752802 1_556
B5 Y2 2.752802 1_656
B6 B9 1.765618 1_555
B6 B7 1.801532 1_555
B6 V2 2.312872 1_655
B6 V2 2.312872 1_555
B6 Y0 2.710222 1_655
B6 Y0 2.710222 1_555
B6 Y1 2.752802 1_555
B6 Y1 2.752802 1_655
B7 B8 1.765618 1_555
B7 V3 2.312872 1_555
B7 V3 2.312872 1_655
B7 Y1 2.710222 1_555
B7 Y1 2.710222 1_655
B7 Y0 2.752802 1_655
B7 Y0 2.752802 1_555
B8 B9 1.764259 1_565
B8 V2 2.291882 1_565
B8 V2 2.291882 1_665
B8 V3 2.298151 1_655
B8 V3 2.298151 1_555
B8 Y0 2.629289 1_655
B8 Y0 2.629289 1_555
B9 V3 2.291882 1_645
B9 V3 2.291882 1_545
B9 V2 2.298151 1_655
B9 V2 2.298151 1_555
B9 Y1 2.629289 1_555
B9 Y1 2.629289 1_655
B10 B11 1.764259 1_554
B10 B5 1.765618 1_554
B10 B14 1.773236 1_555
B10 V0 2.291882 1_555
B10 V0 2.291882 1_655
B10 V1 2.298151 1_554
B10 V1 2.298151 1_654
B10 Y2 2.629289 1_555
B10 Y2 2.629289 1_655
B11 B4 1.765618 1_556
B11 B15 1.773236 1_555
B11 V1 2.291882 1_655
B11 V1 2.291882 1_555
B11 V0 2.298151 1_556
B11 V0 2.298151 1_656
B11 Y3 2.629289 1_555
B11 Y3 2.629289 1_655
B12 B8 1.773236 1_555
B12 B2 1.855828 1_565
B12 V2 2.326517 1_565
B12 V2 2.326517 1_665
B12 Y2 2.657788 1_565
B12 Y2 2.657788 1_665
B12 Y0 2.777182 1_555
B12 Y0 2.777182 1_655
B13 B9 1.773236 1_555
B13 B3 1.855828 1_545
B13 V3 2.326517 1_645
B13 V3 2.326517 1_545
B13 Y3 2.657788 1_645
B13 Y3 2.657788 1_545
B13 Y1 2.777182 1_555
B13 Y1 2.777182 1_655
B14 B2 1.830281 1_555
B14 V0 2.326517 1_555
B14 V0 2.326517 1_655
B14 Y0 2.657788 1_655
B14 Y0 2.657788 1_555
B14 Y2 2.777182 1_555
B14 Y2 2.777182 1_655
B15 B3 1.830281 1_555
B15 V1 2.326517 1_555
B15 V1 2.326517 1_655
B15 Y1 2.657788 1_555
B15 Y1 2.657788 1_655
B15 Y3 2.777182 1_655
B15 Y3 2.777182 1_555
