# generated using pymatgen
data_CeMg14Sb
_symmetry_space_group_name_H-M   'P 1'
_cell_length_a   6.52169608
_cell_length_b   6.37664763
_cell_length_c   10.39607320
_cell_angle_alpha   90.00000000
_cell_angle_beta   90.00000000
_cell_angle_gamma   119.26696946
_symmetry_Int_Tables_number   1
_chemical_formula_structural   CeMg14Sb
_chemical_formula_sum   'Ce1 Mg14 Sb1'
_cell_volume   377.14963559
_cell_formula_units_Z   1
loop_
 _symmetry_equiv_pos_site_id
 _symmetry_equiv_pos_as_xyz
  1  'x, y, z'
loop_
 _atom_site_type_symbol
 _atom_site_label
 _atom_site_symmetry_multiplicity
 _atom_site_fract_x
 _atom_site_fract_y
 _atom_site_fract_z
 _atom_site_occupancy
  Ce  Ce0  1  0.16607383  0.33303642  0.12500000  1
  Mg  Mg0  1  0.16435797  0.33217849  0.62500000  1
  Mg  Mg1  1  0.16326928  0.83163414  0.62500000  1
  Mg  Mg2  1  0.66382671  0.32647020  0.12500000  1
  Mg  Mg3  1  0.66653357  0.33482719  0.62500000  1
  Mg  Mg4  1  0.66382671  0.83735552  0.12500000  1
  Mg  Mg5  1  0.66653357  0.83170538  0.62500000  1
  Mg  Mg6  1  0.33778352  0.16828783  0.38383628  1
  Mg  Mg7  1  0.33778352  0.16828783  0.86616372  1
  Mg  Mg8  1  0.33778352  0.66949669  0.38383628  1
  Mg  Mg9  1  0.33778352  0.66949669  0.86616372  1
  Mg  Mg10  1  0.83059054  0.16529577  0.38159826  1
  Mg  Mg11  1  0.83059054  0.16529577  0.86840174  1
  Mg  Mg12  1  0.83074915  0.66537507  0.37186133  1
  Mg  Mg13  1  0.83074915  0.66537507  0.87813867  1
  Sb  Sb0  1  0.17176489  0.83588195  0.12500000  1
loop_
_geom_bond_atom_site_label_1
_geom_bond_atom_site_label_2
_geom_bond_distance
_geom_bond_site_symmetry_2
Ce0 Sb0 3.188488 1_555
Ce0 Sb0 3.188488 1_545
Ce0 Mg4 3.255238 1_445
Ce0 Mg2 3.255238 1_455
Ce0 Mg4 3.266867 1_555
Ce0 Mg2 3.266867 1_555
Ce0 Mg6 3.278535 1_555
Ce0 Mg7 3.278535 1_554
Ce0 Mg8 3.278542 1_555
Ce0 Mg9 3.278542 1_554
Ce0 Mg11 3.280100 1_454
Ce0 Mg10 3.280100 1_455
Mg0 Mg7 3.132563 1_555
Mg0 Mg6 3.132563 1_555
Mg0 Mg9 3.132570 1_555
Mg0 Mg8 3.132570 1_555
Mg0 Mg10 3.163662 1_455
Mg0 Mg11 3.163662 1_455
Mg0 Mg1 3.188330 1_555
Mg0 Mg1 3.188330 1_545
Mg0 Mg5 3.254950 1_445
Mg0 Mg3 3.254950 1_455
Mg0 Mg5 3.266812 1_555
Mg0 Mg3 3.266813 1_555
Mg1 Mg9 3.130597 1_555
Mg1 Mg8 3.130597 1_555
Mg1 Mg6 3.130603 1_565
Mg1 Mg7 3.130603 1_565
Mg1 Mg3 3.239781 1_455
Mg1 Mg5 3.239781 1_455
Mg1 Mg12 3.241048 1_455
Mg1 Mg13 3.241048 1_455
Mg1 Mg3 3.281914 1_565
Mg1 Mg5 3.281915 1_555
Mg2 Mg4 3.118912 1_545
Mg2 Sb0 3.204494 1_545
Mg2 Mg4 3.257736 1_555
Mg2 Mg6 3.268417 1_555
Mg2 Mg7 3.268417 1_554
Mg2 Sb0 3.317222 1_655
Mg3 Mg7 3.127962 1_555
Mg3 Mg6 3.127962 1_555
Mg3 Mg5 3.168417 1_555
Mg3 Mg5 3.208230 1_545
Mg4 Sb0 3.204494 1_555
Mg4 Mg8 3.268417 1_555
Mg4 Mg9 3.268417 1_554
Mg4 Sb0 3.317222 1_655
Mg5 Mg9 3.127962 1_555
Mg5 Mg8 3.127962 1_555
Mg6 Mg8 3.180615 1_545
Mg6 Mg8 3.196032 1_555
Mg6 Sb0 3.265279 1_545
Mg7 Mg9 3.180615 1_545
Mg7 Mg9 3.196032 1_555
Mg7 Sb0 3.265279 1_546
Mg8 Sb0 3.265273 1_555
Mg9 Sb0 3.265273 1_556
Mg10 Mg3 3.138049 1_555
Mg10 Mg5 3.138056 1_545
Mg10 Mg12 3.189930 1_555
Mg10 Mg12 3.189930 1_545
Mg10 Mg8 3.223392 1_545
Mg10 Mg6 3.223392 1_555
Mg10 Mg2 3.232365 1_555
Mg10 Mg4 3.232371 1_545
Mg10 Mg8 3.298555 1_655
Mg10 Mg6 3.298555 1_655
Mg11 Mg3 3.138049 1_555
Mg11 Mg5 3.138056 1_545
Mg11 Mg13 3.189930 1_555
Mg11 Mg13 3.189930 1_545
Mg11 Mg9 3.223392 1_545
Mg11 Mg7 3.223392 1_555
Mg11 Mg2 3.232365 1_556
Mg11 Mg4 3.232371 1_546
Mg11 Mg9 3.298555 1_655
Mg11 Mg7 3.298555 1_655
Mg12 Mg4 3.184555 1_555
Mg12 Mg2 3.184561 1_555
Mg12 Mg5 3.210624 1_555
Mg12 Mg3 3.210630 1_555
Mg12 Sb0 3.217200 1_655
Mg12 Mg6 3.230302 1_555
Mg12 Mg8 3.230302 1_555
Mg12 Mg6 3.296307 1_665
Mg12 Mg8 3.296307 1_655
Mg13 Mg4 3.184555 1_556
Mg13 Mg2 3.184561 1_556
Mg13 Mg5 3.210624 1_555
Mg13 Mg3 3.210630 1_555
Mg13 Sb0 3.217200 1_656
Mg13 Mg7 3.230302 1_555
Mg13 Mg9 3.230302 1_555
Mg13 Mg7 3.296307 1_665
Mg13 Mg9 3.296307 1_655
