# generated using pymatgen
data_Eu3(GaP2)2
_symmetry_space_group_name_H-M   'P 1'
_cell_length_a   8.21003916
_cell_length_b   8.21003916
_cell_length_c   6.56583128
_cell_angle_alpha   89.41304752
_cell_angle_beta   89.41304752
_cell_angle_gamma   76.05965270
_symmetry_Int_Tables_number   1
_chemical_formula_structural   Eu3(GaP2)2
_chemical_formula_sum   'Eu6 Ga4 P8'
_cell_volume   429.49691586
_cell_formula_units_Z   2
loop_
 _symmetry_equiv_pos_site_id
 _symmetry_equiv_pos_as_xyz
  1  'x, y, z'
loop_
 _atom_site_type_symbol
 _atom_site_label
 _atom_site_symmetry_multiplicity
 _atom_site_fract_x
 _atom_site_fract_y
 _atom_site_fract_z
 _atom_site_occupancy
  Eu  Eu0  1  0.74885500  0.49478500  0.03515200  1
  Eu  Eu1  1  0.50521500  0.25114500  0.46484800  1
  Eu  Eu2  1  0.25114500  0.50521500  0.96484800  1
  Eu  Eu3  1  0.49478500  0.74885500  0.53515200  1
  Eu  Eu4  1  0.10040800  0.89959200  0.25000000  1
  Eu  Eu5  1  0.89959200  0.10040800  0.75000000  1
  Ga  Ga0  1  0.08169400  0.32519700  0.41549200  1
  Ga  Ga1  1  0.67480300  0.91830600  0.08450800  1
  Ga  Ga2  1  0.91830600  0.67480300  0.58450800  1
  Ga  Ga3  1  0.32519700  0.08169400  0.91549200  1
  P  P0  1  0.21152600  0.55931700  0.47490400  1
  P  P1  1  0.44068300  0.78847400  0.02509600  1
  P  P2  1  0.78847400  0.44068300  0.52509600  1
  P  P3  1  0.55931700  0.21152600  0.97490400  1
  P  P4  1  0.06898500  0.24194200  0.06739000  1
  P  P5  1  0.75805800  0.93101500  0.43261000  1
  P  P6  1  0.93101500  0.75805800  0.93261000  1
  P  P7  1  0.24194200  0.06898500  0.56739000  1
loop_
_geom_bond_atom_site_label_1
_geom_bond_atom_site_label_2
_geom_bond_distance
_geom_bond_site_symmetry_2
Eu0 P4 2.938609 1_655
Eu0 P6 2.978092 1_554
Eu0 P1 3.046379 1_555
Eu0 P3 3.124315 1_554
Eu0 P2 3.251773 1_555
Eu0 P2 3.384827 1_554
Eu1 P5 2.938609 1_545
Eu1 P7 2.978092 1_555
Eu1 P0 3.046379 1_555
Eu1 P2 3.124315 1_555
Eu1 P3 3.251773 1_554
Eu1 P3 3.384827 1_555
Eu2 P6 2.938609 1_455
Eu2 P4 2.978092 1_556
Eu2 P3 3.046379 1_555
Eu2 P1 3.124315 1_556
Eu2 P0 3.251773 1_555
Eu2 P0 3.384827 1_556
Eu3 P7 2.938609 1_565
Eu3 P5 2.978092 1_555
Eu3 P2 3.046379 1_555
Eu3 P0 3.124315 1_555
Eu3 P1 3.251773 1_556
Eu3 P1 3.384827 1_555
Eu4 P7 2.918003 1_565
Eu4 P6 2.918003 1_454
Eu4 P4 2.998685 1_565
Eu4 P5 2.998685 1_455
Eu4 P0 3.087482 1_555
Eu4 P1 3.087482 1_555
Eu5 P4 2.918003 1_656
Eu5 P5 2.918003 1_545
Eu5 P7 2.998685 1_655
Eu5 P6 2.998685 1_545
Eu5 P3 3.087482 1_555
Eu5 P2 3.087482 1_555
Ga0 P4 2.402754 1_555
Ga0 P7 2.408490 1_555
Ga0 P0 2.448272 1_555
Ga0 P2 2.467975 1_455
Ga1 P5 2.402754 1_555
Ga1 P6 2.408490 1_554
Ga1 P1 2.448272 1_555
Ga1 P3 2.467975 1_564
Ga2 P6 2.402754 1_555
Ga2 P5 2.408490 1_555
Ga2 P2 2.448272 1_555
Ga2 P0 2.467975 1_655
Ga3 P7 2.402754 1_555
Ga3 P4 2.408490 1_556
Ga3 P3 2.448272 1_555
Ga3 P1 2.467975 1_546
