# generated using pymatgen
data_LiTb3
_symmetry_space_group_name_H-M   'P 1'
_cell_length_a   4.89286100
_cell_length_b   4.89286100
_cell_length_c   4.89286100
_cell_angle_alpha   90.00000000
_cell_angle_beta   90.00000000
_cell_angle_gamma   90.00000000
_symmetry_Int_Tables_number   1
_chemical_formula_structural   LiTb3
_chemical_formula_sum   'Li1 Tb3'
_cell_volume   117.13552666
_cell_formula_units_Z   1
loop_
 _symmetry_equiv_pos_site_id
 _symmetry_equiv_pos_as_xyz
  1  'x, y, z'
loop_
 _atom_site_type_symbol
 _atom_site_label
 _atom_site_symmetry_multiplicity
 _atom_site_fract_x
 _atom_site_fract_y
 _atom_site_fract_z
 _atom_site_occupancy
  Li  Li0  1  0.00000000  0.00000000  0.00000000  1
  Tb  Tb0  1  0.00000000  0.50000000  0.50000000  1
  Tb  Tb1  1  0.50000000  0.00000000  0.50000000  1
  Tb  Tb2  1  0.50000000  0.50000000  0.00000000  1
loop_
_geom_bond_atom_site_label_1
_geom_bond_atom_site_label_2
_geom_bond_distance
_geom_bond_site_symmetry_2
Li0 Tb2 3.459775 1_555
Li0 Tb0 3.459775 1_554
Li0 Tb0 3.459775 1_555
Li0 Tb2 3.459775 1_445
Li0 Tb1 3.459775 1_454
Li0 Tb1 3.459775 1_554
Li0 Tb1 3.459775 1_455
Li0 Tb1 3.459775 1_555
Li0 Tb0 3.459775 1_544
Li0 Tb0 3.459775 1_545
Li0 Tb2 3.459775 1_455
Li0 Tb2 3.459775 1_545
Tb0 Tb2 3.459775 1_556
Tb0 Tb2 3.459775 1_555
Tb0 Tb1 3.459775 1_565
Tb0 Tb2 3.459775 1_456
Tb0 Tb1 3.459775 1_555
Tb0 Tb1 3.459775 1_465
Tb0 Tb1 3.459775 1_455
Tb0 Tb2 3.459775 1_455
Tb1 Tb2 3.459775 1_556
Tb1 Tb2 3.459775 1_555
Tb1 Tb2 3.459775 1_546
Tb1 Tb2 3.459775 1_545
