# generated using pymatgen
data_VZn10(B4Rh9)2
_symmetry_space_group_name_H-M   'P 1'
_cell_length_a   17.94363800
_cell_length_b   17.94363800
_cell_length_c   2.88407900
_cell_angle_alpha   90.00000000
_cell_angle_beta   90.00000000
_cell_angle_gamma   90.00000000
_symmetry_Int_Tables_number   1
_chemical_formula_structural   VZn10(B4Rh9)2
_chemical_formula_sum   'V2 Zn20 B16 Rh36'
_cell_volume   928.59886920
_cell_formula_units_Z   2
loop_
 _symmetry_equiv_pos_site_id
 _symmetry_equiv_pos_as_xyz
  1  'x, y, z'
loop_
 _atom_site_type_symbol
 _atom_site_label
 _atom_site_symmetry_multiplicity
 _atom_site_fract_x
 _atom_site_fract_y
 _atom_site_fract_z
 _atom_site_occupancy
  V  V0  1  0.00000000  0.00000000  0.00000000  1
  V  V1  1  0.50000000  0.50000000  0.00000000  1
  Zn  Zn0  1  0.54999500  0.04999500  0.00000000  1
  Zn  Zn1  1  0.45000500  0.95000500  0.00000000  1
  Zn  Zn2  1  0.04999500  0.45000500  0.00000000  1
  Zn  Zn3  1  0.95000500  0.54999500  0.00000000  1
  Zn  Zn4  1  0.03199700  0.18887800  0.00000000  1
  Zn  Zn5  1  0.96800300  0.81112200  0.00000000  1
  Zn  Zn6  1  0.18887800  0.96800300  0.00000000  1
  Zn  Zn7  1  0.53199700  0.31112200  0.00000000  1
  Zn  Zn8  1  0.81112200  0.03199700  0.00000000  1
  Zn  Zn9  1  0.46800300  0.68887800  0.00000000  1
  Zn  Zn10  1  0.68887800  0.53199700  0.00000000  1
  Zn  Zn11  1  0.31112200  0.46800300  0.00000000  1
  Zn  Zn12  1  0.20937000  0.70937000  0.00000000  1
  Zn  Zn13  1  0.79063000  0.29063000  0.00000000  1
  Zn  Zn14  1  0.70937000  0.79063000  0.00000000  1
  Zn  Zn15  1  0.29063000  0.20937000  0.00000000  1
  Zn  Zn16  1  0.66875800  0.16875800  0.00000000  1
  Zn  Zn17  1  0.33124200  0.83124200  0.00000000  1
  Zn  Zn18  1  0.16875800  0.33124200  0.00000000  1
  Zn  Zn19  1  0.83124200  0.66875800  0.00000000  1
  B  B0  1  0.33486400  0.03889000  0.00000000  1
  B  B1  1  0.66513600  0.96111000  0.00000000  1
  B  B2  1  0.03889000  0.66513600  0.00000000  1
  B  B3  1  0.83486400  0.46111000  0.00000000  1
  B  B4  1  0.96111000  0.33486400  0.00000000  1
  B  B5  1  0.16513600  0.53889000  0.00000000  1
  B  B6  1  0.53889000  0.83486400  0.00000000  1
  B  B7  1  0.46111000  0.16513600  0.00000000  1
  B  B8  1  0.16996100  0.12621200  0.00000000  1
  B  B9  1  0.83003900  0.87378800  0.00000000  1
  B  B10  1  0.12621200  0.83003900  0.00000000  1
  B  B11  1  0.66996100  0.37378800  0.00000000  1
  B  B12  1  0.87378800  0.16996100  0.00000000  1
  B  B13  1  0.33003900  0.62621200  0.00000000  1
  B  B14  1  0.62621200  0.66996100  0.00000000  1
  B  B15  1  0.37378800  0.33003900  0.00000000  1
  Rh  Rh0  1  0.25449600  0.08702300  0.50000000  1
  Rh  Rh1  1  0.74550400  0.91297700  0.50000000  1
  Rh  Rh2  1  0.08702300  0.74550400  0.50000000  1
  Rh  Rh3  1  0.75449600  0.41297700  0.50000000  1
  Rh  Rh4  1  0.91297700  0.25449600  0.50000000  1
  Rh  Rh5  1  0.24550400  0.58702300  0.50000000  1
  Rh  Rh6  1  0.58702300  0.75449600  0.50000000  1
  Rh  Rh7  1  0.41297700  0.24550400  0.50000000  1
  Rh  Rh8  1  0.04739900  0.32627800  0.50000000  1
  Rh  Rh9  1  0.95260100  0.67372200  0.50000000  1
  Rh  Rh10  1  0.32627800  0.95260100  0.50000000  1
  Rh  Rh11  1  0.54739900  0.17372200  0.50000000  1
  Rh  Rh12  1  0.67372200  0.04739900  0.50000000  1
  Rh  Rh13  1  0.45260100  0.82627800  0.50000000  1
  Rh  Rh14  1  0.82627800  0.54739900  0.50000000  1
  Rh  Rh15  1  0.17372200  0.45260100  0.50000000  1
  Rh  Rh16  1  0.15859500  0.21065200  0.50000000  1
  Rh  Rh17  1  0.84140500  0.78934800  0.50000000  1
  Rh  Rh18  1  0.21065200  0.84140500  0.50000000  1
  Rh  Rh19  1  0.65859500  0.28934800  0.50000000  1
  Rh  Rh20  1  0.78934800  0.15859500  0.50000000  1
  Rh  Rh21  1  0.34140500  0.71065200  0.50000000  1
  Rh  Rh22  1  0.71065200  0.65859500  0.50000000  1
  Rh  Rh23  1  0.28934800  0.34140500  0.50000000  1
  Rh  Rh24  1  0.09806900  0.06610900  0.50000000  1
  Rh  Rh25  1  0.90193100  0.93389100  0.50000000  1
  Rh  Rh26  1  0.06610900  0.90193100  0.50000000  1
  Rh  Rh27  1  0.59806900  0.43389100  0.50000000  1
  Rh  Rh28  1  0.93389100  0.09806900  0.50000000  1
  Rh  Rh29  1  0.40193100  0.56610900  0.50000000  1
  Rh  Rh30  1  0.56610900  0.59806900  0.50000000  1
  Rh  Rh31  1  0.43389100  0.40193100  0.50000000  1
  Rh  Rh32  1  0.08214600  0.58214600  0.50000000  1
  Rh  Rh33  1  0.91785400  0.41785400  0.50000000  1
  Rh  Rh34  1  0.58214600  0.91785400  0.50000000  1
  Rh  Rh35  1  0.41785400  0.08214600  0.50000000  1
loop_
_geom_bond_atom_site_label_1
_geom_bond_atom_site_label_2
_geom_bond_distance
_geom_bond_site_symmetry_2
Zn0 Zn1 2.537360 1_545
Zn2 Zn3 2.537360 1_455
B0 Rh10 2.121454 1_545
B0 Rh10 2.121454 1_544
B0 Rh35 2.213473 1_555
B0 Rh35 2.213473 1_554
B0 Rh0 2.214737 1_555
B0 Rh0 2.214737 1_554
B0 Zn1 2.610043 1_545
B1 Rh12 2.121454 1_565
B1 Rh12 2.121454 1_564
B1 Rh34 2.213473 1_554
B1 Rh34 2.213473 1_555
B1 Rh1 2.214737 1_554
B1 Rh1 2.214737 1_555
B1 Zn0 2.610043 1_565
B2 Rh9 2.121454 1_455
B2 Rh9 2.121454 1_454
B2 Rh32 2.213473 1_554
B2 Rh32 2.213473 1_555
B2 Rh2 2.214737 1_554
B2 Rh2 2.214737 1_555
B2 Zn3 2.610043 1_455
B3 Rh14 2.121454 1_555
B3 Rh14 2.121454 1_554
B3 Rh33 2.213473 1_555
B3 Rh33 2.213473 1_554
B3 Rh3 2.214737 1_554
B3 Rh3 2.214737 1_555
B3 Zn3 2.610043 1_555
B4 Rh8 2.121454 1_655
B4 Rh8 2.121454 1_654
B4 Rh33 2.213473 1_555
B4 Rh33 2.213473 1_554
B4 Rh4 2.214737 1_555
B4 Rh4 2.214737 1_554
B4 Zn2 2.610043 1_655
B5 Rh15 2.121454 1_554
B5 Rh15 2.121454 1_555
B5 Rh32 2.213473 1_555
B5 Rh32 2.213473 1_554
B5 Rh5 2.214737 1_555
B5 Rh5 2.214737 1_554
B5 Zn2 2.610043 1_555
B6 Rh13 2.121454 1_555
B6 Rh13 2.121454 1_554
B6 Rh34 2.213473 1_554
B6 Rh34 2.213473 1_555
B6 Rh6 2.214737 1_555
B6 Rh6 2.214737 1_554
B6 Zn1 2.610043 1_555
B7 Rh11 2.121454 1_554
B7 Rh11 2.121454 1_555
B7 Rh35 2.213473 1_555
B7 Rh35 2.213473 1_554
B7 Rh7 2.214737 1_554
B7 Rh7 2.214737 1_555
B7 Zn0 2.610043 1_555
B8 Rh16 2.101615 1_555
B8 Rh16 2.101615 1_554
B8 Rh0 2.207904 1_554
B8 Rh0 2.207904 1_555
B8 Rh24 2.215102 1_555
B8 Rh24 2.215102 1_554
B8 Zn15 2.629601 1_555
B9 Rh17 2.101615 1_554
B9 Rh17 2.101615 1_555
B9 Rh1 2.207904 1_555
B9 Rh1 2.207904 1_554
B9 Rh25 2.215102 1_555
B9 Rh25 2.215102 1_554
B9 Zn14 2.629601 1_555
B10 Rh18 2.101615 1_554
B10 Rh18 2.101615 1_555
B10 Rh2 2.207904 1_555
B10 Rh2 2.207904 1_554
B10 Rh26 2.215102 1_554
B10 Rh26 2.215102 1_555
B10 Zn12 2.629601 1_555
B11 Rh19 2.101615 1_555
B11 Rh19 2.101615 1_554
B11 Rh3 2.207904 1_554
B11 Rh3 2.207904 1_555
B11 Rh27 2.215102 1_555
B11 Rh27 2.215102 1_554
B11 Zn13 2.629601 1_555
B12 Rh20 2.101615 1_555
B12 Rh20 2.101615 1_554
B12 Rh4 2.207904 1_554
B12 Rh4 2.207904 1_555
B12 Rh28 2.215102 1_555
B12 Rh28 2.215102 1_554
B12 Zn13 2.629601 1_555
B13 Rh21 2.101615 1_555
B13 Rh21 2.101615 1_554
B13 Rh5 2.207904 1_555
B13 Rh5 2.207904 1_554
B13 Rh29 2.215102 1_554
B13 Rh29 2.215102 1_555
B13 Zn12 2.629601 1_555
B14 Rh22 2.101615 1_554
B14 Rh22 2.101615 1_555
B14 Rh6 2.207904 1_555
B14 Rh6 2.207904 1_554
B14 Rh30 2.215102 1_555
B14 Rh30 2.215102 1_554
B14 Zn14 2.629601 1_555
B15 Rh23 2.101615 1_555
B15 Rh23 2.101615 1_554
B15 Rh7 2.207904 1_555
B15 Rh7 2.207904 1_554
B15 Rh31 2.215102 1_554
B15 Rh31 2.215102 1_555
B15 Zn15 2.629601 1_555
Rh0 Zn15 2.705445 1_556
Rh0 Zn15 2.705445 1_555
Rh0 Zn6 2.833164 1_546
Rh0 Zn6 2.833164 1_545
Rh1 Zn14 2.705445 1_555
Rh1 Zn14 2.705445 1_556
Rh1 Zn8 2.833164 1_565
Rh1 Zn8 2.833164 1_566
Rh2 Zn12 2.705445 1_556
Rh2 Zn12 2.705445 1_555
Rh2 Zn5 2.833164 1_455
Rh2 Zn5 2.833164 1_456
Rh3 Zn13 2.705445 1_556
Rh3 Zn13 2.705445 1_555
Rh3 Zn10 2.833164 1_556
Rh3 Zn10 2.833164 1_555
Rh4 Zn13 2.705445 1_556
Rh4 Zn13 2.705445 1_555
Rh4 Zn4 2.833164 1_656
Rh4 Zn4 2.833164 1_655
Rh5 Zn12 2.705445 1_556
Rh5 Zn12 2.705445 1_555
Rh5 Zn11 2.833164 1_556
Rh5 Zn11 2.833164 1_555
Rh6 Zn14 2.705445 1_555
Rh6 Zn14 2.705445 1_556
Rh6 Zn9 2.833164 1_555
Rh6 Zn9 2.833164 1_556
Rh7 Zn15 2.705445 1_556
Rh7 Zn15 2.705445 1_555
Rh7 Zn7 2.833164 1_555
Rh7 Zn7 2.833164 1_556
Rh8 Zn18 2.613321 1_555
Rh8 Zn18 2.613321 1_556
Rh8 Zn2 2.647744 1_556
Rh8 Zn2 2.647744 1_555
Rh8 Zn4 2.869552 1_555
Rh8 Zn4 2.869552 1_556
Rh9 Zn19 2.613321 1_555
Rh9 Zn19 2.613321 1_556
Rh9 Zn3 2.647744 1_555
Rh9 Zn3 2.647744 1_556
Rh9 Zn5 2.869552 1_556
Rh9 Zn5 2.869552 1_555
Rh10 Zn17 2.613321 1_556
Rh10 Zn17 2.613321 1_555
Rh10 Zn1 2.647744 1_555
Rh10 Zn1 2.647744 1_556
Rh10 Zn6 2.869552 1_556
Rh10 Zn6 2.869552 1_555
Rh11 Zn16 2.613321 1_555
Rh11 Zn16 2.613321 1_556
Rh11 Zn0 2.647744 1_555
Rh11 Zn0 2.647744 1_556
Rh11 Zn7 2.869552 1_556
Rh11 Zn7 2.869552 1_555
Rh12 Zn16 2.613321 1_555
Rh12 Zn16 2.613321 1_556
Rh12 Zn0 2.647744 1_555
Rh12 Zn0 2.647744 1_556
Rh12 Zn8 2.869552 1_556
Rh12 Zn8 2.869552 1_555
Rh13 Zn17 2.613321 1_556
Rh13 Zn17 2.613321 1_555
Rh13 Zn1 2.647744 1_555
Rh13 Zn1 2.647744 1_556
Rh13 Zn9 2.869552 1_556
Rh13 Zn9 2.869552 1_555
Rh14 Zn19 2.613321 1_555
Rh14 Zn19 2.613321 1_556
Rh14 Zn3 2.647744 1_555
Rh14 Zn3 2.647744 1_556
Rh14 Zn10 2.869552 1_555
Rh14 Zn10 2.869552 1_556
Rh15 Zn18 2.613321 1_555
Rh15 Zn18 2.613321 1_556
Rh15 Zn2 2.647744 1_556
Rh15 Zn2 2.647744 1_555
Rh15 Zn11 2.869552 1_556
Rh15 Zn11 2.869552 1_555
Rh16 Zn18 2.606696 1_555
Rh16 Zn18 2.606696 1_556
Rh16 Zn4 2.718901 1_555
Rh16 Zn4 2.718901 1_556
Rh16 Zn15 2.773637 1_555
Rh16 Zn15 2.773637 1_556
Rh17 Zn19 2.606696 1_556
Rh17 Zn19 2.606696 1_555
Rh17 Zn5 2.718901 1_556
Rh17 Zn5 2.718901 1_555
Rh17 Zn14 2.773637 1_555
Rh17 Zn14 2.773637 1_556
Rh18 Zn17 2.606696 1_555
Rh18 Zn17 2.606696 1_556
Rh18 Zn6 2.718901 1_555
Rh18 Zn6 2.718901 1_556
Rh18 Zn12 2.773637 1_555
Rh18 Zn12 2.773637 1_556
Rh19 Zn16 2.606696 1_556
Rh19 Zn16 2.606696 1_555
Rh19 Zn7 2.718901 1_555
Rh19 Zn7 2.718901 1_556
Rh19 Zn13 2.773637 1_556
Rh19 Zn13 2.773637 1_555
Rh20 Zn16 2.606696 1_556
Rh20 Zn16 2.606696 1_555
Rh20 Zn8 2.718901 1_556
Rh20 Zn8 2.718901 1_555
Rh20 Zn13 2.773637 1_556
Rh20 Zn13 2.773637 1_555
Rh21 Zn17 2.606696 1_555
Rh21 Zn17 2.606696 1_556
Rh21 Zn9 2.718901 1_556
Rh21 Zn9 2.718901 1_555
Rh21 Zn12 2.773637 1_556
Rh21 Zn12 2.773637 1_555
Rh22 Zn19 2.606696 1_556
Rh22 Zn19 2.606696 1_555
Rh22 Zn10 2.718901 1_556
Rh22 Zn10 2.718901 1_555
Rh22 Zn14 2.773637 1_555
Rh22 Zn14 2.773637 1_556
Rh23 Zn18 2.606696 1_555
Rh23 Zn18 2.606696 1_556
Rh23 Zn11 2.718901 1_555
Rh23 Zn11 2.718901 1_556
Rh23 Zn15 2.773637 1_556
Rh23 Zn15 2.773637 1_555
Rh24 V0 2.565780 1_556
Rh24 V0 2.565780 1_555
Rh24 Zn6 2.798839 1_545
Rh24 Zn6 2.798839 1_546
Rh24 Zn4 2.887547 1_555
Rh24 Zn4 2.887547 1_556
Rh25 V0 2.565780 1_665
Rh25 V0 2.565780 1_666
Rh25 Zn8 2.798839 1_566
Rh25 Zn8 2.798839 1_565
Rh25 Zn5 2.887547 1_556
Rh25 Zn5 2.887547 1_555
Rh26 V0 2.565780 1_565
Rh26 V0 2.565780 1_566
Rh26 Zn5 2.798839 1_456
Rh26 Zn5 2.798839 1_455
Rh26 Zn6 2.887547 1_556
Rh26 Zn6 2.887547 1_555
Rh27 V1 2.565780 1_555
Rh27 V1 2.565780 1_556
Rh27 Zn10 2.798839 1_555
Rh27 Zn10 2.798839 1_556
Rh27 Zn7 2.887547 1_555
Rh27 Zn7 2.887547 1_556
Rh28 V0 2.565780 1_655
Rh28 V0 2.565780 1_656
Rh28 Zn4 2.798839 1_655
Rh28 Zn4 2.798839 1_656
Rh28 Zn8 2.887547 1_556
Rh28 Zn8 2.887547 1_555
Rh29 V1 2.565780 1_555
Rh29 V1 2.565780 1_556
Rh29 Zn11 2.798839 1_556
Rh29 Zn11 2.798839 1_555
Rh29 Zn9 2.887547 1_555
Rh29 Zn9 2.887547 1_556
Rh30 V1 2.565780 1_555
Rh30 V1 2.565780 1_556
Rh30 Zn9 2.798839 1_556
Rh30 Zn9 2.798839 1_555
Rh30 Zn10 2.887547 1_555
Rh30 Zn10 2.887547 1_556
Rh31 V1 2.565780 1_555
Rh31 V1 2.565780 1_556
Rh31 Zn7 2.798839 1_556
Rh31 Zn7 2.798839 1_555
Rh31 Zn11 2.887547 1_555
Rh31 Zn11 2.887547 1_556
Rh32 Zn3 2.834496 1_455
Rh32 Zn3 2.834496 1_456
Rh32 Zn2 2.834496 1_556
Rh32 Zn2 2.834496 1_555
Rh33 Zn3 2.834496 1_555
Rh33 Zn3 2.834496 1_556
Rh33 Zn2 2.834496 1_656
Rh33 Zn2 2.834496 1_655
Rh34 Zn0 2.834496 1_566
Rh34 Zn1 2.834496 1_555
Rh34 Zn1 2.834496 1_556
Rh34 Zn0 2.834496 1_565
Rh35 Zn0 2.834496 1_556
Rh35 Zn1 2.834496 1_545
Rh35 Zn1 2.834496 1_546
Rh35 Zn0 2.834496 1_555
