# generated using pymatgen
data_Na4Sr2SiP4
_symmetry_space_group_name_H-M   'P 1'
_cell_length_a   9.25332770
_cell_length_b   9.25332770
_cell_length_c   7.28583341
_cell_angle_alpha   89.72982940
_cell_angle_beta   89.72982940
_cell_angle_gamma   119.97793056
_symmetry_Int_Tables_number   1
_chemical_formula_structural   Na4Sr2SiP4
_chemical_formula_sum   'Na8 Sr4 Si2 P8'
_cell_volume   540.35974894
_cell_formula_units_Z   2
loop_
 _symmetry_equiv_pos_site_id
 _symmetry_equiv_pos_as_xyz
  1  'x, y, z'
loop_
 _atom_site_type_symbol
 _atom_site_label
 _atom_site_symmetry_multiplicity
 _atom_site_fract_x
 _atom_site_fract_y
 _atom_site_fract_z
 _atom_site_occupancy
  Na  Na0  1  0.05481114  0.52703411  0.61111666  1
  Na  Na1  1  0.52703411  0.05481114  0.11111666  1
  Na  Na2  1  0.27739272  0.13524490  0.80830566  1
  Na  Na3  1  0.86654888  0.71378094  0.77779007  1
  Na  Na4  1  0.86157486  0.15134095  0.78757411  1
  Na  Na5  1  0.71378094  0.86654888  0.27779007  1
  Na  Na6  1  0.13524490  0.27739272  0.30830566  1
  Na  Na7  1  0.15134095  0.86157486  0.28757411  1
  Sr  Sr0  1  0.47054876  0.94895269  0.61397570  1
  Sr  Sr1  1  0.46834155  0.52127335  0.61515715  1
  Sr  Sr2  1  0.94895269  0.47054876  0.11397570  1
  Sr  Sr3  1  0.52127335  0.46834155  0.11515715  1
  Si  Si0  1  0.67236870  0.33733745  0.49949977  1
  Si  Si1  1  0.33733745  0.67236870  0.99949977  1
  P  P0  1  0.66241597  0.33626730  0.81558370  1
  P  P1  1  0.33626730  0.66241597  0.31558370  1
  P  P2  1  0.60860499  0.80274746  0.89618127  1
  P  P3  1  0.19580440  0.39327462  0.90803077  1
  P  P4  1  0.19502966  0.79913260  0.90280213  1
  P  P5  1  0.39327462  0.19580440  0.40803077  1
  P  P6  1  0.80274746  0.60860499  0.39618127  1
  P  P7  1  0.79913260  0.19502966  0.40280213  1
loop_
_geom_bond_atom_site_label_1
_geom_bond_atom_site_label_2
_geom_bond_distance
_geom_bond_site_symmetry_2
Na0 P4 3.057947 1_555
Na0 P3 3.086890 1_555
Na0 P1 3.106410 1_555
Na0 Si0 3.177885 1_455
Na0 P7 3.186436 1_455
Na0 P6 3.200765 1_455
Na1 P7 3.057947 1_555
Na1 P5 3.086890 1_555
Na1 P0 3.106410 1_554
Na1 Si1 3.177885 1_544
Na1 P4 3.186436 1_544
Na1 P2 3.200765 1_544
Na2 P4 2.886871 1_545
Na2 P3 2.934492 1_555
Na2 P5 3.053434 1_555
Na2 P0 3.088044 1_555
Na3 P4 2.885492 1_655
Na3 P6 2.914242 1_555
Na3 P2 3.011588 1_555
Na3 P0 3.039511 1_555
Na4 P3 2.910678 1_655
Na4 P7 2.931597 1_555
Na4 P2 2.987177 1_545
Na4 P0 3.084991 1_555
Na5 P7 2.885492 1_565
Na5 P2 2.914242 1_554
Na5 P6 3.011588 1_555
Na5 P1 3.039511 1_555
Na6 P7 2.886871 1_455
Na6 P5 2.934492 1_555
Na6 P3 3.053434 1_554
Na6 P1 3.088044 1_555
Na7 P5 2.910678 1_565
Na7 P4 2.931597 1_554
Na7 P6 2.987177 1_455
Na7 P1 3.084991 1_555
Si0 Sr1 3.221940 1_555
Si1 Sr3 3.221940 1_556
P0 Si0 2.304119 1_555
P0 Sr3 3.091377 1_556
P0 Sr2 3.176144 1_556
P0 Sr1 3.370687 1_555
P1 Si1 2.304119 1_554
P1 Sr1 3.091377 1_555
P1 Sr0 3.176144 1_555
P1 Sr3 3.370687 1_555
P2 Si1 2.295693 1_555
P2 Sr1 3.059038 1_555
P2 Sr0 3.068465 1_555
P2 Sr3 3.196230 1_556
P3 Si1 2.339520 1_555
P3 Sr1 3.042430 1_555
P3 Sr2 3.096821 1_456
P3 Sr3 3.129246 1_556
P4 Si1 2.269539 1_555
P4 Sr0 3.039704 1_555
P4 Sr2 3.130631 1_456
P5 Si0 2.339520 1_555
P5 Sr3 3.042430 1_555
P5 Sr0 3.096821 1_545
P5 Sr1 3.129246 1_555
P6 Si0 2.295693 1_555
P6 Sr3 3.059038 1_555
P6 Sr2 3.068465 1_555
P6 Sr1 3.196230 1_555
P7 Si0 2.269539 1_555
P7 Sr2 3.039704 1_555
P7 Sr0 3.130631 1_545
