# generated using pymatgen
data_CdCN2
_symmetry_space_group_name_H-M   'P 1'
_cell_length_a   18.85121083
_cell_length_b   18.85121083
_cell_length_c   18.85121104
_cell_angle_alpha   15.50377978
_cell_angle_beta   15.50377978
_cell_angle_gamma   15.50378322
_symmetry_Int_Tables_number   1
_chemical_formula_structural   CdCN2
_chemical_formula_sum   'Cd8 C8 N16'
_cell_volume   417.05593040
_cell_formula_units_Z   8
loop_
 _symmetry_equiv_pos_site_id
 _symmetry_equiv_pos_as_xyz
  1  'x, y, z'
loop_
 _atom_site_type_symbol
 _atom_site_label
 _atom_site_symmetry_multiplicity
 _atom_site_fract_x
 _atom_site_fract_y
 _atom_site_fract_z
 _atom_site_occupancy
  Cd  Cd0_0  1  0.49857050  0.49857050  0.49857050  1
  Cd  Cd0_1  1  0.49857050  0.49857050  0.99857050  1
  Cd  Cd0_2  1  0.49857050  0.99857050  0.49857050  1
  Cd  Cd0_3  1  0.49857050  0.99857050  0.99857050  1
  Cd  Cd0_4  1  0.99857050  0.49857050  0.49857050  1
  Cd  Cd0_5  1  0.99857050  0.49857050  0.99857050  1
  Cd  Cd0_6  1  0.99857050  0.99857050  0.49857050  1
  Cd  Cd0_7  1  0.99857050  0.99857050  0.99857050  1
  C  C0_0  1  0.12565400  0.12565400  0.12565400  1
  C  C0_1  1  0.12565400  0.12565400  0.62565400  1
  C  C0_2  1  0.12565400  0.62565400  0.12565400  1
  C  C0_3  1  0.12565400  0.62565400  0.62565400  1
  C  C0_4  1  0.62565400  0.12565400  0.12565400  1
  C  C0_5  1  0.62565400  0.12565400  0.62565400  1
  C  C0_6  1  0.62565400  0.62565400  0.12565400  1
  C  C0_7  1  0.62565400  0.62565400  0.62565400  1
  N  N0_0  1  0.40554650  0.40554650  0.40554650  1
  N  N0_1  1  0.40554650  0.40554650  0.90554650  1
  N  N0_2  1  0.40554650  0.90554650  0.40554650  1
  N  N0_3  1  0.40554650  0.90554650  0.90554650  1
  N  N0_4  1  0.90554650  0.40554650  0.40554650  1
  N  N0_5  1  0.90554650  0.40554650  0.90554650  1
  N  N0_6  1  0.90554650  0.90554650  0.40554650  1
  N  N0_7  1  0.90554650  0.90554650  0.90554650  1
  N  N1_0  1  0.22572850  0.22572850  0.22572850  1
  N  N1_1  1  0.22572850  0.22572850  0.72572850  1
  N  N1_2  1  0.22572850  0.72572850  0.22572850  1
  N  N1_3  1  0.22572850  0.72572850  0.72572850  1
  N  N1_4  1  0.72572850  0.22572850  0.22572850  1
  N  N1_5  1  0.72572850  0.22572850  0.72572850  1
  N  N1_6  1  0.72572850  0.72572850  0.22572850  1
  N  N1_7  1  0.72572850  0.72572850  0.72572850  1
loop_
_geom_bond_atom_site_label_1
_geom_bond_atom_site_label_2
_geom_bond_distance
_geom_bond_site_symmetry_2
Cd0_0 Cd0_3 2.542719 1_554
Cd0_0 Cd0_5 2.542719 1_554
Cd0_0 Cd0_5 2.542719 1_455
Cd0_0 Cd0_3 2.542719 1_545
Cd0_0 Cd0_6 2.542720 1_545
Cd0_0 Cd0_6 2.542720 1_455
Cd0_1 Cd0_2 2.542719 1_555
Cd0_1 Cd0_4 2.542719 1_555
Cd0_1 Cd0_4 2.542719 1_456
Cd0_1 Cd0_2 2.542719 1_546
Cd0_1 Cd0_7 2.542720 1_455
Cd0_1 Cd0_7 2.542720 1_545
Cd0_2 Cd0_7 2.542719 1_455
Cd0_2 Cd0_7 2.542719 1_554
Cd0_2 Cd0_4 2.542720 1_555
Cd0_2 Cd0_4 2.542720 1_465
Cd0_3 Cd0_6 2.542719 1_555
Cd0_3 Cd0_6 2.542719 1_456
Cd0_3 Cd0_5 2.542720 1_465
Cd0_3 Cd0_5 2.542720 1_555
Cd0_4 Cd0_7 2.542719 1_545
Cd0_4 Cd0_7 2.542719 1_554
Cd0_5 Cd0_6 2.542719 1_546
Cd0_5 Cd0_6 2.542719 1_555
C0_0 Cd0_6 2.654201 1_445
C0_0 Cd0_5 2.654201 1_454
C0_0 Cd0_3 2.654201 1_544
C0_1 Cd0_7 2.654201 1_445
C0_1 Cd0_2 2.654201 1_545
C0_1 Cd0_4 2.654201 1_455
C0_2 Cd0_4 2.654201 1_455
C0_2 Cd0_1 2.654201 1_554
C0_2 Cd0_7 2.654201 1_454
C0_3 Cd0_5 2.654201 1_455
C0_3 Cd0_6 2.654201 1_455
C0_3 Cd0_0 2.654201 1_555
C0_4 Cd0_2 2.654201 1_545
C0_4 Cd0_1 2.654201 1_554
C0_4 Cd0_7 2.654201 1_544
C0_5 Cd0_3 2.654201 1_545
C0_5 Cd0_6 2.654201 1_545
C0_5 Cd0_0 2.654201 1_555
C0_6 Cd0_0 2.654201 1_555
C0_6 Cd0_3 2.654201 1_554
C0_6 Cd0_5 2.654201 1_554
C0_7 Cd0_1 2.654201 1_555
C0_7 Cd0_2 2.654201 1_555
C0_7 Cd0_4 2.654201 1_555
N0_0 N1_1 1.641613 1_555
N0_0 N1_4 1.641614 1_555
N0_0 N1_2 1.641614 1_555
N0_1 N1_0 1.641613 1_556
N0_1 N1_3 1.641614 1_555
N0_1 N1_5 1.641614 1_555
N0_2 N1_3 1.641613 1_555
N0_2 N1_6 1.641614 1_555
N0_2 N1_0 1.641614 1_565
N0_3 N1_2 1.641613 1_556
N0_3 N1_1 1.641614 1_565
N0_3 N1_7 1.641614 1_555
N0_4 N1_5 1.641613 1_555
N0_4 N1_6 1.641614 1_555
N0_4 N1_0 1.641614 1_655
N0_5 N1_4 1.641613 1_556
N0_5 N1_1 1.641614 1_655
N0_5 N1_7 1.641614 1_555
N0_6 N1_7 1.641613 1_555
N0_6 N1_4 1.641614 1_565
N0_6 N1_2 1.641614 1_655
N0_7 N1_6 1.641613 1_556
N0_7 N1_3 1.641614 1_655
N0_7 N1_5 1.641614 1_565
