# generated using pymatgen
data_PrMgTl
_symmetry_space_group_name_H-M   'P 1'
_cell_length_a   7.75149997
_cell_length_b   7.75150100
_cell_length_c   4.77152640
_cell_angle_alpha   90.00000000
_cell_angle_beta   90.00000000
_cell_angle_gamma   120.00000843
_symmetry_Int_Tables_number   1
_chemical_formula_structural   PrMgTl
_chemical_formula_sum   'Pr3 Mg3 Tl3'
_cell_volume   248.29014564
_cell_formula_units_Z   3
loop_
 _symmetry_equiv_pos_site_id
 _symmetry_equiv_pos_as_xyz
  1  'x, y, z'
loop_
 _atom_site_type_symbol
 _atom_site_label
 _atom_site_symmetry_multiplicity
 _atom_site_fract_x
 _atom_site_fract_y
 _atom_site_fract_z
 _atom_site_occupancy
  Pr  Pr0  1  0.57497514  0.00000000  0.00000000  1
  Pr  Pr1  1  0.00000000  0.57497514  0.00000000  1
  Pr  Pr2  1  0.42502486  0.42502486  -0.00000000  1
  Mg  Mg0  1  0.24340232  0.00000000  0.50000000  1
  Mg  Mg1  1  0.00000000  0.24340232  0.50000000  1
  Mg  Mg2  1  0.75659768  0.75659768  0.50000000  1
  Tl  Tl0  1  0.33333400  0.66666700  0.50000000  1
  Tl  Tl1  1  0.66666600  0.33333300  0.50000000  1
  Tl  Tl2  1  -0.00000000  0.00000000  -0.00000000  1
loop_
_geom_bond_atom_site_label_1
_geom_bond_atom_site_label_2
_geom_bond_distance
_geom_bond_site_symmetry_2
Pr0 Tl2 3.294580 1_655
Pr0 Tl0 3.322161 1_544
Pr0 Tl0 3.322161 1_545
Pr0 Tl1 3.322163 1_555
Pr0 Tl1 3.322163 1_554
Pr0 Pr1 4.004336 1_545
Pr0 Pr1 4.004337 1_655
Pr0 Pr2 4.004337 1_545
Pr0 Pr2 4.004337 1_555
Pr1 Tl2 3.294581 1_565
Pr1 Tl1 3.322166 1_454
Pr1 Tl1 3.322166 1_455
Pr1 Tl0 3.322166 1_555
Pr1 Tl0 3.322166 1_554
Pr1 Pr2 4.004337 1_455
Pr1 Pr2 4.004337 1_555
Pr2 Tl2 3.294580 1_555
Pr2 Tl1 3.322161 1_555
Pr2 Tl1 3.322161 1_554
Pr2 Tl0 3.322163 1_555
Pr2 Tl0 3.322163 1_554
Mg0 Tl1 2.993878 1_555
Mg0 Tl0 2.993884 1_545
Mg0 Tl2 3.041649 1_555
Mg0 Tl2 3.041649 1_556
Mg0 Mg2 3.267917 1_445
Mg0 Mg1 3.267918 1_555
Mg0 Pr0 3.506811 1_555
Mg0 Pr0 3.506811 1_556
Mg0 Pr1 3.726915 1_545
Mg0 Pr1 3.726915 1_546
Mg0 Pr2 3.726915 1_556
Mg0 Pr2 3.726915 1_555
Mg1 Tl0 2.993886 1_555
Mg1 Tl1 2.993886 1_455
Mg1 Tl2 3.041649 1_555
Mg1 Tl2 3.041649 1_556
Mg1 Mg2 3.267918 1_445
Mg1 Pr1 3.506812 1_556
Mg1 Pr1 3.506812 1_555
Mg1 Pr0 3.726914 1_456
Mg1 Pr0 3.726914 1_455
Mg1 Pr2 3.726915 1_556
Mg1 Pr2 3.726915 1_555
Mg2 Tl0 2.993878 1_555
Mg2 Tl1 2.993884 1_555
Mg2 Tl2 3.041649 1_665
Mg2 Tl2 3.041649 1_666
Mg2 Pr2 3.506811 1_555
Mg2 Pr2 3.506811 1_556
Mg2 Pr1 3.726915 1_655
Mg2 Pr1 3.726915 1_656
Mg2 Pr0 3.726915 1_565
Mg2 Pr0 3.726915 1_566
