# generated using pymatgen
data_LiEuSb
_symmetry_space_group_name_H-M   'P 1'
_cell_length_a   4.78523270
_cell_length_b   7.85984669
_cell_length_c   8.35881432
_cell_angle_alpha   90.00000000
_cell_angle_beta   90.00000000
_cell_angle_gamma   90.00000000
_symmetry_Int_Tables_number   1
_chemical_formula_structural   LiEuSb
_chemical_formula_sum   'Li4 Eu4 Sb4'
_cell_volume   314.38499868
_cell_formula_units_Z   4
loop_
 _symmetry_equiv_pos_site_id
 _symmetry_equiv_pos_as_xyz
  1  'x, y, z'
loop_
 _atom_site_type_symbol
 _atom_site_label
 _atom_site_symmetry_multiplicity
 _atom_site_fract_x
 _atom_site_fract_y
 _atom_site_fract_z
 _atom_site_occupancy
  Li  Li0  1  0.75000000  0.33708820  0.57671515  1
  Li  Li1  1  0.75000000  0.83708820  0.92328285  1
  Li  Li2  1  0.25000000  0.66291180  0.42328485  1
  Li  Li3  1  0.25000000  0.16291180  0.07671715  1
  Eu  Eu0  1  0.75000000  0.49633236  0.21048863  1
  Eu  Eu1  1  0.75000000  0.99633136  0.28951237  1
  Eu  Eu2  1  0.25000000  0.50366764  0.78951137  1
  Eu  Eu3  1  0.25000000  0.00366864  0.71048763  1
  Sb  Sb0  1  0.75000000  0.22553245  0.90722531  1
  Sb  Sb1  1  0.75000000  0.72553245  0.59277569  1
  Sb  Sb2  1  0.25000000  0.77446755  0.09277469  1
  Sb  Sb3  1  0.25000000  0.27446755  0.40722431  1
loop_
_geom_bond_atom_site_label_1
_geom_bond_atom_site_label_2
_geom_bond_distance
_geom_bond_site_symmetry_2
Li0 Sb3 2.823831 1_655
Li0 Sb3 2.823831 1_555
Li0 Sb0 2.898475 1_555
Li0 Sb1 3.056062 1_555
Li1 Sb2 2.823835 1_556
Li1 Sb2 2.823835 1_656
Li1 Sb1 2.898452 1_555
Li1 Sb0 3.056061 1_565
Li2 Sb1 2.823831 1_555
Li2 Sb1 2.823831 1_455
Li2 Sb2 2.898475 1_555
Li2 Sb3 3.056062 1_555
Li3 Sb0 2.823835 1_554
Li3 Sb0 2.823835 1_454
Li3 Sb3 2.898452 1_555
Li3 Sb2 3.056061 1_545
Eu0 Li2 3.256180 1_555
Eu0 Li2 3.256180 1_655
Eu0 Li0 3.307212 1_555
Eu0 Sb0 3.310001 1_554
Eu0 Sb3 3.386715 1_655
Eu0 Sb3 3.386715 1_555
Eu0 Sb2 3.387005 1_555
Eu0 Sb2 3.387005 1_655
Eu0 Li1 3.596747 1_554
Eu0 Sb1 3.668287 1_555
Eu0 Li3 3.720570 1_555
Eu0 Li3 3.720570 1_655
Eu1 Li3 3.256179 1_665
Eu1 Li3 3.256179 1_565
Eu1 Li1 3.307233 1_554
Eu1 Sb1 3.309996 1_555
Eu1 Sb2 3.386719 1_655
Eu1 Sb2 3.386719 1_555
Eu1 Sb3 3.387005 1_565
Eu1 Sb3 3.387005 1_665
Eu1 Li0 3.596736 1_565
Eu1 Sb0 3.668291 1_564
Eu1 Li2 3.720567 1_655
Eu1 Li2 3.720567 1_555
Eu2 Li0 3.256180 1_455
Eu2 Li0 3.256180 1_555
Eu2 Li2 3.307212 1_555
Eu2 Sb2 3.310001 1_556
Eu2 Sb1 3.386715 1_455
Eu2 Sb1 3.386715 1_555
Eu2 Sb0 3.387005 1_455
Eu2 Sb0 3.387005 1_555
Eu2 Li3 3.596747 1_556
Eu2 Sb3 3.668287 1_555
Eu2 Li1 3.720570 1_555
Eu2 Li1 3.720570 1_455
Eu3 Li1 3.256179 1_445
Eu3 Li1 3.256179 1_545
Eu3 Li3 3.307233 1_556
Eu3 Sb3 3.309996 1_555
Eu3 Sb0 3.386719 1_455
Eu3 Sb0 3.386719 1_555
Eu3 Sb1 3.387005 1_545
Eu3 Sb1 3.387005 1_445
Eu3 Li2 3.596736 1_545
Eu3 Sb2 3.668291 1_546
Eu3 Li0 3.720567 1_555
Eu3 Li0 3.720567 1_455
