# generated using pymatgen
data_RbMg(ClO2)3
_symmetry_space_group_name_H-M   'P 1'
_cell_length_a   6.56823646
_cell_length_b   6.56823646
_cell_length_c   11.83226303
_cell_angle_alpha   78.13780851
_cell_angle_beta   78.13780851
_cell_angle_gamma   93.00990041
_symmetry_Int_Tables_number   1
_chemical_formula_structural   RbMg(ClO2)3
_chemical_formula_sum   'Rb2 Mg2 Cl6 O12'
_cell_volume   486.49601639
_cell_formula_units_Z   2
loop_
 _symmetry_equiv_pos_site_id
 _symmetry_equiv_pos_as_xyz
  1  'x, y, z'
loop_
 _atom_site_type_symbol
 _atom_site_label
 _atom_site_symmetry_multiplicity
 _atom_site_fract_x
 _atom_site_fract_y
 _atom_site_fract_z
 _atom_site_occupancy
  Rb  Rb0  1  0.97522800  0.02477200  0.25000000  1
  Rb  Rb1  1  0.02477200  0.97522800  0.75000000  1
  Mg  Mg0  1  0.50000000  0.50000000  0.00000000  1
  Mg  Mg1  1  0.50000000  0.50000000  0.50000000  1
  Cl  Cl0  1  0.08142500  0.53143200  0.20203400  1
  Cl  Cl1  1  0.46856800  0.91857500  0.29796600  1
  Cl  Cl2  1  0.91857500  0.46856800  0.79796600  1
  Cl  Cl3  1  0.53143200  0.08142500  0.70203400  1
  Cl  Cl4  1  0.00000000  0.00000000  0.50000000  1
  Cl  Cl5  1  0.00000000  0.00000000  0.00000000  1
  O  O0  1  0.57582800  0.51545300  0.19753700  1
  O  O1  1  0.48454700  0.42417200  0.30246300  1
  O  O2  1  0.42417200  0.48454700  0.80246300  1
  O  O3  1  0.51545300  0.57582800  0.69753700  1
  O  O4  1  0.92838100  0.55409500  0.48816700  1
  O  O5  1  0.44590500  0.07161900  0.01183300  1
  O  O6  1  0.07161900  0.44590500  0.51183300  1
  O  O7  1  0.55409500  0.92838100  0.98816700  1
  O  O8  1  0.21707000  0.49132500  0.07734100  1
  O  O9  1  0.50867500  0.78293000  0.42265900  1
  O  O10  1  0.78293000  0.50867500  0.92265900  1
  O  O11  1  0.49132500  0.21707000  0.57734100  1
loop_
_geom_bond_atom_site_label_1
_geom_bond_atom_site_label_2
_geom_bond_distance
_geom_bond_site_symmetry_2
Mg0 O8 1.887446 1_555
Mg0 O10 1.887446 1_554
Mg0 O2 2.508423 1_554
Mg0 O0 2.508423 1_555
Mg0 O5 2.788440 1_555
Mg0 O7 2.788440 1_554
Mg1 O11 1.887446 1_555
Mg1 O9 1.887446 1_555
Mg1 O3 2.508423 1_555
Mg1 O1 2.508423 1_555
Mg1 O4 2.788440 1_555
Mg1 O6 2.788440 1_555
Cl0 O8 1.638296 1_555
Cl0 Rb0 3.271133 1_455
Cl0 Rb0 3.484158 1_465
Cl1 O9 1.638296 1_555
Cl1 Rb0 3.271133 1_565
Cl1 Rb0 3.484158 1_465
Cl2 O10 1.638296 1_555
Cl2 Rb1 3.271133 1_655
Cl2 Rb1 3.484158 1_645
Cl3 O11 1.638296 1_555
Cl3 Rb1 3.271133 1_545
Cl3 Rb1 3.484158 1_645
Cl4 Rb1 2.967471 1_545
Cl4 Rb0 2.967471 1_455
Cl5 Rb1 2.967471 1_544
Cl5 Rb0 2.967471 1_455
O0 O1 1.269055 1_555
O2 O3 1.269055 1_555
O4 O6 1.251098 1_655
O5 O7 1.251098 1_544
O8 Rb0 3.415917 1_455
O9 Rb0 3.415917 1_565
O10 Rb1 3.415917 1_655
O11 Rb1 3.415917 1_545
