# generated using pymatgen
data_Na2ErPWO8
_symmetry_space_group_name_H-M   'P 1'
_cell_length_a   11.50897686
_cell_length_b   11.50897686
_cell_length_c   11.50897686
_cell_angle_alpha   145.09290418
_cell_angle_beta   116.01280342
_cell_angle_gamma   75.00984942
_symmetry_Int_Tables_number   1
_chemical_formula_structural   Na2ErPWO8
_chemical_formula_sum   'Na8 Er4 P4 W4 O32'
_cell_volume   768.71206267
_cell_formula_units_Z   4
loop_
 _symmetry_equiv_pos_site_id
 _symmetry_equiv_pos_as_xyz
  1  'x, y, z'
loop_
 _atom_site_type_symbol
 _atom_site_label
 _atom_site_symmetry_multiplicity
 _atom_site_fract_x
 _atom_site_fract_y
 _atom_site_fract_z
 _atom_site_occupancy
  Na  Na0  1  0.90751900  0.85728700  0.07114500  1
  Na  Na1  1  0.28614200  0.83637400  0.42885500  1
  Na  Na2  1  0.21385800  0.64271300  0.55023100  1
  Na  Na3  1  0.59248100  0.66362600  0.94976900  1
  Na  Na4  1  0.09248100  0.14271300  0.92885500  1
  Na  Na5  1  0.71385800  0.16362600  0.57114500  1
  Na  Na6  1  0.78614200  0.35728700  0.44976900  1
  Na  Na7  1  0.40751900  0.33637400  0.05023100  1
  Er  Er0  1  0.17740200  0.75000000  0.92740200  1
  Er  Er1  1  0.32259800  0.25000000  0.57259800  1
  Er  Er2  1  0.82259800  0.25000000  0.07259800  1
  Er  Er3  1  0.67740200  0.75000000  0.42740200  1
  P  P0  1  0.56953200  0.25000000  0.81953100  1
  P  P1  1  0.93046900  0.75000000  0.68046800  1
  P  P2  1  0.43046900  0.75000000  0.18046800  1
  P  P3  1  0.06953200  0.25000000  0.31953200  1
  W  W0  1  0.92694100  0.67694100  0.25000000  1
  W  W1  1  0.57305900  0.82305900  0.75000000  1
  W  W2  1  0.07305900  0.32305900  0.75000000  1
  W  W3  1  0.42694100  0.17694100  0.25000000  1
  O  O0  1  0.42581400  0.16748900  0.72842100  1
  O  O1  1  0.93906900  0.69739300  0.77157900  1
  O  O2  1  0.56093100  0.33251100  0.75832400  1
  O  O3  1  0.07418600  0.80260700  0.74167600  1
  O  O4  1  0.57418600  0.83251100  0.27157900  1
  O  O5  1  0.06093100  0.30260700  0.22842100  1
  O  O6  1  0.43906900  0.66748900  0.24167600  1
  O  O7  1  0.92581400  0.19739300  0.25832400  1
  O  O8  1  0.64132000  0.41709100  0.07451600  1
  O  O9  1  0.84257500  0.56680300  0.42548400  1
  O  O10  1  0.65742500  0.08290900  0.72422900  1
  O  O11  1  0.85868000  0.93319700  0.77577100  1
  O  O12  1  0.35868000  0.58290900  0.92548400  1
  O  O13  1  0.15742500  0.43319700  0.57451600  1
  O  O14  1  0.34257500  0.91709100  0.27577100  1
  O  O15  1  0.14132000  0.06680300  0.22422900  1
  O  O16  1  0.89561900  0.40718500  0.06371000  1
  O  O17  1  0.84347500  0.83190900  0.43629000  1
  O  O18  1  0.65652500  0.09281500  0.98843400  1
  O  O19  1  0.60438100  0.66809100  0.51156600  1
  O  O20  1  0.10438100  0.59281500  0.93629000  1
  O  O21  1  0.15652500  0.16809100  0.56371000  1
  O  O22  1  0.34347500  0.90718500  0.01156600  1
  O  O23  1  0.39561900  0.33190900  0.48843400  1
  O  O24  1  0.10226900  0.77625500  0.41400800  1
  O  O25  1  0.86224700  0.68826100  0.08599200  1
  O  O26  1  0.63775300  0.72374500  0.82601500  1
  O  O27  1  0.39773100  0.81173900  0.67398500  1
  O  O28  1  0.89773100  0.22374500  0.58599200  1
  O  O29  1  0.13775300  0.31173900  0.91400800  1
  O  O30  1  0.36224700  0.27625500  0.17398500  1
  O  O31  1  0.60226900  0.18826100  0.32601500  1
loop_
_geom_bond_atom_site_label_1
_geom_bond_atom_site_label_2
_geom_bond_distance
_geom_bond_site_symmetry_2
Na0 O25 2.287476 1_555
Na0 O1 2.398179 1_554
Na0 O7 2.490942 1_565
Na0 O26 2.763050 1_554
Na0 O15 2.896400 1_665
Na0 O20 2.928395 1_654
Na1 O24 2.287476 1_555
Na1 O0 2.398173 1_565
Na1 O6 2.490941 1_555
Na1 O27 2.763041 1_555
Na1 O14 2.896407 1_555
Na1 O21 2.928395 1_565
Na2 O27 2.287476 1_555
Na2 O3 2.398186 1_555
Na2 O5 2.490943 1_555
Na2 O24 2.763042 1_555
Na2 O13 2.896406 1_555
Na2 O22 2.928403 1_556
Na3 O26 2.287476 1_555
Na3 O2 2.398164 1_555
Na3 O4 2.490927 1_556
Na3 O25 2.763051 1_556
Na3 O12 2.896400 1_555
Na3 O23 2.928400 1_555
Na4 O29 2.287476 1_555
Na4 O5 2.398179 1_556
Na4 O3 2.490942 1_545
Na4 O30 2.763050 1_556
Na4 O11 2.896400 1_445
Na4 O16 2.928395 1_456
Na5 O28 2.287476 1_555
Na5 O4 2.398173 1_545
Na5 O2 2.490941 1_555
Na5 O31 2.763041 1_555
Na5 O10 2.896407 1_555
Na5 O17 2.928395 1_545
Na6 O31 2.287476 1_555
Na6 O7 2.398186 1_555
Na6 O1 2.490943 1_555
Na6 O28 2.763042 1_555
Na6 O9 2.896406 1_555
Na6 O18 2.928403 1_554
Na7 O30 2.287476 1_555
Na7 O6 2.398164 1_555
Na7 O0 2.490927 1_554
Na7 O29 2.763051 1_554
Na7 O8 2.896400 1_555
Na7 O19 2.928400 1_555
Er0 O22 2.270404 1_556
Er0 O20 2.270404 1_555
Er0 O15 2.273412 1_566
Er0 O13 2.273414 1_555
Er0 O3 2.422816 1_555
Er0 O1 2.422816 1_455
Er0 O14 2.438572 1_556
Er0 O12 2.438572 1_555
Er1 O23 2.270404 1_555
Er1 O21 2.270404 1_555
Er1 O14 2.273416 1_545
Er1 O12 2.273416 1_555
Er1 O2 2.422816 1_555
Er1 O0 2.422826 1_555
Er1 O15 2.438569 1_555
Er1 O13 2.438579 1_555
Er2 O18 2.270404 1_554
Er2 O16 2.270404 1_555
Er2 O11 2.273412 1_544
Er2 O9 2.273414 1_555
Er2 O7 2.422816 1_555
Er2 O5 2.422816 1_655
Er2 O8 2.438572 1_555
Er2 O10 2.438572 1_554
Er3 O19 2.270404 1_555
Er3 O17 2.270404 1_555
Er3 O8 2.273416 1_555
Er3 O10 2.273416 1_565
Er3 O6 2.422816 1_555
Er3 O4 2.422826 1_555
Er3 O11 2.438569 1_555
Er3 O9 2.438579 1_555
O0 P0 1.547640 1_555
O1 P1 1.547637 1_555
O2 P0 1.547634 1_555
O3 P1 1.547622 1_455
O4 P2 1.547626 1_555
O5 P3 1.547633 1_555
O6 P2 1.547648 1_555
O7 P3 1.547633 1_655
O8 P0 1.559421 1_554
O9 P1 1.559415 1_555
O10 P0 1.559414 1_555
O11 P1 1.559426 1_555
O12 P2 1.559414 1_556
O13 P3 1.559413 1_555
O14 P2 1.559421 1_555
O15 P3 1.559421 1_555
O16 W0 1.830010 1_555
O17 W0 1.830010 1_555
O18 W1 1.830010 1_545
O19 W1 1.830010 1_555
O20 W2 1.830010 1_555
O21 W2 1.830010 1_555
O22 W3 1.830010 1_565
O23 W3 1.830010 1_555
O24 W0 1.804067 1_455
O25 W0 1.804067 1_555
O26 W1 1.804077 1_555
O27 W1 1.804067 1_555
O28 W2 1.804067 1_655
O29 W2 1.804067 1_555
O30 W3 1.804077 1_555
O31 W3 1.804067 1_555
