# generated using pymatgen
data_Ga2P2H9N2O9F
_symmetry_space_group_name_H-M   'P 1'
_cell_length_a   9.72003300
_cell_length_b   9.88572200
_cell_length_c   10.10097100
_cell_angle_alpha   90.00000000
_cell_angle_beta   90.00000000
_cell_angle_gamma   90.00000000
_symmetry_Int_Tables_number   1
_chemical_formula_structural   Ga2P2H9N2O9F
_chemical_formula_sum   'Ga8 P8 H36 N8 O36 F4'
_cell_volume   970.59769804
_cell_formula_units_Z   4
loop_
 _symmetry_equiv_pos_site_id
 _symmetry_equiv_pos_as_xyz
  1  'x, y, z'
loop_
 _atom_site_type_symbol
 _atom_site_label
 _atom_site_symmetry_multiplicity
 _atom_site_fract_x
 _atom_site_fract_y
 _atom_site_fract_z
 _atom_site_occupancy
  Ga  Ga0  1  0.15516500  0.52130800  0.17755200  1
  Ga  Ga1  1  0.34483500  0.47869200  0.67755200  1
  Ga  Ga2  1  0.84483500  0.02130800  0.32244800  1
  Ga  Ga3  1  0.65516500  0.97869200  0.82244800  1
  Ga  Ga4  1  0.39844000  0.26097300  0.14109900  1
  Ga  Ga5  1  0.10156000  0.73902700  0.64109900  1
  Ga  Ga6  1  0.60156000  0.76097300  0.35890100  1
  Ga  Ga7  1  0.89844000  0.23902700  0.85890100  1
  P  P0  1  0.07892900  0.20273800  0.14201100  1
  P  P1  1  0.42107100  0.79726200  0.64201100  1
  P  P2  1  0.92107100  0.70273800  0.35798900  1
  P  P3  1  0.57892900  0.29726200  0.85798900  1
  P  P4  1  0.42248700  0.48393500  0.36353900  1
  P  P5  1  0.07751300  0.51606500  0.86353900  1
  P  P6  1  0.57751300  0.98393500  0.13646100  1
  P  P7  1  0.92248700  0.01606500  0.63646100  1
  H  H0  1  0.25039400  0.17790400  0.74903700  1
  H  H1  1  0.24960600  0.82209600  0.24903700  1
  H  H2  1  0.74960600  0.67790400  0.75096300  1
  H  H3  1  0.75039400  0.32209600  0.25096300  1
  H  H4  1  0.72156700  0.38220200  0.09478500  1
  H  H5  1  0.77843300  0.61779800  0.59478500  1
  H  H6  1  0.27843300  0.88220200  0.40521500  1
  H  H7  1  0.22156700  0.11779800  0.90521500  1
  H  H8  1  0.11960700  0.32645600  0.54938500  1
  H  H9  1  0.38039300  0.67354400  0.04938500  1
  H  H10  1  0.88039300  0.82645600  0.95061500  1
  H  H11  1  0.61960700  0.17354400  0.45061500  1
  H  H12  1  0.35915500  0.06434000  0.81579500  1
  H  H13  1  0.14084500  0.93566000  0.31579500  1
  H  H14  1  0.64084500  0.56434000  0.68420500  1
  H  H15  1  0.85915500  0.43566000  0.18420500  1
  H  H16  1  0.49483900  0.06666000  0.49331700  1
  H  H17  1  0.00516100  0.93334000  0.99331700  1
  H  H18  1  0.50516100  0.56666000  0.00668300  1
  H  H19  1  0.99483900  0.43334000  0.50668300  1
  H  H20  1  0.04665900  0.32159200  0.39296400  1
  H  H21  1  0.45334100  0.67840800  0.89296400  1
  H  H22  1  0.95334100  0.82159200  0.10703600  1
  H  H23  1  0.54665900  0.17840800  0.60703600  1
  H  H24  1  0.46039300  0.23271900  0.46901400  1
  H  H25  1  0.03960700  0.76728100  0.96901400  1
  H  H26  1  0.53960700  0.73271900  0.03098600  1
  H  H27  1  0.96039300  0.26728100  0.53098600  1
  H  H28  1  0.19897300  0.01528500  0.77197500  1
  H  H29  1  0.30102700  0.98471500  0.27197500  1
  H  H30  1  0.80102700  0.51528500  0.72802500  1
  H  H31  1  0.69897300  0.48471500  0.22802500  1
  H  H32  1  0.20777400  0.56461100  0.48993400  1
  H  H33  1  0.29222600  0.43538900  0.98993400  1
  H  H34  1  0.79222600  0.06461100  0.01006600  1
  H  H35  1  0.70777400  0.93538900  0.51006600  1
  N  N0  1  0.02966100  0.33651400  0.49414600  1
  N  N1  1  0.47033900  0.66348600  0.99414600  1
  N  N2  1  0.97033900  0.83651400  0.00585400  1
  N  N3  1  0.52966100  0.16348600  0.50585400  1
  N  N4  1  0.25713300  0.09318700  0.81182100  1
  N  N5  1  0.24286700  0.90681300  0.31182100  1
  N  N6  1  0.74286700  0.59318700  0.68817900  1
  N  N7  1  0.75713300  0.40681300  0.18817900  1
  O  O0  1  0.23276900  0.15680900  0.13003200  1
  O  O1  1  0.26723100  0.84319100  0.63003200  1
  O  O2  1  0.76723100  0.65680900  0.36996800  1
  O  O3  1  0.73276900  0.34319100  0.86996800  1
  O  O4  1  0.45388300  0.34191400  0.30169700  1
  O  O5  1  0.04611700  0.65808600  0.80169700  1
  O  O6  1  0.54611700  0.84191400  0.19830300  1
  O  O7  1  0.95388300  0.15808600  0.69830300  1
  O  O8  1  0.30857700  0.42985800  0.08736500  1
  O  O9  1  0.19142300  0.57014200  0.58736500  1
  O  O10  1  0.69142300  0.92985800  0.41263500  1
  O  O11  1  0.80857700  0.07014200  0.91263500  1
  O  O12  1  0.26745200  0.51875100  0.34296300  1
  O  O13  1  0.23254800  0.48124900  0.84296300  1
  O  O14  1  0.73254800  0.01875100  0.15703700  1
  O  O15  1  0.76745200  0.98124900  0.65703700  1
  O  O16  1  0.06534200  0.33795100  0.21874000  1
  O  O17  1  0.43465800  0.66204900  0.71874000  1
  O  O18  1  0.93465800  0.83795100  0.28126000  1
  O  O19  1  0.56534200  0.16204900  0.78126000  1
  O  O20  1  0.02976500  0.21663500  0.99674300  1
  O  O21  1  0.47023500  0.78336500  0.49674300  1
  O  O22  1  0.97023500  0.71663500  0.50325700  1
  O  O23  1  0.52976500  0.28336500  0.00325700  1
  O  O24  1  0.00301900  0.08963900  0.21654000  1
  O  O25  1  0.49698100  0.91036100  0.71654000  1
  O  O26  1  0.99698100  0.58963900  0.28346000  1
  O  O27  1  0.50301900  0.41036100  0.78346000  1
  O  O28  1  0.04569000  0.52977000  0.01250900  1
  O  O29  1  0.45431000  0.47023000  0.51250900  1
  O  O30  1  0.95431000  0.02977000  0.48749000  1
  O  O31  1  0.54569000  0.97023000  0.98749100  1
  O  O32  1  0.48191800  0.08900000  0.20324500  1
  O  O33  1  0.01808200  0.91100000  0.70324500  1
  O  O34  1  0.51808200  0.58900000  0.29675500  1
  O  O35  1  0.98191800  0.41100000  0.79675500  1
  F  F0  1  0.22842700  0.70184400  0.13762100  1
  F  F1  1  0.27157300  0.29815600  0.63762100  1
  F  F2  1  0.77157300  0.20184400  0.36237900  1
  F  F3  1  0.72842700  0.79815600  0.86237900  1
loop_
_geom_bond_atom_site_label_1
_geom_bond_atom_site_label_2
_geom_bond_distance
_geom_bond_site_symmetry_2
Ga0 O8 1.967427 1_555
Ga0 O28 1.979523 1_555
Ga0 O26 1.991178 1_455
Ga0 O12 1.995865 1_555
Ga0 O16 2.054492 1_555
Ga1 O9 1.967427 1_555
Ga1 O29 1.979523 1_555
Ga1 O27 1.991178 1_555
Ga1 O13 1.995865 1_555
Ga1 O17 2.054492 1_555
Ga2 O10 1.967427 1_545
Ga2 O30 1.979515 1_555
Ga2 O24 1.991178 1_655
Ga2 O14 1.995865 1_555
Ga2 O18 2.054492 1_545
Ga3 O11 1.967427 1_565
Ga3 O31 1.979523 1_555
Ga3 O25 1.991178 1_555
Ga3 O15 1.995865 1_555
Ga3 O19 2.054492 1_565
Ga4 O4 1.887378 1_555
Ga4 O23 1.901845 1_555
Ga4 O0 1.914682 1_555
Ga4 O8 1.960853 1_555
Ga4 O32 1.985623 1_555
Ga5 O5 1.887378 1_555
Ga5 O22 1.901845 1_455
Ga5 O1 1.914682 1_555
Ga5 O9 1.960853 1_555
Ga5 O33 1.985623 1_555
Ga6 O6 1.887378 1_555
Ga6 O21 1.901845 1_555
Ga6 O2 1.914682 1_555
Ga6 O10 1.960853 1_555
Ga6 O34 1.985623 1_555
Ga7 O7 1.887378 1_555
Ga7 O20 1.901845 1_655
Ga7 O3 1.914682 1_555
Ga7 O11 1.960853 1_555
Ga7 O35 1.985623 1_555
H0 N4 1.052550 1_555
H1 N5 1.052550 1_555
H2 N6 1.052550 1_555
H3 N7 1.052550 1_555
H4 N7 1.033756 1_555
H5 N6 1.033756 1_555
H6 N5 1.033756 1_555
H7 N4 1.033756 1_555
H8 N0 1.041910 1_555
H9 N1 1.041910 1_554
H10 N2 1.041910 1_556
H11 N3 1.041910 1_555
H12 N4 1.032627 1_555
H13 N5 1.032627 1_555
H14 N6 1.032627 1_555
H15 N7 1.032627 1_555
H16 N3 1.023143 1_555
H17 N2 1.023143 1_456
H18 N1 1.023143 1_554
H19 N0 1.023143 1_655
H20 N0 1.045762 1_555
H21 N1 1.045762 1_555
H22 N2 1.045762 1_555
H23 N3 1.045762 1_555
H24 N3 1.029668 1_555
H25 N2 1.029668 1_456
H26 N1 1.029668 1_554
H27 N0 1.029668 1_655
H28 N4 1.036657 1_555
H29 N5 1.036657 1_555
H30 N6 1.036657 1_555
H31 N7 1.036657 1_555
H32 O9 0.998397 1_555
H32 O12 1.657078 1_555
H33 O8 0.998397 1_556
H33 O13 1.657078 1_555
H34 O11 0.998397 1_554
H34 O14 1.657078 1_555
H35 O10 0.998397 1_555
H35 O15 1.657078 1_555
O0 P0 1.567420 1_555
O1 P1 1.567420 1_555
O2 P2 1.567420 1_555
O3 P3 1.567420 1_555
O4 P4 1.566683 1_555
O5 P5 1.566683 1_555
O6 P6 1.566683 1_555
O7 P7 1.566683 1_555
O12 P4 1.559661 1_555
O13 P5 1.559661 1_555
O14 P6 1.559661 1_545
O15 P7 1.559661 1_565
O16 P0 1.550752 1_555
O17 P1 1.550752 1_555
O18 P2 1.550752 1_555
O19 P3 1.550752 1_555
O20 P0 1.549306 1_556
O21 P1 1.549306 1_555
O22 P2 1.549306 1_555
O23 P3 1.549306 1_554
O24 P0 1.536626 1_555
O25 P1 1.536626 1_555
O26 P2 1.536626 1_555
O27 P3 1.536626 1_555
O28 P5 1.542168 1_554
O29 P4 1.542168 1_555
O30 P7 1.542178 1_555
O31 P6 1.542168 1_556
O32 P6 1.548299 1_545
O33 P7 1.548299 1_465
O34 P4 1.548299 1_555
O35 P5 1.548299 1_655
F0 Ga0 1.963426 1_555
F1 Ga1 1.963426 1_555
F2 Ga2 1.963426 1_555
F3 Ga3 1.963426 1_555
