# generated using pymatgen
data_Bi5P3O12F
_symmetry_space_group_name_H-M   'P 1'
_cell_length_a   10.32774429
_cell_length_b   10.32774429
_cell_length_c   7.15526800
_cell_angle_alpha   90.00000000
_cell_angle_beta   90.00000000
_cell_angle_gamma   120.00000184
_symmetry_Int_Tables_number   1
_chemical_formula_structural   Bi5P3O12F
_chemical_formula_sum   'Bi10 P6 O24 F2'
_cell_volume   660.94828684
_cell_formula_units_Z   2
loop_
 _symmetry_equiv_pos_site_id
 _symmetry_equiv_pos_as_xyz
  1  'x, y, z'
loop_
 _atom_site_type_symbol
 _atom_site_label
 _atom_site_symmetry_multiplicity
 _atom_site_fract_x
 _atom_site_fract_y
 _atom_site_fract_z
 _atom_site_occupancy
  Bi  Bi0  1  0.33333300  0.66666700  0.39269100  1
  Bi  Bi1  1  0.66666700  0.33333300  0.89269100  1
  Bi  Bi2  1  0.33333300  0.66666700  0.78960800  1
  Bi  Bi3  1  0.66666700  0.33333300  0.28960800  1
  Bi  Bi4  1  0.26309500  0.28889100  0.57547200  1
  Bi  Bi5  1  0.71110900  0.97420300  0.57547200  1
  Bi  Bi6  1  0.73690500  0.71110900  0.07547200  1
  Bi  Bi7  1  0.02579700  0.73690500  0.57547200  1
  Bi  Bi8  1  0.28889100  0.02579700  0.07547200  1
  Bi  Bi9  1  0.97420300  0.26309500  0.07547200  1
  P  P0  1  0.38760600  0.05099400  0.58629100  1
  P  P1  1  0.94900600  0.33661100  0.58629100  1
  P  P2  1  0.61239400  0.94900600  0.08629100  1
  P  P3  1  0.66338900  0.61239400  0.58629100  1
  P  P4  1  0.05099400  0.66338900  0.08629100  1
  P  P5  1  0.33661100  0.38760600  0.08629100  1
  O  O0  1  0.11918400  0.40102900  0.57917100  1
  O  O1  1  0.59897100  0.71815400  0.57917100  1
  O  O2  1  0.88081600  0.59897100  0.07917100  1
  O  O3  1  0.28184600  0.88081600  0.57917100  1
  O  O4  1  0.40102900  0.28184600  0.07917100  1
  O  O5  1  0.71815400  0.11918400  0.07917100  1
  O  O6  1  0.34590700  0.11464700  0.76188600  1
  O  O7  1  0.88535300  0.23126000  0.76188600  1
  O  O8  1  0.65409300  0.88535300  0.26188600  1
  O  O9  1  0.76874000  0.65409300  0.76188600  1
  O  O10  1  0.11464700  0.76874000  0.26188600  1
  O  O11  1  0.23126000  0.34590700  0.26188600  1
  O  O12  1  0.23214100  0.35903600  0.91317900  1
  O  O13  1  0.64096400  0.87310500  0.91317900  1
  O  O14  1  0.76785900  0.64096400  0.41317900  1
  O  O15  1  0.12689500  0.76785900  0.91317900  1
  O  O16  1  0.35903600  0.12689500  0.41317900  1
  O  O17  1  0.87310500  0.23214100  0.41317900  1
  O  O18  1  0.55205400  0.08636200  0.59540900  1
  O  O19  1  0.91363800  0.46569200  0.59540900  1
  O  O20  1  0.44794600  0.91363800  0.09540900  1
  O  O21  1  0.53430800  0.44794600  0.59540900  1
  O  O22  1  0.08636200  0.53430800  0.09540900  1
  O  O23  1  0.46569200  0.55205400  0.09540900  1
  F  F0  1  0.00000000  0.00000000  0.54417800  1
  F  F1  1  0.00000000  0.00000000  0.04417800  1
loop_
_geom_bond_atom_site_label_1
_geom_bond_atom_site_label_2
_geom_bond_distance
_geom_bond_site_symmetry_2
Bi0 Bi2 2.840048 1_555
Bi0 O3 2.851439 1_555
Bi0 O0 2.851451 1_555
Bi0 O1 2.851457 1_555
Bi1 Bi3 2.840048 1_556
Bi1 O5 2.851439 1_556
Bi1 O2 2.851451 1_556
Bi1 O4 2.851457 1_556
Bi4 O0 2.296147 1_555
Bi4 O11 2.383914 1_555
Bi4 O21 2.441982 1_555
Bi4 O12 2.587956 1_555
Bi4 O16 2.605216 1_555
Bi4 O6 2.699641 1_555
Bi5 O1 2.296147 1_555
Bi5 O8 2.383911 1_555
Bi5 O18 2.441990 1_565
Bi5 O13 2.587953 1_555
Bi5 O17 2.605224 1_565
Bi5 O7 2.699648 1_565
Bi6 O2 2.296147 1_555
Bi6 O9 2.383914 1_554
Bi6 O23 2.441982 1_555
Bi6 O14 2.587956 1_555
Bi6 O13 2.605216 1_554
Bi6 O8 2.699641 1_555
Bi7 O3 2.296147 1_555
Bi7 O10 2.383910 1_555
Bi7 O19 2.441981 1_455
Bi7 O15 2.587952 1_555
Bi7 O14 2.605225 1_455
Bi7 O9 2.699649 1_455
Bi8 O4 2.296147 1_555
Bi8 O6 2.383911 1_554
Bi8 O20 2.441990 1_545
Bi8 O16 2.587953 1_555
Bi8 O15 2.605224 1_544
Bi8 O10 2.699648 1_545
Bi9 O5 2.296147 1_555
Bi9 O7 2.383910 1_554
Bi9 O22 2.441981 1_655
Bi9 O17 2.587952 1_555
Bi9 O12 2.605225 1_654
Bi9 O11 2.699649 1_655
O0 P1 1.537830 1_455
O1 P3 1.537830 1_555
O2 P4 1.537830 1_655
O3 P0 1.537830 1_565
O4 P5 1.537830 1_555
O5 P2 1.537830 1_545
O6 P0 1.574596 1_555
O7 P1 1.574591 1_555
O8 P2 1.574596 1_555
O9 P3 1.574591 1_555
O10 P4 1.574591 1_555
O11 P5 1.574591 1_555
O12 P5 1.570701 1_556
O13 P2 1.570707 1_556
O14 P3 1.570701 1_555
O15 P4 1.570703 1_556
O16 P0 1.570707 1_555
O17 P1 1.570703 1_555
O18 P0 1.549773 1_555
O19 P1 1.549783 1_555
O20 P2 1.549773 1_555
O21 P3 1.549776 1_555
O22 P4 1.549783 1_555
O23 P5 1.549776 1_555
