# generated using pymatgen
data_NaCaGaSi2O7
_symmetry_space_group_name_H-M   'P 1'
_cell_length_a   10.23809300
_cell_length_b   7.78588700
_cell_length_c   7.79418300
_cell_angle_alpha   90.00000000
_cell_angle_beta   90.00000000
_cell_angle_gamma   90.00000000
_symmetry_Int_Tables_number   1
_chemical_formula_structural   NaCaGaSi2O7
_chemical_formula_sum   'Na4 Ca4 Ga4 Si8 O28'
_cell_volume   621.29486611
_cell_formula_units_Z   4
loop_
 _symmetry_equiv_pos_site_id
 _symmetry_equiv_pos_as_xyz
  1  'x, y, z'
loop_
 _atom_site_type_symbol
 _atom_site_label
 _atom_site_symmetry_multiplicity
 _atom_site_fract_x
 _atom_site_fract_y
 _atom_site_fract_z
 _atom_site_occupancy
  Na  Na0  1  0.24489200  0.66931500  0.83601700  1
  Na  Na1  1  0.25510800  0.83068500  0.33601700  1
  Na  Na2  1  0.74489200  0.33068500  0.16398300  1
  Na  Na3  1  0.75510800  0.16931500  0.66398300  1
  Ca  Ca0  1  0.24125100  0.34849400  0.16027700  1
  Ca  Ca1  1  0.25874900  0.15150600  0.66027700  1
  Ca  Ca2  1  0.74125100  0.65150600  0.83972300  1
  Ca  Ca3  1  0.75874900  0.84849400  0.33972300  1
  Ga  Ga0  1  0.00045500  0.00347800  0.99966200  1
  Ga  Ga1  1  0.99954500  0.50347800  0.50033800  1
  Ga  Ga2  1  0.50045500  0.99652200  0.00033800  1
  Ga  Ga3  1  0.49954500  0.49652200  0.49966200  1
  Si  Si0  1  0.02461500  0.13668000  0.35881800  1
  Si  Si1  1  0.02679000  0.85409600  0.64210300  1
  Si  Si2  1  0.47538500  0.36332000  0.85881800  1
  Si  Si3  1  0.47321000  0.64590400  0.14210300  1
  Si  Si4  1  0.52679000  0.14590400  0.35789700  1
  Si  Si5  1  0.52461500  0.86332000  0.64118200  1
  Si  Si6  1  0.97321000  0.35409600  0.85789700  1
  Si  Si7  1  0.97538500  0.63668000  0.14118200  1
  O  O0  1  0.08622300  0.00085500  0.50375100  1
  O  O1  1  0.09927800  0.91749800  0.82104800  1
  O  O2  1  0.09717400  0.32047900  0.41389500  1
  O  O3  1  0.10187600  0.09116400  0.17702100  1
  O  O4  1  0.10269700  0.67610300  0.58653000  1
  O  O5  1  0.13033100  0.33959200  0.85816000  1
  O  O6  1  0.13069600  0.62642500  0.14917200  1
  O  O7  1  0.36966900  0.16040800  0.35816000  1
  O  O8  1  0.36930400  0.87357500  0.64917200  1
  O  O9  1  0.40282600  0.17952100  0.91389500  1
  O  O10  1  0.39812400  0.40883600  0.67702100  1
  O  O11  1  0.40072200  0.58250200  0.32104800  1
  O  O12  1  0.39730300  0.82389700  0.08653000  1
  O  O13  1  0.41377700  0.49914500  0.00375100  1
  O  O14  1  0.58622300  0.99914500  0.49624900  1
  O  O15  1  0.59927800  0.08250200  0.17895200  1
  O  O16  1  0.60269700  0.32389700  0.41347000  1
  O  O17  1  0.60187600  0.90883600  0.82297900  1
  O  O18  1  0.59717400  0.67952100  0.58610500  1
  O  O19  1  0.63069600  0.37357500  0.85082800  1
  O  O20  1  0.63033100  0.66040800  0.14184000  1
  O  O21  1  0.86930400  0.12642500  0.35082800  1
  O  O22  1  0.86966900  0.83959200  0.64184000  1
  O  O23  1  0.89730300  0.17610300  0.91347000  1
  O  O24  1  0.90072200  0.41749800  0.67895200  1
  O  O25  1  0.89812400  0.59116400  0.32297900  1
  O  O26  1  0.90282600  0.82047900  0.08610500  1
  O  O27  1  0.91377700  0.50085500  0.99624900  1
loop_
_geom_bond_atom_site_label_1
_geom_bond_atom_site_label_2
_geom_bond_distance
_geom_bond_site_symmetry_2
Na0 O4 2.429697 1_555
Na0 O1 2.443359 1_555
Na0 O8 2.504483 1_555
Na0 O13 2.540519 1_556
Na0 O6 2.726879 1_556
Na0 O12 2.774135 1_556
Na0 O5 2.827701 1_555
Na0 O10 2.847788 1_555
Na1 O12 2.429697 1_555
Na1 O11 2.443359 1_555
Na1 O6 2.504483 1_555
Na1 O0 2.540519 1_565
Na1 O8 2.726879 1_555
Na1 O4 2.774135 1_555
Na1 O7 2.827701 1_565
Na1 O3 2.847788 1_565
Na2 O16 2.429697 1_555
Na2 O15 2.443359 1_555
Na2 O21 2.504483 1_555
Na2 O27 2.540519 1_554
Na2 O19 2.726879 1_554
Na2 O23 2.774135 1_554
Na2 O20 2.827701 1_555
Na2 O25 2.847788 1_555
Na3 O23 2.429697 1_555
Na3 O24 2.443359 1_555
Na3 O19 2.504483 1_555
Na3 O14 2.540519 1_545
Na3 O21 2.726879 1_555
Na3 O16 2.774135 1_555
Na3 O22 2.827701 1_545
Na3 O17 2.847788 1_545
Ca0 O6 2.443616 1_555
Ca0 O13 2.446251 1_555
Ca0 O3 2.463200 1_555
Ca0 O2 2.476074 1_555
Ca0 O7 2.500380 1_555
Ca0 O5 2.615203 1_554
Ca0 O11 2.748706 1_555
Ca0 O9 2.855694 1_554
Ca1 O8 2.443616 1_545
Ca1 O0 2.446251 1_555
Ca1 O10 2.463200 1_555
Ca1 O9 2.476074 1_555
Ca1 O5 2.500380 1_555
Ca1 O7 2.615203 1_555
Ca1 O1 2.748706 1_545
Ca1 O2 2.855694 1_555
Ca2 O19 2.443616 1_555
Ca2 O27 2.446251 1_555
Ca2 O17 2.463200 1_555
Ca2 O18 2.476074 1_555
Ca2 O22 2.500380 1_555
Ca2 O20 2.615203 1_556
Ca2 O24 2.748706 1_555
Ca2 O26 2.855694 1_556
Ca3 O21 2.443616 1_565
Ca3 O14 2.446251 1_555
Ca3 O25 2.463200 1_555
Ca3 O26 2.476074 1_555
Ca3 O20 2.500380 1_555
Ca3 O22 2.615203 1_555
Ca3 O15 2.748706 1_565
Ca3 O18 2.855694 1_555
Ga0 O23 1.836588 1_455
Ga0 O1 1.846585 1_545
Ga0 O3 1.858824 1_556
Ga0 O26 1.866305 1_446
Ga1 O4 1.836588 1_655
Ga1 O24 1.846585 1_555
Ga1 O25 1.858824 1_555
Ga1 O2 1.866305 1_655
Ga2 O12 1.836588 1_555
Ga2 O15 1.846585 1_565
Ga2 O17 1.858824 1_554
Ga2 O9 1.866305 1_564
Ga3 O16 1.836588 1_555
Ga3 O11 1.846585 1_555
Ga3 O10 1.858824 1_555
Ga3 O18 1.866305 1_555
O0 Si0 1.671006 1_555
O0 Si1 1.684848 1_545
O1 Si1 1.655211 1_555
O2 Si0 1.668533 1_555
O3 Si0 1.661039 1_555
O4 Si1 1.646846 1_555
O5 Si6 1.612580 1_455
O6 Si7 1.593309 1_455
O7 Si4 1.612580 1_555
O8 Si5 1.593309 1_555
O9 Si2 1.668533 1_555
O10 Si2 1.661039 1_555
O11 Si3 1.655211 1_555
O12 Si3 1.646846 1_555
O13 Si2 1.671006 1_554
O13 Si3 1.684848 1_555
O14 Si5 1.671006 1_555
O14 Si4 1.684848 1_565
O15 Si4 1.655211 1_555
O16 Si4 1.646846 1_555
O17 Si5 1.661039 1_555
O18 Si5 1.668533 1_555
O19 Si2 1.593309 1_555
O20 Si3 1.612580 1_555
O21 Si0 1.593309 1_655
O22 Si1 1.612580 1_655
O23 Si6 1.646846 1_555
O24 Si6 1.655211 1_555
O25 Si7 1.661039 1_555
O26 Si7 1.668533 1_555
O27 Si7 1.671006 1_556
O27 Si6 1.684848 1_555
