# generated using pymatgen
data_Ho3(GeRh)2
_symmetry_space_group_name_H-M   'P 1'
_cell_length_a   5.58069700
_cell_length_b   7.84347200
_cell_length_c   13.18673900
_cell_angle_alpha   90.00000000
_cell_angle_beta   90.00000000
_cell_angle_gamma   90.00000000
_symmetry_Int_Tables_number   1
_chemical_formula_structural   Ho3(GeRh)2
_chemical_formula_sum   'Ho12 Ge8 Rh8'
_cell_volume   577.21047568
_cell_formula_units_Z   4
loop_
 _symmetry_equiv_pos_site_id
 _symmetry_equiv_pos_as_xyz
  1  'x, y, z'
loop_
 _atom_site_type_symbol
 _atom_site_label
 _atom_site_symmetry_multiplicity
 _atom_site_fract_x
 _atom_site_fract_y
 _atom_site_fract_z
 _atom_site_occupancy
  Ho  Ho0  1  0.63259600  0.25197000  0.25000000  1
  Ho  Ho1  1  0.36740400  0.74803000  0.75000000  1
  Ho  Ho2  1  0.36740400  0.75197000  0.25000000  1
  Ho  Ho3  1  0.63259600  0.24803000  0.75000000  1
  Ho  Ho4  1  0.14722000  0.39342300  0.10055000  1
  Ho  Ho5  1  0.85278000  0.60657700  0.89945000  1
  Ho  Ho6  1  0.85278000  0.60657700  0.60055000  1
  Ho  Ho7  1  0.85278000  0.89342300  0.39945000  1
  Ho  Ho8  1  0.14722000  0.39342300  0.39945000  1
  Ho  Ho9  1  0.14722000  0.10657700  0.60055000  1
  Ho  Ho10  1  0.14722000  0.10657700  0.89945000  1
  Ho  Ho11  1  0.85278000  0.89342300  0.10055000  1
  Ge  Ge0  1  0.12887500  0.10858400  0.25000000  1
  Ge  Ge1  1  0.87112500  0.89141600  0.75000000  1
  Ge  Ge2  1  0.87112500  0.60858400  0.25000000  1
  Ge  Ge3  1  0.12887500  0.39141600  0.75000000  1
  Ge  Ge4  1  0.65881100  0.25000000  0.00000000  1
  Ge  Ge5  1  0.34118900  0.75000000  0.00000000  1
  Ge  Ge6  1  0.34118900  0.75000000  0.50000000  1
  Ge  Ge7  1  0.65881100  0.25000000  0.50000000  1
  Rh  Rh0  1  0.37463800  0.03876900  0.09363000  1
  Rh  Rh1  1  0.62536300  0.96123100  0.90637000  1
  Rh  Rh2  1  0.62536300  0.96123100  0.59363000  1
  Rh  Rh3  1  0.62536300  0.53876900  0.40637000  1
  Rh  Rh4  1  0.37463800  0.03876900  0.40637000  1
  Rh  Rh5  1  0.37463800  0.46123100  0.59363000  1
  Rh  Rh6  1  0.37463800  0.46123100  0.90637000  1
  Rh  Rh7  1  0.62536300  0.53876900  0.09363000  1
loop_
_geom_bond_atom_site_label_1
_geom_bond_atom_site_label_2
_geom_bond_distance
_geom_bond_site_symmetry_2
Ho0 Rh4 3.020044 1_555
Ho0 Rh0 3.020044 1_555
Ho0 Rh3 3.051846 1_555
Ho0 Rh7 3.051846 1_555
Ho1 Rh2 3.020047 1_555
Ho1 Rh1 3.020047 1_555
Ho1 Rh5 3.051846 1_555
Ho1 Rh6 3.051846 1_555
Ho2 Rh3 3.020047 1_555
Ho2 Rh7 3.020047 1_555
Ho2 Rh0 3.051846 1_565
Ho2 Rh4 3.051846 1_565
Ho3 Rh5 3.020044 1_555
Ho3 Rh6 3.020044 1_555
Ho3 Rh2 3.051846 1_545
Ho3 Rh1 3.051846 1_545
Ho4 Rh7 2.903131 1_555
Ho4 Rh6 2.906938 1_554
Ho4 Rh0 3.058926 1_555
Ho4 Rh7 3.128835 1_455
Ho5 Rh6 2.903126 1_555
Ho5 Rh7 2.906935 1_556
Ho5 Rh1 3.058924 1_555
Ho5 Rh6 3.128840 1_655
Ho6 Rh5 2.903126 1_555
Ho6 Rh3 2.906935 1_555
Ho6 Rh2 3.058924 1_555
Ho6 Rh5 3.128840 1_655
Ho7 Rh4 2.903126 1_565
Ho7 Rh2 2.906935 1_555
Ho7 Rh3 3.058924 1_555
Ho7 Rh4 3.128840 1_665
Ho8 Rh3 2.903131 1_555
Ho8 Rh5 2.906938 1_555
Ho8 Rh4 3.058926 1_555
Ho8 Rh3 3.128835 1_455
Ho9 Rh2 2.903131 1_545
Ho9 Rh4 2.906938 1_555
Ho9 Rh5 3.058926 1_555
Ho9 Rh2 3.128835 1_445
Ho10 Rh1 2.903131 1_545
Ho10 Rh0 2.906938 1_556
Ho10 Rh6 3.058926 1_555
Ho10 Rh1 3.128835 1_445
Ho11 Rh0 2.903126 1_565
Ho11 Rh1 2.906935 1_554
Ho11 Rh7 3.058924 1_555
Ho11 Rh0 3.128840 1_665
Ge0 Rh4 2.536303 1_555
Ge0 Rh0 2.536303 1_555
Ge0 Ho4 2.980888 1_555
Ge0 Ho8 2.980888 1_555
Ge0 Ho0 2.989216 1_455
Ge0 Ho11 3.017613 1_445
Ge0 Ho7 3.017613 1_445
Ge0 Ho0 3.027736 1_555
Ge0 Ho2 3.097694 1_545
Ge1 Rh2 2.536300 1_555
Ge1 Rh1 2.536300 1_555
Ge1 Ho6 2.980888 1_555
Ge1 Ho5 2.980888 1_555
Ge1 Ho1 2.989216 1_655
Ge1 Ho9 3.017613 1_665
Ge1 Ho10 3.017613 1_665
Ge1 Ho1 3.027736 1_555
Ge1 Ho3 3.097694 1_565
Ge2 Rh7 2.536300 1_555
Ge2 Rh3 2.536300 1_555
Ge2 Ho11 2.980888 1_555
Ge2 Ho7 2.980888 1_555
Ge2 Ho2 2.989216 1_655
Ge2 Ho4 3.017613 1_655
Ge2 Ho8 3.017613 1_655
Ge2 Ho2 3.027736 1_555
Ge2 Ho0 3.097694 1_555
Ge3 Rh5 2.536303 1_555
Ge3 Rh6 2.536303 1_555
Ge3 Ho9 2.980888 1_555
Ge3 Ho10 2.980888 1_555
Ge3 Ho3 2.989216 1_455
Ge3 Ho6 3.017613 1_455
Ge3 Ho5 3.017613 1_455
Ge3 Ho3 3.027736 1_555
Ge3 Ho1 3.097694 1_555
Ge4 Rh7 2.586362 1_555
Ge4 Rh1 2.586362 1_544
Ge4 Rh6 2.604685 1_554
Ge4 Rh0 2.604685 1_555
Ge4 Ho4 3.233078 1_655
Ge4 Ho10 3.233078 1_654
Ge4 Ho5 3.279016 1_554
Ge4 Ho11 3.279016 1_545
Ge4 Ho0 3.299965 1_555
Ge4 Ho3 3.299965 1_554
Ge4 Ho4 3.342870 1_555
Ge4 Ho10 3.342870 1_554
Ge5 Rh6 2.586363 1_554
Ge5 Rh0 2.586363 1_565
Ge5 Rh1 2.604688 1_554
Ge5 Rh7 2.604688 1_555
Ge5 Ho11 3.233078 1_455
Ge5 Ho5 3.233078 1_454
Ge5 Ho10 3.279016 1_564
Ge5 Ho4 3.279016 1_555
Ge5 Ho2 3.299965 1_555
Ge5 Ho1 3.299965 1_554
Ge5 Ho11 3.342870 1_555
Ge5 Ho5 3.342870 1_554
Ge6 Rh4 2.586363 1_565
Ge6 Rh5 2.586363 1_555
Ge6 Rh2 2.604688 1_555
Ge6 Rh3 2.604688 1_555
Ge6 Ho7 3.233078 1_455
Ge6 Ho6 3.233078 1_455
Ge6 Ho9 3.279016 1_565
Ge6 Ho8 3.279016 1_555
Ge6 Ho2 3.299965 1_555
Ge6 Ho1 3.299965 1_555
Ge6 Ho7 3.342870 1_555
Ge6 Ho6 3.342870 1_555
Ge7 Rh3 2.586362 1_555
Ge7 Rh2 2.586362 1_545
Ge7 Rh4 2.604685 1_555
Ge7 Rh5 2.604685 1_555
Ge7 Ho8 3.233078 1_655
Ge7 Ho9 3.233078 1_655
Ge7 Ho6 3.279016 1_555
Ge7 Ho7 3.279016 1_545
Ge7 Ho0 3.299965 1_555
Ge7 Ho3 3.299965 1_555
Ge7 Ho8 3.342870 1_555
Ge7 Ho9 3.342870 1_555
