# generated using pymatgen
data_Zr5Pt3
_symmetry_space_group_name_H-M   'P 1'
_cell_length_a   5.43719000
_cell_length_b   8.29317145
_cell_length_c   8.28070047
_cell_angle_alpha   120.04982631
_cell_angle_beta   90.00000000
_cell_angle_gamma   90.00000000
_symmetry_Int_Tables_number   1
_chemical_formula_structural   Zr5Pt3
_chemical_formula_sum   'Zr10 Pt6'
_cell_volume   323.20240969
_cell_formula_units_Z   2
loop_
 _symmetry_equiv_pos_site_id
 _symmetry_equiv_pos_as_xyz
  1  'x, y, z'
loop_
 _atom_site_type_symbol
 _atom_site_label
 _atom_site_symmetry_multiplicity
 _atom_site_fract_x
 _atom_site_fract_y
 _atom_site_fract_z
 _atom_site_occupancy
  Zr  Zr0  1  0.50000000  0.33334500  0.66673900  1
  Zr  Zr1  1  0.50000000  0.66660600  0.33326100  1
  Zr  Zr2  1  0.00000000  0.66665500  0.33326100  1
  Zr  Zr3  1  0.00000000  0.33339400  0.66673900  1
  Zr  Zr4  1  0.75000800  0.24516100  0.00000000  1
  Zr  Zr5  1  0.74999600  0.75467000  0.75480800  1
  Zr  Zr6  1  0.74999600  0.99986100  0.24519200  1
  Zr  Zr7  1  0.25000800  0.75483900  0.00000000  1
  Zr  Zr8  1  0.24999600  0.24533000  0.24519200  1
  Zr  Zr9  1  0.24999600  0.00013900  0.75480800  1
  Pt  Pt0  1  0.74998900  0.60719300  0.00000000  1
  Pt  Pt1  1  0.75000500  0.39319700  0.39296600  1
  Pt  Pt2  1  0.75000500  0.00023100  0.60703400  1
  Pt  Pt3  1  0.24998900  0.39280700  0.00000000  1
  Pt  Pt4  1  0.25000500  0.60680300  0.60703400  1
  Pt  Pt5  1  0.25000500  0.99976900  0.39296600  1
loop_
_geom_bond_atom_site_label_1
_geom_bond_atom_site_label_2
_geom_bond_distance
_geom_bond_site_symmetry_2
Pt0 Zr6 2.846957 1_555
Pt0 Zr5 2.846964 1_554
Pt0 Zr2 2.888548 1_655
Pt0 Zr3 2.888548 1_654
Pt0 Zr1 2.888616 1_555
Pt0 Zr0 2.888616 1_554
Pt0 Zr7 2.981524 1_555
Pt0 Zr7 2.981712 1_655
Pt0 Zr4 3.002393 1_555
Pt1 Zr4 2.845171 1_555
Pt1 Zr6 2.853139 1_545
Pt1 Zr1 2.890696 1_555
Pt1 Zr2 2.891024 1_655
Pt1 Zr3 2.891205 1_655
Pt1 Zr0 2.891460 1_555
Pt1 Zr8 2.981411 1_655
Pt1 Zr8 2.981500 1_555
Pt1 Zr5 2.994774 1_555
Pt2 Zr4 2.845171 1_556
Pt2 Zr5 2.853131 1_545
Pt2 Zr0 2.890696 1_555
Pt2 Zr3 2.891024 1_655
Pt2 Zr2 2.891205 1_645
Pt2 Zr1 2.891460 1_545
Pt2 Zr9 2.981409 1_655
Pt2 Zr9 2.981499 1_555
Pt2 Zr6 2.994770 1_545
Pt3 Zr9 2.846957 1_554
Pt3 Zr8 2.846964 1_555
Pt3 Zr0 2.888548 1_554
Pt3 Zr1 2.888548 1_555
Pt3 Zr3 2.888616 1_554
Pt3 Zr2 2.888616 1_555
Pt3 Zr4 2.981524 1_455
Pt3 Zr4 2.981712 1_555
Pt3 Zr7 3.002393 1_555
Pt4 Zr7 2.845171 1_556
Pt4 Zr9 2.853139 1_565
Pt4 Zr3 2.890696 1_555
Pt4 Zr0 2.891024 1_555
Pt4 Zr1 2.891205 1_555
Pt4 Zr2 2.891460 1_555
Pt4 Zr5 2.981411 1_555
Pt4 Zr5 2.981500 1_455
Pt4 Zr8 2.994774 1_555
Pt5 Zr7 2.845171 1_555
Pt5 Zr8 2.853131 1_565
Pt5 Zr2 2.890696 1_555
Pt5 Zr1 2.891024 1_555
Pt5 Zr0 2.891205 1_565
Pt5 Zr3 2.891460 1_565
Pt5 Zr6 2.981409 1_555
Pt5 Zr6 2.981499 1_455
Pt5 Zr9 2.994770 1_565
