# generated using pymatgen
data_Er2(AlNi)5
_symmetry_space_group_name_H-M   'P 1'
_cell_length_a   4.01634100
_cell_length_b   8.76690500
_cell_length_c   15.26223662
_cell_angle_alpha   89.93240012
_cell_angle_beta   90.00000000
_cell_angle_gamma   90.00000000
_symmetry_Int_Tables_number   1
_chemical_formula_structural   Er2(AlNi)5
_chemical_formula_sum   'Er6 Al15 Ni15'
_cell_volume   537.39640814
_cell_formula_units_Z   3
loop_
 _symmetry_equiv_pos_site_id
 _symmetry_equiv_pos_as_xyz
  1  'x, y, z'
loop_
 _atom_site_type_symbol
 _atom_site_label
 _atom_site_symmetry_multiplicity
 _atom_site_fract_x
 _atom_site_fract_y
 _atom_site_fract_z
 _atom_site_occupancy
  Er  Er0  1  0.00000000  0.00035500  0.33645800  1
  Er  Er1  1  0.00000000  0.50352000  0.83507900  1
  Er  Er2  1  0.00000000  0.50479400  0.16957000  1
  Er  Er3  1  0.00000000  0.00248700  0.66423400  1
  Er  Er4  1  0.50000000  0.99397700  0.00085200  1
  Er  Er5  1  0.50000000  0.49755100  0.49685400  1
  Al  Al0  1  0.50000000  0.50749800  0.00059400  1
  Al  Al1  1  0.50000000  0.00856700  0.50123800  1
  Al  Al2  1  0.50000000  0.74799300  0.25540600  1
  Al  Al3  1  0.50000000  0.25305900  0.75140100  1
  Al  Al4  1  0.50000000  0.24847500  0.24851300  1
  Al  Al5  1  0.50000000  0.75264000  0.74829300  1
  Al  Al6  1  0.00000000  0.14826400  0.85139600  1
  Al  Al7  1  0.00000000  0.14817700  0.14933100  1
  Al  Al8  1  0.00000000  0.64968000  0.64887900  1
  Al  Al9  1  0.00000000  0.29907800  0.00107100  1
  Al  Al10  1  0.00000000  0.78281000  0.49406300  1
  Al  Al11  1  0.00000000  0.84860100  0.14160700  1
  Al  Al12  1  0.00000000  0.34999000  0.64010600  1
  Al  Al13  1  0.00000000  0.35953900  0.35983600  1
  Al  Al14  1  0.00000000  0.84935300  0.85879800  1
  Ni  Ni0  1  0.50000000  0.99541900  0.18360500  1
  Ni  Ni1  1  0.50000000  0.49980700  0.67989500  1
  Ni  Ni2  1  0.50000000  0.22555600  0.40544900  1
  Ni  Ni3  1  0.50000000  0.72651200  0.90711900  1
  Ni  Ni4  1  0.50000000  0.78077800  0.41035500  1
  Ni  Ni5  1  0.50000000  0.27535400  0.91045700  1
  Ni  Ni6  1  0.50000000  0.49580300  0.31611000  1
  Ni  Ni7  1  0.50000000  0.99924400  0.81793100  1
  Ni  Ni8  1  0.50000000  0.72378400  0.09584300  1
  Ni  Ni9  1  0.50000000  0.22796700  0.59256700  1
  Ni  Ni10  1  0.50000000  0.27473700  0.09060300  1
  Ni  Ni11  1  0.50000000  0.77447200  0.58822600  1
  Ni  Ni12  1  0.00000000  0.19775400  0.49892900  1
  Ni  Ni13  1  0.00000000  0.69651300  0.00069300  1
  Ni  Ni14  1  0.00000000  0.65009200  0.34863900  1
loop_
_geom_bond_atom_site_label_1
_geom_bond_atom_site_label_2
_geom_bond_distance
_geom_bond_site_symmetry_2
Er0 Ni4 3.000883 1_545
Er0 Ni4 3.000883 1_445
Er0 Ni2 3.007374 1_555
Er0 Ni2 3.007374 1_455
Er0 Ni12 3.025524 1_555
Er0 Ni14 3.076126 1_545
Er0 Ni0 3.078503 1_445
Er0 Ni0 3.078503 1_545
Er1 Ni3 3.011400 1_555
Er1 Ni3 3.011400 1_455
Er1 Ni13 3.043313 1_556
Er1 Ni5 3.058114 1_555
Er1 Ni5 3.058114 1_455
Er1 Ni1 3.105410 1_555
Er1 Ni1 3.105410 1_455
Er2 Ni8 2.996614 1_455
Er2 Ni8 2.996614 1_555
Er2 Ni6 3.006760 1_555
Er2 Ni6 3.006760 1_455
Er2 Ni14 3.016632 1_555
Er2 Ni13 3.075387 1_555
Er2 Ni10 3.091741 1_455
Er2 Ni10 3.091741 1_555
Er3 Ni9 3.021859 1_455
Er3 Ni9 3.021859 1_555
Er3 Ni12 3.047214 1_555
Er3 Ni11 3.062660 1_545
Er3 Ni11 3.062660 1_445
Er3 Ni7 3.088040 1_445
Er3 Ni7 3.088040 1_545
Er4 Ni3 2.748224 1_554
Er4 Ni8 2.775743 1_555
Er4 Ni0 2.789263 1_555
Er4 Ni7 2.792111 1_554
Er4 Ni10 2.818294 1_565
Er4 Ni5 2.824974 1_564
Er5 Ni6 2.758618 1_555
Er5 Ni2 2.764073 1_555
Er5 Ni9 2.776961 1_555
Er5 Ni1 2.793708 1_555
Er5 Ni11 2.801188 1_555
Er5 Ni4 2.810786 1_555
Al0 Ni8 2.390649 1_555
Al0 Ni3 2.390715 1_554
Al0 Ni5 2.457867 1_554
Al0 Ni10 2.458570 1_555
Al0 Ni13 2.603586 1_555
Al0 Ni13 2.603586 1_655
Al0 Al9 2.715037 1_655
Al0 Al9 2.715037 1_555
Al0 Er1 3.227306 1_654
Al0 Er1 3.227306 1_554
Al0 Er2 3.268663 1_655
Al0 Er2 3.268663 1_555
Al1 Ni9 2.376749 1_555
Al1 Ni2 2.397828 1_555
Al1 Ni4 2.432807 1_545
Al1 Ni11 2.442962 1_545
Al1 Ni12 2.604756 1_655
Al1 Ni12 2.604756 1_555
Al1 Al10 2.821781 1_545
Al1 Al10 2.821781 1_645
Al1 Er3 3.197475 1_555
Al1 Er3 3.197475 1_655
Al1 Er0 3.219183 1_555
Al1 Er0 3.219183 1_655
Al2 Ni4 2.382607 1_555
Al2 Ni6 2.396189 1_555
Al2 Ni0 2.429099 1_555
Al2 Ni8 2.444769 1_555
Al2 Ni14 2.606012 1_555
Al2 Ni14 2.606012 1_655
Al2 Er2 3.209584 1_555
Al2 Er2 3.209584 1_655
Al2 Er0 3.234861 1_665
Al2 Er0 3.234861 1_565
Al3 Ni1 2.421768 1_555
Al3 Ni9 2.434381 1_555
Al3 Ni5 2.435636 1_555
Al3 Ni7 2.444809 1_545
Al3 Al6 2.683771 1_555
Al3 Al6 2.683771 1_655
Al3 Er1 3.239102 1_555
Al3 Er1 3.239102 1_655
Al3 Er3 3.261163 1_555
Al3 Er3 3.261163 1_655
Al4 Ni6 2.402327 1_555
Al4 Ni2 2.403371 1_555
Al4 Ni10 2.420762 1_555
Al4 Ni0 2.430715 1_545
Al4 Al7 2.664671 1_655
Al4 Al7 2.664671 1_555
Al4 Er2 3.244624 1_655
Al4 Er2 3.244624 1_555
Al4 Er0 3.249484 1_655
Al4 Er0 3.249484 1_555
Al5 Ni7 2.410203 1_555
Al5 Ni3 2.434570 1_555
Al5 Ni11 2.450242 1_555
Al5 Ni1 2.451194 1_555
Al5 Al8 2.674487 1_655
Al5 Al8 2.674487 1_555
Al5 Er3 3.235708 1_565
Al5 Er3 3.235708 1_665
Al5 Er1 3.248116 1_655
Al5 Er1 3.248116 1_555
Al6 Ni7 2.449895 1_545
Al6 Ni7 2.449895 1_445
Al6 Ni5 2.467601 1_555
Al6 Ni5 2.467601 1_455
Al6 Al9 2.640764 1_556
Al6 Er1 3.124143 1_555
Al6 Er3 3.130748 1_555
Al7 Ni10 2.462696 1_555
Al7 Ni10 2.462696 1_455
Al7 Ni0 2.469458 1_445
Al7 Ni0 2.469458 1_545
Al7 Al9 2.619783 1_555
Al7 Er0 3.134858 1_555
Al7 Er2 3.142012 1_555
Al8 Ni1 2.445763 1_555
Al8 Ni1 2.445763 1_455
Al8 Ni11 2.466618 1_455
Al8 Ni11 2.466618 1_555
Al8 Er3 3.102167 1_565
Al8 Er1 3.115976 1_555
Al9 Ni10 2.438198 1_555
Al9 Ni10 2.438198 1_455
Al9 Ni5 2.447304 1_454
Al9 Ni5 2.447304 1_554
Al9 Er1 3.101592 1_554
Al9 Er2 3.142773 1_555
Al10 Ni4 2.380191 1_455
Al10 Ni4 2.380191 1_555
Al10 Ni11 2.470468 1_455
Al10 Ni11 2.470468 1_555
Al10 Ni14 2.507199 1_555
Al10 Al8 2.634143 1_555
Al10 Er0 3.067987 1_565
Al10 Er5 3.207570 1_455
Al10 Er5 3.207570 1_555
Al10 Er3 3.235157 1_565
Al11 Ni8 2.391611 1_455
Al11 Ni8 2.391611 1_555
Al11 Ni0 2.470280 1_455
Al11 Ni0 2.470280 1_555
Al11 Ni13 2.531781 1_555
Al11 Al7 2.629138 1_565
Al11 Al2 2.797081 1_455
Al11 Al2 2.797081 1_555
Al11 Er2 3.043689 1_555
Al11 Er4 3.203990 1_555
Al11 Er4 3.203990 1_455
Al11 Er0 3.259324 1_565
Al12 Ni9 2.388598 1_555
Al12 Ni9 2.388598 1_455
Al12 Ni1 2.475582 1_555
Al12 Ni1 2.475582 1_455
Al12 Ni12 2.535878 1_555
Al12 Al8 2.630921 1_555
Al12 Al3 2.763468 1_555
Al12 Al3 2.763468 1_455
Al12 Er3 3.068270 1_555
Al12 Er5 3.237240 1_455
Al12 Er5 3.237240 1_555
Al12 Er1 3.267423 1_555
Al13 Ni2 2.427998 1_555
Al13 Ni2 2.427998 1_455
Al13 Ni6 2.429678 1_555
Al13 Ni6 2.429678 1_455
Al13 Ni12 2.551705 1_555
Al13 Ni14 2.552775 1_555
Al13 Al4 2.805610 1_455
Al13 Al4 2.805610 1_555
Al13 Er5 3.142577 1_455
Al13 Er5 3.142577 1_555
Al13 Er2 3.169458 1_555
Al13 Er0 3.169500 1_555
Al14 Ni3 2.394692 1_555
Al14 Ni3 2.394692 1_455
Al14 Ni7 2.479244 1_555
Al14 Ni7 2.479244 1_455
Al14 Ni13 2.545300 1_556
Al14 Al6 2.622825 1_565
Al14 Al5 2.756715 1_555
Al14 Al5 2.756715 1_455
Al14 Er1 3.053844 1_555
Al14 Er4 3.216723 1_456
Al14 Er4 3.216723 1_556
Al14 Er3 3.257415 1_565
Ni0 Ni8 2.733623 1_555
Ni0 Ni10 2.828948 1_565
Ni1 Ni9 2.731946 1_555
Ni1 Ni11 2.783476 1_555
Ni2 Ni6 2.732178 1_555
Ni2 Ni9 2.855942 1_555
Ni3 Ni7 2.749939 1_555
Ni3 Ni8 2.880421 1_556
Ni4 Ni6 2.884301 1_555
Ni5 Ni7 2.803871 1_545
Ni10 Ni5 2.749430 1_554
Ni11 Ni4 2.715207 1_555
Ni12 Ni2 2.475247 1_455
Ni12 Ni2 2.475247 1_555
Ni12 Ni9 2.479153 1_555
Ni12 Ni9 2.479153 1_455
Ni13 Ni3 2.478031 1_454
Ni13 Ni3 2.478031 1_554
Ni13 Ni8 2.489903 1_555
Ni13 Ni8 2.489903 1_455
Ni14 Ni6 2.471930 1_555
Ni14 Ni6 2.471930 1_455
Ni14 Ni4 2.497033 1_555
Ni14 Ni4 2.497033 1_455
