# generated using pymatgen
data_Nd6Ga3Fe11
_symmetry_space_group_name_H-M   'P 1'
_cell_length_a   8.12447100
_cell_length_b   8.12447100
_cell_length_c   13.06281681
_cell_angle_alpha   71.88188378
_cell_angle_beta   71.88188378
_cell_angle_gamma   90.00000000
_symmetry_Int_Tables_number   1
_chemical_formula_structural   Nd6Ga3Fe11
_chemical_formula_sum   'Nd12 Ga6 Fe22'
_cell_volume   774.37717074
_cell_formula_units_Z   2
loop_
 _symmetry_equiv_pos_site_id
 _symmetry_equiv_pos_as_xyz
  1  'x, y, z'
loop_
 _atom_site_type_symbol
 _atom_site_label
 _atom_site_symmetry_multiplicity
 _atom_site_fract_x
 _atom_site_fract_y
 _atom_site_fract_z
 _atom_site_occupancy
  Nd  Nd0  1  0.35342000  0.85342000  0.62839800  1
  Nd  Nd1  1  0.01818100  0.51818100  0.62839800  1
  Nd  Nd2  1  0.51818100  0.35342000  0.62839800  1
  Nd  Nd3  1  0.85342000  0.01818100  0.62839800  1
  Nd  Nd4  1  0.64144300  0.14144300  0.37781900  1
  Nd  Nd5  1  0.98073800  0.48073800  0.37781900  1
  Nd  Nd6  1  0.48073800  0.64144300  0.37781900  1
  Nd  Nd7  1  0.14144300  0.98073800  0.37781900  1
  Nd  Nd8  1  0.39471300  0.39471300  0.21057400  1
  Nd  Nd9  1  0.89471300  0.89471300  0.21057400  1
  Nd  Nd10  1  0.60533400  0.60533400  0.78933200  1
  Nd  Nd11  1  0.10533400  0.10533400  0.78933200  1
  Ga  Ga0  1  0.75036300  0.75036300  0.49927500  1
  Ga  Ga1  1  0.25036200  0.25036200  0.49927500  1
  Ga  Ga2  1  0.52553700  0.02553700  0.19074700  1
  Ga  Ga3  1  0.28371600  0.78371600  0.19074700  1
  Ga  Ga4  1  0.78371600  0.52553700  0.19074700  1
  Ga  Ga5  1  0.02553700  0.28371600  0.19074700  1
  Fe  Fe0  1  0.23737900  0.73737900  0.88210900  1
  Fe  Fe1  1  0.88051200  0.38051200  0.88210900  1
  Fe  Fe2  1  0.38051200  0.23737900  0.88210900  1
  Fe  Fe3  1  0.73737900  0.88051200  0.88210900  1
  Fe  Fe4  1  0.76903000  0.26903000  0.11201200  1
  Fe  Fe5  1  0.11895700  0.61895700  0.11201200  1
  Fe  Fe6  1  0.61895700  0.76903000  0.11201200  1
  Fe  Fe7  1  0.26903000  0.11895700  0.11201200  1
  Fe  Fe8  1  0.71109700  0.56886700  0.99868500  1
  Fe  Fe9  1  0.29021700  0.43244800  0.99868500  1
  Fe  Fe10  1  0.79021700  0.06886700  0.99868500  1
  Fe  Fe11  1  0.21109700  0.93244800  0.99868500  1
  Fe  Fe12  1  0.56886700  0.29021700  0.99868500  1
  Fe  Fe13  1  0.43244800  0.71109700  0.99868500  1
  Fe  Fe14  1  0.06886700  0.21109700  0.99868500  1
  Fe  Fe15  1  0.93244800  0.79021700  0.99868500  1
  Fe  Fe16  1  0.00050700  0.50050700  0.99898500  1
  Fe  Fe17  1  0.50050700  0.00050700  0.99898500  1
  Fe  Fe18  1  0.47975400  0.97975400  0.81246000  1
  Fe  Fe19  1  0.70778600  0.20778600  0.81246000  1
  Fe  Fe20  1  0.20778600  0.47975400  0.81246000  1
  Fe  Fe21  1  0.97975400  0.70778600  0.81246000  1
loop_
_geom_bond_atom_site_label_1
_geom_bond_atom_site_label_2
_geom_bond_distance
_geom_bond_site_symmetry_2
Ga0 Nd7 3.336691 1_655
Ga0 Nd4 3.336695 1_565
Ga0 Nd5 3.336698 1_555
Ga0 Nd6 3.336701 1_555
Ga0 Nd3 3.382523 1_565
Ga0 Nd1 3.382530 1_655
Ga0 Nd0 3.382536 1_555
Ga0 Nd2 3.382543 1_555
Ga0 Nd9 3.386964 1_555
Ga0 Nd10 3.402873 1_555
Ga1 Nd7 3.336691 1_545
Ga1 Nd5 3.336695 1_455
Ga1 Nd4 3.336698 1_555
Ga1 Nd6 3.336701 1_555
Ga1 Nd2 3.382533 1_555
Ga1 Nd1 3.382533 1_555
Ga1 Nd0 3.382533 1_545
Ga1 Nd3 3.382533 1_455
Ga1 Nd8 3.386964 1_555
Ga1 Nd11 3.402873 1_555
Ga2 Ga3 2.778460 1_545
Ga2 Nd9 3.241123 1_545
Ga2 Nd8 3.241123 1_555
Ga2 Nd6 3.247457 1_545
Ga2 Nd7 3.247457 1_545
Ga2 Nd4 3.256922 1_555
Ga3 Nd8 3.241123 1_555
Ga3 Nd9 3.241123 1_455
Ga3 Nd6 3.247457 1_555
Ga3 Nd7 3.247457 1_555
Ga3 Nd5 3.256922 1_455
Ga4 Ga5 2.778460 1_655
Ga4 Nd9 3.241123 1_555
Ga4 Nd8 3.241123 1_555
Ga4 Nd5 3.247457 1_555
Ga4 Nd4 3.247457 1_555
Ga4 Nd6 3.256922 1_555
Ga5 Nd8 3.241123 1_555
Ga5 Nd9 3.241123 1_445
Ga5 Nd5 3.247457 1_455
Ga5 Nd4 3.247457 1_455
Ga5 Nd7 3.256922 1_545
Fe0 Fe16 2.466421 1_555
Fe0 Fe13 2.484961 1_555
Fe0 Fe11 2.484961 1_555
Fe0 Fe18 2.520805 1_555
Fe0 Fe21 2.566501 1_455
Fe0 Fe20 2.566501 1_555
Fe0 Fe15 2.588619 1_455
Fe0 Fe9 2.588619 1_555
Fe0 Fe5 2.697457 1_556
Fe0 Nd0 2.979063 1_555
Fe0 Nd10 3.179892 1_555
Fe0 Nd11 3.179892 1_565
Fe1 Fe16 2.466411 1_655
Fe1 Fe12 2.484962 1_555
Fe1 Fe10 2.484962 1_555
Fe1 Fe19 2.520805 1_555
Fe1 Fe21 2.566501 1_555
Fe1 Fe20 2.566501 1_655
Fe1 Fe8 2.588622 1_555
Fe1 Fe14 2.588622 1_655
Fe1 Fe4 2.697456 1_556
Fe1 Nd1 2.979063 1_655
Fe1 Nd10 3.179892 1_555
Fe1 Nd11 3.179892 1_655
Fe2 Fe9 2.484961 1_555
Fe2 Fe20 2.520805 1_555
Fe2 Fe7 2.697456 1_556
Fe2 Nd2 2.979063 1_555
Fe2 Nd11 3.179892 1_555
Fe2 Nd10 3.179892 1_555
Fe3 Fe8 2.484961 1_555
Fe3 Fe6 2.697456 1_556
Fe3 Nd3 2.979063 1_565
Fe3 Nd10 3.179892 1_555
Fe3 Nd11 3.179892 1_665
Fe4 Ga2 2.520690 1_555
Fe4 Fe8 2.556888 1_554
Fe4 Ga5 2.612364 1_655
Fe4 Ga4 2.612364 1_555
Fe4 Nd4 3.118976 1_555
Fe4 Nd8 3.214220 1_555
Fe4 Nd9 3.214220 1_545
Fe5 Ga3 2.520701 1_555
Fe5 Fe9 2.556882 1_554
Fe5 Ga5 2.612355 1_555
Fe5 Ga4 2.612355 1_455
Fe5 Nd5 3.118976 1_455
Fe5 Nd9 3.214223 1_455
Fe5 Nd8 3.214223 1_555
Fe6 Fe8 2.490887 1_554
Fe6 Ga4 2.520695 1_555
Fe6 Ga3 2.612357 1_555
Fe6 Ga2 2.612363 1_565
Fe6 Nd6 3.118976 1_555
Fe6 Nd8 3.214216 1_555
Fe6 Nd9 3.214226 1_555
Fe7 Fe9 2.490894 1_554
Fe7 Ga5 2.520695 1_555
Fe7 Ga3 2.612357 1_545
Fe7 Ga2 2.612363 1_555
Fe7 Nd7 3.118976 1_545
Fe7 Nd9 3.214216 1_445
Fe7 Nd8 3.214226 1_555
Fe8 Ga4 2.671658 1_556
Fe8 Nd10 3.043437 1_555
Fe8 Nd8 3.067497 1_556
Fe9 Ga5 2.671654 1_556
Fe9 Nd10 3.043442 1_555
Fe9 Nd8 3.067502 1_556
Fe10 Fe17 2.416915 1_555
Fe10 Fe4 2.490887 1_556
Fe10 Fe14 2.541742 1_655
Fe10 Fe15 2.541745 1_545
Fe10 Fe12 2.543253 1_555
Fe10 Fe6 2.556888 1_546
Fe10 Fe3 2.588619 1_545
Fe10 Fe19 2.635458 1_555
Fe10 Ga2 2.671654 1_556
Fe10 Nd11 3.043442 1_655
Fe10 Nd9 3.067502 1_546
Fe11 Fe17 2.416913 1_565
Fe11 Fe5 2.490894 1_556
Fe11 Fe14 2.541734 1_565
Fe11 Fe15 2.541738 1_455
Fe11 Fe13 2.543265 1_555
Fe11 Fe7 2.556881 1_566
Fe11 Fe2 2.588622 1_565
Fe11 Fe18 2.635463 1_555
Fe11 Ga3 2.671658 1_556
Fe11 Nd11 3.043437 1_565
Fe11 Nd9 3.067497 1_456
Fe12 Fe17 2.416915 1_555
Fe12 Fe4 2.490887 1_556
Fe12 Fe8 2.541742 1_555
Fe12 Fe9 2.541745 1_555
Fe12 Fe7 2.556888 1_556
Fe12 Fe2 2.588619 1_555
Fe12 Fe19 2.635458 1_555
Fe12 Ga2 2.671654 1_556
Fe12 Nd10 3.043442 1_555
Fe12 Nd8 3.067502 1_556
Fe13 Fe17 2.416913 1_565
Fe13 Fe5 2.490894 1_556
Fe13 Fe8 2.541734 1_555
Fe13 Fe9 2.541738 1_555
Fe13 Fe6 2.556881 1_556
Fe13 Fe3 2.588622 1_555
Fe13 Fe18 2.635463 1_555
Fe13 Ga3 2.671658 1_556
Fe13 Nd10 3.043437 1_555
Fe13 Nd8 3.067497 1_556
Fe14 Fe16 2.416915 1_555
Fe14 Fe2 2.484961 1_555
Fe14 Fe7 2.490887 1_556
Fe14 Fe9 2.543259 1_555
Fe14 Fe4 2.556888 1_456
Fe14 Fe20 2.635463 1_555
Fe14 Ga5 2.671658 1_556
Fe14 Nd11 3.043437 1_555
Fe14 Nd9 3.067497 1_446
Fe15 Fe16 2.416913 1_655
Fe15 Fe3 2.484961 1_555
Fe15 Fe6 2.490894 1_556
Fe15 Fe8 2.543259 1_555
Fe15 Fe5 2.556882 1_656
Fe15 Fe21 2.635458 1_555
Fe15 Ga4 2.671654 1_556
Fe15 Nd11 3.043442 1_665
Fe15 Nd9 3.067502 1_556
Fe16 Fe5 2.408221 1_556
Fe16 Fe4 2.408221 1_456
Fe16 Fe9 2.416913 1_555
Fe16 Fe8 2.416915 1_455
Fe16 Fe21 2.550417 1_455
Fe16 Fe20 2.550417 1_555
Fe16 Ga5 2.644072 1_556
Fe16 Ga4 2.644072 1_456
Fe17 Fe6 2.408221 1_546
Fe17 Fe7 2.408221 1_556
Fe17 Fe3 2.466416 1_545
Fe17 Fe2 2.466416 1_555
Fe17 Fe18 2.550414 1_545
Fe17 Fe19 2.550420 1_555
Fe17 Ga3 2.644069 1_546
Fe17 Ga2 2.644075 1_556
Fe18 Fe3 2.566501 1_555
Fe18 Fe2 2.566501 1_565
Fe18 Fe19 2.620028 1_565
Fe18 Nd3 3.176176 1_565
Fe18 Nd2 3.176176 1_565
Fe18 Nd10 3.281106 1_555
Fe18 Nd11 3.281106 1_565
Fe18 Nd0 3.310246 1_555
Fe19 Fe2 2.566501 1_555
Fe19 Fe3 2.566501 1_545
Fe19 Nd3 3.176181 1_555
Fe19 Nd2 3.176181 1_555
Fe19 Nd11 3.281106 1_655
Fe19 Nd10 3.281106 1_555
Fe19 Nd1 3.310237 1_655
Fe20 Fe21 2.620028 1_455
Fe20 Fe9 2.635458 1_555
Fe20 Nd0 3.176175 1_555
Fe20 Nd1 3.176182 1_555
Fe20 Nd11 3.281106 1_555
Fe20 Nd10 3.281106 1_555
Fe20 Nd2 3.310242 1_555
Fe21 Fe3 2.520805 1_555
Fe21 Fe8 2.635463 1_555
Fe21 Nd0 3.176175 1_655
Fe21 Nd1 3.176182 1_655
Fe21 Nd10 3.281106 1_555
Fe21 Nd11 3.281106 1_665
Fe21 Nd3 3.310242 1_565
