# generated using pymatgen
data_Li9Mn2Co5O16
_symmetry_space_group_name_H-M   'P 1'
_cell_length_a   5.89914500
_cell_length_b   6.49671974
_cell_length_c   7.77284178
_cell_angle_alpha   89.01776377
_cell_angle_beta   98.83242830
_cell_angle_gamma   102.95736401
_symmetry_Int_Tables_number   1
_chemical_formula_structural   Li9Mn2Co5O16
_chemical_formula_sum   'Li9 Mn2 Co5 O16'
_cell_volume   286.82081351
_cell_formula_units_Z   1
loop_
 _symmetry_equiv_pos_site_id
 _symmetry_equiv_pos_as_xyz
  1  'x, y, z'
loop_
 _atom_site_type_symbol
 _atom_site_label
 _atom_site_symmetry_multiplicity
 _atom_site_fract_x
 _atom_site_fract_y
 _atom_site_fract_z
 _atom_site_occupancy
  Li  Li0  1  0.12638600  0.11573100  0.37339300  1
  Li  Li1  1  0.62657000  0.62822000  0.87550300  1
  Li  Li2  1  0.35394800  0.87021000  0.60545100  1
  Li  Li3  1  0.89710400  0.38311800  0.13914800  1
  Li  Li4  1  0.61649200  0.11906300  0.36826800  1
  Li  Li5  1  0.13159900  0.62804700  0.88243700  1
  Li  Li6  1  0.87173700  0.87023900  0.62193200  1
  Li  Li7  1  0.37440700  0.38434100  0.13427700  1
  Li  Li8  1  0.24910100  0.74867000  0.24801500  1
  Mn  Mn0  1  0.00736600  0.00140100  0.00606600  1
  Mn  Mn1  1  0.24620500  0.24944700  0.74820200  1
  Co  Co0  1  0.49764300  0.50854600  0.49218500  1
  Co  Co1  1  0.74852300  0.24968000  0.75049200  1
  Co  Co2  1  0.50131600  0.99826400  0.00355400  1
  Co  Co3  1  0.00392400  0.50541200  0.48900900  1
  Co  Co4  1  0.75328600  0.74911400  0.24947200  1
  O  O0  1  0.83000200  0.06025500  0.17964400  1
  O  O1  1  0.30458800  0.54392300  0.68614700  1
  O  O2  1  0.04148500  0.80048600  0.43407300  1
  O  O3  1  0.54096400  0.28877700  0.91418300  1
  O  O4  1  0.30199700  0.05478000  0.16112200  1
  O  O5  1  0.80164400  0.53399800  0.67811100  1
  O  O6  1  0.56807500  0.79866500  0.44105100  1
  O  O7  1  0.07453200  0.29897000  0.93389900  1
  O  O8  1  0.42283400  0.19507900  0.57138000  1
  O  O9  1  0.93553900  0.70902600  0.05985900  1
  O  O10  1  0.70958800  0.96398700  0.83659300  1
  O  O11  1  0.18743600  0.43474400  0.32827700  1
  O  O12  1  0.94988100  0.19916500  0.58978100  1
  O  O13  1  0.45938500  0.71374800  0.06688600  1
  O  O14  1  0.17526700  0.95482600  0.81684800  1
  O  O15  1  0.69117400  0.44006900  0.31473900  1
loop_
_geom_bond_atom_site_label_1
_geom_bond_atom_site_label_2
_geom_bond_distance
_geom_bond_site_symmetry_2
Li0 O11 2.056023 1_555
Li0 O2 2.060890 1_545
Li0 O0 2.093381 1_455
Li0 O8 2.118667 1_555
Li0 O4 2.164163 1_555
Li0 O12 2.242564 1_455
Li1 O13 2.054019 1_556
Li1 O9 2.108482 1_556
Li1 O5 2.144237 1_555
Li1 O10 2.152564 1_555
Li1 O3 2.175566 1_555
Li1 O1 2.185554 1_555
Li2 O6 2.055213 1_555
Li2 O2 2.066279 1_555
Li2 O8 2.078242 1_565
Li2 O1 2.169203 1_555
Li2 O14 2.221692 1_555
Li2 O10 2.511446 1_555
Li3 O11 2.047700 1_655
Li3 O15 2.050243 1_555
Li3 O0 2.073347 1_555
Li3 O9 2.167307 1_555
Li3 O7 2.176898 1_654
Li3 O3 2.485622 1_554
Li4 O15 2.081099 1_555
Li4 O6 2.115905 1_545
Li4 O0 2.164266 1_555
Li4 O8 2.207961 1_555
Li4 O4 2.228699 1_555
Li4 O12 2.373850 1_555
Li5 O9 2.074578 1_456
Li5 O1 2.103517 1_555
Li5 O7 2.129158 1_555
Li5 O14 2.142739 1_555
Li5 O13 2.190371 1_556
Li5 O5 2.288006 1_455
Li6 O2 2.003869 1_655
Li6 O6 2.068165 1_555
Li6 O12 2.101612 1_565
Li6 O14 2.134878 1_655
Li6 O5 2.179728 1_555
Li6 O10 2.203660 1_555
Li7 O11 2.070573 1_555
Li7 O4 2.100495 1_555
Li7 O15 2.121227 1_555
Li7 O7 2.146238 1_554
Li7 O13 2.160247 1_555
Li7 O3 2.259137 1_554
Li8 O13 2.060568 1_555
Li8 O4 2.061284 1_565
Li8 O11 2.091509 1_555
Li8 O2 2.109588 1_555
Li8 O9 2.143673 1_455
Li8 O6 2.184746 1_555
Mn0 O9 1.904895 1_445
Mn0 O0 1.921421 1_455
Mn0 O4 1.922100 1_555
Mn0 O14 1.957740 1_544
Mn0 O7 1.973972 1_554
Mn0 O10 1.997245 1_444
Mn1 O8 1.928966 1_555
Mn1 O1 1.932673 1_555
Mn1 O12 1.943041 1_455
Mn1 O14 1.948804 1_545
Mn1 O7 1.955362 1_555
Mn1 O3 1.968864 1_555
Co0 O6 1.885999 1_555
Co0 O11 2.028126 1_555
Co0 O15 2.033727 1_555
Co0 O1 2.068652 1_555
Co0 O8 2.087690 1_555
Co0 O5 2.100306 1_555
Co1 O5 1.893558 1_555
Co1 O12 1.929680 1_555
Co1 O10 1.938833 1_545
Co1 O3 1.952318 1_555
Co1 O8 2.155296 1_555
Co1 O7 2.175085 1_655
Co2 O13 1.876521 1_555
Co2 O4 1.915364 1_565
Co2 O10 1.966100 1_554
Co2 O3 1.976475 1_564
Co2 O0 2.156131 1_565
Co2 O14 2.190586 1_554
Co3 O11 1.897756 1_555
Co3 O2 1.927920 1_555
Co3 O5 2.065492 1_455
Co3 O15 2.078455 1_455
Co3 O12 2.100592 1_455
Co3 O1 2.129790 1_555
Co4 O9 2.005309 1_555
Co4 O2 2.018294 1_655
Co4 O15 2.028557 1_555
Co4 O13 2.037108 1_555
Co4 O6 2.046615 1_555
Co4 O0 2.052563 1_565
