# generated using pymatgen
data_GaBiSe
_symmetry_space_group_name_H-M   'P 1'
_cell_length_a   8.80405632
_cell_length_b   8.80405632
_cell_length_c   8.80405632
_cell_angle_alpha   107.74265687
_cell_angle_beta   107.74265687
_cell_angle_gamma   112.98658088
_symmetry_Int_Tables_number   1
_chemical_formula_structural   GaBiSe
_chemical_formula_sum   'Ga4 Bi4 Se4'
_cell_volume   523.83028676
_cell_formula_units_Z   4
loop_
 _symmetry_equiv_pos_site_id
 _symmetry_equiv_pos_as_xyz
  1  'x, y, z'
loop_
 _atom_site_type_symbol
 _atom_site_label
 _atom_site_symmetry_multiplicity
 _atom_site_fract_x
 _atom_site_fract_y
 _atom_site_fract_z
 _atom_site_occupancy
  Ga  Ga0  1  0.00000000  0.50000000  0.00000000  1
  Ga  Ga1  1  0.50000000  0.00000000  0.00000000  1
  Ga  Ga2  1  0.00000000  0.00000000  0.50000000  1
  Ga  Ga3  1  0.50000000  0.50000000  0.50000000  1
  Bi  Bi0  1  0.14249400  0.35750600  0.50000000  1
  Bi  Bi1  1  0.85750600  0.64249400  0.50000000  1
  Bi  Bi2  1  0.64249400  0.14249400  0.78498800  1
  Bi  Bi3  1  0.35750600  0.85750600  0.21501200  1
  Se  Se0  1  0.14009900  0.64009900  0.78019900  1
  Se  Se1  1  0.85990100  0.35990100  0.21980100  1
  Se  Se2  1  0.35990100  0.14009900  0.50000000  1
  Se  Se3  1  0.64009900  0.85990100  0.50000000  1
loop_
_geom_bond_atom_site_label_1
_geom_bond_atom_site_label_2
_geom_bond_distance
_geom_bond_site_symmetry_2
Ga0 Se1 2.916986 1_455
Ga0 Se0 2.916986 1_554
Ga1 Se1 2.916994 1_555
Ga1 Se0 2.916994 1_544
Ga2 Se3 2.916994 1_445
Ga2 Se2 2.916994 1_555
Ga3 Se3 2.916994 1_555
Ga3 Se2 2.916994 1_555
Bi0 Ga3 2.897691 1_555
Bi0 Ga2 2.897691 1_555
Bi0 Se1 2.933922 1_455
Bi0 Se0 2.933922 1_555
Bi0 Se2 3.191973 1_555
Bi1 Ga3 2.897691 1_555
Bi1 Ga2 2.897691 1_665
Bi1 Se1 2.933922 1_555
Bi1 Se0 2.933922 1_655
Bi1 Se3 3.191973 1_555
Bi2 Ga1 2.897691 1_556
Bi2 Ga0 2.897691 1_656
Bi2 Se3 2.933916 1_545
Bi2 Se2 2.933916 1_555
Bi2 Se1 3.191966 1_556
Bi3 Ga0 2.897691 1_555
Bi3 Ga1 2.897691 1_565
Bi3 Se3 2.933916 1_555
Bi3 Se2 2.933916 1_565
Bi3 Se0 3.191966 1_554
