# generated using pymatgen
data_CaAl2O12
_symmetry_space_group_name_H-M   'P 1'
_cell_length_a   14.15231944
_cell_length_b   14.15231944
_cell_length_c   9.22677300
_cell_angle_alpha   90.00000000
_cell_angle_beta   90.00000000
_cell_angle_gamma   119.99999740
_symmetry_Int_Tables_number   1
_chemical_formula_structural   CaAl2O12
_chemical_formula_sum   'Ca6 Al12 O72'
_cell_volume   1600.42646675
_cell_formula_units_Z   6
loop_
 _symmetry_equiv_pos_site_id
 _symmetry_equiv_pos_as_xyz
  1  'x, y, z'
loop_
 _atom_site_type_symbol
 _atom_site_label
 _atom_site_symmetry_multiplicity
 _atom_site_fract_x
 _atom_site_fract_y
 _atom_site_fract_z
 _atom_site_occupancy
  Ca  Ca0  1  0.23544700  0.32325600  0.25000000  1
  Ca  Ca1  1  0.76455300  0.67674400  0.75000000  1
  Ca  Ca2  1  0.67674400  0.91219200  0.25000000  1
  Ca  Ca3  1  0.32325600  0.08780800  0.75000000  1
  Ca  Ca4  1  0.08780800  0.76455300  0.25000000  1
  Ca  Ca5  1  0.91219200  0.23544700  0.75000000  1
  Al  Al0  1  0.04962400  0.43328000  0.05040700  1
  Al  Al1  1  0.95037600  0.56672000  0.94959300  1
  Al  Al2  1  0.56672000  0.61634300  0.05040700  1
  Al  Al3  1  0.95037600  0.56672000  0.55040700  1
  Al  Al4  1  0.43328000  0.38365700  0.94959300  1
  Al  Al5  1  0.04962400  0.43328000  0.44959300  1
  Al  Al6  1  0.38365700  0.95037600  0.05040700  1
  Al  Al7  1  0.43328000  0.38365700  0.55040700  1
  Al  Al8  1  0.61634300  0.04962400  0.94959300  1
  Al  Al9  1  0.56672000  0.61634300  0.44959300  1
  Al  Al10  1  0.61634300  0.04962400  0.55040700  1
  Al  Al11  1  0.38365700  0.95037600  0.44959300  1
  O  O0  1  0.95904400  0.52486800  0.25000000  1
  O  O1  1  0.04095600  0.47513200  0.75000000  1
  O  O2  1  0.47513200  0.43417600  0.25000000  1
  O  O3  1  0.52486800  0.56582400  0.75000000  1
  O  O4  1  0.56582400  0.04095600  0.25000000  1
  O  O5  1  0.43417600  0.95904400  0.75000000  1
  O  O6  1  0.51933900  0.06130300  0.11927100  1
  O  O7  1  0.48066100  0.93869700  0.88072900  1
  O  O8  1  0.93869700  0.45803500  0.11927100  1
  O  O9  1  0.48066100  0.93869700  0.61927100  1
  O  O10  1  0.06130300  0.54196500  0.88072900  1
  O  O11  1  0.51933900  0.06130300  0.38072900  1
  O  O12  1  0.54196500  0.48066100  0.11927100  1
  O  O13  1  0.06130300  0.54196500  0.61927100  1
  O  O14  1  0.45803500  0.51933900  0.88072900  1
  O  O15  1  0.93869700  0.45803500  0.38072900  1
  O  O16  1  0.45803500  0.51933900  0.61927100  1
  O  O17  1  0.54196500  0.48066100  0.38072900  1
  O  O18  1  0.32460300  0.32610600  0.06336800  1
  O  O19  1  0.67539700  0.67389400  0.93663200  1
  O  O20  1  0.67389400  0.99849600  0.06336800  1
  O  O21  1  0.67539700  0.67389400  0.56336800  1
  O  O22  1  0.32610600  0.00150400  0.93663200  1
  O  O23  1  0.32460300  0.32610600  0.43663200  1
  O  O24  1  0.00150400  0.67539700  0.06336800  1
  O  O25  1  0.32610600  0.00150400  0.56336800  1
  O  O26  1  0.99849600  0.32460300  0.93663200  1
  O  O27  1  0.67389400  0.99849600  0.43663200  1
  O  O28  1  0.99849600  0.32460300  0.56336800  1
  O  O29  1  0.00150400  0.67539700  0.43663200  1
  O  O30  1  0.08577300  0.34967800  0.17340400  1
  O  O31  1  0.91422700  0.65032200  0.82659600  1
  O  O32  1  0.65032200  0.73609500  0.17340400  1
  O  O33  1  0.91422700  0.65032200  0.67340400  1
  O  O34  1  0.34967800  0.26390500  0.82659600  1
  O  O35  1  0.08577300  0.34967800  0.32659600  1
  O  O36  1  0.26390500  0.91422700  0.17340400  1
  O  O37  1  0.34967800  0.26390500  0.67340400  1
  O  O38  1  0.73609500  0.08577300  0.82659600  1
  O  O39  1  0.65032200  0.73609500  0.32659600  1
  O  O40  1  0.73609500  0.08577300  0.67340400  1
  O  O41  1  0.26390500  0.91422700  0.32659600  1
  O  O42  1  0.17036100  0.56510200  0.12085400  1
  O  O43  1  0.82963900  0.43489800  0.87914600  1
  O  O44  1  0.43489800  0.60525900  0.12085400  1
  O  O45  1  0.82963900  0.43489800  0.62085400  1
  O  O46  1  0.56510200  0.39474100  0.87914600  1
  O  O47  1  0.17036100  0.56510200  0.37914600  1
  O  O48  1  0.39474100  0.82963900  0.12085400  1
  O  O49  1  0.56510200  0.39474100  0.62085400  1
  O  O50  1  0.60525900  0.17036100  0.87914600  1
  O  O51  1  0.43489800  0.60525900  0.37914600  1
  O  O52  1  0.60525900  0.17036100  0.62085400  1
  O  O53  1  0.39474100  0.82963900  0.37914600  1
  O  O54  1  0.16888700  0.61517000  0.25000000  1
  O  O55  1  0.83111300  0.38483000  0.75000000  1
  O  O56  1  0.38483000  0.55371700  0.25000000  1
  O  O57  1  0.61517000  0.44628300  0.75000000  1
  O  O58  1  0.44628300  0.83111300  0.25000000  1
  O  O59  1  0.55371700  0.16888700  0.75000000  1
  O  O60  1  0.07890400  0.10304100  0.03236800  1
  O  O61  1  0.92109600  0.89695900  0.96763200  1
  O  O62  1  0.89695900  0.97586300  0.03236800  1
  O  O63  1  0.92109600  0.89695900  0.53236800  1
  O  O64  1  0.10304100  0.02413700  0.96763200  1
  O  O65  1  0.07890400  0.10304100  0.46763200  1
  O  O66  1  0.02413700  0.92109600  0.03236800  1
  O  O67  1  0.10304100  0.02413700  0.53236800  1
  O  O68  1  0.97586300  0.07890400  0.96763200  1
  O  O69  1  0.89695900  0.97586300  0.46763200  1
  O  O70  1  0.97586300  0.07890400  0.53236800  1
  O  O71  1  0.02413700  0.92109600  0.46763200  1
loop_
_geom_bond_atom_site_label_1
_geom_bond_atom_site_label_2
_geom_bond_distance
_geom_bond_site_symmetry_2
Ca0 O23 2.123230 1_555
Ca0 O18 2.123230 1_555
Ca0 O30 2.432754 1_555
Ca0 O35 2.432754 1_555
Ca0 O56 2.865647 1_555
Ca0 O2 2.940356 1_555
Ca1 O21 2.123230 1_555
Ca1 O19 2.123230 1_555
Ca1 O33 2.432754 1_555
Ca1 O31 2.432754 1_555
Ca1 O57 2.865647 1_555
Ca1 O3 2.940356 1_555
Ca2 O27 2.123213 1_555
Ca2 O20 2.123213 1_555
Ca2 O39 2.432767 1_555
Ca2 O32 2.432767 1_555
Ca2 O58 2.865645 1_555
Ca2 O4 2.940344 1_565
Ca3 O22 2.123213 1_555
Ca3 O25 2.123213 1_555
Ca3 O37 2.432767 1_555
Ca3 O34 2.432767 1_555
Ca3 O59 2.865645 1_555
Ca3 O5 2.940344 1_545
Ca4 O24 2.123222 1_555
Ca4 O29 2.123222 1_555
Ca4 O36 2.432762 1_555
Ca4 O41 2.432762 1_555
Ca4 O54 2.865658 1_555
Ca4 O0 2.940356 1_455
Ca5 O26 2.123222 1_555
Ca5 O28 2.123222 1_555
Ca5 O38 2.432762 1_555
Ca5 O40 2.432762 1_555
Ca5 O55 2.865658 1_555
Ca5 O1 2.940356 1_655
Al0 O26 1.696541 1_454
Al0 O8 1.881743 1_455
Al0 O30 1.885422 1_555
Al0 O42 1.906529 1_555
Al0 O10 2.142433 1_554
Al1 O24 1.696541 1_656
Al1 O10 1.881743 1_655
Al1 O31 1.885422 1_555
Al1 O43 1.906529 1_555
Al1 O8 2.142433 1_556
Al2 O19 1.696541 1_554
Al2 O12 1.881743 1_555
Al2 O32 1.885430 1_555
Al2 O44 1.906535 1_555
Al2 O14 2.142425 1_554
Al3 O29 1.696541 1_655
Al3 O13 1.881743 1_655
Al3 O33 1.885422 1_555
Al3 O45 1.906529 1_555
Al3 O15 2.142433 1_555
Al4 O18 1.696541 1_556
Al4 O14 1.881743 1_555
Al4 O34 1.885430 1_555
Al4 O46 1.906535 1_555
Al4 O12 2.142425 1_556
Al5 O28 1.696541 1_455
Al5 O15 1.881743 1_455
Al5 O35 1.885422 1_555
Al5 O47 1.906529 1_555
Al5 O13 2.142433 1_555
Al6 O22 1.696560 1_564
Al6 O6 1.881744 1_565
Al6 O36 1.885433 1_555
Al6 O48 1.906522 1_555
Al6 O7 2.142414 1_554
Al7 O23 1.696541 1_555
Al7 O16 1.881743 1_555
Al7 O37 1.885430 1_555
Al7 O49 1.906535 1_555
Al7 O17 2.142425 1_555
Al8 O20 1.696560 1_546
Al8 O7 1.881744 1_545
Al8 O38 1.885433 1_555
Al8 O50 1.906522 1_555
Al8 O6 2.142414 1_556
Al9 O21 1.696541 1_555
Al9 O17 1.881743 1_555
Al9 O39 1.885430 1_555
Al9 O51 1.906535 1_555
Al9 O16 2.142425 1_555
Al10 O27 1.696560 1_545
Al10 O9 1.881744 1_545
Al10 O40 1.885433 1_555
Al10 O52 1.906522 1_555
Al10 O11 2.142414 1_555
Al11 O25 1.696560 1_565
Al11 O11 1.881744 1_565
Al11 O41 1.885433 1_555
Al11 O53 1.906522 1_555
Al11 O9 2.142414 1_555
O0 O8 1.469731 1_555
O0 O15 1.469731 1_555
O1 O13 1.469731 1_555
O1 O10 1.469731 1_555
O4 O6 1.469723 1_555
O5 O9 1.469723 1_555
O5 O7 1.469723 1_555
O11 O4 1.469723 1_555
O12 O2 1.469729 1_555
O14 O3 1.469729 1_555
O16 O3 1.469729 1_555
O17 O2 1.469729 1_555
O30 O35 1.413468 1_555
O31 O33 1.413468 1_555
O32 O39 1.413468 1_555
O34 O37 1.413468 1_555
O36 O41 1.413468 1_555
O38 O40 1.413468 1_555
O42 O54 1.391838 1_555
O43 O55 1.391838 1_555
O44 O56 1.391838 1_555
O45 O55 1.391838 1_555
O46 O57 1.391838 1_555
O47 O54 1.391838 1_555
O48 O58 1.391838 1_555
O49 O57 1.391838 1_555
O50 O59 1.391838 1_555
O51 O56 1.391838 1_555
O52 O59 1.391838 1_555
O53 O58 1.391838 1_555
O60 O64 1.449783 1_554
O60 O68 1.449783 1_454
O61 O62 1.449783 1_556
O61 O66 1.449783 1_656
O62 O68 1.449783 1_564
O63 O69 1.449783 1_555
O63 O71 1.449783 1_655
O64 O66 1.449783 1_546
O65 O67 1.449783 1_555
O65 O70 1.449783 1_455
O67 O71 1.449783 1_545
O69 O70 1.449783 1_565
