# generated using pymatgen
data_Mg2Mn3AlS8
_symmetry_space_group_name_H-M   'P 1'
_cell_length_a   7.26267359
_cell_length_b   7.26231183
_cell_length_c   7.26287138
_cell_angle_alpha   60.26905681
_cell_angle_beta   60.26852324
_cell_angle_gamma   60.27086084
_symmetry_Int_Tables_number   1
_chemical_formula_structural   Mg2Mn3AlS8
_chemical_formula_sum   'Mg2 Mn3 Al1 S8'
_cell_volume   272.52455041
_cell_formula_units_Z   1
loop_
 _symmetry_equiv_pos_site_id
 _symmetry_equiv_pos_as_xyz
  1  'x, y, z'
loop_
 _atom_site_type_symbol
 _atom_site_label
 _atom_site_symmetry_multiplicity
 _atom_site_fract_x
 _atom_site_fract_y
 _atom_site_fract_z
 _atom_site_occupancy
  Mg  Mg0  1  0.87506300  0.87507700  0.87508400  1
  Mg  Mg1  1  0.12494700  0.12492900  0.12492200  1
  Mn  Mn0  1  0.49995200  0.49999000  0.99998600  1
  Mn  Mn1  1  0.00005300  0.50002400  0.49995500  1
  Mn  Mn2  1  0.49999200  0.99997000  0.50007400  1
  Al  Al0  1  0.50000500  0.49999900  0.49998700  1
  S  S0  1  0.73851000  0.73848400  0.73846500  1
  S  S1  1  0.26397000  0.26403200  0.71354200  1
  S  S2  1  0.26397500  0.71353800  0.26404100  1
  S  S3  1  0.71354900  0.26400700  0.26400500  1
  S  S4  1  0.73602100  0.28647000  0.73594900  1
  S  S5  1  0.28644500  0.73599300  0.73598700  1
  S  S6  1  0.26148700  0.26151100  0.26154700  1
  S  S7  1  0.73603400  0.73597200  0.28645700  1
loop_
_geom_bond_atom_site_label_1
_geom_bond_atom_site_label_2
_geom_bond_distance
_geom_bond_site_symmetry_2
Mg0 S0 2.424907 1_555
Mg0 S4 2.447938 1_565
Mg0 S7 2.447944 1_556
Mg0 S5 2.447981 1_655
Mg1 S6 2.424800 1_555
Mg1 S2 2.447924 1_545
Mg1 S1 2.447985 1_554
Mg1 S3 2.448073 1_455
Mn0 S6 2.460906 1_556
Mn0 S0 2.461410 1_555
Mn0 S5 2.464145 1_555
Mn0 S4 2.464340 1_555
Mn0 S2 2.464576 1_556
Mn0 S3 2.464692 1_556
Mn1 S6 2.460824 1_555
Mn1 S0 2.461121 1_455
Mn1 S2 2.463590 1_555
Mn1 S1 2.464087 1_555
Mn1 S7 2.464207 1_455
Mn1 S4 2.464378 1_455
Mn2 S0 2.460865 1_555
Mn2 S6 2.461493 1_565
Mn2 S5 2.464031 1_555
Mn2 S1 2.464202 1_565
Mn2 S3 2.464401 1_565
Mn2 S7 2.464581 1_555
Al0 S3 2.433267 1_555
Al0 S1 2.433312 1_555
Al0 S7 2.433323 1_555
Al0 S2 2.433366 1_555
Al0 S5 2.433367 1_555
Al0 S4 2.433381 1_555
