# generated using pymatgen
data_BaLa2Fe2O5F4
_symmetry_space_group_name_H-M   'P 1'
_cell_length_a   11.55354664
_cell_length_b   11.55354664
_cell_length_c   11.55354664
_cell_angle_alpha   159.94988646
_cell_angle_beta   159.92609576
_cell_angle_gamma   28.52080490
_symmetry_Int_Tables_number   1
_chemical_formula_structural   BaLa2Fe2O5F4
_chemical_formula_sum   'Ba1 La2 Fe2 O5 F4'
_cell_volume   181.39064645
_cell_formula_units_Z   1
loop_
 _symmetry_equiv_pos_site_id
 _symmetry_equiv_pos_as_xyz
  1  'x, y, z'
loop_
 _atom_site_type_symbol
 _atom_site_label
 _atom_site_symmetry_multiplicity
 _atom_site_fract_x
 _atom_site_fract_y
 _atom_site_fract_z
 _atom_site_occupancy
  Ba  Ba0  1  0.50817900  0.50000000  0.00817900  1
  La  La0  1  0.67204700  0.67669900  0.99534800  1
  La  La1  1  0.31865000  0.32330100  0.99534800  1
  Fe  Fe0  1  0.91979000  0.91188800  0.00790100  1
  Fe  Fe1  1  0.09601300  0.08811200  0.00790100  1
  O  O0  1  0.90797400  0.39874400  0.50923000  1
  O  O1  1  0.41137600  0.89929100  0.51208500  1
  O  O2  1  0.11048500  0.60125600  0.50923000  1
  O  O3  1  0.61279400  0.10070900  0.51208500  1
  O  O4  1  0.01061300  0.00000000  0.01061300  1
  F  F0  1  0.26899200  0.74995700  0.51903500  1
  F  F1  1  0.76907800  0.25004300  0.51903500  1
  F  F2  1  0.20912300  0.17911800  0.03000400  1
  F  F3  1  0.85088600  0.82088200  0.03000400  1
loop_
_geom_bond_atom_site_label_1
_geom_bond_atom_site_label_2
_geom_bond_distance
_geom_bond_site_symmetry_2
Ba0 O4 2.839050 1_565
Ba0 O4 2.839050 1_554
Ba0 O4 2.852920 1_666
Ba0 O4 2.852920 1_655
Ba0 O3 3.021928 1_554
Ba0 O3 3.021928 1_565
Ba0 O1 3.021928 1_544
Ba0 O1 3.021928 1_555
Ba0 O2 3.029793 1_554
Ba0 O0 3.029800 1_454
Ba0 O2 3.035411 1_655
Ba0 O0 3.035421 1_555
La0 O2 2.585954 1_555
La0 O3 2.635472 1_566
La0 O3 2.635472 1_555
La0 O2 2.671596 1_656
La1 O0 2.585940 1_455
La1 O1 2.635463 1_545
La1 O1 2.635466 1_556
La1 O0 2.671582 1_556
Fe0 O4 1.973294 1_665
Fe0 O1 2.016574 1_554
Fe0 O0 2.032662 1_554
Fe0 O0 2.032666 1_565
Fe0 O1 2.049944 1_655
Fe1 O4 1.973305 1_555
Fe1 O3 2.016571 1_454
Fe1 O2 2.032658 1_544
Fe1 O2 2.032662 1_555
Fe1 O3 2.049944 1_555
F0 La0 2.524106 1_555
F0 La1 2.598484 1_565
F0 La1 2.598487 1_554
F0 La0 2.671972 1_454
F1 La1 2.524115 1_655
F1 La0 2.598478 1_544
F1 La0 2.598478 1_555
F1 La1 2.671977 1_554
F2 Fe1 2.040040 1_555
F2 La0 2.749532 1_544
F2 La0 2.749535 1_555
F2 La0 2.946872 1_443
F2 La0 2.946875 1_454
F3 Fe0 2.040040 1_555
F3 La1 2.749534 1_665
F3 La1 2.749537 1_654
F3 La1 2.946869 1_564
F3 La1 2.946872 1_553
