# generated using pymatgen
data_Sm3B13O29
_symmetry_space_group_name_H-M   'P 1'
_cell_length_a   6.45286919
_cell_length_b   10.71388749
_cell_length_c   30.89493873
_cell_angle_alpha   100.11743078
_cell_angle_beta   90.00000000
_cell_angle_gamma   90.00000000
_symmetry_Int_Tables_number   1
_chemical_formula_structural   Sm3B13O29
_chemical_formula_sum   'Sm12 B52 O116'
_cell_volume   2102.71711004
_cell_formula_units_Z   4
loop_
 _symmetry_equiv_pos_site_id
 _symmetry_equiv_pos_as_xyz
  1  'x, y, z'
loop_
 _atom_site_type_symbol
 _atom_site_label
 _atom_site_symmetry_multiplicity
 _atom_site_fract_x
 _atom_site_fract_y
 _atom_site_fract_z
 _atom_site_occupancy
  Sm  Sm0  1  0.72913159  0.44409190  0.32037369  1
  Sm  Sm1  1  0.72913159  0.55590810  0.17962631  1
  Sm  Sm2  1  0.27086841  0.55590810  0.67962631  1
  Sm  Sm3  1  0.27086841  0.44409190  0.82037369  1
  Sm  Sm4  1  0.20655540  0.93626861  0.32710315  1
  Sm  Sm5  1  0.20655540  0.06373139  0.17289685  1
  Sm  Sm6  1  0.79344460  0.06373139  0.67289685  1
  Sm  Sm7  1  0.79344460  0.93626861  0.82710315  1
  Sm  Sm8  1  0.59509196  0.59491301  0.45268925  1
  Sm  Sm9  1  0.59509196  0.40508699  0.04731075  1
  Sm  Sm10  1  0.40490804  0.40508699  0.54731075  1
  Sm  Sm11  1  0.40490804  0.59491301  0.95268925  1
  B  B0  1  0.20913187  0.86796401  0.57184085  1
  B  B1  1  0.20913187  0.13203599  0.92815915  1
  B  B2  1  0.79086813  0.13203599  0.42815915  1
  B  B3  1  0.79086813  0.86796401  0.07184085  1
  B  B4  1  0.22841228  0.60910361  0.35012860  1
  B  B5  1  0.22841228  0.39089639  0.14987140  1
  B  B6  1  0.77158772  0.39089639  0.64987140  1
  B  B7  1  0.77158772  0.60910361  0.85012860  1
  B  B8  1  0.12690847  0.64973414  0.42901613  1
  B  B9  1  0.12690847  0.35026586  0.07098387  1
  B  B10  1  0.87309153  0.35026586  0.57098387  1
  B  B11  1  0.87309153  0.64973414  0.92901613  1
  B  B12  1  0.37979567  0.83963318  0.20991713  1
  B  B13  1  0.37979567  0.16036682  0.29008287  1
  B  B14  1  0.62020433  0.16036682  0.79008287  1
  B  B15  1  0.62020433  0.83963318  0.70991713  1
  B  B16  1  0.27430449  0.90249290  0.68347784  1
  B  B17  1  0.27430449  0.09750710  0.81652216  1
  B  B18  1  0.72569551  0.09750710  0.31652216  1
  B  B19  1  0.72569551  0.90249290  0.18347784  1
  B  B20  1  0.25665956  0.67167525  0.04386391  1
  B  B21  1  0.25665956  0.32832475  0.45613609  1
  B  B22  1  0.74334044  0.32832475  0.95613609  1
  B  B23  1  0.74334044  0.67167525  0.54386391  1
  B  B24  1  0.10424071  0.69212060  0.51297759  1
  B  B25  1  0.10424071  0.30787940  0.98702241  1
  B  B26  1  0.89575929  0.30787940  0.48702241  1
  B  B27  1  0.89575929  0.69212060  0.01297759  1
  B  B28  1  0.26853663  0.61536038  0.19228437  1
  B  B29  1  0.26853663  0.38463962  0.30771563  1
  B  B30  1  0.73146337  0.38463962  0.80771563  1
  B  B31  1  0.73146337  0.61536038  0.69228437  1
  B  B32  1  0.11021516  0.70538081  0.87189991  1
  B  B33  1  0.11021516  0.29461919  0.62810009  1
  B  B34  1  0.88978484  0.29461919  0.12810009  1
  B  B35  1  0.88978484  0.70538081  0.37189991  1
  B  B36  1  0.24652191  0.65431919  0.58439122  1
  B  B37  1  0.24652191  0.34568081  0.91560878  1
  B  B38  1  0.75347809  0.34568081  0.41560878  1
  B  B39  1  0.75347809  0.65431919  0.08439122  1
  B  B40  1  0.47702720  0.75958112  0.85468094  1
  B  B41  1  0.47702720  0.24041888  0.64531906  1
  B  B42  1  0.52297280  0.24041888  0.14531906  1
  B  B43  1  0.52297280  0.75958112  0.35468094  1
  B  B44  1  0.02425690  0.79315119  0.21557414  1
  B  B45  1  0.02425690  0.20684881  0.28442586  1
  B  B46  1  0.97574310  0.20684881  0.78442586  1
  B  B47  1  0.97574310  0.79315119  0.71557414  1
  B  B48  1  0.22285491  0.93543754  0.86839821  1
  B  B49  1  0.22285491  0.06456246  0.63160179  1
  B  B50  1  0.77714509  0.06456246  0.13160179  1
  B  B51  1  0.77714509  0.93543754  0.36839821  1
  O  O0  1  0.42873402  0.70157849  0.19932922  1
  O  O1  1  0.42873402  0.29842151  0.30067078  1
  O  O2  1  0.57126598  0.29842151  0.80067078  1
  O  O3  1  0.57126598  0.70157849  0.69932922  1
  O  O4  1  0.06775083  0.83224334  0.86359538  1
  O  O5  1  0.06775083  0.16775666  0.63640462  1
  O  O6  1  0.93224917  0.16775666  0.13640462  1
  O  O7  1  0.93224917  0.83224334  0.36359538  1
  O  O8  1  0.15626089  0.98646950  0.66498001  1
  O  O9  1  0.15626089  0.01353050  0.83501999  1
  O  O10  1  0.84373911  0.01353050  0.33501999  1
  O  O11  1  0.84373911  0.98646950  0.16498001  1
  O  O12  1  0.06961990  0.68766256  0.91887746  1
  O  O13  1  0.06961990  0.31233744  0.58112254  1
  O  O14  1  0.93038010  0.31233744  0.08112254  1
  O  O15  1  0.93038010  0.68766256  0.41887746  1
  O  O16  1  0.33466548  0.67084137  0.86359316  1
  O  O17  1  0.33466548  0.32915863  0.63640684  1
  O  O18  1  0.66533452  0.32915863  0.13640684  1
  O  O19  1  0.66533452  0.67084137  0.36359316  1
  O  O20  1  0.38186699  0.87478388  0.25827974  1
  O  O21  1  0.38186699  0.12521612  0.24172026  1
  O  O22  1  0.61813301  0.12521612  0.74172026  1
  O  O23  1  0.61813301  0.87478388  0.75827974  1
  O  O24  1  0.29944126  0.56193660  0.75994146  1
  O  O25  1  0.29944126  0.43806340  0.74005854  1
  O  O26  1  0.70055874  0.43806340  0.24005854  1
  O  O27  1  0.70055874  0.56193660  0.25994146  1
  O  O28  1  0.32402264  0.72820506  0.34114674  1
  O  O29  1  0.32402264  0.27179494  0.15885326  1
  O  O30  1  0.67597736  0.27179494  0.65885326  1
  O  O31  1  0.67597736  0.72820506  0.84114674  1
  O  O32  1  0.31005869  0.56619689  0.60849884  1
  O  O33  1  0.31005869  0.43380311  0.89150116  1
  O  O34  1  0.68994131  0.43380311  0.39150116  1
  O  O35  1  0.68994131  0.56619689  0.10849884  1
  O  O36  1  0.48575302  0.91507021  0.68674136  1
  O  O37  1  0.48575302  0.08492979  0.81325864  1
  O  O38  1  0.51424698  0.08492979  0.31325864  1
  O  O39  1  0.51424698  0.91507021  0.18674136  1
  O  O40  1  0.16892013  0.60480642  0.54312972  1
  O  O41  1  0.16892013  0.39519358  0.95687028  1
  O  O42  1  0.83107987  0.39519358  0.45687028  1
  O  O43  1  0.83107987  0.60480642  0.04312972  1
  O  O44  1  0.33877543  0.49563822  0.17707782  1
  O  O45  1  0.33877543  0.50436178  0.32292218  1
  O  O46  1  0.66122457  0.50436178  0.82292218  1
  O  O47  1  0.66122457  0.49563822  0.67707782  1
  O  O48  1  0.21294981  0.99435951  0.58714066  1
  O  O49  1  0.21294981  0.00564049  0.91285934  1
  O  O50  1  0.78705019  0.00564049  0.41285934  1
  O  O51  1  0.78705019  0.99435951  0.08714066  1
  O  O52  1  0.43513547  0.88562450  0.85843505  1
  O  O53  1  0.43513547  0.11437550  0.64156495  1
  O  O54  1  0.56486453  0.11437550  0.14156495  1
  O  O55  1  0.56486453  0.88562450  0.35843505  1
  O  O56  1  0.06543587  0.64971243  0.20074931  1
  O  O57  1  0.06543587  0.35028757  0.29925069  1
  O  O58  1  0.93456413  0.35028757  0.79925069  1
  O  O59  1  0.93456413  0.64971243  0.70074931  1
  O  O60  1  0.25990757  0.78241393  0.59985192  1
  O  O61  1  0.25990757  0.21758607  0.90014808  1
  O  O62  1  0.74009243  0.21758607  0.40014808  1
  O  O63  1  0.74009243  0.78241393  0.09985192  1
  O  O64  1  0.22654071  0.93062997  0.08707130  1
  O  O65  1  0.22654071  0.06937003  0.41292870  1
  O  O66  1  0.77345929  0.06937003  0.91292870  1
  O  O67  1  0.77345929  0.93062997  0.58707130  1
  O  O68  1  0.18799477  0.80507457  0.70185866  1
  O  O69  1  0.18799477  0.19492543  0.79814134  1
  O  O70  1  0.81200523  0.19492543  0.29814134  1
  O  O71  1  0.81200523  0.80507457  0.20185866  1
  O  O72  1  0.00583449  0.60695165  0.34234601  1
  O  O73  1  0.00583449  0.39304835  0.15765399  1
  O  O74  1  0.99416551  0.39304835  0.65765399  1
  O  O75  1  0.99416551  0.60695165  0.84234601  1
  O  O76  1  0.12541421  0.67844313  0.00822595  1
  O  O77  1  0.12541421  0.32155687  0.49177405  1
  O  O78  1  0.87458579  0.32155687  0.99177405  1
  O  O79  1  0.87458579  0.67844313  0.50822595  1
  O  O80  1  0.20312368  0.64888382  0.47038936  1
  O  O81  1  0.20312368  0.35111618  0.02961064  1
  O  O82  1  0.79687632  0.35111618  0.52961064  1
  O  O83  1  0.79687632  0.64888382  0.97038936  1
  O  O84  1  0.27350240  0.60578047  0.39747932  1
  O  O85  1  0.27350240  0.39421953  0.10252068  1
  O  O86  1  0.72649760  0.39421953  0.60252068  1
  O  O87  1  0.72649760  0.60578047  0.89747932  1
  O  O88  1  0.94630742  0.82710944  0.76314288  1
  O  O89  1  0.94630742  0.17289056  0.73685712  1
  O  O90  1  0.05369258  0.17289056  0.23685712  1
  O  O91  1  0.05369258  0.82710944  0.26314288  1
  O  O92  1  0.15949232  0.82271406  0.52900297  1
  O  O93  1  0.15949232  0.17728594  0.97099703  1
  O  O94  1  0.84050768  0.17728594  0.47099703  1
  O  O95  1  0.84050768  0.82271406  0.02900297  1
  O  O96  1  0.17229437  0.86303029  0.19403043  1
  O  O97  1  0.17229437  0.13696971  0.30596957  1
  O  O98  1  0.82770563  0.13696971  0.80596957  1
  O  O99  1  0.82770563  0.86303029  0.69403043  1
  O  O100  1  0.42210772  0.59354796  0.03193130  1
  O  O101  1  0.42210772  0.40645204  0.46806870  1
  O  O102  1  0.57789228  0.40645204  0.96806870  1
  O  O103  1  0.57789228  0.59354796  0.53193130  1
  O  O104  1  0.22589944  0.73484814  0.08592902  1
  O  O105  1  0.22589944  0.26515186  0.41407098  1
  O  O106  1  0.77410056  0.26515186  0.91407098  1
  O  O107  1  0.77410056  0.73484814  0.58592902  1
  O  O108  1  0.43493572  0.82957220  0.97360713  1
  O  O109  1  0.43493572  0.17042780  0.52639287  1
  O  O110  1  0.56506428  0.17042780  0.02639287  1
  O  O111  1  0.56506428  0.82957220  0.47360713  1
  O  O112  1  0.22450987  0.93560312  0.01648731  1
  O  O113  1  0.22450987  0.06439688  0.48351269  1
  O  O114  1  0.77549013  0.06439688  0.98351269  1
  O  O115  1  0.77549013  0.93560312  0.51648731  1
loop_
_geom_bond_atom_site_label_1
_geom_bond_atom_site_label_2
_geom_bond_distance
_geom_bond_site_symmetry_2
B0 O48 1.353873 1_555
B0 O92 1.365209 1_555
B0 O60 1.405367 1_555
B1 O49 1.353873 1_555
B1 O93 1.365209 1_555
B1 O61 1.405367 1_555
B2 O50 1.353873 1_555
B2 O94 1.365209 1_555
B2 O62 1.405367 1_555
B3 O51 1.353873 1_555
B3 O95 1.365209 1_555
B3 O63 1.405367 1_555
B4 O72 1.455766 1_555
B4 O45 1.463421 1_555
B4 O28 1.486716 1_555
B4 O84 1.498097 1_555
B5 O73 1.455766 1_555
B5 O44 1.463421 1_555
B5 O29 1.486716 1_555
B5 O85 1.498097 1_555
B6 O74 1.455766 1_555
B6 O47 1.463421 1_555
B6 O30 1.486716 1_555
B6 O86 1.498097 1_555
B7 O75 1.455766 1_555
B7 O46 1.463421 1_555
B7 O31 1.486716 1_555
B7 O87 1.498097 1_555
B8 O80 1.371096 1_555
B8 O84 1.380108 1_555
B8 O15 1.384277 1_455
B9 O81 1.371096 1_555
B9 O85 1.380108 1_555
B9 O14 1.384277 1_455
B10 O82 1.371096 1_555
B10 O86 1.380108 1_555
B10 O13 1.384277 1_655
B11 O83 1.371096 1_555
B11 O87 1.380108 1_555
B11 O12 1.384277 1_655
B12 O39 1.456689 1_555
B12 O96 1.462816 1_555
B12 O20 1.475407 1_555
B12 O0 1.491471 1_555
B13 O38 1.456689 1_555
B13 O97 1.462816 1_555
B13 O21 1.475407 1_555
B13 O1 1.491471 1_555
B14 O37 1.456689 1_555
B14 O98 1.462816 1_555
B14 O22 1.475407 1_555
B14 O2 1.491471 1_555
B15 O36 1.456689 1_555
B15 O99 1.462816 1_555
B15 O23 1.475407 1_555
B15 O3 1.491471 1_555
B16 O36 1.373053 1_555
B16 O8 1.377299 1_555
B16 O68 1.389344 1_555
B17 O37 1.373053 1_555
B17 O9 1.377299 1_555
B17 O69 1.389344 1_555
B18 O38 1.373053 1_555
B18 O10 1.377299 1_555
B18 O70 1.389344 1_555
B19 O39 1.373053 1_555
B19 O11 1.377299 1_555
B19 O71 1.389344 1_555
B20 O100 1.366727 1_555
B20 O104 1.370189 1_555
B20 O76 1.401012 1_555
B21 O101 1.366727 1_555
B21 O105 1.370189 1_555
B21 O77 1.401012 1_555
B22 O102 1.366727 1_555
B22 O106 1.370189 1_555
B22 O78 1.401012 1_555
B23 O103 1.366727 1_555
B23 O107 1.370189 1_555
B23 O79 1.401012 1_555
B24 O92 1.444480 1_555
B24 O80 1.462470 1_555
B24 O40 1.491058 1_555
B24 O79 1.493852 1_455
B25 O93 1.444480 1_555
B25 O81 1.462470 1_556
B25 O41 1.491058 1_555
B25 O78 1.493852 1_455
B26 O94 1.444480 1_555
B26 O82 1.462470 1_555
B26 O42 1.491058 1_555
B26 O77 1.493852 1_655
B27 O95 1.444480 1_555
B27 O83 1.462470 1_554
B27 O43 1.491058 1_555
B27 O76 1.493852 1_655
B28 O44 1.363716 1_555
B28 O56 1.373922 1_555
B28 O0 1.377904 1_555
B29 O45 1.363716 1_555
B29 O57 1.373922 1_555
B29 O1 1.377904 1_555
B30 O46 1.363716 1_555
B30 O58 1.373922 1_555
B30 O2 1.377904 1_555
B31 O47 1.363716 1_555
B31 O59 1.373922 1_555
B31 O3 1.377904 1_555
B32 O4 1.452870 1_555
B32 O75 1.472506 1_455
B32 O16 1.505705 1_555
B32 O12 1.519186 1_555
B33 O5 1.452870 1_555
B33 O74 1.472506 1_455
B33 O17 1.505705 1_555
B33 O13 1.519186 1_555
B34 O6 1.452870 1_555
B34 O73 1.472506 1_655
B34 O18 1.505705 1_555
B34 O14 1.519186 1_555
B35 O7 1.452870 1_555
B35 O72 1.472506 1_655
B35 O19 1.505705 1_555
B35 O15 1.519186 1_555
B36 O32 1.364283 1_555
B36 O60 1.374325 1_555
B36 O40 1.385503 1_555
B37 O33 1.364283 1_555
B37 O61 1.374325 1_555
B37 O41 1.385503 1_555
B38 O34 1.364283 1_555
B38 O62 1.374325 1_555
B38 O42 1.385503 1_555
B39 O35 1.364283 1_555
B39 O63 1.374325 1_555
B39 O43 1.385503 1_555
B40 O52 1.362027 1_555
B40 O31 1.373536 1_555
B40 O16 1.384055 1_555
B41 O53 1.362027 1_555
B41 O30 1.373536 1_555
B41 O17 1.384055 1_555
B42 O54 1.362027 1_555
B42 O29 1.373536 1_555
B42 O18 1.384055 1_555
B43 O55 1.362027 1_555
B43 O28 1.373536 1_555
B43 O19 1.384055 1_555
B44 O71 1.445954 1_455
B44 O96 1.446076 1_555
B44 O91 1.463016 1_555
B44 O56 1.547516 1_555
B45 O70 1.445954 1_455
B45 O97 1.446076 1_555
B45 O90 1.463016 1_555
B45 O57 1.547516 1_555
B46 O69 1.445954 1_655
B46 O98 1.446076 1_555
B46 O89 1.463016 1_555
B46 O58 1.547516 1_555
B47 O68 1.445954 1_655
B47 O99 1.446076 1_555
B47 O88 1.463016 1_555
B47 O59 1.547516 1_555
B48 O49 1.446951 1_565
B48 O4 1.479354 1_555
B48 O52 1.482654 1_555
B48 O9 1.500411 1_565
B49 O48 1.446951 1_545
B49 O5 1.479354 1_555
B49 O53 1.482654 1_555
B49 O8 1.500411 1_545
B50 O51 1.446951 1_545
B50 O6 1.479354 1_555
B50 O54 1.482654 1_555
B50 O11 1.500411 1_545
B51 O50 1.446951 1_565
B51 O7 1.479354 1_555
B51 O55 1.482654 1_555
B51 O10 1.500411 1_565
O0 Sm1 2.496004 1_555
O1 Sm0 2.496004 1_555
O2 Sm3 2.496004 1_555
O3 Sm2 2.496004 1_555
O4 Sm7 2.467349 1_455
O5 Sm6 2.467349 1_455
O6 Sm5 2.467349 1_655
O7 Sm4 2.467349 1_655
O8 Sm6 2.480957 1_465
O9 Sm7 2.480957 1_445
O10 Sm4 2.480957 1_645
O11 Sm5 2.480957 1_665
O12 Sm11 2.669159 1_555
O13 Sm10 2.669159 1_555
O14 Sm9 2.669159 1_555
O15 Sm8 2.669159 1_555
O16 Sm3 2.591248 1_555
O16 Sm11 3.038228 1_555
O17 Sm2 2.591248 1_555
O17 Sm10 3.038228 1_555
O18 Sm1 2.591248 1_555
O18 Sm9 3.038228 1_555
O19 Sm0 2.591248 1_555
O19 Sm8 3.038228 1_555
O20 Sm4 2.396398 1_555
O21 Sm5 2.396398 1_555
O22 Sm6 2.396398 1_555
O23 Sm7 2.396398 1_555
O24 O25 1.360985 1_555
O24 Sm3 2.437654 1_555
O24 Sm2 2.477674 1_555
O25 Sm2 2.437654 1_555
O25 Sm3 2.477674 1_555
O26 O27 1.360985 1_555
O26 Sm1 2.437654 1_555
O26 Sm0 2.477674 1_555
O27 Sm0 2.437654 1_555
O27 Sm1 2.477674 1_555
O28 Sm4 2.464105 1_555
O29 Sm5 2.464105 1_555
O30 Sm6 2.464105 1_555
O31 Sm7 2.464105 1_555
O32 Sm2 2.233858 1_555
O32 Sm10 2.404429 1_555
O33 Sm3 2.233858 1_555
O33 Sm11 2.404429 1_555
O34 Sm0 2.233858 1_555
O34 Sm8 2.404429 1_555
O35 Sm1 2.233858 1_555
O35 Sm9 2.404429 1_555
O36 Sm6 2.627032 1_565
O37 Sm7 2.627032 1_545
O38 Sm4 2.627032 1_545
O39 Sm5 2.627032 1_565
O40 Sm10 2.647892 1_555
O41 Sm11 2.647892 1_555
O42 Sm8 2.647892 1_555
O43 Sm9 2.647892 1_555
O44 Sm1 2.598123 1_555
O45 Sm0 2.598123 1_555
O46 Sm3 2.598123 1_555
O47 Sm2 2.598123 1_555
O52 Sm7 2.600359 1_555
O53 Sm6 2.600359 1_555
O54 Sm5 2.600359 1_555
O55 Sm4 2.600359 1_555
O56 Sm1 2.432067 1_455
O57 Sm0 2.432067 1_455
O58 Sm3 2.432067 1_655
O59 Sm2 2.432067 1_655
O64 Sm5 2.784346 1_565
O65 Sm4 2.784346 1_545
O66 Sm7 2.784346 1_545
O67 Sm6 2.784346 1_565
O68 Sm2 2.690727 1_555
O69 Sm3 2.690727 1_555
O70 Sm0 2.690727 1_555
O71 Sm1 2.690727 1_555
O72 Sm0 2.505458 1_455
O73 Sm1 2.505458 1_455
O74 Sm2 2.505458 1_655
O75 Sm3 2.505458 1_655
O76 Sm11 2.541289 1_554
O77 Sm10 2.541289 1_555
O78 Sm9 2.541289 1_556
O79 Sm8 2.541289 1_555
O80 Sm8 2.630544 1_555
O81 Sm9 2.630544 1_555
O82 Sm10 2.630544 1_555
O83 Sm11 2.630544 1_555
O84 Sm8 2.701689 1_555
O85 Sm9 2.701689 1_555
O86 Sm10 2.701689 1_555
O87 Sm11 2.701689 1_555
O88 Sm7 2.331008 1_555
O89 Sm6 2.331008 1_555
O90 Sm5 2.331008 1_555
O91 Sm4 2.331008 1_555
O96 Sm5 2.364780 1_565
O97 Sm4 2.364780 1_545
O98 Sm7 2.364780 1_545
O99 Sm6 2.364780 1_565
O100 Sm9 2.426066 1_555
O100 Sm11 2.453302 1_554
O101 Sm8 2.426066 1_555
O101 Sm10 2.453302 1_555
O102 Sm11 2.426066 1_555
O102 Sm9 2.453302 1_556
O103 Sm10 2.426066 1_555
O103 Sm8 2.453302 1_555
O108 Sm11 2.491008 1_555
O109 Sm10 2.491008 1_555
O110 Sm9 2.491008 1_555
O111 Sm8 2.491008 1_555
