# generated using pymatgen
data_YbGeAu
_symmetry_space_group_name_H-M   'P 1'
_cell_length_a   3.47274700
_cell_length_b   4.58077904
_cell_length_c   4.57996221
_cell_angle_alpha   59.91697926
_cell_angle_beta   90.00000000
_cell_angle_gamma   90.00000000
_symmetry_Int_Tables_number   1
_chemical_formula_structural   YbGeAu
_chemical_formula_sum   'Yb1 Ge1 Au1'
_cell_volume   63.04361193
_cell_formula_units_Z   1
loop_
 _symmetry_equiv_pos_site_id
 _symmetry_equiv_pos_as_xyz
  1  'x, y, z'
loop_
 _atom_site_type_symbol
 _atom_site_label
 _atom_site_symmetry_multiplicity
 _atom_site_fract_x
 _atom_site_fract_y
 _atom_site_fract_z
 _atom_site_occupancy
  Yb  Yb0  1  0.00000000  0.99991400  0.99991500  1
  Ge  Ge0  1  0.50000000  0.66644600  0.66642700  1
  Au  Au0  1  0.50000000  0.33354000  0.33375800  1
loop_
_geom_bond_atom_site_label_1
_geom_bond_atom_site_label_2
_geom_bond_distance
_geom_bond_site_symmetry_2
Ge0 Yb0 3.161024 1_654
Ge0 Yb0 3.161024 1_554
Ge0 Yb0 3.161484 1_545
Ge0 Yb0 3.161484 1_645
Ge0 Yb0 3.165467 1_655
Ge0 Yb0 3.165467 1_555
Au0 Ge0 2.641252 1_555
Au0 Ge0 2.644205 1_545
Au0 Ge0 2.644670 1_554
Au0 Yb0 3.159847 1_545
Au0 Yb0 3.159847 1_645
Au0 Yb0 3.160959 1_554
Au0 Yb0 3.160959 1_654
Au0 Yb0 3.167169 1_544
Au0 Yb0 3.167169 1_644
