# generated using pymatgen
data_Ca3LaMn4O12
_symmetry_space_group_name_H-M   'P 1'
_cell_length_a   5.42631015
_cell_length_b   5.41476967
_cell_length_c   7.66967932
_cell_angle_alpha   89.97342839
_cell_angle_beta   89.66903564
_cell_angle_gamma   91.24222641
_symmetry_Int_Tables_number   1
_chemical_formula_structural   Ca3LaMn4O12
_chemical_formula_sum   'Ca3 La1 Mn4 O12'
_cell_volume   225.29544128
_cell_formula_units_Z   1
loop_
 _symmetry_equiv_pos_site_id
 _symmetry_equiv_pos_as_xyz
  1  'x, y, z'
loop_
 _atom_site_type_symbol
 _atom_site_label
 _atom_site_symmetry_multiplicity
 _atom_site_fract_x
 _atom_site_fract_y
 _atom_site_fract_z
 _atom_site_occupancy
  Ca  Ca0  1  0.46410500  0.48725600  0.74687900  1
  Ca  Ca1  1  0.96023000  0.00610200  0.74767600  1
  Ca  Ca2  1  0.53736500  0.51147900  0.25298300  1
  La  La0  1  0.02794000  0.99866800  0.25336300  1
  Mn  Mn0  1  0.49970200  0.99925600  0.50485300  1
  Mn  Mn1  1  0.00039400  0.50138500  0.99533400  1
  Mn  Mn2  1  0.49965300  0.00041300  0.99513800  1
  Mn  Mn3  1  0.00065200  0.50004600  0.50580500  1
  O  O0  1  0.02783900  0.57929000  0.75981700  1
  O  O1  1  0.51805200  0.91690200  0.75119900  1
  O  O2  1  0.97901300  0.43763000  0.24086700  1
  O  O3  1  0.49366100  0.07899200  0.24756000  1
  O  O4  1  0.21365700  0.20957300  0.96055900  1
  O  O5  1  0.22273300  0.19566400  0.53819800  1
  O  O6  1  0.71577400  0.28406200  0.54058400  1
  O  O7  1  0.71719300  0.28304300  0.95352700  1
  O  O8  1  0.77222600  0.79584100  0.46477100  1
  O  O9  1  0.78074800  0.78277900  0.03583900  1
  O  O10  1  0.28377700  0.71742100  0.04691300  1
  O  O11  1  0.28528800  0.71419800  0.45813700  1
loop_
_geom_bond_atom_site_label_1
_geom_bond_atom_site_label_2
_geom_bond_distance
_geom_bond_site_symmetry_2
Ca0 O1 2.338748 1_555
Ca0 O6 2.370804 1_555
Ca0 O7 2.389584 1_555
Ca0 O0 2.431225 1_555
Ca0 O4 2.583974 1_555
Ca0 O5 2.589779 1_555
Ca0 O11 2.725771 1_555
Ca0 O10 2.799217 1_556
Ca1 O0 2.349755 1_645
Ca1 O5 2.360602 1_655
Ca1 O4 2.394310 1_655
Ca1 O1 2.437233 1_545
Ca1 O7 2.558215 1_555
Ca1 O6 2.579992 1_555
Ca1 O8 2.649991 1_545
Ca1 O9 2.686449 1_546
Ca2 O3 2.349086 1_555
Ca2 O11 2.365065 1_555
Ca2 O10 2.392695 1_555
Ca2 O2 2.439437 1_555
Ca2 O9 2.562041 1_555
Ca2 O8 2.564111 1_555
Ca2 O6 2.719011 1_555
Ca2 O7 2.790383 1_554
La0 O8 2.380522 1_455
La0 O2 2.399305 1_465
La0 O9 2.430794 1_455
La0 O3 2.555121 1_565
La0 O10 2.611917 1_555
La0 O11 2.627871 1_555
La0 O5 2.647166 1_565
La0 O4 2.698990 1_564
Mn0 O5 1.876254 1_565
Mn0 O8 1.886855 1_555
Mn0 O6 1.937461 1_565
Mn0 O1 1.944710 1_555
Mn0 O11 1.947301 1_555
Mn0 O3 2.020442 1_565
Mn1 O0 1.859153 1_555
Mn1 O2 1.916784 1_456
Mn1 O7 1.946640 1_455
Mn1 O10 1.954214 1_556
Mn1 O9 1.978275 1_456
Mn1 O4 1.995777 1_555
Mn2 O1 1.927544 1_545
Mn2 O7 1.937578 1_555
Mn2 O10 1.947865 1_546
Mn2 O4 1.960127 1_555
Mn2 O9 1.973784 1_546
Mn2 O3 1.982628 1_556
Mn3 O6 1.935216 1_455
Mn3 O11 1.944036 1_555
Mn3 O0 2.000669 1_555
Mn3 O2 2.063653 1_455
Mn3 O8 2.071442 1_455
Mn3 O5 2.078356 1_555
