# generated using pymatgen
data_Ba4Al(IrO5)2
_symmetry_space_group_name_H-M   'P 1'
_cell_length_a   7.33463378
_cell_length_b   7.33463378
_cell_length_c   13.30632000
_cell_angle_alpha   90.00000000
_cell_angle_beta   90.00000000
_cell_angle_gamma   133.48266573
_symmetry_Int_Tables_number   1
_chemical_formula_structural   Ba4Al(IrO5)2
_chemical_formula_sum   'Ba8 Al2 Ir4 O20'
_cell_volume   519.39969170
_cell_formula_units_Z   2
loop_
 _symmetry_equiv_pos_site_id
 _symmetry_equiv_pos_as_xyz
  1  'x, y, z'
loop_
 _atom_site_type_symbol
 _atom_site_label
 _atom_site_symmetry_multiplicity
 _atom_site_fract_x
 _atom_site_fract_y
 _atom_site_fract_z
 _atom_site_occupancy
  Ba  Ba0  1  0.48717500  0.51282500  0.88789700  1
  Ba  Ba1  1  0.00926300  0.99073700  0.11583300  1
  Ba  Ba2  1  0.51282500  0.48717500  0.38789700  1
  Ba  Ba3  1  0.99073700  0.00926300  0.61583300  1
  Ba  Ba4  1  0.28400900  0.71599100  0.63903000  1
  Ba  Ba5  1  0.21748000  0.78252000  0.35488800  1
  Ba  Ba6  1  0.71599100  0.28400900  0.13903000  1
  Ba  Ba7  1  0.78252000  0.21748000  0.85488800  1
  Al  Al0  1  0.60939400  0.39060700  0.65307500  1
  Al  Al1  1  0.39060600  0.60939400  0.15307500  1
  Ir  Ir0  1  0.74995500  0.25004500  0.50441100  1
  Ir  Ir1  1  0.25004500  0.74995500  0.00441100  1
  Ir  Ir2  1  0.87542600  0.12457400  0.34595200  1
  Ir  Ir3  1  0.12457400  0.87542600  0.84595200  1
  O  O0  1  0.78345000  0.21655000  0.65061300  1
  O  O1  1  0.71996200  0.28003800  0.35168900  1
  O  O2  1  0.21655000  0.78345000  0.15061300  1
  O  O3  1  0.28003800  0.71996200  0.85168900  1
  O  O4  1  0.42157400  0.13975300  0.54213200  1
  O  O5  1  0.63146200  0.91346500  0.46048800  1
  O  O6  1  0.13975300  0.42157400  0.04213200  1
  O  O7  1  0.91346500  0.63146200  0.96048800  1
  O  O8  1  0.08653500  0.36853800  0.46048800  1
  O  O9  1  0.86024700  0.57842600  0.54213200  1
  O  O10  1  0.36853800  0.08653500  0.96048800  1
  O  O11  1  0.57842600  0.86024700  0.04213200  1
  O  O12  1  0.47644000  0.52356000  0.65296500  1
  O  O13  1  0.02011800  0.97988200  0.34634200  1
  O  O14  1  0.52356000  0.47644000  0.15296500  1
  O  O15  1  0.97988200  0.02011800  0.84634200  1
  O  O16  1  0.38218800  0.12742100  0.74603400  1
  O  O17  1  0.61781200  0.87257900  0.24603400  1
  O  O18  1  0.12742100  0.38218800  0.24603400  1
  O  O19  1  0.87257900  0.61781200  0.74603400  1
loop_
_geom_bond_atom_site_label_1
_geom_bond_atom_site_label_2
_geom_bond_distance
_geom_bond_site_symmetry_2
Ba0 O10 2.778827 1_555
Ba0 O7 2.778827 1_555
Ba0 O3 2.832880 1_555
Ba0 O15 2.950268 1_565
Ba0 O15 2.950268 1_455
Ba0 O6 2.967499 1_556
Ba0 O11 2.967499 1_556
Ba0 O16 3.025106 1_555
Ba0 O19 3.025106 1_555
Ba0 O12 3.129426 1_555
Ba1 O11 2.775089 1_455
Ba1 O6 2.775089 1_565
Ba1 O2 2.831705 1_555
Ba1 O18 2.927727 1_565
Ba1 O17 2.927727 1_455
Ba1 O14 2.944474 1_455
Ba1 O14 2.944474 1_565
Ba1 O10 3.026920 1_564
Ba1 O7 3.026920 1_454
Ba1 O13 3.070713 1_555
Ba2 O8 2.778827 1_555
Ba2 O5 2.778827 1_555
Ba2 O1 2.832880 1_555
Ba2 O13 2.950268 1_545
Ba2 O13 2.950268 1_655
Ba2 O4 2.967499 1_555
Ba2 O9 2.967499 1_555
Ba2 O18 3.025106 1_555
Ba2 O17 3.025106 1_555
Ba2 O14 3.129426 1_555
Ba3 O9 2.775089 1_545
Ba3 O4 2.775089 1_655
Ba3 O0 2.831705 1_555
Ba3 O16 2.927727 1_655
Ba3 O19 2.927727 1_545
Ba3 O12 2.944474 1_545
Ba3 O12 2.944474 1_655
Ba3 O8 3.026920 1_655
Ba3 O5 3.026920 1_545
Ba3 O15 3.070713 1_555
Ba4 O12 2.600036 1_555
Ba4 O3 2.830215 1_555
Ba4 O9 2.832832 1_455
Ba4 O4 2.832832 1_565
Ba4 O0 2.900429 1_455
Ba4 O0 2.900429 1_565
Ba4 O19 2.943055 1_455
Ba4 O16 2.943055 1_565
Ba4 O8 3.025971 1_555
Ba4 O5 3.025971 1_555
Ba5 O13 2.662301 1_555
Ba5 O2 2.718177 1_555
Ba5 O5 2.846588 1_555
Ba5 O8 2.846588 1_555
Ba5 O1 2.896827 1_565
Ba5 O1 2.896827 1_455
Ba5 O17 2.913202 1_555
Ba5 O18 2.913202 1_555
Ba5 O4 3.148933 1_565
Ba5 O9 3.148933 1_455
Ba6 O14 2.600036 1_555
Ba6 O1 2.830215 1_555
Ba6 O11 2.832832 1_545
Ba6 O6 2.832832 1_655
Ba6 O2 2.900429 1_545
Ba6 O2 2.900429 1_655
Ba6 O17 2.943055 1_545
Ba6 O18 2.943055 1_655
Ba6 O10 3.025971 1_554
Ba6 O7 3.025971 1_554
Ba7 O15 2.662301 1_555
Ba7 O0 2.718177 1_555
Ba7 O7 2.846588 1_555
Ba7 O10 2.846588 1_555
Ba7 O3 2.896827 1_655
Ba7 O3 2.896827 1_545
Ba7 O19 2.913202 1_555
Ba7 O16 2.913202 1_555
Ba7 O6 3.148933 1_656
Ba7 O11 3.148933 1_546
Al0 O12 1.791831 1_555
Al0 O19 1.898983 1_555
Al0 O16 1.898988 1_555
Al0 O9 1.993482 1_555
Al0 O4 1.993486 1_555
Al0 O0 2.346009 1_555
Al1 O14 1.791837 1_555
Al1 O17 1.898985 1_555
Al1 O18 1.898985 1_555
Al1 O6 1.993483 1_555
Al1 O11 1.993483 1_555
Al1 O2 2.346002 1_555
Ir0 O0 1.997098 1_555
Ir0 O4 2.006474 1_555
Ir0 O9 2.006474 1_555
Ir0 O5 2.058764 1_545
Ir0 O8 2.058764 1_655
Ir0 O1 2.071980 1_555
Ir1 O2 1.997098 1_555
Ir1 O6 2.006474 1_555
Ir1 O11 2.006474 1_555
Ir1 O7 2.058764 1_454
Ir1 O10 2.058764 1_564
Ir1 O3 2.071980 1_554
Ir2 O13 1.950038 1_645
Ir2 O17 1.986873 1_545
Ir2 O18 1.986873 1_655
Ir2 O5 2.027061 1_545
Ir2 O8 2.027061 1_655
Ir2 O1 2.096597 1_555
Ir3 O15 1.950038 1_465
Ir3 O19 1.986873 1_455
Ir3 O16 1.986873 1_565
Ir3 O7 2.027061 1_455
Ir3 O10 2.027061 1_565
Ir3 O3 2.096597 1_555
