# generated using pymatgen
data_LaMgCrMoO6
_symmetry_space_group_name_H-M   'P 1'
_cell_length_a   5.41682779
_cell_length_b   5.55584726
_cell_length_c   7.93311428
_cell_angle_alpha   90.04411480
_cell_angle_beta   89.68880089
_cell_angle_gamma   89.82069925
_symmetry_Int_Tables_number   1
_chemical_formula_structural   LaMgCrMoO6
_chemical_formula_sum   'La2 Mg2 Cr2 Mo2 O12'
_cell_volume   238.74284785
_cell_formula_units_Z   2
loop_
 _symmetry_equiv_pos_site_id
 _symmetry_equiv_pos_as_xyz
  1  'x, y, z'
loop_
 _atom_site_type_symbol
 _atom_site_label
 _atom_site_symmetry_multiplicity
 _atom_site_fract_x
 _atom_site_fract_y
 _atom_site_fract_z
 _atom_site_occupancy
  La  La0  1  0.00392100  0.95967500  0.75125400  1
  La  La1  1  0.50343900  0.54047700  0.25008000  1
  Mg  Mg0  1  0.48684600  0.45180900  0.75789800  1
  Mg  Mg1  1  0.98319500  0.05000900  0.25774200  1
  Cr  Cr0  1  0.99966600  0.50186400  0.99969700  1
  Cr  Cr1  1  0.49971400  0.99913500  0.49886400  1
  Mo  Mo0  1  0.49943900  0.00529800  0.00056700  1
  Mo  Mo1  1  0.99949700  0.49417400  0.50019300  1
  O  O0  1  0.08738800  0.43746000  0.24258800  1
  O  O1  1  0.58920000  0.07072700  0.74210200  1
  O  O2  1  0.21618300  0.22265000  0.93923000  1
  O  O3  1  0.71868400  0.27346700  0.43253300  1
  O  O4  1  0.20724700  0.20281400  0.55080200  1
  O  O5  1  0.71086200  0.29422000  0.04887700  1
  O  O6  1  0.31655000  0.69298700  0.94256200  1
  O  O7  1  0.81451600  0.80437600  0.44108900  1
  O  O8  1  0.31617200  0.68744200  0.56705000  1
  O  O9  1  0.81595700  0.81143600  0.06574500  1
  O  O10  1  0.36397700  0.96367300  0.25585200  1
  O  O11  1  0.86754200  0.53630900  0.75528000  1
loop_
_geom_bond_atom_site_label_1
_geom_bond_atom_site_label_2
_geom_bond_distance
_geom_bond_site_symmetry_2
La0 O1 2.329324 1_465
La0 O4 2.358003 1_565
La0 O2 2.388774 1_565
La0 O11 2.467820 1_455
La0 O8 2.690287 1_555
La0 O6 2.717013 1_555
La0 O7 2.807347 1_455
La0 O9 2.814300 1_456
La1 O0 2.328014 1_555
La1 O5 2.376885 1_555
La1 O3 2.380324 1_555
La1 O10 2.467657 1_555
La1 O9 2.694982 1_555
La1 O7 2.706471 1_555
La1 O6 2.778303 1_554
La1 O8 2.825357 1_555
Mg0 O11 2.116356 1_555
Mg0 O6 2.183363 1_555
Mg0 O1 2.190266 1_555
Mg0 O8 2.207149 1_555
Mg0 O2 2.414844 1_555
Mg0 O4 2.635030 1_555
Mg0 O5 2.755813 1_556
Mg1 O10 2.116179 1_645
Mg1 O7 2.193010 1_545
Mg1 O9 2.217402 1_545
Mg1 O0 2.230253 1_655
Mg1 O3 2.341295 1_555
Mg1 O5 2.603850 1_555
Cr0 O5 1.983887 1_556
Cr0 O2 1.998360 1_655
Cr0 O0 2.019070 1_656
Cr0 O9 2.050662 1_556
Cr0 O6 2.069555 1_655
Cr0 O11 2.079255 1_555
Cr1 O4 1.985222 1_565
Cr1 O3 2.003142 1_565
Cr1 O1 2.031464 1_565
Cr1 O7 2.065892 1_555
Cr1 O8 2.070336 1_555
Cr1 O10 2.076469 1_555
Mo0 O2 2.011630 1_554
Mo0 O5 2.012579 1_555
Mo0 O6 2.053881 1_544
Mo0 O9 2.089486 1_545
Mo0 O1 2.136410 1_554
Mo0 O10 2.163100 1_545
Mo1 O4 2.010587 1_655
Mo1 O3 2.031017 1_555
Mo1 O7 2.046861 1_555
Mo1 O8 2.096980 1_655
Mo1 O0 2.118912 1_655
Mo1 O11 2.154835 1_555
