# generated using pymatgen
data_H12C6S(N5O3)2
_symmetry_space_group_name_H-M   'P 1'
_cell_length_a   7.02467400
_cell_length_b   20.29197200
_cell_length_c   11.39528278
_cell_angle_alpha   90.00000000
_cell_angle_beta   114.54953092
_cell_angle_gamma   90.00000000
_symmetry_Int_Tables_number   1
_chemical_formula_structural   H12C6S(N5O3)2
_chemical_formula_sum   'H48 C24 S4 N40 O24'
_cell_volume   1477.49884971
_cell_formula_units_Z   4
loop_
 _symmetry_equiv_pos_site_id
 _symmetry_equiv_pos_as_xyz
  1  'x, y, z'
loop_
 _atom_site_type_symbol
 _atom_site_label
 _atom_site_symmetry_multiplicity
 _atom_site_fract_x
 _atom_site_fract_y
 _atom_site_fract_z
 _atom_site_occupancy
  H  H0  1  0.92137600  0.37905400  0.72212600  1
  H  H1  1  0.92137600  0.12094600  0.22212600  1
  H  H2  1  0.07862400  0.62094600  0.27787400  1
  H  H3  1  0.07862400  0.87905400  0.77787400  1
  H  H4  1  0.10615700  0.37357700  0.65295300  1
  H  H5  1  0.10615700  0.12642300  0.15295300  1
  H  H6  1  0.89384300  0.62642300  0.34704700  1
  H  H7  1  0.89384300  0.87357700  0.84704700  1
  H  H8  1  0.38945400  0.07482600  0.47536800  1
  H  H9  1  0.38945400  0.42517400  0.97536800  1
  H  H10  1  0.61054600  0.92517400  0.52463200  1
  H  H11  1  0.61054600  0.57482600  0.02463200  1
  H  H12  1  0.33726300  0.00275700  0.54351100  1
  H  H13  1  0.33726300  0.49724300  0.04351100  1
  H  H14  1  0.66273700  0.99724300  0.45648900  1
  H  H15  1  0.66273700  0.50275700  0.95648900  1
  H  H16  1  0.68885500  0.00761100  0.86018500  1
  H  H17  1  0.68885500  0.49238900  0.36018500  1
  H  H18  1  0.31114500  0.99238900  0.13981500  1
  H  H19  1  0.31114500  0.50761100  0.63981500  1
  H  H20  1  0.60047100  0.08414100  0.90086000  1
  H  H21  1  0.60047100  0.41585900  0.40086000  1
  H  H22  1  0.39952900  0.91585900  0.09914000  1
  H  H23  1  0.39952900  0.58414100  0.59914000  1
  H  H24  1  0.78021400  0.28080700  0.76434300  1
  H  H25  1  0.78021400  0.21919300  0.26434300  1
  H  H26  1  0.21978600  0.71919300  0.23565700  1
  H  H27  1  0.21978600  0.78080700  0.73565700  1
  H  H28  1  0.15508200  0.00427200  0.67091500  1
  H  H29  1  0.15508200  0.49572800  0.17091500  1
  H  H30  1  0.84491800  0.99572800  0.32908500  1
  H  H31  1  0.84491800  0.50427200  0.82908500  1
  H  H32  1  0.36382600  0.21520100  0.48768100  1
  H  H33  1  0.36382600  0.28479900  0.98768100  1
  H  H34  1  0.63617400  0.78479900  0.51231900  1
  H  H35  1  0.63617400  0.71520100  0.01231900  1
  H  H36  1  0.49592700  0.21684200  0.40177900  1
  H  H37  1  0.49592700  0.28315800  0.90177900  1
  H  H38  1  0.50407300  0.78315800  0.59822100  1
  H  H39  1  0.50407300  0.71684200  0.09822100  1
  H  H40  1  0.43051500  0.32834800  0.44844500  1
  H  H41  1  0.43051500  0.17165200  0.94844500  1
  H  H42  1  0.56948500  0.67165200  0.55155500  1
  H  H43  1  0.56948500  0.82834800  0.05155500  1
  H  H44  1  0.42000300  0.39192800  0.52548400  1
  H  H45  1  0.42000300  0.10807200  0.02548400  1
  H  H46  1  0.57999700  0.60807200  0.47451600  1
  H  H47  1  0.57999700  0.89192800  0.97451600  1
  C  C0  1  0.88035400  0.18747400  0.74234400  1
  C  C1  1  0.88035400  0.31252600  0.24234400  1
  C  C2  1  0.11964600  0.81252600  0.25765600  1
  C  C3  1  0.11964600  0.68747400  0.75765600  1
  C  C4  1  0.09931700  0.18833200  0.62151900  1
  C  C5  1  0.09931700  0.31166800  0.12151900  1
  C  C6  1  0.90068300  0.81166800  0.37848100  1
  C  C7  1  0.90068300  0.68833200  0.87848100  1
  C  C8  1  0.00782700  0.08621800  0.70181800  1
  C  C9  1  0.00782700  0.41378200  0.20181800  1
  C  C10  1  0.99217300  0.91378200  0.29818200  1
  C  C11  1  0.99217300  0.58621800  0.79818200  1
  C  C12  1  0.99189900  0.28595200  0.67522700  1
  C  C13  1  0.99189900  0.21404800  0.17522700  1
  C  C14  1  0.00810100  0.71404800  0.32477300  1
  C  C15  1  0.00810100  0.78595200  0.82477300  1
  C  C16  1  0.21287000  0.08844400  0.57905300  1
  C  C17  1  0.21287000  0.41155600  0.07905300  1
  C  C18  1  0.78713000  0.91155600  0.42094700  1
  C  C19  1  0.78713000  0.58844400  0.92094700  1
  C  C20  1  0.79879100  0.09004700  0.80937400  1
  C  C21  1  0.79879100  0.40995300  0.30937400  1
  C  C22  1  0.20120900  0.90995300  0.19062600  1
  C  C23  1  0.20120900  0.59004700  0.69062600  1
  S  S0  1  0.59608400  0.39693800  0.79746900  1
  S  S1  1  0.59608400  0.10306200  0.29746900  1
  S  S2  1  0.40391600  0.60306200  0.20253100  1
  S  S3  1  0.40391600  0.89693800  0.70253100  1
  N  N0  1  0.99476900  0.15414100  0.68655700  1
  N  N1  1  0.99476900  0.34585900  0.18655700  1
  N  N2  1  0.00523100  0.84585900  0.31344300  1
  N  N3  1  0.00523100  0.65414100  0.81344300  1
  N  N4  1  0.87537900  0.25386900  0.72966100  1
  N  N5  1  0.87537900  0.24613100  0.22966100  1
  N  N6  1  0.12462100  0.74613100  0.27033900  1
  N  N7  1  0.12462100  0.75386900  0.77033900  1
  N  N8  1  0.09669600  0.25328500  0.61823000  1
  N  N9  1  0.09669600  0.24671500  0.11823000  1
  N  N10  1  0.90330400  0.74671500  0.38177000  1
  N  N11  1  0.90330400  0.75328500  0.88177000  1
  N  N12  1  0.20024200  0.15426200  0.56508400  1
  N  N13  1  0.20024200  0.34573800  0.06508400  1
  N  N14  1  0.79975800  0.84573800  0.43491600  1
  N  N15  1  0.79975800  0.65426200  0.93491600  1
  N  N16  1  0.12415800  0.05513300  0.64940900  1
  N  N17  1  0.12415800  0.44486700  0.14940900  1
  N  N18  1  0.87584200  0.94486700  0.35059100  1
  N  N19  1  0.87584200  0.55513300  0.85059100  1
  N  N20  1  0.91310200  0.05343200  0.76063500  1
  N  N21  1  0.91310200  0.44656800  0.26063500  1
  N  N22  1  0.08689800  0.94656800  0.23936500  1
  N  N23  1  0.08689800  0.55343200  0.73936500  1
  N  N24  1  0.78410300  0.15737300  0.80355400  1
  N  N25  1  0.78410300  0.34262700  0.30355400  1
  N  N26  1  0.21589700  0.84262700  0.19644600  1
  N  N27  1  0.21589700  0.65737300  0.69644600  1
  N  N28  1  0.00053900  0.35102700  0.68032700  1
  N  N29  1  0.00053900  0.14897300  0.18032700  1
  N  N30  1  0.99946100  0.64897300  0.31967300  1
  N  N31  1  0.99946100  0.85102700  0.81967300  1
  N  N32  1  0.31283000  0.05303100  0.52558900  1
  N  N33  1  0.31283000  0.44696900  0.02558900  1
  N  N34  1  0.68717000  0.94696900  0.47441100  1
  N  N35  1  0.68717000  0.55303100  0.97441100  1
  N  N36  1  0.69509200  0.05817000  0.86548900  1
  N  N37  1  0.69509200  0.44183000  0.36548900  1
  N  N38  1  0.30490800  0.94183000  0.13451100  1
  N  N39  1  0.30490800  0.55817000  0.63451100  1
  O  O0  1  0.40233400  0.41395900  0.68170900  1
  O  O1  1  0.40233400  0.08604100  0.18170900  1
  O  O2  1  0.59766600  0.58604100  0.31829100  1
  O  O3  1  0.59766600  0.91395900  0.81829100  1
  O  O4  1  0.78239400  0.42803300  0.78640900  1
  O  O5  1  0.78239400  0.07196700  0.28640900  1
  O  O6  1  0.21760600  0.57196700  0.21359100  1
  O  O7  1  0.21760600  0.92803300  0.71359100  1
  O  O8  1  0.62753900  0.32423700  0.81049500  1
  O  O9  1  0.62753900  0.17576300  0.31049500  1
  O  O10  1  0.37246100  0.67576300  0.18950500  1
  O  O11  1  0.37246100  0.82423700  0.68950500  1
  O  O12  1  0.58434500  0.42251400  0.91724700  1
  O  O13  1  0.58434500  0.07748600  0.41724700  1
  O  O14  1  0.41565500  0.57748600  0.08275300  1
  O  O15  1  0.41565500  0.92251400  0.58275300  1
  O  O16  1  0.43977200  0.24383600  0.45226000  1
  O  O17  1  0.43977200  0.25616400  0.95226000  1
  O  O18  1  0.56022800  0.75616400  0.54774000  1
  O  O19  1  0.56022800  0.74383600  0.04774000  1
  O  O20  1  0.41955100  0.37737300  0.44279100  1
  O  O21  1  0.41955100  0.12262700  0.94279100  1
  O  O22  1  0.58044900  0.62262700  0.55720900  1
  O  O23  1  0.58044900  0.87737300  0.05720900  1
loop_
_geom_bond_atom_site_label_1
_geom_bond_atom_site_label_2
_geom_bond_distance
_geom_bond_site_symmetry_2
H0 N28 1.039066 1_655
H0 O4 1.752663 1_555
H1 N29 1.039066 1_655
H1 O5 1.752663 1_555
H2 N30 1.039066 1_455
H2 O6 1.752663 1_555
H3 N31 1.039066 1_455
H3 O7 1.752663 1_555
H4 N28 1.024432 1_555
H5 N29 1.024432 1_555
H6 N30 1.024432 1_555
H7 N31 1.024432 1_555
H8 N32 1.033824 1_555
H9 N33 1.033824 1_556
H10 N34 1.033824 1_555
H11 N35 1.033824 1_554
H12 N32 1.040559 1_555
H13 N33 1.040559 1_555
H14 N34 1.040559 1_555
H15 N35 1.040559 1_555
H16 N36 1.027584 1_555
H17 N37 1.027584 1_555
H18 N38 1.027584 1_555
H19 N39 1.027584 1_555
H20 N36 1.051006 1_555
H21 N37 1.051006 1_555
H22 N38 1.051006 1_555
H23 N39 1.051006 1_555
H24 N4 1.058974 1_555
H24 O8 1.634679 1_555
H25 N5 1.058974 1_555
H25 O9 1.634679 1_555
H26 N6 1.058974 1_555
H26 O10 1.634679 1_555
H27 N7 1.058974 1_555
H27 O11 1.634679 1_555
H28 N16 1.062157 1_555
H28 O7 1.626421 1_545
H29 N17 1.062157 1_555
H29 O6 1.626421 1_555
H30 N18 1.062157 1_555
H30 O5 1.626421 1_565
H31 N19 1.062157 1_555
H31 O4 1.626421 1_555
H32 O16 0.981888 1_555
H33 O17 0.981888 1_555
H34 O18 0.981888 1_555
H35 O19 0.981888 1_555
H36 O16 0.987480 1_555
H37 O17 0.987480 1_555
H38 O18 0.987480 1_555
H39 O19 0.987480 1_555
H40 O20 0.997805 1_555
H41 O21 0.997805 1_555
H42 O22 0.997805 1_555
H43 O23 0.997805 1_555
H44 O20 0.986257 1_555
H45 O21 0.986257 1_554
H46 O22 0.986257 1_555
H47 O23 0.986257 1_556
C0 N24 1.307150 1_555
C0 N4 1.353917 1_555
C0 N0 1.390028 1_555
C1 N25 1.307150 1_555
C1 N5 1.353917 1_555
C1 N1 1.390028 1_555
C2 N26 1.307150 1_555
C2 N6 1.353917 1_555
C2 N2 1.390028 1_555
C3 N27 1.307150 1_555
C3 N7 1.353917 1_555
C3 N3 1.390028 1_555
C4 N8 1.318468 1_555
C4 N12 1.331548 1_555
C4 N0 1.422070 1_455
C5 N9 1.318468 1_555
C5 N13 1.331548 1_555
C5 N1 1.422070 1_455
C6 N10 1.318468 1_555
C6 N14 1.331548 1_555
C6 N2 1.422070 1_655
C7 N11 1.318468 1_555
C7 N15 1.331548 1_555
C7 N3 1.422070 1_655
C8 N20 1.305833 1_455
C8 N16 1.351991 1_555
C8 N0 1.387476 1_455
C9 N21 1.305833 1_455
C9 N17 1.351991 1_555
C9 N1 1.387476 1_455
C10 N22 1.305833 1_655
C10 N18 1.351991 1_555
C10 N2 1.387476 1_655
C11 N23 1.305833 1_655
C11 N19 1.351991 1_555
C11 N3 1.387476 1_655
C12 N28 1.322063 1_655
C12 N8 1.341829 1_655
C12 N4 1.378571 1_555
C13 N29 1.322063 1_655
C13 N9 1.341829 1_655
C13 N5 1.378571 1_555
C14 N30 1.322063 1_455
C14 N10 1.341829 1_455
C14 N6 1.378571 1_555
C15 N31 1.322063 1_455
C15 N11 1.341829 1_455
C15 N7 1.378571 1_555
C16 N32 1.317613 1_555
C16 N12 1.343592 1_555
C16 N16 1.379555 1_555
C17 N33 1.317613 1_555
C17 N13 1.343592 1_555
C17 N17 1.379555 1_555
C18 N34 1.317613 1_555
C18 N14 1.343592 1_555
C18 N18 1.379555 1_555
C19 N35 1.317613 1_555
C19 N15 1.343592 1_555
C19 N19 1.379555 1_555
C20 N36 1.320988 1_555
C20 N24 1.369598 1_555
C20 N20 1.369633 1_555
C21 N37 1.320988 1_555
C21 N25 1.369598 1_555
C21 N21 1.369633 1_555
C22 N38 1.320988 1_555
C22 N26 1.369598 1_555
C22 N22 1.369633 1_555
C23 N39 1.320988 1_555
C23 N27 1.369598 1_555
C23 N23 1.369633 1_555
O0 S0 1.489933 1_555
O1 S1 1.489933 1_555
O2 S2 1.489933 1_555
O3 S3 1.489933 1_555
O4 S0 1.504644 1_555
O5 S1 1.504644 1_555
O6 S2 1.504644 1_555
O7 S3 1.504644 1_555
O8 S0 1.489951 1_555
O9 S1 1.489951 1_555
O10 S2 1.489951 1_555
O11 S3 1.489951 1_555
O12 S0 1.494202 1_555
O13 S1 1.494202 1_555
O14 S2 1.494202 1_555
O15 S3 1.494202 1_555
