# generated using pymatgen
data_Ba2MgGe2O7
_symmetry_space_group_name_H-M   'P 1'
_cell_length_a   8.40782169
_cell_length_b   8.40782169
_cell_length_c   5.58375680
_cell_angle_alpha   90.00000000
_cell_angle_beta   90.00000000
_cell_angle_gamma   90.00000000
_symmetry_Int_Tables_number   1
_chemical_formula_structural   Ba2MgGe2O7
_chemical_formula_sum   'Ba4 Mg2 Ge4 O14'
_cell_volume   394.72395158
_cell_formula_units_Z   2
loop_
 _symmetry_equiv_pos_site_id
 _symmetry_equiv_pos_as_xyz
  1  'x, y, z'
loop_
 _atom_site_type_symbol
 _atom_site_label
 _atom_site_symmetry_multiplicity
 _atom_site_fract_x
 _atom_site_fract_y
 _atom_site_fract_z
 _atom_site_occupancy
  Ba  Ba0  1  0.33530211  0.83530211  0.50857775  1
  Ba  Ba1  1  0.16469789  0.33530211  0.49142225  1
  Ba  Ba2  1  0.66469789  0.16469789  0.50857775  1
  Ba  Ba3  1  0.83530211  0.66469789  0.49142225  1
  Mg  Mg0  1  0.50000000  0.50000000  -0.00000000  1
  Mg  Mg1  1  -0.00000000  -0.00000000  -0.00000000  1
  Ge  Ge0  1  0.14101396  0.64101396  0.95813605  1
  Ge  Ge1  1  0.35898604  0.14101396  0.04186395  1
  Ge  Ge2  1  0.85898604  0.35898604  0.95813605  1
  Ge  Ge3  1  0.64101396  0.85898604  0.04186395  1
  O  O0  1  0.50000000  -0.00000000  0.16001640  1
  O  O1  1  -0.00000000  0.50000000  0.83998360  1
  O  O2  1  0.13852078  0.63852078  0.26819972  1
  O  O3  1  0.36147922  0.13852078  0.73180028  1
  O  O4  1  0.86147922  0.36147922  0.26819972  1
  O  O5  1  0.63852078  0.86147922  0.73180028  1
  O  O6  1  0.31698319  0.57876574  0.81489430  1
  O  O7  1  0.18301681  0.07876574  0.18510570  1
  O  O8  1  0.68301681  0.42123426  0.81489430  1
  O  O9  1  0.81698319  0.92123426  0.18510570  1
  O  O10  1  0.57876574  0.68301681  0.18510570  1
  O  O11  1  0.92123426  0.18301681  0.81489430  1
  O  O12  1  0.42123426  0.31698319  0.18510570  1
  O  O13  1  0.07876574  0.81698319  0.81489430  1
loop_
_geom_bond_atom_site_label_1
_geom_bond_atom_site_label_2
_geom_bond_distance
_geom_bond_site_symmetry_2
Ba0 O2 2.697460 1_555
Ba0 O13 2.757073 1_555
Ba0 O6 2.757073 1_555
Ba0 O0 2.760993 1_565
Ba0 O3 2.846311 1_565
Ba0 O5 2.846311 1_555
Ba0 O7 3.015280 1_565
Ba0 O10 3.015280 1_555
Ba1 O3 2.697460 1_555
Ba1 O7 2.757073 1_555
Ba1 O12 2.757073 1_555
Ba1 O1 2.760993 1_555
Ba1 O2 2.846311 1_555
Ba1 O4 2.846311 1_455
Ba1 O6 3.015280 1_555
Ba1 O11 3.015280 1_455
Ba2 O4 2.697460 1_555
Ba2 O11 2.757073 1_555
Ba2 O8 2.757073 1_555
Ba2 O0 2.760993 1_555
Ba2 O3 2.846311 1_555
Ba2 O5 2.846311 1_545
Ba2 O12 3.015280 1_555
Ba2 O9 3.015280 1_545
Ba3 O5 2.697460 1_555
Ba3 O9 2.757073 1_555
Ba3 O10 2.757073 1_555
Ba3 O1 2.760993 1_655
Ba3 O2 2.846311 1_655
Ba3 O4 2.846311 1_555
Ba3 O13 3.015280 1_655
Ba3 O8 3.015280 1_555
Mg0 O12 1.968424 1_555
Mg0 O10 1.968424 1_555
Mg0 O6 1.968424 1_554
Mg0 O8 1.968424 1_554
Mg1 O7 1.968424 1_555
Mg1 O9 1.968424 1_445
Mg1 O11 1.968424 1_454
Mg1 O13 1.968424 1_544
Ge0 O2 1.731574 1_556
Ge0 O13 1.761424 1_555
Ge0 O6 1.761424 1_555
Ge0 O1 1.801844 1_555
Ge1 O3 1.731574 1_554
Ge1 O7 1.761424 1_555
Ge1 O12 1.761424 1_555
Ge1 O0 1.801844 1_555
Ge2 O4 1.731574 1_556
Ge2 O11 1.761424 1_555
Ge2 O8 1.761424 1_555
Ge2 O1 1.801844 1_655
Ge3 O5 1.731574 1_554
Ge3 O10 1.761424 1_555
Ge3 O9 1.761424 1_555
Ge3 O0 1.801844 1_565
