# generated using pymatgen
data_Rb2VAgSe2
_symmetry_space_group_name_H-M   'P 1'
_cell_length_a   11.05846901
_cell_length_b   7.16209302
_cell_length_c   21.47001566
_cell_angle_alpha   78.53209906
_cell_angle_beta   75.07627908
_cell_angle_gamma   39.46492943
_symmetry_Int_Tables_number   1
_chemical_formula_structural   Rb2VAgSe2
_chemical_formula_sum   'Rb8 V4 Ag4 Se8'
_cell_volume   1044.36776882
_cell_formula_units_Z   4
loop_
 _symmetry_equiv_pos_site_id
 _symmetry_equiv_pos_as_xyz
  1  'x, y, z'
loop_
 _atom_site_type_symbol
 _atom_site_label
 _atom_site_symmetry_multiplicity
 _atom_site_fract_x
 _atom_site_fract_y
 _atom_site_fract_z
 _atom_site_occupancy
  Rb  Rb0  1  0.85933740  0.05280773  0.61087405  1
  Rb  Rb1  1  0.52978854  0.94719227  0.61087405  1
  Rb  Rb2  1  0.08785487  0.05280773  0.38912595  1
  Rb  Rb3  1  0.89066260  0.44719227  0.88912595  1
  Rb  Rb4  1  0.52301919  0.94719227  0.38912595  1
  Rb  Rb5  1  0.22021146  0.55280773  0.88912595  1
  Rb  Rb6  1  0.66214513  0.44719227  0.11087405  1
  Rb  Rb7  1  0.22698081  0.55280773  0.11087405  1
  V  V0  1  0.87500000  0.25000000  0.25000000  1
  V  V1  1  0.87500000  0.75000000  0.25000000  1
  V  V2  1  0.87500000  0.25000000  0.75000000  1
  V  V3  1  0.37500000  0.75000000  0.75000000  1
  Ag  Ag0  1  0.37500000  0.25000000  0.25000000  1
  Ag  Ag1  1  0.37500000  0.75000000  0.25000000  1
  Ag  Ag2  1  0.37500000  0.25000000  0.75000000  1
  Ag  Ag3  1  0.87500000  0.75000000  0.75000000  1
  Se  Se0  1  0.12544080  0.21302486  0.19272223  1
  Se  Se1  1  0.68183696  0.78697514  0.19272223  1
  Se  Se2  1  0.66153434  0.21302486  0.80727777  1
  Se  Se3  1  0.62455920  0.28697514  0.30727777  1
  Se  Se4  1  0.53118790  0.78697514  0.80727777  1
  Se  Se5  1  0.06816304  0.71302486  0.30727777  1
  Se  Se6  1  0.08846566  0.28697514  0.69272223  1
  Se  Se7  1  0.21881210  0.71302486  0.69272223  1
loop_
_geom_bond_atom_site_label_1
_geom_bond_atom_site_label_2
_geom_bond_distance
_geom_bond_site_symmetry_2
Rb0 Se7 3.431248 1_645
Rb0 V2 3.642617 1_555
Rb1 Se6 3.431248 1_565
Rb1 V3 3.642617 1_555
Rb2 Se5 3.431248 1_545
Rb2 V0 3.642617 1_455
Rb3 Se4 3.431248 1_555
Rb3 V2 3.642617 1_555
Rb4 Se3 3.431248 1_565
Rb4 V1 3.642617 1_555
Rb5 Se2 3.431248 1_555
Rb5 V3 3.642617 1_555
Rb6 Se1 3.431248 1_555
Rb6 V0 3.642617 1_555
Rb7 Se0 3.431248 1_555
Rb7 V1 3.642617 1_455
Ag0 Se5 2.474148 1_555
Ag0 Se1 2.474148 1_545
Ag0 Rb4 3.281213 1_545
Ag0 Rb7 3.281213 1_555
Ag1 Se0 2.474148 1_565
Ag1 Se3 2.474148 1_555
Ag1 Rb6 3.281213 1_555
Ag1 Rb2 3.281213 1_565
Ag2 Se4 2.474148 1_545
Ag2 Se7 2.474148 1_555
Ag2 Rb1 3.281213 1_545
Ag2 Rb5 3.281213 1_555
Ag3 Se2 2.474148 1_565
Ag3 Se6 2.474148 1_655
Ag3 Rb3 3.281213 1_555
Ag3 Rb0 3.281213 1_565
Se0 V0 2.548605 1_455
Se0 V1 2.766567 1_455
Se1 V1 2.548605 1_555
Se1 V0 2.766567 1_555
Se2 V2 2.548605 1_555
Se2 V3 2.766567 1_555
Se3 V0 2.548605 1_555
Se3 V1 2.766567 1_545
Se4 V3 2.548605 1_555
Se4 V2 2.766567 1_555
Se5 V1 2.548605 1_455
Se5 V0 2.766567 1_465
Se6 V2 2.548605 1_455
Se6 V3 2.766567 1_545
Se7 V3 2.548605 1_555
Se7 V2 2.766567 1_465
