# generated using pymatgen
data_Na2HgSb
_symmetry_space_group_name_H-M   'P 1'
_cell_length_a   12.17968710
_cell_length_b   12.17968710
_cell_length_c   12.17968710
_cell_angle_alpha   120.22833177
_cell_angle_beta   119.93069301
_cell_angle_gamma   89.86252932
_symmetry_Int_Tables_number   1
_chemical_formula_structural   Na2HgSb
_chemical_formula_sum   'Na2 Hg1 Sb1'
_cell_volume   1276.04534055
_cell_formula_units_Z   1
loop_
 _symmetry_equiv_pos_site_id
 _symmetry_equiv_pos_as_xyz
  1  'x, y, z'
loop_
 _atom_site_type_symbol
 _atom_site_label
 _atom_site_symmetry_multiplicity
 _atom_site_fract_x
 _atom_site_fract_y
 _atom_site_fract_z
 _atom_site_occupancy
  Na  Na0  1  0.24079900  0.00000000  0.24079900  1
  Na  Na1  1  0.75920100  0.00000000  0.75920100  1
  Hg  Hg0  1  0.50000000  0.00000000  0.50000000  1
  Sb  Sb0  1  0.00000000  0.00000000  0.00000000  1
loop_
_geom_bond_atom_site_label_1
_geom_bond_atom_site_label_2
_geom_bond_distance
_geom_bond_site_symmetry_2
Na0 Sb0 2.935928 1_555
Na1 Sb0 2.935928 1_656
Hg0 Na1 3.160294 1_555
Hg0 Na0 3.160294 1_555
