# generated using pymatgen
data_Ba2YBi3O8
_symmetry_space_group_name_H-M   'P 1'
_cell_length_a   4.40152800
_cell_length_b   4.40152800
_cell_length_c   13.61770300
_cell_angle_alpha   90.00000000
_cell_angle_beta   90.00000000
_cell_angle_gamma   90.00000000
_symmetry_Int_Tables_number   1
_chemical_formula_structural   Ba2YBi3O8
_chemical_formula_sum   'Ba2 Y1 Bi3 O8'
_cell_volume   263.82187096
_cell_formula_units_Z   1
loop_
 _symmetry_equiv_pos_site_id
 _symmetry_equiv_pos_as_xyz
  1  'x, y, z'
loop_
 _atom_site_type_symbol
 _atom_site_label
 _atom_site_symmetry_multiplicity
 _atom_site_fract_x
 _atom_site_fract_y
 _atom_site_fract_z
 _atom_site_occupancy
  Ba  Ba0  1  0.50000000  0.50000000  0.14482000  1
  Ba  Ba1  1  0.50000000  0.50000000  0.85518000  1
  Y  Y0  1  0.50000000  0.50000000  0.50000000  1
  Bi  Bi0  1  0.00000000  0.00000000  0.34592500  1
  Bi  Bi1  1  0.00000000  0.00000000  0.00000000  1
  Bi  Bi2  1  0.00000000  0.00000000  0.65407500  1
  O  O0  1  0.00000000  0.50000000  0.40090700  1
  O  O1  1  0.50000000  0.00000000  0.40090700  1
  O  O2  1  0.50000000  0.00000000  0.00000000  1
  O  O3  1  0.00000000  0.00000000  0.17962200  1
  O  O4  1  0.00000000  0.50000000  0.59909300  1
  O  O5  1  0.50000000  0.00000000  0.59909300  1
  O  O6  1  0.00000000  0.00000000  0.82037800  1
  O  O7  1  0.00000000  0.50000000  0.00000000  1
loop_
_geom_bond_atom_site_label_1
_geom_bond_atom_site_label_2
_geom_bond_distance
_geom_bond_site_symmetry_2
Ba0 O2 2.955098 1_555
Ba0 O2 2.955098 1_565
Ba0 O7 2.955098 1_655
Ba0 O7 2.955098 1_555
Ba0 O3 3.148226 1_565
Ba0 O3 3.148226 1_665
Ba0 O3 3.148226 1_555
Ba0 O3 3.148226 1_655
Ba1 O2 2.955098 1_566
Ba1 O7 2.955098 1_656
Ba1 O2 2.955098 1_556
Ba1 O7 2.955098 1_556
Ba1 O6 3.148226 1_665
Ba1 O6 3.148226 1_555
Ba1 O6 3.148226 1_655
Ba1 O6 3.148226 1_565
Bi0 O3 2.264665 1_555
Bi0 O1 2.324641 1_555
Bi0 O0 2.324641 1_555
Bi0 O0 2.324641 1_545
Bi0 O1 2.324641 1_455
Bi1 O2 2.200764 1_555
Bi1 O7 2.200764 1_545
Bi1 O7 2.200764 1_555
Bi1 O2 2.200764 1_455
Bi1 O6 2.446039 1_554
Bi1 O3 2.446039 1_555
Bi2 O6 2.264665 1_555
Bi2 O5 2.324641 1_555
Bi2 O4 2.324641 1_545
Bi2 O4 2.324641 1_555
Bi2 O5 2.324641 1_455
O0 Y0 2.581529 1_555
O0 Y0 2.581529 1_455
O1 Y0 2.581529 1_555
O1 Y0 2.581529 1_545
O4 Y0 2.581529 1_555
O4 Y0 2.581529 1_455
O5 Y0 2.581529 1_555
O5 Y0 2.581529 1_545
