# generated using pymatgen
data_Mg2Fe2(SiO4)3
_symmetry_space_group_name_H-M   'P 1'
_cell_length_a   10.08631252
_cell_length_b   10.08631252
_cell_length_c   10.08631252
_cell_angle_alpha   109.63218995
_cell_angle_beta   109.63218995
_cell_angle_gamma   109.14975947
_symmetry_Int_Tables_number   1
_chemical_formula_structural   Mg2Fe2(SiO4)3
_chemical_formula_sum   'Mg8 Fe8 Si12 O48'
_cell_volume   789.88728660
_cell_formula_units_Z   4
loop_
 _symmetry_equiv_pos_site_id
 _symmetry_equiv_pos_as_xyz
  1  'x, y, z'
loop_
 _atom_site_type_symbol
 _atom_site_label
 _atom_site_symmetry_multiplicity
 _atom_site_fract_x
 _atom_site_fract_y
 _atom_site_fract_z
 _atom_site_occupancy
  Mg  Mg0  1  0.62500000  0.25381800  0.12881800  1
  Mg  Mg1  1  0.12500000  0.49618200  0.87118200  1
  Mg  Mg2  1  0.00381800  0.37500000  0.12881800  1
  Mg  Mg3  1  0.24618200  0.87500000  0.87118200  1
  Mg  Mg4  1  0.12500000  0.99618200  0.37118200  1
  Mg  Mg5  1  0.62500000  0.75381800  0.62881800  1
  Mg  Mg6  1  0.74618200  0.87500000  0.37118200  1
  Mg  Mg7  1  0.50381800  0.37500000  0.62881800  1
  Fe  Fe0  1  0.37500000  0.62500000  0.25000000  1
  Fe  Fe1  1  0.37500000  0.12500000  0.25000000  1
  Fe  Fe2  1  0.87500000  0.62500000  0.25000000  1
  Fe  Fe3  1  0.87500000  0.12500000  0.25000000  1
  Fe  Fe4  1  0.87500000  0.62500000  0.75000000  1
  Fe  Fe5  1  0.37500000  0.12500000  0.75000000  1
  Fe  Fe6  1  0.87500000  0.12500000  0.75000000  1
  Fe  Fe7  1  0.37500000  0.62500000  0.75000000  1
  Si  Si0  1  0.75000000  0.25000000  0.50000000  1
  Si  Si1  1  0.12500000  0.75088800  0.12588800  1
  Si  Si2  1  0.24911200  0.37500000  0.37411200  1
  Si  Si3  1  0.62500000  0.99911200  0.87411200  1
  Si  Si4  1  0.74911200  0.37500000  0.87411200  1
  Si  Si5  1  0.00088800  0.87500000  0.62588800  1
  Si  Si6  1  0.25000000  0.75000000  0.50000000  1
  Si  Si7  1  0.50088800  0.87500000  0.12588800  1
  Si  Si8  1  0.50000000  0.50000000  0.00000000  1
  Si  Si9  1  0.62500000  0.49911200  0.37411200  1
  Si  Si10  1  0.12500000  0.25088800  0.62588800  1
  Si  Si11  1  0.00000000  0.00000000  0.00000000  1
  O  O0  1  0.56568500  0.22202400  0.45484200  1
  O  O1  1  0.98236900  0.10693900  0.43489600  1
  O  O2  1  0.57795700  0.64306100  0.37543000  1
  O  O3  1  0.49820400  0.82346100  0.26337800  1
  O  O4  1  0.75179600  0.51517300  0.82525600  1
  O  O5  1  0.97202400  0.01718300  0.15633900  1
  O  O6  1  0.86084300  0.81568500  0.84366100  1
  O  O7  1  0.29747300  0.23236900  0.37543000  1
  O  O8  1  0.26517300  0.93991700  0.26337800  1
  O  O9  1  0.85693900  0.92204300  0.62457000  1
  O  O10  1  0.98482700  0.74820400  0.17474400  1
  O  O11  1  0.39306100  0.51763100  0.56510400  1
  O  O12  1  0.67653900  0.00179600  0.73662200  1
  O  O13  1  0.57346100  0.81008300  0.82525600  1
  O  O14  1  0.95252700  0.82795700  0.43489600  1
  O  O15  1  0.48281700  0.52797600  0.84366100  1
  O  O16  1  0.67204300  0.54747300  0.56510400  1
  O  O17  1  0.68431500  0.63915700  0.15633900  1
  O  O18  1  0.68991700  0.92653900  0.17474400  1
  O  O19  1  0.76718300  0.11084300  0.54515800  1
  O  O20  1  0.27797600  0.93431500  0.54515800  1
  O  O21  1  0.26763100  0.20252700  0.62457000  1
  O  O22  1  0.56008300  0.23482700  0.73662200  1
  O  O23  1  0.38915700  0.73281700  0.45484200  1
  O  O24  1  0.18431500  0.02797600  0.04515800  1
  O  O25  1  0.76763100  0.14306100  0.06510400  1
  O  O26  1  0.17204300  0.60693900  0.12457000  1
  O  O27  1  0.25179600  0.42653900  0.23662200  1
  O  O28  1  0.99820400  0.73482700  0.67474400  1
  O  O29  1  0.77797600  0.23281700  0.34366100  1
  O  O30  1  0.88915700  0.43431500  0.65633900  1
  O  O31  1  0.45252700  0.01763100  0.12457000  1
  O  O32  1  0.48482700  0.31008300  0.23662200  1
  O  O33  1  0.89306100  0.32795700  0.87543000  1
  O  O34  1  0.76517300  0.50179600  0.32525600  1
  O  O35  1  0.35693900  0.73236900  0.93489600  1
  O  O36  1  0.07346100  0.24820400  0.76337800  1
  O  O37  1  0.17653900  0.43991700  0.67474400  1
  O  O38  1  0.79747300  0.42204300  0.06510400  1
  O  O39  1  0.26718300  0.72202400  0.65633900  1
  O  O40  1  0.07795700  0.70252700  0.93489600  1
  O  O41  1  0.06568500  0.61084300  0.34366100  1
  O  O42  1  0.06008300  0.32346100  0.32525600  1
  O  O43  1  0.98281700  0.13915700  0.95484200  1
  O  O44  1  0.47202400  0.31568500  0.95484200  1
  O  O45  1  0.48236900  0.04747300  0.87543000  1
  O  O46  1  0.18991700  0.01517300  0.76337800  1
  O  O47  1  0.36084300  0.51718300  0.04515800  1
loop_
_geom_bond_atom_site_label_1
_geom_bond_atom_site_label_2
_geom_bond_distance
_geom_bond_site_symmetry_2
Mg0 O32 2.155938 1_555
Mg0 O34 2.155945 1_555
Mg0 O25 2.218969 1_555
Mg0 O45 2.218969 1_554
Mg0 O44 2.323247 1_554
Mg0 O29 2.323253 1_555
Mg0 O31 2.421910 1_555
Mg0 O38 2.421910 1_555
Mg1 O37 2.155938 1_555
Mg1 O36 2.155948 1_555
Mg1 O40 2.218969 1_555
Mg1 O26 2.218969 1_556
Mg1 O47 2.323242 1_556
Mg1 O30 2.323247 1_455
Mg1 O33 2.421910 1_455
Mg1 O35 2.421910 1_555
Mg2 O42 2.155938 1_555
Mg2 O27 2.155948 1_555
Mg2 O33 2.218969 1_454
Mg2 O38 2.218969 1_455
Mg2 O43 2.323242 1_454
Mg2 O41 2.323247 1_555
Mg2 O26 2.421910 1_555
Mg2 O25 2.421910 1_455
Mg3 O46 2.155938 1_565
Mg3 O28 2.155945 1_455
Mg3 O35 2.218969 1_555
Mg3 O31 2.218969 1_566
Mg3 O24 2.323247 1_566
Mg3 O39 2.323253 1_555
Mg3 O40 2.421910 1_555
Mg3 O45 2.421910 1_565
Mg4 O8 2.155938 1_555
Mg4 O10 2.155945 1_455
Mg4 O21 2.218969 1_565
Mg4 O1 2.218969 1_465
Mg4 O20 2.323247 1_555
Mg4 O5 2.323253 1_465
Mg4 O14 2.421910 1_455
Mg4 O7 2.421910 1_565
Mg5 O13 2.155938 1_555
Mg5 O12 2.155948 1_565
Mg5 O16 2.218969 1_555
Mg5 O2 2.218969 1_555
Mg5 O23 2.323242 1_555
Mg5 O6 2.323247 1_555
Mg5 O9 2.421910 1_555
Mg5 O11 2.421910 1_555
Mg6 O18 2.155938 1_555
Mg6 O3 2.155948 1_555
Mg6 O9 2.218969 1_555
Mg6 O14 2.218969 1_555
Mg6 O19 2.323242 1_565
Mg6 O17 2.323247 1_555
Mg6 O2 2.421910 1_555
Mg6 O1 2.421910 1_565
Mg7 O22 2.155938 1_555
Mg7 O4 2.155945 1_555
Mg7 O11 2.218969 1_555
Mg7 O7 2.218969 1_555
Mg7 O0 2.323247 1_555
Mg7 O15 2.323253 1_555
Mg7 O16 2.421910 1_555
Mg7 O21 2.421910 1_555
Fe0 O27 1.908726 1_555
Fe0 O3 1.908726 1_555
Fe0 O47 1.913598 1_555
Fe0 O23 1.913598 1_555
Fe0 O26 1.919508 1_555
Fe0 O2 1.919508 1_555
Fe1 O8 1.908729 1_545
Fe1 O32 1.908729 1_555
Fe1 O24 1.913600 1_555
Fe1 O0 1.913600 1_555
Fe1 O31 1.919508 1_555
Fe1 O7 1.919508 1_555
Fe2 O10 1.908723 1_555
Fe2 O34 1.908723 1_555
Fe2 O41 1.913600 1_655
Fe2 O17 1.913600 1_555
Fe2 O38 1.919508 1_555
Fe2 O14 1.919508 1_555
Fe3 O18 1.908729 1_545
Fe3 O42 1.908729 1_655
Fe3 O5 1.913594 1_555
Fe3 O29 1.913594 1_555
Fe3 O1 1.919508 1_555
Fe3 O25 1.919508 1_555
Fe4 O4 1.908723 1_555
Fe4 O28 1.908723 1_555
Fe4 O6 1.913600 1_555
Fe4 O30 1.913600 1_555
Fe4 O16 1.919508 1_555
Fe4 O40 1.919508 1_655
Fe5 O46 1.908729 1_555
Fe5 O22 1.908729 1_555
Fe5 O20 1.913600 1_545
Fe5 O44 1.913600 1_555
Fe5 O45 1.919508 1_555
Fe5 O21 1.919508 1_555
Fe6 O12 1.908726 1_555
Fe6 O36 1.908726 1_655
Fe6 O19 1.913598 1_555
Fe6 O43 1.913598 1_555
Fe6 O33 1.919508 1_555
Fe6 O9 1.919508 1_545
Fe7 O37 1.908729 1_555
Fe7 O13 1.908729 1_555
Fe7 O15 1.913594 1_555
Fe7 O39 1.913594 1_555
Fe7 O11 1.919508 1_555
Fe7 O35 1.919508 1_555
O0 Si0 1.656401 1_555
O1 Si10 1.666321 1_655
O2 Si9 1.666321 1_555
O3 Si7 1.641492 1_555
O4 Si4 1.641488 1_555
O5 Si11 1.656399 1_655
O6 Si11 1.656401 1_666
O7 Si2 1.666321 1_555
O8 Si1 1.641490 1_555
O9 Si5 1.666321 1_655
O10 Si1 1.641488 1_655
O11 Si2 1.666321 1_555
O12 Si3 1.641492 1_545
O13 Si3 1.641490 1_555
O14 Si5 1.666321 1_655
O15 Si8 1.656399 1_556
O16 Si9 1.666321 1_555
O17 Si8 1.656401 1_555
O18 Si7 1.641490 1_555
O19 Si0 1.656404 1_555
O20 Si6 1.656401 1_555
O21 Si10 1.666321 1_555
O22 Si4 1.641490 1_555
O23 Si6 1.656404 1_555
O24 Si11 1.656401 1_555
O25 Si3 1.666321 1_544
O26 Si1 1.666321 1_555
O27 Si2 1.641492 1_555
O28 Si5 1.641488 1_655
O29 Si0 1.656399 1_555
O30 Si0 1.656401 1_555
O31 Si7 1.666321 1_545
O32 Si9 1.641490 1_555
O33 Si4 1.666321 1_555
O34 Si9 1.641488 1_555
O35 Si7 1.666321 1_556
O36 Si10 1.641492 1_555
O37 Si10 1.641490 1_555
O38 Si4 1.666321 1_554
O39 Si6 1.656399 1_555
O40 Si1 1.666321 1_556
O41 Si6 1.656401 1_555
O42 Si2 1.641490 1_555
O43 Si11 1.656404 1_656
O44 Si8 1.656401 1_556
O45 Si3 1.666321 1_545
O46 Si5 1.641490 1_545
O47 Si8 1.656404 1_555
