# generated using pymatgen
data_LuGaAg
_symmetry_space_group_name_H-M   'P 1'
_cell_length_a   5.68743943
_cell_length_b   5.68743943
_cell_length_c   7.00909910
_cell_angle_alpha   52.26088335
_cell_angle_beta   52.26088335
_cell_angle_gamma   46.93455438
_symmetry_Int_Tables_number   1
_chemical_formula_structural   LuGaAg
_chemical_formula_sum   'Lu2 Ga2 Ag2'
_cell_volume   123.37171015
_cell_formula_units_Z   2
loop_
 _symmetry_equiv_pos_site_id
 _symmetry_equiv_pos_as_xyz
  1  'x, y, z'
loop_
 _atom_site_type_symbol
 _atom_site_label
 _atom_site_symmetry_multiplicity
 _atom_site_fract_x
 _atom_site_fract_y
 _atom_site_fract_z
 _atom_site_occupancy
  Lu  Lu0  1  0.53725600  0.53725600  0.70940700  1
  Lu  Lu1  1  0.46274400  0.46274400  0.29059300  1
  Ga  Ga0  1  0.84019600  0.84019600  0.11715300  1
  Ga  Ga1  1  0.15980400  0.15980400  0.88284700  1
  Ag  Ag0  1  0.17302300  0.17302300  0.27855300  1
  Ag  Ag1  1  0.82697700  0.82697700  0.72144700  1
loop_
_geom_bond_atom_site_label_1
_geom_bond_atom_site_label_2
_geom_bond_distance
_geom_bond_site_symmetry_2
Lu0 Lu1 3.502477 1_555
Lu0 Lu1 3.601680 1_556
Ga0 Ga1 2.551330 1_664
Ga0 Lu0 3.111777 1_654
Ga0 Lu0 3.111777 1_564
Ga0 Lu0 3.116525 1_555
Ga0 Lu1 3.211996 1_565
Ga0 Lu1 3.211996 1_655
Ga0 Lu1 3.255637 1_555
Ga1 Lu1 3.111777 1_456
Ga1 Lu1 3.111777 1_546
Ga1 Lu1 3.116525 1_555
Ga1 Lu0 3.211996 1_455
Ga1 Lu0 3.211996 1_545
Ga1 Lu0 3.255637 1_555
Ag0 Ga0 2.611256 1_455
Ag0 Ga0 2.611256 1_545
Ag0 Ag1 2.777680 1_445
Ag0 Ga1 2.867417 1_554
Ag0 Lu1 3.079910 1_555
Ag0 Lu1 3.115062 1_455
Ag0 Lu1 3.115062 1_545
Ag0 Lu0 3.181952 1_554
Ag0 Lu0 3.247645 1_545
Ag0 Lu0 3.247645 1_455
Ag1 Ga1 2.611256 1_565
Ag1 Ga1 2.611256 1_655
Ag1 Ga0 2.867417 1_556
Ag1 Lu0 3.079910 1_555
Ag1 Lu0 3.115062 1_565
Ag1 Lu0 3.115062 1_655
Ag1 Lu1 3.181952 1_556
Ag1 Lu1 3.247645 1_655
Ag1 Lu1 3.247645 1_565
