# generated using pymatgen
data_Ba10MgAs6(ClO12)2
_symmetry_space_group_name_H-M   'P 1'
_cell_length_a   11.16150591
_cell_length_b   10.74577735
_cell_length_c   7.78622207
_cell_angle_alpha   90.00000000
_cell_angle_beta   90.00000000
_cell_angle_gamma   116.76515337
_symmetry_Int_Tables_number   1
_chemical_formula_structural   Ba10MgAs6(ClO12)2
_chemical_formula_sum   'Ba10 Mg1 As6 Cl2 O24'
_cell_volume   833.81695511
_cell_formula_units_Z   1
loop_
 _symmetry_equiv_pos_site_id
 _symmetry_equiv_pos_as_xyz
  1  'x, y, z'
loop_
 _atom_site_type_symbol
 _atom_site_label
 _atom_site_symmetry_multiplicity
 _atom_site_fract_x
 _atom_site_fract_y
 _atom_site_fract_z
 _atom_site_occupancy
  Ba  Ba0  1  0.66327441  0.33468229  0.50225532  1
  Ba  Ba1  1  0.26264674  0.63908420  0.52020663  1
  Ba  Ba2  1  0.99034118  0.24563597  0.25000000  1
  Ba  Ba3  1  0.26264674  0.63908420  0.97979337  1
  Ba  Ba4  1  0.79380504  0.75186635  0.25000000  1
  Ba  Ba5  1  0.27826143  0.98704067  0.25000000  1
  Ba  Ba6  1  0.71174470  0.98489504  0.75000000  1
  Ba  Ba7  1  0.98054684  0.75288106  0.75000000  1
  Ba  Ba8  1  0.66327441  0.33468229  0.99774468  1
  Ba  Ba9  1  0.25389581  0.25180499  0.75000000  1
  Mg  Mg0  1  0.48807486  0.71980217  0.25000000  1
  As  As0  1  0.97002426  0.57022607  0.25000000  1
  As  As1  1  0.56169143  0.61660515  0.75000000  1
  As  As2  1  0.34783661  0.95361770  0.75000000  1
  As  As3  1  0.41784238  0.38590331  0.25000000  1
  As  As4  1  0.00186306  0.38316549  0.75000000  1
  As  As5  1  0.66260208  0.05706322  0.25000000  1
  Cl  Cl0  1  0.99166209  0.00087542  0.99741412  1
  Cl  Cl1  1  0.99166209  0.00087542  0.50258588  1
  O  O0  1  0.61181781  0.72193498  0.93203520  1
  O  O1  1  0.36302437  0.51589682  0.25000000  1
  O  O2  1  0.36430271  0.28100339  0.42832639  1
  O  O3  1  0.38693892  0.52879384  0.75000000  1
  O  O4  1  0.07629414  0.34982720  0.57236719  1
  O  O5  1  0.63152010  0.50169939  0.75000000  1
  O  O6  1  0.82982527  0.30208317  0.75000000  1
  O  O7  1  0.06071400  0.56275752  0.75000000  1
  O  O8  1  0.59188881  0.47315640  0.25000000  1
  O  O9  1  0.75119853  0.12522269  0.06379959  1
  O  O10  1  0.07629414  0.34982720  0.92763281  1
  O  O11  1  0.84721895  0.39308947  0.25000000  1
  O  O12  1  0.43668661  0.85667897  0.75000000  1
  O  O13  1  0.91476616  0.63590878  0.07012321  1
  O  O14  1  0.91476616  0.63590878  0.42987679  1
  O  O15  1  0.45232581  0.13029629  0.75000000  1
  O  O16  1  0.36430271  0.28100339  0.07167361  1
  O  O17  1  0.75119853  0.12522269  0.43620041  1
  O  O18  1  0.34624754  0.77439494  0.25000000  1
  O  O19  1  0.23882675  0.89629863  0.92339428  1
  O  O20  1  0.64537105  0.88947717  0.25000000  1
  O  O21  1  0.23882675  0.89629863  0.57660572  1
  O  O22  1  0.61181781  0.72193498  0.56796480  1
  O  O23  1  0.53763018  0.11024371  0.25000000  1
loop_
_geom_bond_atom_site_label_1
_geom_bond_atom_site_label_2
_geom_bond_distance
_geom_bond_site_symmetry_2
Ba0 O11 2.703015 1_555
Ba0 O5 2.764164 1_555
Ba0 O8 2.788299 1_555
Ba0 O6 2.808198 1_555
Ba0 O17 2.878052 1_555
Ba0 O23 2.931686 1_555
Ba0 O15 3.070973 1_555
Ba0 O2 3.172668 1_555
Ba0 O14 3.238985 1_555
Ba1 O18 2.487815 1_555
Ba1 O7 2.699813 1_555
Ba1 O3 2.830427 1_555
Ba1 O4 2.886129 1_555
Ba1 O12 2.889837 1_555
Ba1 O21 2.926586 1_555
Ba1 O1 2.961356 1_555
Ba2 O11 2.709664 1_555
Ba2 O10 2.739837 1_654
Ba2 O4 2.739837 1_655
Ba2 O9 2.791070 1_555
Ba2 O17 2.791070 1_555
Ba2 Cl0 3.289477 1_554
Ba2 Cl1 3.289477 1_555
Ba3 O18 2.487815 1_556
Ba3 O7 2.699813 1_555
Ba3 O3 2.830427 1_555
Ba3 O10 2.886129 1_555
Ba3 O12 2.889837 1_555
Ba3 O19 2.926586 1_555
Ba3 O1 2.961356 1_556
Ba4 O13 2.617674 1_555
Ba4 O14 2.617674 1_555
Ba4 O20 2.671705 1_555
Ba4 O8 2.823053 1_555
Ba4 O22 3.125750 1_555
Ba4 O0 3.125750 1_554
Ba4 Cl0 3.253074 1_564
Ba4 Cl1 3.253074 1_565
Ba5 O23 2.584860 1_565
Ba5 O21 2.687928 1_555
Ba5 O19 2.687928 1_554
Ba5 O18 2.712741 1_555
Ba5 O16 3.177464 1_565
Ba5 O2 3.177464 1_565
Ba5 Cl0 3.814594 1_464
Ba5 Cl1 3.814594 1_465
Ba6 O12 2.741140 1_555
Ba6 O9 2.799906 1_566
Ba6 O17 2.799906 1_565
Ba6 O0 2.898099 1_555
Ba6 O22 2.898099 1_555
Ba6 O6 3.050978 1_565
Ba6 Cl1 3.608132 1_565
Ba6 Cl0 3.608132 1_565
Ba7 O7 2.573146 1_655
Ba7 O13 2.738725 1_556
Ba7 O14 2.738725 1_555
Ba7 O21 2.916651 1_655
Ba7 O19 2.916651 1_655
Ba7 Cl1 3.245053 1_565
Ba7 Cl0 3.245053 1_565
Ba8 O11 2.703015 1_556
Ba8 O5 2.764164 1_555
Ba8 O8 2.788299 1_556
Ba8 O6 2.808198 1_555
Ba8 O9 2.878052 1_556
Ba8 O23 2.931686 1_556
Ba8 O15 3.070973 1_555
Ba8 O16 3.172668 1_556
Ba8 O13 3.238985 1_556
Ba9 O3 2.661491 1_555
Ba9 O16 2.746255 1_556
Ba9 O2 2.746255 1_555
Ba9 O4 2.971961 1_555
Ba9 O10 2.971961 1_555
Ba9 O15 3.035573 1_555
Ba9 Cl1 3.527098 1_455
Ba9 Cl0 3.527098 1_455
Mg0 O20 1.877131 1_555
Mg0 O18 1.920019 1_555
Mg0 O1 1.998663 1_555
As0 O11 1.775412 1_555
As0 O13 1.797837 1_555
As0 O14 1.797837 1_555
As1 O5 1.731713 1_555
As1 O0 1.741461 1_555
As1 O22 1.741461 1_555
As1 O3 1.742745 1_555
As2 O15 1.723480 1_565
As2 O12 1.731760 1_555
As2 O21 1.734222 1_555
As2 O19 1.734222 1_555
As3 O2 1.717252 1_555
As3 O16 1.717252 1_555
As3 O8 1.735623 1_555
As3 O1 1.759383 1_555
As4 O6 1.714483 1_455
As4 O4 1.731905 1_555
As4 O10 1.731905 1_555
As4 O7 1.736110 1_555
As5 O17 1.721596 1_555
As5 O9 1.721596 1_555
As5 O20 1.722811 1_545
As5 O23 1.729217 1_555
