# generated using pymatgen
data_Ho(BiO3)2
_symmetry_space_group_name_H-M   'P 1'
_cell_length_a   5.60807200
_cell_length_b   6.07460200
_cell_length_c   8.23991500
_cell_angle_alpha   90.00000000
_cell_angle_beta   90.00000000
_cell_angle_gamma   90.00000000
_symmetry_Int_Tables_number   1
_chemical_formula_structural   Ho(BiO3)2
_chemical_formula_sum   'Ho2 Bi4 O12'
_cell_volume   280.70758071
_cell_formula_units_Z   2
loop_
 _symmetry_equiv_pos_site_id
 _symmetry_equiv_pos_as_xyz
  1  'x, y, z'
loop_
 _atom_site_type_symbol
 _atom_site_label
 _atom_site_symmetry_multiplicity
 _atom_site_fract_x
 _atom_site_fract_y
 _atom_site_fract_z
 _atom_site_occupancy
  Ho  Ho0  1  0.03421200  0.66123000  0.00000000  1
  Ho  Ho1  1  0.53421200  0.33877000  0.50000000  1
  Bi  Bi0  1  0.00960300  0.23116800  0.75168900  1
  Bi  Bi1  1  0.00960300  0.23116800  0.24831100  1
  Bi  Bi2  1  0.50960300  0.76883200  0.25168900  1
  Bi  Bi3  1  0.50960300  0.76883200  0.74831100  1
  O  O0  1  0.15506000  0.22136900  0.50000000  1
  O  O1  1  0.16922400  0.91909000  0.81884400  1
  O  O2  1  0.16922400  0.91909000  0.18115600  1
  O  O3  1  0.27818400  0.48305800  0.80822800  1
  O  O4  1  0.27818400  0.48305800  0.19177200  1
  O  O5  1  0.40886600  0.69614000  0.50000000  1
  O  O6  1  0.65506000  0.77863100  0.00000000  1
  O  O7  1  0.66922400  0.08091000  0.31884400  1
  O  O8  1  0.66922400  0.08091000  0.68115600  1
  O  O9  1  0.77818400  0.51694200  0.69177200  1
  O  O10  1  0.77818400  0.51694200  0.30822800  1
  O  O11  1  0.90886600  0.30386000  0.00000000  1
loop_
_geom_bond_atom_site_label_1
_geom_bond_atom_site_label_2
_geom_bond_distance
_geom_bond_site_symmetry_2
Ho0 O6 2.242723 1_455
Ho0 O11 2.281855 1_455
Ho0 O2 2.292394 1_555
Ho0 O1 2.292394 1_554
Ho0 O4 2.353809 1_555
Ho0 O3 2.353809 1_554
Ho1 O0 2.242723 1_555
Ho1 O5 2.281855 1_555
Ho1 O8 2.292394 1_555
Ho1 O7 2.292394 1_555
Ho1 O9 2.353809 1_555
Ho1 O10 2.353809 1_555
Bi0 O11 2.168067 1_456
Bi0 O1 2.168268 1_545
Bi0 O8 2.194240 1_455
Bi0 O3 2.197054 1_555
Bi0 O9 2.222980 1_455
Bi0 O0 2.229352 1_555
Bi1 O11 2.168067 1_455
Bi1 O2 2.168268 1_545
Bi1 O7 2.194240 1_455
Bi1 O4 2.197054 1_555
Bi1 O10 2.222980 1_455
Bi1 O0 2.229352 1_555
Bi2 O5 2.168067 1_555
Bi2 O7 2.168268 1_565
Bi2 O2 2.194240 1_555
Bi2 O10 2.197054 1_555
Bi2 O4 2.222980 1_555
Bi2 O6 2.229352 1_555
Bi3 O5 2.168067 1_555
Bi3 O8 2.168268 1_565
Bi3 O1 2.194240 1_555
Bi3 O9 2.197054 1_555
Bi3 O3 2.222980 1_555
Bi3 O6 2.229352 1_556
