# generated using pymatgen
data_Cu15Bi4(Se4I)4
_symmetry_space_group_name_H-M   'P 1'
_cell_length_a   4.08805300
_cell_length_b   9.68311284
_cell_length_c   23.06501945
_cell_angle_alpha   90.60392380
_cell_angle_beta   90.00000000
_cell_angle_gamma   90.00000000
_symmetry_Int_Tables_number   1
_chemical_formula_structural   Cu15Bi4(Se4I)4
_chemical_formula_sum   'Cu15 Bi4 Se16 I4'
_cell_volume   912.97988650
_cell_formula_units_Z   1
loop_
 _symmetry_equiv_pos_site_id
 _symmetry_equiv_pos_as_xyz
  1  'x, y, z'
loop_
 _atom_site_type_symbol
 _atom_site_label
 _atom_site_symmetry_multiplicity
 _atom_site_fract_x
 _atom_site_fract_y
 _atom_site_fract_z
 _atom_site_occupancy
  Cu  Cu0  1  0.75000000  0.36808400  0.29573400  1
  Cu  Cu1  1  0.75000000  0.86025600  0.20783000  1
  Cu  Cu2  1  0.25000000  0.63306600  0.70525800  1
  Cu  Cu3  1  0.25000000  0.14061400  0.79316800  1
  Cu  Cu4  1  0.75000000  0.47714400  0.73671200  1
  Cu  Cu5  1  0.75000000  0.97599100  0.76057700  1
  Cu  Cu6  1  0.25000000  0.52010000  0.26370100  1
  Cu  Cu7  1  0.25000000  0.02392600  0.24040100  1
  Cu  Cu8  1  0.75000000  0.35077700  0.90501000  1
  Cu  Cu9  1  0.75000000  0.84836900  0.59449400  1
  Cu  Cu10  1  0.25000000  0.65015500  0.09518800  1
  Cu  Cu11  1  0.25000000  0.15285000  0.40838000  1
  Cu  Cu12  1  0.75000000  0.96121400  0.03008100  1
  Cu  Cu13  1  0.25000000  0.53069300  0.52306600  1
  Cu  Cu14  1  0.25000000  0.03864300  0.97008000  1
  Bi  Bi0  1  0.75000000  0.28249000  0.12406200  1
  Bi  Bi1  1  0.75000000  0.77507600  0.37964500  1
  Bi  Bi2  1  0.25000000  0.71794200  0.87634300  1
  Bi  Bi3  1  0.25000000  0.22017400  0.62044600  1
  Se  Se0  1  0.75000000  0.45599400  0.57206100  1
  Se  Se1  1  0.75000000  0.95718300  0.92132100  1
  Se  Se2  1  0.25000000  0.55970100  0.42067000  1
  Se  Se3  1  0.25000000  0.04252000  0.07872800  1
  Se  Se4  1  0.75000000  0.03868100  0.65842900  1
  Se  Se5  1  0.75000000  0.53635700  0.84044300  1
  Se  Se6  1  0.25000000  0.96414100  0.34217800  1
  Se  Se7  1  0.25000000  0.46400600  0.15955500  1
  Se  Se8  1  0.75000000  0.16671600  0.23139000  1
  Se  Se9  1  0.75000000  0.65915800  0.27000800  1
  Se  Se10  1  0.25000000  0.83441900  0.76912600  1
  Se  Se11  1  0.25000000  0.33789000  0.72994100  1
  Se  Se12  1  0.75000000  0.14167200  0.84491500  1
  Se  Se13  1  0.75000000  0.63402100  0.65112200  1
  Se  Se14  1  0.25000000  0.85879400  0.15575400  1
  Se  Se15  1  0.25000000  0.36652100  0.35075300  1
  I  I0  1  0.75000000  0.17988100  0.47917900  1
  I  I1  1  0.75000000  0.68391800  0.02459800  1
  I  I2  1  0.25000000  0.81241200  0.52472800  1
  I  I3  1  0.25000000  0.31585000  0.97513400  1
loop_
_geom_bond_atom_site_label_1
_geom_bond_atom_site_label_2
_geom_bond_distance
_geom_bond_site_symmetry_2
Cu0 Se15 2.406050 1_655
Cu0 Se15 2.406050 1_555
Cu0 Se8 2.437935 1_555
Cu0 Se9 2.886399 1_555
Cu1 Se14 2.370782 1_555
Cu1 Se14 2.370782 1_655
Cu1 Se9 2.430518 1_555
Cu1 Se8 3.011193 1_565
Cu2 Se13 2.395307 1_455
Cu2 Se13 2.395307 1_555
Cu2 Se10 2.431244 1_555
Cu2 Se11 2.920249 1_555
Cu3 Se12 2.366948 1_455
Cu3 Se12 2.366948 1_555
Cu3 Se11 2.415470 1_555
Cu3 Se10 3.010581 1_545
Cu4 Se11 2.452796 1_655
Cu4 Se11 2.452796 1_555
Cu4 Se5 2.454417 1_555
Cu4 Se13 2.503590 1_555
Cu5 Se4 2.439178 1_565
Cu5 Se10 2.470197 1_655
Cu5 Se10 2.470197 1_555
Cu5 Se12 2.508394 1_565
Cu6 Se9 2.451158 1_455
Cu6 Se9 2.451158 1_555
Cu6 Se7 2.457183 1_555
Cu6 Se15 2.511168 1_555
Cu7 Se6 2.423733 1_545
Cu7 Se8 2.477706 1_455
Cu7 Se8 2.477706 1_555
Cu7 Se14 2.510532 1_545
Cu8 Se5 2.345939 1_555
Cu8 Se12 2.441690 1_555
Cu8 I3 2.630585 1_555
Cu8 I3 2.630585 1_655
Cu9 Se4 2.348042 1_565
Cu9 Se13 2.463949 1_555
Cu9 I2 2.622372 1_655
Cu9 I2 2.622372 1_555
Cu10 Se7 2.347241 1_555
Cu10 Se14 2.444075 1_555
Cu10 I1 2.635726 1_455
Cu10 I1 2.635726 1_555
Cu11 Se6 2.368913 1_545
Cu11 Se15 2.470915 1_555
Cu11 I0 2.627578 1_555
Cu11 I0 2.627578 1_455
Cu12 Se3 2.457283 1_565
Cu12 Se3 2.457283 1_665
Cu12 Se1 2.508444 1_554
Cu12 I1 2.686733 1_555
Cu13 Se2 2.381348 1_555
Cu13 Se0 2.448576 1_455
Cu13 Se0 2.448576 1_555
Cu13 I2 2.727782 1_555
Cu14 Se1 2.458925 1_445
Cu14 Se1 2.458925 1_545
Cu14 Se3 2.505854 1_556
Cu14 I3 2.685529 1_555
Bi0 Se8 2.728273 1_555
Bi0 Se7 2.811973 1_655
Bi0 Se7 2.811973 1_555
Bi0 Se3 3.258765 1_655
Bi0 Se3 3.258765 1_555
Bi1 Se9 2.755862 1_555
Bi1 Se6 2.882672 1_655
Bi1 Se6 2.882672 1_555
Bi1 Se2 3.076415 1_555
Bi1 Se2 3.076415 1_655
Bi2 Se10 2.728811 1_555
Bi2 Se5 2.815074 1_455
Bi2 Se5 2.815074 1_555
Bi2 Se1 3.251191 1_555
Bi2 Se1 3.251191 1_455
Bi3 Se11 2.759848 1_555
Bi3 Se4 2.840164 1_555
Bi3 Se4 2.840164 1_455
Bi3 Se0 3.269781 1_555
Bi3 Se0 3.269781 1_455
Se0 Se13 2.496141 1_555
Se1 Se12 2.522581 1_565
Se14 Se3 2.527437 1_565
Se15 Se2 2.456846 1_555
