# generated using pymatgen
data_K3HS3O5
_symmetry_space_group_name_H-M   'P 1'
_cell_length_a   9.67336100
_cell_length_b   6.18728200
_cell_length_c   31.04441743
_cell_angle_alpha   90.00000000
_cell_angle_beta   98.85919774
_cell_angle_gamma   90.00000000
_symmetry_Int_Tables_number   1
_chemical_formula_structural   K3HS3O5
_chemical_formula_sum   'K24 H8 S24 O40'
_cell_volume   1835.89754584
_cell_formula_units_Z   8
loop_
 _symmetry_equiv_pos_site_id
 _symmetry_equiv_pos_as_xyz
  1  'x, y, z'
loop_
 _atom_site_type_symbol
 _atom_site_label
 _atom_site_symmetry_multiplicity
 _atom_site_fract_x
 _atom_site_fract_y
 _atom_site_fract_z
 _atom_site_occupancy
  K  K0  1  0.91278900  0.86091300  0.09370100  1
  K  K1  1  0.08721100  0.36091300  0.40629900  1
  K  K2  1  0.08721100  0.13908700  0.90629900  1
  K  K3  1  0.91278900  0.63908700  0.59370100  1
  K  K4  1  0.75014500  0.42272400  0.27308600  1
  K  K5  1  0.24985500  0.92272400  0.22691400  1
  K  K6  1  0.24985500  0.57727600  0.72691400  1
  K  K7  1  0.75014500  0.07727600  0.77308600  1
  K  K8  1  0.98507600  0.39411800  0.17246000  1
  K  K9  1  0.01492400  0.89411800  0.32754000  1
  K  K10  1  0.01492400  0.60588200  0.82754000  1
  K  K11  1  0.98507600  0.10588200  0.67246000  1
  K  K12  1  0.81093400  0.67576900  0.96391300  1
  K  K13  1  0.18906600  0.17576900  0.53608700  1
  K  K14  1  0.18906600  0.32423100  0.03608700  1
  K  K15  1  0.81093400  0.82423100  0.46391300  1
  K  K16  1  0.55872000  0.24729900  0.15240500  1
  K  K17  1  0.44128000  0.74729900  0.34759500  1
  K  K18  1  0.44128000  0.75270100  0.84759500  1
  K  K19  1  0.55872000  0.25270100  0.65240500  1
  K  K20  1  0.49036000  0.80217300  0.05239800  1
  K  K21  1  0.50964000  0.30217300  0.44760200  1
  K  K22  1  0.50964000  0.19782700  0.94760200  1
  K  K23  1  0.49036000  0.69782700  0.55239800  1
  H  H0  1  0.43244600  0.29242000  0.26436100  1
  H  H1  1  0.56755400  0.79242000  0.23563900  1
  H  H2  1  0.56755400  0.70758000  0.73563900  1
  H  H3  1  0.43244600  0.20758000  0.76436100  1
  H  H4  1  0.39202600  0.40080300  0.21864600  1
  H  H5  1  0.60797400  0.90080300  0.28135400  1
  H  H6  1  0.60797400  0.59919700  0.78135400  1
  H  H7  1  0.39202600  0.09919700  0.71864600  1
  S  S0  1  0.26435800  0.96112800  0.12045500  1
  S  S1  1  0.73564200  0.46112800  0.37954500  1
  S  S2  1  0.73564200  0.03887200  0.87954500  1
  S  S3  1  0.26435800  0.53887200  0.62045500  1
  S  S4  1  0.83597200  0.18230600  0.00969500  1
  S  S5  1  0.16402800  0.68230600  0.49030500  1
  S  S6  1  0.16402800  0.81769400  0.99030500  1
  S  S7  1  0.83597200  0.31769400  0.50969500  1
  S  S8  1  0.67888300  0.75219400  0.16941300  1
  S  S9  1  0.32111700  0.25219400  0.33058700  1
  S  S10  1  0.32111700  0.24780600  0.83058700  1
  S  S11  1  0.67888300  0.74780600  0.66941300  1
  S  S12  1  0.25839000  0.63422400  0.12658800  1
  S  S13  1  0.74161000  0.13422400  0.37341200  1
  S  S14  1  0.74161000  0.36577600  0.87341200  1
  S  S15  1  0.25839000  0.86577600  0.62658800  1
  S  S16  1  0.71902300  0.32419100  0.05148800  1
  S  S17  1  0.28097700  0.82419100  0.44851200  1
  S  S18  1  0.28097700  0.67580900  0.94851200  1
  S  S19  1  0.71902300  0.17580900  0.55148800  1
  S  S20  1  0.84117800  0.91076500  0.20565700  1
  S  S21  1  0.15882200  0.41076500  0.29434300  1
  S  S22  1  0.15882200  0.08923500  0.79434300  1
  S  S23  1  0.84117800  0.58923500  0.70565700  1
  O  O0  1  0.28222400  0.57651300  0.17362700  1
  O  O1  1  0.71777600  0.07651300  0.32637300  1
  O  O2  1  0.71777600  0.42348700  0.82637300  1
  O  O3  1  0.28222400  0.92348700  0.67362700  1
  O  O4  1  0.11717200  0.55730300  0.10586000  1
  O  O5  1  0.88282800  0.05730300  0.39414000  1
  O  O6  1  0.88282800  0.44269700  0.89414000  1
  O  O7  1  0.11717200  0.94269700  0.60586000  1
  O  O8  1  0.36717600  0.53465200  0.10362300  1
  O  O9  1  0.63282400  0.03465200  0.39637700  1
  O  O10  1  0.63282400  0.46534800  0.89637700  1
  O  O11  1  0.36717600  0.96534800  0.60362300  1
  O  O12  1  0.77461200  0.26207300  0.09706600  1
  O  O13  1  0.22538800  0.76207300  0.40293400  1
  O  O14  1  0.22538800  0.73792700  0.90293400  1
  O  O15  1  0.77461200  0.23792700  0.59706600  1
  O  O16  1  0.72755900  0.56329400  0.04533800  1
  O  O17  1  0.27244100  0.06329400  0.45466200  1
  O  O18  1  0.27244100  0.43670600  0.95466200  1
  O  O19  1  0.72755900  0.93670600  0.54533800  1
  O  O20  1  0.57169400  0.24845000  0.03952600  1
  O  O21  1  0.42830600  0.74845000  0.46047400  1
  O  O22  1  0.42830600  0.75155000  0.96047400  1
  O  O23  1  0.57169400  0.25155000  0.53952600  1
  O  O24  1  0.87237400  0.80321100  0.24855000  1
  O  O25  1  0.12762600  0.30321100  0.25145000  1
  O  O26  1  0.12762600  0.19678900  0.75145000  1
  O  O27  1  0.87237400  0.69678900  0.74855000  1
  O  O28  1  0.96461100  0.90133800  0.18211500  1
  O  O29  1  0.03538900  0.40133800  0.31788500  1
  O  O30  1  0.03538900  0.09866200  0.81788500  1
  O  O31  1  0.96461100  0.59866200  0.68211500  1
  O  O32  1  0.79789600  0.13978100  0.20995600  1
  O  O33  1  0.20210400  0.63978100  0.29004400  1
  O  O34  1  0.20210400  0.86021900  0.79004400  1
  O  O35  1  0.79789600  0.36021900  0.70995600  1
  O  O36  1  0.45768900  0.29708200  0.23474600  1
  O  O37  1  0.54231100  0.79708200  0.26525400  1
  O  O38  1  0.54231100  0.70291800  0.76525400  1
  O  O39  1  0.45768900  0.20291800  0.73474600  1
loop_
_geom_bond_atom_site_label_1
_geom_bond_atom_site_label_2
_geom_bond_distance
_geom_bond_site_symmetry_2
K0 O4 2.711137 1_655
K0 O28 2.724658 1_555
K0 O12 2.828655 1_565
K0 O16 2.833208 1_555
K0 S4 3.272741 1_565
K0 S0 3.430757 1_655
K1 O5 2.711137 1_455
K1 O29 2.724658 1_555
K1 O13 2.828655 1_555
K1 O17 2.833208 1_555
K1 S5 3.272741 1_555
K1 S1 3.430757 1_455
K2 O6 2.711137 1_455
K2 O30 2.724658 1_555
K2 O14 2.828655 1_545
K2 O18 2.833208 1_555
K2 S6 3.272741 1_545
K2 S2 3.430757 1_455
K3 O7 2.711137 1_655
K3 O31 2.724658 1_555
K3 O15 2.828655 1_555
K3 O19 2.833208 1_555
K3 S7 3.272741 1_555
K3 S3 3.430757 1_655
K4 O32 2.719911 1_555
K4 O1 2.753687 1_555
K4 O24 2.792445 1_555
K4 O29 2.895390 1_655
K4 S1 3.337919 1_555
K5 O33 2.719911 1_555
K5 O0 2.753687 1_555
K5 O25 2.792445 1_565
K5 O28 2.895390 1_455
K5 S0 3.337919 1_555
K6 O34 2.719911 1_555
K6 O3 2.753687 1_555
K6 O26 2.792445 1_555
K6 O31 2.895390 1_455
K6 S3 3.337919 1_555
K7 O35 2.719911 1_555
K7 O2 2.753687 1_555
K7 O27 2.792445 1_545
K7 O30 2.895390 1_655
K7 S2 3.337919 1_555
K8 O25 2.681341 1_655
K8 O4 2.782228 1_655
K8 O32 2.785510 1_555
K8 O12 2.970330 1_555
K8 O28 3.073031 1_545
K8 O0 3.083035 1_655
K8 O28 3.161695 1_555
K9 O24 2.681341 1_455
K9 O5 2.782228 1_465
K9 O33 2.785510 1_555
K9 O13 2.970330 1_555
K9 O29 3.073031 1_555
K9 O1 3.083035 1_465
K9 O29 3.161695 1_565
K10 O27 2.681341 1_455
K10 O6 2.782228 1_455
K10 O34 2.785510 1_555
K10 O14 2.970330 1_555
K10 O30 3.073031 1_565
K10 O2 3.083035 1_455
K10 O30 3.161695 1_555
K11 O26 2.681341 1_655
K11 O7 2.782228 1_645
K11 O35 2.785510 1_555
K11 O15 2.970330 1_555
K11 O31 3.073031 1_555
K11 O3 3.083035 1_645
K11 O31 3.161695 1_545
K12 O6 2.778323 1_555
K12 O10 2.818981 1_555
K12 O16 2.855249 1_556
K12 S4 3.360752 1_556
K12 S4 3.434408 1_566
K12 S2 3.442408 1_565
K12 S6 3.499542 1_655
K13 O7 2.778323 1_545
K13 O11 2.818981 1_545
K13 O17 2.855249 1_555
K13 S5 3.360752 1_545
K13 S5 3.434408 1_555
K13 S3 3.442408 1_555
K13 S7 3.499542 1_455
K14 O4 2.778323 1_555
K14 O8 2.818981 1_555
K14 O18 2.855249 1_554
K14 S6 3.360752 1_554
K14 S6 3.434408 1_544
K14 S0 3.442408 1_545
K14 S4 3.499542 1_455
K15 O5 2.778323 1_565
K15 O9 2.818981 1_565
K15 O19 2.855249 1_555
K15 S7 3.360752 1_565
K15 S7 3.434408 1_555
K15 S1 3.442408 1_555
K15 S5 3.499542 1_655
K16 O32 2.777466 1_555
K16 O8 2.832550 1_555
K16 O36 2.890294 1_555
K16 O12 2.902805 1_555
K16 S8 3.290139 1_545
K16 S8 3.346610 1_555
K16 S0 3.370024 1_545
K17 O33 2.777466 1_555
K17 O9 2.832550 1_565
K17 O37 2.890294 1_555
K17 O13 2.902805 1_555
K17 S9 3.290139 1_555
K17 S9 3.346610 1_565
K17 S1 3.370024 1_555
K18 O34 2.777466 1_555
K18 O10 2.832550 1_555
K18 O38 2.890294 1_555
K18 O14 2.902805 1_555
K18 S10 3.290139 1_565
K18 S10 3.346610 1_555
K18 S2 3.370024 1_565
K19 O35 2.777466 1_555
K19 O11 2.832550 1_545
K19 O39 2.890294 1_555
K19 O15 2.902805 1_555
K19 S11 3.290139 1_555
K19 S11 3.346610 1_545
K19 S3 3.370024 1_555
K20 O8 2.696713 1_555
K20 O16 2.766268 1_555
K20 O22 2.841577 1_554
K20 O20 2.915474 1_565
K20 S0 3.410766 1_555
K20 S6 3.437394 1_554
K21 O9 2.696713 1_555
K21 O17 2.766268 1_555
K21 O23 2.841577 1_555
K21 O21 2.915474 1_555
K21 S1 3.410766 1_555
K21 S7 3.437394 1_555
K22 O10 2.696713 1_555
K22 O18 2.766268 1_555
K22 O20 2.841577 1_556
K22 O22 2.915474 1_545
K22 S2 3.410766 1_555
K22 S4 3.437394 1_556
K23 O11 2.696713 1_555
K23 O19 2.766268 1_555
K23 O21 2.841577 1_555
K23 O23 2.915474 1_555
K23 S3 3.410766 1_555
K23 S5 3.437394 1_555
H0 O36 0.987354 1_555
H1 O37 0.987354 1_555
H2 O38 0.987354 1_555
H3 O39 0.987354 1_555
H4 O36 0.983529 1_555
H4 K16 2.958444 1_555
H5 O37 0.983529 1_555
H5 K17 2.958444 1_555
H6 O38 0.983529 1_555
H6 K18 2.958444 1_555
H7 O39 0.983529 1_555
H7 K19 2.958444 1_555
S0 S12 2.033241 1_555
S1 S13 2.033241 1_555
S10 S22 2.036967 1_555
S11 S23 2.036967 1_555
S14 S2 2.033241 1_555
S15 S3 2.033241 1_555
S16 S4 2.045957 1_555
S17 S5 2.045957 1_555
S18 S6 2.045957 1_555
S19 S7 2.045957 1_555
S20 S8 2.036967 1_555
S21 S9 2.036967 1_555
O0 S12 1.486414 1_555
O1 S13 1.486414 1_555
O2 S14 1.486414 1_555
O3 S15 1.486414 1_555
O4 S12 1.495304 1_555
O5 S13 1.495304 1_555
O6 S14 1.495304 1_555
O7 S15 1.495304 1_555
O8 S12 1.492081 1_555
O9 S13 1.492081 1_555
O10 S14 1.492081 1_555
O11 S15 1.492081 1_555
O12 S16 1.484783 1_555
O13 S17 1.484783 1_555
O14 S18 1.484783 1_555
O15 S19 1.484783 1_555
O16 S16 1.495574 1_555
O17 S17 1.495574 1_545
O18 S18 1.495574 1_555
O19 S19 1.495574 1_565
O20 S16 1.491846 1_555
O21 S17 1.491846 1_555
O22 S18 1.491846 1_555
O23 S19 1.491846 1_555
O24 S20 1.477589 1_555
O25 S21 1.477589 1_555
O26 S22 1.477589 1_555
O27 S23 1.477589 1_555
O28 S20 1.493985 1_555
O29 S21 1.493985 1_555
O30 S22 1.493985 1_555
O31 S23 1.493985 1_555
O32 S20 1.489352 1_545
O33 S21 1.489352 1_555
O34 S22 1.489352 1_565
O35 S23 1.489352 1_555
