# generated using pymatgen
data_LiZr2N3
_symmetry_space_group_name_H-M   'P 1'
_cell_length_a   6.59389764
_cell_length_b   6.60887082
_cell_length_c   4.39860723
_cell_angle_alpha   90.00000000
_cell_angle_beta   90.00000000
_cell_angle_gamma   120.07514372
_symmetry_Int_Tables_number   1
_chemical_formula_structural   LiZr2N3
_chemical_formula_sum   'Li2 Zr4 N6'
_cell_volume   165.87690911
_cell_formula_units_Z   2
loop_
 _symmetry_equiv_pos_site_id
 _symmetry_equiv_pos_as_xyz
  1  'x, y, z'
loop_
 _atom_site_type_symbol
 _atom_site_label
 _atom_site_symmetry_multiplicity
 _atom_site_fract_x
 _atom_site_fract_y
 _atom_site_fract_z
 _atom_site_occupancy
  Li  Li0  1  -0.00000000  0.63246963  0.43130191  1
  Li  Li1  1  0.00000000  0.36753037  0.93130191  1
  Zr  Zr0  1  0.31743272  0.33684455  0.43131739  1
  Zr  Zr1  1  0.68256728  0.01941083  0.43131739  1
  Zr  Zr2  1  0.68256728  0.66315545  0.93131739  1
  Zr  Zr3  1  0.31743272  0.98058917  0.93131739  1
  N  N0  1  0.36410300  0.33061104  0.93136261  1
  N  N1  1  0.63589700  0.96650904  0.93136261  1
  N  N2  1  0.63589700  0.66938896  0.43136261  1
  N  N3  1  0.36410300  0.03349096  0.43136261  1
  N  N4  1  -0.00000000  0.68618185  0.93133809  1
  N  N5  1  0.00000000  0.31381815  0.43133809  1
loop_
_geom_bond_atom_site_label_1
_geom_bond_atom_site_label_2
_geom_bond_distance
_geom_bond_site_symmetry_2
Li0 N5 2.105926 1_555
Li0 N4 2.227610 1_554
Li0 N4 2.227924 1_555
Li0 N3 2.531948 1_565
Li0 N2 2.531952 1_455
Li1 N4 2.105926 1_555
Li1 N5 2.227610 1_555
Li1 N5 2.227924 1_556
Li1 N1 2.531948 1_445
Li1 N0 2.531952 1_555
N0 Zr2 2.148063 1_555
N0 Zr3 2.175392 1_545
N0 Zr0 2.223773 1_556
N0 Zr0 2.224167 1_555
N1 Zr3 2.148063 1_555
N1 Zr2 2.175406 1_555
N1 Zr1 2.223772 1_566
N1 Zr1 2.224166 1_565
N2 Zr0 2.148063 1_555
N2 Zr1 2.175392 1_565
N2 Zr2 2.223773 1_555
N2 Zr2 2.224167 1_554
N3 Zr1 2.148063 1_555
N3 Zr0 2.175406 1_555
N3 Zr3 2.223772 1_545
N3 Zr3 2.224166 1_544
N4 Zr2 2.021152 1_455
N4 Zr3 2.021155 1_555
N5 Zr0 2.021152 1_555
N5 Zr1 2.021155 1_455
