# generated using pymatgen
data_Li9Mn2Co5O16
_symmetry_space_group_name_H-M   'P 1'
_cell_length_a   5.83172000
_cell_length_b   5.06806000
_cell_length_c   9.85381606
_cell_angle_alpha   80.25064816
_cell_angle_beta   90.00000000
_cell_angle_gamma   90.00000000
_symmetry_Int_Tables_number   1
_chemical_formula_structural   Li9Mn2Co5O16
_chemical_formula_sum   'Li9 Mn2 Co5 O16'
_cell_volume   287.02851179
_cell_formula_units_Z   1
loop_
 _symmetry_equiv_pos_site_id
 _symmetry_equiv_pos_as_xyz
  1  'x, y, z'
loop_
 _atom_site_type_symbol
 _atom_site_label
 _atom_site_symmetry_multiplicity
 _atom_site_fract_x
 _atom_site_fract_y
 _atom_site_fract_z
 _atom_site_occupancy
  Li  Li0  1  0.00144400  0.24759800  0.24207900  1
  Li  Li1  1  0.24312600  0.24732000  0.75943000  1
  Li  Li2  1  0.50244700  0.25267700  0.24285400  1
  Li  Li3  1  0.24312600  0.75268000  0.24057000  1
  Li  Li4  1  0.50244700  0.74732300  0.75714600  1
  Li  Li5  1  0.75243100  0.75168300  0.24169200  1
  Li  Li6  1  0.75243100  0.24831700  0.75830800  1
  Li  Li7  1  0.00144400  0.75240200  0.75792100  1
  Li  Li8  1  0.00064300  0.00000000  0.00000000  1
  Mn  Mn0  1  0.99977300  0.50000000  0.50000000  1
  Mn  Mn1  1  0.24821100  0.50000000  0.00000000  1
  Co  Co0  1  0.50020800  0.50000000  0.50000000  1
  Co  Co1  1  0.75757000  0.50000000  0.00000000  1
  Co  Co2  1  0.50094400  0.00000000  0.00000000  1
  Co  Co3  1  0.74798100  0.00000000  0.50000000  1
  Co  Co4  1  0.25204200  0.00000000  0.50000000  1
  O  O0  1  0.75953500  0.37816100  0.38708200  1
  O  O1  1  0.01051700  0.39242800  0.88524100  1
  O  O2  1  0.23698900  0.37625700  0.38970500  1
  O  O3  1  0.00256400  0.85412900  0.38718400  1
  O  O4  1  0.26645600  0.86032200  0.89268600  1
  O  O5  1  0.50339400  0.86265000  0.38630800  1
  O  O6  1  0.48568000  0.37747200  0.88501300  1
  O  O7  1  0.73872500  0.85984400  0.88725300  1
  O  O8  1  0.26645600  0.13967800  0.10731400  1
  O  O9  1  0.50339400  0.13735000  0.61369200  1
  O  O10  1  0.73872500  0.14015600  0.11274700  1
  O  O11  1  0.48568000  0.62252800  0.11498700  1
  O  O12  1  0.75953500  0.62183900  0.61291800  1
  O  O13  1  0.01051700  0.60757200  0.11475900  1
  O  O14  1  0.00256400  0.14587100  0.61281600  1
  O  O15  1  0.23698900  0.62374300  0.61029500  1
loop_
_geom_bond_atom_site_label_1
_geom_bond_atom_site_label_2
_geom_bond_distance
_geom_bond_site_symmetry_2
Li0 O13 2.032226 1_555
Li0 O10 2.122027 1_455
Li0 O8 2.167275 1_555
Li0 O2 2.179306 1_555
Li0 O0 2.188566 1_455
Li0 O3 2.248411 1_545
Li1 O1 2.055878 1_555
Li1 O6 2.060027 1_555
Li1 O14 2.138036 1_555
Li1 O4 2.171930 1_545
Li1 O15 2.202458 1_555
Li1 O9 2.224354 1_555
Li2 O10 2.028568 1_555
Li2 O8 2.065145 1_555
Li2 O11 2.076227 1_555
Li2 O5 2.226915 1_545
Li2 O0 2.231176 1_555
Li2 O2 2.278087 1_555
Li3 O13 2.055878 1_555
Li3 O11 2.060027 1_555
Li3 O3 2.138036 1_555
Li3 O8 2.171930 1_565
Li3 O2 2.202458 1_555
Li3 O5 2.224354 1_555
Li4 O7 2.028568 1_555
Li4 O4 2.065145 1_555
Li4 O6 2.076227 1_555
Li4 O9 2.226915 1_565
Li4 O12 2.231176 1_555
Li4 O15 2.278087 1_555
Li5 O10 2.156336 1_565
Li5 O13 2.161605 1_655
Li5 O11 2.164256 1_555
Li5 O3 2.169066 1_655
Li5 O0 2.172385 1_555
Li5 O5 2.174304 1_555
Li6 O7 2.156336 1_545
Li6 O1 2.161605 1_655
Li6 O6 2.164256 1_555
Li6 O14 2.169066 1_655
Li6 O12 2.172385 1_555
Li6 O9 2.174304 1_555
Li7 O1 2.032226 1_555
Li7 O7 2.122027 1_455
Li7 O4 2.167275 1_555
Li7 O15 2.179306 1_555
Li7 O12 2.188566 1_455
Li7 O14 2.248411 1_565
Li8 O8 2.067801 1_555
Li8 O4 2.067801 1_544
Li8 O10 2.083067 1_455
Li8 O7 2.083067 1_444
Li8 O13 2.115629 1_545
Li8 O1 2.115629 1_554
Mn0 O15 1.928487 1_655
Mn0 O2 1.928487 1_655
Mn0 O3 1.944601 1_655
Mn0 O14 1.944601 1_655
Mn0 O12 1.953158 1_555
Mn0 O0 1.953158 1_555
Mn1 O13 1.925152 1_555
Mn1 O1 1.925152 1_554
Mn1 O4 1.951996 1_554
Mn1 O8 1.951996 1_555
Mn1 O11 1.955902 1_555
Mn1 O6 1.955902 1_554
Co0 O9 1.983952 1_555
Co0 O5 1.983952 1_555
Co0 O12 2.034488 1_555
Co0 O0 2.034488 1_555
Co0 O15 2.040004 1_555
Co0 O2 2.040004 1_555
Co1 O7 1.971318 1_554
Co1 O10 1.971318 1_555
Co1 O13 1.990157 1_655
Co1 O1 1.990157 1_654
Co1 O11 2.102813 1_555
Co1 O6 2.102813 1_554
Co2 O8 1.934636 1_555
Co2 O4 1.934636 1_544
Co2 O10 1.982165 1_555
Co2 O7 1.982165 1_544
Co2 O11 2.053630 1_545
Co2 O6 2.053630 1_554
Co3 O5 2.009540 1_545
Co3 O9 2.009540 1_555
Co3 O0 2.047802 1_555
Co3 O12 2.047802 1_545
Co3 O14 2.065161 1_655
Co3 O3 2.065161 1_645
Co4 O15 2.030577 1_545
Co4 O2 2.030577 1_555
Co4 O5 2.037732 1_545
Co4 O9 2.037732 1_555
Co4 O14 2.043863 1_555
Co4 O3 2.043863 1_545
