# generated using pymatgen
data_HfBeSi
_symmetry_space_group_name_H-M   'P 1'
_cell_length_a   3.69337278
_cell_length_b   3.69337380
_cell_length_c   7.10534556
_cell_angle_alpha   90.00000000
_cell_angle_beta   90.00000000
_cell_angle_gamma   120.00000881
_symmetry_Int_Tables_number   1
_chemical_formula_structural   HfBeSi
_chemical_formula_sum   'Hf2 Be2 Si2'
_cell_volume   83.93869350
_cell_formula_units_Z   2
loop_
 _symmetry_equiv_pos_site_id
 _symmetry_equiv_pos_as_xyz
  1  'x, y, z'
loop_
 _atom_site_type_symbol
 _atom_site_label
 _atom_site_symmetry_multiplicity
 _atom_site_fract_x
 _atom_site_fract_y
 _atom_site_fract_z
 _atom_site_occupancy
  Hf  Hf0  1  -0.00000000  0.00000000  -0.00000000  1
  Hf  Hf1  1  -0.00000000  0.00000000  0.50000000  1
  Be  Be0  1  0.33333300  0.66666700  0.25000000  1
  Be  Be1  1  0.66666700  0.33333300  0.75000000  1
  Si  Si0  1  0.33333300  0.66666700  0.75000000  1
  Si  Si1  1  0.66666700  0.33333300  0.25000000  1
loop_
_geom_bond_atom_site_label_1
_geom_bond_atom_site_label_2
_geom_bond_distance
_geom_bond_site_symmetry_2
Hf0 Si0 2.775313 1_544
Hf0 Si1 2.775313 1_455
Hf0 Si1 2.775315 1_555
Hf0 Si0 2.775315 1_444
Hf0 Si1 2.775316 1_445
Hf0 Si0 2.775316 1_554
Hf1 Si1 2.775313 1_455
Hf1 Si0 2.775313 1_545
Hf1 Si0 2.775315 1_445
Hf1 Si1 2.775315 1_555
Hf1 Si1 2.775316 1_445
Hf1 Si0 2.775316 1_555
Be0 Si1 2.132367 1_455
Be0 Si1 2.132368 1_565
Be0 Si1 2.132374 1_555
Be0 Hf1 2.775313 1_565
Be0 Hf0 2.775313 1_565
Be0 Hf0 2.775315 1_665
Be0 Hf1 2.775315 1_665
Be0 Hf1 2.775316 1_555
Be0 Hf0 2.775316 1_555
Be1 Si0 2.132367 1_655
Be1 Si0 2.132368 1_545
Be1 Si0 2.132374 1_555
Be1 Hf1 2.775313 1_655
Be1 Hf0 2.775313 1_656
Be1 Hf1 2.775315 1_555
Be1 Hf0 2.775315 1_556
Be1 Hf0 2.775316 1_666
Be1 Hf1 2.775316 1_665
