# generated using pymatgen
data_K2BaLiCo(NO2)6
_symmetry_space_group_name_H-M   'P 1'
_cell_length_a   7.68749589
_cell_length_b   7.99958300
_cell_length_c   7.65918798
_cell_angle_alpha   117.76683892
_cell_angle_beta   120.34886865
_cell_angle_gamma   90.02459857
_symmetry_Int_Tables_number   1
_chemical_formula_structural   K2BaLiCo(NO2)6
_chemical_formula_sum   'K2 Ba1 Li1 Co1 N6 O12'
_cell_volume   342.08389094
_cell_formula_units_Z   1
loop_
 _symmetry_equiv_pos_site_id
 _symmetry_equiv_pos_as_xyz
  1  'x, y, z'
loop_
 _atom_site_type_symbol
 _atom_site_label
 _atom_site_symmetry_multiplicity
 _atom_site_fract_x
 _atom_site_fract_y
 _atom_site_fract_z
 _atom_site_occupancy
  K  K0  1  0.25217600  0.75989000  0.50404200  1
  K  K1  1  0.70962400  0.13845400  0.41646600  1
  Ba  Ba0  1  0.49603100  0.48798200  0.99229500  1
  Li  Li0  1  0.86575200  0.59334300  0.73504600  1
  Co  Co0  1  0.00041700  0.00245600  0.00185800  1
  N  N0  1  0.19901300  0.81674000  0.02004900  1
  N  N1  1  0.80510400  0.19359900  0.99777300  1
  N  N2  1  0.19479700  0.19390600  0.38940200  1
  N  N3  1  0.81830300  0.81792200  0.61750400  1
  N  N4  1  0.19385900  0.19368700  0.00010300  1
  N  N5  1  0.79908200  0.81853800  0.00014600  1
  O  O0  1  0.65227900  0.16892200  0.80140900  1
  O  O1  1  0.83896300  0.34190700  0.18926000  1
  O  O2  1  0.15314900  0.65545600  0.82431800  1
  O  O3  1  0.36357800  0.84812000  0.21089000  1
  O  O4  1  0.36683000  0.16995400  0.02419500  1
  O  O5  1  0.67170200  0.65297200  0.50220600  1
  O  O6  1  0.83458600  0.65653900  0.99227200  1
  O  O7  1  0.63575300  0.84690800  0.99548100  1
  O  O8  1  0.84639200  0.85072600  0.48658100  1
  O  O9  1  0.35161400  0.34445500  0.50468100  1
  O  O10  1  0.14926400  0.16763300  0.51506100  1
  O  O11  1  0.14994400  0.34239400  0.98729700  1
loop_
_geom_bond_atom_site_label_1
_geom_bond_atom_site_label_2
_geom_bond_distance
_geom_bond_site_symmetry_2
K0 O7 3.112627 1_555
K0 O3 3.113226 1_555
K0 O8 3.154024 1_455
K0 O6 3.258209 1_454
K0 O10 3.329472 1_565
K0 O2 3.330312 1_555
K0 O5 3.342159 1_555
K0 O0 3.364942 1_565
K0 O9 3.412081 1_555
K0 O4 3.417848 1_566
K0 O1 3.438597 1_455
K0 O11 3.460447 1_554
K1 O8 2.697202 1_545
K1 O7 2.701905 1_544
K1 O3 2.702744 1_545
K1 O4 2.956342 1_555
K1 O10 3.050133 1_655
K1 O0 3.096850 1_555
Ba0 O1 2.866631 1_556
Ba0 O11 2.879101 1_555
Ba0 O9 2.883151 1_555
Ba0 O4 2.888050 1_556
Ba0 O0 2.897431 1_555
Ba0 O10 2.907576 1_555
Ba0 O2 2.929192 1_555
Ba0 O6 2.930794 1_555
Ba0 O5 2.946955 1_556
Ba0 O7 3.050249 1_555
Ba0 O3 3.061181 1_556
Ba0 O8 3.075809 1_556
Li0 O5 1.933428 1_555
Li0 O6 1.934818 1_555
Li0 O2 1.936914 1_655
Li0 N0 2.287405 1_656
Li0 N5 2.296728 1_556
Li0 N3 2.312317 1_555
Co0 N5 2.126012 1_445
Co0 N0 2.130085 1_545
Co0 N4 2.142241 1_555
Co0 N3 2.142363 1_444
Co0 N1 2.143011 1_454
Co0 N2 2.160850 1_555
N0 O3 1.260640 1_555
N0 O2 1.303708 1_554
N1 O0 1.272329 1_555
N1 O1 1.272408 1_556
N2 O9 1.271084 1_555
N2 O10 1.273517 1_555
N3 O8 1.258957 1_555
N3 O5 1.303227 1_555
N4 O11 1.270561 1_554
N4 O4 1.274026 1_555
N5 O7 1.261648 1_554
N5 O6 1.304480 1_554
