# generated using pymatgen
data_CaPr(CuO3)2
_symmetry_space_group_name_H-M   'P 1'
_cell_length_a   5.43936700
_cell_length_b   5.46040600
_cell_length_c   7.64087300
_cell_angle_alpha   90.00000000
_cell_angle_beta   90.00000000
_cell_angle_gamma   90.00000000
_symmetry_Int_Tables_number   1
_chemical_formula_structural   CaPr(CuO3)2
_chemical_formula_sum   'Ca2 Pr2 Cu4 O12'
_cell_volume   226.94273194
_cell_formula_units_Z   2
loop_
 _symmetry_equiv_pos_site_id
 _symmetry_equiv_pos_as_xyz
  1  'x, y, z'
loop_
 _atom_site_type_symbol
 _atom_site_label
 _atom_site_symmetry_multiplicity
 _atom_site_fract_x
 _atom_site_fract_y
 _atom_site_fract_z
 _atom_site_occupancy
  Ca  Ca0  1  0.49071500  0.20541200  0.00000000  1
  Ca  Ca1  1  0.99071500  0.79458800  0.50000000  1
  Pr  Pr0  1  0.00796200  0.71253800  0.00000000  1
  Pr  Pr1  1  0.50796200  0.28746200  0.50000000  1
  Cu  Cu0  1  0.00031400  0.24914600  0.75027400  1
  Cu  Cu1  1  0.00031400  0.24914600  0.24972600  1
  Cu  Cu2  1  0.50031400  0.75085400  0.25027400  1
  Cu  Cu3  1  0.50031400  0.75085400  0.74972600  1
  O  O0  1  0.07083600  0.23281800  0.50000000  1
  O  O1  1  0.22021600  0.96989200  0.78720300  1
  O  O2  1  0.22021600  0.96989200  0.21279700  1
  O  O3  1  0.28379800  0.46661000  0.20874100  1
  O  O4  1  0.28379800  0.46661000  0.79125900  1
  O  O5  1  0.42186800  0.73621500  0.50000000  1
  O  O6  1  0.57083600  0.76718200  0.00000000  1
  O  O7  1  0.72021600  0.03010800  0.71279700  1
  O  O8  1  0.72021600  0.03010800  0.28720300  1
  O  O9  1  0.78379800  0.53339000  0.70874100  1
  O  O10  1  0.78379800  0.53339000  0.29125900  1
  O  O11  1  0.92186800  0.26378500  0.00000000  1
loop_
_geom_bond_atom_site_label_1
_geom_bond_atom_site_label_2
_geom_bond_distance
_geom_bond_site_symmetry_2
Ca0 O11 2.366761 1_555
Ca0 O4 2.417609 1_554
Ca0 O3 2.417609 1_555
Ca0 O6 2.432276 1_545
Ca0 O2 2.542138 1_545
Ca0 O1 2.542138 1_544
Ca0 O7 2.700073 1_554
Ca0 O8 2.700073 1_555
Ca1 O5 2.366761 1_655
Ca1 O9 2.417609 1_555
Ca1 O10 2.417609 1_555
Ca1 O0 2.432276 1_665
Ca1 O7 2.542138 1_565
Ca1 O8 2.542138 1_565
Ca1 O2 2.700073 1_655
Ca1 O1 2.700073 1_655
Cu0 O0 1.952442 1_555
Cu0 O11 1.956885 1_456
Cu0 O7 1.957990 1_455
Cu0 O1 1.958438 1_545
Cu0 O4 1.971236 1_555
Cu0 O9 1.974003 1_455
Cu1 O0 1.952442 1_555
Cu1 O11 1.956885 1_455
Cu1 O8 1.957990 1_455
Cu1 O2 1.958438 1_545
Cu1 O3 1.971236 1_555
Cu1 O10 1.974003 1_455
Cu2 O6 1.952442 1_555
Cu2 O5 1.956885 1_555
Cu2 O2 1.957990 1_555
Cu2 O8 1.958438 1_565
Cu2 O10 1.971236 1_555
Cu2 O3 1.974003 1_555
Cu3 O6 1.952442 1_556
Cu3 O5 1.956885 1_555
Cu3 O1 1.957990 1_555
Cu3 O7 1.958438 1_565
Cu3 O9 1.971236 1_555
Cu3 O4 1.974003 1_555
O0 Pr1 2.396338 1_555
O1 Pr0 2.439551 1_556
O2 Pr0 2.439551 1_555
O3 Pr0 2.568719 1_555
O3 Pr1 2.719626 1_555
O4 Pr0 2.568719 1_556
O4 Pr1 2.719626 1_555
O5 Pr1 2.494721 1_555
O6 Pr0 2.396338 1_655
O7 Pr1 2.439551 1_555
O8 Pr1 2.439551 1_555
O9 Pr1 2.568719 1_555
O9 Pr0 2.719626 1_656
O10 Pr1 2.568719 1_555
O10 Pr0 2.719626 1_655
O11 Pr0 2.494721 1_655
