# generated using pymatgen
data_Fe2Co3H4(Se3O10)2
_symmetry_space_group_name_H-M   'P 1'
_cell_length_a   6.58395900
_cell_length_b   8.12713682
_cell_length_c   9.04450609
_cell_angle_alpha   85.86972320
_cell_angle_beta   78.72490322
_cell_angle_gamma   76.25012169
_symmetry_Int_Tables_number   1
_chemical_formula_structural   Fe2Co3H4(Se3O10)2
_chemical_formula_sum   'Fe2 Co3 H4 Se6 O20'
_cell_volume   460.85226240
_cell_formula_units_Z   1
loop_
 _symmetry_equiv_pos_site_id
 _symmetry_equiv_pos_as_xyz
  1  'x, y, z'
loop_
 _atom_site_type_symbol
 _atom_site_label
 _atom_site_symmetry_multiplicity
 _atom_site_fract_x
 _atom_site_fract_y
 _atom_site_fract_z
 _atom_site_occupancy
  Fe  Fe0  1  0.13571400  0.39739900  0.11794200  1
  Fe  Fe1  1  0.86428600  0.60260100  0.88205800  1
  Co  Co0  1  0.31407300  0.67771400  0.26508100  1
  Co  Co1  1  0.68592700  0.32228600  0.73491900  1
  Co  Co2  1  0.50000000  0.00000000  0.00000000  1
  H  H0  1  0.14620800  0.63725000  0.56004200  1
  H  H1  1  0.85379200  0.36275000  0.43995800  1
  H  H2  1  0.32053700  0.46515800  0.53589400  1
  H  H3  1  0.67946300  0.53484200  0.46410600  1
  Se  Se0  1  0.23581600  0.07791700  0.36545500  1
  Se  Se1  1  0.76418400  0.92208300  0.63454500  1
  Se  Se2  1  0.66941100  0.29093900  0.12888200  1
  Se  Se3  1  0.33058900  0.70906100  0.87111800  1
  Se  Se4  1  0.20062600  0.21466000  0.77547500  1
  Se  Se5  1  0.79937400  0.78534000  0.22452500  1
  O  O0  1  0.26392000  0.57391600  0.48510100  1
  O  O1  1  0.73608000  0.42608400  0.51489900  1
  O  O2  1  0.02392800  0.61818600  0.23363100  1
  O  O3  1  0.97607200  0.38181400  0.76636900  1
  O  O4  1  0.45861700  0.05892500  0.22293800  1
  O  O5  1  0.54138300  0.94107500  0.77706200  1
  O  O6  1  0.23430100  0.20493200  0.96710700  1
  O  O7  1  0.76569900  0.79506800  0.03289300  1
  O  O8  1  0.05654000  0.24742500  0.28946700  1
  O  O9  1  0.94346000  0.75257500  0.71053300  1
  O  O10  1  0.83091500  0.43816200  0.06963000  1
  O  O11  1  0.16908500  0.56183800  0.93037000  1
  O  O12  1  0.13712200  0.90683100  0.34677300  1
  O  O13  1  0.86287800  0.09316900  0.65322700  1
  O  O14  1  0.39706200  0.30827700  0.68379000  1
  O  O15  1  0.60293800  0.69172300  0.31621000  1
  O  O16  1  0.32969800  0.79948200  0.03685400  1
  O  O17  1  0.67030200  0.20051800  0.96314600  1
  O  O18  1  0.41688500  0.43136500  0.16192300  1
  O  O19  1  0.58311500  0.56863500  0.83807700  1
loop_
_geom_bond_atom_site_label_1
_geom_bond_atom_site_label_2
_geom_bond_distance
_geom_bond_site_symmetry_2
Fe0 O8 1.969133 1_555
Fe0 O2 2.048855 1_555
Fe0 O6 2.051256 1_554
Fe0 O18 2.051376 1_555
Fe0 O10 2.081796 1_455
Fe0 O11 2.092754 1_554
Fe1 O9 1.969133 1_555
Fe1 O3 2.048855 1_555
Fe1 O7 2.051256 1_556
Fe1 O19 2.051376 1_555
Fe1 O11 2.081796 1_655
Fe1 O10 2.092754 1_556
Co0 O12 2.049596 1_555
Co0 O15 2.073252 1_555
Co0 O0 2.101024 1_555
Co0 O2 2.153105 1_555
Co0 O18 2.171416 1_555
Co0 O16 2.218549 1_555
Co1 O13 2.049596 1_555
Co1 O14 2.073252 1_555
Co1 O1 2.101024 1_555
Co1 O3 2.153105 1_555
Co1 O19 2.171416 1_555
Co1 O17 2.218549 1_555
Co2 O4 2.057070 1_555
Co2 O5 2.057070 1_544
Co2 O17 2.160618 1_554
Co2 O16 2.160618 1_545
Co2 O7 2.160968 1_545
Co2 O6 2.160968 1_554
H0 O0 0.990056 1_555
H1 O1 0.990056 1_555
H2 O0 0.991519 1_555
H3 O1 0.991519 1_555
O2 Se5 1.764888 1_455
O3 Se4 1.764888 1_655
O4 Se0 1.737469 1_555
O5 Se1 1.737469 1_555
O6 Se4 1.783717 1_555
O7 Se5 1.783717 1_555
O8 Se0 1.780798 1_555
O9 Se1 1.780798 1_555
O10 Se2 1.771749 1_555
O11 Se3 1.771749 1_555
O12 Se0 1.700113 1_565
O13 Se1 1.700113 1_545
O14 Se4 1.701974 1_555
O15 Se5 1.701974 1_555
O16 Se3 1.714716 1_554
O17 Se2 1.714716 1_556
O18 Se2 1.763214 1_555
O19 Se3 1.763214 1_555
