# generated using pymatgen
data_Zr5Ga4
_symmetry_space_group_name_H-M   'P 1'
_cell_length_a   8.37586961
_cell_length_b   8.37586961
_cell_length_c   5.75520262
_cell_angle_alpha   90.00000000
_cell_angle_beta   90.00000000
_cell_angle_gamma   119.99999313
_symmetry_Int_Tables_number   1
_chemical_formula_structural   Zr5Ga4
_chemical_formula_sum   'Zr10 Ga8'
_cell_volume   349.66414041
_cell_formula_units_Z   2
loop_
 _symmetry_equiv_pos_site_id
 _symmetry_equiv_pos_as_xyz
  1  'x, y, z'
loop_
 _atom_site_type_symbol
 _atom_site_label
 _atom_site_symmetry_multiplicity
 _atom_site_fract_x
 _atom_site_fract_y
 _atom_site_fract_z
 _atom_site_occupancy
  Zr  Zr0  1  0.66666700  0.33333300  0.00000000  1
  Zr  Zr1  1  0.33333300  0.66666700  0.00000000  1
  Zr  Zr2  1  0.33333300  0.66666700  0.50000000  1
  Zr  Zr3  1  0.66666700  0.33333300  0.50000000  1
  Zr  Zr4  1  0.72446174  0.72446174  0.75000000  1
  Zr  Zr5  1  0.27553826  -0.00000000  0.75000000  1
  Zr  Zr6  1  -0.00000000  0.27553826  0.75000000  1
  Zr  Zr7  1  0.27553826  0.27553826  0.25000000  1
  Zr  Zr8  1  0.72446174  0.00000000  0.25000000  1
  Zr  Zr9  1  0.00000000  0.72446174  0.25000000  1
  Ga  Ga0  1  -0.00000000  -0.00000000  0.00000000  1
  Ga  Ga1  1  -0.00000000  -0.00000000  0.50000000  1
  Ga  Ga2  1  0.37956666  0.37956666  0.75000000  1
  Ga  Ga3  1  0.62043334  -0.00000000  0.75000000  1
  Ga  Ga4  1  -0.00000000  0.62043334  0.75000000  1
  Ga  Ga5  1  0.62043334  0.62043334  0.25000000  1
  Ga  Ga6  1  0.37956666  0.00000000  0.25000000  1
  Ga  Ga7  1  0.00000000  0.37956666  0.25000000  1
loop_
_geom_bond_atom_site_label_1
_geom_bond_atom_site_label_2
_geom_bond_distance
_geom_bond_site_symmetry_2
Zr0 Zr3 2.877601 1_554
Zr0 Zr3 2.877601 1_555
Zr1 Zr2 2.877601 1_554
Zr1 Zr2 2.877601 1_555
Ga0 Zr5 2.719637 1_554
Ga0 Zr6 2.719637 1_554
Ga0 Zr9 2.719637 1_545
Ga0 Zr8 2.719637 1_455
Ga0 Zr7 2.719637 1_555
Ga0 Zr4 2.719637 1_444
Ga0 Ga1 2.877601 1_554
Ga0 Ga1 2.877601 1_555
Ga1 Zr5 2.719637 1_555
Ga1 Zr6 2.719637 1_555
Ga1 Zr9 2.719637 1_545
Ga1 Zr8 2.719637 1_455
Ga1 Zr7 2.719637 1_555
Ga1 Zr4 2.719637 1_445
Ga2 Zr6 2.845418 1_555
Ga2 Zr5 2.845418 1_555
Ga2 Zr4 2.888797 1_555
Ga2 Zr2 2.988977 1_555
Ga2 Zr3 2.988977 1_555
Ga2 Zr0 2.988977 1_556
Ga2 Zr1 2.988977 1_556
Ga2 Zr7 3.006626 1_555
Ga2 Zr7 3.006626 1_556
Ga3 Zr4 2.845418 1_545
Ga3 Zr6 2.845418 1_655
Ga3 Zr5 2.888796 1_555
Ga3 Zr3 2.988969 1_555
Ga3 Zr0 2.988969 1_556
Ga3 Zr1 2.988972 1_546
Ga3 Zr2 2.988972 1_545
Ga3 Zr8 3.006626 1_556
Ga3 Zr8 3.006626 1_555
Ga4 Zr4 2.845418 1_455
Ga4 Zr5 2.845418 1_565
Ga4 Zr6 2.888796 1_555
Ga4 Zr2 2.988969 1_555
Ga4 Zr1 2.988969 1_556
Ga4 Zr0 2.988972 1_456
Ga4 Zr3 2.988972 1_455
Ga4 Zr9 3.006626 1_556
Ga4 Zr9 3.006626 1_555
Ga5 Zr9 2.845418 1_655
Ga5 Zr8 2.845418 1_565
Ga5 Zr7 2.888797 1_555
Ga5 Zr2 2.988977 1_555
Ga5 Zr1 2.988977 1_555
Ga5 Zr3 2.988977 1_555
Ga5 Zr0 2.988977 1_555
Ga5 Zr4 3.006626 1_554
Ga5 Zr4 3.006626 1_555
Ga6 Zr7 2.845418 1_555
Ga6 Zr9 2.845418 1_545
Ga6 Zr8 2.888796 1_555
Ga6 Zr2 2.988969 1_545
Ga6 Zr1 2.988969 1_545
Ga6 Zr0 2.988972 1_555
Ga6 Zr3 2.988972 1_555
Ga6 Zr5 3.006626 1_555
Ga6 Zr5 3.006626 1_554
Ga7 Zr7 2.845418 1_555
Ga7 Zr8 2.845418 1_455
Ga7 Zr9 2.888796 1_555
Ga7 Zr3 2.988969 1_455
Ga7 Zr0 2.988969 1_455
Ga7 Zr1 2.988972 1_555
Ga7 Zr2 2.988972 1_555
Ga7 Zr6 3.006626 1_554
Ga7 Zr6 3.006626 1_555
