# generated using pymatgen
data_Zr2Ga3Co
_symmetry_space_group_name_H-M   'P 1'
_cell_length_a   5.34288783
_cell_length_b   5.34288783
_cell_length_c   6.54808826
_cell_angle_alpha   52.89360845
_cell_angle_beta   52.89360845
_cell_angle_gamma   46.00324821
_symmetry_Int_Tables_number   1
_chemical_formula_structural   Zr2Ga3Co
_chemical_formula_sum   'Zr2 Ga3 Co1'
_cell_volume   101.56187778
_cell_formula_units_Z   1
loop_
 _symmetry_equiv_pos_site_id
 _symmetry_equiv_pos_as_xyz
  1  'x, y, z'
loop_
 _atom_site_type_symbol
 _atom_site_label
 _atom_site_symmetry_multiplicity
 _atom_site_fract_x
 _atom_site_fract_y
 _atom_site_fract_z
 _atom_site_occupancy
  Zr  Zr0  1  0.54117100  0.54117100  0.70968400  1
  Zr  Zr1  1  0.45577800  0.45577800  0.29529800  1
  Ga  Ga0  1  0.85247100  0.85247100  0.67505400  1
  Ga  Ga1  1  0.82236200  0.82236200  0.13390000  1
  Ga  Ga2  1  0.16237900  0.16237900  0.89926000  1
  Co  Co0  1  0.16583800  0.16583800  0.28680300  1
loop_
_geom_bond_atom_site_label_1
_geom_bond_atom_site_label_2
_geom_bond_distance
_geom_bond_site_symmetry_2
Ga0 Ga2 2.532191 1_565
Ga0 Ga2 2.532191 1_655
Ga0 Ga1 2.819348 1_556
Ga0 Zr1 2.874493 1_655
Ga0 Zr1 2.874493 1_565
Ga0 Zr0 2.899480 1_565
Ga0 Zr0 2.899480 1_655
Ga0 Zr0 2.918416 1_555
Ga0 Zr1 3.308668 1_556
Ga1 Ga2 2.609679 1_664
Ga1 Zr0 2.862826 1_555
Ga1 Zr0 2.978328 1_654
Ga1 Zr0 2.978328 1_564
Ga1 Zr1 3.002639 1_565
Ga1 Zr1 3.002639 1_655
Ga1 Zr1 3.020504 1_555
Ga2 Zr1 2.881957 1_546
Ga2 Zr1 2.881957 1_456
Ga2 Zr1 3.001394 1_555
Ga2 Zr0 3.043213 1_545
Ga2 Zr0 3.043213 1_455
Ga2 Zr0 3.059475 1_555
Co0 Ga0 2.385850 1_445
Co0 Ga1 2.389773 1_545
Co0 Ga1 2.389773 1_455
Co0 Ga2 2.560094 1_554
Co0 Zr1 2.888668 1_555
Co0 Zr1 2.912108 1_455
Co0 Zr1 2.912108 1_545
Co0 Zr0 3.013179 1_545
Co0 Zr0 3.013179 1_455
Co0 Zr0 3.102075 1_554
