# generated using pymatgen
data_K2Fe2(PO4)3
_symmetry_space_group_name_H-M   'P 1'
_cell_length_a   10.03759900
_cell_length_b   10.03759900
_cell_length_c   10.03759900
_cell_angle_alpha   90.00000000
_cell_angle_beta   90.00000000
_cell_angle_gamma   90.00000000
_symmetry_Int_Tables_number   1
_chemical_formula_structural   K2Fe2(PO4)3
_chemical_formula_sum   'K8 Fe8 P12 O48'
_cell_volume   1011.32216370
_cell_formula_units_Z   4
loop_
 _symmetry_equiv_pos_site_id
 _symmetry_equiv_pos_as_xyz
  1  'x, y, z'
loop_
 _atom_site_type_symbol
 _atom_site_label
 _atom_site_symmetry_multiplicity
 _atom_site_fract_x
 _atom_site_fract_y
 _atom_site_fract_z
 _atom_site_occupancy
  K  K0  1  0.04310400  0.04310400  0.04310400  1
  K  K1  1  0.45689600  0.95689600  0.54310400  1
  K  K2  1  0.95689600  0.54310400  0.45689600  1
  K  K3  1  0.54310400  0.45689600  0.95689600  1
  K  K4  1  0.81716700  0.81716700  0.81716700  1
  K  K5  1  0.68283300  0.18283300  0.31716700  1
  K  K6  1  0.18283300  0.31716700  0.68283300  1
  K  K7  1  0.31716700  0.68283300  0.18283300  1
  Fe  Fe0  1  0.33590900  0.33590900  0.33590900  1
  Fe  Fe1  1  0.16409100  0.66409100  0.83590900  1
  Fe  Fe2  1  0.66409100  0.83590900  0.16409100  1
  Fe  Fe3  1  0.83590900  0.16409100  0.66409100  1
  Fe  Fe4  1  0.60342400  0.60342400  0.60342400  1
  Fe  Fe5  1  0.89657600  0.39657600  0.10342400  1
  Fe  Fe6  1  0.39657600  0.10342400  0.89657600  1
  Fe  Fe7  1  0.10342400  0.89657600  0.39657600  1
  P  P0  1  0.02086100  0.21087900  0.37577100  1
  P  P1  1  0.47913900  0.78912100  0.87577100  1
  P  P2  1  0.97913900  0.71087900  0.12422900  1
  P  P3  1  0.37577100  0.02086100  0.21087900  1
  P  P4  1  0.52086100  0.28912100  0.62422900  1
  P  P5  1  0.87577100  0.47913900  0.78912100  1
  P  P6  1  0.12422900  0.97913900  0.71087900  1
  P  P7  1  0.62422900  0.52086100  0.28912100  1
  P  P8  1  0.21087900  0.37577100  0.02086100  1
  P  P9  1  0.71087900  0.12422900  0.97913900  1
  P  P10  1  0.28912100  0.62422900  0.52086100  1
  P  P11  1  0.78912100  0.87577100  0.47913900  1
  O  O0  1  0.01277400  0.06390000  0.32784900  1
  O  O1  1  0.48722600  0.93610000  0.82784900  1
  O  O2  1  0.98722600  0.56390000  0.17215100  1
  O  O3  1  0.32784900  0.01277400  0.06390000  1
  O  O4  1  0.51277400  0.43610000  0.67215100  1
  O  O5  1  0.82784900  0.48722600  0.93610000  1
  O  O6  1  0.17215100  0.98722600  0.56390000  1
  O  O7  1  0.67215100  0.51277400  0.43610000  1
  O  O8  1  0.06390000  0.32784900  0.01277400  1
  O  O9  1  0.56390000  0.17215100  0.98722600  1
  O  O10  1  0.43610000  0.67215100  0.51277400  1
  O  O11  1  0.93610000  0.82784900  0.48722600  1
  O  O12  1  0.16724000  0.25037600  0.40069000  1
  O  O13  1  0.33276000  0.74962400  0.90069000  1
  O  O14  1  0.83276000  0.75037600  0.09931000  1
  O  O15  1  0.40069000  0.16724000  0.25037600  1
  O  O16  1  0.66724000  0.24962400  0.59931000  1
  O  O17  1  0.90069000  0.33276000  0.74962400  1
  O  O18  1  0.09931000  0.83276000  0.75037600  1
  O  O19  1  0.59931000  0.66724000  0.24962400  1
  O  O20  1  0.25037600  0.40069000  0.16724000  1
  O  O21  1  0.75037600  0.09931000  0.83276000  1
  O  O22  1  0.24962400  0.59931000  0.66724000  1
  O  O23  1  0.74962400  0.90069000  0.33276000  1
  O  O24  1  0.04680600  0.80197600  0.22778300  1
  O  O25  1  0.45319400  0.19802400  0.72778300  1
  O  O26  1  0.95319400  0.30197600  0.27221700  1
  O  O27  1  0.22778300  0.04680600  0.80197600  1
  O  O28  1  0.54680600  0.69802400  0.77221700  1
  O  O29  1  0.72778300  0.45319400  0.19802400  1
  O  O30  1  0.27221700  0.95319400  0.30197600  1
  O  O31  1  0.77221700  0.54680600  0.69802400  1
  O  O32  1  0.80197600  0.22778300  0.04680600  1
  O  O33  1  0.30197600  0.27221700  0.95319400  1
  O  O34  1  0.69802400  0.77221700  0.54680600  1
  O  O35  1  0.19802400  0.72778300  0.45319400  1
  O  O36  1  0.26811300  0.49247800  0.44355400  1
  O  O37  1  0.23188700  0.50752200  0.94355400  1
  O  O38  1  0.73188700  0.99247800  0.05644600  1
  O  O39  1  0.44355400  0.26811300  0.49247800  1
  O  O40  1  0.76811300  0.00752200  0.55644600  1
  O  O41  1  0.94355400  0.23188700  0.50752200  1
  O  O42  1  0.05644600  0.73188700  0.99247800  1
  O  O43  1  0.55644600  0.76811300  0.00752200  1
  O  O44  1  0.49247800  0.44355400  0.26811300  1
  O  O45  1  0.99247800  0.05644600  0.73188700  1
  O  O46  1  0.00752200  0.55644600  0.76811300  1
  O  O47  1  0.50752200  0.94355400  0.23188700  1
loop_
_geom_bond_atom_site_label_1
_geom_bond_atom_site_label_2
_geom_bond_distance
_geom_bond_site_symmetry_2
K0 O3 2.881894 1_555
K0 O0 2.881894 1_555
K0 O8 2.881894 1_555
K0 O27 3.048899 1_554
K0 O24 3.048899 1_545
K0 O32 3.048899 1_455
K0 O38 3.167765 1_445
K0 O42 3.167765 1_544
K0 O45 3.167765 1_454
K1 O1 2.881894 1_555
K1 O10 2.881894 1_555
K1 O6 2.881894 1_555
K1 O34 3.048899 1_555
K1 O25 3.048899 1_565
K1 O30 3.048899 1_555
K1 O47 3.167765 1_555
K1 O40 3.167765 1_565
K1 O39 3.167765 1_565
K2 O11 2.881894 1_555
K2 O7 2.881894 1_555
K2 O2 2.881894 1_555
K2 O31 3.048899 1_555
K2 O35 3.048899 1_655
K2 O26 3.048899 1_555
K2 O46 3.167765 1_655
K2 O41 3.167765 1_555
K2 O36 3.167765 1_655
K3 O5 2.881894 1_555
K3 O4 2.881894 1_555
K3 O9 2.881894 1_555
K3 O28 3.048899 1_555
K3 O29 3.048899 1_556
K3 O33 3.048899 1_555
K3 O43 3.167765 1_556
K3 O37 3.167765 1_555
K3 O44 3.167765 1_556
K4 O14 2.914516 1_556
K4 O21 2.914516 1_565
K4 O18 2.914516 1_655
K4 O28 2.999725 1_555
K4 O31 2.999725 1_555
K4 O34 2.999725 1_555
K4 O45 3.098044 1_565
K4 O42 3.098044 1_655
K4 O38 3.098044 1_556
K4 O43 3.277499 1_556
K4 O46 3.277499 1_655
K4 O40 3.277499 1_565
K5 O16 2.914516 1_555
K5 O15 2.914516 1_555
K5 O23 2.914516 1_545
K5 O29 2.999725 1_555
K5 O26 2.999725 1_555
K5 O32 2.999725 1_555
K5 O47 3.098044 1_545
K5 O40 3.098044 1_555
K5 O39 3.098044 1_555
K5 O44 3.277499 1_555
K5 O38 3.277499 1_545
K5 O41 3.277499 1_555
K6 O12 2.914516 1_555
K6 O22 2.914516 1_555
K6 O17 2.914516 1_455
K6 O25 2.999725 1_555
K6 O33 2.999725 1_555
K6 O27 2.999725 1_555
K6 O41 3.098044 1_455
K6 O46 3.098044 1_555
K6 O36 3.098044 1_555
K6 O45 3.277499 1_455
K6 O39 3.277499 1_555
K6 O37 3.277499 1_555
K7 O13 2.914516 1_554
K7 O19 2.914516 1_555
K7 O20 2.914516 1_555
K7 O35 2.999725 1_555
K7 O24 2.999725 1_555
K7 O30 2.999725 1_555
K7 O37 3.098044 1_554
K7 O43 3.098044 1_555
K7 O44 3.098044 1_555
K7 O36 3.277499 1_555
K7 O42 3.277499 1_554
K7 O47 3.277499 1_555
Fe0 O15 2.006559 1_555
Fe0 O12 2.006559 1_555
Fe0 O20 2.006559 1_555
Fe0 O39 2.024950 1_555
Fe0 O36 2.024950 1_555
Fe0 O44 2.024950 1_555
Fe1 O18 2.006559 1_555
Fe1 O22 2.006559 1_555
Fe1 O13 2.006559 1_555
Fe1 O42 2.024950 1_555
Fe1 O46 2.024950 1_555
Fe1 O37 2.024950 1_555
Fe2 O14 2.006559 1_555
Fe2 O19 2.006559 1_555
Fe2 O23 2.006559 1_555
Fe2 O43 2.024950 1_555
Fe2 O47 2.024950 1_555
Fe2 O38 2.024950 1_555
Fe3 O21 2.006559 1_555
Fe3 O17 2.006559 1_555
Fe3 O16 2.006559 1_555
Fe3 O41 2.024950 1_555
Fe3 O45 2.024950 1_555
Fe3 O40 2.024950 1_555
Fe4 O34 2.023661 1_555
Fe4 O31 2.023661 1_555
Fe4 O28 2.023661 1_555
Fe4 O4 2.030925 1_555
Fe4 O10 2.030925 1_555
Fe4 O7 2.030925 1_555
Fe5 O26 2.023661 1_555
Fe5 O32 2.023661 1_555
Fe5 O29 2.023661 1_555
Fe5 O2 2.030925 1_555
Fe5 O8 2.030925 1_655
Fe5 O5 2.030925 1_554
Fe6 O33 2.023661 1_555
Fe6 O27 2.023661 1_555
Fe6 O25 2.023661 1_555
Fe6 O9 2.030925 1_555
Fe6 O3 2.030925 1_556
Fe6 O1 2.030925 1_545
Fe7 O30 2.023661 1_555
Fe7 O24 2.023661 1_555
Fe7 O35 2.023661 1_555
Fe7 O6 2.030925 1_555
Fe7 O11 2.030925 1_455
Fe7 O0 2.030925 1_565
O0 P0 1.553876 1_555
O1 P1 1.553876 1_555
O2 P2 1.553876 1_555
O3 P3 1.553876 1_555
O4 P4 1.553876 1_555
O5 P5 1.553876 1_555
O6 P6 1.553876 1_555
O7 P7 1.553876 1_555
O8 P8 1.553876 1_555
O9 P9 1.553876 1_555
O10 P10 1.553876 1_555
O11 P11 1.553876 1_555
O12 P0 1.542259 1_555
O13 P1 1.542259 1_555
O14 P2 1.542259 1_555
O15 P3 1.542259 1_555
O16 P4 1.542259 1_555
O17 P5 1.542259 1_555
O18 P6 1.542259 1_555
O19 P7 1.542259 1_555
O20 P8 1.542259 1_555
O21 P9 1.542259 1_555
O22 P10 1.542259 1_555
O23 P11 1.542259 1_555
O24 P2 1.542035 1_455
O25 P4 1.542035 1_555
O26 P0 1.542035 1_655
O27 P6 1.542035 1_545
O28 P1 1.542035 1_555
O29 P7 1.542035 1_555
O30 P3 1.542035 1_565
O31 P5 1.542035 1_555
O32 P9 1.542035 1_554
O33 P8 1.542035 1_556
O34 P11 1.542035 1_555
O35 P10 1.542035 1_555
O36 P10 1.547746 1_555
O37 P8 1.547746 1_556
O38 P9 1.547746 1_564
O39 P4 1.547746 1_555
O40 P11 1.547746 1_545
O41 P0 1.547746 1_655
O42 P2 1.547746 1_456
O43 P1 1.547746 1_554
O44 P7 1.547746 1_555
O45 P6 1.547746 1_645
O46 P5 1.547746 1_455
O47 P3 1.547746 1_565
