# generated using pymatgen
data_Pr4Ga2O9
_symmetry_space_group_name_H-M   'P 1'
_cell_length_a   11.10585283
_cell_length_b   7.86874421
_cell_length_c   11.59306830
_cell_angle_alpha   70.79062053
_cell_angle_beta   90.00000000
_cell_angle_gamma   90.00000000
_symmetry_Int_Tables_number   1
_chemical_formula_structural   Pr4Ga2O9
_chemical_formula_sum   'Pr16 Ga8 O36'
_cell_volume   956.70068223
_cell_formula_units_Z   4
loop_
 _symmetry_equiv_pos_site_id
 _symmetry_equiv_pos_as_xyz
  1  'x, y, z'
loop_
 _atom_site_type_symbol
 _atom_site_label
 _atom_site_symmetry_multiplicity
 _atom_site_fract_x
 _atom_site_fract_y
 _atom_site_fract_z
 _atom_site_occupancy
  Pr  Pr0  1  0.62131833  0.16555286  0.91122632  1
  Pr  Pr1  1  0.12131833  0.83444714  0.58877368  1
  Pr  Pr2  1  0.37868167  0.83444714  0.08877368  1
  Pr  Pr3  1  0.87868167  0.16555286  0.41122632  1
  Pr  Pr4  1  0.62261534  0.66619196  0.92765811  1
  Pr  Pr5  1  0.12261534  0.33380804  0.57234189  1
  Pr  Pr6  1  0.37738466  0.33380804  0.07234189  1
  Pr  Pr7  1  0.87738466  0.66619196  0.42765811  1
  Pr  Pr8  1  0.58720519  0.97545092  0.30778887  1
  Pr  Pr9  1  0.08720519  0.02454908  0.19221113  1
  Pr  Pr10  1  0.41279481  0.02454908  0.69221113  1
  Pr  Pr11  1  0.91279481  0.97545092  0.80778887  1
  Pr  Pr12  1  0.60326479  0.47825454  0.28358467  1
  Pr  Pr13  1  0.10326479  0.52174546  0.21641533  1
  Pr  Pr14  1  0.39673521  0.52174546  0.71641533  1
  Pr  Pr15  1  0.89673521  0.47825454  0.78358467  1
  Ga  Ga0  1  0.68652000  0.34528831  0.61567681  1
  Ga  Ga1  1  0.18652000  0.65471169  0.88432319  1
  Ga  Ga2  1  0.31348000  0.65471169  0.38432319  1
  Ga  Ga3  1  0.81348000  0.34528831  0.11567681  1
  Ga  Ga4  1  0.68958219  0.78191880  0.62750693  1
  Ga  Ga5  1  0.18958219  0.21808120  0.87249307  1
  Ga  Ga6  1  0.31041781  0.21808120  0.37249307  1
  Ga  Ga7  1  0.81041781  0.78191880  0.12750693  1
  O  O0  1  0.50975927  0.43103545  0.89828228  1
  O  O1  1  0.00975927  0.56896455  0.60171772  1
  O  O2  1  0.49024073  0.56896455  0.10171772  1
  O  O3  1  0.99024073  0.43103545  0.39828228  1
  O  O4  1  0.49541308  0.92333217  0.89488940  1
  O  O5  1  0.99541308  0.07666783  0.60511060  1
  O  O6  1  0.50458692  0.07666783  0.10511060  1
  O  O7  1  0.00458692  0.92333217  0.39488940  1
  O  O8  1  0.53300953  0.29609370  0.67802670  1
  O  O9  1  0.03300953  0.70390630  0.82197330  1
  O  O10  1  0.46699047  0.70390630  0.32197330  1
  O  O11  1  0.96699047  0.29609370  0.17802670  1
  O  O12  1  0.72880941  0.36125044  0.46065750  1
  O  O13  1  0.22880941  0.63874956  0.03934250  1
  O  O14  1  0.53160167  0.77844725  0.67223025  1
  O  O15  1  0.27119059  0.63874956  0.53934250  1
  O  O16  1  0.74879900  0.56762419  0.61334626  1
  O  O17  1  0.24879900  0.43237581  0.88665374  1
  O  O18  1  0.25120100  0.43237581  0.38665374  1
  O  O19  1  0.75120100  0.56762419  0.11334626  1
  O  O20  1  0.73329835  0.92642656  0.47576439  1
  O  O21  1  0.23329835  0.07357344  0.02423561  1
  O  O22  1  0.26670165  0.07357344  0.52423561  1
  O  O23  1  0.76670165  0.92642656  0.97576439  1
  O  O24  1  0.77796130  0.21578789  0.74852166  1
  O  O25  1  0.27796130  0.78421211  0.75147834  1
  O  O26  1  0.22203870  0.78421211  0.25147834  1
  O  O27  1  0.72203870  0.21578789  0.24852166  1
  O  O28  1  0.77694968  0.76589866  0.76720331  1
  O  O29  1  0.27694968  0.23410134  0.73279669  1
  O  O30  1  0.22305032  0.23410134  0.23279669  1
  O  O31  1  0.72305032  0.76589866  0.26720331  1
  O  O32  1  0.96839833  0.77844725  0.17223025  1
  O  O33  1  0.46839833  0.22155275  0.32776975  1
  O  O34  1  0.03160167  0.22155275  0.82776975  1
  O  O35  1  0.77119059  0.36125044  0.96065750  1
loop_
_geom_bond_atom_site_label_1
_geom_bond_atom_site_label_2
_geom_bond_distance
_geom_bond_site_symmetry_2
Ga0 O12 1.821419 1_555
Ga0 O8 1.842488 1_555
Ga0 O24 1.846301 1_555
Ga0 O16 1.873175 1_555
Ga1 O13 1.821419 1_556
Ga1 O9 1.842488 1_555
Ga1 O25 1.846301 1_555
Ga1 O17 1.873175 1_555
Ga2 O15 1.821419 1_555
Ga2 O10 1.842488 1_555
Ga2 O26 1.846301 1_555
Ga2 O18 1.873175 1_555
Ga3 O35 1.821419 1_554
Ga3 O11 1.842488 1_555
Ga3 O27 1.846301 1_555
Ga3 O19 1.873175 1_555
Ga4 O20 1.818528 1_555
Ga4 O14 1.827169 1_555
Ga4 O28 1.856293 1_555
Ga4 O16 1.866812 1_555
Ga5 O21 1.818528 1_556
Ga5 O34 1.827169 1_555
Ga5 O29 1.856293 1_555
Ga5 O17 1.866812 1_555
Ga6 O22 1.818528 1_555
Ga6 O33 1.827169 1_555
Ga6 O30 1.856293 1_555
Ga6 O18 1.866812 1_555
Ga7 O23 1.818528 1_554
Ga7 O32 1.827169 1_555
Ga7 O31 1.856293 1_555
Ga7 O19 1.866812 1_555
O0 Pr4 2.350638 1_555
O0 Pr14 2.353743 1_555
O0 Pr0 2.390656 1_555
O0 Pr6 2.408854 1_556
O1 Pr5 2.350638 1_555
O1 Pr15 2.353743 1_455
O1 Pr1 2.390656 1_555
O1 Pr7 2.408854 1_455
O2 Pr6 2.350638 1_555
O2 Pr12 2.353743 1_555
O2 Pr2 2.390656 1_555
O2 Pr4 2.408854 1_554
O3 Pr7 2.350638 1_555
O3 Pr13 2.353743 1_655
O3 Pr3 2.390656 1_555
O3 Pr5 2.408854 1_655
O4 Pr4 2.393371 1_555
O4 Pr10 2.401184 1_565
O4 Pr0 2.421021 1_565
O4 Pr2 2.487480 1_556
O5 Pr5 2.393371 1_655
O5 Pr11 2.401184 1_545
O5 Pr1 2.421021 1_645
O5 Pr3 2.487480 1_555
O6 Pr6 2.393371 1_555
O6 Pr8 2.401184 1_545
O6 Pr2 2.421021 1_545
O6 Pr0 2.487480 1_554
O7 Pr7 2.393371 1_455
O7 Pr9 2.401184 1_565
O7 Pr3 2.421021 1_465
O7 Pr1 2.487480 1_555
O8 Pr10 2.478677 1_555
O8 Pr14 2.482198 1_555
O8 Pr0 2.738339 1_555
O9 Pr11 2.478677 1_455
O9 Pr15 2.482198 1_455
O9 Pr1 2.738339 1_555
O10 Pr8 2.478677 1_555
O10 Pr12 2.482198 1_555
O10 Pr2 2.738339 1_555
O11 Pr9 2.478677 1_655
O11 Pr13 2.482198 1_655
O11 Pr3 2.738339 1_555
O12 Pr12 2.400424 1_555
O12 Pr3 2.459834 1_555
O12 Pr7 2.832421 1_555
O13 Pr13 2.400424 1_555
O13 Pr2 2.459834 1_555
O13 Pr6 2.832421 1_555
O14 Pr10 2.416582 1_565
O14 Pr14 2.430027 1_555
O14 Pr4 2.974790 1_555
O15 Pr14 2.400424 1_555
O15 Pr1 2.459834 1_555
O15 Pr5 2.832421 1_555
O16 Pr15 2.485074 1_555
O16 Pr7 2.485217 1_555
O17 Pr14 2.485074 1_555
O17 Pr6 2.485217 1_556
O18 Pr13 2.485074 1_555
O18 Pr5 2.485217 1_555
O19 Pr12 2.485074 1_555
O19 Pr4 2.485217 1_554
O20 Pr3 2.404340 1_565
O20 Pr8 2.465590 1_555
O20 Pr7 2.795768 1_555
O21 Pr2 2.404340 1_545
O21 Pr9 2.465590 1_555
O21 Pr6 2.795768 1_555
O22 Pr1 2.404340 1_545
O22 Pr10 2.465590 1_555
O22 Pr5 2.795768 1_555
O23 Pr0 2.404340 1_565
O23 Pr11 2.465590 1_555
O23 Pr4 2.795768 1_555
O24 Pr11 2.331484 1_545
O24 Pr0 2.499986 1_555
O24 Pr15 2.592884 1_555
O25 Pr10 2.331484 1_565
O25 Pr1 2.499986 1_555
O25 Pr14 2.592884 1_555
O26 Pr9 2.331484 1_565
O26 Pr2 2.499986 1_555
O26 Pr13 2.592884 1_555
O27 Pr8 2.331484 1_545
O27 Pr3 2.499986 1_555
O27 Pr12 2.592884 1_555
O28 Pr11 2.393100 1_555
O28 Pr4 2.460333 1_555
O28 Pr15 2.577971 1_555
O29 Pr10 2.393100 1_555
O29 Pr5 2.460333 1_555
O29 Pr14 2.577971 1_555
O30 Pr9 2.393100 1_555
O30 Pr6 2.460333 1_555
O30 Pr13 2.577971 1_555
O31 Pr8 2.393100 1_555
O31 Pr7 2.460333 1_555
O31 Pr12 2.577971 1_555
O32 Pr9 2.416582 1_665
O32 Pr13 2.430027 1_655
O32 Pr7 2.974790 1_555
O33 Pr8 2.416582 1_545
O33 Pr12 2.430027 1_555
O33 Pr6 2.974790 1_555
O34 Pr11 2.416582 1_445
O34 Pr15 2.430027 1_455
O34 Pr5 2.974790 1_555
O35 Pr15 2.400424 1_555
O35 Pr0 2.459834 1_555
O35 Pr4 2.832421 1_555
