# generated using pymatgen
data_Li5Mn3O8
_symmetry_space_group_name_H-M   'P 1'
_cell_length_a   2.91815000
_cell_length_b   5.95579178
_cell_length_c   8.25217596
_cell_angle_alpha   89.97890715
_cell_angle_beta   90.69319635
_cell_angle_gamma   91.94285949
_symmetry_Int_Tables_number   1
_chemical_formula_structural   Li5Mn3O8
_chemical_formula_sum   'Li5 Mn3 O8'
_cell_volume   143.32900259
_cell_formula_units_Z   1
loop_
 _symmetry_equiv_pos_site_id
 _symmetry_equiv_pos_as_xyz
  1  'x, y, z'
loop_
 _atom_site_type_symbol
 _atom_site_label
 _atom_site_symmetry_multiplicity
 _atom_site_fract_x
 _atom_site_fract_y
 _atom_site_fract_z
 _atom_site_occupancy
  Li  Li0  1  0.99961600  0.74314400  0.26748900  1
  Li  Li1  1  0.50000000  0.00000000  0.50000000  1
  Li  Li2  1  0.50000000  0.50000000  0.00000000  1
  Li  Li3  1  0.00038400  0.25685600  0.73251100  1
  Li  Li4  1  0.50000000  0.50000000  0.50000000  1
  Mn  Mn0  1  0.99570000  0.25675300  0.26301500  1
  Mn  Mn1  1  0.00430000  0.74324700  0.73698500  1
  Mn  Mn2  1  0.50000000  0.00000000  0.00000000  1
  O  O0  1  0.48136300  0.02824600  0.24684500  1
  O  O1  1  0.00304800  0.24902100  0.48137700  1
  O  O2  1  0.03717400  0.76324600  0.99022700  1
  O  O3  1  0.49084900  0.52821900  0.75098900  1
  O  O4  1  0.50915100  0.47178100  0.24901100  1
  O  O5  1  0.99695200  0.75097900  0.51862300  1
  O  O6  1  0.96282600  0.23675400  0.00977300  1
  O  O7  1  0.51863700  0.97175400  0.75315500  1
loop_
_geom_bond_atom_site_label_1
_geom_bond_atom_site_label_2
_geom_bond_distance
_geom_bond_site_symmetry_2
Li0 O5 2.073059 1_555
Li0 O4 2.126459 1_555
Li0 O0 2.175380 1_665
Li0 O4 2.239369 1_655
Li0 O2 2.294849 1_654
Li0 O0 2.316701 1_565
Li1 O1 2.058119 1_655
Li1 O5 2.058119 1_445
Li1 O7 2.095978 1_545
Li1 O0 2.095978 1_555
Li1 O5 2.113422 1_545
Li1 O1 2.113422 1_555
Li2 O4 2.061607 1_555
Li2 O3 2.061607 1_554
Li2 O2 2.104657 1_554
Li2 O6 2.104657 1_555
Li2 O2 2.181323 1_654
Li2 O6 2.181323 1_455
Li3 O1 2.073059 1_555
Li3 O3 2.126459 1_555
Li3 O7 2.175380 1_445
Li3 O3 2.239369 1_455
Li3 O6 2.294849 1_456
Li3 O7 2.316701 1_545
Li4 O1 2.051536 1_555
Li4 O5 2.051536 1_555
Li4 O3 2.078641 1_555
Li4 O4 2.078641 1_555
Li4 O1 2.137131 1_655
Li4 O5 2.137131 1_455
Mn0 O1 1.802420 1_655
Mn0 O4 1.942268 1_655
Mn0 O4 1.946422 1_555
Mn0 O0 1.994865 1_555
Mn0 O0 2.003501 1_655
Mn0 O6 2.094087 1_555
Mn1 O5 1.802420 1_455
Mn1 O3 1.942268 1_455
Mn1 O3 1.946422 1_555
Mn1 O7 1.994865 1_555
Mn1 O7 2.003501 1_455
Mn1 O2 2.094087 1_555
Mn2 O6 1.920207 1_555
Mn2 O2 1.920207 1_544
Mn2 O7 2.045535 1_544
Mn2 O0 2.045535 1_555
Mn2 O6 2.145929 1_455
Mn2 O2 2.145929 1_644
