# generated using pymatgen
data_BiSbPd2
_symmetry_space_group_name_H-M   'P 1'
_cell_length_a   4.19008621
_cell_length_b   4.19008621
_cell_length_c   5.69250265
_cell_angle_alpha   90.00000000
_cell_angle_beta   90.00000000
_cell_angle_gamma   120.00001285
_symmetry_Int_Tables_number   1
_chemical_formula_structural   BiSbPd2
_chemical_formula_sum   'Bi1 Sb1 Pd2'
_cell_volume   86.55252355
_cell_formula_units_Z   1
loop_
 _symmetry_equiv_pos_site_id
 _symmetry_equiv_pos_as_xyz
  1  'x, y, z'
loop_
 _atom_site_type_symbol
 _atom_site_label
 _atom_site_symmetry_multiplicity
 _atom_site_fract_x
 _atom_site_fract_y
 _atom_site_fract_z
 _atom_site_occupancy
  Bi  Bi0  1  0.33333300  0.66666700  0.50000000  1
  Sb  Sb0  1  -0.00000000  -0.00000000  -0.00000000  1
  Pd  Pd0  1  0.66666700  0.33333300  0.75651219  1
  Pd  Pd1  1  0.66666700  0.33333300  0.24348781  1
loop_
_geom_bond_atom_site_label_1
_geom_bond_atom_site_label_2
_geom_bond_distance
_geom_bond_site_symmetry_2
Bi0 Pd0 2.825674 1_455
Bi0 Pd1 2.825674 1_455
Bi0 Pd0 2.825674 1_565
Bi0 Pd1 2.825674 1_565
Bi0 Pd0 2.825681 1_555
Bi0 Pd1 2.825681 1_555
Pd0 Pd1 2.772110 1_556
Pd0 Sb0 2.788084 1_656
Pd0 Sb0 2.788087 1_666
Pd0 Sb0 2.788087 1_556
Pd0 Pd1 2.920393 1_555
Pd1 Sb0 2.788084 1_655
Pd1 Sb0 2.788087 1_665
Pd1 Sb0 2.788087 1_555
