# generated using pymatgen
data_YMg6B
_symmetry_space_group_name_H-M   'P 1'
_cell_length_a   4.58015500
_cell_length_b   5.68941200
_cell_length_c   13.15931400
_cell_angle_alpha   90.00000000
_cell_angle_beta   90.00000000
_cell_angle_gamma   90.00000000
_symmetry_Int_Tables_number   1
_chemical_formula_structural   YMg6B
_chemical_formula_sum   'Y2 Mg12 B2'
_cell_volume   342.91052080
_cell_formula_units_Z   2
loop_
 _symmetry_equiv_pos_site_id
 _symmetry_equiv_pos_as_xyz
  1  'x, y, z'
loop_
 _atom_site_type_symbol
 _atom_site_label
 _atom_site_symmetry_multiplicity
 _atom_site_fract_x
 _atom_site_fract_y
 _atom_site_fract_z
 _atom_site_occupancy
  Y  Y0  1  0.50000000  0.00000000  0.19384000  1
  Y  Y1  1  0.50000000  0.50000000  0.69384000  1
  Mg  Mg0  1  0.50000000  0.25151900  0.44504200  1
  Mg  Mg1  1  0.50000000  0.74848100  0.44504200  1
  Mg  Mg2  1  0.00000000  0.74034300  0.08042300  1
  Mg  Mg3  1  0.00000000  0.25965700  0.08042300  1
  Mg  Mg4  1  0.00000000  0.00000000  0.35439500  1
  Mg  Mg5  1  0.00000000  0.50000000  0.28571600  1
  Mg  Mg6  1  0.50000000  0.75151900  0.94504200  1
  Mg  Mg7  1  0.50000000  0.24848100  0.94504200  1
  Mg  Mg8  1  0.00000000  0.24034300  0.58042300  1
  Mg  Mg9  1  0.00000000  0.75965700  0.58042300  1
  Mg  Mg10  1  0.00000000  0.50000000  0.85439500  1
  Mg  Mg11  1  0.00000000  0.00000000  0.78571600  1
  B  B0  1  0.50000000  0.50000000  0.11511400  1
  B  B1  1  0.50000000  0.00000000  0.61511400  1
loop_
_geom_bond_atom_site_label_1
_geom_bond_atom_site_label_2
_geom_bond_distance
_geom_bond_site_symmetry_2
Mg0 Mg4 2.952135 1_655
Mg0 Mg4 2.952135 1_555
Mg1 Mg4 2.952135 1_665
Mg1 Mg4 2.952135 1_565
Mg2 Y0 3.107150 1_565
Mg2 Y0 3.107150 1_465
Mg3 Y0 3.107150 1_455
Mg3 Y0 3.107150 1_555
Mg4 Mg5 2.984820 1_545
Mg4 Mg5 2.984820 1_555
Mg4 Y0 3.115823 1_555
Mg4 Y0 3.115823 1_455
Mg4 Mg9 3.273638 1_545
Mg4 Mg8 3.273638 1_555
Mg8 Y1 3.107150 1_555
Mg8 Y1 3.107150 1_455
Mg9 Y1 3.107150 1_555
Mg9 Y1 3.107150 1_455
Mg10 Mg7 2.952135 1_455
Mg10 Mg7 2.952135 1_555
Mg10 Mg6 2.952135 1_455
Mg10 Mg6 2.952135 1_555
Mg10 Mg11 2.984820 1_565
Mg10 Mg11 2.984820 1_555
Mg10 Y1 3.115823 1_455
Mg10 Y1 3.115823 1_555
Mg10 Mg3 3.273638 1_556
Mg10 Mg2 3.273638 1_556
B0 Mg7 2.656413 1_554
B0 Mg6 2.656413 1_554
B0 Mg3 2.706043 1_555
B0 Mg2 2.706043 1_555
B0 Mg3 2.706043 1_655
B0 Mg2 2.706043 1_655
B0 Y0 3.027475 1_555
B0 Y0 3.027475 1_565
B1 Mg0 2.656413 1_555
B1 Mg1 2.656413 1_545
B1 Mg8 2.706043 1_555
B1 Mg8 2.706043 1_655
B1 Mg9 2.706043 1_545
B1 Mg9 2.706043 1_645
B1 Y1 3.027475 1_545
B1 Y1 3.027475 1_555
