# generated using pymatgen
data_LaAlRh
_symmetry_space_group_name_H-M   'P 1'
_cell_length_a   4.27319471
_cell_length_b   7.28147989
_cell_length_c   16.15869142
_cell_angle_alpha   90.00000000
_cell_angle_beta   90.00000000
_cell_angle_gamma   90.00000000
_symmetry_Int_Tables_number   1
_chemical_formula_structural   LaAlRh
_chemical_formula_sum   'La8 Al8 Rh8'
_cell_volume   502.78061386
_cell_formula_units_Z   8
loop_
 _symmetry_equiv_pos_site_id
 _symmetry_equiv_pos_as_xyz
  1  'x, y, z'
loop_
 _atom_site_type_symbol
 _atom_site_label
 _atom_site_symmetry_multiplicity
 _atom_site_fract_x
 _atom_site_fract_y
 _atom_site_fract_z
 _atom_site_occupancy
  La  La0  1  0.25000000  0.51639236  0.78120605  1
  La  La1  1  0.75000000  0.48360764  0.21879395  1
  La  La2  1  0.75000000  0.98360764  0.28120605  1
  La  La3  1  0.25000000  0.01639236  0.71879395  1
  La  La4  1  0.25000000  0.65549387  0.56059007  1
  La  La5  1  0.75000000  0.34450613  0.43940993  1
  La  La6  1  0.75000000  0.84450613  0.06059007  1
  La  La7  1  0.25000000  0.15549387  0.93940993  1
  Al  Al0  1  0.25000000  0.65743012  0.35279395  1
  Al  Al1  1  0.75000000  0.34256988  0.64720605  1
  Al  Al2  1  0.75000000  0.84256988  0.85279395  1
  Al  Al3  1  0.25000000  0.15743012  0.14720605  1
  Al  Al4  1  0.25000000  0.50683100  0.05866460  1
  Al  Al5  1  0.75000000  0.49316900  0.94133540  1
  Al  Al6  1  0.75000000  0.99316900  0.55866460  1
  Al  Al7  1  0.25000000  0.00683100  0.44133540  1
  Rh  Rh0  1  0.25000000  0.77802456  0.17836811  1
  Rh  Rh1  1  0.75000000  0.22197544  0.82163189  1
  Rh  Rh2  1  0.75000000  0.72197544  0.67836811  1
  Rh  Rh3  1  0.25000000  0.27802456  0.32163189  1
  Rh  Rh4  1  0.25000000  0.71213503  0.92575653  1
  Rh  Rh5  1  0.75000000  0.28786497  0.07424347  1
  Rh  Rh6  1  0.75000000  0.78786497  0.42575653  1
  Rh  Rh7  1  0.25000000  0.21213503  0.57424347  1
loop_
_geom_bond_atom_site_label_1
_geom_bond_atom_site_label_2
_geom_bond_distance
_geom_bond_site_symmetry_2
La0 Rh4 2.736272 1_555
La0 Rh2 3.093096 1_455
La0 Rh2 3.093096 1_555
La0 Rh1 3.096384 1_455
La0 Rh1 3.096384 1_555
La1 Rh5 2.736272 1_555
La1 Rh3 3.093096 1_555
La1 Rh3 3.093096 1_655
La1 Rh0 3.096384 1_555
La1 Rh0 3.096384 1_655
La2 Rh6 2.736272 1_555
La2 Rh0 3.093096 1_555
La2 Rh0 3.093096 1_655
La2 Rh3 3.096384 1_565
La2 Rh3 3.096384 1_665
La3 Rh7 2.736272 1_555
La3 Rh1 3.093096 1_555
La3 Rh1 3.093096 1_455
La3 Rh2 3.096384 1_445
La3 Rh2 3.096384 1_545
La4 Rh2 2.901952 1_455
La4 Rh2 2.901952 1_555
La4 Rh6 3.200148 1_555
La4 Rh6 3.200148 1_455
La4 Rh7 3.235838 1_555
La5 Rh3 2.901952 1_555
La5 Rh3 2.901952 1_655
La5 Rh7 3.200148 1_555
La5 Rh7 3.200148 1_655
La5 Rh6 3.235838 1_555
La6 Rh0 2.901952 1_655
La6 Rh0 2.901952 1_555
La6 Rh4 3.200148 1_654
La6 Rh4 3.200148 1_554
La6 Rh5 3.235838 1_565
La7 Rh1 2.901952 1_555
La7 Rh1 2.901952 1_455
La7 Rh5 3.200148 1_456
La7 Rh5 3.200148 1_556
La7 Rh4 3.235838 1_545
Al0 Rh6 2.618603 1_455
Al0 Rh6 2.618603 1_555
Al0 Rh3 2.808148 1_555
Al0 Rh0 2.952114 1_555
Al1 Rh7 2.618603 1_655
Al1 Rh7 2.618603 1_555
Al1 Rh2 2.808148 1_555
Al1 Rh1 2.952114 1_555
Al2 Rh4 2.618603 1_555
Al2 Rh4 2.618603 1_655
Al2 Rh1 2.808148 1_565
Al2 Rh2 2.952114 1_555
Al3 Rh5 2.618603 1_555
Al3 Rh5 2.618603 1_455
Al3 Rh0 2.808148 1_545
Al3 Rh3 2.952114 1_555
Al4 Rh4 2.616687 1_554
Al4 Rh5 2.677783 1_555
Al4 Rh5 2.677783 1_455
Al4 Rh0 2.764188 1_555
Al5 Rh5 2.616687 1_556
Al5 Rh4 2.677783 1_655
Al5 Rh4 2.677783 1_555
Al5 Rh1 2.764188 1_555
Al6 Rh6 2.616687 1_555
Al6 Rh7 2.677783 1_665
Al6 Rh7 2.677783 1_565
Al6 Rh2 2.764188 1_555
Al7 Rh7 2.616687 1_555
Al7 Rh6 2.677783 1_545
Al7 Rh6 2.677783 1_445
Al7 Rh3 2.764188 1_555
