# generated using pymatgen
data_BaAlCuAgO5
_symmetry_space_group_name_H-M   'P 1'
_cell_length_a   3.93139761
_cell_length_b   4.52435597
_cell_length_c   7.32022361
_cell_angle_alpha   87.49075540
_cell_angle_beta   72.31007617
_cell_angle_gamma   88.71706794
_symmetry_Int_Tables_number   1
_chemical_formula_structural   BaAlCuAgO5
_chemical_formula_sum   'Ba1 Al1 Cu1 Ag1 O5'
_cell_volume   123.92378056
_cell_formula_units_Z   1
loop_
 _symmetry_equiv_pos_site_id
 _symmetry_equiv_pos_as_xyz
  1  'x, y, z'
loop_
 _atom_site_type_symbol
 _atom_site_label
 _atom_site_symmetry_multiplicity
 _atom_site_fract_x
 _atom_site_fract_y
 _atom_site_fract_z
 _atom_site_occupancy
  Ba  Ba0  1  0.98098600  0.01145300  0.99157400  1
  Al  Al0  1  0.97190400  0.13052900  0.46076000  1
  Cu  Cu0  1  0.39564900  0.51342500  0.26261100  1
  Ag  Ag0  1  0.55948200  0.53020900  0.70105300  1
  O  O0  1  0.19168600  0.44000600  0.53345300  1
  O  O1  1  0.64755200  0.01595400  0.67844300  1
  O  O2  1  0.86402500  0.38817800  0.28280000  1
  O  O3  1  0.30835600  0.94587800  0.28319100  1
  O  O4  1  0.58035700  0.52436500  0.99403200  1
loop_
_geom_bond_atom_site_label_1
_geom_bond_atom_site_label_2
_geom_bond_distance
_geom_bond_site_symmetry_2
Ba0 O2 2.710833 1_556
Ba0 O4 2.733558 1_545
Ba0 O4 2.772901 1_555
Ba0 O3 2.810432 1_646
Ba0 O3 2.861251 1_546
Ba0 O1 2.910251 1_655
Ba0 O1 2.965417 1_555
Al0 O3 1.771397 1_645
Al0 O1 1.776609 1_555
Al0 O0 1.840951 1_655
Al0 O2 1.848359 1_555
Cu0 O4 1.876324 1_554
Cu0 O0 1.916303 1_555
Cu0 O2 1.960848 1_555
Cu0 O3 1.983170 1_555
Cu0 O2 2.137554 1_455
Ag0 O4 2.170013 1_555
Ag0 O0 2.216059 1_555
Ag0 O1 2.223620 1_565
Ag0 O1 2.350213 1_555
Ag0 O0 2.448358 1_655
