# generated using pymatgen
data_Y2ScN3
_symmetry_space_group_name_H-M   'P 1'
_cell_length_a   6.10775023
_cell_length_b   10.67513097
_cell_length_c   12.01238397
_cell_angle_alpha   89.99999661
_cell_angle_beta   93.54246445
_cell_angle_gamma   150.91509440
_symmetry_Int_Tables_number   1
_chemical_formula_structural   Y2ScN3
_chemical_formula_sum   'Y8 Sc4 N12'
_cell_volume   377.63905896
_cell_formula_units_Z   4
loop_
 _symmetry_equiv_pos_site_id
 _symmetry_equiv_pos_as_xyz
  1  'x, y, z'
loop_
 _atom_site_type_symbol
 _atom_site_label
 _atom_site_symmetry_multiplicity
 _atom_site_fract_x
 _atom_site_fract_y
 _atom_site_fract_z
 _atom_site_occupancy
  Y  Y0  1  0.45292400  0.02231300  0.86680200  1
  Y  Y1  1  0.54707600  0.56938900  0.63319800  1
  Y  Y2  1  0.54707600  0.97768700  0.13319800  1
  Y  Y3  1  0.45292400  0.43061100  0.36680200  1
  Y  Y4  1  0.59267300  0.91676000  0.57782000  1
  Y  Y5  1  0.40732700  0.32408800  0.92218000  1
  Y  Y6  1  0.40732700  0.08324000  0.42218000  1
  Y  Y7  1  0.59267300  0.67591200  0.07782000  1
  Sc  Sc0  1  0.55874700  0.27765000  0.66290900  1
  Sc  Sc1  1  0.44125300  0.71890300  0.83709100  1
  Sc  Sc2  1  0.44125300  0.72235000  0.33709100  1
  Sc  Sc3  1  0.55874700  0.28109700  0.16290900  1
  N  N0  1  0.00000000  0.63178900  0.75000000  1
  N  N1  1  0.00000000  0.36821100  0.25000000  1
  N  N2  1  0.76438100  0.20855800  0.60384200  1
  N  N3  1  0.23561900  0.44417700  0.89615800  1
  N  N4  1  0.23561900  0.79144200  0.39615800  1
  N  N5  1  0.76438100  0.55582300  0.10384200  1
  N  N6  1  0.33764200  0.05959300  0.02920200  1
  N  N7  1  0.66235800  0.72195000  0.47079800  1
  N  N8  1  0.66235800  0.94040700  0.97079800  1
  N  N9  1  0.33764200  0.27805000  0.52920200  1
  N  N10  1  0.00000000  0.97310600  0.75000000  1
  N  N11  1  0.00000000  0.02689400  0.25000000  1
loop_
_geom_bond_atom_site_label_1
_geom_bond_atom_site_label_2
_geom_bond_distance
_geom_bond_site_symmetry_2
N0 Sc1 2.119845 1_555
N0 Sc0 2.119846 1_455
N0 Y1 2.522819 1_455
N0 Y0 2.522819 1_565
N0 Y5 2.883425 1_455
N0 Y4 2.883426 1_555
N1 Sc3 2.119845 1_455
N1 Sc2 2.119846 1_555
N1 Y3 2.522819 1_555
N1 Y2 2.522819 1_445
N1 Y7 2.883425 1_555
N1 Y6 2.883426 1_455
N2 Sc0 2.086646 1_555
N2 Y4 2.269451 1_545
N2 Y1 2.328590 1_655
N2 Y6 2.370722 1_555
N3 Sc1 2.086646 1_555
N3 Y5 2.269441 1_555
N3 Y0 2.328590 1_455
N3 Y7 2.370719 1_556
N4 Sc2 2.086646 1_555
N4 Y6 2.269451 1_565
N4 Y3 2.328590 1_455
N4 Y4 2.370722 1_555
N5 Sc3 2.086646 1_555
N5 Y7 2.269441 1_555
N5 Y2 2.328590 1_655
N5 Y5 2.370719 1_554
N6 Sc3 2.036036 1_555
N6 Y0 2.262592 1_554
N6 Y7 2.361333 1_445
N6 Y2 2.391388 1_545
N6 Y5 2.788075 1_554
N7 Sc2 2.036042 1_555
N7 Y1 2.262587 1_555
N7 Y6 2.361332 1_665
N7 Y3 2.391379 1_555
N7 Y4 2.788075 1_555
N8 Sc1 2.036036 1_555
N8 Y2 2.262592 1_556
N8 Y5 2.361333 1_665
N8 Y0 2.391388 1_565
N8 Y7 2.788075 1_556
N9 Sc0 2.036042 1_555
N9 Y3 2.262587 1_555
N9 Y4 2.361332 1_445
N9 Y1 2.391379 1_555
N9 Y6 2.788075 1_555
N10 Sc1 2.088038 1_455
N10 Sc0 2.088038 1_565
N10 Y0 2.622550 1_565
N10 Y1 2.622551 1_455
N10 Y4 2.752758 1_455
N10 Y5 2.752765 1_565
N11 Sc3 2.088038 1_555
N11 Sc2 2.088038 1_445
N11 Y2 2.622550 1_445
N11 Y3 2.622551 1_555
N11 Y6 2.752758 1_555
N11 Y7 2.752765 1_445
