# generated using pymatgen
data_Nd3OsO7
_symmetry_space_group_name_H-M   'P 1'
_cell_length_a   6.62422466
_cell_length_b   6.62422466
_cell_length_c   7.55990479
_cell_angle_alpha   90.00000000
_cell_angle_beta   90.00000000
_cell_angle_gamma   111.62264950
_symmetry_Int_Tables_number   1
_chemical_formula_structural   Nd3OsO7
_chemical_formula_sum   'Nd6 Os2 O14'
_cell_volume   308.38765096
_cell_formula_units_Z   2
loop_
 _symmetry_equiv_pos_site_id
 _symmetry_equiv_pos_as_xyz
  1  'x, y, z'
loop_
 _atom_site_type_symbol
 _atom_site_label
 _atom_site_symmetry_multiplicity
 _atom_site_fract_x
 _atom_site_fract_y
 _atom_site_fract_z
 _atom_site_occupancy
  Nd  Nd0  1  -0.00000000  -0.00000000  -0.00000000  1
  Nd  Nd1  1  -0.00000000  -0.00000000  0.50000000  1
  Nd  Nd2  1  0.47146238  0.91710065  0.75000000  1
  Nd  Nd3  1  0.52853762  0.08289935  0.25000000  1
  Nd  Nd4  1  0.91710065  0.47146238  0.75000000  1
  Nd  Nd5  1  0.08289935  0.52853762  0.25000000  1
  Os  Os0  1  0.50000000  0.50000000  -0.00000000  1
  Os  Os1  1  0.50000000  0.50000000  0.50000000  1
  O  O0  1  0.58378484  0.58378484  0.75000000  1
  O  O1  1  0.41621516  0.41621516  0.25000000  1
  O  O2  1  0.84134222  0.10433258  0.75000000  1
  O  O3  1  0.15865778  0.89566742  0.25000000  1
  O  O4  1  0.10433258  0.84134222  0.75000000  1
  O  O5  1  0.89566742  0.15865778  0.25000000  1
  O  O6  1  0.43951726  0.18868855  0.96036908  1
  O  O7  1  0.56048274  0.81131145  0.46036908  1
  O  O8  1  0.18868855  0.43951726  0.96036908  1
  O  O9  1  0.81131145  0.56048274  0.46036908  1
  O  O10  1  0.43951726  0.18868855  0.53963092  1
  O  O11  1  0.56048274  0.81131145  0.03963092  1
  O  O12  1  0.81131145  0.56048274  0.03963092  1
  O  O13  1  0.18868855  0.43951726  0.53963092  1
loop_
_geom_bond_atom_site_label_1
_geom_bond_atom_site_label_2
_geom_bond_distance
_geom_bond_site_symmetry_2
Nd0 O5 2.385277 1_455
Nd0 O3 2.385277 1_545
Nd0 O2 2.385277 1_454
Nd0 O4 2.385277 1_544
Nd0 O11 2.728867 1_445
Nd0 O6 2.728867 1_554
Nd0 O12 2.728867 1_445
Nd0 O8 2.728867 1_554
Nd1 O4 2.385277 1_545
Nd1 O5 2.385277 1_455
Nd1 O3 2.385277 1_545
Nd1 O2 2.385277 1_455
Nd1 O10 2.728867 1_555
Nd1 O13 2.728867 1_555
Nd1 O9 2.728867 1_445
Nd1 O7 2.728867 1_445
Nd2 O4 2.294945 1_555
Nd2 O2 2.302605 1_565
Nd2 O11 2.436727 1_556
Nd2 O7 2.436727 1_555
Nd2 O6 2.468044 1_565
Nd2 O10 2.468044 1_565
Nd2 O0 2.576709 1_555
Nd3 O5 2.294945 1_555
Nd3 O3 2.302605 1_545
Nd3 O10 2.436727 1_555
Nd3 O6 2.436727 1_554
Nd3 O7 2.468044 1_545
Nd3 O11 2.468044 1_545
Nd3 O1 2.576709 1_555
Nd4 O2 2.294945 1_555
Nd4 O4 2.302605 1_655
Nd4 O12 2.436727 1_556
Nd4 O9 2.436727 1_555
Nd4 O13 2.468044 1_655
Nd4 O8 2.468044 1_655
Nd4 O0 2.576709 1_555
Nd5 O3 2.294945 1_555
Nd5 O5 2.302605 1_455
Nd5 O8 2.436727 1_554
Nd5 O13 2.436727 1_555
Nd5 O12 2.468044 1_455
Nd5 O9 2.468044 1_455
Nd5 O1 2.576709 1_555
O0 Os1 1.990242 1_555
O0 Os0 1.990242 1_556
O1 Os1 1.990242 1_555
O1 Os0 1.990242 1_555
O6 Os0 1.973329 1_556
O7 Os1 1.973329 1_555
O8 Os0 1.973329 1_556
O9 Os1 1.973329 1_555
O10 Os1 1.973329 1_555
O11 Os0 1.973329 1_555
O12 Os0 1.973329 1_555
O13 Os1 1.973329 1_555
