# generated using pymatgen
data_Cs2Se
_symmetry_space_group_name_H-M   'P 1'
_cell_length_a   5.54345983
_cell_length_b   8.96443388
_cell_length_c   10.89023568
_cell_angle_alpha   90.00000000
_cell_angle_beta   90.00000000
_cell_angle_gamma   90.00000000
_symmetry_Int_Tables_number   1
_chemical_formula_structural   Cs2Se
_chemical_formula_sum   'Cs8 Se4'
_cell_volume   541.17914441
_cell_formula_units_Z   4
loop_
 _symmetry_equiv_pos_site_id
 _symmetry_equiv_pos_as_xyz
  1  'x, y, z'
loop_
 _atom_site_type_symbol
 _atom_site_label
 _atom_site_symmetry_multiplicity
 _atom_site_fract_x
 _atom_site_fract_y
 _atom_site_fract_z
 _atom_site_occupancy
  Cs  Cs0  1  0.75000000  0.47405278  0.67175385  1
  Cs  Cs1  1  0.75000000  0.97405278  0.82824615  1
  Cs  Cs2  1  0.25000000  0.52594722  0.32824615  1
  Cs  Cs3  1  0.25000000  0.02594722  0.17175385  1
  Cs  Cs4  1  0.75000000  0.35487970  0.07355272  1
  Cs  Cs5  1  0.75000000  0.85487970  0.42644728  1
  Cs  Cs6  1  0.25000000  0.64512030  0.92644728  1
  Cs  Cs7  1  0.25000000  0.14512030  0.57355272  1
  Se  Se0  1  0.75000000  0.25478023  0.38773292  1
  Se  Se1  1  0.75000000  0.75478023  0.11226708  1
  Se  Se2  1  0.25000000  0.74521977  0.61226708  1
  Se  Se3  1  0.25000000  0.24521977  0.88773292  1
loop_
_geom_bond_atom_site_label_1
_geom_bond_atom_site_label_2
_geom_bond_distance
_geom_bond_site_symmetry_2
Cs0 Se0 3.664804 1_555
Cs0 Se2 3.743159 1_555
Cs0 Se2 3.743159 1_655
Cs0 Se3 4.174058 1_555
Cs0 Se3 4.174058 1_655
Cs1 Se1 3.664804 1_556
Cs1 Se3 3.743159 1_565
Cs1 Se3 3.743159 1_665
Cs1 Se2 4.174058 1_555
Cs1 Se2 4.174058 1_655
Cs2 Se2 3.664804 1_555
Cs2 Se0 3.743159 1_455
Cs2 Se0 3.743159 1_555
Cs2 Se1 4.174058 1_555
Cs2 Se1 4.174058 1_455
Cs3 Se3 3.664804 1_554
Cs3 Se1 3.743159 1_545
Cs3 Se1 3.743159 1_445
Cs3 Se0 4.174058 1_455
Cs3 Se0 4.174058 1_555
Cs4 Se0 3.537209 1_555
Cs4 Se3 3.569859 1_654
Cs4 Se3 3.569859 1_554
Cs4 Se1 3.609589 1_555
Cs5 Se1 3.537209 1_555
Cs5 Se2 3.569859 1_655
Cs5 Se2 3.569859 1_555
Cs5 Se0 3.609589 1_565
Cs6 Se2 3.537209 1_555
Cs6 Se1 3.569859 1_556
Cs6 Se1 3.569859 1_456
Cs6 Se3 3.609589 1_555
Cs7 Se3 3.537209 1_555
Cs7 Se0 3.569859 1_555
Cs7 Se0 3.569859 1_455
Cs7 Se2 3.609589 1_545
