# generated using pymatgen
data_B3H12N
_symmetry_space_group_name_H-M   'P 1'
_cell_length_a   5.63811495
_cell_length_b   5.63811495
_cell_length_c   8.68536100
_cell_angle_alpha   90.00000000
_cell_angle_beta   90.00000000
_cell_angle_gamma   94.35578753
_symmetry_Int_Tables_number   1
_chemical_formula_structural   B3H12N
_chemical_formula_sum   'B6 H24 N2'
_cell_volume   275.29575819
_cell_formula_units_Z   2
loop_
 _symmetry_equiv_pos_site_id
 _symmetry_equiv_pos_as_xyz
  1  'x, y, z'
loop_
 _atom_site_type_symbol
 _atom_site_label
 _atom_site_symmetry_multiplicity
 _atom_site_fract_x
 _atom_site_fract_y
 _atom_site_fract_z
 _atom_site_occupancy
  B  B0  1  0.10417600  0.89582400  0.25000000  1
  B  B1  1  0.89582400  0.10417600  0.75000000  1
  B  B2  1  0.28920600  0.71079400  0.14651200  1
  B  B3  1  0.71079400  0.28920600  0.85348800  1
  B  B4  1  0.28920600  0.71079400  0.35348800  1
  B  B5  1  0.71079400  0.28920600  0.64651200  1
  H  H0  1  0.86031600  0.35837900  0.25000000  1
  H  H1  1  0.35837900  0.86031600  0.75000000  1
  H  H2  1  0.13968400  0.64162100  0.75000000  1
  H  H3  1  0.64162100  0.13968400  0.25000000  1
  H  H4  1  0.60629500  0.39370500  0.15310600  1
  H  H5  1  0.39370500  0.60629500  0.84689400  1
  H  H6  1  0.60629500  0.39370500  0.34689400  1
  H  H7  1  0.39370500  0.60629500  0.65310600  1
  H  H8  1  0.21175500  0.51900500  0.09668000  1
  H  H9  1  0.51900500  0.21175500  0.90332000  1
  H  H10  1  0.21175500  0.51900500  0.40332000  1
  H  H11  1  0.51900500  0.21175500  0.59668000  1
  H  H12  1  0.78824500  0.48099500  0.90332000  1
  H  H13  1  0.48099500  0.78824500  0.09668000  1
  H  H14  1  0.78824500  0.48099500  0.59668000  1
  H  H15  1  0.48099500  0.78824500  0.40332000  1
  H  H16  1  0.14885400  0.85114600  0.08799800  1
  H  H17  1  0.85114600  0.14885400  0.91200200  1
  H  H18  1  0.14885400  0.85114600  0.41200200  1
  H  H19  1  0.85114600  0.14885400  0.58799800  1
  H  H20  1  0.89266600  0.84041300  0.25000000  1
  H  H21  1  0.84041300  0.89266600  0.75000000  1
  H  H22  1  0.10733400  0.15958700  0.75000000  1
  H  H23  1  0.15958700  0.10733400  0.25000000  1
  N  N0  1  0.67810600  0.32189400  0.25000000  1
  N  N1  1  0.32189400  0.67810600  0.75000000  1
loop_
_geom_bond_atom_site_label_1
_geom_bond_atom_site_label_2
_geom_bond_distance
_geom_bond_site_symmetry_2
B0 H20 1.209591 1_455
B0 H23 1.209591 1_565
B0 H18 1.454759 1_555
B0 H16 1.454759 1_555
B1 H21 1.209591 1_545
B1 H22 1.209591 1_655
B1 H17 1.454759 1_555
B1 H19 1.454759 1_555
B2 H8 1.214725 1_555
B2 H13 1.214725 1_555
B2 H16 1.267193 1_555
B3 H9 1.214725 1_555
B3 H12 1.214725 1_555
B3 H17 1.267193 1_555
B4 H10 1.214725 1_555
B4 H15 1.214725 1_555
B4 H18 1.267193 1_555
B5 H11 1.214725 1_555
B5 H14 1.214725 1_555
B5 H19 1.267193 1_555
H0 N0 1.032281 1_555
H1 N1 1.032281 1_555
H2 N1 1.032281 1_555
H3 N0 1.032281 1_555
H4 N0 1.030037 1_555
H5 N1 1.030037 1_555
H6 N0 1.030037 1_555
H7 N1 1.030037 1_555
