# generated using pymatgen
data_Al2O
_symmetry_space_group_name_H-M   'P 1'
_cell_length_a   5.60598054
_cell_length_b   5.70008150
_cell_length_c   50.17450102
_cell_angle_alpha   89.45339092
_cell_angle_beta   90.34892446
_cell_angle_gamma   59.24446406
_symmetry_Int_Tables_number   1
_chemical_formula_structural   Al2O
_chemical_formula_sum   'Al36 O18'
_cell_volume   1377.63507275
_cell_formula_units_Z   18
loop_
 _symmetry_equiv_pos_site_id
 _symmetry_equiv_pos_as_xyz
  1  'x, y, z'
loop_
 _atom_site_type_symbol
 _atom_site_label
 _atom_site_symmetry_multiplicity
 _atom_site_fract_x
 _atom_site_fract_y
 _atom_site_fract_z
 _atom_site_occupancy
  Al  Al0  1  0.49206770  0.50794820  0.00105781  1
  Al  Al1  1  0.99231431  0.50757563  0.00138147  1
  Al  Al2  1  0.49236675  0.00771858  0.00125807  1
  Al  Al3  1  0.16272650  0.17044979  0.04873842  1
  Al  Al4  1  0.16362789  0.67109989  0.04858477  1
  Al  Al5  1  0.66324628  0.67033520  0.04874861  1
  Al  Al6  1  0.66431076  0.17143861  0.04859965  1
  Al  Al7  1  0.33332500  0.33335000  0.09523900  1
  Al  Al8  1  0.33332500  0.83335000  0.09523900  1
  Al  Al9  1  0.83332500  0.83335000  0.09523900  1
  Al  Al10  1  0.83332500  0.33335000  0.09523900  1
  Al  Al11  1  0.99999200  0.50001700  0.14285800  1
  Al  Al12  1  0.49999200  0.50001700  0.14285800  1
  Al  Al13  1  0.49999200  0.00001700  0.14285800  1
  Al  Al14  1  0.99999200  0.00001700  0.14285800  1
  Al  Al15  1  0.17743745  0.16598960  0.18846013  1
  Al  Al16  1  0.67361592  0.16047340  0.18902624  1
  Al  Al17  1  0.67763125  0.66783008  0.18867271  1
  Al  Al18  1  0.17356701  0.66264116  0.18950604  1
  Al  Al19  1  0.85362624  0.33144455  0.23293560  1
  Al  Al20  1  0.35656545  0.83583829  0.23336450  1
  Al  Al21  1  0.35940324  0.33652631  0.23902165  1
  Al  Al22  1  0.85916632  0.84400718  0.24118663  1
  Al  Al23  1  0.95308850  0.42823439  0.28136545  1
  Al  Al24  1  0.50861751  0.95283535  0.29381585  1
  Al  Al25  1  0.43068885  0.44204581  0.30903535  1
  Al  Al26  1  0.97731901  0.98454031  0.32483054  1
  Al  Al27  1  0.25488704  0.70417848  0.36885511  1
  Al  Al28  1  0.78937831  0.28597273  0.38193546  1
  Al  Al29  1  0.64791947  0.83139508  0.38510122  1
  Al  Al30  1  0.22020024  0.38073061  0.41641458  1
  Al  Al31  1  0.19373991  0.93645033  0.43001344  1
  Al  Al32  1  0.09052191  0.66800350  0.47591166  1
  Al  Al33  1  0.50073109  0.07866729  0.47746807  1
  Al  Al34  1  0.81614677  0.34805493  0.48649723  1
  Al  Al35  1  0.99217305  0.00786964  0.00102645  1
  O  O0  1  0.33848711  0.32777874  0.27946306  1
  O  O1  1  0.85344317  0.79971557  0.27830960  1
  O  O2  1  0.62460537  0.59073800  0.30088831  1
  O  O3  1  0.13214093  0.10092023  0.30228025  1
  O  O4  1  0.62114699  0.10004176  0.32180506  1
  O  O5  1  0.18347003  0.63181348  0.33337212  1
  O  O6  1  0.02729788  0.05590836  0.35895274  1
  O  O7  1  0.62241211  0.59280950  0.36157169  1
  O  O8  1  0.01742210  0.64961758  0.38915786  1
  O  O9  1  0.52753177  0.19360082  0.39017829  1
  O  O10  1  0.40390993  0.77263717  0.40183323  1
  O  O11  1  0.96532783  0.25939838  0.41237035  1
  O  O12  1  0.16718217  0.64610680  0.43981817  1
  O  O13  1  0.37554118  0.09860447  0.44277992  1
  O  O14  1  0.86400695  0.03934655  0.47157922  1
  O  O15  1  0.75984941  0.68680286  0.48227528  1
  O  O16  1  0.44342333  0.44530016  0.48768279  1
  O  O17  1  0.17764073  0.18732243  0.49408729  1
loop_
_geom_bond_atom_site_label_1
_geom_bond_atom_site_label_2
_geom_bond_distance
_geom_bond_site_symmetry_2
Al0 Al4 2.878545 1_555
Al0 Al6 2.879592 1_555
Al0 Al5 2.902789 1_555
Al1 Al5 2.873537 1_555
Al1 Al3 2.873837 1_655
Al1 Al4 2.886248 1_655
Al2 Al3 2.879821 1_555
Al2 Al5 2.880007 1_545
Al2 Al6 2.894250 1_555
Al3 Al6 2.791197 1_455
Al3 Al5 2.792750 1_455
Al3 Al5 2.796202 1_545
Al3 Al6 2.814809 1_555
Al3 Al8 2.838690 1_545
Al3 Al4 2.843839 1_545
Al3 Al7 2.853559 1_555
Al3 Al4 2.856271 1_555
Al3 Al35 2.902501 1_455
Al4 Al6 2.793627 1_465
Al4 Al6 2.795332 1_555
Al4 Al5 2.798586 1_555
Al4 Al5 2.807423 1_455
Al4 Al7 2.846883 1_555
Al4 Al9 2.847147 1_455
Al4 Al8 2.855511 1_555
Al5 Al8 2.839290 1_555
Al5 Al6 2.840786 1_555
Al5 Al9 2.852024 1_555
Al5 Al6 2.859325 1_565
Al6 Al9 2.847304 1_545
Al6 Al7 2.848405 1_555
Al7 Al9 2.794475 1_455
Al7 Al9 2.794475 1_545
Al7 Al8 2.850041 1_545
Al7 Al8 2.850041 1_555
Al8 Al9 2.802990 1_455
Al8 Al9 2.802990 1_555
Al10 Al8 2.794475 1_645
Al10 Al8 2.794475 1_555
Al10 Al7 2.802990 1_655
Al10 Al7 2.802990 1_555
Al10 Al5 2.837993 1_555
Al10 Al3 2.838289 1_655
Al10 Al9 2.850041 1_545
Al10 Al9 2.850041 1_555
Al10 Al6 2.852041 1_555
Al10 Al14 2.874401 1_555
Al10 Al12 2.895689 1_555
Al10 Al11 2.899657 1_555
Al11 Al17 2.790972 1_555
Al11 Al15 2.793205 1_655
Al11 Al13 2.794475 1_565
Al11 Al13 2.794475 1_655
Al11 Al12 2.802990 1_655
Al11 Al12 2.802990 1_555
Al11 Al14 2.850041 1_565
Al11 Al14 2.850041 1_555
Al11 Al18 2.867129 1_655
Al11 Al9 2.874401 1_555
Al11 Al7 2.895689 1_655
Al12 Al14 2.794475 1_465
Al12 Al14 2.794475 1_555
Al12 Al16 2.831890 1_555
Al12 Al18 2.836325 1_555
Al12 Al13 2.850041 1_565
Al12 Al13 2.850041 1_555
Al12 Al17 2.859924 1_555
Al12 Al8 2.874401 1_555
Al12 Al7 2.899657 1_555
Al13 Al15 2.782454 1_555
Al13 Al17 2.796735 1_545
Al13 Al14 2.802990 1_555
Al13 Al14 2.802990 1_455
Al13 Al16 2.841366 1_555
Al13 Al7 2.874401 1_555
Al13 Al9 2.895689 1_545
Al13 Al8 2.899657 1_545
Al14 Al16 2.816156 1_555
Al14 Al18 2.845299 1_645
Al14 Al15 2.845327 1_655
Al14 Al8 2.895689 1_645
Al14 Al9 2.899657 1_545
Al15 Al19 2.739156 1_455
Al15 Al20 2.754076 1_545
Al15 Al16 2.765589 1_555
Al15 Al17 2.789549 1_545
Al15 Al17 2.799477 1_455
Al15 Al18 2.820914 1_555
Al15 Al16 2.840932 1_455
Al15 Al18 2.880265 1_545
Al15 Al21 3.074261 1_555
Al16 Al18 2.787821 1_645
Al16 Al17 2.796890 1_545
Al16 Al19 2.800285 1_555
Al16 Al18 2.801375 1_555
Al16 Al17 2.903436 1_555
Al16 Al21 2.948955 1_555
Al16 Al22 3.023741 1_545
Al17 Al20 2.740848 1_555
Al17 Al19 2.745805 1_555
Al17 Al18 2.765254 1_655
Al17 Al18 2.841570 1_555
Al18 Al20 2.814144 1_555
Al18 Al21 2.934766 1_555
Al18 Al22 3.023638 1_455
Al19 Al23 2.616029 1_555
Al19 Al21 2.774658 1_555
Al19 Al22 2.789567 1_545
Al19 Al20 2.789688 1_645
Al19 Al20 2.799893 1_555
Al19 Al21 2.864798 1_655
Al19 Al22 2.970540 1_555
Al20 Al22 2.795052 1_455
Al20 Al21 2.849463 1_555
Al20 Al22 2.866351 1_555
Al20 Al21 2.878847 1_565
Al21 O0 2.034832 1_555
Al22 O1 1.879943 1_555
Al23 O2 1.871705 1_555
Al23 O1 1.897961 1_555
Al23 O3 1.903714 1_655
Al23 O0 1.934730 1_655
Al24 O1 1.846511 1_555
Al24 O2 1.849155 1_555
Al24 O3 1.882260 1_565
Al24 O4 1.904541 1_565
Al24 O0 1.968104 1_565
Al25 O2 1.734462 1_555
Al25 O5 1.759096 1_555
Al25 O4 1.786031 1_555
Al25 O0 1.801779 1_555
Al26 O3 1.749299 1_665
Al26 O4 1.758752 1_565
Al26 O5 1.778412 1_655
Al26 O6 1.816363 1_665
Al27 O6 1.803156 1_565
Al27 O8 1.827702 1_555
Al27 O7 1.859419 1_555
Al27 O5 1.916842 1_555
Al27 O10 1.979141 1_555
Al28 O6 1.757023 1_655
Al28 O11 1.775443 1_555
Al28 O7 1.805266 1_555
Al28 O9 1.843027 1_555
Al29 O10 1.779143 1_555
Al29 O8 1.789284 1_655
Al29 O9 1.835755 1_565
Al29 O7 1.868468 1_555
Al30 O12 1.825846 1_555
Al30 O11 1.889653 1_455
Al30 O13 1.899353 1_555
Al30 O8 1.915929 1_555
Al30 O9 2.003466 1_555
Al31 O10 1.783130 1_555
Al31 O12 1.800140 1_555
Al31 O13 1.808350 1_565
Al31 O11 1.832005 1_465
Al32 O16 1.810279 1_555
Al32 O15 1.831528 1_455
Al32 O14 1.838194 1_465
Al32 O12 1.854406 1_555
Al33 O17 1.800123 1_555
Al33 O13 1.853223 1_555
Al33 O15 1.955628 1_545
Al33 O14 1.956195 1_555
Al33 O16 2.017196 1_555
Al34 O17 1.782208 1_655
Al34 O15 1.800261 1_555
Al34 O14 1.809246 1_555
Al34 O16 1.869305 1_555
Al35 Al6 2.878945 1_555
Al35 Al4 2.881042 1_645
