# generated using pymatgen
data_Ca21(Zn2As9)2
_symmetry_space_group_name_H-M   'P 1'
_cell_length_a   11.37066929
_cell_length_b   11.37066929
_cell_length_c   16.27504659
_cell_angle_alpha   88.38906441
_cell_angle_beta   88.38906441
_cell_angle_gamma   87.22799229
_symmetry_Int_Tables_number   1
_chemical_formula_structural   Ca21(Zn2As9)2
_chemical_formula_sum   'Ca42 Zn8 As36'
_cell_volume   2100.18805579
_cell_formula_units_Z   2
loop_
 _symmetry_equiv_pos_site_id
 _symmetry_equiv_pos_as_xyz
  1  'x, y, z'
loop_
 _atom_site_type_symbol
 _atom_site_label
 _atom_site_symmetry_multiplicity
 _atom_site_fract_x
 _atom_site_fract_y
 _atom_site_fract_z
 _atom_site_occupancy
  Ca  Ca0  1  0.92759200  0.23557800  0.64970000  1
  Ca  Ca1  1  0.23557800  0.92759200  0.64970000  1
  Ca  Ca2  1  0.07240800  0.76442200  0.35030000  1
  Ca  Ca3  1  0.76442200  0.07240800  0.35030000  1
  Ca  Ca4  1  0.92182600  0.24795200  0.85538100  1
  Ca  Ca5  1  0.24795200  0.92182600  0.85538100  1
  Ca  Ca6  1  0.07817400  0.75204800  0.14461900  1
  Ca  Ca7  1  0.75204800  0.07817400  0.14461900  1
  Ca  Ca8  1  0.98975400  0.22997200  0.42303800  1
  Ca  Ca9  1  0.22997200  0.98975400  0.42303800  1
  Ca  Ca10  1  0.01024600  0.77002800  0.57696200  1
  Ca  Ca11  1  0.77002800  0.01024600  0.57696200  1
  Ca  Ca12  1  0.74516600  0.49189000  0.94423200  1
  Ca  Ca13  1  0.49189000  0.74516600  0.94423200  1
  Ca  Ca14  1  0.25483400  0.50811000  0.05576800  1
  Ca  Ca15  1  0.50811000  0.25483400  0.05576800  1
  Ca  Ca16  1  0.81912900  0.49696300  0.56342500  1
  Ca  Ca17  1  0.49696300  0.81912900  0.56342500  1
  Ca  Ca18  1  0.18087100  0.50303700  0.43657500  1
  Ca  Ca19  1  0.50303700  0.18087100  0.43657500  1
  Ca  Ca20  1  0.93259200  0.57483900  0.75653700  1
  Ca  Ca21  1  0.57483900  0.93259200  0.75653700  1
  Ca  Ca22  1  0.06740800  0.42516100  0.24346300  1
  Ca  Ca23  1  0.42516100  0.06740800  0.24346300  1
  Ca  Ca24  1  0.99775400  0.73470300  0.94072900  1
  Ca  Ca25  1  0.73470300  0.99775400  0.94072900  1
  Ca  Ca26  1  0.00224600  0.26529700  0.05927100  1
  Ca  Ca27  1  0.26529700  0.00224600  0.05927100  1
  Ca  Ca28  1  0.26399900  0.59602000  0.84228000  1
  Ca  Ca29  1  0.59602000  0.26399900  0.84228000  1
  Ca  Ca30  1  0.73600100  0.40398000  0.15772000  1
  Ca  Ca31  1  0.40398000  0.73600100  0.15772000  1
  Ca  Ca32  1  0.32041800  0.57174700  0.61841900  1
  Ca  Ca33  1  0.57174700  0.32041800  0.61841900  1
  Ca  Ca34  1  0.67958200  0.42825300  0.38158100  1
  Ca  Ca35  1  0.42825300  0.67958200  0.38158100  1
  Ca  Ca36  1  0.25048400  0.25048400  0.58085100  1
  Ca  Ca37  1  0.74951600  0.74951600  0.41914900  1
  Ca  Ca38  1  0.26251000  0.26251000  0.90637200  1
  Ca  Ca39  1  0.73749000  0.73749000  0.09362800  1
  Ca  Ca40  1  0.59718400  0.59718400  0.74321900  1
  Ca  Ca41  1  0.40281600  0.40281600  0.25678100  1
  Zn  Zn0  1  0.14951400  0.37951600  0.74847500  1
  Zn  Zn1  1  0.37951600  0.14951400  0.74847500  1
  Zn  Zn2  1  0.85048600  0.62048400  0.25152500  1
  Zn  Zn3  1  0.62048400  0.85048600  0.25152500  1
  Zn  Zn4  1  0.00056200  0.00056200  0.20506600  1
  Zn  Zn5  1  0.99943800  0.99943800  0.79493400  1
  Zn  Zn6  1  0.15896500  0.15896500  0.24407400  1
  Zn  Zn7  1  0.84103500  0.84103500  0.75592600  1
  As  As0  1  0.04491800  0.04491800  0.56016600  1
  As  As1  1  0.95508200  0.95508200  0.43983400  1
  As  As2  1  0.05431900  0.05431900  0.94386900  1
  As  As3  1  0.94568100  0.94568100  0.05613100  1
  As  As4  1  0.43061200  0.43061200  0.46777300  1
  As  As5  1  0.56938800  0.56938800  0.53222700  1
  As  As6  1  0.46626900  0.46626900  0.93012700  1
  As  As7  1  0.53373100  0.53373100  0.06987300  1
  As  As8  1  0.76204200  0.39847200  0.74323900  1
  As  As9  1  0.39847200  0.76204200  0.74323900  1
  As  As10  1  0.23795800  0.60152800  0.25676100  1
  As  As11  1  0.60152800  0.23795800  0.25676100  1
  As  As12  1  0.06398700  0.45159000  0.89652700  1
  As  As13  1  0.45159000  0.06398700  0.89652700  1
  As  As14  1  0.93601300  0.54841000  0.10347300  1
  As  As15  1  0.54841000  0.93601300  0.10347300  1
  As  As16  1  0.07375500  0.46037400  0.61054300  1
  As  As17  1  0.46037400  0.07375500  0.61054300  1
  As  As18  1  0.92624500  0.53962600  0.38945700  1
  As  As19  1  0.53962600  0.92624500  0.38945700  1
  As  As20  1  0.06671600  0.78943700  0.76045500  1
  As  As21  1  0.78943700  0.06671600  0.76045500  1
  As  As22  1  0.93328400  0.21056300  0.23954500  1
  As  As23  1  0.21056300  0.93328400  0.23954500  1
  As  As24  1  0.15008700  0.15008700  0.74800600  1
  As  As25  1  0.84991300  0.84991300  0.25199400  1
  As  As26  1  0.24599100  0.24599100  0.37478400  1
  As  As27  1  0.75400900  0.75400900  0.62521600  1
  As  As28  1  0.37923300  0.37923300  0.74158900  1
  As  As29  1  0.62076700  0.62076700  0.25841100  1
  As  As30  1  0.74077900  0.74077900  0.88444400  1
  As  As31  1  0.25922100  0.25922100  0.11555600  1
  As  As32  1  0.75442100  0.24557900  0.50000000  1
  As  As33  1  0.24557900  0.75442100  0.50000000  1
  As  As34  1  0.75396400  0.24603600  0.00000000  1
  As  As35  1  0.24603600  0.75396400  0.00000000  1
loop_
_geom_bond_atom_site_label_1
_geom_bond_atom_site_label_2
_geom_bond_distance
_geom_bond_site_symmetry_2
Ca4 Zn5 3.098046 1_545
Ca5 Zn5 3.098046 1_455
Ca6 Zn4 3.098046 1_565
Ca7 Zn4 3.098046 1_655
Ca20 Zn7 3.152728 1_555
Ca20 Zn0 3.240685 1_655
Ca21 Zn7 3.152728 1_555
Ca21 Zn1 3.240685 1_565
Ca22 Zn6 3.152728 1_555
Ca22 Zn2 3.240685 1_455
Ca23 Zn6 3.152728 1_555
Ca23 Zn3 3.240685 1_545
Ca28 Zn0 3.273961 1_555
Ca29 Zn1 3.273961 1_555
Ca30 Zn2 3.273961 1_555
Ca31 Zn3 3.273961 1_555
Ca36 Zn1 3.286217 1_555
Ca36 Zn0 3.286217 1_555
Ca37 Zn3 3.286217 1_555
Ca37 Zn2 3.286217 1_555
Ca38 Zn1 3.138905 1_555
Ca38 Zn0 3.138905 1_555
Ca39 Zn2 3.138905 1_555
Ca39 Zn3 3.138905 1_555
As0 As1 2.499631 1_445
As0 Ca0 2.896827 1_455
As0 Ca1 2.896827 1_545
As0 Ca9 3.080395 1_545
As0 Ca8 3.080395 1_455
As0 Ca10 3.172560 1_545
As0 Ca11 3.172560 1_455
As0 Ca36 3.414288 1_555
As1 Ca2 2.896827 1_655
As1 Ca3 2.896827 1_565
As1 Ca11 3.080395 1_565
As1 Ca10 3.080395 1_655
As1 Ca8 3.172560 1_565
As1 Ca9 3.172560 1_655
As1 Ca37 3.414288 1_555
As2 As3 2.506761 1_446
As2 Zn5 2.619542 1_445
As2 Ca4 2.968870 1_455
As2 Ca5 2.968870 1_545
As2 Ca27 3.112322 1_556
As2 Ca26 3.112322 1_556
As2 Ca38 3.458316 1_555
As3 Zn4 2.619542 1_665
As3 Ca7 2.968870 1_565
As3 Ca6 2.968870 1_655
As3 Ca24 3.112322 1_554
As3 Ca25 3.112322 1_554
As3 Ca39 3.458316 1_555
As4 As5 2.550957 1_555
As4 Ca18 2.971764 1_555
As4 Ca19 2.971764 1_555
As4 Ca34 3.123189 1_555
As4 Ca35 3.123189 1_555
As4 Ca32 3.163942 1_555
As4 Ca33 3.163942 1_555
As4 Ca36 3.429115 1_555
As4 Ca41 3.481838 1_555
As5 Ca17 2.971764 1_555
As5 Ca16 2.971764 1_555
As5 Ca33 3.123189 1_555
As5 Ca32 3.123189 1_555
As5 Ca34 3.163942 1_555
As5 Ca35 3.163942 1_555
As5 Ca37 3.429115 1_555
As5 Ca40 3.481838 1_555
As6 As7 2.569576 1_556
As6 Ca29 3.041148 1_555
As6 Ca28 3.041148 1_555
As6 Ca14 3.139306 1_556
As6 Ca15 3.139306 1_556
As6 Ca12 3.213786 1_555
As6 Ca13 3.213786 1_555
As6 Ca38 3.391936 1_555
As6 Ca40 3.659279 1_555
As7 Ca31 3.041148 1_555
As7 Ca30 3.041148 1_555
As7 Ca13 3.139306 1_554
As7 Ca12 3.139306 1_554
As7 Ca15 3.213786 1_555
As7 Ca14 3.213786 1_555
As7 Ca39 3.391936 1_555
As7 Ca41 3.659279 1_555
As8 Ca40 2.865228 1_555
As8 Ca20 2.872879 1_555
As8 Ca29 2.910232 1_555
As8 Ca0 2.991974 1_555
As8 Ca4 3.044883 1_555
As8 Ca16 3.165293 1_555
As8 Ca33 3.182878 1_555
As8 Ca12 3.464976 1_555
As9 Ca40 2.865228 1_555
As9 Ca21 2.872879 1_555
As9 Ca28 2.910232 1_555
As9 Ca1 2.991974 1_555
As9 Ca5 3.044883 1_555
As9 Ca17 3.165293 1_555
As9 Ca32 3.182878 1_555
As9 Ca13 3.464976 1_555
As10 Ca41 2.865228 1_555
As10 Ca22 2.872879 1_555
As10 Ca31 2.910232 1_555
As10 Ca2 2.991974 1_555
As10 Ca6 3.044883 1_555
As10 Ca18 3.165293 1_555
As10 Ca35 3.182878 1_555
As10 Ca14 3.464976 1_555
As11 Ca41 2.865228 1_555
As11 Ca23 2.872879 1_555
As11 Ca30 2.910232 1_555
As11 Ca3 2.991974 1_555
As11 Ca7 3.044883 1_555
As11 Ca19 3.165293 1_555
As11 Ca34 3.182878 1_555
As11 Ca15 3.464976 1_555
As12 Zn0 2.706569 1_555
As12 Ca28 2.969116 1_555
As12 Ca4 2.988814 1_455
As12 Ca20 3.032551 1_455
As12 Ca38 3.045514 1_555
As12 Ca24 3.363495 1_455
As12 Ca26 3.423334 1_556
As12 Ca14 3.519034 1_556
As13 Zn1 2.706569 1_555
As13 Ca29 2.969116 1_555
As13 Ca5 2.988814 1_545
As13 Ca21 3.032551 1_545
As13 Ca38 3.045514 1_555
As13 Ca25 3.363495 1_545
As13 Ca27 3.423334 1_556
As13 Ca15 3.519034 1_556
As14 Zn2 2.706569 1_555
As14 Ca30 2.969116 1_555
As14 Ca6 2.988814 1_655
As14 Ca22 3.032551 1_655
As14 Ca39 3.045514 1_555
As14 Ca26 3.363495 1_655
As14 Ca24 3.423334 1_554
As14 Ca12 3.519034 1_554
As15 Zn3 2.706569 1_555
As15 Ca31 2.969116 1_555
As15 Ca7 2.988814 1_565
As15 Ca23 3.032551 1_565
As15 Ca39 3.045514 1_555
As15 Ca27 3.363495 1_565
As15 Ca25 3.423334 1_554
As15 Ca13 3.519034 1_554
As16 Zn0 2.557890 1_555
As16 Ca16 3.022269 1_455
As16 Ca36 3.084460 1_555
As16 Ca18 3.085662 1_555
As16 Ca20 3.110217 1_455
As16 Ca32 3.139988 1_555
As16 Ca0 3.156198 1_455
As16 Ca10 3.589638 1_555
As17 Zn1 2.557890 1_555
As17 Ca17 3.022269 1_545
As17 Ca36 3.084460 1_555
As17 Ca19 3.085662 1_555
As17 Ca21 3.110217 1_545
As17 Ca33 3.139988 1_555
As17 Ca1 3.156198 1_545
As17 Ca11 3.589638 1_555
As18 Zn2 2.557890 1_555
As18 Ca18 3.022269 1_655
As18 Ca37 3.084460 1_555
As18 Ca16 3.085662 1_555
As18 Ca22 3.110217 1_655
As18 Ca34 3.139988 1_555
As18 Ca2 3.156198 1_655
As18 Ca8 3.589638 1_555
As19 Zn3 2.557890 1_555
As19 Ca19 3.022269 1_565
As19 Ca37 3.084460 1_555
As19 Ca17 3.085662 1_555
As19 Ca23 3.110217 1_565
As19 Ca35 3.139988 1_555
As19 Ca3 3.156198 1_565
As19 Ca9 3.589638 1_555
As20 Zn5 2.544889 1_455
As20 Zn7 2.607169 1_455
As20 Ca20 2.942498 1_455
As20 Ca1 3.056396 1_555
As20 Ca24 3.070109 1_455
As20 Ca5 3.083746 1_555
As20 Ca10 3.088350 1_555
As20 Ca28 3.341931 1_555
As21 Zn5 2.544889 1_545
As21 Zn7 2.607169 1_545
As21 Ca21 2.942498 1_545
As21 Ca0 3.056396 1_555
As21 Ca25 3.070109 1_545
As21 Ca4 3.083746 1_555
As21 Ca11 3.088350 1_555
As21 Ca29 3.341931 1_555
As22 Zn4 2.544889 1_655
As22 Zn6 2.607169 1_655
As22 Ca22 2.942498 1_655
As22 Ca3 3.056396 1_555
As22 Ca26 3.070109 1_655
As22 Ca7 3.083746 1_555
As22 Ca8 3.088350 1_555
As22 Ca30 3.341931 1_555
As23 Zn4 2.544889 1_565
As23 Zn6 2.607169 1_565
As23 Ca23 2.942498 1_565
As23 Ca2 3.056396 1_555
As23 Ca27 3.070109 1_565
As23 Ca6 3.083746 1_555
As23 Ca9 3.088350 1_555
As23 Ca31 3.341931 1_555
As24 Zn5 2.566831 1_445
As24 Zn1 2.608680 1_555
As24 Zn0 2.608680 1_555
As24 Ca36 3.127957 1_555
As24 Ca1 3.131692 1_545
As24 Ca0 3.131692 1_455
As24 Ca38 3.231075 1_555
As24 Ca4 3.256325 1_455
As24 Ca5 3.256325 1_545
As25 Zn4 2.566831 1_665
As25 Zn2 2.608680 1_555
As25 Zn3 2.608680 1_555
As25 Ca37 3.127957 1_555
As25 Ca2 3.131692 1_655
As25 Ca3 3.131692 1_565
As25 Ca39 3.231075 1_555
As25 Ca6 3.256325 1_655
As25 Ca7 3.256325 1_565
As26 Zn6 2.610608 1_555
As26 Ca9 3.008912 1_545
As26 Ca8 3.008912 1_455
As26 Ca41 3.157600 1_555
As26 Ca19 3.164862 1_555
As26 Ca18 3.164862 1_555
As26 Ca36 3.357436 1_555
As26 Ca23 3.527153 1_555
As26 Ca22 3.527153 1_555
As27 Zn7 2.610608 1_555
As27 Ca10 3.008912 1_655
As27 Ca11 3.008912 1_565
As27 Ca40 3.157600 1_555
As27 Ca17 3.164862 1_555
As27 Ca16 3.164862 1_555
As27 Ca37 3.357436 1_555
As27 Ca20 3.527153 1_555
As27 Ca21 3.527153 1_555
As28 Zn0 2.611162 1_555
As28 Zn1 2.611162 1_555
As28 Ca32 2.990735 1_555
As28 Ca33 2.990735 1_555
As28 Ca28 3.205096 1_555
As28 Ca29 3.205096 1_555
As28 Ca38 3.238127 1_555
As28 Ca36 3.430434 1_555
As28 Ca40 3.589649 1_555
As29 Zn2 2.611162 1_555
As29 Zn3 2.611162 1_555
As29 Ca34 2.990735 1_555
As29 Ca35 2.990735 1_555
As29 Ca30 3.205096 1_555
As29 Ca31 3.205096 1_555
As29 Ca39 3.238127 1_555
As29 Ca37 3.430434 1_555
As29 Ca41 3.589649 1_555
As30 Zn7 2.613735 1_555
As30 Ca13 2.965242 1_555
As30 Ca12 2.965242 1_555
As30 Ca24 3.083710 1_555
As30 Ca25 3.083710 1_555
As30 Ca40 3.360743 1_555
As30 Ca39 3.402807 1_556
As30 Ca21 3.495441 1_555
As30 Ca20 3.495441 1_555
As31 Zn6 2.613735 1_555
As31 Ca14 2.965242 1_555
As31 Ca15 2.965242 1_555
As31 Ca27 3.083710 1_555
As31 Ca26 3.083710 1_555
As31 Ca41 3.360743 1_555
As31 Ca38 3.402807 1_554
As31 Ca23 3.495441 1_555
As31 Ca22 3.495441 1_555
As32 Ca33 2.906743 1_555
As32 Ca34 2.906743 1_555
As32 Ca8 2.922144 1_555
As32 Ca11 2.922144 1_555
As32 Ca0 3.171527 1_555
As32 Ca3 3.171527 1_555
As32 Ca16 3.192082 1_555
As32 Ca19 3.192082 1_555
As33 Ca32 2.906743 1_555
As33 Ca35 2.906743 1_555
As33 Ca9 2.922144 1_555
As33 Ca10 2.922144 1_555
As33 Ca1 3.171527 1_555
As33 Ca2 3.171527 1_555
As33 Ca17 3.192082 1_555
As33 Ca18 3.192082 1_555
As34 Ca15 2.912756 1_555
As34 Ca12 2.912756 1_554
As34 Ca7 2.988643 1_555
As34 Ca4 2.988643 1_554
As34 Ca26 3.028757 1_655
As34 Ca25 3.028757 1_544
As34 Ca29 3.170220 1_554
As34 Ca30 3.170220 1_555
As35 Ca14 2.912756 1_555
As35 Ca13 2.912756 1_554
As35 Ca6 2.988643 1_555
As35 Ca5 2.988643 1_554
As35 Ca27 3.028757 1_565
As35 Ca24 3.028757 1_454
As35 Ca28 3.170220 1_554
As35 Ca31 3.170220 1_555
