# generated using pymatgen
data_Sb
_symmetry_space_group_name_H-M   'P 1'
_cell_length_a   6.71448100
_cell_length_b   8.75801612
_cell_length_c   9.09884083
_cell_angle_alpha   106.90907119
_cell_angle_beta   108.46566996
_cell_angle_gamma   89.26270509
_symmetry_Int_Tables_number   1
_chemical_formula_structural   Sb
_chemical_formula_sum   Sb14
_cell_volume   483.71737098
_cell_formula_units_Z   14
loop_
 _symmetry_equiv_pos_site_id
 _symmetry_equiv_pos_as_xyz
  1  'x, y, z'
loop_
 _atom_site_type_symbol
 _atom_site_label
 _atom_site_symmetry_multiplicity
 _atom_site_fract_x
 _atom_site_fract_y
 _atom_site_fract_z
 _atom_site_occupancy
  Sb  Sb0  1  0.00000000  0.00000000  0.00000000  1
  Sb  Sb1  1  0.00000000  0.50000000  0.50000000  1
  Sb  Sb2  1  0.50000000  0.50000000  0.00000000  1
  Sb  Sb3  1  0.50000000  0.00000000  0.50000000  1
  Sb  Sb4  1  0.38042300  0.24492600  0.12641100  1
  Sb  Sb5  1  0.61957700  0.75507400  0.87358900  1
  Sb  Sb6  1  0.90252600  0.20517100  0.76395900  1
  Sb  Sb7  1  0.09747400  0.79482900  0.23604100  1
  Sb  Sb8  1  0.03087300  0.62261500  0.88087100  1
  Sb  Sb9  1  0.96912700  0.37738500  0.11912900  1
  Sb  Sb10  1  0.57653200  0.33851500  0.47481900  1
  Sb  Sb11  1  0.42346800  0.66148500  0.52518100  1
  Sb  Sb12  1  0.26773800  0.26825600  0.66414500  1
  Sb  Sb13  1  0.73226200  0.73174400  0.33585500  1
loop_
_geom_bond_atom_site_label_1
_geom_bond_atom_site_label_2
_geom_bond_distance
_geom_bond_site_symmetry_2
Sb0 Sb5 3.048538 1_444
Sb0 Sb4 3.048538 1_555
Sb0 Sb6 3.097418 1_454
Sb0 Sb7 3.097418 1_545
Sb0 Sb8 3.191013 1_544
Sb0 Sb9 3.191013 1_455
Sb1 Sb13 3.090366 1_455
Sb1 Sb12 3.090366 1_555
Sb1 Sb10 3.104796 1_455
Sb1 Sb11 3.104796 1_555
Sb1 Sb8 3.254473 1_555
Sb1 Sb9 3.254473 1_455
Sb2 Sb4 3.013956 1_555
Sb2 Sb5 3.013956 1_554
Sb2 Sb9 3.267631 1_555
Sb2 Sb8 3.267631 1_554
Sb3 Sb7 3.131209 1_545
Sb3 Sb6 3.131209 1_555
Sb4 Sb9 2.970382 1_455
Sb5 Sb8 2.970382 1_655
Sb6 Sb9 3.030652 1_556
Sb7 Sb8 3.030652 1_554
Sb10 Sb4 2.885701 1_555
Sb10 Sb11 2.955778 1_555
Sb10 Sb3 3.100815 1_555
Sb10 Sb12 3.249173 1_555
Sb10 Sb6 3.339140 1_555
Sb11 Sb5 2.885701 1_555
Sb11 Sb3 3.100815 1_565
Sb11 Sb13 3.249173 1_555
Sb11 Sb7 3.339140 1_555
Sb12 Sb6 2.980091 1_455
Sb12 Sb2 3.056878 1_556
Sb12 Sb3 3.085839 1_555
Sb13 Sb7 2.980091 1_655
Sb13 Sb2 3.056878 1_555
Sb13 Sb3 3.085839 1_565
