# generated using pymatgen
data_TaCoN2
_symmetry_space_group_name_H-M   'P 1'
_cell_length_a   5.93236043
_cell_length_b   11.61341919
_cell_length_c   10.07857461
_cell_angle_alpha   90.00000000
_cell_angle_beta   90.00000000
_cell_angle_gamma   90.00000000
_symmetry_Int_Tables_number   1
_chemical_formula_structural   TaCoN2
_chemical_formula_sum   'Ta16 Co16 N32'
_cell_volume   694.36328145
_cell_formula_units_Z   16
loop_
 _symmetry_equiv_pos_site_id
 _symmetry_equiv_pos_as_xyz
  1  'x, y, z'
loop_
 _atom_site_type_symbol
 _atom_site_label
 _atom_site_symmetry_multiplicity
 _atom_site_fract_x
 _atom_site_fract_y
 _atom_site_fract_z
 _atom_site_occupancy
  Ta  Ta0  1  0.76313329  0.09391253  0.31249423  1
  Ta  Ta1  1  0.26313329  0.40608747  0.68750577  1
  Ta  Ta2  1  0.23686671  0.59391253  0.18750577  1
  Ta  Ta3  1  0.73686671  0.90608747  0.81249423  1
  Ta  Ta4  1  0.23686671  0.90608747  0.68750577  1
  Ta  Ta5  1  0.73686671  0.59391253  0.31249423  1
  Ta  Ta6  1  0.76313329  0.40608747  0.81249423  1
  Ta  Ta7  1  0.26313329  0.09391253  0.18750577  1
  Ta  Ta8  1  0.86102247  0.32248635  0.47708892  1
  Ta  Ta9  1  0.36102247  0.17751365  0.52291108  1
  Ta  Ta10  1  0.13897753  0.82248635  0.02291108  1
  Ta  Ta11  1  0.63897753  0.67751365  0.97708892  1
  Ta  Ta12  1  0.13897753  0.67751365  0.52291108  1
  Ta  Ta13  1  0.63897753  0.82248635  0.47708892  1
  Ta  Ta14  1  0.86102247  0.17751365  0.97708892  1
  Ta  Ta15  1  0.36102247  0.32248635  0.02291108  1
  Co  Co0  1  0.14612126  0.99107285  0.41792554  1
  Co  Co1  1  0.64612126  0.50892715  0.58207446  1
  Co  Co2  1  0.85387874  0.49107285  0.08207446  1
  Co  Co3  1  0.35387874  0.00892715  0.91792554  1
  Co  Co4  1  0.85387874  0.00892715  0.58207446  1
  Co  Co5  1  0.35387874  0.49107285  0.41792554  1
  Co  Co6  1  0.14612126  0.50892715  0.91792554  1
  Co  Co7  1  0.64612126  0.99107285  0.08207446  1
  Co  Co8  1  0.20329372  0.33436105  0.27431183  1
  Co  Co9  1  0.70329372  0.16563895  0.72568817  1
  Co  Co10  1  0.79670628  0.83436105  0.22568817  1
  Co  Co11  1  0.29670628  0.66563895  0.77431183  1
  Co  Co12  1  0.79670628  0.66563895  0.72568817  1
  Co  Co13  1  0.29670628  0.83436105  0.27431183  1
  Co  Co14  1  0.20329372  0.16563895  0.77431183  1
  Co  Co15  1  0.70329372  0.33436105  0.22568817  1
  N  N0  1  0.22249177  0.32751501  0.47338535  1
  N  N1  1  0.72249177  0.17248499  0.52661465  1
  N  N2  1  0.77750823  0.82751501  0.02661465  1
  N  N3  1  0.27750823  0.67248499  0.97338535  1
  N  N4  1  0.77750823  0.67248499  0.52661465  1
  N  N5  1  0.27750823  0.82751501  0.47338535  1
  N  N6  1  0.22249177  0.17248499  0.97338535  1
  N  N7  1  0.72249177  0.32751501  0.02661465  1
  N  N8  1  0.64921864  0.43635402  0.38757885  1
  N  N9  1  0.14921864  0.06364598  0.61242115  1
  N  N10  1  0.35078136  0.93635402  0.11242115  1
  N  N11  1  0.85078136  0.56364598  0.88757885  1
  N  N12  1  0.35078136  0.56364598  0.61242115  1
  N  N13  1  0.85078136  0.93635402  0.38757885  1
  N  N14  1  0.64921864  0.06364598  0.88757885  1
  N  N15  1  0.14921864  0.43635402  0.11242115  1
  N  N16  1  0.94544457  0.24589977  0.29556171  1
  N  N17  1  0.44544457  0.25410023  0.70443829  1
  N  N18  1  0.05455543  0.74589977  0.20443829  1
  N  N19  1  0.55455543  0.75410023  0.79556171  1
  N  N20  1  0.05455543  0.75410023  0.70443829  1
  N  N21  1  0.55455543  0.74589977  0.29556171  1
  N  N22  1  0.94544457  0.25410023  0.79556171  1
  N  N23  1  0.44544457  0.24589977  0.20443829  1
  N  N24  1  0.57963798  0.56574923  0.13534813  1
  N  N25  1  0.07963798  0.93425077  0.86465187  1
  N  N26  1  0.42036202  0.06574923  0.36465187  1
  N  N27  1  0.92036202  0.43425077  0.63534813  1
  N  N28  1  0.42036202  0.43425077  0.86465187  1
  N  N29  1  0.92036202  0.06574923  0.13534813  1
  N  N30  1  0.57963798  0.93425077  0.63534813  1
  N  N31  1  0.07963798  0.56574923  0.36465187  1
loop_
_geom_bond_atom_site_label_1
_geom_bond_atom_site_label_2
_geom_bond_distance
_geom_bond_site_symmetry_2
Co0 N13 1.888675 1_455
Co0 N26 1.920206 1_565
Co0 N5 2.127891 1_555
Co0 N9 2.133828 1_565
Co1 N12 1.888675 1_555
Co1 N27 1.920206 1_555
Co1 N4 2.127891 1_555
Co1 N8 2.133828 1_555
Co2 N15 1.888675 1_655
Co2 N24 1.920206 1_555
Co2 N7 2.127891 1_555
Co2 N11 2.133828 1_554
Co3 N14 1.888675 1_555
Co3 N25 1.920206 1_545
Co3 N6 2.127891 1_555
Co3 N10 2.133828 1_546
Co4 N9 1.888675 1_655
Co4 N30 1.920206 1_545
Co4 N1 2.127891 1_555
Co4 N13 2.133828 1_545
Co5 N8 1.888675 1_555
Co5 N31 1.920206 1_555
Co5 N0 2.127891 1_555
Co5 N12 2.133828 1_555
Co6 N11 1.888675 1_455
Co6 N28 1.920206 1_555
Co6 N3 2.127891 1_555
Co6 N15 2.133828 1_556
Co7 N10 1.888675 1_555
Co7 N29 1.920206 1_565
Co7 N2 2.127891 1_555
Co7 N14 2.133828 1_564
Co8 N16 1.855029 1_455
Co8 N23 1.901306 1_555
Co8 N0 2.011179 1_555
Co8 N15 2.041599 1_555
Co9 N17 1.855029 1_555
Co9 N22 1.901306 1_555
Co9 N1 2.011179 1_555
Co9 N14 2.041599 1_555
Co10 N18 1.855029 1_655
Co10 N21 1.901306 1_555
Co10 N2 2.011179 1_555
Co10 N13 2.041599 1_555
Co11 N19 1.855029 1_555
Co11 N20 1.901306 1_555
Co11 N3 2.011179 1_555
Co11 N12 2.041599 1_555
Co12 N20 1.855029 1_655
Co12 N19 1.901306 1_555
Co12 N4 2.011179 1_555
Co12 N11 2.041599 1_555
Co13 N21 1.855029 1_555
Co13 N18 1.901306 1_555
Co13 N5 2.011179 1_555
Co13 N10 2.041599 1_555
Co14 N22 1.855029 1_455
Co14 N17 1.901306 1_555
Co14 N6 2.011179 1_555
Co14 N9 2.041599 1_555
Co15 N23 1.855029 1_555
Co15 N16 1.901306 1_555
Co15 N7 2.011179 1_555
Co15 N8 2.041599 1_555
N0 Ta9 1.989772 1_555
N0 Ta8 2.145486 1_455
N0 Ta1 2.355390 1_555
N1 Ta8 1.989772 1_555
N1 Ta9 2.145486 1_555
N1 Ta0 2.355390 1_555
N2 Ta11 1.989772 1_554
N2 Ta10 2.145486 1_655
N2 Ta3 2.355390 1_554
N3 Ta10 1.989772 1_556
N3 Ta11 2.145486 1_555
N3 Ta2 2.355390 1_556
N4 Ta13 1.989772 1_555
N4 Ta12 2.145486 1_655
N4 Ta5 2.355390 1_555
N5 Ta12 1.989772 1_555
N5 Ta13 2.145486 1_555
N5 Ta4 2.355390 1_555
N6 Ta15 1.989772 1_556
N6 Ta14 2.145486 1_455
N6 Ta7 2.355390 1_556
N7 Ta14 1.989772 1_554
N7 Ta15 2.145486 1_555
N7 Ta6 2.355390 1_554
N8 Ta8 2.035031 1_555
N8 Ta5 2.047234 1_555
N9 Ta9 2.035031 1_555
N9 Ta4 2.047234 1_545
N10 Ta10 2.035031 1_555
N10 Ta7 2.047234 1_565
N11 Ta11 2.035031 1_555
N11 Ta6 2.047234 1_555
N12 Ta12 2.035031 1_555
N12 Ta1 2.047234 1_555
N13 Ta13 2.035031 1_555
N13 Ta0 2.047234 1_565
N14 Ta14 2.035031 1_555
N14 Ta3 2.047234 1_545
N15 Ta15 2.035031 1_555
N15 Ta2 2.047234 1_555
N16 Ta0 2.077111 1_555
N16 Ta8 2.095021 1_555
N17 Ta1 2.077111 1_555
N17 Ta9 2.095021 1_555
N18 Ta2 2.077111 1_555
N18 Ta10 2.095021 1_555
N19 Ta3 2.077111 1_555
N19 Ta11 2.095021 1_555
N20 Ta4 2.077111 1_555
N20 Ta12 2.095021 1_555
N21 Ta5 2.077111 1_555
N21 Ta13 2.095021 1_555
N22 Ta6 2.077111 1_555
N22 Ta14 2.095021 1_555
N23 Ta7 2.077111 1_555
N23 Ta15 2.095021 1_555
N24 Ta5 2.040725 1_555
N24 Ta11 2.086325 1_554
N24 Ta2 2.125606 1_555
N25 Ta4 2.040725 1_555
N25 Ta10 2.086325 1_556
N25 Ta3 2.125606 1_455
N26 Ta7 2.040725 1_555
N26 Ta9 2.086325 1_555
N26 Ta0 2.125606 1_555
N27 Ta6 2.040725 1_555
N27 Ta8 2.086325 1_555
N27 Ta1 2.125606 1_655
N28 Ta1 2.040725 1_555
N28 Ta15 2.086325 1_556
N28 Ta6 2.125606 1_555
N29 Ta0 2.040725 1_555
N29 Ta14 2.086325 1_554
N29 Ta7 2.125606 1_655
N30 Ta3 2.040725 1_555
N30 Ta13 2.086325 1_555
N30 Ta4 2.125606 1_555
N31 Ta2 2.040725 1_555
N31 Ta12 2.086325 1_555
N31 Ta5 2.125606 1_455
