# generated using pymatgen
data_Al4Fe13Si2(SbO14)2
_symmetry_space_group_name_H-M   'P 1'
_cell_length_a   11.81703889
_cell_length_b   11.81703889
_cell_length_c   9.05546720
_cell_angle_alpha   87.55570915
_cell_angle_beta   87.55570915
_cell_angle_gamma   152.71501417
_symmetry_Int_Tables_number   1
_chemical_formula_structural   Al4Fe13Si2(SbO14)2
_chemical_formula_sum   'Al4 Fe13 Si2 Sb2 O28'
_cell_volume   570.12538603
_cell_formula_units_Z   1
loop_
 _symmetry_equiv_pos_site_id
 _symmetry_equiv_pos_as_xyz
  1  'x, y, z'
loop_
 _atom_site_type_symbol
 _atom_site_label
 _atom_site_symmetry_multiplicity
 _atom_site_fract_x
 _atom_site_fract_y
 _atom_site_fract_z
 _atom_site_occupancy
  Al  Al0  1  0.51873200  0.94989700  0.82164800  1
  Al  Al1  1  0.05010300  0.48126800  0.17835200  1
  Al  Al2  1  0.48126800  0.05010300  0.17835200  1
  Al  Al3  1  0.94989700  0.51873200  0.82164800  1
  Fe  Fe0  1  0.36526800  0.07356900  0.85629800  1
  Fe  Fe1  1  0.21356800  0.35461800  0.14986800  1
  Fe  Fe2  1  0.92643100  0.63473200  0.14370200  1
  Fe  Fe3  1  0.63473200  0.92643100  0.14370200  1
  Fe  Fe4  1  0.78643200  0.64538200  0.85013200  1
  Fe  Fe5  1  0.28686700  0.71313300  0.50000000  1
  Fe  Fe6  1  0.64538200  0.78643200  0.85013200  1
  Fe  Fe7  1  0.00000000  0.00000000  0.50000000  1
  Fe  Fe8  1  0.42607000  0.57393000  0.50000000  1
  Fe  Fe9  1  0.35461800  0.21356800  0.14986800  1
  Fe  Fe10  1  0.07356900  0.36526800  0.85629800  1
  Fe  Fe11  1  0.57393000  0.42607000  0.50000000  1
  Fe  Fe12  1  0.71313300  0.28686700  0.50000000  1
  Si  Si0  1  0.76645500  0.76645500  0.19290300  1
  Si  Si1  1  0.23354500  0.23354500  0.80709700  1
  Sb  Sb0  1  0.85715700  0.14284300  0.50000000  1
  Sb  Sb1  1  0.14284300  0.85715700  0.50000000  1
  O  O0  1  0.02026400  0.32315800  0.09580000  1
  O  O1  1  0.35930600  0.81196700  0.14216200  1
  O  O2  1  0.06315200  0.06315200  0.14704600  1
  O  O3  1  0.69691500  0.69691500  0.37816300  1
  O  O4  1  0.64069400  0.18803300  0.85783800  1
  O  O5  1  0.97973600  0.67684200  0.90420000  1
  O  O6  1  0.39745700  0.98213000  0.38199300  1
  O  O7  1  0.60254300  0.01787000  0.61800700  1
  O  O8  1  0.30308500  0.30308500  0.62183700  1
  O  O9  1  0.72258900  0.87982000  0.61409900  1
  O  O10  1  0.59270100  0.71306800  0.12525200  1
  O  O11  1  0.67684200  0.97973600  0.90420000  1
  O  O12  1  0.01787000  0.60254300  0.61800700  1
  O  O13  1  0.12018000  0.27741100  0.38590100  1
  O  O14  1  0.28693200  0.40729900  0.87474800  1
  O  O15  1  0.93684800  0.93684800  0.85295400  1
  O  O16  1  0.87982000  0.72258900  0.61409900  1
  O  O17  1  0.27741100  0.12018000  0.38590100  1
  O  O18  1  0.98213000  0.39745700  0.38199300  1
  O  O19  1  0.58477400  0.87892100  0.37720700  1
  O  O20  1  0.41522600  0.12107900  0.62279300  1
  O  O21  1  0.71306800  0.59270100  0.12525200  1
  O  O22  1  0.87892100  0.58477400  0.37720700  1
  O  O23  1  0.81196700  0.35930600  0.14216200  1
  O  O24  1  0.40729900  0.28693200  0.87474800  1
  O  O25  1  0.12107900  0.41522600  0.62279300  1
  O  O26  1  0.32315800  0.02026400  0.09580000  1
  O  O27  1  0.18803300  0.64069400  0.85783800  1
loop_
_geom_bond_atom_site_label_1
_geom_bond_atom_site_label_2
_geom_bond_distance
_geom_bond_site_symmetry_2
Al0 O4 1.735948 1_565
Al0 O27 1.771429 1_555
Al0 O11 1.773315 1_555
Al0 O7 1.824967 1_565
Al1 O23 1.735948 1_455
Al1 O1 1.771429 1_555
Al1 O0 1.773315 1_555
Al1 O18 1.824967 1_455
Al2 O1 1.735948 1_545
Al2 O23 1.771429 1_555
Al2 O26 1.773315 1_555
Al2 O6 1.824967 1_545
Al3 O27 1.735948 1_655
Al3 O4 1.771429 1_555
Al3 O5 1.773315 1_555
Al3 O12 1.824967 1_655
Fe0 O20 2.082776 1_555
Fe0 O24 2.109204 1_555
Fe0 O26 2.140648 1_556
Fe0 O4 2.145527 1_555
Fe0 O5 2.148589 1_445
Fe1 O2 2.037781 1_555
Fe1 O10 2.041241 1_555
Fe1 O0 2.048739 1_555
Fe1 O13 2.112231 1_555
Fe1 O14 2.463756 1_554
Fe2 O22 2.082776 1_555
Fe2 O21 2.109204 1_555
Fe2 O5 2.140648 1_554
Fe2 O23 2.145527 1_555
Fe2 O26 2.148589 1_665
Fe3 O19 2.082776 1_555
Fe3 O10 2.109204 1_555
Fe3 O11 2.140648 1_554
Fe3 O1 2.145527 1_555
Fe3 O0 2.148589 1_665
Fe4 O15 2.037781 1_555
Fe4 O24 2.041241 1_555
Fe4 O5 2.048739 1_555
Fe4 O16 2.112231 1_555
Fe4 O21 2.463756 1_556
Fe5 O25 2.165403 1_555
Fe5 O19 2.165403 1_555
Fe5 O7 2.194570 1_565
Fe5 O18 2.194570 1_455
Fe5 O12 2.271891 1_555
Fe5 O6 2.271891 1_555
Fe6 O15 2.037781 1_555
Fe6 O14 2.041241 1_555
Fe6 O11 2.048739 1_555
Fe6 O9 2.112231 1_555
Fe6 O10 2.463756 1_556
Fe7 O8 2.178490 1_555
Fe7 O3 2.178490 1_445
Fe7 O17 2.267519 1_555
Fe7 O13 2.267519 1_555
Fe7 O9 2.267519 1_445
Fe7 O16 2.267519 1_445
Fe8 O9 2.127357 1_555
Fe8 O13 2.127357 1_555
Fe8 O8 2.206196 1_555
Fe8 O3 2.206196 1_555
Fe8 O19 2.282354 1_555
Fe8 O25 2.282354 1_555
Fe9 O2 2.037781 1_555
Fe9 O21 2.041241 1_555
Fe9 O26 2.048739 1_555
Fe9 O17 2.112231 1_555
Fe9 O24 2.463756 1_554
Fe10 O25 2.082776 1_555
Fe10 O14 2.109204 1_555
Fe10 O0 2.140648 1_556
Fe10 O27 2.145527 1_555
Fe10 O11 2.148589 1_445
Fe11 O16 2.127357 1_555
Fe11 O17 2.127357 1_555
Fe11 O8 2.206196 1_555
Fe11 O3 2.206196 1_555
Fe11 O22 2.282354 1_555
Fe11 O20 2.282354 1_555
Fe12 O20 2.165403 1_555
Fe12 O22 2.165403 1_555
Fe12 O12 2.194570 1_655
Fe12 O6 2.194570 1_545
Fe12 O7 2.271891 1_555
Fe12 O18 2.271891 1_555
O2 Si0 1.630792 1_445
O3 Si0 1.652116 1_555
O6 Sb1 2.017122 1_555
O7 Sb0 2.017122 1_555
O8 Si1 1.652116 1_555
O9 Sb0 2.014329 1_565
O10 Si0 1.681358 1_555
O12 Sb1 2.017122 1_555
O13 Sb0 2.014329 1_455
O14 Si1 1.681358 1_555
O15 Si1 1.630792 1_665
O16 Sb1 2.014329 1_655
O17 Sb1 2.014329 1_545
O18 Sb0 2.017122 1_555
O19 Sb0 2.020234 1_565
O20 Sb1 2.020234 1_545
O21 Si0 1.681358 1_555
O22 Sb1 2.020234 1_655
O24 Si1 1.681358 1_555
O25 Sb0 2.020234 1_455
