# generated using pymatgen
data_Gd5Ge4
_symmetry_space_group_name_H-M   'P 1'
_cell_length_a   7.73726400
_cell_length_b   7.83896600
_cell_length_c   14.93313600
_cell_angle_alpha   90.00000000
_cell_angle_beta   90.00000000
_cell_angle_gamma   90.00000000
_symmetry_Int_Tables_number   1
_chemical_formula_structural   Gd5Ge4
_chemical_formula_sum   'Gd20 Ge16'
_cell_volume   905.72679612
_cell_formula_units_Z   4
loop_
 _symmetry_equiv_pos_site_id
 _symmetry_equiv_pos_as_xyz
  1  'x, y, z'
loop_
 _atom_site_type_symbol
 _atom_site_label
 _atom_site_symmetry_multiplicity
 _atom_site_fract_x
 _atom_site_fract_y
 _atom_site_fract_z
 _atom_site_occupancy
  Gd  Gd0  1  0.47590100  0.32179700  0.90019400  1
  Gd  Gd1  1  0.97590100  0.17820300  0.59980600  1
  Gd  Gd2  1  0.52409900  0.67820300  0.40019400  1
  Gd  Gd3  1  0.02409900  0.82179700  0.09980600  1
  Gd  Gd4  1  0.52409900  0.67820300  0.09980600  1
  Gd  Gd5  1  0.02409900  0.82179700  0.40019400  1
  Gd  Gd6  1  0.47590100  0.32179700  0.59980600  1
  Gd  Gd7  1  0.97590100  0.17820300  0.90019400  1
  Gd  Gd8  1  0.12263700  0.66188700  0.88326500  1
  Gd  Gd9  1  0.62263700  0.83811300  0.61673500  1
  Gd  Gd10  1  0.87736300  0.33811300  0.38326500  1
  Gd  Gd11  1  0.37736300  0.16188700  0.11673500  1
  Gd  Gd12  1  0.87736300  0.33811300  0.11673500  1
  Gd  Gd13  1  0.37736300  0.16188700  0.38326500  1
  Gd  Gd14  1  0.12263700  0.66188700  0.61673500  1
  Gd  Gd15  1  0.62263700  0.83811300  0.88326500  1
  Gd  Gd16  1  0.70927300  0.00061600  0.25000000  1
  Gd  Gd17  1  0.20927300  0.49938400  0.25000000  1
  Gd  Gd18  1  0.29072700  0.99938400  0.75000000  1
  Gd  Gd19  1  0.79072700  0.50061600  0.75000000  1
  Ge  Ge0  1  0.28214400  0.96710300  0.95589200  1
  Ge  Ge1  1  0.78214400  0.53289700  0.54410800  1
  Ge  Ge2  1  0.71785600  0.03289700  0.45589200  1
  Ge  Ge3  1  0.21785600  0.46710300  0.04410800  1
  Ge  Ge4  1  0.71785600  0.03289700  0.04410800  1
  Ge  Ge5  1  0.21785600  0.46710300  0.45589200  1
  Ge  Ge6  1  0.28214400  0.96710300  0.54410800  1
  Ge  Ge7  1  0.78214400  0.53289700  0.95589200  1
  Ge  Ge8  1  0.58228600  0.38741600  0.25000000  1
  Ge  Ge9  1  0.08228600  0.11258400  0.25000000  1
  Ge  Ge10  1  0.41771400  0.61258400  0.75000000  1
  Ge  Ge11  1  0.91771400  0.88741600  0.75000000  1
  Ge  Ge12  1  0.82543800  0.63353200  0.25000000  1
  Ge  Ge13  1  0.32543800  0.86646800  0.25000000  1
  Ge  Ge14  1  0.17456200  0.36646800  0.75000000  1
  Ge  Ge15  1  0.67456200  0.13353200  0.75000000  1
loop_
_geom_bond_atom_site_label_1
_geom_bond_atom_site_label_2
_geom_bond_distance
_geom_bond_site_symmetry_2
Gd0 Ge7 3.007430 1_555
Gd0 Ge15 3.093720 1_555
Gd0 Ge3 3.146787 1_556
Gd0 Ge10 3.229415 1_555
Gd0 Ge14 3.254098 1_555
Gd0 Ge0 3.266506 1_545
Gd0 Ge4 3.640328 1_556
Gd1 Ge6 3.007430 1_645
Gd1 Ge14 3.093720 1_655
Gd1 Ge2 3.146787 1_555
Gd1 Ge11 3.229415 1_545
Gd1 Ge15 3.254098 1_555
Gd1 Ge1 3.266506 1_555
Gd1 Ge5 3.640328 1_655
Gd2 Ge5 3.007430 1_555
Gd2 Ge13 3.093720 1_555
Gd2 Ge1 3.146787 1_555
Gd2 Ge8 3.229415 1_555
Gd2 Ge12 3.254098 1_555
Gd2 Ge2 3.266506 1_565
Gd2 Ge6 3.640328 1_555
Gd3 Ge4 3.007430 1_465
Gd3 Ge12 3.093720 1_455
Gd3 Ge0 3.146787 1_554
Gd3 Ge9 3.229415 1_565
Gd3 Ge13 3.254098 1_555
Gd3 Ge3 3.266506 1_555
Gd3 Ge7 3.640328 1_454
Gd4 Ge3 3.007430 1_555
Gd4 Ge13 3.093720 1_555
Gd4 Ge7 3.146787 1_554
Gd4 Ge8 3.229415 1_555
Gd4 Ge12 3.254098 1_555
Gd4 Ge4 3.266506 1_565
Gd4 Ge0 3.640328 1_554
Gd5 Ge2 3.007430 1_465
Gd5 Ge12 3.093720 1_455
Gd5 Ge6 3.146787 1_555
Gd5 Ge9 3.229415 1_565
Gd5 Ge13 3.254098 1_555
Gd5 Ge5 3.266506 1_555
Gd5 Ge1 3.640328 1_455
Gd6 Ge1 3.007430 1_555
Gd6 Ge15 3.093720 1_555
Gd6 Ge5 3.146787 1_555
Gd6 Ge10 3.229415 1_555
Gd6 Ge14 3.254098 1_555
Gd6 Ge6 3.266506 1_545
Gd6 Ge2 3.640328 1_555
Gd7 Ge0 3.007430 1_645
Gd7 Ge14 3.093720 1_655
Gd7 Ge4 3.146787 1_556
Gd7 Ge11 3.229415 1_545
Gd7 Ge15 3.254098 1_555
Gd7 Ge7 3.266506 1_555
Gd7 Ge3 3.640328 1_656
Gd8 Ge0 2.902378 1_555
Gd8 Ge3 2.939948 1_556
Gd8 Ge7 3.023107 1_455
Gd8 Ge10 3.053231 1_555
Gd8 Ge14 3.079708 1_555
Gd8 Ge11 3.098358 1_455
Gd9 Ge1 2.902378 1_555
Gd9 Ge2 2.939948 1_565
Gd9 Ge6 3.023107 1_555
Gd9 Ge11 3.053231 1_555
Gd9 Ge15 3.079708 1_565
Gd9 Ge10 3.098358 1_555
Gd10 Ge2 2.902378 1_555
Gd10 Ge1 2.939948 1_555
Gd10 Ge5 3.023107 1_655
Gd10 Ge8 3.053231 1_555
Gd10 Ge12 3.079708 1_555
Gd10 Ge9 3.098358 1_655
Gd11 Ge3 2.902378 1_555
Gd11 Ge0 2.939948 1_544
Gd11 Ge4 3.023107 1_555
Gd11 Ge9 3.053231 1_555
Gd11 Ge13 3.079708 1_545
Gd11 Ge8 3.098358 1_555
Gd12 Ge4 2.902378 1_555
Gd12 Ge7 2.939948 1_554
Gd12 Ge3 3.023107 1_655
Gd12 Ge8 3.053231 1_555
Gd12 Ge12 3.079708 1_555
Gd12 Ge9 3.098358 1_655
Gd13 Ge5 2.902378 1_555
Gd13 Ge6 2.939948 1_545
Gd13 Ge2 3.023107 1_555
Gd13 Ge9 3.053231 1_555
Gd13 Ge13 3.079708 1_545
Gd13 Ge8 3.098358 1_555
Gd14 Ge6 2.902378 1_555
Gd14 Ge5 2.939948 1_555
Gd14 Ge1 3.023107 1_455
Gd14 Ge10 3.053231 1_555
Gd14 Ge14 3.079708 1_555
Gd14 Ge11 3.098358 1_455
Gd15 Ge7 2.902378 1_555
Gd15 Ge4 2.939948 1_566
Gd15 Ge0 3.023107 1_555
Gd15 Ge11 3.053231 1_555
Gd15 Ge15 3.079708 1_565
Gd15 Ge10 3.098358 1_555
Gd16 Ge12 3.014662 1_545
Gd16 Ge9 3.016613 1_655
Gd16 Ge2 3.085724 1_555
Gd16 Ge4 3.085724 1_555
Gd16 Ge13 3.150513 1_545
Gd16 Ge8 3.187330 1_555
Gd17 Ge13 3.014662 1_555
Gd17 Ge8 3.016613 1_555
Gd17 Ge5 3.085724 1_555
Gd17 Ge3 3.085724 1_555
Gd17 Ge12 3.150513 1_455
Gd17 Ge9 3.187330 1_555
Gd18 Ge14 3.014662 1_565
Gd18 Ge11 3.016613 1_455
Gd18 Ge0 3.085724 1_555
Gd18 Ge6 3.085724 1_555
Gd18 Ge15 3.150513 1_565
Gd18 Ge10 3.187330 1_555
Gd19 Ge15 3.014662 1_555
Gd19 Ge10 3.016613 1_555
Gd19 Ge7 3.085724 1_555
Gd19 Ge1 3.085724 1_555
Gd19 Ge14 3.150513 1_655
Gd19 Ge11 3.187330 1_555
Ge10 Ge14 2.694733 1_555
Ge11 Ge15 2.694733 1_565
Ge12 Ge8 2.694733 1_555
Ge13 Ge9 2.694733 1_565
