# generated using pymatgen
data_La9Mn5S21
_symmetry_space_group_name_H-M   'P 1'
_cell_length_a   11.82491551
_cell_length_b   11.82491551
_cell_length_c   11.82491522
_cell_angle_alpha   97.81832635
_cell_angle_beta   97.81832635
_cell_angle_gamma   97.81833350
_symmetry_Int_Tables_number   1
_chemical_formula_structural   La9Mn5S21
_chemical_formula_sum   'La18 Mn10 S42'
_cell_volume   1602.62231171
_cell_formula_units_Z   2
loop_
 _symmetry_equiv_pos_site_id
 _symmetry_equiv_pos_as_xyz
  1  'x, y, z'
loop_
 _atom_site_type_symbol
 _atom_site_label
 _atom_site_symmetry_multiplicity
 _atom_site_fract_x
 _atom_site_fract_y
 _atom_site_fract_z
 _atom_site_occupancy
  La  La0  1  0.11968100  0.88587200  0.75066100  1
  La  La1  1  0.45584300  0.21880800  0.07960200  1
  La  La2  1  0.78188100  0.55012300  0.41319000  1
  La  La3  1  0.41319000  0.78188100  0.55012300  1
  La  La4  1  0.75066100  0.11968100  0.88587200  1
  La  La5  1  0.07960200  0.45584300  0.21880800  1
  La  La6  1  0.21880800  0.07960200  0.45584300  1
  La  La7  1  0.55012300  0.41319000  0.78188100  1
  La  La8  1  0.88587200  0.75066100  0.11968100  1
  La  La9  1  0.21816300  0.45117100  0.58699000  1
  La  La10  1  0.54765600  0.78398100  0.92356700  1
  La  La11  1  0.88225400  0.11406500  0.25019700  1
  La  La12  1  0.92356700  0.54765600  0.78398100  1
  La  La13  1  0.25019700  0.88225400  0.11406500  1
  La  La14  1  0.58699000  0.21816300  0.45117100  1
  La  La15  1  0.11406500  0.25019700  0.88225400  1
  La  La16  1  0.45117100  0.58699000  0.21816300  1
  La  La17  1  0.78398100  0.92356700  0.54765600  1
  Mn  Mn0  1  0.71951000  0.38789700  0.05314400  1
  Mn  Mn1  1  0.05314400  0.71951000  0.38789700  1
  Mn  Mn2  1  0.38789700  0.05314400  0.71951000  1
  Mn  Mn3  1  0.88686900  0.22066000  0.55309700  1
  Mn  Mn4  1  0.22066000  0.55309700  0.88686900  1
  Mn  Mn5  1  0.55309700  0.88686900  0.22066000  1
  Mn  Mn6  1  0.84646600  0.84646600  0.84646600  1
  Mn  Mn7  1  0.16645100  0.16645100  0.16645100  1
  Mn  Mn8  1  0.66636500  0.66636500  0.66636500  1
  Mn  Mn9  1  0.34636900  0.34636900  0.34636900  1
  S  S0  1  0.54477500  0.39396200  0.30984400  1
  S  S1  1  0.87947500  0.73632500  0.65397100  1
  S  S2  1  0.22211500  0.07585500  0.98903900  1
  S  S3  1  0.98903900  0.22211500  0.07585500  1
  S  S4  1  0.30984400  0.54477500  0.39396200  1
  S  S5  1  0.65397100  0.87947500  0.73632500  1
  S  S6  1  0.73632500  0.65397100  0.87947500  1
  S  S7  1  0.07585500  0.98903900  0.22211500  1
  S  S8  1  0.39396200  0.30984400  0.54477500  1
  S  S9  1  0.13403500  0.27713900  0.35873800  1
  S  S10  1  0.46924500  0.61519200  0.70221800  1
  S  S11  1  0.78799600  0.93859000  0.02215500  1
  S  S12  1  0.70221800  0.46924500  0.61519200  1
  S  S13  1  0.02215500  0.78799600  0.93859000  1
  S  S14  1  0.35873800  0.13403500  0.27713900  1
  S  S15  1  0.93859000  0.02215500  0.78799600  1
  S  S16  1  0.27713900  0.35873800  0.13403500  1
  S  S17  1  0.61519200  0.70221800  0.46924500  1
  S  S18  1  0.84489100  0.51558000  0.17925200  1
  S  S19  1  0.17925200  0.84489100  0.51558000  1
  S  S20  1  0.51558000  0.17925200  0.84489100  1
  S  S21  1  0.67908100  0.01588400  0.34527200  1
  S  S22  1  0.01588400  0.34527200  0.67908100  1
  S  S23  1  0.34527200  0.67908100  0.01588400  1
  S  S24  1  0.54694100  0.44973700  0.02810800  1
  S  S25  1  0.88141900  0.78153400  0.36542100  1
  S  S26  1  0.21326100  0.11287800  0.70078100  1
  S  S27  1  0.70078100  0.21326100  0.11287800  1
  S  S28  1  0.02810800  0.54694100  0.44973700  1
  S  S29  1  0.36542100  0.88141900  0.78153400  1
  S  S30  1  0.78153400  0.36542100  0.88141900  1
  S  S31  1  0.11287800  0.70078100  0.21326100  1
  S  S32  1  0.44973700  0.02810800  0.54694100  1
  S  S33  1  0.97142400  0.07141700  0.48359600  1
  S  S34  1  0.30419000  0.40192800  0.81959400  1
  S  S35  1  0.63819300  0.73514900  0.15534000  1
  S  S36  1  0.81959400  0.30419000  0.40192800  1
  S  S37  1  0.15534000  0.63819300  0.73514900  1
  S  S38  1  0.48359600  0.97142400  0.07141700  1
  S  S39  1  0.73514900  0.15534000  0.63819300  1
  S  S40  1  0.07141700  0.48359600  0.97142400  1
  S  S41  1  0.40192800  0.81959400  0.30419000  1
loop_
_geom_bond_atom_site_label_1
_geom_bond_atom_site_label_2
_geom_bond_distance
_geom_bond_site_symmetry_2
La0 S29 2.887608 1_555
La0 S15 2.894823 1_465
La0 S26 2.928857 1_565
La0 S13 2.939676 1_555
La0 S19 2.952546 1_555
La0 S37 3.000015 1_555
La0 S1 3.114832 1_455
La0 S2 3.326802 1_565
La1 S27 2.880406 1_555
La1 S16 2.940958 1_555
La1 S20 2.948035 1_554
La1 S24 2.969601 1_555
La1 S14 2.972073 1_555
La1 S38 2.977787 1_545
La1 S2 3.012330 1_554
La1 S0 3.146822 1_555
La2 S28 2.890946 1_655
La2 S12 2.914843 1_555
La2 S17 2.924854 1_555
La2 S18 2.951364 1_555
La2 S25 2.986231 1_555
La2 S36 2.989565 1_555
La2 S0 3.132036 1_555
La2 S1 3.315963 1_555
La3 S32 2.890946 1_565
La3 S17 2.914843 1_555
La3 S10 2.924854 1_555
La3 S19 2.951364 1_555
La3 S29 2.986231 1_555
La3 S41 2.989565 1_555
La3 S4 3.132036 1_555
La3 S5 3.315963 1_555
La4 S30 2.887608 1_555
La4 S11 2.894823 1_546
La4 S27 2.928857 1_556
La4 S15 2.939676 1_555
La4 S20 2.952546 1_555
La4 S39 3.000015 1_555
La4 S5 3.114832 1_545
La4 S3 3.326802 1_556
La5 S31 2.880406 1_555
La5 S9 2.940958 1_555
La5 S18 2.948035 1_455
La5 S28 2.969601 1_555
La5 S16 2.972073 1_555
La5 S40 2.977787 1_554
La5 S3 3.012330 1_455
La5 S4 3.146822 1_555
La6 S26 2.880406 1_555
La6 S14 2.940958 1_555
La6 S19 2.948035 1_545
La6 S32 2.969601 1_555
La6 S9 2.972073 1_555
La6 S33 2.977787 1_455
La6 S7 3.012330 1_545
La6 S8 3.146822 1_555
La7 S24 2.890946 1_556
La7 S10 2.914843 1_555
La7 S12 2.924854 1_555
La7 S20 2.951364 1_555
La7 S30 2.986231 1_555
La7 S34 2.989565 1_555
La7 S8 3.132036 1_555
La7 S6 3.315962 1_555
La8 S25 2.887608 1_555
La8 S13 2.894823 1_654
La8 S31 2.928857 1_655
La8 S11 2.939676 1_555
La8 S18 2.952546 1_555
La8 S35 3.000015 1_555
La8 S6 3.114832 1_554
La8 S7 3.326802 1_655
La9 S37 2.873851 1_555
La9 S8 2.892059 1_555
La9 S4 2.940165 1_555
La9 S22 2.956359 1_555
La9 S34 2.962250 1_555
La9 S28 3.027789 1_555
La9 S9 3.116236 1_555
La9 S10 3.323725 1_555
La10 S38 2.882030 1_556
La10 S6 2.940098 1_555
La10 S23 2.954515 1_556
La10 S35 2.965043 1_556
La10 S5 2.968030 1_555
La10 S29 3.001557 1_555
La10 S10 3.018156 1_555
La10 S11 3.143822 1_556
La11 S3 2.909121 1_555
La11 S7 2.920796 1_645
La11 S36 2.922344 1_555
La11 S33 2.952105 1_555
La11 S21 2.952110 1_555
La11 S27 2.978670 1_555
La11 S11 3.138494 1_545
La11 S9 3.309846 1_655
La12 S40 2.882030 1_655
La12 S1 2.940098 1_555
La12 S22 2.954516 1_655
La12 S37 2.965043 1_655
La12 S6 2.968030 1_555
La12 S30 3.001557 1_555
La12 S12 3.018156 1_555
La12 S13 3.143822 1_655
La13 S7 2.909121 1_555
La13 S2 2.920796 1_564
La13 S41 2.922344 1_555
La13 S38 2.952105 1_555
La13 S23 2.952110 1_555
La13 S31 2.978670 1_555
La13 S13 3.138494 1_554
La13 S14 3.309846 1_565
La14 S39 2.873851 1_555
La14 S0 2.892059 1_555
La14 S8 2.940165 1_555
La14 S21 2.956360 1_555
La14 S36 2.962250 1_555
La14 S32 3.027788 1_555
La14 S14 3.116236 1_555
La14 S12 3.323725 1_555
La15 S2 2.909121 1_555
La15 S3 2.920796 1_456
La15 S34 2.922343 1_555
La15 S40 2.952105 1_555
La15 S22 2.952110 1_555
La15 S26 2.978670 1_555
La15 S15 3.138494 1_455
La15 S16 3.309846 1_556
La16 S35 2.873851 1_555
La16 S4 2.892059 1_555
La16 S0 2.940165 1_555
La16 S23 2.956359 1_555
La16 S41 2.962250 1_555
La16 S24 3.027789 1_555
La16 S16 3.116236 1_555
La16 S17 3.323725 1_555
La17 S33 2.882030 1_565
La17 S5 2.940098 1_555
La17 S21 2.954516 1_565
La17 S39 2.965043 1_565
La17 S1 2.968030 1_555
La17 S25 3.001557 1_555
La17 S17 3.018156 1_555
La17 S15 3.143822 1_565
Mn0 S18 2.208714 1_555
Mn0 S30 2.245756 1_554
Mn0 S24 2.255437 1_555
Mn0 S27 2.264379 1_555
Mn1 S19 2.208714 1_555
Mn1 S25 2.245756 1_455
Mn1 S28 2.255437 1_555
Mn1 S31 2.264379 1_555
Mn2 S20 2.208714 1_555
Mn2 S29 2.245756 1_545
Mn2 S32 2.255437 1_555
Mn2 S26 2.264380 1_555
Mn3 S22 2.211537 1_655
Mn3 S33 2.258017 1_555
Mn3 S36 2.260776 1_555
Mn3 S39 2.270124 1_555
Mn4 S23 2.211537 1_556
Mn4 S40 2.258017 1_555
Mn4 S34 2.260776 1_555
Mn4 S37 2.270124 1_555
Mn5 S21 2.211537 1_565
Mn5 S38 2.258017 1_555
Mn5 S41 2.260776 1_555
Mn5 S35 2.270124 1_555
Mn6 S15 2.441467 1_565
Mn6 S11 2.441467 1_556
Mn6 S13 2.441467 1_655
Mn6 S6 2.569698 1_555
Mn6 S1 2.569699 1_555
Mn6 S5 2.569699 1_555
Mn7 S7 2.436824 1_545
Mn7 S2 2.436824 1_554
Mn7 S3 2.436824 1_455
Mn7 S16 2.567895 1_555
Mn7 S9 2.567895 1_555
Mn7 S14 2.567895 1_555
Mn8 S10 2.435989 1_555
Mn8 S17 2.435989 1_555
Mn8 S12 2.435989 1_555
Mn8 S1 2.573437 1_555
Mn8 S6 2.573438 1_555
Mn8 S5 2.573438 1_555
Mn9 S0 2.447489 1_555
Mn9 S8 2.447489 1_555
Mn9 S4 2.447489 1_555
Mn9 S9 2.563027 1_555
Mn9 S16 2.563027 1_555
Mn9 S14 2.563027 1_555
