# generated using pymatgen
data_TbDy3Fe8
_symmetry_space_group_name_H-M   'P 1'
_cell_length_a   5.15328816
_cell_length_b   5.15328816
_cell_length_c   8.92881231
_cell_angle_alpha   73.22725656
_cell_angle_beta   90.00000000
_cell_angle_gamma   120.00000000
_symmetry_Int_Tables_number   1
_chemical_formula_structural   TbDy3Fe8
_chemical_formula_sum   'Tb1 Dy3 Fe8'
_cell_volume   193.61343580
_cell_formula_units_Z   1
loop_
 _symmetry_equiv_pos_site_id
 _symmetry_equiv_pos_as_xyz
  1  'x, y, z'
loop_
 _atom_site_type_symbol
 _atom_site_label
 _atom_site_symmetry_multiplicity
 _atom_site_fract_x
 _atom_site_fract_y
 _atom_site_fract_z
 _atom_site_occupancy
  Tb  Tb0  1  0.87498300  0.74996600  0.37505100  1
  Dy  Dy0  1  0.37493600  0.74987200  0.87519200  1
  Dy  Dy1  1  0.00003800  0.00007700  0.99988500  1
  Dy  Dy2  1  0.50004700  0.00009400  0.49985800  1
  Fe  Fe0  1  0.43754600  0.37514600  0.18730800  1
  Fe  Fe1  1  0.93754400  0.37479400  0.68766100  1
  Fe  Fe2  1  0.43754600  0.87509200  0.18730800  1
  Fe  Fe3  1  0.93754400  0.87508800  0.68766100  1
  Fe  Fe4  1  0.18744700  0.37489300  0.43766000  1
  Fe  Fe5  1  0.68751800  0.37503700  0.93744500  1
  Fe  Fe6  1  0.93760000  0.37514600  0.18730800  1
  Fe  Fe7  1  0.43725000  0.37479400  0.68766100  1
loop_
_geom_bond_atom_site_label_1
_geom_bond_atom_site_label_2
_geom_bond_distance
_geom_bond_site_symmetry_2
Dy0 Fe2 3.019372 1_556
Dy0 Fe6 3.019372 1_456
Dy0 Fe0 3.019372 1_556
Dy0 Fe5 3.021054 1_555
Dy0 Fe5 3.021058 1_455
Dy0 Fe5 3.021058 1_565
Dy0 Fe1 3.021835 1_565
Dy0 Fe7 3.021835 1_565
Dy0 Fe3 3.021837 1_455
Dy0 Fe3 3.021837 1_555
Dy0 Fe1 3.021839 1_455
Dy0 Fe7 3.021839 1_555
Dy0 Dy1 3.155004 1_555
Dy0 Dy1 3.155004 1_665
Dy0 Dy1 3.155009 1_565
Dy0 Dy2 3.159759 1_565
Dy1 Fe1 3.019809 1_455
Dy1 Fe7 3.019811 1_555
Dy1 Fe3 3.019814 1_445
Dy1 Fe5 3.021330 1_445
Dy1 Fe5 3.021330 1_555
Dy1 Fe5 3.021330 1_455
Dy1 Fe2 3.021360 1_446
Dy1 Fe6 3.021360 1_456
Dy1 Fe0 3.021362 1_446
Dy1 Fe0 3.021362 1_556
Dy1 Fe2 3.021364 1_546
Dy1 Fe6 3.021364 1_446
Dy1 Tb0 3.158344 1_446
Dy2 Fe4 3.020975 1_555
Dy2 Fe4 3.020975 1_545
Dy2 Fe4 3.020979 1_655
Dy2 Fe2 3.022709 1_545
Dy2 Fe0 3.022711 1_555
Dy2 Fe6 3.022711 1_555
Dy2 Fe3 3.023034 1_445
Dy2 Fe1 3.023034 1_445
Dy2 Fe7 3.023034 1_555
Dy2 Fe1 3.023034 1_555
Dy2 Fe7 3.023034 1_545
Dy2 Fe3 3.023034 1_545
Dy2 Tb0 3.155324 1_545
Dy2 Tb0 3.155324 1_445
Dy2 Tb0 3.155328 1_555
Fe0 Fe2 2.576366 1_555
Fe0 Fe6 2.576366 1_455
Fe0 Fe5 2.576455 1_554
Fe0 Fe6 2.576922 1_555
Fe0 Fe2 2.576922 1_545
Fe0 Fe4 2.579632 1_555
Fe0 Tb0 3.022770 1_445
Fe0 Tb0 3.022770 1_555
Fe1 Fe3 2.575129 1_545
Fe1 Fe7 2.575129 1_655
Fe1 Fe5 2.576329 1_555
Fe1 Fe4 2.576809 1_655
Fe1 Fe3 2.578159 1_555
Fe1 Fe7 2.578159 1_555
Fe1 Tb0 3.023502 1_555
Fe2 Fe6 2.576366 1_455
Fe2 Fe5 2.576458 1_564
Fe2 Fe6 2.576922 1_565
Fe2 Fe4 2.579634 1_555
Fe2 Tb0 3.022770 1_555
Fe2 Tb0 3.022770 1_455
Fe3 Fe7 2.575129 1_665
Fe3 Fe5 2.576324 1_555
Fe3 Fe4 2.576809 1_665
Fe3 Fe7 2.578159 1_555
Fe3 Tb0 3.023500 1_555
Fe4 Fe7 2.576806 1_555
Fe4 Fe6 2.579634 1_455
Fe4 Tb0 3.021577 1_555
Fe4 Tb0 3.021577 1_445
Fe4 Tb0 3.021581 1_455
Fe5 Fe7 2.576326 1_555
Fe5 Fe6 2.576458 1_556
Fe6 Tb0 3.022770 1_545
Fe6 Tb0 3.022770 1_555
Fe7 Tb0 3.023502 1_555
