# generated using pymatgen
data_V2NiSb2
_symmetry_space_group_name_H-M   'P 1'
_cell_length_a   4.30042506
_cell_length_b   4.30042506
_cell_length_c   5.46761000
_cell_angle_alpha   90.00000000
_cell_angle_beta   90.00000000
_cell_angle_gamma   119.96582925
_symmetry_Int_Tables_number   1
_chemical_formula_structural   V2NiSb2
_chemical_formula_sum   'V2 Ni1 Sb2'
_cell_volume   87.59924549
_cell_formula_units_Z   1
loop_
 _symmetry_equiv_pos_site_id
 _symmetry_equiv_pos_as_xyz
  1  'x, y, z'
loop_
 _atom_site_type_symbol
 _atom_site_label
 _atom_site_symmetry_multiplicity
 _atom_site_fract_x
 _atom_site_fract_y
 _atom_site_fract_z
 _atom_site_occupancy
  V  V0  1  0.00005000  0.99995000  0.51137100  1
  V  V1  1  0.00005000  0.99995000  0.98862900  1
  Ni  Ni0  1  0.66665600  0.33334400  0.25000000  1
  Sb  Sb0  1  0.66668500  0.33331500  0.75000000  1
  Sb  Sb1  1  0.33325900  0.66674100  0.25000000  1
loop_
_geom_bond_atom_site_label_1
_geom_bond_atom_site_label_2
_geom_bond_distance
_geom_bond_site_symmetry_2
V0 V1 2.609461 1_555
V0 V1 2.858149 1_554
Ni0 Sb1 2.482898 1_555
Ni0 Sb1 2.483470 1_545
Ni0 Sb1 2.483470 1_655
Ni0 Sb0 2.733805 1_554
Ni0 Sb0 2.733805 1_555
Ni0 V0 2.864773 1_645
Ni0 V1 2.864773 1_644
Ni0 V1 2.865298 1_654
Ni0 V0 2.865298 1_655
Ni0 V0 2.865298 1_545
Ni0 V1 2.865298 1_544
Sb0 V0 2.804625 1_645
Sb0 V1 2.804625 1_645
Sb0 V0 2.805447 1_655
Sb0 V0 2.805447 1_545
Sb0 V1 2.805447 1_655
Sb0 V1 2.805447 1_545
Sb1 V1 2.863579 1_554
Sb1 V0 2.863579 1_555
Sb1 V0 2.865895 1_545
Sb1 V1 2.865895 1_544
Sb1 V1 2.865895 1_654
Sb1 V0 2.865895 1_655
