# generated using pymatgen
data_ErCuTe2
_symmetry_space_group_name_H-M   'P 1'
_cell_length_a   4.35455672
_cell_length_b   4.35455600
_cell_length_c   6.86025300
_cell_angle_alpha   89.99837055
_cell_angle_beta   89.99837169
_cell_angle_gamma   60.00100681
_symmetry_Int_Tables_number   1
_chemical_formula_structural   ErCuTe2
_chemical_formula_sum   'Er1 Cu1 Te2'
_cell_volume   112.65825022
_cell_formula_units_Z   1
loop_
 _symmetry_equiv_pos_site_id
 _symmetry_equiv_pos_as_xyz
  1  'x, y, z'
loop_
 _atom_site_type_symbol
 _atom_site_label
 _atom_site_symmetry_multiplicity
 _atom_site_fract_x
 _atom_site_fract_y
 _atom_site_fract_z
 _atom_site_occupancy
  Er  Er0  1  0.99999400  0.99999400  0.98852100  1
  Cu  Cu0  1  0.66668400  0.66668400  0.36147200  1
  Te  Te0  1  0.66668200  0.66668200  0.74619000  1
  Te  Te1  1  0.33333900  0.33333900  0.26181700  1
loop_
_geom_bond_atom_site_label_1
_geom_bond_atom_site_label_2
_geom_bond_distance
_geom_bond_site_symmetry_2
Er0 Te0 3.013946 1_555
Er0 Te0 3.014110 1_565
Er0 Te0 3.014111 1_655
Er0 Te1 3.136183 1_656
Er0 Te1 3.136184 1_566
Er0 Te1 3.136333 1_666
Cu0 Te1 2.605371 1_565
Cu0 Te1 2.605372 1_655
Cu0 Te1 2.605494 1_555
Cu0 Te0 2.639263 1_555
