# generated using pymatgen
data_RbSbO2
_symmetry_space_group_name_H-M   'P 1'
_cell_length_a   5.58196751
_cell_length_b   6.01609944
_cell_length_c   6.01610010
_cell_angle_alpha   96.92252173
_cell_angle_beta   111.26335476
_cell_angle_gamma   111.26335613
_symmetry_Int_Tables_number   1
_chemical_formula_structural   RbSbO2
_chemical_formula_sum   'Rb2 Sb2 O4'
_cell_volume   167.90834010
_cell_formula_units_Z   2
loop_
 _symmetry_equiv_pos_site_id
 _symmetry_equiv_pos_as_xyz
  1  'x, y, z'
loop_
 _atom_site_type_symbol
 _atom_site_label
 _atom_site_symmetry_multiplicity
 _atom_site_fract_x
 _atom_site_fract_y
 _atom_site_fract_z
 _atom_site_occupancy
  Rb  Rb0  1  0.25000000  0.64224639  0.35775361  1
  Rb  Rb1  1  0.75000000  0.35775361  0.64224639  1
  Sb  Sb0  1  0.75000000  0.91019719  0.08980281  1
  Sb  Sb1  1  0.25000000  0.08980281  0.91019719  1
  O  O0  1  0.20832925  0.12865552  0.22284867  1
  O  O1  1  0.29167075  0.77715133  0.87134448  1
  O  O2  1  0.70832925  0.22284867  0.12865552  1
  O  O3  1  0.79167075  0.87134448  0.77715133  1
loop_
_geom_bond_atom_site_label_1
_geom_bond_atom_site_label_2
_geom_bond_distance
_geom_bond_site_symmetry_2
O0 Sb1 1.974202 1_554
O0 Sb0 2.176153 1_445
O0 Rb1 2.830851 1_555
O0 Rb0 2.999508 1_555
O0 Rb0 3.194561 1_545
O1 Sb1 1.974202 1_565
O1 Sb0 2.176153 1_556
O1 Rb1 2.830850 1_455
O1 Rb0 2.999509 1_555
O1 Rb0 3.194561 1_556
O2 Sb0 1.974202 1_545
O2 Sb1 2.176153 1_554
O2 Rb0 2.830850 1_655
O2 Rb1 2.999509 1_555
O2 Rb1 3.194561 1_554
O3 Sb0 1.974202 1_556
O3 Sb1 2.176153 1_665
O3 Rb0 2.830851 1_555
O3 Rb1 2.999508 1_555
O3 Rb1 3.194561 1_565
