# generated using pymatgen
data_Li2Al(NiO2)3
_symmetry_space_group_name_H-M   'P 1'
_cell_length_a   5.01295414
_cell_length_b   5.01299648
_cell_length_c   9.69724697
_cell_angle_alpha   94.37119917
_cell_angle_beta   85.62808082
_cell_angle_gamma   61.35021798
_symmetry_Int_Tables_number   1
_chemical_formula_structural   Li2Al(NiO2)3
_chemical_formula_sum   'Li4 Al2 Ni6 O12'
_cell_volume   211.45472669
_cell_formula_units_Z   2
loop_
 _symmetry_equiv_pos_site_id
 _symmetry_equiv_pos_as_xyz
  1  'x, y, z'
loop_
 _atom_site_type_symbol
 _atom_site_label
 _atom_site_symmetry_multiplicity
 _atom_site_fract_x
 _atom_site_fract_y
 _atom_site_fract_z
 _atom_site_occupancy
  Li  Li0  1  0.91605600  0.41419100  0.25070600  1
  Li  Li1  1  0.41418800  0.91602500  0.74928000  1
  Li  Li2  1  0.58581200  0.09345400  0.25131400  1
  Li  Li3  1  0.09347600  0.58578000  0.74866600  1
  Al  Al0  1  0.66423800  0.66421400  0.99999100  1
  Al  Al1  1  0.17154800  0.17159200  0.49998000  1
  Ni  Ni0  1  0.49826700  0.49824300  0.49999200  1
  Ni  Ni1  1  0.99873600  0.99872400  0.99998600  1
  Ni  Ni2  1  0.33414600  0.33409500  0.99996300  1
  Ni  Ni3  1  0.83220100  0.83247100  0.50012700  1
  Ni  Ni4  1  0.25113500  0.74264900  0.25113900  1
  Ni  Ni5  1  0.74267700  0.25113600  0.74886500  1
  O  O0  1  0.30192300  0.00954100  0.10933300  1
  O  O1  1  0.82213800  0.51978400  0.61064400  1
  O  O2  1  0.51983100  0.82214900  0.38938900  1
  O  O3  1  0.00956500  0.30189900  0.89064200  1
  O  O4  1  0.62393700  0.39989700  0.12155100  1
  O  O5  1  0.10658600  0.89769100  0.61404700  1
  O  O6  1  0.89768000  0.10657200  0.38597700  1
  O  O7  1  0.39992000  0.62392900  0.87842100  1
  O  O8  1  0.94779800  0.71956400  0.11097800  1
  O  O9  1  0.44722900  0.20135500  0.61974700  1
  O  O10  1  0.20131700  0.44728900  0.38027200  1
  O  O11  1  0.71959600  0.94775900  0.88899000  1
loop_
_geom_bond_atom_site_label_1
_geom_bond_atom_site_label_2
_geom_bond_distance
_geom_bond_site_symmetry_2
Li0 O4 2.021071 1_555
Li0 O10 2.029956 1_655
Li0 O6 2.129176 1_555
Li0 O8 2.172931 1_555
Li0 O0 2.268291 1_655
Li0 O2 2.283541 1_555
Li1 O7 2.020843 1_555
Li1 O9 2.029906 1_565
Li1 O5 2.128793 1_555
Li1 O11 2.172941 1_555
Li1 O3 2.268193 1_565
Li1 O1 2.283347 1_555
Li2 O2 2.096034 1_545
Li2 O10 2.107417 1_555
Li2 O4 2.125887 1_555
Li2 O6 2.133191 1_555
Li2 O8 2.152008 1_545
Li2 O0 2.209607 1_555
Li3 O1 2.095851 1_455
Li3 O9 2.106936 1_555
Li3 O7 2.125891 1_555
Li3 O5 2.133063 1_555
Li3 O11 2.151914 1_455
Li3 O3 2.209533 1_555
Al0 O4 1.909066 1_556
Al0 O7 1.909106 1_555
Al0 O8 1.954959 1_556
Al0 O11 1.954992 1_555
Al0 O0 1.957419 1_566
Al0 O3 1.957448 1_655
Al1 O10 1.922459 1_555
Al1 O9 1.922760 1_555
Al1 O2 1.939694 1_545
Al1 O1 1.939723 1_455
Al1 O6 1.954173 1_455
Al1 O5 1.954548 1_545
Ni0 O10 2.052284 1_555
Ni0 O9 2.052412 1_555
Ni0 O2 2.052968 1_555
Ni0 O1 2.053047 1_555
Ni0 O6 2.155999 1_555
Ni0 O5 2.156245 1_555
Ni1 O8 1.926765 1_556
Ni1 O11 1.926767 1_555
Ni1 O3 1.937289 1_665
Ni1 O0 1.937335 1_666
Ni1 O4 2.154500 1_566
Ni1 O7 2.154516 1_655
Ni2 O7 2.066414 1_555
Ni2 O4 2.066577 1_556
Ni2 O3 2.070289 1_555
Ni2 O0 2.070497 1_556
Ni2 O11 2.102216 1_545
Ni2 O8 2.102435 1_456
Ni3 O5 1.956288 1_655
Ni3 O6 1.957059 1_565
Ni3 O1 1.982882 1_555
Ni3 O2 1.983297 1_555
Ni3 O9 2.097410 1_565
Ni3 O10 2.099302 1_655
Ni4 O4 2.063413 1_555
Ni4 O0 2.073539 1_565
Ni4 O6 2.088280 1_465
Ni4 O10 2.100542 1_555
Ni4 O2 2.116383 1_555
Ni4 O8 2.152415 1_455
Ni5 O7 2.063257 1_555
Ni5 O3 2.073284 1_655
Ni5 O5 2.088134 1_645
Ni5 O9 2.100732 1_555
Ni5 O1 2.115915 1_555
Ni5 O11 2.152323 1_545
