# generated using pymatgen
data_LiCoPO4
_symmetry_space_group_name_H-M   'P 1'
_cell_length_a   4.76278303
_cell_length_b   6.02550408
_cell_length_c   10.19691608
_cell_angle_alpha   90.01456803
_cell_angle_beta   89.99857177
_cell_angle_gamma   89.98865456
_symmetry_Int_Tables_number   1
_chemical_formula_structural   LiCoPO4
_chemical_formula_sum   'Li4 Co4 P4 O16'
_cell_volume   292.63280100
_cell_formula_units_Z   4
loop_
 _symmetry_equiv_pos_site_id
 _symmetry_equiv_pos_as_xyz
  1  'x, y, z'
loop_
 _atom_site_type_symbol
 _atom_site_label
 _atom_site_symmetry_multiplicity
 _atom_site_fract_x
 _atom_site_fract_y
 _atom_site_fract_z
 _atom_site_occupancy
  Li  Li0  1  0.50000400  0.00000400  0.50000400  1
  Li  Li1  1  0.00001200  0.49999400  0.99999800  1
  Li  Li2  1  0.49999700  0.50000300  0.49999400  1
  Li  Li3  1  0.99998700  0.99999400  0.00000300  1
  Co  Co0  1  0.01968600  0.74999800  0.72430100  1
  Co  Co1  1  0.48032400  0.74997000  0.22430300  1
  Co  Co2  1  0.98031700  0.25003800  0.27570000  1
  Co  Co3  1  0.51966600  0.25003100  0.77569600  1
  P  P0  1  0.58819300  0.75003500  0.90705300  1
  P  P1  1  0.91180800  0.75000100  0.40706100  1
  P  P2  1  0.41181100  0.24999100  0.09294600  1
  P  P3  1  0.08819300  0.25004600  0.59294000  1
  O  O0  1  0.26551900  0.75014300  0.90025400  1
  O  O1  1  0.23449600  0.74992000  0.40024900  1
  O  O2  1  0.73448700  0.24983800  0.09974900  1
  O  O3  1  0.76550400  0.25001400  0.59974600  1
  O  O4  1  0.79734200  0.74985300  0.55033000  1
  O  O5  1  0.70265700  0.74997600  0.05032900  1
  O  O6  1  0.20266000  0.25018800  0.44966900  1
  O  O7  1  0.29734100  0.24999500  0.94967000  1
  O  O8  1  0.77104600  0.95517000  0.33774900  1
  O  O9  1  0.72895800  0.54483200  0.83763500  1
  O  O10  1  0.22903000  0.45511700  0.66241500  1
  O  O11  1  0.27084600  0.04487300  0.16229300  1
  O  O12  1  0.22905000  0.04486000  0.66223100  1
  O  O13  1  0.27105700  0.45512700  0.16234900  1
  O  O14  1  0.77086900  0.54491100  0.33760100  1
  O  O15  1  0.72914000  0.95507900  0.83773100  1
loop_
_geom_bond_atom_site_label_1
_geom_bond_atom_site_label_2
_geom_bond_distance
_geom_bond_site_symmetry_2
Li0 O12 2.115274 1_555
Li0 O8 2.115736 1_545
Li0 O4 2.130807 1_545
Li0 O6 2.130988 1_555
Li0 O3 2.214229 1_555
Li0 O1 2.214615 1_545
Li1 O13 2.116694 1_556
Li1 O9 2.116793 1_455
Li1 O7 2.129934 1_555
Li1 O5 2.129951 1_456
Li1 O0 2.215150 1_555
Li1 O2 2.215261 1_456
Li2 O14 2.116573 1_555
Li2 O10 2.117055 1_555
Li2 O6 2.129582 1_555
Li2 O4 2.129783 1_555
Li2 O1 2.213876 1_555
Li2 O3 2.214220 1_555
Li3 O15 2.115483 1_554
Li3 O11 2.115634 1_665
Li3 O5 2.130594 1_555
Li3 O7 2.130615 1_664
Li3 O2 2.213198 1_565
Li3 O0 2.213328 1_654
Co0 O4 2.066031 1_455
Co0 O10 2.132624 1_555
Co0 O12 2.133726 1_565
Co0 O0 2.142444 1_555
Co0 O15 2.185919 1_455
Co0 O9 2.186882 1_455
Co1 O5 2.065985 1_555
Co1 O13 2.132811 1_555
Co1 O11 2.133690 1_565
Co1 O1 2.142323 1_555
Co1 O14 2.185498 1_555
Co1 O8 2.187288 1_555
Co2 O6 2.066012 1_655
Co2 O14 2.132861 1_555
Co2 O8 2.133486 1_545
Co2 O2 2.142420 1_555
Co2 O11 2.186030 1_655
Co2 O13 2.186747 1_655
Co3 O7 2.065966 1_555
Co3 O9 2.132611 1_555
Co3 O15 2.134002 1_545
Co3 O3 2.142383 1_555
Co3 O10 2.185773 1_555
Co3 O12 2.186972 1_555
O0 P0 1.538391 1_555
O1 P1 1.538460 1_455
O2 P2 1.538402 1_555
O3 P3 1.538462 1_655
O4 P1 1.559299 1_555
O5 P0 1.559388 1_554
O6 P3 1.559320 1_555
O7 P2 1.559398 1_556
O8 P1 1.573985 1_555
O9 P0 1.574340 1_555
O10 P3 1.574347 1_555
O11 P2 1.574510 1_555
O12 P3 1.574162 1_555
O13 P2 1.573932 1_555
O14 P1 1.574575 1_555
O15 P0 1.574008 1_555
