# generated using pymatgen
data_MgVS3
_symmetry_space_group_name_H-M   'P 1'
_cell_length_a   6.67344879
_cell_length_b   7.05367132
_cell_length_c   10.96229389
_cell_angle_alpha   80.29820897
_cell_angle_beta   72.27901967
_cell_angle_gamma   61.76766976
_symmetry_Int_Tables_number   1
_chemical_formula_structural   MgVS3
_chemical_formula_sum   'Mg4 V4 S12'
_cell_volume   432.87564774
_cell_formula_units_Z   4
loop_
 _symmetry_equiv_pos_site_id
 _symmetry_equiv_pos_as_xyz
  1  'x, y, z'
loop_
 _atom_site_type_symbol
 _atom_site_label
 _atom_site_symmetry_multiplicity
 _atom_site_fract_x
 _atom_site_fract_y
 _atom_site_fract_z
 _atom_site_occupancy
  Mg  Mg0  1  0.42718500  0.55611600  0.58951200  1
  Mg  Mg1  1  0.57486100  0.08853200  0.76174600  1
  Mg  Mg2  1  0.42999600  0.05465700  0.08535100  1
  Mg  Mg3  1  0.57024100  0.59181800  0.26769800  1
  V  V0  1  0.93243800  0.85159200  0.28353300  1
  V  V1  1  0.05958900  0.41655600  0.46426600  1
  V  V2  1  0.93621900  0.34838300  0.77917900  1
  V  V3  1  0.05907900  0.91426200  0.96758000  1
  S  S0  1  0.75680400  0.18706700  0.29932400  1
  S  S1  1  0.22681800  0.25465300  0.29171000  1
  S  S2  1  0.76159700  0.68518300  0.79162200  1
  S  S3  1  0.23211000  0.73509800  0.80068100  1
  S  S4  1  0.28937400  0.76666800  0.12099800  1
  S  S5  1  0.82295900  0.76666800  0.12099800  1
  S  S6  1  0.69965400  0.69866400  0.43297400  1
  S  S7  1  0.16870800  0.69866400  0.43297400  1
  S  S8  1  0.29237400  0.26358500  0.61686900  1
  S  S9  1  0.82717200  0.26358500  0.61686900  1
  S  S10  1  0.70427200  0.19457400  0.92820700  1
  S  S11  1  0.17294700  0.19457400  0.92820700  1
loop_
_geom_bond_atom_site_label_1
_geom_bond_atom_site_label_2
_geom_bond_distance
_geom_bond_site_symmetry_2
Mg0 S3 2.498571 1_555
Mg0 S7 2.551589 1_555
Mg0 S6 2.551599 1_555
Mg0 S8 2.557439 1_555
Mg0 S9 2.557448 1_555
Mg1 S2 2.516902 1_545
Mg1 S8 2.561296 1_555
Mg1 S9 2.561296 1_555
Mg1 S10 2.581810 1_555
Mg1 S11 2.581810 1_555
Mg2 S1 2.518854 1_555
Mg2 S5 2.544132 1_545
Mg2 S4 2.544137 1_545
Mg2 S11 2.551153 1_554
Mg2 S10 2.551153 1_554
Mg3 S0 2.527339 1_555
Mg3 S4 2.569029 1_555
Mg3 S5 2.569034 1_555
Mg3 S7 2.573910 1_555
Mg3 S6 2.573919 1_555
S0 V0 2.096134 1_545
S1 V1 2.089261 1_555
S2 V2 2.100875 1_555
S3 V3 2.095339 1_555
S4 V0 2.373495 1_455
S4 V3 2.396642 1_554
S5 V0 2.373503 1_555
S5 V3 2.396647 1_654
S6 V1 2.365680 1_655
S6 V0 2.387714 1_555
S7 V1 2.365680 1_555
S7 V0 2.387710 1_455
S8 V2 2.368960 1_455
S8 V1 2.400810 1_555
S9 V2 2.368960 1_555
S9 V1 2.400810 1_655
S10 V3 2.367986 1_645
S10 V2 2.386200 1_555
S11 V3 2.367986 1_545
S11 V2 2.386199 1_455
