# generated using pymatgen
data_Ba2PrIrO6
_symmetry_space_group_name_H-M   'P 1'
_cell_length_a   6.09167000
_cell_length_b   6.10594671
_cell_length_c   8.61592079
_cell_angle_alpha   90.05338839
_cell_angle_beta   90.00000000
_cell_angle_gamma   90.00000000
_symmetry_Int_Tables_number   1
_chemical_formula_structural   Ba2PrIrO6
_chemical_formula_sum   'Ba4 Pr2 Ir2 O12'
_cell_volume   320.47258783
_cell_formula_units_Z   2
loop_
 _symmetry_equiv_pos_site_id
 _symmetry_equiv_pos_as_xyz
  1  'x, y, z'
loop_
 _atom_site_type_symbol
 _atom_site_label
 _atom_site_symmetry_multiplicity
 _atom_site_fract_x
 _atom_site_fract_y
 _atom_site_fract_z
 _atom_site_occupancy
  Ba  Ba0  1  0.48758700  0.50056100  0.74943200  1
  Ba  Ba1  1  0.98758700  0.99943900  0.75056800  1
  Ba  Ba2  1  0.51241300  0.49943900  0.25056800  1
  Ba  Ba3  1  0.01241300  0.00056100  0.24943200  1
  Pr  Pr0  1  0.50000000  0.00000000  0.00000000  1
  Pr  Pr1  1  0.00000000  0.50000000  0.50000000  1
  Ir  Ir0  1  0.50000000  0.00000000  0.50000000  1
  Ir  Ir1  1  0.00000000  0.50000000  0.00000000  1
  O  O0  1  0.00427300  0.45796000  0.77082500  1
  O  O1  1  0.50427300  0.04204000  0.72917500  1
  O  O2  1  0.99572700  0.54204000  0.22917500  1
  O  O3  1  0.49572700  0.95796000  0.27082500  1
  O  O4  1  0.21142800  0.74842300  0.97875000  1
  O  O5  1  0.71142800  0.75157700  0.52125000  1
  O  O6  1  0.74875800  0.21071900  0.47739200  1
  O  O7  1  0.24875800  0.28928100  0.02260800  1
  O  O8  1  0.78857200  0.25157700  0.02125000  1
  O  O9  1  0.28857200  0.24842300  0.47875000  1
  O  O10  1  0.25124200  0.78928100  0.52260800  1
  O  O11  1  0.75124200  0.71071900  0.97739200  1
loop_
_geom_bond_atom_site_label_1
_geom_bond_atom_site_label_2
_geom_bond_distance
_geom_bond_site_symmetry_2
Ba0 O1 2.806818 1_555
Ba0 O11 2.842380 1_555
Ba0 O5 2.842396 1_555
Ba0 O0 2.961415 1_555
Ba0 O10 3.001064 1_555
Ba0 O4 3.003109 1_555
Ba0 O9 3.045043 1_555
Ba0 O7 3.053898 1_556
Ba0 O0 3.163599 1_655
Ba0 O1 3.312568 1_565
Ba0 O6 3.339049 1_555
Ba0 O8 3.341319 1_556
Ba1 O0 2.806818 1_665
Ba1 O10 2.842380 1_655
Ba1 O4 2.842396 1_655
Ba1 O1 2.961415 1_565
Ba1 O11 3.001064 1_555
Ba1 O5 3.003109 1_555
Ba1 O8 3.045043 1_566
Ba1 O6 3.053898 1_565
Ba1 O1 3.163599 1_665
Ba1 O0 3.312568 1_655
Ba1 O7 3.339049 1_666
Ba1 O9 3.341319 1_665
Ba2 O3 2.806818 1_555
Ba2 O7 2.842380 1_555
Ba2 O9 2.842396 1_555
Ba2 O2 2.961415 1_555
Ba2 O6 3.001064 1_555
Ba2 O8 3.003109 1_555
Ba2 O5 3.045043 1_555
Ba2 O11 3.053898 1_554
Ba2 O2 3.163599 1_455
Ba2 O3 3.312568 1_545
Ba2 O10 3.339049 1_555
Ba2 O4 3.341319 1_554
Ba3 O2 2.806818 1_445
Ba3 O6 2.842380 1_455
Ba3 O8 2.842396 1_455
Ba3 O3 2.961415 1_545
Ba3 O7 3.001064 1_555
Ba3 O9 3.003109 1_555
Ba3 O4 3.045043 1_544
Ba3 O10 3.053898 1_545
Ba3 O3 3.163599 1_445
Ba3 O2 3.312568 1_455
Ba3 O11 3.339049 1_444
Ba3 O5 3.341319 1_445
Ir0 O1 1.991102 1_555
Ir0 O3 1.991102 1_545
Ir0 O6 1.997534 1_555
Ir0 O10 1.997534 1_545
Ir0 O9 1.998427 1_555
Ir0 O5 1.998427 1_545
Ir1 O2 1.991102 1_455
Ir1 O0 1.991102 1_554
Ir1 O7 1.997534 1_555
Ir1 O11 1.997534 1_454
Ir1 O4 1.998427 1_554
Ir1 O8 1.998427 1_455
O0 Pr1 2.347866 1_555
O1 Pr0 2.347866 1_556
O2 Pr1 2.347866 1_655
O3 Pr0 2.347866 1_565
O4 Pr0 2.341540 1_566
O5 Pr1 2.341540 1_655
O6 Pr1 2.345126 1_655
O7 Pr0 2.345126 1_555
O8 Pr0 2.341540 1_555
O9 Pr1 2.341540 1_555
O10 Pr1 2.345126 1_555
O11 Pr0 2.345126 1_566
