# generated using pymatgen
data_CaHf4(PbO3)4
_symmetry_space_group_name_H-M   'P 1'
_cell_length_a   6.10255965
_cell_length_b   8.39492722
_cell_length_c   6.06017897
_cell_angle_alpha   87.26080093
_cell_angle_beta   89.30205870
_cell_angle_gamma   89.46367203
_symmetry_Int_Tables_number   1
_chemical_formula_structural   CaHf4(PbO3)4
_chemical_formula_sum   'Ca1 Hf4 Pb4 O12'
_cell_volume   310.07654666
_cell_formula_units_Z   1
loop_
 _symmetry_equiv_pos_site_id
 _symmetry_equiv_pos_as_xyz
  1  'x, y, z'
loop_
 _atom_site_type_symbol
 _atom_site_label
 _atom_site_symmetry_multiplicity
 _atom_site_fract_x
 _atom_site_fract_y
 _atom_site_fract_z
 _atom_site_occupancy
  Ca  Ca0  1  0.51609700  0.92844600  0.59055300  1
  Hf  Hf0  1  0.00791600  0.00601100  0.51195500  1
  Hf  Hf1  1  0.00210700  0.51097000  0.47523600  1
  Hf  Hf2  1  0.50251400  0.00885800  0.05560300  1
  Hf  Hf3  1  0.49369900  0.50400100  0.97048200  1
  Pb  Pb0  1  0.99883800  0.24694400  0.93090400  1
  Pb  Pb1  1  0.49667100  0.62153700  0.43721100  1
  Pb  Pb2  1  0.47812700  0.27771000  0.47181200  1
  Pb  Pb3  1  0.97568600  0.74454100  0.97627100  1
  O  O0  1  0.99168100  0.75782000  0.55070900  1
  O  O1  1  0.21401500  0.55441400  0.19778700  1
  O  O2  1  0.27014700  0.98449000  0.29771800  1
  O  O3  1  0.24600700  0.49607700  0.74927200  1
  O  O4  1  0.24368300  0.02048300  0.80103100  1
  O  O5  1  0.49177100  0.26091100  0.05272500  1
  O  O6  1  0.53231700  0.76577400  0.96426500  1
  O  O7  1  0.78360800  0.52444300  0.21434600  1
  O  O8  1  0.75527200  0.00006900  0.28885700  1
  O  O9  1  0.77648300  0.03538400  0.78965700  1
  O  O10  1  0.74861900  0.48084000  0.73469700  1
  O  O11  1  0.03724000  0.26246200  0.50141000  1
loop_
_geom_bond_atom_site_label_1
_geom_bond_atom_site_label_2
_geom_bond_distance
_geom_bond_site_symmetry_2
Ca0 O9 2.227951 1_565
Ca0 O4 2.237433 1_565
Ca0 O2 2.365443 1_555
Ca0 O8 2.383493 1_565
Ca0 O6 2.590595 1_555
Ca0 Pb1 2.784439 1_555
Hf0 O2 2.060473 1_545
Hf0 O8 2.065471 1_455
Hf0 O0 2.088699 1_445
Hf0 O11 2.159819 1_555
Hf0 O9 2.205212 1_455
Hf0 O4 2.288856 1_555
Hf1 O7 2.078915 1_455
Hf1 O11 2.093851 1_555
Hf1 O1 2.128298 1_555
Hf1 O0 2.143604 1_455
Hf1 O10 2.199861 1_455
Hf1 O3 2.241840 1_555
Hf2 O2 2.032627 1_545
Hf2 O8 2.103291 1_555
Hf2 O5 2.115613 1_555
Hf2 O6 2.145315 1_544
Hf2 O4 2.219599 1_554
Hf2 O9 2.312880 1_554
Hf3 O3 2.036205 1_555
Hf3 O5 2.077544 1_556
Hf3 O10 2.113383 1_555
Hf3 O6 2.210841 1_555
Hf3 O1 2.230401 1_556
Hf3 O7 2.331772 1_556
O0 Pb3 2.576760 1_555
O1 Pb1 2.357004 1_555
O1 Pb3 2.502857 1_454
O3 Pb1 2.606719 1_555
O3 Pb0 2.767581 1_455
O4 Pb0 2.554895 1_455
O5 Pb2 2.550681 1_555
O6 Pb3 2.711518 1_555
O7 Pb1 2.361265 1_555
O7 Pb3 2.571799 1_554
O9 Pb0 2.438643 1_555
O10 Pb1 2.615195 1_555
O10 Pb0 2.714025 1_555
O11 Pb0 2.607646 1_455
O11 Pb2 2.698158 1_555
