# generated using pymatgen
data_Cr3N2
_symmetry_space_group_name_H-M   'P 1'
_cell_length_a   6.86658669
_cell_length_b   6.86658669
_cell_length_c   7.57004239
_cell_angle_alpha   78.16888325
_cell_angle_beta   78.16888325
_cell_angle_gamma   22.90647457
_symmetry_Int_Tables_number   1
_chemical_formula_structural   Cr3N2
_chemical_formula_sum   'Cr9 N6'
_cell_volume   135.85239142
_cell_formula_units_Z   3
loop_
 _symmetry_equiv_pos_site_id
 _symmetry_equiv_pos_as_xyz
  1  'x, y, z'
loop_
 _atom_site_type_symbol
 _atom_site_label
 _atom_site_symmetry_multiplicity
 _atom_site_fract_x
 _atom_site_fract_y
 _atom_site_fract_z
 _atom_site_occupancy
  Cr  Cr0  1  0.87263800  0.87263800  0.26298100  1
  Cr  Cr1  1  0.12736200  0.12736200  0.73701900  1
  Cr  Cr2  1  0.16837500  0.16837500  0.04992000  1
  Cr  Cr3  1  0.83162500  0.83162500  0.95008000  1
  Cr  Cr4  1  0.19860500  0.19860500  0.39064000  1
  Cr  Cr5  1  0.80139500  0.80139500  0.60936000  1
  Cr  Cr6  1  0.54292200  0.54292200  0.34101300  1
  Cr  Cr7  1  0.45707800  0.45707800  0.65898700  1
  Cr  Cr8  1  0.50000000  0.50000000  0.00000000  1
  N  N0  1  0.38526000  0.38526000  0.46297700  1
  N  N1  1  0.61474000  0.61474000  0.53702300  1
  N  N2  1  0.29064100  0.29064100  0.15188000  1
  N  N3  1  0.70935900  0.70935900  0.84812000  1
  N  N4  1  0.02503700  0.02503700  0.17260700  1
  N  N5  1  0.97496300  0.97496300  0.82739300  1
loop_
_geom_bond_atom_site_label_1
_geom_bond_atom_site_label_2
_geom_bond_distance
_geom_bond_site_symmetry_2
Cr0 N4 2.022008 1_665
Cr0 N2 2.042755 1_565
Cr0 N2 2.042755 1_655
Cr0 N0 2.070675 1_655
Cr0 N0 2.070675 1_565
Cr1 N5 2.022008 1_445
Cr1 N3 2.042755 1_545
Cr1 N3 2.042755 1_455
Cr1 N1 2.070675 1_455
Cr1 N1 2.070675 1_545
Cr2 N4 1.958327 1_555
Cr2 N2 1.958413 1_555
Cr2 N3 2.035801 1_544
Cr2 N3 2.035801 1_454
Cr3 N5 1.958327 1_555
Cr3 N3 1.958413 1_555
Cr3 N2 2.035801 1_566
Cr3 N2 2.035801 1_656
Cr4 N1 1.959051 1_455
Cr4 N1 1.959051 1_545
Cr4 N2 1.965854 1_555
Cr5 N0 1.959051 1_565
Cr5 N0 1.959051 1_655
Cr5 N3 1.965854 1_555
Cr6 N4 1.915896 1_655
Cr6 N4 1.915896 1_565
Cr6 N1 1.932921 1_555
Cr6 N0 2.129776 1_555
Cr7 N5 1.915896 1_455
Cr7 N5 1.915896 1_545
Cr7 N0 1.932921 1_555
Cr7 N1 2.129776 1_555
Cr8 N4 1.965756 1_565
Cr8 N4 1.965756 1_655
Cr8 N5 1.965756 1_544
Cr8 N5 1.965756 1_454
