# generated using pymatgen
data_Hg(ClO7)2
_symmetry_space_group_name_H-M   'P 1'
_cell_length_a   5.08935200
_cell_length_b   7.56767183
_cell_length_c   7.56767183
_cell_angle_alpha   119.99999849
_cell_angle_beta   90.00000000
_cell_angle_gamma   90.00000000
_symmetry_Int_Tables_number   1
_chemical_formula_structural   Hg(ClO7)2
_chemical_formula_sum   'Hg1 Cl2 O14'
_cell_volume   252.41648164
_cell_formula_units_Z   1
loop_
 _symmetry_equiv_pos_site_id
 _symmetry_equiv_pos_as_xyz
  1  'x, y, z'
loop_
 _atom_site_type_symbol
 _atom_site_label
 _atom_site_symmetry_multiplicity
 _atom_site_fract_x
 _atom_site_fract_y
 _atom_site_fract_z
 _atom_site_occupancy
  Hg  Hg0  1  0.00000000  0.00000000  0.00000000  1
  Cl  Cl0  1  0.18229500  0.66666700  0.33333300  1
  Cl  Cl1  1  0.81770500  0.33333300  0.66666700  1
  O  O0  1  0.72517200  0.43880000  0.87760000  1
  O  O1  1  0.27482800  0.56120000  0.12240000  1
  O  O2  1  0.72517200  0.43880000  0.56120000  1
  O  O3  1  0.27482800  0.56120000  0.43880000  1
  O  O4  1  0.72517200  0.12240000  0.56120000  1
  O  O5  1  0.27482800  0.87760000  0.43880000  1
  O  O6  1  0.65057800  0.88783700  0.77567500  1
  O  O7  1  0.34942200  0.11216300  0.22432500  1
  O  O8  1  0.65057800  0.88783700  0.11216300  1
  O  O9  1  0.34942200  0.11216300  0.88783700  1
  O  O10  1  0.65057800  0.22432500  0.11216300  1
  O  O11  1  0.34942200  0.77567500  0.88783700  1
  O  O12  1  0.89390100  0.66666700  0.33333300  1
  O  O13  1  0.10609900  0.33333300  0.66666700  1
loop_
_geom_bond_atom_site_label_1
_geom_bond_atom_site_label_2
_geom_bond_distance
_geom_bond_site_symmetry_2
Hg0 O10 2.307356 1_455
Hg0 O11 2.307356 1_544
Hg0 O6 2.307356 1_444
Hg0 O7 2.307356 1_555
Hg0 O8 2.307360 1_445
Hg0 O9 2.307360 1_554
Cl0 O1 1.460425 1_555
Cl0 O5 1.460425 1_555
Cl0 O3 1.460431 1_555
Cl0 O12 1.467739 1_455
Cl1 O4 1.460425 1_555
Cl1 O0 1.460425 1_555
Cl1 O2 1.460431 1_555
Cl1 O13 1.467739 1_655
