# generated using pymatgen
data_Cu27CO
_symmetry_space_group_name_H-M   'P 1'
_cell_length_a   7.54242555
_cell_length_b   7.54242555
_cell_length_c   14.03961000
_cell_angle_alpha   90.00000000
_cell_angle_beta   90.00000000
_cell_angle_gamma   119.99999603
_symmetry_Int_Tables_number   1
_chemical_formula_structural   Cu27CO
_chemical_formula_sum   'Cu27 C1 O1'
_cell_volume   691.68404303
_cell_formula_units_Z   1
loop_
 _symmetry_equiv_pos_site_id
 _symmetry_equiv_pos_as_xyz
  1  'x, y, z'
loop_
 _atom_site_type_symbol
 _atom_site_label
 _atom_site_symmetry_multiplicity
 _atom_site_fract_x
 _atom_site_fract_y
 _atom_site_fract_z
 _atom_site_occupancy
  Cu  Cu0  1  0.77750600  0.88875300  0.14791000  1
  Cu  Cu1  1  0.00000000  0.00000000  0.00000000  1
  Cu  Cu2  1  0.88882300  0.11117700  0.29582000  1
  Cu  Cu3  1  0.11124700  0.88875300  0.14791000  1
  Cu  Cu4  1  0.33306600  0.99986100  0.00000000  1
  Cu  Cu5  1  0.22235500  0.11117700  0.29582000  1
  Cu  Cu6  1  0.44437500  0.88875100  0.14791000  1
  Cu  Cu7  1  0.66679500  0.99986100  0.00000000  1
  Cu  Cu8  1  0.55548500  0.11097100  0.29582000  1
  Cu  Cu9  1  0.77771300  0.22228700  0.14791000  1
  Cu  Cu10  1  0.00013900  0.33320500  0.00000000  1
  Cu  Cu11  1  0.88902900  0.44451500  0.29582000  1
  Cu  Cu12  1  0.11124700  0.22249400  0.14791000  1
  Cu  Cu13  1  0.33306600  0.33320500  0.00000000  1
  Cu  Cu14  1  0.22215500  0.44431100  0.29582000  1
  Cu  Cu15  1  0.44457500  0.22228700  0.14791000  1
  Cu  Cu16  1  0.66666700  0.33333300  0.00000000  1
  Cu  Cu17  1  0.55548500  0.44451500  0.29582000  1
  Cu  Cu18  1  0.77771300  0.55542500  0.14791000  1
  Cu  Cu19  1  0.00013900  0.66693400  0.00000000  1
  Cu  Cu20  1  0.88882300  0.77764500  0.29582000  1
  Cu  Cu21  1  0.11124900  0.55562500  0.14791000  1
  Cu  Cu22  1  0.33333300  0.66666700  0.00000000  1
  Cu  Cu23  1  0.22215500  0.77784500  0.29582000  1
  Cu  Cu24  1  0.44437500  0.55562500  0.14791000  1
  Cu  Cu25  1  0.66679500  0.66693400  0.00000000  1
  Cu  Cu26  1  0.55568900  0.77784500  0.29582000  1
  C  C0  1  0.00000000  0.00000000  0.39890600  1
  O  O0  1  0.00000000  0.00000000  0.48327600  1
loop_
_geom_bond_atom_site_label_1
_geom_bond_atom_site_label_2
_geom_bond_distance
_geom_bond_site_symmetry_2
Cu0 Cu24 2.512605 1_555
Cu0 Cu6 2.512608 1_555
Cu0 Cu9 2.514875 1_565
Cu0 Cu18 2.514883 1_555
Cu0 Cu3 2.517217 1_655
Cu0 Cu12 2.517217 1_665
Cu0 Cu26 2.532105 1_555
Cu0 Cu7 2.532113 1_555
Cu0 Cu25 2.532113 1_555
Cu0 Cu2 2.534376 1_565
Cu0 Cu20 2.534380 1_555
Cu0 Cu1 2.534638 1_665
Cu1 Cu4 2.512650 1_545
Cu1 Cu19 2.512650 1_545
Cu1 Cu10 2.512650 1_555
Cu1 Cu7 2.512650 1_445
Cu1 Cu13 2.512650 1_555
Cu1 Cu25 2.512650 1_445
Cu1 Cu3 2.534638 1_545
Cu1 Cu12 2.534638 1_555
Cu2 Cu26 2.513386 1_545
Cu2 Cu8 2.513401 1_555
Cu2 Cu9 2.533612 1_555
Cu3 Cu6 2.512601 1_555
Cu3 Cu4 2.532113 1_555
Cu3 Cu5 2.534376 1_565
Cu4 Cu7 2.517126 1_555
Cu4 Cu6 2.534357 1_555
Cu5 Cu8 2.513385 1_555
Cu6 Cu9 2.514924 1_565
Cu6 Cu8 2.533612 1_565
Cu6 Cu7 2.534361 1_555
Cu7 Cu9 2.534384 1_565
Cu8 Cu9 2.533642 1_555
Cu10 Cu13 2.511077 1_555
Cu10 Cu22 2.514102 1_555
Cu10 Cu7 2.514222 1_445
Cu10 Cu16 2.515671 1_455
Cu10 Cu19 2.517126 1_555
Cu10 Cu12 2.532113 1_555
Cu10 Cu21 2.534361 1_555
Cu10 Cu9 2.534384 1_455
Cu11 Cu14 2.513348 1_655
Cu11 Cu23 2.513348 1_655
Cu11 Cu20 2.513385 1_555
Cu11 Cu2 2.513401 1_555
Cu11 Cu17 2.515731 1_555
Cu11 Cu8 2.515731 1_555
Cu11 Cu21 2.533612 1_655
Cu11 Cu18 2.533635 1_555
Cu11 Cu9 2.533642 1_555
Cu12 Cu24 2.512605 1_555
Cu12 Cu21 2.512608 1_555
Cu12 Cu9 2.514875 1_455
Cu12 Cu15 2.514883 1_555
Cu12 Cu3 2.517217 1_545
Cu12 Cu14 2.532105 1_555
Cu12 Cu13 2.532113 1_555
Cu12 Cu2 2.534376 1_455
Cu12 Cu5 2.534380 1_555
Cu13 Cu22 2.514106 1_555
Cu13 Cu4 2.514222 1_545
Cu13 Cu16 2.515678 1_555
Cu13 Cu25 2.517126 1_555
Cu13 Cu24 2.534361 1_555
Cu13 Cu15 2.534388 1_555
Cu14 Cu17 2.513348 1_555
Cu14 Cu2 2.513386 1_455
Cu14 Cu5 2.513393 1_555
Cu14 Cu23 2.515655 1_555
Cu14 Cu26 2.515656 1_555
Cu14 Cu21 2.533612 1_555
Cu14 Cu24 2.533613 1_555
Cu15 Cu9 2.512669 1_555
Cu15 Cu18 2.512669 1_555
Cu15 Cu3 2.514879 1_545
Cu15 Cu6 2.514917 1_545
Cu15 Cu24 2.514932 1_555
Cu15 Cu16 2.533133 1_555
Cu15 Cu5 2.533612 1_555
Cu15 Cu8 2.533635 1_555
Cu15 Cu17 2.533642 1_555
Cu15 Cu4 2.534384 1_545
Cu16 Cu7 2.515671 1_545
Cu16 Cu19 2.515675 1_655
Cu16 Cu4 2.515675 1_545
Cu16 Cu25 2.515678 1_555
Cu16 Cu9 2.533133 1_555
Cu16 Cu18 2.533133 1_555
Cu17 Cu26 2.513348 1_555
Cu17 Cu20 2.513393 1_555
Cu17 Cu5 2.513393 1_555
Cu17 Cu8 2.515731 1_555
Cu17 Cu24 2.533612 1_555
Cu17 Cu18 2.533642 1_555
Cu18 Cu9 2.512669 1_555
Cu18 Cu3 2.514879 1_655
Cu18 Cu21 2.514917 1_655
Cu18 Cu24 2.514932 1_555
Cu18 Cu20 2.533612 1_555
Cu18 Cu19 2.534384 1_655
Cu18 Cu25 2.534388 1_555
Cu19 Cu4 2.511077 1_555
Cu19 Cu22 2.514098 1_555
Cu19 Cu25 2.514222 1_455
Cu19 Cu3 2.532113 1_555
Cu19 Cu21 2.534357 1_555
Cu20 Cu23 2.513378 1_655
Cu20 Cu26 2.513393 1_555
Cu20 Cu3 2.534376 1_655
Cu21 Cu24 2.512578 1_555
Cu21 Cu6 2.512578 1_555
Cu21 Cu3 2.512601 1_555
Cu21 Cu9 2.514924 1_455
Cu21 Cu22 2.533103 1_555
Cu21 Cu23 2.533613 1_555
Cu22 Cu4 2.514098 1_555
Cu22 Cu7 2.514102 1_555
Cu22 Cu25 2.514106 1_555
Cu22 Cu24 2.533103 1_555
Cu22 Cu6 2.533103 1_555
Cu23 Cu8 2.513348 1_565
Cu23 Cu5 2.513378 1_565
Cu23 Cu26 2.515655 1_555
Cu23 Cu3 2.532101 1_555
Cu23 Cu6 2.533613 1_555
Cu24 Cu6 2.512578 1_555
Cu24 Cu26 2.533613 1_555
Cu24 Cu25 2.534361 1_555
Cu25 Cu7 2.511077 1_555
Cu26 Cu8 2.513348 1_565
Cu26 Cu6 2.533612 1_555
C0 O0 1.184522 1_555
C0 Cu2 2.050393 1_455
C0 Cu5 2.050397 1_555
C0 Cu20 2.050397 1_445
