# generated using pymatgen
data_LiFeOF
_symmetry_space_group_name_H-M   'P 1'
_cell_length_a   3.02313003
_cell_length_b   4.43537908
_cell_length_c   12.02754202
_cell_angle_alpha   90.02537430
_cell_angle_beta   87.70418607
_cell_angle_gamma   89.99672831
_symmetry_Int_Tables_number   1
_chemical_formula_structural   LiFeOF
_chemical_formula_sum   'Li4 Fe4 O4 F4'
_cell_volume   161.14456880
_cell_formula_units_Z   4
loop_
 _symmetry_equiv_pos_site_id
 _symmetry_equiv_pos_as_xyz
  1  'x, y, z'
loop_
 _atom_site_type_symbol
 _atom_site_label
 _atom_site_symmetry_multiplicity
 _atom_site_fract_x
 _atom_site_fract_y
 _atom_site_fract_z
 _atom_site_occupancy
  Li  Li0  1  0.49975400  0.74827300  0.00377500  1
  Li  Li1  1  0.49870600  0.74855200  0.75831400  1
  Li  Li2  1  0.49974000  0.74912700  0.50379500  1
  Li  Li3  1  0.50139600  0.74855000  0.24927300  1
  Fe  Fe0  1  0.01065700  0.24630700  0.12923000  1
  Fe  Fe1  1  0.98932300  0.24631400  0.87832800  1
  Fe  Fe2  1  0.98930100  0.24657500  0.62929100  1
  Fe  Fe3  1  0.01036600  0.24652500  0.37831100  1
  O  O0  1  0.49998300  0.24431600  0.00378800  1
  O  O1  1  0.47404500  0.24552200  0.75492200  1
  O  O2  1  0.49991000  0.24172900  0.50379000  1
  O  O3  1  0.52588900  0.24564400  0.25266600  1
  F  F0  1  0.99327800  0.74577200  0.87825800  1
  F  F1  1  0.99260100  0.74491100  0.62876900  1
  F  F2  1  0.00721600  0.74501800  0.37890500  1
  F  F3  1  0.00653800  0.74571000  0.12936200  1
loop_
_geom_bond_atom_site_label_1
_geom_bond_atom_site_label_2
_geom_bond_distance
_geom_bond_site_symmetry_2
Li0 O0 2.200139 1_565
Li0 O0 2.235240 1_555
Li1 O1 2.205957 1_565
Li1 O1 2.232788 1_555
Li2 O2 2.184877 1_565
Li2 O2 2.250502 1_555
Li3 O3 2.206462 1_565
Li3 O3 2.232249 1_555
Fe0 O3 2.043910 1_455
Fe0 O0 2.070247 1_555
Fe0 O3 2.194441 1_555
Fe0 O0 2.201468 1_455
Fe1 O1 2.043561 1_655
Fe1 O0 2.070434 1_556
Fe1 O1 2.194289 1_555
Fe1 O0 2.201596 1_656
Fe2 O2 2.115434 1_655
Fe2 O1 2.126278 1_555
Fe2 O1 2.146667 1_655
Fe2 O2 2.155633 1_555
Fe3 O2 2.114942 1_455
Fe3 O3 2.126957 1_555
Fe3 O3 2.146213 1_455
Fe3 O2 2.155780 1_555
F0 Li1 2.058994 1_655
F0 Li0 2.079604 1_556
F0 Li1 2.118880 1_555
F0 Li0 2.192892 1_656
F0 Fe1 2.215319 1_555
F0 Fe1 2.220125 1_565
F1 Li2 2.103731 1_655
F1 Li1 2.114456 1_555
F1 Li2 2.158531 1_555
F1 Fe2 2.210343 1_555
F1 Fe2 2.225097 1_565
F1 Li1 2.227084 1_655
F2 Li2 2.103735 1_455
F2 Li3 2.115788 1_555
F2 Li2 2.157054 1_555
F2 Fe3 2.211033 1_555
F2 Fe3 2.224408 1_565
F2 Li3 2.227234 1_455
F3 Li3 2.058104 1_455
F3 Li0 2.079560 1_555
F3 Li3 2.119227 1_555
F3 Li0 2.194179 1_455
F3 Fe0 2.215075 1_555
F3 Fe0 2.220374 1_565
