# generated using pymatgen
data_Ca11(IrN5)2
_symmetry_space_group_name_H-M   'P 1'
_cell_length_a   14.93075400
_cell_length_b   14.93075400
_cell_length_c   3.71966900
_cell_angle_alpha   90.00000000
_cell_angle_beta   90.00000000
_cell_angle_gamma   90.00000000
_symmetry_Int_Tables_number   1
_chemical_formula_structural   Ca11(IrN5)2
_chemical_formula_sum   'Ca22 Ir4 N20'
_cell_volume   829.21619486
_cell_formula_units_Z   2
loop_
 _symmetry_equiv_pos_site_id
 _symmetry_equiv_pos_as_xyz
  1  'x, y, z'
loop_
 _atom_site_type_symbol
 _atom_site_label
 _atom_site_symmetry_multiplicity
 _atom_site_fract_x
 _atom_site_fract_y
 _atom_site_fract_z
 _atom_site_occupancy
  Ca  Ca0  1  0.50000000  0.50000000  0.50000000  1
  Ca  Ca1  1  0.00000000  0.00000000  0.00000000  1
  Ca  Ca2  1  0.97490300  0.78486700  0.50000000  1
  Ca  Ca3  1  0.02509700  0.21513300  0.50000000  1
  Ca  Ca4  1  0.52509700  0.28486700  0.00000000  1
  Ca  Ca5  1  0.47490300  0.71513300  0.00000000  1
  Ca  Ca6  1  0.78486700  0.97490300  0.50000000  1
  Ca  Ca7  1  0.21513300  0.02509700  0.50000000  1
  Ca  Ca8  1  0.28486700  0.52509700  0.00000000  1
  Ca  Ca9  1  0.71513300  0.47490300  0.00000000  1
  Ca  Ca10  1  0.69970000  0.69970000  0.50000000  1
  Ca  Ca11  1  0.30030000  0.30030000  0.50000000  1
  Ca  Ca12  1  0.80030000  0.19970000  0.00000000  1
  Ca  Ca13  1  0.19970000  0.80030000  0.00000000  1
  Ca  Ca14  1  0.38782000  0.89203700  0.50000000  1
  Ca  Ca15  1  0.61218000  0.10796300  0.50000000  1
  Ca  Ca16  1  0.11218000  0.39203700  0.00000000  1
  Ca  Ca17  1  0.88782000  0.60796300  0.00000000  1
  Ca  Ca18  1  0.89203700  0.38782000  0.50000000  1
  Ca  Ca19  1  0.10796300  0.61218000  0.50000000  1
  Ca  Ca20  1  0.39203700  0.11218000  0.00000000  1
  Ca  Ca21  1  0.60796300  0.88782000  0.00000000  1
  Ir  Ir0  1  0.30439400  0.69560600  0.50000000  1
  Ir  Ir1  1  0.69560600  0.30439400  0.50000000  1
  Ir  Ir2  1  0.19560600  0.19560600  0.00000000  1
  Ir  Ir3  1  0.80439400  0.80439400  0.00000000  1
  N  N0  1  0.13305800  0.86694200  0.50000000  1
  N  N1  1  0.86694200  0.13305800  0.50000000  1
  N  N2  1  0.36694200  0.36694200  0.00000000  1
  N  N3  1  0.63305800  0.63305800  0.00000000  1
  N  N4  1  0.46616900  0.18609500  0.50000000  1
  N  N5  1  0.53383100  0.81390500  0.50000000  1
  N  N6  1  0.03383100  0.68609500  0.00000000  1
  N  N7  1  0.96616900  0.31390500  0.00000000  1
  N  N8  1  0.18609500  0.46616900  0.50000000  1
  N  N9  1  0.81390500  0.53383100  0.50000000  1
  N  N10  1  0.68609500  0.03383100  0.00000000  1
  N  N11  1  0.31390500  0.96616900  0.00000000  1
  N  N12  1  0.07380400  0.92619600  0.50000000  1
  N  N13  1  0.92619600  0.07380400  0.50000000  1
  N  N14  1  0.42619600  0.42619600  0.00000000  1
  N  N15  1  0.57380400  0.57380400  0.00000000  1
  N  N16  1  0.60951700  0.39048300  0.50000000  1
  N  N17  1  0.39048300  0.60951700  0.50000000  1
  N  N18  1  0.89048300  0.89048300  0.00000000  1
  N  N19  1  0.10951700  0.10951700  0.00000000  1
loop_
_geom_bond_atom_site_label_1
_geom_bond_atom_site_label_2
_geom_bond_distance
_geom_bond_site_symmetry_2
Ca0 N16 2.312482 1_555
Ca0 N17 2.312482 1_555
Ca0 N15 2.426431 1_556
Ca0 N14 2.426431 1_555
Ca0 N15 2.426431 1_555
Ca0 N14 2.426431 1_556
Ca1 N18 2.312482 1_445
Ca1 N19 2.312482 1_555
Ca1 N13 2.426431 1_454
Ca1 N13 2.426431 1_455
Ca1 N12 2.426431 1_544
Ca1 N12 2.426431 1_545
Ca2 N6 2.531395 1_655
Ca2 N6 2.531395 1_656
Ca2 N12 2.575514 1_655
Ca2 N0 2.660412 1_655
Ca2 N18 2.744891 1_556
Ca2 N18 2.744891 1_555
Ca3 N7 2.531395 1_455
Ca3 N7 2.531395 1_456
Ca3 N13 2.575514 1_455
Ca3 N1 2.660412 1_455
Ca3 N19 2.744891 1_555
Ca3 N19 2.744891 1_556
Ca4 N4 2.531395 1_554
Ca4 N4 2.531395 1_555
Ca4 N14 2.575514 1_555
Ca4 N2 2.660412 1_555
Ca4 N16 2.744891 1_554
Ca4 N16 2.744891 1_555
Ca5 N5 2.531395 1_555
Ca5 N5 2.531395 1_554
Ca5 N15 2.575514 1_555
Ca5 N3 2.660412 1_555
Ca5 N17 2.744891 1_554
Ca5 N17 2.744891 1_555
Ca6 N10 2.531395 1_566
Ca6 N10 2.531395 1_565
Ca6 N13 2.575514 1_565
Ca6 N1 2.660412 1_565
Ca6 N18 2.744891 1_556
Ca6 N18 2.744891 1_555
Ca7 N11 2.531395 1_546
Ca7 N11 2.531395 1_545
Ca7 N12 2.575514 1_545
Ca7 N0 2.660412 1_545
Ca7 N19 2.744891 1_555
Ca7 N19 2.744891 1_556
Ca8 N8 2.531395 1_554
Ca8 N8 2.531395 1_555
Ca8 N14 2.575514 1_555
Ca8 N2 2.660412 1_555
Ca8 N17 2.744891 1_555
Ca8 N17 2.744891 1_554
Ca9 N9 2.531395 1_555
Ca9 N9 2.531395 1_554
Ca9 N15 2.575514 1_555
Ca9 N3 2.660412 1_555
Ca9 N16 2.744891 1_555
Ca9 N16 2.744891 1_554
Ca10 N3 2.332187 1_556
Ca10 N3 2.332187 1_555
Ca10 Ir3 2.888931 1_556
Ca10 Ir3 2.888931 1_555
Ca10 N5 3.006807 1_555
Ca10 N9 3.006807 1_555
Ca11 N2 2.332187 1_556
Ca11 N2 2.332187 1_555
Ca11 Ir2 2.888931 1_556
Ca11 Ir2 2.888931 1_555
Ca11 N4 3.006807 1_555
Ca11 N8 3.006807 1_555
Ca12 N1 2.332187 1_555
Ca12 N1 2.332187 1_554
Ca12 Ir1 2.888931 1_554
Ca12 Ir1 2.888931 1_555
Ca12 N7 3.006807 1_555
Ca12 N10 3.006807 1_555
Ca13 N0 2.332187 1_555
Ca13 N0 2.332187 1_554
Ca13 Ir0 2.888931 1_554
Ca13 Ir0 2.888931 1_555
Ca13 N11 3.006807 1_555
Ca13 N6 3.006807 1_555
Ca14 N11 2.429412 1_556
Ca14 N11 2.429412 1_555
Ca14 N5 2.472554 1_555
Ca15 N10 2.429412 1_555
Ca15 N10 2.429412 1_556
Ca15 N4 2.472554 1_555
Ca16 N8 2.429412 1_554
Ca16 N8 2.429412 1_555
Ca16 N7 2.472554 1_455
Ca17 N9 2.429412 1_555
Ca17 N9 2.429412 1_554
Ca17 N6 2.472554 1_655
Ca18 N7 2.429412 1_555
Ca18 N7 2.429412 1_556
Ca18 N9 2.472554 1_555
Ca19 N6 2.429412 1_556
Ca19 N6 2.429412 1_555
Ca19 N8 2.472554 1_555
Ca20 N4 2.429412 1_555
Ca20 N4 2.429412 1_554
Ca20 N11 2.472554 1_545
Ca21 N5 2.429412 1_554
Ca21 N5 2.429412 1_555
Ca21 N10 2.472554 1_565
Ir0 N17 1.817793 1_555
Ir1 N16 1.817793 1_555
Ir2 N19 1.817793 1_555
Ir3 N18 1.817793 1_555
N0 N12 1.251164 1_555
N1 N13 1.251164 1_555
N14 N2 1.251164 1_555
N15 N3 1.251164 1_555
