# generated using pymatgen
data_TiAlO3
_symmetry_space_group_name_H-M   'P 1'
_cell_length_a   5.48850049
_cell_length_b   5.48850049
_cell_length_c   12.03981600
_cell_angle_alpha   90.00000000
_cell_angle_beta   90.00000000
_cell_angle_gamma   120.00000596
_symmetry_Int_Tables_number   1
_chemical_formula_structural   TiAlO3
_chemical_formula_sum   'Ti6 Al6 O18'
_cell_volume   314.09272022
_cell_formula_units_Z   6
loop_
 _symmetry_equiv_pos_site_id
 _symmetry_equiv_pos_as_xyz
  1  'x, y, z'
loop_
 _atom_site_type_symbol
 _atom_site_label
 _atom_site_symmetry_multiplicity
 _atom_site_fract_x
 _atom_site_fract_y
 _atom_site_fract_z
 _atom_site_occupancy
  Ti  Ti0  1  0.66947800  0.00000000  0.50090500  1
  Ti  Ti1  1  0.66947800  0.66947800  0.00090500  1
  Ti  Ti2  1  0.00000000  0.33052200  0.00090500  1
  Ti  Ti3  1  0.00000000  0.66947800  0.50090500  1
  Ti  Ti4  1  0.33052200  0.33052200  0.50090500  1
  Ti  Ti5  1  0.33052200  0.00000000  0.00090500  1
  Al  Al0  1  0.66666700  0.33333300  0.25193500  1
  Al  Al1  1  0.33333300  0.66666700  0.75193500  1
  Al  Al2  1  0.66666700  0.33333300  0.75193500  1
  Al  Al3  1  0.33333300  0.66666700  0.25193500  1
  Al  Al4  1  0.00000000  0.00000000  0.75094300  1
  Al  Al5  1  0.00000000  0.00000000  0.25094300  1
  O  O0  1  0.66666700  0.33333300  0.01827900  1
  O  O1  1  0.33333300  0.66666700  0.51827900  1
  O  O2  1  0.66666700  0.33333300  0.51827900  1
  O  O3  1  0.33333300  0.66666700  0.01827900  1
  O  O4  1  0.00000000  0.00000000  0.96963600  1
  O  O5  1  0.00000000  0.00000000  0.46963600  1
  O  O6  1  0.35550500  0.00000000  0.82759400  1
  O  O7  1  0.35550500  0.35550500  0.32759400  1
  O  O8  1  0.00000000  0.64449500  0.32759400  1
  O  O9  1  0.00000000  0.35550500  0.82759400  1
  O  O10  1  0.64449500  0.64449500  0.82759400  1
  O  O11  1  0.64449500  0.00000000  0.32759400  1
  O  O12  1  0.31678500  0.00000000  0.17616500  1
  O  O13  1  0.31678500  0.31678500  0.67616500  1
  O  O14  1  0.00000000  0.68321500  0.67616500  1
  O  O15  1  0.00000000  0.31678500  0.17616500  1
  O  O16  1  0.68321500  0.68321500  0.17616500  1
  O  O17  1  0.68321500  0.00000000  0.67616500  1
loop_
_geom_bond_atom_site_label_1
_geom_bond_atom_site_label_2
_geom_bond_distance
_geom_bond_site_symmetry_2
Al0 O11 1.992239 1_555
Al0 O8 1.992241 1_655
Al0 O7 1.992244 1_555
Al0 O15 2.086549 1_655
Al0 O12 2.086552 1_555
Al0 O16 2.086554 1_555
Al1 O6 1.992239 1_565
Al1 O9 1.992241 1_555
Al1 O10 1.992244 1_555
Al1 O14 2.086549 1_555
Al1 O17 2.086552 1_565
Al1 O13 2.086554 1_555
Al2 O9 1.992239 1_655
Al2 O6 1.992241 1_555
Al2 O10 1.992244 1_555
Al2 O17 2.086549 1_555
Al2 O14 2.086552 1_655
Al2 O13 2.086554 1_555
Al3 O8 1.992239 1_555
Al3 O11 1.992241 1_565
Al3 O7 1.992244 1_555
Al3 O12 2.086549 1_565
Al3 O15 2.086552 1_555
Al3 O16 2.086554 1_555
Al4 O13 1.957946 1_555
Al4 O14 1.957946 1_545
Al4 O17 1.957946 1_455
Al4 O10 2.158429 1_445
Al4 O9 2.158429 1_555
Al4 O6 2.158429 1_555
Al5 O16 1.957946 1_445
Al5 O12 1.957946 1_555
Al5 O15 1.957946 1_555
Al5 O7 2.158429 1_555
Al5 O8 2.158429 1_545
Al5 O11 2.158429 1_455
O0 Ti2 1.849131 1_655
O0 Ti5 1.849133 1_555
O0 Ti1 1.849136 1_555
O1 Ti3 1.849131 1_555
O1 Ti0 1.849133 1_565
O1 Ti4 1.849136 1_555
O2 Ti0 1.849131 1_555
O2 Ti3 1.849133 1_655
O2 Ti4 1.849136 1_555
O3 Ti5 1.849131 1_565
O3 Ti2 1.849133 1_555
O3 Ti1 1.849136 1_555
O4 Ti1 1.852723 1_446
O4 Ti2 1.852723 1_556
O4 Ti5 1.852723 1_556
O5 Ti4 1.852723 1_555
O5 Ti0 1.852723 1_455
O5 Ti3 1.852723 1_545
O6 Ti5 2.091133 1_556
O7 Ti4 2.091133 1_555
O8 Ti3 2.091133 1_555
O9 Ti2 2.091133 1_556
O10 Ti1 2.091133 1_556
O11 Ti0 2.091133 1_555
O12 Ti5 2.111445 1_555
O13 Ti4 2.111445 1_555
O14 Ti3 2.111445 1_555
O15 Ti2 2.111445 1_555
O16 Ti1 2.111445 1_555
O17 Ti0 2.111445 1_555
