# generated using pymatgen
data_Ca8Al11Fe(Si3O13)4
_symmetry_space_group_name_H-M   'P 1'
_cell_length_a   5.65262700
_cell_length_b   10.33264400
_cell_length_c   16.30706196
_cell_angle_alpha   81.30957404
_cell_angle_beta   90.00000000
_cell_angle_gamma   90.00000000
_symmetry_Int_Tables_number   1
_chemical_formula_structural   Ca8Al11Fe(Si3O13)4
_chemical_formula_sum   'Ca8 Al11 Fe1 Si12 O52'
_cell_volume   941.50493935
_cell_formula_units_Z   1
loop_
 _symmetry_equiv_pos_site_id
 _symmetry_equiv_pos_as_xyz
  1  'x, y, z'
loop_
 _atom_site_type_symbol
 _atom_site_label
 _atom_site_symmetry_multiplicity
 _atom_site_fract_x
 _atom_site_fract_y
 _atom_site_fract_z
 _atom_site_occupancy
  Ca  Ca0  1  0.50000000  0.62325000  0.80169100  1
  Ca  Ca1  1  0.50000000  0.12277700  0.30110800  1
  Ca  Ca2  1  0.00000000  0.87660200  0.69948300  1
  Ca  Ca3  1  0.00000000  0.37744600  0.19855100  1
  Ca  Ca4  1  0.50000000  0.27185100  0.88189500  1
  Ca  Ca5  1  0.50000000  0.77303800  0.38150000  1
  Ca  Ca6  1  0.00000000  0.22563300  0.61777300  1
  Ca  Ca7  1  0.00000000  0.72738200  0.11825500  1
  Al  Al0  1  0.75009400  0.99989700  0.00008800  1
  Al  Al1  1  0.74910900  0.49936700  0.49836900  1
  Al  Al2  1  0.24990600  0.99989700  0.00008800  1
  Al  Al3  1  0.25089100  0.49936700  0.49836900  1
  Al  Al4  1  0.74943800  0.49988500  0.00074200  1
  Al  Al5  1  0.74982600  0.00087300  0.49958500  1
  Al  Al6  1  0.25056200  0.49988500  0.00074200  1
  Al  Al7  1  0.25017400  0.00087300  0.49958500  1
  Al  Al8  1  0.00000000  0.08632800  0.14290900  1
  Al  Al9  1  0.50000000  0.91368000  0.85713000  1
  Al  Al10  1  0.50000000  0.41337800  0.35640400  1
  Fe  Fe0  1  0.00000000  0.58114500  0.64317300  1
  Si  Si0  1  0.50000000  0.37798100  0.66904700  1
  Si  Si1  1  0.50000000  0.87908600  0.16954800  1
  Si  Si2  1  0.00000000  0.12076700  0.83055400  1
  Si  Si3  1  0.00000000  0.62091600  0.33043200  1
  Si  Si4  1  0.00000000  0.43350700  0.84111200  1
  Si  Si5  1  0.00000000  0.93497100  0.33749200  1
  Si  Si6  1  0.50000000  0.06419800  0.66235900  1
  Si  Si7  1  0.50000000  0.56486200  0.16248500  1
  Si  Si8  1  0.50000000  0.72699000  0.59082600  1
  Si  Si9  1  0.50000000  0.22408900  0.09176000  1
  Si  Si10  1  0.00000000  0.77562100  0.90845000  1
  Si  Si11  1  0.00000000  0.27562300  0.40804500  1
  O  O0  1  0.72993900  0.70585600  0.65343300  1
  O  O1  1  0.73559700  0.19974400  0.15217700  1
  O  O2  1  0.23565200  0.80018900  0.84808400  1
  O  O3  1  0.23534100  0.29996900  0.34762900  1
  O  O4  1  0.76434800  0.80018900  0.84808400  1
  O  O5  1  0.76465900  0.29996900  0.34762900  1
  O  O6  1  0.27006100  0.70585600  0.65343300  1
  O  O7  1  0.26440300  0.19974400  0.15217700  1
  O  O8  1  0.76161600  0.44616700  0.89685700  1
  O  O9  1  0.76422800  0.94899900  0.39468500  1
  O  O10  1  0.26383500  0.05034100  0.60526900  1
  O  O11  1  0.26357400  0.55105600  0.10548200  1
  O  O12  1  0.73616500  0.05034100  0.60526900  1
  O  O13  1  0.73642600  0.55105600  0.10548200  1
  O  O14  1  0.23838400  0.44616700  0.89685700  1
  O  O15  1  0.23577200  0.94899900  0.39468500  1
  O  O16  1  0.50000000  0.42095700  0.75899200  1
  O  O17  1  0.50000000  0.92014400  0.25970800  1
  O  O18  1  0.00000000  0.08018800  0.74032300  1
  O  O19  1  0.00000000  0.57982000  0.23995100  1
  O  O20  1  0.00000000  0.60108300  0.52355400  1
  O  O21  1  0.00000000  0.09872800  0.02951800  1
  O  O22  1  0.50000000  0.90124500  0.97055000  1
  O  O23  1  0.50000000  0.40077900  0.46967600  1
  O  O24  1  0.50000000  0.62343600  0.52075600  1
  O  O25  1  0.50000000  0.12334800  0.02017300  1
  O  O26  1  0.00000000  0.87656600  0.97990600  1
  O  O27  1  0.00000000  0.37622700  0.47951400  1
  O  O28  1  0.50000000  0.87041900  0.53028700  1
  O  O29  1  0.50000000  0.36925900  0.03299800  1
  O  O30  1  0.00000000  0.63050300  0.96774900  1
  O  O31  1  0.00000000  0.13102000  0.46780000  1
  O  O32  1  0.00000000  0.28397000  0.81782600  1
  O  O33  1  0.00000000  0.78366400  0.31777700  1
  O  O34  1  0.50000000  0.21557600  0.68253400  1
  O  O35  1  0.50000000  0.71624300  0.18238500  1
  O  O36  1  0.00000000  0.54548000  0.76160600  1
  O  O37  1  0.00000000  0.04123700  0.25453600  1
  O  O38  1  0.50000000  0.95884500  0.74566800  1
  O  O39  1  0.50000000  0.45855700  0.24503700  1
  O  O40  1  0.00000000  0.89475200  0.54003300  1
  O  O41  1  0.00000000  0.39443200  0.04139100  1
  O  O42  1  0.50000000  0.60579500  0.95930900  1
  O  O43  1  0.50000000  0.10661000  0.45858000  1
  O  O44  1  0.74452400  0.42434700  0.61599000  1
  O  O45  1  0.74595900  0.92619300  0.11771400  1
  O  O46  1  0.24592700  0.07372100  0.88239000  1
  O  O47  1  0.24696900  0.57339300  0.38144700  1
  O  O48  1  0.75407300  0.07372100  0.88239000  1
  O  O49  1  0.75303100  0.57339300  0.38144700  1
  O  O50  1  0.25547600  0.42434700  0.61599000  1
  O  O51  1  0.25404100  0.92619300  0.11771400  1
loop_
_geom_bond_atom_site_label_1
_geom_bond_atom_site_label_2
_geom_bond_distance
_geom_bond_site_symmetry_2
Ca0 O16 2.300797 1_555
Ca0 O42 2.549277 1_555
Ca0 O2 2.562346 1_555
Ca0 O4 2.562346 1_555
Ca0 O14 2.661781 1_555
Ca0 O8 2.661781 1_555
Ca0 O6 2.763938 1_555
Ca0 O0 2.763938 1_555
Ca0 O36 3.036410 1_655
Ca0 O36 3.036410 1_555
Ca1 O17 2.294918 1_545
Ca1 O43 2.548022 1_555
Ca1 O3 2.566195 1_555
Ca1 O5 2.566195 1_555
Ca1 O15 2.637325 1_545
Ca1 O9 2.637325 1_545
Ca1 O7 2.778591 1_555
Ca1 O1 2.778591 1_555
Ca2 O18 2.300421 1_565
Ca2 O0 2.531253 1_455
Ca2 O6 2.531253 1_555
Ca2 O40 2.578498 1_555
Ca2 O10 2.640789 1_565
Ca2 O12 2.640789 1_465
Ca2 O2 2.773391 1_555
Ca2 O4 2.773391 1_455
Ca3 O19 2.292358 1_555
Ca3 O41 2.542226 1_555
Ca3 O1 2.568384 1_455
Ca3 O7 2.568384 1_555
Ca3 O11 2.630267 1_555
Ca3 O13 2.630267 1_455
Ca3 O5 2.780706 1_455
Ca3 O3 2.780706 1_555
Ca4 O16 2.336086 1_555
Ca4 O14 2.371361 1_555
Ca4 O8 2.371361 1_555
Ca4 O46 2.499748 1_555
Ca4 O48 2.499748 1_555
Ca4 O25 2.528537 1_556
Ca4 O29 2.798923 1_556
Ca4 O32 3.009278 1_655
Ca4 O32 3.009278 1_555
Ca5 O17 2.311405 1_555
Ca5 O15 2.387633 1_555
Ca5 O9 2.387633 1_555
Ca5 O49 2.510311 1_555
Ca5 O47 2.510311 1_555
Ca5 O24 2.546658 1_555
Ca5 O28 2.763516 1_555
Ca5 O33 3.007562 1_655
Ca5 O33 3.007562 1_555
Ca6 O18 2.311851 1_555
Ca6 O10 2.378632 1_555
Ca6 O12 2.378632 1_455
Ca6 O50 2.506803 1_555
Ca6 O44 2.506803 1_455
Ca6 O27 2.538562 1_555
Ca6 O31 2.767535 1_555
Ca6 O34 3.013461 1_555
Ca6 O34 3.013461 1_455
Ca7 O19 2.312708 1_555
Ca7 O11 2.386879 1_555
Ca7 O13 2.386879 1_455
Ca7 O45 2.505316 1_455
Ca7 O51 2.505316 1_555
Ca7 O26 2.532792 1_554
Ca7 O30 2.787131 1_554
Ca7 O35 3.009744 1_455
Ca7 O35 3.009744 1_555
Al0 O21 1.848445 1_665
Al0 O22 1.848769 1_554
Al0 O45 1.954053 1_555
Al0 O48 1.955426 1_564
Al0 O26 1.963286 1_654
Al0 O25 1.964467 1_565
Al1 O23 1.839420 1_555
Al1 O20 1.847963 1_655
Al1 O49 1.944264 1_555
Al1 O44 1.957337 1_555
Al1 O27 1.960341 1_655
Al1 O24 1.975076 1_555
Al2 O21 1.848445 1_565
Al2 O22 1.848769 1_554
Al2 O51 1.954053 1_555
Al2 O46 1.955426 1_564
Al2 O26 1.963286 1_554
Al2 O25 1.964467 1_565
Al3 O23 1.839420 1_555
Al3 O20 1.847963 1_555
Al3 O47 1.944264 1_555
Al3 O50 1.957337 1_555
Al3 O27 1.960341 1_555
Al3 O24 1.975076 1_555
Al4 O41 1.847803 1_655
Al4 O42 1.848965 1_554
Al4 O8 1.861935 1_554
Al4 O13 1.864172 1_555
Al4 O29 1.967715 1_555
Al4 O30 1.974218 1_654
Al5 O43 1.847766 1_555
Al5 O40 1.848953 1_645
Al5 O9 1.870075 1_545
Al5 O12 1.871767 1_555
Al5 O28 1.964150 1_545
Al5 O31 1.966266 1_655
Al6 O41 1.847803 1_555
Al6 O42 1.848965 1_554
Al6 O14 1.861935 1_554
Al6 O11 1.864172 1_555
Al6 O29 1.967715 1_555
Al6 O30 1.974218 1_554
Al7 O43 1.847766 1_555
Al7 O40 1.848953 1_545
Al7 O15 1.870075 1_545
Al7 O10 1.871767 1_555
Al7 O28 1.964150 1_545
Al7 O31 1.966266 1_555
Al8 O37 1.809504 1_555
Al8 O21 1.834093 1_555
Al8 O7 1.919226 1_555
Al8 O1 1.919226 1_455
Al8 O45 2.274663 1_445
Al8 O51 2.274663 1_545
Al9 O38 1.806984 1_555
Al9 O22 1.834535 1_555
Al9 O4 1.918850 1_555
Al9 O2 1.918850 1_555
Al9 O48 2.274352 1_565
Al9 O46 2.274352 1_565
Al10 O39 1.805501 1_555
Al10 O23 1.831989 1_555
Al10 O5 1.918950 1_555
Al10 O3 1.918950 1_555
Al10 O47 2.269405 1_555
Al10 O49 2.269405 1_555
Fe0 O36 1.910662 1_555
Fe0 O20 1.930279 1_555
Fe0 O0 2.020888 1_455
Fe0 O6 2.020888 1_555
Fe0 O44 2.263585 1_455
Fe0 O50 2.263585 1_555
O0 Si8 1.646815 1_555
O1 Si9 1.653054 1_555
O2 Si10 1.652973 1_555
O3 Si11 1.651879 1_555
O4 Si10 1.652973 1_655
O5 Si11 1.651879 1_655
O6 Si8 1.646815 1_555
O7 Si9 1.653054 1_555
O8 Si4 1.641688 1_655
O9 Si5 1.645560 1_655
O10 Si6 1.646082 1_555
O11 Si7 1.646368 1_555
O12 Si6 1.646082 1_555
O13 Si7 1.646368 1_555
O14 Si4 1.641688 1_555
O15 Si5 1.645560 1_555
O16 Si0 1.595409 1_555
O17 Si1 1.590624 1_555
O18 Si2 1.589737 1_555
O19 Si3 1.595833 1_555
O24 Si8 1.679270 1_555
O25 Si9 1.677344 1_555
O26 Si10 1.677189 1_555
O27 Si11 1.674797 1_555
O28 Si8 1.651907 1_555
O29 Si9 1.653431 1_555
O30 Si10 1.656885 1_555
O31 Si11 1.655890 1_555
O32 Si4 1.645863 1_555
O32 Si2 1.667627 1_555
O33 Si5 1.643007 1_555
O33 Si3 1.662996 1_555
O34 Si6 1.646287 1_555
O34 Si0 1.659148 1_555
O35 Si7 1.644783 1_555
O35 Si1 1.663887 1_555
O36 Si4 1.601948 1_555
O37 Si5 1.608336 1_545
O38 Si6 1.607386 1_565
O39 Si7 1.603706 1_555
O44 Si0 1.662325 1_555
O45 Si1 1.661333 1_555
O46 Si2 1.661061 1_555
O47 Si3 1.660910 1_555
O48 Si2 1.661061 1_655
O49 Si3 1.660910 1_655
O50 Si0 1.662325 1_555
O51 Si1 1.661333 1_555
