# generated using pymatgen
data_MgIn2
_symmetry_space_group_name_H-M   'P 1'
_cell_length_a   12.09355395
_cell_length_b   12.09355395
_cell_length_c   16.29096748
_cell_angle_alpha   73.21877448
_cell_angle_beta   73.21877448
_cell_angle_gamma   31.03262754
_symmetry_Int_Tables_number   1
_chemical_formula_structural   MgIn2
_chemical_formula_sum   'Mg16 In32'
_cell_volume   1171.86568243
_cell_formula_units_Z   16
loop_
 _symmetry_equiv_pos_site_id
 _symmetry_equiv_pos_as_xyz
  1  'x, y, z'
loop_
 _atom_site_type_symbol
 _atom_site_label
 _atom_site_symmetry_multiplicity
 _atom_site_fract_x
 _atom_site_fract_y
 _atom_site_fract_z
 _atom_site_occupancy
  Mg  Mg0_0  1  0.46605334  0.46605334  0.30500024  1
  Mg  Mg0_1  1  0.46605334  0.46605334  0.80500024  1
  Mg  Mg0_2  1  0.46605334  0.96605334  0.30500024  1
  Mg  Mg0_3  1  0.46605334  0.96605334  0.80500024  1
  Mg  Mg0_4  1  0.96605334  0.46605334  0.30500024  1
  Mg  Mg0_5  1  0.96605334  0.46605334  0.80500024  1
  Mg  Mg0_6  1  0.96605334  0.96605334  0.30500024  1
  Mg  Mg0_7  1  0.96605334  0.96605334  0.80500024  1
  Mg  Mg1_0  1  0.31140938  0.31140938  0.13735036  1
  Mg  Mg1_1  1  0.31140938  0.31140938  0.63735036  1
  Mg  Mg1_2  1  0.31140938  0.81140938  0.13735036  1
  Mg  Mg1_3  1  0.31140938  0.81140938  0.63735036  1
  Mg  Mg1_4  1  0.81140938  0.31140938  0.13735036  1
  Mg  Mg1_5  1  0.81140938  0.31140938  0.63735036  1
  Mg  Mg1_6  1  0.81140938  0.81140938  0.13735036  1
  Mg  Mg1_7  1  0.81140938  0.81140938  0.63735036  1
  In  In0_0  1  0.00289434  0.00289434  0.00663876  1
  In  In0_1  1  0.00289434  0.00289434  0.50663875  1
  In  In0_2  1  0.00289434  0.50289434  0.00663875  1
  In  In0_3  1  0.00289434  0.50289434  0.50663875  1
  In  In0_4  1  0.50289434  0.00289434  0.00663875  1
  In  In0_5  1  0.50289434  0.00289434  0.50663875  1
  In  In0_6  1  0.50289434  0.50289434  0.00663876  1
  In  In0_7  1  0.50289434  0.50289434  0.50663876  1
  In  In1_0  1  0.14214604  0.14214604  0.46839841  1
  In  In1_1  1  0.14214604  0.14214604  0.96839841  1
  In  In1_2  1  0.14214604  0.64214604  0.46839841  1
  In  In1_3  1  0.14214604  0.64214604  0.96839841  1
  In  In1_4  1  0.64214604  0.14214604  0.46839841  1
  In  In1_5  1  0.64214604  0.14214604  0.96839841  1
  In  In1_6  1  0.64214604  0.64214604  0.46839841  1
  In  In1_7  1  0.64214604  0.64214604  0.96839841  1
  In  In2_0  1  0.32430834  0.32430834  0.32866582  1
  In  In2_1  1  0.32430834  0.32430834  0.82866582  1
  In  In2_2  1  0.32430833  0.82430833  0.32866582  1
  In  In2_3  1  0.32430834  0.82430834  0.82866582  1
  In  In2_4  1  0.82430834  0.32430834  0.32866582  1
  In  In2_5  1  0.82430834  0.32430834  0.82866582  1
  In  In2_6  1  0.82430834  0.82430834  0.32866582  1
  In  In2_7  1  0.82430833  0.82430833  0.82866582  1
  In  In3_0  1  0.16985506  0.16985506  0.17061292  1
  In  In3_1  1  0.16985506  0.16985506  0.67061292  1
  In  In3_2  1  0.16985506  0.66985506  0.17061292  1
  In  In3_3  1  0.16985506  0.66985506  0.67061293  1
  In  In3_4  1  0.66985506  0.16985506  0.17061292  1
  In  In3_5  1  0.66985506  0.16985506  0.67061293  1
  In  In3_6  1  0.66985506  0.66985506  0.17061292  1
  In  In3_7  1  0.66985506  0.66985506  0.67061293  1
loop_
_geom_bond_atom_site_label_1
_geom_bond_atom_site_label_2
_geom_bond_distance
_geom_bond_site_symmetry_2
Mg0_0 Mg0_6 3.235180 1_545
Mg0_0 Mg0_6 3.235180 1_455
Mg0_0 Mg1_2 3.373028 1_555
Mg0_0 Mg1_4 3.373028 1_555
Mg0_1 Mg0_7 3.235180 1_455
Mg0_1 Mg0_7 3.235180 1_545
Mg0_1 Mg1_3 3.373028 1_555
Mg0_1 Mg1_5 3.373028 1_555
Mg0_2 Mg0_4 3.235180 1_465
Mg0_2 Mg0_4 3.235180 1_555
Mg0_2 Mg1_0 3.373028 1_565
Mg0_2 Mg1_6 3.373028 1_555
Mg0_3 Mg0_5 3.235180 1_465
Mg0_3 Mg0_5 3.235180 1_555
Mg0_3 Mg1_1 3.373028 1_565
Mg0_3 Mg1_7 3.373028 1_555
Mg0_4 Mg1_0 3.373028 1_655
Mg0_4 Mg1_6 3.373028 1_555
Mg0_5 Mg1_1 3.373028 1_655
Mg0_5 Mg1_7 3.373028 1_555
Mg0_6 Mg1_2 3.373028 1_655
Mg0_6 Mg1_4 3.373028 1_565
Mg0_7 Mg1_5 3.373028 1_565
Mg0_7 Mg1_3 3.373028 1_655
Mg1_0 Mg1_6 3.235180 1_455
Mg1_0 Mg1_6 3.235180 1_545
Mg1_1 Mg1_7 3.235180 1_455
Mg1_1 Mg1_7 3.235180 1_545
Mg1_2 Mg1_4 3.235180 1_555
Mg1_2 Mg1_4 3.235180 1_465
Mg1_3 Mg1_5 3.235180 1_555
Mg1_3 Mg1_5 3.235180 1_465
In0_0 In1_1 3.115887 1_554
In0_0 In3_4 3.224849 1_455
In0_0 In3_2 3.224849 1_545
In0_0 In0_6 3.235180 1_545
In0_0 In0_6 3.235180 1_455
In0_0 In1_5 3.260388 1_454
In0_0 In1_3 3.260388 1_544
In0_0 Mg1_2 3.278878 1_545
In0_0 Mg1_4 3.278878 1_455
In0_0 In2_5 3.301675 1_454
In0_0 In2_3 3.301675 1_544
In0_1 In1_0 3.115887 1_555
In0_1 In3_5 3.224849 1_455
In0_1 In3_3 3.224849 1_545
In0_1 In0_7 3.235180 1_545
In0_1 In0_7 3.235180 1_455
In0_1 In1_4 3.260388 1_455
In0_1 In1_2 3.260388 1_545
In0_1 Mg1_3 3.278878 1_545
In0_1 Mg1_5 3.278878 1_455
In0_1 In2_2 3.301675 1_545
In0_1 In2_4 3.301675 1_455
In0_2 In1_3 3.115887 1_554
In0_2 In3_0 3.224849 1_555
In0_2 In3_6 3.224849 1_455
In0_2 In0_4 3.235180 1_465
In0_2 In0_4 3.235180 1_555
In0_2 In1_7 3.260388 1_454
In0_2 In1_1 3.260388 1_554
In0_2 Mg1_6 3.278878 1_455
In0_2 Mg1_0 3.278878 1_555
In0_2 In2_7 3.301675 1_454
In0_2 In2_1 3.301675 1_554
In0_3 In1_2 3.115887 1_555
In0_3 In3_1 3.224849 1_555
In0_3 In3_7 3.224849 1_455
In0_3 In0_5 3.235180 1_465
In0_3 In0_5 3.235180 1_555
In0_3 In1_6 3.260388 1_455
In0_3 In1_0 3.260388 1_555
In0_3 Mg1_7 3.278878 1_455
In0_3 Mg1_1 3.278878 1_555
In0_3 In2_6 3.301675 1_455
In0_3 In2_0 3.301675 1_555
In0_4 In1_5 3.115887 1_554
In0_4 In3_0 3.224849 1_555
In0_4 In3_6 3.224849 1_545
In0_4 In1_7 3.260388 1_544
In0_4 In1_1 3.260388 1_554
In0_4 Mg1_6 3.278878 1_545
In0_4 Mg1_0 3.278878 1_555
In0_4 In2_7 3.301675 1_544
In0_4 In2_1 3.301675 1_554
In0_5 In1_4 3.115887 1_555
In0_5 In3_1 3.224849 1_555
In0_5 In3_7 3.224849 1_545
In0_5 In1_6 3.260388 1_545
In0_5 In1_0 3.260388 1_555
In0_5 Mg1_1 3.278878 1_555
In0_5 Mg1_7 3.278878 1_545
In0_5 In2_6 3.301675 1_545
In0_5 In2_0 3.301675 1_555
In0_6 In1_7 3.115887 1_554
In0_6 In3_4 3.224849 1_555
In0_6 In3_2 3.224849 1_555
In0_6 In1_3 3.260388 1_554
In0_6 In1_5 3.260388 1_554
In0_6 Mg1_2 3.278878 1_555
In0_6 Mg1_4 3.278878 1_555
In0_6 In2_5 3.301675 1_554
In0_6 In2_3 3.301675 1_554
In0_7 In1_6 3.115887 1_555
In0_7 In3_5 3.224849 1_555
In0_7 In3_3 3.224849 1_555
In0_7 In1_4 3.260388 1_555
In0_7 In1_2 3.260388 1_555
In0_7 Mg1_3 3.278878 1_555
In0_7 Mg1_5 3.278878 1_555
In0_7 In2_2 3.301675 1_555
In0_7 In2_4 3.301675 1_555
In1_0 Mg0_2 3.149846 1_545
In1_0 Mg0_4 3.149846 1_455
In1_0 In1_6 3.235180 1_545
In1_0 In1_6 3.235180 1_455
In1_0 Mg1_5 3.260231 1_455
In1_0 Mg1_3 3.260231 1_545
In1_0 In2_4 3.529139 1_455
In1_0 In2_2 3.529139 1_545
In1_1 Mg0_3 3.149846 1_545
In1_1 Mg0_5 3.149846 1_455
In1_1 In1_7 3.235180 1_455
In1_1 In1_7 3.235180 1_545
In1_1 Mg1_4 3.260231 1_456
In1_1 Mg1_2 3.260231 1_546
In1_1 In2_3 3.529139 1_545
In1_1 In2_5 3.529139 1_455
In1_2 Mg0_6 3.149846 1_455
In1_2 Mg0_0 3.149846 1_555
In1_2 In1_4 3.235180 1_555
In1_2 In1_4 3.235180 1_465
In1_2 Mg1_7 3.260231 1_455
In1_2 Mg1_1 3.260231 1_555
In1_2 In2_6 3.529139 1_455
In1_2 In2_0 3.529139 1_555
In1_3 Mg0_7 3.149846 1_455
In1_3 Mg0_1 3.149846 1_555
In1_3 In1_5 3.235180 1_555
In1_3 In1_5 3.235180 1_465
In1_3 Mg1_6 3.260231 1_456
In1_3 Mg1_0 3.260231 1_556
In1_3 In2_1 3.529139 1_555
In1_3 In2_7 3.529139 1_455
In1_4 Mg0_6 3.149846 1_545
In1_4 Mg0_0 3.149846 1_555
In1_4 Mg1_1 3.260231 1_555
In1_4 Mg1_7 3.260231 1_545
In1_4 In2_6 3.529139 1_545
In1_4 In2_0 3.529139 1_555
In1_5 Mg0_7 3.149846 1_545
In1_5 Mg0_1 3.149846 1_555
In1_5 Mg1_6 3.260231 1_546
In1_5 Mg1_0 3.260231 1_556
In1_5 In2_1 3.529139 1_555
In1_5 In2_7 3.529139 1_545
In1_6 Mg0_4 3.149846 1_555
In1_6 Mg0_2 3.149846 1_555
In1_6 Mg1_5 3.260231 1_555
In1_6 Mg1_3 3.260231 1_555
In1_6 In2_4 3.529139 1_555
In1_6 In2_2 3.529139 1_555
In1_7 Mg0_5 3.149846 1_555
In1_7 Mg0_3 3.149846 1_555
In1_7 Mg1_4 3.260231 1_556
In1_7 Mg1_2 3.260231 1_556
In1_7 In2_5 3.529139 1_555
In1_7 In2_3 3.529139 1_555
In2_0 Mg0_4 3.116633 1_455
In2_0 Mg0_2 3.116633 1_545
In2_0 Mg0_0 3.209079 1_555
In2_0 Mg1_0 3.219591 1_555
In2_0 In2_6 3.235180 1_455
In2_0 In2_6 3.235180 1_545
In2_0 In3_2 3.281599 1_555
In2_0 In3_4 3.281599 1_555
In2_1 Mg0_5 3.116633 1_455
In2_1 Mg0_3 3.116633 1_545
In2_1 Mg0_1 3.209079 1_555
In2_1 Mg1_1 3.219591 1_555
In2_1 In2_7 3.235180 1_545
In2_1 In2_7 3.235180 1_455
In2_1 In3_3 3.281599 1_555
In2_1 In3_5 3.281599 1_555
In2_2 Mg0_0 3.116633 1_555
In2_2 Mg0_6 3.116633 1_455
In2_2 Mg0_2 3.209079 1_555
In2_2 Mg1_2 3.219591 1_555
In2_2 In2_4 3.235180 1_555
In2_2 In2_4 3.235180 1_465
In2_2 In3_6 3.281599 1_555
In2_2 In3_0 3.281599 1_565
In2_3 Mg0_1 3.116633 1_555
In2_3 Mg0_7 3.116633 1_455
In2_3 Mg0_3 3.209079 1_555
In2_3 Mg1_3 3.219591 1_555
In2_3 In2_5 3.235180 1_555
In2_3 In2_5 3.235180 1_465
In2_3 In3_7 3.281599 1_555
In2_3 In3_1 3.281599 1_565
In2_4 Mg0_0 3.116633 1_555
In2_4 Mg0_6 3.116633 1_545
In2_4 Mg0_4 3.209079 1_555
In2_4 Mg1_4 3.219591 1_555
In2_4 In3_6 3.281599 1_555
In2_4 In3_0 3.281599 1_655
In2_5 Mg0_1 3.116633 1_555
In2_5 Mg0_7 3.116633 1_545
In2_5 Mg0_5 3.209079 1_555
In2_5 Mg1_5 3.219591 1_555
In2_5 In3_7 3.281599 1_555
In2_5 In3_1 3.281599 1_655
In2_6 Mg0_4 3.116633 1_555
In2_6 Mg0_2 3.116633 1_555
In2_6 Mg0_6 3.209079 1_555
In2_6 Mg1_6 3.219591 1_555
In2_6 In3_2 3.281599 1_655
In2_6 In3_4 3.281599 1_565
In2_7 Mg0_5 3.116633 1_555
In2_7 Mg0_3 3.116633 1_555
In2_7 Mg0_7 3.209079 1_555
In2_7 Mg1_7 3.219591 1_555
In2_7 In3_3 3.281599 1_655
In2_7 In3_5 3.281599 1_565
In3_0 Mg0_2 3.159346 1_545
In3_0 Mg0_4 3.159346 1_455
In3_0 Mg1_0 3.178958 1_555
In3_0 Mg1_4 3.180986 1_455
In3_0 Mg1_2 3.180986 1_545
In3_0 In3_6 3.235180 1_455
In3_0 In3_6 3.235180 1_545
In3_1 Mg0_3 3.159346 1_545
In3_1 Mg0_5 3.159346 1_455
In3_1 Mg1_1 3.178958 1_555
In3_1 Mg1_5 3.180986 1_455
In3_1 Mg1_3 3.180986 1_545
In3_1 In3_7 3.235180 1_545
In3_1 In3_7 3.235180 1_455
In3_2 Mg0_6 3.159346 1_455
In3_2 Mg0_0 3.159346 1_555
In3_2 Mg1_2 3.178958 1_555
In3_2 Mg1_0 3.180986 1_555
In3_2 Mg1_6 3.180986 1_455
In3_2 In3_4 3.235180 1_465
In3_2 In3_4 3.235180 1_555
In3_3 Mg0_7 3.159346 1_455
In3_3 Mg0_1 3.159346 1_555
In3_3 Mg1_3 3.178958 1_555
In3_3 Mg1_7 3.180986 1_455
In3_3 Mg1_1 3.180986 1_555
In3_3 In3_5 3.235180 1_465
In3_3 In3_5 3.235180 1_555
In3_4 Mg0_6 3.159346 1_545
In3_4 Mg0_0 3.159346 1_555
In3_4 Mg1_4 3.178958 1_555
In3_4 Mg1_0 3.180986 1_555
In3_4 Mg1_6 3.180986 1_545
In3_5 Mg0_7 3.159346 1_545
In3_5 Mg0_1 3.159346 1_555
In3_5 Mg1_5 3.178958 1_555
In3_5 Mg1_1 3.180986 1_555
In3_5 Mg1_7 3.180986 1_545
In3_6 Mg0_2 3.159346 1_555
In3_6 Mg0_4 3.159346 1_555
In3_6 Mg1_6 3.178958 1_555
In3_6 Mg1_4 3.180986 1_555
In3_6 Mg1_2 3.180986 1_555
In3_7 Mg0_3 3.159346 1_555
In3_7 Mg0_5 3.159346 1_555
In3_7 Mg1_7 3.178958 1_555
In3_7 Mg1_5 3.180986 1_555
In3_7 Mg1_3 3.180986 1_555
