# generated using pymatgen
data_BaSrEuCrO6
_symmetry_space_group_name_H-M   'P 1'
_cell_length_a   8.33394486
_cell_length_b   8.36615605
_cell_length_c   8.30814962
_cell_angle_alpha   90.00000000
_cell_angle_beta   90.00000000
_cell_angle_gamma   90.00000000
_symmetry_Int_Tables_number   1
_chemical_formula_structural   BaSrEuCrO6
_chemical_formula_sum   'Ba4 Sr4 Eu4 Cr4 O24'
_cell_volume   579.26980728
_cell_formula_units_Z   4
loop_
 _symmetry_equiv_pos_site_id
 _symmetry_equiv_pos_as_xyz
  1  'x, y, z'
loop_
 _atom_site_type_symbol
 _atom_site_label
 _atom_site_symmetry_multiplicity
 _atom_site_fract_x
 _atom_site_fract_y
 _atom_site_fract_z
 _atom_site_occupancy
  Ba  Ba0  1  0.00000000  -0.00000000  -0.00000000  1
  Ba  Ba1  1  0.50000000  0.50000000  0.50000000  1
  Ba  Ba2  1  0.00000000  0.50000000  -0.00000000  1
  Ba  Ba3  1  0.00000000  -0.00000000  0.50000000  1
  Sr  Sr0  1  0.00000000  0.50000000  0.50000000  1
  Sr  Sr1  1  0.50000000  -0.00000000  0.50000000  1
  Sr  Sr2  1  0.50000000  0.50000000  -0.00000000  1
  Sr  Sr3  1  0.50000000  -0.00000000  -0.00000000  1
  Eu  Eu0  1  0.25305216  0.24973099  0.25062019  1
  Eu  Eu1  1  0.74694784  0.75026901  0.25062019  1
  Eu  Eu2  1  0.74694784  0.24973099  0.74937981  1
  Eu  Eu3  1  0.25305216  0.75026901  0.74937981  1
  Cr  Cr0  1  0.74652000  0.74884201  0.74970293  1
  Cr  Cr1  1  0.25348000  0.25115799  0.74970293  1
  Cr  Cr2  1  0.25348000  0.74884201  0.25029707  1
  Cr  Cr3  1  0.74652000  0.25115799  0.25029707  1
  O  O0  1  0.97677112  0.23071867  0.26821775  1
  O  O1  1  0.02322888  0.76928133  0.26821775  1
  O  O2  1  0.02322888  0.23071867  0.73178225  1
  O  O3  1  0.97677112  0.76928133  0.73178225  1
  O  O4  1  0.27946324  0.98257850  0.22558351  1
  O  O5  1  0.27946324  0.01742150  0.77441649  1
  O  O6  1  0.72053676  0.01742150  0.22558351  1
  O  O7  1  0.72053676  0.98257850  0.77441649  1
  O  O8  1  0.23373583  0.27151057  0.97548156  1
  O  O9  1  0.76626417  0.27151057  0.02451844  1
  O  O10  1  0.23373583  0.72848943  0.02451844  1
  O  O11  1  0.76626417  0.72848943  0.97548156  1
  O  O12  1  0.52060755  0.28380610  0.22200920  1
  O  O13  1  0.47939245  0.71619390  0.22200920  1
  O  O14  1  0.47939245  0.28380610  0.77799080  1
  O  O15  1  0.52060755  0.71619390  0.77799080  1
  O  O16  1  0.22508121  0.51873759  0.28230640  1
  O  O17  1  0.22508121  0.48126241  0.71769360  1
  O  O18  1  0.77491879  0.48126241  0.28230640  1
  O  O19  1  0.77491879  0.51873759  0.71769360  1
  O  O20  1  0.28227313  0.22065756  0.52715291  1
  O  O21  1  0.71772687  0.22065756  0.47284709  1
  O  O22  1  0.28227313  0.77934244  0.47284709  1
  O  O23  1  0.71772687  0.77934244  0.52715291  1
loop_
_geom_bond_atom_site_label_1
_geom_bond_atom_site_label_2
_geom_bond_distance
_geom_bond_site_symmetry_2
Ba0 O2 2.954487 1_554
Ba0 O1 2.954487 1_545
Ba0 O0 2.954487 1_455
Ba0 O3 2.954487 1_444
Ba0 O5 2.993023 1_554
Ba0 O7 2.993023 1_444
Ba0 O6 2.993023 1_455
Ba0 O4 2.993023 1_545
Ba0 O9 2.999280 1_455
Ba0 O11 2.999280 1_444
Ba0 O10 2.999280 1_545
Ba0 O8 2.999280 1_554
Ba1 O19 2.923205 1_555
Ba1 O17 2.923205 1_555
Ba1 O18 2.923205 1_555
Ba1 O16 2.923205 1_555
Ba1 O13 2.938560 1_555
Ba1 O15 2.938560 1_555
Ba1 O14 2.938560 1_555
Ba1 O12 2.938560 1_555
Ba1 O23 2.967332 1_555
Ba1 O21 2.967332 1_555
Ba1 O20 2.967332 1_555
Ba1 O22 2.967332 1_555
Ba2 O10 2.736805 1_555
Ba2 O11 2.736805 1_454
Ba2 O8 2.736805 1_554
Ba2 O9 2.736805 1_455
Ba2 O16 3.007384 1_555
Ba2 O18 3.007384 1_455
Ba2 O17 3.007384 1_554
Ba2 O19 3.007384 1_454
Ba2 O3 3.174672 1_454
Ba2 O1 3.174672 1_555
Ba2 O2 3.174672 1_554
Ba2 O0 3.174672 1_455
Ba3 O1 2.733406 1_545
Ba3 O0 2.733406 1_455
Ba3 O2 2.733406 1_555
Ba3 O3 2.733406 1_445
Ba3 O22 2.998804 1_545
Ba3 O21 2.998804 1_455
Ba3 O23 2.998804 1_445
Ba3 O20 2.998804 1_555
Ba3 O6 3.262444 1_455
Ba3 O5 3.262444 1_555
Ba3 O7 3.262444 1_445
Ba3 O4 3.262444 1_545
Eu0 O4 2.255464 1_545
Eu0 O12 2.260474 1_555
Eu0 O16 2.277855 1_555
Eu0 O8 2.298787 1_554
Eu0 O0 2.312625 1_455
Eu0 O20 2.323114 1_555
Eu1 O6 2.255464 1_565
Eu1 O13 2.260474 1_555
Eu1 O18 2.277855 1_555
Eu1 O11 2.298787 1_554
Eu1 O1 2.312625 1_655
Eu1 O23 2.323114 1_555
Eu2 O7 2.255464 1_545
Eu2 O14 2.260474 1_555
Eu2 O19 2.277855 1_555
Eu2 O9 2.298787 1_556
Eu2 O2 2.312625 1_655
Eu2 O21 2.323114 1_555
Eu3 O5 2.255464 1_565
Eu3 O15 2.260474 1_555
Eu3 O17 2.277855 1_555
Eu3 O10 2.298787 1_556
Eu3 O3 2.312625 1_455
Eu3 O22 2.323114 1_555
Cr0 O23 1.881865 1_555
Cr0 O11 1.890689 1_555
Cr0 O15 1.916913 1_555
Cr0 O3 1.932249 1_555
Cr0 O19 1.957730 1_555
Cr0 O7 1.978114 1_555
Cr1 O20 1.881865 1_555
Cr1 O8 1.890689 1_555
Cr1 O14 1.916913 1_555
Cr1 O2 1.932249 1_555
Cr1 O17 1.957730 1_555
Cr1 O5 1.978114 1_555
Cr2 O22 1.881865 1_555
Cr2 O10 1.890689 1_555
Cr2 O13 1.916913 1_555
Cr2 O1 1.932249 1_555
Cr2 O16 1.957730 1_555
Cr2 O4 1.978114 1_555
Cr3 O21 1.881865 1_555
Cr3 O9 1.890689 1_555
Cr3 O12 1.916913 1_555
Cr3 O0 1.932249 1_555
Cr3 O18 1.957730 1_555
Cr3 O6 1.978114 1_555
O0 Sr0 2.970027 1_655
O1 Sr0 2.970027 1_555
O2 Sr0 2.970027 1_555
O3 Sr0 2.970027 1_655
O4 Sr3 2.629036 1_565
O4 Sr1 2.932096 1_565
O5 Sr3 2.629036 1_556
O5 Sr1 2.932096 1_555
O6 Sr3 2.629036 1_555
O6 Sr1 2.932096 1_555
O7 Sr3 2.629036 1_566
O7 Sr1 2.932096 1_565
O8 Sr2 2.935937 1_556
O8 Sr3 3.182028 1_556
O9 Sr2 2.935937 1_555
O9 Sr3 3.182028 1_555
O10 Sr2 2.935937 1_555
O10 Sr3 3.182028 1_565
O11 Sr2 2.935937 1_556
O11 Sr3 3.182028 1_566
O12 Sr2 2.589027 1_555
O12 Sr3 3.011517 1_555
O13 Sr2 2.589027 1_555
O13 Sr3 3.011517 1_565
O14 Sr2 2.589027 1_556
O14 Sr3 3.011517 1_556
O15 Sr2 2.589027 1_556
O15 Sr3 3.011517 1_566
O16 Sr0 2.610441 1_555
O17 Sr0 2.610441 1_555
O18 Sr0 2.610441 1_655
O19 Sr0 2.610441 1_655
O20 Sr1 2.598328 1_555
O21 Sr1 2.598328 1_555
O22 Sr1 2.598328 1_565
O23 Sr1 2.598328 1_565
