# generated using pymatgen
data_Ba8Fe3N8
_symmetry_space_group_name_H-M   'P 1'
_cell_length_a   10.28493176
_cell_length_b   5.71018340
_cell_length_c   7.91174083
_cell_angle_alpha   90.00000394
_cell_angle_beta   74.57981437
_cell_angle_gamma   73.88300510
_symmetry_Int_Tables_number   1
_chemical_formula_structural   Ba8Fe3N8
_chemical_formula_sum   'Ba8 Fe3 N8'
_cell_volume   428.94730364
_cell_formula_units_Z   1
loop_
 _symmetry_equiv_pos_site_id
 _symmetry_equiv_pos_as_xyz
  1  'x, y, z'
loop_
 _atom_site_type_symbol
 _atom_site_label
 _atom_site_symmetry_multiplicity
 _atom_site_fract_x
 _atom_site_fract_y
 _atom_site_fract_z
 _atom_site_occupancy
  Ba  Ba0  1  0.05622100  0.97188900  0.73129400  1
  Ba  Ba1  1  0.94377900  0.02811100  0.26870600  1
  Ba  Ba2  1  0.66442900  0.66778500  0.47156800  1
  Ba  Ba3  1  0.33557100  0.33221500  0.52843200  1
  Ba  Ba4  1  0.79597500  0.60201300  0.94842100  1
  Ba  Ba5  1  0.20402500  0.39798700  0.05157900  1
  Ba  Ba6  1  0.59387400  0.20306300  0.80519500  1
  Ba  Ba7  1  0.40612600  0.79693700  0.19480500  1
  Fe  Fe0  1  0.00000000  0.50000000  0.50000000  1
  Fe  Fe1  1  0.37107500  0.81446200  0.79965500  1
  Fe  Fe2  1  0.62892500  0.18553800  0.20034500  1
  N  N0  1  0.21814800  0.89092600  0.97920300  1
  N  N1  1  0.78185200  0.10907400  0.02079700  1
  N  N2  1  0.35739500  0.82130300  0.58670500  1
  N  N3  1  0.64260500  0.17869700  0.41329500  1
  N  N4  1  0.53973200  0.73013400  0.83478400  1
  N  N5  1  0.46026800  0.26986600  0.16521600  1
  N  N6  1  0.04249800  0.47875000  0.69754400  1
  N  N7  1  0.95750200  0.52125000  0.30245600  1
loop_
_geom_bond_atom_site_label_1
_geom_bond_atom_site_label_2
_geom_bond_distance
_geom_bond_site_symmetry_2
Ba0 N0 2.853772 1_555
Ba0 N6 2.874241 1_565
Ba0 N6 2.874246 1_555
Ba0 N2 2.877446 1_555
Ba0 N1 3.026281 1_466
Ba1 N1 2.853772 1_555
Ba1 N7 2.874241 1_545
Ba1 N7 2.874246 1_555
Ba1 N3 2.877446 1_555
Ba1 N0 3.026281 1_644
Ba2 N4 2.795734 1_555
Ba2 N7 2.833891 1_555
Ba2 N3 2.909577 1_565
Ba2 N3 2.909577 1_555
Ba2 N2 2.916071 1_555
Ba3 N5 2.795734 1_555
Ba3 N6 2.833891 1_555
Ba3 N2 2.909577 1_545
Ba3 N2 2.909577 1_555
Ba3 N3 2.916071 1_555
Ba4 N6 2.682658 1_655
Ba4 N1 2.907691 1_566
Ba4 N1 2.907697 1_556
Ba4 N4 2.911818 1_555
Ba5 N7 2.682658 1_455
Ba5 N0 2.907691 1_544
Ba5 N0 2.907697 1_554
Ba5 N5 2.911818 1_555
Ba6 N5 2.788297 1_556
Ba6 N1 2.848377 1_556
Ba6 N4 2.902277 1_555
Ba6 N4 2.902277 1_545
Ba6 N3 3.003201 1_555
Ba7 N4 2.788297 1_554
Ba7 N0 2.848377 1_554
Ba7 N5 2.902277 1_555
Ba7 N5 2.902277 1_565
Ba7 N2 3.003201 1_555
Fe0 N6 1.726939 1_555
Fe0 N7 1.726939 1_455
Fe1 N2 1.727107 1_555
Fe1 N4 1.763712 1_555
Fe1 N0 1.764356 1_555
Fe2 N3 1.727107 1_555
Fe2 N5 1.763712 1_555
Fe2 N1 1.764356 1_555
