# generated using pymatgen
data_Ce2WO6
_symmetry_space_group_name_H-M   'P 1'
_cell_length_a   5.03714500
_cell_length_b   5.03714500
_cell_length_c   10.48461400
_cell_angle_alpha   90.00000000
_cell_angle_beta   90.00000000
_cell_angle_gamma   90.00000000
_symmetry_Int_Tables_number   1
_chemical_formula_structural   Ce2WO6
_chemical_formula_sum   'Ce4 W2 O12'
_cell_volume   266.02432603
_cell_formula_units_Z   2
loop_
 _symmetry_equiv_pos_site_id
 _symmetry_equiv_pos_as_xyz
  1  'x, y, z'
loop_
 _atom_site_type_symbol
 _atom_site_label
 _atom_site_symmetry_multiplicity
 _atom_site_fract_x
 _atom_site_fract_y
 _atom_site_fract_z
 _atom_site_occupancy
  Ce  Ce0  1  0.00000000  0.00000000  0.33324500  1
  Ce  Ce1  1  0.00000000  0.00000000  0.66675500  1
  Ce  Ce2  1  0.50000000  0.50000000  0.83324500  1
  Ce  Ce3  1  0.50000000  0.50000000  0.16675500  1
  W  W0  1  0.00000000  0.00000000  0.00000000  1
  W  W1  1  0.50000000  0.50000000  0.50000000  1
  O  O0  1  0.29195300  0.29195300  0.00000000  1
  O  O1  1  0.70804700  0.70804700  0.00000000  1
  O  O2  1  0.20804700  0.79195300  0.50000000  1
  O  O3  1  0.79195300  0.20804700  0.50000000  1
  O  O4  1  0.31523900  0.31523900  0.34468900  1
  O  O5  1  0.68476100  0.68476100  0.65531100  1
  O  O6  1  0.68476100  0.68476100  0.34468900  1
  O  O7  1  0.18476100  0.81523900  0.84468900  1
  O  O8  1  0.18476100  0.81523900  0.15531100  1
  O  O9  1  0.31523900  0.31523900  0.65531100  1
  O  O10  1  0.81523900  0.18476100  0.15531100  1
  O  O11  1  0.81523900  0.18476100  0.84468900  1
loop_
_geom_bond_atom_site_label_1
_geom_bond_atom_site_label_2
_geom_bond_distance
_geom_bond_site_symmetry_2
Ce0 O4 2.248839 1_555
Ce0 O6 2.248839 1_445
Ce0 O8 2.283119 1_545
Ce0 O10 2.283119 1_455
Ce0 O2 2.291991 1_545
Ce0 O3 2.291991 1_455
Ce1 O9 2.248839 1_555
Ce1 O5 2.248839 1_445
Ce1 O7 2.283119 1_545
Ce1 O11 2.283119 1_455
Ce1 O3 2.291991 1_455
Ce1 O2 2.291991 1_545
Ce2 O11 2.248839 1_555
Ce2 O7 2.248839 1_555
Ce2 O5 2.283119 1_555
Ce2 O9 2.283119 1_555
Ce2 O1 2.291991 1_556
Ce2 O0 2.291991 1_556
Ce3 O10 2.248839 1_555
Ce3 O8 2.248839 1_555
Ce3 O6 2.283119 1_555
Ce3 O4 2.283119 1_555
Ce3 O1 2.291991 1_555
Ce3 O0 2.291991 1_555
O0 W0 2.079756 1_555
O1 W0 2.079756 1_665
O2 W1 2.079756 1_555
O3 W1 2.079756 1_555
O4 W1 2.093775 1_555
O5 W1 2.093775 1_555
O6 W1 2.093775 1_555
O7 W0 2.093775 1_566
O8 W0 2.093775 1_565
O9 W1 2.093775 1_555
O10 W0 2.093775 1_655
O11 W0 2.093775 1_656
