# generated using pymatgen
data_KMn2(MoO5)2
_symmetry_space_group_name_H-M   'P 1'
_cell_length_a   5.97859059
_cell_length_b   5.97859059
_cell_length_c   8.52330460
_cell_angle_alpha   66.66645491
_cell_angle_beta   66.66645491
_cell_angle_gamma   63.30894503
_symmetry_Int_Tables_number   1
_chemical_formula_structural   KMn2(MoO5)2
_chemical_formula_sum   'K1 Mn2 Mo2 O10'
_cell_volume   240.92847971
_cell_formula_units_Z   1
loop_
 _symmetry_equiv_pos_site_id
 _symmetry_equiv_pos_as_xyz
  1  'x, y, z'
loop_
 _atom_site_type_symbol
 _atom_site_label
 _atom_site_symmetry_multiplicity
 _atom_site_fract_x
 _atom_site_fract_y
 _atom_site_fract_z
 _atom_site_occupancy
  K  K0  1  0.50000000  0.50000000  0.50000000  1
  Mn  Mn0  1  0.00000000  0.50000000  0.00000000  1
  Mn  Mn1  1  0.50000000  0.00000000  0.00000000  1
  Mo  Mo0  1  0.06868100  0.06868100  0.73759000  1
  Mo  Mo1  1  0.93131900  0.93131900  0.26241000  1
  O  O0  1  0.69402500  0.69402500  0.92760400  1
  O  O1  1  0.30597500  0.30597500  0.07239600  1
  O  O2  1  0.19627100  0.19627100  0.51350300  1
  O  O3  1  0.80372900  0.80372900  0.48649700  1
  O  O4  1  0.81499000  0.28284700  0.21769900  1
  O  O5  1  0.71715300  0.18501000  0.78230100  1
  O  O6  1  0.18501000  0.71715300  0.78230100  1
  O  O7  1  0.28284700  0.81499000  0.21769900  1
  O  O8  1  0.17079100  0.17079100  0.86781900  1
  O  O9  1  0.82920900  0.82920900  0.13218100  1
loop_
_geom_bond_atom_site_label_1
_geom_bond_atom_site_label_2
_geom_bond_distance
_geom_bond_site_symmetry_2
K0 O6 2.776711 1_555
K0 O5 2.776711 1_555
K0 O4 2.776711 1_555
K0 O7 2.776711 1_555
K0 O3 3.039598 1_555
K0 O2 3.039598 1_555
Mn0 O0 1.869102 1_454
Mn0 O1 1.869102 1_555
Mn0 O6 2.026777 1_554
Mn0 O4 2.026777 1_455
Mn0 O9 2.285947 1_455
Mn0 O8 2.285947 1_554
Mn1 O0 1.869102 1_544
Mn1 O1 1.869102 1_555
Mn1 O5 2.026777 1_554
Mn1 O7 2.026777 1_545
Mn1 O9 2.285947 1_545
Mn1 O8 2.285947 1_554
Mo0 O2 1.739590 1_555
Mo0 O6 1.818855 1_545
Mo0 O5 1.818855 1_455
Mo0 O8 1.840049 1_555
Mo1 O3 1.739590 1_555
Mo1 O4 1.818855 1_565
Mo1 O7 1.818855 1_655
Mo1 O9 1.840049 1_555
