# generated using pymatgen
data_HfCrCuS4
_symmetry_space_group_name_H-M   'P 1'
_cell_length_a   3.57334700
_cell_length_b   6.03737200
_cell_length_c   11.68865396
_cell_angle_alpha   89.34235622
_cell_angle_beta   90.00000000
_cell_angle_gamma   90.00000000
_symmetry_Int_Tables_number   1
_chemical_formula_structural   HfCrCuS4
_chemical_formula_sum   'Hf2 Cr2 Cu2 S8'
_cell_volume   252.15002791
_cell_formula_units_Z   2
loop_
 _symmetry_equiv_pos_site_id
 _symmetry_equiv_pos_as_xyz
  1  'x, y, z'
loop_
 _atom_site_type_symbol
 _atom_site_label
 _atom_site_symmetry_multiplicity
 _atom_site_fract_x
 _atom_site_fract_y
 _atom_site_fract_z
 _atom_site_occupancy
  Hf  Hf0  1  0.50000000  0.51326600  0.74406800  1
  Hf  Hf1  1  0.50000000  0.48673400  0.25593200  1
  Cr  Cr0  1  0.00000000  0.01300900  0.24299400  1
  Cr  Cr1  1  0.00000000  0.98699100  0.75700600  1
  Cu  Cu0  1  0.50000000  0.50000000  0.00000000  1
  Cu  Cu1  1  0.00000000  0.00000000  0.50000000  1
  S  S0  1  0.50000000  0.16285000  0.12481300  1
  S  S1  1  0.50000000  0.83715000  0.87518700  1
  S  S2  1  0.00000000  0.67816800  0.61879100  1
  S  S3  1  0.00000000  0.32183200  0.38120900  1
  S  S4  1  0.00000000  0.67523300  0.12923600  1
  S  S5  1  0.00000000  0.32476700  0.87076400  1
  S  S6  1  0.50000000  0.14634100  0.63795800  1
  S  S7  1  0.50000000  0.85365900  0.36204200  1
loop_
_geom_bond_atom_site_label_1
_geom_bond_atom_site_label_2
_geom_bond_distance
_geom_bond_site_symmetry_2
Hf0 S1 2.498258 1_555
Hf0 S2 2.508812 1_555
Hf0 S2 2.508812 1_655
Hf0 S6 2.551228 1_555
Hf0 S5 2.577155 1_555
Hf0 S5 2.577155 1_655
Hf1 S0 2.498258 1_555
Hf1 S3 2.508812 1_555
Hf1 S3 2.508812 1_655
Hf1 S7 2.551228 1_555
Hf1 S4 2.577155 1_655
Hf1 S4 2.577155 1_555
Cr0 S0 2.426953 1_555
Cr0 S0 2.426953 1_455
Cr0 S4 2.447233 1_545
Cr0 S7 2.454246 1_445
Cr0 S7 2.454246 1_545
Cr0 S3 2.481012 1_555
Cr1 S1 2.426953 1_455
Cr1 S1 2.426953 1_555
Cr1 S5 2.447233 1_565
Cr1 S6 2.454246 1_565
Cr1 S6 2.454246 1_465
Cr1 S2 2.481012 1_555
Cu0 S0 2.490676 1_555
Cu0 S1 2.490676 1_554
Cu0 S4 2.574886 1_655
Cu0 S4 2.574886 1_555
Cu0 S5 2.574886 1_654
Cu0 S5 2.574886 1_554
Cu1 S2 2.375151 1_545
Cu1 S3 2.375151 1_555
Cu1 S7 2.570175 1_545
Cu1 S6 2.570175 1_555
Cu1 S7 2.570175 1_445
Cu1 S6 2.570175 1_455
