# generated using pymatgen
data_LaNi3Rh2
_symmetry_space_group_name_H-M   'P 1'
_cell_length_a   5.07733020
_cell_length_b   5.07733020
_cell_length_c   4.20455600
_cell_angle_alpha   90.00000000
_cell_angle_beta   90.00000000
_cell_angle_gamma   120.00000267
_symmetry_Int_Tables_number   1
_chemical_formula_structural   LaNi3Rh2
_chemical_formula_sum   'La1 Ni3 Rh2'
_cell_volume   93.86886758
_cell_formula_units_Z   1
loop_
 _symmetry_equiv_pos_site_id
 _symmetry_equiv_pos_as_xyz
  1  'x, y, z'
loop_
 _atom_site_type_symbol
 _atom_site_label
 _atom_site_symmetry_multiplicity
 _atom_site_fract_x
 _atom_site_fract_y
 _atom_site_fract_z
 _atom_site_occupancy
  La  La0  1  0.00000000  0.00000000  0.00000000  1
  Ni  Ni0  1  0.50000000  0.50000000  0.50000000  1
  Ni  Ni1  1  0.50000000  0.00000000  0.50000000  1
  Ni  Ni2  1  0.00000000  0.50000000  0.50000000  1
  Rh  Rh0  1  0.66666700  0.33333300  0.00000000  1
  Rh  Rh1  1  0.33333300  0.66666700  0.00000000  1
loop_
_geom_bond_atom_site_label_1
_geom_bond_atom_site_label_2
_geom_bond_distance
_geom_bond_site_symmetry_2
La0 Rh0 2.931395 1_455
La0 Rh1 2.931395 1_545
La0 Rh1 2.931399 1_555
La0 Rh1 2.931399 1_445
La0 Rh0 2.931399 1_445
La0 Rh0 2.931399 1_555
La0 Ni0 3.296118 1_555
La0 Ni0 3.296118 1_554
La0 Ni0 3.296118 1_445
La0 Ni0 3.296118 1_444
La0 Ni1 3.296118 1_554
La0 Ni1 3.296118 1_455
La0 Ni1 3.296118 1_454
La0 Ni1 3.296118 1_555
La0 Ni2 3.296118 1_545
La0 Ni2 3.296118 1_554
La0 Ni2 3.296118 1_544
La0 Ni2 3.296118 1_555
Ni0 Ni1 2.538665 1_565
Ni0 Ni1 2.538665 1_555
Ni0 Ni2 2.538665 1_555
Ni0 Ni2 2.538665 1_655
Ni0 Rh0 2.562783 1_555
Ni0 Rh1 2.562783 1_556
Ni0 Rh0 2.562783 1_556
Ni0 Rh1 2.562783 1_555
Ni1 Ni2 2.538665 1_655
Ni1 Ni2 2.538665 1_545
Ni1 Rh0 2.562780 1_556
Ni1 Rh0 2.562780 1_555
Ni1 Rh1 2.562780 1_545
Ni1 Rh1 2.562780 1_546
Ni2 Rh1 2.562780 1_556
Ni2 Rh0 2.562780 1_456
Ni2 Rh0 2.562780 1_455
Ni2 Rh1 2.562780 1_555
