# generated using pymatgen
data_Li9Mn7O16
_symmetry_space_group_name_H-M   'P 1'
_cell_length_a   3.03328816
_cell_length_b   5.11026409
_cell_length_c   19.59325133
_cell_angle_alpha   93.14248525
_cell_angle_beta   84.34702010
_cell_angle_gamma   93.86964724
_symmetry_Int_Tables_number   1
_chemical_formula_structural   Li9Mn7O16
_chemical_formula_sum   'Li9 Mn7 O16'
_cell_volume   301.19189350
_cell_formula_units_Z   1
loop_
 _symmetry_equiv_pos_site_id
 _symmetry_equiv_pos_as_xyz
  1  'x, y, z'
loop_
 _atom_site_type_symbol
 _atom_site_label
 _atom_site_symmetry_multiplicity
 _atom_site_fract_x
 _atom_site_fract_y
 _atom_site_fract_z
 _atom_site_occupancy
  Li  Li0  1  0.87675300  0.36488300  0.13279200  1
  Li  Li1  1  0.13702700  0.61889600  0.36889100  1
  Li  Li2  1  0.37541600  0.87446800  0.62458500  1
  Li  Li3  1  0.62519100  0.12458100  0.87529400  1
  Li  Li4  1  0.36297300  0.88110400  0.13110900  1
  Li  Li5  1  0.62324700  0.13511700  0.36720800  1
  Li  Li6  1  0.87480900  0.37541900  0.62470600  1
  Li  Li7  1  0.12458400  0.62553200  0.87541500  1
  Li  Li8  1  0.25000000  0.25000000  0.25000000  1
  Mn  Mn0  1  0.99587500  0.00023600  0.00088400  1
  Mn  Mn1  1  0.75000000  0.75000000  0.25000000  1
  Mn  Mn2  1  0.50412500  0.49976400  0.49911600  1
  Mn  Mn3  1  0.75000000  0.75000000  0.75000000  1
  Mn  Mn4  1  0.49654600  0.50176100  0.00070600  1
  Mn  Mn5  1  0.00345400  0.99823900  0.49929400  1
  Mn  Mn6  1  0.25000000  0.25000000  0.75000000  1
  O  O0  1  0.41512600  0.19527700  0.05764700  1
  O  O1  1  0.68274800  0.46177800  0.30876700  1
  O  O2  1  0.91341700  0.69474900  0.55808200  1
  O  O3  1  0.16184000  0.94576400  0.80823500  1
  O  O4  1  0.92088800  0.69095700  0.05612000  1
  O  O5  1  0.22804200  0.91124800  0.30365400  1
  O  O6  1  0.41772200  0.19459300  0.55781300  1
  O  O7  1  0.66150700  0.44574300  0.80826300  1
  O  O8  1  0.27195800  0.58875200  0.19634600  1
  O  O9  1  0.57911200  0.80904300  0.44388000  1
  O  O10  1  0.83849300  0.05425700  0.69173700  1
  O  O11  1  0.08227800  0.30540700  0.94218700  1
  O  O12  1  0.81725200  0.03822200  0.19123300  1
  O  O13  1  0.08487400  0.30472300  0.44235300  1
  O  O14  1  0.33816000  0.55423600  0.69176500  1
  O  O15  1  0.58658300  0.80525100  0.94191800  1
loop_
_geom_bond_atom_site_label_1
_geom_bond_atom_site_label_2
_geom_bond_distance
_geom_bond_site_symmetry_2
Li0 O8 2.061368 1_655
Li0 O12 2.063624 1_555
Li0 O0 2.232067 1_555
Li0 O0 2.272282 1_655
Li0 O4 2.292607 1_555
Li0 O8 2.429383 1_555
Li1 O1 1.999486 1_455
Li1 O5 2.006546 1_555
Li1 O1 2.112830 1_555
Li1 O13 2.201967 1_555
Li1 O9 2.226418 1_555
Li1 O9 2.354249 1_455
Li2 O2 2.135412 1_455
Li2 O6 2.139522 1_565
Li2 O14 2.145993 1_555
Li2 O10 2.146082 1_565
Li2 O2 2.203776 1_555
Li2 O10 2.207946 1_465
Li3 O11 2.132208 1_655
Li3 O15 2.135028 1_545
Li3 O3 2.143726 1_545
Li3 O7 2.148039 1_555
Li3 O3 2.204298 1_645
Li3 O11 2.220606 1_555
Li4 O12 1.999486 1_565
Li4 O8 2.006546 1_555
Li4 O12 2.112830 1_465
Li4 O0 2.201967 1_565
Li4 O4 2.226418 1_455
Li4 O4 2.354249 1_555
Li5 O5 2.061368 1_545
Li5 O1 2.063624 1_555
Li5 O13 2.232067 1_655
Li5 O13 2.272282 1_555
Li5 O9 2.292607 1_545
Li5 O5 2.429383 1_645
Li6 O6 2.132208 1_555
Li6 O2 2.135028 1_555
Li6 O14 2.143726 1_655
Li6 O10 2.148039 1_555
Li6 O14 2.204298 1_555
Li6 O6 2.220606 1_655
Li7 O15 2.135412 1_555
Li7 O11 2.139522 1_555
Li7 O3 2.145993 1_555
Li7 O7 2.146082 1_455
Li7 O15 2.203776 1_455
Li7 O7 2.207946 1_555
Li8 O1 2.046826 1_555
Li8 O12 2.046826 1_455
Li8 O8 2.067968 1_555
Li8 O5 2.067968 1_545
Li8 O1 2.276413 1_455
Li8 O12 2.276413 1_555
Mn0 O4 1.952306 1_545
Mn0 O0 1.957964 1_655
Mn0 O15 1.964275 1_544
Mn0 O11 1.976230 1_654
Mn0 O0 2.250111 1_555
Mn0 O15 2.290219 1_644
Mn1 O12 1.906814 1_565
Mn1 O1 1.906814 1_555
Mn1 O5 1.982630 1_655
Mn1 O8 1.982630 1_555
Mn1 O5 2.010981 1_555
Mn1 O8 2.010981 1_655
Mn2 O9 1.952306 1_555
Mn2 O13 1.957964 1_555
Mn2 O2 1.964275 1_555
Mn2 O6 1.976230 1_555
Mn2 O13 2.250111 1_655
Mn2 O2 2.290219 1_455
Mn3 O3 1.962212 1_655
Mn3 O14 1.962212 1_555
Mn3 O7 1.967390 1_555
Mn3 O10 1.967390 1_565
Mn3 O3 2.280418 1_555
Mn3 O14 2.280418 1_655
Mn4 O4 1.939750 1_555
Mn4 O0 1.960562 1_555
Mn4 O15 1.970632 1_554
Mn4 O11 1.971811 1_554
Mn4 O4 2.214021 1_455
Mn4 O11 2.278442 1_654
Mn5 O9 1.939750 1_455
Mn5 O13 1.960562 1_565
Mn5 O2 1.970632 1_455
Mn5 O6 1.971811 1_565
Mn5 O9 2.214021 1_555
Mn5 O6 2.278442 1_465
Mn6 O7 1.961837 1_555
Mn6 O10 1.961837 1_455
Mn6 O3 1.966942 1_545
Mn6 O14 1.966942 1_555
Mn6 O7 2.281357 1_455
Mn6 O10 2.281357 1_555
