# generated using pymatgen
data_KSm(SeO4)2
_symmetry_space_group_name_H-M   'P 1'
_cell_length_a   7.43718500
_cell_length_b   8.92670700
_cell_length_c   11.08882132
_cell_angle_alpha   88.48772160
_cell_angle_beta   90.00000000
_cell_angle_gamma   90.00000000
_symmetry_Int_Tables_number   1
_chemical_formula_structural   KSm(SeO4)2
_chemical_formula_sum   'K4 Sm4 Se8 O32'
_cell_volume   735.92567699
_cell_formula_units_Z   4
loop_
 _symmetry_equiv_pos_site_id
 _symmetry_equiv_pos_as_xyz
  1  'x, y, z'
loop_
 _atom_site_type_symbol
 _atom_site_label
 _atom_site_symmetry_multiplicity
 _atom_site_fract_x
 _atom_site_fract_y
 _atom_site_fract_z
 _atom_site_occupancy
  K  K0  1  0.35227400  0.43582300  0.84000000  1
  K  K1  1  0.64772600  0.56417700  0.16000000  1
  K  K2  1  0.85227400  0.56417700  0.66000000  1
  K  K3  1  0.14772600  0.43582300  0.34000000  1
  Sm  Sm0  1  0.16650500  0.94571400  0.84817300  1
  Sm  Sm1  1  0.83349500  0.05428600  0.15182700  1
  Sm  Sm2  1  0.66650500  0.05428600  0.65182700  1
  Sm  Sm3  1  0.33349500  0.94571400  0.34817300  1
  Se  Se0  1  0.16550300  0.18789200  0.60733700  1
  Se  Se1  1  0.83449700  0.81210800  0.39266300  1
  Se  Se2  1  0.66550300  0.81210800  0.89266300  1
  Se  Se3  1  0.33449700  0.18789200  0.10733700  1
  Se  Se4  1  0.34115400  0.72514800  0.58922900  1
  Se  Se5  1  0.65884600  0.27485200  0.41077100  1
  Se  Se6  1  0.84115400  0.27485200  0.91077100  1
  Se  Se7  1  0.15884600  0.72514800  0.08922900  1
  O  O0  1  0.82676600  0.87458700  0.53291500  1
  O  O1  1  0.17323400  0.12541300  0.46708500  1
  O  O2  1  0.32676600  0.12541300  0.96708500  1
  O  O3  1  0.67323400  0.87458700  0.03291500  1
  O  O4  1  0.50178000  0.90747300  0.81502000  1
  O  O5  1  0.49822000  0.09252700  0.18498000  1
  O  O6  1  0.00178000  0.09252700  0.68498000  1
  O  O7  1  0.99822000  0.90747300  0.31502000  1
  O  O8  1  0.14390500  0.37080600  0.60398100  1
  O  O9  1  0.85609500  0.62919400  0.39601900  1
  O  O10  1  0.64390500  0.62919400  0.89601900  1
  O  O11  1  0.35609500  0.37080600  0.10398100  1
  O  O12  1  0.25381500  0.70513300  0.95270400  1
  O  O13  1  0.74618500  0.29486700  0.04729600  1
  O  O14  1  0.75381500  0.29486700  0.54729600  1
  O  O15  1  0.24618500  0.70513300  0.45270400  1
  O  O16  1  0.44831600  0.88977000  0.55619400  1
  O  O17  1  0.55168400  0.11023000  0.44380600  1
  O  O18  1  0.94831600  0.11023000  0.94380600  1
  O  O19  1  0.05168400  0.88977000  0.05619400  1
  O  O20  1  0.48002400  0.59214400  0.63253300  1
  O  O21  1  0.51997600  0.40785600  0.36746700  1
  O  O22  1  0.98002400  0.40785600  0.86746700  1
  O  O23  1  0.01997600  0.59214400  0.13253300  1
  O  O24  1  0.84290900  0.86324600  0.80328700  1
  O  O25  1  0.15709100  0.13675400  0.19671300  1
  O  O26  1  0.34290900  0.13675400  0.69671300  1
  O  O27  1  0.65709100  0.86324600  0.30328700  1
  O  O28  1  0.18226800  0.75465700  0.69377700  1
  O  O29  1  0.81773200  0.24534300  0.30622300  1
  O  O30  1  0.68226800  0.24534300  0.80622300  1
  O  O31  1  0.31773200  0.75465700  0.19377700  1
loop_
_geom_bond_atom_site_label_1
_geom_bond_atom_site_label_2
_geom_bond_distance
_geom_bond_site_symmetry_2
K0 O22 2.795645 1_455
K0 O20 2.823663 1_555
K0 O12 2.834808 1_555
K0 O10 2.850667 1_555
K0 O11 2.969294 1_556
K0 O30 3.014689 1_555
K0 O2 3.081216 1_555
K0 O8 3.109360 1_555
K0 O26 3.143343 1_555
K1 O23 2.795645 1_655
K1 O21 2.823663 1_555
K1 O13 2.834808 1_555
K1 O11 2.850667 1_555
K1 O10 2.969294 1_554
K1 O31 3.014689 1_555
K1 O3 3.081216 1_555
K1 O9 3.109360 1_555
K1 O27 3.143343 1_555
K2 O20 2.795645 1_555
K2 O22 2.823663 1_555
K2 O14 2.834808 1_555
K2 O8 2.850667 1_655
K2 O9 2.969294 1_555
K2 O28 3.014689 1_655
K2 O0 3.081216 1_555
K2 O10 3.109360 1_555
K2 O24 3.143343 1_555
K3 O21 2.795645 1_555
K3 O23 2.823663 1_555
K3 O15 2.834808 1_555
K3 O9 2.850667 1_455
K3 O8 2.969294 1_555
K3 O29 3.014689 1_455
K3 O1 3.081216 1_555
K3 O11 3.109360 1_555
K3 O25 3.143343 1_555
O0 Se1 1.667001 1_555
O0 Sm2 2.417466 1_565
O1 Se0 1.667001 1_555
O1 Sm3 2.417466 1_545
O2 Se3 1.667001 1_556
O2 Sm0 2.417466 1_545
O3 Se2 1.667001 1_554
O3 Sm1 2.417466 1_565
O4 Se2 1.705851 1_555
O4 Sm2 2.523478 1_565
O4 Sm0 2.544771 1_555
O5 Se3 1.705851 1_555
O5 Sm3 2.523478 1_545
O5 Sm1 2.544771 1_555
O6 Se0 1.705851 1_555
O6 Sm0 2.523478 1_545
O6 Sm2 2.544771 1_455
O7 Se1 1.705851 1_555
O7 Sm1 2.523478 1_565
O7 Sm3 2.544771 1_655
O8 Se0 1.640146 1_555
O9 Se1 1.640146 1_555
O10 Se2 1.640146 1_555
O11 Se3 1.640146 1_555
O12 Se7 1.684327 1_556
O12 Sm0 2.499198 1_555
O13 Se6 1.684327 1_554
O13 Sm1 2.499198 1_555
O14 Se5 1.684327 1_555
O14 Sm2 2.499198 1_555
O15 Se4 1.684327 1_555
O15 Sm3 2.499198 1_555
O16 Se4 1.703081 1_555
O16 Sm2 2.448818 1_565
O16 Sm3 2.497742 1_555
O17 Se5 1.703081 1_555
O17 Sm3 2.448818 1_545
O17 Sm2 2.497742 1_555
O18 Se6 1.703081 1_555
O18 Sm0 2.448818 1_645
O18 Sm1 2.497742 1_556
O19 Se7 1.703081 1_555
O19 Sm1 2.448818 1_465
O19 Sm0 2.497742 1_554
O20 Se4 1.636100 1_555
O21 Se5 1.636100 1_555
O22 Se6 1.636100 1_555
O23 Se7 1.636100 1_555
O24 Se2 1.705155 1_555
O24 Sm0 2.569232 1_655
O24 Sm2 2.701674 1_565
O25 Se3 1.705155 1_555
O25 Sm1 2.569232 1_455
O25 Sm3 2.701674 1_545
O26 Se0 1.705155 1_555
O26 Sm2 2.569232 1_555
O26 Sm0 2.701674 1_545
O27 Se1 1.705155 1_555
O27 Sm3 2.569232 1_555
O27 Sm1 2.701674 1_565
O28 Se4 1.681026 1_555
O28 Sm0 2.451084 1_555
O29 Se5 1.681026 1_555
O29 Sm1 2.451084 1_555
O30 Se6 1.681026 1_555
O30 Sm2 2.451084 1_555
O31 Se7 1.681026 1_555
O31 Sm3 2.451084 1_555
