# generated using pymatgen
data_Li(CrS2)2
_symmetry_space_group_name_H-M   'P 1'
_cell_length_a   3.46749600
_cell_length_b   10.86837700
_cell_length_c   12.39468300
_cell_angle_alpha   90.00000000
_cell_angle_beta   90.00000000
_cell_angle_gamma   90.00000000
_symmetry_Int_Tables_number   1
_chemical_formula_structural   Li(CrS2)2
_chemical_formula_sum   'Li4 Cr8 S16'
_cell_volume   467.10669005
_cell_formula_units_Z   4
loop_
 _symmetry_equiv_pos_site_id
 _symmetry_equiv_pos_as_xyz
  1  'x, y, z'
loop_
 _atom_site_type_symbol
 _atom_site_label
 _atom_site_symmetry_multiplicity
 _atom_site_fract_x
 _atom_site_fract_y
 _atom_site_fract_z
 _atom_site_occupancy
  Li  Li0  1  0.25000000  0.24186600  0.33872900  1
  Li  Li1  1  0.75000000  0.75813400  0.66127100  1
  Li  Li2  1  0.75000000  0.25813400  0.83872900  1
  Li  Li3  1  0.25000000  0.74186600  0.16127100  1
  Cr  Cr0  1  0.25000000  0.05941800  0.11675400  1
  Cr  Cr1  1  0.75000000  0.94058200  0.88324600  1
  Cr  Cr2  1  0.75000000  0.44058200  0.61675400  1
  Cr  Cr3  1  0.25000000  0.55941800  0.38324600  1
  Cr  Cr4  1  0.25000000  0.08657900  0.60068000  1
  Cr  Cr5  1  0.75000000  0.91342100  0.39932000  1
  Cr  Cr6  1  0.75000000  0.41342100  0.10068000  1
  Cr  Cr7  1  0.25000000  0.58657900  0.89932000  1
  S  S0  1  0.75000000  0.02885800  0.71244200  1
  S  S1  1  0.25000000  0.97114200  0.28755800  1
  S  S2  1  0.25000000  0.47114200  0.21244200  1
  S  S3  1  0.75000000  0.52885800  0.78755800  1
  S  S4  1  0.25000000  0.08505600  0.92747400  1
  S  S5  1  0.75000000  0.91494400  0.07252600  1
  S  S6  1  0.75000000  0.41494400  0.42747400  1
  S  S7  1  0.25000000  0.58505600  0.57252600  1
  S  S8  1  0.75000000  0.12021800  0.47158600  1
  S  S9  1  0.25000000  0.87978200  0.52841400  1
  S  S10  1  0.25000000  0.37978200  0.97158600  1
  S  S11  1  0.75000000  0.62021800  0.02841400  1
  S  S12  1  0.75000000  0.20249800  0.16291100  1
  S  S13  1  0.25000000  0.79750200  0.83708900  1
  S  S14  1  0.25000000  0.29750200  0.66291100  1
  S  S15  1  0.75000000  0.70249800  0.33708900  1
loop_
_geom_bond_atom_site_label_1
_geom_bond_atom_site_label_2
_geom_bond_distance
_geom_bond_site_symmetry_2
Li0 S8 2.732318 1_555
Li0 S8 2.732318 1_455
Li0 S6 2.784647 1_555
Li0 S6 2.784647 1_455
Li0 S12 2.817428 1_555
Li0 S12 2.817428 1_455
Li0 S2 2.942700 1_555
Li0 S1 3.009914 1_545
Li1 S9 2.732318 1_555
Li1 S9 2.732318 1_655
Li1 S7 2.784647 1_555
Li1 S7 2.784647 1_655
Li1 S13 2.817428 1_555
Li1 S13 2.817428 1_655
Li1 S3 2.942700 1_555
Li1 S0 3.009914 1_565
Li2 S10 2.732318 1_555
Li2 S10 2.732318 1_655
Li2 S4 2.784647 1_555
Li2 S4 2.784647 1_655
Li2 S14 2.817428 1_655
Li2 S14 2.817428 1_555
Li2 S0 2.942700 1_555
Li2 S3 3.009914 1_555
Li3 S11 2.732318 1_555
Li3 S11 2.732318 1_455
Li3 S5 2.784647 1_455
Li3 S5 2.784647 1_555
Li3 S15 2.817428 1_555
Li3 S15 2.817428 1_455
Li3 S1 2.942700 1_555
Li3 S2 3.009914 1_555
Cr0 S1 2.324313 1_545
Cr0 S4 2.362555 1_554
Cr0 S12 2.398198 1_455
Cr0 S12 2.398198 1_555
Cr0 S5 2.402482 1_445
Cr0 S5 2.402482 1_545
Cr1 S0 2.324313 1_565
Cr1 S5 2.362555 1_556
Cr1 S13 2.398198 1_555
Cr1 S13 2.398198 1_655
Cr1 S4 2.402482 1_665
Cr1 S4 2.402482 1_565
Cr2 S3 2.324313 1_555
Cr2 S6 2.362555 1_555
Cr2 S14 2.398198 1_555
Cr2 S14 2.398198 1_655
Cr2 S7 2.402482 1_555
Cr2 S7 2.402482 1_655
Cr3 S2 2.324313 1_555
Cr3 S7 2.362555 1_555
Cr3 S15 2.398198 1_555
Cr3 S15 2.398198 1_455
Cr3 S6 2.402482 1_455
Cr3 S6 2.402482 1_555
Cr4 S0 2.306157 1_455
Cr4 S0 2.306157 1_555
Cr4 S8 2.387425 1_555
Cr4 S8 2.387425 1_455
Cr4 S14 2.418679 1_555
Cr4 S9 2.419458 1_545
Cr5 S1 2.306157 1_555
Cr5 S1 2.306157 1_655
Cr5 S9 2.387425 1_655
Cr5 S9 2.387425 1_555
Cr5 S15 2.418679 1_555
Cr5 S8 2.419458 1_565
Cr6 S2 2.306157 1_655
Cr6 S2 2.306157 1_555
Cr6 S10 2.387425 1_554
Cr6 S10 2.387425 1_654
Cr6 S12 2.418679 1_555
Cr6 S11 2.419458 1_555
Cr7 S3 2.306157 1_455
Cr7 S3 2.306157 1_555
Cr7 S11 2.387425 1_456
Cr7 S11 2.387425 1_556
Cr7 S13 2.418679 1_555
Cr7 S10 2.419458 1_555
