# generated using pymatgen
data_MgAl4(HO)12
_symmetry_space_group_name_H-M   'P 1'
_cell_length_a   6.96352812
_cell_length_b   7.62480461
_cell_length_c   7.23168650
_cell_angle_alpha   105.62769478
_cell_angle_beta   137.20830924
_cell_angle_gamma   89.50349263
_symmetry_Int_Tables_number   1
_chemical_formula_structural   MgAl4(HO)12
_chemical_formula_sum   'Mg1 Al4 H12 O12'
_cell_volume   240.48879300
_cell_formula_units_Z   1
loop_
 _symmetry_equiv_pos_site_id
 _symmetry_equiv_pos_as_xyz
  1  'x, y, z'
loop_
 _atom_site_type_symbol
 _atom_site_label
 _atom_site_symmetry_multiplicity
 _atom_site_fract_x
 _atom_site_fract_y
 _atom_site_fract_z
 _atom_site_occupancy
  Mg  Mg0  1  0.44070241  0.63732479  0.57769622  1
  Al  Al0  1  0.49521639  0.85145960  0.30139256  1
  Al  Al1  1  0.49760804  0.15690979  0.66907899  1
  Al  Al2  1  0.00095891  0.66903503  0.65558044  1
  Al  Al3  1  0.98363366  0.30831820  0.33289984  1
  H  H0  1  0.99440980  0.96709819  0.55458871  1
  H  H1  1  0.95309426  0.94513092  0.22908953  1
  H  H2  1  0.56947927  0.50735209  0.83834516  1
  H  H3  1  0.44989572  0.48976333  0.18633125  1
  H  H4  1  0.88585016  0.62396489  0.20823574  1
  H  H5  1  0.84267188  0.32355992  0.56525550  1
  H  H6  1  0.32777429  0.14005446  0.21857072  1
  H  H7  1  0.76656824  0.93178923  0.80278103  1
  H  H8  1  0.56322261  0.74959086  0.99665025  1
  H  H9  1  0.49116509  0.08352625  0.98744528  1
  H  H10  1  0.98570611  0.37218028  0.99879698  1
  H  H11  1  0.94901253  0.71139512  0.00098614  1
  O  O0  1  0.90353008  0.89467021  0.57934498  1
  O  O1  1  0.08082397  0.07531901  0.38851330  1
  O  O2  1  0.40829862  0.38533132  0.62663658  1
  O  O3  1  0.55574950  0.59884044  0.36744067  1
  O  O4  1  0.02254343  0.58258632  0.39122717  1
  O  O5  1  0.98739389  0.40546497  0.60653020  1
  O  O6  1  0.49709168  0.11140220  0.38729386  1
  O  O7  1  0.55149451  0.90622650  0.62735937  1
  O  O8  1  0.41168892  0.79734660  0.97970614  1
  O  O9  1  0.57422656  0.19169940  0.99472719  1
  O  O10  1  0.92261416  0.26475214  0.00828708  1
  O  O11  1  0.08125931  0.74376193  0.98674608  1
loop_
_geom_bond_atom_site_label_1
_geom_bond_atom_site_label_2
_geom_bond_distance
_geom_bond_site_symmetry_2
Mg0 O7 2.037657 1_555
Mg0 O2 2.087835 1_555
Mg0 O4 2.103919 1_555
Mg0 O3 2.140836 1_555
Al0 O8 1.849734 1_554
Al0 O0 1.872092 1_555
Al0 O11 1.889187 1_554
Al0 O6 1.907780 1_565
Al0 O7 2.000357 1_555
Al0 O3 2.074144 1_555
Al1 O2 1.871758 1_555
Al1 O1 1.906758 1_555
Al1 O9 1.929457 1_555
Al1 O7 1.930893 1_545
Al1 O10 1.937231 1_556
Al1 O6 1.970096 1_555
Al2 O8 1.898796 1_555
Al2 O0 1.914661 1_455
Al2 O11 1.917738 1_555
Al2 O5 1.934829 1_455
Al2 O4 1.962864 1_555
Al2 O3 2.046112 1_455
Al3 O9 1.881187 1_554
Al3 O5 1.897269 1_555
Al3 O1 1.934072 1_655
Al3 O2 1.934083 1_655
Al3 O10 1.979899 1_555
Al3 O4 1.997864 1_655
H0 O0 0.981391 1_555
H1 O1 0.999691 1_665
H2 O2 1.094540 1_555
H2 Mg0 1.962007 1_555
H3 O3 0.978405 1_555
H4 O4 1.061996 1_655
H5 O5 0.981690 1_555
H6 O6 0.976938 1_555
H7 O7 0.986776 1_555
H8 O8 1.043400 1_555
H8 Mg0 2.337013 1_555
H9 O9 0.978661 1_555
H10 O10 0.974404 1_556
H11 O11 1.037492 1_654
H11 Mg0 2.327916 1_554
