# generated using pymatgen
data_LiCaAl3
_symmetry_space_group_name_H-M   'P 1'
_cell_length_a   6.93379868
_cell_length_b   6.93379868
_cell_length_c   5.24378400
_cell_angle_alpha   90.00000000
_cell_angle_beta   90.00000000
_cell_angle_gamma   120.00000651
_symmetry_Int_Tables_number   1
_chemical_formula_structural   LiCaAl3
_chemical_formula_sum   'Li2 Ca2 Al6'
_cell_volume   218.33223143
_cell_formula_units_Z   2
loop_
 _symmetry_equiv_pos_site_id
 _symmetry_equiv_pos_as_xyz
  1  'x, y, z'
loop_
 _atom_site_type_symbol
 _atom_site_label
 _atom_site_symmetry_multiplicity
 _atom_site_fract_x
 _atom_site_fract_y
 _atom_site_fract_z
 _atom_site_occupancy
  Li  Li0  1  0.00000000  0.00000000  0.75000000  1
  Li  Li1  1  0.00000000  0.00000000  0.25000000  1
  Ca  Ca0  1  0.66666700  0.33333300  0.75000000  1
  Ca  Ca1  1  0.33333300  0.66666700  0.25000000  1
  Al  Al0  1  0.59557000  0.77971000  0.75000000  1
  Al  Al1  1  0.18414000  0.40443000  0.75000000  1
  Al  Al2  1  0.22029000  0.81586000  0.75000000  1
  Al  Al3  1  0.40443000  0.22029000  0.25000000  1
  Al  Al4  1  0.81586000  0.59557000  0.25000000  1
  Al  Al5  1  0.77971000  0.18414000  0.25000000  1
loop_
_geom_bond_atom_site_label_1
_geom_bond_atom_site_label_2
_geom_bond_distance
_geom_bond_site_symmetry_2
Li0 Li1 2.621892 1_555
Li0 Li1 2.621892 1_556
Al0 Li0 2.431771 1_665
Al0 Al1 2.736069 1_555
Al0 Al2 2.736069 1_555
Al0 Ca1 3.060994 1_556
Al0 Ca1 3.060994 1_555
Al0 Ca0 3.368737 1_555
Al0 Ca0 3.617505 1_565
Al1 Li0 2.431771 1_555
Al1 Al2 2.736069 1_555
Al1 Ca1 3.060993 1_555
Al1 Ca1 3.060993 1_556
Al1 Ca0 3.368730 1_455
Al1 Ca0 3.617512 1_555
Al2 Li0 2.431772 1_565
Al2 Ca1 3.060991 1_556
Al2 Ca1 3.060991 1_555
Al2 Ca0 3.368732 1_565
Al2 Ca0 3.617507 1_455
Al3 Li1 2.431771 1_555
Al3 Al4 2.736069 1_555
Al3 Al5 2.736069 1_555
Al3 Ca0 3.060994 1_555
Al3 Ca0 3.060994 1_554
Al3 Ca1 3.368737 1_555
Al3 Ca1 3.617505 1_545
Al4 Li1 2.431771 1_665
Al4 Al5 2.736069 1_555
Al4 Ca0 3.060993 1_555
Al4 Ca0 3.060993 1_554
Al4 Ca1 3.368730 1_655
Al4 Ca1 3.617512 1_555
Al5 Li1 2.431772 1_655
Al5 Ca0 3.060991 1_554
Al5 Ca0 3.060991 1_555
Al5 Ca1 3.368732 1_545
Al5 Ca1 3.617507 1_655
