# generated using pymatgen
data_CaLaCrSbO6
_symmetry_space_group_name_H-M   'P 1'
_cell_length_a   5.87612000
_cell_length_b   5.66513000
_cell_length_c   9.69879359
_cell_angle_alpha   54.50767761
_cell_angle_beta   90.00000000
_cell_angle_gamma   90.00000000
_symmetry_Int_Tables_number   1
_chemical_formula_structural   CaLaCrSbO6
_chemical_formula_sum   'Ca2 La2 Cr2 Sb2 O12'
_cell_volume   262.87288453
_cell_formula_units_Z   2
loop_
 _symmetry_equiv_pos_site_id
 _symmetry_equiv_pos_as_xyz
  1  'x, y, z'
loop_
 _atom_site_type_symbol
 _atom_site_label
 _atom_site_symmetry_multiplicity
 _atom_site_fract_x
 _atom_site_fract_y
 _atom_site_fract_z
 _atom_site_occupancy
  Ca  Ca0  1  0.69513000  0.26427800  0.24948900  1
  Ca  Ca1  1  0.30487000  0.26427800  0.74948900  1
  La  La0  1  0.19851300  0.73644700  0.25050500  1
  La  La1  1  0.80148700  0.73644700  0.75050500  1
  Cr  Cr0  1  0.25214900  0.99856200  0.50083900  1
  Cr  Cr1  1  0.74785100  0.99856200  0.00083900  1
  Sb  Sb0  1  0.25248200  0.50068300  0.99904600  1
  Sb  Sb1  1  0.74751800  0.50068300  0.49904600  1
  O  O0  1  0.71421700  0.15669400  0.74583600  1
  O  O1  1  0.43940900  0.73068800  0.05072200  1
  O  O2  1  0.46162400  0.35835500  0.44814100  1
  O  O3  1  0.96205600  0.63812500  0.05297600  1
  O  O4  1  0.93408700  0.26694800  0.44824000  1
  O  O5  1  0.21806000  0.84922300  0.75420600  1
  O  O6  1  0.28578300  0.15669400  0.24583600  1
  O  O7  1  0.56059100  0.73068800  0.55072200  1
  O  O8  1  0.53837600  0.35835500  0.94814100  1
  O  O9  1  0.03794400  0.63812500  0.55297600  1
  O  O10  1  0.06591300  0.26694800  0.94824000  1
  O  O11  1  0.78194000  0.84922300  0.25420600  1
loop_
_geom_bond_atom_site_label_1
_geom_bond_atom_site_label_2
_geom_bond_distance
_geom_bond_site_symmetry_2
Ca0 O11 2.380376 1_545
Ca0 O4 2.391968 1_555
Ca0 O3 2.427140 1_555
Ca0 O6 2.486686 1_555
Ca0 O1 2.653515 1_555
Ca0 O2 2.659173 1_555
Ca0 O8 2.804632 1_554
Ca0 O7 2.836067 1_545
Ca1 O5 2.380376 1_545
Ca1 O10 2.391968 1_555
Ca1 O9 2.427140 1_555
Ca1 O0 2.486686 1_555
Ca1 O7 2.653515 1_555
Ca1 O8 2.659173 1_555
Ca1 O2 2.804632 1_555
Ca1 O1 2.836067 1_546
La0 O6 2.409943 1_565
La0 O1 2.415100 1_555
La0 O2 2.425893 1_555
La0 O11 2.535347 1_455
La0 O3 2.673987 1_455
La0 O4 2.691378 1_455
La0 O9 2.812312 1_555
La0 O10 2.828944 1_564
La1 O0 2.409943 1_565
La1 O7 2.415100 1_555
La1 O8 2.425893 1_555
La1 O5 2.535347 1_655
La1 O9 2.673987 1_655
La1 O10 2.691378 1_655
La1 O3 2.812312 1_556
La1 O4 2.828944 1_565
Cr0 O5 2.092936 1_555
Cr0 O6 2.094201 1_565
Cr0 O2 2.172834 1_565
Cr0 O9 2.193284 1_555
Cr0 O7 2.229217 1_555
Cr0 O4 2.272525 1_465
Cr1 O11 2.092936 1_555
Cr1 O0 2.094201 1_564
Cr1 O8 2.172834 1_564
Cr1 O3 2.193284 1_555
Cr1 O1 2.229217 1_555
Cr1 O10 2.272525 1_664
O0 Sb1 2.036848 1_555
O1 Sb0 1.978345 1_554
O2 Sb1 2.044105 1_555
O3 Sb0 2.065228 1_654
O4 Sb1 1.988890 1_555
O5 Sb0 2.033235 1_555
O6 Sb0 2.036848 1_554
O7 Sb1 1.978345 1_555
O8 Sb0 2.044105 1_555
O9 Sb1 2.065228 1_455
O10 Sb0 1.988890 1_555
O11 Sb1 2.033235 1_555
