# generated using pymatgen
data_Li4MnCo2O7
_symmetry_space_group_name_H-M   'P 1'
_cell_length_a   4.95255800
_cell_length_b   5.12195824
_cell_length_c   10.24540239
_cell_angle_alpha   100.31488782
_cell_angle_beta   98.10248081
_cell_angle_gamma   100.05603004
_symmetry_Int_Tables_number   1
_chemical_formula_structural   Li4MnCo2O7
_chemical_formula_sum   'Li8 Mn2 Co4 O14'
_cell_volume   247.75461980
_cell_formula_units_Z   2
loop_
 _symmetry_equiv_pos_site_id
 _symmetry_equiv_pos_as_xyz
  1  'x, y, z'
loop_
 _atom_site_type_symbol
 _atom_site_label
 _atom_site_symmetry_multiplicity
 _atom_site_fract_x
 _atom_site_fract_y
 _atom_site_fract_z
 _atom_site_occupancy
  Li  Li0  1  0.30093500  0.57275100  0.07262500  1
  Li  Li1  1  0.43341100  0.85691200  0.36739300  1
  Li  Li2  1  0.85128000  0.70941900  0.21765900  1
  Li  Li3  1  0.00751700  0.01277400  0.50943600  1
  Li  Li4  1  0.55790200  0.13232100  0.63801700  1
  Li  Li5  1  0.13451600  0.29734900  0.76944100  1
  Li  Li6  1  0.70631500  0.42653700  0.92190200  1
  Li  Li7  1  0.28190600  0.57735700  0.57223300  1
  Mn  Mn0  1  0.00206300  0.99353800  0.00104400  1
  Mn  Mn1  1  0.14446400  0.28215400  0.28548700  1
  Co  Co0  1  0.42715900  0.85829000  0.85571400  1
  Co  Co1  1  0.57766400  0.13721800  0.14385900  1
  Co  Co2  1  0.71707500  0.43533000  0.43603300  1
  Co  Co3  1  0.85679600  0.71880300  0.70463800  1
  O  O0  1  0.08294800  0.67125300  0.89951900  1
  O  O1  1  0.22270400  0.95223900  0.17105500  1
  O  O2  1  0.66597600  0.81153500  0.04513300  1
  O  O3  1  0.79318400  0.08620300  0.30872900  1
  O  O4  1  0.34782500  0.21757900  0.44344300  1
  O  O5  1  0.89971600  0.36997200  0.60501000  1
  O  O6  1  0.51096100  0.54512800  0.76164000  1
  O  O7  1  0.48680300  0.46137100  0.24337500  1
  O  O8  1  0.65505800  0.77669900  0.53382600  1
  O  O9  1  0.05877600  0.60303200  0.37752600  1
  O  O10  1  0.19770300  0.93337900  0.68806700  1
  O  O11  1  0.78783200  0.05668300  0.84057300  1
  O  O12  1  0.36102700  0.18298000  0.97447800  1
  O  O13  1  0.93048500  0.32119500  0.11214500  1
loop_
_geom_bond_atom_site_label_1
_geom_bond_atom_site_label_2
_geom_bond_distance
_geom_bond_site_symmetry_2
Li0 O7 2.078478 1_555
Li0 O2 2.082873 1_555
Li0 O0 2.129890 1_554
Li0 O1 2.148562 1_555
Li0 O12 2.158292 1_554
Li0 O13 2.181927 1_455
Li1 O4 2.012571 1_565
Li1 O8 2.040133 1_555
Li1 O9 2.098645 1_555
Li1 O3 2.176969 1_565
Li1 O7 2.269090 1_555
Li1 O1 2.304711 1_555
Li2 O9 2.019008 1_655
Li2 O2 2.069211 1_555
Li2 O3 2.074250 1_565
Li2 O7 2.096419 1_555
Li2 O1 2.195419 1_655
Li2 O13 2.213286 1_555
Li3 O8 2.016338 1_445
Li3 O10 2.077585 1_545
Li3 O4 2.087081 1_555
Li3 O5 2.106667 1_455
Li3 O3 2.301690 1_455
Li3 O9 2.358480 1_545
Li4 O5 2.012699 1_555
Li4 O10 2.072137 1_545
Li4 O8 2.107931 1_545
Li4 O4 2.265597 1_555
Li4 O6 2.329049 1_555
Li4 O11 2.351465 1_555
Li5 O10 1.997266 1_545
Li5 O5 2.037630 1_455
Li5 O6 2.084450 1_555
Li5 O0 2.204937 1_555
Li5 O11 2.221244 1_455
Li5 O12 2.453646 1_555
Li6 O6 2.028695 1_555
Li6 O11 2.059753 1_555
Li6 O0 2.123682 1_655
Li6 O12 2.127440 1_555
Li6 O2 2.199908 1_556
Li6 O13 2.301863 1_556
Li7 O8 2.074260 1_555
Li7 O5 2.104428 1_455
Li7 O10 2.130177 1_555
Li7 O6 2.153936 1_555
Li7 O4 2.168921 1_555
Li7 O9 2.177426 1_555
Mn0 O2 1.914277 1_455
Mn0 O0 1.923749 1_554
Mn0 O11 1.936978 1_464
Mn0 O12 1.950562 1_564
Mn0 O13 1.968563 1_465
Mn0 O1 1.987192 1_555
Mn1 O9 1.889930 1_555
Mn1 O4 1.895072 1_555
Mn1 O3 1.919190 1_455
Mn1 O7 1.925582 1_555
Mn1 O13 1.996929 1_455
Mn1 O1 2.006834 1_545
Co0 O6 1.861624 1_555
Co0 O11 1.935983 1_565
Co0 O0 1.955654 1_555
Co0 O12 1.982788 1_565
Co0 O10 2.056329 1_555
Co0 O2 2.200180 1_556
Co1 O1 1.927871 1_545
Co1 O13 1.934297 1_555
Co1 O2 1.942246 1_545
Co1 O7 1.944905 1_555
Co1 O3 1.951423 1_555
Co1 O12 1.981475 1_554
Co2 O5 1.949180 1_555
Co2 O8 1.949948 1_555
Co2 O9 1.980831 1_655
Co2 O4 1.987744 1_555
Co2 O3 2.140015 1_555
Co2 O7 2.174249 1_555
Co3 O10 1.893913 1_655
Co3 O5 1.954493 1_555
Co3 O8 1.986263 1_555
Co3 O6 2.000470 1_555
Co3 O11 2.128065 1_565
Co3 O0 2.222466 1_655
