# generated using pymatgen
data_La2Fe(SeO)2
_symmetry_space_group_name_H-M   'P 1'
_cell_length_a   3.97525507
_cell_length_b   6.01529721
_cell_length_c   6.72618613
_cell_angle_alpha   68.43569149
_cell_angle_beta   72.81212112
_cell_angle_gamma   70.70519006
_symmetry_Int_Tables_number   1
_chemical_formula_structural   La2Fe(SeO)2
_chemical_formula_sum   'La2 Fe1 Se2 O2'
_cell_volume   138.37567832
_cell_formula_units_Z   1
loop_
 _symmetry_equiv_pos_site_id
 _symmetry_equiv_pos_as_xyz
  1  'x, y, z'
loop_
 _atom_site_type_symbol
 _atom_site_label
 _atom_site_symmetry_multiplicity
 _atom_site_fract_x
 _atom_site_fract_y
 _atom_site_fract_z
 _atom_site_occupancy
  La  La0  1  0.80687811  0.64237154  0.74387124  1
  La  La1  1  0.19312189  0.35762846  0.25612876  1
  Fe  Fe0  1  -0.00000000  0.00000000  0.00000000  1
  Se  Se0  1  0.55697495  0.20045430  0.68559580  1
  Se  Se1  1  0.44302505  0.79954570  0.31440420  1
  O  O0  1  0.19246739  0.69475837  0.92030584  1
  O  O1  1  0.80753261  0.30524163  0.07969416  1
loop_
_geom_bond_atom_site_label_1
_geom_bond_atom_site_label_2
_geom_bond_distance
_geom_bond_site_symmetry_2
La0 O0 2.350817 1_555
La0 O0 2.350818 1_655
La0 O1 2.418158 1_556
La0 Se0 3.077196 1_565
La0 Se1 3.299766 1_555
La0 Se1 3.299768 1_655
La0 Se0 3.308802 1_555
La0 Se0 3.308804 1_655
La1 O1 2.350817 1_555
La1 O1 2.350818 1_455
La1 O0 2.418158 1_554
La1 Se1 3.077196 1_545
La1 Se0 3.299766 1_555
La1 Se0 3.299768 1_455
La1 Se1 3.308802 1_555
La1 Se1 3.308804 1_455
Fe0 O1 1.948532 1_455
Fe0 O0 1.948532 1_544
Fe0 Se0 2.819751 1_554
Fe0 Se1 2.819751 1_445
Fe0 Se1 2.819751 1_545
Fe0 Se0 2.819751 1_454
