# generated using pymatgen
data_SiNiMo
_symmetry_space_group_name_H-M   'P 1'
_cell_length_a   4.71869627
_cell_length_b   4.71869627
_cell_length_c   7.71012800
_cell_angle_alpha   90.00000000
_cell_angle_beta   90.00000000
_cell_angle_gamma   117.89784552
_symmetry_Int_Tables_number   1
_chemical_formula_structural   SiNiMo
_chemical_formula_sum   'Si4 Ni4 Mo4'
_cell_volume   151.72298892
_cell_formula_units_Z   4
loop_
 _symmetry_equiv_pos_site_id
 _symmetry_equiv_pos_as_xyz
  1  'x, y, z'
loop_
 _atom_site_type_symbol
 _atom_site_label
 _atom_site_symmetry_multiplicity
 _atom_site_fract_x
 _atom_site_fract_y
 _atom_site_fract_z
 _atom_site_occupancy
  Si  Si0  1  0.16063600  0.34940500  0.50000000  1
  Si  Si1  1  0.65059500  0.83936400  0.50000000  1
  Si  Si2  1  0.00896100  0.99103900  0.23090900  1
  Si  Si3  1  0.00896100  0.99103900  0.76909100  1
  Ni  Ni0  1  0.83137600  0.16862400  0.00000000  1
  Ni  Ni1  1  0.82947900  0.65388100  0.00000000  1
  Ni  Ni2  1  0.34611900  0.17052100  0.00000000  1
  Ni  Ni3  1  0.15276100  0.84723900  0.50000000  1
  Mo  Mo0  1  0.66464100  0.33535900  0.68679400  1
  Mo  Mo1  1  0.34084100  0.65915900  0.80730400  1
  Mo  Mo2  1  0.34084100  0.65915900  0.19269600  1
  Mo  Mo3  1  0.66464100  0.33535900  0.31320600  1
loop_
_geom_bond_atom_site_label_1
_geom_bond_atom_site_label_2
_geom_bond_distance
_geom_bond_site_symmetry_2
Si0 Si1 2.385035 1_555
Si0 Si1 2.482791 1_445
Si0 Si2 2.558067 1_545
Si0 Si3 2.558067 1_545
Si1 Si2 2.558067 1_655
Si1 Si3 2.558067 1_655
Ni0 Si2 2.287159 1_645
Ni0 Si3 2.287159 1_644
Ni0 Ni2 2.293982 1_555
Ni0 Ni1 2.293982 1_555
Ni0 Ni1 2.424740 1_545
Ni0 Ni2 2.424740 1_655
Ni1 Si3 2.270924 1_654
Ni1 Si2 2.270924 1_655
Ni1 Ni2 2.352912 1_555
Ni1 Ni2 2.514914 1_665
Ni2 Si2 2.270924 1_545
Ni2 Si3 2.270924 1_544
Ni3 Si1 2.352411 1_455
Ni3 Si0 2.352411 1_565
Ni3 Si1 2.366742 1_555
Ni3 Si0 2.366742 1_555
Ni3 Si2 2.378279 1_555
Ni3 Si3 2.378279 1_555
Mo0 Si0 2.722339 1_655
Mo0 Si1 2.722339 1_545
Mo0 Ni2 2.757095 1_556
Mo0 Ni1 2.757095 1_556
Mo0 Ni0 2.765651 1_556
Mo0 Mo1 2.777946 1_555
Mo0 Si1 2.807516 1_555
Mo0 Si0 2.807516 1_555
Mo0 Si3 2.812622 1_545
Mo0 Si3 2.812622 1_655
Mo0 Ni3 2.829726 1_655
Mo0 Ni3 2.829726 1_545
Mo0 Si3 2.855255 1_645
Mo0 Mo3 2.880411 1_555
Mo0 Mo1 2.969295 1_545
Mo0 Mo1 2.969295 1_655
Mo1 Si3 2.699406 1_555
Mo1 Si0 2.703739 1_555
Mo1 Si1 2.703739 1_555
Mo1 Ni1 2.752836 1_556
Mo1 Ni2 2.752836 1_556
Mo1 Si3 2.803273 1_545
Mo1 Si3 2.803273 1_655
Mo1 Ni3 2.815349 1_555
Mo1 Ni2 2.823846 1_566
Mo1 Ni1 2.823846 1_456
Mo1 Ni0 2.852565 1_566
Mo1 Ni0 2.852565 1_456
Mo1 Mo2 2.971422 1_556
Mo2 Si2 2.699406 1_555
Mo2 Si0 2.703739 1_555
Mo2 Si1 2.703739 1_555
Mo2 Ni1 2.752836 1_555
Mo2 Ni2 2.752836 1_555
Mo2 Mo3 2.777946 1_555
Mo2 Si2 2.803273 1_545
Mo2 Si2 2.803273 1_655
Mo2 Ni3 2.815349 1_555
Mo2 Ni2 2.823846 1_565
Mo2 Ni1 2.823846 1_455
Mo2 Ni0 2.852565 1_565
Mo2 Ni0 2.852565 1_455
Mo2 Mo3 2.969295 1_455
Mo2 Mo3 2.969295 1_565
Mo3 Si0 2.722339 1_655
Mo3 Si1 2.722339 1_545
Mo3 Ni1 2.757095 1_555
Mo3 Ni2 2.757095 1_555
Mo3 Ni0 2.765651 1_555
Mo3 Si1 2.807516 1_555
Mo3 Si0 2.807516 1_555
Mo3 Si2 2.812622 1_545
Mo3 Si2 2.812622 1_655
Mo3 Ni3 2.829726 1_655
Mo3 Ni3 2.829726 1_545
Mo3 Si2 2.855255 1_645
